# generated using pymatgen
data_Y3AlNi8
_symmetry_space_group_name_H-M   'P 1'
_cell_length_a   5.07707330
_cell_length_b   5.07707330
_cell_length_c   16.55542000
_cell_angle_alpha   90.00000000
_cell_angle_beta   90.00000000
_cell_angle_gamma   120.02724997
_symmetry_Int_Tables_number   1
_chemical_formula_structural   Y3AlNi8
_chemical_formula_sum   'Y6 Al2 Ni16'
_cell_volume   369.46932286
_cell_formula_units_Z   2
loop_
 _symmetry_equiv_pos_site_id
 _symmetry_equiv_pos_as_xyz
  1  'x, y, z'
loop_
 _atom_site_type_symbol
 _atom_site_label
 _atom_site_symmetry_multiplicity
 _atom_site_fract_x
 _atom_site_fract_y
 _atom_site_fract_z
 _atom_site_occupancy
  Y  Y0  1  0.00001500  0.99998500  0.75000000  1
  Y  Y1  1  0.99998500  0.00001500  0.25000000  1
  Y  Y2  1  0.66665400  0.33334600  0.04725700  1
  Y  Y3  1  0.33334600  0.66665400  0.95274300  1
  Y  Y4  1  0.33334600  0.66665400  0.54725700  1
  Y  Y5  1  0.66665400  0.33334600  0.45274300  1
  Al  Al0  1  0.66671200  0.33328800  0.25000000  1
  Al  Al1  1  0.33328800  0.66671200  0.75000000  1
  Ni  Ni0  1  0.82574300  0.65145200  0.61813900  1
  Ni  Ni1  1  0.82573900  0.17426100  0.61814900  1
  Ni  Ni2  1  0.34854800  0.17425700  0.61813900  1
  Ni  Ni3  1  0.17425700  0.34854800  0.38186100  1
  Ni  Ni4  1  0.17426100  0.82573900  0.38185100  1
  Ni  Ni5  1  0.65145200  0.82574300  0.38186100  1
  Ni  Ni6  1  0.17425700  0.34854800  0.11813900  1
  Ni  Ni7  1  0.17426100  0.82573900  0.11814900  1
  Ni  Ni8  1  0.65145200  0.82574300  0.11813900  1
  Ni  Ni9  1  0.82574300  0.65145200  0.88186100  1
  Ni  Ni10  1  0.82573900  0.17426100  0.88185100  1
  Ni  Ni11  1  0.34854800  0.17425700  0.88186100  1
  Ni  Ni12  1  0.66672400  0.33327600  0.75000000  1
  Ni  Ni13  1  0.33327600  0.66672400  0.25000000  1
  Ni  Ni14  1  0.00000000  0.00000000  0.50000000  1
  Ni  Ni15  1  0.00000000  0.00000000  0.00000000  1
loop_
_geom_bond_atom_site_label_1
_geom_bond_atom_site_label_2
_geom_bond_distance
_geom_bond_site_symmetry_2
Y2 Y3 3.322124 1_654
Y2 Y3 3.322124 1_544
Y2 Y3 3.322894 1_554
Y4 Y5 3.322124 1_565
Y4 Y5 3.322124 1_455
Y4 Y5 3.322894 1_555
Al0 Ni13 2.929993 1_655
Al0 Ni13 2.929993 1_545
Al0 Y1 2.930710 1_565
Al0 Y1 2.930710 1_455
Al0 Y1 2.931121 1_555
Al0 Ni13 2.932555 1_555
Al0 Y5 3.356496 1_555
Al0 Y2 3.356496 1_555
Al1 Ni12 2.929993 1_565
Al1 Ni12 2.929993 1_455
Al1 Y0 2.930710 1_655
Al1 Y0 2.930710 1_545
Al1 Y0 2.931121 1_555
Al1 Ni12 2.932555 1_555
Al1 Y3 3.356496 1_555
Al1 Y4 3.356496 1_555
Ni0 Ni2 2.421756 1_555
Ni0 Ni1 2.422724 1_555
Ni0 Ni14 2.484481 1_665
Ni0 Ni12 2.592609 1_555
Ni0 Ni2 2.653226 1_665
Ni0 Ni1 2.654350 1_565
Ni0 Y0 2.666961 1_655
Ni0 Y4 2.797424 1_655
Ni0 Y4 2.797463 1_555
Ni0 Y5 3.074565 1_555
Ni1 Ni2 2.422724 1_555
Ni1 Ni14 2.484930 1_655
Ni1 Ni12 2.592434 1_555
Ni1 Ni2 2.654350 1_655
Ni1 Y0 2.667236 1_645
Ni1 Y4 2.796566 1_655
Ni1 Y4 2.796566 1_545
Ni1 Y5 3.075103 1_555
Ni2 Y0 2.666961 1_545
Ni2 Y4 2.797424 1_545
Ni2 Y4 2.797463 1_555
Ni2 Y5 3.074565 1_555
Ni3 Ni5 2.421756 1_555
Ni3 Ni4 2.422724 1_555
Ni3 Ni5 2.653226 1_445
Ni3 Ni4 2.654350 1_545
Ni3 Y1 2.666961 1_455
Ni3 Y5 2.797424 1_455
Ni3 Y5 2.797463 1_555
Ni3 Y4 3.074565 1_555
Ni4 Ni5 2.422724 1_555
Ni4 Ni5 2.654350 1_455
Ni4 Y1 2.667236 1_465
Ni4 Y5 2.796566 1_565
Ni4 Y5 2.796566 1_455
Ni4 Y4 3.075103 1_555
Ni5 Y1 2.666961 1_565
Ni5 Y5 2.797424 1_565
Ni5 Y5 2.797463 1_555
Ni5 Y4 3.074565 1_555
Ni6 Ni8 2.421756 1_555
Ni6 Ni7 2.422724 1_555
Ni6 Ni8 2.653226 1_445
Ni6 Ni7 2.654350 1_545
Ni6 Y1 2.666961 1_455
Ni6 Y2 2.797424 1_455
Ni6 Y2 2.797463 1_555
Ni6 Y3 3.074565 1_554
Ni7 Ni8 2.422724 1_555
Ni7 Ni8 2.654350 1_455
Ni7 Y1 2.667236 1_465
Ni7 Y2 2.796566 1_565
Ni7 Y2 2.796566 1_455
Ni7 Y3 3.075103 1_554
Ni8 Y1 2.666961 1_565
Ni8 Y2 2.797424 1_565
Ni8 Y2 2.797463 1_555
Ni8 Y3 3.074565 1_554
Ni9 Y0 2.666961 1_655
Ni9 Y3 2.797424 1_655
Ni9 Y3 2.797463 1_555
Ni9 Y2 3.074565 1_556
Ni10 Ni9 2.422724 1_555
Ni10 Ni11 2.422724 1_555
Ni10 Ni15 2.484930 1_656
Ni10 Ni12 2.592434 1_555
Ni10 Ni11 2.654350 1_655
Ni10 Ni9 2.654350 1_545
Ni10 Y0 2.667236 1_645
Ni10 Y3 2.796566 1_655
Ni10 Y3 2.796566 1_545
Ni10 Y2 3.075103 1_556
Ni11 Ni9 2.421756 1_555
Ni11 Ni15 2.484481 1_556
Ni11 Ni12 2.592609 1_555
Ni11 Ni9 2.653226 1_445
Ni11 Y0 2.666961 1_545
Ni11 Y3 2.797424 1_545
Ni11 Y3 2.797463 1_555
Ni11 Y2 3.074565 1_556
Ni12 Ni9 2.592609 1_555
Ni12 Ni2 2.592609 1_555
Ni12 Y0 2.930631 1_545
Ni12 Y0 2.930631 1_655
Ni12 Y0 2.931280 1_645
Ni13 Ni4 2.592434 1_555
Ni13 Ni7 2.592434 1_555
Ni13 Ni5 2.592609 1_555
Ni13 Ni8 2.592609 1_555
Ni13 Ni6 2.592609 1_555
Ni13 Ni3 2.592609 1_555
Ni13 Y1 2.930631 1_455
Ni13 Y1 2.930631 1_565
Ni13 Y1 2.931280 1_465
Ni14 Ni2 2.484481 1_555
Ni14 Ni3 2.484481 1_555
Ni14 Ni5 2.484481 1_445
Ni14 Ni4 2.484930 1_545
Ni14 Y4 3.033029 1_555
Ni14 Y5 3.033029 1_555
Ni14 Y5 3.033029 1_445
Ni14 Y4 3.033029 1_445
Ni14 Y5 3.034357 1_455
Ni14 Y4 3.034357 1_545
Ni15 Ni6 2.484481 1_555
Ni15 Ni8 2.484481 1_445
Ni15 Ni9 2.484481 1_444
Ni15 Ni7 2.484930 1_545
Ni15 Y3 3.033029 1_554
Ni15 Y2 3.033029 1_555
Ni15 Y3 3.033029 1_444
Ni15 Y2 3.033029 1_445
Ni15 Y3 3.034357 1_544
Ni15 Y2 3.034357 1_455
