# generated using pymatgen
data_BaCaNiF7
_symmetry_space_group_name_H-M   'P 1'
_cell_length_a   10.59476800
_cell_length_b   5.69964700
_cell_length_c   9.92422346
_cell_angle_alpha   88.22881938
_cell_angle_beta   90.00000000
_cell_angle_gamma   90.00000000
_symmetry_Int_Tables_number   1
_chemical_formula_structural   BaCaNiF7
_chemical_formula_sum   'Ba4 Ca4 Ni4 F28'
_cell_volume   599.00218128
_cell_formula_units_Z   4
loop_
 _symmetry_equiv_pos_site_id
 _symmetry_equiv_pos_as_xyz
  1  'x, y, z'
loop_
 _atom_site_type_symbol
 _atom_site_label
 _atom_site_symmetry_multiplicity
 _atom_site_fract_x
 _atom_site_fract_y
 _atom_site_fract_z
 _atom_site_occupancy
  Ba  Ba0  1  0.33332500  0.73787400  0.50723100  1
  Ba  Ba1  1  0.83332500  0.26212600  0.99276900  1
  Ba  Ba2  1  0.66667500  0.26212600  0.49276900  1
  Ba  Ba3  1  0.16667500  0.73787400  0.00723100  1
  Ca  Ca0  1  0.40799900  0.29160600  0.82207500  1
  Ca  Ca1  1  0.90799900  0.70839400  0.67792500  1
  Ca  Ca2  1  0.09200100  0.29160600  0.32207500  1
  Ca  Ca3  1  0.59200100  0.70839400  0.17792500  1
  Ni  Ni0  1  0.62228500  0.80874000  0.80762500  1
  Ni  Ni1  1  0.37771500  0.19126000  0.19237500  1
  Ni  Ni2  1  0.87771500  0.80874000  0.30762500  1
  Ni  Ni3  1  0.12228500  0.19126000  0.69237500  1
  F  F0  1  0.42112300  0.90661500  0.10821600  1
  F  F1  1  0.03242000  0.65695300  0.36765100  1
  F  F2  1  0.70235200  0.53749800  0.73734500  1
  F  F3  1  0.29764800  0.46250200  0.26265500  1
  F  F4  1  0.45637800  0.09292700  0.35355500  1
  F  F5  1  0.79893800  0.72045600  0.47660600  1
  F  F6  1  0.77328400  0.99148500  0.74764700  1
  F  F7  1  0.95637800  0.90707300  0.14644500  1
  F  F8  1  0.46758000  0.65695300  0.86765100  1
  F  F9  1  0.20235200  0.46250200  0.76265500  1
  F  F10  1  0.07887700  0.90661500  0.60821600  1
  F  F11  1  0.57887700  0.09338500  0.89178400  1
  F  F12  1  0.27328400  0.00851500  0.75235300  1
  F  F13  1  0.95713400  0.61380600  0.88517000  1
  F  F14  1  0.54362200  0.90707300  0.64644500  1
  F  F15  1  0.04362200  0.09292700  0.85355500  1
  F  F16  1  0.22671600  0.00851500  0.25235300  1
  F  F17  1  0.92112300  0.09338500  0.39178400  1
  F  F18  1  0.45713400  0.38619400  0.61483000  1
  F  F19  1  0.96758000  0.34304700  0.63234900  1
  F  F20  1  0.04286600  0.38619400  0.11483000  1
  F  F21  1  0.72671600  0.99148500  0.24764700  1
  F  F22  1  0.54286600  0.61380600  0.38517000  1
  F  F23  1  0.29893800  0.27954400  0.02339400  1
  F  F24  1  0.20106200  0.27954400  0.52339400  1
  F  F25  1  0.70106200  0.72045600  0.97660600  1
  F  F26  1  0.53242000  0.34304700  0.13234900  1
  F  F27  1  0.79764800  0.53749800  0.23734500  1
loop_
_geom_bond_atom_site_label_1
_geom_bond_atom_site_label_2
_geom_bond_distance
_geom_bond_site_symmetry_2
Ba0 F18 2.597387 1_555
Ba0 F22 2.636090 1_555
Ba0 F14 2.808090 1_555
Ba0 F4 2.816050 1_565
Ba0 F3 2.955199 1_555
Ba0 F24 2.964400 1_555
Ba0 F12 2.988957 1_565
Ba0 F10 3.042434 1_555
Ba0 F16 3.132452 1_565
Ba0 F9 3.250941 1_555
Ba1 F13 2.597387 1_555
Ba1 F20 2.636090 1_656
Ba1 F15 2.808090 1_655
Ba1 F7 2.816050 1_546
Ba1 F27 2.955199 1_556
Ba1 F25 2.964400 1_555
Ba1 F6 2.988957 1_545
Ba1 F11 3.042434 1_555
Ba1 F21 3.132452 1_546
Ba1 F2 3.250941 1_555
Ba2 F22 2.597387 1_555
Ba2 F18 2.636090 1_555
Ba2 F4 2.808090 1_555
Ba2 F14 2.816050 1_545
Ba2 F2 2.955199 1_555
Ba2 F5 2.964400 1_555
Ba2 F21 2.988957 1_545
Ba2 F17 3.042434 1_555
Ba2 F6 3.132452 1_545
Ba2 F27 3.250941 1_555
Ba3 F20 2.597387 1_555
Ba3 F13 2.636090 1_454
Ba3 F7 2.808090 1_455
Ba3 F15 2.816050 1_564
Ba3 F9 2.955199 1_554
Ba3 F23 2.964400 1_555
Ba3 F16 2.988957 1_565
Ba3 F0 3.042434 1_555
Ba3 F12 3.132452 1_564
Ba3 F3 3.250941 1_555
Ca0 F18 2.173317 1_555
Ca0 F11 2.232555 1_555
Ca0 F8 2.235498 1_555
Ca0 F12 2.277794 1_555
Ca0 F23 2.307185 1_556
Ca0 F9 2.451142 1_555
Ca1 F13 2.173317 1_555
Ca1 F10 2.232555 1_655
Ca1 F19 2.235498 1_555
Ca1 F6 2.277794 1_555
Ca1 F5 2.307185 1_555
Ca1 F2 2.451142 1_555
Ca2 F20 2.173317 1_555
Ca2 F17 2.232555 1_455
Ca2 F1 2.235498 1_555
Ca2 F16 2.277794 1_555
Ca2 F24 2.307185 1_555
Ca2 F3 2.451142 1_555
Ca3 F22 2.173317 1_555
Ca3 F0 2.232555 1_555
Ca3 F26 2.235498 1_555
Ca3 F21 2.277794 1_555
Ca3 F25 2.307185 1_554
Ca3 F27 2.451142 1_555
F0 Ni1 1.903931 1_565
F1 Ni2 1.938555 1_455
F2 Ni0 1.913842 1_555
F3 Ni1 1.913842 1_555
F4 Ni1 1.874022 1_555
F5 Ni2 1.926130 1_555
F6 Ni0 1.990033 1_555
F7 Ni2 1.874022 1_555
F8 Ni0 1.938555 1_555
F9 Ni3 1.913842 1_555
F10 Ni3 1.903931 1_565
F11 Ni0 1.903931 1_545
F12 Ni3 1.990033 1_555
F14 Ni0 1.874022 1_555
F15 Ni3 1.874022 1_555
F16 Ni1 1.990033 1_555
F17 Ni2 1.903931 1_545
F19 Ni3 1.938555 1_655
F21 Ni2 1.990033 1_555
F23 Ni1 1.926130 1_555
F24 Ni3 1.926130 1_555
F25 Ni0 1.926130 1_555
F26 Ni1 1.938555 1_555
F27 Ni2 1.913842 1_555
