# generated using pymatgen
data_RbMg6Cd
_symmetry_space_group_name_H-M   'P 1'
_cell_length_a   5.41185700
_cell_length_b   6.90916200
_cell_length_c   11.79674500
_cell_angle_alpha   90.00000000
_cell_angle_beta   90.00000000
_cell_angle_gamma   90.00000000
_symmetry_Int_Tables_number   1
_chemical_formula_structural   RbMg6Cd
_chemical_formula_sum   'Rb2 Mg12 Cd2'
_cell_volume   441.09677246
_cell_formula_units_Z   2
loop_
 _symmetry_equiv_pos_site_id
 _symmetry_equiv_pos_as_xyz
  1  'x, y, z'
loop_
 _atom_site_type_symbol
 _atom_site_label
 _atom_site_symmetry_multiplicity
 _atom_site_fract_x
 _atom_site_fract_y
 _atom_site_fract_z
 _atom_site_occupancy
  Rb  Rb0  1  0.00000000  0.00000000  0.16815600  1
  Rb  Rb1  1  0.00000000  0.50000000  0.66815600  1
  Mg  Mg0  1  0.00000000  0.24542600  0.41860400  1
  Mg  Mg1  1  0.00000000  0.75457400  0.41860400  1
  Mg  Mg2  1  0.00000000  0.00000000  0.66216300  1
  Mg  Mg3  1  0.50000000  0.22726600  0.57498900  1
  Mg  Mg4  1  0.50000000  0.77273400  0.57498900  1
  Mg  Mg5  1  0.50000000  0.00000000  0.83340600  1
  Mg  Mg6  1  0.00000000  0.74542600  0.91860400  1
  Mg  Mg7  1  0.00000000  0.25457400  0.91860400  1
  Mg  Mg8  1  0.00000000  0.50000000  0.16216300  1
  Mg  Mg9  1  0.50000000  0.72726600  0.07498900  1
  Mg  Mg10  1  0.50000000  0.27273400  0.07498900  1
  Mg  Mg11  1  0.50000000  0.50000000  0.33340600  1
  Cd  Cd0  1  0.50000000  0.00000000  0.34908900  1
  Cd  Cd1  1  0.50000000  0.50000000  0.84908900  1
loop_
_geom_bond_atom_site_label_1
_geom_bond_atom_site_label_2
_geom_bond_distance
_geom_bond_site_symmetry_2
Mg0 Mg3 3.277378 1_455
Mg0 Mg3 3.277378 1_555
Mg0 Mg2 3.336264 1_555
Mg0 Mg11 3.380222 1_455
Mg0 Mg11 3.380222 1_555
Mg0 Rb0 3.406502 1_555
Mg0 Rb1 3.429323 1_555
Mg0 Mg8 3.499336 1_555
Mg1 Mg4 3.277378 1_455
Mg1 Mg4 3.277378 1_555
Mg1 Mg2 3.336264 1_565
Mg1 Mg11 3.380222 1_455
Mg1 Mg11 3.380222 1_555
Mg1 Rb0 3.406502 1_565
Mg1 Rb1 3.429323 1_555
Mg1 Mg8 3.499336 1_555
Mg2 Mg3 3.293201 1_455
Mg2 Mg3 3.293201 1_555
Mg2 Mg4 3.293201 1_445
Mg2 Mg4 3.293201 1_545
Mg2 Mg5 3.376817 1_555
Mg2 Mg5 3.376817 1_455
Mg2 Rb1 3.455304 1_545
Mg2 Rb1 3.455304 1_555
Mg2 Mg7 3.499336 1_555
Mg2 Mg6 3.499336 1_545
Mg3 Mg4 3.140435 1_545
Mg3 Mg5 3.429112 1_555
Mg3 Rb1 3.475748 1_555
Mg3 Rb1 3.475748 1_655
Mg4 Mg5 3.429112 1_565
Mg4 Rb1 3.475748 1_655
Mg4 Rb1 3.475748 1_555
Mg5 Mg7 3.380222 1_655
Mg5 Mg7 3.380222 1_555
Mg5 Mg6 3.380222 1_645
Mg5 Mg6 3.380222 1_545
Mg5 Mg9 3.416536 1_546
Mg6 Mg9 3.277378 1_456
Mg6 Mg9 3.277378 1_556
Mg6 Mg8 3.336264 1_556
Mg6 Rb1 3.406502 1_555
Mg6 Rb0 3.429323 1_566
Mg7 Mg8 3.336264 1_556
Mg7 Rb1 3.406502 1_555
Mg7 Rb0 3.429323 1_556
Mg8 Mg9 3.293201 1_455
Mg8 Mg9 3.293201 1_555
Mg8 Rb0 3.455304 1_565
Mg8 Rb0 3.455304 1_555
Mg9 Rb0 3.475748 1_565
Mg9 Rb0 3.475748 1_665
Mg10 Mg9 3.140435 1_555
Mg10 Mg7 3.277378 1_554
Mg10 Mg7 3.277378 1_654
Mg10 Mg8 3.293201 1_555
Mg10 Mg8 3.293201 1_655
Mg10 Mg5 3.416536 1_554
Mg10 Mg11 3.429112 1_555
Mg10 Rb0 3.475748 1_555
Mg10 Rb0 3.475748 1_655
Mg11 Mg8 3.376817 1_555
Mg11 Mg8 3.376817 1_655
Mg11 Mg4 3.416536 1_555
Mg11 Mg3 3.416536 1_555
Mg11 Mg9 3.429112 1_555
Cd0 Mg3 3.093088 1_555
Cd0 Mg4 3.093088 1_545
Cd0 Mg0 3.296952 1_555
Cd0 Mg0 3.296952 1_655
Cd0 Mg1 3.296952 1_545
Cd0 Mg1 3.296952 1_645
Cd0 Rb0 3.446418 1_655
Cd0 Rb0 3.446418 1_555
Cd0 Mg11 3.459531 1_555
Cd0 Mg11 3.459531 1_545
Cd1 Mg9 3.093088 1_556
Cd1 Mg10 3.093088 1_556
Cd1 Mg6 3.296952 1_555
Cd1 Mg6 3.296952 1_655
Cd1 Mg7 3.296952 1_655
Cd1 Mg7 3.296952 1_555
Cd1 Rb1 3.446418 1_655
Cd1 Rb1 3.446418 1_555
Cd1 Mg5 3.459531 1_555
Cd1 Mg5 3.459531 1_565
