# generated using pymatgen
data_Sc2TlHg
_symmetry_space_group_name_H-M   'P 1'
_cell_length_a   5.01265131
_cell_length_b   5.01265131
_cell_length_c   5.01265131
_cell_angle_alpha   60.00000000
_cell_angle_beta   60.00000000
_cell_angle_gamma   60.00000000
_symmetry_Int_Tables_number   1
_chemical_formula_structural   Sc2TlHg
_chemical_formula_sum   'Sc2 Tl1 Hg1'
_cell_volume   89.06098353
_cell_formula_units_Z   1
loop_
 _symmetry_equiv_pos_site_id
 _symmetry_equiv_pos_as_xyz
  1  'x, y, z'
loop_
 _atom_site_type_symbol
 _atom_site_label
 _atom_site_symmetry_multiplicity
 _atom_site_fract_x
 _atom_site_fract_y
 _atom_site_fract_z
 _atom_site_occupancy
  Sc  Sc0  1  0.25000000  0.25000000  0.25000000  1
  Sc  Sc1  1  0.75000000  0.75000000  0.75000000  1
  Tl  Tl0  1  -0.00000000  -0.00000000  -0.00000000  1
  Hg  Hg0  1  0.50000000  0.50000000  0.50000000  1
loop_
_geom_bond_atom_site_label_1
_geom_bond_atom_site_label_2
_geom_bond_distance
_geom_bond_site_symmetry_2
Sc0 Tl0 3.069609 1_565
Sc0 Tl0 3.069609 1_655
Sc0 Tl0 3.069609 1_556
Sc0 Tl0 3.069609 1_555
Sc1 Tl0 3.069609 1_665
Sc1 Tl0 3.069609 1_656
Sc1 Tl0 3.069609 1_566
Sc1 Tl0 3.069609 1_666
Hg0 Sc0 3.069609 1_565
Hg0 Sc0 3.069609 1_655
Hg0 Sc1 3.069609 1_545
Hg0 Sc0 3.069609 1_555
Hg0 Sc0 3.069609 1_556
Hg0 Sc1 3.069609 1_455
Hg0 Sc1 3.069609 1_554
Hg0 Sc1 3.069609 1_555
