# generated using pymatgen
data_Al12Re
_symmetry_space_group_name_H-M   'P 1'
_cell_length_a   6.47590448
_cell_length_b   6.47590395
_cell_length_c   6.47590357
_cell_angle_alpha   109.47121942
_cell_angle_beta   109.47121777
_cell_angle_gamma   109.47122958
_symmetry_Int_Tables_number   1
_chemical_formula_structural   Al12Re
_chemical_formula_sum   'Al12 Re1'
_cell_volume   209.06401609
_cell_formula_units_Z   1
loop_
 _symmetry_equiv_pos_site_id
 _symmetry_equiv_pos_as_xyz
  1  'x, y, z'
loop_
 _atom_site_type_symbol
 _atom_site_label
 _atom_site_symmetry_multiplicity
 _atom_site_fract_x
 _atom_site_fract_y
 _atom_site_fract_z
 _atom_site_occupancy
  Al  Al0  1  0.49558532  0.30803846  0.18754586  1
  Al  Al1  1  0.30803846  0.81245414  0.12049359  1
  Al  Al2  1  0.18754586  0.87950641  0.69196154  1
  Al  Al3  1  0.69196154  0.81245414  0.50441468  1
  Al  Al4  1  0.81245414  0.12049359  0.30803846  1
  Al  Al5  1  0.69196154  0.18754586  0.87950641  1
  Al  Al6  1  0.81245414  0.50441468  0.69196154  1
  Al  Al7  1  0.18754586  0.49558532  0.30803846  1
  Al  Al8  1  0.30803846  0.18754586  0.49558532  1
  Al  Al9  1  0.12049359  0.30803846  0.81245414  1
  Al  Al10  1  0.87950641  0.69196154  0.18754586  1
  Al  Al11  1  0.50441468  0.69196154  0.81245414  1
  Re  Re0  1  -0.00000000  0.00000000  0.00000000  1
loop_
_geom_bond_atom_site_label_1
_geom_bond_atom_site_label_2
_geom_bond_distance
_geom_bond_site_symmetry_2
Al0 Re0 2.696773 1_555
Al0 Al4 2.742353 1_555
Al0 Al3 2.742363 1_555
Al0 Al6 2.742363 1_555
Al0 Al5 2.742363 1_554
Al0 Al9 2.804835 1_554
Al0 Al2 2.843306 1_544
Al0 Al1 2.843306 1_545
Al0 Al8 2.843314 1_555
Al0 Al7 2.843314 1_555
Al0 Al10 2.870865 1_555
Al1 Re0 2.696769 1_565
Al1 Al7 2.742353 1_555
Al1 Al11 2.742363 1_554
Al1 Al9 2.742365 1_554
Al1 Al4 2.742366 1_565
Al1 Al8 2.804835 1_565
Al1 Al2 2.843306 1_554
Al1 Al6 2.843306 1_454
Al1 Al10 2.843306 1_455
Al1 Al3 2.870866 1_555
Al2 Re0 2.696769 1_566
Al2 Al8 2.742363 1_565
Al2 Al5 2.742366 1_565
Al2 Al6 2.804834 1_455
Al2 Al9 2.843306 1_565
Al2 Al3 2.843307 1_455
Al2 Al7 2.870866 1_555
Al3 Re0 2.696773 1_666
Al3 Al4 2.742363 1_565
Al3 Al7 2.742363 1_555
Al3 Al5 2.804835 1_565
Al3 Al9 2.843306 1_665
Al3 Al6 2.843314 1_555
Al4 Re0 2.696769 1_655
Al4 Al9 2.742365 1_655
Al4 Al7 2.804834 1_655
Al4 Al5 2.843306 1_554
Al4 Al8 2.843307 1_655
Al4 Al6 2.870866 1_555
Al5 Re0 2.696769 1_656
Al5 Al6 2.742353 1_555
Al5 Al7 2.843306 1_656
Al5 Al9 2.843306 1_655
Al5 Al8 2.870866 1_555
Al6 Re0 2.696773 1_666
Al6 Al8 2.742363 1_555
Al6 Al9 2.742363 1_655
Al7 Re0 2.696773 1_555
Al7 Al9 2.843306 1_554
Al7 Al8 2.843314 1_555
Al8 Re0 2.696773 1_555
Al8 Al9 2.742353 1_555
Al9 Re0 2.696769 1_556
Al10 Re0 2.696769 1_665
Al10 Al3 2.742353 1_555
Al10 Al7 2.742363 1_655
Al10 Al5 2.742365 1_554
Al10 Al2 2.742365 1_655
Al10 Al11 2.804835 1_554
Al10 Al8 2.843306 1_665
Al10 Al6 2.843306 1_554
Al10 Al4 2.843306 1_565
Al11 Re0 2.696773 1_666
Al11 Al2 2.742353 1_555
Al11 Al8 2.742363 1_555
Al11 Al7 2.742363 1_555
Al11 Al4 2.843306 1_566
Al11 Al5 2.843306 1_565
Al11 Al3 2.843314 1_555
Al11 Al6 2.843314 1_555
Al11 Al9 2.870865 1_555
