# generated using pymatgen
data_SrMg5
_symmetry_space_group_name_H-M   'P 1'
_cell_length_a   7.04396420
_cell_length_b   7.04396420
_cell_length_c   30.75437200
_cell_angle_alpha   90.00000000
_cell_angle_beta   90.00000000
_cell_angle_gamma   120.00000189
_symmetry_Int_Tables_number   1
_chemical_formula_structural   SrMg5
_chemical_formula_sum   'Sr8 Mg40'
_cell_volume   1321.51399562
_cell_formula_units_Z   8
loop_
 _symmetry_equiv_pos_site_id
 _symmetry_equiv_pos_as_xyz
  1  'x, y, z'
loop_
 _atom_site_type_symbol
 _atom_site_label
 _atom_site_symmetry_multiplicity
 _atom_site_fract_x
 _atom_site_fract_y
 _atom_site_fract_z
 _atom_site_occupancy
  Sr  Sr0_0  1  0.33333350  0.16666650  0.00000000  1
  Sr  Sr0_1  1  0.33333350  0.16666650  0.50000000  1
  Sr  Sr0_2  1  0.33333350  0.66666650  0.00000000  1
  Sr  Sr0_3  1  0.33333350  0.66666650  0.50000000  1
  Sr  Sr0_4  1  0.83333350  0.16666650  0.00000000  1
  Sr  Sr0_5  1  0.83333350  0.16666650  0.50000000  1
  Sr  Sr0_6  1  0.83333350  0.66666650  0.00000000  1
  Sr  Sr0_7  1  0.83333350  0.66666650  0.50000000  1
  Mg  Mg0_0  1  0.00000000  0.00000000  0.40359400  1
  Mg  Mg0_1  1  0.00000000  0.00000000  0.90359400  1
  Mg  Mg0_2  1  0.00000000  0.50000000  0.40359400  1
  Mg  Mg0_3  1  0.00000000  0.50000000  0.90359400  1
  Mg  Mg0_4  1  0.50000000  0.00000000  0.40359400  1
  Mg  Mg0_5  1  0.50000000  0.00000000  0.90359400  1
  Mg  Mg0_6  1  0.50000000  0.50000000  0.40359400  1
  Mg  Mg0_7  1  0.50000000  0.50000000  0.90359400  1
  Mg  Mg1_0  1  0.33333350  0.16666650  0.32705500  1
  Mg  Mg1_1  1  0.33333350  0.16666650  0.82705500  1
  Mg  Mg1_2  1  0.33333350  0.66666650  0.32705500  1
  Mg  Mg1_3  1  0.33333350  0.66666650  0.82705500  1
  Mg  Mg1_4  1  0.83333350  0.16666650  0.32705500  1
  Mg  Mg1_5  1  0.83333350  0.16666650  0.82705500  1
  Mg  Mg1_6  1  0.83333350  0.66666650  0.32705500  1
  Mg  Mg1_7  1  0.83333350  0.66666650  0.82705500  1
  Mg  Mg2_0  1  0.00000000  0.00000000  0.25000000  1
  Mg  Mg2_1  1  0.00000000  0.00000000  0.75000000  1
  Mg  Mg2_2  1  0.00000000  0.50000000  0.25000000  1
  Mg  Mg2_3  1  0.00000000  0.50000000  0.75000000  1
  Mg  Mg2_4  1  0.50000000  0.00000000  0.25000000  1
  Mg  Mg2_5  1  0.50000000  0.00000000  0.75000000  1
  Mg  Mg2_6  1  0.50000000  0.50000000  0.25000000  1
  Mg  Mg2_7  1  0.50000000  0.50000000  0.75000000  1
  Mg  Mg3_0  1  0.33333350  0.16666650  0.17294500  1
  Mg  Mg3_1  1  0.33333350  0.16666650  0.67294500  1
  Mg  Mg3_2  1  0.33333350  0.66666650  0.17294500  1
  Mg  Mg3_3  1  0.33333350  0.66666650  0.67294500  1
  Mg  Mg3_4  1  0.83333350  0.16666650  0.17294500  1
  Mg  Mg3_5  1  0.83333350  0.16666650  0.67294500  1
  Mg  Mg3_6  1  0.83333350  0.66666650  0.17294500  1
  Mg  Mg3_7  1  0.83333350  0.66666650  0.67294500  1
  Mg  Mg4_0  1  0.00000000  0.00000000  0.09640600  1
  Mg  Mg4_1  1  0.00000000  0.00000000  0.59640600  1
  Mg  Mg4_2  1  0.00000000  0.50000000  0.09640600  1
  Mg  Mg4_3  1  0.00000000  0.50000000  0.59640600  1
  Mg  Mg4_4  1  0.50000000  0.00000000  0.09640600  1
  Mg  Mg4_5  1  0.50000000  0.00000000  0.59640600  1
  Mg  Mg4_6  1  0.50000000  0.50000000  0.09640600  1
  Mg  Mg4_7  1  0.50000000  0.50000000  0.59640600  1
loop_
_geom_bond_atom_site_label_1
_geom_bond_atom_site_label_2
_geom_bond_distance
_geom_bond_site_symmetry_2
Sr0_0 Sr0_6 3.521982 1_555
Sr0_0 Sr0_6 3.521982 1_445
Sr0_0 Sr0_4 3.521982 1_555
Sr0_0 Sr0_4 3.521982 1_455
Sr0_0 Sr0_2 3.521982 1_545
Sr0_0 Sr0_2 3.521982 1_555
Sr0_1 Sr0_7 3.521982 1_555
Sr0_1 Sr0_7 3.521982 1_445
Sr0_1 Sr0_5 3.521982 1_555
Sr0_1 Sr0_3 3.521982 1_555
Sr0_1 Sr0_3 3.521982 1_545
Sr0_1 Sr0_5 3.521982 1_455
Sr0_2 Sr0_4 3.521982 1_565
Sr0_2 Sr0_4 3.521982 1_455
Sr0_2 Sr0_6 3.521982 1_555
Sr0_2 Sr0_6 3.521982 1_455
Sr0_3 Sr0_5 3.521982 1_565
Sr0_3 Sr0_5 3.521982 1_455
Sr0_3 Sr0_7 3.521982 1_555
Sr0_3 Sr0_7 3.521982 1_455
Sr0_4 Sr0_6 3.521982 1_555
Sr0_4 Sr0_6 3.521982 1_545
Sr0_5 Sr0_7 3.521982 1_545
Sr0_5 Sr0_7 3.521982 1_555
Mg0_0 Mg1_4 3.110573 1_455
Mg0_0 Mg1_6 3.110575 1_445
Mg0_0 Mg1_0 3.110575 1_555
Mg0_0 Mg0_6 3.521982 1_445
Mg0_0 Mg0_6 3.521982 1_555
Mg0_0 Mg0_4 3.521982 1_555
Mg0_0 Mg0_2 3.521982 1_545
Mg0_0 Mg0_2 3.521982 1_555
Mg0_0 Mg0_4 3.521982 1_455
Mg0_0 Sr0_5 3.595198 1_455
Mg0_0 Sr0_1 3.595199 1_555
Mg0_0 Sr0_7 3.595199 1_445
Mg0_1 Mg1_5 3.110573 1_455
Mg0_1 Mg1_7 3.110575 1_445
Mg0_1 Mg1_1 3.110575 1_555
Mg0_1 Mg0_7 3.521982 1_445
Mg0_1 Mg0_7 3.521982 1_555
Mg0_1 Mg0_5 3.521982 1_455
Mg0_1 Mg0_5 3.521982 1_555
Mg0_1 Mg0_3 3.521982 1_555
Mg0_1 Mg0_3 3.521982 1_545
Mg0_1 Sr0_4 3.595198 1_456
Mg0_1 Sr0_6 3.595199 1_446
Mg0_1 Sr0_0 3.595199 1_556
Mg0_2 Mg1_6 3.110573 1_455
Mg0_2 Mg1_4 3.110575 1_455
Mg0_2 Mg1_2 3.110575 1_555
Mg0_2 Mg0_4 3.521982 1_455
Mg0_2 Mg0_4 3.521982 1_565
Mg0_2 Mg0_6 3.521982 1_455
Mg0_2 Mg0_6 3.521982 1_555
Mg0_2 Sr0_7 3.595198 1_455
Mg0_2 Sr0_5 3.595199 1_455
Mg0_2 Sr0_3 3.595199 1_555
Mg0_3 Mg1_7 3.110573 1_455
Mg0_3 Mg1_5 3.110575 1_455
Mg0_3 Mg1_3 3.110575 1_555
Mg0_3 Mg0_5 3.521982 1_565
Mg0_3 Mg0_5 3.521982 1_455
Mg0_3 Mg0_7 3.521982 1_555
Mg0_3 Mg0_7 3.521982 1_455
Mg0_3 Sr0_6 3.595198 1_456
Mg0_3 Sr0_4 3.595199 1_456
Mg0_3 Sr0_2 3.595199 1_556
Mg0_4 Mg1_0 3.110573 1_555
Mg0_4 Mg1_4 3.110575 1_555
Mg0_4 Mg1_2 3.110575 1_545
Mg0_4 Mg0_6 3.521982 1_545
Mg0_4 Mg0_6 3.521982 1_555
Mg0_4 Sr0_1 3.595198 1_555
Mg0_4 Sr0_5 3.595199 1_555
Mg0_4 Sr0_3 3.595199 1_545
Mg0_5 Mg1_1 3.110573 1_555
Mg0_5 Mg1_5 3.110575 1_555
Mg0_5 Mg1_3 3.110575 1_545
Mg0_5 Mg0_7 3.521982 1_545
Mg0_5 Mg0_7 3.521982 1_555
Mg0_5 Sr0_0 3.595198 1_556
Mg0_5 Sr0_4 3.595199 1_556
Mg0_5 Sr0_2 3.595199 1_546
Mg0_6 Mg1_2 3.110573 1_555
Mg0_6 Mg1_0 3.110575 1_555
Mg0_6 Mg1_6 3.110575 1_555
Mg0_6 Sr0_3 3.595198 1_555
Mg0_6 Sr0_7 3.595199 1_555
Mg0_6 Sr0_1 3.595199 1_555
Mg0_7 Mg1_3 3.110573 1_555
Mg0_7 Mg1_7 3.110575 1_555
Mg0_7 Mg1_1 3.110575 1_555
Mg0_7 Sr0_2 3.595198 1_556
Mg0_7 Sr0_6 3.595199 1_556
Mg0_7 Sr0_0 3.595199 1_556
Mg1_0 Mg2_4 3.122599 1_555
Mg1_0 Mg2_6 3.122601 1_555
Mg1_0 Mg2_0 3.122601 1_555
Mg1_1 Mg2_5 3.122599 1_555
Mg1_1 Mg2_7 3.122601 1_555
Mg1_1 Mg2_1 3.122601 1_555
Mg1_2 Mg2_6 3.122599 1_555
Mg1_2 Mg2_4 3.122601 1_565
Mg1_2 Mg2_2 3.122601 1_555
Mg1_3 Mg2_7 3.122599 1_555
Mg1_3 Mg2_5 3.122601 1_565
Mg1_3 Mg2_3 3.122601 1_555
Mg1_4 Mg2_0 3.122599 1_655
Mg1_4 Mg2_4 3.122601 1_555
Mg1_4 Mg2_2 3.122601 1_655
Mg1_5 Mg2_1 3.122599 1_655
Mg1_5 Mg2_3 3.122601 1_655
Mg1_5 Mg2_5 3.122601 1_555
Mg1_6 Mg2_2 3.122599 1_655
Mg1_6 Mg2_6 3.122601 1_555
Mg1_6 Mg2_0 3.122601 1_665
Mg1_7 Mg2_3 3.122599 1_655
Mg1_7 Mg2_7 3.122601 1_555
Mg1_7 Mg2_1 3.122601 1_665
Mg2_0 Mg3_4 3.122599 1_455
Mg2_0 Mg3_6 3.122601 1_445
Mg2_0 Mg3_0 3.122601 1_555
Mg2_1 Mg3_5 3.122599 1_455
Mg2_1 Mg3_7 3.122601 1_445
Mg2_1 Mg3_1 3.122601 1_555
Mg2_2 Mg3_6 3.122599 1_455
Mg2_2 Mg3_4 3.122601 1_455
Mg2_2 Mg3_2 3.122601 1_555
Mg2_3 Mg3_7 3.122599 1_455
Mg2_3 Mg3_5 3.122601 1_455
Mg2_3 Mg3_3 3.122601 1_555
Mg2_4 Mg3_0 3.122599 1_555
Mg2_4 Mg3_4 3.122601 1_555
Mg2_4 Mg3_2 3.122601 1_545
Mg2_5 Mg3_1 3.122599 1_555
Mg2_5 Mg3_3 3.122601 1_545
Mg2_5 Mg3_5 3.122601 1_555
Mg2_6 Mg3_2 3.122599 1_555
Mg2_6 Mg3_0 3.122601 1_555
Mg2_6 Mg3_6 3.122601 1_555
Mg2_7 Mg3_3 3.122599 1_555
Mg2_7 Mg3_1 3.122601 1_555
Mg2_7 Mg3_7 3.122601 1_555
Mg3_0 Mg4_4 3.110573 1_555
Mg3_0 Mg4_6 3.110575 1_555
Mg3_0 Mg4_0 3.110575 1_555
Mg3_1 Mg4_5 3.110573 1_555
Mg3_1 Mg4_7 3.110575 1_555
Mg3_1 Mg4_1 3.110575 1_555
Mg3_2 Mg4_6 3.110573 1_555
Mg3_2 Mg4_2 3.110575 1_555
Mg3_2 Mg4_4 3.110575 1_565
Mg3_3 Mg4_7 3.110573 1_555
Mg3_3 Mg4_5 3.110575 1_565
Mg3_3 Mg4_3 3.110575 1_555
Mg3_4 Mg4_0 3.110573 1_655
Mg3_4 Mg4_2 3.110575 1_655
Mg3_4 Mg4_4 3.110575 1_555
Mg3_5 Mg4_1 3.110573 1_655
Mg3_5 Mg4_5 3.110575 1_555
Mg3_5 Mg4_3 3.110575 1_655
Mg3_6 Mg4_2 3.110573 1_655
Mg3_6 Mg4_6 3.110575 1_555
Mg3_6 Mg4_0 3.110575 1_665
Mg3_7 Mg4_3 3.110573 1_655
Mg3_7 Mg4_1 3.110575 1_665
Mg3_7 Mg4_7 3.110575 1_555
Mg4_0 Mg4_6 3.521982 1_555
Mg4_0 Mg4_6 3.521982 1_445
Mg4_0 Mg4_4 3.521982 1_555
Mg4_0 Mg4_4 3.521982 1_455
Mg4_0 Mg4_2 3.521982 1_545
Mg4_0 Mg4_2 3.521982 1_555
Mg4_0 Sr0_4 3.595198 1_455
Mg4_0 Sr0_0 3.595199 1_555
Mg4_0 Sr0_6 3.595199 1_445
Mg4_1 Mg4_7 3.521982 1_445
Mg4_1 Mg4_7 3.521982 1_555
Mg4_1 Mg4_5 3.521982 1_455
Mg4_1 Mg4_3 3.521982 1_545
Mg4_1 Mg4_5 3.521982 1_555
Mg4_1 Mg4_3 3.521982 1_555
Mg4_1 Sr0_5 3.595198 1_455
Mg4_1 Sr0_1 3.595199 1_555
Mg4_1 Sr0_7 3.595199 1_445
Mg4_2 Mg4_4 3.521982 1_565
Mg4_2 Mg4_4 3.521982 1_455
Mg4_2 Mg4_6 3.521982 1_455
Mg4_2 Mg4_6 3.521982 1_555
Mg4_2 Sr0_6 3.595198 1_455
Mg4_2 Sr0_4 3.595199 1_455
Mg4_2 Sr0_2 3.595199 1_555
Mg4_3 Mg4_5 3.521982 1_455
Mg4_3 Mg4_5 3.521982 1_565
Mg4_3 Mg4_7 3.521982 1_555
Mg4_3 Mg4_7 3.521982 1_455
Mg4_3 Sr0_7 3.595198 1_455
Mg4_3 Sr0_3 3.595199 1_555
Mg4_3 Sr0_5 3.595199 1_455
Mg4_4 Mg4_6 3.521982 1_545
Mg4_4 Mg4_6 3.521982 1_555
Mg4_4 Sr0_0 3.595198 1_555
Mg4_4 Sr0_4 3.595199 1_555
Mg4_4 Sr0_2 3.595199 1_545
Mg4_5 Mg4_7 3.521982 1_545
Mg4_5 Mg4_7 3.521982 1_555
Mg4_5 Sr0_1 3.595198 1_555
Mg4_5 Sr0_5 3.595199 1_555
Mg4_5 Sr0_3 3.595199 1_545
Mg4_6 Sr0_2 3.595198 1_555
Mg4_6 Sr0_6 3.595199 1_555
Mg4_6 Sr0_0 3.595199 1_555
Mg4_7 Sr0_3 3.595198 1_555
Mg4_7 Sr0_7 3.595199 1_555
Mg4_7 Sr0_1 3.595199 1_555
