# generated using pymatgen
data_Nd3CuSnSe7
_symmetry_space_group_name_H-M   'P 1'
_cell_length_a   10.59525425
_cell_length_b   10.59525425
_cell_length_c   6.34624082
_cell_angle_alpha   90.00000000
_cell_angle_beta   90.00000000
_cell_angle_gamma   119.99999758
_symmetry_Int_Tables_number   1
_chemical_formula_structural   Nd3CuSnSe7
_chemical_formula_sum   'Nd6 Cu2 Sn2 Se14'
_cell_volume   616.97839467
_cell_formula_units_Z   2
loop_
 _symmetry_equiv_pos_site_id
 _symmetry_equiv_pos_as_xyz
  1  'x, y, z'
loop_
 _atom_site_type_symbol
 _atom_site_label
 _atom_site_symmetry_multiplicity
 _atom_site_fract_x
 _atom_site_fract_y
 _atom_site_fract_z
 _atom_site_occupancy
  Nd  Nd0  1  0.64400588  0.86185749  0.95834708  1
  Nd  Nd1  1  0.78214739  0.64400588  0.45834708  1
  Nd  Nd2  1  0.86185749  0.21785261  0.45834708  1
  Nd  Nd3  1  0.13814251  0.78214739  0.95834708  1
  Nd  Nd4  1  0.21785261  0.35599412  0.95834708  1
  Nd  Nd5  1  0.35599412  0.13814251  0.45834708  1
  Cu  Cu0  1  0.00000000  0.00000000  0.50755620  1
  Cu  Cu1  1  0.00000000  0.00000000  0.00755620  1
  Sn  Sn0  1  0.66666700  0.33333300  0.88144476  1
  Sn  Sn1  1  0.33333300  0.66666700  0.38144476  1
  Se  Se0  1  0.48485102  0.57021190  0.21026515  1
  Se  Se1  1  0.91463911  0.48485102  0.71026515  1
  Se  Se2  1  0.57021190  0.08536089  0.71026515  1
  Se  Se3  1  0.42978810  0.91463911  0.21026515  1
  Se  Se4  1  0.33333300  0.66666700  0.77416746  1
  Se  Se5  1  0.66666700  0.33333300  0.27416746  1
  Se  Se6  1  0.08536089  0.51514898  0.21026515  1
  Se  Se7  1  0.51514898  0.42978810  0.71026515  1
  Se  Se8  1  0.25596694  0.10158007  0.99599797  1
  Se  Se9  1  0.15438686  0.25596694  0.49599797  1
  Se  Se10  1  0.10158007  0.84561314  0.49599797  1
  Se  Se11  1  0.89841993  0.15438686  0.99599797  1
  Se  Se12  1  0.84561314  0.74403306  0.99599797  1
  Se  Se13  1  0.74403306  0.89841993  0.49599797  1
loop_
_geom_bond_atom_site_label_1
_geom_bond_atom_site_label_2
_geom_bond_distance
_geom_bond_site_symmetry_2
Nd0 Se11 2.928298 1_565
Nd0 Se12 2.974058 1_555
Nd0 Se3 3.047865 1_556
Nd0 Se13 3.077681 1_555
Nd0 Se4 3.109787 1_555
Nd0 Se0 3.120457 1_556
Nd0 Se2 3.247970 1_565
Nd0 Se13 3.536224 1_556
Nd1 Se13 2.928292 1_555
Nd1 Se10 2.974067 1_655
Nd1 Se7 3.047859 1_555
Nd1 Se12 3.077681 1_554
Nd1 Se5 3.109790 1_555
Nd1 Se1 3.120464 1_555
Nd1 Se0 3.247961 1_555
Nd1 Se12 3.536225 1_555
Nd2 Se9 2.928302 1_655
Nd2 Se13 2.974068 1_545
Nd2 Se1 3.047856 1_555
Nd2 Se11 3.077684 1_554
Nd2 Se5 3.109771 1_555
Nd2 Se2 3.120456 1_555
Nd2 Se6 3.247964 1_655
Nd2 Se11 3.536227 1_555
Nd3 Se12 2.928302 1_455
Nd3 Se8 2.974068 1_565
Nd3 Se6 3.047856 1_556
Nd3 Se10 3.077684 1_555
Nd3 Se4 3.109771 1_555
Nd3 Se3 3.120456 1_556
Nd3 Se1 3.247964 1_455
Nd3 Se10 3.536227 1_556
Nd4 Se8 2.928292 1_555
Nd4 Se11 2.974067 1_455
Nd4 Se0 3.047859 1_556
Nd4 Se9 3.077681 1_555
Nd4 Se4 3.109790 1_555
Nd4 Se6 3.120464 1_556
Nd4 Se7 3.247961 1_555
Nd4 Se9 3.536225 1_556
Nd5 Se10 2.928298 1_545
Nd5 Se9 2.974058 1_555
Nd5 Se2 3.047865 1_555
Nd5 Se8 3.077681 1_554
Nd5 Se5 3.109787 1_555
Nd5 Se7 3.120457 1_555
Nd5 Se3 3.247970 1_545
Nd5 Se8 3.536224 1_555
Cu0 Se10 2.366430 1_545
Cu0 Se13 2.366430 1_445
Cu0 Se9 2.366430 1_555
Cu0 Nd5 3.308469 1_555
Cu0 Nd1 3.308470 1_445
Cu0 Nd2 3.308479 1_455
Cu1 Se11 2.366430 1_454
Cu1 Se8 2.366430 1_554
Cu1 Se12 2.366430 1_444
Cu1 Nd0 3.308469 1_444
Cu1 Nd4 3.308470 1_554
Cu1 Nd3 3.308479 1_544
Se0 Sn1 2.538192 1_555
Se1 Sn0 2.538185 1_555
Se2 Sn0 2.538183 1_555
Se3 Sn1 2.538183 1_555
Se4 Sn1 2.492313 1_555
Se5 Sn0 2.492313 1_554
Se6 Sn1 2.538185 1_555
Se7 Sn0 2.538192 1_555
