# generated using pymatgen
data_Tb2Fe17CN
_symmetry_space_group_name_H-M   'P 1'
_cell_length_a   6.50734979
_cell_length_b   6.44374601
_cell_length_c   6.47318505
_cell_angle_alpha   83.00791941
_cell_angle_beta   83.69436224
_cell_angle_gamma   83.44790540
_symmetry_Int_Tables_number   1
_chemical_formula_structural   Tb2Fe17CN
_chemical_formula_sum   'Tb2 Fe17 C1 N1'
_cell_volume   266.38352071
_cell_formula_units_Z   1
loop_
 _symmetry_equiv_pos_site_id
 _symmetry_equiv_pos_as_xyz
  1  'x, y, z'
loop_
 _atom_site_type_symbol
 _atom_site_label
 _atom_site_symmetry_multiplicity
 _atom_site_fract_x
 _atom_site_fract_y
 _atom_site_fract_z
 _atom_site_occupancy
  Tb  Tb0  1  0.66024400  0.66125300  0.65293100  1
  Tb  Tb1  1  0.33975600  0.33874700  0.34706900  1
  Fe  Fe0  1  0.28488900  0.71344800  0.00186600  1
  Fe  Fe1  1  0.71703000  0.00044200  0.28294000  1
  Fe  Fe2  1  0.99839700  0.29166100  0.71011100  1
  Fe  Fe3  1  0.28297000  0.99955800  0.71706000  1
  Fe  Fe4  1  0.00160300  0.70833900  0.28988900  1
  Fe  Fe5  1  0.71511100  0.28655200  0.99813400  1
  Fe  Fe6  1  0.90467900  0.90413700  0.90472900  1
  Fe  Fe7  1  0.09532100  0.09586300  0.09527100  1
  Fe  Fe8  1  0.34057300  0.34504400  0.85262700  1
  Fe  Fe9  1  0.34079500  0.85072000  0.34342100  1
  Fe  Fe10  1  0.85240700  0.34420500  0.34266900  1
  Fe  Fe11  1  0.65942700  0.65495600  0.14737300  1
  Fe  Fe12  1  0.65920500  0.14928000  0.65657900  1
  Fe  Fe13  1  0.14759300  0.65579500  0.65733100  1
  Fe  Fe14  1  0.00000000  0.00000000  0.50000000  1
  Fe  Fe15  1  0.00000000  0.50000000  0.00000000  1
  Fe  Fe16  1  0.50000000  0.00000000  0.00000000  1
  C  C0  1  0.50000000  0.50000000  0.00000000  1
  N  N0  1  0.50000000  0.00000000  0.50000000  1
loop_
_geom_bond_atom_site_label_1
_geom_bond_atom_site_label_2
_geom_bond_distance
_geom_bond_site_symmetry_2
Fe0 Fe15 2.433022 1_555
Fe0 Fe16 2.439212 1_565
Fe0 Fe4 2.473737 1_555
Fe0 Fe13 2.573978 1_554
Fe0 Fe7 2.732160 1_565
Fe0 Fe6 2.736147 1_454
Fe1 N0 1.879585 1_555
Fe1 Fe16 2.432988 1_555
Fe1 Fe14 2.435382 1_655
Fe1 Fe4 2.485216 1_645
Fe1 Fe10 2.561442 1_555
Fe1 Fe6 2.722182 1_544
Fe1 Fe7 2.724030 1_655
Fe2 Fe5 2.473737 1_555
Fe2 Fe3 2.485216 1_645
Fe2 Fe8 2.575012 1_655
Fe2 Fe7 2.757482 1_656
Fe2 Fe6 2.758156 1_545
Fe2 Tb1 3.063105 1_655
Fe2 Tb0 3.069081 1_555
Fe3 N0 1.879585 1_565
Fe3 Fe7 2.722182 1_566
Fe3 Fe6 2.724030 1_455
Fe4 Fe9 2.557596 1_555
Fe4 Fe6 2.757482 1_454
Fe4 Fe7 2.758156 1_565
Fe4 Tb0 3.063105 1_455
Fe4 Tb1 3.069081 1_555
Fe5 Fe6 2.732160 1_545
Fe5 Fe7 2.736147 1_656
Fe6 Fe7 2.375607 1_666
Fe6 Tb0 3.065120 1_555
Fe7 Fe9 2.645220 1_545
Fe7 Fe8 2.648086 1_554
Fe7 Tb1 3.065120 1_555
Fe9 N0 1.929084 1_565
Fe10 Fe14 2.461261 1_655
Fe10 Fe15 2.461791 1_655
Fe10 Fe11 2.518599 1_555
Fe10 Fe12 2.542660 1_555
Fe10 Fe5 2.573978 1_554
Fe10 Fe4 2.610879 1_655
Fe10 Fe2 2.627050 1_555
Fe10 Fe7 2.667347 1_655
Fe10 Tb0 3.104079 1_555
Fe10 Tb1 3.170750 1_655
Fe10 Tb1 3.337154 1_555
Fe11 Fe15 2.466010 1_655
Fe11 Fe16 2.470700 1_565
Fe11 Fe4 2.575012 1_655
Fe11 Fe6 2.648086 1_554
Fe12 N0 1.929084 1_555
Fe12 Fe14 2.475372 1_655
Fe12 Fe16 2.478176 1_556
Fe12 Fe2 2.557596 1_555
Fe12 Fe6 2.645220 1_545
Fe13 Fe14 2.461261 1_565
Fe13 Fe15 2.461791 1_556
Fe13 Fe8 2.518599 1_555
Fe13 Fe9 2.542660 1_555
Fe13 Fe3 2.561442 1_555
Fe13 Fe2 2.610879 1_455
Fe13 Fe4 2.627050 1_555
Fe13 Fe6 2.667347 1_455
Fe13 Tb1 3.104079 1_555
Fe13 Tb0 3.170750 1_455
Fe13 Tb0 3.337154 1_555
Fe14 Fe3 2.435382 1_545
Fe14 Fe4 2.448834 1_545
Fe14 Fe2 2.448834 1_455
Fe14 Fe9 2.475372 1_545
Fe14 Fe6 2.639430 1_445
Fe14 Fe7 2.639430 1_555
Fe14 Tb0 3.275244 1_445
Fe14 Tb1 3.275244 1_555
Fe15 Fe5 2.433022 1_454
Fe15 Fe2 2.438128 1_454
Fe15 Fe4 2.438128 1_555
Fe15 Fe8 2.466010 1_554
Fe15 Fe6 2.621278 1_454
Fe15 Fe7 2.621278 1_555
Fe15 Tb0 3.318686 1_454
Fe15 Tb1 3.318686 1_555
Fe16 Fe3 2.432988 1_544
Fe16 Fe5 2.439212 1_554
Fe16 Fe8 2.470700 1_554
Fe16 Fe9 2.478176 1_545
Fe16 Fe7 2.657331 1_555
Fe16 Fe6 2.657331 1_544
Fe16 Tb1 3.325546 1_555
Fe16 Tb0 3.325546 1_544
C0 Fe0 1.847237 1_555
C0 Fe5 1.847237 1_554
C0 Fe8 1.915482 1_554
C0 Fe11 1.915482 1_555
C0 Tb0 2.525617 1_554
C0 Tb1 2.525617 1_555
N0 Tb1 2.452181 1_555
N0 Tb0 2.452181 1_545
