# generated using pymatgen
data_Th(BOs)2
_symmetry_space_group_name_H-M   'P 1'
_cell_length_a   6.81143717
_cell_length_b   6.05412780
_cell_length_c   5.61197941
_cell_angle_alpha   71.33112105
_cell_angle_beta   57.35746354
_cell_angle_gamma   51.31141541
_symmetry_Int_Tables_number   1
_chemical_formula_structural   Th(BOs)2
_chemical_formula_sum   'Th2 B4 Os4'
_cell_volume   152.05558216
_cell_formula_units_Z   2
loop_
 _symmetry_equiv_pos_site_id
 _symmetry_equiv_pos_as_xyz
  1  'x, y, z'
loop_
 _atom_site_type_symbol
 _atom_site_label
 _atom_site_symmetry_multiplicity
 _atom_site_fract_x
 _atom_site_fract_y
 _atom_site_fract_z
 _atom_site_occupancy
  Th  Th0  1  -0.00000000  0.00000000  -0.00000000  1
  Th  Th1  1  0.25000000  0.25000000  0.25000000  1
  B  B0  1  0.31676709  0.68323291  0.31676709  1
  B  B1  1  0.68323291  0.31676709  0.68323291  1
  B  B2  1  0.56676709  0.93323291  0.56676709  1
  B  B3  1  0.93323291  0.56676709  0.93323291  1
  Os  Os0  1  0.63742329  0.63742329  0.36257671  1
  Os  Os1  1  0.36257671  0.36257671  0.63742329  1
  Os  Os2  1  0.61257671  0.61257671  0.88742329  1
  Os  Os3  1  0.88742329  0.88742329  0.61257671  1
loop_
_geom_bond_atom_site_label_1
_geom_bond_atom_site_label_2
_geom_bond_distance
_geom_bond_site_symmetry_2
B0 Os2 2.096016 1_554
B0 Os3 2.096016 1_455
B0 Os0 2.171692 1_555
B0 Os1 2.171692 1_555
B0 Th0 2.876745 1_565
B0 Th1 3.087196 1_555
B0 Th1 3.087196 1_565
B1 Os3 2.096016 1_545
B1 Os2 2.096016 1_555
B1 Os0 2.171692 1_555
B1 Os1 2.171692 1_555
B1 Th0 2.876745 1_656
B1 Th1 3.087196 1_556
B1 Th1 3.087196 1_655
B2 Os1 2.096016 1_565
B2 Os0 2.096016 1_555
B2 Os2 2.171692 1_555
B2 Os3 2.171692 1_555
B2 Th1 2.876745 1_565
B2 Th0 3.087196 1_566
B2 Th0 3.087196 1_665
B3 Os1 2.096016 1_655
B3 Os0 2.096016 1_556
B3 Os2 2.171692 1_555
B3 Os3 2.171692 1_555
B3 Th1 2.876745 1_656
B3 Th0 3.087196 1_666
B3 Th0 3.087196 1_656
Os0 Th1 3.029903 1_655
Os0 Th1 3.029903 1_565
Os1 Th1 3.029903 1_555
Os1 Th1 3.029903 1_556
Os2 Th0 3.029903 1_656
Os2 Th0 3.029903 1_566
Os3 Th0 3.029903 1_665
Os3 Th0 3.029903 1_666
