# generated using pymatgen
data_BaFePHO5
_symmetry_space_group_name_H-M   'P 1'
_cell_length_a   5.10546100
_cell_length_b   8.95122800
_cell_length_c   10.08688600
_cell_angle_alpha   90.00000000
_cell_angle_beta   90.00000000
_cell_angle_gamma   90.00000000
_symmetry_Int_Tables_number   1
_chemical_formula_structural   BaFePHO5
_chemical_formula_sum   'Ba4 Fe4 P4 H4 O20'
_cell_volume   460.97215740
_cell_formula_units_Z   4
loop_
 _symmetry_equiv_pos_site_id
 _symmetry_equiv_pos_as_xyz
  1  'x, y, z'
loop_
 _atom_site_type_symbol
 _atom_site_label
 _atom_site_symmetry_multiplicity
 _atom_site_fract_x
 _atom_site_fract_y
 _atom_site_fract_z
 _atom_site_occupancy
  Ba  Ba0  1  0.96467900  0.26636500  0.71849000  1
  Ba  Ba1  1  0.46467900  0.23363500  0.28151000  1
  Ba  Ba2  1  0.53532100  0.73363500  0.21849000  1
  Ba  Ba3  1  0.03532100  0.76636500  0.78151000  1
  Fe  Fe0  1  0.97250000  0.03551000  0.07769700  1
  Fe  Fe1  1  0.47250000  0.46449000  0.92230300  1
  Fe  Fe2  1  0.52750000  0.96449000  0.57769700  1
  Fe  Fe3  1  0.02750000  0.53551000  0.42230300  1
  P  P0  1  0.47746600  0.07846400  0.90409200  1
  P  P1  1  0.97746600  0.42153600  0.09590800  1
  P  P2  1  0.02253400  0.92153600  0.40409200  1
  P  P3  1  0.52253400  0.57846400  0.59590800  1
  H  H0  1  0.35985300  0.23973100  0.54096700  1
  H  H1  1  0.85985300  0.26026900  0.45903300  1
  H  H2  1  0.14014700  0.76026900  0.04096700  1
  H  H3  1  0.64014700  0.73973100  0.95903300  1
  O  O0  1  0.04219600  0.25304200  0.12030600  1
  O  O1  1  0.54219600  0.24695800  0.87969400  1
  O  O2  1  0.45780400  0.74695800  0.62030600  1
  O  O3  1  0.95780400  0.75304200  0.37969400  1
  O  O4  1  0.55437200  0.03615500  0.04970600  1
  O  O5  1  0.05437200  0.46384500  0.95029400  1
  O  O6  1  0.94562800  0.96384500  0.54970600  1
  O  O7  1  0.44562800  0.53615500  0.45029400  1
  O  O8  1  0.17661200  0.05408700  0.88724100  1
  O  O9  1  0.67661200  0.44591300  0.11275900  1
  O  O10  1  0.32338800  0.94591300  0.38724100  1
  O  O11  1  0.82338800  0.55408700  0.61275900  1
  O  O12  1  0.87104600  0.01380800  0.29905900  1
  O  O13  1  0.37104600  0.48619200  0.70094100  1
  O  O14  1  0.62895400  0.98619200  0.79905900  1
  O  O15  1  0.12895400  0.51380800  0.20094100  1
  O  O16  1  0.52433500  0.18687000  0.55864000  1
  O  O17  1  0.02433500  0.31313000  0.44136000  1
  O  O18  1  0.97566500  0.81313000  0.05864000  1
  O  O19  1  0.47566500  0.68687000  0.94136000  1
loop_
_geom_bond_atom_site_label_1
_geom_bond_atom_site_label_2
_geom_bond_distance
_geom_bond_site_symmetry_2
Ba0 H1 2.671831 1_555
Ba0 O1 2.706793 1_555
Ba0 H0 2.708093 1_655
Ba0 O8 2.771049 1_655
Ba0 O17 2.842910 1_655
Ba0 O16 2.856634 1_555
Ba0 O13 2.864892 1_655
Ba0 O11 2.879373 1_555
Ba0 O5 2.966733 1_655
Ba0 O14 3.144502 1_545
Ba0 O6 3.200132 1_545
Ba0 O1 3.371617 1_655
Ba1 H0 2.671831 1_555
Ba1 O0 2.706793 1_555
Ba1 H1 2.708093 1_555
Ba1 O9 2.771049 1_555
Ba1 O16 2.842910 1_555
Ba1 O17 2.856634 1_555
Ba1 O12 2.864892 1_555
Ba1 O10 2.879373 1_545
Ba1 O4 2.966733 1_555
Ba1 O15 3.144502 1_555
Ba1 O7 3.200132 1_555
Ba1 O0 3.371617 1_655
Ba2 H3 2.671831 1_554
Ba2 O3 2.706793 1_555
Ba2 H2 2.708093 1_555
Ba2 O10 2.771049 1_555
Ba2 O19 2.842910 1_554
Ba2 O18 2.856634 1_555
Ba2 O15 2.864892 1_555
Ba2 O9 2.879373 1_555
Ba2 O7 2.966733 1_555
Ba2 O12 3.144502 1_565
Ba2 O4 3.200132 1_565
Ba2 O3 3.371617 1_455
Ba3 H2 2.671831 1_556
Ba3 O2 2.706793 1_555
Ba3 H3 2.708093 1_455
Ba3 O11 2.771049 1_455
Ba3 O18 2.842910 1_456
Ba3 O19 2.856634 1_555
Ba3 O14 2.864892 1_455
Ba3 O8 2.879373 1_565
Ba3 O6 2.966733 1_455
Ba3 O13 3.144502 1_555
Ba3 O5 3.200132 1_555
Ba3 O2 3.371617 1_455
Fe0 O18 1.999899 1_545
Fe0 O0 2.025547 1_655
Fe0 O4 2.153334 1_555
Fe0 O8 2.191860 1_654
Fe0 O12 2.300361 1_555
Fe1 O19 1.999899 1_555
Fe1 O1 2.025547 1_555
Fe1 O5 2.153334 1_555
Fe1 O9 2.191860 1_556
Fe1 O13 2.300361 1_555
Fe2 O16 1.999899 1_565
Fe2 O2 2.025547 1_555
Fe2 O6 2.153334 1_555
Fe2 O10 2.191860 1_555
Fe2 O14 2.300361 1_555
Fe3 O17 1.999899 1_555
Fe3 O3 2.025547 1_455
Fe3 O7 2.153334 1_555
Fe3 O11 2.191860 1_455
Fe3 O15 2.300361 1_555
H0 O16 0.980235 1_555
H1 O17 0.980235 1_655
H2 O18 0.980235 1_455
H3 O19 0.980235 1_555
O0 P1 1.563500 1_455
O1 P0 1.563500 1_555
O2 P3 1.563500 1_555
O3 P2 1.563500 1_655
O4 P0 1.566826 1_554
O5 P1 1.566826 1_456
O6 P2 1.566826 1_655
O7 P3 1.566826 1_555
O8 P0 1.560703 1_555
O9 P1 1.560703 1_555
O10 P2 1.560703 1_555
O11 P3 1.560703 1_555
O12 P2 1.550100 1_645
O13 P3 1.550100 1_555
O14 P0 1.550100 1_565
O15 P1 1.550100 1_455
