# generated using pymatgen
data_Na5Mn2P2(CO7)2
_symmetry_space_group_name_H-M   'P 1'
_cell_length_a   8.49264300
_cell_length_b   8.53612237
_cell_length_c   10.46281032
_cell_angle_alpha   108.31195717
_cell_angle_beta   107.86335217
_cell_angle_gamma   103.00802735
_symmetry_Int_Tables_number   1
_chemical_formula_structural   Na5Mn2P2(CO7)2
_chemical_formula_sum   'Na10 Mn4 P4 C4 O28'
_cell_volume   640.52918925
_cell_formula_units_Z   2
loop_
 _symmetry_equiv_pos_site_id
 _symmetry_equiv_pos_as_xyz
  1  'x, y, z'
loop_
 _atom_site_type_symbol
 _atom_site_label
 _atom_site_symmetry_multiplicity
 _atom_site_fract_x
 _atom_site_fract_y
 _atom_site_fract_z
 _atom_site_occupancy
  Na  Na0  1  0.80224700  0.54975300  0.07990800  1
  Na  Na1  1  0.00538500  0.00970800  0.23796100  1
  Na  Na2  1  0.49132100  0.47941900  0.25282300  1
  Na  Na3  1  0.25196600  0.76056500  0.25465400  1
  Na  Na4  1  0.73376900  0.23172900  0.23611800  1
  Na  Na5  1  0.26623100  0.76827100  0.76388200  1
  Na  Na6  1  0.74803400  0.23943500  0.74534600  1
  Na  Na7  1  0.99461500  0.99029200  0.76203900  1
  Na  Na8  1  0.50867900  0.52058100  0.74717700  1
  Na  Na9  1  0.19775300  0.45024700  0.92009200  1
  Mn  Mn0  1  0.69332900  0.94091600  0.35932800  1
  Mn  Mn1  1  0.19204100  0.44656400  0.35869200  1
  Mn  Mn2  1  0.30667100  0.05908400  0.64067200  1
  Mn  Mn3  1  0.80795900  0.55343600  0.64130800  1
  P  P0  1  0.93431000  0.68906000  0.41959900  1
  P  P1  1  0.43947900  0.18544600  0.42400900  1
  P  P2  1  0.06569000  0.31094000  0.58040100  1
  P  P3  1  0.56052100  0.81455400  0.57599100  1
  C  C0  1  0.51953300  0.76717600  0.07365100  1
  C  C1  1  0.02854800  0.28157500  0.06640100  1
  C  C2  1  0.48046700  0.23282400  0.92634900  1
  C  C3  1  0.97145200  0.71842500  0.93359900  1
  O  O0  1  0.04304500  0.78788300  0.07523000  1
  O  O1  1  0.55034300  0.30465000  0.06679100  1
  O  O2  1  0.17369800  0.42308400  0.13556800  1
  O  O3  1  0.66304300  0.91188400  0.14957400  1
  O  O4  1  0.45696700  0.70150600  0.15191400  1
  O  O5  1  0.96439700  0.22300000  0.14753700  1
  O  O6  1  0.01996400  0.59654000  0.32198900  1
  O  O7  1  0.83021100  0.77679200  0.32861600  1
  O  O8  1  0.52635800  0.07698800  0.33576000  1
  O  O9  1  0.33940400  0.26830900  0.33114500  1
  O  O10  1  0.92592000  0.17149300  0.42666800  1
  O  O11  1  0.29952800  0.05089800  0.44754600  1
  O  O12  1  0.79921600  0.54774300  0.43616900  1
  O  O13  1  0.42127900  0.67560900  0.42361200  1
  O  O14  1  0.07408000  0.82850700  0.57333200  1
  O  O15  1  0.20078400  0.45225700  0.56383100  1
  O  O16  1  0.70047200  0.94910200  0.55245400  1
  O  O17  1  0.57872100  0.32439100  0.57638800  1
  O  O18  1  0.98003600  0.40346000  0.67801100  1
  O  O19  1  0.16978900  0.22320800  0.67138400  1
  O  O20  1  0.47364200  0.92301200  0.66424000  1
  O  O21  1  0.66059600  0.73169100  0.66885500  1
  O  O22  1  0.54303300  0.29849400  0.84808600  1
  O  O23  1  0.03560300  0.77700000  0.85246300  1
  O  O24  1  0.33695700  0.08811600  0.85042600  1
  O  O25  1  0.82630200  0.57691600  0.86443200  1
  O  O26  1  0.44965700  0.69535000  0.93320900  1
  O  O27  1  0.95695500  0.21211700  0.92477000  1
loop_
_geom_bond_atom_site_label_1
_geom_bond_atom_site_label_2
_geom_bond_distance
_geom_bond_site_symmetry_2
Na0 O25 2.401648 1_554
Na0 O6 2.480399 1_655
Na0 O0 2.562997 1_655
Na0 O1 2.568553 1_555
Na0 O22 2.580528 1_554
Na0 O7 2.613122 1_555
Na1 O0 2.273213 1_545
Na1 O5 2.344532 1_455
Na1 O10 2.405111 1_455
Na1 O3 2.603408 1_445
Na1 O11 2.632859 1_555
Na1 O7 2.790160 1_445
Na1 O9 2.828817 1_555
Na2 O1 2.318606 1_555
Na2 O13 2.360440 1_555
Na2 O2 2.455140 1_555
Na2 O4 2.472139 1_555
Na2 O9 2.472536 1_555
Na2 O12 2.527956 1_555
Na3 O0 2.268160 1_555
Na3 O13 2.331113 1_555
Na3 O4 2.375602 1_555
Na3 O11 2.506901 1_565
Na3 O6 2.562887 1_555
Na3 O2 2.582160 1_555
Na3 O8 2.821174 1_565
Na4 O1 2.321456 1_555
Na4 O5 2.415941 1_555
Na4 O10 2.434769 1_555
Na4 O3 2.451423 1_545
Na4 O8 2.622769 1_555
Na4 O12 2.651418 1_555
Na5 O26 2.321456 1_555
Na5 O23 2.415941 1_555
Na5 O14 2.434769 1_555
Na5 O24 2.451423 1_565
Na5 O20 2.622769 1_555
Na5 O15 2.651418 1_555
Na6 O27 2.268160 1_555
Na6 O17 2.331113 1_555
Na6 O22 2.375602 1_555
Na6 O16 2.506901 1_545
Na6 O18 2.562887 1_555
Na6 O25 2.582160 1_555
Na6 O20 2.821174 1_545
Na7 O27 2.273213 1_565
Na7 O23 2.344532 1_655
Na7 O14 2.405111 1_655
Na7 O24 2.603408 1_665
Na7 O16 2.632859 1_555
Na7 O19 2.790160 1_665
Na7 O21 2.828817 1_555
Na8 O26 2.318606 1_555
Na8 O17 2.360440 1_555
Na8 O25 2.455140 1_555
Na8 O22 2.472139 1_555
Na8 O21 2.472536 1_555
Na8 O15 2.527956 1_555
Na9 O2 2.401648 1_556
Na9 O18 2.480399 1_455
Na9 O27 2.562997 1_455
Na9 O26 2.568553 1_555
Na9 O4 2.580528 1_556
Na9 O19 2.613122 1_555
Mn0 O16 1.981342 1_555
Mn0 O7 2.024066 1_555
Mn0 O8 2.031669 1_565
Mn0 O3 2.056005 1_555
Mn0 O10 2.190150 1_565
Mn0 O4 2.368383 1_555
Mn1 O15 2.109424 1_555
Mn1 O13 2.171374 1_555
Mn1 O6 2.174611 1_555
Mn1 O9 2.183481 1_555
Mn1 O2 2.232300 1_555
Mn1 O5 2.308643 1_455
Mn2 O11 1.981342 1_555
Mn2 O19 2.024066 1_555
Mn2 O20 2.031669 1_545
Mn2 O24 2.056005 1_555
Mn2 O14 2.190150 1_545
Mn2 O22 2.368383 1_555
Mn3 O12 2.109424 1_555
Mn3 O17 2.171374 1_555
Mn3 O18 2.174611 1_555
Mn3 O21 2.183481 1_555
Mn3 O25 2.232300 1_555
Mn3 O23 2.308643 1_655
C0 O26 1.273726 1_554
C0 O4 1.299372 1_555
C0 O3 1.324381 1_555
C1 O27 1.284518 1_454
C1 O5 1.302038 1_455
C1 O2 1.317373 1_555
C2 O1 1.273726 1_556
C2 O22 1.299372 1_555
C2 O24 1.324381 1_555
C3 O0 1.284518 1_656
C3 O23 1.302038 1_655
C3 O25 1.317373 1_555
O6 P0 1.550304 1_455
O7 P0 1.574270 1_555
O8 P1 1.562808 1_555
O9 P1 1.537062 1_555
O10 P2 1.550026 1_655
O11 P1 1.592223 1_555
O12 P0 1.559464 1_555
O13 P3 1.539699 1_555
O14 P0 1.550026 1_455
O15 P2 1.559464 1_555
O16 P3 1.592223 1_555
O17 P1 1.539699 1_555
O18 P2 1.550304 1_655
O19 P2 1.574270 1_555
O20 P3 1.562808 1_555
O21 P3 1.537062 1_555
