# generated using pymatgen
data_MgTi2O4
_symmetry_space_group_name_H-M   'P 1'
_cell_length_a   5.97947900
_cell_length_b   5.97947900
_cell_length_c   15.03251600
_cell_angle_alpha   90.00000000
_cell_angle_beta   90.00000000
_cell_angle_gamma   120.00001103
_symmetry_Int_Tables_number   1
_chemical_formula_structural   MgTi2O4
_chemical_formula_sum   'Mg6 Ti12 O24'
_cell_volume   465.46705490
_cell_formula_units_Z   6
loop_
 _symmetry_equiv_pos_site_id
 _symmetry_equiv_pos_as_xyz
  1  'x, y, z'
loop_
 _atom_site_type_symbol
 _atom_site_label
 _atom_site_symmetry_multiplicity
 _atom_site_fract_x
 _atom_site_fract_y
 _atom_site_fract_z
 _atom_site_occupancy
  Mg  Mg0  1  0.66666700  0.33333300  0.95534500  1
  Mg  Mg1  1  0.33333300  0.66666700  0.62392600  1
  Mg  Mg2  1  0.00000000  0.00000000  0.66146200  1
  Mg  Mg3  1  0.00000000  0.00000000  0.30146500  1
  Mg  Mg4  1  0.33333300  0.66666700  0.99901300  1
  Mg  Mg5  1  0.33333300  0.66666700  0.37126100  1
  Ti  Ti0  1  0.16113200  0.32226500  0.83467300  1
  Ti  Ti1  1  0.67773500  0.83886800  0.83467300  1
  Ti  Ti2  1  0.82768500  0.65537100  0.49937700  1
  Ti  Ti3  1  0.16113200  0.83886800  0.83467300  1
  Ti  Ti4  1  0.34462900  0.17231500  0.49937700  1
  Ti  Ti5  1  0.66666700  0.33333300  0.32209400  1
  Ti  Ti6  1  0.66666700  0.33333300  0.71178300  1
  Ti  Ti7  1  0.51210400  0.02420900  0.17162200  1
  Ti  Ti8  1  0.82768500  0.17231500  0.49937700  1
  Ti  Ti9  1  0.97579100  0.48789600  0.17162200  1
  Ti  Ti10  1  0.51210400  0.48789600  0.17162200  1
  Ti  Ti11  1  0.00000000  0.00000000  0.05009500  1
  O  O0  1  0.48862900  0.97725800  0.90899300  1
  O  O1  1  0.33333300  0.66666700  0.75838600  1
  O  O2  1  0.02274200  0.51137100  0.90899300  1
  O  O3  1  0.48862900  0.51137100  0.90899300  1
  O  O4  1  0.15532000  0.31064100  0.57492800  1
  O  O5  1  0.84044900  0.15955100  0.75028200  1
  O  O6  1  0.00000000  0.00000000  0.42996500  1
  O  O7  1  0.31910300  0.15955100  0.75028200  1
  O  O8  1  0.00000000  0.00000000  0.92415600  1
  O  O9  1  0.68935900  0.84468000  0.57492800  1
  O  O10  1  0.15532000  0.84468000  0.57492800  1
  O  O11  1  0.84044900  0.68089700  0.75028200  1
  O  O12  1  0.83083800  0.66167600  0.24957800  1
  O  O13  1  0.51310600  0.48689400  0.41730900  1
  O  O14  1  0.97378900  0.48689400  0.41730900  1
  O  O15  1  0.66666700  0.33333300  0.08613700  1
  O  O16  1  0.66666700  0.33333300  0.58515700  1
  O  O17  1  0.33832400  0.16916200  0.24957800  1
  O  O18  1  0.83083800  0.16916200  0.24957800  1
  O  O19  1  0.51310600  0.02621100  0.41730900  1
  O  O20  1  0.17389400  0.82610600  0.08704200  1
  O  O21  1  0.65221300  0.82610600  0.08704200  1
  O  O22  1  0.33333300  0.66666700  0.23814000  1
  O  O23  1  0.17389400  0.34778700  0.08704200  1
loop_
_geom_bond_atom_site_label_1
_geom_bond_atom_site_label_2
_geom_bond_distance
_geom_bond_site_symmetry_2
Mg0 O15 1.966133 1_556
Mg0 O0 1.971154 1_545
Mg0 O2 1.971154 1_655
Mg0 O3 1.971159 1_555
Mg1 O4 1.985328 1_555
Mg1 O9 1.985328 1_555
Mg1 O10 1.985328 1_555
Mg1 O1 2.021272 1_555
Mg2 O10 2.068762 1_545
Mg2 O4 2.068766 1_555
Mg2 O9 2.068766 1_445
Mg2 O5 2.124443 1_455
Mg2 O7 2.124447 1_555
Mg2 O11 2.124447 1_445
Mg3 O12 1.917756 1_445
Mg3 O17 1.917756 1_555
Mg3 O18 1.917756 1_455
Mg3 O6 1.931678 1_555
Mg4 O0 2.101913 1_555
Mg4 O2 2.101913 1_555
Mg4 O3 2.101918 1_555
Mg4 O20 2.116085 1_556
Mg4 O23 2.116093 1_556
Mg4 O21 2.116093 1_556
Mg5 O19 1.986371 1_565
Mg5 O14 1.986371 1_455
Mg5 O13 1.986381 1_555
Mg5 O22 2.001144 1_555
O0 Ti1 2.036477 1_555
O0 Ti3 2.036481 1_555
O1 Ti0 2.120328 1_555
O1 Ti1 2.120328 1_555
O1 Ti3 2.120328 1_555
O2 Ti0 2.036477 1_555
O2 Ti3 2.036481 1_555
O3 Ti1 2.036481 1_555
O3 Ti0 2.036481 1_555
O4 Ti8 2.047343 1_455
O4 Ti4 2.047343 1_555
O5 Ti6 1.890578 1_555
O5 Ti1 2.089790 1_545
O5 Ti0 2.089790 1_655
O6 Ti2 2.067276 1_445
O6 Ti4 2.067276 1_555
O6 Ti8 2.067281 1_455
O7 Ti6 1.890577 1_555
O7 Ti3 2.089790 1_545
O7 Ti0 2.089799 1_555
O8 Ti11 1.893180 1_556
O8 Ti3 2.143444 1_545
O8 Ti0 2.143448 1_555
O8 Ti1 2.143448 1_445
O9 Ti8 2.047343 1_565
O9 Ti2 2.047343 1_555
O10 Ti2 2.047343 1_455
O10 Ti4 2.047343 1_565
O11 Ti6 1.890577 1_555
O11 Ti3 2.089790 1_655
O11 Ti1 2.089799 1_555
O12 Ti5 2.019723 1_555
O12 Ti9 2.026065 1_555
O12 Ti10 2.026068 1_555
O13 Ti4 2.044538 1_555
O13 Ti2 2.044538 1_555
O13 Ti5 2.139634 1_555
O14 Ti8 2.044537 1_555
O14 Ti2 2.044546 1_555
O14 Ti5 2.139634 1_555
O15 Ti9 2.052755 1_555
O15 Ti7 2.052755 1_555
O15 Ti10 2.052763 1_555
O16 Ti6 1.903507 1_555
O16 Ti8 2.108022 1_555
O16 Ti4 2.108030 1_555
O16 Ti2 2.108030 1_555
O17 Ti5 2.019723 1_555
O17 Ti7 2.026065 1_555
O17 Ti10 2.026068 1_555
O18 Ti5 2.019719 1_555
O18 Ti7 2.026069 1_555
O18 Ti9 2.026069 1_555
O19 Ti8 2.044537 1_555
O19 Ti4 2.044546 1_555
O19 Ti5 2.139634 1_555
O20 Ti11 1.884675 1_565
O20 Ti7 2.171171 1_565
O20 Ti9 2.171171 1_455
O21 Ti11 1.884670 1_665
O21 Ti10 2.171170 1_555
O21 Ti7 2.171179 1_565
O22 Ti7 2.104252 1_565
O22 Ti9 2.104252 1_455
O22 Ti10 2.104252 1_555
O23 Ti11 1.884670 1_555
O23 Ti10 2.171170 1_555
O23 Ti9 2.171179 1_455
