# generated using pymatgen
data_K19Na6Tl24Au
_symmetry_space_group_name_H-M   'P 1'
_cell_length_a   11.70534066
_cell_length_b   19.62846814
_cell_length_c   19.62744863
_cell_angle_alpha   120.00171808
_cell_angle_beta   90.00000000
_cell_angle_gamma   90.00000000
_symmetry_Int_Tables_number   1
_chemical_formula_structural   K19Na6Tl24Au
_chemical_formula_sum   'K38 Na12 Tl48 Au2'
_cell_volume   3905.32720633
_cell_formula_units_Z   2
loop_
 _symmetry_equiv_pos_site_id
 _symmetry_equiv_pos_as_xyz
  1  'x, y, z'
loop_
 _atom_site_type_symbol
 _atom_site_label
 _atom_site_symmetry_multiplicity
 _atom_site_fract_x
 _atom_site_fract_y
 _atom_site_fract_z
 _atom_site_occupancy
  K  K0  1  0.50000000  0.46350231  0.12147878  1
  K  K1  1  0.50000000  0.65794090  0.53646367  1
  K  K2  1  0.50000000  0.87862989  0.34220061  1
  K  K3  1  0.50000000  0.34202353  0.87852122  1
  K  K4  1  0.50000000  0.12147723  0.46353633  1
  K  K5  1  0.50000000  0.53642928  0.65779939  1
  K  K6  1  0.50000000  0.22378181  0.00000000  1
  K  K7  1  0.50000000  0.77617129  0.77612328  1
  K  K8  1  0.50000000  0.00004801  0.22387672  1
  K  K9  1  -0.00000000  0.80425724  0.00000000  1
  K  K10  1  -0.00000000  0.19577686  0.19580603  1
  K  K11  1  -0.00000000  0.99997083  0.80419397  1
  K  K12  1  0.32100409  0.87221495  1.00000000  1
  K  K13  1  0.32111288  0.12788024  0.12790973  1
  K  K14  1  0.32111288  0.99997051  0.87209027  1
  K  K15  1  0.67899591  0.87221495  1.00000000  1
  K  K16  1  0.67888712  0.12788024  0.12790973  1
  K  K17  1  0.67888712  0.99997051  0.87209027  1
  K  K18  1  0.17838966  0.81158491  0.34687925  1
  K  K19  1  0.17840767  0.53526912  0.18861403  1
  K  K20  1  0.17839962  0.65324831  0.46471485  1
  K  K21  1  0.82161034  0.81158491  0.34687925  1
  K  K22  1  0.82159233  0.53526912  0.18861403  1
  K  K23  1  0.82160038  0.65324831  0.46471485  1
  K  K24  1  0.17838966  0.46470566  0.65312075  1
  K  K25  1  0.17840767  0.34665509  0.81138597  1
  K  K26  1  0.17839962  0.18853346  0.53528515  1
  K  K27  1  0.82161034  0.46470566  0.65312075  1
  K  K28  1  0.82159233  0.34665509  0.81138597  1
  K  K29  1  0.82160038  0.18853346  0.53528515  1
  K  K30  1  0.50000000  0.33325962  0.66659829  1
  K  K31  1  0.50000000  0.66666133  0.33340171  1
  K  K32  1  -0.00000000  0.67131030  0.11853424  1
  K  K33  1  -0.00000000  0.44724933  0.32880024  1
  K  K34  1  -0.00000000  0.88149474  0.55277248  1
  K  K35  1  -0.00000000  0.55277606  0.88146576  1
  K  K36  1  -0.00000000  0.11844909  0.67119976  1
  K  K37  1  -0.00000000  0.32872226  0.44722752  1
  Na  Na0  1  0.25127552  0.84068843  0.16941364  1
  Na  Na1  1  0.25120084  0.32870014  0.15941467  1
  Na  Na2  1  0.25125291  0.83065211  0.67126215  1
  Na  Na3  1  0.74872448  0.84068843  0.16941364  1
  Na  Na4  1  0.74879916  0.32870014  0.15941467  1
  Na  Na5  1  0.74874709  0.83065211  0.67126215  1
  Na  Na6  1  0.25127552  0.67127479  0.83058636  1
  Na  Na7  1  0.25120084  0.16928547  0.84058533  1
  Na  Na8  1  0.25125291  0.15938996  0.32873785  1
  Na  Na9  1  0.74872448  0.67127479  0.83058636  1
  Na  Na10  1  0.74879916  0.16928547  0.84058533  1
  Na  Na11  1  0.74874709  0.15938996  0.32873785  1
  Tl  Tl0  1  0.50000000  0.78096396  0.09689525  1
  Tl  Tl1  1  0.50000000  0.31599955  0.21913826  1
  Tl  Tl2  1  0.50000000  0.90305299  0.68400530  1
  Tl  Tl3  1  0.50000000  0.68406870  0.90310475  1
  Tl  Tl4  1  0.50000000  0.09686129  0.78086174  1
  Tl  Tl5  1  0.50000000  0.21904769  0.31599470  1
  Tl  Tl6  1  0.50000000  0.57153057  1.00000000  1
  Tl  Tl7  1  0.50000000  0.42852895  0.42859856  1
  Tl  Tl8  1  0.50000000  0.99993039  0.57140144  1
  Tl  Tl9  1  0.26518026  0.67488126  0.00000000  1
  Tl  Tl10  1  0.26520877  0.32520419  0.32526461  1
  Tl  Tl11  1  0.26520877  0.99993959  0.67473539  1
  Tl  Tl12  1  0.73481974  0.67488126  0.00000000  1
  Tl  Tl13  1  0.73479123  0.32520419  0.32526461  1
  Tl  Tl14  1  0.73479123  0.99993959  0.67473539  1
  Tl  Tl15  1  0.35830512  0.67679737  0.16248261  1
  Tl  Tl16  1  0.35837846  0.48573862  0.32335577  1
  Tl  Tl17  1  0.35840229  0.83746443  0.51425911  1
  Tl  Tl18  1  0.64169488  0.67679737  0.16248261  1
  Tl  Tl19  1  0.64162154  0.48573862  0.32335577  1
  Tl  Tl20  1  0.64159771  0.83746443  0.51425911  1
  Tl  Tl21  1  0.35830512  0.51431476  0.83751739  1
  Tl  Tl22  1  0.35837846  0.16238286  0.67664423  1
  Tl  Tl23  1  0.35840229  0.32320532  0.48574089  1
  Tl  Tl24  1  0.64169488  0.51431476  0.83751739  1
  Tl  Tl25  1  0.64162154  0.16238286  0.67664423  1
  Tl  Tl26  1  0.64159771  0.32320532  0.48574089  1
  Tl  Tl27  1  0.13624574  0.17090423  -0.00000000  1
  Tl  Tl28  1  0.13627447  0.82893601  0.82888281  1
  Tl  Tl29  1  0.13627447  0.00005320  0.17111719  1
  Tl  Tl30  1  0.86375426  0.17090423  -0.00000000  1
  Tl  Tl31  1  0.86372553  0.82893601  0.82888281  1
  Tl  Tl32  1  0.86372553  0.00005320  0.17111719  1
  Tl  Tl33  1  0.23031575  0.34432469  0.00000000  1
  Tl  Tl34  1  0.23030702  0.65555394  0.65547358  1
  Tl  Tl35  1  0.23030702  0.00008036  0.34452642  1
  Tl  Tl36  1  0.76968425  0.34432469  0.00000000  1
  Tl  Tl37  1  0.76969298  0.65555394  0.65547358  1
  Tl  Tl38  1  0.76969298  0.00008036  0.34452642  1
  Tl  Tl39  1  -0.00000000  0.90252645  0.24633952  1
  Tl  Tl40  1  -0.00000000  0.34373988  0.09756725  1
  Tl  Tl41  1  -0.00000000  0.75378724  0.65610864  1
  Tl  Tl42  1  -0.00000000  0.65618693  0.75366048  1
  Tl  Tl43  1  -0.00000000  0.24617264  0.90243275  1
  Tl  Tl44  1  -0.00000000  0.09767859  0.34389136  1
  Tl  Tl45  1  -0.00000000  0.44232622  1.00000000  1
  Tl  Tl46  1  -0.00000000  0.55764845  0.55756607  1
  Tl  Tl47  1  -0.00000000  0.00008239  0.44243393  1
  Au  Au0  1  -0.00000000  0.33335054  0.66663383  1
  Au  Au1  1  -0.00000000  0.66671671  0.33336617  1
loop_
_geom_bond_atom_site_label_1
_geom_bond_atom_site_label_2
_geom_bond_distance
_geom_bond_site_symmetry_2
K0 Tl6 3.903490 1_554
K0 Tl33 3.942634 1_555
K0 Tl36 3.942634 1_555
K0 K19 4.004334 1_555
K0 K22 4.004334 1_555
K0 K6 4.075001 1_555
K0 K31 4.076214 1_555
K0 Tl19 4.112070 1_555
K0 Tl16 4.112070 1_555
K0 K3 4.129689 1_554
K0 Tl18 4.190119 1_555
K0 Tl15 4.190119 1_555
K0 Tl1 4.196018 1_555
K0 Na1 4.243480 1_555
K0 Na4 4.243480 1_555
K1 Tl7 3.901968 1_555
K1 Tl37 3.941266 1_555
K1 Tl34 3.941266 1_555
K1 K23 4.004116 1_555
K1 K20 4.004116 1_555
K1 K7 4.073753 1_555
K1 K31 4.073875 1_555
K1 Tl17 4.109726 1_555
K1 Tl20 4.109726 1_555
K1 K5 4.128031 1_555
K1 Tl19 4.186846 1_555
K1 Tl16 4.186846 1_555
K1 Tl2 4.195259 1_555
K1 Na2 4.242710 1_555
K1 Na5 4.242710 1_555
K2 Tl8 3.898077 1_555
K2 Tl35 3.942317 1_565
K2 Tl38 3.942317 1_565
K2 K21 4.004125 1_555
K2 K8 4.075359 1_565
K2 K31 4.077008 1_555
K2 Tl18 4.112561 1_555
K2 Tl15 4.112561 1_555
K2 K4 4.128031 1_565
K2 Tl20 4.187301 1_555
K2 Tl17 4.187301 1_555
K2 Tl0 4.198342 1_555
K2 Na3 4.243405 1_555
K2 Na0 4.243405 1_555
K3 Tl6 3.903490 1_555
K3 Tl33 3.942634 1_556
K3 Tl36 3.942634 1_556
K3 K6 4.075001 1_556
K3 K30 4.076214 1_555
K3 Tl25 4.112070 1_555
K3 Tl22 4.112070 1_555
K3 Tl24 4.190119 1_555
K3 Tl21 4.190119 1_555
K3 Tl4 4.196018 1_555
K3 Na10 4.243480 1_555
K3 Na7 4.243480 1_555
K4 Tl8 3.901968 1_545
K4 Tl35 3.941266 1_555
K4 Tl38 3.941266 1_555
K4 K8 4.073753 1_555
K4 Tl23 4.109726 1_555
K4 Tl26 4.109726 1_555
K4 Tl22 4.186846 1_555
K4 Tl25 4.186846 1_555
K4 Tl5 4.195259 1_555
K4 Na11 4.242710 1_555
K4 Na8 4.242710 1_555
K5 Tl7 3.898077 1_555
K5 Tl37 3.942317 1_555
K5 Tl34 3.942317 1_555
K5 K7 4.075359 1_555
K5 Tl24 4.112561 1_555
K5 Tl21 4.112561 1_555
K5 Tl23 4.187301 1_555
K5 Tl26 4.187301 1_555
K5 Tl3 4.198342 1_555
K5 Na6 4.243405 1_555
K5 Na9 4.243405 1_555
K6 Tl1 3.740357 1_555
K6 Tl4 3.740357 1_554
K6 Tl33 3.945040 1_555
K6 Tl36 3.945040 1_555
K7 Tl2 3.738277 1_555
K7 Tl3 3.739768 1_555
K7 Tl37 3.946116 1_555
K7 Tl34 3.946116 1_555
K8 Tl5 3.738277 1_555
K8 Tl0 3.739768 1_545
K8 Tl38 3.946116 1_555
K8 Tl35 3.946116 1_555
K9 Tl28 3.960591 1_554
K9 Tl31 3.960591 1_454
K9 Tl32 3.960591 1_465
K9 Tl29 3.960591 1_565
K9 Tl9 4.010460 1_555
K9 Tl12 4.010460 1_455
K10 Tl27 3.959210 1_555
K10 Tl30 3.959210 1_455
K10 Tl32 3.959374 1_455
K10 Tl29 3.959374 1_555
K10 K13 3.987983 1_555
K10 K16 3.987983 1_455
K10 Tl10 4.011467 1_555
K10 Tl13 4.011467 1_455
K11 Tl30 3.959210 1_466
K11 Tl27 3.959210 1_566
K11 Tl28 3.959374 1_555
K11 Tl31 3.959374 1_455
K11 K14 3.987983 1_555
K11 K17 3.987983 1_455
K11 Tl14 4.011467 1_455
K11 Tl11 4.011467 1_555
K12 Tl28 3.718087 1_555
K12 Tl29 3.718087 1_566
K12 Na0 3.763450 1_556
K12 Na6 3.763450 1_555
K12 Tl0 3.823794 1_556
K12 Tl3 3.823794 1_555
K12 Tl9 3.928089 1_556
K12 K9 3.987208 1_556
K12 K15 4.190416 1_555
K12 K14 4.345916 1_555
K12 K13 4.345916 1_566
K12 K7 4.355228 1_555
K12 K8 4.355228 1_566
K13 Tl27 3.717371 1_555
K13 Tl29 3.718008 1_555
K13 Na8 3.761717 1_555
K13 Na1 3.761937 1_555
K13 Tl5 3.822104 1_555
K13 Tl1 3.822722 1_555
K13 Tl10 3.928158 1_555
K13 K16 4.187869 1_555
K13 K14 4.348310 1_544
K13 K8 4.353705 1_555
K13 K6 4.353953 1_555
K14 Tl27 3.717371 1_566
K14 Tl28 3.718008 1_555
K14 Na2 3.761717 1_555
K14 Na7 3.761937 1_565
K14 Tl2 3.822104 1_555
K14 Tl4 3.822722 1_565
K14 Tl11 3.928158 1_555
K14 K17 4.187869 1_555
K14 K7 4.353705 1_555
K14 K6 4.353953 1_566
K15 Tl31 3.718087 1_555
K15 Tl32 3.718087 1_566
K15 Na3 3.763450 1_556
K15 Na9 3.763450 1_555
K15 Tl0 3.823794 1_556
K15 Tl3 3.823794 1_555
K15 Tl12 3.928089 1_556
K15 K9 3.987208 1_656
K15 K17 4.345916 1_555
K15 K16 4.345916 1_566
K15 K7 4.355228 1_555
K15 K8 4.355228 1_566
K16 Tl30 3.717371 1_555
K16 Tl32 3.718008 1_555
K16 Na11 3.761717 1_555
K16 Na4 3.761937 1_555
K16 Tl5 3.822104 1_555
K16 Tl1 3.822722 1_555
K16 Tl13 3.928158 1_555
K16 K17 4.348310 1_544
K16 K8 4.353705 1_555
K16 K6 4.353953 1_555
K17 Tl30 3.717371 1_566
K17 Tl31 3.718008 1_555
K17 Na5 3.761717 1_555
K17 Na10 3.761937 1_565
K17 Tl2 3.822104 1_555
K17 Tl4 3.822722 1_565
K17 Tl14 3.928158 1_555
K17 K7 4.353705 1_555
K17 K6 4.353953 1_566
K18 Tl17 3.717774 1_555
K18 Tl47 3.824597 1_565
K18 Tl15 3.867526 1_555
K18 K2 4.004125 1_555
K19 Tl15 3.720129 1_555
K19 Tl45 3.826241 1_554
K19 Tl16 3.866317 1_555
K20 Tl16 3.718049 1_555
K20 Tl46 3.824012 1_555
K20 Tl17 3.865651 1_555
K21 Tl20 3.717774 1_555
K21 Tl47 3.824597 1_665
K21 Tl18 3.867526 1_555
K22 Tl18 3.720129 1_555
K22 Tl45 3.826241 1_654
K22 Tl19 3.866317 1_555
K23 Tl19 3.718049 1_555
K23 Tl46 3.824012 1_655
K23 Tl20 3.865651 1_555
K24 Tl23 3.717774 1_555
K24 Tl46 3.824597 1_555
K24 Tl21 3.867526 1_555
K24 K5 4.004125 1_555
K25 Tl21 3.720129 1_555
K25 Tl45 3.826241 1_555
K25 Tl22 3.866317 1_555
K25 K3 4.004334 1_555
K26 Tl22 3.718049 1_555
K26 Tl47 3.824011 1_555
K26 Tl23 3.865651 1_555
K26 K4 4.004116 1_555
K27 Tl26 3.717774 1_555
K27 Tl46 3.824597 1_655
K27 Tl24 3.867526 1_555
K27 K5 4.004125 1_555
K28 Tl24 3.720129 1_555
K28 Tl45 3.826241 1_655
K28 Tl25 3.866317 1_555
K28 K3 4.004334 1_555
K29 Tl25 3.718049 1_555
K29 Tl47 3.824011 1_655
K29 Tl26 3.865651 1_555
K29 K4 4.004116 1_555
K30 Tl23 3.832279 1_555
K30 Tl26 3.832279 1_555
K30 Tl22 3.833792 1_555
K30 Tl25 3.833792 1_555
K30 Tl24 3.835624 1_555
K30 Tl21 3.835624 1_555
K30 K4 4.073875 1_555
K30 K5 4.077008 1_555
K31 Tl20 3.832279 1_555
K31 Tl17 3.832279 1_555
K31 Tl16 3.833792 1_555
K31 Tl19 3.833792 1_555
K31 Tl15 3.835624 1_555
K31 Tl18 3.835624 1_555
K32 Tl45 3.893180 1_554
K32 Tl12 3.900729 1_455
K32 Tl9 3.900729 1_555
K32 Tl39 3.937588 1_555
K33 Tl46 3.889250 1_555
K33 Tl10 3.900553 1_555
K33 Tl13 3.900553 1_455
K33 Tl40 3.937578 1_555
K34 Tl47 3.892239 1_565
K34 Tl14 3.899600 1_455
K34 Tl11 3.899600 1_555
K34 Tl41 3.934676 1_555
K35 Tl45 3.893180 1_555
K35 Tl12 3.900729 1_456
K35 Tl9 3.900729 1_556
K35 Tl42 3.937588 1_555
K36 Tl47 3.889250 1_555
K36 Tl14 3.900553 1_445
K36 Tl11 3.900553 1_545
K36 Tl43 3.937578 1_555
K37 Tl46 3.892239 1_555
K37 Tl13 3.899600 1_455
K37 Tl10 3.899600 1_555
K37 Tl44 3.934676 1_555
Na0 Tl0 3.194967 1_555
Na0 Tl39 3.251346 1_555
Na0 Tl9 3.294355 1_555
Na0 Tl35 3.302713 1_565
Na0 Tl29 3.390207 1_565
Na0 Tl15 3.391025 1_555
Na1 Tl1 3.195287 1_555
Na1 Tl40 3.250383 1_555
Na1 Tl10 3.294143 1_555
Na1 Tl33 3.302044 1_555
Na1 Tl27 3.391494 1_555
Na1 Tl16 3.392662 1_555
Na2 Tl2 3.194447 1_555
Na2 Tl41 3.250459 1_555
Na2 Tl11 3.293351 1_555
Na2 Tl34 3.302025 1_555
Na2 Tl28 3.389339 1_555
Na2 Tl17 3.391031 1_555
Na3 Tl0 3.194967 1_555
Na3 Tl39 3.251346 1_655
Na3 Tl12 3.294355 1_555
Na3 Tl38 3.302713 1_565
Na3 Tl32 3.390207 1_565
Na3 Tl18 3.391025 1_555
Na4 Tl1 3.195287 1_555
Na4 Tl40 3.250383 1_655
Na4 Tl13 3.294143 1_555
Na4 Tl36 3.302044 1_555
Na4 Tl30 3.391494 1_555
Na4 Tl19 3.392662 1_555
Na5 Tl2 3.194447 1_555
Na5 Tl41 3.250459 1_655
Na5 Tl14 3.293351 1_555
Na5 Tl37 3.302025 1_555
Na5 Tl31 3.389339 1_555
Na5 Tl20 3.391031 1_555
Na6 Tl3 3.194967 1_555
Na6 Tl42 3.251346 1_555
Na6 Tl9 3.294355 1_556
Na6 Tl34 3.302713 1_555
Na6 Tl28 3.390207 1_555
Na6 Tl21 3.391025 1_555
Na7 Tl4 3.195287 1_555
Na7 Tl43 3.250383 1_555
Na7 Tl11 3.294143 1_545
Na7 Tl33 3.302044 1_556
Na7 Tl27 3.391494 1_556
Na7 Tl22 3.392662 1_555
Na8 Tl5 3.194447 1_555
Na8 Tl44 3.250459 1_555
Na8 Tl10 3.293350 1_555
Na8 Tl35 3.302025 1_555
Na8 Tl29 3.389339 1_555
Na8 Tl23 3.391031 1_555
Na9 Tl3 3.194967 1_555
Na9 Tl42 3.251346 1_655
Na9 Tl12 3.294355 1_556
Na9 Tl37 3.302713 1_555
Na9 Tl31 3.390207 1_555
Na9 Tl24 3.391025 1_555
Na10 Tl4 3.195287 1_555
Na10 Tl43 3.250383 1_655
Na10 Tl14 3.294143 1_545
Na10 Tl36 3.302044 1_556
Na10 Tl30 3.391494 1_556
Na10 Tl25 3.392662 1_555
Na11 Tl5 3.194447 1_555
Na11 Tl44 3.250459 1_655
Na11 Tl13 3.293350 1_555
Na11 Tl38 3.302025 1_555
Na11 Tl32 3.389339 1_555
Na11 Tl26 3.391031 1_555
Tl0 Tl9 3.398149 1_555
Tl0 Tl12 3.398149 1_555
Tl0 Tl6 3.563362 1_554
Tl1 Tl13 3.398285 1_555
Tl1 Tl10 3.398285 1_555
Tl1 Tl7 3.563607 1_555
Tl2 Tl8 3.564192 1_555
Tl3 Tl9 3.398149 1_556
Tl3 Tl6 3.563362 1_555
Tl4 Tl8 3.563607 1_545
Tl5 Tl7 3.564192 1_555
Tl6 Tl9 3.416187 1_556
Tl10 Tl23 3.352009 1_555
Tl10 Tl16 3.352301 1_555
Tl10 Tl5 3.398374 1_555
Tl10 Tl7 3.415607 1_555
Tl11 Tl17 3.352009 1_555
Tl11 Tl22 3.352301 1_565
Tl11 Tl4 3.398285 1_565
Tl11 Tl2 3.398374 1_555
Tl11 Tl8 3.415607 1_555
Tl12 Tl18 3.352637 1_555
Tl12 Tl24 3.352637 1_554
Tl12 Tl3 3.398149 1_554
Tl12 Tl6 3.416187 1_554
Tl13 Tl26 3.352009 1_555
Tl13 Tl19 3.352301 1_555
Tl13 Tl5 3.398374 1_555
Tl13 Tl7 3.415607 1_555
Tl14 Tl20 3.352009 1_555
Tl14 Tl25 3.352301 1_565
Tl14 Tl4 3.398285 1_565
Tl14 Tl2 3.398374 1_555
Tl14 Tl8 3.415607 1_555
Tl15 Tl6 3.255902 1_554
Tl15 Tl9 3.352637 1_555
Tl16 Tl7 3.255099 1_555
Tl17 Tl8 3.255410 1_555
Tl18 Tl6 3.255902 1_554
Tl19 Tl7 3.255099 1_555
Tl20 Tl8 3.255410 1_555
Tl21 Tl6 3.255902 1_555
Tl21 Tl9 3.352637 1_556
Tl22 Tl8 3.255099 1_545
Tl23 Tl7 3.255410 1_555
Tl24 Tl6 3.255902 1_555
Tl25 Tl8 3.255099 1_545
Tl26 Tl7 3.255410 1_555
Tl33 Tl45 3.311846 1_554
Tl34 Tl46 3.310621 1_555
Tl35 Tl47 3.310621 1_555
Tl36 Tl45 3.311846 1_654
Tl37 Tl46 3.310621 1_655
Tl38 Tl47 3.310621 1_655
Tl39 Tl47 3.333143 1_565
Tl40 Tl45 3.334324 1_554
Tl41 Tl46 3.334069 1_555
Tl42 Tl46 3.333143 1_555
Tl43 Tl45 3.334324 1_555
Tl44 Tl47 3.334069 1_555
Au0 K29 3.429060 1_455
Au0 K26 3.429060 1_555
Au0 K28 3.429174 1_455
Au0 K25 3.429174 1_555
Au0 K24 3.429586 1_555
Au0 K27 3.429586 1_455
Au1 K23 3.429060 1_455
Au1 K20 3.429060 1_555
Au1 K19 3.429174 1_555
Au1 K22 3.429174 1_455
Au1 K21 3.429586 1_455
Au1 K18 3.429586 1_555
