# generated using pymatgen
data_Sr2CdAu3
_symmetry_space_group_name_H-M   'P 1'
_cell_length_a   6.07122535
_cell_length_b   6.07122535
_cell_length_c   7.62381857
_cell_angle_alpha   52.29252028
_cell_angle_beta   52.29252028
_cell_angle_gamma   46.98637335
_symmetry_Int_Tables_number   1
_chemical_formula_structural   Sr2CdAu3
_chemical_formula_sum   'Sr2 Cd1 Au3'
_cell_volume   153.10593282
_cell_formula_units_Z   1
loop_
 _symmetry_equiv_pos_site_id
 _symmetry_equiv_pos_as_xyz
  1  'x, y, z'
loop_
 _atom_site_type_symbol
 _atom_site_label
 _atom_site_symmetry_multiplicity
 _atom_site_fract_x
 _atom_site_fract_y
 _atom_site_fract_z
 _atom_site_occupancy
  Sr  Sr0  1  0.45555109  0.45555109  0.80042489  1
  Sr  Sr1  1  0.54574155  0.54574155  0.20499244  1
  Cd  Cd0  1  0.83410292  0.83410292  0.60156411  1
  Au  Au0  1  0.15817179  0.15817179  0.39083810  1
  Au  Au1  1  0.16742391  0.16742391  0.79221809  1
  Au  Au2  1  0.83900875  0.83900875  0.20996137  1
loop_
_geom_bond_atom_site_label_1
_geom_bond_atom_site_label_2
_geom_bond_distance
_geom_bond_site_symmetry_2
Sr0 Sr1 3.828033 1_556
Sr0 Sr1 3.941355 1_555
Sr0 Sr1 4.174048 1_546
Sr0 Sr1 4.174048 1_456
Cd0 Sr1 3.323961 1_655
Cd0 Sr1 3.323961 1_565
Cd0 Sr0 3.397734 1_555
Cd0 Sr1 3.430930 1_556
Cd0 Sr0 3.566510 1_565
Cd0 Sr0 3.566510 1_655
Au0 Cd0 2.805596 1_445
Au0 Au2 2.847887 1_545
Au0 Au2 2.847887 1_455
Au0 Au1 3.129703 1_555
Au0 Sr0 3.361790 1_455
Au0 Sr0 3.361790 1_545
Au0 Sr0 3.368276 1_554
Au0 Sr1 3.434916 1_455
Au0 Sr1 3.434916 1_545
Au0 Sr1 3.532488 1_555
Au1 Cd0 2.795872 1_545
Au1 Cd0 2.795872 1_455
Au1 Au2 2.825320 1_446
Au1 Sr0 3.250626 1_555
Au1 Sr0 3.351316 1_545
Au1 Sr0 3.351316 1_455
Au1 Sr1 3.450948 1_546
Au1 Sr1 3.450948 1_456
Au1 Sr1 3.554477 1_555
Au2 Cd0 2.949355 1_555
Au2 Sr1 3.291189 1_555
Au2 Sr1 3.323040 1_655
Au2 Sr1 3.323040 1_565
Au2 Sr0 3.447526 1_654
Au2 Sr0 3.447526 1_564
Au2 Sr0 3.585960 1_555
