# generated using pymatgen
data_MgV2O5
_symmetry_space_group_name_H-M   'P 1'
_cell_length_a   5.42720392
_cell_length_b   5.42720392
_cell_length_c   11.21048800
_cell_angle_alpha   90.00000000
_cell_angle_beta   90.00000000
_cell_angle_gamma   139.86093029
_symmetry_Int_Tables_number   1
_chemical_formula_structural   MgV2O5
_chemical_formula_sum   'Mg2 V4 O10'
_cell_volume   212.86167157
_cell_formula_units_Z   2
loop_
 _symmetry_equiv_pos_site_id
 _symmetry_equiv_pos_as_xyz
  1  'x, y, z'
loop_
 _atom_site_type_symbol
 _atom_site_label
 _atom_site_symmetry_multiplicity
 _atom_site_fract_x
 _atom_site_fract_y
 _atom_site_fract_z
 _atom_site_occupancy
  Mg  Mg0  1  0.10858500  0.89141500  0.75000000  1
  Mg  Mg1  1  0.89141500  0.10858500  0.25000000  1
  V  V0  1  0.79896800  0.20103200  0.59788600  1
  V  V1  1  0.20103200  0.79896800  0.40211400  1
  V  V2  1  0.20103200  0.79896800  0.09788600  1
  V  V3  1  0.79896800  0.20103200  0.90211400  1
  O  O0  1  0.30395700  0.69604300  0.25000000  1
  O  O1  1  0.69604300  0.30395700  0.75000000  1
  O  O2  1  0.76443100  0.23556900  0.07739400  1
  O  O3  1  0.23556900  0.76443100  0.92260600  1
  O  O4  1  0.23556900  0.76443100  0.57739400  1
  O  O5  1  0.76443100  0.23556900  0.42260600  1
  O  O6  1  0.95887000  0.04113000  0.62787700  1
  O  O7  1  0.04113000  0.95887000  0.37212300  1
  O  O8  1  0.95887000  0.04113000  0.87212300  1
  O  O9  1  0.04113000  0.95887000  0.12787700  1
loop_
_geom_bond_atom_site_label_1
_geom_bond_atom_site_label_2
_geom_bond_distance
_geom_bond_site_symmetry_2
Mg0 O6 2.050410 1_465
Mg0 O8 2.050410 1_465
Mg0 O1 2.064847 1_565
Mg0 O1 2.064847 1_455
Mg0 O4 2.328155 1_555
Mg0 O3 2.328155 1_555
Mg1 O7 2.050410 1_645
Mg1 O9 2.050410 1_645
Mg1 O0 2.064847 1_655
Mg1 O0 2.064847 1_545
Mg1 O2 2.328155 1_555
Mg1 O5 2.328155 1_555
O0 V1 2.002271 1_555
O0 V2 2.002271 1_555
O1 V3 2.002271 1_555
O1 V0 2.002271 1_555
O2 V2 1.984718 1_655
O2 V2 1.984718 1_545
O2 V3 1.996274 1_554
O3 V3 1.984718 1_455
O3 V3 1.984718 1_565
O3 V2 1.996274 1_556
O4 V0 1.984718 1_455
O4 V0 1.984718 1_565
O4 V1 1.996274 1_555
O5 V1 1.984718 1_655
O5 V1 1.984718 1_545
O5 V0 1.996274 1_555
O6 V0 1.664556 1_555
O7 V1 1.664556 1_555
O8 V3 1.664556 1_555
O9 V2 1.664556 1_555
