# generated using pymatgen
data_Zn2Co2O5
_symmetry_space_group_name_H-M   'P 1'
_cell_length_a   3.25821200
_cell_length_b   6.27481800
_cell_length_c   10.74203474
_cell_angle_alpha   89.12985972
_cell_angle_beta   90.00000000
_cell_angle_gamma   90.00000000
_symmetry_Int_Tables_number   1
_chemical_formula_structural   Zn2Co2O5
_chemical_formula_sum   'Zn4 Co4 O10'
_cell_volume   219.59221563
_cell_formula_units_Z   2
loop_
 _symmetry_equiv_pos_site_id
 _symmetry_equiv_pos_as_xyz
  1  'x, y, z'
loop_
 _atom_site_type_symbol
 _atom_site_label
 _atom_site_symmetry_multiplicity
 _atom_site_fract_x
 _atom_site_fract_y
 _atom_site_fract_z
 _atom_site_occupancy
  Zn  Zn0  1  0.00000000  0.63838000  0.88384200  1
  Zn  Zn1  1  0.00000000  0.29509200  0.10252300  1
  Zn  Zn2  1  0.00000000  0.14582400  0.60701800  1
  Zn  Zn3  1  0.00000000  0.85341500  0.38902200  1
  Co  Co0  1  0.50000000  0.68615400  0.63108300  1
  Co  Co1  1  0.50000000  0.33739300  0.37300800  1
  Co  Co2  1  0.50000000  0.79403200  0.12532400  1
  Co  Co3  1  0.50000000  0.16215700  0.87078200  1
  O  O0  1  0.50000000  0.50581500  0.50273100  1
  O  O1  1  0.50000000  0.80025700  0.29573300  1
  O  O2  1  0.50000000  0.33644100  0.20620700  1
  O  O3  1  0.50000000  0.73474800  0.80048800  1
  O  O4  1  0.00000000  0.66176600  0.06989400  1
  O  O5  1  0.00000000  0.32314400  0.90860400  1
  O  O6  1  0.50000000  0.18975600  0.70332900  1
  O  O7  1  0.00000000  0.82135900  0.58030500  1
  O  O8  1  0.50000000  0.04037400  0.02899500  1
  O  O9  1  0.00000000  0.17389500  0.42111100  1
loop_
_geom_bond_atom_site_label_1
_geom_bond_atom_site_label_2
_geom_bond_distance
_geom_bond_site_symmetry_2
Co0 O0 1.796908 1_555
Co0 O3 1.849685 1_555
Co0 O7 1.912385 1_555
Co0 O7 1.912385 1_655
Co1 O0 1.761648 1_555
Co1 O2 1.791883 1_555
Co1 O9 1.989322 1_555
Co1 O9 1.989322 1_655
Co2 O1 1.831549 1_555
Co2 O8 1.847028 1_565
Co2 O4 1.926744 1_555
Co2 O4 1.926744 1_655
Co3 O6 1.804483 1_555
Co3 O8 1.852810 1_556
Co3 O5 1.962639 1_655
Co3 O5 1.962639 1_555
O1 Zn3 1.944127 1_655
O1 Zn3 1.944127 1_555
O2 Zn1 1.992632 1_555
O2 Zn1 1.992632 1_655
O3 Zn0 1.950620 1_555
O3 Zn0 1.950620 1_655
O4 Zn0 2.006178 1_554
O4 Zn1 2.322089 1_555
O5 Zn0 1.991845 1_555
O5 Zn1 2.087843 1_556
O6 Zn2 1.951663 1_655
O6 Zn2 1.951663 1_555
O7 Zn2 2.060392 1_565
O7 Zn3 2.061548 1_555
O8 Zn1 2.422967 1_555
O8 Zn1 2.422967 1_655
O9 Zn2 2.002106 1_555
O9 Zn3 2.045436 1_545
