# generated using pymatgen
data_Zn2SiO4
_symmetry_space_group_name_H-M   'P 1'
_cell_length_a   6.18838900
_cell_length_b   9.84028900
_cell_length_c   11.03585600
_cell_angle_alpha   90.00000000
_cell_angle_beta   90.00000000
_cell_angle_gamma   90.00000000
_symmetry_Int_Tables_number   1
_chemical_formula_structural   Zn2SiO4
_chemical_formula_sum   'Zn16 Si8 O32'
_cell_volume   672.03436859
_cell_formula_units_Z   8
loop_
 _symmetry_equiv_pos_site_id
 _symmetry_equiv_pos_as_xyz
  1  'x, y, z'
loop_
 _atom_site_type_symbol
 _atom_site_label
 _atom_site_symmetry_multiplicity
 _atom_site_fract_x
 _atom_site_fract_y
 _atom_site_fract_z
 _atom_site_occupancy
  Zn  Zn0  1  0.84613600  0.41882900  0.06280100  1
  Zn  Zn1  1  0.15386400  0.08117100  0.56280100  1
  Zn  Zn2  1  0.65386400  0.91882900  0.93719900  1
  Zn  Zn3  1  0.34613600  0.58117100  0.43719900  1
  Zn  Zn4  1  0.15386400  0.58117100  0.93719900  1
  Zn  Zn5  1  0.84613600  0.91882900  0.43719900  1
  Zn  Zn6  1  0.34613600  0.08117100  0.06280100  1
  Zn  Zn7  1  0.65386400  0.41882900  0.56280100  1
  Zn  Zn8  1  0.55859100  0.68405200  0.16047800  1
  Zn  Zn9  1  0.44140900  0.81594800  0.66047800  1
  Zn  Zn10  1  0.94140900  0.18405200  0.83952200  1
  Zn  Zn11  1  0.05859100  0.31594800  0.33952200  1
  Zn  Zn12  1  0.44140900  0.31594800  0.83952200  1
  Zn  Zn13  1  0.55859100  0.18405200  0.33952200  1
  Zn  Zn14  1  0.05859100  0.81594800  0.16047800  1
  Zn  Zn15  1  0.94140900  0.68405200  0.66047800  1
  Si  Si0  1  0.13719100  0.88002300  0.87634800  1
  Si  Si1  1  0.86280900  0.61997700  0.37634800  1
  Si  Si2  1  0.36280900  0.38002300  0.12365200  1
  Si  Si3  1  0.63719100  0.11997700  0.62365200  1
  Si  Si4  1  0.86280900  0.11997700  0.12365200  1
  Si  Si5  1  0.13719100  0.38002300  0.62365200  1
  Si  Si6  1  0.63719100  0.61997700  0.87634800  1
  Si  Si7  1  0.36280900  0.88002300  0.37634800  1
  O  O0  1  0.16615900  0.78596500  0.75178400  1
  O  O1  1  0.83384100  0.71403500  0.25178400  1
  O  O2  1  0.33384100  0.28596500  0.24821600  1
  O  O3  1  0.66615900  0.21403500  0.74821600  1
  O  O4  1  0.83384100  0.21403500  0.24821600  1
  O  O5  1  0.16615900  0.28596500  0.74821600  1
  O  O6  1  0.66615900  0.71403500  0.75178400  1
  O  O7  1  0.33384100  0.78596500  0.25178400  1
  O  O8  1  0.35075600  0.97578500  0.90055200  1
  O  O9  1  0.64924400  0.52421500  0.40055200  1
  O  O10  1  0.14924400  0.47578500  0.09944800  1
  O  O11  1  0.85075600  0.02421500  0.59944800  1
  O  O12  1  0.64924400  0.02421500  0.09944800  1
  O  O13  1  0.35075600  0.47578500  0.59944800  1
  O  O14  1  0.85075600  0.52421500  0.90055200  1
  O  O15  1  0.14924400  0.97578500  0.40055200  1
  O  O16  1  0.09828500  0.76985700  0.98746200  1
  O  O17  1  0.90171500  0.73014300  0.48746200  1
  O  O18  1  0.40171500  0.26985700  0.01253800  1
  O  O19  1  0.59828500  0.23014300  0.51253800  1
  O  O20  1  0.90171500  0.23014300  0.01253800  1
  O  O21  1  0.09828500  0.26985700  0.51253800  1
  O  O22  1  0.59828500  0.73014300  0.98746200  1
  O  O23  1  0.40171500  0.76985700  0.48746200  1
  O  O24  1  0.92553500  0.98107400  0.86608700  1
  O  O25  1  0.07446500  0.51892600  0.36608700  1
  O  O26  1  0.57446500  0.48107400  0.13391300  1
  O  O27  1  0.42553500  0.01892600  0.63391300  1
  O  O28  1  0.07446500  0.01892600  0.13391300  1
  O  O29  1  0.92553500  0.48107400  0.63391300  1
  O  O30  1  0.42553500  0.51892600  0.86608700  1
  O  O31  1  0.57446500  0.98107400  0.36608700  1
loop_
_geom_bond_atom_site_label_1
_geom_bond_atom_site_label_2
_geom_bond_distance
_geom_bond_site_symmetry_2
O0 Si0 1.666887 1_555
O0 Zn15 1.988841 1_455
O0 Zn9 2.000950 1_555
O1 Si1 1.666887 1_555
O1 Zn14 1.988841 1_655
O1 Zn8 2.000950 1_555
O2 Si2 1.666887 1_555
O2 Zn13 1.988841 1_555
O2 Zn11 2.000950 1_555
O3 Si3 1.666887 1_555
O3 Zn12 1.988841 1_555
O3 Zn10 2.000950 1_555
O4 Si4 1.666887 1_555
O4 Zn11 1.988841 1_655
O4 Zn13 2.000950 1_555
O5 Si5 1.666887 1_555
O5 Zn10 1.988841 1_455
O5 Zn12 2.000950 1_555
O6 Si6 1.666887 1_555
O6 Zn9 1.988841 1_555
O6 Zn15 2.000950 1_555
O7 Si7 1.666887 1_555
O7 Zn8 1.988841 1_555
O7 Zn14 2.000950 1_555
O8 Si0 1.644997 1_555
O8 Zn2 1.999030 1_555
O8 Zn6 2.069381 1_566
O9 Si1 1.644997 1_555
O9 Zn3 1.999030 1_555
O9 Zn7 2.069381 1_555
O10 Si2 1.644997 1_555
O10 Zn0 1.999030 1_455
O10 Zn4 2.069381 1_554
O11 Si3 1.644997 1_555
O11 Zn1 1.999030 1_655
O11 Zn5 2.069381 1_545
O12 Si4 1.644997 1_555
O12 Zn6 1.999030 1_555
O12 Zn2 2.069381 1_544
O13 Si5 1.644997 1_555
O13 Zn7 1.999030 1_555
O13 Zn3 2.069381 1_555
O14 Si6 1.644997 1_555
O14 Zn4 1.999030 1_655
O14 Zn0 2.069381 1_556
O15 Si7 1.644997 1_555
O15 Zn5 1.999030 1_455
O15 Zn1 2.069381 1_565
O16 Si0 1.654335 1_555
O16 Zn4 1.968098 1_555
O16 Zn14 1.977821 1_556
O17 Si1 1.654335 1_555
O17 Zn5 1.968098 1_555
O17 Zn15 1.977821 1_555
O18 Si2 1.654335 1_555
O18 Zn6 1.968098 1_555
O18 Zn12 1.977821 1_554
O19 Si3 1.654335 1_555
O19 Zn7 1.968098 1_555
O19 Zn13 1.977821 1_555
O20 Si4 1.654335 1_555
O20 Zn0 1.968098 1_555
O20 Zn10 1.977821 1_554
O21 Si5 1.654335 1_555
O21 Zn1 1.968098 1_555
O21 Zn11 1.977821 1_555
O22 Si6 1.654335 1_555
O22 Zn2 1.968098 1_555
O22 Zn8 1.977821 1_556
O23 Si7 1.654335 1_555
O23 Zn3 1.968098 1_555
O23 Zn9 1.977821 1_555
O24 Si0 1.648393 1_655
O24 Zn2 1.953843 1_555
O24 Zn10 2.021151 1_565
O25 Si1 1.648393 1_455
O25 Zn3 1.953843 1_555
O25 Zn11 2.021151 1_555
O26 Si2 1.648393 1_555
O26 Zn0 1.953843 1_555
O26 Zn8 2.021151 1_555
O27 Si3 1.648393 1_555
O27 Zn1 1.953843 1_555
O27 Zn9 2.021151 1_545
O28 Si4 1.648393 1_455
O28 Zn6 1.953843 1_555
O28 Zn14 2.021151 1_545
O29 Si5 1.648393 1_655
O29 Zn7 1.953843 1_555
O29 Zn15 2.021151 1_555
O30 Si6 1.648393 1_555
O30 Zn4 1.953843 1_555
O30 Zn12 2.021151 1_555
O31 Si7 1.648393 1_555
O31 Zn5 1.953843 1_555
O31 Zn13 2.021151 1_565
