# generated using pymatgen
data_CdCu2SnSe4
_symmetry_space_group_name_H-M   'P 1'
_cell_length_a   7.15000723
_cell_length_b   7.15000723
_cell_length_c   7.15000723
_cell_angle_alpha   131.14388338
_cell_angle_beta   131.14388338
_cell_angle_gamma   71.58457805
_symmetry_Int_Tables_number   1
_chemical_formula_structural   CdCu2SnSe4
_chemical_formula_sum   'Cd1 Cu2 Sn1 Se4'
_cell_volume   202.83056401
_cell_formula_units_Z   1
loop_
 _symmetry_equiv_pos_site_id
 _symmetry_equiv_pos_as_xyz
  1  'x, y, z'
loop_
 _atom_site_type_symbol
 _atom_site_label
 _atom_site_symmetry_multiplicity
 _atom_site_fract_x
 _atom_site_fract_y
 _atom_site_fract_z
 _atom_site_occupancy
  Cd  Cd0  1  0.00000000  0.00000000  0.00000000  1
  Cu  Cu0  1  0.25000000  0.75000000  0.50000000  1
  Cu  Cu1  1  0.75000000  0.25000000  0.50000000  1
  Sn  Sn0  1  0.50000000  0.50000000  0.00000000  1
  Se  Se0  1  0.39665800  0.88578800  0.00000000  1
  Se  Se1  1  0.88578800  0.39665800  0.00000000  1
  Se  Se2  1  0.11421200  0.11421200  0.51087000  1
  Se  Se3  1  0.60334200  0.60334200  0.48913000  1
loop_
_geom_bond_atom_site_label_1
_geom_bond_atom_site_label_2
_geom_bond_distance
_geom_bond_site_symmetry_2
Cd0 Se0 2.692042 1_545
Cd0 Se1 2.692042 1_455
Cd0 Se2 2.692042 1_555
Cd0 Se3 2.692042 1_444
Cu0 Se3 2.442469 1_555
Cu0 Se2 2.442469 1_565
Cu0 Se1 2.442469 1_455
Cu0 Se0 2.442469 1_556
Cu1 Se3 2.442469 1_555
Cu1 Se2 2.442469 1_655
Cu1 Se1 2.442469 1_556
Cu1 Se0 2.442469 1_545
Se0 Sn0 2.620484 1_555
Se1 Sn0 2.620484 1_555
Se2 Sn0 2.620484 1_556
Se3 Sn0 2.620484 1_555
