# generated using pymatgen
data_LiSc2Al2(CO)2
_symmetry_space_group_name_H-M   'P 1'
_cell_length_a   13.40382049
_cell_length_b   13.40382049
_cell_length_c   13.40382063
_cell_angle_alpha   13.97273311
_cell_angle_beta   13.97273311
_cell_angle_gamma   13.97274077
_symmetry_Int_Tables_number   1
_chemical_formula_structural   LiSc2Al2(CO)2
_chemical_formula_sum   'Li1 Sc2 Al2 C2 O2'
_cell_volume   122.19524691
_cell_formula_units_Z   1
loop_
 _symmetry_equiv_pos_site_id
 _symmetry_equiv_pos_as_xyz
  1  'x, y, z'
loop_
 _atom_site_type_symbol
 _atom_site_label
 _atom_site_symmetry_multiplicity
 _atom_site_fract_x
 _atom_site_fract_y
 _atom_site_fract_z
 _atom_site_occupancy
  Li  Li0  1  0.29641300  0.29641300  0.29641300  1
  Sc  Sc0  1  0.03901000  0.03901000  0.03901000  1
  Sc  Sc1  1  0.49959700  0.49959700  0.49959700  1
  Al  Al0  1  0.75911600  0.75911600  0.75911500  1
  Al  Al1  1  0.23734000  0.23734000  0.23734000  1
  C  C0  1  0.58814900  0.58814900  0.58814900  1
  C  C1  1  0.40548700  0.40548700  0.40548700  1
  O  O0  1  0.18922500  0.18922500  0.18922500  1
  O  O1  1  0.80441200  0.80441200  0.80441100  1
loop_
_geom_bond_atom_site_label_1
_geom_bond_atom_site_label_2
_geom_bond_distance
_geom_bond_site_symmetry_2
Al0 O1 1.803364 1_555
Al0 C1 2.048643 1_655
Al0 C1 2.048643 1_565
Al0 C1 2.048645 1_556
Al1 O0 1.915597 1_555
Al1 C0 2.007019 1_554
Al1 C0 2.007020 1_545
Al1 C0 2.007020 1_455
Al1 Li0 2.351866 1_555
C0 Li0 2.507339 1_556
C0 Li0 2.507340 1_655
C0 Li0 2.507340 1_565
C1 Sc0 2.298967 1_556
C1 Sc0 2.298968 1_655
C1 Sc0 2.298968 1_565
O0 Sc1 2.092781 1_554
O0 Sc1 2.092782 1_545
O0 Sc1 2.092782 1_455
O1 Sc1 2.198455 1_565
O1 Sc1 2.198455 1_655
O1 Sc1 2.198457 1_556
