# generated using pymatgen
data_MgFe5N4
_symmetry_space_group_name_H-M   'P 1'
_cell_length_a   7.26489600
_cell_length_b   6.04420900
_cell_length_c   4.53888300
_cell_angle_alpha   90.00000000
_cell_angle_beta   90.00000000
_cell_angle_gamma   90.00000000
_symmetry_Int_Tables_number   1
_chemical_formula_structural   MgFe5N4
_chemical_formula_sum   'Mg2 Fe10 N8'
_cell_volume   199.30484795
_cell_formula_units_Z   2
loop_
 _symmetry_equiv_pos_site_id
 _symmetry_equiv_pos_as_xyz
  1  'x, y, z'
loop_
 _atom_site_type_symbol
 _atom_site_label
 _atom_site_symmetry_multiplicity
 _atom_site_fract_x
 _atom_site_fract_y
 _atom_site_fract_z
 _atom_site_occupancy
  Mg  Mg0  1  0.75000000  0.25000000  0.72371200  1
  Mg  Mg1  1  0.25000000  0.75000000  0.27628800  1
  Fe  Fe0  1  0.57446400  0.46641700  0.25371300  1
  Fe  Fe1  1  0.92553600  0.46641700  0.25371300  1
  Fe  Fe2  1  0.57446400  0.03358300  0.25371300  1
  Fe  Fe3  1  0.92553600  0.03358300  0.25371300  1
  Fe  Fe4  1  0.42553600  0.53358300  0.74628700  1
  Fe  Fe5  1  0.07446400  0.53358300  0.74628700  1
  Fe  Fe6  1  0.42553600  0.96641700  0.74628700  1
  Fe  Fe7  1  0.07446400  0.96641700  0.74628700  1
  Fe  Fe8  1  0.75000000  0.75000000  0.68791300  1
  Fe  Fe9  1  0.25000000  0.25000000  0.31208700  1
  N  N0  1  0.75000000  0.96600700  0.97919000  1
  N  N1  1  0.75000000  0.53399300  0.97919000  1
  N  N2  1  0.25000000  0.03399300  0.02081000  1
  N  N3  1  0.25000000  0.46600700  0.02081000  1
  N  N4  1  0.52621100  0.75000000  0.45563100  1
  N  N5  1  0.97378900  0.75000000  0.45563100  1
  N  N6  1  0.47378900  0.25000000  0.54436900  1
  N  N7  1  0.02621100  0.25000000  0.54436900  1
loop_
_geom_bond_atom_site_label_1
_geom_bond_atom_site_label_2
_geom_bond_distance
_geom_bond_site_symmetry_2
Mg0 N1 2.071486 1_555
Mg0 N0 2.071486 1_545
Mg0 N7 2.165466 1_655
Mg0 N6 2.165466 1_555
Mg1 N2 2.071486 1_565
Mg1 N3 2.071486 1_555
Mg1 N4 2.165466 1_555
Mg1 N5 2.165466 1_455
Fe0 N1 1.829119 1_554
Fe0 N4 1.975030 1_555
Fe0 N6 1.996600 1_555
Fe1 N1 1.829119 1_554
Fe1 N5 1.975030 1_555
Fe1 N7 1.996600 1_655
Fe2 N0 1.829119 1_544
Fe2 N4 1.975030 1_545
Fe2 N6 1.996600 1_555
Fe3 N0 1.829119 1_544
Fe3 N5 1.975030 1_545
Fe3 N7 1.996600 1_655
Fe4 N3 1.829119 1_556
Fe4 N6 1.975030 1_555
Fe4 N4 1.996600 1_555
Fe5 N3 1.829119 1_556
Fe5 N7 1.975030 1_555
Fe5 N5 1.996600 1_455
Fe6 N2 1.829119 1_566
Fe6 N6 1.975030 1_565
Fe6 N4 1.996600 1_555
Fe7 N2 1.829119 1_566
Fe7 N7 1.975030 1_565
Fe7 N5 1.996600 1_455
Fe8 N0 1.858075 1_555
Fe8 N1 1.858075 1_555
Fe8 N5 1.937728 1_555
Fe8 N4 1.937728 1_555
Fe9 N3 1.858075 1_555
Fe9 N2 1.858075 1_555
Fe9 N6 1.937728 1_555
Fe9 N7 1.937728 1_555
