# generated using pymatgen
data_Al(Ni4Pt)3
_symmetry_space_group_name_H-M   'P 1'
_cell_length_a   3.62181900
_cell_length_b   3.62181900
_cell_length_c   14.50943000
_cell_angle_alpha   90.00000000
_cell_angle_beta   90.00000000
_cell_angle_gamma   90.00000000
_symmetry_Int_Tables_number   1
_chemical_formula_structural   Al(Ni4Pt)3
_chemical_formula_sum   'Al1 Ni12 Pt3'
_cell_volume   190.32850531
_cell_formula_units_Z   1
loop_
 _symmetry_equiv_pos_site_id
 _symmetry_equiv_pos_as_xyz
  1  'x, y, z'
loop_
 _atom_site_type_symbol
 _atom_site_label
 _atom_site_symmetry_multiplicity
 _atom_site_fract_x
 _atom_site_fract_y
 _atom_site_fract_z
 _atom_site_occupancy
  Al  Al0  1  0.00000000  0.00000000  0.00000000  1
  Ni  Ni0  1  0.50000000  0.50000000  0.00000000  1
  Ni  Ni1  1  0.50000000  0.50000000  0.24876100  1
  Ni  Ni2  1  0.50000000  0.50000000  0.50000000  1
  Ni  Ni3  1  0.50000000  0.50000000  0.75123900  1
  Ni  Ni4  1  0.50000000  0.00000000  0.12193900  1
  Ni  Ni5  1  0.50000000  0.00000000  0.37515800  1
  Ni  Ni6  1  0.50000000  0.00000000  0.62484200  1
  Ni  Ni7  1  0.50000000  0.00000000  0.87806100  1
  Ni  Ni8  1  0.00000000  0.50000000  0.12193900  1
  Ni  Ni9  1  0.00000000  0.50000000  0.37515800  1
  Ni  Ni10  1  0.00000000  0.50000000  0.62484200  1
  Ni  Ni11  1  0.00000000  0.50000000  0.87806100  1
  Pt  Pt0  1  0.00000000  0.00000000  0.24974700  1
  Pt  Pt1  1  0.00000000  0.00000000  0.50000000  1
  Pt  Pt2  1  0.00000000  0.00000000  0.75025300  1
loop_
_geom_bond_atom_site_label_1
_geom_bond_atom_site_label_2
_geom_bond_distance
_geom_bond_site_symmetry_2
Al0 Ni8 2.531737 1_555
Al0 Ni4 2.531737 1_455
Al0 Ni8 2.531737 1_545
Al0 Ni4 2.531737 1_555
Al0 Ni7 2.531737 1_554
Al0 Ni11 2.531737 1_554
Al0 Ni7 2.531737 1_454
Al0 Ni11 2.531737 1_544
Al0 Ni0 2.561013 1_555
Al0 Ni0 2.561013 1_455
Al0 Ni0 2.561013 1_545
Al0 Ni0 2.561013 1_445
Ni0 Ni8 2.531737 1_555
Ni0 Ni4 2.531737 1_565
Ni0 Ni8 2.531737 1_655
Ni0 Ni4 2.531737 1_555
Ni0 Ni7 2.531737 1_554
Ni0 Ni11 2.531737 1_654
Ni0 Ni11 2.531737 1_554
Ni0 Ni7 2.531737 1_564
Ni1 Pt0 2.561053 1_555
Ni1 Pt0 2.561053 1_565
Ni1 Pt0 2.561053 1_655
Ni1 Pt0 2.561053 1_665
Ni1 Ni5 2.577355 1_565
Ni1 Ni9 2.577355 1_555
Ni1 Ni9 2.577355 1_655
Ni1 Ni5 2.577355 1_555
Ni1 Ni8 2.581747 1_555
Ni1 Ni4 2.581747 1_565
Ni1 Ni8 2.581747 1_655
Ni1 Ni4 2.581747 1_555
Ni2 Pt1 2.561013 1_665
Ni2 Pt1 2.561013 1_555
Ni2 Pt1 2.561013 1_565
Ni2 Pt1 2.561013 1_655
Ni2 Ni9 2.561350 1_655
Ni2 Ni9 2.561350 1_555
Ni2 Ni5 2.561350 1_555
Ni2 Ni5 2.561350 1_565
Ni2 Ni6 2.561350 1_555
Ni2 Ni6 2.561350 1_565
Ni3 Pt2 2.561053 1_655
Ni3 Pt2 2.561053 1_565
Ni3 Pt2 2.561053 1_665
Ni3 Pt2 2.561053 1_555
Ni3 Ni6 2.577355 1_555
Ni3 Ni6 2.577355 1_565
Ni3 Ni7 2.581747 1_565
Ni3 Ni7 2.581747 1_555
Ni4 Ni8 2.561013 1_655
Ni4 Ni8 2.561013 1_645
Ni4 Ni8 2.561013 1_545
Ni4 Ni8 2.561013 1_555
Ni4 Pt0 2.591963 1_555
Ni4 Pt0 2.591963 1_655
Ni5 Ni9 2.561013 1_645
Ni5 Ni9 2.561013 1_555
Ni5 Ni9 2.561013 1_545
Ni5 Ni9 2.561013 1_655
Ni5 Pt1 2.561350 1_555
Ni5 Pt1 2.561350 1_655
Ni5 Pt0 2.567195 1_655
Ni5 Pt0 2.567195 1_555
Ni6 Pt1 2.561350 1_555
Ni6 Pt1 2.561350 1_655
Ni6 Pt2 2.567195 1_655
Ni6 Pt2 2.567195 1_555
Ni7 Pt2 2.591963 1_655
Ni7 Pt2 2.591963 1_555
Ni8 Pt0 2.591963 1_555
Ni8 Pt0 2.591963 1_565
Ni9 Pt1 2.561350 1_555
Ni9 Pt1 2.561350 1_565
Ni9 Pt0 2.567195 1_565
Ni9 Pt0 2.567195 1_555
Ni10 Ni6 2.561013 1_555
Ni10 Ni6 2.561013 1_565
Ni10 Ni6 2.561013 1_465
Ni10 Ni6 2.561013 1_455
Ni10 Ni2 2.561350 1_455
Ni10 Pt1 2.561350 1_555
Ni10 Ni2 2.561350 1_555
Ni10 Pt1 2.561350 1_565
Ni10 Pt2 2.567195 1_565
Ni10 Pt2 2.567195 1_555
Ni10 Ni3 2.577355 1_455
Ni10 Ni3 2.577355 1_555
Ni11 Ni7 2.561013 1_455
Ni11 Ni7 2.561013 1_565
Ni11 Ni7 2.561013 1_555
Ni11 Ni7 2.561013 1_465
Ni11 Ni3 2.581747 1_455
Ni11 Ni3 2.581747 1_555
Ni11 Pt2 2.591963 1_565
Ni11 Pt2 2.591963 1_555
