# generated using pymatgen
data_Li4MgNi3O8
_symmetry_space_group_name_H-M   'P 1'
_cell_length_a   5.77422375
_cell_length_b   5.80901103
_cell_length_c   8.28205996
_cell_angle_alpha   89.35716384
_cell_angle_beta   90.01175485
_cell_angle_gamma   90.00840408
_symmetry_Int_Tables_number   1
_chemical_formula_structural   Li4MgNi3O8
_chemical_formula_sum   'Li8 Mg2 Ni6 O16'
_cell_volume   277.78374685
_cell_formula_units_Z   2
loop_
 _symmetry_equiv_pos_site_id
 _symmetry_equiv_pos_as_xyz
  1  'x, y, z'
loop_
 _atom_site_type_symbol
 _atom_site_label
 _atom_site_symmetry_multiplicity
 _atom_site_fract_x
 _atom_site_fract_y
 _atom_site_fract_z
 _atom_site_occupancy
  Li  Li0  1  0.25021700  0.24949400  0.25057400  1
  Li  Li1  1  0.74979200  0.75049600  0.74942800  1
  Li  Li2  1  0.25248500  0.74981100  0.75007100  1
  Li  Li3  1  0.74748300  0.25017000  0.24993600  1
  Li  Li4  1  0.99984200  0.00015900  0.50001800  1
  Li  Li5  1  0.50001000  0.49995200  0.99998500  1
  Li  Li6  1  0.99979800  0.49978900  0.99998700  1
  Li  Li7  1  0.50001600  0.00006200  0.50000500  1
  Mg  Mg0  1  0.24917600  0.24968100  0.74974100  1
  Mg  Mg1  1  0.75082200  0.75030900  0.25025600  1
  Ni  Ni0  1  0.25171500  0.75000200  0.25013900  1
  Ni  Ni1  1  0.74831500  0.24998100  0.74987700  1
  Ni  Ni2  1  0.50004600  0.99998800  0.99999500  1
  Ni  Ni3  1  0.00004200  0.99995400  0.99999300  1
  Ni  Ni4  1  0.49997300  0.50007900  0.49998700  1
  Ni  Ni5  1  0.00000600  0.50005200  0.49999200  1
  O  O0  1  0.27295700  0.76105000  0.99549500  1
  O  O1  1  0.72744100  0.26161600  0.49518300  1
  O  O2  1  0.27260200  0.73841800  0.50482600  1
  O  O3  1  0.72715800  0.23892000  0.00449900  1
  O  O4  1  0.25285300  0.21954900  0.99757000  1
  O  O5  1  0.74639700  0.72041200  0.49784500  1
  O  O6  1  0.25359100  0.27965800  0.50216000  1
  O  O7  1  0.74720300  0.78038500  0.00242500  1
  O  O8  1  0.01360400  0.51659700  0.26350200  1
  O  O9  1  0.51172200  0.01525600  0.77074600  1
  O  O10  1  0.48833300  0.98476700  0.22923300  1
  O  O11  1  0.98637600  0.48339400  0.73650200  1
  O  O12  1  0.01429500  0.98305600  0.23707100  1
  O  O13  1  0.51211300  0.48404200  0.72929800  1
  O  O14  1  0.48787400  0.51598400  0.27072300  1
  O  O15  1  0.98574100  0.01691800  0.76293600  1
loop_
_geom_bond_atom_site_label_1
_geom_bond_atom_site_label_2
_geom_bond_distance
_geom_bond_site_symmetry_2
Li0 O12 2.065668 1_545
Li0 O8 2.071233 1_555
Li0 O10 2.072038 1_545
Li0 O14 2.076663 1_555
Li0 O6 2.093049 1_555
Li0 O4 2.104605 1_554
Li1 O15 2.065703 1_565
Li1 O11 2.071117 1_555
Li1 O9 2.071986 1_565
Li1 O13 2.076577 1_555
Li1 O5 2.092982 1_555
Li1 O7 2.104514 1_556
Li2 O2 2.036294 1_555
Li2 O0 2.037803 1_555
Li2 O9 2.157042 1_565
Li2 O13 2.160390 1_555
Li2 O11 2.184478 1_455
Li2 O15 2.189912 1_465
Li3 O1 2.036299 1_555
Li3 O3 2.037865 1_555
Li3 O10 2.156539 1_545
Li3 O14 2.160511 1_555
Li3 O8 2.184567 1_655
Li3 O12 2.190217 1_645
Li4 O15 2.182305 1_555
Li4 O12 2.182735 1_645
Li4 O1 2.186713 1_555
Li4 O5 2.186950 1_545
Li4 O6 2.187051 1_655
Li4 O2 2.189348 1_645
Li5 O0 2.004991 1_555
Li5 O3 2.005062 1_556
Li5 O4 2.165725 1_555
Li5 O7 2.165996 1_556
Li5 O13 2.245888 1_555
Li5 O14 2.246353 1_556
Li6 O3 2.185001 1_556
Li6 O11 2.186701 1_555
Li6 O8 2.187161 1_656
Li6 O7 2.187704 1_556
Li6 O4 2.187933 1_655
Li6 O0 2.188737 1_655
Li7 O1 2.008148 1_555
Li7 O2 2.008501 1_545
Li7 O6 2.159696 1_555
Li7 O5 2.159765 1_545
Li7 O9 2.246022 1_555
Li7 O10 2.246304 1_545
Mg0 O15 2.037197 1_455
Mg0 O11 2.038409 1_455
Mg0 O9 2.044049 1_555
Mg0 O13 2.044877 1_555
Mg0 O6 2.056077 1_555
Mg0 O4 2.058132 1_555
Mg1 O12 2.037296 1_655
Mg1 O8 2.038330 1_655
Mg1 O10 2.043944 1_555
Mg1 O14 2.044800 1_555
Mg1 O5 2.056110 1_555
Mg1 O7 2.058122 1_555
Ni0 O12 1.929023 1_555
Ni0 O14 1.931791 1_555
Ni0 O8 1.933158 1_555
Ni0 O10 1.936695 1_555
Ni0 O0 2.112821 1_554
Ni0 O2 2.113072 1_555
Ni1 O15 1.929081 1_555
Ni1 O13 1.932138 1_555
Ni1 O11 1.932990 1_555
Ni1 O9 1.936405 1_555
Ni1 O3 2.112612 1_556
Ni1 O1 2.113132 1_555
Ni2 O10 1.900846 1_556
Ni2 O9 1.900939 1_565
Ni2 O0 1.909956 1_555
Ni2 O3 1.910023 1_566
Ni2 O4 1.914262 1_565
Ni2 O7 1.914270 1_556
Ni3 O4 1.938428 1_565
Ni3 O7 1.938451 1_456
Ni3 O15 1.966406 1_465
Ni3 O12 1.966553 1_556
Ni3 O0 2.100611 1_555
Ni3 O3 2.100716 1_466
Ni4 O14 1.901259 1_555
Ni4 O13 1.901685 1_555
Ni4 O2 1.908918 1_555
Ni4 O1 1.909817 1_555
Ni4 O5 1.913670 1_555
Ni4 O6 1.913832 1_555
Ni5 O5 1.945093 1_455
Ni5 O6 1.945119 1_555
Ni5 O8 1.961491 1_555
Ni5 O11 1.961689 1_455
Ni5 O2 2.096918 1_555
Ni5 O1 2.097047 1_455
