# generated using pymatgen
data_CrH6C3(S2N)3
_symmetry_space_group_name_H-M   'P 1'
_cell_length_a   8.93781500
_cell_length_b   8.93781500
_cell_length_c   8.93781486
_cell_angle_alpha   99.86345656
_cell_angle_beta   99.86345656
_cell_angle_gamma   99.86345714
_symmetry_Int_Tables_number   1
_chemical_formula_structural   CrH6C3(S2N)3
_chemical_formula_sum   'Cr2 H12 C6 S12 N6'
_cell_volume   678.07362085
_cell_formula_units_Z   2
loop_
 _symmetry_equiv_pos_site_id
 _symmetry_equiv_pos_as_xyz
  1  'x, y, z'
loop_
 _atom_site_type_symbol
 _atom_site_label
 _atom_site_symmetry_multiplicity
 _atom_site_fract_x
 _atom_site_fract_y
 _atom_site_fract_z
 _atom_site_occupancy
  Cr  Cr0  1  0.24763900  0.24763900  0.24763900  1
  Cr  Cr1  1  0.75236100  0.75236100  0.75236100  1
  H  H0  1  0.31776900  0.65853700  0.97250900  1
  H  H1  1  0.97250900  0.31776900  0.65853700  1
  H  H2  1  0.65853700  0.97250900  0.31776900  1
  H  H3  1  0.68223100  0.34146300  0.02749100  1
  H  H4  1  0.02749100  0.68223100  0.34146200  1
  H  H5  1  0.34146300  0.02749100  0.68223100  1
  H  H6  1  0.26882200  0.49883700  0.81882700  1
  H  H7  1  0.81882700  0.26882200  0.49883700  1
  H  H8  1  0.49883700  0.81882700  0.26882200  1
  H  H9  1  0.73117800  0.50116300  0.18117300  1
  H  H10  1  0.18117300  0.73117800  0.50116300  1
  H  H11  1  0.50116300  0.18117300  0.73117800  1
  C  C0  1  0.27062000  0.44754700  0.03451500  1
  C  C1  1  0.03451500  0.27062000  0.44754700  1
  C  C2  1  0.44754700  0.03451500  0.27062000  1
  C  C3  1  0.72938000  0.55245300  0.96548500  1
  C  C4  1  0.96548500  0.72938000  0.55245300  1
  C  C5  1  0.55245300  0.96548500  0.72938000  1
  S  S0  1  0.30577200  0.51708000  0.23103400  1
  S  S1  1  0.23103400  0.30577200  0.51708000  1
  S  S2  1  0.51708000  0.23103400  0.30577200  1
  S  S3  1  0.69422800  0.48292000  0.76896600  1
  S  S4  1  0.76896600  0.69422800  0.48292000  1
  S  S5  1  0.48292000  0.76896600  0.69422800  1
  S  S6  1  0.21650200  0.25014000  0.97554700  1
  S  S7  1  0.97554700  0.21650200  0.25014000  1
  S  S8  1  0.25014000  0.97554700  0.21650200  1
  S  S9  1  0.78349800  0.74986000  0.02445300  1
  S  S10  1  0.02445300  0.78349800  0.74986000  1
  S  S11  1  0.74986000  0.02445300  0.78349800  1
  N  N0  1  0.28592700  0.54152700  0.93477300  1
  N  N1  1  0.93477300  0.28592700  0.54152700  1
  N  N2  1  0.54152700  0.93477300  0.28592700  1
  N  N3  1  0.71407300  0.45847300  0.06522700  1
  N  N4  1  0.06522700  0.71407300  0.45847300  1
  N  N5  1  0.45847300  0.06522700  0.71407300  1
loop_
_geom_bond_atom_site_label_1
_geom_bond_atom_site_label_2
_geom_bond_distance
_geom_bond_site_symmetry_2
Cr0 S6 2.404373 1_554
Cr0 S7 2.404373 1_455
Cr0 S8 2.404373 1_545
Cr0 S1 2.410740 1_555
Cr0 S0 2.410740 1_555
Cr0 S2 2.410740 1_555
Cr1 S9 2.404373 1_556
Cr1 S10 2.404373 1_655
Cr1 S11 2.404373 1_565
Cr1 S4 2.410740 1_555
Cr1 S3 2.410740 1_555
Cr1 S5 2.410740 1_555
H0 N0 1.016256 1_555
H1 N1 1.016256 1_555
H2 N2 1.016256 1_555
H3 N3 1.016256 1_555
H4 N4 1.016264 1_555
H5 N5 1.016256 1_555
H6 N0 1.016441 1_555
H7 N1 1.016441 1_555
H8 N2 1.016441 1_555
H9 N3 1.016441 1_555
H10 N4 1.016441 1_555
H11 N5 1.016441 1_555
C0 N0 1.333404 1_554
C0 S6 1.710698 1_554
C0 S0 1.714678 1_555
C1 N1 1.333404 1_455
C1 S7 1.710698 1_455
C1 S1 1.714678 1_555
C2 N2 1.333404 1_545
C2 S8 1.710698 1_545
C2 S2 1.714678 1_555
C3 N3 1.333404 1_556
C3 S9 1.710698 1_556
C3 S3 1.714678 1_555
C4 N4 1.333404 1_655
C4 S10 1.710698 1_655
C4 S4 1.714678 1_555
C5 N5 1.333404 1_565
C5 S11 1.710698 1_565
C5 S5 1.714678 1_555
