# generated using pymatgen
data_MgCu3(MoO3)4
_symmetry_space_group_name_H-M   'P 1'
_cell_length_a   6.65824727
_cell_length_b   6.62478986
_cell_length_c   6.63229533
_cell_angle_alpha   109.34690214
_cell_angle_beta   109.59737312
_cell_angle_gamma   109.61993118
_symmetry_Int_Tables_number   1
_chemical_formula_structural   MgCu3(MoO3)4
_chemical_formula_sum   'Mg1 Cu3 Mo4 O12'
_cell_volume   224.78234650
_cell_formula_units_Z   1
loop_
 _symmetry_equiv_pos_site_id
 _symmetry_equiv_pos_as_xyz
  1  'x, y, z'
loop_
 _atom_site_type_symbol
 _atom_site_label
 _atom_site_symmetry_multiplicity
 _atom_site_fract_x
 _atom_site_fract_y
 _atom_site_fract_z
 _atom_site_occupancy
  Mg  Mg0  1  0.00000000  0.00000000  0.00000000  1
  Cu  Cu0  1  0.49999900  0.50000100  0.00000100  1
  Cu  Cu1  1  0.99999900  0.49999900  0.49999900  1
  Cu  Cu2  1  0.50000100  0.00000100  0.50000000  1
  Mo  Mo0  1  0.00000000  0.00000000  0.50000000  1
  Mo  Mo1  1  0.00000000  0.50000000  0.00000000  1
  Mo  Mo2  1  0.50000000  0.50000000  0.50000000  1
  Mo  Mo3  1  0.50000000  0.00000000  0.00000000  1
  O  O0  1  0.82967200  0.30160200  0.13330200  1
  O  O1  1  0.17032800  0.69839800  0.86669900  1
  O  O2  1  0.83499200  0.70119100  0.52634800  1
  O  O3  1  0.30546200  0.47024300  0.17251700  1
  O  O4  1  0.47240400  0.17036500  0.30448000  1
  O  O5  1  0.13319500  0.82470000  0.29902100  1
  O  O6  1  0.69587200  0.86618200  0.16964600  1
  O  O7  1  0.52759600  0.82963500  0.69552000  1
  O  O8  1  0.16500800  0.29880800  0.47365100  1
  O  O9  1  0.69453800  0.52975700  0.82748300  1
  O  O10  1  0.86680400  0.17530100  0.70097900  1
  O  O11  1  0.30412800  0.13381800  0.83035500  1
loop_
_geom_bond_atom_site_label_1
_geom_bond_atom_site_label_2
_geom_bond_distance
_geom_bond_site_symmetry_2
Mg0 O9 2.640608 1_444
Mg0 O3 2.640608 1_555
Mg0 O1 2.661555 1_544
Mg0 O0 2.661556 1_455
Mg0 O4 2.662744 1_555
Mg0 O7 2.662744 1_444
Mg0 O8 2.664210 1_555
Mg0 O2 2.664217 1_444
Mg0 O5 2.665719 1_545
Mg0 O10 2.665726 1_454
Mg0 O11 2.671327 1_554
Mg0 O6 2.671333 1_445
Cu0 O6 1.983486 1_555
Cu0 O11 1.983495 1_554
Cu0 O3 1.999470 1_555
Cu0 O9 1.999491 1_554
Cu1 O0 1.989804 1_555
Cu1 O1 1.989820 1_655
Cu1 O2 1.992976 1_555
Cu1 O8 1.992980 1_655
Cu2 O4 1.984501 1_555
Cu2 O7 1.984511 1_545
Cu2 O10 1.993973 1_555
Cu2 O5 1.993989 1_545
Mo0 O8 2.013366 1_555
Mo0 O2 2.013368 1_445
Mo0 O6 2.053814 1_445
Mo0 O11 2.053818 1_555
Mo0 O5 2.090672 1_545
Mo0 O10 2.090681 1_455
Mo1 O10 2.014738 1_454
Mo1 O5 2.014743 1_555
Mo1 O1 2.058338 1_554
Mo1 O0 2.058344 1_455
Mo1 O3 2.083790 1_555
Mo1 O9 2.083790 1_454
Mo2 O9 2.022785 1_555
Mo2 O3 2.022785 1_555
Mo2 O7 2.044155 1_555
Mo2 O4 2.044155 1_555
Mo2 O8 2.090389 1_555
Mo2 O2 2.090391 1_555
Mo3 O0 2.043155 1_555
Mo3 O1 2.043156 1_544
Mo3 O11 2.050773 1_554
Mo3 O6 2.050776 1_545
Mo3 O4 2.064851 1_555
Mo3 O7 2.064851 1_544
