# generated using pymatgen
data_BaCaZr2O6
_symmetry_space_group_name_H-M   'P 1'
_cell_length_a   4.20933973
_cell_length_b   4.20933973
_cell_length_c   8.41186309
_cell_angle_alpha   90.00000000
_cell_angle_beta   90.00000000
_cell_angle_gamma   90.00000000
_symmetry_Int_Tables_number   1
_chemical_formula_structural   BaCaZr2O6
_chemical_formula_sum   'Ba1 Ca1 Zr2 O6'
_cell_volume   149.04594073
_cell_formula_units_Z   1
loop_
 _symmetry_equiv_pos_site_id
 _symmetry_equiv_pos_as_xyz
  1  'x, y, z'
loop_
 _atom_site_type_symbol
 _atom_site_label
 _atom_site_symmetry_multiplicity
 _atom_site_fract_x
 _atom_site_fract_y
 _atom_site_fract_z
 _atom_site_occupancy
  Ba  Ba0  1  0.50000000  0.50000000  -0.00000000  1
  Ca  Ca0  1  0.50000000  0.50000000  0.50000000  1
  Zr  Zr0  1  0.00000000  -0.00000000  0.74480438  1
  Zr  Zr1  1  -0.00000000  0.00000000  0.25519562  1
  O  O0  1  0.50000000  -0.00000000  0.74075632  1
  O  O1  1  0.50000000  0.00000000  0.25924368  1
  O  O2  1  0.00000000  0.00000000  0.50000000  1
  O  O3  1  0.00000000  0.00000000  -0.00000000  1
  O  O4  1  0.00000000  0.50000000  0.74075632  1
  O  O5  1  -0.00000000  0.50000000  0.25924368  1
loop_
_geom_bond_atom_site_label_1
_geom_bond_atom_site_label_2
_geom_bond_distance
_geom_bond_site_symmetry_2
Ba0 O3 2.976453 1_655
Ba0 O3 2.976453 1_555
Ba0 O3 2.976453 1_565
Ba0 O3 2.976453 1_665
Ba0 O0 3.030707 1_554
Ba0 O4 3.030707 1_554
Ba0 O5 3.030707 1_555
Ba0 O1 3.030707 1_555
Ba0 O4 3.030707 1_654
Ba0 O0 3.030707 1_564
Ba0 O5 3.030707 1_655
Ba0 O1 3.030707 1_565
Ca0 O1 2.920806 1_555
Ca0 O5 2.920806 1_555
Ca0 O5 2.920806 1_655
Ca0 O1 2.920806 1_565
Ca0 O0 2.920806 1_565
Ca0 O0 2.920806 1_555
Ca0 O4 2.920806 1_555
Ca0 O4 2.920806 1_655
Ca0 O2 2.976453 1_665
Ca0 O2 2.976453 1_565
Ca0 O2 2.976453 1_555
Ca0 O2 2.976453 1_655
O0 Zr0 2.104945 1_555
O0 Zr0 2.104945 1_655
O1 Zr1 2.104945 1_555
O1 Zr1 2.104945 1_655
O2 Zr1 2.059261 1_555
O2 Zr0 2.059261 1_555
O3 Zr0 2.146671 1_554
O3 Zr1 2.146671 1_555
O4 Zr0 2.104945 1_555
O4 Zr0 2.104945 1_565
O5 Zr1 2.104945 1_555
O5 Zr1 2.104945 1_565
