# generated using pymatgen
data_Sr3(ReN2)2
_symmetry_space_group_name_H-M   'P 1'
_cell_length_a   7.40098657
_cell_length_b   9.65208994
_cell_length_c   5.56486953
_cell_angle_alpha   90.00000150
_cell_angle_beta   96.93731325
_cell_angle_gamma   130.69871087
_symmetry_Int_Tables_number   1
_chemical_formula_structural   Sr3(ReN2)2
_chemical_formula_sum   'Sr6 Re4 N8'
_cell_volume   297.53497173
_cell_formula_units_Z   2
loop_
 _symmetry_equiv_pos_site_id
 _symmetry_equiv_pos_as_xyz
  1  'x, y, z'
loop_
 _atom_site_type_symbol
 _atom_site_label
 _atom_site_symmetry_multiplicity
 _atom_site_fract_x
 _atom_site_fract_y
 _atom_site_fract_z
 _atom_site_occupancy
  Sr  Sr0  1  0.24850300  0.00895500  0.03907500  1
  Sr  Sr1  1  0.75149700  0.76045200  0.46092500  1
  Sr  Sr2  1  0.75149700  0.99104500  0.96092500  1
  Sr  Sr3  1  0.24850300  0.23954800  0.53907500  1
  Sr  Sr4  1  0.00000000  0.61175600  0.75000000  1
  Sr  Sr5  1  0.00000000  0.38824400  0.25000000  1
  Re  Re0  1  0.60616600  0.16437100  0.58906200  1
  Re  Re1  1  0.39383400  0.55820500  0.91093800  1
  Re  Re2  1  0.39383400  0.83562900  0.41093800  1
  Re  Re3  1  0.60616600  0.44179500  0.08906200  1
  N  N0  1  0.23720600  0.93910400  0.52180400  1
  N  N1  1  0.76279400  0.70189800  0.97819600  1
  N  N2  1  0.76279400  0.06089600  0.47819600  1
  N  N3  1  0.23720600  0.29810200  0.02180400  1
  N  N4  1  0.64052400  0.29868700  0.88563400  1
  N  N5  1  0.35947600  0.65816400  0.61436600  1
  N  N6  1  0.35947600  0.70131300  0.11436600  1
  N  N7  1  0.64052400  0.34183600  0.38563400  1
loop_
_geom_bond_atom_site_label_1
_geom_bond_atom_site_label_2
_geom_bond_distance
_geom_bond_site_symmetry_2
N0 Re0 2.081857 1_565
N0 Re2 2.098701 1_555
N0 Sr1 2.762619 1_455
N0 Sr0 2.767422 1_565
N0 Sr4 2.825270 1_555
N0 Sr3 2.847380 1_565
N0 Sr0 2.935288 1_566
N1 Re1 2.081857 1_555
N1 Re3 2.098700 1_556
N1 Sr0 2.762619 1_666
N1 Sr1 2.767422 1_556
N1 Sr4 2.825270 1_655
N1 Sr2 2.847380 1_555
N1 Sr1 2.935288 1_555
N2 Re2 2.081857 1_545
N2 Re0 2.098701 1_555
N2 Sr3 2.762619 1_655
N2 Sr2 2.767422 1_545
N2 Sr5 2.825270 1_655
N2 Sr1 2.847380 1_545
N2 Sr2 2.935288 1_544
N3 Re3 2.081857 1_555
N3 Re1 2.098700 1_554
N3 Sr2 2.762619 1_444
N3 Sr3 2.767422 1_554
N3 Sr5 2.825270 1_555
N3 Sr0 2.847380 1_555
N3 Sr3 2.935288 1_555
N4 Re3 1.944678 1_556
N4 Re0 1.984402 1_555
N4 Sr4 2.603728 1_655
N4 Sr0 2.642790 1_556
N4 Sr5 2.763028 1_656
N4 Sr3 2.991892 1_555
N5 Re2 1.944671 1_555
N5 Re1 1.984408 1_555
N5 Sr4 2.603724 1_555
N5 Sr1 2.642794 1_555
N5 Sr5 2.763031 1_555
N5 Sr2 2.991888 1_555
N6 Re1 1.944678 1_554
N6 Re2 1.984402 1_555
N6 Sr5 2.603728 1_555
N6 Sr2 2.642790 1_554
N6 Sr4 2.763028 1_554
N6 Sr1 2.991892 1_555
N7 Re0 1.944671 1_555
N7 Re3 1.984408 1_555
N7 Sr5 2.603724 1_655
N7 Sr3 2.642794 1_555
N7 Sr4 2.763031 1_655
N7 Sr0 2.991888 1_555
