# generated using pymatgen
data_LiAlS2
_symmetry_space_group_name_H-M   'P 1'
_cell_length_a   6.20465477
_cell_length_b   6.49561276
_cell_length_c   7.85600906
_cell_angle_alpha   90.00000000
_cell_angle_beta   90.00000000
_cell_angle_gamma   90.00000000
_symmetry_Int_Tables_number   1
_chemical_formula_structural   LiAlS2
_chemical_formula_sum   'Li4 Al4 S8'
_cell_volume   316.62100571
_cell_formula_units_Z   4
loop_
 _symmetry_equiv_pos_site_id
 _symmetry_equiv_pos_as_xyz
  1  'x, y, z'
loop_
 _atom_site_type_symbol
 _atom_site_label
 _atom_site_symmetry_multiplicity
 _atom_site_fract_x
 _atom_site_fract_y
 _atom_site_fract_z
 _atom_site_occupancy
  Li  Li0  1  0.11781030  0.91663944  0.37770555  1
  Li  Li1  1  0.61781030  0.08336056  0.62229445  1
  Li  Li2  1  0.61781030  0.58336056  0.87770555  1
  Li  Li3  1  0.11781030  0.41663944  0.12229445  1
  Al  Al0  1  0.62137382  0.57375842  0.37387979  1
  Al  Al1  1  0.12137382  0.42624158  0.62612021  1
  Al  Al2  1  0.12137382  0.92624158  0.87387979  1
  Al  Al3  1  0.62137382  0.07375842  0.12612021  1
  S  S0  1  0.98548412  0.56443509  0.38646431  1
  S  S1  1  0.48548412  0.43556491  0.61353569  1
  S  S2  1  0.48548412  0.93556491  0.88646431  1
  S  S3  1  0.98548412  0.06443509  0.11353569  1
  S  S4  1  0.01033277  0.59524702  0.86128656  1
  S  S5  1  0.51033277  0.40475298  0.13871344  1
  S  S6  1  0.51033277  0.90475298  0.36128656  1
  S  S7  1  0.01033277  0.09524702  0.63871344  1
loop_
_geom_bond_atom_site_label_1
_geom_bond_atom_site_label_2
_geom_bond_distance
_geom_bond_site_symmetry_2
Li0 S3 2.429548 1_465
Li0 S0 2.431623 1_455
Li0 S6 2.440102 1_555
Li0 S7 2.448501 1_565
Li1 S2 2.429548 1_545
Li1 S1 2.431623 1_555
Li1 S7 2.440102 1_655
Li1 S6 2.448501 1_545
Li2 S1 2.429548 1_555
Li2 S2 2.431623 1_555
Li2 S4 2.440102 1_655
Li2 S5 2.448501 1_556
Li3 S0 2.429548 1_455
Li3 S3 2.431623 1_455
Li3 S5 2.440102 1_555
Li3 S4 2.448501 1_554
Al0 S1 2.249752 1_555
Al0 S5 2.256762 1_555
Al0 S6 2.259872 1_555
Al0 S0 2.262152 1_555
Al1 S0 2.249752 1_455
Al1 S4 2.256762 1_555
Al1 S7 2.259872 1_555
Al1 S1 2.262152 1_555
Al2 S3 2.249752 1_466
Al2 S7 2.256762 1_565
Al2 S4 2.259872 1_555
Al2 S2 2.262152 1_555
Al3 S2 2.249752 1_544
Al3 S6 2.256762 1_545
Al3 S5 2.259872 1_555
Al3 S3 2.262152 1_555
