# generated using pymatgen
data_Li3Mn2(PO4)3
_symmetry_space_group_name_H-M   'P 1'
_cell_length_a   8.54287316
_cell_length_b   12.50763504
_cell_length_c   8.64288025
_cell_angle_alpha   90.02659581
_cell_angle_beta   90.00638590
_cell_angle_gamma   92.05654160
_symmetry_Int_Tables_number   1
_chemical_formula_structural   Li3Mn2(PO4)3
_chemical_formula_sum   'Li12 Mn8 P12 O48'
_cell_volume   922.90667071
_cell_formula_units_Z   4
loop_
 _symmetry_equiv_pos_site_id
 _symmetry_equiv_pos_as_xyz
  1  'x, y, z'
loop_
 _atom_site_type_symbol
 _atom_site_label
 _atom_site_symmetry_multiplicity
 _atom_site_fract_x
 _atom_site_fract_y
 _atom_site_fract_z
 _atom_site_occupancy
  Li  Li0  1  0.08253900  0.69641500  0.09120300  1
  Li  Li1  1  0.08123200  0.75911500  0.69559000  1
  Li  Li2  1  0.21097800  0.17111500  0.78210300  1
  Li  Li3  1  0.28899000  0.32928500  0.28212500  1
  Li  Li4  1  0.41762400  0.73926500  0.19423100  1
  Li  Li5  1  0.41667100  0.80225900  0.59047900  1
  Li  Li6  1  0.58251500  0.19714900  0.40824400  1
  Li  Li7  1  0.58087900  0.26096700  0.80455600  1
  Li  Li8  1  0.71101700  0.67062900  0.71675400  1
  Li  Li9  1  0.78878900  0.82938200  0.21566700  1
  Li  Li10  1  0.91743500  0.23999700  0.30560900  1
  Li  Li11  1  0.91663300  0.30325900  0.90992600  1
  Mn  Mn0  1  0.24815600  0.90233000  0.03923900  1
  Mn  Mn1  1  0.25178400  0.59635800  0.53944600  1
  Mn  Mn2  1  0.25300700  0.39082900  0.95753500  1
  Mn  Mn3  1  0.24817300  0.11189400  0.45503000  1
  Mn  Mn4  1  0.75332500  0.89024200  0.54313600  1
  Mn  Mn5  1  0.74808300  0.61061100  0.04357800  1
  Mn  Mn6  1  0.74889400  0.40304500  0.46071800  1
  Mn  Mn7  1  0.74999300  0.09708800  0.95938000  1
  P  P0  1  0.96216300  0.50378500  0.75080900  1
  P  P1  1  0.89810900  0.13510000  0.61374100  1
  P  P2  1  0.90022700  0.84120900  0.90504200  1
  P  P3  1  0.60311000  0.36522700  0.11378300  1
  P  P4  1  0.60009300  0.65681100  0.40280700  1
  P  P5  1  0.53720200  0.99788200  0.24580700  1
  P  P6  1  0.46109800  0.00380800  0.74865100  1
  P  P7  1  0.39925900  0.34344800  0.59562400  1
  P  P8  1  0.03763300  0.49777100  0.25473000  1
  P  P9  1  0.10313300  0.86438700  0.38679500  1
  P  P10  1  0.39851800  0.63497800  0.88520000  1
  P  P11  1  0.10028100  0.15672300  0.09716500  1
  O  O0  1  0.17201800  0.44010200  0.17823700  1
  O  O1  1  0.91668500  0.14906900  0.10708700  1
  O  O2  1  0.92758500  0.40587400  0.32138100  1
  O  O3  1  0.92455700  0.83649800  0.40802500  1
  O  O4  1  0.89636800  0.42390800  0.62932300  1
  O  O5  1  0.87009500  0.01267000  0.61276800  1
  O  O6  1  0.86177700  0.17386000  0.78394000  1
  O  O7  1  0.85146000  0.80093300  0.74267400  1
  O  O8  1  0.05059300  0.43233500  0.86593900  1
  O  O9  1  0.08422500  0.85111100  0.89476300  1
  O  O10  1  0.07293300  0.59358800  0.68268200  1
  O  O11  1  0.07566500  0.16371400  0.59000300  1
  O  O12  1  0.10154200  0.57719100  0.37799700  1
  O  O13  1  0.13289400  0.98578500  0.39136700  1
  O  O14  1  0.14000600  0.82519400  0.21683600  1
  O  O15  1  0.13712500  0.24932000  0.97794200  1
  O  O16  1  0.15204700  0.19320200  0.26220300  1
  O  O17  1  0.94871300  0.56829900  0.13976600  1
  O  O18  1  0.17558000  0.05791000  0.03537200  1
  O  O19  1  0.19776900  0.80389700  0.50866100  1
  O  O20  1  0.30163100  0.69312300  0.00725300  1
  O  O21  1  0.32303600  0.44462800  0.53923300  1
  O  O22  1  0.32751800  0.06100500  0.66667300  1
  O  O23  1  0.36204900  0.67223500  0.71459500  1
  O  O24  1  0.35015100  0.30230500  0.75705900  1
  O  O25  1  0.37091400  0.51250000  0.88835100  1
  O  O26  1  0.36277300  0.25376600  0.47195200  1
  O  O27  1  0.39619200  0.92467900  0.87099000  1
  O  O28  1  0.42702900  0.90622500  0.17915700  1
  O  O29  1  0.41635700  0.64806100  0.39410200  1
  O  O30  1  0.42488000  0.33651300  0.09180300  1
  O  O31  1  0.44833500  0.06853500  0.36182900  1
  O  O32  1  0.55061500  0.93247500  0.63447800  1
  O  O33  1  0.57591000  0.66374000  0.90883300  1
  O  O34  1  0.58286300  0.35267100  0.60482300  1
  O  O35  1  0.57065700  0.09516700  0.81627200  1
  O  O36  1  0.59864400  0.07889300  0.12343900  1
  O  O37  1  0.63624200  0.74964100  0.52236400  1
  O  O38  1  0.63122800  0.48687400  0.11120500  1
  O  O39  1  0.65105600  0.69367400  0.23816200  1
  O  O40  1  0.64002300  0.32567400  0.28342300  1
  O  O41  1  0.67185500  0.94076800  0.32208800  1
  O  O42  1  0.67634800  0.55844000  0.46496000  1
  O  O43  1  0.69808500  0.30635200  0.99094100  1
  O  O44  1  0.80121300  0.19278000  0.49174600  1
  O  O45  1  0.82392800  0.94117400  0.96291400  1
  O  O46  1  0.82759300  0.56067500  0.83227800  1
  O  O47  1  0.86569700  0.75060400  0.02741400  1
loop_
_geom_bond_atom_site_label_1
_geom_bond_atom_site_label_2
_geom_bond_distance
_geom_bond_site_symmetry_2
Li0 O17 1.979957 1_455
Li0 O14 1.988962 1_555
Li0 O20 2.009259 1_555
Li0 O47 2.070061 1_455
Li1 O19 1.968814 1_555
Li1 O9 2.069785 1_555
Li1 O10 2.071974 1_555
Li1 O7 2.089467 1_455
Li2 O22 1.995137 1_555
Li2 O24 2.003314 1_555
Li2 O11 2.023154 1_555
Li2 O15 2.064651 1_555
Li3 O0 1.956089 1_555
Li3 O26 2.006285 1_555
Li3 O30 2.013621 1_555
Li3 O16 2.037674 1_555
Li4 O20 1.970854 1_555
Li4 O29 2.070384 1_555
Li4 O28 2.091060 1_555
Li4 O39 2.127847 1_555
Li5 O23 1.990117 1_555
Li5 O32 1.993031 1_555
Li5 O19 2.000009 1_555
Li5 O37 2.094445 1_555
Li6 O31 1.982328 1_555
Li6 O40 1.983542 1_555
Li6 O44 2.005362 1_555
Li6 O26 2.103310 1_555
Li7 O43 1.969212 1_555
Li7 O34 2.072764 1_555
Li7 O35 2.074990 1_555
Li7 O24 2.096227 1_555
Li8 O46 1.994851 1_555
Li8 O7 2.001291 1_555
Li8 O33 2.022131 1_555
Li8 O37 2.062526 1_555
Li9 O41 1.970722 1_555
Li9 O47 2.023620 1_555
Li9 O3 2.027114 1_555
Li9 O39 2.039707 1_555
Li10 O44 1.970236 1_555
Li10 O1 2.057940 1_555
Li10 O2 2.077841 1_555
Li10 O16 2.141151 1_655
Li11 O8 1.982084 1_655
Li11 O6 1.992123 1_555
Li11 O43 1.995751 1_555
Li11 O15 2.107162 1_655
Mn0 O27 1.940997 1_554
Mn0 O28 1.947823 1_555
Mn0 O9 1.966047 1_554
Mn0 O14 2.019459 1_555
Mn0 O18 2.063698 1_565
Mn1 O12 1.905031 1_555
Mn1 O10 1.965940 1_555
Mn1 O29 1.977052 1_555
Mn1 O23 2.003437 1_555
Mn1 O21 2.013704 1_555
Mn2 O25 1.891828 1_555
Mn2 O8 1.987675 1_555
Mn2 O15 2.004597 1_555
Mn2 O30 2.008986 1_556
Mn2 O0 2.127645 1_556
Mn2 O24 2.231898 1_555
Mn3 O13 1.910014 1_545
Mn3 O31 1.983279 1_555
Mn3 O26 2.000922 1_555
Mn3 O11 2.005246 1_555
Mn3 O22 2.059698 1_555
Mn3 O16 2.132436 1_555
Mn4 O5 1.895127 1_565
Mn4 O32 1.991663 1_555
Mn4 O37 1.999682 1_555
Mn4 O3 2.006378 1_555
Mn4 O41 2.136854 1_555
Mn4 O7 2.234612 1_555
Mn5 O38 1.903553 1_555
Mn5 O47 1.992232 1_555
Mn5 O17 1.993501 1_555
Mn5 O33 2.007918 1_554
Mn5 O46 2.053362 1_554
Mn5 O39 2.157602 1_555
Mn6 O4 1.937651 1_555
Mn6 O2 1.943812 1_555
Mn6 O34 1.974080 1_555
Mn6 O40 2.020718 1_555
Mn6 O42 2.061432 1_555
Mn7 O36 1.927090 1_556
Mn7 O35 1.968370 1_555
Mn7 O1 2.003168 1_556
Mn7 O6 2.017187 1_555
Mn7 O45 2.071540 1_545
O0 P8 1.527906 1_555
O1 P11 1.570279 1_655
O2 P8 1.568442 1_655
O3 P9 1.563517 1_655
O4 P0 1.541151 1_555
O5 P1 1.541408 1_555
O6 P1 1.582868 1_555
O7 P2 1.542989 1_555
O8 P0 1.551964 1_455
O9 P2 1.574827 1_455
O10 P0 1.558286 1_455
O11 P1 1.559537 1_455
O12 P8 1.542672 1_555
O13 P9 1.531007 1_555
O14 P9 1.583610 1_555
O15 P11 1.573922 1_556
O16 P11 1.556646 1_555
O17 P8 1.546360 1_655
O18 P11 1.510974 1_555
O19 P9 1.542683 1_555
O20 P10 1.539303 1_554
O21 P7 1.524056 1_555
O22 P6 1.541080 1_555
O23 P10 1.580942 1_555
O24 P7 1.540415 1_555
O25 P10 1.541821 1_555
O26 P7 1.572137 1_555
O27 P6 1.538415 1_565
O28 P5 1.566449 1_555
O29 P4 1.571313 1_555
O30 P3 1.563329 1_555
O31 P5 1.552519 1_545
O32 P6 1.550133 1_565
O33 P10 1.558340 1_555
O34 P7 1.570610 1_555
O35 P6 1.563905 1_555
O36 P5 1.543920 1_545
O37 P4 1.576169 1_555
O38 P3 1.531995 1_555
O39 P4 1.553519 1_555
O40 P3 1.582918 1_555
O41 P5 1.525602 1_555
O42 P4 1.511572 1_555
O43 P3 1.539527 1_556
O44 P1 1.536485 1_555
O45 P2 1.515368 1_555
O46 P0 1.543422 1_555
O47 P2 1.570696 1_554
