# generated using pymatgen
data_Pr5S2N3Cl2
_symmetry_space_group_name_H-M   'P 1'
_cell_length_a   8.23598693
_cell_length_b   8.23598693
_cell_length_c   17.09847179
_cell_angle_alpha   78.43679883
_cell_angle_beta   78.43679883
_cell_angle_gamma   28.69374659
_symmetry_Int_Tables_number   1
_chemical_formula_structural   Pr5S2N3Cl2
_chemical_formula_sum   'Pr10 S4 N6 Cl4'
_cell_volume   544.80979631
_cell_formula_units_Z   2
loop_
 _symmetry_equiv_pos_site_id
 _symmetry_equiv_pos_as_xyz
  1  'x, y, z'
loop_
 _atom_site_type_symbol
 _atom_site_label
 _atom_site_symmetry_multiplicity
 _atom_site_fract_x
 _atom_site_fract_y
 _atom_site_fract_z
 _atom_site_occupancy
  Pr  Pr0  1  0.23562600  0.23562600  0.20562300  1
  Pr  Pr1  1  0.76437400  0.76437400  0.79437700  1
  Pr  Pr2  1  0.48239400  0.48239400  0.16404600  1
  Pr  Pr3  1  0.51760600  0.51760600  0.83595400  1
  Pr  Pr4  1  0.42566800  0.42566800  0.59486600  1
  Pr  Pr5  1  0.57433200  0.57433200  0.40513400  1
  Pr  Pr6  1  0.14130000  0.14130000  0.57467300  1
  Pr  Pr7  1  0.85870000  0.85870000  0.42532700  1
  Pr  Pr8  1  0.11370800  0.11370800  0.96870200  1
  Pr  Pr9  1  0.88629200  0.88629200  0.03129800  1
  S  S0  1  0.04206700  0.04206700  0.29068000  1
  S  S1  1  0.95793300  0.95793300  0.70932000  1
  S  S2  1  0.21242200  0.21242200  0.40496500  1
  S  S3  1  0.78757800  0.78757800  0.59503500  1
  N  N0  1  0.00607800  0.00607800  0.08983400  1
  N  N1  1  0.99392200  0.99392200  0.91016600  1
  N  N2  1  0.35193900  0.35193900  0.11006200  1
  N  N3  1  0.64806100  0.64806100  0.88993800  1
  N  N4  1  0.42519700  0.42519700  0.45446400  1
  N  N5  1  0.57480300  0.57480300  0.54553600  1
  Cl  Cl0  1  0.16564500  0.16564500  0.73959400  1
  Cl  Cl1  1  0.83435500  0.83435500  0.26040600  1
  Cl  Cl2  1  0.31952000  0.31952000  0.89518100  1
  Cl  Cl3  1  0.68048000  0.68048000  0.10481900  1
loop_
_geom_bond_atom_site_label_1
_geom_bond_atom_site_label_2
_geom_bond_distance
_geom_bond_site_symmetry_2
Pr0 S0 3.130064 1_555
Pr0 S2 3.351467 1_555
Pr1 S1 3.130064 1_555
Pr1 S3 3.351467 1_555
Pr2 S0 3.257800 1_655
Pr2 S0 3.257800 1_565
Pr3 S1 3.257800 1_455
Pr3 S1 3.257800 1_545
Pr4 S1 2.945638 1_545
Pr4 S1 2.945638 1_455
Pr4 S3 3.003076 1_455
Pr4 S3 3.003076 1_545
Pr5 S0 2.945638 1_655
Pr5 S0 2.945638 1_565
Pr5 S2 3.003076 1_655
Pr5 S2 3.003076 1_565
Pr6 S2 2.888857 1_555
Pr6 S3 3.173576 1_545
Pr6 S3 3.173576 1_455
Pr6 S1 3.327973 1_445
Pr7 S3 2.888857 1_555
Pr7 S2 3.173576 1_565
Pr7 S2 3.173576 1_655
Pr7 S0 3.327973 1_665
N0 Pr9 2.334007 1_445
N0 Pr2 2.391533 1_545
N0 Pr2 2.391533 1_455
N0 Pr8 2.401623 1_554
N1 Pr8 2.334007 1_665
N1 Pr3 2.391533 1_565
N1 Pr3 2.391533 1_655
N1 Pr9 2.401623 1_556
N2 Pr0 2.204560 1_555
N2 Pr9 2.444105 1_455
N2 Pr9 2.444105 1_545
N2 Pr2 2.445654 1_555
N3 Pr1 2.204560 1_555
N3 Pr8 2.444105 1_565
N3 Pr8 2.444105 1_655
N3 Pr3 2.445654 1_555
N4 Pr5 2.354754 1_555
N4 Pr7 2.399576 1_455
N4 Pr7 2.399576 1_545
N4 Pr4 2.402226 1_555
N5 Pr4 2.354754 1_555
N5 Pr6 2.399576 1_565
N5 Pr6 2.399576 1_655
N5 Pr5 2.402226 1_555
Cl0 Pr1 2.852254 1_455
Cl0 Pr1 2.852254 1_545
Cl0 Pr6 2.925080 1_555
Cl0 Pr3 3.293932 1_455
Cl0 Pr3 3.293932 1_545
Cl1 Pr0 2.852254 1_565
Cl1 Pr0 2.852254 1_655
Cl1 Pr7 2.925080 1_555
Cl1 Pr2 3.293932 1_565
Cl1 Pr2 3.293932 1_655
Cl2 Pr1 2.921952 1_545
Cl2 Pr1 2.921952 1_455
Cl2 Pr3 3.113435 1_555
Cl2 Pr8 3.264825 1_555
Cl2 Pr9 3.426852 1_546
Cl2 Pr9 3.426852 1_456
Cl3 Pr0 2.921952 1_655
Cl3 Pr0 2.921952 1_565
Cl3 Pr2 3.113435 1_555
Cl3 Pr9 3.264825 1_555
Cl3 Pr8 3.426852 1_654
Cl3 Pr8 3.426852 1_564
