# generated using pymatgen
data_CeAl4Cu2Si
_symmetry_space_group_name_H-M   'P 1'
_cell_length_a   4.22464200
_cell_length_b   4.22358300
_cell_length_c   7.83721500
_cell_angle_alpha   90.00000000
_cell_angle_beta   90.00000000
_cell_angle_gamma   90.00000000
_symmetry_Int_Tables_number   1
_chemical_formula_structural   CeAl4Cu2Si
_chemical_formula_sum   'Ce1 Al4 Cu2 Si1'
_cell_volume   139.84041577
_cell_formula_units_Z   1
loop_
 _symmetry_equiv_pos_site_id
 _symmetry_equiv_pos_as_xyz
  1  'x, y, z'
loop_
 _atom_site_type_symbol
 _atom_site_label
 _atom_site_symmetry_multiplicity
 _atom_site_fract_x
 _atom_site_fract_y
 _atom_site_fract_z
 _atom_site_occupancy
  Ce  Ce0  1  0.00000000  0.00000000  0.99893100  1
  Al  Al0  1  0.00000000  0.50000000  0.66470600  1
  Al  Al1  1  0.50000000  0.00000000  0.32257300  1
  Al  Al2  1  0.00000000  0.50000000  0.31859300  1
  Al  Al3  1  0.50000000  0.50000000  0.86132600  1
  Cu  Cu0  1  0.00000000  0.00000000  0.50474400  1
  Cu  Cu1  1  0.50000000  0.50000000  0.15888300  1
  Si  Si0  1  0.50000000  0.00000000  0.67024300  1
loop_
_geom_bond_atom_site_label_1
_geom_bond_atom_site_label_2
_geom_bond_distance
_geom_bond_site_symmetry_2
Ce0 Cu1 3.239293 1_556
Ce0 Cu1 3.239293 1_446
Ce0 Cu1 3.239293 1_546
Ce0 Cu1 3.239293 1_456
Ce0 Si0 3.331316 1_455
Ce0 Si0 3.331316 1_555
Al0 Cu0 2.455874 1_565
Al0 Cu0 2.455874 1_555
Al0 Al3 2.614658 1_455
Al0 Al3 2.614658 1_555
Al0 Si0 2.987214 1_555
Al0 Si0 2.987214 1_455
Al0 Si0 2.987214 1_565
Al0 Si0 2.987214 1_465
Al0 Ce0 3.364652 1_565
Al0 Ce0 3.364652 1_555
Al1 Cu1 2.470916 1_545
Al1 Cu1 2.470916 1_555
Al1 Cu0 2.549562 1_555
Al1 Cu0 2.549562 1_655
Al1 Si0 2.724765 1_555
Al1 Ce0 3.300831 1_654
Al1 Ce0 3.300831 1_554
Al2 Cu1 2.455322 1_555
Al2 Cu1 2.455322 1_455
Al2 Cu0 2.566723 1_555
Al2 Cu0 2.566723 1_565
Al2 Ce0 3.276582 1_564
Al2 Ce0 3.276582 1_554
Al3 Cu1 2.332018 1_556
Al3 Si0 2.588889 1_565
Al3 Si0 2.588889 1_555
Al3 Ce0 3.175625 1_665
Al3 Ce0 3.175625 1_565
Al3 Ce0 3.175625 1_555
Al3 Ce0 3.175625 1_655
Cu0 Si0 2.478758 1_555
Cu0 Si0 2.478758 1_455
