# generated using pymatgen
data_MgAsH16NO10
_symmetry_space_group_name_H-M   'P 1'
_cell_length_a   6.17819000
_cell_length_b   7.14157600
_cell_length_c   13.47227960
_cell_angle_alpha   58.64512829
_cell_angle_beta   90.00000000
_cell_angle_gamma   90.00000000
_symmetry_Int_Tables_number   1
_chemical_formula_structural   MgAsH16NO10
_chemical_formula_sum   'Mg2 As2 H32 N2 O20'
_cell_volume   507.61494008
_cell_formula_units_Z   2
loop_
 _symmetry_equiv_pos_site_id
 _symmetry_equiv_pos_as_xyz
  1  'x, y, z'
loop_
 _atom_site_type_symbol
 _atom_site_label
 _atom_site_symmetry_multiplicity
 _atom_site_fract_x
 _atom_site_fract_y
 _atom_site_fract_z
 _atom_site_occupancy
  Mg  Mg0  1  0.62491700  0.62345900  0.87531000  1
  Mg  Mg1  1  0.37508300  0.62345900  0.37531000  1
  As  As0  1  0.00480000  0.99721200  0.50378100  1
  As  As1  1  0.99520000  0.99721200  0.00378100  1
  H  H0  1  0.60562700  0.79895100  0.01711600  1
  H  H1  1  0.60874000  0.16612700  0.01721400  1
  H  H2  1  0.39126000  0.16612700  0.51721400  1
  H  H3  1  0.39437300  0.79895100  0.51711600  1
  H  H4  1  0.77108300  0.21333700  0.27827000  1
  H  H5  1  0.22891700  0.21333700  0.77827000  1
  H  H6  1  0.83034800  0.01483500  0.80381700  1
  H  H7  1  0.82408500  0.37839000  0.80089200  1
  H  H8  1  0.17591500  0.37839000  0.30089200  1
  H  H9  1  0.16965200  0.01483500  0.30381700  1
  H  H10  1  0.36404200  0.73208500  0.00595300  1
  H  H11  1  0.36892100  0.25700100  0.00859000  1
  H  H12  1  0.63107900  0.25700100  0.50859000  1
  H  H13  1  0.63595800  0.73208500  0.50595300  1
  H  H14  1  0.79000500  0.01760000  0.68620400  1
  H  H15  1  0.78962000  0.61047500  0.68482200  1
  H  H16  1  0.21038000  0.61047500  0.18482200  1
  H  H17  1  0.20999500  0.01760000  0.18620400  1
  H  H18  1  0.28968300  0.79327300  0.70575800  1
  H  H19  1  0.71031700  0.79327300  0.20575800  1
  H  H20  1  0.00106000  0.61816300  0.99486600  1
  H  H21  1  0.00331400  0.39248300  0.99448300  1
  H  H22  1  0.99668600  0.39248300  0.49448300  1
  H  H23  1  0.99894000  0.61816300  0.49486600  1
  H  H24  1  0.18115600  0.66583900  0.83331900  1
  H  H25  1  0.81884400  0.66583900  0.33331900  1
  H  H26  1  0.53741700  0.37043600  0.23924000  1
  H  H27  1  0.52341200  0.11609300  0.26275700  1
  H  H28  1  0.47658800  0.11609300  0.76275700  1
  H  H29  1  0.46258300  0.37043600  0.73924000  1
  H  H30  1  0.64523600  0.31076600  0.14457100  1
  H  H31  1  0.35476400  0.31076600  0.64457100  1
  N  N0  1  0.62282600  0.25299800  0.23200800  1
  N  N1  1  0.37717400  0.25299800  0.73200800  1
  O  O0  1  0.32012100  0.70718900  0.79171600  1
  O  O1  1  0.67987900  0.70718900  0.29171600  1
  O  O2  1  0.01696400  0.14582700  0.35384100  1
  O  O3  1  0.98303600  0.14582700  0.85384100  1
  O  O4  1  0.26395200  0.94190500  0.56033300  1
  O  O5  1  0.73604800  0.94190500  0.06033300  1
  O  O6  1  0.87564700  0.14921000  0.55210400  1
  O  O7  1  0.87837300  0.74944500  0.55144200  1
  O  O8  1  0.12162700  0.74944500  0.05144200  1
  O  O9  1  0.12435300  0.14921000  0.05210400  1
  O  O10  1  0.94348500  0.54642500  0.95245500  1
  O  O11  1  0.05651500  0.54642500  0.45245500  1
  O  O12  1  0.51891200  0.71346500  0.99040500  1
  O  O13  1  0.52457600  0.30453300  0.99535700  1
  O  O14  1  0.47542400  0.30453300  0.49535700  1
  O  O15  1  0.48108800  0.71346500  0.49040500  1
  O  O16  1  0.73257600  0.95254800  0.76815100  1
  O  O17  1  0.72657500  0.51012900  0.76502500  1
  O  O18  1  0.27342500  0.51012900  0.26502500  1
  O  O19  1  0.26742400  0.95254800  0.26815100  1
loop_
_geom_bond_atom_site_label_1
_geom_bond_atom_site_label_2
_geom_bond_distance
_geom_bond_site_symmetry_2
Mg0 O12 2.069701 1_555
Mg0 O13 2.086659 1_555
Mg0 O0 2.114495 1_555
Mg0 O17 2.123331 1_555
Mg0 O16 2.125832 1_555
Mg0 O10 2.159055 1_555
Mg1 O15 2.069701 1_555
Mg1 O14 2.086659 1_555
Mg1 O1 2.114495 1_555
Mg1 O18 2.123331 1_555
Mg1 O19 2.125832 1_555
Mg1 O11 2.159055 1_555
As0 O7 1.723647 1_455
As0 O6 1.724609 1_465
As0 O2 1.726696 1_565
As0 O4 1.728235 1_555
As1 O8 1.723647 1_655
As1 O9 1.724609 1_665
As1 O3 1.726696 1_564
As1 O5 1.728235 1_555
H0 O12 1.008893 1_554
H0 O5 1.627609 1_555
H1 O13 1.015480 1_554
H1 O5 1.597561 1_545
H2 O14 1.015480 1_555
H2 O4 1.597561 1_545
H3 O15 1.008893 1_555
H3 O4 1.627609 1_555
H4 N0 1.060162 1_555
H4 O2 1.750954 1_655
H5 N1 1.060162 1_555
H5 O3 1.750954 1_455
H6 O16 1.008003 1_545
H6 O3 1.695676 1_555
H7 O17 1.004223 1_555
H7 O3 1.731693 1_555
H8 O18 1.004223 1_555
H8 O2 1.731693 1_555
H9 O19 1.008003 1_545
H9 O2 1.695676 1_555
H10 O12 1.003017 1_554
H10 O8 1.647142 1_555
H11 O13 1.004408 1_554
H11 O9 1.658223 1_555
H12 O14 1.004408 1_555
H12 O6 1.658223 1_555
H13 O15 1.003017 1_555
H13 O7 1.647142 1_555
H14 O16 1.013314 1_545
H14 O6 1.631004 1_555
H15 O17 1.013392 1_555
H15 O7 1.630549 1_555
H16 O18 1.013392 1_555
H16 O8 1.630549 1_555
H17 O19 1.013314 1_545
H17 O9 1.631004 1_555
H18 O0 1.006724 1_555
H18 O4 1.681146 1_555
H19 O1 1.006724 1_555
H19 O5 1.681146 1_555
H20 O10 1.010002 1_455
H20 O8 1.660878 1_556
H21 O10 1.008997 1_455
H21 O9 1.666338 1_556
H22 O11 1.008997 1_655
H22 O6 1.666338 1_555
H23 O11 1.010002 1_655
H23 O7 1.660878 1_555
H24 O0 0.982963 1_555
H25 O1 0.982963 1_555
H26 N0 1.037485 1_555
H27 N0 1.040807 1_555
H28 N1 1.040807 1_555
H29 N1 1.037485 1_555
H30 N0 1.035013 1_555
H31 N1 1.035013 1_555
