# generated using pymatgen
data_BaCuRu5O11
_symmetry_space_group_name_H-M   'P 1'
_cell_length_a   5.93724972
_cell_length_b   5.93724972
_cell_length_c   14.05172000
_cell_angle_alpha   90.00000000
_cell_angle_beta   90.00000000
_cell_angle_gamma   119.99999683
_symmetry_Int_Tables_number   1
_chemical_formula_structural   BaCuRu5O11
_chemical_formula_sum   'Ba2 Cu2 Ru10 O22'
_cell_volume   428.97379558
_cell_formula_units_Z   2
loop_
 _symmetry_equiv_pos_site_id
 _symmetry_equiv_pos_as_xyz
  1  'x, y, z'
loop_
 _atom_site_type_symbol
 _atom_site_label
 _atom_site_symmetry_multiplicity
 _atom_site_fract_x
 _atom_site_fract_y
 _atom_site_fract_z
 _atom_site_occupancy
  Ba  Ba0  1  0.33333300  0.66666700  0.75000000  1
  Ba  Ba1  1  0.66666700  0.33333300  0.25000000  1
  Cu  Cu0  1  0.33333300  0.66666700  0.25000000  1
  Cu  Cu1  1  0.66666700  0.33333300  0.75000000  1
  Ru  Ru0  1  0.00000000  0.00000000  0.15301400  1
  Ru  Ru1  1  0.00000000  0.00000000  0.84698600  1
  Ru  Ru2  1  0.00000000  0.00000000  0.65301400  1
  Ru  Ru3  1  0.00000000  0.00000000  0.34698600  1
  Ru  Ru4  1  0.50000000  0.00000000  0.00000000  1
  Ru  Ru5  1  0.00000000  0.50000000  0.00000000  1
  Ru  Ru6  1  0.50000000  0.00000000  0.50000000  1
  Ru  Ru7  1  0.50000000  0.50000000  0.00000000  1
  Ru  Ru8  1  0.00000000  0.50000000  0.50000000  1
  Ru  Ru9  1  0.50000000  0.50000000  0.50000000  1
  O  O0  1  0.14720100  0.29440300  0.25000000  1
  O  O1  1  0.85279900  0.70559700  0.75000000  1
  O  O2  1  0.70559700  0.85279900  0.25000000  1
  O  O3  1  0.29440300  0.14720100  0.75000000  1
  O  O4  1  0.14720100  0.85279900  0.25000000  1
  O  O5  1  0.85279900  0.14720100  0.75000000  1
  O  O6  1  0.33333300  0.66666700  0.08244800  1
  O  O7  1  0.66666700  0.33333300  0.91755200  1
  O  O8  1  0.66666700  0.33333300  0.58244800  1
  O  O9  1  0.33333300  0.66666700  0.41755200  1
  O  O10  1  0.16937800  0.33875700  0.58028700  1
  O  O11  1  0.83062200  0.66124300  0.41971300  1
  O  O12  1  0.66124300  0.83062200  0.58028700  1
  O  O13  1  0.83062200  0.66124300  0.08028700  1
  O  O14  1  0.33875700  0.16937800  0.41971300  1
  O  O15  1  0.16937800  0.33875700  0.91971300  1
  O  O16  1  0.16937800  0.83062200  0.58028700  1
  O  O17  1  0.33875700  0.16937800  0.08028700  1
  O  O18  1  0.83062200  0.16937800  0.41971300  1
  O  O19  1  0.66124300  0.83062200  0.91971300  1
  O  O20  1  0.83062200  0.16937800  0.08028700  1
  O  O21  1  0.16937800  0.83062200  0.91971300  1
loop_
_geom_bond_atom_site_label_1
_geom_bond_atom_site_label_2
_geom_bond_distance
_geom_bond_site_symmetry_2
Ba0 O16 2.920590 1_555
Ba0 O21 2.920590 1_555
Ba0 O10 2.920590 1_555
Ba0 O12 2.920590 1_555
Ba0 O15 2.920590 1_555
Ba0 O19 2.920590 1_555
Ba0 O3 2.975360 1_565
Ba0 O1 2.975360 1_455
Ba0 O5 2.975367 1_565
Ba0 O5 2.975367 1_455
Ba0 O3 2.975372 1_555
Ba0 O1 2.975372 1_555
Ba1 O20 2.920590 1_555
Ba1 O18 2.920590 1_555
Ba1 O13 2.920590 1_555
Ba1 O17 2.920590 1_555
Ba1 O14 2.920590 1_555
Ba1 O11 2.920590 1_555
Ba1 O0 2.975360 1_655
Ba1 O2 2.975360 1_545
Ba1 O4 2.975367 1_655
Ba1 O4 2.975367 1_545
Ba1 O2 2.975372 1_555
Ba1 O0 2.975372 1_555
Cu0 O4 1.914110 1_555
Cu0 O0 1.914110 1_555
Cu0 O2 1.914110 1_555
Cu0 O9 2.354394 1_555
Cu0 O6 2.354394 1_555
Cu1 O5 1.914110 1_555
Cu1 O3 1.914110 1_555
Cu1 O1 1.914110 1_555
Cu1 O7 2.354394 1_555
Cu1 O8 2.354394 1_555
O0 Ru0 2.036851 1_555
O0 Ru3 2.036851 1_555
O1 Ru2 2.036851 1_665
O1 Ru1 2.036851 1_665
O2 Ru0 2.036851 1_665
O2 Ru3 2.036851 1_665
O3 Ru1 2.036851 1_555
O3 Ru2 2.036851 1_555
O4 Ru3 2.036847 1_565
O4 Ru0 2.036847 1_565
O5 Ru2 2.036847 1_655
O5 Ru1 2.036847 1_655
O6 Ru4 2.068763 1_565
O6 Ru5 2.068763 1_555
O6 Ru7 2.068767 1_555
O7 Ru4 2.068763 1_556
O7 Ru5 2.068763 1_656
O7 Ru7 2.068767 1_556
O8 Ru8 2.068763 1_655
O8 Ru6 2.068763 1_555
O8 Ru9 2.068767 1_555
O9 Ru8 2.068763 1_555
O9 Ru6 2.068763 1_565
O9 Ru9 2.068767 1_555
O10 Ru2 2.019483 1_555
O10 Ru8 2.040421 1_555
O10 Ru9 2.040425 1_555
O11 Ru3 2.019483 1_665
O11 Ru8 2.040421 1_655
O11 Ru9 2.040425 1_555
O12 Ru2 2.019483 1_665
O12 Ru6 2.040421 1_565
O12 Ru9 2.040425 1_555
O13 Ru0 2.019483 1_665
O13 Ru5 2.040421 1_655
O13 Ru7 2.040425 1_555
O14 Ru3 2.019483 1_555
O14 Ru6 2.040421 1_555
O14 Ru9 2.040425 1_555
O15 Ru1 2.019483 1_555
O15 Ru5 2.040421 1_556
O15 Ru7 2.040425 1_556
O16 Ru2 2.019478 1_565
O16 Ru6 2.040425 1_565
O16 Ru8 2.040425 1_555
O17 Ru0 2.019483 1_555
O17 Ru4 2.040421 1_555
O17 Ru7 2.040425 1_555
O18 Ru3 2.019478 1_655
O18 Ru8 2.040425 1_655
O18 Ru6 2.040425 1_555
O19 Ru1 2.019483 1_665
O19 Ru4 2.040421 1_566
O19 Ru7 2.040425 1_556
O20 Ru0 2.019478 1_655
O20 Ru5 2.040425 1_655
O20 Ru4 2.040425 1_555
O21 Ru1 2.019478 1_565
O21 Ru4 2.040425 1_566
O21 Ru5 2.040425 1_556
