# generated using pymatgen
data_Nd2NiRuO6
_symmetry_space_group_name_H-M   'P 1'
_cell_length_a   5.77317400
_cell_length_b   5.44787000
_cell_length_c   9.52722491
_cell_angle_alpha   55.35910565
_cell_angle_beta   90.00000000
_cell_angle_gamma   90.00000000
_symmetry_Int_Tables_number   1
_chemical_formula_structural   Nd2NiRuO6
_chemical_formula_sum   'Nd4 Ni2 Ru2 O12'
_cell_volume   246.52762470
_cell_formula_units_Z   2
loop_
 _symmetry_equiv_pos_site_id
 _symmetry_equiv_pos_as_xyz
  1  'x, y, z'
loop_
 _atom_site_type_symbol
 _atom_site_label
 _atom_site_symmetry_multiplicity
 _atom_site_fract_x
 _atom_site_fract_y
 _atom_site_fract_z
 _atom_site_occupancy
  Nd  Nd0  1  0.43283900  0.23257000  0.74998600  1
  Nd  Nd1  1  0.56716100  0.76743000  0.25001400  1
  Nd  Nd2  1  0.93283900  0.76743000  0.75001400  1
  Nd  Nd3  1  0.06716100  0.23257000  0.24998600  1
  Ni  Ni0  1  0.00000000  0.50000000  0.50000000  1
  Ni  Ni1  1  0.50000000  0.50000000  0.00000000  1
  Ru  Ru0  1  0.00000000  0.00000000  0.00000000  1
  Ru  Ru1  1  0.50000000  0.00000000  0.50000000  1
  O  O0  1  0.03072100  0.34834500  0.75173900  1
  O  O1  1  0.96927900  0.65165500  0.24826100  1
  O  O2  1  0.53072100  0.65165500  0.74826100  1
  O  O3  1  0.46927900  0.34834500  0.25173900  1
  O  O4  1  0.70510300  0.86217000  0.94498700  1
  O  O5  1  0.29489700  0.13783000  0.05501300  1
  O  O6  1  0.20510300  0.13783000  0.55501300  1
  O  O7  1  0.79489700  0.86217000  0.44498700  1
  O  O8  1  0.19415700  0.74884200  0.95137100  1
  O  O9  1  0.80584300  0.25115800  0.04862900  1
  O  O10  1  0.69415700  0.25115800  0.54862900  1
  O  O11  1  0.30584300  0.74884200  0.45137100  1
loop_
_geom_bond_atom_site_label_1
_geom_bond_atom_site_label_2
_geom_bond_distance
_geom_bond_site_symmetry_2
Nd0 O2 2.342985 1_555
Nd0 O4 2.394172 1_545
Nd0 O10 2.396985 1_555
Nd0 O0 2.408199 1_555
Nd0 O6 2.556450 1_555
Nd0 O8 2.603172 1_545
Nd0 O11 2.728585 1_555
Nd0 O5 2.764161 1_556
Nd1 O3 2.342985 1_555
Nd1 O5 2.394172 1_565
Nd1 O11 2.396985 1_555
Nd1 O1 2.408199 1_555
Nd1 O7 2.556450 1_555
Nd1 O9 2.603172 1_565
Nd1 O10 2.728585 1_555
Nd1 O4 2.764161 1_554
Nd2 O0 2.342985 1_655
Nd2 O6 2.394172 1_665
Nd2 O8 2.396985 1_655
Nd2 O2 2.408199 1_555
Nd2 O4 2.556450 1_555
Nd2 O10 2.603172 1_565
Nd2 O9 2.728585 1_556
Nd2 O7 2.764161 1_555
Nd3 O1 2.342985 1_455
Nd3 O7 2.394172 1_445
Nd3 O9 2.396985 1_455
Nd3 O3 2.408199 1_555
Nd3 O5 2.556450 1_555
Nd3 O11 2.603172 1_545
Nd3 O8 2.728585 1_554
Nd3 O6 2.764161 1_555
Ni0 O0 2.052688 1_555
Ni0 O1 2.052688 1_455
Ni0 O6 2.096206 1_555
Ni0 O7 2.096206 1_455
Ni0 O11 2.110939 1_555
Ni0 O10 2.110939 1_455
Ni1 O3 2.052688 1_555
Ni1 O2 2.052688 1_554
Ni1 O4 2.096206 1_554
Ni1 O5 2.096206 1_555
Ni1 O8 2.110939 1_554
Ni1 O9 2.110939 1_555
O0 Ru0 2.030836 1_556
O1 Ru0 2.030836 1_665
O2 Ru1 2.030836 1_565
O3 Ru1 2.030836 1_555
O4 Ru0 2.045585 1_666
O5 Ru0 2.045585 1_555
O6 Ru1 2.045585 1_555
O7 Ru1 2.045585 1_565
O8 Ru0 2.015919 1_566
O9 Ru0 2.015919 1_655
O10 Ru1 2.015919 1_555
O11 Ru1 2.015919 1_565
