# generated using pymatgen
data_Cr8Co3NiS16
_symmetry_space_group_name_H-M   'P 1'
_cell_length_a   6.89893500
_cell_length_b   6.89893500
_cell_length_c   9.74433300
_cell_angle_alpha   90.00000000
_cell_angle_beta   90.00000000
_cell_angle_gamma   90.00000000
_symmetry_Int_Tables_number   1
_chemical_formula_structural   Cr8Co3NiS16
_chemical_formula_sum   'Cr8 Co3 Ni1 S16'
_cell_volume   463.78449272
_cell_formula_units_Z   1
loop_
 _symmetry_equiv_pos_site_id
 _symmetry_equiv_pos_as_xyz
  1  'x, y, z'
loop_
 _atom_site_type_symbol
 _atom_site_label
 _atom_site_symmetry_multiplicity
 _atom_site_fract_x
 _atom_site_fract_y
 _atom_site_fract_z
 _atom_site_occupancy
  Cr  Cr0  1  0.74890500  0.00000000  0.62455800  1
  Cr  Cr1  1  0.25130200  0.50000000  0.12544200  1
  Cr  Cr2  1  0.25109500  0.00000000  0.62455800  1
  Cr  Cr3  1  0.74869800  0.50000000  0.12544200  1
  Cr  Cr4  1  0.00000000  0.25109500  0.37544200  1
  Cr  Cr5  1  0.50000000  0.74869800  0.87455800  1
  Cr  Cr6  1  0.50000000  0.25130200  0.87455800  1
  Cr  Cr7  1  0.00000000  0.74890500  0.37544200  1
  Co  Co0  1  0.00000000  0.00000000  0.00000000  1
  Co  Co1  1  0.50000000  0.00000000  0.24965400  1
  Co  Co2  1  0.00000000  0.50000000  0.75034600  1
  Ni  Ni0  1  0.50000000  0.50000000  0.50000000  1
  S  S0  1  0.76098100  0.50000000  0.36947500  1
  S  S1  1  0.26039700  0.00000000  0.86997400  1
  S  S2  1  0.23901900  0.50000000  0.36947500  1
  S  S3  1  0.73960300  0.00000000  0.86997400  1
  S  S4  1  0.50000000  0.23901900  0.63052500  1
  S  S5  1  0.00000000  0.73960300  0.13002600  1
  S  S6  1  0.50000000  0.76098100  0.63052500  1
  S  S7  1  0.00000000  0.26039700  0.13002600  1
  S  S8  1  0.24164100  0.00000000  0.37946100  1
  S  S9  1  0.74096400  0.50000000  0.87883300  1
  S  S10  1  0.75835900  0.00000000  0.37946100  1
  S  S11  1  0.25903600  0.50000000  0.87883300  1
  S  S12  1  0.50000000  0.25903600  0.12116700  1
  S  S13  1  0.00000000  0.75835900  0.62053900  1
  S  S14  1  0.50000000  0.74096400  0.12116700  1
  S  S15  1  0.00000000  0.24164100  0.62053900  1
loop_
_geom_bond_atom_site_label_1
_geom_bond_atom_site_label_2
_geom_bond_distance
_geom_bond_site_symmetry_2
Cr0 S4 2.381430 1_555
Cr0 S6 2.381430 1_545
Cr0 S10 2.389197 1_555
Cr0 S3 2.392276 1_555
Cr0 S13 2.404467 1_645
Cr0 S15 2.404467 1_655
Cr1 S2 2.379448 1_555
Cr1 S14 2.389371 1_555
Cr1 S12 2.389371 1_555
Cr1 S7 2.395870 1_555
Cr1 S5 2.395870 1_555
Cr1 S11 2.403632 1_554
Cr2 S4 2.381430 1_555
Cr2 S6 2.381430 1_545
Cr2 S8 2.389197 1_555
Cr2 S1 2.392276 1_555
Cr2 S13 2.404467 1_545
Cr2 S15 2.404467 1_555
Cr3 S0 2.379448 1_555
Cr3 S14 2.389371 1_555
Cr3 S12 2.389371 1_555
Cr3 S7 2.395870 1_655
Cr3 S5 2.395870 1_655
Cr3 S9 2.403632 1_554
Cr4 S2 2.381430 1_555
Cr4 S0 2.381430 1_455
Cr4 S15 2.389197 1_555
Cr4 S7 2.392276 1_555
Cr4 S10 2.404467 1_455
Cr4 S8 2.404467 1_555
Cr5 S6 2.379448 1_555
Cr5 S9 2.389371 1_555
Cr5 S11 2.389371 1_555
Cr5 S1 2.395870 1_565
Cr5 S3 2.395870 1_565
Cr5 S14 2.403632 1_556
Cr6 S4 2.379448 1_555
Cr6 S9 2.389371 1_555
Cr6 S11 2.389371 1_555
Cr6 S3 2.395870 1_555
Cr6 S1 2.395870 1_555
Cr6 S12 2.403632 1_556
Cr7 S2 2.381430 1_555
Cr7 S0 2.381430 1_455
Cr7 S13 2.389197 1_555
Cr7 S5 2.392276 1_555
Cr7 S10 2.404467 1_465
Cr7 S8 2.404467 1_565
Co0 S7 2.198319 1_555
Co0 S5 2.198319 1_545
Co0 S1 2.198319 1_554
Co0 S3 2.198319 1_454
Co1 S12 2.182013 1_555
Co1 S14 2.182013 1_545
Co1 S8 2.185609 1_555
Co1 S10 2.185609 1_555
Co2 S9 2.182013 1_455
Co2 S11 2.182013 1_555
Co2 S15 2.185609 1_555
Co2 S13 2.185609 1_555
Ni0 S6 2.204415 1_555
Ni0 S0 2.204415 1_555
Ni0 S4 2.204415 1_555
Ni0 S2 2.204415 1_555
