# generated using pymatgen
data_Fe12PbO19
_symmetry_space_group_name_H-M   'P 1'
_cell_length_a   6.01766486
_cell_length_b   6.01766486
_cell_length_c   23.30012600
_cell_angle_alpha   90.00000000
_cell_angle_beta   90.00000000
_cell_angle_gamma   119.95033139
_symmetry_Int_Tables_number   1
_chemical_formula_structural   Fe12PbO19
_chemical_formula_sum   'Fe24 Pb2 O38'
_cell_volume   731.07517922
_cell_formula_units_Z   2
loop_
 _symmetry_equiv_pos_site_id
 _symmetry_equiv_pos_as_xyz
  1  'x, y, z'
loop_
 _atom_site_type_symbol
 _atom_site_label
 _atom_site_symmetry_multiplicity
 _atom_site_fract_x
 _atom_site_fract_y
 _atom_site_fract_z
 _atom_site_occupancy
  Fe  Fe0  1  0.00000000  0.00000000  0.00000000  1
  Fe  Fe1  1  0.00000000  0.00000000  0.50000000  1
  Fe  Fe2  1  0.00044200  0.99955800  0.75000000  1
  Fe  Fe3  1  0.99955800  0.00044200  0.25000000  1
  Fe  Fe4  1  0.66666000  0.33334000  0.97210500  1
  Fe  Fe5  1  0.33334000  0.66666000  0.02789500  1
  Fe  Fe6  1  0.33334000  0.66666000  0.47210500  1
  Fe  Fe7  1  0.66666000  0.33334000  0.52789500  1
  Fe  Fe8  1  0.66670300  0.33329700  0.80912300  1
  Fe  Fe9  1  0.33329700  0.66670300  0.19087700  1
  Fe  Fe10  1  0.33329700  0.66670300  0.30912300  1
  Fe  Fe11  1  0.66670300  0.33329700  0.69087700  1
  Fe  Fe12  1  0.33568700  0.16760600  0.10966400  1
  Fe  Fe13  1  0.83222900  0.16777100  0.10970300  1
  Fe  Fe14  1  0.83239400  0.66431300  0.10966400  1
  Fe  Fe15  1  0.66431300  0.83239400  0.89033600  1
  Fe  Fe16  1  0.16777100  0.83222900  0.89029700  1
  Fe  Fe17  1  0.16760600  0.33568700  0.89033600  1
  Fe  Fe18  1  0.66431300  0.83239400  0.60966400  1
  Fe  Fe19  1  0.16777100  0.83222900  0.60970300  1
  Fe  Fe20  1  0.16760600  0.33568700  0.60966400  1
  Fe  Fe21  1  0.33568700  0.16760600  0.39033600  1
  Fe  Fe22  1  0.83222900  0.16777100  0.39029700  1
  Fe  Fe23  1  0.83239400  0.66431300  0.39033600  1
  Pb  Pb0  1  0.66317800  0.33682200  0.25000000  1
  Pb  Pb1  1  0.33682200  0.66317800  0.75000000  1
  O  O0  1  0.99993700  0.00006300  0.84710100  1
  O  O1  1  0.00006300  0.99993700  0.15289900  1
  O  O2  1  0.00006300  0.99993700  0.34710100  1
  O  O3  1  0.99993700  0.00006300  0.65289900  1
  O  O4  1  0.66681500  0.33318500  0.05508400  1
  O  O5  1  0.33318500  0.66681500  0.94491600  1
  O  O6  1  0.33318500  0.66681500  0.55508400  1
  O  O7  1  0.66681500  0.33318500  0.44491600  1
  O  O8  1  0.36747100  0.18587500  0.75000000  1
  O  O9  1  0.81650500  0.18349500  0.75000000  1
  O  O10  1  0.81412500  0.63252900  0.75000000  1
  O  O11  1  0.63252900  0.81412500  0.25000000  1
  O  O12  1  0.18349500  0.81650500  0.25000000  1
  O  O13  1  0.18587500  0.36747100  0.25000000  1
  O  O14  1  0.31042600  0.15539300  0.94658100  1
  O  O15  1  0.84486100  0.15513900  0.94654200  1
  O  O16  1  0.84460700  0.68957400  0.94658100  1
  O  O17  1  0.68957400  0.84460700  0.05341900  1
  O  O18  1  0.15513900  0.84486100  0.05345800  1
  O  O19  1  0.15539300  0.31042600  0.05341900  1
  O  O20  1  0.68957400  0.84460700  0.44658100  1
  O  O21  1  0.15513900  0.84486100  0.44654200  1
  O  O22  1  0.15539300  0.31042600  0.44658100  1
  O  O23  1  0.31042600  0.15539300  0.55341900  1
  O  O24  1  0.84486100  0.15513900  0.55345800  1
  O  O25  1  0.84460700  0.68957400  0.55341900  1
  O  O26  1  0.49386800  0.50613200  0.84886800  1
  O  O27  1  0.49393400  0.98806200  0.84886600  1
  O  O28  1  0.01193800  0.50606600  0.84886600  1
  O  O29  1  0.50613200  0.49386800  0.15113200  1
  O  O30  1  0.50606600  0.01193800  0.15113400  1
  O  O31  1  0.98806200  0.49393400  0.15113400  1
  O  O32  1  0.50613200  0.49386800  0.34886800  1
  O  O33  1  0.50606600  0.01193800  0.34886600  1
  O  O34  1  0.98806200  0.49393400  0.34886600  1
  O  O35  1  0.49386800  0.50613200  0.65113200  1
  O  O36  1  0.49393400  0.98806200  0.65113400  1
  O  O37  1  0.01193800  0.50606600  0.65113400  1
loop_
_geom_bond_atom_site_label_1
_geom_bond_atom_site_label_2
_geom_bond_distance
_geom_bond_site_symmetry_2
Fe0 O18 2.040794 1_545
Fe0 O15 2.040794 1_454
Fe0 O14 2.041814 1_554
Fe0 O16 2.041814 1_444
Fe0 O17 2.041814 1_445
Fe0 O19 2.041814 1_555
Fe1 O24 2.040794 1_455
Fe1 O21 2.040794 1_545
Fe1 O25 2.041814 1_445
Fe1 O23 2.041814 1_555
Fe1 O20 2.041814 1_445
Fe1 O22 2.041814 1_555
Fe2 O10 1.913800 1_455
Fe2 O8 1.913800 1_565
Fe2 O9 1.916677 1_465
Fe2 O3 2.262472 1_465
Fe2 O0 2.262472 1_465
Fe3 O11 1.913800 1_545
Fe3 O13 1.913800 1_655
Fe3 O12 1.916677 1_645
Fe3 O2 2.262472 1_645
Fe3 O1 2.262472 1_645
Fe4 O4 1.933422 1_556
Fe4 O15 1.950094 1_555
Fe4 O16 1.950310 1_555
Fe4 O14 1.950310 1_555
Fe5 O5 1.933422 1_554
Fe5 O18 1.950094 1_555
Fe5 O17 1.950310 1_555
Fe5 O19 1.950310 1_555
Fe6 O6 1.933422 1_555
Fe6 O21 1.950094 1_555
Fe6 O20 1.950310 1_555
Fe6 O22 1.950310 1_555
Fe7 O7 1.933422 1_555
Fe7 O24 1.950094 1_555
Fe7 O25 1.950310 1_555
Fe7 O23 1.950310 1_555
Fe8 O28 2.024298 1_655
Fe8 O27 2.024298 1_545
Fe8 O26 2.025133 1_555
Fe8 O10 2.081373 1_555
Fe8 O8 2.081373 1_555
Fe8 O9 2.081915 1_555
Fe9 O30 2.024298 1_565
Fe9 O31 2.024298 1_455
Fe9 O29 2.025133 1_555
Fe9 O11 2.081373 1_555
Fe9 O13 2.081373 1_555
Fe9 O12 2.081915 1_555
Fe10 O34 2.024298 1_455
Fe10 O33 2.024298 1_565
Fe10 O32 2.025133 1_555
Fe10 O11 2.081373 1_555
Fe10 O13 2.081373 1_555
Fe10 O12 2.081915 1_555
Fe11 O37 2.024298 1_655
Fe11 O36 2.024298 1_545
Fe11 O35 2.025133 1_555
Fe11 O10 2.081373 1_555
Fe11 O8 2.081373 1_555
Fe11 O9 2.081915 1_555
Fe12 O30 1.954833 1_555
Fe12 O29 1.956920 1_555
Fe12 O1 2.019204 1_545
Fe12 O18 2.135551 1_545
Fe12 O19 2.136413 1_555
Fe12 O4 2.144329 1_555
Fe13 O31 1.955971 1_555
Fe13 O30 1.955971 1_555
Fe13 O1 2.017812 1_645
Fe13 O17 2.138150 1_545
Fe13 O19 2.138150 1_655
Fe13 O4 2.142568 1_555
Fe14 O31 1.954833 1_555
Fe14 O29 1.956920 1_555
Fe14 O1 2.019204 1_655
Fe14 O18 2.135551 1_655
Fe14 O17 2.136413 1_555
Fe14 O4 2.144329 1_555
Fe15 O27 1.954833 1_555
Fe15 O26 1.956920 1_555
Fe15 O0 2.019204 1_565
Fe15 O15 2.135551 1_565
Fe15 O16 2.136413 1_555
Fe15 O5 2.144329 1_555
Fe16 O27 1.955971 1_555
Fe16 O28 1.955971 1_555
Fe16 O0 2.017812 1_465
Fe16 O16 2.138150 1_455
Fe16 O14 2.138150 1_565
Fe16 O5 2.142568 1_555
Fe17 O28 1.954833 1_555
Fe17 O26 1.956920 1_555
Fe17 O0 2.019204 1_455
Fe17 O15 2.135551 1_455
Fe17 O14 2.136413 1_555
Fe17 O5 2.144329 1_555
Fe18 O36 1.954833 1_555
Fe18 O35 1.956920 1_555
Fe18 O3 2.019204 1_565
Fe18 O24 2.135551 1_565
Fe18 O25 2.136413 1_555
Fe18 O6 2.144329 1_555
Fe19 O36 1.955971 1_555
Fe19 O37 1.955971 1_555
Fe19 O3 2.017812 1_465
Fe19 O25 2.138150 1_455
Fe19 O23 2.138150 1_565
Fe19 O6 2.142568 1_555
Fe20 O37 1.954833 1_555
Fe20 O35 1.956920 1_555
Fe20 O3 2.019204 1_455
Fe20 O24 2.135551 1_455
Fe20 O23 2.136413 1_555
Fe20 O6 2.144329 1_555
Fe21 O33 1.954833 1_555
Fe21 O32 1.956920 1_555
Fe21 O2 2.019204 1_545
Fe21 O21 2.135551 1_545
Fe21 O22 2.136413 1_555
Fe21 O7 2.144329 1_555
Fe22 O33 1.955971 1_555
Fe22 O34 1.955971 1_555
Fe22 O2 2.017812 1_645
Fe22 O20 2.138150 1_545
Fe22 O22 2.138150 1_655
Fe22 O7 2.142568 1_555
Fe23 O34 1.954833 1_555
Fe23 O32 1.956920 1_555
Fe23 O2 2.019204 1_655
Fe23 O21 2.135551 1_655
Fe23 O20 2.136413 1_555
Fe23 O7 2.144329 1_555
O26 Pb1 2.825732 1_555
O27 Pb1 2.859542 1_555
O28 Pb1 2.859542 1_555
O29 Pb0 2.825732 1_555
O30 Pb0 2.859542 1_555
O31 Pb0 2.859542 1_555
O32 Pb0 2.825732 1_555
O33 Pb0 2.859542 1_555
O34 Pb0 2.859542 1_555
O35 Pb1 2.825732 1_555
O36 Pb1 2.859542 1_555
O37 Pb1 2.859542 1_555
