# generated using pymatgen
data_KTb(MoO4)2
_symmetry_space_group_name_H-M   'P 1'
_cell_length_a   5.15831300
_cell_length_b   8.16187000
_cell_length_c   18.46751100
_cell_angle_alpha   90.00000000
_cell_angle_beta   90.00000000
_cell_angle_gamma   90.00000000
_symmetry_Int_Tables_number   1
_chemical_formula_structural   KTb(MoO4)2
_chemical_formula_sum   'K4 Tb4 Mo8 O32'
_cell_volume   777.50954733
_cell_formula_units_Z   4
loop_
 _symmetry_equiv_pos_site_id
 _symmetry_equiv_pos_as_xyz
  1  'x, y, z'
loop_
 _atom_site_type_symbol
 _atom_site_label
 _atom_site_symmetry_multiplicity
 _atom_site_fract_x
 _atom_site_fract_y
 _atom_site_fract_z
 _atom_site_occupancy
  K  K0  1  0.00000000  0.75000000  0.76989500  1
  K  K1  1  0.00000000  0.25000000  0.23010500  1
  K  K2  1  0.50000000  0.25000000  0.73010500  1
  K  K3  1  0.50000000  0.75000000  0.26989500  1
  Tb  Tb0  1  0.00000000  0.75000000  0.00604300  1
  Tb  Tb1  1  0.00000000  0.25000000  0.99395700  1
  Tb  Tb2  1  0.50000000  0.25000000  0.49395700  1
  Tb  Tb3  1  0.50000000  0.75000000  0.50604300  1
  Mo  Mo0  1  0.02314300  0.51638700  0.39909300  1
  Mo  Mo1  1  0.97685700  0.48361300  0.60090700  1
  Mo  Mo2  1  0.47685700  0.01638700  0.10090700  1
  Mo  Mo3  1  0.97685700  0.98361300  0.39909300  1
  Mo  Mo4  1  0.52314300  0.98361300  0.89909300  1
  Mo  Mo5  1  0.02314300  0.01638700  0.60090700  1
  Mo  Mo6  1  0.52314300  0.48361300  0.10090700  1
  Mo  Mo7  1  0.47685700  0.51638700  0.89909300  1
  O  O0  1  0.10228300  0.97450500  0.31077500  1
  O  O1  1  0.89771700  0.02549500  0.68922500  1
  O  O2  1  0.39771700  0.47450500  0.18922500  1
  O  O3  1  0.89771700  0.52549500  0.31077500  1
  O  O4  1  0.60228300  0.52549500  0.81077500  1
  O  O5  1  0.10228300  0.47450500  0.68922500  1
  O  O6  1  0.60228300  0.02549500  0.18922500  1
  O  O7  1  0.39771700  0.97450500  0.81077500  1
  O  O8  1  0.27025600  0.83895800  0.09905800  1
  O  O9  1  0.72974400  0.16104200  0.90094200  1
  O  O10  1  0.22974400  0.33895800  0.40094200  1
  O  O11  1  0.72974400  0.66104200  0.09905800  1
  O  O12  1  0.77025600  0.66104200  0.59905800  1
  O  O13  1  0.27025600  0.33895800  0.90094200  1
  O  O14  1  0.77025600  0.16104200  0.40094200  1
  O  O15  1  0.22974400  0.83895800  0.59905800  1
  O  O16  1  0.24972000  0.50407400  0.03506600  1
  O  O17  1  0.75028000  0.49592600  0.96493400  1
  O  O18  1  0.25028000  0.00407400  0.46493400  1
  O  O19  1  0.75028000  0.99592600  0.03506600  1
  O  O20  1  0.74972000  0.99592600  0.53506600  1
  O  O21  1  0.24972000  0.00407400  0.96493400  1
  O  O22  1  0.74972000  0.49592600  0.46493400  1
  O  O23  1  0.25028000  0.50407400  0.53506600  1
  O  O24  1  0.24519700  0.68872700  0.40736800  1
  O  O25  1  0.75480300  0.31127300  0.59263200  1
  O  O26  1  0.25480300  0.18872700  0.09263200  1
  O  O27  1  0.75480300  0.81127300  0.40736800  1
  O  O28  1  0.74519700  0.81127300  0.90736800  1
  O  O29  1  0.24519700  0.18872700  0.59263200  1
  O  O30  1  0.74519700  0.31127300  0.09263200  1
  O  O31  1  0.25480300  0.68872700  0.90736800  1
loop_
_geom_bond_atom_site_label_1
_geom_bond_atom_site_label_2
_geom_bond_distance
_geom_bond_site_symmetry_2
K0 O5 2.748417 1_555
K0 O1 2.748417 1_465
K0 O7 2.852442 1_555
K0 O4 2.852442 1_455
K0 O31 2.902250 1_555
K0 O28 2.902250 1_455
K1 O3 2.748417 1_455
K1 O0 2.748417 1_545
K1 O2 2.852442 1_555
K1 O6 2.852442 1_455
K1 O26 2.902250 1_555
K1 O30 2.902250 1_455
K2 O4 2.748417 1_555
K2 O7 2.748417 1_545
K2 O1 2.852442 1_555
K2 O5 2.852442 1_555
K2 O25 2.902250 1_555
K2 O29 2.902250 1_555
K3 O2 2.748417 1_555
K3 O6 2.748417 1_565
K3 O0 2.852442 1_555
K3 O3 2.852442 1_555
K3 O27 2.902250 1_555
K3 O24 2.902250 1_555
Mo0 O3 1.756224 1_455
Mo0 O10 1.798348 1_555
Mo0 O24 1.820418 1_555
Mo0 O22 1.869647 1_455
Mo1 O5 1.756224 1_655
Mo1 O12 1.798348 1_555
Mo1 O25 1.820418 1_555
Mo1 O23 1.869647 1_655
Mo2 O6 1.756224 1_555
Mo2 O8 1.798348 1_545
Mo2 O26 1.820418 1_555
Mo2 O19 1.869647 1_545
Mo3 O0 1.756224 1_655
Mo3 O14 1.798348 1_565
Mo3 O27 1.820418 1_555
Mo3 O18 1.869647 1_665
Mo4 O7 1.756224 1_555
Mo4 O9 1.798348 1_565
Mo4 O28 1.820418 1_555
Mo4 O21 1.869647 1_565
Mo5 O1 1.756224 1_455
Mo5 O15 1.798348 1_545
Mo5 O29 1.820418 1_555
Mo5 O20 1.869647 1_445
Mo6 O2 1.756224 1_555
Mo6 O11 1.798348 1_555
Mo6 O30 1.820418 1_555
Mo6 O16 1.869647 1_555
Mo7 O4 1.756224 1_555
Mo7 O13 1.798348 1_555
Mo7 O31 1.820418 1_555
Mo7 O17 1.869647 1_555
O8 Tb0 2.328362 1_555
O9 Tb1 2.328362 1_655
O10 Tb2 2.328362 1_555
O11 Tb0 2.328362 1_655
O12 Tb3 2.328362 1_555
O13 Tb1 2.328362 1_555
O14 Tb2 2.328362 1_555
O15 Tb3 2.328362 1_555
O16 Tb0 2.444480 1_555
O16 Tb1 2.556551 1_554
O17 Tb1 2.444480 1_655
O17 Tb0 2.556551 1_656
O18 Tb2 2.444480 1_555
O18 Tb3 2.556551 1_545
O19 Tb0 2.444480 1_655
O19 Tb1 2.556551 1_664
O20 Tb3 2.444480 1_555
O20 Tb2 2.556551 1_565
O21 Tb1 2.444480 1_555
O21 Tb0 2.556551 1_546
O22 Tb2 2.444480 1_555
O22 Tb3 2.556551 1_555
O23 Tb3 2.444480 1_555
O23 Tb2 2.556551 1_555
O24 Tb3 2.301812 1_555
O25 Tb2 2.301812 1_555
O26 Tb1 2.301812 1_554
O27 Tb3 2.301812 1_555
O28 Tb0 2.301812 1_656
O29 Tb2 2.301812 1_555
O30 Tb1 2.301812 1_654
O31 Tb0 2.301812 1_556
