# generated using pymatgen
data_Sc5BRh15
_symmetry_space_group_name_H-M   'P 1'
_cell_length_a   4.02625600
_cell_length_b   4.02625600
_cell_length_c   19.51901300
_cell_angle_alpha   90.00000000
_cell_angle_beta   90.00000000
_cell_angle_gamma   90.00000000
_symmetry_Int_Tables_number   1
_chemical_formula_structural   Sc5BRh15
_chemical_formula_sum   'Sc5 B1 Rh15'
_cell_volume   316.41759361
_cell_formula_units_Z   1
loop_
 _symmetry_equiv_pos_site_id
 _symmetry_equiv_pos_as_xyz
  1  'x, y, z'
loop_
 _atom_site_type_symbol
 _atom_site_label
 _atom_site_symmetry_multiplicity
 _atom_site_fract_x
 _atom_site_fract_y
 _atom_site_fract_z
 _atom_site_occupancy
  Sc  Sc0  1  0.00000000  0.00000000  0.89588800  1
  Sc  Sc1  1  0.00000000  0.00000000  0.10411200  1
  Sc  Sc2  1  0.00000000  0.00000000  0.30063000  1
  Sc  Sc3  1  0.00000000  0.00000000  0.50000000  1
  Sc  Sc4  1  0.00000000  0.00000000  0.69937000  1
  B  B0  1  0.50000000  0.50000000  0.00000000  1
  Rh  Rh0  1  0.50000000  0.50000000  0.89250800  1
  Rh  Rh1  1  0.50000000  0.50000000  0.10749200  1
  Rh  Rh2  1  0.50000000  0.50000000  0.30408500  1
  Rh  Rh3  1  0.50000000  0.50000000  0.50000000  1
  Rh  Rh4  1  0.50000000  0.50000000  0.69591500  1
  Rh  Rh5  1  0.50000000  0.00000000  0.00000000  1
  Rh  Rh6  1  0.50000000  0.00000000  0.20351300  1
  Rh  Rh7  1  0.50000000  0.00000000  0.40130100  1
  Rh  Rh8  1  0.50000000  0.00000000  0.59869900  1
  Rh  Rh9  1  0.50000000  0.00000000  0.79648700  1
  Rh  Rh10  1  0.00000000  0.50000000  0.00000000  1
  Rh  Rh11  1  0.00000000  0.50000000  0.20351300  1
  Rh  Rh12  1  0.00000000  0.50000000  0.40130100  1
  Rh  Rh13  1  0.00000000  0.50000000  0.59869900  1
  Rh  Rh14  1  0.00000000  0.50000000  0.79648700  1
loop_
_geom_bond_atom_site_label_1
_geom_bond_atom_site_label_2
_geom_bond_distance
_geom_bond_site_symmetry_2
B0 Rh5 2.013128 1_565
B0 Rh10 2.013128 1_655
B0 Rh5 2.013128 1_555
B0 Rh10 2.013128 1_555
B0 Rh1 2.098138 1_555
B0 Rh0 2.098138 1_554
Rh0 Sc0 2.847757 1_565
Rh0 Sc0 2.847757 1_655
Rh0 Sc0 2.847757 1_555
Rh0 Sc0 2.847757 1_665
Rh1 Sc1 2.847757 1_565
Rh1 Sc1 2.847757 1_665
Rh1 Sc1 2.847757 1_555
Rh1 Sc1 2.847757 1_655
Rh2 Rh7 2.766481 1_555
Rh2 Rh7 2.766481 1_565
Rh2 Rh6 2.811817 1_555
Rh2 Rh6 2.811817 1_565
Rh2 Sc2 2.847792 1_565
Rh2 Sc2 2.847792 1_555
Rh2 Sc2 2.847792 1_665
Rh2 Sc2 2.847792 1_655
Rh3 Rh8 2.786416 1_565
Rh3 Rh8 2.786416 1_555
Rh3 Rh7 2.786416 1_565
Rh3 Rh7 2.786416 1_555
Rh3 Sc3 2.846993 1_655
Rh3 Sc3 2.846993 1_565
Rh3 Sc3 2.846993 1_665
Rh3 Sc3 2.846993 1_555
Rh4 Rh8 2.766481 1_555
Rh4 Rh8 2.766481 1_565
Rh4 Rh9 2.811817 1_555
Rh4 Rh9 2.811817 1_565
Rh4 Sc4 2.847792 1_565
Rh4 Sc4 2.847792 1_655
Rh4 Sc4 2.847792 1_555
Rh4 Sc4 2.847792 1_665
Rh5 Sc1 2.860485 1_555
Rh5 Sc1 2.860485 1_655
Rh5 Sc0 2.860485 1_554
Rh5 Sc0 2.860485 1_654
Rh6 Sc2 2.765156 1_555
Rh6 Sc2 2.765156 1_655
Rh6 Sc1 2.795907 1_555
Rh6 Sc1 2.795907 1_655
Rh7 Sc3 2.786416 1_555
Rh7 Sc3 2.786416 1_655
Rh7 Sc2 2.813166 1_555
Rh7 Sc2 2.813166 1_655
Rh8 Sc3 2.786416 1_555
Rh8 Sc3 2.786416 1_655
Rh8 Sc4 2.813166 1_655
Rh8 Sc4 2.813166 1_555
Rh9 Sc4 2.765156 1_655
Rh9 Sc4 2.765156 1_555
Rh9 Sc0 2.795907 1_655
Rh9 Sc0 2.795907 1_555
Rh10 Sc1 2.860485 1_555
Rh10 Sc1 2.860485 1_565
Rh10 Sc0 2.860485 1_554
Rh10 Sc0 2.860485 1_564
Rh11 Sc2 2.765156 1_565
Rh11 Sc2 2.765156 1_555
Rh11 Sc1 2.795907 1_555
Rh11 Sc1 2.795907 1_565
Rh11 Rh2 2.811817 1_555
Rh11 Rh2 2.811817 1_455
Rh12 Rh2 2.766481 1_455
Rh12 Rh2 2.766481 1_555
Rh12 Rh3 2.786416 1_555
Rh12 Rh3 2.786416 1_455
Rh12 Sc3 2.786416 1_565
Rh12 Sc3 2.786416 1_555
Rh12 Sc2 2.813166 1_555
Rh12 Sc2 2.813166 1_565
Rh13 Rh4 2.766481 1_555
Rh13 Rh4 2.766481 1_455
Rh13 Sc3 2.786416 1_565
Rh13 Sc3 2.786416 1_555
Rh13 Rh3 2.786416 1_555
Rh13 Rh3 2.786416 1_455
Rh13 Sc4 2.813166 1_565
Rh13 Sc4 2.813166 1_555
Rh14 Sc4 2.765156 1_565
Rh14 Sc4 2.765156 1_555
Rh14 Sc0 2.795907 1_565
Rh14 Sc0 2.795907 1_555
Rh14 Rh4 2.811817 1_555
Rh14 Rh4 2.811817 1_455
