# generated using pymatgen
data_Mg3(TaAl9)2
_symmetry_space_group_name_H-M   'P 1'
_cell_length_a   10.40407099
_cell_length_b   10.40406528
_cell_length_c   10.40407193
_cell_angle_alpha   59.99791436
_cell_angle_beta   59.99791574
_cell_angle_gamma   59.99795474
_symmetry_Int_Tables_number   1
_chemical_formula_structural   Mg3(TaAl9)2
_chemical_formula_sum   'Mg6 Ta4 Al36'
_cell_volume   796.29561409
_cell_formula_units_Z   2
loop_
 _symmetry_equiv_pos_site_id
 _symmetry_equiv_pos_as_xyz
  1  'x, y, z'
loop_
 _atom_site_type_symbol
 _atom_site_label
 _atom_site_symmetry_multiplicity
 _atom_site_fract_x
 _atom_site_fract_y
 _atom_site_fract_z
 _atom_site_occupancy
  Mg  Mg0  1  0.12500509  0.62499842  0.62499818  1
  Mg  Mg1  1  0.62499826  0.12500536  0.62499822  1
  Mg  Mg2  1  0.62499818  0.62499834  0.12500514  1
  Mg  Mg3  1  0.62499830  0.62499836  0.62499830  1
  Mg  Mg4  1  0.49999783  0.50000056  0.50000019  1
  Mg  Mg5  1  0.75000221  0.74999933  0.74999982  1
  Ta  Ta0  1  0.62500106  0.12499957  0.12499964  1
  Ta  Ta1  1  0.12499962  0.62500109  0.12499967  1
  Ta  Ta2  1  0.12499965  0.12499968  0.62500108  1
  Ta  Ta3  1  0.12499957  0.12499970  0.12499963  1
  Al  Al0  1  0.85780117  0.85779737  0.14220166  1
  Al  Al1  1  0.14220034  0.14220087  0.85779892  1
  Al  Al2  1  0.85780087  0.14220106  0.85779785  1
  Al  Al3  1  0.14220055  0.85779781  0.14220102  1
  Al  Al4  1  0.14220160  0.85779848  0.85779903  1
  Al  Al5  1  0.85780042  0.14220048  0.14220016  1
  Al  Al6  1  0.39214377  0.39214735  0.10785347  1
  Al  Al7  1  0.10785478  0.10785430  0.39214599  1
  Al  Al8  1  0.39214394  0.10785411  0.39214700  1
  Al  Al9  1  0.10785459  0.39214700  0.10785415  1
  Al  Al10  1  0.10785351  0.39214639  0.39214581  1
  Al  Al11  1  0.39214449  0.10785471  0.10785503  1
  Al  Al12  1  0.56662855  0.30182931  0.30182997  1
  Al  Al13  1  0.30183347  0.56662812  0.82970905  1
  Al  Al14  1  0.30183229  0.82970962  0.56662766  1
  Al  Al15  1  0.82970654  0.30183142  0.30183267  1
  Al  Al16  1  0.30183198  0.30182855  0.56662874  1
  Al  Al17  1  0.56662775  0.82971081  0.30183028  1
  Al  Al18  1  0.82970785  0.56662809  0.30183125  1
  Al  Al19  1  0.30183334  0.30183005  0.82970758  1
  Al  Al20  1  0.30183186  0.56662839  0.30182827  1
  Al  Al21  1  0.82970834  0.30183088  0.56662835  1
  Al  Al22  1  0.56662791  0.30182992  0.82971071  1
  Al  Al23  1  0.30183329  0.82970733  0.30182974  1
  Al  Al24  1  0.68316656  0.94817933  0.94817872  1
  Al  Al25  1  0.94817523  0.68316690  0.42047856  1
  Al  Al26  1  0.94817639  0.42047797  0.68316738  1
  Al  Al27  1  0.42048108  0.94817719  0.94817598  1
  Al  Al28  1  0.94817667  0.94818009  0.68316634  1
  Al  Al29  1  0.68316734  0.42047665  0.94817843  1
  Al  Al30  1  0.42047976  0.68316701  0.94817738  1
  Al  Al31  1  0.94817531  0.94817862  0.42048003  1
  Al  Al32  1  0.94817679  0.68316665  0.94818043  1
  Al  Al33  1  0.42047925  0.94817777  0.68316676  1
  Al  Al34  1  0.68316719  0.94817876  0.42047682  1
  Al  Al35  1  0.94817543  0.42048024  0.94817894  1
loop_
_geom_bond_atom_site_label_1
_geom_bond_atom_site_label_2
_geom_bond_distance
_geom_bond_site_symmetry_2
Mg0 Mg4 3.185439 1_555
Mg0 Mg5 3.185525 1_455
Mg1 Mg4 3.185458 1_555
Mg1 Mg5 3.185550 1_545
Mg2 Mg4 3.185457 1_555
Mg2 Mg5 3.185545 1_554
Mg3 Mg4 3.185602 1_555
Mg3 Mg5 3.185687 1_555
Al0 Ta1 2.613194 1_655
Al0 Ta0 2.613233 1_565
Al0 Al18 2.718307 1_555
Al0 Al17 2.718320 1_555
Al0 Al25 2.884578 1_555
Al0 Al34 2.884600 1_555
Al0 Al32 2.884627 1_554
Al0 Al24 2.884654 1_554
Al0 Al4 2.958841 1_654
Al0 Al2 2.958863 1_564
Al0 Al3 2.958910 1_655
Al0 Al5 2.958937 1_565
Al1 Ta3 2.613288 1_556
Al1 Ta2 2.613300 1_555
Al1 Al16 2.718269 1_555
Al1 Al19 2.718388 1_555
Al1 Al26 2.884568 1_455
Al1 Al33 2.884573 1_545
Al1 Al27 2.884619 1_545
Al1 Al35 2.884621 1_455
Al1 Al5 2.958831 1_456
Al1 Al3 2.958851 1_546
Al1 Al2 2.958917 1_455
Al1 Al4 2.958934 1_545
Al2 Ta2 2.613197 1_655
Al2 Ta0 2.613228 1_556
Al2 Al21 2.718307 1_555
Al2 Al22 2.718319 1_555
Al2 Al26 2.884583 1_555
Al2 Al29 2.884599 1_555
Al2 Al28 2.884631 1_545
Al2 Al24 2.884642 1_545
Al2 Al4 2.958843 1_645
Al2 Al5 2.958937 1_556
Al3 Ta1 2.613289 1_555
Al3 Ta3 2.613296 1_565
Al3 Al30 2.884570 1_554
Al3 Al31 2.884622 1_455
Al3 Al5 2.958840 1_465
Al3 Al4 2.958930 1_554
Al4 Ta1 2.613210 1_556
Al4 Ta2 2.613216 1_565
Al5 Ta3 2.613274 1_655
Al5 Ta0 2.613313 1_555
Al6 Ta1 2.613131 1_555
Al6 Ta0 2.613168 1_555
Al6 Al8 2.957715 1_555
Al6 Al9 2.957763 1_555
Al7 Ta3 2.613224 1_555
Al7 Ta2 2.613236 1_555
Al7 Al9 2.957703 1_555
Al7 Al8 2.957769 1_555
Al8 Ta2 2.613132 1_555
Al8 Ta0 2.613164 1_555
Al9 Ta1 2.613225 1_555
Al9 Ta3 2.613231 1_555
Al10 Ta1 2.613145 1_555
Al10 Ta2 2.613151 1_555
Al10 Al25 2.717868 1_455
Al10 Al26 2.717874 1_455
Al10 Al21 2.883151 1_455
Al10 Al18 2.883152 1_455
Al10 Al20 2.883187 1_555
Al10 Al16 2.883197 1_555
Al10 Al6 2.957694 1_555
Al10 Al8 2.957695 1_555
Al10 Al9 2.957782 1_555
Al10 Al7 2.957786 1_555
Al11 Ta3 2.613212 1_555
Al11 Ta0 2.613246 1_555
Al11 Al24 2.717841 1_544
Al11 Al27 2.717952 1_544
Al11 Al17 2.883101 1_545
Al11 Al22 2.883101 1_554
Al11 Al23 2.883137 1_545
Al11 Al19 2.883140 1_554
Al11 Al7 2.957684 1_555
Al11 Al9 2.957692 1_555
Al11 Al6 2.957787 1_555
Al11 Al8 2.957788 1_555
Al12 Al5 2.718277 1_555
Al12 Al15 2.737107 1_555
Al12 Al16 2.754887 1_555
Al12 Al20 2.754890 1_555
Al12 Ta0 2.878950 1_555
Al12 Al8 2.883183 1_555
Al12 Al6 2.883195 1_555
Al12 Al34 3.004167 1_545
Al12 Al29 3.004176 1_554
Al12 Mg1 3.129994 1_555
Al12 Mg2 3.129997 1_555
Al12 Mg4 3.221011 1_555
Al13 Al4 2.718305 1_555
Al13 Al14 2.737031 1_555
Al13 Al22 2.754874 1_555
Al13 Al19 2.754985 1_555
Al13 Ta1 2.878914 1_556
Al13 Al9 2.883112 1_556
Al13 Al6 2.883118 1_556
Al13 Al32 3.004221 1_455
Al13 Al30 3.004318 1_555
Al13 Mg3 3.129952 1_555
Al13 Mg0 3.130069 1_555
Al13 Mg4 3.220907 1_555
Al14 Al4 2.718311 1_555
Al14 Al17 2.754874 1_555
Al14 Al23 2.754983 1_555
Al14 Ta2 2.878911 1_565
Al14 Al7 2.883108 1_565
Al14 Al8 2.883124 1_565
Al14 Al28 3.004212 1_455
Al14 Al33 3.004324 1_555
Al14 Mg3 3.129966 1_555
Al14 Mg0 3.130058 1_555
Al14 Mg4 3.220908 1_555
Al15 Al5 2.718387 1_555
Al15 Al21 2.754960 1_555
Al15 Al18 2.754961 1_555
Al15 Ta3 2.878898 1_655
Al15 Al7 2.883159 1_655
Al15 Al9 2.883167 1_655
Al15 Al31 3.004186 1_545
Al15 Al35 3.004194 1_554
Al15 Mg1 3.129920 1_555
Al15 Mg2 3.129934 1_555
Al15 Mg4 3.220872 1_555
Al16 Al19 2.737106 1_555
Al16 Al20 2.754912 1_555
Al16 Ta2 2.878960 1_555
Al16 Al8 2.883171 1_555
Al16 Al33 3.004169 1_545
Al16 Al26 3.004212 1_455
Al16 Mg1 3.129976 1_555
Al16 Mg0 3.130005 1_555
Al16 Mg4 3.220987 1_555
Al17 Al18 2.737032 1_555
Al17 Al23 2.754961 1_555
Al17 Ta0 2.878897 1_565
Al17 Al8 2.883141 1_565
Al17 Al24 3.004176 1_554
Al17 Al34 3.004322 1_555
Al17 Mg3 3.129983 1_555
Al17 Mg2 3.130053 1_555
Al17 Mg4 3.220928 1_555
Al18 Al21 2.754881 1_555
Al18 Ta1 2.878924 1_655
Al18 Al9 2.883110 1_655
Al18 Al32 3.004170 1_554
Al18 Al25 3.004318 1_555
Al18 Mg3 3.129972 1_555
Al18 Mg2 3.130038 1_555
Al18 Mg4 3.220917 1_555
Al19 Al22 2.754957 1_555
Al19 Ta3 2.878889 1_556
Al19 Al9 2.883163 1_556
Al19 Al27 3.004186 1_545
Al19 Al35 3.004231 1_455
Al19 Mg1 3.129919 1_555
Al19 Mg0 3.129949 1_555
Al19 Mg4 3.220856 1_555
Al20 Al3 2.718263 1_555
Al20 Al23 2.737106 1_555
Al20 Ta1 2.878957 1_555
Al20 Al6 2.883169 1_555
Al20 Al30 3.004171 1_554
Al20 Al25 3.004220 1_455
Al20 Mg2 3.129976 1_555
Al20 Mg0 3.130009 1_555
Al20 Mg4 3.220993 1_555
Al21 Al22 2.737031 1_555
Al21 Ta2 2.878920 1_655
Al21 Al7 2.883113 1_655
Al21 Al28 3.004169 1_545
Al21 Al26 3.004324 1_555
Al21 Mg3 3.129974 1_555
Al21 Mg1 3.130037 1_555
Al21 Mg4 3.220926 1_555
Al22 Ta0 2.878900 1_556
Al22 Al6 2.883140 1_556
Al22 Al24 3.004167 1_545
Al22 Al29 3.004321 1_555
Al22 Mg3 3.129983 1_555
Al22 Mg1 3.130049 1_555
Al22 Mg4 3.220934 1_555
Al23 Al3 2.718388 1_555
Al23 Ta3 2.878890 1_565
Al23 Al7 2.883162 1_565
Al23 Al27 3.004195 1_554
Al23 Al31 3.004231 1_455
Al23 Mg2 3.129916 1_555
Al23 Mg0 3.129945 1_555
Al23 Mg4 3.220855 1_555
Al24 Al27 2.733024 1_555
Al24 Al28 2.757109 1_555
Al24 Al32 2.757112 1_555
Al24 Ta0 2.879705 1_566
Al24 Mg1 3.129189 1_565
Al24 Mg2 3.129191 1_556
Al24 Mg5 3.220260 1_555
Al25 Al26 2.732947 1_555
Al25 Al34 2.757096 1_555
Al25 Al31 2.757207 1_555
Al25 Ta1 2.879670 1_655
Al25 Al3 2.884572 1_655
Al25 Mg3 3.129145 1_555
Al25 Mg0 3.129260 1_655
Al25 Mg5 3.220156 1_555
Al26 Al29 2.757097 1_555
Al26 Al35 2.757206 1_555
Al26 Ta2 2.879666 1_655
Al26 Mg3 3.129159 1_555
Al26 Mg0 3.129252 1_655
Al26 Mg5 3.220156 1_555
Al27 Al33 2.757181 1_555
Al27 Al30 2.757183 1_555
Al27 Ta3 2.879655 1_566
Al27 Al3 2.884627 1_556
Al27 Mg1 3.129116 1_565
Al27 Mg2 3.129126 1_556
Al27 Mg5 3.220120 1_555
Al28 Al7 2.717832 1_665
Al28 Al31 2.733022 1_555
Al28 Al32 2.757134 1_555
Al28 Ta2 2.879718 1_665
Al28 Al4 2.884657 1_655
Al28 Mg1 3.129170 1_565
Al28 Mg0 3.129197 1_655
Al28 Mg5 3.220236 1_555
Al29 Al6 2.717883 1_556
Al29 Al30 2.732949 1_555
Al29 Al35 2.757184 1_555
Al29 Ta0 2.879654 1_556
Al29 Al5 2.884560 1_556
Al29 Mg3 3.129176 1_555
Al29 Mg2 3.129248 1_556
Al29 Mg5 3.220177 1_555
Al30 Al6 2.717871 1_556
Al30 Al33 2.757102 1_555
Al30 Ta1 2.879681 1_556
Al30 Al4 2.884612 1_555
Al30 Mg3 3.129164 1_555
Al30 Mg2 3.129230 1_556
Al30 Mg5 3.220165 1_555
Al31 Al7 2.717952 1_665
Al31 Al34 2.757179 1_555
Al31 Ta3 2.879645 1_665
Al31 Al5 2.884599 1_565
Al31 Mg1 3.129113 1_565
Al31 Mg0 3.129140 1_655
Al31 Mg5 3.220105 1_555
Al32 Al9 2.717827 1_656
Al32 Al35 2.733021 1_555
Al32 Ta1 2.879714 1_656
Al32 Al4 2.884647 1_655
Al32 Mg2 3.129171 1_556
Al32 Mg0 3.129203 1_655
Al32 Mg5 3.220241 1_555
Al33 Al8 2.717872 1_565
Al33 Al34 2.732948 1_555
Al33 Ta2 2.879676 1_565
Al33 Al4 2.884610 1_555
Al33 Mg3 3.129166 1_555
Al33 Mg1 3.129233 1_565
Al33 Mg5 3.220174 1_555
Al34 Al8 2.717883 1_565
Al34 Ta0 2.879656 1_565
Al34 Al5 2.884561 1_565
Al34 Mg3 3.129176 1_555
Al34 Mg1 3.129246 1_565
Al34 Mg5 3.220183 1_555
Al35 Al9 2.717951 1_656
Al35 Ta3 2.879645 1_656
Al35 Al5 2.884596 1_556
Al35 Mg2 3.129112 1_556
Al35 Mg0 3.129140 1_655
Al35 Mg5 3.220103 1_555
