# generated using pymatgen
data_CeHfMg6
_symmetry_space_group_name_H-M   'P 1'
_cell_length_a   5.20419000
_cell_length_b   6.11456600
_cell_length_c   11.99709100
_cell_angle_alpha   90.00000000
_cell_angle_beta   90.00000000
_cell_angle_gamma   90.00000000
_symmetry_Int_Tables_number   1
_chemical_formula_structural   CeHfMg6
_chemical_formula_sum   'Ce2 Hf2 Mg12'
_cell_volume   381.76379043
_cell_formula_units_Z   2
loop_
 _symmetry_equiv_pos_site_id
 _symmetry_equiv_pos_as_xyz
  1  'x, y, z'
loop_
 _atom_site_type_symbol
 _atom_site_label
 _atom_site_symmetry_multiplicity
 _atom_site_fract_x
 _atom_site_fract_y
 _atom_site_fract_z
 _atom_site_occupancy
  Ce  Ce0  1  0.50000000  0.00000000  0.17509400  1
  Ce  Ce1  1  0.50000000  0.50000000  0.67509400  1
  Hf  Hf0  1  0.50000000  0.50000000  0.16782900  1
  Hf  Hf1  1  0.50000000  0.00000000  0.66782900  1
  Mg  Mg0  1  0.50000000  0.25110900  0.42315700  1
  Mg  Mg1  1  0.50000000  0.74889100  0.42315700  1
  Mg  Mg2  1  0.00000000  0.74449500  0.07742500  1
  Mg  Mg3  1  0.00000000  0.25550500  0.07742500  1
  Mg  Mg4  1  0.00000000  0.00000000  0.33696500  1
  Mg  Mg5  1  0.00000000  0.50000000  0.31894400  1
  Mg  Mg6  1  0.50000000  0.75110900  0.92315700  1
  Mg  Mg7  1  0.50000000  0.24889100  0.92315700  1
  Mg  Mg8  1  0.00000000  0.24449500  0.57742500  1
  Mg  Mg9  1  0.00000000  0.75550500  0.57742500  1
  Mg  Mg10  1  0.00000000  0.50000000  0.83696500  1
  Mg  Mg11  1  0.00000000  0.00000000  0.81894400  1
loop_
_geom_bond_atom_site_label_1
_geom_bond_atom_site_label_2
_geom_bond_distance
_geom_bond_site_symmetry_2
Ce0 Hf0 3.058525 1_555
Ce0 Hf0 3.058525 1_545
Ce0 Mg4 3.246874 1_555
Ce0 Mg4 3.246874 1_655
Ce0 Mg3 3.253409 1_555
Ce0 Mg3 3.253409 1_655
Ce0 Mg2 3.253409 1_645
Ce0 Mg2 3.253409 1_545
Ce0 Mg0 3.348776 1_555
Ce0 Mg1 3.348776 1_545
Ce0 Mg7 3.384026 1_554
Ce0 Mg6 3.384026 1_544
Ce1 Hf1 3.058525 1_555
Ce1 Hf1 3.058525 1_565
Ce1 Mg10 3.246874 1_555
Ce1 Mg10 3.246874 1_655
Ce1 Mg9 3.253409 1_655
Ce1 Mg8 3.253409 1_555
Ce1 Mg8 3.253409 1_655
Ce1 Mg9 3.253409 1_555
Ce1 Mg7 3.348776 1_555
Ce1 Mg6 3.348776 1_555
Ce1 Mg0 3.384026 1_555
Ce1 Mg1 3.384026 1_555
Hf0 Mg5 3.171380 1_555
Hf0 Mg5 3.171380 1_655
Hf0 Mg3 3.190955 1_655
Hf0 Mg2 3.190955 1_555
Hf0 Mg2 3.190955 1_655
Hf0 Mg3 3.190955 1_555
Hf0 Mg7 3.312675 1_554
Hf0 Mg6 3.312675 1_554
Hf0 Mg1 3.420411 1_555
Hf0 Mg0 3.420411 1_555
Hf1 Mg11 3.171380 1_555
Hf1 Mg11 3.171380 1_655
Hf1 Mg8 3.190955 1_555
Hf1 Mg8 3.190955 1_655
Hf1 Mg9 3.190955 1_645
Hf1 Mg9 3.190955 1_545
Hf1 Mg0 3.312675 1_555
Hf1 Mg1 3.312675 1_545
Hf1 Mg6 3.420411 1_545
Hf1 Mg7 3.420411 1_555
Mg0 Mg1 3.043721 1_555
Mg0 Mg1 3.070845 1_545
Mg0 Mg4 3.193382 1_655
Mg0 Mg4 3.193382 1_555
Mg0 Mg8 3.193411 1_555
Mg0 Mg8 3.193411 1_655
Mg0 Mg5 3.263448 1_555
Mg0 Mg5 3.263448 1_655
Mg1 Mg4 3.193382 1_665
Mg1 Mg4 3.193382 1_565
Mg1 Mg9 3.193411 1_655
Mg1 Mg9 3.193411 1_555
Mg1 Mg5 3.263448 1_555
Mg1 Mg5 3.263448 1_655
Mg2 Mg3 2.989962 1_555
Mg2 Mg3 3.124604 1_565
Mg2 Mg6 3.193411 1_554
Mg2 Mg6 3.193411 1_454
Mg2 Mg5 3.260463 1_555
Mg2 Mg4 3.483686 1_565
Mg3 Mg7 3.193411 1_554
Mg3 Mg7 3.193411 1_454
Mg3 Mg5 3.260463 1_555
Mg3 Mg4 3.483686 1_555
Mg4 Mg5 3.064918 1_555
Mg4 Mg5 3.064918 1_545
Mg4 Mg9 3.249178 1_545
Mg4 Mg8 3.249178 1_555
Mg5 Mg9 3.472335 1_555
Mg5 Mg8 3.472335 1_555
Mg6 Mg7 3.043721 1_565
Mg6 Mg7 3.070845 1_555
Mg8 Mg9 2.989962 1_545
Mg8 Mg9 3.124604 1_555
Mg10 Mg11 3.064918 1_565
Mg10 Mg11 3.064918 1_555
Mg10 Mg6 3.193382 1_455
Mg10 Mg6 3.193382 1_555
Mg10 Mg7 3.193382 1_455
Mg10 Mg7 3.193382 1_555
Mg10 Mg3 3.249178 1_556
Mg10 Mg2 3.249178 1_556
Mg10 Mg8 3.483686 1_555
Mg10 Mg9 3.483686 1_555
Mg11 Mg8 3.260463 1_555
Mg11 Mg9 3.260463 1_545
Mg11 Mg7 3.263448 1_555
Mg11 Mg6 3.263448 1_445
Mg11 Mg6 3.263448 1_545
Mg11 Mg7 3.263448 1_455
Mg11 Mg3 3.472335 1_556
Mg11 Mg2 3.472335 1_546
