# generated using pymatgen
data_Te2Cl
_symmetry_space_group_name_H-M   'P 1'
_cell_length_a   3.98353036
_cell_length_b   12.70098381
_cell_length_c   15.61972978
_cell_angle_alpha   90.00000000
_cell_angle_beta   90.00000000
_cell_angle_gamma   90.00000000
_symmetry_Int_Tables_number   1
_chemical_formula_structural   Te2Cl
_chemical_formula_sum   'Te16 Cl8'
_cell_volume   790.27639528
_cell_formula_units_Z   8
loop_
 _symmetry_equiv_pos_site_id
 _symmetry_equiv_pos_as_xyz
  1  'x, y, z'
loop_
 _atom_site_type_symbol
 _atom_site_label
 _atom_site_symmetry_multiplicity
 _atom_site_fract_x
 _atom_site_fract_y
 _atom_site_fract_z
 _atom_site_occupancy
  Te  Te0  1  0.25000000  0.07936788  0.09387993  1
  Te  Te1  1  0.75000000  0.92063212  0.90612007  1
  Te  Te2  1  0.75000000  0.57936788  0.40612007  1
  Te  Te3  1  0.25000000  0.42063212  0.59387993  1
  Te  Te4  1  0.25000000  0.69942444  0.17971538  1
  Te  Te5  1  0.75000000  0.30057556  0.82028462  1
  Te  Te6  1  0.75000000  0.19942444  0.32028462  1
  Te  Te7  1  0.25000000  0.80057556  0.67971538  1
  Te  Te8  1  0.25000000  0.73859622  0.42199483  1
  Te  Te9  1  0.75000000  0.26140378  0.57800517  1
  Te  Te10  1  0.75000000  0.23859622  0.07800517  1
  Te  Te11  1  0.25000000  0.76140378  0.92199483  1
  Te  Te12  1  0.25000000  0.04775668  0.28397087  1
  Te  Te13  1  0.75000000  0.95224332  0.71602913  1
  Te  Te14  1  0.75000000  0.54775668  0.21602913  1
  Te  Te15  1  0.25000000  0.45224332  0.78397087  1
  Cl  Cl0  1  0.25000000  0.39095086  0.05770764  1
  Cl  Cl1  1  0.75000000  0.60904914  0.94229236  1
  Cl  Cl2  1  0.75000000  0.89095086  0.44229236  1
  Cl  Cl3  1  0.25000000  0.10904914  0.55770764  1
  Cl  Cl4  1  0.25000000  0.35918111  0.34762989  1
  Cl  Cl5  1  0.75000000  0.64081889  0.65237011  1
  Cl  Cl6  1  0.75000000  0.85918111  0.15237011  1
  Cl  Cl7  1  0.25000000  0.14081889  0.84762989  1
loop_
_geom_bond_atom_site_label_1
_geom_bond_atom_site_label_2
_geom_bond_distance
_geom_bond_site_symmetry_2
Te0 Te10 2.849305 1_555
Te0 Te10 2.849305 1_455
Te0 Te12 2.996191 1_555
Te1 Te11 2.849305 1_555
Te1 Te11 2.849305 1_655
Te1 Te13 2.996191 1_555
Te2 Te8 2.849305 1_555
Te2 Te8 2.849305 1_655
Te3 Te9 2.849305 1_555
Te3 Te9 2.849305 1_455
Te12 Te6 2.828357 1_555
Te12 Te6 2.828357 1_455
Te13 Te7 2.828357 1_655
Te13 Te7 2.828357 1_555
Te14 Te4 2.828357 1_555
Te14 Te4 2.828357 1_655
Te14 Te2 2.996191 1_555
Te15 Te5 2.828357 1_555
Te15 Te5 2.828357 1_455
Te15 Te3 2.996191 1_555
Cl0 Te10 2.795009 1_455
Cl0 Te10 2.795009 1_555
Cl1 Te11 2.795009 1_555
Cl1 Te11 2.795009 1_655
Cl2 Te8 2.795009 1_655
Cl2 Te8 2.795009 1_555
Cl3 Te9 2.795009 1_555
Cl3 Te9 2.795009 1_455
Cl4 Te6 2.875183 1_555
Cl4 Te6 2.875183 1_455
Cl5 Te7 2.875183 1_555
Cl5 Te7 2.875183 1_655
Cl6 Te4 2.875183 1_655
Cl6 Te4 2.875183 1_555
Cl7 Te5 2.875183 1_555
Cl7 Te5 2.875183 1_455
