# generated using pymatgen
data_LaGe5
_symmetry_space_group_name_H-M   'P 1'
_cell_length_a   3.99029051
_cell_length_b   6.26057540
_cell_length_c   6.26057540
_cell_angle_alpha   60.79334687
_cell_angle_beta   71.41664723
_cell_angle_gamma   71.41664723
_symmetry_Int_Tables_number   1
_chemical_formula_structural   LaGe5
_chemical_formula_sum   'La1 Ge5'
_cell_volume   126.85553287
_cell_formula_units_Z   1
loop_
 _symmetry_equiv_pos_site_id
 _symmetry_equiv_pos_as_xyz
  1  'x, y, z'
loop_
 _atom_site_type_symbol
 _atom_site_label
 _atom_site_symmetry_multiplicity
 _atom_site_fract_x
 _atom_site_fract_y
 _atom_site_fract_z
 _atom_site_occupancy
  La  La0  1  0.00000000  -0.00000000  -0.00000000  1
  Ge  Ge0  1  0.67327555  0.12938198  0.52406693  1
  Ge  Ge1  1  0.32672445  0.87061802  0.47593307  1
  Ge  Ge2  1  0.67327555  0.52406693  0.12938198  1
  Ge  Ge3  1  0.32672445  0.47593307  0.87061802  1
  Ge  Ge4  1  0.00000000  0.50000000  0.50000000  1
loop_
_geom_bond_atom_site_label_1
_geom_bond_atom_site_label_2
_geom_bond_distance
_geom_bond_site_symmetry_2
Ge0 Ge2 2.500526 1_555
Ge0 Ge1 2.607175 1_545
Ge0 Ge1 2.607175 1_645
Ge0 Ge4 2.927075 1_655
Ge0 Ge4 2.927075 1_555
Ge0 La0 3.268236 1_656
Ge0 La0 3.268236 1_556
Ge0 La0 3.509233 1_655
Ge1 Ge3 2.500526 1_555
Ge1 Ge4 2.927075 1_555
Ge1 Ge4 2.927075 1_655
Ge1 La0 3.268236 1_565
Ge1 La0 3.268236 1_665
Ge1 La0 3.509233 1_566
Ge2 Ge3 2.607175 1_554
Ge2 Ge3 2.607175 1_654
Ge2 Ge4 2.927075 1_655
Ge2 Ge4 2.927075 1_555
Ge2 La0 3.268236 1_665
Ge2 La0 3.268236 1_565
Ge2 La0 3.509233 1_655
Ge3 Ge4 2.927075 1_555
Ge3 Ge4 2.927075 1_655
Ge3 La0 3.268236 1_556
Ge3 La0 3.268236 1_656
Ge3 La0 3.509233 1_566
Ge4 La0 3.167749 1_556
Ge4 La0 3.167749 1_565
