# generated using pymatgen
data_Mg14VBi
_symmetry_space_group_name_H-M   'P 1'
_cell_length_a   6.32987970
_cell_length_b   6.32987920
_cell_length_c   10.42464313
_cell_angle_alpha   90.00000000
_cell_angle_beta   90.00000000
_cell_angle_gamma   120.00000264
_symmetry_Int_Tables_number   1
_chemical_formula_structural   Mg14VBi
_chemical_formula_sum   'Mg14 V1 Bi1'
_cell_volume   361.72847266
_cell_formula_units_Z   1
loop_
 _symmetry_equiv_pos_site_id
 _symmetry_equiv_pos_as_xyz
  1  'x, y, z'
loop_
 _atom_site_type_symbol
 _atom_site_label
 _atom_site_symmetry_multiplicity
 _atom_site_fract_x
 _atom_site_fract_y
 _atom_site_fract_z
 _atom_site_occupancy
  Mg  Mg0  1  0.16652993  0.83326447  0.12500000  1
  Mg  Mg1  1  0.16554352  0.83277126  0.62500000  1
  Mg  Mg2  1  0.66673553  0.33347007  0.12500000  1
  Mg  Mg3  1  0.66722874  0.33445648  0.62500000  1
  Mg  Mg4  1  0.66673553  0.83326447  0.12500000  1
  Mg  Mg5  1  0.66722874  0.83277126  0.62500000  1
  Mg  Mg6  1  0.33237550  0.16762450  0.36536708  1
  Mg  Mg7  1  0.33237550  0.16762450  0.88463292  1
  Mg  Mg8  1  0.33237550  0.66475201  0.36536708  1
  Mg  Mg9  1  0.33237550  0.66475201  0.88463292  1
  Mg  Mg10  1  0.83524799  0.16762450  0.36536708  1
  Mg  Mg11  1  0.83524799  0.16762450  0.88463292  1
  Mg  Mg12  1  0.83333300  0.66666700  0.37471382  1
  Mg  Mg13  1  0.83333300  0.66666700  0.87528618  1
  V  V0  1  0.16666700  0.33333300  0.12500000  1
  Bi  Bi0  1  0.16666700  0.33333300  0.62500000  1
loop_
_geom_bond_atom_site_label_1
_geom_bond_atom_site_label_2
_geom_bond_distance
_geom_bond_site_symmetry_2
Mg0 Mg8 3.104564 1_555
Mg0 Mg9 3.104564 1_554
Mg0 Mg7 3.104570 1_564
Mg0 Mg6 3.104570 1_565
Mg0 Mg2 3.163638 1_455
Mg0 Mg4 3.163638 1_455
Mg0 V0 3.164940 1_565
Mg0 V0 3.164940 1_555
Mg0 Mg2 3.166241 1_565
Mg0 Mg4 3.166241 1_555
Mg0 Mg13 3.180055 1_454
Mg0 Mg12 3.180055 1_455
Mg1 Mg12 3.181843 1_455
Mg1 Mg13 3.181843 1_455
Mg1 Mg8 3.270324 1_555
Mg1 Mg9 3.270324 1_555
Mg1 Mg6 3.270330 1_565
Mg1 Mg7 3.270330 1_565
Mg2 Mg7 3.104570 1_554
Mg2 Mg6 3.104570 1_555
Mg2 Mg4 3.163638 1_555
Mg2 V0 3.164940 1_555
Mg2 V0 3.164940 1_655
Mg2 Mg4 3.166241 1_545
Mg3 Mg6 3.270330 1_555
Mg3 Mg7 3.270330 1_555
Mg4 Mg9 3.104570 1_554
Mg4 Mg8 3.104570 1_555
Mg4 V0 3.164940 1_665
Mg4 V0 3.164940 1_555
Mg5 Mg9 3.270330 1_555
Mg5 Mg8 3.270330 1_555
Mg6 V0 3.095061 1_555
Mg6 Mg8 3.146757 1_555
Mg6 Mg8 3.183122 1_545
Mg7 V0 3.095061 1_556
Mg7 Mg9 3.146757 1_555
Mg7 Mg9 3.183122 1_545
Mg8 V0 3.095068 1_555
Mg9 V0 3.095068 1_556
Mg10 V0 3.095068 1_655
Mg10 Mg2 3.104564 1_555
Mg10 Mg4 3.104570 1_545
Mg10 Mg8 3.146757 1_655
Mg10 Mg6 3.146757 1_655
Mg10 Mg12 3.166456 1_555
Mg10 Mg12 3.166457 1_545
Mg10 Mg8 3.183122 1_545
Mg10 Mg6 3.183122 1_555
Mg10 Mg3 3.270324 1_555
Mg10 Mg5 3.270330 1_545
Mg11 V0 3.095068 1_656
Mg11 Mg2 3.104564 1_556
Mg11 Mg4 3.104570 1_546
Mg11 Mg9 3.146757 1_655
Mg11 Mg7 3.146757 1_655
Mg11 Mg13 3.166456 1_555
Mg11 Mg13 3.166457 1_545
Mg11 Mg9 3.183122 1_545
Mg11 Mg7 3.183122 1_555
Mg11 Mg3 3.270324 1_555
Mg11 Mg5 3.270330 1_545
Mg12 Mg6 3.166456 1_665
Mg12 Mg6 3.166456 1_555
Mg12 Mg8 3.166457 1_655
Mg12 Mg8 3.166457 1_555
Mg12 Mg4 3.180049 1_555
Mg12 Mg2 3.180055 1_555
Mg12 Mg5 3.181837 1_555
Mg12 Mg3 3.181843 1_555
Mg13 Mg7 3.166456 1_665
Mg13 Mg7 3.166456 1_555
Mg13 Mg9 3.166457 1_655
Mg13 Mg9 3.166457 1_555
Mg13 Mg4 3.180049 1_556
Mg13 Mg2 3.180055 1_556
Mg13 Mg5 3.181837 1_555
Mg13 Mg3 3.181843 1_555
Bi0 Mg5 3.164946 1_445
Bi0 Mg1 3.164946 1_545
Bi0 Mg1 3.164946 1_555
Bi0 Mg5 3.164946 1_555
Bi0 Mg3 3.164946 1_455
Bi0 Mg3 3.164946 1_555
Bi0 Mg7 3.259792 1_555
Bi0 Mg6 3.259792 1_555
Bi0 Mg8 3.259798 1_555
Bi0 Mg9 3.259798 1_555
Bi0 Mg10 3.259798 1_455
Bi0 Mg11 3.259798 1_455
