# generated using pymatgen
data_Cs2CrH4F10
_symmetry_space_group_name_H-M   'P 1'
_cell_length_a   7.22049800
_cell_length_b   7.77087828
_cell_length_c   9.93414845
_cell_angle_alpha   106.72862134
_cell_angle_beta   90.00000000
_cell_angle_gamma   90.00000000
_symmetry_Int_Tables_number   1
_chemical_formula_structural   Cs2CrH4F10
_chemical_formula_sum   'Cs4 Cr2 H8 F20'
_cell_volume   533.81133404
_cell_formula_units_Z   2
loop_
 _symmetry_equiv_pos_site_id
 _symmetry_equiv_pos_as_xyz
  1  'x, y, z'
loop_
 _atom_site_type_symbol
 _atom_site_label
 _atom_site_symmetry_multiplicity
 _atom_site_fract_x
 _atom_site_fract_y
 _atom_site_fract_z
 _atom_site_occupancy
  Cs  Cs0  1  0.78353700  0.47480600  0.83494300  1
  Cs  Cs1  1  0.71646300  0.97480600  0.33494300  1
  Cs  Cs2  1  0.21646300  0.52519400  0.16505700  1
  Cs  Cs3  1  0.28353700  0.02519400  0.66505700  1
  Cr  Cr0  1  0.50000000  0.50000000  0.50000000  1
  Cr  Cr1  1  0.00000000  0.00000000  0.00000000  1
  H  H0  1  0.29599000  0.54823200  0.76768700  1
  H  H1  1  0.20401000  0.04823200  0.26768700  1
  H  H2  1  0.70401000  0.45176800  0.23231300  1
  H  H3  1  0.79599000  0.95176800  0.73231300  1
  H  H4  1  0.59670500  0.16539700  0.00491700  1
  H  H5  1  0.90329500  0.66539700  0.50491700  1
  H  H6  1  0.40329500  0.83460300  0.99508300  1
  H  H7  1  0.09670500  0.33460300  0.49508300  1
  F  F0  1  0.26056700  0.42425300  0.44468500  1
  F  F1  1  0.23943300  0.92425300  0.94468500  1
  F  F2  1  0.73943300  0.57574700  0.55531500  1
  F  F3  1  0.76056700  0.07574700  0.05531500  1
  F  F4  1  0.53549400  0.30261600  0.56177000  1
  F  F5  1  0.96450600  0.80261600  0.06177000  1
  F  F6  1  0.46450600  0.69738400  0.43823000  1
  F  F7  1  0.03549400  0.19738400  0.93823000  1
  F  F8  1  0.41079800  0.62898200  0.68083200  1
  F  F9  1  0.08920200  0.12898200  0.18083200  1
  F  F10  1  0.58920200  0.37101800  0.31916800  1
  F  F11  1  0.91079800  0.87101800  0.81916800  1
  F  F12  1  0.22569800  0.48345100  0.82299900  1
  F  F13  1  0.27430200  0.98345100  0.32299900  1
  F  F14  1  0.77430200  0.51654900  0.17700100  1
  F  F15  1  0.72569800  0.01654900  0.67700100  1
  F  F16  1  0.50501200  0.23441800  0.97089900  1
  F  F17  1  0.99498800  0.73441800  0.47089900  1
  F  F18  1  0.49498800  0.76558200  0.02910100  1
  F  F19  1  0.00501200  0.26558200  0.52910100  1
loop_
_geom_bond_atom_site_label_1
_geom_bond_atom_site_label_2
_geom_bond_distance
_geom_bond_site_symmetry_2
Cs0 F2 3.112493 1_555
Cs0 F5 3.157468 1_556
Cs0 F12 3.196251 1_655
Cs0 F4 3.205010 1_555
Cs0 F7 3.206780 1_655
Cs0 F11 3.259815 1_555
Cs0 F18 3.264636 1_556
Cs0 F16 3.287941 1_555
Cs0 F14 3.319925 1_556
Cs0 F19 3.404133 1_655
Cs0 F8 3.475427 1_555
Cs0 F15 3.478628 1_555
Cs1 F3 3.112493 1_565
Cs1 F4 3.157468 1_565
Cs1 F13 3.196251 1_555
Cs1 F5 3.205010 1_555
Cs1 F6 3.206780 1_555
Cs1 F10 3.259815 1_565
Cs1 F19 3.264636 1_665
Cs1 F17 3.287941 1_555
Cs1 F15 3.319925 1_565
Cs1 F18 3.404133 1_555
Cs1 F9 3.475427 1_665
Cs1 F14 3.478628 1_555
Cs2 F0 3.112493 1_555
Cs2 F7 3.157468 1_554
Cs2 F14 3.196251 1_455
Cs2 F6 3.205010 1_555
Cs2 F5 3.206780 1_455
Cs2 F9 3.259815 1_555
Cs2 F16 3.264636 1_554
Cs2 F18 3.287941 1_555
Cs2 F12 3.319925 1_554
Cs2 F17 3.404133 1_455
Cs2 F10 3.475427 1_555
Cs2 F13 3.478628 1_555
Cs3 F1 3.112493 1_545
Cs3 F6 3.157468 1_545
Cs3 F15 3.196251 1_555
Cs3 F7 3.205010 1_555
Cs3 F4 3.206780 1_555
Cs3 F8 3.259815 1_545
Cs3 F17 3.264636 1_445
Cs3 F19 3.287941 1_555
Cs3 F13 3.319925 1_545
Cs3 F16 3.404133 1_555
Cs3 F11 3.475427 1_445
Cs3 F12 3.478628 1_555
Cr0 F6 1.826678 1_555
Cr0 F4 1.826678 1_555
Cr0 F2 1.857705 1_555
Cr0 F0 1.857705 1_555
Cr0 F10 1.900004 1_555
Cr0 F8 1.900004 1_555
Cr1 F5 1.826678 1_445
Cr1 F7 1.826678 1_554
Cr1 F1 1.857705 1_544
Cr1 F3 1.857705 1_455
Cr1 F9 1.900004 1_555
Cr1 F11 1.900004 1_444
F0 H7 1.528616 1_555
F1 H6 1.528616 1_555
F2 H5 1.528616 1_555
F3 H4 1.528616 1_555
F8 H0 1.461886 1_555
F9 H1 1.461886 1_555
F10 H2 1.461886 1_555
F11 H3 1.461886 1_555
F12 H0 0.985992 1_555
F13 H1 0.985992 1_565
F14 H2 0.985992 1_555
F15 H3 0.985992 1_545
F16 H4 0.971884 1_556
F17 H5 0.971884 1_555
F18 H6 0.971884 1_554
F19 H7 0.971884 1_555
