# generated using pymatgen
data_K2Mo3SO17
_symmetry_space_group_name_H-M   'P 1'
_cell_length_a   10.95157500
_cell_length_b   9.39252900
_cell_length_c   17.04448810
_cell_angle_alpha   67.51537988
_cell_angle_beta   90.00000000
_cell_angle_gamma   90.00000000
_symmetry_Int_Tables_number   1
_chemical_formula_structural   K2Mo3SO17
_chemical_formula_sum   'K8 Mo12 S4 O68'
_cell_volume   1619.96900195
_cell_formula_units_Z   4
loop_
 _symmetry_equiv_pos_site_id
 _symmetry_equiv_pos_as_xyz
  1  'x, y, z'
loop_
 _atom_site_type_symbol
 _atom_site_label
 _atom_site_symmetry_multiplicity
 _atom_site_fract_x
 _atom_site_fract_y
 _atom_site_fract_z
 _atom_site_occupancy
  K  K0  1  0.72201100  0.98069800  0.50106300  1
  K  K1  1  0.27798900  0.01930200  0.49893700  1
  K  K2  1  0.22201100  0.01930200  0.99893700  1
  K  K3  1  0.77798900  0.98069800  0.00106300  1
  K  K4  1  0.00096500  0.62911200  0.64250800  1
  K  K5  1  0.99903500  0.37088800  0.35749200  1
  K  K6  1  0.49903500  0.62911200  0.14250800  1
  K  K7  1  0.50096500  0.37088800  0.85749200  1
  Mo  Mo0  1  0.17194900  0.17525100  0.22010400  1
  Mo  Mo1  1  0.82748300  0.17505100  0.21998400  1
  Mo  Mo2  1  0.82805100  0.82474900  0.77989600  1
  Mo  Mo3  1  0.17251700  0.82494900  0.78001600  1
  Mo  Mo4  1  0.67251700  0.17505100  0.71998400  1
  Mo  Mo5  1  0.32805100  0.17525100  0.72010400  1
  Mo  Mo6  1  0.32748300  0.82494900  0.28001600  1
  Mo  Mo7  1  0.67194900  0.82474900  0.27989600  1
  Mo  Mo8  1  0.99998800  0.86642800  0.21170300  1
  Mo  Mo9  1  0.00001200  0.13357200  0.78829700  1
  Mo  Mo10  1  0.50001200  0.86642800  0.71170300  1
  Mo  Mo11  1  0.49998800  0.13357200  0.28829700  1
  S  S0  1  0.99987400  0.93766900  0.39198600  1
  S  S1  1  0.00012600  0.06233100  0.60801400  1
  S  S2  1  0.50012600  0.93766900  0.89198600  1
  S  S3  1  0.49987400  0.06233100  0.10801400  1
  O  O0  1  0.99972900  0.33075800  0.75870400  1
  O  O1  1  0.00027100  0.66924200  0.24129600  1
  O  O2  1  0.50027100  0.33075800  0.25870400  1
  O  O3  1  0.49972900  0.66924200  0.74129600  1
  O  O4  1  0.82753900  0.08009800  0.77568200  1
  O  O5  1  0.17264800  0.08148800  0.77550400  1
  O  O6  1  0.17246100  0.91990200  0.22431800  1
  O  O7  1  0.82735200  0.91851200  0.22449600  1
  O  O8  1  0.32735200  0.08148800  0.27550400  1
  O  O9  1  0.67246100  0.08009800  0.27568200  1
  O  O10  1  0.67264800  0.91851200  0.72449600  1
  O  O11  1  0.32753900  0.91990200  0.72431800  1
  O  O12  1  0.78429500  0.75413600  0.88498100  1
  O  O13  1  0.21605800  0.75478700  0.88503300  1
  O  O14  1  0.21570500  0.24586400  0.11501900  1
  O  O15  1  0.78394200  0.24521300  0.11496700  1
  O  O16  1  0.28394200  0.75478700  0.38503300  1
  O  O17  1  0.71570500  0.75413600  0.38498100  1
  O  O18  1  0.71605800  0.24521300  0.61496700  1
  O  O19  1  0.28429500  0.24586400  0.61501900  1
  O  O20  1  0.00120800  0.14812200  0.51647400  1
  O  O21  1  0.99879200  0.85187800  0.48352600  1
  O  O22  1  0.49879200  0.14812200  0.01647400  1
  O  O23  1  0.50120800  0.85187800  0.98352600  1
  O  O24  1  0.49692900  0.62008300  0.52936800  1
  O  O25  1  0.50307100  0.37991700  0.47063200  1
  O  O26  1  0.00307100  0.62008300  0.02936800  1
  O  O27  1  0.99692900  0.37991700  0.97063200  1
  O  O28  1  0.83957400  0.66131200  0.75640800  1
  O  O29  1  0.16144700  0.66122100  0.75682600  1
  O  O30  1  0.16042600  0.33868800  0.24359200  1
  O  O31  1  0.83855300  0.33877900  0.24317400  1
  O  O32  1  0.33855300  0.66122100  0.25682600  1
  O  O33  1  0.66042600  0.66131200  0.25640800  1
  O  O34  1  0.66144700  0.33877900  0.74317400  1
  O  O35  1  0.33957400  0.33868800  0.74359200  1
  O  O36  1  0.05630400  0.49978700  0.50007300  1
  O  O37  1  0.94369600  0.50021300  0.49992700  1
  O  O38  1  0.55630400  0.50021300  0.99992700  1
  O  O39  1  0.44369600  0.49978700  0.00007300  1
  O  O40  1  0.00017900  0.87541000  0.79454900  1
  O  O41  1  0.99982100  0.12459000  0.20545100  1
  O  O42  1  0.49982100  0.87541000  0.29454900  1
  O  O43  1  0.50017900  0.12459000  0.70545100  1
  O  O44  1  0.88869900  0.96089600  0.63494900  1
  O  O45  1  0.11173100  0.96121200  0.63558900  1
  O  O46  1  0.11130100  0.03910400  0.36505100  1
  O  O47  1  0.88826900  0.03878800  0.36441100  1
  O  O48  1  0.38826900  0.96121200  0.13558900  1
  O  O49  1  0.61130100  0.96089600  0.13494900  1
  O  O50  1  0.61173100  0.03878800  0.86441100  1
  O  O51  1  0.38869900  0.03910400  0.86505100  1
  O  O52  1  0.99956200  0.17323300  0.65237900  1
  O  O53  1  0.00043800  0.82676700  0.34762100  1
  O  O54  1  0.50043800  0.17323300  0.15237900  1
  O  O55  1  0.49956200  0.82676700  0.84762100  1
  O  O56  1  0.60076300  0.63665300  0.56050200  1
  O  O57  1  0.40026100  0.62340000  0.57077300  1
  O  O58  1  0.39923700  0.36334700  0.43949800  1
  O  O59  1  0.59973900  0.37660000  0.42922700  1
  O  O60  1  0.09973900  0.62340000  0.07077300  1
  O  O61  1  0.89923700  0.63665300  0.06050200  1
  O  O62  1  0.90026100  0.37660000  0.92922700  1
  O  O63  1  0.10076300  0.36334700  0.93949800  1
  O  O64  1  0.99987700  0.06230600  0.89967200  1
  O  O65  1  0.00012300  0.93769400  0.10032800  1
  O  O66  1  0.50012300  0.06230600  0.39967200  1
  O  O67  1  0.49987700  0.93769400  0.60032800  1
loop_
_geom_bond_atom_site_label_1
_geom_bond_atom_site_label_2
_geom_bond_distance
_geom_bond_site_symmetry_2
K0 O47 2.840061 1_565
K0 O44 2.872281 1_555
K0 O67 2.901922 1_555
K0 O66 2.909621 1_565
K0 O56 3.275337 1_555
K1 O45 2.840061 1_545
K1 O46 2.872281 1_555
K1 O66 2.901922 1_555
K1 O67 2.909621 1_545
K1 O58 3.275337 1_555
K2 O48 2.840061 1_546
K2 O51 2.872281 1_555
K2 O64 2.901922 1_455
K2 O65 2.909621 1_546
K2 O63 3.275337 1_555
K3 O50 2.840061 1_564
K3 O49 2.872281 1_555
K3 O65 2.901922 1_655
K3 O64 2.909621 1_564
K3 O61 3.275337 1_555
K4 O21 2.717472 1_455
K4 O29 2.725060 1_555
K4 O28 2.726440 1_455
K4 O0 2.744166 1_455
K4 O36 3.161045 1_555
K4 O37 3.164732 1_455
K5 O20 2.717472 1_655
K5 O31 2.725060 1_555
K5 O30 2.726440 1_655
K5 O1 2.744166 1_655
K5 O37 3.161045 1_555
K5 O36 3.164732 1_655
K6 O23 2.717472 1_554
K6 O32 2.725060 1_555
K6 O33 2.726440 1_555
K6 O2 2.744166 1_555
K6 O39 3.161045 1_555
K6 O38 3.164732 1_554
K7 O22 2.717472 1_556
K7 O34 2.725060 1_555
K7 O35 2.726440 1_555
K7 O3 2.744166 1_555
K7 O38 3.161045 1_555
K7 O39 3.164732 1_556
Mo0 O14 1.723080 1_555
Mo0 O30 1.732844 1_555
Mo0 O8 1.981830 1_555
Mo0 O41 1.983228 1_455
Mo0 O6 2.371840 1_545
Mo0 O46 2.400745 1_555
Mo1 O15 1.721450 1_555
Mo1 O31 1.732264 1_555
Mo1 O9 1.982765 1_555
Mo1 O41 1.984431 1_555
Mo1 O7 2.381200 1_545
Mo1 O47 2.394008 1_555
Mo2 O12 1.723080 1_555
Mo2 O28 1.732844 1_555
Mo2 O10 1.981830 1_555
Mo2 O40 1.983228 1_655
Mo2 O4 2.371840 1_565
Mo2 O44 2.400745 1_555
Mo3 O13 1.721450 1_555
Mo3 O29 1.732264 1_555
Mo3 O11 1.982765 1_555
Mo3 O40 1.984431 1_555
Mo3 O5 2.381200 1_565
Mo3 O45 2.394008 1_555
Mo4 O18 1.721450 1_555
Mo4 O34 1.732264 1_555
Mo4 O4 1.982765 1_555
Mo4 O43 1.984431 1_555
Mo4 O10 2.381200 1_545
Mo4 O50 2.394008 1_555
Mo5 O19 1.723080 1_555
Mo5 O35 1.732844 1_555
Mo5 O5 1.981830 1_555
Mo5 O43 1.983228 1_555
Mo5 O11 2.371840 1_545
Mo5 O51 2.400745 1_555
Mo6 O16 1.721450 1_555
Mo6 O32 1.732264 1_555
Mo6 O6 1.982765 1_555
Mo6 O42 1.984431 1_555
Mo6 O8 2.381200 1_565
Mo6 O48 2.394008 1_555
Mo7 O17 1.723080 1_555
Mo7 O33 1.732844 1_555
Mo7 O7 1.981830 1_555
Mo7 O42 1.983228 1_555
Mo7 O9 2.371840 1_565
Mo7 O49 2.400745 1_555
Mo8 O1 1.723392 1_655
Mo8 O65 1.754937 1_655
Mo8 O7 1.985688 1_555
Mo8 O6 1.987172 1_655
Mo8 O53 2.201271 1_655
Mo8 O41 2.386074 1_565
Mo9 O0 1.723392 1_455
Mo9 O64 1.754937 1_455
Mo9 O5 1.985688 1_555
Mo9 O4 1.987172 1_455
Mo9 O52 2.201271 1_455
Mo9 O40 2.386074 1_545
Mo10 O3 1.723392 1_555
Mo10 O67 1.754937 1_555
Mo10 O10 1.985688 1_555
Mo10 O11 1.987172 1_555
Mo10 O55 2.201271 1_555
Mo10 O43 2.386074 1_565
Mo11 O2 1.723392 1_555
Mo11 O66 1.754937 1_555
Mo11 O8 1.985688 1_555
Mo11 O9 1.987172 1_555
Mo11 O54 2.201271 1_555
Mo11 O42 2.386074 1_545
O20 S1 1.456779 1_555
O21 S0 1.456779 1_555
O22 S3 1.456779 1_555
O23 S2 1.456779 1_555
O24 O57 1.279302 1_555
O24 O56 1.289223 1_555
O25 O59 1.279302 1_555
O25 O58 1.289223 1_555
O26 O60 1.279302 1_555
O26 O61 1.289223 1_455
O27 O62 1.279302 1_555
O27 O63 1.289223 1_655
O36 O37 1.233241 1_455
O38 O39 1.233241 1_556
O44 S1 1.507664 1_665
O45 S1 1.508449 1_565
O46 S0 1.507664 1_445
O47 S0 1.508449 1_545
O48 S3 1.508449 1_565
O49 S3 1.507664 1_565
O50 S2 1.508449 1_545
O51 S2 1.507664 1_545
O52 S1 1.503113 1_655
O53 S0 1.503113 1_455
O54 S3 1.503113 1_555
O55 S2 1.503113 1_555
