# generated using pymatgen
data_Li7BiN4
_symmetry_space_group_name_H-M   'P 1'
_cell_length_a   10.12579000
_cell_length_b   10.12579000
_cell_length_c   10.12579000
_cell_angle_alpha   90.00000000
_cell_angle_beta   90.00000000
_cell_angle_gamma   90.00000000
_symmetry_Int_Tables_number   1
_chemical_formula_structural   Li7BiN4
_chemical_formula_sum   'Li56 Bi8 N32'
_cell_volume   1038.21368411
_cell_formula_units_Z   8
loop_
 _symmetry_equiv_pos_site_id
 _symmetry_equiv_pos_as_xyz
  1  'x, y, z'
loop_
 _atom_site_type_symbol
 _atom_site_label
 _atom_site_symmetry_multiplicity
 _atom_site_fract_x
 _atom_site_fract_y
 _atom_site_fract_z
 _atom_site_occupancy
  Li  Li0  1  0.00000000  0.00000000  0.50000000  1
  Li  Li1  1  0.00000000  0.50000000  0.00000000  1
  Li  Li2  1  0.50000000  0.00000000  0.00000000  1
  Li  Li3  1  0.50000000  0.00000000  0.50000000  1
  Li  Li4  1  0.50000000  0.50000000  0.00000000  1
  Li  Li5  1  0.00000000  0.50000000  0.50000000  1
  Li  Li6  1  0.00000000  0.50000000  0.25000000  1
  Li  Li7  1  0.50000000  0.75000000  0.00000000  1
  Li  Li8  1  0.25000000  0.00000000  0.50000000  1
  Li  Li9  1  0.50000000  0.25000000  0.00000000  1
  Li  Li10  1  0.75000000  0.00000000  0.50000000  1
  Li  Li11  1  0.00000000  0.50000000  0.75000000  1
  Li  Li12  1  0.25387500  0.74612500  0.25387500  1
  Li  Li13  1  0.74612500  0.25387500  0.25387500  1
  Li  Li14  1  0.25387500  0.25387500  0.74612500  1
  Li  Li15  1  0.74612500  0.74612500  0.74612500  1
  Li  Li16  1  0.75387500  0.75387500  0.24612500  1
  Li  Li17  1  0.24612500  0.75387500  0.75387500  1
  Li  Li18  1  0.75387500  0.24612500  0.75387500  1
  Li  Li19  1  0.24612500  0.24612500  0.24612500  1
  Li  Li20  1  0.50000000  0.50000000  0.22961100  1
  Li  Li21  1  0.50000000  0.77038900  0.50000000  1
  Li  Li22  1  0.22961100  0.50000000  0.50000000  1
  Li  Li23  1  0.50000000  0.22961100  0.50000000  1
  Li  Li24  1  0.77038900  0.50000000  0.50000000  1
  Li  Li25  1  0.50000000  0.50000000  0.77038900  1
  Li  Li26  1  0.00000000  0.72961100  0.00000000  1
  Li  Li27  1  0.00000000  0.00000000  0.27038900  1
  Li  Li28  1  0.72961100  0.00000000  0.00000000  1
  Li  Li29  1  0.00000000  0.00000000  0.72961100  1
  Li  Li30  1  0.27038900  0.00000000  0.00000000  1
  Li  Li31  1  0.00000000  0.27038900  0.00000000  1
  Li  Li32  1  0.50446000  0.73015300  0.25127900  1
  Li  Li33  1  0.26984700  0.74872100  0.50446000  1
  Li  Li34  1  0.25127900  0.49554000  0.26984700  1
  Li  Li35  1  0.49554000  0.26984700  0.25127900  1
  Li  Li36  1  0.73015300  0.25127900  0.50446000  1
  Li  Li37  1  0.74872100  0.50446000  0.26984700  1
  Li  Li38  1  0.50446000  0.26984700  0.74872100  1
  Li  Li39  1  0.26984700  0.25127900  0.49554000  1
  Li  Li40  1  0.25127900  0.50446000  0.73015300  1
  Li  Li41  1  0.49554000  0.73015300  0.74872100  1
  Li  Li42  1  0.73015300  0.74872100  0.49554000  1
  Li  Li43  1  0.74872100  0.49554000  0.73015300  1
  Li  Li44  1  0.00446000  0.75127900  0.23015300  1
  Li  Li45  1  0.76984700  0.00446000  0.24872100  1
  Li  Li46  1  0.75127900  0.76984700  0.99554000  1
  Li  Li47  1  0.99554000  0.75127900  0.76984700  1
  Li  Li48  1  0.23015300  0.00446000  0.75127900  1
  Li  Li49  1  0.24872100  0.76984700  0.00446000  1
  Li  Li50  1  0.00446000  0.24872100  0.76984700  1
  Li  Li51  1  0.76984700  0.99554000  0.75127900  1
  Li  Li52  1  0.75127900  0.23015300  0.00446000  1
  Li  Li53  1  0.99554000  0.24872100  0.23015300  1
  Li  Li54  1  0.23015300  0.99554000  0.24872100  1
  Li  Li55  1  0.24872100  0.23015300  0.99554000  1
  Bi  Bi0  1  0.50000000  0.50000000  0.50000000  1
  Bi  Bi1  1  0.00000000  0.00000000  0.00000000  1
  Bi  Bi2  1  0.50000000  0.00000000  0.25000000  1
  Bi  Bi3  1  0.00000000  0.75000000  0.50000000  1
  Bi  Bi4  1  0.25000000  0.50000000  0.00000000  1
  Bi  Bi5  1  0.00000000  0.25000000  0.50000000  1
  Bi  Bi6  1  0.75000000  0.50000000  0.00000000  1
  Bi  Bi7  1  0.50000000  0.00000000  0.75000000  1
  N  N0  1  0.37662100  0.62337900  0.37662100  1
  N  N1  1  0.62337900  0.37662100  0.37662100  1
  N  N2  1  0.37662100  0.37662100  0.62337900  1
  N  N3  1  0.62337900  0.62337900  0.62337900  1
  N  N4  1  0.87662100  0.87662100  0.12337900  1
  N  N5  1  0.12337900  0.87662100  0.87662100  1
  N  N6  1  0.87662100  0.12337900  0.87662100  1
  N  N7  1  0.12337900  0.12337900  0.12337900  1
  N  N8  1  0.37718400  0.87478200  0.12730200  1
  N  N9  1  0.12521800  0.87269800  0.37718400  1
  N  N10  1  0.12730200  0.62281600  0.12521800  1
  N  N11  1  0.62281600  0.12521800  0.12730200  1
  N  N12  1  0.87478200  0.12730200  0.37718400  1
  N  N13  1  0.87269800  0.37718400  0.12521800  1
  N  N14  1  0.37718400  0.12521800  0.87269800  1
  N  N15  1  0.12521800  0.12730200  0.62281600  1
  N  N16  1  0.12730200  0.37718400  0.87478200  1
  N  N17  1  0.62281600  0.87478200  0.87269800  1
  N  N18  1  0.87478200  0.87269800  0.62281600  1
  N  N19  1  0.87269800  0.62281600  0.87478200  1
  N  N20  1  0.87718400  0.62730200  0.37478200  1
  N  N21  1  0.62521800  0.87718400  0.37269800  1
  N  N22  1  0.62730200  0.62521800  0.12281600  1
  N  N23  1  0.12281600  0.62730200  0.62521800  1
  N  N24  1  0.37478200  0.87718400  0.62730200  1
  N  N25  1  0.37269800  0.62521800  0.87718400  1
  N  N26  1  0.87718400  0.37269800  0.62521800  1
  N  N27  1  0.62521800  0.12281600  0.62730200  1
  N  N28  1  0.62730200  0.37478200  0.87718400  1
  N  N29  1  0.12281600  0.37269800  0.37478200  1
  N  N30  1  0.37478200  0.12281600  0.37269800  1
  N  N31  1  0.37269800  0.37478200  0.12281600  1
loop_
_geom_bond_atom_site_label_1
_geom_bond_atom_site_label_2
_geom_bond_distance
_geom_bond_site_symmetry_2
Li0 N9 2.194498 1_545
Li0 N15 2.194498 1_555
Li0 N12 2.194498 1_455
Li0 N18 2.194498 1_445
Li1 N13 2.194498 1_455
Li1 N10 2.194498 1_555
Li1 N16 2.194498 1_554
Li1 N19 2.194498 1_454
Li2 N14 2.194498 1_554
Li2 N11 2.194498 1_555
Li2 N8 2.194498 1_545
Li2 N17 2.194498 1_544
Li3 N30 2.194498 1_555
Li3 N24 2.194498 1_545
Li3 N27 2.194498 1_555
Li3 N21 2.194498 1_545
Li4 N31 2.194498 1_555
Li4 N22 2.194498 1_555
Li4 N28 2.194498 1_554
Li4 N25 2.194498 1_554
Li5 N29 2.194498 1_555
Li5 N23 2.194498 1_555
Li5 N20 2.194498 1_455
Li5 N26 2.194498 1_455
Li6 N29 2.191950 1_555
Li6 N13 2.191950 1_455
Li6 N20 2.191950 1_455
Li6 N10 2.191950 1_555
Li7 N8 2.191950 1_555
Li7 N25 2.191950 1_554
Li7 N22 2.191950 1_555
Li7 N17 2.191950 1_554
Li8 N30 2.191950 1_555
Li8 N9 2.191950 1_545
Li8 N15 2.191950 1_555
Li8 N24 2.191950 1_545
Li9 N14 2.191950 1_554
Li9 N31 2.191950 1_555
Li9 N11 2.191950 1_555
Li9 N28 2.191950 1_554
Li10 N27 2.191950 1_555
Li10 N12 2.191950 1_555
Li10 N21 2.191950 1_545
Li10 N18 2.191950 1_545
Li11 N23 2.191950 1_555
Li11 N16 2.191950 1_555
Li11 N19 2.191950 1_455
Li11 N26 2.191950 1_455
Li12 N0 2.152766 1_555
Li12 N8 2.213324 1_555
Li12 N9 2.213324 1_555
Li12 N10 2.213324 1_555
Li13 N1 2.152766 1_555
Li13 N12 2.213324 1_555
Li13 N13 2.213324 1_555
Li13 N11 2.213324 1_555
Li14 N2 2.152766 1_555
Li14 N16 2.213324 1_555
Li14 N14 2.213324 1_555
Li14 N15 2.213324 1_555
Li15 N3 2.152766 1_555
Li15 N17 2.213324 1_555
Li15 N19 2.213324 1_555
Li15 N18 2.213324 1_555
Li16 N4 2.152766 1_555
Li16 N21 2.213324 1_555
Li16 N22 2.213324 1_555
Li16 N20 2.213324 1_555
Li17 N5 2.152766 1_555
Li17 N23 2.213324 1_555
Li17 N25 2.213324 1_555
Li17 N24 2.213324 1_555
Li18 N6 2.152766 1_555
Li18 N26 2.213324 1_555
Li18 N27 2.213324 1_555
Li18 N28 2.213324 1_555
Li19 N7 2.152766 1_555
Li19 N31 2.213324 1_555
Li19 N30 2.213324 1_555
Li19 N29 2.213324 1_555
Li20 N31 2.106810 1_555
Li20 N22 2.106810 1_555
Li20 N0 2.310294 1_555
Li20 N1 2.310294 1_555
Li21 N21 2.106810 1_555
Li21 N24 2.106810 1_555
Li21 N3 2.310294 1_555
Li21 N0 2.310294 1_555
Li22 N29 2.106810 1_555
Li22 N23 2.106810 1_555
Li22 N0 2.310294 1_555
Li22 N2 2.310294 1_555
Li23 N30 2.106810 1_555
Li23 N27 2.106810 1_555
Li23 N1 2.310294 1_555
Li23 N2 2.310294 1_555
Li24 N20 2.106810 1_555
Li24 N26 2.106810 1_555
Li24 N3 2.310294 1_555
Li24 N1 2.310294 1_555
Li25 N28 2.106810 1_555
Li25 N25 2.106810 1_555
Li25 N3 2.310294 1_555
Li25 N2 2.310294 1_555
Li26 N10 2.106810 1_555
Li26 N19 2.106810 1_454
Li26 N5 2.310294 1_554
Li26 N4 2.310294 1_455
Li27 N9 2.106810 1_545
Li27 N12 2.106810 1_455
Li27 N4 2.310294 1_445
Li27 N7 2.310294 1_555
Li28 N11 2.106810 1_555
Li28 N17 2.106810 1_544
Li28 N6 2.310294 1_554
Li28 N4 2.310294 1_545
Li29 N18 2.106810 1_445
Li29 N15 2.106810 1_555
Li29 N5 2.310294 1_545
Li29 N6 2.310294 1_455
Li30 N14 2.106810 1_554
Li30 N8 2.106810 1_545
Li30 N5 2.310294 1_544
Li30 N7 2.310294 1_555
Li31 N13 2.106810 1_455
Li31 N16 2.106810 1_554
Li31 N7 2.310294 1_555
Li31 N6 2.310294 1_454
Li32 N22 2.090044 1_555
Li32 N0 2.110787 1_555
Li32 N21 2.285451 1_555
Li32 N8 2.319823 1_555
Li33 N24 2.090044 1_555
Li33 N0 2.110787 1_555
Li33 N23 2.285451 1_555
Li33 N9 2.319823 1_555
Li34 N29 2.090044 1_555
Li34 N0 2.110787 1_555
Li34 N31 2.285451 1_555
Li34 N10 2.319823 1_555
Li35 N31 2.090044 1_555
Li35 N1 2.110787 1_555
Li35 N30 2.285451 1_555
Li35 N11 2.319823 1_555
Li36 N27 2.090044 1_555
Li36 N1 2.110787 1_555
Li36 N26 2.285451 1_555
Li36 N12 2.319823 1_555
Li37 N20 2.090044 1_555
Li37 N1 2.110787 1_555
Li37 N22 2.285451 1_555
Li37 N13 2.319823 1_555
Li38 N28 2.090044 1_555
Li38 N2 2.110787 1_555
Li38 N27 2.285451 1_555
Li38 N14 2.319823 1_555
Li39 N30 2.090044 1_555
Li39 N2 2.110787 1_555
Li39 N29 2.285451 1_555
Li39 N15 2.319823 1_555
Li40 N23 2.090044 1_555
Li40 N2 2.110787 1_555
Li40 N25 2.285451 1_555
Li40 N16 2.319823 1_555
Li41 N25 2.090044 1_555
Li41 N3 2.110787 1_555
Li41 N24 2.285451 1_555
Li41 N17 2.319823 1_555
Li42 N21 2.090044 1_555
Li42 N3 2.110787 1_555
Li42 N20 2.285451 1_555
Li42 N18 2.319823 1_555
Li43 N26 2.090044 1_555
Li43 N3 2.110787 1_555
Li43 N28 2.285451 1_555
Li43 N19 2.319823 1_555
Li44 N10 2.090044 1_555
Li44 N4 2.110787 1_455
Li44 N9 2.285451 1_555
Li44 N20 2.319823 1_455
Li45 N12 2.090044 1_555
Li45 N4 2.110787 1_545
Li45 N11 2.285451 1_555
Li45 N21 2.319823 1_545
Li46 N17 2.090044 1_555
Li46 N4 2.110787 1_556
Li46 N19 2.285451 1_555
Li46 N22 2.319823 1_556
Li47 N19 2.090044 1_555
Li47 N5 2.110787 1_655
Li47 N18 2.285451 1_555
Li47 N23 2.319823 1_655
Li48 N15 2.090044 1_555
Li48 N5 2.110787 1_545
Li48 N14 2.285451 1_555
Li48 N24 2.319823 1_545
Li49 N8 2.090044 1_555
Li49 N5 2.110787 1_554
Li49 N10 2.285451 1_555
Li49 N25 2.319823 1_554
Li50 N16 2.090044 1_555
Li50 N6 2.110787 1_455
Li50 N15 2.285451 1_555
Li50 N26 2.319823 1_455
Li51 N18 2.090044 1_555
Li51 N6 2.110787 1_565
Li51 N17 2.285451 1_555
Li51 N27 2.319823 1_565
Li52 N11 2.090044 1_555
Li52 N6 2.110787 1_554
Li52 N13 2.285451 1_555
Li52 N28 2.319823 1_554
Li53 N13 2.090044 1_555
Li53 N7 2.110787 1_655
Li53 N12 2.285451 1_555
Li53 N29 2.319823 1_655
Li54 N9 2.090044 1_555
Li54 N7 2.110787 1_565
Li54 N8 2.285451 1_555
Li54 N30 2.319823 1_565
Li55 N14 2.090044 1_555
Li55 N7 2.110787 1_556
Li55 N16 2.285451 1_555
Li55 N31 2.319823 1_556
Bi0 N2 2.163868 1_555
Bi0 N1 2.163868 1_555
Bi0 N0 2.163868 1_555
Bi0 N3 2.163868 1_555
Bi1 N5 2.163868 1_544
Bi1 N6 2.163868 1_454
Bi1 N4 2.163868 1_445
Bi1 N7 2.163868 1_555
Bi2 N30 2.167442 1_555
Bi2 N8 2.167442 1_545
Bi2 N11 2.167442 1_555
Bi2 N21 2.167442 1_545
Bi3 N9 2.167442 1_555
Bi3 N23 2.167442 1_555
Bi3 N20 2.167442 1_455
Bi3 N18 2.167442 1_455
Bi4 N31 2.167442 1_555
Bi4 N10 2.167442 1_555
Bi4 N16 2.167442 1_554
Bi4 N25 2.167442 1_554
Bi5 N29 2.167442 1_555
Bi5 N12 2.167442 1_455
Bi5 N15 2.167442 1_555
Bi5 N26 2.167442 1_455
Bi6 N13 2.167442 1_555
Bi6 N28 2.167442 1_554
Bi6 N22 2.167442 1_555
Bi6 N19 2.167442 1_554
Bi7 N14 2.167442 1_555
Bi7 N27 2.167442 1_555
Bi7 N24 2.167442 1_545
Bi7 N17 2.167442 1_545
