# generated using pymatgen
data_Yb3H2Pb
_symmetry_space_group_name_H-M   'P 1'
_cell_length_a   7.17891601
_cell_length_b   7.17891601
_cell_length_c   5.31308900
_cell_angle_alpha   90.00000000
_cell_angle_beta   90.00000000
_cell_angle_gamma   104.29431409
_symmetry_Int_Tables_number   1
_chemical_formula_structural   Yb3H2Pb
_chemical_formula_sum   'Yb6 H4 Pb2'
_cell_volume   265.34239590
_cell_formula_units_Z   2
loop_
 _symmetry_equiv_pos_site_id
 _symmetry_equiv_pos_as_xyz
  1  'x, y, z'
loop_
 _atom_site_type_symbol
 _atom_site_label
 _atom_site_symmetry_multiplicity
 _atom_site_fract_x
 _atom_site_fract_y
 _atom_site_fract_z
 _atom_site_occupancy
  Yb  Yb0  1  0.89125700  0.10874300  0.75000000  1
  Yb  Yb1  1  0.10874300  0.89125700  0.25000000  1
  Yb  Yb2  1  0.81473000  0.59207500  0.75000000  1
  Yb  Yb3  1  0.18527000  0.40792500  0.25000000  1
  Yb  Yb4  1  0.40792500  0.18527000  0.75000000  1
  Yb  Yb5  1  0.59207500  0.81473000  0.25000000  1
  H  H0  1  0.15083600  0.15083600  0.50000000  1
  H  H1  1  0.84916400  0.84916400  0.50000000  1
  H  H2  1  0.84916400  0.84916400  0.00000000  1
  H  H3  1  0.15083600  0.15083600  0.00000000  1
  Pb  Pb0  1  0.30767800  0.69232200  0.75000000  1
  Pb  Pb1  1  0.69232200  0.30767800  0.25000000  1
loop_
_geom_bond_atom_site_label_1
_geom_bond_atom_site_label_2
_geom_bond_distance
_geom_bond_site_symmetry_2
H0 Yb4 2.237507 1_555
H0 Yb3 2.237507 1_555
H0 Yb0 2.247258 1_455
H0 Yb1 2.247258 1_545
H1 Yb2 2.237507 1_555
H1 Yb5 2.237507 1_555
H1 Yb0 2.247258 1_565
H1 Yb1 2.247258 1_655
H2 Yb2 2.237507 1_554
H2 Yb5 2.237507 1_555
H2 Yb1 2.247258 1_655
H2 Yb0 2.247258 1_564
H3 Yb4 2.237507 1_554
H3 Yb3 2.237507 1_555
H3 Yb0 2.247258 1_454
H3 Yb1 2.247258 1_545
Pb0 Yb5 3.333448 1_556
Pb0 Yb5 3.333448 1_555
Pb0 Yb3 3.333448 1_555
Pb0 Yb3 3.333448 1_556
Pb0 Yb4 3.432731 1_565
Pb0 Yb2 3.432731 1_455
Pb0 Yb1 3.484758 1_556
Pb0 Yb1 3.484758 1_555
Pb0 Yb2 3.880943 1_555
Pb0 Yb4 3.880943 1_555
Pb1 Yb2 3.333448 1_554
Pb1 Yb4 3.333448 1_554
Pb1 Yb4 3.333448 1_555
Pb1 Yb2 3.333448 1_555
Pb1 Yb5 3.432731 1_545
Pb1 Yb3 3.432731 1_655
Pb1 Yb0 3.484758 1_555
Pb1 Yb0 3.484758 1_554
Pb1 Yb5 3.880943 1_555
Pb1 Yb3 3.880943 1_555
