# generated using pymatgen
data_Mn3Fe2Sb(PO4)6
_symmetry_space_group_name_H-M   'P 1'
_cell_length_a   8.60679055
_cell_length_b   8.60679055
_cell_length_c   8.60679049
_cell_angle_alpha   60.89640238
_cell_angle_beta   60.89640238
_cell_angle_gamma   60.89639897
_symmetry_Int_Tables_number   1
_chemical_formula_structural   Mn3Fe2Sb(PO4)6
_chemical_formula_sum   'Mn3 Fe2 Sb1 P6 O24'
_cell_volume   459.93486885
_cell_formula_units_Z   1
loop_
 _symmetry_equiv_pos_site_id
 _symmetry_equiv_pos_as_xyz
  1  'x, y, z'
loop_
 _atom_site_type_symbol
 _atom_site_label
 _atom_site_symmetry_multiplicity
 _atom_site_fract_x
 _atom_site_fract_y
 _atom_site_fract_z
 _atom_site_occupancy
  Mn  Mn0  1  0.14511200  0.14511200  0.14511200  1
  Mn  Mn1  1  0.35536900  0.35536900  0.35536900  1
  Mn  Mn2  1  0.64267500  0.64267500  0.64267500  1
  Fe  Fe0  1  0.00593600  0.00593600  0.00593600  1
  Fe  Fe1  1  0.49907000  0.49907000  0.49907000  1
  Sb  Sb0  1  0.85703100  0.85703100  0.85703100  1
  P  P0  1  0.45396200  0.74738200  0.04573900  1
  P  P1  1  0.54230300  0.25276500  0.95221800  1
  P  P2  1  0.95221800  0.54230300  0.25276500  1
  P  P3  1  0.25276500  0.95221800  0.54230300  1
  P  P4  1  0.74738200  0.04573900  0.45396200  1
  P  P5  1  0.04573900  0.45396200  0.74738200  1
  O  O0  1  0.31009600  0.10592000  0.51637200  1
  O  O1  1  0.51637200  0.31009600  0.10592000  1
  O  O2  1  0.91149500  0.05775800  0.26248400  1
  O  O3  1  0.10592000  0.51637200  0.31009600  1
  O  O4  1  0.81593600  0.00664600  0.61321000  1
  O  O5  1  0.59299300  0.24007600  0.44441400  1
  O  O6  1  0.05775800  0.26248400  0.91149500  1
  O  O7  1  0.24007600  0.44441400  0.59299300  1
  O  O8  1  0.39041400  0.18641700  0.98609100  1
  O  O9  1  0.44441400  0.59299300  0.24007600  1
  O  O10  1  0.74442400  0.08545300  0.93696700  1
  O  O11  1  0.98609100  0.39041400  0.18641700  1
  O  O12  1  0.00664600  0.61321000  0.81593600  1
  O  O13  1  0.26248400  0.91149500  0.05775800  1
  O  O14  1  0.56540400  0.40566900  0.75410600  1
  O  O15  1  0.61321000  0.81593600  0.00664600  1
  O  O16  1  0.75410600  0.56540400  0.40566900  1
  O  O17  1  0.93696700  0.74442400  0.08545300  1
  O  O18  1  0.40566900  0.75410600  0.56540400  1
  O  O19  1  0.18641700  0.98609100  0.39041400  1
  O  O20  1  0.88813200  0.49379900  0.68616200  1
  O  O21  1  0.08545300  0.93696700  0.74442400  1
  O  O22  1  0.49379900  0.68616200  0.88813200  1
  O  O23  1  0.68616200  0.88813200  0.49379900  1
loop_
_geom_bond_atom_site_label_1
_geom_bond_atom_site_label_2
_geom_bond_distance
_geom_bond_site_symmetry_2
Mn0 O11 1.975578 1_455
Mn0 O19 1.975578 1_545
Mn0 O8 1.975578 1_554
Mn0 O13 2.093913 1_545
Mn0 O6 2.093913 1_554
Mn0 O2 2.093913 1_455
Mn1 O3 2.018889 1_555
Mn1 O1 2.018889 1_555
Mn1 O0 2.018889 1_555
Mn1 O5 2.136712 1_555
Mn1 O7 2.136712 1_555
Mn1 O9 2.136712 1_555
Mn2 O20 1.978477 1_555
Mn2 O22 1.978477 1_555
Mn2 O23 1.978477 1_555
Mn2 O18 2.078282 1_555
Mn2 O16 2.078282 1_555
Mn2 O14 2.078282 1_555
Fe0 O13 2.143495 1_545
Fe0 O2 2.143495 1_455
Fe0 O6 2.143495 1_554
Fe0 O10 2.300605 1_454
Fe0 O21 2.300605 1_544
Fe0 O17 2.300605 1_445
Fe1 O5 2.177363 1_555
Fe1 O9 2.177363 1_555
Fe1 O7 2.177363 1_555
Fe1 O18 2.201474 1_555
Fe1 O14 2.201474 1_555
Fe1 O16 2.201474 1_555
O0 P3 1.511276 1_545
O1 P1 1.511276 1_554
O2 P4 1.560008 1_555
O3 P2 1.511276 1_455
O4 P4 1.576352 1_555
O4 Sb0 1.958907 1_545
O5 P4 1.542901 1_555
O6 P5 1.560008 1_555
O7 P5 1.542901 1_555
O8 P1 1.521037 1_555
O9 P0 1.542901 1_555
O10 P1 1.625421 1_555
O10 Sb0 2.022701 1_545
O11 P2 1.521037 1_555
O12 P5 1.576352 1_555
O12 Sb0 1.958906 1_455
O13 P0 1.560008 1_555
O14 P1 1.555858 1_555
O15 P0 1.576352 1_555
O15 Sb0 1.958907 1_554
O16 P2 1.555858 1_555
O17 P2 1.625421 1_555
O17 Sb0 2.022701 1_554
O18 P3 1.555858 1_555
O19 P3 1.521037 1_555
O20 P5 1.517355 1_655
O21 P3 1.625421 1_555
O21 Sb0 2.022701 1_455
O22 P0 1.517355 1_556
O23 P4 1.517355 1_565
