# generated using pymatgen
data_LuSnRh
_symmetry_space_group_name_H-M   'P 1'
_cell_length_a   7.51549808
_cell_length_b   7.51549808
_cell_length_c   3.68253073
_cell_angle_alpha   90.00000000
_cell_angle_beta   90.00000000
_cell_angle_gamma   119.99999344
_symmetry_Int_Tables_number   1
_chemical_formula_structural   LuSnRh
_chemical_formula_sum   'Lu3 Sn3 Rh3'
_cell_volume   180.13270711
_cell_formula_units_Z   3
loop_
 _symmetry_equiv_pos_site_id
 _symmetry_equiv_pos_as_xyz
  1  'x, y, z'
loop_
 _atom_site_type_symbol
 _atom_site_label
 _atom_site_symmetry_multiplicity
 _atom_site_fract_x
 _atom_site_fract_y
 _atom_site_fract_z
 _atom_site_occupancy
  Lu  Lu0  1  0.40199877  0.40199877  0.50000000  1
  Lu  Lu1  1  0.59800123  0.00000000  0.50000000  1
  Lu  Lu2  1  0.00000000  0.59800123  0.50000000  1
  Sn  Sn0  1  0.73313206  0.73313206  0.00000000  1
  Sn  Sn1  1  0.26686794  0.00000000  0.00000000  1
  Sn  Sn2  1  0.00000000  0.26686794  -0.00000000  1
  Rh  Rh0  1  0.66666700  0.33333300  -0.00000000  1
  Rh  Rh1  1  0.33333300  0.66666700  0.00000000  1
  Rh  Rh2  1  -0.00000000  0.00000000  0.50000000  1
loop_
_geom_bond_atom_site_label_1
_geom_bond_atom_site_label_2
_geom_bond_distance
_geom_bond_site_symmetry_2
Lu0 Rh0 2.939327 1_556
Lu0 Rh0 2.939327 1_555
Lu0 Rh1 2.939327 1_555
Lu0 Rh1 2.939327 1_556
Lu0 Rh2 3.021221 1_555
Lu0 Sn0 3.095730 1_556
Lu0 Sn0 3.095730 1_555
Lu0 Sn2 3.237461 1_555
Lu0 Sn1 3.237461 1_556
Lu0 Sn2 3.237461 1_556
Lu0 Sn1 3.237461 1_555
Lu1 Rh0 2.939321 1_556
Lu1 Rh0 2.939321 1_555
Lu1 Rh1 2.939323 1_546
Lu1 Rh1 2.939323 1_545
Lu1 Rh2 3.021221 1_655
Lu1 Sn1 3.095730 1_555
Lu1 Sn1 3.095730 1_556
Lu1 Sn0 3.237460 1_545
Lu1 Sn0 3.237460 1_546
Lu1 Sn2 3.237461 1_655
Lu1 Sn2 3.237461 1_656
Lu2 Rh1 2.939321 1_555
Lu2 Rh1 2.939321 1_556
Lu2 Rh0 2.939323 1_455
Lu2 Rh0 2.939323 1_456
Lu2 Rh2 3.021221 1_565
Lu2 Sn2 3.095730 1_555
Lu2 Sn2 3.095730 1_556
Lu2 Sn0 3.237460 1_456
Lu2 Sn0 3.237460 1_455
Lu2 Sn1 3.237461 1_565
Lu2 Sn1 3.237461 1_566
Rh0 Sn2 2.788680 1_655
Rh0 Sn1 2.788685 1_555
Rh0 Sn0 2.788688 1_555
Rh1 Sn1 2.788680 1_565
Rh1 Sn2 2.788685 1_555
Rh1 Sn0 2.788688 1_555
Rh2 Sn1 2.722659 1_555
Rh2 Sn2 2.722659 1_556
Rh2 Sn1 2.722659 1_556
Rh2 Sn2 2.722659 1_555
Rh2 Sn0 2.722659 1_446
Rh2 Sn0 2.722659 1_445
