# generated using pymatgen
data_LaMn3V4O12
_symmetry_space_group_name_H-M   'P 1'
_cell_length_a   6.58530830
_cell_length_b   6.58530830
_cell_length_c   7.57765549
_cell_angle_alpha   55.00224958
_cell_angle_beta   55.00224958
_cell_angle_gamma   69.98849382
_symmetry_Int_Tables_number   1
_chemical_formula_structural   LaMn3V4O12
_chemical_formula_sum   'La1 Mn3 V4 O12'
_cell_volume   220.47291638
_cell_formula_units_Z   1
loop_
 _symmetry_equiv_pos_site_id
 _symmetry_equiv_pos_as_xyz
  1  'x, y, z'
loop_
 _atom_site_type_symbol
 _atom_site_label
 _atom_site_symmetry_multiplicity
 _atom_site_fract_x
 _atom_site_fract_y
 _atom_site_fract_z
 _atom_site_occupancy
  La  La0  1  0.00000000  0.00000000  0.00000000  1
  Mn  Mn0  1  0.50000000  0.50000000  0.00000000  1
  Mn  Mn1  1  0.00000000  0.00000000  0.50000000  1
  Mn  Mn2  1  0.50000000  0.50000000  0.50000000  1
  V  V0  1  0.50000000  0.00000000  0.50000000  1
  V  V1  1  0.00000000  0.50000000  0.50000000  1
  V  V2  1  0.50000000  0.00000000  0.00000000  1
  V  V3  1  0.00000000  0.50000000  0.00000000  1
  O  O0  1  0.30580400  0.68356100  0.82623700  1
  O  O1  1  0.31643900  0.69419600  0.17376300  1
  O  O2  1  0.68356100  0.30580400  0.82623700  1
  O  O3  1  0.69419600  0.31643900  0.17376300  1
  O  O4  1  0.82087800  0.82087800  0.88842100  1
  O  O5  1  0.18555500  0.18555500  0.52169300  1
  O  O6  1  0.81444500  0.81444500  0.47830700  1
  O  O7  1  0.17912200  0.17912200  0.11157900  1
  O  O8  1  0.89200000  0.51591300  0.28551200  1
  O  O9  1  0.51591300  0.89200000  0.28551200  1
  O  O10  1  0.48408700  0.10800000  0.71448800  1
  O  O11  1  0.10800000  0.48408700  0.71448800  1
loop_
_geom_bond_atom_site_label_1
_geom_bond_atom_site_label_2
_geom_bond_distance
_geom_bond_site_symmetry_2
La0 O7 2.595772 1_555
La0 O4 2.595772 1_444
La0 O6 2.642771 1_445
La0 O5 2.642771 1_554
La0 O11 2.687811 1_554
La0 O9 2.687811 1_445
La0 O10 2.687811 1_554
La0 O8 2.687811 1_445
La0 O2 2.713898 1_454
La0 O3 2.713898 1_455
La0 O0 2.713898 1_544
La0 O1 2.713898 1_545
Mn0 O2 1.969301 1_554
Mn0 O0 1.969301 1_554
Mn0 O1 1.969301 1_555
Mn0 O3 1.969301 1_555
Mn1 O7 2.105504 1_555
Mn1 O4 2.105504 1_445
Mn1 O5 2.120383 1_555
Mn1 O6 2.120383 1_445
Mn2 O8 2.119777 1_555
Mn2 O9 2.119777 1_555
Mn2 O10 2.119777 1_555
Mn2 O11 2.119777 1_555
O0 V3 2.012230 1_556
O0 V0 2.092229 1_565
O1 V2 2.012230 1_565
O1 V1 2.092229 1_555
O2 V2 2.012230 1_556
O2 V1 2.092229 1_655
O3 V3 2.012230 1_655
O3 V0 2.092229 1_555
O4 V3 1.989992 1_656
O4 V2 1.989992 1_566
O5 V1 1.978940 1_555
O5 V0 1.978940 1_555
O6 V1 1.978940 1_655
O6 V0 1.978940 1_565
O7 V2 1.989992 1_555
O7 V3 1.989992 1_555
O8 V3 1.908297 1_655
O8 V1 2.058652 1_655
O9 V2 1.908297 1_565
O9 V0 2.058652 1_565
O10 V2 1.908297 1_556
O10 V0 2.058652 1_555
O11 V3 1.908297 1_556
O11 V1 2.058652 1_555
