# generated using pymatgen
data_Pm3Au
_symmetry_space_group_name_H-M   'P 1'
_cell_length_a   7.04863015
_cell_length_b   7.04862975
_cell_length_c   5.17755339
_cell_angle_alpha   89.99999839
_cell_angle_beta   90.00000085
_cell_angle_gamma   119.99978047
_symmetry_Int_Tables_number   1
_chemical_formula_structural   Pm3Au
_chemical_formula_sum   'Pm6 Au2'
_cell_volume   222.77456272
_cell_formula_units_Z   2
loop_
 _symmetry_equiv_pos_site_id
 _symmetry_equiv_pos_as_xyz
  1  'x, y, z'
loop_
 _atom_site_type_symbol
 _atom_site_label
 _atom_site_symmetry_multiplicity
 _atom_site_fract_x
 _atom_site_fract_y
 _atom_site_fract_z
 _atom_site_occupancy
  Pm  Pm0  1  0.17901967  0.35804196  0.24999893  1
  Pm  Pm1  1  0.64195424  0.82098331  0.24999895  1
  Pm  Pm2  1  0.17902702  0.82098282  0.24999896  1
  Pm  Pm3  1  0.82097732  0.64195277  0.74999863  1
  Pm  Pm4  1  0.35804412  0.17902750  0.74999860  1
  Pm  Pm5  1  0.82098490  0.17902619  0.74999859  1
  Au  Au0  1  0.33333004  0.66665934  0.74999939  1
  Au  Au1  1  0.66666369  0.33332611  0.24999995  1
loop_
_geom_bond_atom_site_label_1
_geom_bond_atom_site_label_2
_geom_bond_distance
_geom_bond_site_symmetry_2
Pm0 Pm2 3.263073 1_555
Pm0 Pm1 3.263089 1_555
Pm0 Pm5 3.387979 1_455
Pm0 Pm5 3.387982 1_454
Pm0 Pm4 3.387991 1_555
Pm0 Pm4 3.387993 1_554
Pm0 Pm2 3.785557 1_545
Pm0 Pm1 3.785564 1_445
Pm1 Pm2 3.263001 1_555
Pm1 Pm5 3.388011 1_565
Pm1 Pm5 3.388014 1_564
Pm1 Pm3 3.388049 1_555
Pm1 Pm3 3.388051 1_554
Pm1 Pm2 3.785629 1_655
Pm2 Pm4 3.388018 1_565
Pm2 Pm4 3.388021 1_564
Pm2 Pm3 3.388038 1_455
Pm2 Pm3 3.388040 1_454
Pm3 Pm5 3.263025 1_555
Pm3 Pm4 3.263028 1_555
Pm3 Pm5 3.785605 1_565
Pm3 Pm4 3.785626 1_665
Pm4 Pm5 3.263103 1_555
Pm4 Pm5 3.785527 1_455
Au0 Pm0 3.201689 1_556
Au0 Pm0 3.201693 1_555
Au0 Pm1 3.201714 1_556
Au0 Pm1 3.201717 1_555
Au0 Pm2 3.201718 1_556
Au0 Pm2 3.201722 1_555
Au0 Pm4 3.527463 1_555
Au0 Pm5 3.527477 1_455
Au0 Pm3 3.527537 1_455
Au0 Pm3 3.527544 1_555
Au0 Pm4 3.527621 1_565
Au0 Pm5 3.527630 1_565
Au1 Pm4 3.201693 1_555
Au1 Pm5 3.201695 1_555
Au1 Pm4 3.201705 1_554
Au1 Pm5 3.201706 1_554
Au1 Pm3 3.201719 1_555
Au1 Pm3 3.201730 1_554
Au1 Pm1 3.527458 1_545
Au1 Pm2 3.527482 1_545
Au1 Pm0 3.527530 1_655
Au1 Pm0 3.527556 1_555
Au1 Pm2 3.527623 1_655
Au1 Pm1 3.527625 1_555
