# generated using pymatgen
data_RbB6S2(Cl3O2)2
_symmetry_space_group_name_H-M   'P 1'
_cell_length_a   9.58601785
_cell_length_b   15.83432707
_cell_length_c   22.18897483
_cell_angle_alpha   90.00000000
_cell_angle_beta   90.00000000
_cell_angle_gamma   90.00000000
_symmetry_Int_Tables_number   1
_chemical_formula_structural   RbB6S2(Cl3O2)2
_chemical_formula_sum   'Rb8 B48 S16 Cl48 O32'
_cell_volume   3368.02326091
_cell_formula_units_Z   8
loop_
 _symmetry_equiv_pos_site_id
 _symmetry_equiv_pos_as_xyz
  1  'x, y, z'
loop_
 _atom_site_type_symbol
 _atom_site_label
 _atom_site_symmetry_multiplicity
 _atom_site_fract_x
 _atom_site_fract_y
 _atom_site_fract_z
 _atom_site_occupancy
  Rb  Rb0  1  0.22092932  0.66145979  0.93242821  1
  Rb  Rb1  1  0.77907068  0.16145979  0.06757179  1
  Rb  Rb2  1  0.72092932  0.16145979  0.56757179  1
  Rb  Rb3  1  0.27907068  0.66145979  0.43242821  1
  Rb  Rb4  1  0.26787663  0.41686366  0.18773158  1
  Rb  Rb5  1  0.73212337  0.91686366  0.81226842  1
  Rb  Rb6  1  0.76787663  0.91686366  0.31226842  1
  Rb  Rb7  1  0.23212337  0.41686366  0.68773158  1
  B  B0  1  0.93907479  0.57327262  0.29546809  1
  B  B1  1  0.06092521  0.07327262  0.70453191  1
  B  B2  1  0.43907479  0.07327262  0.20453191  1
  B  B3  1  0.56092521  0.57327262  0.79546809  1
  B  B4  1  0.83089971  0.63552788  0.34405304  1
  B  B5  1  0.16910029  0.13552788  0.65594696  1
  B  B6  1  0.33089971  0.13552788  0.15594696  1
  B  B7  1  0.66910029  0.63552788  0.84405304  1
  B  B8  1  0.88608071  0.53272947  0.36722345  1
  B  B9  1  0.11391929  0.03272947  0.63277655  1
  B  B10  1  0.38608071  0.03272947  0.13277655  1
  B  B11  1  0.61391929  0.53272947  0.86722345  1
  B  B12  1  0.88606368  0.46488857  0.30268592  1
  B  B13  1  0.11393632  0.96488857  0.69731408  1
  B  B14  1  0.38606368  0.96488857  0.19731408  1
  B  B15  1  0.61393632  0.46488857  0.80268592  1
  B  B16  1  0.82989581  0.52632868  0.23933059  1
  B  B17  1  0.17010419  0.02632868  0.76066941  1
  B  B18  1  0.32989581  0.02632868  0.26066941  1
  B  B19  1  0.67010419  0.52632868  0.73933059  1
  B  B20  1  0.79560124  0.63209137  0.26480541  1
  B  B21  1  0.20439876  0.13209137  0.73519459  1
  B  B22  1  0.29560124  0.13209137  0.23519459  1
  B  B23  1  0.70439876  0.63209137  0.76480541  1
  B  B24  1  0.71068275  0.56612988  0.38113302  1
  B  B25  1  0.28931725  0.06612988  0.61886698  1
  B  B26  1  0.21068275  0.06612988  0.11886698  1
  B  B27  1  0.78931725  0.56612988  0.88113302  1
  B  B28  1  0.74482622  0.46076914  0.35540107  1
  B  B29  1  0.25517378  0.96076914  0.64459893  1
  B  B30  1  0.24482622  0.96076914  0.14459893  1
  B  B31  1  0.75517378  0.46076914  0.85540107  1
  B  B32  1  0.70957124  0.45657545  0.27595751  1
  B  B33  1  0.29042876  0.95657545  0.72404249  1
  B  B34  1  0.20957124  0.95657545  0.22404249  1
  B  B35  1  0.79042876  0.45657545  0.77595751  1
  B  B36  1  0.65428623  0.56016557  0.25301094  1
  B  B37  1  0.34571377  0.06016557  0.74698906  1
  B  B38  1  0.15428623  0.06016557  0.24698906  1
  B  B39  1  0.84571377  0.56016557  0.75301094  1
  B  B40  1  0.65457918  0.62737661  0.31796522  1
  B  B41  1  0.34542082  0.12737661  0.68203478  1
  B  B42  1  0.15457918  0.12737661  0.18203478  1
  B  B43  1  0.84542082  0.62737661  0.81796522  1
  B  B44  1  0.60165692  0.51898515  0.32465038  1
  B  B45  1  0.39834308  0.01898515  0.67534962  1
  B  B46  1  0.10165692  0.01898515  0.17534962  1
  B  B47  1  0.89834308  0.51898515  0.82465038  1
  S  S0  1  0.13034757  0.92652951  0.43833167  1
  S  S1  1  0.86965243  0.42652951  0.56166833  1
  S  S2  1  0.63034757  0.42652951  0.06166833  1
  S  S3  1  0.36965243  0.92652951  0.93833167  1
  S  S4  1  0.12534099  0.66215211  0.11834133  1
  S  S5  1  0.87465901  0.16215211  0.88165867  1
  S  S6  1  0.62534099  0.16215211  0.38165867  1
  S  S7  1  0.37465901  0.66215211  0.61834133  1
  S  S8  1  0.58351914  0.71712396  0.05882118  1
  S  S9  1  0.41648086  0.21712396  0.94117882  1
  S  S10  1  0.08351914  0.21712396  0.44117882  1
  S  S11  1  0.91648086  0.71712396  0.55882118  1
  S  S12  1  0.11056911  0.40600235  0.00274138  1
  S  S13  1  0.88943089  0.90600235  0.99725862  1
  S  S14  1  0.61056911  0.90600235  0.49725862  1
  S  S15  1  0.38943089  0.40600235  0.50274138  1
  Cl  Cl0  1  0.11696953  0.60244883  0.28064660  1
  Cl  Cl1  1  0.88303047  0.10244883  0.71935340  1
  Cl  Cl2  1  0.61696953  0.10244883  0.21935340  1
  Cl  Cl3  1  0.38303047  0.60244883  0.78064660  1
  Cl  Cl4  1  0.89745189  0.72865125  0.38029477  1
  Cl  Cl5  1  0.10254811  0.22865125  0.61970523  1
  Cl  Cl6  1  0.39745189  0.22865125  0.11970523  1
  Cl  Cl7  1  0.60254811  0.72865125  0.88029477  1
  Cl  Cl8  1  0.00788077  0.51700563  0.42778427  1
  Cl  Cl9  1  0.99211923  0.01700563  0.57221573  1
  Cl  Cl10  1  0.50788077  0.01700563  0.07221573  1
  Cl  Cl11  1  0.49211923  0.51700563  0.92778427  1
  Cl  Cl12  1  0.00796881  0.37932993  0.29632284  1
  Cl  Cl13  1  0.99203119  0.87932993  0.70367716  1
  Cl  Cl14  1  0.50796881  0.87932993  0.20367716  1
  Cl  Cl15  1  0.49203119  0.37932993  0.79632284  1
  Cl  Cl16  1  0.89289906  0.50453300  0.16435379  1
  Cl  Cl17  1  0.10710094  0.00453300  0.83564621  1
  Cl  Cl18  1  0.39289906  0.00453300  0.33564621  1
  Cl  Cl19  1  0.60710094  0.50453300  0.66435379  1
  Cl  Cl20  1  0.82061298  0.72248374  0.21704519  1
  Cl  Cl21  1  0.17938702  0.22248374  0.78295481  1
  Cl  Cl22  1  0.32061298  0.22248374  0.28295481  1
  Cl  Cl23  1  0.67938702  0.72248374  0.71704519  1
  Cl  Cl24  1  0.64876684  0.58749142  0.45618891  1
  Cl  Cl25  1  0.35123316  0.08749142  0.54381109  1
  Cl  Cl26  1  0.14876684  0.08749142  0.04381109  1
  Cl  Cl27  1  0.85123316  0.58749142  0.95618891  1
  Cl  Cl28  1  0.71970702  0.37215656  0.40455847  1
  Cl  Cl29  1  0.28029298  0.87215656  0.59544153  1
  Cl  Cl30  1  0.21970702  0.87215656  0.09544153  1
  Cl  Cl31  1  0.78029298  0.37215656  0.90455847  1
  Cl  Cl32  1  0.64435789  0.36338707  0.23980402  1
  Cl  Cl33  1  0.35564211  0.86338707  0.76019598  1
  Cl  Cl34  1  0.14435789  0.86338707  0.26019598  1
  Cl  Cl35  1  0.85564211  0.36338707  0.73980402  1
  Cl  Cl36  1  0.53092706  0.57589888  0.19319070  1
  Cl  Cl37  1  0.46907294  0.07589888  0.80680930  1
  Cl  Cl38  1  0.03092706  0.07589888  0.30680930  1
  Cl  Cl39  1  0.96907294  0.57589888  0.69319070  1
  Cl  Cl40  1  0.53347870  0.71342485  0.32552168  1
  Cl  Cl41  1  0.46652130  0.21342485  0.67447832  1
  Cl  Cl42  1  0.03347870  0.21342485  0.17447832  1
  Cl  Cl43  1  0.96652130  0.71342485  0.82552168  1
  Cl  Cl44  1  0.42402072  0.48891200  0.33954469  1
  Cl  Cl45  1  0.57597928  0.98891200  0.66045531  1
  Cl  Cl46  1  0.92402072  0.98891200  0.16045531  1
  Cl  Cl47  1  0.07597928  0.48891200  0.83954469  1
  O  O0  1  0.98510034  0.92430597  0.42000078  1
  O  O1  1  0.01489966  0.42430597  0.57999922  1
  O  O2  1  0.48510034  0.42430597  0.07999922  1
  O  O3  1  0.51489966  0.92430597  0.92000078  1
  O  O4  1  0.20708022  0.84744806  0.43634689  1
  O  O5  1  0.79291978  0.34744806  0.56365311  1
  O  O6  1  0.70708022  0.34744806  0.06365311  1
  O  O7  1  0.29291978  0.84744806  0.93634689  1
  O  O8  1  0.22468417  0.59346201  0.12440283  1
  O  O9  1  0.77531583  0.09346201  0.87559717  1
  O  O10  1  0.72468417  0.09346201  0.37559717  1
  O  O11  1  0.27531583  0.59346201  0.62440283  1
  O  O12  1  0.07816650  0.68129368  0.05748437  1
  O  O13  1  0.92183350  0.18129368  0.94251563  1
  O  O14  1  0.57816650  0.18129368  0.44251563  1
  O  O15  1  0.42183350  0.68129368  0.55748437  1
  O  O16  1  0.44477072  0.70048841  0.03537485  1
  O  O17  1  0.55522928  0.20048841  0.96462515  1
  O  O18  1  0.94477072  0.20048841  0.46462515  1
  O  O19  1  0.05522928  0.70048841  0.53537485  1
  O  O20  1  0.64943219  0.79593777  0.04177341  1
  O  O21  1  0.35056781  0.29593777  0.95822659  1
  O  O22  1  0.14943219  0.29593777  0.45822659  1
  O  O23  1  0.85056781  0.79593777  0.54177341  1
  O  O24  1  0.18038663  0.48677823  0.99612163  1
  O  O25  1  0.81961337  0.98677823  0.00387837  1
  O  O26  1  0.68038663  0.98677823  0.50387837  1
  O  O27  1  0.31961337  0.48677823  0.49612163  1
  O  O28  1  0.09860364  0.37285094  0.06356021  1
  O  O29  1  0.90139636  0.87285094  0.93643979  1
  O  O30  1  0.59860364  0.87285094  0.43643979  1
  O  O31  1  0.40139636  0.37285094  0.56356021  1
loop_
_geom_bond_atom_site_label_1
_geom_bond_atom_site_label_2
_geom_bond_distance
_geom_bond_site_symmetry_2
B0 Cl0 1.797121 1_655
B1 Cl1 1.797121 1_455
B2 Cl2 1.797121 1_555
B3 Cl3 1.797121 1_555
B4 Cl4 1.796657 1_555
B5 Cl5 1.796657 1_555
B6 Cl6 1.796657 1_555
B7 Cl7 1.796657 1_555
B8 Cl8 1.797492 1_655
B9 Cl9 1.797492 1_455
B10 Cl10 1.797492 1_555
B11 Cl11 1.797492 1_555
B12 Cl12 1.794689 1_655
B13 Cl13 1.794689 1_455
B14 Cl14 1.794689 1_555
B15 Cl15 1.794689 1_555
B16 Cl16 1.803226 1_555
B17 Cl17 1.803226 1_555
B18 Cl18 1.803226 1_555
B19 Cl19 1.803226 1_555
B20 Cl20 1.796993 1_555
B21 Cl21 1.796993 1_555
B22 Cl22 1.796993 1_555
B23 Cl23 1.796993 1_555
B24 Cl24 1.800079 1_555
B25 Cl25 1.800079 1_555
B26 Cl26 1.800079 1_555
B27 Cl27 1.800079 1_555
B28 Cl28 1.793452 1_555
B29 Cl29 1.793452 1_555
B30 Cl30 1.793452 1_555
B31 Cl31 1.793452 1_555
B32 Cl32 1.792110 1_555
B33 Cl33 1.792110 1_555
B34 Cl34 1.792110 1_555
B35 Cl35 1.792110 1_555
B36 Cl36 1.795072 1_555
B37 Cl37 1.795072 1_555
B38 Cl38 1.795072 1_555
B39 Cl39 1.795072 1_555
B40 Cl40 1.797828 1_555
B41 Cl41 1.797828 1_555
B42 Cl42 1.797828 1_555
B43 Cl43 1.797828 1_555
B44 Cl44 1.798774 1_555
B45 Cl45 1.798774 1_545
B46 Cl46 1.798774 1_445
B47 Cl47 1.798774 1_655
Cl0 Rb3 3.824961 1_555
Cl0 Rb4 3.870229 1_555
Cl1 Rb2 3.824961 1_555
Cl1 Rb5 3.870229 1_545
Cl2 Rb1 3.824961 1_555
Cl2 Rb6 3.870229 1_545
Cl3 Rb0 3.824961 1_555
Cl3 Rb7 3.870229 1_555
Cl4 Rb6 3.564116 1_555
Cl5 Rb7 3.564116 1_555
Cl6 Rb4 3.564116 1_555
Cl7 Rb5 3.564116 1_555
Cl8 Rb3 3.464188 1_555
Cl9 Rb2 3.464188 1_555
Cl10 Rb1 3.464188 1_555
Cl11 Rb0 3.464188 1_555
Cl12 Rb4 3.516607 1_555
Cl13 Rb5 3.516607 1_555
Cl14 Rb6 3.516607 1_555
Cl15 Rb7 3.516607 1_555
Cl16 Rb4 3.888042 1_655
Cl17 Rb5 3.888042 1_445
Cl18 Rb6 3.888042 1_545
Cl19 Rb7 3.888042 1_555
Cl20 Rb6 3.767393 1_555
Cl21 Rb7 3.767393 1_555
Cl22 Rb4 3.767393 1_555
Cl23 Rb5 3.767393 1_555
Cl24 Rb3 3.769495 1_555
Cl25 Rb2 3.769495 1_555
Cl26 Rb1 3.769495 1_455
Cl27 Rb0 3.769495 1_655
Cl32 Rb4 3.882860 1_555
Cl33 Rb5 3.882860 1_555
Cl34 Rb6 3.882860 1_455
Cl35 Rb7 3.882860 1_655
Cl36 Rb4 3.565751 1_555
Cl37 Rb5 3.565751 1_545
Cl38 Rb6 3.565751 1_445
Cl39 Rb7 3.565751 1_655
Cl40 Rb3 3.500240 1_555
Cl40 Rb6 3.938542 1_555
Cl41 Rb2 3.500240 1_555
Cl41 Rb7 3.938542 1_555
Cl42 Rb1 3.500240 1_455
Cl42 Rb4 3.938542 1_555
Cl43 Rb0 3.500240 1_655
Cl43 Rb5 3.938542 1_555
Cl44 Rb3 3.693666 1_555
Cl44 Rb4 3.858657 1_555
Cl45 Rb2 3.693666 1_565
Cl45 Rb5 3.858657 1_555
Cl46 Rb1 3.693666 1_565
Cl46 Rb6 3.858657 1_555
Cl47 Rb0 3.693666 1_555
Cl47 Rb7 3.858657 1_555
O0 S0 1.450964 1_655
O0 Rb6 3.172421 1_555
O1 S1 1.450964 1_455
O1 Rb7 3.172421 1_555
O2 S2 1.450964 1_555
O2 Rb4 3.172421 1_555
O3 S3 1.450964 1_555
O3 Rb5 3.172421 1_555
O4 S0 1.452927 1_555
O4 Rb3 3.026024 1_555
O5 S1 1.452927 1_555
O5 Rb2 3.026024 1_555
O6 S2 1.452927 1_555
O6 Rb1 3.026024 1_555
O7 S3 1.452927 1_555
O7 Rb0 3.026024 1_555
O8 S4 1.451890 1_555
O8 Rb4 3.156803 1_555
O9 S5 1.451890 1_555
O9 Rb5 3.156803 1_545
O10 S6 1.451890 1_555
O10 Rb6 3.156803 1_545
O11 S7 1.451890 1_555
O11 Rb7 3.156803 1_555
O12 S4 1.455960 1_555
O12 Rb0 3.109886 1_554
O13 S5 1.455960 1_555
O13 Rb1 3.109886 1_556
O14 S6 1.455960 1_555
O14 Rb2 3.109886 1_555
O15 S7 1.455960 1_555
O15 Rb3 3.109886 1_555
O16 S8 1.452262 1_555
O16 Rb0 3.194383 1_554
O17 S9 1.452262 1_555
O17 Rb1 3.194383 1_556
O18 S10 1.452262 1_655
O18 Rb2 3.194383 1_555
O19 S11 1.452262 1_455
O19 Rb3 3.194383 1_555
O20 S8 1.449044 1_555
O21 S9 1.449044 1_555
O22 S10 1.449044 1_555
O23 S11 1.449044 1_555
O24 S12 1.451007 1_556
O24 Rb0 3.130335 1_555
O25 S13 1.451007 1_554
O25 Rb1 3.130335 1_565
O26 S14 1.451007 1_555
O26 Rb2 3.130335 1_565
O27 S15 1.451007 1_555
O27 Rb3 3.130335 1_555
O28 S12 1.452542 1_555
O28 Rb4 3.272616 1_555
O29 S13 1.452542 1_555
O29 Rb5 3.272616 1_555
O30 S14 1.452542 1_555
O30 Rb6 3.272616 1_555
O31 S15 1.452542 1_555
O31 Rb7 3.272616 1_555
