# generated using pymatgen
data_AsC3S3NF10
_symmetry_space_group_name_H-M   'P 1'
_cell_length_a   8.16766000
_cell_length_b   10.75915500
_cell_length_c   13.14030386
_cell_angle_alpha   81.00167494
_cell_angle_beta   90.00000000
_cell_angle_gamma   90.00000000
_symmetry_Int_Tables_number   1
_chemical_formula_structural   AsC3S3NF10
_chemical_formula_sum   'As4 C12 S12 N4 F40'
_cell_volume   1140.52067053
_cell_formula_units_Z   4
loop_
 _symmetry_equiv_pos_site_id
 _symmetry_equiv_pos_as_xyz
  1  'x, y, z'
loop_
 _atom_site_type_symbol
 _atom_site_label
 _atom_site_symmetry_multiplicity
 _atom_site_fract_x
 _atom_site_fract_y
 _atom_site_fract_z
 _atom_site_occupancy
  As  As0  1  0.87538400  0.70448900  0.72718000  1
  As  As1  1  0.12461600  0.29551100  0.27282000  1
  As  As2  1  0.37538400  0.29551100  0.77282000  1
  As  As3  1  0.62461600  0.70448900  0.22718000  1
  C  C0  1  0.30772000  0.88109100  0.54002900  1
  C  C1  1  0.69228000  0.11890900  0.45997100  1
  C  C2  1  0.80772000  0.11890900  0.95997100  1
  C  C3  1  0.19228000  0.88109100  0.04002900  1
  C  C4  1  0.03712500  0.94093500  0.98009900  1
  C  C5  1  0.96287500  0.05906500  0.01990100  1
  C  C6  1  0.53712500  0.05906500  0.51990100  1
  C  C7  1  0.46287500  0.94093500  0.48009900  1
  C  C8  1  0.26017900  0.77023800  0.99239100  1
  C  C9  1  0.73982100  0.22976200  0.00760900  1
  C  C10  1  0.76017900  0.22976200  0.50760900  1
  C  C11  1  0.23982100  0.77023800  0.49239100  1
  S  S0  1  0.26861300  0.53984500  0.97199200  1
  S  S1  1  0.73138700  0.46015500  0.02800800  1
  S  S2  1  0.76861300  0.46015500  0.52800800  1
  S  S3  1  0.23138700  0.53984500  0.47199200  1
  S  S4  1  0.46014200  0.62408200  0.87566400  1
  S  S5  1  0.53985800  0.37591800  0.12433600  1
  S  S6  1  0.96014200  0.37591800  0.62433600  1
  S  S7  1  0.03985800  0.62408200  0.37566400  1
  S  S8  1  0.42445800  0.80204500  0.90715900  1
  S  S9  1  0.57554200  0.19795500  0.09284100  1
  S  S10  1  0.92445800  0.19795500  0.59284100  1
  S  S11  1  0.07554200  0.80204500  0.40715900  1
  N  N0  1  0.30118300  0.65915200  0.51685700  1
  N  N1  1  0.69881700  0.34084800  0.48314300  1
  N  N2  1  0.80118300  0.34084800  0.98314300  1
  N  N3  1  0.19881700  0.65915200  0.01685700  1
  F  F0  1  0.34792700  0.84017900  0.64006000  1
  F  F1  1  0.65207300  0.15982100  0.35994000  1
  F  F2  1  0.84792700  0.15982100  0.85994000  1
  F  F3  1  0.15207300  0.84017900  0.14006000  1
  F  F4  1  0.06424800  0.73421600  0.78460700  1
  F  F5  1  0.93575200  0.26578400  0.21539300  1
  F  F6  1  0.56424800  0.26578400  0.71539300  1
  F  F7  1  0.43575200  0.73421600  0.28460700  1
  F  F8  1  0.98163000  0.62120500  0.63693100  1
  F  F9  1  0.01837000  0.37879500  0.36306900  1
  F  F10  1  0.48163000  0.37879500  0.86306900  1
  F  F11  1  0.51837000  0.62120500  0.13693100  1
  F  F12  1  0.89672100  0.84488100  0.63920600  1
  F  F13  1  0.10327900  0.15511900  0.36079400  1
  F  F14  1  0.39672100  0.15511900  0.86079400  1
  F  F15  1  0.60327900  0.84488100  0.13920600  1
  F  F16  1  0.76487000  0.78340300  0.81428100  1
  F  F17  1  0.23513000  0.21659700  0.18571900  1
  F  F18  1  0.26487000  0.21659700  0.68571900  1
  F  F19  1  0.73513000  0.78340300  0.31428100  1
  F  F20  1  0.36146200  0.43896300  0.68596100  1
  F  F21  1  0.63853800  0.56103700  0.31403900  1
  F  F22  1  0.86146200  0.56103700  0.81403900  1
  F  F23  1  0.13853800  0.43896300  0.18596100  1
  F  F24  1  0.18951200  0.33056900  0.83177900  1
  F  F25  1  0.81048800  0.66943100  0.16822100  1
  F  F26  1  0.68951200  0.66943100  0.66822100  1
  F  F27  1  0.31048800  0.33056900  0.33177900  1
  F  F28  1  0.18682900  0.96979500  0.53558400  1
  F  F29  1  0.81317100  0.03020500  0.46441600  1
  F  F30  1  0.68682900  0.03020500  0.96441600  1
  F  F31  1  0.31317100  0.96979500  0.03558400  1
  F  F32  1  0.92128500  0.84949800  0.98675200  1
  F  F33  1  0.07871500  0.15050200  0.01324800  1
  F  F34  1  0.42128500  0.15050200  0.51324800  1
  F  F35  1  0.57871500  0.84949800  0.48675200  1
  F  F36  1  0.08340300  0.97537800  0.87961300  1
  F  F37  1  0.91659700  0.02462200  0.12038700  1
  F  F38  1  0.58340300  0.02462200  0.62038700  1
  F  F39  1  0.41659700  0.97537800  0.37961300  1
loop_
_geom_bond_atom_site_label_1
_geom_bond_atom_site_label_2
_geom_bond_distance
_geom_bond_site_symmetry_2
As0 F12 1.761282 1_555
As0 F4 1.768268 1_655
As0 F26 1.771625 1_555
As0 F22 1.773901 1_555
As0 F16 1.774705 1_555
As0 F8 1.815142 1_555
As1 F13 1.761282 1_555
As1 F5 1.768268 1_455
As1 F27 1.771625 1_555
As1 F23 1.773901 1_555
As1 F17 1.774705 1_555
As1 F9 1.815142 1_555
As2 F14 1.761282 1_555
As2 F6 1.768268 1_555
As2 F24 1.771625 1_555
As2 F20 1.773901 1_555
As2 F18 1.774705 1_555
As2 F10 1.815142 1_555
As3 F15 1.761282 1_555
As3 F7 1.768268 1_555
As3 F25 1.771625 1_555
As3 F21 1.773901 1_555
As3 F19 1.774705 1_555
As3 F11 1.815142 1_555
C0 F0 1.359544 1_555
C0 F28 1.368126 1_555
C1 F1 1.359544 1_555
C1 F29 1.368126 1_555
C2 F2 1.359544 1_555
C2 F30 1.368126 1_555
C3 F3 1.359544 1_555
C3 F31 1.368126 1_555
C4 F32 1.357850 1_455
C4 F36 1.367712 1_555
C5 F33 1.357850 1_655
C5 F37 1.367712 1_555
C6 F34 1.357850 1_555
C6 F38 1.367712 1_555
C7 F35 1.357850 1_555
C7 F39 1.367712 1_555
C8 N3 1.289507 1_556
C8 S8 1.746975 1_555
C9 N2 1.289507 1_554
C9 S9 1.746975 1_555
C10 N1 1.289507 1_555
C10 S10 1.746975 1_555
C11 N0 1.289507 1_555
C11 S11 1.746975 1_555
S0 S4 2.124129 1_555
S1 S5 2.124129 1_555
S2 S6 2.124129 1_555
S3 S7 2.124129 1_555
S4 S8 2.042130 1_555
S5 S9 2.042130 1_555
S10 S6 2.042130 1_555
S11 S7 2.042130 1_555
N0 S3 1.599061 1_555
N1 S2 1.599061 1_555
N2 S1 1.599061 1_556
N3 S0 1.599061 1_554
