# generated using pymatgen
data_Rb6HgS4
_symmetry_space_group_name_H-M   'P 1'
_cell_length_a   10.40068525
_cell_length_b   10.40068464
_cell_length_c   8.03712992
_cell_angle_alpha   90.00001406
_cell_angle_beta   89.99998287
_cell_angle_gamma   119.99998665
_symmetry_Int_Tables_number   1
_chemical_formula_structural   Rb6HgS4
_chemical_formula_sum   'Rb12 Hg2 S8'
_cell_volume   752.93166252
_cell_formula_units_Z   2
loop_
 _symmetry_equiv_pos_site_id
 _symmetry_equiv_pos_as_xyz
  1  'x, y, z'
loop_
 _atom_site_type_symbol
 _atom_site_label
 _atom_site_symmetry_multiplicity
 _atom_site_fract_x
 _atom_site_fract_y
 _atom_site_fract_z
 _atom_site_occupancy
  Rb  Rb0  1  0.14863973  0.29727951  0.20645323  1
  Rb  Rb1  1  0.14863960  0.85136034  0.20645313  1
  Rb  Rb2  1  0.70272051  0.85136029  0.20645321  1
  Rb  Rb3  1  0.85136161  0.70272287  0.70645081  1
  Rb  Rb4  1  0.85136187  0.14863806  0.70645052  1
  Rb  Rb5  1  0.29727715  0.14863836  0.70645134  1
  Rb  Rb6  1  0.52861861  0.05723787  0.37879244  1
  Rb  Rb7  1  0.52861863  0.47138135  0.37879257  1
  Rb  Rb8  1  0.94276214  0.47138134  0.37879242  1
  Rb  Rb9  1  0.47137771  0.94275470  0.87879271  1
  Rb  Rb10  1  0.47137771  0.52862234  0.87879284  1
  Rb  Rb11  1  0.05724538  0.52862228  0.87879270  1
  Hg  Hg0  1  0.33333312  0.66666699  0.49994240  1
  Hg  Hg1  1  0.66666685  0.33333308  -0.00005994  1
  S  S0  1  0.33333330  0.66666676  0.16845042  1
  S  S1  1  0.66666678  0.33333313  0.66845370  1
  S  S2  1  0.80621078  0.61242161  0.09961683  1
  S  S3  1  0.80621093  0.19378904  0.09961692  1
  S  S4  1  0.38757837  0.19378921  0.09961697  1
  S  S5  1  0.19378795  0.38757550  0.59961892  1
  S  S6  1  0.19378781  0.80621228  0.59961900  1
  S  S7  1  0.61242446  0.80621209  0.59961889  1
loop_
_geom_bond_atom_site_label_1
_geom_bond_atom_site_label_2
_geom_bond_distance
_geom_bond_site_symmetry_2
Rb0 S5 3.262914 1_555
Rb0 S3 3.278204 1_455
Rb0 S4 3.278205 1_555
Rb0 S0 3.341156 1_555
Rb1 S6 3.262916 1_555
Rb1 S4 3.278205 1_565
Rb1 S2 3.278205 1_455
Rb1 S0 3.341156 1_555
Rb2 S7 3.262914 1_555
Rb2 S3 3.278203 1_565
Rb2 S2 3.278205 1_555
Rb2 S0 3.341156 1_555
Rb3 S2 3.262928 1_556
Rb3 S6 3.278171 1_655
Rb3 S7 3.278174 1_555
Rb3 S1 3.341174 1_555
Rb4 S3 3.262932 1_556
Rb4 S7 3.278171 1_545
Rb4 S5 3.278172 1_655
Rb4 S1 3.341178 1_555
Rb5 S4 3.262925 1_556
Rb5 S6 3.278171 1_545
Rb5 S5 3.278174 1_555
Rb5 S1 3.341174 1_555
Rb6 S4 3.359575 1_555
Rb6 S3 3.359580 1_555
Rb6 S1 3.406504 1_555
Rb6 S6 3.605810 1_545
Rb6 S7 3.605815 1_545
Rb7 S4 3.359579 1_555
Rb7 S2 3.359580 1_555
Rb7 S1 3.406511 1_555
Rb7 S5 3.605806 1_555
Rb7 S7 3.605806 1_555
Rb8 S2 3.359576 1_555
Rb8 S3 3.359580 1_555
Rb8 S1 3.406505 1_555
Rb8 S6 3.605811 1_655
Rb8 S5 3.605816 1_655
Rb9 S7 3.359551 1_555
Rb9 S6 3.359555 1_555
Rb9 S0 3.406437 1_556
Rb9 S3 3.605838 1_566
Rb9 S4 3.605841 1_566
Rb10 S7 3.359555 1_555
Rb10 S5 3.359555 1_555
Rb10 S0 3.406441 1_556
Rb10 S2 3.605835 1_556
Rb10 S4 3.605836 1_556
Rb11 S5 3.359550 1_555
Rb11 S6 3.359555 1_555
Rb11 S0 3.406437 1_556
Rb11 S3 3.605838 1_456
Rb11 S2 3.605842 1_456
Hg0 S6 2.638404 1_555
Hg0 S7 2.638411 1_555
Hg0 S5 2.638412 1_555
Hg0 S0 2.664244 1_555
Hg1 S3 2.638384 1_555
Hg1 S4 2.638387 1_555
Hg1 S2 2.638387 1_555
Hg1 S1 2.664199 1_554
