# generated using pymatgen
data_NaCaN3
_symmetry_space_group_name_H-M   'P 1'
_cell_length_a   12.85193346
_cell_length_b   12.50860270
_cell_length_c   5.86190812
_cell_angle_alpha   79.92474785
_cell_angle_beta   73.39075682
_cell_angle_gamma   26.68449533
_symmetry_Int_Tables_number   1
_chemical_formula_structural   NaCaN3
_chemical_formula_sum   'Na4 Ca4 N12'
_cell_volume   398.38407986
_cell_formula_units_Z   4
loop_
 _symmetry_equiv_pos_site_id
 _symmetry_equiv_pos_as_xyz
  1  'x, y, z'
loop_
 _atom_site_type_symbol
 _atom_site_label
 _atom_site_symmetry_multiplicity
 _atom_site_fract_x
 _atom_site_fract_y
 _atom_site_fract_z
 _atom_site_occupancy
  Na  Na0  1  0.68204800  0.68204800  0.81795200  1
  Na  Na1  1  0.43204800  0.43204800  0.56795200  1
  Na  Na2  1  0.81795200  0.81795200  0.68204800  1
  Na  Na3  1  0.56795200  0.56795200  0.43204800  1
  Ca  Ca0  1  0.17339000  0.17339000  0.32661000  1
  Ca  Ca1  1  0.92339000  0.92339000  0.07661000  1
  Ca  Ca2  1  0.32661000  0.32661000  0.17339000  1
  Ca  Ca3  1  0.07661000  0.07661000  0.92339000  1
  N  N0  1  0.88043300  0.40555500  0.11504500  1
  N  N1  1  0.40555500  0.88043300  0.59896700  1
  N  N2  1  0.13495500  0.65103300  0.36956700  1
  N  N3  1  0.65103300  0.13495500  0.84444500  1
  N  N4  1  0.11504500  0.59896700  0.88043300  1
  N  N5  1  0.59896700  0.11504500  0.40555500  1
  N  N6  1  0.77398400  0.22601600  0.22601600  1
  N  N7  1  0.22601600  0.77398400  0.77398400  1
  N  N8  1  0.02398400  0.47601600  0.47601600  1
  N  N9  1  0.47601600  0.02398400  0.02398400  1
  N  N10  1  0.36956700  0.84444500  0.13495500  1
  N  N11  1  0.84444500  0.36956700  0.65103300  1
loop_
_geom_bond_atom_site_label_1
_geom_bond_atom_site_label_2
_geom_bond_distance
_geom_bond_site_symmetry_2
Ca0 N8 2.448094 1_555
Ca0 N9 2.448094 1_555
Ca0 N11 2.451315 1_455
Ca0 N10 2.451315 1_545
Ca0 N1 2.453106 1_545
Ca0 N0 2.453106 1_455
Ca1 N6 2.448094 1_565
Ca1 N7 2.448094 1_654
Ca1 N5 2.451315 1_565
Ca1 N4 2.451315 1_654
Ca1 N2 2.453106 1_655
Ca1 N3 2.453106 1_564
Ca2 N8 2.448094 1_555
Ca2 N9 2.448094 1_555
Ca2 N2 2.451315 1_555
Ca2 N3 2.451315 1_554
Ca2 N5 2.453106 1_555
Ca2 N4 2.453106 1_554
Ca3 N6 2.448094 1_456
Ca3 N7 2.448094 1_545
Ca3 N0 2.451315 1_456
Ca3 N1 2.451315 1_545
Ca3 N10 2.453106 1_546
Ca3 N11 2.453106 1_455
N0 Na0 2.483636 1_554
N0 Na3 2.486759 1_555
N1 Na0 2.483636 1_555
N1 Na3 2.486759 1_555
N2 Na1 2.483636 1_555
N2 Na2 2.486759 1_455
N3 Na1 2.483636 1_555
N3 Na2 2.486759 1_545
N4 Na2 2.483636 1_455
N4 Na1 2.486759 1_555
N5 Na2 2.483636 1_545
N5 Na1 2.486759 1_555
N6 Na1 2.550424 1_555
N6 Na3 2.550424 1_555
N7 Na1 2.550424 1_555
N7 Na3 2.550424 1_555
N8 Na0 2.550424 1_455
N8 Na2 2.550424 1_455
N9 Na0 2.550424 1_544
N9 Na2 2.550424 1_544
N10 Na3 2.483636 1_555
N10 Na0 2.486759 1_554
N11 Na3 2.483636 1_555
N11 Na0 2.486759 1_555
