# generated using pymatgen
data_U6P13Rh20
_symmetry_space_group_name_H-M   'P 1'
_cell_length_a   13.40333559
_cell_length_b   13.40333559
_cell_length_c   3.87596800
_cell_angle_alpha   90.00000000
_cell_angle_beta   90.00000000
_cell_angle_gamma   119.99999798
_symmetry_Int_Tables_number   1
_chemical_formula_structural   U6P13Rh20
_chemical_formula_sum   'U6 P13 Rh20'
_cell_volume   603.02679001
_cell_formula_units_Z   1
loop_
 _symmetry_equiv_pos_site_id
 _symmetry_equiv_pos_as_xyz
  1  'x, y, z'
loop_
 _atom_site_type_symbol
 _atom_site_label
 _atom_site_symmetry_multiplicity
 _atom_site_fract_x
 _atom_site_fract_y
 _atom_site_fract_z
 _atom_site_occupancy
  U  U0  1  0.52730800  0.71816900  0.24933900  1
  U  U1  1  0.28183100  0.80913900  0.24933900  1
  U  U2  1  0.19086100  0.47269200  0.24933900  1
  U  U3  1  0.47269200  0.28183100  0.75066100  1
  U  U4  1  0.71816900  0.19086100  0.75066100  1
  U  U5  1  0.80913900  0.52730800  0.75066100  1
  P  P0  1  0.52626600  0.13981000  0.24979700  1
  P  P1  1  0.86019000  0.38645700  0.24979700  1
  P  P2  1  0.61354300  0.47373400  0.24979700  1
  P  P3  1  0.94393000  0.71547900  0.25325500  1
  P  P4  1  0.28452100  0.22845100  0.25325500  1
  P  P5  1  0.77154900  0.05607000  0.25325500  1
  P  P6  1  0.38645700  0.52626600  0.75020300  1
  P  P7  1  0.47373400  0.86019000  0.75020300  1
  P  P8  1  0.13981000  0.61354300  0.75020300  1
  P  P9  1  0.71547900  0.77154900  0.74674500  1
  P  P10  1  0.22845100  0.94393000  0.74674500  1
  P  P11  1  0.05607000  0.28452100  0.74674500  1
  P  P12  1  0.00000000  0.00000000  0.00000000  1
  Rh  Rh0  1  0.33333300  0.66666700  0.74942900  1
  Rh  Rh1  1  0.92269700  0.25230100  0.25158700  1
  Rh  Rh2  1  0.74769900  0.67039600  0.25158700  1
  Rh  Rh3  1  0.32960400  0.07730300  0.25158700  1
  Rh  Rh4  1  0.43943600  0.02161100  0.75053200  1
  Rh  Rh5  1  0.97838900  0.41782600  0.75053200  1
  Rh  Rh6  1  0.58217400  0.56056400  0.75053200  1
  Rh  Rh7  1  0.66666700  0.33333300  0.25057100  1
  Rh  Rh8  1  0.09434600  0.18649100  0.25044300  1
  Rh  Rh9  1  0.81350900  0.90785500  0.25044300  1
  Rh  Rh10  1  0.09214500  0.90565400  0.25044300  1
  Rh  Rh11  1  0.02161100  0.58217400  0.24946800  1
  Rh  Rh12  1  0.41782600  0.43943600  0.24946800  1
  Rh  Rh13  1  0.56056400  0.97838900  0.24946800  1
  Rh  Rh14  1  0.67039600  0.92269700  0.74841300  1
  Rh  Rh15  1  0.07730300  0.74769900  0.74841300  1
  Rh  Rh16  1  0.25230100  0.32960400  0.74841300  1
  Rh  Rh17  1  0.90565400  0.81350900  0.74955700  1
  Rh  Rh18  1  0.18649100  0.09214500  0.74955700  1
  Rh  Rh19  1  0.90785500  0.09434600  0.74955700  1
loop_
_geom_bond_atom_site_label_1
_geom_bond_atom_site_label_2
_geom_bond_distance
_geom_bond_site_symmetry_2
P0 Rh7 2.321248 1_555
P0 Rh3 2.332742 1_555
P0 Rh4 2.401105 1_554
P0 Rh4 2.405700 1_555
P0 Rh13 2.426319 1_545
P0 U4 3.011134 1_554
P0 U4 3.015441 1_555
P0 U3 3.041192 1_554
P0 U3 3.045457 1_555
P1 Rh7 2.321241 1_555
P1 Rh1 2.332755 1_555
P1 Rh5 2.401105 1_554
P1 Rh5 2.405700 1_555
P1 Rh11 2.426302 1_655
P1 U5 3.011124 1_554
P1 U5 3.015431 1_555
P1 U4 3.041199 1_554
P1 U4 3.045464 1_555
P2 Rh7 2.321267 1_555
P2 Rh2 2.332745 1_555
P2 Rh6 2.401105 1_554
P2 Rh6 2.405700 1_555
P2 Rh12 2.426293 1_555
P2 U3 3.011131 1_554
P2 U3 3.015439 1_555
P2 U5 3.041202 1_554
P2 U5 3.045467 1_555
P3 Rh10 2.319517 1_655
P3 Rh2 2.386119 1_555
P3 Rh11 2.477298 1_655
P3 Rh15 2.508696 1_655
P3 Rh17 2.522720 1_555
P3 Rh15 2.537526 1_654
P3 Rh17 2.544647 1_554
P3 U5 2.964017 1_555
P3 U5 2.977135 1_554
P4 Rh8 2.319516 1_555
P4 Rh3 2.386119 1_555
P4 Rh12 2.477288 1_555
P4 Rh16 2.508696 1_555
P4 Rh18 2.522720 1_555
P4 Rh16 2.537526 1_554
P4 Rh18 2.544647 1_554
P4 U3 2.964017 1_555
P4 U3 2.977135 1_554
P5 Rh9 2.319516 1_545
P5 Rh1 2.386119 1_555
P5 Rh13 2.477286 1_545
P5 Rh14 2.508696 1_545
P5 Rh19 2.522720 1_555
P5 Rh14 2.537526 1_544
P5 Rh19 2.544647 1_554
P5 U4 2.964017 1_555
P5 U4 2.977135 1_554
P6 Rh0 2.321267 1_555
P6 Rh16 2.332745 1_555
P6 Rh12 2.401105 1_556
P6 Rh12 2.405700 1_555
P6 Rh6 2.426293 1_555
P6 U0 3.011131 1_556
P6 U0 3.015439 1_555
P6 U2 3.041202 1_556
P6 U2 3.045467 1_555
P7 Rh0 2.321248 1_555
P7 Rh14 2.332742 1_555
P7 Rh13 2.401105 1_556
P7 Rh13 2.405700 1_555
P7 Rh4 2.426319 1_565
P7 U1 3.011134 1_556
P7 U1 3.015441 1_555
P7 U0 3.041192 1_556
P7 U0 3.045457 1_555
P8 Rh0 2.321241 1_555
P8 Rh15 2.332755 1_555
P8 Rh11 2.401105 1_556
P8 Rh11 2.405700 1_555
P8 Rh5 2.426302 1_455
P8 U2 3.011124 1_556
P8 U2 3.015431 1_555
P8 U1 3.041199 1_556
P8 U1 3.045464 1_555
P9 Rh17 2.319516 1_555
P9 Rh14 2.386119 1_555
P9 Rh6 2.477288 1_555
P9 Rh2 2.508696 1_555
P9 Rh9 2.522720 1_555
P9 Rh2 2.537526 1_556
P9 Rh9 2.544647 1_556
P9 U0 2.964017 1_555
P9 U0 2.977135 1_556
P10 Rh18 2.319516 1_565
P10 Rh15 2.386119 1_555
P10 Rh4 2.477286 1_565
P10 Rh3 2.508696 1_565
P10 Rh10 2.522720 1_555
P10 Rh3 2.537526 1_566
P10 Rh10 2.544647 1_556
P10 U1 2.964017 1_555
P10 U1 2.977135 1_556
P11 Rh19 2.319517 1_455
P11 Rh16 2.386119 1_555
P11 Rh5 2.477298 1_455
P11 Rh1 2.508696 1_455
P11 Rh8 2.522720 1_555
P11 Rh1 2.537526 1_456
P11 Rh8 2.544647 1_556
P11 U2 2.964017 1_555
P11 U2 2.977135 1_556
P12 Rh10 2.372446 1_545
P12 Rh19 2.372446 1_454
P12 Rh18 2.372446 1_554
P12 Rh9 2.372446 1_445
P12 Rh8 2.372446 1_555
P12 Rh17 2.372446 1_444
Rh0 U1 3.032443 1_556
Rh0 U2 3.032450 1_556
Rh0 U0 3.032453 1_556
Rh0 U1 3.032889 1_555
Rh0 U2 3.032896 1_555
Rh0 U0 3.032899 1_555
Rh1 Rh5 2.750126 1_555
Rh1 Rh5 2.755884 1_554
Rh1 Rh19 2.797494 1_555
Rh1 Rh19 2.808374 1_554
Rh1 Rh8 2.846140 1_655
Rh1 U4 3.110879 1_555
Rh1 U4 3.115348 1_554
Rh1 U2 3.320773 1_655
Rh2 Rh6 2.750125 1_555
Rh2 Rh6 2.755882 1_554
Rh2 Rh9 2.846140 1_555
Rh2 U5 3.110879 1_555
Rh2 U5 3.115348 1_554
Rh2 U0 3.320772 1_555
Rh3 Rh4 2.750117 1_555
Rh3 Rh4 2.755875 1_554
Rh3 U3 3.110879 1_555
Rh3 U3 3.115348 1_554
Rh3 U1 3.320772 1_545
Rh4 U1 3.208512 1_546
Rh4 U1 3.214094 1_545
Rh4 U4 3.260128 1_555
Rh4 U3 3.287686 1_555
Rh5 U2 3.208515 1_656
Rh5 U2 3.214096 1_655
Rh5 U5 3.260117 1_555
Rh5 U4 3.287692 1_555
Rh6 U0 3.208505 1_556
Rh6 U0 3.214086 1_555
Rh6 U3 3.260130 1_555
Rh6 U5 3.287700 1_555
Rh7 U4 3.032443 1_554
Rh7 U5 3.032450 1_554
Rh7 U3 3.032453 1_554
Rh7 U4 3.032889 1_555
Rh7 U5 3.032896 1_555
Rh7 U3 3.032899 1_555
Rh8 U2 3.380288 1_555
Rh9 U0 3.380288 1_555
Rh10 Rh15 2.797494 1_555
Rh10 Rh15 2.808374 1_554
Rh10 Rh3 2.846140 1_565
Rh10 U1 3.380287 1_555
Rh11 Rh15 2.750126 1_555
Rh11 Rh15 2.755884 1_554
Rh11 Rh5 2.766166 1_454
Rh11 Rh5 2.771938 1_455
Rh11 U5 3.208515 1_454
Rh11 U5 3.214096 1_455
Rh11 U2 3.260117 1_555
Rh11 U1 3.287692 1_555
Rh12 Rh16 2.750125 1_555
Rh12 Rh16 2.755882 1_554
Rh12 Rh6 2.766171 1_554
Rh12 Rh6 2.771943 1_555
Rh12 U3 3.208505 1_554
Rh12 U3 3.214086 1_555
Rh12 U0 3.260130 1_555
Rh12 U2 3.287700 1_555
Rh13 Rh14 2.750117 1_555
Rh13 Rh14 2.755875 1_554
Rh13 Rh4 2.766184 1_564
Rh13 Rh4 2.771957 1_565
Rh13 U4 3.208512 1_564
Rh13 U4 3.214094 1_565
Rh13 U1 3.260128 1_555
Rh13 U0 3.287686 1_555
Rh14 Rh9 2.797494 1_555
Rh14 Rh9 2.808374 1_556
Rh14 Rh19 2.846140 1_565
Rh14 U0 3.110879 1_555
Rh14 U0 3.115348 1_556
Rh14 U4 3.320772 1_565
Rh15 Rh17 2.846140 1_455
Rh15 U1 3.110879 1_555
Rh15 U1 3.115348 1_556
Rh15 U5 3.320773 1_455
Rh16 Rh8 2.797494 1_555
Rh16 Rh8 2.808374 1_556
Rh16 Rh18 2.846140 1_555
Rh16 U2 3.110879 1_555
Rh16 U2 3.115348 1_556
Rh16 U3 3.320772 1_555
Rh17 Rh2 2.797494 1_555
Rh17 Rh2 2.808374 1_556
Rh17 U5 3.380288 1_555
Rh18 Rh3 2.797494 1_555
Rh18 Rh3 2.808374 1_556
Rh18 U3 3.380288 1_555
Rh19 U4 3.380287 1_555
