# generated using pymatgen
data_Rb2UH4(SeO6)2
_symmetry_space_group_name_H-M   'P 1'
_cell_length_a   13.97296300
_cell_length_b   12.09916900
_cell_length_c   7.70505600
_cell_angle_alpha   90.00000000
_cell_angle_beta   90.00000000
_cell_angle_gamma   90.00000000
_symmetry_Int_Tables_number   1
_chemical_formula_structural   Rb2UH4(SeO6)2
_chemical_formula_sum   'Rb8 U4 H16 Se8 O48'
_cell_volume   1302.62632754
_cell_formula_units_Z   4
loop_
 _symmetry_equiv_pos_site_id
 _symmetry_equiv_pos_as_xyz
  1  'x, y, z'
loop_
 _atom_site_type_symbol
 _atom_site_label
 _atom_site_symmetry_multiplicity
 _atom_site_fract_x
 _atom_site_fract_y
 _atom_site_fract_z
 _atom_site_occupancy
  Rb  Rb0  1  0.97225300  0.61417600  0.74026200  1
  Rb  Rb1  1  0.02774700  0.38582400  0.24026200  1
  Rb  Rb2  1  0.52774700  0.11417600  0.24026200  1
  Rb  Rb3  1  0.47225300  0.88582400  0.74026200  1
  Rb  Rb4  1  0.55016800  0.64457400  0.20754200  1
  Rb  Rb5  1  0.44983200  0.35542600  0.70754200  1
  Rb  Rb6  1  0.94983200  0.14457400  0.70754200  1
  Rb  Rb7  1  0.05016800  0.85542600  0.20754200  1
  U  U0  1  0.74851400  0.40250200  0.89998300  1
  U  U1  1  0.25148600  0.59749800  0.39998300  1
  U  U2  1  0.75148600  0.90250200  0.39998300  1
  U  U3  1  0.24851400  0.09749800  0.89998300  1
  H  H0  1  0.78554700  0.47080400  0.52287200  1
  H  H1  1  0.21445300  0.52919600  0.02287200  1
  H  H2  1  0.71445300  0.97080400  0.02287200  1
  H  H3  1  0.28554700  0.02919600  0.52287200  1
  H  H4  1  0.79148400  0.34083000  0.51691600  1
  H  H5  1  0.20851600  0.65917000  0.01691600  1
  H  H6  1  0.70851600  0.84083000  0.01691600  1
  H  H7  1  0.29148400  0.15917000  0.51691600  1
  H  H8  1  0.62292700  0.38374600  0.35058900  1
  H  H9  1  0.37707300  0.61625400  0.85058900  1
  H  H10  1  0.87707300  0.88374600  0.85058900  1
  H  H11  1  0.12292700  0.11625400  0.35058900  1
  H  H12  1  0.52388100  0.38809300  0.25355700  1
  H  H13  1  0.47611900  0.61190700  0.75355700  1
  H  H14  1  0.97611900  0.88809300  0.75355700  1
  H  H15  1  0.02388100  0.11190700  0.25355700  1
  Se  Se0  1  0.83041600  0.61531700  0.23375400  1
  Se  Se1  1  0.16958400  0.38468300  0.73375400  1
  Se  Se2  1  0.66958400  0.11531700  0.73375400  1
  Se  Se3  1  0.33041600  0.88468300  0.23375400  1
  Se  Se4  1  0.68708900  0.69075600  0.73130400  1
  Se  Se5  1  0.31291100  0.30924400  0.23130400  1
  Se  Se6  1  0.81291100  0.19075600  0.23130400  1
  Se  Se7  1  0.18708900  0.80924400  0.73130400  1
  O  O0  1  0.87885900  0.39396800  0.90365200  1
  O  O1  1  0.12114100  0.60603200  0.40365200  1
  O  O2  1  0.62114100  0.89396800  0.40365200  1
  O  O3  1  0.37885900  0.10603200  0.90365200  1
  O  O4  1  0.61910400  0.41291200  0.90283300  1
  O  O5  1  0.38089600  0.58708800  0.40283300  1
  O  O6  1  0.88089600  0.91291200  0.40283300  1
  O  O7  1  0.11910400  0.08708800  0.90283300  1
  O  O8  1  0.63995200  0.75034900  0.90672700  1
  O  O9  1  0.36004800  0.24965100  0.40672700  1
  O  O10  1  0.86004800  0.25034900  0.40672700  1
  O  O11  1  0.13995200  0.74965100  0.90672700  1
  O  O12  1  0.87139500  0.55726200  0.41487900  1
  O  O13  1  0.12860500  0.44273800  0.91487900  1
  O  O14  1  0.62860500  0.05726200  0.91487900  1
  O  O15  1  0.37139500  0.94273800  0.41487900  1
  O  O16  1  0.75682200  0.72258600  0.28251800  1
  O  O17  1  0.24317800  0.27741400  0.78251800  1
  O  O18  1  0.74317800  0.22258600  0.78251800  1
  O  O19  1  0.25682200  0.77741400  0.28251800  1
  O  O20  1  0.75403800  0.52354400  0.14070700  1
  O  O21  1  0.24596200  0.47645600  0.64070700  1
  O  O22  1  0.74596200  0.02354400  0.64070700  1
  O  O23  1  0.25403800  0.97645600  0.14070700  1
  O  O24  1  0.76093700  0.58514800  0.78719700  1
  O  O25  1  0.23906300  0.41485200  0.28719700  1
  O  O26  1  0.73906300  0.08514800  0.28719700  1
  O  O27  1  0.26093700  0.91485200  0.78719700  1
  O  O28  1  0.75677300  0.40335400  0.57481700  1
  O  O29  1  0.24322700  0.59664600  0.07481700  1
  O  O30  1  0.74322700  0.90335400  0.07481700  1
  O  O31  1  0.25677300  0.09664600  0.57481700  1
  O  O32  1  0.76523300  0.78278800  0.64321800  1
  O  O33  1  0.23476700  0.21721200  0.14321800  1
  O  O34  1  0.73476700  0.28278800  0.14321800  1
  O  O35  1  0.26523300  0.71721200  0.64321800  1
  O  O36  1  0.91783800  0.65350700  0.10293900  1
  O  O37  1  0.08216200  0.34649300  0.60293900  1
  O  O38  1  0.58216200  0.15350700  0.60293900  1
  O  O39  1  0.41783800  0.84649300  0.10293900  1
  O  O40  1  0.60191500  0.65092700  0.59672800  1
  O  O41  1  0.39808500  0.34907300  0.09672800  1
  O  O42  1  0.89808500  0.15092700  0.09672800  1
  O  O43  1  0.10191500  0.84907300  0.59672800  1
  O  O44  1  0.55694500  0.41025700  0.35984800  1
  O  O45  1  0.44305500  0.58974300  0.85984800  1
  O  O46  1  0.94305500  0.91025700  0.85984800  1
  O  O47  1  0.05694500  0.08974300  0.35984800  1
loop_
_geom_bond_atom_site_label_1
_geom_bond_atom_site_label_2
_geom_bond_distance
_geom_bond_site_symmetry_2
H0 O28 0.993903 1_555
H1 O29 0.993903 1_555
H2 O30 0.993903 1_555
H3 O31 0.993903 1_555
H4 O28 1.003268 1_555
H4 O10 1.684379 1_555
H5 O29 1.003268 1_555
H5 O11 1.684379 1_554
H6 O30 1.003268 1_555
H6 O8 1.684379 1_554
H7 O31 1.003268 1_555
H7 O9 1.684379 1_555
H8 O44 0.978772 1_555
H9 O45 0.978772 1_555
H10 O46 0.978772 1_555
H11 O47 0.978772 1_555
H12 O44 0.977795 1_555
H12 Rb4 3.144919 1_555
H13 O45 0.977795 1_555
H13 Rb5 3.144919 1_555
H14 O46 0.977795 1_555
H14 Rb6 3.144919 1_565
H15 O47 0.977795 1_555
H15 Rb7 3.144919 1_545
O0 U0 1.824449 1_555
O0 Rb0 3.222821 1_555
O0 Rb1 3.326343 1_656
O0 Rb6 3.517354 1_555
O1 U1 1.824449 1_555
O1 Rb1 3.222821 1_555
O1 Rb0 3.326343 1_455
O1 Rb7 3.517354 1_555
O2 U2 1.824449 1_555
O2 Rb2 3.222821 1_565
O2 Rb3 3.326343 1_555
O2 Rb4 3.517354 1_555
O3 U3 1.824449 1_555
O3 Rb3 3.222821 1_545
O3 Rb2 3.326343 1_556
O3 Rb5 3.517354 1_555
O4 U0 1.812755 1_555
O4 Rb5 2.888303 1_555
O5 U1 1.812755 1_555
O5 Rb4 2.888303 1_555
O6 U2 1.812755 1_555
O6 Rb7 2.888303 1_655
O7 U3 1.812755 1_555
O7 Rb6 2.888303 1_455
O8 Se4 1.667522 1_555
O8 Rb4 2.929835 1_556
O8 Rb3 3.134121 1_555
O9 Se5 1.667522 1_555
O9 Rb5 2.929835 1_555
O9 Rb2 3.134121 1_555
O10 Se6 1.667522 1_555
O10 Rb6 2.929835 1_555
O10 Rb1 3.134121 1_655
O11 Se7 1.667522 1_555
O11 Rb7 2.929835 1_556
O11 Rb0 3.134121 1_455
O12 Se0 1.664000 1_555
O12 Rb0 2.957329 1_555
O12 Rb1 3.299341 1_655
O13 Se1 1.664000 1_555
O13 Rb1 2.957329 1_556
O13 Rb0 3.299341 1_455
O14 Se2 1.664000 1_555
O14 Rb2 2.957329 1_556
O14 Rb3 3.299341 1_545
O15 Se3 1.664000 1_555
O15 Rb3 2.957329 1_555
O15 Rb2 3.299341 1_565
O16 Se0 1.697964 1_555
O16 U2 2.358670 1_555
O16 Rb4 3.092361 1_555
O17 Se1 1.697964 1_555
O17 U3 2.358670 1_555
O17 Rb5 3.092361 1_555
O18 Se2 1.697964 1_555
O18 U0 2.358670 1_555
O18 Rb6 3.092361 1_555
O19 Se3 1.697964 1_555
O19 U1 2.358670 1_555
O19 Rb7 3.092361 1_555
O20 Se0 1.698794 1_555
O20 U0 2.364528 1_554
O20 Rb4 3.244142 1_555
O21 Se1 1.698794 1_555
O21 U1 2.364528 1_555
O21 Rb5 3.244142 1_555
O22 Se2 1.698794 1_555
O22 U2 2.364528 1_545
O22 Rb6 3.244142 1_555
O23 Se3 1.698794 1_555
O23 U3 2.364528 1_564
O23 Rb7 3.244142 1_555
O24 Se4 1.697919 1_555
O24 U0 2.380931 1_555
O24 Rb0 2.995435 1_555
O25 Se5 1.697919 1_555
O25 U1 2.380931 1_555
O25 Rb1 2.995435 1_555
O26 Se6 1.697919 1_555
O26 U2 2.380931 1_545
O26 Rb2 2.995435 1_555
O27 Se7 1.697919 1_555
O27 U3 2.380931 1_565
O27 Rb3 2.995435 1_555
O28 U0 2.508100 1_555
O29 U1 2.508100 1_555
O30 U2 2.508100 1_555
O31 U3 2.508100 1_555
O32 Se4 1.700824 1_555
O32 U2 2.376399 1_555
O33 Se5 1.700824 1_555
O33 U3 2.376399 1_554
O34 Se6 1.700824 1_555
O34 U0 2.376399 1_554
O35 Se7 1.700824 1_555
O35 U1 2.376399 1_555
O36 Se0 1.649731 1_555
O36 Rb0 2.934877 1_554
O36 Rb7 3.168131 1_655
O37 Se1 1.649731 1_555
O37 Rb1 2.934877 1_555
O37 Rb6 3.168131 1_455
O38 Se2 1.649731 1_555
O38 Rb2 2.934877 1_555
O38 Rb5 3.168131 1_555
O39 Se3 1.649731 1_555
O39 Rb3 2.934877 1_554
O39 Rb4 3.168131 1_555
O40 Se4 1.650405 1_555
O40 Rb4 3.085599 1_555
O41 Se5 1.650405 1_555
O41 Rb5 3.085599 1_554
O42 Se6 1.650405 1_555
O42 Rb6 3.085599 1_554
O43 Se7 1.650405 1_555
O43 Rb7 3.085599 1_555
O44 Rb4 3.069786 1_555
O44 Rb5 3.139623 1_555
O45 Rb5 3.069786 1_555
O45 Rb4 3.139623 1_556
O46 Rb6 3.069786 1_565
O46 Rb7 3.139623 1_656
O47 Rb7 3.069786 1_545
O47 Rb6 3.139623 1_455
