# generated using pymatgen
data_K2VAgSe2
_symmetry_space_group_name_H-M   'P 1'
_cell_length_a   12.07055300
_cell_length_b   7.69045074
_cell_length_c   13.80141337
_cell_angle_alpha   69.92940468
_cell_angle_beta   64.06863721
_cell_angle_gamma   38.30008437
_symmetry_Int_Tables_number   1
_chemical_formula_structural   K2VAgSe2
_chemical_formula_sum   'K8 V4 Ag4 Se8'
_cell_volume   714.09133646
_cell_formula_units_Z   4
loop_
 _symmetry_equiv_pos_site_id
 _symmetry_equiv_pos_as_xyz
  1  'x, y, z'
loop_
 _atom_site_type_symbol
 _atom_site_label
 _atom_site_symmetry_multiplicity
 _atom_site_fract_x
 _atom_site_fract_y
 _atom_site_fract_z
 _atom_site_occupancy
  K  K0  1  0.74191200  0.18021400  0.56069000  1
  K  K1  1  0.69739900  0.81978600  0.56069000  1
  K  K2  1  0.07787400  0.18021400  0.43931000  1
  K  K3  1  0.00808800  0.31978600  0.93931000  1
  K  K4  1  0.48281500  0.81978600  0.43931000  1
  K  K5  1  0.05260100  0.68021400  0.93931000  1
  K  K6  1  0.67212600  0.31978600  0.06069000  1
  K  K7  1  0.26718500  0.68021400  0.06069000  1
  V  V0  1  0.87500000  0.25000000  0.25000000  1
  V  V1  1  0.87500000  0.75000000  0.25000000  1
  V  V2  1  0.87500000  0.25000000  0.75000000  1
  V  V3  1  0.37500000  0.75000000  0.75000000  1
  Ag  Ag0  1  0.37500000  0.25000000  0.25000000  1
  Ag  Ag1  1  0.37500000  0.75000000  0.25000000  1
  Ag  Ag2  1  0.37500000  0.25000000  0.75000000  1
  Ag  Ag3  1  0.87500000  0.75000000  0.75000000  1
  Se  Se0  1  0.12978600  0.21901000  0.17154700  1
  Se  Se1  1  0.69866700  0.78099000  0.17154700  1
  Se  Se2  1  0.65120400  0.21901000  0.82845300  1
  Se  Se3  1  0.62021400  0.28099000  0.32845300  1
  Se  Se4  1  0.52034400  0.78099000  0.82845300  1
  Se  Se5  1  0.05133300  0.71901000  0.32845300  1
  Se  Se6  1  0.09879600  0.28099000  0.67154700  1
  Se  Se7  1  0.22965600  0.71901000  0.67154700  1
loop_
_geom_bond_atom_site_label_1
_geom_bond_atom_site_label_2
_geom_bond_distance
_geom_bond_site_symmetry_2
K0 K1 3.210826 1_545
K0 K4 3.400403 1_555
K0 Se2 3.413192 1_555
K0 V3 3.594440 1_555
K0 K2 3.648279 1_655
K0 Se5 3.652931 1_645
K0 Se7 3.688735 1_555
K0 Se3 3.695646 1_555
K0 V0 3.873566 1_555
K0 V2 3.960002 1_555
K1 K2 3.400403 1_655
K1 Se4 3.413191 1_555
K1 V2 3.594440 1_555
K1 K4 3.648301 1_555
K1 Se3 3.652929 1_565
K1 Se6 3.688720 1_655
K1 Se5 3.695638 1_655
K1 V1 3.873567 1_555
K1 V3 3.960011 1_555
K2 K4 3.210826 1_545
K2 Se0 3.413191 1_555
K2 V1 3.594440 1_455
K2 Se7 3.652929 1_545
K2 Se5 3.688728 1_555
K2 Se6 3.695646 1_555
K2 V2 3.873566 1_455
K2 V0 3.960002 1_455
K3 K5 3.210826 1_555
K3 K7 3.400403 1_546
K3 Se6 3.413192 1_555
K3 V3 3.594440 1_545
K3 K6 3.648279 1_456
K3 Se1 3.652931 1_456
K3 Se4 3.688735 1_545
K3 Se0 3.695646 1_556
K3 V0 3.873566 1_456
K3 V2 3.960002 1_455
K4 Se1 3.413194 1_555
K4 V0 3.594440 1_555
K4 Se6 3.652929 1_565
K4 Se3 3.688720 1_555
K4 Se7 3.695646 1_555
K4 V3 3.873567 1_555
K4 V1 3.960011 1_555
K5 K6 3.400403 1_466
K5 Se7 3.413191 1_555
K5 V2 3.594440 1_465
K5 K7 3.648301 1_556
K5 Se0 3.652929 1_556
K5 Se2 3.688720 1_465
K5 Se1 3.695638 1_456
K5 V1 3.873567 1_456
K5 V3 3.960011 1_555
K6 K7 3.210826 1_555
K6 Se3 3.413191 1_555
K6 V1 3.594440 1_545
K6 Se4 3.652929 1_554
K6 Se1 3.688728 1_545
K6 Se2 3.695646 1_554
K6 V2 3.873566 1_554
K6 V0 3.960002 1_555
K7 Se5 3.413194 1_555
K7 V0 3.594440 1_465
K7 Se2 3.652929 1_554
K7 Se0 3.688720 1_565
K7 Se4 3.695646 1_554
K7 V3 3.873567 1_554
K7 V1 3.960011 1_455
Ag0 Se1 2.511749 1_545
Ag0 Se5 2.511749 1_555
Ag0 K7 3.122361 1_555
Ag0 K4 3.122361 1_545
Ag0 K6 3.720291 1_555
Ag0 K2 3.720291 1_555
Ag1 Se3 2.511749 1_555
Ag1 Se0 2.511749 1_565
Ag1 K2 3.122361 1_565
Ag1 K6 3.122361 1_555
Ag1 K7 3.720282 1_555
Ag1 K4 3.720282 1_555
Ag2 Se4 2.511746 1_545
Ag2 Se7 2.511746 1_555
Ag2 K1 3.122361 1_545
Ag2 K5 3.122361 1_555
Ag2 K0 3.720291 1_555
Ag2 K3 3.720291 1_555
Ag3 Se6 2.511749 1_655
Ag3 Se2 2.511749 1_565
Ag3 K0 3.122361 1_565
Ag3 K3 3.122361 1_655
Ag3 K5 3.720282 1_655
Ag3 K1 3.720282 1_555
Se0 V0 2.608006 1_455
Se0 V1 2.777944 1_455
Se1 V1 2.608006 1_555
Se1 V0 2.777944 1_555
Se2 V2 2.608006 1_555
Se2 V3 2.777944 1_555
Se3 V0 2.608006 1_555
Se3 V1 2.777944 1_545
Se4 V3 2.608017 1_555
Se4 V2 2.777941 1_555
Se5 V1 2.608006 1_455
Se5 V0 2.777944 1_465
Se6 V2 2.608006 1_455
Se6 V3 2.777944 1_545
Se7 V3 2.608017 1_555
Se7 V2 2.777941 1_465
