# generated using pymatgen
data_Th2CoSi3
_symmetry_space_group_name_H-M   'P 1'
_cell_length_a   7.54285046
_cell_length_b   7.54285046
_cell_length_c   7.54285046
_cell_angle_alpha   148.45461473
_cell_angle_beta   148.10103488
_cell_angle_gamma   45.47605804
_symmetry_Int_Tables_number   1
_chemical_formula_structural   Th2CoSi3
_chemical_formula_sum   'Th2 Co1 Si3'
_cell_volume   118.25365107
_cell_formula_units_Z   1
loop_
 _symmetry_equiv_pos_site_id
 _symmetry_equiv_pos_as_xyz
  1  'x, y, z'
loop_
 _atom_site_type_symbol
 _atom_site_label
 _atom_site_symmetry_multiplicity
 _atom_site_fract_x
 _atom_site_fract_y
 _atom_site_fract_z
 _atom_site_occupancy
  Th  Th0  1  0.75024425  0.25024425  0.50000000  1
  Th  Th1  1  0.00480252  0.00480252  0.00000000  1
  Co  Co0  1  0.16361115  0.66361115  0.50000000  1
  Si  Si0  1  0.58926066  0.58926066  -0.00000000  1
  Si  Si1  1  0.32511316  0.82511316  0.50000000  1
  Si  Si2  1  0.41696925  0.41696925  0.00000000  1
loop_
_geom_bond_atom_site_label_1
_geom_bond_atom_site_label_2
_geom_bond_distance
_geom_bond_site_symmetry_2
Co0 Si1 2.247021 1_555
Co0 Si0 2.316502 1_556
Co0 Si0 2.316502 1_455
Co0 Th1 3.014277 1_566
Co0 Th1 3.014277 1_555
Co0 Th0 3.154792 1_566
Co0 Th0 3.154792 1_465
Co0 Th0 3.154792 1_454
Co0 Th0 3.154792 1_555
Si0 Si2 2.397136 1_555
Si0 Th0 3.036529 1_554
Si0 Th0 3.036529 1_565
Si0 Th1 3.143355 1_655
Si0 Th1 3.143355 1_554
Si0 Th1 3.143355 1_565
Si0 Th1 3.143355 1_666
Si1 Si2 2.416009 1_566
Si1 Si2 2.416009 1_555
Si1 Th0 3.095953 1_454
Si1 Th0 3.095953 1_555
Si1 Th0 3.095953 1_465
Si1 Th0 3.095953 1_566
Si1 Th1 3.247523 1_666
Si1 Th1 3.247523 1_565
Si2 Th0 3.110793 1_454
Si2 Th0 3.110793 1_555
Si2 Th1 3.161210 1_554
Si2 Th1 3.161210 1_565
Si2 Th1 3.161210 1_655
Si2 Th1 3.161210 1_666
