# generated using pymatgen
data_Ca2Zn4As4O17
_symmetry_space_group_name_H-M   'P 1'
_cell_length_a   10.65119978
_cell_length_b   10.65119978
_cell_length_c   9.95962938
_cell_angle_alpha   78.50265869
_cell_angle_beta   78.50265869
_cell_angle_gamma   43.00820087
_symmetry_Int_Tables_number   1
_chemical_formula_structural   Ca2Zn4As4O17
_chemical_formula_sum   'Ca4 Zn8 As8 O34'
_cell_volume   752.81441344
_cell_formula_units_Z   2
loop_
 _symmetry_equiv_pos_site_id
 _symmetry_equiv_pos_as_xyz
  1  'x, y, z'
loop_
 _atom_site_type_symbol
 _atom_site_label
 _atom_site_symmetry_multiplicity
 _atom_site_fract_x
 _atom_site_fract_y
 _atom_site_fract_z
 _atom_site_occupancy
  Ca  Ca0  1  0.15873400  0.63778800  0.40600800  1
  Ca  Ca1  1  0.36221200  0.84126600  0.09399200  1
  Ca  Ca2  1  0.84126600  0.36221200  0.59399200  1
  Ca  Ca3  1  0.63778800  0.15873400  0.90600800  1
  Zn  Zn0  1  0.99833000  0.18932100  0.29754200  1
  Zn  Zn1  1  0.81067900  0.00167000  0.20245800  1
  Zn  Zn2  1  0.00167000  0.81067900  0.70245800  1
  Zn  Zn3  1  0.18932100  0.99833000  0.79754200  1
  Zn  Zn4  1  0.78650000  0.63920400  0.01188100  1
  Zn  Zn5  1  0.36079600  0.21350000  0.48811900  1
  Zn  Zn6  1  0.21350000  0.36079600  0.98811900  1
  Zn  Zn7  1  0.63920400  0.78650000  0.51188100  1
  As  As0  1  0.00158700  0.50382600  0.29590100  1
  As  As1  1  0.49617400  0.99841300  0.20409900  1
  As  As2  1  0.99841300  0.49617400  0.70409900  1
  As  As3  1  0.50382600  0.00158700  0.79590100  1
  As  As4  1  0.83322900  0.28802100  0.01654200  1
  As  As5  1  0.71197900  0.16677100  0.48345800  1
  As  As6  1  0.16677100  0.71197900  0.98345800  1
  As  As7  1  0.28802100  0.83322900  0.51654200  1
  O  O0  1  0.21126600  0.40692000  0.33109300  1
  O  O1  1  0.59308000  0.78873400  0.16890700  1
  O  O2  1  0.78873400  0.59308000  0.66890700  1
  O  O3  1  0.40692000  0.21126600  0.83109300  1
  O  O4  1  0.02676300  0.14244300  0.10840100  1
  O  O5  1  0.85755700  0.97323700  0.39159900  1
  O  O6  1  0.97323700  0.85755700  0.89159900  1
  O  O7  1  0.14244300  0.02676300  0.60840100  1
  O  O8  1  0.98974900  0.54497900  0.12029900  1
  O  O9  1  0.45502100  0.01025100  0.37970100  1
  O  O10  1  0.01025100  0.45502100  0.87970100  1
  O  O11  1  0.54497900  0.98974900  0.62029900  1
  O  O12  1  0.69533300  0.51448100  0.03755400  1
  O  O13  1  0.48551900  0.30466700  0.46244600  1
  O  O14  1  0.30466700  0.48551900  0.96244600  1
  O  O15  1  0.51448100  0.69533300  0.53755400  1
  O  O16  1  0.84561400  0.70920700  0.36986300  1
  O  O17  1  0.29079300  0.15438600  0.13013700  1
  O  O18  1  0.15438600  0.29079300  0.63013700  1
  O  O19  1  0.70920700  0.84561400  0.86986300  1
  O  O20  1  0.08164800  0.76683600  0.15521500  1
  O  O21  1  0.23316400  0.91835200  0.34478500  1
  O  O22  1  0.91835200  0.23316400  0.84478500  1
  O  O23  1  0.76683600  0.08164800  0.65521500  1
  O  O24  1  0.95812900  0.37596200  0.36821400  1
  O  O25  1  0.62403800  0.04187100  0.13178600  1
  O  O26  1  0.04187100  0.62403800  0.63178600  1
  O  O27  1  0.37596200  0.95812900  0.86821400  1
  O  O28  1  0.77803700  0.27705200  0.43001000  1
  O  O29  1  0.72294800  0.22196300  0.06999000  1
  O  O30  1  0.22196300  0.72294800  0.56999000  1
  O  O31  1  0.27705200  0.77803700  0.93001000  1
  O  O32  1  0.33444800  0.66555200  0.25000000  1
  O  O33  1  0.66555200  0.33444800  0.75000000  1
loop_
_geom_bond_atom_site_label_1
_geom_bond_atom_site_label_2
_geom_bond_distance
_geom_bond_site_symmetry_2
Ca0 O0 2.338650 1_555
Ca0 O32 2.339114 1_555
Ca0 O26 2.376305 1_555
Ca0 O30 2.421999 1_555
Ca0 O5 2.508672 1_455
Ca0 O20 2.569209 1_555
Ca0 O13 2.635010 1_555
Ca0 O16 2.913798 1_455
Ca1 O1 2.338650 1_555
Ca1 O32 2.339114 1_555
Ca1 O27 2.376305 1_554
Ca1 O31 2.421999 1_554
Ca1 O4 2.508672 1_565
Ca1 O21 2.569209 1_555
Ca1 O12 2.635010 1_555
Ca1 O17 2.913798 1_565
Ca2 O2 2.338650 1_555
Ca2 O33 2.339114 1_555
Ca2 O24 2.376305 1_555
Ca2 O28 2.421999 1_555
Ca2 O7 2.508672 1_655
Ca2 O22 2.569209 1_555
Ca2 O15 2.635010 1_555
Ca2 O18 2.913798 1_655
Ca3 O3 2.338650 1_555
Ca3 O33 2.339114 1_555
Ca3 O25 2.376305 1_556
Ca3 O29 2.421999 1_556
Ca3 O6 2.508672 1_545
Ca3 O23 2.569209 1_555
Ca3 O14 2.635010 1_555
Ca3 O19 2.913798 1_545
As0 O16 1.710976 1_455
As0 O8 1.722865 1_455
As0 O0 1.724090 1_555
As0 O24 1.727947 1_455
As1 O17 1.710976 1_565
As1 O9 1.722865 1_565
As1 O1 1.724090 1_555
As1 O25 1.727947 1_565
As2 O18 1.710976 1_655
As2 O10 1.722865 1_655
As2 O2 1.724090 1_555
As2 O26 1.727947 1_655
As3 O19 1.710976 1_545
As3 O11 1.722865 1_545
As3 O3 1.724090 1_555
As3 O27 1.727947 1_545
As4 O12 1.707780 1_555
As4 O29 1.722875 1_555
As4 O4 1.732682 1_655
As4 O22 1.759290 1_554
As5 O13 1.707780 1_555
As5 O28 1.722875 1_555
As5 O5 1.732682 1_545
As5 O23 1.759290 1_555
As6 O14 1.707780 1_555
As6 O31 1.722875 1_555
As6 O6 1.732682 1_455
As6 O20 1.759290 1_556
As7 O15 1.707780 1_555
As7 O30 1.722875 1_555
As7 O7 1.732682 1_565
As7 O21 1.759290 1_555
O0 Zn5 2.033843 1_555
O1 Zn4 2.033843 1_555
O2 Zn7 2.033843 1_555
O3 Zn6 2.033843 1_555
O4 Zn0 1.953461 1_455
O5 Zn1 1.953461 1_565
O6 Zn2 1.953461 1_655
O7 Zn3 1.953461 1_545
O8 Zn4 2.045015 1_555
O8 Zn6 2.049987 1_654
O9 Zn5 2.045015 1_555
O9 Zn7 2.049987 1_545
O10 Zn6 2.045015 1_555
O10 Zn4 2.049987 1_456
O11 Zn7 2.045015 1_555
O11 Zn5 2.049987 1_565
O12 Zn4 2.103637 1_555
O13 Zn5 2.103637 1_555
O14 Zn6 2.103637 1_555
O15 Zn7 2.103637 1_555
O16 Zn7 2.022215 1_555
O17 Zn6 2.022215 1_554
O18 Zn5 2.022215 1_555
O19 Zn4 2.022215 1_556
O20 Zn1 2.043884 1_465
O21 Zn0 2.043884 1_465
O22 Zn3 2.043884 1_645
O23 Zn2 2.043884 1_645
O24 Zn0 1.955368 1_555
O25 Zn1 1.955368 1_555
O26 Zn2 1.955368 1_555
O27 Zn3 1.955368 1_555
O28 Zn0 2.042080 1_555
O29 Zn1 2.042080 1_555
O30 Zn2 2.042080 1_555
O31 Zn3 2.042080 1_555
