# generated using pymatgen
data_CsMg14BiO16
_symmetry_space_group_name_H-M   'P 1'
_cell_length_a   8.85973599
_cell_length_b   9.18252594
_cell_length_c   4.56522536
_cell_angle_alpha   90.00000000
_cell_angle_beta   90.00000000
_cell_angle_gamma   90.00000000
_symmetry_Int_Tables_number   1
_chemical_formula_structural   CsMg14BiO16
_chemical_formula_sum   'Cs1 Mg14 Bi1 O16'
_cell_volume   371.40279319
_cell_formula_units_Z   1
loop_
 _symmetry_equiv_pos_site_id
 _symmetry_equiv_pos_as_xyz
  1  'x, y, z'
loop_
 _atom_site_type_symbol
 _atom_site_label
 _atom_site_symmetry_multiplicity
 _atom_site_fract_x
 _atom_site_fract_y
 _atom_site_fract_z
 _atom_site_occupancy
  Cs  Cs0  1  -0.00000000  0.00000000  0.00000000  1
  Mg  Mg0  1  0.50000000  0.00000000  0.00000000  1
  Mg  Mg1  1  0.50000000  0.50000000  0.00000000  1
  Mg  Mg2  1  -0.00000000  0.24186670  0.50000000  1
  Mg  Mg3  1  -0.00000000  0.75813330  0.50000000  1
  Mg  Mg4  1  0.50000000  0.24849348  0.50000000  1
  Mg  Mg5  1  0.50000000  0.75150652  0.50000000  1
  Mg  Mg6  1  0.26386670  0.00000000  0.50000000  1
  Mg  Mg7  1  0.26573624  0.50000000  0.50000000  1
  Mg  Mg8  1  0.73613330  0.00000000  0.50000000  1
  Mg  Mg9  1  0.73426376  0.50000000  0.50000000  1
  Mg  Mg10  1  0.26414098  0.24380545  -0.00000000  1
  Mg  Mg11  1  0.26414098  0.75619455  0.00000000  1
  Mg  Mg12  1  0.73585902  0.24380545  -0.00000000  1
  Mg  Mg13  1  0.73585902  0.75619455  0.00000000  1
  Bi  Bi0  1  -0.00000000  0.50000000  0.00000000  1
  O  O0  1  0.28802791  0.00000000  -0.00000000  1
  O  O1  1  0.27001758  0.50000000  -0.00000000  1
  O  O2  1  0.71197209  0.00000000  0.00000000  1
  O  O3  1  0.72998242  0.50000000  0.00000000  1
  O  O4  1  0.25117542  0.25059340  0.50000000  1
  O  O5  1  0.25117542  0.74940660  0.50000000  1
  O  O6  1  0.74882458  0.25059340  0.50000000  1
  O  O7  1  0.74882458  0.74940660  0.50000000  1
  O  O8  1  -0.00000000  0.00000000  0.50000000  1
  O  O9  1  -0.00000000  0.50000000  0.50000000  1
  O  O10  1  0.50000000  0.00000000  0.50000000  1
  O  O11  1  0.50000000  0.50000000  0.50000000  1
  O  O12  1  -0.00000000  0.26478471  -0.00000000  1
  O  O13  1  -0.00000000  0.73521529  0.00000000  1
  O  O14  1  0.50000000  0.25749227  0.00000000  1
  O  O15  1  0.50000000  0.74250773  0.00000000  1
loop_
_geom_bond_atom_site_label_1
_geom_bond_atom_site_label_2
_geom_bond_distance
_geom_bond_site_symmetry_2
Cs0 O8 2.282613 1_554
Cs0 O8 2.282613 1_555
Cs0 O12 2.431392 1_555
Cs0 O13 2.431392 1_545
Cs0 O2 2.551851 1_455
Cs0 O0 2.551851 1_555
Mg0 O0 1.878017 1_555
Mg0 O2 1.878017 1_555
Mg0 O10 2.282613 1_555
Mg0 O10 2.282613 1_554
Mg0 O15 2.364429 1_545
Mg0 O14 2.364429 1_555
Mg1 O3 2.037584 1_555
Mg1 O1 2.037584 1_555
Mg1 O14 2.226834 1_555
Mg1 O15 2.226834 1_555
Mg1 O11 2.282613 1_554
Mg1 O11 2.282613 1_555
Mg2 O8 2.220947 1_555
Mg2 O4 2.226790 1_555
Mg2 O6 2.226790 1_455
Mg2 O12 2.292293 1_556
Mg2 O12 2.292293 1_555
Mg2 O9 2.370316 1_555
Mg3 O8 2.220947 1_565
Mg3 O5 2.226790 1_555
Mg3 O7 2.226790 1_455
Mg3 O13 2.292293 1_555
Mg3 O13 2.292293 1_556
Mg3 O9 2.370316 1_555
Mg4 O6 2.204604 1_555
Mg4 O4 2.204604 1_555
Mg4 O10 2.281798 1_555
Mg4 O14 2.284108 1_556
Mg4 O14 2.284108 1_555
Mg4 O11 2.309465 1_555
Mg5 O7 2.204604 1_555
Mg5 O5 2.204604 1_555
Mg5 O10 2.281798 1_565
Mg5 O15 2.284108 1_556
Mg5 O15 2.284108 1_555
Mg5 O11 2.309465 1_555
Mg6 O10 2.092079 1_555
Mg6 O0 2.292628 1_555
Mg6 O0 2.292628 1_556
Mg6 O4 2.303826 1_555
Mg6 O5 2.303826 1_545
Mg6 O8 2.337789 1_555
Mg7 O11 2.075515 1_555
Mg7 O1 2.282928 1_555
Mg7 O1 2.282928 1_556
Mg7 O5 2.293813 1_555
Mg7 O4 2.293813 1_555
Mg7 O9 2.354353 1_555
Mg8 O10 2.092079 1_555
Mg8 O2 2.292628 1_556
Mg8 O2 2.292628 1_555
Mg8 O6 2.303826 1_555
Mg8 O7 2.303826 1_545
Mg8 O8 2.337789 1_655
Mg9 O11 2.075515 1_555
Mg9 O3 2.282928 1_556
Mg9 O3 2.282928 1_555
Mg9 O7 2.293813 1_555
Mg9 O6 2.293813 1_555
Mg9 O9 2.354353 1_655
Mg10 O14 2.093425 1_555
Mg10 O0 2.248731 1_555
Mg10 O4 2.286351 1_554
Mg10 O4 2.286351 1_555
Mg10 O12 2.348135 1_555
Mg10 O1 2.353089 1_555
Mg11 O15 2.093425 1_555
Mg11 O0 2.248731 1_565
Mg11 O5 2.286351 1_554
Mg11 O5 2.286351 1_555
Mg11 O13 2.348135 1_555
Mg11 O1 2.353089 1_555
Mg12 O14 2.093425 1_555
Mg12 O2 2.248731 1_555
Mg12 O6 2.286351 1_555
Mg12 O6 2.286351 1_554
Mg12 O12 2.348135 1_655
Mg12 O3 2.353089 1_555
Mg13 O15 2.093425 1_555
Mg13 O2 2.248731 1_565
Mg13 O7 2.286351 1_555
Mg13 O7 2.286351 1_554
Mg13 O13 2.348135 1_655
Mg13 O3 2.353089 1_555
Bi0 O13 2.159871 1_555
Bi0 O12 2.159871 1_555
Bi0 O9 2.282613 1_554
Bi0 O9 2.282613 1_555
Bi0 O1 2.392284 1_555
Bi0 O3 2.392284 1_455
