# generated using pymatgen
data_Dy2Ga5Cu12
_symmetry_space_group_name_H-M   'P 1'
_cell_length_a   6.55423837
_cell_length_b   6.55423837
_cell_length_c   6.55423769
_cell_angle_alpha   83.31953901
_cell_angle_beta   83.31953901
_cell_angle_gamma   83.31953554
_symmetry_Int_Tables_number   1
_chemical_formula_structural   Dy2Ga5Cu12
_chemical_formula_sum   'Dy2 Ga5 Cu12'
_cell_volume   276.23463324
_cell_formula_units_Z   1
loop_
 _symmetry_equiv_pos_site_id
 _symmetry_equiv_pos_as_xyz
  1  'x, y, z'
loop_
 _atom_site_type_symbol
 _atom_site_label
 _atom_site_symmetry_multiplicity
 _atom_site_fract_x
 _atom_site_fract_y
 _atom_site_fract_z
 _atom_site_occupancy
  Dy  Dy0  1  0.65300500  0.65300500  0.65300500  1
  Dy  Dy1  1  0.34699500  0.34699500  0.34699500  1
  Ga  Ga0  1  0.00000000  0.00000000  0.50000000  1
  Ga  Ga1  1  0.50000000  0.00000000  0.00000000  1
  Ga  Ga2  1  0.00000000  0.50000000  0.00000000  1
  Ga  Ga3  1  0.90006300  0.90006300  0.90006300  1
  Ga  Ga4  1  0.09993700  0.09993700  0.09993700  1
  Cu  Cu0  1  0.68814400  0.31185600  0.00000000  1
  Cu  Cu1  1  0.00000000  0.68814400  0.31185600  1
  Cu  Cu2  1  0.31185600  0.00000000  0.68814400  1
  Cu  Cu3  1  0.00000000  0.31185600  0.68814400  1
  Cu  Cu4  1  0.68814400  0.00000000  0.31185600  1
  Cu  Cu5  1  0.31185600  0.68814400  0.00000000  1
  Cu  Cu6  1  0.34765500  0.83561500  0.34765500  1
  Cu  Cu7  1  0.34765500  0.34765500  0.83561500  1
  Cu  Cu8  1  0.83561500  0.34765500  0.34765500  1
  Cu  Cu9  1  0.65234500  0.16438500  0.65234500  1
  Cu  Cu10  1  0.65234500  0.65234500  0.16438500  1
  Cu  Cu11  1  0.16438500  0.65234500  0.65234500  1
loop_
_geom_bond_atom_site_label_1
_geom_bond_atom_site_label_2
_geom_bond_distance
_geom_bond_site_symmetry_2
Dy0 Ga3 3.113896 1_555
Dy1 Ga4 3.113896 1_555
Ga0 Ga4 2.652196 1_555
Ga0 Ga3 2.652196 1_445
Ga1 Ga4 2.652197 1_555
Ga1 Ga3 2.652197 1_544
Ga2 Ga3 2.652197 1_454
Ga2 Ga4 2.652197 1_555
Ga3 Ga4 2.519193 1_666
Cu0 Ga1 2.506974 1_555
Cu0 Ga2 2.506974 1_655
Cu0 Cu7 2.564158 1_554
Cu0 Cu10 2.564158 1_555
Cu0 Cu9 2.621250 1_554
Cu0 Cu8 2.621250 1_555
Cu0 Cu4 2.717289 1_555
Cu0 Cu3 2.717289 1_654
Cu0 Ga3 2.995037 1_544
Cu0 Ga4 2.995037 1_655
Cu0 Dy1 3.007307 1_555
Cu0 Dy0 3.007307 1_554
Cu1 Ga2 2.506973 1_555
Cu1 Ga0 2.506974 1_565
Cu1 Cu11 2.564157 1_555
Cu1 Cu8 2.564158 1_455
Cu1 Cu10 2.621250 1_455
Cu1 Cu6 2.621250 1_555
Cu1 Cu5 2.717289 1_555
Cu1 Cu4 2.717289 1_465
Cu1 Ga3 2.995037 1_454
Cu1 Ga4 2.995037 1_565
Cu1 Dy0 3.007307 1_455
Cu1 Dy1 3.007307 1_555
Cu2 Ga1 2.506973 1_556
Cu2 Ga0 2.506974 1_555
Cu2 Cu6 2.564157 1_545
Cu2 Cu9 2.564158 1_555
Cu2 Cu7 2.621250 1_555
Cu2 Cu5 2.717289 1_546
Cu2 Cu3 2.717289 1_555
Cu2 Ga4 2.995037 1_556
Cu2 Ga3 2.995037 1_445
Cu2 Dy1 3.007307 1_555
Cu2 Dy0 3.007307 1_545
Cu3 Ga2 2.506973 1_556
Cu3 Ga0 2.506974 1_555
Cu3 Cu8 2.564157 1_455
Cu3 Cu7 2.621250 1_555
Cu3 Cu9 2.621250 1_455
Cu3 Ga4 2.995037 1_556
Cu3 Ga3 2.995037 1_445
Cu3 Dy1 3.007307 1_555
Cu3 Dy0 3.007307 1_455
Cu4 Ga1 2.506973 1_555
Cu4 Ga0 2.506974 1_655
Cu4 Cu9 2.564157 1_555
Cu4 Cu6 2.564158 1_545
Cu4 Cu8 2.621250 1_555
Cu4 Ga3 2.995037 1_544
Cu4 Ga4 2.995037 1_655
Cu4 Dy0 3.007307 1_545
Cu4 Dy1 3.007307 1_555
Cu5 Ga2 2.506974 1_555
Cu5 Ga1 2.506974 1_565
Cu5 Cu7 2.564158 1_554
Cu5 Cu6 2.621250 1_555
Cu5 Ga3 2.995037 1_454
Cu5 Ga4 2.995037 1_565
Cu5 Dy1 3.007307 1_555
Cu5 Dy0 3.007307 1_554
Cu6 Ga1 2.549445 1_565
Cu6 Ga0 2.549445 1_565
Cu6 Ga4 2.752806 1_565
Cu6 Dy0 3.043103 1_555
Cu6 Dy1 3.203545 1_555
Cu6 Dy1 3.350706 1_565
Cu7 Cu9 2.468454 1_555
Cu7 Ga1 2.549445 1_556
Cu7 Ga2 2.549445 1_556
Cu7 Ga4 2.752806 1_556
Cu7 Dy0 3.043103 1_555
Cu7 Dy1 3.203544 1_555
Cu7 Dy1 3.350706 1_556
Cu8 Cu9 2.468454 1_555
Cu8 Ga2 2.549445 1_655
Cu8 Ga0 2.549445 1_655
Cu8 Ga4 2.752806 1_655
Cu8 Dy0 3.043103 1_555
Cu8 Dy1 3.203545 1_555
Cu8 Dy1 3.350706 1_655
Cu9 Ga1 2.549445 1_556
Cu9 Ga0 2.549445 1_655
Cu9 Ga3 2.752806 1_545
Cu9 Dy1 3.043103 1_555
Cu9 Dy0 3.203545 1_555
Cu9 Dy0 3.350706 1_545
Cu10 Cu6 2.468454 1_555
Cu10 Cu8 2.468454 1_555
Cu10 Ga1 2.549445 1_565
Cu10 Ga2 2.549445 1_655
Cu10 Cu5 2.564158 1_555
Cu10 Cu4 2.621250 1_565
Cu10 Ga3 2.752806 1_554
Cu10 Dy1 3.043103 1_555
Cu10 Dy0 3.203544 1_555
Cu10 Dy0 3.350706 1_554
Cu11 Cu7 2.468454 1_555
Cu11 Cu6 2.468454 1_555
Cu11 Ga2 2.549445 1_556
Cu11 Ga0 2.549445 1_565
Cu11 Cu3 2.564158 1_555
Cu11 Cu5 2.621250 1_556
Cu11 Cu2 2.621250 1_565
Cu11 Ga3 2.752806 1_455
Cu11 Dy1 3.043103 1_555
Cu11 Dy0 3.203545 1_555
Cu11 Dy0 3.350706 1_455
