# generated using pymatgen
data_Zr6Al16Ni7
_symmetry_space_group_name_H-M   'P 1'
_cell_length_a   8.55873280
_cell_length_b   8.55873280
_cell_length_c   8.55873280
_cell_angle_alpha   60.00000000
_cell_angle_beta   60.00000000
_cell_angle_gamma   60.00000000
_symmetry_Int_Tables_number   1
_chemical_formula_structural   Zr6Al16Ni7
_chemical_formula_sum   'Zr6 Al16 Ni7'
_cell_volume   443.31600022
_cell_formula_units_Z   1
loop_
 _symmetry_equiv_pos_site_id
 _symmetry_equiv_pos_as_xyz
  1  'x, y, z'
loop_
 _atom_site_type_symbol
 _atom_site_label
 _atom_site_symmetry_multiplicity
 _atom_site_fract_x
 _atom_site_fract_y
 _atom_site_fract_z
 _atom_site_occupancy
  Zr  Zr0  1  0.69135700  0.69135700  0.30864300  1
  Zr  Zr1  1  0.30864300  0.69135700  0.30864300  1
  Zr  Zr2  1  0.69135700  0.30864300  0.30864300  1
  Zr  Zr3  1  0.30864300  0.30864300  0.69135700  1
  Zr  Zr4  1  0.69135700  0.30864300  0.69135700  1
  Zr  Zr5  1  0.30864300  0.69135700  0.69135700  1
  Al  Al0  1  0.88082600  0.88082600  0.35752300  1
  Al  Al1  1  0.88082600  0.35752300  0.88082600  1
  Al  Al2  1  0.35752300  0.88082600  0.88082600  1
  Al  Al3  1  0.88082600  0.88082600  0.88082600  1
  Al  Al4  1  0.11917400  0.11917400  0.64247700  1
  Al  Al5  1  0.11917400  0.64247700  0.11917400  1
  Al  Al6  1  0.64247700  0.11917400  0.11917400  1
  Al  Al7  1  0.11917400  0.11917400  0.11917400  1
  Al  Al8  1  0.66641700  0.66641700  0.00074900  1
  Al  Al9  1  0.66641700  0.00074900  0.66641700  1
  Al  Al10  1  0.00074900  0.66641700  0.66641700  1
  Al  Al11  1  0.66641700  0.66641700  0.66641700  1
  Al  Al12  1  0.33358300  0.33358300  0.99925100  1
  Al  Al13  1  0.33358300  0.99925100  0.33358300  1
  Al  Al14  1  0.99925100  0.33358300  0.33358300  1
  Al  Al15  1  0.33358300  0.33358300  0.33358300  1
  Ni  Ni0  1  0.00000000  0.00000000  0.00000000  1
  Ni  Ni1  1  0.00000000  0.00000000  0.50000000  1
  Ni  Ni2  1  0.50000000  0.00000000  0.50000000  1
  Ni  Ni3  1  0.00000000  0.50000000  0.50000000  1
  Ni  Ni4  1  0.50000000  0.50000000  0.00000000  1
  Ni  Ni5  1  0.00000000  0.50000000  0.00000000  1
  Ni  Ni6  1  0.50000000  0.00000000  0.00000000  1
loop_
_geom_bond_atom_site_label_1
_geom_bond_atom_site_label_2
_geom_bond_distance
_geom_bond_site_symmetry_2
Al0 Ni0 2.498434 1_665
Al0 Ni1 2.663762 1_665
Al0 Ni3 2.663769 1_655
Al0 Ni2 2.663769 1_565
Al0 Al9 2.718250 1_565
Al0 Al10 2.718250 1_655
Al0 Al11 2.718255 1_555
Al0 Al7 2.884935 1_665
Al0 Al6 2.884947 1_565
Al0 Al5 2.884947 1_655
Al0 Zr2 3.069313 1_565
Al0 Zr1 3.069313 1_655
Al0 Zr0 3.069320 1_555
Al1 Ni0 2.498434 1_656
Al1 Ni5 2.663762 1_656
Al1 Ni4 2.663769 1_556
Al1 Ni3 2.663769 1_655
Al1 Al10 2.718250 1_655
Al1 Al8 2.718250 1_556
Al1 Al11 2.718255 1_555
Al1 Al7 2.884935 1_656
Al1 Al6 2.884947 1_556
Al1 Al4 2.884947 1_655
Al1 Zr2 3.069313 1_556
Al1 Zr3 3.069313 1_655
Al1 Zr4 3.069320 1_555
Al2 Ni0 2.498434 1_566
Al2 Ni6 2.663762 1_566
Al2 Ni2 2.663769 1_565
Al2 Ni4 2.663769 1_556
Al2 Al9 2.718250 1_565
Al2 Al8 2.718250 1_556
Al2 Al7 2.884935 1_566
Al2 Al4 2.884947 1_565
Al2 Al5 2.884947 1_556
Al2 Zr1 3.069313 1_556
Al2 Zr3 3.069313 1_565
Al2 Zr5 3.069320 1_555
Al3 Ni0 2.498427 1_666
Al3 Ni1 2.663769 1_665
Al3 Ni5 2.663769 1_656
Al3 Ni6 2.663769 1_566
Al3 Al8 2.718257 1_556
Al3 Al9 2.718257 1_565
Al3 Al4 2.884935 1_665
Al3 Al6 2.884935 1_566
Al3 Al5 2.884935 1_656
Al3 Zr5 3.069314 1_655
Al3 Zr0 3.069314 1_556
Al3 Zr4 3.069314 1_565
Al4 Ni0 2.498434 1_556
Al4 Ni1 2.663762 1_555
Al4 Ni2 2.663769 1_555
Al4 Ni3 2.663769 1_555
Al4 Zr5 3.069313 1_545
Al4 Zr4 3.069313 1_455
Al4 Zr3 3.069320 1_555
Al5 Ni0 2.498434 1_565
Al5 Ni5 2.663762 1_555
Al5 Ni3 2.663769 1_555
Al5 Ni4 2.663769 1_555
Al5 Zr0 3.069313 1_455
Al5 Zr5 3.069313 1_554
Al5 Zr1 3.069320 1_555
Al6 Ni0 2.498434 1_655
Al6 Ni6 2.663762 1_555
Al6 Ni2 2.663769 1_555
Al6 Ni4 2.663769 1_555
Al6 Zr4 3.069313 1_554
Al6 Zr0 3.069313 1_545
Al6 Zr2 3.069320 1_555
Al7 Ni0 2.498427 1_555
Al7 Ni1 2.663769 1_555
Al7 Ni5 2.663769 1_555
Al7 Ni6 2.663769 1_555
Al7 Zr3 3.069314 1_554
Al7 Zr1 3.069314 1_545
Al7 Zr2 3.069314 1_455
Al8 Ni6 2.470699 1_565
Al8 Ni5 2.470699 1_655
Al8 Ni4 2.470699 1_555
Al8 Zr0 2.864587 1_555
Al8 Zr2 2.864587 1_555
Al8 Zr1 2.864587 1_555
Al9 Ni6 2.470699 1_556
Al9 Ni1 2.470699 1_655
Al9 Ni2 2.470699 1_555
Al9 Zr4 2.864587 1_555
Al9 Zr2 2.864587 1_555
Al9 Zr3 2.864587 1_555
Al10 Ni5 2.470699 1_556
Al10 Ni1 2.470699 1_565
Al10 Ni3 2.470699 1_555
Al10 Al3 2.718257 1_455
Al10 Zr5 2.864587 1_555
Al10 Zr1 2.864587 1_555
Al10 Zr3 2.864587 1_555
Al11 Ni3 2.470699 1_655
Al11 Ni2 2.470699 1_565
Al11 Ni4 2.470699 1_556
Al11 Al2 2.718255 1_555
Al11 Zr0 2.864587 1_555
Al11 Zr4 2.864587 1_555
Al11 Zr5 2.864587 1_555
Al12 Ni4 2.470699 1_556
Al12 Ni6 2.470699 1_556
Al12 Ni5 2.470699 1_556
Al12 Al5 2.718250 1_556
Al12 Al6 2.718250 1_556
Al12 Al7 2.718257 1_556
Al12 Zr5 2.864587 1_555
Al12 Zr3 2.864587 1_555
Al12 Zr4 2.864587 1_555
Al13 Ni2 2.470699 1_565
Al13 Ni6 2.470699 1_565
Al13 Ni1 2.470699 1_565
Al13 Al4 2.718250 1_565
Al13 Al6 2.718250 1_565
Al13 Al7 2.718257 1_565
Al13 Zr5 2.864587 1_555
Al13 Zr1 2.864587 1_555
Al13 Zr0 2.864587 1_555
Al14 Ni5 2.470699 1_655
Al14 Ni3 2.470699 1_655
Al14 Ni1 2.470699 1_655
Al14 Al5 2.718250 1_655
Al14 Al4 2.718250 1_655
Al14 Al7 2.718257 1_655
Al14 Zr2 2.864587 1_555
Al14 Zr0 2.864587 1_555
Al14 Zr4 2.864587 1_555
Al15 Ni3 2.470699 1_555
Al15 Ni4 2.470699 1_555
Al15 Ni2 2.470699 1_555
Al15 Al5 2.718255 1_555
Al15 Al6 2.718255 1_555
Al15 Al4 2.718255 1_555
Al15 Zr2 2.864587 1_555
Al15 Zr1 2.864587 1_555
Al15 Zr3 2.864587 1_555
Ni1 Zr1 3.108105 1_545
Ni1 Zr2 3.108105 1_455
Ni1 Zr5 3.108105 1_545
Ni1 Zr4 3.108105 1_455
Ni2 Zr0 3.108105 1_545
Ni2 Zr2 3.108105 1_555
Ni2 Zr5 3.108105 1_545
Ni2 Zr3 3.108105 1_555
Ni3 Zr3 3.108105 1_555
Ni3 Zr0 3.108105 1_455
Ni3 Zr1 3.108105 1_555
Ni3 Zr4 3.108105 1_455
Ni4 Zr4 3.108105 1_554
Ni4 Zr5 3.108105 1_554
Ni4 Zr2 3.108105 1_555
Ni4 Zr1 3.108105 1_555
Ni5 Zr2 3.108105 1_455
Ni5 Zr5 3.108105 1_554
Ni5 Zr0 3.108105 1_455
Ni5 Zr3 3.108105 1_554
Ni6 Zr4 3.108105 1_554
Ni6 Zr1 3.108105 1_545
Ni6 Zr0 3.108105 1_545
Ni6 Zr3 3.108105 1_554
