# generated using pymatgen
data_MoSeS
_symmetry_space_group_name_H-M   'P 1'
_cell_length_a   3.25251120
_cell_length_b   3.25251120
_cell_length_c   13.61727037
_cell_angle_alpha   90.00000000
_cell_angle_beta   90.00000000
_cell_angle_gamma   120.00000166
_symmetry_Int_Tables_number   1
_chemical_formula_structural   MoSeS
_chemical_formula_sum   'Mo2 Se2 S2'
_cell_volume   124.75509370
_cell_formula_units_Z   2
loop_
 _symmetry_equiv_pos_site_id
 _symmetry_equiv_pos_as_xyz
  1  'x, y, z'
loop_
 _atom_site_type_symbol
 _atom_site_label
 _atom_site_symmetry_multiplicity
 _atom_site_fract_x
 _atom_site_fract_y
 _atom_site_fract_z
 _atom_site_occupancy
  Mo  Mo0  1  -0.00000000  -0.00000000  0.25914775  1
  Mo  Mo1  1  -0.00000000  -0.00000000  0.74085225  1
  Se  Se0  1  0.66666700  0.33333300  0.86488755  1
  Se  Se1  1  0.33333300  0.66666700  0.13511245  1
  S  S0  1  0.33333300  0.66666700  0.37058780  1
  S  S1  1  0.66666700  0.33333300  0.62941220  1
loop_
_geom_bond_atom_site_label_1
_geom_bond_atom_site_label_2
_geom_bond_distance
_geom_bond_site_symmetry_2
Mo0 S0 2.414354 1_545
Mo0 S0 2.414356 1_555
Mo0 S0 2.414356 1_445
Mo0 Se1 2.525681 1_545
Mo0 Se1 2.525683 1_555
Mo0 Se1 2.525683 1_445
Mo1 S1 2.414354 1_455
Mo1 S1 2.414356 1_445
Mo1 S1 2.414356 1_555
Mo1 Se0 2.525681 1_455
Mo1 Se0 2.525683 1_555
Mo1 Se0 2.525683 1_445
