# generated using pymatgen
data_MgHg8(NO4)4
_symmetry_space_group_name_H-M   'P 1'
_cell_length_a   6.01849641
_cell_length_b   7.05154526
_cell_length_c   12.47381602
_cell_angle_alpha   85.09362272
_cell_angle_beta   90.07702974
_cell_angle_gamma   89.24653395
_symmetry_Int_Tables_number   1
_chemical_formula_structural   MgHg8(NO4)4
_chemical_formula_sum   'Mg1 Hg8 N4 O16'
_cell_volume   527.39800055
_cell_formula_units_Z   1
loop_
 _symmetry_equiv_pos_site_id
 _symmetry_equiv_pos_as_xyz
  1  'x, y, z'
loop_
 _atom_site_type_symbol
 _atom_site_label
 _atom_site_symmetry_multiplicity
 _atom_site_fract_x
 _atom_site_fract_y
 _atom_site_fract_z
 _atom_site_occupancy
  Mg  Mg0  1  0.73844936  0.38823671  0.32407276  1
  Hg  Hg0  1  0.47191607  0.76562627  0.24262255  1
  Hg  Hg1  1  0.46385383  0.25931357  0.17158090  1
  Hg  Hg2  1  0.51623962  0.21094039  0.74960725  1
  Hg  Hg3  1  0.49798445  0.71078030  0.75806679  1
  Hg  Hg4  1  0.88461274  0.51989333  0.58598526  1
  Hg  Hg5  1  0.15103678  0.96208197  0.94307103  1
  Hg  Hg6  1  0.25086258  0.54272305  0.47550740  1
  Hg  Hg7  1  0.74799293  0.95202071  0.01814614  1
  N  N0  1  0.98793758  0.99800073  0.64815056  1
  N  N1  1  0.04822230  0.44901550  0.85897474  1
  N  N2  1  0.98953386  0.54583697  0.14614882  1
  N  N3  1  0.00481330  0.04255370  0.36808218  1
  O  O0  1  0.06865941  0.59438409  0.79008986  1
  O  O1  1  0.95352007  0.14363262  0.70104587  1
  O  O2  1  0.01800495  0.46539754  0.24387155  1
  O  O3  1  0.01502791  0.87528182  0.34111272  1
  O  O4  1  0.43259018  0.93386539  0.10060149  1
  O  O5  1  0.54284706  0.58064376  0.37904668  1
  O  O6  1  0.46873123  0.95236025  0.84447993  1
  O  O7  1  0.55460917  0.48057855  0.66341662  1
  O  O8  1  0.79361364  0.58944941  0.11613441  1
  O  O9  1  0.17236200  0.13700088  0.38604987  1
  O  O10  1  0.82271361  0.90092013  0.62157013  1
  O  O11  1  0.22299646  0.35817191  0.89263476  1
  O  O12  1  0.15372278  0.57473797  0.08750313  1
  O  O13  1  0.80614387  0.11948690  0.37683017  1
  O  O14  1  0.85920049  0.40011579  0.89198603  1
  O  O15  1  0.18323077  0.95435681  0.62256837  1
loop_
_geom_bond_atom_site_label_1
_geom_bond_atom_site_label_2
_geom_bond_distance
_geom_bond_site_symmetry_2
Mg0 O5 1.953518 1_555
Mg0 O13 1.989000 1_555
Mg0 O2 2.015736 1_655
Hg0 O4 2.057618 1_555
Hg0 O5 2.093637 1_555
Hg1 O4 2.538583 1_545
Hg1 Mg0 2.739123 1_555
Hg2 O6 2.110097 1_545
Hg2 O7 2.118244 1_555
Hg3 O6 2.097985 1_555
Hg3 O7 2.111746 1_555
Hg4 O7 2.219973 1_555
Hg5 O6 2.278230 1_555
Hg5 O4 2.586032 1_556
Hg6 O5 2.137852 1_555
Hg7 O4 2.160264 1_555
N0 O15 1.259498 1_655
N0 O10 1.274064 1_555
N0 O1 1.281996 1_565
N1 O14 1.252974 1_455
N1 O11 1.275999 1_555
N1 O0 1.287308 1_555
N2 O12 1.238909 1_655
N2 O8 1.262819 1_555
N2 O2 1.309814 1_655
N3 O9 1.246285 1_555
N3 O3 1.254694 1_545
N3 O13 1.315031 1_455
