# generated using pymatgen
data_Y(AlC)3
_symmetry_space_group_name_H-M   'P 1'
_cell_length_a   3.43906778
_cell_length_b   3.43906778
_cell_length_c   17.34426700
_cell_angle_alpha   90.00000000
_cell_angle_beta   90.00000000
_cell_angle_gamma   119.99999578
_symmetry_Int_Tables_number   1
_chemical_formula_structural   Y(AlC)3
_chemical_formula_sum   'Y2 Al6 C6'
_cell_volume   177.65116977
_cell_formula_units_Z   2
loop_
 _symmetry_equiv_pos_site_id
 _symmetry_equiv_pos_as_xyz
  1  'x, y, z'
loop_
 _atom_site_type_symbol
 _atom_site_label
 _atom_site_symmetry_multiplicity
 _atom_site_fract_x
 _atom_site_fract_y
 _atom_site_fract_z
 _atom_site_occupancy
  Y  Y0  1  0.00000000  0.00000000  0.00000000  1
  Y  Y1  1  0.00000000  0.00000000  0.50000000  1
  Al  Al0  1  0.33333300  0.66666700  0.36364400  1
  Al  Al1  1  0.66666700  0.33333300  0.86364400  1
  Al  Al2  1  0.33333300  0.66666700  0.13635600  1
  Al  Al3  1  0.66666700  0.33333300  0.63635600  1
  Al  Al4  1  0.33333300  0.66666700  0.74530000  1
  Al  Al5  1  0.66666700  0.33333300  0.24530000  1
  C  C0  1  0.33333300  0.66666700  0.59259700  1
  C  C1  1  0.66666700  0.33333300  0.09259700  1
  C  C2  1  0.33333300  0.66666700  0.90740300  1
  C  C3  1  0.66666700  0.33333300  0.40740300  1
  C  C4  1  0.33333300  0.66666700  0.25000000  1
  C  C5  1  0.66666700  0.33333300  0.75000000  1
loop_
_geom_bond_atom_site_label_1
_geom_bond_atom_site_label_2
_geom_bond_distance
_geom_bond_site_symmetry_2
Al0 C4 1.971072 1_555
Al0 C3 2.125658 1_455
Al0 C3 2.125658 1_565
Al0 C3 2.125663 1_555
Al1 C5 1.971072 1_555
Al1 C2 2.125658 1_545
Al1 C2 2.125658 1_655
Al1 C2 2.125663 1_555
Al2 C4 1.971072 1_555
Al2 C1 2.125658 1_455
Al2 C1 2.125658 1_565
Al2 C1 2.125663 1_555
Al3 C5 1.971072 1_555
Al3 C0 2.125658 1_545
Al3 C0 2.125658 1_655
Al3 C0 2.125663 1_555
Al4 C5 1.987217 1_455
Al4 C5 1.987217 1_565
Al4 C5 1.987223 1_555
Al5 C4 1.987217 1_545
Al5 C4 1.987217 1_655
Al5 C4 1.987223 1_555
C0 Y1 2.553764 1_565
C0 Y1 2.553766 1_665
C0 Y1 2.553766 1_555
C1 Y0 2.553764 1_655
C1 Y0 2.553766 1_555
C1 Y0 2.553766 1_665
C2 Y0 2.553764 1_566
C2 Y0 2.553766 1_666
C2 Y0 2.553766 1_556
C3 Y1 2.553764 1_655
C3 Y1 2.553766 1_665
C3 Y1 2.553766 1_555
