# generated using pymatgen
data_Zn(H3C)2
_symmetry_space_group_name_H-M   'P 1'
_cell_length_a   7.69334800
_cell_length_b   7.65318900
_cell_length_c   8.32048292
_cell_angle_alpha   57.15003723
_cell_angle_beta   90.00000000
_cell_angle_gamma   90.00000000
_symmetry_Int_Tables_number   1
_chemical_formula_structural   Zn(H3C)2
_chemical_formula_sum   'Zn4 H24 C8'
_cell_volume   411.56097212
_cell_formula_units_Z   4
loop_
 _symmetry_equiv_pos_site_id
 _symmetry_equiv_pos_as_xyz
  1  'x, y, z'
loop_
 _atom_site_type_symbol
 _atom_site_label
 _atom_site_symmetry_multiplicity
 _atom_site_fract_x
 _atom_site_fract_y
 _atom_site_fract_z
 _atom_site_occupancy
  Zn  Zn0  1  0.88830500  0.75172400  0.25448000  1
  Zn  Zn1  1  0.61169500  0.75172400  0.75448000  1
  Zn  Zn2  1  0.11169500  0.24827600  0.74552000  1
  Zn  Zn3  1  0.38830500  0.24827600  0.24552000  1
  H  H0  1  0.11355800  0.87575200  0.39442000  1
  H  H1  1  0.38644200  0.87575200  0.89442000  1
  H  H2  1  0.88644200  0.12424800  0.60558000  1
  H  H3  1  0.61355800  0.12424800  0.10558000  1
  H  H4  1  0.17682200  0.94569500  0.16080700  1
  H  H5  1  0.32317800  0.94569500  0.66080700  1
  H  H6  1  0.82317800  0.05430500  0.83919300  1
  H  H7  1  0.67682200  0.05430500  0.33919300  1
  H  H8  1  0.01265800  0.09246100  0.19015700  1
  H  H9  1  0.48734200  0.09246100  0.69015700  1
  H  H10  1  0.98734200  0.90753900  0.80984300  1
  H  H11  1  0.51265800  0.90753900  0.30984300  1
  H  H12  1  0.58885700  0.64553800  0.20696700  1
  H  H13  1  0.91114300  0.64553800  0.70696700  1
  H  H14  1  0.41114300  0.35446200  0.79303300  1
  H  H15  1  0.08885700  0.35446200  0.29303300  1
  H  H16  1  0.75452300  0.49510200  0.18520700  1
  H  H17  1  0.74547700  0.49510200  0.68520700  1
  H  H18  1  0.24547700  0.50489800  0.81479300  1
  H  H19  1  0.25452300  0.50489800  0.31479300  1
  H  H20  1  0.69029900  0.43551100  0.41552900  1
  H  H21  1  0.80970100  0.43551100  0.91552900  1
  H  H22  1  0.30970100  0.56448900  0.58447100  1
  H  H23  1  0.19029900  0.56448900  0.08447100  1
  C  C0  1  0.06582200  0.93566400  0.24897500  1
  C  C1  1  0.43417800  0.93566400  0.74897500  1
  C  C2  1  0.93417800  0.06433600  0.75102500  1
  C  C3  1  0.56582200  0.06433600  0.25102500  1
  C  C4  1  0.71246900  0.56270400  0.26646300  1
  C  C5  1  0.78753100  0.56270400  0.76646300  1
  C  C6  1  0.28753100  0.43729600  0.73353700  1
  C  C7  1  0.21246900  0.43729600  0.23353700  1
loop_
_geom_bond_atom_site_label_1
_geom_bond_atom_site_label_2
_geom_bond_distance
_geom_bond_site_symmetry_2
C0 H0 1.098928 1_555
C0 H8 1.099849 1_565
C0 H4 1.101006 1_555
C0 Zn0 1.943959 1_455
C1 H1 1.098928 1_555
C1 H9 1.099849 1_565
C1 H5 1.101006 1_555
C1 Zn1 1.943959 1_555
C2 H2 1.098928 1_555
C2 H10 1.099849 1_545
C2 H6 1.101006 1_555
C2 Zn2 1.943959 1_655
C3 H3 1.098928 1_555
C3 H11 1.099849 1_545
C3 H7 1.101006 1_555
C3 Zn3 1.943959 1_555
C4 H20 1.097806 1_555
C4 H16 1.099511 1_555
C4 H12 1.100393 1_555
C4 Zn0 1.943222 1_555
C5 H21 1.097806 1_555
C5 H17 1.099511 1_555
C5 H13 1.100393 1_555
C5 Zn1 1.943222 1_555
C6 H22 1.097806 1_555
C6 H18 1.099511 1_555
C6 H14 1.100393 1_555
C6 Zn2 1.943222 1_555
C7 H23 1.097806 1_555
C7 H19 1.099511 1_555
C7 H15 1.100393 1_555
C7 Zn3 1.943222 1_555
