# generated using pymatgen
data_PdCl2
_symmetry_space_group_name_H-M   'P 1'
_cell_length_a   6.25863800
_cell_length_b   9.47333872
_cell_length_c   10.71630108
_cell_angle_alpha   80.76540513
_cell_angle_beta   85.42711292
_cell_angle_gamma   78.45000208
_symmetry_Int_Tables_number   1
_chemical_formula_structural   PdCl2
_chemical_formula_sum   'Pd6 Cl12'
_cell_volume   613.69295941
_cell_formula_units_Z   6
loop_
 _symmetry_equiv_pos_site_id
 _symmetry_equiv_pos_as_xyz
  1  'x, y, z'
loop_
 _atom_site_type_symbol
 _atom_site_label
 _atom_site_symmetry_multiplicity
 _atom_site_fract_x
 _atom_site_fract_y
 _atom_site_fract_z
 _atom_site_occupancy
  Pd  Pd0  1  0.59348600  0.85674100  0.01058100  1
  Pd  Pd1  1  0.06221300  0.32117300  0.19714000  1
  Pd  Pd2  1  0.16617500  0.37091800  0.70970400  1
  Pd  Pd3  1  0.40651400  0.14325900  0.98941900  1
  Pd  Pd4  1  0.93778700  0.67882700  0.80286000  1
  Pd  Pd5  1  0.83382500  0.62908200  0.29029600  1
  Cl  Cl0  1  0.40176300  0.16719100  0.20371800  1
  Cl  Cl1  1  0.99052100  0.76833300  0.98563600  1
  Cl  Cl2  1  0.44654200  0.18110400  0.77108500  1
  Cl  Cl3  1  0.59823700  0.83280900  0.79628200  1
  Cl  Cl4  1  0.00947900  0.23166700  0.01436400  1
  Cl  Cl5  1  0.55345800  0.81889600  0.22891500  1
  Cl  Cl6  1  0.70478900  0.44609800  0.21036900  1
  Cl  Cl7  1  0.12639000  0.44160800  0.36045900  1
  Cl  Cl8  1  0.10627300  0.01327700  0.55976900  1
  Cl  Cl9  1  0.29521100  0.55390200  0.78963100  1
  Cl  Cl10  1  0.87361000  0.55839200  0.63954100  1
  Cl  Cl11  1  0.89372700  0.98672300  0.44023100  1
loop_
_geom_bond_atom_site_label_1
_geom_bond_atom_site_label_2
_geom_bond_distance
_geom_bond_site_symmetry_2
Cl0 Pd1 2.323467 1_555
Cl0 Pd3 2.340872 1_554
Cl1 Pd4 2.326483 1_555
Cl1 Pd0 2.465799 1_556
Cl2 Pd2 2.299135 1_555
Cl2 Pd3 2.310610 1_555
Cl3 Pd4 2.323467 1_555
Cl3 Pd0 2.340872 1_556
Cl4 Pd1 2.326483 1_555
Cl4 Pd3 2.465799 1_554
Cl5 Pd5 2.299135 1_555
Cl5 Pd0 2.310610 1_555
Cl6 Pd1 2.316879 1_655
Cl6 Pd5 2.353334 1_555
Cl7 Pd1 2.337228 1_555
Cl7 Pd5 2.358179 1_455
Cl9 Pd4 2.316879 1_455
Cl9 Pd2 2.353334 1_555
Cl10 Pd4 2.337228 1_555
Cl10 Pd2 2.358179 1_655
Cl11 Cl8 1.995736 1_665
