# generated using pymatgen
data_Na3(VSe2)5
_symmetry_space_group_name_H-M   'P 1'
_cell_length_a   6.20044300
_cell_length_b   8.46907695
_cell_length_c   9.08527800
_cell_angle_alpha   114.53954719
_cell_angle_beta   96.59907334
_cell_angle_gamma   103.49746921
_symmetry_Int_Tables_number   1
_chemical_formula_structural   Na3(VSe2)5
_chemical_formula_sum   'Na3 V5 Se10'
_cell_volume   409.72375407
_cell_formula_units_Z   1
loop_
 _symmetry_equiv_pos_site_id
 _symmetry_equiv_pos_as_xyz
  1  'x, y, z'
loop_
 _atom_site_type_symbol
 _atom_site_label
 _atom_site_symmetry_multiplicity
 _atom_site_fract_x
 _atom_site_fract_y
 _atom_site_fract_z
 _atom_site_occupancy
  Na  Na0  1  0.65398400  0.49015100  0.99845600  1
  Na  Na1  1  0.42424700  0.50120300  0.59776200  1
  Na  Na2  1  0.26318500  0.50474100  0.20521800  1
  V  V0  1  0.97059400  0.99894300  0.98539300  1
  V  V1  1  0.80607500  0.00682100  0.61199600  1
  V  V2  1  0.63646200  0.99967300  0.20264500  1
  V  V3  1  0.43423300  0.99780100  0.79040800  1
  V  V4  1  0.16991400  0.99865800  0.40999900  1
  Se  Se0  1  0.97119500  0.21021100  0.11059200  1
  Se  Se1  1  0.76542300  0.22464800  0.70499600  1
  Se  Se2  1  0.83743000  0.78861000  0.49414000  1
  Se  Se3  1  0.55348500  0.18600500  0.32439300  1
  Se  Se4  1  0.64489800  0.78587600  0.08773100  1
  Se  Se5  1  0.36112900  0.18046900  0.92159600  1
  Se  Se6  1  0.44514000  0.79353100  0.68026100  1
  Se  Se7  1  0.15960500  0.20626100  0.52041800  1
  Se  Se8  1  0.24489500  0.82303800  0.27230600  1
  Se  Se9  1  0.05814600  0.80366100  0.88157000  1
loop_
_geom_bond_atom_site_label_1
_geom_bond_atom_site_label_2
_geom_bond_distance
_geom_bond_site_symmetry_2
Na0 Se4 2.307089 1_556
Na0 Se5 2.574432 1_555
Na0 Se1 2.968313 1_555
Na1 Se6 2.234837 1_555
Na1 Se7 2.406124 1_555
Na2 Se0 2.447814 1_455
Na2 Se8 2.538675 1_555
Na2 Se5 3.132221 1_554
Se0 V0 1.673507 1_544
Se0 V2 2.845441 1_545
Se1 V1 1.775381 1_555
Se2 V1 1.780862 1_565
Se3 V2 1.743092 1_545
Se4 V2 1.690491 1_555
Se5 V3 1.714424 1_545
Se5 V0 2.808561 1_445
Se6 V3 1.622029 1_555
Se7 V4 1.644343 1_545
Se8 V4 1.704177 1_555
Se9 V0 1.777826 1_455
