# generated using pymatgen
data_EuHfCrBiO6
_symmetry_space_group_name_H-M   'P 1'
_cell_length_a   5.68840220
_cell_length_b   5.68840220
_cell_length_c   5.68840220
_cell_angle_alpha   60.00000000
_cell_angle_beta   60.00000000
_cell_angle_gamma   60.00000000
_symmetry_Int_Tables_number   1
_chemical_formula_structural   EuHfCrBiO6
_chemical_formula_sum   'Eu1 Hf1 Cr1 Bi1 O6'
_cell_volume   130.15351140
_cell_formula_units_Z   1
loop_
 _symmetry_equiv_pos_site_id
 _symmetry_equiv_pos_as_xyz
  1  'x, y, z'
loop_
 _atom_site_type_symbol
 _atom_site_label
 _atom_site_symmetry_multiplicity
 _atom_site_fract_x
 _atom_site_fract_y
 _atom_site_fract_z
 _atom_site_occupancy
  Eu  Eu0  1  0.25000000  0.25000000  0.25000000  1
  Hf  Hf0  1  0.50000000  0.50000000  0.50000000  1
  Cr  Cr0  1  -0.00000000  0.00000000  -0.00000000  1
  Bi  Bi0  1  0.75000000  0.75000000  0.75000000  1
  O  O0  1  0.75469821  0.24530179  0.24530179  1
  O  O1  1  0.24530179  0.75469821  0.75469821  1
  O  O2  1  0.75469821  0.24530179  0.75469821  1
  O  O3  1  0.24530179  0.75469821  0.24530179  1
  O  O4  1  0.75469821  0.75469821  0.24530179  1
  O  O5  1  0.24530179  0.24530179  0.75469821  1
loop_
_geom_bond_atom_site_label_1
_geom_bond_atom_site_label_2
_geom_bond_distance
_geom_bond_site_symmetry_2
Eu0 O0 2.844452 1_455
Eu0 O2 2.844452 1_554
Eu0 O4 2.844452 1_545
Eu0 O3 2.844452 1_555
Eu0 O1 2.844452 1_545
Eu0 O0 2.844452 1_555
Eu0 O4 2.844452 1_455
Eu0 O1 2.844452 1_554
Eu0 O3 2.844452 1_545
Eu0 O2 2.844452 1_455
Eu0 O5 2.844452 1_555
Eu0 O5 2.844452 1_554
Hf0 O3 2.048949 1_555
Hf0 O0 2.048949 1_555
Hf0 O2 2.048949 1_555
Hf0 O4 2.048949 1_555
Hf0 O1 2.048949 1_555
Hf0 O5 2.048949 1_555
Cr0 O4 1.973359 1_445
Cr0 O2 1.973359 1_454
Cr0 O1 1.973359 1_544
Cr0 O3 1.973359 1_545
Cr0 O5 1.973359 1_554
Cr0 O0 1.973359 1_455
Bi0 O2 2.844452 1_555
Bi0 O1 2.844452 1_555
Bi0 O4 2.844452 1_555
Bi0 O3 2.844452 1_655
Bi0 O0 2.844452 1_565
Bi0 O5 2.844452 1_655
Bi0 O5 2.844452 1_565
Bi0 O3 2.844452 1_556
Bi0 O0 2.844452 1_556
Bi0 O2 2.844452 1_565
Bi0 O4 2.844452 1_556
Bi0 O1 2.844452 1_655
