# generated using pymatgen
data_Ba3SrTl2Cu2HgO10
_symmetry_space_group_name_H-M   'P 1'
_cell_length_a   21.66580014
_cell_length_b   21.66580014
_cell_length_c   21.66580014
_cell_angle_alpha   169.67066164
_cell_angle_beta   169.67066164
_cell_angle_gamma   14.62781042
_symmetry_Int_Tables_number   1
_chemical_formula_structural   Ba3SrTl2Cu2HgO10
_chemical_formula_sum   'Ba3 Sr1 Tl2 Cu2 Hg1 O10'
_cell_volume   326.96352384
_cell_formula_units_Z   1
loop_
 _symmetry_equiv_pos_site_id
 _symmetry_equiv_pos_as_xyz
  1  'x, y, z'
loop_
 _atom_site_type_symbol
 _atom_site_label
 _atom_site_symmetry_multiplicity
 _atom_site_fract_x
 _atom_site_fract_y
 _atom_site_fract_z
 _atom_site_occupancy
  Ba  Ba0  1  0.65843300  0.65843300  0.00000000  1
  Ba  Ba1  1  0.43032200  0.43032200  0.00000000  1
  Ba  Ba2  1  0.56861900  0.56861900  0.00000000  1
  Sr  Sr0  1  0.34446600  0.34446600  0.00000000  1
  Tl  Tl0  1  0.77768100  0.77768100  0.00000000  1
  Tl  Tl1  1  0.22417900  0.22417900  0.00000000  1
  Cu  Cu0  1  0.88385200  0.88385200  0.00000000  1
  Cu  Cu1  1  0.11405000  0.11405000  0.00000000  1
  Hg  Hg0  1  0.99980900  0.99980900  0.00000000  1
  O  O0  1  0.27268000  0.27268000  0.00000000  1
  O  O1  1  0.72875400  0.72875400  0.00000000  1
  O  O2  1  0.95292400  0.95292400  0.00000000  1
  O  O3  1  0.04657600  0.04657600  0.00000000  1
  O  O4  1  0.38488700  0.88488700  0.50000000  1
  O  O5  1  0.88488700  0.38488700  0.50000000  1
  O  O6  1  0.61290300  0.11290300  0.50000000  1
  O  O7  1  0.11290300  0.61290300  0.50000000  1
  O  O8  1  0.82534700  0.82534700  0.00000000  1
  O  O9  1  0.17672900  0.17672900  0.00000000  1
loop_
_geom_bond_atom_site_label_1
_geom_bond_atom_site_label_2
_geom_bond_distance
_geom_bond_site_symmetry_2
Ba0 O7 2.762781 1_655
Ba0 O6 2.762781 1_565
Ba0 O7 2.762781 1_554
Ba0 O6 2.762781 1_554
Ba0 O9 2.868074 1_655
Ba0 O9 2.868074 1_565
Ba0 O9 2.868074 1_666
Ba0 O9 2.868074 1_554
Ba0 O1 3.022329 1_555
Ba1 O5 2.759891 1_454
Ba1 O4 2.759891 1_555
Ba1 O5 2.759891 1_555
Ba1 O4 2.759891 1_544
Ba1 O2 2.924236 1_444
Ba1 O2 2.924236 1_556
Ba1 O2 2.924236 1_455
Ba1 O2 2.924236 1_545
Ba2 O6 2.725114 1_565
Ba2 O7 2.725114 1_655
Ba2 O7 2.725114 1_554
Ba2 O6 2.725114 1_554
Ba2 O3 2.916343 1_655
Ba2 O3 2.916343 1_565
Ba2 O3 2.916343 1_666
Ba2 O3 2.916343 1_554
Cu0 O4 1.950829 1_554
Cu0 O4 1.950829 1_655
Cu0 O5 1.950829 1_554
Cu0 O5 1.950829 1_565
Cu0 O8 2.514489 1_555
Cu1 O6 1.950945 1_454
Cu1 O7 1.950945 1_544
Cu1 O6 1.950945 1_555
Cu1 O7 1.950945 1_555
Hg0 O3 2.010001 1_665
Hg0 O2 2.015072 1_555
O0 Tl1 2.084526 1_555
O0 Tl0 2.766534 1_545
O0 Tl0 2.766534 1_444
O0 Tl0 2.766534 1_455
O0 Tl0 2.766534 1_556
O0 Sr0 3.085293 1_555
O1 Tl0 2.102835 1_555
O1 Tl1 2.765172 1_565
O1 Tl1 2.765172 1_655
O1 Tl1 2.765172 1_666
O1 Tl1 2.765172 1_554
O4 Sr0 2.611860 1_555
O4 Sr0 2.611860 1_566
O5 Sr0 2.611860 1_555
O5 Sr0 2.611860 1_656
O8 Tl0 2.048639 1_555
O8 Sr0 2.877973 1_666
O8 Sr0 2.877973 1_554
O8 Sr0 2.877973 1_565
O8 Sr0 2.877973 1_655
O9 Tl1 2.039355 1_555
