# generated using pymatgen
data_In2GaS4
_symmetry_space_group_name_H-M   'P 1'
_cell_length_a   3.98382865
_cell_length_b   3.98382865
_cell_length_c   12.77978300
_cell_angle_alpha   90.00000000
_cell_angle_beta   90.00000000
_cell_angle_gamma   120.00001075
_symmetry_Int_Tables_number   1
_chemical_formula_structural   In2GaS4
_chemical_formula_sum   'In2 Ga1 S4'
_cell_volume   175.65291636
_cell_formula_units_Z   1
loop_
 _symmetry_equiv_pos_site_id
 _symmetry_equiv_pos_as_xyz
  1  'x, y, z'
loop_
 _atom_site_type_symbol
 _atom_site_label
 _atom_site_symmetry_multiplicity
 _atom_site_fract_x
 _atom_site_fract_y
 _atom_site_fract_z
 _atom_site_occupancy
  In  In0  1  0.66666700  0.33333300  0.00759200  1
  In  In1  1  0.00000000  0.00000000  0.69631900  1
  Ga  Ga0  1  0.33333300  0.66666700  0.30436100  1
  S  S0  1  0.00000000  0.00000000  0.89160700  1
  S  S1  1  0.33333300  0.66666700  0.12179400  1
  S  S2  1  0.00000000  0.00000000  0.36445000  1
  S  S3  1  0.33333300  0.66666700  0.61387700  1
loop_
_geom_bond_atom_site_label_1
_geom_bond_atom_site_label_2
_geom_bond_distance
_geom_bond_site_symmetry_2
In0 S1 2.724033 1_545
In0 S1 2.724033 1_655
In0 S1 2.724039 1_555
In0 S0 2.736310 1_654
In0 S0 2.736312 1_554
In0 S0 2.736312 1_664
In1 S0 2.495738 1_555
In1 S3 2.529889 1_545
In1 S3 2.529892 1_555
In1 S3 2.529892 1_445
Ga0 S1 2.333167 1_555
Ga0 S2 2.424870 1_565
Ga0 S2 2.424873 1_555
Ga0 S2 2.424873 1_665
