# generated using pymatgen
data_SrCa3TiMn3O12
_symmetry_space_group_name_H-M   'P 1'
_cell_length_a   7.70083100
_cell_length_b   8.56157063
_cell_length_c   8.57115607
_cell_angle_alpha   101.68688667
_cell_angle_beta   116.69435606
_cell_angle_gamma   63.27333965
_symmetry_Int_Tables_number   1
_chemical_formula_structural   SrCa3TiMn3O12
_chemical_formula_sum   'Sr2 Ca6 Ti2 Mn6 O24'
_cell_volume   450.93530730
_cell_formula_units_Z   2
loop_
 _symmetry_equiv_pos_site_id
 _symmetry_equiv_pos_as_xyz
  1  'x, y, z'
loop_
 _atom_site_type_symbol
 _atom_site_label
 _atom_site_symmetry_multiplicity
 _atom_site_fract_x
 _atom_site_fract_y
 _atom_site_fract_z
 _atom_site_occupancy
  Sr  Sr0  1  0.99813300  0.75169200  0.24874800  1
  Sr  Sr1  1  0.49893300  0.75170100  0.24874200  1
  Ca  Ca0  1  0.50839600  0.24278500  0.75740400  1
  Ca  Ca1  1  0.00624500  0.24277800  0.75740800  1
  Ca  Ca2  1  0.25124100  0.24387200  0.24390200  1
  Ca  Ca3  1  0.74877600  0.24387500  0.24390200  1
  Ca  Ca4  1  0.24869200  0.75637600  0.75570700  1
  Ca  Ca5  1  0.75062800  0.75637700  0.75570800  1
  Ti  Ti0  1  0.50368700  0.49673800  0.50409300  1
  Ti  Ti1  1  0.00393600  0.49605500  0.50391400  1
  Mn  Mn0  1  0.99962200  0.00089900  0.00014700  1
  Mn  Mn1  1  0.49875700  0.00072400  0.99823700  1
  Mn  Mn2  1  0.75050100  0.00063700  0.50165100  1
  Mn  Mn3  1  0.75061000  0.49846400  0.99968500  1
  Mn  Mn4  1  0.25057300  0.49841700  0.99956700  1
  Mn  Mn5  1  0.25046100  0.00080000  0.50172700  1
  O  O0  1  0.74560800  0.00427000  0.99548800  1
  O  O1  1  0.24561000  0.00426800  0.99548800  1
  O  O2  1  0.25094100  0.49891100  0.50081300  1
  O  O3  1  0.75095900  0.49891100  0.50081200  1
  O  O4  1  0.49919100  0.49526800  0.99366000  1
  O  O5  1  0.99918400  0.49526500  0.99365800  1
  O  O6  1  0.49993800  0.00421400  0.50416300  1
  O  O7  1  0.00000000  0.00421900  0.50415800  1
  O  O8  1  0.62043900  0.00886600  0.24972700  1
  O  O9  1  0.12178500  0.00703300  0.25056500  1
  O  O10  1  0.62184100  0.74989100  0.99352800  1
  O  O11  1  0.12159800  0.74991400  0.99308100  1
  O  O12  1  0.37442800  0.49652500  0.24536100  1
  O  O13  1  0.87424100  0.49692500  0.24539300  1
  O  O14  1  0.37462100  0.75420400  0.50343900  1
  O  O15  1  0.87449300  0.75435500  0.50333300  1
  O  O16  1  0.87404200  0.00218600  0.75023600  1
  O  O17  1  0.37378600  0.00192100  0.74945900  1
  O  O18  1  0.87403200  0.25019800  0.99823800  1
  O  O19  1  0.37411800  0.25024200  0.99844400  1
  O  O20  1  0.62767800  0.49805800  0.75349100  1
  O  O21  1  0.12726200  0.49878900  0.75339300  1
  O  O22  1  0.62754200  0.24669900  0.50185100  1
  O  O23  1  0.12746600  0.24667900  0.50167500  1
loop_
_geom_bond_atom_site_label_1
_geom_bond_atom_site_label_2
_geom_bond_distance
_geom_bond_site_symmetry_2
Ca0 O0 2.579719 1_555
Ca0 O4 2.645016 1_555
Ca0 O16 2.657558 1_555
Ca0 O18 2.660604 1_555
Ca0 O6 2.661599 1_555
Ca0 O17 2.670994 1_555
Ca0 O19 2.673624 1_555
Ca0 O20 2.735799 1_555
Ca0 O22 2.739309 1_555
Ca0 O21 2.751948 1_555
Ca0 O23 2.752352 1_555
Ca0 O2 2.775222 1_555
Ca1 O1 2.579670 1_555
Ca1 O5 2.645006 1_455
Ca1 O16 2.657431 1_455
Ca1 O18 2.660547 1_455
Ca1 O7 2.661586 1_555
Ca1 O17 2.671049 1_555
Ca1 O19 2.673697 1_555
Ca1 O20 2.736335 1_455
Ca1 O22 2.739782 1_455
Ca1 O21 2.751472 1_555
Ca1 O23 2.751944 1_555
Ca1 O3 2.775287 1_455
Ca2 O8 2.627150 1_555
Ca2 O1 2.640281 1_554
Ca2 O9 2.650480 1_555
Ca2 O19 2.684426 1_554
Ca2 O18 2.698863 1_454
Ca2 O6 2.708400 1_555
Ca2 O5 2.715247 1_454
Ca2 O12 2.720885 1_555
Ca2 O13 2.736277 1_455
Ca2 O22 2.751591 1_555
Ca2 O23 2.764166 1_555
Ca2 O2 2.769268 1_555
Ca3 O8 2.627012 1_555
Ca3 O0 2.640287 1_554
Ca3 O9 2.650767 1_655
Ca3 O19 2.684171 1_554
Ca3 O18 2.699064 1_554
Ca3 O7 2.708362 1_655
Ca3 O4 2.715236 1_554
Ca3 O12 2.720691 1_555
Ca3 O13 2.736407 1_555
Ca3 O22 2.751899 1_555
Ca3 O23 2.763878 1_655
Ca3 O3 2.769247 1_555
Ca4 O1 2.638215 1_565
Ca4 O11 2.642698 1_555
Ca4 O10 2.656150 1_555
Ca4 O16 2.685543 1_465
Ca4 O17 2.695154 1_565
Ca4 O7 2.703194 1_565
Ca4 O4 2.704025 1_555
Ca4 O15 2.722600 1_455
Ca4 O14 2.732659 1_555
Ca4 O21 2.749352 1_555
Ca4 O20 2.763391 1_555
Ca4 O2 2.771457 1_555
Ca5 O0 2.638215 1_565
Ca5 O11 2.642912 1_655
Ca5 O10 2.655836 1_555
Ca5 O16 2.685792 1_565
Ca5 O17 2.694893 1_565
Ca5 O6 2.703139 1_565
Ca5 O5 2.704033 1_555
Ca5 O15 2.722713 1_555
Ca5 O14 2.732562 1_555
Ca5 O21 2.748980 1_655
Ca5 O20 2.763759 1_555
Ca5 O3 2.771473 1_555
Mn0 O18 1.906423 1_554
Mn0 O16 1.913752 1_554
Mn0 O9 1.918145 1_655
Mn0 O11 1.919977 1_644
Mn0 O0 1.925703 1_554
Mn0 O1 1.925726 1_654
Mn1 O17 1.905072 1_555
Mn1 O19 1.908032 1_555
Mn1 O10 1.918403 1_545
Mn1 O0 1.925503 1_555
Mn1 O1 1.925517 1_555
Mn1 O8 1.926776 1_556
Mn2 O22 1.881604 1_555
Mn2 O15 1.883339 1_545
Mn2 O16 1.903595 1_555
Mn2 O6 1.925733 1_555
Mn2 O7 1.925779 1_655
Mn2 O8 1.930202 1_555
Mn3 O13 1.881579 1_556
Mn3 O20 1.885257 1_555
Mn3 O18 1.898483 1_555
Mn3 O10 1.923239 1_555
Mn3 O5 1.925823 1_555
Mn3 O4 1.925950 1_555
Mn4 O12 1.882259 1_556
Mn4 O21 1.885107 1_555
Mn4 O19 1.897776 1_555
Mn4 O11 1.923839 1_555
Mn4 O4 1.925866 1_555
Mn4 O5 1.925971 1_455
Mn5 O23 1.880205 1_555
Mn5 O14 1.885742 1_545
Mn5 O17 1.897047 1_555
Mn5 O9 1.923921 1_555
Mn5 O6 1.925213 1_555
Mn5 O7 1.925221 1_555
O0 Sr0 2.737980 1_546
O1 Sr1 2.737888 1_546
O2 Ti1 1.925351 1_555
O2 Ti0 1.925593 1_555
O2 Sr0 2.732600 1_455
O3 Ti0 1.925436 1_555
O3 Ti1 1.925463 1_655
O3 Sr1 2.732676 1_555
O4 Sr1 2.766867 1_556
O5 Sr0 2.766878 1_556
O6 Sr1 2.747565 1_545
O7 Sr0 2.747580 1_445
O8 Sr1 2.749848 1_545
O8 Sr0 2.749893 1_545
O9 Sr1 2.744169 1_545
O9 Sr0 2.744335 1_445
O10 Sr0 2.741126 1_556
O10 Sr1 2.741247 1_556
O11 Sr1 2.747938 1_556
O11 Sr0 2.748037 1_456
O12 Ti0 1.981267 1_555
O12 Sr0 2.743415 1_455
O12 Sr1 2.743457 1_555
O13 Ti1 1.979667 1_655
O13 Sr0 2.736877 1_555
O13 Sr1 2.736900 1_555
O14 Ti0 1.968819 1_555
O14 Sr0 2.742684 1_455
O14 Sr1 2.742778 1_555
O15 Ti1 1.975195 1_655
O15 Sr1 2.737781 1_555
O15 Sr0 2.737804 1_555
O20 Ti0 1.909811 1_555
O21 Ti1 1.910512 1_555
O22 Ti0 1.912082 1_555
O23 Ti1 1.907012 1_555
