# generated using pymatgen
data_TiCuF6
_symmetry_space_group_name_H-M   'P 1'
_cell_length_a   4.96289052
_cell_length_b   5.13636864
_cell_length_c   5.46532267
_cell_angle_alpha   59.74966377
_cell_angle_beta   61.84335858
_cell_angle_gamma   60.12346103
_symmetry_Int_Tables_number   1
_chemical_formula_structural   TiCuF6
_chemical_formula_sum   'Ti1 Cu1 F6'
_cell_volume   99.71045572
_cell_formula_units_Z   1
loop_
 _symmetry_equiv_pos_site_id
 _symmetry_equiv_pos_as_xyz
  1  'x, y, z'
loop_
 _atom_site_type_symbol
 _atom_site_label
 _atom_site_symmetry_multiplicity
 _atom_site_fract_x
 _atom_site_fract_y
 _atom_site_fract_z
 _atom_site_occupancy
  Ti  Ti0  1  0.50000000  0.50000000  0.50000000  1
  Cu  Cu0  1  0.00000000  0.00000000  -0.00000000  1
  F  F0  1  0.74442594  0.36792751  0.74941564  1
  F  F1  1  0.25557406  0.63207249  0.25058436  1
  F  F2  1  0.62717079  0.86795271  0.25576536  1
  F  F3  1  0.37282921  0.13204729  0.74423464  1
  F  F4  1  0.14207786  0.72734148  0.72934665  1
  F  F5  1  0.85792214  0.27265852  0.27065335  1
loop_
_geom_bond_atom_site_label_1
_geom_bond_atom_site_label_2
_geom_bond_distance
_geom_bond_site_symmetry_2
Cu0 F2 1.921369 1_445
Cu0 F3 1.921369 1_554
Cu0 F0 1.923390 1_454
Cu0 F1 1.923390 1_545
Cu0 F4 2.183037 1_544
Cu0 F5 2.183037 1_455
F0 Ti0 1.897074 1_555
F1 Ti0 1.897074 1_555
F2 Ti0 1.898270 1_555
F3 Ti0 1.898270 1_555
F4 Ti0 1.843078 1_555
F5 Ti0 1.843078 1_555
