# generated using pymatgen
data_Dy7(TePt)2
_symmetry_space_group_name_H-M   'P 1'
_cell_length_a   9.40953202
_cell_length_b   9.41023528
_cell_length_c   9.41023528
_cell_angle_alpha   155.73410751
_cell_angle_beta   118.58178334
_cell_angle_gamma   67.04213002
_symmetry_Int_Tables_number   1
_chemical_formula_structural   Dy7(TePt)2
_chemical_formula_sum   'Dy7 Te2 Pt2'
_cell_volume   298.24374327
_cell_formula_units_Z   1
loop_
 _symmetry_equiv_pos_site_id
 _symmetry_equiv_pos_as_xyz
  1  'x, y, z'
loop_
 _atom_site_type_symbol
 _atom_site_label
 _atom_site_symmetry_multiplicity
 _atom_site_fract_x
 _atom_site_fract_y
 _atom_site_fract_z
 _atom_site_occupancy
  Dy  Dy0  1  0.54371000  0.12929592  0.41441407  1
  Dy  Dy1  1  0.28501724  0.87067884  0.41433739  1
  Dy  Dy2  1  0.93812569  0.31555080  0.62257488  1
  Dy  Dy3  1  0.30701229  0.68444547  0.62256682  1
  Dy  Dy4  1  0.62702667  0.35704714  0.26997954  1
  Dy  Dy5  1  0.91299982  0.64299100  0.27000883  1
  Dy  Dy6  1  0.00358266  -0.00001534  0.00359800  1
  Te  Te0  1  0.26150912  0.49997593  0.76153219  1
  Te  Te1  1  0.66272904  0.00001962  0.66271042  1
  Pt  Pt0  1  0.16364375  0.23911282  0.92453093  1
  Pt  Pt1  1  0.68550272  0.76089679  0.92460492  1
loop_
_geom_bond_atom_site_label_1
_geom_bond_atom_site_label_2
_geom_bond_distance
_geom_bond_site_symmetry_2
Dy0 Pt1 2.860908 1_555
Dy0 Pt1 2.860911 1_544
Dy0 Te1 3.132017 1_555
Dy0 Te0 3.191717 1_555
Dy0 Te0 3.191720 1_544
Dy1 Pt0 2.860526 1_554
Dy1 Pt0 2.860529 1_565
Dy1 Te1 3.132944 1_565
Dy1 Te0 3.191322 1_554
Dy1 Te0 3.191322 1_565
Dy2 Pt1 2.875241 1_555
Dy2 Pt1 2.875244 1_544
Dy2 Pt0 3.140201 1_655
Dy2 Te0 3.186807 1_655
Dy3 Pt0 2.875830 1_565
Dy3 Pt0 2.875830 1_554
Dy3 Pt1 3.140823 1_555
Dy3 Te0 3.187670 1_555
Dy4 Pt1 2.897672 1_555
Dy4 Pt1 2.897675 1_544
Dy4 Te1 3.163394 1_554
Dy4 Te1 3.163396 1_565
Dy5 Pt0 2.896798 1_665
Dy5 Pt0 2.896798 1_654
Dy5 Te1 3.163356 1_554
Dy5 Te1 3.163358 1_565
Dy6 Te0 3.171311 1_555
Dy6 Te0 3.171313 1_544
Dy6 Te1 3.276232 1_454
