# generated using pymatgen
data_V2CN
_symmetry_space_group_name_H-M   'P 1'
_cell_length_a   5.07794471
_cell_length_b   5.07794471
_cell_length_c   5.07794476
_cell_angle_alpha   33.59028544
_cell_angle_beta   33.59028544
_cell_angle_gamma   33.59027676
_symmetry_Int_Tables_number   1
_chemical_formula_structural   V2CN
_chemical_formula_sum   'V2 C1 N1'
_cell_volume   35.70044905
_cell_formula_units_Z   1
loop_
 _symmetry_equiv_pos_site_id
 _symmetry_equiv_pos_as_xyz
  1  'x, y, z'
loop_
 _atom_site_type_symbol
 _atom_site_label
 _atom_site_symmetry_multiplicity
 _atom_site_fract_x
 _atom_site_fract_y
 _atom_site_fract_z
 _atom_site_occupancy
  V  V0  1  0.25552900  0.25552900  0.25552900  1
  V  V1  1  0.74447100  0.74447100  0.74447100  1
  C  C0  1  0.00000000  0.00000000  0.00000000  1
  N  N0  1  0.50000000  0.50000000  0.50000000  1
loop_
_geom_bond_atom_site_label_1
_geom_bond_atom_site_label_2
_geom_bond_distance
_geom_bond_site_symmetry_2
C0 V1 2.029526 1_544
C0 V0 2.029526 1_455
C0 V0 2.029526 1_545
C0 V1 2.029526 1_454
C0 V1 2.029526 1_445
C0 V0 2.029526 1_554
N0 V1 2.121100 1_455
N0 V1 2.121100 1_545
N0 V0 2.121100 1_655
N0 V0 2.121100 1_565
N0 V1 2.121100 1_554
N0 V0 2.121100 1_556
