# generated using pymatgen
data_Sr10P6O25
_symmetry_space_group_name_H-M   'P 1'
_cell_length_a   9.73090617
_cell_length_b   9.73091984
_cell_length_c   7.24983611
_cell_angle_alpha   89.99998159
_cell_angle_beta   89.99995617
_cell_angle_gamma   119.99995582
_symmetry_Int_Tables_number   1
_chemical_formula_structural   Sr10P6O25
_chemical_formula_sum   'Sr10 P6 O25'
_cell_volume   594.51962288
_cell_formula_units_Z   1
loop_
 _symmetry_equiv_pos_site_id
 _symmetry_equiv_pos_as_xyz
  1  'x, y, z'
loop_
 _atom_site_type_symbol
 _atom_site_label
 _atom_site_symmetry_multiplicity
 _atom_site_fract_x
 _atom_site_fract_y
 _atom_site_fract_z
 _atom_site_occupancy
  Sr  Sr0  1  -0.00000630  -0.00000579  0.52091303  1
  Sr  Sr1  1  0.66666604  0.33333334  0.98057041  1
  Sr  Sr2  1  0.66666921  0.33333467  0.48722027  1
  Sr  Sr3  1  0.00000065  0.00000019  0.01306182  1
  Sr  Sr4  1  0.10921832  0.42999229  0.75875444  1
  Sr  Sr5  1  0.57000881  0.67922673  0.75876055  1
  Sr  Sr6  1  0.32077217  0.89078569  0.75875439  1
  Sr  Sr7  1  0.58559426  0.93463554  0.24206883  1
  Sr  Sr8  1  0.06536789  0.65095791  0.24206405  1
  Sr  Sr9  1  0.34904078  0.41440137  0.24206716  1
  P  P0  1  0.36337870  0.29205248  0.74630282  1
  P  P1  1  0.70794817  0.07132575  0.74630583  1
  P  P2  1  0.92867345  0.63662115  0.74630250  1
  P  P3  1  0.30492626  0.02853618  0.25061404  1
  P  P4  1  0.97146436  0.27639032  0.25061023  1
  P  P5  1  0.72361230  0.69507361  0.25061386  1
  O  O0  1  0.40406687  0.40843822  0.58417449  1
  O  O1  1  0.59156291  -0.00436708  0.58417455  1
  O  O2  1  0.00436885  0.59593149  0.58417055  1
  O  O3  1  0.23635576  0.93377368  0.07146593  1
  O  O4  1  0.06622985  0.30258422  0.07146840  1
  O  O5  1  0.69741058  0.76364619  0.07147580  1
  O  O6  1  0.27204099  0.90562695  0.40328268  1
  O  O7  1  0.09437224  0.36641051  0.40328335  1
  O  O8  1  0.63360164  0.72796964  0.40329731  1
  O  O9  1  0.42784446  0.38815928  0.92606070  1
  O  O10  1  0.61183755  0.03968860  0.92606435  1
  O  O11  1  0.96031423  0.57214930  0.92606510  1
  O  O12  1  0.44796052  0.19546838  0.72006393  1
  O  O13  1  0.80453448  0.25249399  0.72006637  1
  O  O14  1  0.74750339  0.55203908  0.72006713  1
  O  O15  1  0.21771345  0.12212751  0.28627442  1
  O  O16  1  0.87786982  0.09558608  0.28626919  1
  O  O17  1  0.90441760  0.78228021  0.28626361  1
  O  O18  1  0.18244508  0.18373844  0.75890935  1
  O  O19  1  0.81625721  -0.00129434  0.75891639  1
  O  O20  1  0.00129370  0.81755464  0.75891565  1
  O  O21  1  0.48464990  0.14508903  0.23743347  1
  O  O22  1  0.85491512  0.33956320  0.23743129  1
  O  O23  1  0.66043059  0.51534920  0.23743687  1
  O  O24  1  0.33333213  0.66667115  0.86801890  1
loop_
_geom_bond_atom_site_label_1
_geom_bond_atom_site_label_2
_geom_bond_distance
_geom_bond_site_symmetry_2
O0 P0 1.540316 1_555
O0 Sr9 2.544141 1_555
O0 Sr5 2.626390 1_555
O1 P1 1.540326 1_555
O1 Sr7 2.544142 1_545
O1 Sr6 2.626379 1_545
O2 P2 1.540330 1_455
O2 Sr8 2.544147 1_555
O2 Sr4 2.626377 1_555
O3 P3 1.538545 1_565
O3 Sr6 2.516577 1_554
O3 Sr8 2.700539 1_555
O3 Sr3 2.714139 1_565
O4 P4 1.538517 1_455
O4 Sr4 2.516607 1_554
O4 Sr9 2.700513 1_555
O4 Sr3 2.714161 1_555
O5 P5 1.538529 1_555
O5 Sr5 2.516597 1_554
O5 Sr7 2.700452 1_555
O5 Sr3 2.714203 1_665
O6 P3 1.541165 1_565
O6 Sr8 2.562837 1_555
O6 Sr6 2.637368 1_555
O6 Sr7 3.145471 1_555
O7 P4 1.541176 1_455
O7 Sr9 2.562835 1_555
O7 Sr4 2.637380 1_555
O7 Sr8 3.145493 1_555
O8 P5 1.541206 1_555
O8 Sr7 2.562870 1_555
O8 Sr5 2.637343 1_555
O8 Sr9 3.145661 1_555
O9 P0 1.542673 1_555
O9 Sr9 2.469355 1_556
O9 Sr1 2.661088 1_555
O9 Sr5 2.736580 1_555
O10 P1 1.542697 1_555
O10 Sr7 2.469366 1_546
O10 Sr1 2.661054 1_555
O10 Sr6 2.736595 1_545
O11 P2 1.542729 1_555
O11 Sr8 2.469331 1_656
O11 Sr1 2.661071 1_555
O11 Sr4 2.736564 1_655
O12 P0 1.539638 1_555
O12 Sr2 2.514680 1_555
O12 Sr6 2.594477 1_545
O12 Sr1 2.653459 1_555
O13 P1 1.539660 1_555
O13 Sr2 2.514677 1_555
O13 Sr4 2.594486 1_655
O13 Sr1 2.653460 1_555
O14 P2 1.539670 1_555
O14 Sr2 2.514680 1_555
O14 Sr5 2.594473 1_555
O14 Sr1 2.653447 1_555
O15 P3 1.545765 1_555
O15 Sr9 2.487999 1_555
O15 Sr0 2.505349 1_555
O15 Sr3 2.703001 1_555
O16 P4 1.545766 1_555
O16 Sr7 2.488006 1_545
O16 Sr0 2.505348 1_655
O16 Sr3 2.702994 1_655
O17 P5 1.545763 1_555
O17 Sr8 2.487981 1_655
O17 Sr0 2.505375 1_665
O17 Sr3 2.702986 1_665
O18 P0 1.537345 1_555
O18 Sr0 2.480270 1_555
O18 Sr3 2.563088 1_556
O18 Sr4 2.820883 1_555
O19 P1 1.537305 1_555
O19 Sr0 2.480262 1_655
O19 Sr3 2.563085 1_656
O19 Sr5 2.820858 1_545
O20 P2 1.537347 1_455
O20 Sr0 2.480243 1_565
O20 Sr3 2.563062 1_566
O20 Sr6 2.820848 1_555
O21 P3 1.539647 1_555
O21 Sr2 2.554917 1_555
O21 Sr1 2.591515 1_554
O21 Sr7 2.677973 1_545
O22 P4 1.539628 1_555
O22 Sr2 2.554919 1_555
O22 Sr1 2.591531 1_554
O22 Sr8 2.677951 1_655
O23 P5 1.539636 1_555
O23 Sr2 2.554910 1_555
O23 Sr1 2.591558 1_554
O23 Sr9 2.677889 1_555
O24 Sr6 2.380136 1_555
O24 Sr4 2.380155 1_555
O24 Sr5 2.380156 1_555
