# generated using pymatgen
data_Ca2CdN2
_symmetry_space_group_name_H-M   'P 1'
_cell_length_a   7.05623119
_cell_length_b   7.52547300
_cell_length_c   6.38641340
_cell_angle_alpha   90.00000000
_cell_angle_beta   91.96463560
_cell_angle_gamma   90.00000000
_symmetry_Int_Tables_number   1
_chemical_formula_structural   Ca2CdN2
_chemical_formula_sum   'Ca8 Cd4 N8'
_cell_volume   338.92863900
_cell_formula_units_Z   4
loop_
 _symmetry_equiv_pos_site_id
 _symmetry_equiv_pos_as_xyz
  1  'x, y, z'
loop_
 _atom_site_type_symbol
 _atom_site_label
 _atom_site_symmetry_multiplicity
 _atom_site_fract_x
 _atom_site_fract_y
 _atom_site_fract_z
 _atom_site_occupancy
  Ca  Ca0  1  0.35691400  0.35973000  0.91711100  1
  Ca  Ca1  1  0.64308600  0.85973000  0.58288900  1
  Ca  Ca2  1  0.64308600  0.64027000  0.08288900  1
  Ca  Ca3  1  0.35691400  0.14027000  0.41711100  1
  Ca  Ca4  1  0.97302100  0.14105300  0.75140000  1
  Ca  Ca5  1  0.02697900  0.64105300  0.74860000  1
  Ca  Ca6  1  0.02697900  0.85894700  0.24860000  1
  Ca  Ca7  1  0.97302100  0.35894700  0.25140000  1
  Cd  Cd0  1  0.68143600  0.41119900  0.58160300  1
  Cd  Cd1  1  0.31856400  0.91119900  0.91839700  1
  Cd  Cd2  1  0.31856400  0.58880100  0.41839700  1
  Cd  Cd3  1  0.68143600  0.08880100  0.08160300  1
  N  N0  1  0.26641900  0.86542300  0.57134000  1
  N  N1  1  0.73358100  0.36542300  0.92866000  1
  N  N2  1  0.73358100  0.13457700  0.42866000  1
  N  N3  1  0.26641900  0.63457700  0.07134000  1
  N  N4  1  0.18732100  0.36294800  0.59201500  1
  N  N5  1  0.81267900  0.86294800  0.90798500  1
  N  N6  1  0.81267900  0.63705200  0.40798500  1
  N  N7  1  0.18732100  0.13705200  0.09201500  1
loop_
_geom_bond_atom_site_label_1
_geom_bond_atom_site_label_2
_geom_bond_distance
_geom_bond_site_symmetry_2
Ca0 N4 2.360697 1_555
Ca0 N7 2.362114 1_556
Ca0 N3 2.387285 1_556
Ca0 N1 2.656689 1_555
Ca1 N5 2.360697 1_555
Ca1 N6 2.362114 1_555
Ca1 N2 2.387285 1_565
Ca1 N0 2.656689 1_555
Ca2 N6 2.360697 1_555
Ca2 N5 2.362114 1_554
Ca2 N1 2.387285 1_554
Ca2 N3 2.656689 1_555
Ca3 N7 2.360697 1_555
Ca3 N4 2.362114 1_555
Ca3 N0 2.387285 1_545
Ca3 N2 2.656689 1_555
Ca4 N4 2.493331 1_655
Ca4 N5 2.595729 1_545
Ca4 N7 2.606517 1_656
Ca4 N2 2.620402 1_555
Ca4 N1 2.668005 1_555
Ca5 N5 2.493331 1_455
Ca5 N4 2.595729 1_555
Ca5 N6 2.606517 1_455
Ca5 N3 2.620402 1_556
Ca5 N0 2.668005 1_555
Ca6 N6 2.493331 1_455
Ca6 N7 2.595729 1_565
Ca6 N5 2.606517 1_454
Ca6 N0 2.620402 1_555
Ca6 N3 2.668005 1_555
Ca7 N7 2.493331 1_655
Ca7 N6 2.595729 1_555
Ca7 N4 2.606517 1_655
Ca7 N1 2.620402 1_554
Ca7 N2 2.668005 1_555
Cd0 N6 2.246391 1_555
Cd0 N1 2.260705 1_555
Cd0 N2 2.334010 1_555
Cd1 N7 2.246391 1_566
Cd1 N0 2.260705 1_555
Cd1 N3 2.334010 1_556
Cd2 N4 2.246391 1_555
Cd2 N3 2.260705 1_555
Cd2 N0 2.334010 1_555
Cd3 N5 2.246391 1_544
Cd3 N2 2.260705 1_555
Cd3 N1 2.334010 1_554
