# generated using pymatgen
data_Mg14TiBi
_symmetry_space_group_name_H-M   'P 1'
_cell_length_a   6.40103637
_cell_length_b   6.31860347
_cell_length_c   10.35768281
_cell_angle_alpha   90.00000000
_cell_angle_beta   90.00000000
_cell_angle_gamma   119.57490930
_symmetry_Int_Tables_number   1
_chemical_formula_structural   Mg14TiBi
_chemical_formula_sum   'Mg14 Ti1 Bi1'
_cell_volume   364.34183591
_cell_formula_units_Z   1
loop_
 _symmetry_equiv_pos_site_id
 _symmetry_equiv_pos_as_xyz
  1  'x, y, z'
loop_
 _atom_site_type_symbol
 _atom_site_label
 _atom_site_symmetry_multiplicity
 _atom_site_fract_x
 _atom_site_fract_y
 _atom_site_fract_z
 _atom_site_occupancy
  Mg  Mg0  1  0.16590107  0.33295004  0.62500000  1
  Mg  Mg1  1  0.16642646  0.83321273  0.62500000  1
  Mg  Mg2  1  0.66761951  0.33209223  0.12500000  1
  Mg  Mg3  1  0.66614206  0.33273767  0.62500000  1
  Mg  Mg4  1  0.66761951  0.83552628  0.12500000  1
  Mg  Mg5  1  0.66614206  0.83340339  0.62500000  1
  Mg  Mg6  1  0.33410843  0.17286527  0.37639017  1
  Mg  Mg7  1  0.33410843  0.17286527  0.87360983  1
  Mg  Mg8  1  0.33410843  0.66124416  0.37639017  1
  Mg  Mg9  1  0.33410843  0.66124416  0.87360983  1
  Mg  Mg10  1  0.83783519  0.16891809  0.37330056  1
  Mg  Mg11  1  0.83783519  0.16891809  0.87669944  1
  Mg  Mg12  1  0.82854328  0.66427214  0.37943536  1
  Mg  Mg13  1  0.82854328  0.66427214  0.87056464  1
  Ti  Ti0  1  0.16804454  0.33402177  0.12500000  1
  Bi  Bi0  1  0.16291415  0.83145658  0.12500000  1
loop_
_geom_bond_atom_site_label_1
_geom_bond_atom_site_label_2
_geom_bond_distance
_geom_bond_site_symmetry_2
Mg0 Mg6 3.144559 1_555
Mg0 Mg7 3.144559 1_555
Mg0 Mg8 3.144565 1_555
Mg0 Mg9 3.144565 1_555
Mg0 Mg1 3.159303 1_555
Mg0 Mg1 3.159303 1_545
Mg0 Mg11 3.183105 1_455
Mg0 Mg10 3.183105 1_455
Mg0 Mg5 3.198313 1_445
Mg0 Mg3 3.198314 1_455
Mg0 Mg5 3.202723 1_555
Mg0 Mg3 3.202723 1_555
Mg1 Mg12 3.163464 1_455
Mg1 Mg13 3.163464 1_455
Mg1 Mg8 3.180372 1_555
Mg1 Mg9 3.180372 1_555
Mg1 Mg6 3.180378 1_565
Mg1 Mg7 3.180378 1_565
Mg1 Mg3 3.198103 1_565
Mg1 Mg5 3.198103 1_555
Mg1 Mg3 3.202933 1_455
Mg1 Mg5 3.202933 1_455
Mg2 Mg4 3.137603 1_545
Mg2 Mg4 3.181000 1_555
Mg2 Ti0 3.197239 1_655
Mg2 Mg7 3.198340 1_554
Mg2 Mg6 3.198340 1_555
Mg2 Ti0 3.203833 1_555
Mg3 Mg5 3.155095 1_545
Mg3 Mg5 3.163508 1_555
Mg3 Mg6 3.170017 1_555
Mg3 Mg7 3.170017 1_555
Mg4 Ti0 3.197239 1_665
Mg4 Mg9 3.198340 1_554
Mg4 Mg8 3.198340 1_555
Mg4 Ti0 3.203832 1_555
Mg5 Mg9 3.170017 1_555
Mg5 Mg8 3.170017 1_555
Mg6 Mg8 3.085873 1_555
Mg6 Ti0 3.164678 1_555
Mg6 Mg8 3.232731 1_545
Mg7 Mg9 3.085873 1_555
Mg7 Ti0 3.164678 1_556
Mg7 Mg9 3.232731 1_545
Mg8 Ti0 3.164684 1_555
Mg9 Ti0 3.164684 1_556
Mg10 Mg2 3.158055 1_555
Mg10 Mg4 3.158062 1_545
Mg10 Mg12 3.160364 1_545
Mg10 Mg12 3.160364 1_555
Mg10 Ti0 3.161261 1_655
Mg10 Mg8 3.164589 1_655
Mg10 Mg6 3.164589 1_655
Mg10 Mg3 3.193557 1_555
Mg10 Mg5 3.193563 1_545
Mg10 Mg8 3.236914 1_545
Mg10 Mg6 3.236914 1_555
Mg11 Mg2 3.158055 1_556
Mg11 Mg4 3.158062 1_546
Mg11 Mg13 3.160364 1_545
Mg11 Mg13 3.160364 1_555
Mg11 Ti0 3.161261 1_656
Mg11 Mg9 3.164589 1_655
Mg11 Mg7 3.164589 1_655
Mg11 Mg3 3.193557 1_555
Mg11 Mg5 3.193563 1_545
Mg11 Mg9 3.236914 1_545
Mg11 Mg7 3.236914 1_555
Mg12 Mg5 3.128675 1_555
Mg12 Mg3 3.128682 1_555
Mg12 Mg6 3.155654 1_555
Mg12 Mg8 3.155654 1_555
Mg12 Mg4 3.205836 1_555
Mg12 Mg2 3.205842 1_555
Mg12 Mg6 3.245780 1_665
Mg12 Mg8 3.245780 1_655
Mg13 Mg5 3.128675 1_555
Mg13 Mg3 3.128682 1_555
Mg13 Mg7 3.155654 1_555
Mg13 Mg9 3.155654 1_555
Mg13 Mg4 3.205836 1_556
Mg13 Mg2 3.205842 1_556
Mg13 Mg7 3.245780 1_665
Mg13 Mg9 3.245780 1_655
Bi0 Ti0 3.159431 1_565
Bi0 Ti0 3.159431 1_555
Bi0 Mg2 3.183169 1_455
Bi0 Mg4 3.183169 1_455
Bi0 Mg9 3.209485 1_554
Bi0 Mg8 3.209485 1_555
Bi0 Mg7 3.209491 1_564
Bi0 Mg6 3.209491 1_565
Bi0 Mg2 3.218023 1_565
Bi0 Mg4 3.218023 1_555
Bi0 Mg12 3.226478 1_455
Bi0 Mg13 3.226478 1_454
