# generated using pymatgen
data_Li4FeCo2Ni3(PO4)6
_symmetry_space_group_name_H-M   'P 1'
_cell_length_a   8.38089621
_cell_length_b   8.45358010
_cell_length_c   8.50610376
_cell_angle_alpha   62.71856586
_cell_angle_beta   62.99388786
_cell_angle_gamma   63.24245852
_symmetry_Int_Tables_number   1
_chemical_formula_structural   Li4FeCo2Ni3(PO4)6
_chemical_formula_sum   'Li4 Fe1 Co2 Ni3 P6 O24'
_cell_volume   454.35954028
_cell_formula_units_Z   1
loop_
 _symmetry_equiv_pos_site_id
 _symmetry_equiv_pos_as_xyz
  1  'x, y, z'
loop_
 _atom_site_type_symbol
 _atom_site_label
 _atom_site_symmetry_multiplicity
 _atom_site_fract_x
 _atom_site_fract_y
 _atom_site_fract_z
 _atom_site_occupancy
  Li  Li0  1  0.74761457  0.14490820  0.35575113  1
  Li  Li1  1  0.26490760  0.85641670  0.64356371  1
  Li  Li2  1  0.64290545  0.26364964  0.85565738  1
  Li  Li3  1  0.85581074  0.64357283  0.26542863  1
  Fe  Fe0  1  0.85109632  0.84934897  0.85226674  1
  Co  Co0  1  0.01111588  0.00446901  0.99395002  1
  Co  Co1  1  0.49127269  0.50235235  0.50026426  1
  Ni  Ni0  1  0.14389328  0.14454858  0.14469121  1
  Ni  Ni1  1  0.35675282  0.35677973  0.35633945  1
  Ni  Ni2  1  0.64626383  0.64539133  0.64872778  1
  P  P0  1  0.24913404  0.54635362  0.95466376  1
  P  P1  1  0.55091016  0.95530425  0.24990253  1
  P  P2  1  0.94897963  0.24857263  0.54472379  1
  P  P3  1  0.05393705  0.74781766  0.44858003  1
  P  P4  1  0.44552669  0.04950243  0.75086095  1
  P  P5  1  0.74898290  0.44634809  0.05101323  1
  O  O0  1  0.11158936  0.30850473  0.50332221  1
  O  O1  1  0.31271390  0.51202349  0.11046620  1
  O  O2  1  0.05048378  0.91614958  0.26192992  1
  O  O3  1  0.53689538  0.10575087  0.31145902  1
  O  O4  1  0.01198241  0.81323643  0.61043767  1
  O  O5  1  0.24861942  0.59779748  0.43261829  1
  O  O6  1  0.25105276  0.07018199  0.90458581  1
  O  O7  1  0.45325617  0.23845528  0.58732818  1
  O  O8  1  0.18382899  0.38994025  0.98721145  1
  O  O9  1  0.60033511  0.42952526  0.24921432  1
  O  O10  1  0.09445829  0.74720137  0.92979476  1
  O  O11  1  0.38874203  0.99912690  0.18877544  1
  O  O12  1  0.60727942  0.00686530  0.82068565  1
  O  O13  1  0.90129941  0.24861794  0.07419638  1
  O  O14  1  0.40276705  0.56776138  0.75543727  1
  O  O15  1  0.81832360  0.60611800  0.01107181  1
  O  O16  1  0.56745594  0.75459275  0.40450822  1
  O  O17  1  0.75201402  0.92724044  0.09270472  1
  O  O18  1  0.74953006  0.40443468  0.57173051  1
  O  O19  1  0.96490052  0.18612355  0.39459234  1
  O  O20  1  0.47468479  0.89359968  0.68554442  1
  O  O21  1  0.93018891  0.09195571  0.74554685  1
  O  O22  1  0.68275889  0.47460931  0.89675117  1
  O  O23  1  0.89573713  0.68185261  0.47670081  1
loop_
_geom_bond_atom_site_label_1
_geom_bond_atom_site_label_2
_geom_bond_distance
_geom_bond_site_symmetry_2
Li0 O13 2.110414 1_555
Li0 O9 2.115821 1_555
Li0 O3 2.148322 1_555
Li0 O19 2.184037 1_555
Li0 O7 2.418610 1_555
Li0 O2 2.444339 1_645
Li1 O20 2.118483 1_555
Li1 O14 2.127460 1_555
Li1 O10 2.188411 1_555
Li1 O4 2.457517 1_555
Li1 O16 2.502380 1_555
Li1 O21 2.632582 1_465
Li2 O18 2.100100 1_555
Li2 O22 2.151272 1_555
Li2 O21 2.198284 1_555
Li2 O12 2.479115 1_555
Li2 O14 2.505313 1_555
Li2 O17 2.658122 1_546
Li3 O16 2.121270 1_555
Li3 O23 2.150118 1_555
Li3 O17 2.172176 1_555
Li3 O15 2.492982 1_555
Li3 O18 2.520665 1_555
Li3 O10 2.649076 1_654
Fe0 O12 1.934252 1_565
Fe0 O15 1.937358 1_556
Fe0 O4 1.956717 1_655
Fe0 O21 2.107260 1_565
Fe0 O10 2.110477 1_655
Fe0 O17 2.122677 1_556
Co0 O6 2.039760 1_555
Co0 O13 2.140871 1_456
Co0 O2 2.182500 1_546
Co0 O21 2.211059 1_455
Co0 O10 2.211237 1_545
Co0 O17 2.228111 1_446
Co1 O5 2.068205 1_555
Co1 O7 2.130246 1_555
Co1 O9 2.168070 1_555
Co1 O16 2.186178 1_555
Co1 O14 2.199067 1_555
Co1 O18 2.204514 1_555
Ni0 O11 1.966608 1_545
Ni0 O8 1.969849 1_554
Ni0 O19 2.050999 1_455
Ni0 O2 2.054801 1_545
Ni0 O13 2.068879 1_455
Ni0 O6 2.091862 1_554
Ni1 O0 1.976292 1_555
Ni1 O1 1.995325 1_555
Ni1 O3 2.064646 1_555
Ni1 O9 2.074439 1_555
Ni1 O5 2.099715 1_555
Ni1 O7 2.104335 1_555
Ni2 O23 1.999000 1_555
Ni2 O22 2.006238 1_555
Ni2 O20 2.011243 1_555
Ni2 O14 2.096828 1_555
Ni2 O18 2.109021 1_555
Ni2 O16 2.131406 1_555
O0 P2 1.503414 1_455
O1 P0 1.507982 1_554
O2 P3 1.574801 1_555
O3 P1 1.524984 1_545
O4 P3 1.551849 1_555
O5 P3 1.543507 1_555
O6 P4 1.553812 1_555
O7 P4 1.570049 1_555
O8 P0 1.517560 1_555
O9 P5 1.564242 1_555
O10 P0 1.595598 1_555
O11 P1 1.505530 1_555
O12 P4 1.554162 1_555
O13 P5 1.570854 1_555
O14 P0 1.584134 1_555
O15 P5 1.544062 1_555
O16 P1 1.592424 1_555
O17 P1 1.602799 1_555
O18 P2 1.590140 1_555
O19 P2 1.525506 1_555
O20 P4 1.537305 1_565
O21 P2 1.601831 1_555
O22 P5 1.530206 1_556
O23 P3 1.543215 1_655
