# generated using pymatgen
data_Mn5O3F5
_symmetry_space_group_name_H-M   'P 1'
_cell_length_a   6.40394936
_cell_length_b   11.10796370
_cell_length_c   6.40389504
_cell_angle_alpha   75.33424138
_cell_angle_beta   59.63870784
_cell_angle_gamma   91.83004139
_symmetry_Int_Tables_number   1
_chemical_formula_structural   Mn5O3F5
_chemical_formula_sum   'Mn10 O6 F10'
_cell_volume   373.21660316
_cell_formula_units_Z   2
loop_
 _symmetry_equiv_pos_site_id
 _symmetry_equiv_pos_as_xyz
  1  'x, y, z'
loop_
 _atom_site_type_symbol
 _atom_site_label
 _atom_site_symmetry_multiplicity
 _atom_site_fract_x
 _atom_site_fract_y
 _atom_site_fract_z
 _atom_site_occupancy
  Mn  Mn0  1  0.55617900  0.19222000  0.36391000  1
  Mn  Mn1  1  0.05506500  0.69014700  0.36498200  1
  Mn  Mn2  1  0.46813600  0.48172400  0.98647400  1
  Mn  Mn3  1  0.96779900  0.98202500  0.98581300  1
  Mn  Mn4  1  0.32911400  0.94200500  0.38713600  1
  Mn  Mn5  1  0.82962300  0.44141100  0.38823900  1
  Mn  Mn6  1  0.07673100  0.18498300  0.38105300  1
  Mn  Mn7  1  0.57701200  0.68621000  0.38073100  1
  Mn  Mn8  1  0.56609700  0.18498700  0.89169000  1
  Mn  Mn9  1  0.06693400  0.68620200  0.89083900  1
  O  O0  1  0.63987400  0.05412900  0.14835100  1
  O  O1  1  0.13802800  0.55459600  0.14848300  1
  O  O2  1  0.43000800  0.29299700  0.13699100  1
  O  O3  1  0.93114100  0.79348000  0.13773100  1
  O  O4  1  0.20248800  0.05412100  0.58576800  1
  O  O5  1  0.70301300  0.55458800  0.58348300  1
  F  F0  1  0.17942400  0.06578300  0.11365200  1
  F  F1  1  0.68154600  0.56524400  0.11624000  1
  F  F2  1  0.92524200  0.30541000  0.61968000  1
  F  F3  1  0.42451300  0.80615600  0.61836300  1
  F  F4  1  0.91908200  0.32075800  0.18777000  1
  F  F5  1  0.41809100  0.82045700  0.18776000  1
  F  F6  1  0.69478800  0.09832400  0.59633100  1
  F  F7  1  0.19537700  0.59829000  0.59703200  1
  F  F8  1  0.50854600  0.32070800  0.59844000  1
  F  F9  1  0.00816500  0.82039200  0.59773500  1
loop_
_geom_bond_atom_site_label_1
_geom_bond_atom_site_label_2
_geom_bond_distance
_geom_bond_site_symmetry_2
Mn0 O2 2.106816 1_555
Mn0 O0 2.218661 1_555
Mn0 O4 2.218872 1_555
Mn1 O3 2.108325 1_455
Mn1 O1 2.198888 1_555
Mn1 O5 2.198958 1_455
Mn2 O2 2.022297 1_556
Mn2 O1 2.125550 1_556
Mn2 O5 2.125584 1_555
Mn3 O3 2.023336 1_556
Mn3 O0 2.110651 1_566
Mn3 O4 2.110738 1_665
Mn4 O4 1.910625 1_565
Mn4 O0 1.910749 1_565
Mn5 O1 1.907155 1_655
Mn5 O5 1.907194 1_555
Mn6 O2 2.074425 1_555
Mn6 O4 2.158084 1_555
Mn7 O3 2.074940 1_555
Mn7 O5 2.155866 1_555
Mn8 O2 2.074561 1_556
Mn8 O0 2.157945 1_556
Mn9 O3 2.075165 1_456
Mn9 O1 2.155728 1_556
F0 Mn3 2.190712 1_444
F0 Mn6 2.276680 1_555
F0 Mn8 2.277029 1_554
F0 Mn4 2.537450 1_545
F1 Mn2 2.208289 1_554
F1 Mn9 2.277002 1_654
F1 Mn7 2.277311 1_555
F1 Mn5 2.522940 1_555
F2 Mn6 2.164517 1_655
F2 Mn8 2.164948 1_555
F2 Mn5 2.167171 1_555
F3 Mn7 2.156875 1_555
F3 Mn9 2.156947 1_555
F3 Mn4 2.164464 1_555
F4 Mn5 1.987266 1_555
F4 Mn0 2.243772 1_555
F4 Mn6 2.289356 1_655
F5 Mn4 1.991064 1_555
F5 Mn1 2.252544 1_555
F5 Mn7 2.285122 1_555
F6 Mn6 2.139790 1_655
F6 Mn8 2.140168 1_555
F6 Mn0 2.167884 1_555
F7 Mn7 2.141449 1_555
F7 Mn9 2.141825 1_555
F7 Mn1 2.167343 1_555
F8 Mn5 1.987335 1_555
F8 Mn0 2.244076 1_555
F8 Mn8 2.288423 1_555
F9 Mn4 1.991516 1_555
F9 Mn1 2.252134 1_555
F9 Mn9 2.284702 1_555
