# generated using pymatgen
data_TaCoB
_symmetry_space_group_name_H-M   'P 1'
_cell_length_a   3.28348900
_cell_length_b   5.89064700
_cell_length_c   16.97716200
_cell_angle_alpha   90.00000000
_cell_angle_beta   90.00000000
_cell_angle_gamma   90.00000000
_symmetry_Int_Tables_number   1
_chemical_formula_structural   TaCoB
_chemical_formula_sum   'Ta10 Co10 B10'
_cell_volume   328.37013893
_cell_formula_units_Z   10
loop_
 _symmetry_equiv_pos_site_id
 _symmetry_equiv_pos_as_xyz
  1  'x, y, z'
loop_
 _atom_site_type_symbol
 _atom_site_label
 _atom_site_symmetry_multiplicity
 _atom_site_fract_x
 _atom_site_fract_y
 _atom_site_fract_z
 _atom_site_occupancy
  Ta  Ta0  1  0.00000000  0.47161100  0.32068000  1
  Ta  Ta1  1  0.00000000  0.47161100  0.67932000  1
  Ta  Ta2  1  0.50000000  0.52838900  0.17932000  1
  Ta  Ta3  1  0.50000000  0.52838900  0.82068000  1
  Ta  Ta4  1  0.00000000  0.97808100  0.37504500  1
  Ta  Ta5  1  0.00000000  0.97808100  0.62495500  1
  Ta  Ta6  1  0.50000000  0.02191900  0.12495500  1
  Ta  Ta7  1  0.50000000  0.02191900  0.87504500  1
  Ta  Ta8  1  0.00000000  0.35633900  0.50000000  1
  Ta  Ta9  1  0.50000000  0.64366100  0.00000000  1
  Co  Co0  1  0.00000000  0.85547900  0.22620500  1
  Co  Co1  1  0.00000000  0.85547900  0.77379500  1
  Co  Co2  1  0.50000000  0.14452100  0.27379500  1
  Co  Co3  1  0.50000000  0.14452100  0.72620500  1
  Co  Co4  1  0.00000000  0.34990300  0.07113500  1
  Co  Co5  1  0.00000000  0.34990300  0.92886500  1
  Co  Co6  1  0.50000000  0.65009700  0.42886500  1
  Co  Co7  1  0.50000000  0.65009700  0.57113500  1
  Co  Co8  1  0.00000000  0.99401900  0.00000000  1
  Co  Co9  1  0.50000000  0.00598100  0.50000000  1
  B  B0  1  0.00000000  0.23234700  0.20141900  1
  B  B1  1  0.00000000  0.23234700  0.79858100  1
  B  B2  1  0.50000000  0.76765300  0.29858100  1
  B  B3  1  0.50000000  0.76765300  0.70141900  1
  B  B4  1  0.00000000  0.72906000  0.10032100  1
  B  B5  1  0.00000000  0.72906000  0.89967900  1
  B  B6  1  0.50000000  0.27094000  0.39967900  1
  B  B7  1  0.50000000  0.27094000  0.60032100  1
  B  B8  1  0.00000000  0.76883900  0.50000000  1
  B  B9  1  0.50000000  0.23116100  0.00000000  1
loop_
_geom_bond_atom_site_label_1
_geom_bond_atom_site_label_2
_geom_bond_distance
_geom_bond_site_symmetry_2
Co0 Co2 2.499419 1_465
Co0 Co2 2.499419 1_565
Co0 Ta6 2.571251 1_565
Co0 Ta6 2.571251 1_465
Co0 Ta4 2.628061 1_555
Co0 Ta2 2.653554 1_555
Co0 Ta2 2.653554 1_455
Co0 Ta0 2.772312 1_555
Co1 Co3 2.499419 1_465
Co1 Co3 2.499419 1_565
Co1 Ta7 2.571251 1_465
Co1 Ta7 2.571251 1_565
Co1 Ta5 2.628061 1_555
Co1 Ta3 2.653554 1_455
Co1 Ta3 2.653554 1_555
Co1 Ta1 2.772312 1_555
Co2 Ta4 2.571251 1_645
Co2 Ta4 2.571251 1_545
Co2 Ta6 2.628061 1_555
Co2 Ta0 2.653554 1_655
Co2 Ta0 2.653554 1_555
Co2 Ta2 2.772312 1_555
Co3 Ta5 2.571251 1_545
Co3 Ta5 2.571251 1_645
Co3 Ta7 2.628061 1_555
Co3 Ta1 2.653554 1_655
Co3 Ta1 2.653554 1_555
Co3 Ta3 2.772312 1_555
Co4 Co5 2.415341 1_554
Co4 Co8 2.419361 1_545
Co4 Ta9 2.673605 1_555
Co4 Ta9 2.673605 1_455
Co4 Ta2 2.678458 1_455
Co4 Ta2 2.678458 1_555
Co4 Ta6 2.694989 1_455
Co4 Ta6 2.694989 1_555
Co5 Co8 2.419361 1_546
Co5 Ta9 2.673605 1_556
Co5 Ta9 2.673605 1_456
Co5 Ta3 2.678458 1_455
Co5 Ta3 2.678458 1_555
Co5 Ta7 2.694989 1_455
Co5 Ta7 2.694989 1_555
Co6 Co7 2.415341 1_555
Co6 Co9 2.419361 1_565
Co6 Ta8 2.673605 1_655
Co6 Ta8 2.673605 1_555
Co6 Ta0 2.678458 1_655
Co6 Ta0 2.678458 1_555
Co6 Ta4 2.694989 1_555
Co6 Ta4 2.694989 1_655
Co7 Co9 2.419361 1_565
Co7 Ta8 2.673605 1_555
Co7 Ta8 2.673605 1_655
Co7 Ta1 2.678458 1_555
Co7 Ta1 2.678458 1_655
Co7 Ta5 2.694989 1_555
Co7 Ta5 2.694989 1_655
Co8 Ta9 2.637184 1_455
Co8 Ta9 2.637184 1_555
Co8 Ta6 2.687488 1_565
Co8 Ta6 2.687488 1_465
Co8 Ta7 2.687488 1_464
Co8 Ta7 2.687488 1_564
Co9 Ta8 2.637184 1_555
Co9 Ta8 2.637184 1_655
Co9 Ta4 2.687488 1_645
Co9 Ta4 2.687488 1_545
Co9 Ta5 2.687488 1_545
Co9 Ta5 2.687488 1_645
B0 Co2 2.114894 1_455
B0 Co2 2.114894 1_555
B0 Co0 2.259525 1_545
B0 Co4 2.317719 1_555
B0 Ta2 2.424293 1_455
B0 Ta2 2.424293 1_555
B0 Ta6 2.432488 1_555
B0 Ta6 2.432488 1_455
B0 Ta0 2.466967 1_555
B1 Co3 2.114894 1_555
B1 Co3 2.114894 1_455
B1 Co1 2.259525 1_545
B1 Co5 2.317719 1_555
B1 Ta3 2.424293 1_555
B1 Ta3 2.424293 1_455
B1 Ta7 2.432488 1_455
B1 Ta7 2.432488 1_555
B1 Ta1 2.466967 1_555
B2 Co0 2.114894 1_555
B2 Co0 2.114894 1_655
B2 Co2 2.259525 1_565
B2 Co6 2.317719 1_555
B2 Ta0 2.424293 1_655
B2 Ta0 2.424293 1_555
B2 Ta4 2.432488 1_555
B2 Ta4 2.432488 1_655
B2 Ta2 2.466967 1_555
B3 Co1 2.114894 1_655
B3 Co1 2.114894 1_555
B3 Co3 2.259525 1_565
B3 Co7 2.317719 1_555
B3 Ta1 2.424293 1_655
B3 Ta1 2.424293 1_555
B3 Ta5 2.432488 1_555
B3 Ta5 2.432488 1_655
B3 Ta3 2.466967 1_555
B4 Co0 2.263180 1_555
B4 Co4 2.287783 1_555
B4 Co8 2.310153 1_555
B4 Ta6 2.417912 1_565
B4 Ta6 2.417912 1_465
B4 Ta9 2.418504 1_455
B4 Ta9 2.418504 1_555
B4 Ta2 2.427221 1_455
B4 Ta2 2.427221 1_555
B5 Co1 2.263180 1_555
B5 Co5 2.287783 1_555
B5 Co8 2.310153 1_556
B5 Ta7 2.417912 1_565
B5 Ta7 2.417912 1_465
B5 Ta9 2.418504 1_556
B5 Ta9 2.418504 1_456
B5 Ta3 2.427221 1_455
B5 Ta3 2.427221 1_555
B6 Co2 2.263180 1_555
B6 Co6 2.287783 1_555
B6 Co9 2.310153 1_555
B6 Ta4 2.417912 1_645
B6 Ta4 2.417912 1_545
B6 Ta8 2.418504 1_555
B6 Ta8 2.418504 1_655
B6 Ta0 2.427221 1_655
B6 Ta0 2.427221 1_555
B7 Co3 2.263180 1_555
B7 Co7 2.287783 1_555
B7 Co9 2.310153 1_555
B7 Ta5 2.417912 1_545
B7 Ta5 2.417912 1_645
B7 Ta8 2.418504 1_555
B7 Ta8 2.418504 1_655
B7 Ta1 2.427221 1_555
B7 Ta1 2.427221 1_655
B8 Co7 2.154773 1_555
B8 Co7 2.154773 1_455
B8 Co6 2.154773 1_455
B8 Co6 2.154773 1_555
B8 Co9 2.155623 1_565
B8 Co9 2.155623 1_465
B8 Ta8 2.429892 1_555
B8 Ta4 2.453465 1_555
B8 Ta5 2.453465 1_555
B9 Co5 2.154773 1_554
B9 Co5 2.154773 1_654
B9 Co4 2.154773 1_655
B9 Co4 2.154773 1_555
B9 Co8 2.155623 1_545
B9 Co8 2.155623 1_645
B9 Ta9 2.429892 1_555
B9 Ta6 2.453465 1_555
B9 Ta7 2.453465 1_554
