# generated using pymatgen
data_La2MgSe4
_symmetry_space_group_name_H-M   'P 1'
_cell_length_a   13.82095670
_cell_length_b   8.29482245
_cell_length_c   13.76135041
_cell_angle_alpha   90.00000000
_cell_angle_beta   90.00000000
_cell_angle_gamma   90.00000000
_symmetry_Int_Tables_number   1
_chemical_formula_structural   La2MgSe4
_chemical_formula_sum   'La16 Mg8 Se32'
_cell_volume   1577.63398938
_cell_formula_units_Z   8
loop_
 _symmetry_equiv_pos_site_id
 _symmetry_equiv_pos_as_xyz
  1  'x, y, z'
loop_
 _atom_site_type_symbol
 _atom_site_label
 _atom_site_symmetry_multiplicity
 _atom_site_fract_x
 _atom_site_fract_y
 _atom_site_fract_z
 _atom_site_occupancy
  La  La0  1  0.10891462  0.88654480  0.68516695  1
  La  La1  1  0.89108538  0.11345520  0.18516695  1
  La  La2  1  0.39108538  0.88654480  0.18516695  1
  La  La3  1  0.60891462  0.11345520  0.68516695  1
  La  La4  1  0.12664168  0.38501807  0.32548072  1
  La  La5  1  0.87335832  0.61498193  0.82548072  1
  La  La6  1  0.37335832  0.38501807  0.82548072  1
  La  La7  1  0.62664168  0.61498193  0.32548072  1
  La  La8  1  0.13510975  0.63140653  0.99386537  1
  La  La9  1  0.86489025  0.36859347  0.49386537  1
  La  La10  1  0.36489025  0.63140653  0.49386537  1
  La  La11  1  0.63510975  0.36859347  0.99386537  1
  La  La12  1  0.13571926  0.13102325  0.99278958  1
  La  La13  1  0.86428074  0.86897675  0.49278958  1
  La  La14  1  0.36428074  0.13102325  0.49278958  1
  La  La15  1  0.63571926  0.86897675  0.99278958  1
  Mg  Mg0  1  0.11186830  0.38508327  0.69358515  1
  Mg  Mg1  1  0.88813170  0.61491673  0.19358515  1
  Mg  Mg2  1  0.38813170  0.38508327  0.19358515  1
  Mg  Mg3  1  0.61186830  0.61491673  0.69358515  1
  Mg  Mg4  1  0.12596220  0.88015772  0.32017770  1
  Mg  Mg5  1  0.87403780  0.11984228  0.82017770  1
  Mg  Mg6  1  0.37403780  0.88015772  0.82017770  1
  Mg  Mg7  1  0.62596220  0.11984228  0.32017770  1
  Se  Se0  1  0.00989747  0.88350713  0.88014537  1
  Se  Se1  1  0.99010253  0.11649287  0.38014537  1
  Se  Se2  1  0.49010253  0.88350713  0.38014537  1
  Se  Se3  1  0.50989747  0.11649287  0.88014537  1
  Se  Se4  1  0.02683629  0.38470193  0.12888225  1
  Se  Se5  1  0.97316371  0.61529807  0.62888225  1
  Se  Se6  1  0.47316371  0.38470193  0.62888225  1
  Se  Se7  1  0.52683629  0.61529807  0.12888225  1
  Se  Se8  1  0.02640956  0.37314574  0.86687467  1
  Se  Se9  1  0.97359044  0.62685426  0.36687467  1
  Se  Se10  1  0.47359044  0.37314574  0.36687467  1
  Se  Se11  1  0.52640956  0.62685426  0.86687467  1
  Se  Se12  1  0.04841298  0.87449118  0.14085823  1
  Se  Se13  1  0.95158702  0.12550882  0.64085823  1
  Se  Se14  1  0.45158702  0.87449118  0.64085823  1
  Se  Se15  1  0.54841298  0.12550882  0.14085823  1
  Se  Se16  1  0.20894435  0.88193360  0.49494871  1
  Se  Se17  1  0.79105565  0.11806640  0.99494871  1
  Se  Se18  1  0.29105565  0.88193360  0.99494871  1
  Se  Se19  1  0.70894435  0.11806640  0.49494871  1
  Se  Se20  1  0.21001493  0.38189213  0.52474788  1
  Se  Se21  1  0.78998507  0.61810787  0.02474788  1
  Se  Se22  1  0.28998507  0.38189213  0.02474788  1
  Se  Se23  1  0.71001493  0.61810787  0.52474788  1
  Se  Se24  1  0.23131001  0.13707958  0.77272068  1
  Se  Se25  1  0.76868999  0.86292042  0.27272068  1
  Se  Se26  1  0.26868999  0.13707958  0.27272068  1
  Se  Se27  1  0.73131001  0.86292042  0.77272068  1
  Se  Se28  1  0.23457217  0.63974272  0.77675774  1
  Se  Se29  1  0.76542783  0.36025728  0.27675774  1
  Se  Se30  1  0.26542783  0.63974272  0.27675774  1
  Se  Se31  1  0.73457217  0.36025728  0.77675774  1
loop_
_geom_bond_atom_site_label_1
_geom_bond_atom_site_label_2
_geom_bond_distance
_geom_bond_site_symmetry_2
La0 Se24 2.938016 1_565
La0 Se16 2.960563 1_555
La0 Se28 2.965761 1_555
La0 Se13 3.004806 1_465
La0 Se0 3.012116 1_555
La0 Se5 3.030236 1_455
La1 Se25 2.938016 1_545
La1 Se17 2.960563 1_554
La1 Se29 2.965761 1_555
La1 Se12 3.004806 1_645
La1 Se1 3.012116 1_555
La1 Se4 3.030236 1_655
La2 Se26 2.938016 1_565
La2 Se18 2.960563 1_554
La2 Se30 2.965761 1_555
La2 Se15 3.004806 1_565
La2 Se2 3.012116 1_555
La2 Se7 3.030236 1_555
La3 Se27 2.938016 1_545
La3 Se19 2.960563 1_555
La3 Se31 2.965761 1_555
La3 Se14 3.004806 1_545
La3 Se3 3.012116 1_555
La3 Se6 3.030236 1_555
La4 Se30 2.931419 1_555
La4 Se26 2.934468 1_555
La4 Se9 2.970359 1_455
La4 Se20 2.974566 1_555
La4 Se1 3.014667 1_455
La4 Se4 3.036821 1_555
La5 Se31 2.931419 1_555
La5 Se27 2.934468 1_555
La5 Se8 2.970359 1_655
La5 Se21 2.974566 1_556
La5 Se0 3.014667 1_655
La5 Se5 3.036821 1_555
La6 Se28 2.931419 1_555
La6 Se24 2.934468 1_555
La6 Se11 2.970359 1_555
La6 Se22 2.974566 1_556
La6 Se3 3.014667 1_555
La6 Se6 3.036821 1_555
La7 Se29 2.931419 1_555
La7 Se25 2.934468 1_555
La7 Se10 2.970359 1_555
La7 Se23 2.974566 1_555
La7 Se2 3.014667 1_555
La7 Se7 3.036821 1_555
La8 Se18 2.994001 1_555
La8 Se22 3.007661 1_556
La8 Se12 3.097290 1_556
La8 Se0 3.133158 1_555
La8 Se4 3.143118 1_556
La8 Se8 3.146449 1_555
La8 Se28 3.289499 1_555
La9 Se19 2.994001 1_555
La9 Se23 3.007661 1_555
La9 Se13 3.097290 1_555
La9 Se1 3.133158 1_555
La9 Se5 3.143118 1_555
La9 Se9 3.146449 1_555
La9 Se29 3.289499 1_555
La10 Se16 2.994001 1_555
La10 Se20 3.007661 1_555
La10 Se14 3.097290 1_555
La10 Se2 3.133158 1_555
La10 Se6 3.143118 1_555
La10 Se10 3.146449 1_555
La10 Se30 3.289499 1_555
La11 Se17 2.994001 1_555
La11 Se21 3.007661 1_556
La11 Se15 3.097290 1_556
La11 Se3 3.133158 1_555
La11 Se7 3.143118 1_556
La11 Se11 3.146449 1_555
La11 Se31 3.289499 1_555
La12 Se18 2.979773 1_545
La12 Se22 3.011556 1_556
La12 Se8 3.052603 1_555
La12 Se0 3.105188 1_545
La12 Se12 3.183683 1_546
La12 Se4 3.193715 1_556
La12 Se24 3.304460 1_555
La13 Se19 2.979773 1_565
La13 Se23 3.011556 1_555
La13 Se9 3.052603 1_555
La13 Se1 3.105188 1_565
La13 Se13 3.183683 1_565
La13 Se5 3.193715 1_555
La13 Se25 3.304460 1_555
La14 Se16 2.979773 1_545
La14 Se20 3.011556 1_555
La14 Se10 3.052603 1_555
La14 Se2 3.105188 1_545
La14 Se14 3.183683 1_545
La14 Se6 3.193715 1_555
La14 Se26 3.304460 1_555
La15 Se17 2.979773 1_565
La15 Se21 3.011556 1_556
La15 Se11 3.052603 1_555
La15 Se3 3.105188 1_565
La15 Se15 3.183683 1_566
La15 Se7 3.193715 1_556
La15 Se27 3.304460 1_555
Mg0 Se8 2.663013 1_555
Mg0 Se20 2.690550 1_555
Mg0 Se5 2.848570 1_455
Mg0 Se24 2.853583 1_555
Mg0 Se28 2.940766 1_555
Mg0 Se13 3.173282 1_455
Mg1 Se9 2.663013 1_555
Mg1 Se21 2.690550 1_555
Mg1 Se4 2.848570 1_655
Mg1 Se25 2.853583 1_555
Mg1 Se29 2.940766 1_555
Mg1 Se12 3.173282 1_655
Mg2 Se10 2.663013 1_555
Mg2 Se22 2.690550 1_555
Mg2 Se7 2.848570 1_555
Mg2 Se26 2.853583 1_555
Mg2 Se30 2.940766 1_555
Mg2 Se15 3.173282 1_555
Mg3 Se11 2.663013 1_555
Mg3 Se23 2.690550 1_555
Mg3 Se6 2.848570 1_555
Mg3 Se27 2.853583 1_555
Mg3 Se31 2.940766 1_555
Mg3 Se14 3.173282 1_555
Mg4 Se16 2.664585 1_555
Mg4 Se12 2.690801 1_555
Mg4 Se30 2.837129 1_555
Mg4 Se1 2.837220 1_465
Mg4 Se26 2.976486 1_565
Mg4 Se9 3.043438 1_455
Mg5 Se17 2.664585 1_555
Mg5 Se13 2.690801 1_555
Mg5 Se31 2.837129 1_555
Mg5 Se0 2.837220 1_645
Mg5 Se27 2.976486 1_545
Mg5 Se8 3.043438 1_655
Mg6 Se18 2.664585 1_555
Mg6 Se14 2.690801 1_555
Mg6 Se28 2.837129 1_555
Mg6 Se3 2.837220 1_565
Mg6 Se24 2.976486 1_565
Mg6 Se11 3.043438 1_555
Mg7 Se19 2.664585 1_555
Mg7 Se15 2.690801 1_555
Mg7 Se29 2.837129 1_555
Mg7 Se2 2.837220 1_545
Mg7 Se25 2.976486 1_545
Mg7 Se10 3.043438 1_555
