# generated using pymatgen
data_Ba4Ga22Sn
_symmetry_space_group_name_H-M   'P 1'
_cell_length_a   9.58816215
_cell_length_b   9.58816215
_cell_length_c   9.58816215
_cell_angle_alpha   109.47122063
_cell_angle_beta   109.47122063
_cell_angle_gamma   109.47122063
_symmetry_Int_Tables_number   1
_chemical_formula_structural   Ba4Ga22Sn
_chemical_formula_sum   'Ba4 Ga22 Sn1'
_cell_volume   678.55369476
_cell_formula_units_Z   1
loop_
 _symmetry_equiv_pos_site_id
 _symmetry_equiv_pos_as_xyz
  1  'x, y, z'
loop_
 _atom_site_type_symbol
 _atom_site_label
 _atom_site_symmetry_multiplicity
 _atom_site_fract_x
 _atom_site_fract_y
 _atom_site_fract_z
 _atom_site_occupancy
  Ba  Ba0  1  0.37601600  0.37601600  0.37601600  1
  Ba  Ba1  1  0.62398400  0.00000000  0.00000000  1
  Ba  Ba2  1  0.00000000  0.62398400  0.00000000  1
  Ba  Ba3  1  0.00000000  0.00000000  0.62398400  1
  Ga  Ga0  1  0.71952100  0.71952100  0.71952100  1
  Ga  Ga1  1  0.28047900  0.00000000  0.00000000  1
  Ga  Ga2  1  0.00000000  0.28047900  0.00000000  1
  Ga  Ga3  1  0.00000000  0.00000000  0.28047900  1
  Ga  Ga4  1  0.25000000  0.75000000  0.50000000  1
  Ga  Ga5  1  0.75000000  0.25000000  0.50000000  1
  Ga  Ga6  1  0.75000000  0.50000000  0.25000000  1
  Ga  Ga7  1  0.25000000  0.50000000  0.75000000  1
  Ga  Ga8  1  0.50000000  0.25000000  0.75000000  1
  Ga  Ga9  1  0.50000000  0.75000000  0.25000000  1
  Ga  Ga10  1  0.83561300  0.56004200  0.56004200  1
  Ga  Ga11  1  0.16438700  0.72442900  0.72442900  1
  Ga  Ga12  1  0.00000000  0.43995800  0.27557100  1
  Ga  Ga13  1  0.56004200  0.56004200  0.83561300  1
  Ga  Ga14  1  0.00000000  0.27557100  0.43995800  1
  Ga  Ga15  1  0.72442900  0.72442900  0.16438700  1
  Ga  Ga16  1  0.43995800  0.27557100  0.00000000  1
  Ga  Ga17  1  0.27557100  0.43995800  0.00000000  1
  Ga  Ga18  1  0.56004200  0.83561300  0.56004200  1
  Ga  Ga19  1  0.27557100  0.00000000  0.43995800  1
  Ga  Ga20  1  0.43995800  0.00000000  0.27557100  1
  Ga  Ga21  1  0.72442900  0.16438700  0.72442900  1
  Sn  Sn0  1  0.00000000  0.00000000  0.00000000  1
loop_
_geom_bond_atom_site_label_1
_geom_bond_atom_site_label_2
_geom_bond_distance
_geom_bond_site_symmetry_2
Ba0 Ga0 3.293582 1_555
Ba0 Sn0 3.605302 1_555
Ba0 Ga10 3.633560 1_555
Ba0 Ga18 3.633560 1_555
Ba0 Ga13 3.633560 1_555
Ba0 Ga3 3.710343 1_555
Ba0 Ga2 3.710343 1_555
Ba0 Ga1 3.710343 1_555
Ba0 Ga14 3.722098 1_555
Ba0 Ga16 3.722098 1_555
Ba0 Ga17 3.722098 1_555
Ba0 Ga19 3.722098 1_555
Ba0 Ga12 3.722098 1_555
Ba0 Ga20 3.722098 1_555
Ba1 Ga1 3.293582 1_555
Ba1 Sn0 3.605302 1_655
Ba1 Ga11 3.633560 1_544
Ba1 Ga16 3.633560 1_555
Ba1 Ga20 3.633560 1_555
Ba1 Ga2 3.710343 1_655
Ba1 Ga3 3.710343 1_655
Ba1 Ga0 3.710343 1_544
Ba1 Ga12 3.722098 1_655
Ba1 Ga14 3.722098 1_655
Ba1 Ga21 3.722098 1_554
Ba1 Ga15 3.722098 1_545
Ba1 Ga13 3.722098 1_544
Ba1 Ga18 3.722098 1_544
Ba2 Ga2 3.293582 1_555
Ba2 Sn0 3.605302 1_565
Ba2 Ga21 3.633560 1_454
Ba2 Ga12 3.633560 1_555
Ba2 Ga17 3.633560 1_555
Ba2 Ga1 3.710343 1_565
Ba2 Ga3 3.710343 1_565
Ba2 Ga0 3.710343 1_454
Ba2 Ga19 3.722098 1_565
Ba2 Ga20 3.722098 1_565
Ba2 Ga11 3.722098 1_554
Ba2 Ga15 3.722098 1_455
Ba2 Ga13 3.722098 1_454
Ba2 Ga10 3.722098 1_454
Ba3 Ga3 3.293582 1_555
Ba3 Sn0 3.605302 1_556
Ba3 Ga15 3.633560 1_445
Ba3 Ga19 3.633560 1_555
Ba3 Ga14 3.633560 1_555
Ba3 Ga0 3.710343 1_445
Ba3 Ga1 3.710343 1_556
Ba3 Ga2 3.710343 1_556
Ba3 Ga17 3.722098 1_556
Ba3 Ga16 3.722098 1_556
Ba3 Ga11 3.722098 1_545
Ba3 Ga21 3.722098 1_455
Ba3 Ga18 3.722098 1_445
Ba3 Ga10 3.722098 1_445
Ga0 Ga18 2.574103 1_555
Ga0 Ga13 2.574103 1_555
Ga0 Ga10 2.574103 1_555
Ga0 Sn0 2.689278 1_666
Ga1 Ga20 2.574103 1_555
Ga1 Ga16 2.574103 1_555
Ga1 Ga11 2.574103 1_544
Ga1 Sn0 2.689278 1_555
Ga2 Ga21 2.574103 1_454
Ga2 Sn0 2.689278 1_555
Ga3 Sn0 2.689278 1_555
Ga10 Ga11 2.573874 1_655
Ga10 Ga5 2.599924 1_555
Ga10 Ga6 2.599924 1_555
Ga11 Ga7 2.599924 1_555
Ga11 Ga4 2.599924 1_555
Ga12 Ga14 2.573874 1_555
Ga12 Ga2 2.574103 1_555
Ga12 Ga4 2.599924 1_555
Ga12 Ga6 2.599924 1_455
Ga13 Ga15 2.573874 1_556
Ga13 Ga7 2.599924 1_555
Ga13 Ga8 2.599924 1_555
Ga14 Ga3 2.574103 1_555
Ga14 Ga7 2.599924 1_555
Ga14 Ga5 2.599924 1_455
Ga15 Ga3 2.574103 1_665
Ga15 Ga6 2.599924 1_555
Ga15 Ga9 2.599924 1_555
Ga16 Ga17 2.573874 1_555
Ga16 Ga8 2.599924 1_554
Ga16 Ga6 2.599924 1_555
Ga17 Ga2 2.574103 1_555
Ga17 Ga9 2.599924 1_555
Ga17 Ga7 2.599924 1_554
Ga18 Ga21 2.573874 1_565
Ga18 Ga4 2.599924 1_555
Ga18 Ga9 2.599924 1_555
Ga19 Ga20 2.573874 1_555
Ga19 Ga3 2.574103 1_555
Ga19 Ga4 2.599924 1_545
Ga19 Ga8 2.599924 1_555
Ga20 Ga9 2.599924 1_545
Ga20 Ga5 2.599924 1_555
Ga21 Ga8 2.599924 1_555
Ga21 Ga5 2.599924 1_555
