# generated using pymatgen
data_Ba10Pr5Nb2(SnO10)3
_symmetry_space_group_name_H-M   'P 1'
_cell_length_a   8.78374573
_cell_length_b   10.70081964
_cell_length_c   10.76178496
_cell_angle_alpha   80.85116523
_cell_angle_beta   113.84511095
_cell_angle_gamma   113.73844218
_symmetry_Int_Tables_number   1
_chemical_formula_structural   Ba10Pr5Nb2(SnO10)3
_chemical_formula_sum   'Ba10 Pr5 Nb2 Sn3 O30'
_cell_volume   846.90597258
_cell_formula_units_Z   1
loop_
 _symmetry_equiv_pos_site_id
 _symmetry_equiv_pos_as_xyz
  1  'x, y, z'
loop_
 _atom_site_type_symbol
 _atom_site_label
 _atom_site_symmetry_multiplicity
 _atom_site_fract_x
 _atom_site_fract_y
 _atom_site_fract_z
 _atom_site_occupancy
  Ba  Ba0  1  0.65062200  0.09989400  0.69891300  1
  Ba  Ba1  1  0.44974700  0.30040900  0.09982500  1
  Ba  Ba2  1  0.85274100  0.89799400  0.29862700  1
  Ba  Ba3  1  0.24785100  0.49634200  0.49914700  1
  Ba  Ba4  1  0.05094400  0.69667900  0.90024900  1
  Ba  Ba5  1  0.75025300  0.49959100  0.50017500  1
  Ba  Ba6  1  0.54937800  0.70010600  0.90108700  1
  Ba  Ba7  1  0.95214900  0.30365800  0.10085300  1
  Ba  Ba8  1  0.34725900  0.90200600  0.30137300  1
  Ba  Ba9  1  0.14905600  0.10332100  0.69975100  1
  Pr  Pr0  1  0.79810900  0.19834900  0.39861700  1
  Pr  Pr1  1  0.60000000  0.40000000  0.80000000  1
  Pr  Pr2  1  0.99926000  0.00013300  0.99848600  1
  Pr  Pr3  1  0.40189100  0.60165100  0.20138300  1
  Pr  Pr4  1  0.20074000  0.79986700  0.60151400  1
  Nb  Nb0  1  0.70013600  0.79954800  0.60042100  1
  Nb  Nb1  1  0.49986400  0.00045200  0.99957900  1
  Sn  Sn0  1  0.90017500  0.60036900  0.20000800  1
  Sn  Sn1  1  0.29982500  0.19963100  0.39999200  1
  Sn  Sn2  1  0.10000000  0.40000000  0.80000000  1
  O  O0  1  0.98537300  0.79981100  0.12663500  1
  O  O1  1  0.38422000  0.39863600  0.32536400  1
  O  O2  1  0.78350500  0.99393700  0.52948400  1
  O  O3  1  0.18536200  0.59912100  0.72660900  1
  O  O4  1  0.58405500  0.19385700  0.92938900  1
  O  O5  1  0.65595800  0.61186700  0.17159000  1
  O  O6  1  0.05536500  0.21026800  0.37247700  1
  O  O7  1  0.46334900  0.81228400  0.57318000  1
  O  O8  1  0.85555900  0.41142500  0.77156400  1
  O  O9  1  0.26052400  0.00937900  0.97040900  1
  O  O10  1  0.01356200  0.67711600  0.39809100  1
  O  O11  1  0.41211400  0.27444900  0.59856500  1
  O  O12  1  0.80667900  0.87308500  0.79291800  1
  O  O13  1  0.21357300  0.47694400  0.99783800  1
  O  O14  1  0.60604400  0.07176500  0.19231100  1
  O  O15  1  0.81578000  0.40136400  0.27463600  1
  O  O16  1  0.21462700  0.00018900  0.47336500  1
  O  O17  1  0.61594500  0.60614300  0.67061100  1
  O  O18  1  0.01463800  0.20087900  0.87339100  1
  O  O19  1  0.41649500  0.80606300  0.07051600  1
  O  O20  1  0.14463500  0.58973200  0.22752300  1
  O  O21  1  0.54404200  0.18813300  0.42841000  1
  O  O22  1  0.93947600  0.79062100  0.62959100  1
  O  O23  1  0.34444100  0.38857500  0.82843600  1
  O  O24  1  0.73665100  0.98771600  0.02682000  1
  O  O25  1  0.78788600  0.52555100  0.00143500  1
  O  O26  1  0.18643800  0.12288400  0.20190900  1
  O  O27  1  0.59395600  0.72823500  0.40768900  1
  O  O28  1  0.98642700  0.32305600  0.60216200  1
  O  O29  1  0.39332100  0.92691500  0.80708200  1
loop_
_geom_bond_atom_site_label_1
_geom_bond_atom_site_label_2
_geom_bond_distance
_geom_bond_site_symmetry_2
Ba0 O21 2.806525 1_555
Ba0 O18 2.815338 1_655
Ba0 O29 2.821892 1_545
Ba0 O2 3.068593 1_545
Ba0 O7 3.075290 1_545
Ba0 O12 3.093466 1_545
Ba0 O11 3.118352 1_555
Ba0 O8 3.134365 1_555
Ba0 O4 3.153399 1_555
Ba0 O28 3.392405 1_555
Ba0 O24 3.419368 1_546
Ba0 O16 3.422630 1_555
Ba1 O23 2.813871 1_554
Ba1 O15 2.828915 1_555
Ba1 O26 2.831645 1_555
Ba1 O4 3.090897 1_554
Ba1 O14 3.112371 1_555
Ba1 O13 3.119559 1_554
Ba1 O9 3.121069 1_554
Ba1 O1 3.123357 1_555
Ba1 O5 3.132463 1_555
Ba2 O16 2.803312 1_665
Ba2 O27 2.828255 1_555
Ba2 O24 2.828686 1_555
Ba2 O0 3.038819 1_555
Ba2 O10 3.064115 1_655
Ba2 O5 3.064454 1_555
Ba2 O6 3.142933 1_665
Ba2 O14 3.166285 1_565
Ba2 O2 3.183039 1_555
Ba2 O26 3.384837 1_665
Ba2 O22 3.434551 1_555
Ba2 O19 3.435804 1_555
Ba3 O28 2.813672 1_455
Ba3 O20 2.832537 1_555
Ba3 O17 2.836615 1_555
Ba3 O6 3.063399 1_555
Ba3 O1 3.076856 1_555
Ba3 O11 3.093020 1_555
Ba3 O10 3.144271 1_555
Ba3 O3 3.151445 1_555
Ba3 O7 3.183181 1_555
Ba3 O15 3.396404 1_455
Ba3 O23 3.415410 1_555
Ba3 O27 3.455058 1_555
Ba4 O25 2.805661 1_456
Ba4 O19 2.817201 1_556
Ba4 O22 2.829990 1_455
Ba4 O3 3.061446 1_555
Ba4 O13 3.062422 1_555
Ba4 O8 3.063587 1_455
Ba4 O9 3.142578 1_565
Ba4 O0 3.160160 1_456
Ba4 O12 3.172497 1_455
Ba4 O20 3.394819 1_556
Ba4 O17 3.433906 1_455
Ba4 O29 3.436046 1_555
Ba5 O8 2.813871 1_555
Ba5 O1 2.828915 1_555
Ba5 O10 2.831645 1_655
Ba5 O17 3.090897 1_555
Ba5 O27 3.112371 1_555
Ba5 O28 3.119559 1_555
Ba5 O22 3.121069 1_555
Ba5 O15 3.123357 1_555
Ba5 O21 3.132463 1_555
Ba6 O5 2.806525 1_556
Ba6 O3 2.815338 1_555
Ba6 O12 2.821892 1_555
Ba6 O19 3.068593 1_556
Ba6 O24 3.075290 1_556
Ba6 O29 3.093466 1_555
Ba6 O25 3.118352 1_556
Ba6 O23 3.134365 1_555
Ba6 O17 3.153399 1_555
Ba6 O13 3.392405 1_555
Ba6 O7 3.419368 1_555
Ba6 O0 3.422630 1_556
Ba7 O13 2.813672 1_654
Ba7 O6 2.832537 1_655
Ba7 O4 2.836615 1_554
Ba7 O20 3.063399 1_655
Ba7 O15 3.076856 1_555
Ba7 O25 3.093020 1_555
Ba7 O26 3.144271 1_655
Ba7 O18 3.151445 1_654
Ba7 O24 3.183181 1_545
Ba7 O1 3.396404 1_655
Ba7 O8 3.415410 1_554
Ba7 O14 3.455058 1_555
Ba8 O0 2.803312 1_455
Ba8 O14 2.828255 1_565
Ba8 O7 2.828686 1_555
Ba8 O16 3.038819 1_565
Ba8 O26 3.064115 1_565
Ba8 O21 3.064454 1_565
Ba8 O20 3.142933 1_555
Ba8 O27 3.166285 1_555
Ba8 O19 3.183039 1_555
Ba8 O10 3.384837 1_555
Ba8 O9 3.434551 1_564
Ba8 O2 3.435804 1_555
Ba9 O11 2.805661 1_555
Ba9 O2 2.817201 1_445
Ba9 O9 2.829990 1_555
Ba9 O18 3.061446 1_555
Ba9 O28 3.062422 1_455
Ba9 O23 3.063587 1_555
Ba9 O22 3.142578 1_445
Ba9 O16 3.160160 1_555
Ba9 O29 3.172497 1_545
Ba9 O6 3.394819 1_555
Ba9 O4 3.433906 1_555
Ba9 O12 3.436046 1_445
Nb0 O27 2.029895 1_555
Nb0 O17 2.030507 1_555
Nb0 O12 2.035823 1_555
Nb0 O22 2.036149 1_555
Nb0 O7 2.037872 1_555
Nb0 O2 2.041216 1_555
Nb1 O14 2.029895 1_556
Nb1 O4 2.030507 1_555
Nb1 O29 2.035823 1_545
Nb1 O9 2.036149 1_555
Nb1 O24 2.037872 1_546
Nb1 O19 2.041216 1_546
O0 Sn0 2.096261 1_555
O0 Pr2 2.344630 1_564
O1 Sn1 2.096642 1_555
O1 Pr3 2.344779 1_555
O2 Pr0 2.392714 1_565
O3 Sn2 2.093679 1_555
O3 Pr4 2.332152 1_555
O4 Pr1 2.399314 1_555
O5 Sn0 2.092940 1_555
O5 Pr3 2.337951 1_555
O6 Sn1 2.093657 1_555
O6 Pr0 2.339237 1_455
O7 Pr4 2.395934 1_555
O8 Sn2 2.094483 1_655
O8 Pr1 2.338831 1_555
O9 Pr2 2.394970 1_455
O10 Sn0 2.095764 1_455
O10 Pr4 2.342353 1_555
O11 Sn1 2.093962 1_555
O11 Pr1 2.340165 1_555
O12 Pr2 2.383913 1_565
O13 Sn2 2.094038 1_555
O13 Pr3 2.353296 1_556
O14 Pr0 2.387124 1_555
O15 Sn0 2.096642 1_555
O15 Pr0 2.344779 1_555
O16 Sn1 2.096261 1_555
O16 Pr4 2.344630 1_545
O17 Pr1 2.399314 1_555
O18 Sn2 2.093679 1_555
O18 Pr2 2.332152 1_455
O19 Pr3 2.392714 1_555
O20 Sn0 2.093657 1_455
O20 Pr3 2.339237 1_555
O21 Sn1 2.092940 1_555
O21 Pr0 2.337951 1_555
O22 Pr4 2.394970 1_655
O23 Sn2 2.094483 1_555
O23 Pr1 2.338831 1_555
O24 Pr2 2.395934 1_564
O25 Sn0 2.093962 1_555
O25 Pr1 2.340165 1_554
O26 Sn1 2.095764 1_555
O26 Pr2 2.342353 1_454
O27 Pr3 2.387124 1_555
O28 Sn2 2.094038 1_655
O28 Pr0 2.353296 1_555
O29 Pr4 2.383913 1_555
