# generated using pymatgen
data_Sr2CaWO6
_symmetry_space_group_name_H-M   'P 1'
_cell_length_a   5.90842900
_cell_length_b   5.96567900
_cell_length_c   8.37512500
_cell_angle_alpha   90.00000000
_cell_angle_beta   90.00000000
_cell_angle_gamma   90.00000000
_symmetry_Int_Tables_number   1
_chemical_formula_structural   Sr2CaWO6
_chemical_formula_sum   'Sr4 Ca2 W2 O12'
_cell_volume   295.20465399
_cell_formula_units_Z   2
loop_
 _symmetry_equiv_pos_site_id
 _symmetry_equiv_pos_as_xyz
  1  'x, y, z'
loop_
 _atom_site_type_symbol
 _atom_site_label
 _atom_site_symmetry_multiplicity
 _atom_site_fract_x
 _atom_site_fract_y
 _atom_site_fract_z
 _atom_site_occupancy
  Sr  Sr0  1  0.00000000  0.51629100  0.25457600  1
  Sr  Sr1  1  0.50000000  0.99069500  0.24823000  1
  Sr  Sr2  1  0.00000000  0.51629100  0.74542400  1
  Sr  Sr3  1  0.50000000  0.99069500  0.75177000  1
  Ca  Ca0  1  0.50000000  0.47275800  0.00000000  1
  Ca  Ca1  1  0.00000000  0.99689900  0.50000000  1
  W  W0  1  0.00000000  0.96812800  0.00000000  1
  W  W1  1  0.50000000  0.49144700  0.50000000  1
  O  O0  1  0.26917600  0.72585700  0.50000000  1
  O  O1  1  0.26435200  0.26361000  0.50000000  1
  O  O2  1  0.00000000  0.95841300  0.23266100  1
  O  O3  1  0.00000000  0.95841300  0.76733900  1
  O  O4  1  0.50000000  0.48423800  0.73218800  1
  O  O5  1  0.22277000  0.72357900  0.00000000  1
  O  O6  1  0.73082400  0.72585700  0.50000000  1
  O  O7  1  0.77723000  0.72357900  0.00000000  1
  O  O8  1  0.75514200  0.18270100  0.00000000  1
  O  O9  1  0.73564800  0.26361000  0.50000000  1
  O  O10  1  0.50000000  0.48423800  0.26781200  1
  O  O11  1  0.24485800  0.18270100  0.00000000  1
loop_
_geom_bond_atom_site_label_1
_geom_bond_atom_site_label_2
_geom_bond_distance
_geom_bond_site_symmetry_2
Ca0 O5 2.218556 1_555
Ca0 O7 2.218556 1_555
Ca0 O10 2.244004 1_555
Ca0 O4 2.244004 1_554
Ca0 O8 2.294942 1_555
Ca0 O11 2.294942 1_555
Ca1 O1 2.229616 1_565
Ca1 O9 2.229616 1_465
Ca1 O2 2.250739 1_555
Ca1 O3 2.250739 1_555
Ca1 O6 2.268021 1_455
Ca1 O0 2.268021 1_555
O0 W1 1.953339 1_555
O0 Sr2 2.883974 1_555
O0 Sr0 2.883974 1_555
O0 Sr1 2.966882 1_555
O0 Sr3 2.966882 1_555
O1 W1 1.945754 1_555
O1 Sr2 2.989439 1_555
O1 Sr0 2.989439 1_555
O1 Sr1 3.005915 1_545
O1 Sr3 3.005915 1_545
O2 W0 1.949427 1_555
O2 Sr0 2.643936 1_555
O2 Sr1 2.963355 1_555
O2 Sr1 2.963355 1_455
O3 W0 1.949427 1_556
O3 Sr2 2.643936 1_555
O3 Sr3 2.963355 1_455
O3 Sr3 2.963355 1_555
O4 W1 1.945079 1_555
O4 Sr3 2.948883 1_545
O4 Sr2 2.962471 1_555
O4 Sr2 2.962471 1_655
O4 Sr3 3.025808 1_555
O5 W0 1.964899 1_555
O5 Sr0 2.794195 1_555
O5 Sr2 2.794195 1_554
O5 Sr3 3.089404 1_554
O5 Sr1 3.089404 1_555
O6 W1 1.953339 1_555
O6 Sr2 2.883974 1_655
O6 Sr0 2.883974 1_655
O6 Sr1 2.966882 1_555
O6 Sr3 2.966882 1_555
O7 W0 1.964899 1_655
O7 Sr2 2.794195 1_654
O7 Sr0 2.794195 1_655
O7 Sr3 3.089404 1_554
O7 Sr1 3.089404 1_555
O8 W0 1.931736 1_645
O8 Sr3 2.811873 1_544
O8 Sr1 2.811873 1_545
O9 W1 1.945754 1_555
O9 Sr0 2.989439 1_655
O9 Sr2 2.989439 1_655
O9 Sr3 3.005915 1_545
O9 Sr1 3.005915 1_545
O10 W1 1.945079 1_555
O10 Sr1 2.948883 1_545
O10 Sr0 2.962471 1_655
O10 Sr0 2.962471 1_555
O10 Sr1 3.025808 1_555
O11 W0 1.931736 1_545
O11 Sr3 2.811873 1_544
O11 Sr1 2.811873 1_545
