# generated using pymatgen
data_KLi3Zr2(Si2O5)6
_symmetry_space_group_name_H-M   'P 1'
_cell_length_a   10.25257303
_cell_length_b   10.25257303
_cell_length_c   14.56667500
_cell_angle_alpha   90.00000000
_cell_angle_beta   90.00000000
_cell_angle_gamma   120.00000667
_symmetry_Int_Tables_number   1
_chemical_formula_structural   KLi3Zr2(Si2O5)6
_chemical_formula_sum   'K2 Li6 Zr4 Si24 O60'
_cell_volume   1326.04046335
_cell_formula_units_Z   2
loop_
 _symmetry_equiv_pos_site_id
 _symmetry_equiv_pos_as_xyz
  1  'x, y, z'
loop_
 _atom_site_type_symbol
 _atom_site_label
 _atom_site_symmetry_multiplicity
 _atom_site_fract_x
 _atom_site_fract_y
 _atom_site_fract_z
 _atom_site_occupancy
  K  K0  1  0.00000000  0.00000000  0.75000000  1
  K  K1  1  0.00000000  0.00000000  0.25000000  1
  Li  Li0  1  0.00000000  0.50000000  0.25000000  1
  Li  Li1  1  0.50000000  0.50000000  0.75000000  1
  Li  Li2  1  0.50000000  0.00000000  0.75000000  1
  Li  Li3  1  0.00000000  0.50000000  0.75000000  1
  Li  Li4  1  0.50000000  0.50000000  0.25000000  1
  Li  Li5  1  0.50000000  0.00000000  0.25000000  1
  Zr  Zr0  1  0.66666700  0.33333300  0.75000000  1
  Zr  Zr1  1  0.33333300  0.66666700  0.75000000  1
  Zr  Zr2  1  0.66666700  0.33333300  0.25000000  1
  Zr  Zr3  1  0.33333300  0.66666700  0.25000000  1
  Si  Si0  1  0.88737800  0.23906900  0.60834800  1
  Si  Si1  1  0.76093100  0.64830900  0.60834800  1
  Si  Si2  1  0.35169100  0.11262200  0.60834800  1
  Si  Si3  1  0.64830900  0.88737800  0.60834800  1
  Si  Si4  1  0.11262200  0.35169100  0.89165200  1
  Si  Si5  1  0.11262200  0.76093100  0.60834800  1
  Si  Si6  1  0.23906900  0.35169100  0.60834800  1
  Si  Si7  1  0.76093100  0.11262200  0.89165200  1
  Si  Si8  1  0.35169100  0.23906900  0.89165200  1
  Si  Si9  1  0.64830900  0.76093100  0.89165200  1
  Si  Si10  1  0.23906900  0.88737800  0.89165200  1
  Si  Si11  1  0.88737800  0.64830900  0.89165200  1
  Si  Si12  1  0.11262200  0.76093100  0.39165200  1
  Si  Si13  1  0.23906900  0.35169100  0.39165200  1
  Si  Si14  1  0.64830900  0.88737800  0.39165200  1
  Si  Si15  1  0.11262200  0.35169100  0.10834800  1
  Si  Si16  1  0.88737800  0.64830900  0.10834800  1
  Si  Si17  1  0.88737800  0.23906900  0.39165200  1
  Si  Si18  1  0.76093100  0.64830900  0.39165200  1
  Si  Si19  1  0.23906900  0.88737800  0.10834800  1
  Si  Si20  1  0.64830900  0.76093100  0.10834800  1
  Si  Si21  1  0.35169100  0.23906900  0.10834800  1
  Si  Si22  1  0.76093100  0.11262200  0.10834800  1
  Si  Si23  1  0.35169100  0.11262200  0.39165200  1
  O  O0  1  0.21759300  0.27691300  0.13235300  1
  O  O1  1  0.65970300  0.15646300  0.82794100  1
  O  O2  1  0.49676000  0.34029700  0.82794100  1
  O  O3  1  0.50324000  0.65970300  0.82794100  1
  O  O4  1  0.34029700  0.84353700  0.82794100  1
  O  O5  1  0.84353700  0.50324000  0.82794100  1
  O  O6  1  0.15646300  0.65970300  0.32794100  1
  O  O7  1  0.34029700  0.49676000  0.32794100  1
  O  O8  1  0.50324000  0.84353700  0.32794100  1
  O  O9  1  0.49676000  0.15646300  0.32794100  1
  O  O10  1  0.84353700  0.50324000  0.17205900  1
  O  O11  1  0.84353700  0.34029700  0.32794100  1
  O  O12  1  0.65970300  0.50324000  0.32794100  1
  O  O13  1  0.34029700  0.84353700  0.17205900  1
  O  O14  1  0.50324000  0.65970300  0.17205900  1
  O  O15  1  0.49676000  0.34029700  0.17205900  1
  O  O16  1  0.65970300  0.15646300  0.17205900  1
  O  O17  1  0.05931900  0.27691300  0.63235300  1
  O  O18  1  0.78240700  0.05931900  0.63235300  1
  O  O19  1  0.94068100  0.72308700  0.63235300  1
  O  O20  1  0.27691300  0.21759300  0.63235300  1
  O  O21  1  0.72308700  0.78240700  0.63235300  1
  O  O22  1  0.21759300  0.27691300  0.86764700  1
  O  O23  1  0.21759300  0.94068100  0.63235300  1
  O  O24  1  0.84353700  0.34029700  0.67205900  1
  O  O25  1  0.15646300  0.65970300  0.67205900  1
  O  O26  1  0.15646300  0.49676000  0.82794100  1
  O  O27  1  0.50324000  0.84353700  0.67205900  1
  O  O28  1  0.49676000  0.15646300  0.67205900  1
  O  O29  1  0.65970300  0.50324000  0.67205900  1
  O  O30  1  0.12681600  0.39564100  0.00000000  1
  O  O31  1  0.73117500  0.12681600  0.00000000  1
  O  O32  1  0.39564100  0.26882500  0.00000000  1
  O  O33  1  0.60435900  0.73117500  0.00000000  1
  O  O34  1  0.26882500  0.87318400  0.00000000  1
  O  O35  1  0.73117500  0.60435900  0.50000000  1
  O  O36  1  0.87318400  0.26882500  0.50000000  1
  O  O37  1  0.87318400  0.60435900  0.00000000  1
  O  O38  1  0.39564100  0.12681600  0.50000000  1
  O  O39  1  0.60435900  0.87318400  0.50000000  1
  O  O40  1  0.26882500  0.39564100  0.50000000  1
  O  O41  1  0.12681600  0.73117500  0.50000000  1
  O  O42  1  0.34029700  0.49676000  0.67205900  1
  O  O43  1  0.94068100  0.21759300  0.13235300  1
  O  O44  1  0.27691300  0.05931900  0.13235300  1
  O  O45  1  0.72308700  0.94068100  0.13235300  1
  O  O46  1  0.05931900  0.78240700  0.13235300  1
  O  O47  1  0.94068100  0.72308700  0.36764700  1
  O  O48  1  0.78240700  0.05931900  0.36764700  1
  O  O49  1  0.78240700  0.72308700  0.13235300  1
  O  O50  1  0.27691300  0.21759300  0.36764700  1
  O  O51  1  0.72308700  0.78240700  0.36764700  1
  O  O52  1  0.05931900  0.27691300  0.36764700  1
  O  O53  1  0.21759300  0.94068100  0.36764700  1
  O  O54  1  0.78240700  0.72308700  0.86764700  1
  O  O55  1  0.05931900  0.78240700  0.86764700  1
  O  O56  1  0.72308700  0.94068100  0.86764700  1
  O  O57  1  0.27691300  0.05931900  0.86764700  1
  O  O58  1  0.94068100  0.21759300  0.86764700  1
  O  O59  1  0.15646300  0.49676000  0.17205900  1
loop_
_geom_bond_atom_site_label_1
_geom_bond_atom_site_label_2
_geom_bond_distance
_geom_bond_site_symmetry_2
K0 O58 3.104892 1_455
K0 O23 3.104892 1_545
K0 O55 3.104892 1_545
K0 O18 3.104892 1_455
K0 O22 3.104898 1_555
K0 O20 3.104898 1_555
K0 O54 3.104898 1_445
K0 O21 3.104898 1_445
K0 O57 3.104901 1_555
K0 O17 3.104901 1_555
K0 O56 3.104901 1_445
K0 O19 3.104901 1_445
K1 O53 3.104892 1_545
K1 O43 3.104892 1_455
K1 O48 3.104892 1_455
K1 O46 3.104892 1_545
K1 O50 3.104898 1_555
K1 O0 3.104898 1_555
K1 O49 3.104898 1_445
K1 O51 3.104898 1_445
K1 O44 3.104901 1_555
K1 O52 3.104901 1_555
K1 O45 3.104901 1_445
K1 O47 3.104901 1_445
Li0 O6 1.979061 1_555
Li0 O11 1.979061 1_455
Li0 O59 1.979061 1_555
Li0 O10 1.979061 1_455
Li1 O3 1.979061 1_555
Li1 O29 1.979061 1_555
Li1 O2 1.979061 1_555
Li1 O42 1.979061 1_555
Li2 O1 1.979061 1_555
Li2 O4 1.979061 1_545
Li2 O28 1.979061 1_555
Li2 O27 1.979061 1_545
Li3 O25 1.979061 1_555
Li3 O24 1.979061 1_455
Li3 O26 1.979061 1_555
Li3 O5 1.979061 1_455
Li4 O14 1.979061 1_555
Li4 O12 1.979061 1_555
Li4 O7 1.979061 1_555
Li4 O15 1.979061 1_555
Li5 O16 1.979061 1_555
Li5 O13 1.979061 1_545
Li5 O9 1.979061 1_555
Li5 O8 1.979061 1_545
O0 Si15 1.641161 1_555
O0 Si21 1.642092 1_555
O1 Si7 1.614605 1_555
O1 Zr0 2.110200 1_555
O2 Si8 1.614604 1_555
O2 Zr0 2.110209 1_555
O3 Si9 1.614604 1_555
O3 Zr1 2.110209 1_555
O4 Si10 1.614605 1_555
O4 Zr1 2.110200 1_555
O5 Si11 1.614604 1_555
O5 Zr0 2.110204 1_555
O6 Si12 1.614605 1_555
O6 Zr3 2.110200 1_555
O7 Si13 1.614604 1_555
O7 Zr3 2.110209 1_555
O8 Si14 1.614604 1_555
O8 Zr3 2.110204 1_555
O9 Si23 1.614604 1_555
O9 Zr2 2.110204 1_555
O10 Si16 1.614604 1_555
O10 Zr2 2.110204 1_555
O11 Si17 1.614605 1_555
O11 Zr2 2.110200 1_555
O12 Si18 1.614604 1_555
O12 Zr2 2.110209 1_555
O13 Si19 1.614605 1_555
O13 Zr3 2.110200 1_555
O14 Si20 1.614604 1_555
O14 Zr3 2.110209 1_555
O15 Si21 1.614604 1_555
O15 Zr2 2.110209 1_555
O16 Si22 1.614605 1_555
O16 Zr2 2.110200 1_555
O17 Si6 1.641170 1_555
O17 Si0 1.642082 1_455
O18 Si0 1.641169 1_555
O18 Si3 1.642085 1_545
O19 Si1 1.641170 1_555
O19 Si5 1.642082 1_655
O20 Si2 1.641161 1_555
O20 Si6 1.642092 1_555
O21 Si3 1.641161 1_555
O21 Si1 1.642092 1_555
O22 Si4 1.641161 1_555
O22 Si8 1.642092 1_555
O23 Si5 1.641169 1_555
O23 Si2 1.642085 1_565
O24 Si0 1.614605 1_555
O24 Zr0 2.110200 1_555
O25 Si5 1.614605 1_555
O25 Zr1 2.110200 1_555
O26 Si4 1.614604 1_555
O26 Zr1 2.110204 1_555
O27 Si3 1.614604 1_555
O27 Zr1 2.110204 1_555
O28 Si2 1.614604 1_555
O28 Zr0 2.110204 1_555
O29 Si1 1.614604 1_555
O29 Zr0 2.110209 1_555
O30 Si15 1.627753 1_555
O30 Si4 1.627753 1_554
O31 Si7 1.627753 1_554
O31 Si22 1.627753 1_555
O32 Si8 1.627753 1_554
O32 Si21 1.627753 1_555
O33 Si9 1.627753 1_554
O33 Si20 1.627753 1_555
O34 Si19 1.627753 1_555
O34 Si10 1.627753 1_554
O35 Si18 1.627753 1_555
O35 Si1 1.627753 1_555
O36 Si17 1.627753 1_555
O36 Si0 1.627753 1_555
O37 Si11 1.627753 1_554
O37 Si16 1.627753 1_555
O38 Si2 1.627753 1_555
O38 Si23 1.627753 1_555
O39 Si3 1.627753 1_555
O39 Si14 1.627753 1_555
O40 Si6 1.627753 1_555
O40 Si13 1.627753 1_555
O41 Si12 1.627753 1_555
O41 Si5 1.627753 1_555
O42 Si6 1.614604 1_555
O42 Zr1 2.110209 1_555
O43 Si22 1.641169 1_555
O43 Si15 1.642085 1_655
O44 Si21 1.641170 1_555
O44 Si19 1.642082 1_545
O45 Si20 1.641170 1_555
O45 Si22 1.642082 1_565
O46 Si19 1.641169 1_555
O46 Si16 1.642085 1_455
O47 Si18 1.641170 1_555
O47 Si12 1.642082 1_655
O48 Si17 1.641169 1_555
O48 Si14 1.642085 1_545
O49 Si16 1.641161 1_555
O49 Si20 1.642092 1_555
O50 Si23 1.641161 1_555
O50 Si13 1.642092 1_555
O51 Si14 1.641161 1_555
O51 Si18 1.642092 1_555
O52 Si13 1.641170 1_555
O52 Si17 1.642082 1_455
O53 Si12 1.641169 1_555
O53 Si23 1.642085 1_565
O54 Si11 1.641161 1_555
O54 Si9 1.642092 1_555
O55 Si10 1.641169 1_555
O55 Si11 1.642085 1_455
O56 Si9 1.641170 1_555
O56 Si7 1.642082 1_565
O57 Si8 1.641170 1_555
O57 Si10 1.642082 1_545
O58 Si7 1.641169 1_555
O58 Si4 1.642085 1_655
O59 Si15 1.614604 1_555
O59 Zr3 2.110204 1_555
