# generated using pymatgen
data_Cs2PuO4
_symmetry_space_group_name_H-M   'P 1'
_cell_length_a   8.06023885
_cell_length_b   8.06023885
_cell_length_c   8.06023885
_cell_angle_alpha   148.56228553
_cell_angle_beta   148.56228553
_cell_angle_gamma   45.05600033
_symmetry_Int_Tables_number   1
_chemical_formula_structural   Cs2PuO4
_chemical_formula_sum   'Cs2 Pu1 O4'
_cell_volume   142.00527933
_cell_formula_units_Z   1
loop_
 _symmetry_equiv_pos_site_id
 _symmetry_equiv_pos_as_xyz
  1  'x, y, z'
loop_
 _atom_site_type_symbol
 _atom_site_label
 _atom_site_symmetry_multiplicity
 _atom_site_fract_x
 _atom_site_fract_y
 _atom_site_fract_z
 _atom_site_occupancy
  Cs  Cs0  1  0.34560638  0.34560638  -0.00000000  1
  Cs  Cs1  1  0.65439362  0.65439362  0.00000000  1
  Pu  Pu0  1  -0.00000000  -0.00000000  -0.00000000  1
  O  O0  1  0.12711889  0.12711889  -0.00000000  1
  O  O1  1  0.87288111  0.87288111  0.00000000  1
  O  O2  1  0.50000000  -0.00000000  0.50000000  1
  O  O3  1  -0.00000000  0.50000000  0.50000000  1
loop_
_geom_bond_atom_site_label_1
_geom_bond_atom_site_label_2
_geom_bond_distance
_geom_bond_site_symmetry_2
Cs0 O1 3.114750 1_444
Cs0 O1 3.114750 1_545
Cs0 O1 3.114750 1_455
Cs0 O1 3.114750 1_556
Cs0 O2 3.170750 1_554
Cs0 O3 3.170750 1_554
Cs0 O3 3.170750 1_655
Cs0 O2 3.170750 1_565
Cs0 O0 3.253358 1_555
Cs1 O0 3.114750 1_655
Cs1 O0 3.114750 1_565
Cs1 O0 3.114750 1_666
Cs1 O0 3.114750 1_554
Cs1 O2 3.170750 1_565
Cs1 O3 3.170750 1_655
Cs1 O3 3.170750 1_554
Cs1 O2 3.170750 1_554
Cs1 O1 3.253358 1_555
O0 Pu0 1.892846 1_555
O1 Pu0 1.892846 1_665
O2 Pu0 2.183658 1_555
O2 Pu0 2.183658 1_656
O3 Pu0 2.183658 1_566
O3 Pu0 2.183658 1_555
