# generated using pymatgen
data_Li3Mn4(P2O7)4
_symmetry_space_group_name_H-M   'P 1'
_cell_length_a   9.70901700
_cell_length_b   9.76053904
_cell_length_c   11.28210370
_cell_angle_alpha   91.30762926
_cell_angle_beta   100.74232635
_cell_angle_gamma   90.60494729
_symmetry_Int_Tables_number   1
_chemical_formula_structural   Li3Mn4(P2O7)4
_chemical_formula_sum   'Li6 Mn8 P16 O56'
_cell_volume   1050.02182128
_cell_formula_units_Z   2
loop_
 _symmetry_equiv_pos_site_id
 _symmetry_equiv_pos_as_xyz
  1  'x, y, z'
loop_
 _atom_site_type_symbol
 _atom_site_label
 _atom_site_symmetry_multiplicity
 _atom_site_fract_x
 _atom_site_fract_y
 _atom_site_fract_z
 _atom_site_occupancy
  Li  Li0  1  0.91240200  0.10421900  0.98185100  1
  Li  Li1  1  0.58330000  0.58926100  0.02411500  1
  Li  Li2  1  0.40818900  0.03358300  0.50409300  1
  Li  Li3  1  0.09229900  0.89421400  0.01771100  1
  Li  Li4  1  0.15544900  0.57952600  0.53117000  1
  Li  Li5  1  0.10090900  0.28802100  0.45019400  1
  Mn  Mn0  1  0.80039300  0.92701900  0.33992200  1
  Mn  Mn1  1  0.72588200  0.22386300  0.16963600  1
  Mn  Mn2  1  0.77109000  0.71096100  0.82857500  1
  Mn  Mn3  1  0.69460800  0.42587500  0.65741200  1
  Mn  Mn4  1  0.30254700  0.58248900  0.32427200  1
  Mn  Mn5  1  0.24171800  0.29319800  0.17212900  1
  Mn  Mn6  1  0.28157400  0.77130900  0.83250300  1
  Mn  Mn7  1  0.19147300  0.07206800  0.66625600  1
  P  P0  1  0.97829800  0.44602500  0.24681100  1
  P  P1  1  0.87763800  0.71199500  0.11981700  1
  P  P2  1  0.93499900  0.93137700  0.75330300  1
  P  P3  1  0.86332400  0.15001000  0.56885100  1
  P  P4  1  0.62533600  0.65627300  0.42238000  1
  P  P5  1  0.57160900  0.42726500  0.24415300  1
  P  P6  1  0.46611300  0.06652700  0.23726000  1
  P  P7  1  0.61950300  0.20697500  0.88725800  1
  P  P8  1  0.38543500  0.79067700  0.11295300  1
  P  P9  1  0.52909800  0.93554300  0.75186400  1
  P  P10  1  0.43499400  0.56586900  0.75618300  1
  P  P11  1  0.37114600  0.34458200  0.58021800  1
  P  P12  1  0.12650800  0.85714300  0.43000500  1
  P  P13  1  0.06190200  0.06804300  0.24431300  1
  P  P14  1  0.11740200  0.28769400  0.88066400  1
  P  P15  1  0.02808300  0.55717300  0.75812500  1
  O  O0  1  0.98457900  0.43003000  0.37887800  1
  O  O1  1  0.97511600  0.84930400  0.44516700  1
  O  O2  1  0.91227200  0.07490900  0.27529600  1
  O  O3  1  0.89804500  0.33469900  0.16126000  1
  O  O4  1  0.90195800  0.58671300  0.21125000  1
  O  O5  1  0.80839000  0.82029700  0.19051900  1
  O  O6  1  0.77389000  0.66058900  0.00428900  1
  O  O7  1  0.97342400  0.24861200  0.89968100  1
  O  O8  1  0.86259900  0.06394100  0.69039900  1
  O  O9  1  0.93750800  0.94354500  0.88757200  1
  O  O10  1  0.87567300  0.54627500  0.78915700  1
  O  O11  1  0.80888800  0.29156300  0.59802900  1
  O  O12  1  0.84320800  0.80520100  0.70259900  1
  O  O13  1  0.77347700  0.07016700  0.46389700  1
  O  O14  1  0.70715500  0.58486900  0.52969200  1
  O  O15  1  0.66499700  0.31113600  0.30652000  1
  O  O16  1  0.67031600  0.80124500  0.39680100  1
  O  O17  1  0.61540000  0.06027700  0.20340800  1
  O  O18  1  0.63650200  0.56973500  0.30039400  1
  O  O19  1  0.58775100  0.42078400  0.11339900  1
  O  O20  1  0.52787900  0.75563300  0.08988200  1
  O  O21  1  0.72115500  0.15653500  0.00077400  1
  O  O22  1  0.68003100  0.32539500  0.82562400  1
  O  O23  1  0.60204500  0.08305400  0.79187900  1
  O  O24  1  0.58702600  0.56926100  0.72818900  1
  O  O25  1  0.61910200  0.83239100  0.83383900  1
  O  O26  1  0.46001900  0.09800000  0.36552300  1
  O  O27  1  0.52215200  0.34060000  0.56156800  1
  O  O28  1  0.46546400  0.65346800  0.42788100  1
  O  O29  1  0.52130900  0.92435200  0.61934600  1
  O  O30  1  0.37756200  0.16280100  0.14503700  1
  O  O31  1  0.41781900  0.42071800  0.26687900  1
  O  O32  1  0.39697800  0.91748300  0.20738000  1
  O  O33  1  0.31039200  0.68051500  0.17266900  1
  O  O34  1  0.28356500  0.84045900  0.99752000  1
  O  O35  1  0.47842700  0.24973400  0.91361700  1
  O  O36  1  0.43126200  0.58882100  0.88805200  1
  O  O37  1  0.37138200  0.41832500  0.71061200  1
  O  O38  1  0.38251900  0.93697300  0.79232500  1
  O  O39  1  0.31353500  0.19858200  0.59228400  1
  O  O40  1  0.33287000  0.67322900  0.68875900  1
  O  O41  1  0.27220300  0.42572300  0.48652500  1
  O  O42  1  0.22060900  0.94567300  0.52957000  1
  O  O43  1  0.15414100  0.19301200  0.30028300  1
  O  O44  1  0.18608800  0.71433400  0.41302600  1
  O  O45  1  0.13458200  0.45913300  0.21790600  1
  O  O46  1  0.06394500  0.05839600  0.11119700  1
  O  O47  1  0.13446700  0.93339800  0.30508800  1
  O  O48  1  0.01645900  0.75341000  0.09178600  1
  O  O49  1  0.21106300  0.33756000  0.99958000  1
  O  O50  1  0.19010700  0.17728000  0.81451700  1
  O  O51  1  0.10281400  0.41335700  0.79067500  1
  O  O52  1  0.11273800  0.66484400  0.84592800  1
  O  O53  1  0.08455100  0.92313300  0.72218400  1
  O  O54  1  0.01777700  0.16634300  0.55759500  1
  O  O55  1  0.02649800  0.57491100  0.62769200  1
loop_
_geom_bond_atom_site_label_1
_geom_bond_atom_site_label_2
_geom_bond_distance
_geom_bond_site_symmetry_2
Li0 O7 1.855657 1_555
Li0 O9 1.918032 1_545
Li0 O46 1.933308 1_656
Li0 O21 1.979123 1_556
Li1 O20 1.894562 1_555
Li1 O36 1.921017 1_554
Li1 O19 1.944622 1_555
Li1 O6 2.023132 1_555
Li2 O26 1.850433 1_555
Li2 O29 1.894547 1_545
Li2 O42 2.075838 1_545
Li2 O39 2.174206 1_555
Li3 O48 1.841149 1_555
Li3 O46 1.948500 1_565
Li3 O9 1.967525 1_454
Li3 O34 1.987073 1_554
Li4 O55 1.806836 1_555
Li4 O44 1.953476 1_555
Li4 O41 2.001636 1_555
Li4 O40 2.390740 1_555
Li4 O0 2.570088 1_455
Li5 O0 1.894584 1_455
Li5 O54 1.984998 1_555
Li5 O43 2.062038 1_555
Li5 O41 2.100926 1_555
Li5 O39 2.542022 1_555
Mn0 O16 1.954266 1_555
Mn0 O5 1.975508 1_555
Mn0 O13 2.007884 1_565
Mn0 O2 2.026164 1_565
Mn0 O1 2.044601 1_555
Mn0 O17 2.529695 1_565
Mn1 O15 1.936737 1_555
Mn1 O21 1.993255 1_555
Mn1 O17 1.997291 1_555
Mn1 O3 1.999663 1_555
Mn1 O19 2.385022 1_555
Mn1 O2 2.477927 1_555
Mn2 O25 1.911079 1_555
Mn2 O12 1.942534 1_555
Mn2 O10 1.995694 1_555
Mn2 O6 2.048694 1_556
Mn2 O24 2.347561 1_555
Mn3 O11 1.914758 1_555
Mn3 O27 1.979930 1_555
Mn3 O24 1.994516 1_555
Mn3 O14 2.159392 1_555
Mn3 O22 2.183028 1_555
Mn3 O10 2.362902 1_555
Mn4 O28 1.897093 1_555
Mn4 O33 1.992092 1_555
Mn4 O44 2.081152 1_555
Mn4 O31 2.103756 1_555
Mn4 O45 2.170767 1_555
Mn4 O41 2.469486 1_555
Mn5 O30 1.902841 1_555
Mn5 O49 1.972555 1_554
Mn5 O45 2.041943 1_555
Mn5 O43 2.067597 1_555
Mn5 O31 2.197318 1_555
Mn6 O34 1.962383 1_555
Mn6 O52 1.963068 1_555
Mn6 O38 1.986509 1_555
Mn6 O40 2.008684 1_555
Mn6 O36 2.333151 1_555
Mn6 O53 2.580845 1_555
Mn7 O50 1.944948 1_555
Mn7 O53 1.960407 1_545
Mn7 O39 2.002656 1_555
Mn7 O42 2.015750 1_545
Mn7 O54 2.123009 1_555
Mn7 O38 2.521112 1_545
O0 P0 1.491683 1_555
O1 P12 1.512475 1_655
O2 P13 1.558039 1_655
O3 P0 1.540559 1_555
O4 P0 1.591150 1_555
O4 P1 1.608732 1_555
O5 P1 1.543430 1_555
O6 P1 1.560540 1_555
O7 P14 1.499969 1_655
O8 P2 1.595960 1_545
O8 P3 1.625530 1_555
O9 P2 1.512415 1_555
O10 P15 1.585893 1_655
O11 P3 1.534969 1_555
O12 P2 1.546869 1_555
O13 P3 1.526056 1_555
O14 P4 1.508061 1_555
O15 P5 1.556362 1_555
O16 P4 1.526043 1_555
O17 P6 1.567673 1_555
O18 P5 1.589180 1_555
O18 P4 1.619810 1_555
O19 P5 1.512236 1_555
O20 P8 1.495838 1_555
O21 P7 1.557071 1_554
O22 P7 1.529552 1_555
O23 P7 1.586795 1_555
O23 P9 1.614934 1_545
O24 P10 1.566172 1_555
O25 P9 1.546754 1_555
O26 P6 1.484558 1_555
O27 P11 1.520237 1_555
O28 P4 1.564934 1_555
O29 P9 1.484299 1_555
O30 P6 1.559794 1_555
O31 P5 1.562296 1_555
O32 P6 1.597854 1_565
O32 P8 1.603674 1_555
O33 P8 1.529837 1_555
O34 P8 1.571382 1_556
O35 P7 1.515578 1_555
O36 P10 1.506647 1_555
O37 P10 1.596479 1_555
O37 P11 1.622543 1_555
O38 P9 1.573595 1_555
O39 P11 1.543549 1_555
O40 P10 1.561086 1_555
O41 P11 1.530736 1_555
O42 P12 1.549078 1_555
O43 P13 1.555489 1_555
O44 P12 1.536359 1_555
O45 P0 1.614738 1_455
O46 P13 1.506466 1_555
O47 P13 1.604447 1_565
O47 P12 1.622775 1_555
O48 P1 1.494407 1_455
O49 P14 1.539423 1_555
O50 P14 1.546736 1_555
O51 P14 1.600662 1_555
O51 P15 1.605442 1_555
O52 P15 1.546614 1_555
O53 P2 1.558610 1_455
O54 P3 1.535307 1_455
O55 P15 1.482882 1_555
