# generated using pymatgen
data_Ga2CuPd
_symmetry_space_group_name_H-M   'P 1'
_cell_length_a   9.88387376
_cell_length_b   9.88387376
_cell_length_c   9.88387376
_cell_angle_alpha   122.36233659
_cell_angle_beta   119.19962155
_cell_angle_gamma   88.67488528
_symmetry_Int_Tables_number   1
_chemical_formula_structural   Ga2CuPd
_chemical_formula_sum   'Ga2 Cu1 Pd1'
_cell_volume   673.84118317
_cell_formula_units_Z   1
loop_
 _symmetry_equiv_pos_site_id
 _symmetry_equiv_pos_as_xyz
  1  'x, y, z'
loop_
 _atom_site_type_symbol
 _atom_site_label
 _atom_site_symmetry_multiplicity
 _atom_site_fract_x
 _atom_site_fract_y
 _atom_site_fract_z
 _atom_site_occupancy
  Ga  Ga0  1  0.00000000  0.25139900  0.25139900  1
  Ga  Ga1  1  0.00000000  0.74860100  0.74860100  1
  Cu  Cu0  1  0.00000000  0.00000000  0.00000000  1
  Pd  Pd0  1  0.00000000  0.50000000  0.50000000  1
loop_
_geom_bond_atom_site_label_1
_geom_bond_atom_site_label_2
_geom_bond_distance
_geom_bond_site_symmetry_2
Ga0 Pd0 2.368889 1_555
Ga1 Pd0 2.368889 1_555
Cu0 Ga0 2.395550 1_555
Cu0 Ga1 2.395550 1_544
