# generated using pymatgen
data_Ce(BRu)4
_symmetry_space_group_name_H-M   'P 1'
_cell_length_a   9.26669735
_cell_length_b   9.26669735
_cell_length_c   9.26669735
_cell_angle_alpha   132.15087622
_cell_angle_beta   132.15087622
_cell_angle_gamma   69.99083844
_symmetry_Int_Tables_number   1
_chemical_formula_structural   Ce(BRu)4
_chemical_formula_sum   'Ce4 B16 Ru16'
_cell_volume   428.82212249
_cell_formula_units_Z   4
loop_
 _symmetry_equiv_pos_site_id
 _symmetry_equiv_pos_as_xyz
  1  'x, y, z'
loop_
 _atom_site_type_symbol
 _atom_site_label
 _atom_site_symmetry_multiplicity
 _atom_site_fract_x
 _atom_site_fract_y
 _atom_site_fract_z
 _atom_site_occupancy
  Ce  Ce0  1  0.25000000  0.25000000  0.00000000  1
  Ce  Ce1  1  0.75000000  0.75000000  0.00000000  1
  Ce  Ce2  1  0.50000000  0.00000000  0.50000000  1
  Ce  Ce3  1  0.00000000  0.50000000  0.50000000  1
  B  B0  1  0.22612800  0.91431100  0.97616700  1
  B  B1  1  0.72612800  0.74996200  0.31181700  1
  B  B2  1  0.16431100  0.97612800  0.47616700  1
  B  B3  1  0.66431100  0.18814500  0.18818300  1
  B  B4  1  0.52387200  0.33568900  0.52383300  1
  B  B5  1  0.02387200  0.50003800  0.18818300  1
  B  B6  1  0.58568900  0.27387200  0.02383300  1
  B  B7  1  0.08568900  0.06185500  0.31181700  1
  B  B8  1  0.43814500  0.41431100  0.68818300  1
  B  B9  1  0.93814500  0.24996200  0.02383300  1
  B  B10  1  0.99996200  0.47612800  0.81181700  1
  B  B11  1  0.49996200  0.68814500  0.52383300  1
  B  B12  1  0.31185500  0.83568900  0.81181700  1
  B  B13  1  0.81185500  0.00003800  0.47616700  1
  B  B14  1  0.75003800  0.77387200  0.68818300  1
  B  B15  1  0.25003800  0.56185500  0.97616700  1
  Ru  Ru0  1  0.54073700  0.07429300  0.23773500  1
  Ru  Ru1  1  0.04073700  0.80300200  0.46644500  1
  Ru  Ru2  1  0.32429300  0.29073700  0.73773500  1
  Ru  Ru3  1  0.82429300  0.08655800  0.03355500  1
  Ru  Ru4  1  0.20926300  0.17570700  0.26226500  1
  Ru  Ru5  1  0.70926300  0.44699800  0.03355500  1
  Ru  Ru6  1  0.42570700  0.95926300  0.76226500  1
  Ru  Ru7  1  0.92570700  0.16344200  0.46644500  1
  Ru  Ru8  1  0.33655800  0.57429300  0.53355500  1
  Ru  Ru9  1  0.83655800  0.30300200  0.76226500  1
  Ru  Ru10  1  0.05300200  0.79073700  0.96644500  1
  Ru  Ru11  1  0.55300200  0.58655800  0.26226500  1
  Ru  Ru12  1  0.41344200  0.67570700  0.96644500  1
  Ru  Ru13  1  0.91344200  0.94699800  0.73773500  1
  Ru  Ru14  1  0.69699800  0.45926300  0.53355500  1
  Ru  Ru15  1  0.19699800  0.66344200  0.23773500  1
loop_
_geom_bond_atom_site_label_1
_geom_bond_atom_site_label_2
_geom_bond_distance
_geom_bond_site_symmetry_2
Ce0 Ru15 2.934132 1_555
Ce0 Ru9 2.934132 1_454
Ce0 Ru0 2.934132 1_555
Ce0 Ru6 2.934132 1_544
Ce0 Ru2 3.190276 1_554
Ce0 Ru4 3.190276 1_555
Ce0 Ru13 3.190276 1_444
Ce0 Ru11 3.190276 1_555
Ce0 Ru7 3.241085 1_454
Ce0 Ru8 3.241085 1_555
Ce0 Ru1 3.241089 1_544
Ce0 Ru14 3.241089 1_555
Ce1 Ru8 2.934134 1_554
Ce1 Ru7 2.934134 1_565
Ce1 Ru14 2.934139 1_554
Ce1 Ru1 2.934139 1_655
Ce1 Ru5 3.190269 1_555
Ce1 Ru10 3.190269 1_654
Ce1 Ru3 3.190283 1_565
Ce1 Ru12 3.190283 1_554
Ce1 Ru15 3.241092 1_655
Ce1 Ru0 3.241092 1_565
Ce1 Ru9 3.241092 1_554
Ce1 Ru6 3.241092 1_554
Ce2 Ru4 2.934132 1_555
Ce2 Ru11 2.934132 1_545
Ce2 Ru13 2.934132 1_545
Ce2 Ru2 2.934132 1_555
Ce2 Ru6 3.190276 1_545
Ce2 Ru0 3.190276 1_555
Ce2 Ru9 3.190276 1_555
Ce2 Ru15 3.190276 1_545
Ce2 Ru12 3.241085 1_544
Ce2 Ru3 3.241085 1_556
Ce2 Ru10 3.241089 1_544
Ce2 Ru5 3.241089 1_556
Ce3 Ru12 2.934134 1_555
Ce3 Ru3 2.934134 1_455
Ce3 Ru10 2.934139 1_555
Ce3 Ru5 2.934139 1_455
Ce3 Ru14 3.190269 1_455
Ce3 Ru1 3.190269 1_555
Ce3 Ru8 3.190283 1_555
Ce3 Ru7 3.190283 1_455
Ce3 Ru11 3.241092 1_455
Ce3 Ru2 3.241092 1_555
Ce3 Ru4 3.241092 1_555
Ce3 Ru13 3.241092 1_455
B0 B12 1.794398 1_555
B0 Ru4 2.144384 1_566
B0 Ru10 2.194992 1_555
B0 Ru13 2.252628 1_455
B0 Ru0 2.285342 1_566
B0 Ru12 2.286037 1_555
B0 Ce3 2.993211 1_555
B0 Ce0 3.042631 1_566
B0 Ce2 3.210236 1_566
B1 B13 1.794387 1_565
B1 Ru5 2.144392 1_555
B1 Ru11 2.194992 1_555
B1 Ru12 2.252623 1_554
B1 Ru1 2.285337 1_655
B1 Ru13 2.286037 1_555
B1 Ce2 2.993210 1_565
B1 Ce1 3.042624 1_555
B1 Ce3 3.210243 1_655
B2 B7 1.794398 1_565
B2 Ru6 2.144384 1_555
B2 Ru1 2.194992 1_555
B2 Ru15 2.252628 1_555
B2 Ru2 2.285342 1_565
B2 Ru7 2.286037 1_465
B2 Ce1 2.993211 1_455
B2 Ce2 3.042631 1_565
B2 Ce0 3.210236 1_566
B3 B6 1.794398 1_555
B3 Ru7 2.144394 1_555
B3 Ru0 2.194992 1_555
B3 Ru14 2.252621 1_555
B3 Ru3 2.285348 1_555
B3 Ru6 2.286037 1_544
B3 Ce0 2.993210 1_555
B3 Ce3 3.042624 1_655
B3 Ce1 3.210243 1_545
B4 B8 1.794398 1_555
B4 Ru0 2.144384 1_555
B4 Ru14 2.194992 1_555
B4 Ru9 2.252628 1_555
B4 Ru4 2.285342 1_555
B4 Ru8 2.286037 1_555
B4 Ce1 2.993211 1_556
B4 Ce2 3.042631 1_555
B4 Ce0 3.210236 1_555
B5 B9 1.794387 1_455
B5 Ru1 2.144392 1_555
B5 Ru15 2.194992 1_555
B5 Ru8 2.252623 1_555
B5 Ru5 2.285337 1_455
B5 Ru9 2.286037 1_454
B5 Ce0 2.993210 1_555
B5 Ce3 3.042624 1_555
B5 Ce1 3.210243 1_455
B6 Ru2 2.144384 1_554
B6 Ru5 2.194992 1_555
B6 Ru11 2.252628 1_555
B6 Ru6 2.285342 1_544
B6 Ru3 2.286037 1_555
B6 Ce3 2.993211 1_655
B6 Ce0 3.042631 1_555
B6 Ce2 3.210236 1_554
B7 Ru3 2.144394 1_455
B7 Ru4 2.194992 1_555
B7 Ru10 2.252621 1_544
B7 Ru7 2.285348 1_455
B7 Ru2 2.286037 1_555
B7 Ce2 2.993210 1_555
B7 Ce1 3.042624 1_445
B7 Ce3 3.210243 1_555
B8 Ru12 2.144394 1_555
B8 Ru2 2.194992 1_555
B8 Ru5 2.252621 1_556
B8 Ru8 2.285348 1_555
B8 Ru4 2.286037 1_555
B8 Ce2 2.993210 1_555
B8 Ce1 3.042624 1_556
B8 Ce3 3.210243 1_555
B9 Ru13 2.144386 1_544
B9 Ru3 2.194992 1_555
B9 Ru4 2.252630 1_655
B9 Ru9 2.285332 1_554
B9 Ru5 2.286037 1_555
B9 Ce3 2.993218 1_655
B9 Ce0 3.042618 1_655
B9 Ce2 3.210242 1_554
B10 B15 1.794387 1_655
B10 Ru14 2.144392 1_555
B10 Ru9 2.194992 1_555
B10 Ru7 2.252623 1_555
B10 Ru10 2.285337 1_655
B10 Ru15 2.286037 1_656
B10 Ce0 2.993210 1_656
B10 Ce3 3.042624 1_655
B10 Ce1 3.210243 1_556
B11 B14 1.794387 1_555
B11 Ru15 2.144386 1_555
B11 Ru8 2.194992 1_555
B11 Ru6 2.252630 1_555
B11 Ru11 2.285332 1_555
B11 Ru14 2.286037 1_555
B11 Ce1 2.993218 1_556
B11 Ce2 3.042618 1_565
B11 Ce0 3.210242 1_555
B12 Ru8 2.144394 1_555
B12 Ru6 2.194992 1_555
B12 Ru1 2.252621 1_555
B12 Ru12 2.285348 1_555
B12 Ru0 2.286037 1_566
B12 Ce0 2.993210 1_566
B12 Ce3 3.042624 1_555
B12 Ce1 3.210243 1_556
B13 Ru9 2.144386 1_555
B13 Ru7 2.194992 1_555
B13 Ru0 2.252630 1_555
B13 Ru13 2.285332 1_545
B13 Ru1 2.286037 1_645
B13 Ce1 2.993218 1_545
B13 Ce2 3.042618 1_555
B13 Ce0 3.210242 1_656
B14 Ru10 2.144392 1_655
B14 Ru13 2.194992 1_555
B14 Ru3 2.252623 1_566
B14 Ru14 2.285337 1_555
B14 Ru11 2.286037 1_555
B14 Ce2 2.993210 1_565
B14 Ce1 3.042624 1_556
B14 Ce3 3.210243 1_655
B15 Ru11 2.144386 1_556
B15 Ru12 2.194992 1_555
B15 Ru2 2.252630 1_555
B15 Ru15 2.285332 1_556
B15 Ru10 2.286037 1_555
B15 Ce3 2.993218 1_555
B15 Ce0 3.042618 1_556
B15 Ce2 3.210242 1_566
