# generated using pymatgen
data_Li6V3P8O29
_symmetry_space_group_name_H-M   'P 1'
_cell_length_a   9.83616100
_cell_length_b   9.85885547
_cell_length_c   13.93804838
_cell_angle_alpha   89.74156737
_cell_angle_beta   89.76402195
_cell_angle_gamma   60.19627933
_symmetry_Int_Tables_number   1
_chemical_formula_structural   Li6V3P8O29
_chemical_formula_sum   'Li12 V6 P16 O58'
_cell_volume   1172.82946042
_cell_formula_units_Z   2
loop_
 _symmetry_equiv_pos_site_id
 _symmetry_equiv_pos_as_xyz
  1  'x, y, z'
loop_
 _atom_site_type_symbol
 _atom_site_label
 _atom_site_symmetry_multiplicity
 _atom_site_fract_x
 _atom_site_fract_y
 _atom_site_fract_z
 _atom_site_occupancy
  Li  Li0  1  0.68291000  0.09001200  0.44154800  1
  Li  Li1  1  0.22593900  0.68906400  0.44168400  1
  Li  Li2  1  0.33301800  0.33148900  0.61929500  1
  Li  Li3  1  0.33779800  0.32972900  0.11410400  1
  Li  Li4  1  0.09023700  0.68384300  0.93541900  1
  Li  Li5  1  0.22712200  0.09132200  0.93459400  1
  Li  Li6  1  0.90420600  0.77238400  0.56334200  1
  Li  Li7  1  0.09001000  0.22287000  0.44372900  1
  Li  Li8  1  0.77277900  0.91007600  0.05786500  1
  Li  Li9  1  0.90522400  0.31681800  0.05473500  1
  Li  Li10  1  0.77354300  0.32345500  0.56364800  1
  Li  Li11  1  0.32262000  0.77374500  0.05686400  1
  V  V0  1  0.99787200  0.56868700  0.75264700  1
  V  V1  1  0.99660800  0.43512800  0.24914500  1
  V  V2  1  0.56837600  0.99931200  0.25204000  1
  V  V3  1  0.43713300  0.99191300  0.74460600  1
  V  V4  1  0.56544200  0.43263700  0.75456300  1
  V  V5  1  0.43467500  0.56839700  0.25201900  1
  P  P0  1  0.68099700  0.23117400  0.15842200  1
  P  P1  1  0.68229100  0.08920300  0.65908800  1
  P  P2  1  0.23058200  0.67891900  0.65741000  1
  P  P3  1  0.33190600  0.33197400  0.87301300  1
  P  P4  1  0.33102700  0.33467900  0.37359500  1
  P  P5  1  0.09109200  0.67965200  0.15878800  1
  P  P6  1  0.91277700  0.76679000  0.34233500  1
  P  P7  1  0.23088800  0.08903100  0.15555800  1
  P  P8  1  0.76635400  0.91319400  0.84363000  1
  P  P9  1  0.09174300  0.23041000  0.65807800  1
  P  P10  1  0.91179900  0.31756500  0.84106000  1
  P  P11  1  0.66784700  0.66448400  0.62632400  1
  P  P12  1  0.66805900  0.66855100  0.12633400  1
  P  P13  1  0.76768100  0.31709500  0.34375200  1
  P  P14  1  0.31538900  0.91604400  0.34156200  1
  P  P15  1  0.31913600  0.76799900  0.84089700  1
  O  O0  1  0.75230300  0.24461400  0.43498200  1
  O  O1  1  0.66816900  0.25182400  0.65751800  1
  O  O2  1  0.76326700  0.99327500  0.93411900  1
  O  O3  1  0.66056200  0.08351600  0.16113000  1
  O  O4  1  0.51497100  0.37448400  0.17443700  1
  O  O5  1  0.47855500  0.33557400  0.82853800  1
  O  O6  1  0.37477900  0.51384300  0.67318600  1
  O  O7  1  0.24141100  0.75530600  0.93140100  1
  O  O8  1  0.25691100  0.66337200  0.16016300  1
  O  O9  1  0.48410400  0.18727600  0.33597600  1
  O  O10  1  0.51483400  0.11234400  0.67371400  1
  O  O11  1  0.32652600  0.48757100  0.33498500  1
  O  O12  1  0.33193900  0.33398300  0.98085000  1
  O  O13  1  0.32796500  0.33463100  0.48134200  1
  O  O14  1  0.18430500  0.48686100  0.83660900  1
  O  O15  1  0.37349900  0.11236300  0.17388700  1
  O  O16  1  0.33145400  0.18394800  0.83400500  1
  O  O17  1  0.08106500  0.66067300  0.66227400  1
  O  O18  1  0.00281200  0.78711000  0.24999800  1
  O  O19  1  0.00107700  0.75666700  0.43202400  1
  O  O20  1  0.00255200  0.75655400  0.06907500  1
  O  O21  1  0.11314200  0.51372200  0.17417700  1
  O  O22  1  0.18217400  0.33268300  0.33199200  1
  O  O23  1  0.91618900  0.74802800  0.83890200  1
  O  O24  1  0.11100900  0.37585700  0.67393100  1
  O  O25  1  0.25461700  0.08653900  0.65929700  1
  O  O26  1  0.78838900  0.00057100  0.75022000  1
  O  O27  1  0.75784800  0.99727000  0.56928000  1
  O  O28  1  0.23267600  0.00894000  0.42689800  1
  O  O29  1  0.75001700  0.91746000  0.34057400  1
  O  O30  1  0.90002200  0.62003900  0.32525700  1
  O  O31  1  0.08150200  0.25141900  0.15663000  1
  O  O32  1  0.81389300  0.66996500  0.66636500  1
  O  O33  1  0.90760400  0.47583100  0.82210900  1
  O  O34  1  0.00424300  0.24299600  0.93054300  1
  O  O35  1  0.99723200  0.24608100  0.56979700  1
  O  O36  1  0.00098700  0.21121500  0.74953900  1
  O  O37  1  0.91398500  0.33486700  0.34219200  1
  O  O38  1  0.67466600  0.81350800  0.16670500  1
  O  O39  1  0.61712200  0.90419400  0.82570900  1
  O  O40  1  0.81894700  0.51558700  0.17037000  1
  O  O41  1  0.67609600  0.65949000  0.01996200  1
  O  O42  1  0.66697100  0.66455900  0.51979200  1
  O  O43  1  0.66384600  0.51676400  0.66866200  1
  O  O44  1  0.47595500  0.90810000  0.32185800  1
  O  O45  1  0.51969800  0.81425000  0.67128100  1
  O  O46  1  0.74762400  0.34119100  0.84017100  1
  O  O47  1  0.78351400  0.20838800  0.25458700  1
  O  O48  1  0.76881700  0.23753900  0.07396500  1
  O  O49  1  0.61721500  0.47624000  0.32288200  1
  O  O50  1  0.51755400  0.67130900  0.16754900  1
  O  O51  1  0.47975500  0.62179600  0.82521800  1
  O  O52  1  0.33169800  0.91737900  0.84021900  1
  O  O53  1  0.24529600  0.99886300  0.06583400  1
  O  O54  1  0.21434900  0.99500400  0.24522100  1
  O  O55  1  0.33746300  0.74912000  0.34054800  1
  O  O56  1  0.23536700  0.75522900  0.56673600  1
  O  O57  1  0.21078500  0.78565700  0.74945100  1
loop_
_geom_bond_atom_site_label_1
_geom_bond_atom_site_label_2
_geom_bond_distance
_geom_bond_site_symmetry_2
Li0 O0 1.957001 1_555
Li0 O27 1.968523 1_545
Li0 O29 2.051365 1_545
Li0 O9 2.248473 1_555
Li1 O56 1.882502 1_555
Li1 O19 1.972454 1_555
Li1 O55 2.041165 1_555
Li1 O11 2.279807 1_555
Li2 O13 1.923354 1_555
Li2 O24 2.140011 1_555
Li2 O10 2.144052 1_555
Li2 O6 2.171138 1_555
Li3 O12 1.858070 1_554
Li3 O15 2.155977 1_555
Li3 O4 2.172243 1_555
Li3 O21 2.210972 1_555
Li4 O7 1.936743 1_555
Li4 O23 2.018756 1_455
Li4 O20 2.027899 1_556
Li4 O14 2.179839 1_555
Li5 O34 1.945976 1_555
Li5 O52 1.996216 1_545
Li5 O53 2.008634 1_546
Li5 O16 2.181940 1_555
Li6 O27 1.955193 1_555
Li6 O19 2.030615 1_655
Li6 O17 2.059650 1_655
Li6 O32 2.176853 1_555
Li7 O28 1.879420 1_555
Li7 O35 1.937922 1_455
Li7 O37 2.079786 1_455
Li7 O22 2.316930 1_555
Li8 O2 1.889099 1_554
Li8 O20 2.005884 1_655
Li8 O3 2.084881 1_565
Li8 O38 2.242166 1_555
Li9 O48 1.876316 1_555
Li9 O34 1.941000 1_654
Li9 O31 2.083231 1_655
Li9 O40 2.349915 1_555
Li10 O35 1.939805 1_555
Li10 O1 1.998230 1_555
Li10 O0 2.010228 1_555
Li10 O43 2.215114 1_555
Li11 O53 1.960508 1_555
Li11 O7 1.971753 1_554
Li11 O8 2.086173 1_555
Li11 O50 2.271955 1_555
O0 P13 1.499351 1_555
O1 P1 1.539005 1_555
O1 V4 2.061124 1_555
O2 P8 1.483175 1_555
O3 P0 1.565667 1_555
O3 V2 1.961186 1_545
O4 P0 1.555364 1_555
O4 V5 1.989619 1_555
O5 P3 1.584158 1_555
O5 V4 1.872438 1_555
O6 P2 1.553522 1_555
O6 V4 1.990316 1_555
O7 P15 1.509017 1_555
O8 P5 1.557679 1_555
O8 V5 1.988299 1_555
O9 P4 1.574533 1_555
O9 V2 1.993593 1_545
O10 P1 1.559090 1_555
O10 V3 1.963520 1_545
O11 P4 1.578030 1_555
O11 V5 1.981917 1_555
O12 P3 1.503261 1_555
O13 P4 1.501964 1_555
O14 P3 1.578704 1_555
O14 V0 1.980325 1_455
O15 P7 1.552451 1_555
O15 V2 1.996397 1_545
O16 P3 1.561731 1_555
O16 V3 2.066843 1_545
O17 P2 1.569039 1_555
O17 V0 1.948739 1_455
O18 P5 1.606591 1_555
O18 P6 1.626477 1_455
O19 P6 1.499562 1_455
O20 P5 1.496960 1_555
O21 P5 1.553600 1_555
O21 V1 1.967695 1_455
O22 P4 1.586215 1_555
O22 V1 1.964518 1_455
O23 P8 1.562853 1_555
O23 V0 1.953491 1_555
O24 P9 1.553785 1_555
O24 V0 1.990473 1_455
O25 P9 1.523115 1_555
O25 V3 1.962090 1_545
O26 P1 1.600147 1_555
O26 P8 1.630119 1_545
O27 P1 1.507867 1_565
O28 P14 1.475320 1_545
O29 P6 1.551175 1_555
O29 V2 1.985453 1_555
O30 P6 1.532779 1_555
O30 V1 1.907577 1_555
O31 P7 1.544010 1_555
O31 V1 2.036944 1_455
O32 P11 1.569093 1_555
O32 V0 1.982163 1_555
O33 P10 1.561553 1_555
O33 V0 1.832121 1_555
O34 P10 1.503129 1_455
O35 P9 1.505673 1_655
O36 P10 1.607685 1_455
O36 P9 1.616840 1_555
O37 P13 1.533768 1_555
O37 V1 2.024290 1_555
O38 P12 1.569420 1_555
O38 V2 1.992214 1_555
O39 P8 1.535447 1_555
O39 V3 1.909387 1_555
O40 P12 1.621087 1_555
O40 V1 1.875773 1_555
O41 P12 1.485125 1_555
O42 P11 1.484903 1_555
O43 P11 1.587376 1_555
O43 V4 1.959027 1_555
O44 P14 1.565113 1_555
O44 V2 1.838331 1_555
O45 P11 1.599448 1_555
O45 V3 1.835011 1_555
O46 P10 1.512741 1_555
O46 V4 1.962053 1_555
O47 P13 1.600586 1_555
O47 P0 1.626980 1_555
O48 P0 1.476709 1_555
O49 P13 1.558162 1_555
O49 V5 1.846537 1_555
O50 P12 1.573347 1_555
O50 V5 1.970693 1_555
O51 P15 1.535473 1_555
O51 V4 1.898757 1_555
O52 P15 1.537857 1_555
O52 V3 2.031941 1_555
O53 P7 1.502532 1_565
O54 P7 1.607916 1_565
O54 P14 1.621525 1_555
O55 P14 1.549385 1_555
O55 V5 1.981909 1_555
O56 P2 1.480400 1_555
O57 P2 1.611666 1_555
O57 P15 1.617236 1_555
