# generated using pymatgen
data_Tm2(Ga3Ir)3
_symmetry_space_group_name_H-M   'P 1'
_cell_length_a   7.47447341
_cell_length_b   7.47447341
_cell_length_c   9.40988062
_cell_angle_alpha   90.00000000
_cell_angle_beta   90.00000000
_cell_angle_gamma   119.86243632
_symmetry_Int_Tables_number   1
_chemical_formula_structural   Tm2(Ga3Ir)3
_chemical_formula_sum   'Tm4 Ga18 Ir6'
_cell_volume   455.90703307
_cell_formula_units_Z   2
loop_
 _symmetry_equiv_pos_site_id
 _symmetry_equiv_pos_as_xyz
  1  'x, y, z'
loop_
 _atom_site_type_symbol
 _atom_site_label
 _atom_site_symmetry_multiplicity
 _atom_site_fract_x
 _atom_site_fract_y
 _atom_site_fract_z
 _atom_site_occupancy
  Tm  Tm0  1  0.99809037  0.66931594  0.75000000  1
  Tm  Tm1  1  0.00190963  0.33068406  0.25000000  1
  Tm  Tm2  1  0.66931594  0.99809037  0.75000000  1
  Tm  Tm3  1  0.33068406  0.00190963  0.25000000  1
  Ga  Ga0  1  0.12913928  0.12913928  0.75000000  1
  Ga  Ga1  1  0.87086072  0.87086072  0.25000000  1
  Ga  Ga2  1  0.00020488  0.33454645  0.57998116  1
  Ga  Ga3  1  -0.00020488  0.66545355  0.42001884  1
  Ga  Ga4  1  -0.00020488  0.66545355  0.07998116  1
  Ga  Ga5  1  0.33454645  0.00020488  0.92001884  1
  Ga  Ga6  1  0.00020488  0.33454645  0.92001884  1
  Ga  Ga7  1  0.66545355  -0.00020488  0.07998116  1
  Ga  Ga8  1  0.66545355  -0.00020488  0.42001884  1
  Ga  Ga9  1  0.33454645  0.00020488  0.57998116  1
  Ga  Ga10  1  0.33311404  0.33311404  0.06890999  1
  Ga  Ga11  1  0.66688596  0.66688596  0.93109001  1
  Ga  Ga12  1  0.66688596  0.66688596  0.56890999  1
  Ga  Ga13  1  0.33311404  0.33311404  0.43109001  1
  Ga  Ga14  1  0.33822565  0.54514638  0.75000000  1
  Ga  Ga15  1  0.66177435  0.45485362  0.25000000  1
  Ga  Ga16  1  0.54514638  0.33822565  0.75000000  1
  Ga  Ga17  1  0.45485362  0.66177435  0.25000000  1
  Ir  Ir0  1  0.67161584  0.32838416  0.50000000  1
  Ir  Ir1  1  0.32838416  0.67161584  0.50000000  1
  Ir  Ir2  1  0.32838416  0.67161584  -0.00000000  1
  Ir  Ir3  1  0.67161584  0.32838416  -0.00000000  1
  Ir  Ir4  1  -0.00000000  0.00000000  0.50000000  1
  Ir  Ir5  1  -0.00000000  0.00000000  -0.00000000  1
loop_
_geom_bond_atom_site_label_1
_geom_bond_atom_site_label_2
_geom_bond_distance
_geom_bond_site_symmetry_2
Ga0 Ir5 2.543560 1_556
Ga0 Ir4 2.543560 1_555
Ga0 Ga16 2.696613 1_555
Ga0 Ga14 2.696613 1_555
Ga0 Ga2 2.705350 1_555
Ga0 Ga6 2.705350 1_555
Ga0 Ga5 2.705350 1_555
Ga0 Ga9 2.705350 1_555
Ga0 Tm0 3.069113 1_445
Ga0 Tm2 3.069113 1_445
Ga1 Ir4 2.543560 1_665
Ga1 Ir5 2.543560 1_665
Ga1 Ga17 2.696613 1_555
Ga1 Ga15 2.696613 1_555
Ga1 Ga3 2.705350 1_655
Ga1 Ga7 2.705350 1_565
Ga1 Ga4 2.705350 1_655
Ga1 Ga8 2.705350 1_565
Ga1 Tm1 3.069113 1_665
Ga1 Tm3 3.069113 1_665
Ga2 Ir0 2.547151 1_455
Ga2 Ir1 2.603191 1_555
Ga2 Ir4 2.610634 1_555
Ga2 Ga3 2.896679 1_555
Ga2 Ga8 2.924417 1_455
Ga2 Tm2 2.967641 1_445
Ga2 Tm0 2.976627 1_455
Ga2 Tm1 3.105303 1_555
Ga3 Ir1 2.547151 1_555
Ga3 Ir0 2.603191 1_455
Ga3 Ir4 2.610634 1_565
Ga3 Ga9 2.924417 1_565
Ga3 Tm3 2.967641 1_565
Ga3 Tm1 2.976627 1_555
Ga3 Tm0 3.105303 1_455
Ga4 Ir2 2.547151 1_555
Ga4 Ir3 2.603191 1_455
Ga4 Ir5 2.610634 1_565
Ga4 Ga6 2.896679 1_554
Ga4 Ga5 2.924417 1_564
Ga4 Tm3 2.967641 1_565
Ga4 Tm1 2.976627 1_555
Ga4 Tm0 3.105303 1_454
Ga5 Ir2 2.547151 1_546
Ga5 Ir3 2.603191 1_556
Ga5 Ir5 2.610634 1_556
Ga5 Ga7 2.896679 1_556
Ga5 Tm0 2.967641 1_445
Ga5 Tm2 2.976627 1_545
Ga5 Tm3 3.105303 1_556
Ga6 Ir3 2.547151 1_456
Ga6 Ir2 2.603191 1_556
Ga6 Ir5 2.610634 1_556
Ga6 Ga7 2.924417 1_456
Ga6 Tm2 2.967641 1_445
Ga6 Tm0 2.976627 1_455
Ga6 Tm1 3.105303 1_556
Ga7 Ir3 2.547151 1_555
Ga7 Ir2 2.603191 1_545
Ga7 Ir5 2.610634 1_655
Ga7 Tm1 2.967641 1_655
Ga7 Tm3 2.976627 1_555
Ga7 Tm2 3.105303 1_544
Ga8 Ir0 2.547151 1_555
Ga8 Ir1 2.603191 1_545
Ga8 Ir4 2.610634 1_655
Ga8 Ga9 2.896679 1_555
Ga8 Tm1 2.967641 1_655
Ga8 Tm3 2.976627 1_555
Ga8 Tm2 3.105303 1_545
Ga9 Ir1 2.547151 1_545
Ga9 Ir0 2.603191 1_555
Ga9 Ir4 2.610634 1_555
Ga9 Tm0 2.967641 1_445
Ga9 Tm2 2.976627 1_545
Ga9 Tm3 3.105303 1_555
Ga10 Ir5 2.577912 1_555
Ga10 Ir2 2.629128 1_555
Ga10 Ir3 2.629128 1_555
Ga10 Ga15 2.745980 1_555
Ga10 Ga17 2.745980 1_555
Ga10 Ga11 2.816318 1_554
Ga10 Ga5 2.860301 1_554
Ga10 Ga6 2.860301 1_554
Ga10 Tm3 2.997963 1_555
Ga10 Tm1 2.997963 1_555
Ga11 Ir5 2.577912 1_666
Ga11 Ir3 2.629128 1_556
Ga11 Ir2 2.629128 1_556
Ga11 Ga16 2.745980 1_555
Ga11 Ga14 2.745980 1_555
Ga11 Ga4 2.860301 1_656
Ga11 Ga7 2.860301 1_566
Ga11 Tm0 2.997963 1_555
Ga11 Tm2 2.997963 1_555
Ga12 Ir4 2.577912 1_665
Ga12 Ir0 2.629128 1_555
Ga12 Ir1 2.629128 1_555
Ga12 Ga16 2.745980 1_555
Ga12 Ga14 2.745980 1_555
Ga12 Ga13 2.816318 1_555
Ga12 Ga3 2.860301 1_655
Ga12 Ga8 2.860301 1_565
Ga12 Tm0 2.997963 1_555
Ga12 Tm2 2.997963 1_555
Ga13 Ir4 2.577912 1_555
Ga13 Ir0 2.629128 1_555
Ga13 Ir1 2.629128 1_555
Ga13 Ga15 2.745980 1_555
Ga13 Ga17 2.745980 1_555
Ga13 Ga9 2.860301 1_555
Ga13 Ga2 2.860301 1_555
Ga13 Tm3 2.997963 1_555
Ga13 Tm1 2.997963 1_555
Ga14 Ir2 2.549971 1_556
Ga14 Ir1 2.549971 1_555
Ga14 Ga16 2.676972 1_555
Ga14 Ga2 2.731342 1_555
Ga14 Ga6 2.731342 1_555
Ga14 Tm2 3.040170 1_555
Ga14 Tm0 3.110394 1_455
Ga15 Ir3 2.549971 1_555
Ga15 Ir0 2.549971 1_555
Ga15 Ga17 2.676972 1_555
Ga15 Ga4 2.731342 1_655
Ga15 Ga3 2.731342 1_655
Ga15 Tm3 3.040170 1_555
Ga15 Tm1 3.110394 1_655
Ga16 Ir3 2.549971 1_556
Ga16 Ir0 2.549971 1_555
Ga16 Ga5 2.731342 1_555
Ga16 Ga9 2.731342 1_555
Ga16 Tm0 3.040170 1_555
Ga16 Tm2 3.110394 1_545
Ga17 Ir1 2.549971 1_555
Ga17 Ir2 2.549971 1_555
Ga17 Ga8 2.731342 1_565
Ga17 Ga7 2.731342 1_565
Ga17 Tm1 3.040170 1_555
Ga17 Tm3 3.110394 1_565
