# generated using pymatgen
data_SrPm3
_symmetry_space_group_name_H-M   'P 1'
_cell_length_a   7.61168922
_cell_length_b   7.61168922
_cell_length_c   6.02820500
_cell_angle_alpha   90.00000000
_cell_angle_beta   90.00000000
_cell_angle_gamma   119.99999318
_symmetry_Int_Tables_number   1
_chemical_formula_structural   SrPm3
_chemical_formula_sum   'Sr2 Pm6'
_cell_volume   302.46892998
_cell_formula_units_Z   2
loop_
 _symmetry_equiv_pos_site_id
 _symmetry_equiv_pos_as_xyz
  1  'x, y, z'
loop_
 _atom_site_type_symbol
 _atom_site_label
 _atom_site_symmetry_multiplicity
 _atom_site_fract_x
 _atom_site_fract_y
 _atom_site_fract_z
 _atom_site_occupancy
  Sr  Sr0  1  0.33333300  0.66666700  0.75000000  1
  Sr  Sr1  1  0.66666700  0.33333300  0.25000000  1
  Pm  Pm0  1  0.16003400  0.32006800  0.25000000  1
  Pm  Pm1  1  0.67993200  0.83996600  0.25000000  1
  Pm  Pm2  1  0.16003400  0.83996600  0.25000000  1
  Pm  Pm3  1  0.83996600  0.67993200  0.75000000  1
  Pm  Pm4  1  0.32006800  0.16003400  0.75000000  1
  Pm  Pm5  1  0.83996600  0.16003400  0.75000000  1
loop_
_geom_bond_atom_site_label_1
_geom_bond_atom_site_label_2
_geom_bond_distance
_geom_bond_site_symmetry_2
Pm0 Pm2 3.654387 1_545
Pm0 Pm1 3.654388 1_445
Pm0 Pm4 3.679175 1_555
Pm0 Pm4 3.679175 1_554
Pm0 Pm5 3.679175 1_454
Pm0 Pm5 3.679175 1_455
Pm0 Sr0 3.782182 1_554
Pm0 Sr0 3.782182 1_555
Pm0 Sr1 3.806845 1_455
Pm0 Sr1 3.806853 1_555
Pm0 Pm2 3.957302 1_555
Pm0 Pm1 3.957302 1_555
Pm1 Pm2 3.654387 1_655
Pm1 Pm3 3.679175 1_555
Pm1 Pm3 3.679175 1_554
Pm1 Pm5 3.679175 1_565
Pm1 Pm5 3.679175 1_564
Pm1 Sr0 3.782182 1_555
Pm1 Sr0 3.782182 1_554
Pm1 Sr1 3.806845 1_565
Pm1 Sr1 3.806853 1_555
Pm1 Pm2 3.957302 1_555
Pm2 Pm3 3.679175 1_455
Pm2 Pm3 3.679175 1_454
Pm2 Pm4 3.679175 1_564
Pm2 Pm4 3.679175 1_565
Pm2 Sr0 3.782178 1_555
Pm2 Sr0 3.782178 1_554
Pm2 Sr1 3.806850 1_455
Pm2 Sr1 3.806850 1_565
Pm3 Pm5 3.654387 1_565
Pm3 Pm4 3.654388 1_665
Pm3 Sr1 3.782182 1_555
Pm3 Sr1 3.782182 1_556
Pm3 Sr0 3.806845 1_655
Pm3 Sr0 3.806853 1_555
Pm3 Pm5 3.957302 1_555
Pm3 Pm4 3.957302 1_555
Pm4 Pm5 3.654387 1_455
Pm4 Sr1 3.782182 1_555
Pm4 Sr1 3.782182 1_556
Pm4 Sr0 3.806845 1_545
Pm4 Sr0 3.806853 1_555
Pm4 Pm5 3.957302 1_555
Pm5 Sr1 3.782178 1_556
Pm5 Sr1 3.782178 1_555
Pm5 Sr0 3.806850 1_545
Pm5 Sr0 3.806850 1_655
