# generated using pymatgen
data_CoPHNO4
_symmetry_space_group_name_H-M   'P 1'
_cell_length_a   5.06110200
_cell_length_b   5.57139500
_cell_length_c   8.17800200
_cell_angle_alpha   90.00000000
_cell_angle_beta   90.00000000
_cell_angle_gamma   90.00000000
_symmetry_Int_Tables_number   1
_chemical_formula_structural   CoPHNO4
_chemical_formula_sum   'Co2 P2 H2 N2 O8'
_cell_volume   230.59838032
_cell_formula_units_Z   2
loop_
 _symmetry_equiv_pos_site_id
 _symmetry_equiv_pos_as_xyz
  1  'x, y, z'
loop_
 _atom_site_type_symbol
 _atom_site_label
 _atom_site_symmetry_multiplicity
 _atom_site_fract_x
 _atom_site_fract_y
 _atom_site_fract_z
 _atom_site_occupancy
  Co  Co0  1  0.47014400  0.00000000  0.49768600  1
  Co  Co1  1  0.97014400  0.50000000  0.50231400  1
  P  P0  1  0.01033200  0.00000000  0.30487400  1
  P  P1  1  0.51033200  0.50000000  0.69512600  1
  H  H0  1  0.14396200  0.00000000  0.70136200  1
  H  H1  1  0.64396200  0.50000000  0.29863800  1
  N  N0  1  0.33252000  0.00000000  0.05312800  1
  N  N1  1  0.83252000  0.50000000  0.94687200  1
  O  O0  1  0.71417400  0.00000000  0.30489700  1
  O  O1  1  0.21417400  0.50000000  0.69510300  1
  O  O2  1  0.08473600  0.00000000  0.10807000  1
  O  O3  1  0.58473600  0.50000000  0.89193000  1
  O  O4  1  0.14706600  0.21992900  0.38534900  1
  O  O5  1  0.64706600  0.28007100  0.61465100  1
  O  O6  1  0.64706600  0.71992900  0.61465100  1
  O  O7  1  0.14706600  0.78007100  0.38534900  1
loop_
_geom_bond_atom_site_label_1
_geom_bond_atom_site_label_2
_geom_bond_distance
_geom_bond_site_symmetry_2
Co0 O0 2.002781 1_555
Co0 O6 2.037536 1_545
Co0 O5 2.037536 1_555
Co0 O7 2.240320 1_545
Co0 O4 2.240320 1_555
Co0 H0 2.345145 1_555
Co1 O1 2.002781 1_655
Co1 O7 2.037536 1_655
Co1 O4 2.037536 1_655
Co1 O5 2.240320 1_555
Co1 O6 2.240320 1_555
Co1 H1 2.345145 1_555
N0 O2 1.332123 1_555
N1 O3 1.332123 1_555
O0 P0 1.498886 1_655
O1 P1 1.498886 1_555
O2 P0 1.652929 1_555
O3 P1 1.652929 1_555
O4 P0 1.553517 1_555
O5 P1 1.553517 1_555
O6 P1 1.553517 1_555
O7 P0 1.553517 1_565
