# generated using pymatgen
data_CaRe3(Se2O3)2
_symmetry_space_group_name_H-M   'P 1'
_cell_length_a   7.95583700
_cell_length_b   8.01818484
_cell_length_c   10.51284493
_cell_angle_alpha   90.59553853
_cell_angle_beta   90.26604630
_cell_angle_gamma   119.52274358
_symmetry_Int_Tables_number   1
_chemical_formula_structural   CaRe3(Se2O3)2
_chemical_formula_sum   'Ca2 Re6 Se8 O12'
_cell_volume   583.48618984
_cell_formula_units_Z   2
loop_
 _symmetry_equiv_pos_site_id
 _symmetry_equiv_pos_as_xyz
  1  'x, y, z'
loop_
 _atom_site_type_symbol
 _atom_site_label
 _atom_site_symmetry_multiplicity
 _atom_site_fract_x
 _atom_site_fract_y
 _atom_site_fract_z
 _atom_site_occupancy
  Ca  Ca0  1  0.32148900  0.65020000  0.59122400  1
  Ca  Ca1  1  0.67851100  0.34980000  0.40877600  1
  Re  Re0  1  0.14803000  0.22251200  0.86279800  1
  Re  Re1  1  0.07572400  0.85084100  0.86182000  1
  Re  Re2  1  0.77497300  0.92511600  0.86048900  1
  Re  Re3  1  0.85197000  0.77748800  0.13720200  1
  Re  Re4  1  0.92427600  0.14915900  0.13818000  1
  Re  Re5  1  0.22502700  0.07488400  0.13951100  1
  Se  Se0  1  0.99897500  0.99787500  0.66939800  1
  Se  Se1  1  0.00102500  0.00212500  0.33060200  1
  Se  Se2  1  0.39855400  0.13453200  0.91853000  1
  Se  Se3  1  0.73878100  0.60396200  0.91412200  1
  Se  Se4  1  0.86221500  0.26104800  0.91761200  1
  Se  Se5  1  0.60144600  0.86546800  0.08147000  1
  Se  Se6  1  0.26121900  0.39603800  0.08587800  1
  Se  Se7  1  0.13778500  0.73895200  0.08238800  1
  O  O0  1  0.25168700  0.41601100  0.75413800  1
  O  O1  1  0.16830000  0.74579000  0.75280600  1
  O  O2  1  0.57920000  0.83474400  0.74934900  1
  O  O3  1  0.74831300  0.58398900  0.24586200  1
  O  O4  1  0.83170000  0.25421000  0.24719400  1
  O  O5  1  0.42080000  0.16525600  0.25065100  1
  O  O6  1  0.56106700  0.59024600  0.48124300  1
  O  O7  1  0.02303700  0.43407700  0.47812100  1
  O  O8  1  0.41010700  0.95728700  0.47905600  1
  O  O9  1  0.43893300  0.40975400  0.51875700  1
  O  O10  1  0.97696300  0.56592300  0.52187900  1
  O  O11  1  0.58989300  0.04271300  0.52094400  1
loop_
_geom_bond_atom_site_label_1
_geom_bond_atom_site_label_2
_geom_bond_distance
_geom_bond_site_symmetry_2
Ca0 O0 2.411577 1_555
Ca0 O1 2.423037 1_555
Ca0 O7 2.435262 1_555
Ca0 O2 2.466559 1_555
Ca0 O6 2.472420 1_555
Ca0 O8 2.511497 1_555
Ca0 O10 2.578159 1_455
Ca0 O9 2.630934 1_555
Ca1 O3 2.411577 1_555
Ca1 O4 2.423037 1_555
Ca1 O10 2.435262 1_555
Ca1 O5 2.466559 1_555
Ca1 O9 2.472420 1_555
Ca1 O11 2.511497 1_555
Ca1 O7 2.578159 1_655
Ca1 O6 2.630934 1_555
Re0 Se2 2.489364 1_555
Re0 Se4 2.509794 1_455
Re0 Se0 2.565302 1_445
Re0 Se6 2.631452 1_556
Re1 Se3 2.492672 1_455
Re1 Se2 2.515162 1_565
Re1 Se0 2.569523 1_455
Re1 Se7 2.625766 1_556
Re2 Se4 2.493523 1_565
Re2 Se3 2.516499 1_555
Re2 Se0 2.566125 1_555
Re2 Se5 2.633210 1_556
Re3 Se5 2.489364 1_555
Re3 Se7 2.509794 1_655
Re3 Se1 2.565302 1_665
Re3 Se3 2.631452 1_554
Re4 Se6 2.492672 1_655
Re4 Se5 2.515162 1_545
Re4 Se1 2.569523 1_655
Re4 Se4 2.625766 1_554
Re5 Se7 2.493523 1_545
Re5 Se6 2.516499 1_555
Re5 Se1 2.566125 1_555
Re5 Se2 2.633210 1_554
O0 Re0 1.782354 1_555
O1 Re1 1.778924 1_555
O2 Re2 1.780267 1_555
O3 Re3 1.782354 1_555
O4 Re4 1.778924 1_555
O5 Re5 1.780267 1_555
O6 O9 1.350431 1_555
O10 O7 1.355340 1_655
O11 O8 1.315790 1_545
