# generated using pymatgen
data_Li8Zr7Fe(PO4)12
_symmetry_space_group_name_H-M   'P 1'
_cell_length_a   8.91737185
_cell_length_b   9.06723502
_cell_length_c   12.60207632
_cell_angle_alpha   89.59035144
_cell_angle_beta   89.90976526
_cell_angle_gamma   89.87812338
_symmetry_Int_Tables_number   1
_chemical_formula_structural   Li8Zr7Fe(PO4)12
_chemical_formula_sum   'Li8 Zr7 Fe1 P12 O48'
_cell_volume   1018.92271473
_cell_formula_units_Z   1
loop_
 _symmetry_equiv_pos_site_id
 _symmetry_equiv_pos_as_xyz
  1  'x, y, z'
loop_
 _atom_site_type_symbol
 _atom_site_label
 _atom_site_symmetry_multiplicity
 _atom_site_fract_x
 _atom_site_fract_y
 _atom_site_fract_z
 _atom_site_occupancy
  Li  Li0  1  0.21598300  0.72266300  0.17938800  1
  Li  Li1  1  0.21466800  0.77642400  0.82035400  1
  Li  Li2  1  0.28501600  0.22185700  0.32196100  1
  Li  Li3  1  0.28525100  0.27937100  0.67674700  1
  Li  Li4  1  0.71756200  0.71693200  0.32435300  1
  Li  Li5  1  0.71676800  0.76666700  0.67782300  1
  Li  Li6  1  0.78159900  0.22278200  0.17966900  1
  Li  Li7  1  0.78037000  0.28186200  0.81260800  1
  Zr  Zr0  1  0.24761000  0.54001600  0.38966400  1
  Zr  Zr1  1  0.24739600  0.95767700  0.61193200  1
  Zr  Zr2  1  0.25205000  0.04315700  0.11251800  1
  Zr  Zr3  1  0.25175100  0.45761600  0.88615800  1
  Zr  Zr4  1  0.74785300  0.54254200  0.11258200  1
  Zr  Zr5  1  0.74791000  0.95683000  0.88488400  1
  Zr  Zr6  1  0.75358300  0.04435700  0.38979300  1
  Fe  Fe0  1  0.75216500  0.45904500  0.61280400  1
  P  P0  1  0.04180400  0.25389900  0.50283800  1
  P  P1  1  0.10477400  0.39658600  0.14966200  1
  P  P2  1  0.10416500  0.10376000  0.85030100  1
  P  P3  1  0.39866900  0.60472900  0.64915600  1
  P  P4  1  0.39688900  0.89462500  0.35125500  1
  P  P5  1  0.45358900  0.75024300  0.99962400  1
  P  P6  1  0.54722400  0.24954600  0.99944700  1
  P  P7  1  0.60565900  0.10659800  0.64976400  1
  P  P8  1  0.60488300  0.39609100  0.35423800  1
  P  P9  1  0.89512000  0.60215900  0.85080600  1
  P  P10  1  0.89385900  0.89632400  0.14935500  1
  P  P11  1  0.95310900  0.74934900  0.50084100  1
  O  O0  1  0.05267700  0.64537000  0.43376500  1
  O  O1  1  0.05410400  0.85969600  0.56080600  1
  O  O2  1  0.06716700  0.89227800  0.15857200  1
  O  O3  1  0.06961200  0.60872900  0.84395400  1
  O  O4  1  0.15120900  0.16442400  0.57656200  1
  O  O5  1  0.14921500  0.33295200  0.42140500  1
  O  O6  1  0.15173700  0.43404600  0.03504900  1
  O  O7  1  0.15063000  0.06508900  0.96482700  1
  O  O8  1  0.16811500  0.24261000  0.18309200  1
  O  O9  1  0.16807600  0.25741800  0.81749000  1
  O  O10  1  0.16937800  0.51706500  0.22413900  1
  O  O11  1  0.17034700  0.98339700  0.77587700  1
  O  O12  1  0.33025500  0.01644000  0.27793100  1
  O  O13  1  0.32888200  0.48354500  0.72263300  1
  O  O14  1  0.32958600  0.75790600  0.68114100  1
  O  O15  1  0.33521800  0.74086900  0.31809000  1
  O  O16  1  0.34635500  0.56967100  0.53422800  1
  O  O17  1  0.34995900  0.92892000  0.46633100  1
  O  O18  1  0.34922300  0.83241100  0.07860400  1
  O  O19  1  0.35034700  0.66742800  0.92097200  1
  O  O20  1  0.43061000  0.10309900  0.65536300  1
  O  O21  1  0.43007700  0.39305600  0.34083500  1
  O  O22  1  0.45168200  0.14085900  0.06480700  1
  O  O23  1  0.45004400  0.35844700  0.93574000  1
  O  O24  1  0.54922200  0.64128300  0.06419600  1
  O  O25  1  0.54899200  0.85966900  0.93547000  1
  O  O26  1  0.56824300  0.60988200  0.65796900  1
  O  O27  1  0.57024400  0.89325600  0.34266000  1
  O  O28  1  0.65131100  0.33202400  0.07785000  1
  O  O29  1  0.65052000  0.16658600  0.92067200  1
  O  O30  1  0.65304500  0.06964500  0.53340600  1
  O  O31  1  0.65043200  0.43224200  0.46559300  1
  O  O32  1  0.66516200  0.23991600  0.31810300  1
  O  O33  1  0.66361100  0.25658500  0.68386300  1
  O  O34  1  0.66873200  0.51395500  0.27432500  1
  O  O35  1  0.66886800  0.97938400  0.72146900  1
  O  O36  1  0.82882200  0.01683000  0.22432000  1
  O  O37  1  0.83003900  0.48296600  0.78014600  1
  O  O38  1  0.83147600  0.74251600  0.18320200  1
  O  O39  1  0.83471600  0.75894400  0.81922600  1
  O  O40  1  0.85071400  0.57159500  0.96830900  1
  O  O41  1  0.84716800  0.93420700  0.03487200  1
  O  O42  1  0.85171900  0.66997800  0.57878100  1
  O  O43  1  0.85277800  0.83693000  0.41954800  1
  O  O44  1  0.93153800  0.10774300  0.84076600  1
  O  O45  1  0.93177200  0.39117400  0.15863500  1
  O  O46  1  0.94822200  0.14430200  0.43581500  1
  O  O47  1  0.95086300  0.35895600  0.56806600  1
loop_
_geom_bond_atom_site_label_1
_geom_bond_atom_site_label_2
_geom_bond_distance
_geom_bond_site_symmetry_2
Li0 O10 1.988354 1_555
Li0 O18 1.999319 1_555
Li0 O2 2.044938 1_555
Li0 O15 2.055183 1_555
Li1 O11 1.993682 1_555
Li1 O19 2.007541 1_555
Li1 O3 2.018500 1_555
Li1 O14 2.038132 1_555
Li2 O12 1.987623 1_555
Li2 O5 2.014892 1_555
Li2 O21 2.038212 1_555
Li2 O8 2.045714 1_555
Li3 O13 1.982960 1_555
Li3 O4 2.034185 1_555
Li3 O9 2.065737 1_555
Li3 O20 2.074515 1_555
Li4 O34 1.998791 1_555
Li4 O43 2.026255 1_555
Li4 O38 2.058935 1_555
Li4 O27 2.080975 1_555
Li5 O42 1.944496 1_555
Li5 O26 1.962621 1_555
Li5 O35 2.053291 1_555
Li5 O39 2.071325 1_555
Li6 O28 1.989730 1_555
Li6 O36 1.990872 1_555
Li6 O32 2.035482 1_555
Li6 O45 2.048572 1_555
Li7 O37 1.918521 1_555
Li7 O33 1.944377 1_555
Li7 O29 2.065843 1_555
Li7 O44 2.102394 1_555
Fe0 O47 2.068406 1_555
Fe0 O31 2.082397 1_555
Fe0 O42 2.150398 1_555
Fe0 O33 2.185384 1_555
Fe0 O26 2.209767 1_555
Fe0 O37 2.233461 1_555
O0 P11 1.548293 1_455
O0 Zr0 2.059260 1_555
O1 P11 1.549203 1_455
O1 Zr1 2.047825 1_555
O2 P10 1.550330 1_455
O2 Zr2 2.218503 1_565
O3 P9 1.559509 1_455
O3 Zr3 2.186577 1_555
O4 P0 1.569041 1_555
O4 Zr1 2.104999 1_545
O5 P0 1.572788 1_555
O5 Zr0 2.109512 1_555
O6 P1 1.539031 1_555
O6 Zr3 2.086033 1_554
O7 P2 1.540024 1_555
O7 Zr2 2.078664 1_556
O8 P1 1.560354 1_555
O8 Zr2 2.153366 1_555
O9 P2 1.559272 1_555
O9 Zr3 2.151968 1_555
O10 P1 1.557304 1_555
O10 Zr0 2.211926 1_555
O11 P2 1.558579 1_565
O11 Zr1 2.190148 1_555
O12 P4 1.552815 1_545
O12 Zr2 2.210657 1_555
O13 P3 1.561602 1_555
O13 Zr3 2.182740 1_555
O14 P3 1.573079 1_555
O14 Zr1 2.133706 1_555
O15 P4 1.559829 1_555
O15 Zr0 2.172773 1_555
O16 P3 1.557459 1_555
O16 Zr0 2.044433 1_555
O17 P4 1.542364 1_555
O17 Zr1 2.066827 1_555
O18 P5 1.554545 1_554
O18 Zr2 2.142072 1_565
O19 P5 1.552527 1_555
O19 Zr3 2.145915 1_555
O20 P7 1.562839 1_555
O20 Zr1 2.174802 1_545
O21 P8 1.568520 1_555
O21 Zr0 2.191153 1_555
O22 P6 1.537939 1_554
O22 Zr2 2.076322 1_555
O23 P6 1.535502 1_555
O23 Zr3 2.077103 1_555
O24 P5 1.533824 1_554
O24 Zr4 2.073553 1_555
O25 P5 1.533556 1_555
O25 Zr5 2.079431 1_555
O26 P3 1.517245 1_555
O27 P4 1.549520 1_555
O27 Zr6 2.219689 1_565
O28 P6 1.553522 1_554
O28 Zr4 2.143929 1_555
O29 P6 1.550700 1_555
O29 Zr5 2.139833 1_545
O30 P7 1.563804 1_555
O30 Zr6 2.032672 1_555
O31 P8 1.500209 1_555
O32 P8 1.583284 1_555
O32 Zr6 2.134354 1_555
O33 P7 1.520946 1_555
O34 P8 1.570312 1_555
O34 Zr4 2.169871 1_555
O35 P7 1.564835 1_565
O35 Zr5 2.185764 1_555
O36 P10 1.559832 1_545
O36 Zr6 2.205281 1_555
O37 P9 1.521779 1_555
O38 P10 1.558972 1_555
O38 Zr4 2.160265 1_555
O39 P9 1.568060 1_555
O39 Zr5 2.125224 1_555
O40 P9 1.555337 1_555
O40 Zr4 2.050683 1_556
O41 P10 1.538504 1_555
O41 Zr5 2.096944 1_554
O42 P11 1.513268 1_555
O43 P11 1.571255 1_555
O43 Zr6 2.108151 1_565
O44 P2 1.544576 1_655
O44 Zr5 2.204236 1_545
O45 P1 1.547541 1_655
O45 Zr4 2.211882 1_555
O46 P0 1.554050 1_655
O46 Zr6 2.046347 1_555
O47 P0 1.498852 1_655
