# generated using pymatgen
data_YMg30CuO32
_symmetry_space_group_name_H-M   'P 1'
_cell_length_a   8.58615600
_cell_length_b   8.58615600
_cell_length_c   8.57934000
_cell_angle_alpha   90.00000000
_cell_angle_beta   90.00000000
_cell_angle_gamma   90.00000000
_symmetry_Int_Tables_number   1
_chemical_formula_structural   YMg30CuO32
_chemical_formula_sum   'Y1 Mg30 Cu1 O32'
_cell_volume   632.48674570
_cell_formula_units_Z   1
loop_
 _symmetry_equiv_pos_site_id
 _symmetry_equiv_pos_as_xyz
  1  'x, y, z'
loop_
 _atom_site_type_symbol
 _atom_site_label
 _atom_site_symmetry_multiplicity
 _atom_site_fract_x
 _atom_site_fract_y
 _atom_site_fract_z
 _atom_site_occupancy
  Y  Y0  1  0.00000000  0.00000000  0.00000000  1
  Mg  Mg0  1  0.50000000  0.00000000  0.00000000  1
  Mg  Mg1  1  0.00000000  0.50000000  0.00000000  1
  Mg  Mg2  1  0.00000000  0.00000000  0.50000000  1
  Mg  Mg3  1  0.50000000  0.00000000  0.50000000  1
  Mg  Mg4  1  0.00000000  0.50000000  0.50000000  1
  Mg  Mg5  1  0.50000000  0.50000000  0.50000000  1
  Mg  Mg6  1  0.25937200  0.25937200  0.00000000  1
  Mg  Mg7  1  0.74062800  0.25937200  0.00000000  1
  Mg  Mg8  1  0.25937200  0.74062800  0.00000000  1
  Mg  Mg9  1  0.74062800  0.74062800  0.00000000  1
  Mg  Mg10  1  0.25167500  0.25167500  0.50000000  1
  Mg  Mg11  1  0.74832500  0.25167500  0.50000000  1
  Mg  Mg12  1  0.25167500  0.74832500  0.50000000  1
  Mg  Mg13  1  0.74832500  0.74832500  0.50000000  1
  Mg  Mg14  1  0.25742600  0.00000000  0.25559100  1
  Mg  Mg15  1  0.74257400  0.00000000  0.25559100  1
  Mg  Mg16  1  0.25344600  0.50000000  0.24808200  1
  Mg  Mg17  1  0.74655400  0.50000000  0.24808200  1
  Mg  Mg18  1  0.25742600  0.00000000  0.74440900  1
  Mg  Mg19  1  0.74257400  0.00000000  0.74440900  1
  Mg  Mg20  1  0.25344600  0.50000000  0.75191800  1
  Mg  Mg21  1  0.74655400  0.50000000  0.75191800  1
  Mg  Mg22  1  0.00000000  0.25742600  0.25559100  1
  Mg  Mg23  1  0.50000000  0.25344600  0.24808200  1
  Mg  Mg24  1  0.00000000  0.74257400  0.25559100  1
  Mg  Mg25  1  0.50000000  0.74655400  0.24808200  1
  Mg  Mg26  1  0.00000000  0.25742600  0.74440900  1
  Mg  Mg27  1  0.50000000  0.25344600  0.75191800  1
  Mg  Mg28  1  0.00000000  0.74257400  0.74440900  1
  Mg  Mg29  1  0.50000000  0.74655400  0.75191800  1
  Cu  Cu0  1  0.50000000  0.50000000  0.00000000  1
  O  O0  1  0.00000000  0.00000000  0.25950000  1
  O  O1  1  0.50000000  0.00000000  0.25323600  1
  O  O2  1  0.00000000  0.50000000  0.25323600  1
  O  O3  1  0.50000000  0.50000000  0.26324800  1
  O  O4  1  0.00000000  0.00000000  0.74050000  1
  O  O5  1  0.50000000  0.00000000  0.74676400  1
  O  O6  1  0.00000000  0.50000000  0.74676400  1
  O  O7  1  0.50000000  0.50000000  0.73675200  1
  O  O8  1  0.24919100  0.24919100  0.24917000  1
  O  O9  1  0.75080900  0.24919100  0.24917000  1
  O  O10  1  0.24919100  0.75080900  0.24917000  1
  O  O11  1  0.75080900  0.75080900  0.24917000  1
  O  O12  1  0.24919100  0.24919100  0.75083000  1
  O  O13  1  0.75080900  0.24919100  0.75083000  1
  O  O14  1  0.24919100  0.75080900  0.75083000  1
  O  O15  1  0.75080900  0.75080900  0.75083000  1
  O  O16  1  0.25782300  0.00000000  0.00000000  1
  O  O17  1  0.74217700  0.00000000  0.00000000  1
  O  O18  1  0.23722600  0.50000000  0.00000000  1
  O  O19  1  0.76277400  0.50000000  0.00000000  1
  O  O20  1  0.25028700  0.00000000  0.50000000  1
  O  O21  1  0.74971300  0.00000000  0.50000000  1
  O  O22  1  0.24784700  0.50000000  0.50000000  1
  O  O23  1  0.75215300  0.50000000  0.50000000  1
  O  O24  1  0.00000000  0.25782300  0.00000000  1
  O  O25  1  0.50000000  0.23722600  0.00000000  1
  O  O26  1  0.00000000  0.74217700  0.00000000  1
  O  O27  1  0.50000000  0.76277400  0.00000000  1
  O  O28  1  0.00000000  0.25028700  0.50000000  1
  O  O29  1  0.50000000  0.24784700  0.50000000  1
  O  O30  1  0.00000000  0.74971300  0.50000000  1
  O  O31  1  0.50000000  0.75215300  0.50000000  1
loop_
_geom_bond_atom_site_label_1
_geom_bond_atom_site_label_2
_geom_bond_distance
_geom_bond_site_symmetry_2
Mg0 O25 2.036859 1_555
Mg0 O27 2.036859 1_545
Mg0 O17 2.079370 1_555
Mg0 O16 2.079370 1_555
Mg0 O1 2.172598 1_555
Mg0 O5 2.172598 1_554
Mg1 O18 2.036859 1_555
Mg1 O19 2.036859 1_455
Mg1 O24 2.079370 1_555
Mg1 O26 2.079370 1_555
Mg1 O6 2.172598 1_554
Mg1 O2 2.172598 1_555
Mg2 O0 2.063331 1_555
Mg2 O4 2.063331 1_555
Mg2 O28 2.149003 1_555
Mg2 O20 2.149003 1_555
Mg2 O30 2.149003 1_545
Mg2 O21 2.149003 1_455
Mg3 O5 2.117072 1_555
Mg3 O1 2.117072 1_555
Mg3 O29 2.128053 1_555
Mg3 O31 2.128053 1_545
Mg3 O21 2.144075 1_555
Mg3 O20 2.144075 1_555
Mg4 O2 2.117072 1_555
Mg4 O6 2.117072 1_555
Mg4 O22 2.128053 1_555
Mg4 O23 2.128053 1_455
Mg4 O30 2.144075 1_555
Mg4 O28 2.144075 1_555
Mg5 O7 2.031176 1_555
Mg5 O3 2.031176 1_555
Mg5 O23 2.165025 1_555
Mg5 O22 2.165025 1_555
Mg5 O29 2.165025 1_555
Mg5 O31 2.165025 1_555
Mg6 O18 2.074801 1_555
Mg6 O25 2.074801 1_555
Mg6 O8 2.141286 1_555
Mg6 O12 2.141286 1_554
Mg6 O24 2.227048 1_555
Mg6 O16 2.227048 1_555
Mg7 O25 2.074801 1_555
Mg7 O19 2.074801 1_555
Mg7 O13 2.141286 1_554
Mg7 O9 2.141286 1_555
Mg7 O17 2.227048 1_555
Mg7 O24 2.227048 1_655
Mg8 O18 2.074801 1_555
Mg8 O27 2.074801 1_555
Mg8 O10 2.141286 1_555
Mg8 O14 2.141286 1_554
Mg8 O26 2.227048 1_555
Mg8 O16 2.227048 1_565
Mg9 O27 2.074801 1_555
Mg9 O19 2.074801 1_555
Mg9 O15 2.141286 1_554
Mg9 O11 2.141286 1_555
Mg9 O17 2.227048 1_565
Mg9 O26 2.227048 1_655
Mg10 O22 2.132411 1_555
Mg10 O29 2.132411 1_555
Mg10 O12 2.152167 1_555
Mg10 O8 2.152167 1_555
Mg10 O28 2.160954 1_555
Mg10 O20 2.160954 1_555
Mg11 O23 2.132411 1_555
Mg11 O29 2.132411 1_555
Mg11 O9 2.152167 1_555
Mg11 O13 2.152167 1_555
Mg11 O28 2.160954 1_655
Mg11 O21 2.160954 1_555
Mg12 O31 2.132411 1_555
Mg12 O22 2.132411 1_555
Mg12 O10 2.152167 1_555
Mg12 O14 2.152167 1_555
Mg12 O30 2.160954 1_555
Mg12 O20 2.160954 1_565
Mg13 O31 2.132411 1_555
Mg13 O23 2.132411 1_555
Mg13 O11 2.152167 1_555
Mg13 O15 2.152167 1_555
Mg13 O21 2.160954 1_565
Mg13 O30 2.160954 1_655
Mg14 O1 2.082876 1_555
Mg14 O20 2.097764 1_555
Mg14 O8 2.141469 1_555
Mg14 O10 2.141469 1_545
Mg14 O16 2.192805 1_555
Mg14 O0 2.210554 1_555
Mg15 O1 2.082876 1_555
Mg15 O21 2.097764 1_555
Mg15 O9 2.141469 1_555
Mg15 O11 2.141469 1_545
Mg15 O17 2.192805 1_555
Mg15 O0 2.210554 1_655
Mg16 O3 2.120946 1_555
Mg16 O18 2.132931 1_555
Mg16 O10 2.153815 1_555
Mg16 O8 2.153815 1_555
Mg16 O22 2.161825 1_555
Mg16 O2 2.176576 1_555
Mg17 O3 2.120946 1_555
Mg17 O19 2.132931 1_555
Mg17 O11 2.153815 1_555
Mg17 O9 2.153815 1_555
Mg17 O23 2.161825 1_555
Mg17 O2 2.176576 1_655
Mg18 O5 2.082876 1_555
Mg18 O20 2.097764 1_555
Mg18 O12 2.141469 1_555
Mg18 O14 2.141469 1_545
Mg18 O16 2.192805 1_556
Mg18 O4 2.210554 1_555
Mg19 O5 2.082876 1_555
Mg19 O21 2.097764 1_555
Mg19 O13 2.141469 1_555
Mg19 O15 2.141469 1_545
Mg19 O17 2.192805 1_556
Mg19 O4 2.210554 1_655
Mg20 O7 2.120946 1_555
Mg20 O18 2.132931 1_556
Mg20 O14 2.153815 1_555
Mg20 O12 2.153815 1_555
Mg20 O22 2.161825 1_555
Mg20 O6 2.176576 1_555
Mg21 O7 2.120946 1_555
Mg21 O19 2.132931 1_556
Mg21 O15 2.153815 1_555
Mg21 O13 2.153815 1_555
Mg21 O23 2.161825 1_555
Mg21 O6 2.176576 1_655
Mg22 O2 2.082876 1_555
Mg22 O28 2.097764 1_555
Mg22 O8 2.141469 1_555
Mg22 O9 2.141469 1_455
Mg22 O24 2.192805 1_555
Mg22 O0 2.210554 1_555
Mg23 O3 2.120946 1_555
Mg23 O25 2.132931 1_555
Mg23 O9 2.153815 1_555
Mg23 O8 2.153815 1_555
Mg23 O29 2.161825 1_555
Mg23 O1 2.176576 1_555
Mg24 O2 2.082876 1_555
Mg24 O30 2.097764 1_555
Mg24 O10 2.141469 1_555
Mg24 O11 2.141469 1_455
Mg24 O26 2.192805 1_555
Mg24 O0 2.210554 1_565
Mg25 O3 2.120946 1_555
Mg25 O27 2.132931 1_555
Mg25 O11 2.153815 1_555
Mg25 O10 2.153815 1_555
Mg25 O31 2.161825 1_555
Mg25 O1 2.176576 1_565
Mg26 O6 2.082876 1_555
Mg26 O28 2.097764 1_555
Mg26 O12 2.141469 1_555
Mg26 O13 2.141469 1_455
Mg26 O24 2.192805 1_556
Mg26 O4 2.210554 1_555
Mg27 O7 2.120946 1_555
Mg27 O25 2.132931 1_556
Mg27 O13 2.153815 1_555
Mg27 O12 2.153815 1_555
Mg27 O29 2.161825 1_555
Mg27 O5 2.176576 1_555
Mg28 O6 2.082876 1_555
Mg28 O30 2.097764 1_555
Mg28 O14 2.141469 1_555
Mg28 O15 2.141469 1_455
Mg28 O26 2.192805 1_556
Mg28 O4 2.210554 1_565
Mg29 O7 2.120946 1_555
Mg29 O27 2.132931 1_556
Mg29 O15 2.153815 1_555
Mg29 O14 2.153815 1_555
Mg29 O31 2.161825 1_555
Mg29 O5 2.176576 1_565
Cu0 O27 2.256219 1_555
Cu0 O19 2.256219 1_555
Cu0 O25 2.256219 1_555
Cu0 O18 2.256219 1_555
Cu0 O3 2.258494 1_555
Cu0 O7 2.258494 1_554
O0 Y0 2.226339 1_555
O4 Y0 2.226339 1_556
O16 Y0 2.213708 1_555
O17 Y0 2.213708 1_655
O24 Y0 2.213708 1_555
O26 Y0 2.213708 1_565
