# generated using pymatgen
data_Ba5Yb2ZrAl2O13
_symmetry_space_group_name_H-M   'P 1'
_cell_length_a   6.01792171
_cell_length_b   6.01792171
_cell_length_c   25.45762300
_cell_angle_alpha   90.00000000
_cell_angle_beta   90.00000000
_cell_angle_gamma   119.99999686
_symmetry_Int_Tables_number   1
_chemical_formula_structural   Ba5Yb2ZrAl2O13
_chemical_formula_sum   'Ba10 Yb4 Zr2 Al4 O26'
_cell_volume   798.43867232
_cell_formula_units_Z   2
loop_
 _symmetry_equiv_pos_site_id
 _symmetry_equiv_pos_as_xyz
  1  'x, y, z'
loop_
 _atom_site_type_symbol
 _atom_site_label
 _atom_site_symmetry_multiplicity
 _atom_site_fract_x
 _atom_site_fract_y
 _atom_site_fract_z
 _atom_site_occupancy
  Ba  Ba0  1  0.33333300  0.66666700  0.54189300  1
  Ba  Ba1  1  0.66666700  0.33333300  0.45810700  1
  Ba  Ba2  1  0.66666700  0.33333300  0.04189300  1
  Ba  Ba3  1  0.33333300  0.66666700  0.95810700  1
  Ba  Ba4  1  0.00000000  0.00000000  0.13704100  1
  Ba  Ba5  1  0.00000000  0.00000000  0.86295900  1
  Ba  Ba6  1  0.00000000  0.00000000  0.63704100  1
  Ba  Ba7  1  0.00000000  0.00000000  0.36295900  1
  Ba  Ba8  1  0.33333300  0.66666700  0.25000000  1
  Ba  Ba9  1  0.66666700  0.33333300  0.75000000  1
  Yb  Yb0  1  0.33333300  0.66666700  0.10621000  1
  Yb  Yb1  1  0.66666700  0.33333300  0.89379000  1
  Yb  Yb2  1  0.66666700  0.33333300  0.60621000  1
  Yb  Yb3  1  0.33333300  0.66666700  0.39379000  1
  Zr  Zr0  1  0.00000000  0.00000000  0.00000000  1
  Zr  Zr1  1  0.00000000  0.00000000  0.50000000  1
  Al  Al0  1  0.33333300  0.66666700  0.68186000  1
  Al  Al1  1  0.66666700  0.33333300  0.31814000  1
  Al  Al2  1  0.66666700  0.33333300  0.18186000  1
  Al  Al3  1  0.33333300  0.66666700  0.81814000  1
  O  O0  1  0.50584500  0.01168900  0.16022700  1
  O  O1  1  0.49415500  0.98831100  0.83977300  1
  O  O2  1  0.98831100  0.49415500  0.16022700  1
  O  O3  1  0.49415500  0.98831100  0.66022700  1
  O  O4  1  0.01168900  0.50584500  0.83977300  1
  O  O5  1  0.50584500  0.01168900  0.33977300  1
  O  O6  1  0.50584500  0.49415500  0.16022700  1
  O  O7  1  0.01168900  0.50584500  0.66022700  1
  O  O8  1  0.49415500  0.50584500  0.83977300  1
  O  O9  1  0.98831100  0.49415500  0.33977300  1
  O  O10  1  0.49415500  0.50584500  0.66022700  1
  O  O11  1  0.50584500  0.49415500  0.33977300  1
  O  O12  1  0.16218500  0.32437000  0.04946500  1
  O  O13  1  0.83781500  0.67563000  0.95053500  1
  O  O14  1  0.67563000  0.83781500  0.04946500  1
  O  O15  1  0.83781500  0.67563000  0.54946500  1
  O  O16  1  0.32437000  0.16218500  0.95053500  1
  O  O17  1  0.16218500  0.32437000  0.45053500  1
  O  O18  1  0.16218500  0.83781500  0.04946500  1
  O  O19  1  0.32437000  0.16218500  0.54946500  1
  O  O20  1  0.83781500  0.16218500  0.95053500  1
  O  O21  1  0.67563000  0.83781500  0.45053500  1
  O  O22  1  0.83781500  0.16218500  0.54946500  1
  O  O23  1  0.16218500  0.83781500  0.45053500  1
  O  O24  1  0.33333300  0.66666700  0.75000000  1
  O  O25  1  0.66666700  0.33333300  0.25000000  1
loop_
_geom_bond_atom_site_label_1
_geom_bond_atom_site_label_2
_geom_bond_distance
_geom_bond_site_symmetry_2
Ba0 O23 2.931138 1_555
Ba0 O17 2.931141 1_555
Ba0 O21 2.931141 1_555
Ba0 O15 3.015488 1_455
Ba0 O19 3.015488 1_565
Ba0 O22 3.015491 1_565
Ba0 O22 3.015491 1_455
Ba0 O19 3.015494 1_555
Ba0 O15 3.015494 1_555
Ba1 O22 2.931138 1_555
Ba1 O15 2.931141 1_555
Ba1 O19 2.931141 1_555
Ba1 O17 3.015488 1_655
Ba1 O21 3.015488 1_545
Ba1 O23 3.015491 1_655
Ba1 O23 3.015491 1_545
Ba1 O17 3.015494 1_555
Ba1 O21 3.015494 1_555
Ba2 O20 2.931138 1_554
Ba2 O13 2.931141 1_554
Ba2 O16 2.931141 1_554
Ba2 O14 3.015488 1_545
Ba2 O12 3.015488 1_655
Ba2 O18 3.015491 1_655
Ba2 O18 3.015491 1_545
Ba2 O12 3.015494 1_555
Ba2 O14 3.015494 1_555
Ba3 O18 2.931138 1_556
Ba3 O14 2.931141 1_556
Ba3 O12 2.931141 1_556
Ba3 O13 3.015488 1_455
Ba3 O16 3.015488 1_565
Ba3 O20 3.015491 1_565
Ba3 O20 3.015491 1_455
Ba3 O16 3.015494 1_555
Ba3 O13 3.015494 1_555
Ba4 O18 2.797926 1_545
Ba4 O12 2.797926 1_555
Ba4 O14 2.797926 1_445
Ba4 O0 3.066911 1_455
Ba4 O2 3.066911 1_455
Ba4 O6 3.066915 1_555
Ba4 O6 3.066915 1_445
Ba4 O2 3.066917 1_445
Ba4 O0 3.066917 1_555
Ba5 O20 2.797926 1_455
Ba5 O16 2.797926 1_555
Ba5 O13 2.797926 1_445
Ba5 O4 3.066911 1_545
Ba5 O1 3.066911 1_545
Ba5 O8 3.066915 1_555
Ba5 O8 3.066915 1_445
Ba5 O1 3.066917 1_445
Ba5 O4 3.066917 1_555
Ba6 O22 2.797926 1_455
Ba6 O19 2.797926 1_555
Ba6 O15 2.797926 1_445
Ba6 O7 3.066911 1_545
Ba6 O3 3.066911 1_545
Ba6 O10 3.066915 1_555
Ba6 O10 3.066915 1_445
Ba6 O3 3.066917 1_445
Ba6 O7 3.066917 1_555
Ba7 O23 2.797926 1_545
Ba7 O17 2.797926 1_555
Ba7 O21 2.797926 1_445
Ba7 O9 3.066911 1_455
Ba7 O5 3.066911 1_455
Ba7 O11 3.066915 1_445
Ba7 O11 3.066915 1_555
Ba7 O9 3.066917 1_445
Ba7 O5 3.066917 1_555
Ba8 O9 2.907989 1_455
Ba8 O2 2.907989 1_455
Ba8 O0 2.907989 1_565
Ba8 O5 2.907989 1_565
Ba8 O6 2.907995 1_555
Ba8 O11 2.907995 1_555
Ba9 O1 2.907989 1_545
Ba9 O3 2.907989 1_545
Ba9 O7 2.907989 1_655
Ba9 O4 2.907989 1_655
Ba9 O8 2.907995 1_555
Ba9 O10 2.907995 1_555
Al0 O24 1.734682 1_555
Al0 O10 1.764452 1_555
Al0 O7 1.764452 1_555
Al0 O3 1.764452 1_555
Al1 O25 1.734682 1_555
Al1 O11 1.764452 1_555
Al1 O5 1.764452 1_555
Al1 O9 1.764452 1_555
Al2 O25 1.734682 1_555
Al2 O6 1.764452 1_555
Al2 O0 1.764452 1_555
Al2 O2 1.764452 1_555
Al3 O24 1.734682 1_555
Al3 O8 1.764452 1_555
Al3 O4 1.764452 1_555
Al3 O1 1.764452 1_555
O0 Yb0 2.263700 1_545
O1 Yb1 2.263700 1_565
O2 Yb0 2.263700 1_655
O3 Yb2 2.263700 1_565
O4 Yb1 2.263700 1_455
O5 Yb3 2.263700 1_545
O6 Yb0 2.263708 1_555
O7 Yb2 2.263700 1_455
O8 Yb1 2.263708 1_555
O9 Yb3 2.263700 1_655
O10 Yb2 2.263708 1_555
O11 Yb3 2.263708 1_555
O12 Zr0 2.107976 1_555
O12 Yb0 2.295494 1_555
O13 Zr0 2.107976 1_666
O13 Yb1 2.295494 1_555
O14 Zr0 2.107976 1_665
O14 Yb0 2.295494 1_555
O15 Zr1 2.107976 1_665
O15 Yb2 2.295494 1_555
O16 Zr0 2.107976 1_556
O16 Yb1 2.295494 1_555
O17 Zr1 2.107976 1_555
O17 Yb3 2.295494 1_555
O18 Zr0 2.107976 1_565
O18 Yb0 2.295489 1_555
O19 Zr1 2.107976 1_555
O19 Yb2 2.295494 1_555
O20 Zr0 2.107976 1_656
O20 Yb1 2.295489 1_555
O21 Zr1 2.107976 1_665
O21 Yb3 2.295494 1_555
O22 Zr1 2.107976 1_655
O22 Yb2 2.295489 1_555
O23 Zr1 2.107976 1_565
O23 Yb3 2.295489 1_555
