# generated using pymatgen
data_Sr3B3N5
_symmetry_space_group_name_H-M   'P 1'
_cell_length_a   6.37933500
_cell_length_b   6.93051986
_cell_length_c   7.54538749
_cell_angle_alpha   78.50615705
_cell_angle_beta   80.23856306
_cell_angle_gamma   87.38702440
_symmetry_Int_Tables_number   1
_chemical_formula_structural   Sr3B3N5
_chemical_formula_sum   'Sr6 B6 N10'
_cell_volume   322.15060264
_cell_formula_units_Z   2
loop_
 _symmetry_equiv_pos_site_id
 _symmetry_equiv_pos_as_xyz
  1  'x, y, z'
loop_
 _atom_site_type_symbol
 _atom_site_label
 _atom_site_symmetry_multiplicity
 _atom_site_fract_x
 _atom_site_fract_y
 _atom_site_fract_z
 _atom_site_occupancy
  Sr  Sr0  1  0.27307000  0.04800700  0.37989200  1
  Sr  Sr1  1  0.72693000  0.95199300  0.62010800  1
  Sr  Sr2  1  0.88553700  0.71279800  0.13739400  1
  Sr  Sr3  1  0.11446300  0.28720200  0.86260600  1
  Sr  Sr4  1  0.66301000  0.44302200  0.70315800  1
  Sr  Sr5  1  0.33699000  0.55697800  0.29684200  1
  B  B0  1  0.41062000  0.90329500  0.97895800  1
  B  B1  1  0.58938000  0.09670500  0.02104200  1
  B  B2  1  0.91450500  0.30296000  0.40985000  1
  B  B3  1  0.08549500  0.69704000  0.59015000  1
  B  B4  1  0.79829100  0.28893300  0.19775800  1
  B  B5  1  0.20170900  0.71106700  0.80224200  1
  N  N0  1  0.02690600  0.32450500  0.21301400  1
  N  N1  1  0.97309400  0.67549500  0.78698600  1
  N  N2  1  0.67771900  0.32076600  0.37754800  1
  N  N3  1  0.32228100  0.67923400  0.62245200  1
  N  N4  1  0.52778400  0.89747200  0.13706100  1
  N  N5  1  0.47221600  0.10252800  0.86293900  1
  N  N6  1  0.00708700  0.76081900  0.42396400  1
  N  N7  1  0.99291300  0.23918100  0.57603600  1
  N  N8  1  0.72464900  0.24415100  0.04208800  1
  N  N9  1  0.27535100  0.75584900  0.95791200  1
loop_
_geom_bond_atom_site_label_1
_geom_bond_atom_site_label_2
_geom_bond_distance
_geom_bond_site_symmetry_2
B0 N9 1.416203 1_555
B0 N4 1.504599 1_556
B0 N5 1.509446 1_565
B1 N8 1.416203 1_555
B1 N5 1.504599 1_554
B1 N4 1.509446 1_545
B2 N7 1.410520 1_555
B2 N0 1.517413 1_655
B2 N2 1.565955 1_555
B3 N6 1.410520 1_555
B3 N1 1.517413 1_455
B3 N3 1.565955 1_555
B4 N8 1.429118 1_555
B4 N2 1.493518 1_555
B4 N0 1.517239 1_655
B5 N9 1.429118 1_555
B5 N3 1.493518 1_555
B5 N1 1.517239 1_455
N0 Sr3 2.669801 1_554
N0 Sr0 2.675472 1_555
N0 Sr2 2.778854 1_455
N0 Sr5 2.833708 1_555
N1 Sr2 2.669801 1_556
N1 Sr1 2.675472 1_555
N1 Sr3 2.778854 1_655
N1 Sr4 2.833708 1_555
N2 Sr5 2.739083 1_555
N2 Sr4 2.739896 1_555
N2 Sr1 2.870156 1_545
N2 Sr0 3.263968 1_555
N3 Sr4 2.739083 1_555
N3 Sr5 2.739896 1_555
N3 Sr0 2.870156 1_565
N3 Sr1 3.263968 1_555
N4 Sr2 2.565347 1_555
N4 Sr0 2.585265 1_565
N4 Sr5 2.670969 1_555
N5 Sr3 2.565347 1_555
N5 Sr1 2.585265 1_545
N5 Sr4 2.670969 1_555
N6 Sr2 2.503266 1_455
N6 Sr0 2.608459 1_565
N6 Sr1 2.609326 1_455
N6 Sr5 2.632381 1_555
N7 Sr3 2.503266 1_655
N7 Sr1 2.608459 1_545
N7 Sr0 2.609326 1_655
N7 Sr4 2.632381 1_555
N8 Sr3 2.621382 1_654
N8 Sr4 2.735183 1_554
N9 Sr2 2.621382 1_456
N9 Sr5 2.735183 1_556
