# generated using pymatgen
data_Mg14ZnW
_symmetry_space_group_name_H-M   'P 1'
_cell_length_a   6.24432329
_cell_length_b   6.23325791
_cell_length_c   9.95677491
_cell_angle_alpha   90.00000000
_cell_angle_beta   90.00000000
_cell_angle_gamma   119.94140287
_symmetry_Int_Tables_number   1
_chemical_formula_structural   Mg14ZnW
_chemical_formula_sum   'Mg14 Zn1 W1'
_cell_volume   335.81951486
_cell_formula_units_Z   1
loop_
 _symmetry_equiv_pos_site_id
 _symmetry_equiv_pos_as_xyz
  1  'x, y, z'
loop_
 _atom_site_type_symbol
 _atom_site_label
 _atom_site_symmetry_multiplicity
 _atom_site_fract_x
 _atom_site_fract_y
 _atom_site_fract_z
 _atom_site_occupancy
  Mg  Mg0  1  0.16823732  0.33411816  0.62500000  1
  Mg  Mg1  1  0.16735551  0.83367725  0.62500000  1
  Mg  Mg2  1  0.66758125  0.33553943  0.12500000  1
  Mg  Mg3  1  0.66531889  0.33353254  0.62500000  1
  Mg  Mg4  1  0.66758125  0.83204082  0.12500000  1
  Mg  Mg5  1  0.66531889  0.83178535  0.62500000  1
  Mg  Mg6  1  0.32617168  0.15871792  0.36121672  1
  Mg  Mg7  1  0.32617168  0.15871792  0.88878328  1
  Mg  Mg8  1  0.32617168  0.66745476  0.36121672  1
  Mg  Mg9  1  0.32617168  0.66745476  0.88878328  1
  Mg  Mg10  1  0.83785076  0.16892588  0.37079716  1
  Mg  Mg11  1  0.83785076  0.16892588  0.87920284  1
  Mg  Mg12  1  0.84443557  0.67221828  0.36706752  1
  Mg  Mg13  1  0.84443557  0.67221828  0.88293248  1
  Zn  Zn0  1  0.16543956  0.33271928  0.12500000  1
  W  W0  1  0.16390796  0.83195348  0.12500000  1
loop_
_geom_bond_atom_site_label_1
_geom_bond_atom_site_label_2
_geom_bond_distance
_geom_bond_site_symmetry_2
Mg0 Mg10 3.098715 1_455
Mg0 Mg11 3.098715 1_455
Mg0 Mg5 3.105761 1_555
Mg0 Mg3 3.105762 1_555
Mg0 Mg1 3.116633 1_555
Mg0 Mg1 3.116633 1_545
Mg0 Mg5 3.138565 1_445
Mg0 Mg3 3.138565 1_455
Mg0 Mg6 3.184708 1_555
Mg0 Mg7 3.184708 1_555
Mg0 Mg8 3.184714 1_555
Mg0 Mg9 3.184714 1_555
Mg1 Mg12 3.106216 1_455
Mg1 Mg13 3.106216 1_455
Mg1 Mg3 3.115347 1_565
Mg1 Mg5 3.115347 1_555
Mg1 Mg3 3.129009 1_455
Mg1 Mg5 3.129010 1_455
Mg1 Mg8 3.159242 1_555
Mg1 Mg9 3.159242 1_555
Mg1 Mg6 3.159248 1_565
Mg1 Mg7 3.159248 1_565
Mg2 Mg7 2.990959 1_554
Mg2 Mg6 2.990959 1_555
Mg2 Mg4 3.094821 1_555
Mg2 W0 3.099496 1_655
Mg2 Zn0 3.117599 1_655
Mg2 Zn0 3.126798 1_555
Mg2 Mg4 3.138437 1_545
Mg2 W0 3.144827 1_545
Mg3 Mg5 3.105738 1_555
Mg3 Mg5 3.127520 1_545
Mg3 Mg6 3.204186 1_555
Mg3 Mg7 3.204186 1_555
Mg4 Mg9 2.990959 1_554
Mg4 Mg8 2.990959 1_555
Mg4 W0 3.099496 1_655
Mg4 Zn0 3.117599 1_665
Mg4 Zn0 3.126798 1_555
Mg4 W0 3.144827 1_555
Mg5 Mg8 3.204186 1_555
Mg5 Mg9 3.204186 1_555
Mg6 W0 2.940548 1_545
Mg6 Zn0 2.966821 1_555
Mg6 Mg8 3.062170 1_545
Mg6 Mg8 3.171088 1_555
Mg7 W0 2.940548 1_546
Mg7 Zn0 2.966821 1_556
Mg7 Mg9 3.062170 1_545
Mg7 Mg9 3.171088 1_555
Mg8 W0 2.940541 1_555
Mg8 Zn0 2.966828 1_555
Mg9 W0 2.940541 1_556
Mg9 Zn0 2.966828 1_556
Mg10 Zn0 3.021834 1_655
Mg10 Mg2 3.049715 1_555
Mg10 Mg4 3.049721 1_545
Mg10 Mg8 3.082961 1_655
Mg10 Mg6 3.082961 1_655
Mg10 Mg12 3.117054 1_555
Mg10 Mg12 3.117054 1_545
Mg10 Mg3 3.118176 1_555
Mg10 Mg5 3.118182 1_545
Mg10 Mg8 3.165249 1_545
Mg10 Mg6 3.165250 1_555
Mg11 Zn0 3.021834 1_656
Mg11 Mg2 3.049715 1_556
Mg11 Mg4 3.049721 1_546
Mg11 Mg9 3.082961 1_655
Mg11 Mg7 3.082961 1_655
Mg11 Mg13 3.117054 1_555
Mg11 Mg13 3.117054 1_545
Mg11 Mg3 3.118176 1_555
Mg11 Mg5 3.118182 1_545
Mg11 Mg9 3.165249 1_545
Mg11 Mg7 3.165250 1_555
Mg12 W0 2.966029 1_655
Mg12 Mg4 3.019823 1_555
Mg12 Mg2 3.019829 1_555
Mg12 Mg6 3.023606 1_665
Mg12 Mg8 3.023607 1_655
Mg12 Mg5 3.153765 1_555
Mg12 Mg3 3.153771 1_555
Mg12 Mg6 3.222017 1_555
Mg12 Mg8 3.222017 1_555
Mg13 W0 2.966029 1_656
Mg13 Mg4 3.019823 1_556
Mg13 Mg2 3.019829 1_556
Mg13 Mg7 3.023606 1_665
Mg13 Mg9 3.023607 1_655
Mg13 Mg5 3.153765 1_555
Mg13 Mg3 3.153771 1_555
Mg13 Mg7 3.222017 1_555
Mg13 Mg9 3.222017 1_555
W0 Zn0 3.116640 1_565
W0 Zn0 3.116640 1_555
