# generated using pymatgen
data_KNd9(Si3O13)2
_symmetry_space_group_name_H-M   'P 1'
_cell_length_a   9.65317854
_cell_length_b   9.65317854
_cell_length_c   7.16388100
_cell_angle_alpha   90.00000000
_cell_angle_beta   90.00000000
_cell_angle_gamma   120.00000371
_symmetry_Int_Tables_number   1
_chemical_formula_structural   KNd9(Si3O13)2
_chemical_formula_sum   'K1 Nd9 Si6 O26'
_cell_volume   578.12221263
_cell_formula_units_Z   1
loop_
 _symmetry_equiv_pos_site_id
 _symmetry_equiv_pos_as_xyz
  1  'x, y, z'
loop_
 _atom_site_type_symbol
 _atom_site_label
 _atom_site_symmetry_multiplicity
 _atom_site_fract_x
 _atom_site_fract_y
 _atom_site_fract_z
 _atom_site_occupancy
  K  K0  1  0.00000000  0.00000000  0.00495500  1
  Nd  Nd0  1  0.09147800  0.43498400  0.25450700  1
  Nd  Nd1  1  0.56501600  0.65649500  0.25450700  1
  Nd  Nd2  1  0.34350500  0.90852200  0.25450700  1
  Nd  Nd3  1  0.57874700  0.89969100  0.75849200  1
  Nd  Nd4  1  0.10030900  0.67905600  0.75849200  1
  Nd  Nd5  1  0.32094400  0.42125300  0.75849200  1
  Nd  Nd6  1  0.00000000  0.00000000  0.50567600  1
  Nd  Nd7  1  0.66666700  0.33333300  0.00391500  1
  Nd  Nd8  1  0.66666700  0.33333300  0.50431400  1
  Si  Si0  1  0.96422300  0.69461600  0.26062100  1
  Si  Si1  1  0.30538400  0.26960700  0.26062100  1
  Si  Si2  1  0.73039300  0.03577700  0.26062100  1
  Si  Si3  1  0.69973300  0.63404800  0.74927200  1
  Si  Si4  1  0.36595200  0.06568500  0.74927200  1
  Si  Si5  1  0.93431500  0.30026700  0.74927200  1
  O  O0  1  0.33333300  0.66666700  0.25947200  1
  O  O1  1  0.33333300  0.66666700  0.75711800  1
  O  O2  1  0.84620800  0.49734800  0.25399000  1
  O  O3  1  0.50265200  0.34886000  0.25399000  1
  O  O4  1  0.65114000  0.15379200  0.25399000  1
  O  O5  1  0.80287000  0.82661300  0.73589600  1
  O  O6  1  0.17338700  0.97625700  0.73589600  1
  O  O7  1  0.02374300  0.19713000  0.73589600  1
  O  O8  1  0.08616600  0.75330500  0.44153100  1
  O  O9  1  0.24669500  0.33286100  0.44153100  1
  O  O10  1  0.66713900  0.91383400  0.44153100  1
  O  O11  1  0.58673500  0.57032300  0.93905500  1
  O  O12  1  0.42967700  0.01641200  0.93905500  1
  O  O13  1  0.98358800  0.41326500  0.93905500  1
  O  O14  1  0.08588500  0.74819300  0.07976200  1
  O  O15  1  0.25180700  0.33769200  0.07976200  1
  O  O16  1  0.66230800  0.91411500  0.07976200  1
  O  O17  1  0.57768500  0.55860000  0.56851900  1
  O  O18  1  0.44140000  0.01908500  0.56851900  1
  O  O19  1  0.98091500  0.42231500  0.56851900  1
  O  O20  1  0.85655100  0.78125600  0.27928100  1
  O  O21  1  0.21874400  0.07529400  0.27928100  1
  O  O22  1  0.92470600  0.14344900  0.27928100  1
  O  O23  1  0.80350200  0.54011200  0.75372400  1
  O  O24  1  0.45988800  0.26339000  0.75372400  1
  O  O25  1  0.73661000  0.19649800  0.75372400  1
loop_
_geom_bond_atom_site_label_1
_geom_bond_atom_site_label_2
_geom_bond_distance
_geom_bond_site_symmetry_2
K0 O5 2.636819 1_444
K0 O7 2.636819 1_554
K0 O6 2.636819 1_544
K0 O22 2.704516 1_455
K0 O20 2.704521 1_445
K0 O21 2.704522 1_555
K0 O15 2.982996 1_555
K0 O16 2.982996 1_445
K0 O14 2.982996 1_545
Nd0 O0 2.287431 1_555
Nd0 O22 2.452054 1_455
Nd0 O13 2.453009 1_454
Nd0 O19 2.466572 1_455
Nd0 O15 2.509595 1_555
Nd0 O9 2.547357 1_555
Nd0 O2 2.719093 1_455
Nd1 O0 2.287431 1_555
Nd1 O20 2.452055 1_555
Nd1 O11 2.453013 1_554
Nd1 O17 2.466576 1_555
Nd1 O16 2.509587 1_555
Nd1 O10 2.547350 1_555
Nd1 O3 2.719103 1_555
Nd2 O0 2.287431 1_555
Nd2 O21 2.452038 1_565
Nd2 O12 2.453011 1_564
Nd2 O18 2.466574 1_565
Nd2 O14 2.509588 1_555
Nd2 O8 2.547351 1_555
Nd2 O4 2.719100 1_565
Nd3 O1 2.311566 1_555
Nd3 O10 2.405442 1_555
Nd3 O16 2.419672 1_556
Nd3 O25 2.483191 1_565
Nd3 O18 2.542912 1_565
Nd3 O12 2.575815 1_565
Nd3 O5 2.594375 1_555
Nd4 O1 2.311561 1_555
Nd4 O8 2.405442 1_555
Nd4 O14 2.419672 1_556
Nd4 O23 2.483191 1_455
Nd4 O19 2.542912 1_455
Nd4 O13 2.575815 1_455
Nd4 O6 2.594375 1_555
Nd5 O1 2.311571 1_555
Nd5 O9 2.405442 1_555
Nd5 O15 2.419672 1_556
Nd5 O24 2.483191 1_555
Nd5 O17 2.542912 1_555
Nd5 O11 2.575815 1_555
Nd5 O7 2.594374 1_555
Nd6 O5 2.440824 1_445
Nd6 O7 2.440824 1_555
Nd6 O6 2.440824 1_545
Nd6 O22 2.466312 1_455
Nd6 O20 2.466318 1_445
Nd6 O21 2.466319 1_555
Nd7 O4 2.444580 1_555
Nd7 O2 2.444583 1_555
Nd7 O3 2.444587 1_555
Nd7 O25 2.510961 1_554
Nd7 O23 2.510966 1_554
Nd7 O24 2.510967 1_554
Nd7 O13 2.794638 1_554
Nd7 O12 2.794641 1_554
Nd7 O11 2.794647 1_554
Nd8 O4 2.445888 1_555
Nd8 O2 2.445890 1_555
Nd8 O3 2.445894 1_555
Nd8 O25 2.506970 1_555
Nd8 O23 2.506975 1_555
Nd8 O24 2.506976 1_555
Nd8 O19 2.746962 1_555
Nd8 O18 2.746964 1_555
Nd8 O17 2.746971 1_555
O2 Si0 1.660398 1_555
O3 Si1 1.660398 1_555
O4 Si2 1.660398 1_555
O5 Si3 1.614030 1_555
O6 Si4 1.614030 1_565
O7 Si5 1.614030 1_455
O8 Si0 1.649056 1_455
O9 Si1 1.649056 1_555
O10 Si2 1.649056 1_565
O11 Si3 1.657015 1_555
O12 Si4 1.657015 1_555
O13 Si5 1.657015 1_555
O14 Si0 1.648658 1_455
O15 Si1 1.648658 1_555
O16 Si2 1.648658 1_565
O17 Si3 1.654438 1_555
O18 Si4 1.654438 1_555
O19 Si5 1.654438 1_555
O20 Si0 1.633078 1_555
O21 Si1 1.633086 1_555
O22 Si2 1.633086 1_555
O23 Si3 1.653782 1_555
O24 Si4 1.653782 1_555
O25 Si5 1.653782 1_555
