# generated using pymatgen
data_NaMg3Si3HO10
_symmetry_space_group_name_H-M   'P 1'
_cell_length_a   8.95047056
_cell_length_b   9.73276719
_cell_length_c   10.41047443
_cell_angle_alpha   65.85921636
_cell_angle_beta   83.57145942
_cell_angle_gamma   64.16504800
_symmetry_Int_Tables_number   1
_chemical_formula_structural   NaMg3Si3HO10
_chemical_formula_sum   'Na4 Mg12 Si12 H4 O40'
_cell_volume   742.43154681
_cell_formula_units_Z   4
loop_
 _symmetry_equiv_pos_site_id
 _symmetry_equiv_pos_as_xyz
  1  'x, y, z'
loop_
 _atom_site_type_symbol
 _atom_site_label
 _atom_site_symmetry_multiplicity
 _atom_site_fract_x
 _atom_site_fract_y
 _atom_site_fract_z
 _atom_site_occupancy
  Na  Na0  1  0.00000000  0.50000000  0.50000000  1
  Na  Na1  1  0.16444600  0.14787400  0.54275400  1
  Na  Na2  1  0.83555400  0.85212600  0.45724600  1
  Na  Na3  1  0.50000000  0.00000000  0.00000000  1
  Mg  Mg0  1  0.36705600  0.33491200  0.44379900  1
  Mg  Mg1  1  0.63294400  0.66508800  0.55620100  1
  Mg  Mg2  1  0.25804500  0.26853700  0.74262700  1
  Mg  Mg3  1  0.74195500  0.73146300  0.25737300  1
  Mg  Mg4  1  0.06428300  0.05909300  0.35087000  1
  Mg  Mg5  1  0.93571700  0.94090700  0.64913000  1
  Mg  Mg6  1  0.65925900  0.63435200  0.04220200  1
  Mg  Mg7  1  0.34074100  0.36564800  0.95779800  1
  Mg  Mg8  1  0.04528600  0.05838900  0.84390000  1
  Mg  Mg9  1  0.95471400  0.94161100  0.15610000  1
  Mg  Mg10  1  0.15073300  0.16412000  0.05573600  1
  Mg  Mg11  1  0.84926700  0.83588000  0.94426400  1
  Si  Si0  1  0.25384900  0.65347900  0.54851400  1
  Si  Si1  1  0.74615100  0.34652100  0.45148600  1
  Si  Si2  1  0.43934700  0.05578000  0.30095400  1
  Si  Si3  1  0.56065300  0.94422000  0.69904600  1
  Si  Si4  1  0.23251000  0.65941500  0.05712600  1
  Si  Si5  1  0.76749000  0.34058500  0.94287400  1
  Si  Si6  1  0.66477100  0.23861700  0.24370900  1
  Si  Si7  1  0.33522900  0.76138300  0.75629100  1
  Si  Si8  1  0.35467700  0.75372600  0.25054900  1
  Si  Si9  1  0.64532300  0.24627400  0.74945100  1
  Si  Si10  1  0.05835000  0.43886800  0.19246600  1
  Si  Si11  1  0.94165000  0.56113200  0.80753400  1
  H  H0  1  0.65746300  0.05305700  0.07834000  1
  H  H1  1  0.34253700  0.94694300  0.92166000  1
  H  H2  1  0.05979200  0.64071800  0.30513000  1
  H  H3  1  0.94020800  0.35928200  0.69487000  1
  O  O0  1  0.14289200  0.40181700  0.34092000  1
  O  O1  1  0.85710800  0.59818300  0.65908000  1
  O  O2  1  0.06601400  0.83193400  0.00950500  1
  O  O3  1  0.93398600  0.16806600  0.99049500  1
  O  O4  1  0.12527500  0.39262800  0.86994600  1
  O  O5  1  0.87472500  0.60737200  0.13005400  1
  O  O6  1  0.50598000  0.19534500  0.31510400  1
  O  O7  1  0.49402000  0.80465500  0.68489600  1
  O  O8  1  0.24589800  0.48304200  0.56370500  1
  O  O9  1  0.75410200  0.51695800  0.43629500  1
  O  O10  1  0.65237700  0.37867000  0.30155300  1
  O  O11  1  0.34762300  0.62133000  0.69844700  1
  O  O12  1  0.62632100  0.33676700  0.06453100  1
  O  O13  1  0.37367900  0.66323300  0.93546900  1
  O  O14  1  0.38966200  0.67813200  0.42493600  1
  O  O15  1  0.61033800  0.32186800  0.57506400  1
  O  O16  1  0.18506400  0.92892200  0.20632100  1
  O  O17  1  0.81493600  0.07107800  0.79367900  1
  O  O18  1  0.38885600  0.14363000  0.12750600  1
  O  O19  1  0.61114400  0.85637000  0.87249400  1
  O  O20  1  0.52174500  0.75013200  0.16885600  1
  O  O21  1  0.47825500  0.24986700  0.83114400  1
  O  O22  1  0.04078100  0.28635900  0.18056000  1
  O  O23  1  0.95921900  0.71364100  0.81944000  1
  O  O24  1  0.25564900  0.05488900  0.91320300  1
  O  O25  1  0.74435100  0.94511100  0.08679700  1
  O  O26  1  0.19811800  0.49893700  0.07428800  1
  O  O27  1  0.80188200  0.50106300  0.92571200  1
  O  O28  1  0.39925700  0.12910400  0.63510600  1
  O  O29  1  0.60074300  0.87089600  0.36489400  1
  O  O30  1  0.28804100  0.04293700  0.39275900  1
  O  O31  1  0.71195900  0.95706300  0.60724100  1
  O  O32  1  0.08789000  0.82660300  0.51432500  1
  O  O33  1  0.91211000  0.17339700  0.48567500  1
  O  O34  1  0.31224500  0.62027800  0.21118000  1
  O  O35  1  0.68775500  0.37972200  0.78882000  1
  O  O36  1  0.84183700  0.08202400  0.27386600  1
  O  O37  1  0.15816300  0.91797600  0.72613400  1
  O  O38  1  0.04150500  0.26747100  0.69005200  1
  O  O39  1  0.95849500  0.73252900  0.30994800  1
loop_
_geom_bond_atom_site_label_1
_geom_bond_atom_site_label_2
_geom_bond_distance
_geom_bond_site_symmetry_2
Na0 O38 2.223440 1_555
Na0 O39 2.223440 1_455
Na0 O1 2.246447 1_455
Na0 O0 2.246447 1_555
Na0 O8 2.287306 1_555
Na0 O9 2.287306 1_455
Na1 O30 2.153643 1_555
Na1 O38 2.209756 1_555
Na1 O33 2.281787 1_455
Na1 O37 2.290398 1_545
Na1 O28 2.312770 1_555
Na1 O0 2.447080 1_555
Na2 O31 2.153643 1_555
Na2 O39 2.209756 1_555
Na2 O32 2.281787 1_655
Na2 O36 2.290398 1_565
Na2 O29 2.312770 1_555
Na2 O1 2.447080 1_555
Na3 O18 2.171601 1_555
Na3 O19 2.171601 1_544
Na3 O25 2.216861 1_545
Na3 O24 2.216861 1_554
Na3 O21 2.282423 1_554
Na3 O20 2.282430 1_545
Mg0 O0 2.090140 1_555
Mg0 O28 2.103358 1_555
Mg0 O8 2.149190 1_555
Mg0 O6 2.197674 1_555
Mg1 O1 2.090140 1_555
Mg1 O29 2.103358 1_555
Mg1 O9 2.149190 1_555
Mg1 O7 2.197674 1_555
Mg2 O28 2.030476 1_555
Mg2 O38 2.077440 1_555
Mg2 O4 2.081697 1_555
Mg2 O24 2.118417 1_555
Mg2 O8 2.122883 1_555
Mg2 O21 2.173606 1_555
Mg3 O29 2.030476 1_555
Mg3 O39 2.077440 1_555
Mg3 O5 2.081697 1_555
Mg3 O25 2.118417 1_555
Mg3 O9 2.122883 1_555
Mg3 O20 2.173611 1_555
Mg4 O30 2.022591 1_555
Mg4 O36 2.116671 1_455
Mg4 O22 2.133206 1_555
Mg4 O32 2.138851 1_545
Mg4 O33 2.142575 1_455
Mg4 O16 2.244931 1_545
Mg5 O31 2.022591 1_555
Mg5 O37 2.116671 1_655
Mg5 O23 2.133206 1_555
Mg5 O33 2.138851 1_565
Mg5 O32 2.142575 1_655
Mg5 O17 2.244931 1_565
Mg6 O20 2.041161 1_555
Mg6 O19 2.052495 1_554
Mg6 O27 2.068817 1_554
Mg6 O5 2.093266 1_555
Mg7 O21 2.041166 1_555
Mg7 O18 2.052495 1_556
Mg7 O26 2.068817 1_556
Mg7 O4 2.093266 1_555
Mg8 O38 1.998391 1_555
Mg8 O37 2.069093 1_545
Mg8 O24 2.072436 1_555
Mg8 O2 2.114615 1_546
Mg8 O17 2.122738 1_455
Mg8 O3 2.127484 1_455
Mg9 O39 1.998391 1_555
Mg9 O36 2.069093 1_565
Mg9 O25 2.072436 1_555
Mg9 O3 2.114615 1_564
Mg9 O16 2.122738 1_655
Mg9 O2 2.127484 1_655
Mg10 O22 2.007571 1_555
Mg10 O24 2.078946 1_554
Mg10 O16 2.086046 1_545
Mg10 O3 2.105969 1_454
Mg10 O4 2.208533 1_554
Mg10 O18 2.237137 1_555
Mg11 O23 2.007571 1_555
Mg11 O25 2.078946 1_556
Mg11 O17 2.086046 1_565
Mg11 O2 2.105969 1_656
Mg11 O5 2.208533 1_556
Mg11 O19 2.237137 1_555
H0 O25 0.971547 1_545
H0 Na3 2.038207 1_555
H1 O24 0.971547 1_565
H1 Na3 2.038207 1_566
H2 O39 0.971281 1_455
H2 Na0 2.097799 1_555
H3 O38 0.971281 1_655
H3 Na0 2.097799 1_655
O0 Si10 1.630738 1_555
O1 Si11 1.630738 1_555
O2 Si4 1.609218 1_555
O3 Si5 1.609218 1_555
O4 Si11 1.682647 1_455
O5 Si10 1.682647 1_655
O6 Si6 1.666993 1_555
O6 Si2 1.764065 1_555
O7 Si7 1.666993 1_555
O7 Si3 1.764065 1_555
O8 Si0 1.633266 1_555
O9 Si1 1.633266 1_555
O10 Si6 1.660616 1_555
O10 Si1 1.704017 1_555
O11 Si7 1.660616 1_555
O11 Si0 1.704017 1_555
O12 Si5 1.687012 1_554
O12 Si6 1.705911 1_555
O13 Si4 1.687012 1_556
O13 Si7 1.705911 1_555
O14 Si8 1.664086 1_555
O14 Si0 1.685779 1_555
O15 Si9 1.664086 1_555
O15 Si1 1.685779 1_555
O16 Si8 1.637803 1_555
O17 Si9 1.637803 1_555
O18 Si2 1.666995 1_555
O19 Si3 1.666995 1_555
O20 Si8 1.629268 1_555
O21 Si9 1.629269 1_555
O22 Si10 1.612955 1_555
O23 Si11 1.612955 1_555
O26 Si4 1.656701 1_555
O26 Si10 1.767723 1_555
O27 Si5 1.656701 1_555
O27 Si11 1.767723 1_555
O28 Si3 1.654650 1_545
O29 Si2 1.654650 1_565
O30 Si2 1.588414 1_555
O31 Si3 1.588414 1_555
O32 Si0 1.618239 1_555
O33 Si1 1.618239 1_555
O34 Si4 1.657163 1_555
O34 Si8 1.702743 1_555
O35 Si5 1.657163 1_555
O35 Si9 1.702743 1_555
O36 Si6 1.596222 1_555
O37 Si7 1.596222 1_555
