# generated using pymatgen
data_BaLaAgSe3
_symmetry_space_group_name_H-M   'P 1'
_cell_length_a   7.51277005
_cell_length_b   7.51277005
_cell_length_c   11.29294700
_cell_angle_alpha   90.00000000
_cell_angle_beta   90.00000000
_cell_angle_gamma   145.88272460
_symmetry_Int_Tables_number   1
_chemical_formula_structural   BaLaAgSe3
_chemical_formula_sum   'Ba2 La2 Ag2 Se6'
_cell_volume   357.50665122
_cell_formula_units_Z   2
loop_
 _symmetry_equiv_pos_site_id
 _symmetry_equiv_pos_as_xyz
  1  'x, y, z'
loop_
 _atom_site_type_symbol
 _atom_site_label
 _atom_site_symmetry_multiplicity
 _atom_site_fract_x
 _atom_site_fract_y
 _atom_site_fract_z
 _atom_site_occupancy
  Ba  Ba0  1  0.25255900  0.74744100  0.25000000  1
  Ba  Ba1  1  0.74744100  0.25255900  0.75000000  1
  La  La0  1  0.00000000  0.00000000  0.50000000  1
  La  La1  1  0.00000000  0.00000000  0.00000000  1
  Ag  Ag0  1  0.53221800  0.46778200  0.25000000  1
  Ag  Ag1  1  0.46778200  0.53221800  0.75000000  1
  Se  Se0  1  0.64012800  0.35987100  0.44142600  1
  Se  Se1  1  0.35987200  0.64012800  0.55857400  1
  Se  Se2  1  0.64012800  0.35987100  0.05857400  1
  Se  Se3  1  0.35987200  0.64012800  0.94142600  1
  Se  Se4  1  0.92111500  0.07888500  0.25000000  1
  Se  Se5  1  0.07888500  0.92111500  0.75000000  1
loop_
_geom_bond_atom_site_label_1
_geom_bond_atom_site_label_2
_geom_bond_distance
_geom_bond_site_symmetry_2
Ba0 Se4 3.274045 1_565
Ba0 Se4 3.274045 1_455
Ba0 Se0 3.484037 1_565
Ba0 Se2 3.484037 1_565
Ba0 Se0 3.484040 1_455
Ba0 Se2 3.484040 1_455
Ba0 Se1 3.810435 1_555
Ba0 Se3 3.810435 1_554
Ba1 Se5 3.274045 1_545
Ba1 Se5 3.274045 1_655
Ba1 Se3 3.484042 1_655
Ba1 Se1 3.484042 1_655
Ba1 Se3 3.484042 1_545
Ba1 Se1 3.484042 1_545
Ba1 Se2 3.810432 1_556
Ba1 Se0 3.810432 1_555
La0 Se5 3.042150 1_545
La0 Se4 3.042150 1_455
La0 Se1 3.057162 1_555
La0 Se1 3.057162 1_445
La0 Se0 3.057165 1_555
La0 Se0 3.057168 1_445
La1 Se5 3.042150 1_544
La1 Se4 3.042150 1_455
La1 Se3 3.057162 1_554
La1 Se3 3.057162 1_444
La1 Se2 3.057165 1_555
La1 Se2 3.057168 1_445
Ag0 Se0 2.660069 1_555
Ag0 Se2 2.660069 1_555
Ag0 Se4 2.721043 1_565
Ag0 Se4 2.721043 1_455
Ag1 Se3 2.660065 1_555
Ag1 Se1 2.660065 1_555
Ag1 Se5 2.721043 1_655
Ag1 Se5 2.721043 1_545
