# generated using pymatgen
data_K3TcC4(N2O)2
_symmetry_space_group_name_H-M   'P 1'
_cell_length_a   6.51963040
_cell_length_b   7.13369222
_cell_length_c   7.64173390
_cell_angle_alpha   106.48527986
_cell_angle_beta   110.65441799
_cell_angle_gamma   105.63898507
_symmetry_Int_Tables_number   1
_chemical_formula_structural   K3TcC4(N2O)2
_chemical_formula_sum   'K3 Tc1 C4 N4 O2'
_cell_volume   290.57211617
_cell_formula_units_Z   1
loop_
 _symmetry_equiv_pos_site_id
 _symmetry_equiv_pos_as_xyz
  1  'x, y, z'
loop_
 _atom_site_type_symbol
 _atom_site_label
 _atom_site_symmetry_multiplicity
 _atom_site_fract_x
 _atom_site_fract_y
 _atom_site_fract_z
 _atom_site_occupancy
  K  K0  1  0.50000000  0.00000000  0.00000000  1
  K  K1  1  0.95599100  0.66464900  0.30023800  1
  K  K2  1  0.04400900  0.33535100  0.69976200  1
  Tc  Tc0  1  0.50000000  0.50000000  0.50000000  1
  C  C0  1  0.40214900  0.59841400  0.25604100  1
  C  C1  1  0.59785100  0.40158600  0.74395900  1
  C  C2  1  0.82113600  0.78825600  0.66815700  1
  C  C3  1  0.17886400  0.21174400  0.33184300  1
  N  N0  1  0.34968100  0.65738500  0.12430100  1
  N  N1  1  0.65031900  0.34261500  0.87569900  1
  N  N2  1  0.00157600  0.94189200  0.74481100  1
  N  N3  1  0.99842400  0.05810800  0.25518900  1
  O  O0  1  0.34339800  0.63005000  0.60539200  1
  O  O1  1  0.65660200  0.36995000  0.39460800  1
loop_
_geom_bond_atom_site_label_1
_geom_bond_atom_site_label_2
_geom_bond_distance
_geom_bond_site_symmetry_2
K0 N1 2.918780 1_554
K0 N0 2.918780 1_545
K0 N2 2.979721 1_544
K0 N3 2.979721 1_555
K0 O1 2.993194 1_555
K0 O0 2.993194 1_544
K1 N3 2.875792 1_565
K1 O0 2.895832 1_655
K1 O1 2.896667 1_555
K1 N1 2.918020 1_554
K2 N2 2.875792 1_545
K2 O1 2.895832 1_455
K2 O0 2.896667 1_555
K2 N0 2.918020 1_556
C0 N0 1.175788 1_555
C0 Tc0 2.126177 1_555
C1 N1 1.175788 1_555
C1 Tc0 2.126177 1_555
C2 N2 1.175846 1_655
C2 Tc0 2.131764 1_555
C3 N3 1.175846 1_455
C3 Tc0 2.131764 1_555
O0 Tc0 1.794008 1_555
O1 Tc0 1.794008 1_555
