# generated using pymatgen
data_ScZn2
_symmetry_space_group_name_H-M   'P 1'
_cell_length_a   5.22584519
_cell_length_b   5.22584525
_cell_length_c   8.42472586
_cell_angle_alpha   90.00004643
_cell_angle_beta   89.99995731
_cell_angle_gamma   119.99914032
_symmetry_Int_Tables_number   1
_chemical_formula_structural   ScZn2
_chemical_formula_sum   'Sc4 Zn8'
_cell_volume   199.25226046
_cell_formula_units_Z   4
loop_
 _symmetry_equiv_pos_site_id
 _symmetry_equiv_pos_as_xyz
  1  'x, y, z'
loop_
 _atom_site_type_symbol
 _atom_site_label
 _atom_site_symmetry_multiplicity
 _atom_site_fract_x
 _atom_site_fract_y
 _atom_site_fract_z
 _atom_site_occupancy
  Sc  Sc0  1  0.33333250  0.66666752  0.56131183  1
  Sc  Sc1  1  0.66666728  0.33333281  0.06139883  1
  Sc  Sc2  1  0.66666728  0.33333287  0.43863961  1
  Sc  Sc3  1  0.33333246  0.66666762  0.93864907  1
  Zn  Zn0  1  0.99999986  0.99999999  0.00007952  1
  Zn  Zn1  1  0.99999981  1.00000004  0.49992085  1
  Zn  Zn2  1  0.17080496  0.34160442  0.25021561  1
  Zn  Zn3  1  0.82921351  0.17078646  0.74978478  1
  Zn  Zn4  1  0.34157477  0.17078946  0.74978420  1
  Zn  Zn5  1  0.65839562  0.82919503  0.25021570  1
  Zn  Zn6  1  0.17080141  0.82919852  0.25021570  1
  Zn  Zn7  1  0.82921053  0.65842526  0.74978429  1
loop_
_geom_bond_atom_site_label_1
_geom_bond_atom_site_label_2
_geom_bond_distance
_geom_bond_site_symmetry_2
Sc0 Zn6 3.005553 1_555
Sc0 Zn5 3.005563 1_555
Sc0 Zn2 3.005564 1_555
Sc0 Zn4 3.057766 1_555
Sc0 Zn7 3.057767 1_555
Sc0 Zn4 3.057772 1_565
Sc0 Zn7 3.057773 1_455
Sc0 Zn3 3.057801 1_565
Sc0 Zn3 3.057801 1_455
Sc0 Zn1 3.061133 1_455
Sc0 Zn1 3.061180 1_555
Sc0 Zn1 3.061181 1_445
Sc0 Sc3 3.178963 1_555
Sc0 Sc2 3.189236 1_555
Sc0 Sc2 3.189256 1_455
Sc0 Sc2 3.189257 1_565
Sc1 Zn3 3.009424 1_554
Sc1 Zn7 3.009439 1_554
Sc1 Zn4 3.009439 1_554
Sc1 Zn2 3.059269 1_555
Sc1 Zn5 3.059269 1_555
Sc1 Zn2 3.059289 1_655
Sc1 Zn5 3.059289 1_545
Sc1 Zn6 3.059308 1_655
Sc1 Zn6 3.059308 1_545
Sc1 Zn0 3.061031 1_545
Sc1 Zn0 3.061078 1_555
Sc1 Zn0 3.061079 1_445
Sc1 Sc2 3.178150 1_555
Sc1 Sc3 3.189450 1_554
Sc1 Sc3 3.189467 1_544
Sc1 Sc3 3.189467 1_654
Sc2 Zn3 3.005981 1_555
Sc2 Zn4 3.005984 1_555
Sc2 Zn7 3.005985 1_555
Sc2 Zn5 3.057551 1_555
Sc2 Zn2 3.057551 1_555
Sc2 Zn2 3.057567 1_655
Sc2 Zn5 3.057567 1_545
Sc2 Zn6 3.057587 1_655
Sc2 Zn6 3.057588 1_545
Sc2 Zn1 3.060978 1_545
Sc2 Zn1 3.061024 1_555
Sc2 Zn1 3.061025 1_445
Sc3 Zn6 3.009008 1_556
Sc3 Zn2 3.009021 1_556
Sc3 Zn5 3.009022 1_556
Sc3 Zn7 3.059483 1_555
Sc3 Zn4 3.059483 1_555
Sc3 Zn7 3.059492 1_455
Sc3 Zn4 3.059492 1_565
Sc3 Zn3 3.059514 1_565
Sc3 Zn3 3.059514 1_455
Sc3 Zn0 3.061187 1_456
Sc3 Zn0 3.061237 1_556
Sc3 Zn0 3.061238 1_446
Zn0 Zn6 2.613605 1_655
Zn0 Zn2 2.613618 1_665
Zn0 Zn5 2.613618 1_555
Zn0 Zn3 2.614601 1_564
Zn0 Zn7 2.614620 1_554
Zn0 Zn4 2.614621 1_664
Zn1 Zn6 2.610676 1_655
Zn1 Zn5 2.610692 1_555
Zn1 Zn2 2.610693 1_665
Zn1 Zn3 2.611672 1_565
Zn1 Zn4 2.611688 1_665
Zn1 Zn7 2.611688 1_555
Zn2 Zn6 2.548101 1_555
Zn2 Zn5 2.548106 1_555
Zn2 Zn6 2.677745 1_545
Zn2 Zn5 2.677807 1_445
Zn3 Zn4 2.548332 1_555
Zn3 Zn7 2.548333 1_555
Zn3 Zn7 2.677513 1_545
Zn3 Zn4 2.677513 1_655
Zn4 Zn7 2.548342 1_555
Zn4 Zn7 2.677571 1_445
Zn5 Zn6 2.548101 1_555
Zn5 Zn6 2.677744 1_655
