# generated using pymatgen
data_CdIClO3
_symmetry_space_group_name_H-M   'P 1'
_cell_length_a   9.02625344
_cell_length_b   9.02625344
_cell_length_c   7.44836200
_cell_angle_alpha   90.00000000
_cell_angle_beta   90.00000000
_cell_angle_gamma   131.59144265
_symmetry_Int_Tables_number   1
_chemical_formula_structural   CdIClO3
_chemical_formula_sum   'Cd4 I4 Cl4 O12'
_cell_volume   453.85565827
_cell_formula_units_Z   4
loop_
 _symmetry_equiv_pos_site_id
 _symmetry_equiv_pos_as_xyz
  1  'x, y, z'
loop_
 _atom_site_type_symbol
 _atom_site_label
 _atom_site_symmetry_multiplicity
 _atom_site_fract_x
 _atom_site_fract_y
 _atom_site_fract_z
 _atom_site_occupancy
  Cd  Cd0  1  0.35254100  0.14745900  0.75000000  1
  Cd  Cd1  1  0.14745900  0.35254100  0.25000000  1
  Cd  Cd2  1  0.64745900  0.85254100  0.25000000  1
  Cd  Cd3  1  0.85254100  0.64745900  0.75000000  1
  I  I0  1  0.59614100  0.40385900  0.27797400  1
  I  I1  1  0.40385900  0.59614100  0.72202600  1
  I  I2  1  0.90385900  0.09614100  0.77797400  1
  I  I3  1  0.09614100  0.90385900  0.22202600  1
  Cl  Cl0  1  0.20623400  0.79376600  0.66713500  1
  Cl  Cl1  1  0.79376600  0.20623400  0.33286500  1
  Cl  Cl2  1  0.29376600  0.70623400  0.16713500  1
  Cl  Cl3  1  0.70623400  0.29376600  0.83286500  1
  O  O0  1  0.40590900  0.21110500  0.43522000  1
  O  O1  1  0.21110500  0.40590900  0.56478000  1
  O  O2  1  0.71110600  0.90590900  0.93522000  1
  O  O3  1  0.90590900  0.71110500  0.06478000  1
  O  O4  1  0.59409100  0.78889500  0.56478000  1
  O  O5  1  0.78889500  0.59409100  0.43522000  1
  O  O6  1  0.28889500  0.09409100  0.06478000  1
  O  O7  1  0.09409100  0.28889500  0.93522000  1
  O  O8  1  0.48574400  0.51425600  0.22222500  1
  O  O9  1  0.51425600  0.48574400  0.77777500  1
  O  O10  1  0.01425600  0.98574400  0.72222500  1
  O  O11  1  0.98574400  0.01425600  0.27777500  1
loop_
_geom_bond_atom_site_label_1
_geom_bond_atom_site_label_2
_geom_bond_distance
_geom_bond_site_symmetry_2
Cd0 O10 2.362135 1_545
Cd0 O9 2.362135 1_555
Cd0 O0 2.385750 1_555
Cd0 O6 2.385750 1_556
Cd0 Cl3 2.592254 1_555
Cd0 Cl0 2.592254 1_545
Cd1 O11 2.362135 1_455
Cd1 O8 2.362135 1_555
Cd1 O7 2.385750 1_554
Cd1 O1 2.385750 1_555
Cd1 Cl2 2.592254 1_555
Cd1 Cl1 2.592254 1_455
Cd2 O8 2.362135 1_555
Cd2 O11 2.362135 1_565
Cd2 O4 2.385750 1_555
Cd2 O2 2.385751 1_554
Cd2 Cl2 2.592254 1_555
Cd2 Cl1 2.592254 1_565
Cd3 O9 2.362135 1_555
Cd3 O10 2.362135 1_655
Cd3 O5 2.385750 1_555
Cd3 O3 2.385750 1_556
Cd3 Cl3 2.592254 1_555
Cd3 Cl0 2.592254 1_655
I0 O0 1.838741 1_555
I0 O5 1.838741 1_555
I0 O8 1.864567 1_555
I1 O1 1.838741 1_555
I1 O4 1.838741 1_555
I1 O9 1.864567 1_555
I2 O2 1.838738 1_545
I2 O7 1.838741 1_655
I2 O10 1.864567 1_645
I3 O6 1.838741 1_565
I3 O3 1.838741 1_455
I3 O11 1.864567 1_465
