# generated using pymatgen
data_Pr5P12Ru19
_symmetry_space_group_name_H-M   'P 1'
_cell_length_a   12.57812755
_cell_length_b   12.57802406
_cell_length_c   4.01650881
_cell_angle_alpha   90.00000000
_cell_angle_beta   90.00000000
_cell_angle_gamma   120.00027213
_symmetry_Int_Tables_number   1
_chemical_formula_structural   Pr5P12Ru19
_chemical_formula_sum   'Pr5 P12 Ru19'
_cell_volume   550.30895550
_cell_formula_units_Z   1
loop_
 _symmetry_equiv_pos_site_id
 _symmetry_equiv_pos_as_xyz
  1  'x, y, z'
loop_
 _atom_site_type_symbol
 _atom_site_label
 _atom_site_symmetry_multiplicity
 _atom_site_fract_x
 _atom_site_fract_y
 _atom_site_fract_z
 _atom_site_occupancy
  Pr  Pr0  1  0.81586727  0.00000000  0.50000000  1
  Pr  Pr1  1  0.00002133  0.81588793  0.50000000  1
  Pr  Pr2  1  0.18413340  0.18411207  0.50000000  1
  Pr  Pr3  1  0.33332883  0.66667655  0.00000000  1
  Pr  Pr4  1  0.66665328  0.33332345  0.00000000  1
  P  P0  1  0.18869832  1.00000000  0.00000000  1
  P  P1  1  0.00000102  0.18868678  0.00000000  1
  P  P2  1  0.81131424  0.81131322  0.00000000  1
  P  P3  1  0.52485596  0.69626878  0.50000000  1
  P  P4  1  0.30374340  0.82860868  0.50000000  1
  P  P5  1  0.17139186  0.47513578  0.50000000  1
  P  P6  1  0.47513473  0.17139132  0.50000000  1
  P  P7  1  0.69625609  0.52486422  0.50000000  1
  P  P8  1  0.82858718  0.30373122  0.50000000  1
  P  P9  1  0.62428973  0.00000000  0.00000000  1
  P  P10  1  0.00002365  0.62432242  0.00000000  1
  P  P11  1  0.37570123  0.37567758  0.00000000  1
  Ru  Ru0  1  0.44524316  0.00000000  0.00000000  1
  Ru  Ru1  1  0.00001217  0.44527570  0.00000000  1
  Ru  Ru2  1  0.55473647  0.55472430  0.00000000  1
  Ru  Ru3  1  0.28561322  1.00000000  0.50000000  1
  Ru  Ru4  1  0.00000289  0.28561590  0.50000000  1
  Ru  Ru5  1  0.71438699  0.71438410  0.50000000  1
  Ru  Ru6  1  0.62108639  0.80577485  0.00000000  1
  Ru  Ru7  1  0.19423027  0.81532156  0.00000000  1
  Ru  Ru8  1  0.18468942  0.37890262  0.00000000  1
  Ru  Ru9  1  0.37890871  0.18467844  0.00000000  1
  Ru  Ru10  1  0.80578680  0.62109738  0.00000000  1
  Ru  Ru11  1  0.81531154  0.19422515  0.00000000  1
  Ru  Ru12  1  0.50798434  0.87606390  0.50000000  1
  Ru  Ru13  1  0.12392988  0.63194151  0.50000000  1
  Ru  Ru14  1  0.36807421  0.49200711  0.50000000  1
  Ru  Ru15  1  0.49198837  0.36805849  0.50000000  1
  Ru  Ru16  1  0.87606710  0.50799289  0.50000000  1
  Ru  Ru17  1  0.63192044  0.12393610  0.50000000  1
  Ru  Ru18  1  0.00002610  -0.00000000  0.00000000  1
loop_
_geom_bond_atom_site_label_1
_geom_bond_atom_site_label_2
_geom_bond_distance
_geom_bond_site_symmetry_2
Pr0 Ru18 3.065725 1_655
Pr0 Ru18 3.065725 1_656
Pr0 Ru5 3.154302 1_545
Pr0 Ru4 3.154302 1_655
Pr0 Ru11 3.165171 1_556
Pr0 Ru11 3.165171 1_555
Pr0 Ru6 3.165171 1_545
Pr0 Ru6 3.165171 1_546
Pr0 Ru17 3.374925 1_555
Pr0 Ru12 3.374925 1_545
Pr1 Ru18 3.065244 1_566
Pr1 Ru18 3.065244 1_565
Pr1 Ru3 3.154039 1_555
Pr1 Ru5 3.154499 1_455
Pr1 Ru7 3.165081 1_555
Pr1 Ru7 3.165081 1_556
Pr1 Ru10 3.165263 1_456
Pr1 Ru10 3.165263 1_455
Pr1 Ru13 3.374634 1_555
Pr1 Ru16 3.375008 1_455
Pr2 Ru18 3.065244 1_556
Pr2 Ru18 3.065244 1_555
Pr2 Ru3 3.154039 1_545
Pr2 Ru4 3.154499 1_555
Pr2 Ru9 3.165081 1_555
Pr2 Ru9 3.165081 1_556
Pr2 Ru8 3.165263 1_555
Pr2 Ru8 3.165263 1_556
Pr2 Ru15 3.374634 1_555
Pr2 Ru14 3.375008 1_555
Pr3 Ru7 3.134950 1_555
Pr3 Ru6 3.135105 1_555
Pr3 Ru8 3.135251 1_555
Pr3 Ru12 3.163801 1_554
Pr3 Ru12 3.163801 1_555
Pr3 Ru13 3.163919 1_554
Pr3 Ru13 3.163919 1_555
Pr3 Ru14 3.164023 1_554
Pr3 Ru14 3.164023 1_555
Pr4 Ru9 3.134961 1_555
Pr4 Ru11 3.135094 1_555
Pr4 Ru10 3.135251 1_555
Pr4 Ru17 3.163798 1_555
Pr4 Ru17 3.163798 1_554
Pr4 Ru15 3.163928 1_555
Pr4 Ru15 3.163928 1_554
Pr4 Ru16 3.164017 1_555
Pr4 Ru16 3.164017 1_554
P0 Ru3 2.349269 1_555
P0 Ru3 2.349269 1_554
P0 Ru7 2.358451 1_555
P0 Ru9 2.358451 1_565
P0 Ru18 2.373143 1_565
P0 Pr2 3.087414 1_564
P0 Pr2 3.087414 1_565
P0 Pr1 3.087414 1_555
P0 Pr1 3.087414 1_554
P1 Ru4 2.349351 1_554
P1 Ru4 2.349351 1_555
P1 Ru8 2.358545 1_555
P1 Ru11 2.358651 1_455
P1 Ru18 2.373465 1_555
P1 Pr0 3.087561 1_454
P1 Pr0 3.087561 1_455
P1 Pr2 3.087670 1_554
P1 Pr2 3.087670 1_555
P2 Ru5 2.349351 1_555
P2 Ru5 2.349351 1_554
P2 Ru10 2.358545 1_555
P2 Ru6 2.358651 1_555
P2 Ru18 2.373465 1_665
P2 Pr0 3.087561 1_565
P2 Pr0 3.087561 1_564
P2 Pr1 3.087670 1_655
P2 Pr1 3.087670 1_654
P3 Ru5 2.278578 1_555
P3 Ru14 2.328760 1_555
P3 Ru12 2.374697 1_555
P3 Ru6 2.393349 1_556
P3 Ru6 2.393349 1_555
P3 Ru2 2.830746 1_556
P3 Ru2 2.830746 1_555
P3 Pr3 3.013051 1_556
P3 Pr3 3.013051 1_555
P4 Ru3 2.278362 1_555
P4 Ru12 2.328620 1_555
P4 Ru13 2.374797 1_555
P4 Ru7 2.393372 1_555
P4 Ru7 2.393372 1_556
P4 Ru0 2.830413 1_566
P4 Ru0 2.830413 1_565
P4 Pr3 3.012975 1_556
P4 Pr3 3.012975 1_555
P5 Ru4 2.278335 1_555
P5 Ru13 2.328910 1_555
P5 Ru14 2.374912 1_555
P5 Ru8 2.393458 1_556
P5 Ru8 2.393458 1_555
P5 Ru1 2.830422 1_556
P5 Ru1 2.830422 1_555
P5 Pr3 3.013122 1_556
P5 Pr3 3.013122 1_555
P6 Ru3 2.278363 1_545
P6 Ru17 2.328619 1_555
P6 Ru15 2.374797 1_555
P6 Ru9 2.393372 1_555
P6 Ru9 2.393372 1_556
P6 Ru0 2.830413 1_555
P6 Ru0 2.830413 1_556
P6 Pr4 3.012981 1_555
P6 Pr4 3.012981 1_556
P7 Ru5 2.278335 1_555
P7 Ru15 2.328910 1_555
P7 Ru16 2.374912 1_555
P7 Ru10 2.393458 1_555
P7 Ru10 2.393458 1_556
P7 Ru2 2.830422 1_556
P7 Ru2 2.830422 1_555
P7 Pr4 3.013125 1_555
P7 Pr4 3.013125 1_556
P8 Ru4 2.278578 1_655
P8 Ru16 2.328760 1_555
P8 Ru17 2.374697 1_555
P8 Ru11 2.393349 1_555
P8 Ru11 2.393349 1_556
P8 Ru1 2.830746 1_656
P8 Ru1 2.830746 1_655
P8 Pr4 3.013042 1_555
P8 Pr4 3.013042 1_556
P9 Ru0 2.252071 1_555
P9 Ru6 2.423074 1_545
P9 Ru11 2.423074 1_555
P9 Ru17 2.514509 1_554
P9 Ru17 2.514509 1_555
P9 Ru12 2.514509 1_544
P9 Ru12 2.514509 1_545
P9 Pr0 3.136826 1_555
P9 Pr0 3.136826 1_554
P10 Ru1 2.251982 1_555
P10 Ru7 2.422816 1_555
P10 Ru10 2.423108 1_455
P10 Ru13 2.514331 1_554
P10 Ru13 2.514331 1_555
P10 Ru16 2.514677 1_455
P10 Ru16 2.514677 1_454
P10 Pr1 3.136706 1_554
P10 Pr1 3.136706 1_555
P11 Ru2 2.251982 1_555
P11 Ru9 2.422816 1_555
P11 Ru8 2.423108 1_555
P11 Ru15 2.514331 1_555
P11 Ru15 2.514331 1_554
P11 Ru14 2.514677 1_555
P11 Ru14 2.514677 1_554
P11 Pr2 3.136706 1_554
P11 Pr2 3.136706 1_555
Ru0 Ru9 2.833748 1_555
Ru0 Ru7 2.833748 1_545
Ru0 Ru12 2.883777 1_545
Ru0 Ru12 2.883777 1_544
Ru0 Ru17 2.883777 1_555
Ru0 Ru17 2.883777 1_554
Ru1 Ru8 2.834090 1_555
Ru1 Ru11 2.834142 1_455
Ru1 Ru13 2.883659 1_554
Ru1 Ru13 2.883659 1_555
Ru1 Ru16 2.883694 1_455
Ru1 Ru16 2.883694 1_454
Ru2 Ru6 2.834142 1_555
Ru3 Ru7 2.842547 1_555
Ru3 Ru7 2.842547 1_556
Ru3 Ru9 2.842547 1_566
Ru3 Ru9 2.842547 1_565
Ru4 Ru8 2.842620 1_555
Ru4 Ru8 2.842620 1_556
Ru5 Ru6 2.842658 1_556
Ru5 Ru6 2.842658 1_555
Ru10 Ru2 2.834090 1_555
Ru10 Ru5 2.842620 1_555
Ru10 Ru5 2.842620 1_554
Ru10 Ru16 2.845351 1_555
Ru10 Ru16 2.845351 1_554
Ru11 Ru4 2.842658 1_655
Ru11 Ru4 2.842658 1_654
Ru11 Ru17 2.845396 1_554
Ru11 Ru17 2.845396 1_555
Ru12 Ru17 2.700037 1_565
Ru12 Ru6 2.845396 1_556
Ru12 Ru6 2.845396 1_555
Ru13 Ru16 2.699956 1_455
Ru13 Ru7 2.845278 1_555
Ru13 Ru7 2.845278 1_556
Ru14 Ru15 2.699956 1_555
Ru14 Ru8 2.845351 1_555
Ru14 Ru8 2.845351 1_556
Ru14 Ru2 2.883694 1_556
Ru14 Ru2 2.883694 1_555
Ru15 Ru9 2.845278 1_555
Ru15 Ru9 2.845278 1_556
Ru15 Ru2 2.883659 1_556
Ru15 Ru2 2.883659 1_555
