# generated using pymatgen
data_KTl(SO4)2
_symmetry_space_group_name_H-M   'P 1'
_cell_length_a   9.18445596
_cell_length_b   9.18445596
_cell_length_c   9.18445522
_cell_angle_alpha   31.38680457
_cell_angle_beta   31.38680457
_cell_angle_gamma   31.38680829
_symmetry_Int_Tables_number   1
_chemical_formula_structural   KTl(SO4)2
_chemical_formula_sum   'K1 Tl1 S2 O8'
_cell_volume   186.53611580
_cell_formula_units_Z   1
loop_
 _symmetry_equiv_pos_site_id
 _symmetry_equiv_pos_as_xyz
  1  'x, y, z'
loop_
 _atom_site_type_symbol
 _atom_site_label
 _atom_site_symmetry_multiplicity
 _atom_site_fract_x
 _atom_site_fract_y
 _atom_site_fract_z
 _atom_site_occupancy
  K  K0  1  0.50000000  0.50000000  0.50000000  1
  Tl  Tl0  1  0.00000000  0.00000000  0.00000000  1
  S  S0  1  0.25827400  0.25827400  0.25827400  1
  S  S1  1  0.74172600  0.74172600  0.74172600  1
  O  O0  1  0.73294800  0.43200500  0.00245300  1
  O  O1  1  0.43200500  0.00245300  0.73294800  1
  O  O2  1  0.26705200  0.99754700  0.56799500  1
  O  O3  1  0.00245300  0.73294800  0.43200500  1
  O  O4  1  0.56799500  0.26705200  0.99754700  1
  O  O5  1  0.99754700  0.56799500  0.26705200  1
  O  O6  1  0.20233300  0.20233300  0.20233300  1
  O  O7  1  0.79766700  0.79766700  0.79766700  1
loop_
_geom_bond_atom_site_label_1
_geom_bond_atom_site_label_2
_geom_bond_distance
_geom_bond_site_symmetry_2
K0 O6 3.016709 1_556
K0 O7 3.016709 1_554
K0 O6 3.016710 1_655
K0 O6 3.016710 1_565
K0 O7 3.016710 1_545
K0 O7 3.016710 1_455
O0 S1 1.504813 1_554
O0 Tl0 2.280812 1_655
O1 S1 1.504813 1_545
O1 Tl0 2.280812 1_556
O2 S0 1.504813 1_565
O2 Tl0 2.280811 1_566
O3 S1 1.504813 1_455
O3 Tl0 2.280811 1_565
O4 S0 1.504813 1_556
O4 Tl0 2.280812 1_656
O5 S0 1.504813 1_655
O5 Tl0 2.280812 1_665
O6 S0 1.464252 1_555
O7 S1 1.464252 1_555
