# generated using pymatgen
data_Sr3LaTi2Mn2O12
_symmetry_space_group_name_H-M   'P 1'
_cell_length_a   9.59854356
_cell_length_b   9.59854356
_cell_length_c   9.59854397
_cell_angle_alpha   33.64919557
_cell_angle_beta   33.64919557
_cell_angle_gamma   33.64919638
_symmetry_Int_Tables_number   1
_chemical_formula_structural   Sr3LaTi2Mn2O12
_chemical_formula_sum   'Sr3 La1 Ti2 Mn2 O12'
_cell_volume   241.88625529
_cell_formula_units_Z   1
loop_
 _symmetry_equiv_pos_site_id
 _symmetry_equiv_pos_as_xyz
  1  'x, y, z'
loop_
 _atom_site_type_symbol
 _atom_site_label
 _atom_site_symmetry_multiplicity
 _atom_site_fract_x
 _atom_site_fract_y
 _atom_site_fract_z
 _atom_site_occupancy
  Sr  Sr0  1  0.24935300  0.24935300  0.24935300  1
  Sr  Sr1  1  0.00000000  0.00000000  0.00000000  1
  Sr  Sr2  1  0.75064700  0.75064700  0.75064700  1
  La  La0  1  0.50000000  0.50000000  0.50000000  1
  Ti  Ti0  1  0.62469500  0.62469500  0.62469500  1
  Ti  Ti1  1  0.37530500  0.37530500  0.37530500  1
  Mn  Mn0  1  0.12514800  0.12514800  0.12514800  1
  Mn  Mn1  1  0.87485200  0.87485200  0.87485200  1
  O  O0  1  0.00000000  0.50000000  0.00000000  1
  O  O1  1  0.74563900  0.25438100  0.74563900  1
  O  O2  1  0.50000000  0.00000000  0.50000000  1
  O  O3  1  0.25436100  0.74561900  0.25436100  1
  O  O4  1  0.25436100  0.25436100  0.74561900  1
  O  O5  1  0.00000000  0.00000000  0.50000000  1
  O  O6  1  0.74563900  0.74563900  0.25438100  1
  O  O7  1  0.50000000  0.50000000  0.00000000  1
  O  O8  1  0.74561900  0.25436100  0.25436100  1
  O  O9  1  0.50000000  0.00000000  0.00000000  1
  O  O10  1  0.25438100  0.74563900  0.74563900  1
  O  O11  1  0.00000000  0.50000000  0.50000000  1
loop_
_geom_bond_atom_site_label_1
_geom_bond_atom_site_label_2
_geom_bond_distance
_geom_bond_site_symmetry_2
La0 O6 2.724448 1_555
La0 O4 2.724448 1_555
La0 O1 2.724448 1_555
La0 O10 2.724448 1_555
La0 O3 2.724448 1_555
La0 O8 2.724448 1_555
La0 O9 2.778229 1_565
La0 O0 2.778229 1_655
La0 O0 2.778229 1_556
La0 O9 2.778229 1_556
La0 O5 2.778229 1_565
La0 O5 2.778229 1_655
Mn0 O9 1.960241 1_555
Mn0 O0 1.960241 1_555
Mn0 O5 1.960241 1_555
Mn0 O8 1.965674 1_455
Mn0 O3 1.965674 1_545
Mn0 O4 1.965674 1_554
Mn1 O9 1.960241 1_566
Mn1 O0 1.960241 1_656
Mn1 O5 1.960241 1_665
Mn1 O10 1.965674 1_655
Mn1 O1 1.965674 1_565
Mn1 O6 1.965674 1_556
O0 Sr0 2.758401 1_555
O0 Sr2 2.758401 1_454
O1 Ti0 1.957930 1_555
O1 Sr0 2.778455 1_655
O1 Sr0 2.778455 1_556
O1 Sr1 2.820961 1_656
O2 Ti0 1.967334 1_545
O2 Ti1 1.967334 1_555
O2 Sr1 2.778229 1_556
O2 Sr1 2.778229 1_655
O2 Sr2 2.787046 1_545
O2 Sr0 2.787046 1_555
O3 Ti1 1.957930 1_555
O3 Sr2 2.778455 1_455
O3 Sr2 2.778455 1_554
O3 Sr1 2.820961 1_565
O4 Ti1 1.957930 1_555
O4 Sr2 2.778455 1_455
O4 Sr2 2.778455 1_545
O4 Sr1 2.820961 1_556
O5 Sr0 2.758400 1_555
O5 Sr2 2.758400 1_445
O6 Ti0 1.957930 1_555
O6 Sr0 2.778455 1_565
O6 Sr0 2.778455 1_655
O6 Sr1 2.820961 1_665
O7 Ti1 1.967334 1_555
O7 Ti0 1.967334 1_554
O7 Sr1 2.778229 1_655
O7 Sr1 2.778229 1_565
O7 Sr2 2.787046 1_554
O7 Sr0 2.787046 1_555
O8 Ti1 1.957930 1_555
O8 Sr2 2.778455 1_545
O8 Sr2 2.778455 1_554
O8 Sr1 2.820961 1_655
O9 Sr0 2.758401 1_555
O9 Sr2 2.758401 1_544
O10 Ti0 1.957930 1_555
O10 Sr0 2.778455 1_565
O10 Sr0 2.778455 1_556
O10 Sr1 2.820961 1_566
O11 Ti0 1.967334 1_455
O11 Ti1 1.967334 1_555
O11 Sr1 2.778229 1_556
O11 Sr1 2.778229 1_565
O11 Sr2 2.787046 1_455
O11 Sr0 2.787046 1_555
