# generated using pymatgen
data_Al3Fe2Si
_symmetry_space_group_name_H-M   'P 1'
_cell_length_a   7.59865998
_cell_length_b   7.59865998
_cell_length_c   7.59865998
_cell_angle_alpha   60.00000000
_cell_angle_beta   60.00000000
_cell_angle_gamma   60.00000000
_symmetry_Int_Tables_number   1
_chemical_formula_structural   Al3Fe2Si
_chemical_formula_sum   'Al12 Fe8 Si4'
_cell_volume   310.23874611
_cell_formula_units_Z   4
loop_
 _symmetry_equiv_pos_site_id
 _symmetry_equiv_pos_as_xyz
  1  'x, y, z'
loop_
 _atom_site_type_symbol
 _atom_site_label
 _atom_site_symmetry_multiplicity
 _atom_site_fract_x
 _atom_site_fract_y
 _atom_site_fract_z
 _atom_site_occupancy
  Al  Al0  1  0.80023300  0.80023300  0.19976700  1
  Al  Al1  1  0.19976700  0.19976700  0.80023300  1
  Al  Al2  1  0.80023300  0.19976700  0.80023300  1
  Al  Al3  1  0.19976700  0.80023300  0.19976700  1
  Al  Al4  1  0.19976700  0.80023300  0.80023300  1
  Al  Al5  1  0.80023300  0.19976700  0.19976700  1
  Al  Al6  1  0.44976700  0.44976700  0.05023300  1
  Al  Al7  1  0.05023300  0.05023300  0.44976700  1
  Al  Al8  1  0.44976700  0.05023300  0.44976700  1
  Al  Al9  1  0.05023300  0.44976700  0.05023300  1
  Al  Al10  1  0.05023300  0.44976700  0.44976700  1
  Al  Al11  1  0.44976700  0.05023300  0.05023300  1
  Fe  Fe0  1  0.76981400  0.41006200  0.41006200  1
  Fe  Fe1  1  0.41006200  0.76981400  0.41006200  1
  Fe  Fe2  1  0.41006200  0.41006200  0.76981400  1
  Fe  Fe3  1  0.41006200  0.41006200  0.41006200  1
  Fe  Fe4  1  0.48018600  0.83993800  0.83993800  1
  Fe  Fe5  1  0.83993800  0.48018600  0.83993800  1
  Fe  Fe6  1  0.83993800  0.83993800  0.48018600  1
  Fe  Fe7  1  0.83993800  0.83993800  0.83993800  1
  Si  Si0  1  0.12500000  0.62500000  0.62500000  1
  Si  Si1  1  0.62500000  0.12500000  0.62500000  1
  Si  Si2  1  0.62500000  0.62500000  0.12500000  1
  Si  Si3  1  0.62500000  0.62500000  0.62500000  1
loop_
_geom_bond_atom_site_label_1
_geom_bond_atom_site_label_2
_geom_bond_distance
_geom_bond_site_symmetry_2
Al0 Fe6 2.469650 1_555
Al0 Fe7 2.469650 1_554
Al0 Fe0 2.641049 1_555
Al0 Fe1 2.641049 1_555
Al0 Si2 2.674828 1_555
Al0 Si3 2.674828 1_555
Al1 Fe5 2.469650 1_455
Al1 Fe4 2.469650 1_545
Al1 Fe3 2.641049 1_555
Al1 Fe2 2.641049 1_555
Al1 Si0 2.674828 1_555
Al1 Si1 2.674828 1_555
Al2 Fe5 2.469650 1_555
Al2 Fe7 2.469650 1_545
Al2 Fe0 2.641049 1_555
Al2 Fe2 2.641049 1_555
Al2 Si1 2.674828 1_555
Al2 Si3 2.674828 1_555
Al3 Fe6 2.469650 1_455
Al3 Fe4 2.469650 1_554
Al3 Fe3 2.641049 1_555
Al3 Fe1 2.641049 1_555
Al3 Si0 2.674828 1_555
Al3 Si2 2.674828 1_555
Al4 Fe4 2.469650 1_555
Al4 Fe7 2.469650 1_455
Al4 Fe2 2.641049 1_555
Al4 Fe1 2.641049 1_555
Al4 Si3 2.674828 1_555
Al4 Si0 2.674828 1_555
Al5 Fe5 2.469650 1_554
Al5 Fe6 2.469650 1_545
Al5 Fe0 2.641049 1_555
Al5 Fe3 2.641049 1_555
Al5 Si1 2.674828 1_555
Al5 Si2 2.674828 1_555
Al6 Fe2 2.469650 1_554
Al6 Fe3 2.469650 1_555
Al6 Fe4 2.641049 1_554
Al6 Fe5 2.641049 1_554
Al6 Si3 2.674828 1_554
Al6 Si2 2.674828 1_555
Al7 Fe0 2.469650 1_455
Al7 Fe1 2.469650 1_545
Al7 Fe7 2.641049 1_445
Al7 Fe6 2.641049 1_445
Al7 Si0 2.674828 1_545
Al7 Si1 2.674828 1_455
Al8 Fe3 2.469650 1_555
Al8 Fe1 2.469650 1_545
Al8 Fe4 2.641049 1_545
Al8 Fe6 2.641049 1_545
Al8 Si3 2.674828 1_545
Al8 Si1 2.674828 1_555
Al9 Fe2 2.469650 1_554
Al9 Fe0 2.469650 1_455
Al9 Fe7 2.641049 1_454
Al9 Fe5 2.641049 1_454
Al9 Si0 2.674828 1_554
Al9 Si2 2.674828 1_455
Al10 Fe3 2.469650 1_555
Al10 Fe0 2.469650 1_455
Al10 Fe5 2.641049 1_455
Al10 Fe6 2.641049 1_455
Al10 Si3 2.674828 1_455
Al10 Si0 2.674828 1_555
Al11 Fe1 2.469650 1_545
Al11 Fe2 2.469650 1_554
Al11 Fe7 2.641049 1_544
Al11 Fe4 2.641049 1_544
Al11 Si2 2.674828 1_545
Al11 Si1 2.674828 1_554
Fe0 Si1 2.370417 1_555
Fe0 Si2 2.370417 1_555
Fe0 Si3 2.370417 1_555
Fe1 Si2 2.370417 1_555
Fe1 Si0 2.370417 1_555
Fe1 Si3 2.370417 1_555
Fe2 Si1 2.370417 1_555
Fe2 Si0 2.370417 1_555
Fe2 Si3 2.370417 1_555
Fe3 Si2 2.370417 1_555
Fe3 Si0 2.370417 1_555
Fe3 Si1 2.370417 1_555
Fe4 Si3 2.370417 1_555
Fe4 Si2 2.370417 1_556
Fe4 Si1 2.370417 1_565
Fe5 Si3 2.370417 1_555
Fe5 Si2 2.370417 1_556
Fe5 Si0 2.370417 1_655
Fe6 Si3 2.370417 1_555
Fe6 Si0 2.370417 1_655
Fe6 Si1 2.370417 1_565
Fe7 Si2 2.370417 1_556
Fe7 Si0 2.370417 1_655
Fe7 Si1 2.370417 1_565
