# generated using pymatgen
data_Li2V3CoO8
_symmetry_space_group_name_H-M   'P 1'
_cell_length_a   5.95859677
_cell_length_b   5.96304484
_cell_length_c   10.04441647
_cell_angle_alpha   89.55008749
_cell_angle_beta   106.57249565
_cell_angle_gamma   120.20171643
_symmetry_Int_Tables_number   1
_chemical_formula_structural   Li2V3CoO8
_chemical_formula_sum   'Li4 V6 Co2 O16'
_cell_volume   291.64460278
_cell_formula_units_Z   2
loop_
 _symmetry_equiv_pos_site_id
 _symmetry_equiv_pos_as_xyz
  1  'x, y, z'
loop_
 _atom_site_type_symbol
 _atom_site_label
 _atom_site_symmetry_multiplicity
 _atom_site_fract_x
 _atom_site_fract_y
 _atom_site_fract_z
 _atom_site_occupancy
  Li  Li0  1  0.87167000  0.44137100  0.31366400  1
  Li  Li1  1  0.87694300  0.93098300  0.81329900  1
  Li  Li2  1  0.12310800  0.06904200  0.18670200  1
  Li  Li3  1  0.12834200  0.55861300  0.68634100  1
  V  V0  1  0.50005400  0.00003700  0.49999100  1
  V  V1  1  0.49997700  0.49995200  0.49999000  1
  V  V2  1  0.99995500  0.49998200  0.00001000  1
  V  V3  1  0.49999100  0.50007300  0.99998500  1
  V  V4  1  0.49995300  0.99993100  0.99992600  1
  V  V5  1  0.99998900  0.00000100  0.50004800  1
  Co  Co0  1  0.49066600  0.75433700  0.24990800  1
  Co  Co1  1  0.50932000  0.24566900  0.75008800  1
  O  O0  1  0.27282200  0.14714400  0.39304000  1
  O  O1  1  0.25216500  0.62828700  0.89274600  1
  O  O2  1  0.74773900  0.37170000  0.10716100  1
  O  O3  1  0.72726500  0.85287100  0.60704900  1
  O  O4  1  0.71696400  0.09296800  0.38043800  1
  O  O5  1  0.73459900  0.58097500  0.87576800  1
  O  O6  1  0.72656700  0.64912900  0.37518800  1
  O  O7  1  0.74676300  0.14633800  0.88165800  1
  O  O8  1  0.28478100  0.64162500  0.38231600  1
  O  O9  1  0.29334400  0.12667900  0.88045000  1
  O  O10  1  0.70658500  0.87332700  0.11950400  1
  O  O11  1  0.71530000  0.35839700  0.61777200  1
  O  O12  1  0.25321600  0.85361500  0.11825800  1
  O  O13  1  0.27347400  0.35089300  0.62488600  1
  O  O14  1  0.26536700  0.41903900  0.12418800  1
  O  O15  1  0.28308200  0.90702200  0.61962600  1
loop_
_geom_bond_atom_site_label_1
_geom_bond_atom_site_label_2
_geom_bond_distance
_geom_bond_site_symmetry_2
Li0 O2 1.962481 1_555
Li0 O4 2.004946 1_555
Li0 O8 2.011974 1_655
Li0 O6 2.014628 1_555
Li1 O3 1.961470 1_555
Li1 O5 1.992778 1_555
Li1 O7 2.010501 1_565
Li1 O9 2.029174 1_665
Li2 O0 1.962297 1_555
Li2 O14 1.992923 1_555
Li2 O12 2.010904 1_545
Li2 O10 2.029774 1_445
Li3 O1 1.961565 1_555
Li3 O15 2.004711 1_555
Li3 O11 2.011639 1_455
Li3 O13 2.014282 1_555
Co0 O14 1.940758 1_555
Co0 O8 1.952608 1_555
Co0 O6 1.954142 1_555
Co0 O12 1.965715 1_555
Co0 O10 1.975520 1_555
Co0 O4 1.976947 1_565
Co1 O5 1.940607 1_555
Co1 O11 1.952186 1_555
Co1 O13 1.953636 1_555
Co1 O7 1.965521 1_555
Co1 O9 1.975387 1_555
Co1 O15 1.976695 1_545
O0 V1 1.937315 1_555
O0 V0 2.026625 1_555
O0 V5 2.028523 1_455
O1 V2 1.938694 1_456
O1 V4 2.022107 1_555
O1 V3 2.034940 1_555
O2 V2 1.937842 1_555
O2 V4 2.022837 1_544
O2 V3 2.035081 1_554
O3 V1 1.938198 1_555
O3 V0 2.027164 1_565
O3 V5 2.027991 1_565
O4 V0 1.890488 1_555
O4 V5 2.090239 1_555
O5 V2 1.980872 1_556
O5 V3 2.012636 1_555
O6 V1 1.981234 1_555
O6 V5 2.012683 1_565
O7 V2 1.987890 1_556
O7 V4 2.006173 1_545
O8 V1 1.991115 1_555
O8 V0 2.006686 1_565
O9 V4 1.898975 1_545
O9 V3 2.087015 1_555
O10 V4 1.898904 1_554
O10 V3 2.086336 1_554
O11 V1 1.991554 1_555
O11 V0 2.006907 1_555
O12 V2 1.987461 1_455
O12 V4 2.006356 1_554
O13 V1 1.981611 1_555
O13 V5 2.012711 1_455
O14 V2 1.980671 1_455
O14 V3 2.012502 1_554
O15 V0 1.891407 1_565
O15 V5 2.090492 1_465
