# generated using pymatgen
data_Sr5ZrTi4O15
_symmetry_space_group_name_H-M   'P 1'
_cell_length_a   14.38144752
_cell_length_b   14.38144752
_cell_length_c   4.01592700
_cell_angle_alpha   90.00000000
_cell_angle_beta   90.00000000
_cell_angle_gamma   157.40348738
_symmetry_Int_Tables_number   1
_chemical_formula_structural   Sr5ZrTi4O15
_chemical_formula_sum   'Sr5 Zr1 Ti4 O15'
_cell_volume   319.14834820
_cell_formula_units_Z   1
loop_
 _symmetry_equiv_pos_site_id
 _symmetry_equiv_pos_as_xyz
  1  'x, y, z'
loop_
 _atom_site_type_symbol
 _atom_site_label
 _atom_site_symmetry_multiplicity
 _atom_site_fract_x
 _atom_site_fract_y
 _atom_site_fract_z
 _atom_site_occupancy
  Sr  Sr0  1  0.89482100  0.10517900  0.50000000  1
  Sr  Sr1  1  0.70073200  0.29926800  0.50000000  1
  Sr  Sr2  1  0.29926800  0.70073200  0.50000000  1
  Sr  Sr3  1  0.50000000  0.50000000  0.50000000  1
  Sr  Sr4  1  0.10517900  0.89482100  0.50000000  1
  Zr  Zr0  1  0.00000000  0.00000000  0.00000000  1
  Ti  Ti0  1  0.60240700  0.39759300  0.00000000  1
  Ti  Ti1  1  0.20108000  0.79892000  0.00000000  1
  Ti  Ti2  1  0.79892000  0.20108000  0.00000000  1
  Ti  Ti3  1  0.39759300  0.60240700  0.00000000  1
  O  O0  1  0.60117100  0.90464600  0.00000000  1
  O  O1  1  0.39882900  0.09535400  0.00000000  1
  O  O2  1  0.00000000  0.50000000  0.00000000  1
  O  O3  1  0.20768600  0.31355900  0.00000000  1
  O  O4  1  0.79231400  0.68644100  0.00000000  1
  O  O5  1  0.79930600  0.20069400  0.50000000  1
  O  O6  1  0.60376500  0.39623500  0.50000000  1
  O  O7  1  0.20069400  0.79930600  0.50000000  1
  O  O8  1  0.39623500  0.60376500  0.50000000  1
  O  O9  1  0.00000000  0.00000000  0.50000000  1
  O  O10  1  0.09535400  0.39882900  0.00000000  1
  O  O11  1  0.90464600  0.60117100  0.00000000  1
  O  O12  1  0.50000000  0.00000000  0.00000000  1
  O  O13  1  0.68644100  0.79231400  0.00000000  1
  O  O14  1  0.31355900  0.20768600  0.00000000  1
loop_
_geom_bond_atom_site_label_1
_geom_bond_atom_site_label_2
_geom_bond_distance
_geom_bond_site_symmetry_2
O0 Ti2 1.968670 1_565
O0 Ti3 1.991752 1_555
O0 Sr0 2.774018 1_565
O0 Sr0 2.774018 1_564
O0 Sr2 2.823599 1_555
O0 Sr2 2.823599 1_554
O1 Ti1 1.968670 1_545
O1 Ti0 1.991752 1_555
O1 Sr4 2.774018 1_544
O1 Sr4 2.774018 1_545
O1 Sr1 2.823599 1_554
O1 Sr1 2.823599 1_555
O2 Ti2 1.971939 1_455
O2 Ti1 1.971939 1_555
O2 Sr2 2.819157 1_555
O2 Sr2 2.819157 1_554
O2 Sr1 2.819157 1_454
O2 Sr1 2.819157 1_455
O3 Ti3 1.940763 1_555
O3 Zr0 2.094337 1_555
O3 Sr3 2.842684 1_554
O3 Sr3 2.842684 1_555
O3 Sr0 2.891383 1_454
O3 Sr0 2.891383 1_455
O4 Ti0 1.940763 1_555
O4 Zr0 2.094337 1_665
O4 Sr3 2.842684 1_554
O4 Sr3 2.842684 1_555
O4 Sr4 2.891383 1_654
O4 Sr4 2.891383 1_655
O5 Ti2 2.007993 1_556
O5 Ti2 2.007993 1_555
O5 Sr0 2.694047 1_555
O5 Sr1 2.780328 1_555
O5 Sr2 2.817560 1_545
O5 Sr2 2.817560 1_655
O6 Ti0 2.008329 1_556
O6 Ti0 2.008329 1_555
O6 Sr1 2.735002 1_555
O6 Sr4 2.817842 1_655
O6 Sr4 2.817842 1_545
O6 Sr3 2.926742 1_555
O7 Ti1 2.007993 1_556
O7 Ti1 2.007993 1_555
O7 Sr4 2.694047 1_555
O7 Sr2 2.780328 1_555
O7 Sr1 2.817560 1_455
O7 Sr1 2.817560 1_565
O8 Ti3 2.008329 1_555
O8 Ti3 2.008329 1_556
O8 Sr2 2.735002 1_555
O8 Sr0 2.817842 1_565
O8 Sr0 2.817842 1_455
O8 Sr3 2.926742 1_555
O9 Zr0 2.007963 1_556
O9 Zr0 2.007963 1_555
O9 Sr3 2.817560 1_445
O9 Sr3 2.817560 1_555
O9 Sr0 2.966625 1_455
O9 Sr4 2.966625 1_545
O10 Ti2 1.968670 1_455
O10 Ti3 1.991752 1_555
O10 Sr0 2.774018 1_455
O10 Sr0 2.774018 1_454
O10 Sr2 2.823599 1_555
O10 Sr2 2.823599 1_554
O11 Ti1 1.968670 1_655
O11 Ti0 1.991752 1_555
O11 Sr4 2.774018 1_655
O11 Sr4 2.774018 1_654
O11 Sr1 2.823599 1_554
O11 Sr1 2.823599 1_555
O12 Ti1 1.971939 1_545
O12 Ti2 1.971939 1_555
O12 Sr2 2.819157 1_545
O12 Sr2 2.819157 1_544
O12 Sr1 2.819157 1_554
O12 Sr1 2.819157 1_555
O13 Ti3 1.940763 1_555
O13 Zr0 2.094337 1_665
O13 Sr3 2.842684 1_554
O13 Sr3 2.842684 1_555
O13 Sr0 2.891383 1_565
O13 Sr0 2.891383 1_564
O14 Ti0 1.940763 1_555
O14 Zr0 2.094337 1_555
O14 Sr3 2.842684 1_554
O14 Sr3 2.842684 1_555
O14 Sr4 2.891383 1_544
O14 Sr4 2.891383 1_545
