# generated using pymatgen
data_Mg6NbC
_symmetry_space_group_name_H-M   'P 1'
_cell_length_a   6.24738055
_cell_length_b   6.24738055
_cell_length_c   4.41119000
_cell_angle_alpha   90.00000000
_cell_angle_beta   90.00000000
_cell_angle_gamma   102.56076385
_symmetry_Int_Tables_number   1
_chemical_formula_structural   Mg6NbC
_chemical_formula_sum   'Mg6 Nb1 C1'
_cell_volume   168.04702728
_cell_formula_units_Z   1
loop_
 _symmetry_equiv_pos_site_id
 _symmetry_equiv_pos_as_xyz
  1  'x, y, z'
loop_
 _atom_site_type_symbol
 _atom_site_label
 _atom_site_symmetry_multiplicity
 _atom_site_fract_x
 _atom_site_fract_y
 _atom_site_fract_z
 _atom_site_occupancy
  Mg  Mg0  1  0.79022100  0.59655300  0.00000000  1
  Mg  Mg1  1  0.40344700  0.20977900  0.00000000  1
  Mg  Mg2  1  0.29530800  0.70469200  0.00000000  1
  Mg  Mg3  1  0.57920300  0.87847700  0.50000000  1
  Mg  Mg4  1  0.12152300  0.42079700  0.50000000  1
  Mg  Mg5  1  0.08310800  0.91689200  0.50000000  1
  Nb  Nb0  1  0.87063800  0.12936200  0.00000000  1
  C  C0  1  0.85655100  0.14344900  0.50000000  1
loop_
_geom_bond_atom_site_label_1
_geom_bond_atom_site_label_2
_geom_bond_distance
_geom_bond_site_symmetry_2
Mg0 Mg1 3.022869 1_555
Mg0 Nb0 3.067428 1_555
Mg0 Mg2 3.079966 1_655
Mg0 Nb0 3.256534 1_565
Mg0 Mg5 3.259618 1_654
Mg0 Mg5 3.259618 1_655
Mg0 Mg3 3.273322 1_555
Mg0 Mg3 3.273322 1_554
Mg0 Mg2 3.305279 1_555
Mg0 Mg4 3.367895 1_654
Mg0 Mg4 3.367895 1_655
Mg1 Nb0 3.067428 1_555
Mg1 Mg2 3.079966 1_545
Mg1 Nb0 3.256534 1_455
Mg1 Mg5 3.259618 1_545
Mg1 Mg5 3.259618 1_544
Mg1 Mg4 3.273322 1_555
Mg1 Mg4 3.273322 1_554
Mg1 Mg2 3.305279 1_555
Mg1 Mg3 3.367895 1_545
Mg1 Mg3 3.367895 1_544
Mg2 Mg4 2.889899 1_554
Mg2 Mg4 2.889899 1_555
Mg2 Mg3 2.889899 1_554
Mg2 Mg3 2.889899 1_555
Mg2 Mg5 3.023903 1_555
Mg2 Mg5 3.023903 1_554
C0 Mg4 2.120135 1_655
C0 Mg3 2.120135 1_545
C0 Mg5 2.208617 1_645
C0 Nb0 2.209866 1_555
C0 Nb0 2.209866 1_556
