# generated using pymatgen
data_Ba2Ni(PO4)2
_symmetry_space_group_name_H-M   'P 1'
_cell_length_a   5.39430304
_cell_length_b   8.93458200
_cell_length_c   16.24997500
_cell_angle_alpha   90.00000000
_cell_angle_beta   90.81521983
_cell_angle_gamma   90.00000000
_symmetry_Int_Tables_number   1
_chemical_formula_structural   Ba2Ni(PO4)2
_chemical_formula_sum   'Ba8 Ni4 P8 O32'
_cell_volume   783.10196742
_cell_formula_units_Z   4
loop_
 _symmetry_equiv_pos_site_id
 _symmetry_equiv_pos_as_xyz
  1  'x, y, z'
loop_
 _atom_site_type_symbol
 _atom_site_label
 _atom_site_symmetry_multiplicity
 _atom_site_fract_x
 _atom_site_fract_y
 _atom_site_fract_z
 _atom_site_occupancy
  Ba  Ba0  1  0.24252700  0.65380700  0.76967100  1
  Ba  Ba1  1  0.25747400  0.15380600  0.73032900  1
  Ba  Ba2  1  0.75747300  0.34619400  0.23032900  1
  Ba  Ba3  1  0.74252600  0.84619300  0.26967100  1
  Ba  Ba4  1  0.80188300  0.20304600  0.48132600  1
  Ba  Ba5  1  0.69811700  0.70304500  0.01867400  1
  Ba  Ba6  1  0.19811700  0.79695500  0.51867400  1
  Ba  Ba7  1  0.30188200  0.29695500  0.98132600  1
  Ni  Ni0  1  0.77454300  0.01156900  0.86667400  1
  Ni  Ni1  1  0.72545700  0.51156900  0.63332600  1
  Ni  Ni2  1  0.27454300  0.48843000  0.36667400  1
  Ni  Ni3  1  0.22545600  0.98843100  0.13332600  1
  P  P0  1  0.74829500  0.88753500  0.66663700  1
  P  P1  1  0.75170300  0.38753500  0.83336400  1
  P  P2  1  0.25170400  0.11246500  0.33336300  1
  P  P3  1  0.24829700  0.61246500  0.16663600  1
  P  P4  1  0.23199300  0.91380600  0.92179100  1
  P  P5  1  0.73199400  0.58619400  0.42179100  1
  P  P6  1  0.76800600  0.08619300  0.07820900  1
  P  P7  1  0.26800700  0.41380700  0.57820900  1
  O  O0  1  0.85247000  0.97000200  0.74456100  1
  O  O1  1  0.64753000  0.47000200  0.75543800  1
  O  O2  1  0.14752900  0.02999900  0.25543900  1
  O  O3  1  0.35247000  0.52999800  0.24456200  1
  O  O4  1  0.45978600  0.88728800  0.66600600  1
  O  O5  1  0.04021500  0.38728900  0.83399400  1
  O  O6  1  0.54021600  0.11271100  0.33399400  1
  O  O7  1  0.95978500  0.61271000  0.16600600  1
  O  O8  1  0.85555400  0.72412700  0.66778300  1
  O  O9  1  0.64444600  0.22412700  0.83221700  1
  O  O10  1  0.14444600  0.27587300  0.33221700  1
  O  O11  1  0.35555500  0.77587300  0.16778300  1
  O  O12  1  0.84695700  0.96993100  0.58904400  1
  O  O13  1  0.65304300  0.46993200  0.91095500  1
  O  O14  1  0.15304200  0.03006800  0.41095600  1
  O  O15  1  0.34695700  0.53006900  0.08904500  1
  O  O16  1  0.46775300  0.86584500  0.87316300  1
  O  O17  1  0.03224500  0.36584600  0.62683700  1
  O  O18  1  0.53224600  0.13415400  0.12683700  1
  O  O19  1  0.96775400  0.63415500  0.37316300  1
  O  O20  1  0.79104900  0.58841000  0.51433300  1
  O  O21  1  0.70895200  0.08841000  0.98566700  1
  O  O22  1  0.20895300  0.41159000  0.48566700  1
  O  O23  1  0.29104800  0.91158900  0.01433300  1
  O  O24  1  0.51461600  0.69498200  0.39998500  1
  O  O25  1  0.98538500  0.19498300  0.10001500  1
  O  O26  1  0.14559100  0.06998300  0.88886700  1
  O  O27  1  0.01461500  0.80501800  0.89998500  1
  O  O28  1  0.64559100  0.43001700  0.38886700  1
  O  O29  1  0.85440900  0.93001700  0.11113300  1
  O  O30  1  0.35441000  0.56998300  0.61113300  1
  O  O31  1  0.48538600  0.30501800  0.60001500  1
loop_
_geom_bond_atom_site_label_1
_geom_bond_atom_site_label_2
_geom_bond_distance
_geom_bond_site_symmetry_2
Ba0 O8 2.719394 1_455
Ba0 O1 2.745490 1_555
Ba0 O30 2.757970 1_555
Ba0 O16 2.799144 1_555
Ba0 O27 2.809807 1_555
Ba0 O5 2.825995 1_555
Ba0 O4 2.935816 1_555
Ba1 O9 2.719392 1_555
Ba1 O0 2.745487 1_445
Ba1 O26 2.757967 1_555
Ba1 O17 2.799163 1_555
Ba1 O31 2.809812 1_555
Ba1 O4 2.825995 1_545
Ba1 O5 2.935829 1_555
Ba2 O10 2.719396 1_655
Ba2 O3 2.745484 1_555
Ba2 O28 2.757966 1_555
Ba2 O18 2.799159 1_555
Ba2 O25 2.809807 1_555
Ba2 O7 2.825980 1_555
Ba2 O6 2.935825 1_555
Ba3 O11 2.719386 1_555
Ba3 O2 2.745494 1_665
Ba3 O29 2.757970 1_555
Ba3 O19 2.799149 1_555
Ba3 O24 2.809803 1_555
Ba3 O6 2.825991 1_565
Ba3 O7 2.935829 1_555
Ba4 O28 2.654142 1_555
Ba4 O14 2.710350 1_655
Ba4 O12 2.729277 1_545
Ba4 O31 2.749259 1_555
Ba4 O6 2.877418 1_555
Ba4 O22 2.879944 1_655
Ba4 O17 3.027765 1_655
Ba4 O10 3.136319 1_655
Ba5 O29 2.654148 1_555
Ba5 O15 2.710350 1_555
Ba5 O13 2.729274 1_554
Ba5 O27 2.749266 1_654
Ba5 O7 2.877421 1_555
Ba5 O23 2.879940 1_555
Ba5 O16 3.027770 1_554
Ba5 O11 3.136318 1_555
Ba6 O30 2.654150 1_555
Ba6 O12 2.710343 1_455
Ba6 O14 2.729264 1_565
Ba6 O24 2.749269 1_555
Ba6 O4 2.877418 1_555
Ba6 O20 2.879942 1_455
Ba6 O19 3.027767 1_455
Ba6 O8 3.136321 1_455
Ba7 O26 2.654147 1_555
Ba7 O13 2.710359 1_555
Ba7 O15 2.729281 1_556
Ba7 O25 2.749259 1_456
Ba7 O5 2.877415 1_555
Ba7 O21 2.879950 1_555
Ba7 O18 3.027774 1_556
Ba7 O9 3.136324 1_555
Ni0 O0 2.067836 1_545
Ni0 O21 2.086848 1_555
Ni0 O26 2.094776 1_655
Ni0 O9 2.097970 1_555
Ni0 O16 2.109502 1_545
Ni0 O27 2.314263 1_645
Ni1 O1 2.067820 1_555
Ni1 O20 2.086849 1_555
Ni1 O30 2.094771 1_555
Ni1 O8 2.097970 1_555
Ni1 O17 2.109488 1_655
Ni1 O31 2.314260 1_555
Ni2 O3 2.067822 1_555
Ni2 O22 2.086844 1_555
Ni2 O28 2.094774 1_555
Ni2 O10 2.097962 1_555
Ni2 O19 2.109503 1_455
Ni2 O24 2.314274 1_555
Ni3 O2 2.067837 1_565
Ni3 O23 2.086852 1_555
Ni3 O29 2.094771 1_455
Ni3 O11 2.097974 1_555
Ni3 O18 2.109496 1_565
Ni3 O25 2.314268 1_465
O0 P0 1.562642 1_555
O1 P1 1.562664 1_555
O2 P2 1.562638 1_555
O3 P3 1.562664 1_555
O4 P0 1.556194 1_555
O5 P1 1.556211 1_455
O6 P2 1.556211 1_555
O7 P3 1.556211 1_655
O8 P0 1.570462 1_555
O9 P1 1.570458 1_555
O10 P2 1.570460 1_555
O11 P3 1.570460 1_555
O12 P0 1.560169 1_555
O13 P1 1.560143 1_555
O14 P2 1.560173 1_555
O15 P3 1.560139 1_555
O16 P4 1.566530 1_555
O17 P7 1.566539 1_555
O18 P6 1.566530 1_555
O19 P5 1.566530 1_555
O20 P5 1.532864 1_555
O21 P6 1.532863 1_556
O22 P7 1.532863 1_555
O23 P4 1.532864 1_554
O24 P5 1.559959 1_555
O25 P6 1.559974 1_555
O26 P4 1.563153 1_545
O27 P4 1.559959 1_555
O28 P5 1.563155 1_555
O29 P6 1.563147 1_565
O30 P7 1.563147 1_555
O31 P7 1.559968 1_555
