# generated using pymatgen
data_Fe7Sb10(Cl4O9)2
_symmetry_space_group_name_H-M   'P 1'
_cell_length_a   9.84361000
_cell_length_b   10.07378036
_cell_length_c   10.07712731
_cell_angle_alpha   72.58304610
_cell_angle_beta   63.90950946
_cell_angle_gamma   65.42381363
_symmetry_Int_Tables_number   1
_chemical_formula_structural   Fe7Sb10(Cl4O9)2
_chemical_formula_sum   'Fe7 Sb10 Cl8 O18'
_cell_volume   807.81312001
_cell_formula_units_Z   1
loop_
 _symmetry_equiv_pos_site_id
 _symmetry_equiv_pos_as_xyz
  1  'x, y, z'
loop_
 _atom_site_type_symbol
 _atom_site_label
 _atom_site_symmetry_multiplicity
 _atom_site_fract_x
 _atom_site_fract_y
 _atom_site_fract_z
 _atom_site_occupancy
  Fe  Fe0  1  0.85472100  0.70504800  0.73131200  1
  Fe  Fe1  1  0.14527900  0.29495200  0.26868800  1
  Fe  Fe2  1  0.48404500  0.13634700  0.35901300  1
  Fe  Fe3  1  0.51595500  0.86365300  0.64098700  1
  Fe  Fe4  1  0.16177300  0.41180100  0.53114700  1
  Fe  Fe5  1  0.83822700  0.58819900  0.46885300  1
  Fe  Fe6  1  0.50000000  0.00000000  0.00000000  1
  Sb  Sb0  1  0.17312900  0.51858300  0.91191500  1
  Sb  Sb1  1  0.82687100  0.48141700  0.08808500  1
  Sb  Sb2  1  0.83940300  0.87010000  0.13177100  1
  Sb  Sb3  1  0.16059700  0.12990000  0.86822900  1
  Sb  Sb4  1  0.51855200  0.76601200  0.32706000  1
  Sb  Sb5  1  0.48144800  0.23398800  0.67294000  1
  Sb  Sb6  1  0.16915300  0.02781100  0.57388300  1
  Sb  Sb7  1  0.83084700  0.97218900  0.42611700  1
  Sb  Sb8  1  0.19883800  0.65442500  0.20557900  1
  Sb  Sb9  1  0.80116200  0.34557500  0.79442100  1
  Cl  Cl0  1  0.13977700  0.67653000  0.55857700  1
  Cl  Cl1  1  0.86022300  0.32347000  0.44142300  1
  Cl  Cl2  1  0.46813000  0.38977900  0.36690300  1
  Cl  Cl3  1  0.53187000  0.61022100  0.63309700  1
  Cl  Cl4  1  0.77486800  0.98144600  0.77990100  1
  Cl  Cl5  1  0.22513200  0.01855400  0.22009900  1
  Cl  Cl6  1  0.57328900  0.72219400  0.92311500  1
  Cl  Cl7  1  0.42671100  0.27780600  0.07688500  1
  O  O0  1  0.23560300  0.20345100  0.44296700  1
  O  O1  1  0.76439700  0.79654900  0.55703300  1
  O  O2  1  0.05765600  0.38975400  0.09041000  1
  O  O3  1  0.94234400  0.61024600  0.90959000  1
  O  O4  1  0.09766700  0.50428400  0.34312000  1
  O  O5  1  0.90233300  0.49571600  0.65688000  1
  O  O6  1  0.43175700  0.92307300  0.45418200  1
  O  O7  1  0.56824300  0.07692700  0.54581800  1
  O  O8  1  0.75896600  0.70501500  0.29560900  1
  O  O9  1  0.24103400  0.29498500  0.70439100  1
  O  O10  1  0.60203300  0.90553000  0.14657500  1
  O  O11  1  0.39796700  0.09447000  0.85342500  1
  O  O12  1  0.01008100  0.17920100  0.74036200  1
  O  O13  1  0.98991900  0.82079900  0.25963800  1
  O  O14  1  0.13957500  0.65568600  0.03637100  1
  O  O15  1  0.86042500  0.34431400  0.96362900  1
  O  O16  1  0.27401000  0.97386800  0.72867200  1
  O  O17  1  0.72599000  0.02613200  0.27132800  1
loop_
_geom_bond_atom_site_label_1
_geom_bond_atom_site_label_2
_geom_bond_distance
_geom_bond_site_symmetry_2
Fe0 O1 2.108830 1_555
Fe0 O3 2.129366 1_555
Fe0 O5 2.246045 1_555
Fe1 O0 2.108830 1_555
Fe1 O2 2.129366 1_555
Fe1 O4 2.246045 1_555
Fe2 O17 2.054839 1_555
Fe2 O0 2.073861 1_555
Fe2 O7 2.207708 1_555
Fe2 O6 2.247839 1_545
Fe3 O16 2.054839 1_555
Fe3 O1 2.073861 1_555
Fe3 O6 2.207708 1_555
Fe3 O7 2.247839 1_565
Fe4 O9 2.060548 1_555
Fe4 O4 2.088596 1_555
Fe4 O5 2.200299 1_455
Fe4 O0 2.236677 1_555
Fe5 O8 2.060548 1_555
Fe5 O5 2.088596 1_555
Fe5 O4 2.200299 1_655
Fe5 O1 2.236677 1_555
Fe6 O11 1.940216 1_554
Fe6 O10 1.940216 1_545
Cl0 Fe0 2.513703 1_455
Cl0 Fe4 2.672746 1_555
Cl1 Fe1 2.513703 1_655
Cl1 Fe5 2.672746 1_555
Cl2 Fe2 2.515281 1_555
Cl2 Fe4 2.675056 1_555
Cl2 Sb5 3.046003 1_555
Cl3 Fe3 2.515281 1_555
Cl3 Fe5 2.675056 1_555
Cl3 Sb4 3.046003 1_555
Cl4 Fe6 2.612301 1_566
Cl4 Fe0 2.695820 1_555
Cl5 Fe6 2.612301 1_555
Cl5 Fe1 2.695820 1_555
Cl6 Fe0 2.555847 1_555
Cl6 Fe6 2.842475 1_566
Cl6 Fe3 2.957883 1_555
Cl7 Fe1 2.555847 1_555
Cl7 Fe6 2.842475 1_555
Cl7 Fe2 2.957883 1_555
O0 Sb6 2.026133 1_555
O1 Sb7 2.026133 1_555
O2 Sb0 2.059836 1_554
O2 Sb1 2.074380 1_455
O3 Sb1 2.059836 1_556
O3 Sb0 2.074380 1_655
O4 Sb8 1.996075 1_555
O5 Sb9 1.996075 1_555
O6 Sb4 2.000145 1_555
O6 Sb6 2.236280 1_565
O7 Sb5 2.000145 1_555
O7 Sb7 2.236280 1_545
O8 Sb4 2.079860 1_555
O8 Sb2 2.102431 1_555
O9 Sb5 2.079860 1_555
O9 Sb3 2.102431 1_555
O10 Sb4 2.018508 1_555
O10 Sb2 2.154257 1_555
O11 Sb5 2.018508 1_555
O11 Sb3 2.154257 1_555
O12 Sb9 2.007287 1_455
O12 Sb3 2.187742 1_555
O12 Sb6 2.197007 1_555
O13 Sb8 2.007287 1_655
O13 Sb2 2.187742 1_555
O13 Sb7 2.197007 1_555
O14 Sb0 1.970462 1_554
O14 Sb8 2.025768 1_555
O15 Sb1 1.970462 1_556
O15 Sb9 2.025768 1_555
O16 Sb3 2.043890 1_565
O16 Sb6 2.058127 1_565
O17 Sb2 2.043890 1_545
O17 Sb7 2.058127 1_545
