# generated using pymatgen
data_MgVO2
_symmetry_space_group_name_H-M   'P 1'
_cell_length_a   8.02365483
_cell_length_b   8.02365483
_cell_length_c   11.18981628
_cell_angle_alpha   49.15981063
_cell_angle_beta   49.15981063
_cell_angle_gamma   20.93076416
_symmetry_Int_Tables_number   1
_chemical_formula_structural   MgVO2
_chemical_formula_sum   'Mg4 V4 O8'
_cell_volume   192.19815789
_cell_formula_units_Z   4
loop_
 _symmetry_equiv_pos_site_id
 _symmetry_equiv_pos_as_xyz
  1  'x, y, z'
loop_
 _atom_site_type_symbol
 _atom_site_label
 _atom_site_symmetry_multiplicity
 _atom_site_fract_x
 _atom_site_fract_y
 _atom_site_fract_z
 _atom_site_occupancy
  Mg  Mg0  1  0.65870500  0.65870500  0.25634600  1
  Mg  Mg1  1  0.34129500  0.34129500  0.74365400  1
  Mg  Mg2  1  0.91484000  0.91484000  0.42204000  1
  Mg  Mg3  1  0.08516000  0.08516000  0.57796000  1
  V  V0  1  0.43212800  0.43212800  0.90684700  1
  V  V1  1  0.84200000  0.84200000  0.23412600  1
  V  V2  1  0.15800000  0.15800000  0.76587400  1
  V  V3  1  0.56787200  0.56787200  0.09315300  1
  O  O0  1  0.17533200  0.17533200  0.92905600  1
  O  O1  1  0.60717100  0.60717100  0.68785200  1
  O  O2  1  0.39282900  0.39282900  0.31214800  1
  O  O3  1  0.82466800  0.82466800  0.07094400  1
  O  O4  1  0.92114400  0.92114400  0.77294500  1
  O  O5  1  0.20849900  0.20849900  0.34342600  1
  O  O6  1  0.07885600  0.07885600  0.22705500  1
  O  O7  1  0.79150100  0.79150100  0.65657400  1
loop_
_geom_bond_atom_site_label_1
_geom_bond_atom_site_label_2
_geom_bond_distance
_geom_bond_site_symmetry_2
Mg0 O3 1.984057 1_555
Mg0 O6 2.090104 1_565
Mg0 O6 2.090104 1_655
Mg0 O5 2.170103 1_565
Mg0 O5 2.170103 1_655
Mg1 O0 1.984057 1_555
Mg1 O4 2.090104 1_545
Mg1 O4 2.090104 1_455
Mg1 O7 2.170103 1_545
Mg1 O7 2.170103 1_455
Mg2 O7 1.970264 1_555
Mg2 O6 1.987099 1_665
Mg2 O2 2.079642 1_655
Mg2 O2 2.079642 1_565
Mg3 O5 1.970264 1_555
Mg3 O4 1.987099 1_445
Mg3 O1 2.079642 1_545
Mg3 O1 2.079642 1_455
O0 V2 2.018225 1_555
O0 V3 2.056688 1_456
O0 V3 2.056688 1_546
O1 V2 2.112123 1_655
O1 V2 2.112123 1_565
O1 V0 2.152244 1_555
O2 V1 2.112123 1_545
O2 V1 2.112123 1_455
O2 V3 2.152244 1_555
O3 V1 2.018225 1_555
O3 V0 2.056688 1_654
O3 V0 2.056688 1_564
O4 V0 2.178206 1_565
O4 V0 2.178206 1_655
O5 V1 2.152015 1_545
O5 V1 2.152015 1_455
O6 V3 2.178206 1_455
O6 V3 2.178206 1_545
O7 V2 2.152015 1_565
O7 V2 2.152015 1_655
