# generated using pymatgen
data_Ag2PbI4
_symmetry_space_group_name_H-M   'P 1'
_cell_length_a   7.73035501
_cell_length_b   7.73035501
_cell_length_c   7.73035501
_cell_angle_alpha   131.29009413
_cell_angle_beta   131.29009413
_cell_angle_gamma   71.35258378
_symmetry_Int_Tables_number   1
_chemical_formula_structural   Ag2PbI4
_chemical_formula_sum   'Ag2 Pb1 I4'
_cell_volume   255.27057985
_cell_formula_units_Z   1
loop_
 _symmetry_equiv_pos_site_id
 _symmetry_equiv_pos_as_xyz
  1  'x, y, z'
loop_
 _atom_site_type_symbol
 _atom_site_label
 _atom_site_symmetry_multiplicity
 _atom_site_fract_x
 _atom_site_fract_y
 _atom_site_fract_z
 _atom_site_occupancy
  Ag  Ag0  1  0.25000000  0.75000000  0.50000000  1
  Ag  Ag1  1  0.75000000  0.25000000  0.50000000  1
  Pb  Pb0  1  0.50000000  0.50000000  0.00000000  1
  I  I0  1  0.00000000  0.50000000  0.50000000  1
  I  I1  1  0.24466400  0.24466400  0.00000000  1
  I  I2  1  0.50000000  0.00000000  0.50000000  1
  I  I3  1  0.75533600  0.75533600  0.00000000  1
loop_
_geom_bond_atom_site_label_1
_geom_bond_atom_site_label_2
_geom_bond_distance
_geom_bond_site_symmetry_2
Ag0 I2 3.139780 1_565
Ag0 I0 3.139780 1_555
Ag0 I3 3.188612 1_455
Ag0 I1 3.188612 1_566
Ag0 I1 3.188612 1_555
Ag0 I3 3.188612 1_556
Ag1 I0 3.139780 1_655
Ag1 I2 3.139780 1_555
Ag1 I1 3.188612 1_555
Ag1 I3 3.188612 1_556
Ag1 I3 3.188612 1_545
Ag1 I1 3.188612 1_656
I0 Pb0 3.187908 1_455
I0 Pb0 3.187908 1_556
I1 Pb0 3.206795 1_555
I2 Pb0 3.187908 1_545
I2 Pb0 3.187908 1_556
I3 Pb0 3.206795 1_555
