# generated using pymatgen
data_Er6Ni20P13
_symmetry_space_group_name_H-M   'P 1'
_cell_length_a   12.52766153
_cell_length_b   12.52760058
_cell_length_c   3.71114634
_cell_angle_alpha   90.00000000
_cell_angle_beta   90.00000000
_cell_angle_gamma   119.99578770
_symmetry_Int_Tables_number   1
_chemical_formula_structural   Er6Ni20P13
_chemical_formula_sum   'Er6 Ni20 P13'
_cell_volume   504.42320105
_cell_formula_units_Z   1
loop_
 _symmetry_equiv_pos_site_id
 _symmetry_equiv_pos_as_xyz
  1  'x, y, z'
loop_
 _atom_site_type_symbol
 _atom_site_label
 _atom_site_symmetry_multiplicity
 _atom_site_fract_x
 _atom_site_fract_y
 _atom_site_fract_z
 _atom_site_occupancy
  Er  Er0  1  0.52906216  0.81103642  0.00000000  1
  Er  Er1  1  0.28193478  0.47093366  0.00000000  1
  Er  Er2  1  0.18892654  0.71798200  0.00000000  1
  Er  Er3  1  0.81141466  0.28201723  0.50000000  1
  Er  Er4  1  0.47064539  0.18862304  0.50000000  1
  Er  Er5  1  0.71803309  0.52938207  0.50000000  1
  Ni  Ni0  1  0.80388583  0.90831572  -0.00000000  1
  Ni  Ni1  1  0.10440423  0.19614038  0.00000000  1
  Ni  Ni2  1  0.09167779  0.89558357  -0.00000000  1
  Ni  Ni3  1  0.33330689  0.66664761  0.50000000  1
  Ni  Ni4  1  0.92675592  0.07780637  0.50000000  1
  Ni  Ni5  1  0.15101299  0.07327805  0.50000000  1
  Ni  Ni6  1  0.92220430  0.84895546  0.50000000  1
  Ni  Ni7  1  0.66668596  0.33333552  0.00000000  1
  Ni  Ni8  1  0.56185388  0.58265253  -0.00000000  1
  Ni  Ni9  1  0.02078747  0.43811773  -0.00000000  1
  Ni  Ni10  1  0.41735443  0.97918641  0.00000000  1
  Ni  Ni11  1  0.68235047  0.75298126  0.50000000  1
  Ni  Ni12  1  0.07060762  0.31767468  0.50000000  1
  Ni  Ni13  1  0.24700200  0.92934544  0.50000000  1
  Ni  Ni14  1  0.97857682  0.56596140  0.50000000  1
  Ni  Ni15  1  0.58743575  0.02143759  0.50000000  1
  Ni  Ni16  1  0.43400244  0.41258988  0.50000000  1
  Ni  Ni17  1  0.75906800  0.07887222  0.00000000  1
  Ni  Ni18  1  0.31979781  0.24096622  -0.00000000  1
  Ni  Ni19  1  0.92116955  0.68017989  -0.00000000  1
  P  P0  1  0.47558789  0.61307608  0.50000000  1
  P  P1  1  0.13744934  0.52437161  0.50000000  1
  P  P2  1  0.38691400  0.86250869  0.50000000  1
  P  P3  1  0.72025389  0.95246006  0.50000000  1
  P  P4  1  0.23219548  0.27978322  0.50000000  1
  P  P5  1  0.04753633  0.76776054  0.50000000  1
  P  P6  1  0.86201852  0.47690759  0.00000000  1
  P  P7  1  0.61495904  0.13801686  0.00000000  1
  P  P8  1  0.52310300  0.38508015  0.00000000  1
  P  P9  1  0.95166994  0.23537164  -0.00000000  1
  P  P10  1  0.28368607  0.04831480  -0.00000000  1
  P  P11  1  0.76465064  0.71632023  0.00000000  1
  P  P12  1  0.00002107  0.00002615  -0.00000000  1
loop_
_geom_bond_atom_site_label_1
_geom_bond_atom_site_label_2
_geom_bond_distance
_geom_bond_site_symmetry_2
Er0 P3 2.841826 1_554
Er0 P3 2.841826 1_555
Er0 P2 2.859771 1_555
Er0 P2 2.859771 1_554
Er0 Ni3 2.879888 1_555
Er0 Ni3 2.879888 1_554
Er0 P0 2.895001 1_554
Er0 P0 2.895001 1_555
Er0 Ni15 2.999699 1_564
Er0 Ni15 2.999699 1_565
Er0 Ni11 3.009369 1_555
Er0 Ni11 3.009369 1_554
Er0 Ni0 3.023818 1_555
Er0 Ni10 3.056696 1_555
Er0 Ni8 3.087048 1_555
Er0 Ni17 3.145475 1_565
Er1 P4 2.841451 1_555
Er1 P4 2.841451 1_554
Er1 P0 2.860098 1_555
Er1 P0 2.860098 1_554
Er1 Ni3 2.879420 1_554
Er1 Ni3 2.879420 1_555
Er1 P1 2.894692 1_555
Er1 P1 2.894692 1_554
Er1 Ni16 2.999807 1_554
Er1 Ni16 2.999807 1_555
Er1 Ni12 3.009318 1_555
Er1 Ni12 3.009318 1_554
Er1 Ni1 3.023555 1_555
Er1 Ni8 3.057560 1_555
Er1 Ni9 3.086642 1_555
Er1 Ni18 3.145023 1_555
Er2 P5 2.841469 1_554
Er2 P5 2.841469 1_555
Er2 P1 2.859719 1_554
Er2 P1 2.859719 1_555
Er2 Ni3 2.879470 1_554
Er2 Ni3 2.879470 1_555
Er2 P2 2.895356 1_554
Er2 P2 2.895356 1_555
Er2 Ni14 2.999394 1_455
Er2 Ni14 2.999394 1_454
Er2 Ni13 3.009571 1_555
Er2 Ni13 3.009571 1_554
Er2 Ni2 3.024038 1_555
Er2 Ni9 3.056957 1_555
Er2 Ni10 3.087704 1_555
Er2 Ni19 3.144477 1_455
Er3 P9 2.810436 1_555
Er3 P9 2.810436 1_556
Er3 P6 2.873746 1_556
Er3 P6 2.873746 1_555
Er3 Ni7 2.882592 1_555
Er3 Ni7 2.882592 1_556
Er3 P7 2.883642 1_555
Er3 P7 2.883642 1_556
Er3 Ni17 2.946374 1_555
Er3 Ni17 2.946374 1_556
Er3 Ni9 3.003092 1_656
Er3 Ni9 3.003092 1_655
Er3 Ni12 3.048407 1_655
Er3 Ni15 3.061239 1_555
Er3 Ni14 3.096848 1_555
Er4 P10 2.811072 1_555
Er4 P10 2.811072 1_556
Er4 P7 2.873960 1_556
Er4 P7 2.873960 1_555
Er4 Ni7 2.882631 1_556
Er4 Ni7 2.882631 1_555
Er4 P8 2.883580 1_556
Er4 P8 2.883580 1_555
Er4 Ni18 2.946759 1_556
Er4 Ni18 2.946759 1_555
Er4 Ni10 3.003572 1_545
Er4 Ni10 3.003572 1_546
Er4 Ni13 3.049721 1_545
Er4 Ni16 3.061190 1_555
Er4 Ni15 3.096988 1_555
Er5 P11 2.810897 1_556
Er5 P11 2.810897 1_555
Er5 P8 2.874122 1_556
Er5 P8 2.874122 1_555
Er5 Ni7 2.882568 1_555
Er5 Ni7 2.882568 1_556
Er5 P6 2.883509 1_555
Er5 P6 2.883509 1_556
Er5 Ni19 2.946389 1_555
Er5 Ni19 2.946389 1_556
Er5 Ni8 3.003695 1_555
Er5 Ni8 3.003695 1_556
Er5 Ni11 3.049319 1_555
Er5 Ni14 3.060747 1_555
Er5 Ni16 3.097792 1_555
Ni0 P12 2.129499 1_665
Ni0 P11 2.201069 1_555
Ni0 P3 2.329382 1_554
Ni0 P3 2.329382 1_555
Ni1 P12 2.129258 1_555
Ni1 P9 2.200665 1_455
Ni1 P4 2.329546 1_554
Ni1 P4 2.329546 1_555
Ni2 P12 2.128991 1_565
Ni2 P10 2.201164 1_565
Ni2 P5 2.329756 1_555
Ni2 P5 2.329756 1_554
Ni3 P0 2.196273 1_555
Ni3 P2 2.196337 1_555
Ni3 P1 2.196464 1_555
Ni4 P3 2.257545 1_545
Ni4 P12 2.475736 1_655
Ni4 P12 2.475736 1_656
Ni4 P9 2.611685 1_555
Ni4 P9 2.611685 1_556
Ni5 P4 2.257489 1_555
Ni5 P12 2.475421 1_556
Ni5 P12 2.475421 1_555
Ni5 P10 2.612124 1_555
Ni5 P10 2.612124 1_556
Ni6 P5 2.257610 1_655
Ni6 P12 2.475989 1_666
Ni6 P12 2.475989 1_665
Ni6 P11 2.611639 1_556
Ni6 P11 2.611639 1_555
Ni7 P8 2.195818 1_555
Ni7 P7 2.195838 1_555
Ni7 P6 2.195987 1_555
Ni8 P11 2.237148 1_555
Ni8 P8 2.271656 1_555
Ni8 P0 2.273366 1_554
Ni8 P0 2.273366 1_555
Ni9 P9 2.236507 1_455
Ni9 P6 2.271277 1_455
Ni9 P1 2.273258 1_554
Ni9 P1 2.273258 1_555
Ni10 P10 2.236985 1_565
Ni10 P7 2.272069 1_565
Ni10 P2 2.273275 1_555
Ni10 P2 2.273275 1_554
Ni11 P11 2.278282 1_556
Ni11 P11 2.278282 1_555
Ni11 P0 2.289538 1_555
Ni11 P3 2.298686 1_555
Ni12 P9 2.278217 1_455
Ni12 P9 2.278217 1_456
Ni12 P1 2.288721 1_555
Ni12 P4 2.298694 1_555
Ni13 P10 2.278332 1_565
Ni13 P10 2.278332 1_566
Ni13 P2 2.289257 1_555
Ni13 P5 2.298735 1_555
Ni14 P5 2.225689 1_655
Ni14 P6 2.278407 1_555
Ni14 P6 2.278407 1_556
Ni14 P1 2.295564 1_655
Ni15 P3 2.225512 1_545
Ni15 P7 2.278481 1_555
Ni15 P7 2.278481 1_556
Ni15 P2 2.296448 1_545
Ni16 P4 2.225758 1_555
Ni16 P8 2.278708 1_555
Ni16 P8 2.278708 1_556
Ni16 P0 2.295930 1_555
Ni17 P9 2.221647 1_555
Ni17 P7 2.268427 1_555
Ni17 P3 2.327566 1_544
Ni17 P3 2.327566 1_545
Ni18 P10 2.222105 1_555
Ni18 P8 2.269077 1_555
Ni18 P4 2.327580 1_555
Ni18 P4 2.327580 1_554
Ni19 P11 2.222034 1_555
Ni19 P6 2.268714 1_555
Ni19 P5 2.327315 1_654
Ni19 P5 2.327315 1_655
