# generated using pymatgen
data_La9Ga5S21
_symmetry_space_group_name_H-M   'P 1'
_cell_length_a   11.87805652
_cell_length_b   11.87805652
_cell_length_c   11.87805620
_cell_angle_alpha   94.67921299
_cell_angle_beta   94.67921299
_cell_angle_gamma   94.67920878
_symmetry_Int_Tables_number   1
_chemical_formula_structural   La9Ga5S21
_chemical_formula_sum   'La18 Ga10 S42'
_cell_volume   1658.12160700
_cell_formula_units_Z   2
loop_
 _symmetry_equiv_pos_site_id
 _symmetry_equiv_pos_as_xyz
  1  'x, y, z'
loop_
 _atom_site_type_symbol
 _atom_site_label
 _atom_site_symmetry_multiplicity
 _atom_site_fract_x
 _atom_site_fract_y
 _atom_site_fract_z
 _atom_site_occupancy
  La  La0  1  0.90558000  0.07505500  0.28109100  1
  La  La1  1  0.56317300  0.73481700  0.94315900  1
  La  La2  1  0.24377100  0.41115100  0.61919600  1
  La  La3  1  0.73481700  0.94315900  0.56317300  1
  La  La4  1  0.41115100  0.61919600  0.24377100  1
  La  La5  1  0.07505500  0.28109100  0.90558000  1
  La  La6  1  0.61919600  0.24377100  0.41115100  1
  La  La7  1  0.28109100  0.90558000  0.07505500  1
  La  La8  1  0.94315900  0.56317300  0.73481700  1
  La  La9  1  0.76737700  0.60173000  0.39173400  1
  La  La10  1  0.43118100  0.25918800  0.05107700  1
  La  La11  1  0.10694400  0.93637500  0.73156500  1
  La  La12  1  0.93637500  0.73156500  0.10694400  1
  La  La13  1  0.60173000  0.39173400  0.76737700  1
  La  La14  1  0.25918800  0.05107700  0.43118100  1
  La  La15  1  0.05107700  0.43118100  0.25918800  1
  La  La16  1  0.73156500  0.10694400  0.93637500  1
  La  La17  1  0.39173400  0.76737700  0.60173000  1
  Ga  Ga0  1  0.11301000  0.77832300  0.44801500  1
  Ga  Ga1  1  0.77832300  0.44801500  0.11301000  1
  Ga  Ga2  1  0.44801500  0.11301000  0.77832300  1
  Ga  Ga3  1  0.27831200  0.61324100  0.94804800  1
  Ga  Ga4  1  0.94804800  0.27831200  0.61324100  1
  Ga  Ga5  1  0.61324100  0.94804800  0.27831200  1
  Ga  Ga6  1  0.14376100  0.14376100  0.14376100  1
  Ga  Ga7  1  0.84011500  0.84011500  0.84011500  1
  Ga  Ga8  1  0.34017500  0.34017500  0.34017500  1
  Ga  Ga9  1  0.64349600  0.64349600  0.64349600  1
  S  S0  1  0.32552700  0.99204500  0.65819300  1
  S  S1  1  0.99204500  0.65819300  0.32552700  1
  S  S2  1  0.65819300  0.32552700  0.99204500  1
  S  S3  1  0.15810500  0.49207700  0.82567200  1
  S  S4  1  0.82567200  0.15810500  0.49207700  1
  S  S5  1  0.49207700  0.82567200  0.15810500  1
  S  S6  1  0.20103600  0.66848900  0.11271100  1
  S  S7  1  0.86830000  0.32849800  0.77962400  1
  S  S8  1  0.53386000  0.00733100  0.44031000  1
  S  S9  1  0.32849800  0.77962400  0.86830000  1
  S  S10  1  0.00733100  0.44031000  0.53386000  1
  S  S11  1  0.66848900  0.11271100  0.20103600  1
  S  S12  1  0.44031000  0.53386000  0.00733100  1
  S  S13  1  0.11271100  0.20103600  0.66848900  1
  S  S14  1  0.77962400  0.86830000  0.32849800  1
  S  S15  1  0.28760400  0.81329400  0.37800200  1
  S  S16  1  0.94930000  0.49161400  0.04108000  1
  S  S17  1  0.61981400  0.15158900  0.70783100  1
  S  S18  1  0.15158900  0.70783100  0.61981400  1
  S  S19  1  0.81329400  0.37800200  0.28760400  1
  S  S20  1  0.49161400  0.04108000  0.94930000  1
  S  S21  1  0.04108000  0.94930000  0.49161400  1
  S  S22  1  0.70783100  0.61981400  0.15158900  1
  S  S23  1  0.37800200  0.28760400  0.81329400  1
  S  S24  1  0.21994800  0.34324900  0.11602100  1
  S  S25  1  0.88327100  0.01371500  0.77225500  1
  S  S26  1  0.56424300  0.69807900  0.45534000  1
  S  S27  1  0.01371500  0.77225500  0.88327100  1
  S  S28  1  0.69807900  0.45534000  0.56424300  1
  S  S29  1  0.34324900  0.11602100  0.21994800  1
  S  S30  1  0.45534000  0.56424300  0.69807900  1
  S  S31  1  0.11602100  0.21994800  0.34324900  1
  S  S32  1  0.77225500  0.88327100  0.01371500  1
  S  S33  1  0.08022300  0.94742600  0.19039700  1
  S  S34  1  0.73281400  0.60948900  0.83685400  1
  S  S35  1  0.39673700  0.26546100  0.50692200  1
  S  S36  1  0.26546100  0.50692200  0.39673700  1
  S  S37  1  0.94742600  0.19039700  0.08022300  1
  S  S38  1  0.60948900  0.83685400  0.73281400  1
  S  S39  1  0.83685400  0.73281400  0.60948900  1
  S  S40  1  0.50692200  0.39673700  0.26546100  1
  S  S41  1  0.19039700  0.08022300  0.94742600  1
loop_
_geom_bond_atom_site_label_1
_geom_bond_atom_site_label_2
_geom_bond_distance
_geom_bond_site_symmetry_2
La0 S4 2.879596 1_555
La0 S14 2.889678 1_545
La0 S33 2.893642 1_645
La0 S37 2.903857 1_555
La0 S31 2.923177 1_655
La0 S11 2.978780 1_555
La0 S21 3.379300 1_645
La1 S12 2.884171 1_556
La1 S5 2.906413 1_556
La1 S34 2.910082 1_555
La1 S38 2.936595 1_555
La1 S32 2.946910 1_556
La1 S9 2.959532 1_555
La1 S22 3.344901 1_556
La1 S30 3.496557 1_555
La2 S3 2.855945 1_555
La2 S35 2.933637 1_555
La2 S13 2.957751 1_555
La2 S10 2.964170 1_555
La2 S36 2.982667 1_555
La2 S30 3.015329 1_555
La2 S23 3.216371 1_555
La3 S8 2.884171 1_565
La3 S4 2.906413 1_565
La3 S38 2.910082 1_555
La3 S39 2.936594 1_555
La3 S25 2.946910 1_565
La3 S14 2.959532 1_555
La3 S17 3.344901 1_565
La3 S26 3.496557 1_555
La4 S5 2.855945 1_555
La4 S36 2.933637 1_555
La4 S6 2.957751 1_555
La4 S12 2.964170 1_555
La4 S40 2.982667 1_555
La4 S26 3.015329 1_555
La4 S15 3.216371 1_555
La5 S3 2.879597 1_555
La5 S7 2.889678 1_455
La5 S37 2.893643 1_456
La5 S41 2.903857 1_555
La5 S24 2.923177 1_556
La5 S13 2.978780 1_555
La5 S16 3.379300 1_456
La6 S4 2.855945 1_555
La6 S40 2.933637 1_555
La6 S11 2.957751 1_555
La6 S8 2.964170 1_555
La6 S35 2.982667 1_555
La6 S28 3.015329 1_555
La6 S19 3.216371 1_555
La7 S5 2.879596 1_555
La7 S9 2.889678 1_554
La7 S41 2.893642 1_564
La7 S33 2.903857 1_555
La7 S29 2.923177 1_565
La7 S6 2.978780 1_555
La7 S20 3.379300 1_564
La8 S10 2.884171 1_655
La8 S3 2.906413 1_655
La8 S39 2.910082 1_555
La8 S34 2.936595 1_555
La8 S27 2.946910 1_655
La8 S7 2.959532 1_555
La8 S18 3.344901 1_655
La8 S28 3.496557 1_555
La9 S26 2.882568 1_555
La9 S1 2.885518 1_555
La9 S22 2.911785 1_555
La9 S28 2.919372 1_555
La9 S39 2.929235 1_555
La9 S19 2.949512 1_555
La9 S14 3.307827 1_555
La10 S23 2.896446 1_554
La10 S2 2.904382 1_554
La10 S24 2.913101 1_555
La10 S29 2.935095 1_555
La10 S20 2.936405 1_554
La10 S40 2.944628 1_555
La10 S12 3.339788 1_555
La10 S41 3.495862 1_554
La11 S0 2.849715 1_555
La11 S21 2.913104 1_555
La11 S25 2.944719 1_465
La11 S27 2.969873 1_555
La11 S41 3.011710 1_565
La11 S18 3.028918 1_555
La11 S13 3.287267 1_565
La11 S9 3.691267 1_555
La12 S1 2.849715 1_555
La12 S16 2.913104 1_555
La12 S27 2.944719 1_654
La12 S32 2.969873 1_555
La12 S33 3.011710 1_655
La12 S22 3.028918 1_555
La12 S6 3.287267 1_655
La12 S14 3.691267 1_555
La13 S28 2.882568 1_555
La13 S2 2.885518 1_555
La13 S17 2.911785 1_555
La13 S30 2.919372 1_555
La13 S34 2.929235 1_555
La13 S23 2.949512 1_555
La13 S7 3.307827 1_555
La14 S15 2.896446 1_545
La14 S0 2.904382 1_545
La14 S29 2.913101 1_555
La14 S31 2.935095 1_555
La14 S21 2.936406 1_545
La14 S35 2.944628 1_555
La14 S8 3.339788 1_555
La14 S33 3.495862 1_545
La15 S19 2.896446 1_455
La15 S1 2.904382 1_455
La15 S31 2.913101 1_555
La15 S24 2.935095 1_555
La15 S16 2.936405 1_455
La15 S36 2.944628 1_555
La15 S10 3.339788 1_555
La15 S37 3.495862 1_455
La16 S2 2.849715 1_555
La16 S20 2.913104 1_555
La16 S32 2.944719 1_546
La16 S25 2.969873 1_555
La16 S37 3.011710 1_556
La16 S17 3.028918 1_555
La16 S11 3.287267 1_556
La16 S7 3.691267 1_555
La17 S30 2.882568 1_555
La17 S0 2.885518 1_555
La17 S18 2.911785 1_555
La17 S26 2.919372 1_555
La17 S38 2.929235 1_555
La17 S15 2.949512 1_555
La17 S9 3.307827 1_555
Ga0 S1 2.281021 1_455
Ga0 S18 2.294359 1_555
Ga0 S21 2.303544 1_555
Ga0 S15 2.315628 1_555
Ga1 S2 2.281021 1_554
Ga1 S22 2.294359 1_555
Ga1 S16 2.303544 1_555
Ga1 S19 2.315628 1_555
Ga2 S0 2.281021 1_545
Ga2 S17 2.294359 1_555
Ga2 S20 2.303544 1_555
Ga2 S23 2.315628 1_555
Ga3 S3 2.282034 1_555
Ga3 S12 2.295822 1_556
Ga3 S6 2.297910 1_556
Ga3 S9 2.315982 1_555
Ga4 S4 2.282034 1_555
Ga4 S10 2.295822 1_655
Ga4 S13 2.297910 1_655
Ga4 S7 2.315982 1_555
Ga5 S5 2.282034 1_555
Ga5 S8 2.295822 1_565
Ga5 S11 2.297911 1_565
Ga5 S14 2.315982 1_555
Ga6 S41 2.511344 1_554
Ga6 S37 2.511344 1_455
Ga6 S33 2.511344 1_545
Ga6 S31 2.523561 1_555
Ga6 S29 2.523561 1_555
Ga6 S24 2.523561 1_555
Ga7 S32 2.308805 1_556
Ga7 S27 2.308805 1_655
Ga7 S25 2.308805 1_565
Ga7 S39 2.921500 1_555
Ga7 S38 2.921500 1_555
Ga7 S34 2.921500 1_555
Ga8 S35 2.308421 1_555
Ga8 S36 2.308421 1_555
Ga8 S40 2.308421 1_555
Ga8 S24 2.921249 1_555
Ga8 S29 2.921249 1_555
Ga8 S31 2.921249 1_555
Ga9 S26 2.508815 1_555
Ga9 S28 2.508815 1_555
Ga9 S30 2.508815 1_555
Ga9 S34 2.527325 1_555
Ga9 S38 2.527325 1_555
Ga9 S39 2.527325 1_555
