# generated using pymatgen
data_BaDy2CoO5
_symmetry_space_group_name_H-M   'P 1'
_cell_length_a   5.69438378
_cell_length_b   7.03120333
_cell_length_c   12.23460027
_cell_angle_alpha   90.00000000
_cell_angle_beta   90.00000000
_cell_angle_gamma   89.99305420
_symmetry_Int_Tables_number   1
_chemical_formula_structural   BaDy2CoO5
_chemical_formula_sum   'Ba4 Dy8 Co4 O20'
_cell_volume   489.85345118
_cell_formula_units_Z   4
loop_
 _symmetry_equiv_pos_site_id
 _symmetry_equiv_pos_as_xyz
  1  'x, y, z'
loop_
 _atom_site_type_symbol
 _atom_site_label
 _atom_site_symmetry_multiplicity
 _atom_site_fract_x
 _atom_site_fract_y
 _atom_site_fract_z
 _atom_site_occupancy
  Ba  Ba0  1  0.74987097  0.07774946  0.10033660  1
  Ba  Ba1  1  0.75010523  0.42220633  0.60029964  1
  Ba  Ba2  1  0.24987097  0.57774946  0.39966340  1
  Ba  Ba3  1  0.25010523  0.92220633  0.89970036  1
  Dy  Dy0  1  0.25002888  0.40218097  0.07481425  1
  Dy  Dy1  1  0.75003960  0.61905919  0.20807326  1
  Dy  Dy2  1  0.74996927  0.88095242  0.70805014  1
  Dy  Dy3  1  0.25003960  0.11905919  0.29192674  1
  Dy  Dy4  1  0.75000072  0.59786479  0.92529905  1
  Dy  Dy5  1  0.75002888  0.90218097  0.42518575  1
  Dy  Dy6  1  0.25000072  0.09786379  0.57470095  1
  Dy  Dy7  1  0.24996927  0.38095342  0.79194986  1
  Co  Co0  1  0.24963832  0.80716396  0.15270129  1
  Co  Co1  1  0.75034550  0.19288231  0.84739144  1
  Co  Co2  1  0.74963832  0.30716496  0.34729871  1
  Co  Co3  1  0.25034550  0.69288131  0.65260856  1
  O  O0  1  0.24980453  0.42506155  0.60269878  1
  O  O1  1  0.75021789  0.57485079  0.39722345  1
  O  O2  1  0.74980453  0.92506255  0.89730122  1
  O  O3  1  0.25021789  0.07485179  0.10277655  1
  O  O4  1  0.00208696  0.86029004  0.27477171  1
  O  O5  1  0.50152004  0.13938161  0.72516016  1
  O  O6  1  0.99841810  0.36059980  0.22524270  1
  O  O7  1  0.49791418  0.63970920  0.77479256  1
  O  O8  1  0.99791418  0.13970920  0.72520744  1
  O  O9  1  0.49841810  0.86059980  0.27475730  1
  O  O10  1  0.00152004  0.63938161  0.77483984  1
  O  O11  1  0.50208696  0.36029004  0.22522829  1
  O  O12  1  0.49561473  0.66721642  0.06563434  1
  O  O13  1  0.99578805  0.33270813  0.93463321  1
  O  O14  1  0.50428963  0.16725485  0.43452297  1
  O  O15  1  0.00434642  0.83286919  0.56549179  1
  O  O16  1  0.99561473  0.16721542  0.43436566  1
  O  O17  1  0.49578805  0.83270813  0.56536679  1
  O  O18  1  0.50434742  0.33286919  0.93450821  1
  O  O19  1  0.00428863  0.66725585  0.06547703  1
loop_
_geom_bond_atom_site_label_1
_geom_bond_atom_site_label_2
_geom_bond_distance
_geom_bond_site_symmetry_2
Ba0 O2 2.706122 1_544
Ba0 O3 2.845448 1_555
Ba0 O3 2.849394 1_655
Ba0 O11 2.876029 1_555
Ba0 O6 2.879997 1_555
Ba0 O9 2.989279 1_545
Ba0 O4 2.992423 1_645
Ba0 O13 3.047168 1_554
Ba0 O18 3.047624 1_554
Ba0 O12 3.257240 1_545
Ba0 O19 3.257343 1_645
Ba1 O1 2.706462 1_555
Ba1 O0 2.845704 1_655
Ba1 O0 2.849124 1_555
Ba1 O8 2.875992 1_555
Ba1 O5 2.879683 1_555
Ba1 O10 2.990311 1_655
Ba1 O7 2.993015 1_555
Ba1 O14 3.047470 1_555
Ba1 O16 3.047915 1_555
Ba1 O17 3.257257 1_555
Ba1 O15 3.258179 1_655
Ba2 O0 2.706125 1_555
Ba2 O1 2.845448 1_455
Ba2 O1 2.849394 1_555
Ba2 O4 2.876029 1_555
Ba2 O9 2.879997 1_555
Ba2 O6 2.989279 1_455
Ba2 O11 2.992423 1_555
Ba2 O17 3.047168 1_555
Ba2 O15 3.047627 1_555
Ba2 O16 3.257246 1_455
Ba2 O14 3.257352 1_555
Ba3 O3 2.706465 1_566
Ba3 O2 2.845704 1_555
Ba3 O2 2.849124 1_455
Ba3 O7 2.875992 1_555
Ba3 O10 2.879683 1_555
Ba3 O5 2.990311 1_565
Ba3 O8 2.993015 1_465
Ba3 O19 3.047468 1_556
Ba3 O12 3.047911 1_556
Ba3 O13 3.257257 1_465
Ba3 O18 3.258182 1_565
Dy0 O13 2.296992 1_454
Dy0 O18 2.298098 1_554
Dy0 O3 2.326805 1_555
Dy0 O12 2.332732 1_555
Dy0 O19 2.333303 1_555
Dy0 O6 2.350658 1_455
Dy0 O11 2.352302 1_555
Dy1 O12 2.291392 1_555
Dy1 O19 2.292317 1_655
Dy1 O6 2.312235 1_555
Dy1 O11 2.312719 1_555
Dy1 O1 2.334960 1_555
Dy1 O9 2.366922 1_555
Dy1 O4 2.367140 1_655
Dy2 O15 2.292255 1_655
Dy2 O17 2.292934 1_555
Dy2 O5 2.312249 1_565
Dy2 O8 2.312627 1_565
Dy2 O2 2.336091 1_555
Dy2 O10 2.367277 1_655
Dy2 O7 2.367414 1_555
Dy3 O16 2.291391 1_455
Dy3 O14 2.292319 1_555
Dy3 O9 2.312235 1_545
Dy3 O4 2.312719 1_545
Dy3 O3 2.334959 1_555
Dy3 O6 2.366922 1_455
Dy3 O11 2.367140 1_555
Dy4 O19 2.297011 1_656
Dy4 O12 2.298667 1_556
Dy4 O2 2.325955 1_555
Dy4 O18 2.332755 1_555
Dy4 O13 2.333921 1_555
Dy4 O10 2.350579 1_655
Dy4 O7 2.353245 1_555
Dy5 O17 2.296992 1_555
Dy5 O15 2.298095 1_655
Dy5 O1 2.326812 1_555
Dy5 O16 2.332726 1_565
Dy5 O14 2.333294 1_565
Dy5 O9 2.350658 1_555
Dy5 O4 2.352302 1_655
Dy6 O14 2.297015 1_555
Dy6 O16 2.298667 1_455
Dy6 O0 2.325955 1_555
Dy6 O15 2.332753 1_545
Dy6 O17 2.333915 1_545
Dy6 O5 2.350580 1_555
Dy6 O8 2.353246 1_455
Dy7 O18 2.292260 1_555
Dy7 O13 2.292935 1_455
Dy7 O10 2.312243 1_555
Dy7 O7 2.312621 1_555
Dy7 O0 2.336089 1_555
Dy7 O5 2.367282 1_555
Dy7 O8 2.367419 1_455
Co0 O3 1.978801 1_565
Co0 O19 2.014644 1_555
Co0 O12 2.016073 1_555
Co0 O4 2.087347 1_555
Co0 O9 2.092402 1_555
Co1 O2 1.979627 1_545
Co1 O13 2.014842 1_555
Co1 O18 2.016616 1_555
Co1 O8 2.088467 1_555
Co1 O5 2.094191 1_555
Co2 O1 1.978788 1_555
Co2 O14 2.014647 1_555
Co2 O16 2.016080 1_555
Co2 O11 2.087345 1_555
Co2 O6 2.092401 1_555
Co3 O0 1.979627 1_555
Co3 O17 2.014846 1_555
Co3 O15 2.016623 1_555
Co3 O7 2.088465 1_555
Co3 O10 2.094190 1_555
