# generated using pymatgen
data_Yb2PbS4
_symmetry_space_group_name_H-M   'P 1'
_cell_length_a   4.03450400
_cell_length_b   12.62557600
_cell_length_c   14.03292400
_cell_angle_alpha   90.00000000
_cell_angle_beta   90.00000000
_cell_angle_gamma   90.00000000
_symmetry_Int_Tables_number   1
_chemical_formula_structural   Yb2PbS4
_chemical_formula_sum   'Yb8 Pb4 S16'
_cell_volume   714.80819687
_cell_formula_units_Z   4
loop_
 _symmetry_equiv_pos_site_id
 _symmetry_equiv_pos_as_xyz
  1  'x, y, z'
loop_
 _atom_site_type_symbol
 _atom_site_label
 _atom_site_symmetry_multiplicity
 _atom_site_fract_x
 _atom_site_fract_y
 _atom_site_fract_z
 _atom_site_occupancy
  Yb  Yb0  1  0.25000000  0.54580600  0.88499200  1
  Yb  Yb1  1  0.25000000  0.04580600  0.61500800  1
  Yb  Yb2  1  0.75000000  0.45419400  0.11500800  1
  Yb  Yb3  1  0.75000000  0.95419400  0.38499200  1
  Yb  Yb4  1  0.25000000  0.66179300  0.38513300  1
  Yb  Yb5  1  0.25000000  0.16179300  0.11486700  1
  Yb  Yb6  1  0.75000000  0.33820700  0.61486700  1
  Yb  Yb7  1  0.75000000  0.83820700  0.88513300  1
  Pb  Pb0  1  0.25000000  0.72049800  0.14442900  1
  Pb  Pb1  1  0.25000000  0.22049800  0.35557100  1
  Pb  Pb2  1  0.75000000  0.27950200  0.85557100  1
  Pb  Pb3  1  0.75000000  0.77950200  0.64442900  1
  S  S0  1  0.25000000  0.85133600  0.50274600  1
  S  S1  1  0.25000000  0.35133600  0.99725400  1
  S  S2  1  0.75000000  0.14866400  0.49725400  1
  S  S3  1  0.75000000  0.64866400  0.00274600  1
  S  S4  1  0.25000000  0.73485000  0.79072000  1
  S  S5  1  0.25000000  0.23485000  0.70928000  1
  S  S6  1  0.75000000  0.26515000  0.20928000  1
  S  S7  1  0.75000000  0.76515000  0.29072000  1
  S  S8  1  0.25000000  0.51328500  0.53638300  1
  S  S9  1  0.25000000  0.01328500  0.96361700  1
  S  S10  1  0.75000000  0.48671500  0.46361700  1
  S  S11  1  0.75000000  0.98671500  0.03638300  1
  S  S12  1  0.25000000  0.53226900  0.22490900  1
  S  S13  1  0.25000000  0.03226900  0.27509100  1
  S  S14  1  0.75000000  0.46773100  0.77509100  1
  S  S15  1  0.75000000  0.96773100  0.72490900  1
loop_
_geom_bond_atom_site_label_1
_geom_bond_atom_site_label_2
_geom_bond_distance
_geom_bond_site_symmetry_2
Pb0 S12 2.631202 1_555
Pb0 S7 2.932829 1_455
Pb0 S7 2.932829 1_555
Pb0 S3 2.974038 1_455
Pb0 S3 2.974038 1_555
Pb1 S13 2.631202 1_555
Pb1 S6 2.932829 1_555
Pb1 S6 2.932829 1_455
Pb1 S2 2.974038 1_555
Pb1 S2 2.974038 1_455
Pb2 S14 2.631202 1_555
Pb2 S5 2.932829 1_555
Pb2 S5 2.932829 1_655
Pb2 S1 2.974038 1_555
Pb2 S1 2.974038 1_655
Pb3 S15 2.631202 1_555
Pb3 S4 2.932829 1_655
Pb3 S4 2.932829 1_555
Pb3 S0 2.974038 1_555
Pb3 S0 2.974038 1_655
S0 Yb4 2.907039 1_555
S0 Yb3 2.913127 1_555
S0 Yb3 2.913127 1_455
S0 Yb1 2.917233 1_565
S1 Yb5 2.907039 1_556
S1 Yb2 2.913127 1_456
S1 Yb2 2.913127 1_556
S1 Yb0 2.917233 1_555
S2 Yb6 2.907039 1_555
S2 Yb1 2.913127 1_655
S2 Yb1 2.913127 1_555
S2 Yb3 2.917233 1_545
S3 Yb7 2.907039 1_554
S3 Yb0 2.913127 1_554
S3 Yb0 2.913127 1_654
S3 Yb2 2.917233 1_555
S4 Yb0 2.728893 1_555
S4 Yb7 2.743631 1_555
S4 Yb7 2.743631 1_455
S5 Yb1 2.728893 1_555
S5 Yb6 2.743631 1_455
S5 Yb6 2.743631 1_555
S6 Yb2 2.728893 1_555
S6 Yb5 2.743631 1_655
S6 Yb5 2.743631 1_555
S7 Yb3 2.728893 1_555
S7 Yb4 2.743631 1_555
S7 Yb4 2.743631 1_655
S8 Yb4 2.832056 1_555
S8 Yb6 3.188798 1_555
S8 Yb6 3.188798 1_455
S9 Yb5 2.832056 1_556
S9 Yb7 3.188798 1_445
S9 Yb7 3.188798 1_545
S10 S8 2.285722 1_655
S10 S8 2.285722 1_555
S10 Yb6 2.832056 1_555
S10 Yb4 3.188798 1_555
S10 Yb4 3.188798 1_655
S11 S9 2.285722 1_664
S11 S9 2.285722 1_564
S11 Yb7 2.832056 1_554
S11 Yb5 3.188798 1_565
S11 Yb5 3.188798 1_665
S12 Yb2 2.723871 1_555
S12 Yb2 2.723871 1_455
S12 Yb4 2.780217 1_555
S13 Yb3 2.723871 1_445
S13 Yb3 2.723871 1_545
S13 Yb5 2.780217 1_555
S14 Yb0 2.723871 1_655
S14 Yb0 2.723871 1_555
S14 Yb6 2.780217 1_555
S15 Yb1 2.723871 1_665
S15 Yb1 2.723871 1_565
S15 Yb7 2.780217 1_555
