# generated using pymatgen
data_Mg2TaNiO6
_symmetry_space_group_name_H-M   'P 1'
_cell_length_a   5.10962817
_cell_length_b   5.39557530
_cell_length_c   7.51286800
_cell_angle_alpha   90.00000000
_cell_angle_beta   90.00000000
_cell_angle_gamma   87.78236724
_symmetry_Int_Tables_number   1
_chemical_formula_structural   Mg2TaNiO6
_chemical_formula_sum   'Mg4 Ta2 Ni2 O12'
_cell_volume   206.97001413
_cell_formula_units_Z   2
loop_
 _symmetry_equiv_pos_site_id
 _symmetry_equiv_pos_as_xyz
  1  'x, y, z'
loop_
 _atom_site_type_symbol
 _atom_site_label
 _atom_site_symmetry_multiplicity
 _atom_site_fract_x
 _atom_site_fract_y
 _atom_site_fract_z
 _atom_site_occupancy
  Mg  Mg0  1  0.02662600  0.94833100  0.25000000  1
  Mg  Mg1  1  0.48707700  0.42681200  0.25000000  1
  Mg  Mg2  1  0.51292300  0.57318800  0.75000000  1
  Mg  Mg3  1  0.97337400  0.05166900  0.75000000  1
  Ta  Ta0  1  0.00000000  0.50000000  0.00000000  1
  Ta  Ta1  1  0.00000000  0.50000000  0.50000000  1
  Ni  Ni0  1  0.50000000  0.00000000  0.00000000  1
  Ni  Ni1  1  0.50000000  0.00000000  0.50000000  1
  O  O0  1  0.81425900  0.81355900  0.56697500  1
  O  O1  1  0.30833300  0.68214500  0.43031400  1
  O  O2  1  0.18574100  0.18644100  0.43302500  1
  O  O3  1  0.69166700  0.31785500  0.93031400  1
  O  O4  1  0.13488200  0.44610900  0.75000000  1
  O  O5  1  0.69166700  0.31785500  0.56968600  1
  O  O6  1  0.30833300  0.68214500  0.06968600  1
  O  O7  1  0.81425900  0.81355900  0.93302500  1
  O  O8  1  0.63464300  0.06523500  0.25000000  1
  O  O9  1  0.18574100  0.18644100  0.06697500  1
  O  O10  1  0.36535700  0.93476500  0.75000000  1
  O  O11  1  0.86511700  0.55389100  0.25000000  1
loop_
_geom_bond_atom_site_label_1
_geom_bond_atom_site_label_2
_geom_bond_distance
_geom_bond_site_symmetry_2
Mg0 O2 2.069574 1_565
Mg0 O9 2.069574 1_565
Mg0 O8 2.076451 1_465
Mg0 O11 2.312213 1_455
Mg0 O6 2.410358 1_555
Mg0 O1 2.410358 1_555
Mg1 O8 2.064160 1_555
Mg1 O11 2.074580 1_555
Mg1 O1 2.114210 1_555
Mg1 O6 2.114210 1_555
Mg1 O2 2.469425 1_555
Mg1 O9 2.469425 1_555
Mg1 O5 2.675689 1_555
Mg1 O3 2.675689 1_554
Mg2 O10 2.064160 1_555
Mg2 O4 2.074585 1_555
Mg2 O5 2.114210 1_555
Mg2 O3 2.114210 1_555
Mg2 O0 2.469425 1_555
Mg2 O7 2.469425 1_555
Mg2 O6 2.675689 1_556
Mg2 O1 2.675689 1_555
Mg3 O0 2.069574 1_545
Mg3 O7 2.069574 1_545
Mg3 O10 2.076451 1_645
Mg3 O4 2.312211 1_655
Mg3 O5 2.410358 1_555
Mg3 O3 2.410358 1_555
Ni0 O9 1.928353 1_555
Ni0 O7 1.928353 1_544
Ni0 O8 2.035593 1_555
Ni0 O10 2.035593 1_544
Ni0 O3 2.074720 1_554
Ni0 O6 2.074720 1_545
Ni1 O2 1.928353 1_555
Ni1 O0 1.928353 1_545
Ni1 O8 2.035593 1_555
Ni1 O10 2.035593 1_545
Ni1 O5 2.074720 1_555
Ni1 O1 2.074720 1_545
O0 Ta1 1.972801 1_655
O1 Ta1 1.960069 1_555
O2 Ta1 1.972801 1_555
O3 Ta0 1.960069 1_656
O4 Ta1 2.017853 1_555
O4 Ta0 2.017853 1_556
O5 Ta1 1.960069 1_655
O6 Ta0 1.960069 1_555
O7 Ta0 1.972801 1_656
O9 Ta0 1.972801 1_555
O11 Ta0 2.017855 1_655
O11 Ta1 2.017855 1_655
