# generated using pymatgen
data_LiCeMg6O8
_symmetry_space_group_name_H-M   'P 1'
_cell_length_a   8.96566603
_cell_length_b   4.40889024
_cell_length_c   4.40889024
_cell_angle_alpha   90.00000000
_cell_angle_beta   90.00000000
_cell_angle_gamma   90.00000000
_symmetry_Int_Tables_number   1
_chemical_formula_structural   LiCeMg6O8
_chemical_formula_sum   'Li1 Ce1 Mg6 O8'
_cell_volume   174.27742387
_cell_formula_units_Z   1
loop_
 _symmetry_equiv_pos_site_id
 _symmetry_equiv_pos_as_xyz
  1  'x, y, z'
loop_
 _atom_site_type_symbol
 _atom_site_label
 _atom_site_symmetry_multiplicity
 _atom_site_fract_x
 _atom_site_fract_y
 _atom_site_fract_z
 _atom_site_occupancy
  Li  Li0  1  0.00000000  0.00000000  -0.00000000  1
  Ce  Ce0  1  0.00000000  0.50000000  0.50000000  1
  Mg  Mg0  1  0.50000000  0.00000000  -0.00000000  1
  Mg  Mg1  1  0.50000000  0.50000000  0.50000000  1
  Mg  Mg2  1  0.26754096  0.00000000  0.50000000  1
  Mg  Mg3  1  0.73245904  -0.00000000  0.50000000  1
  Mg  Mg4  1  0.26754096  0.50000000  0.00000000  1
  Mg  Mg5  1  0.73245904  0.50000000  -0.00000000  1
  O  O0  1  0.26544792  0.00000000  -0.00000000  1
  O  O1  1  0.73455208  -0.00000000  0.00000000  1
  O  O2  1  0.26852942  0.50000000  0.50000000  1
  O  O3  1  0.73147058  0.50000000  0.50000000  1
  O  O4  1  0.00000000  0.00000000  0.50000000  1
  O  O5  1  0.50000000  0.00000000  0.50000000  1
  O  O6  1  0.00000000  0.50000000  -0.00000000  1
  O  O7  1  0.50000000  0.50000000  -0.00000000  1
loop_
_geom_bond_atom_site_label_1
_geom_bond_atom_site_label_2
_geom_bond_distance
_geom_bond_site_symmetry_2
Li0 O6 2.204445 1_555
Li0 O4 2.204445 1_555
Li0 O4 2.204445 1_554
Li0 O6 2.204445 1_545
Li0 O1 2.379917 1_455
Li0 O0 2.379917 1_555
Ce0 O4 2.204445 1_565
Ce0 O6 2.204445 1_556
Ce0 O6 2.204445 1_555
Ce0 O4 2.204445 1_555
Ce0 O2 2.407545 1_555
Ce0 O3 2.407545 1_455
Mg0 O0 2.102916 1_555
Mg0 O1 2.102916 1_555
Mg0 O5 2.204445 1_554
Mg0 O5 2.204445 1_555
Mg0 O7 2.204445 1_545
Mg0 O7 2.204445 1_555
Mg1 O2 2.075288 1_555
Mg1 O3 2.075288 1_555
Mg1 O5 2.204445 1_555
Mg1 O5 2.204445 1_565
Mg1 O7 2.204445 1_555
Mg1 O7 2.204445 1_556
Mg2 O5 2.084150 1_555
Mg2 O2 2.204463 1_545
Mg2 O2 2.204463 1_555
Mg2 O0 2.204525 1_555
Mg2 O0 2.204525 1_556
Mg2 O4 2.398683 1_555
Mg3 O5 2.084150 1_555
Mg3 O3 2.204463 1_555
Mg3 O3 2.204463 1_545
Mg3 O1 2.204525 1_555
Mg3 O1 2.204525 1_556
Mg3 O4 2.398683 1_655
Mg4 O7 2.084150 1_555
Mg4 O2 2.204463 1_554
Mg4 O2 2.204463 1_555
Mg4 O0 2.204525 1_565
Mg4 O0 2.204525 1_555
Mg4 O6 2.398683 1_555
Mg5 O7 2.084150 1_555
Mg5 O3 2.204463 1_555
Mg5 O3 2.204463 1_554
Mg5 O1 2.204525 1_555
Mg5 O1 2.204525 1_565
Mg5 O6 2.398683 1_655
