# generated using pymatgen
data_Cs2U(PdS2)3
_symmetry_space_group_name_H-M   'P 1'
_cell_length_a   11.61610763
_cell_length_b   9.83002165
_cell_length_c   9.32183277
_cell_angle_alpha   74.62461333
_cell_angle_beta   54.68171314
_cell_angle_gamma   50.69367354
_symmetry_Int_Tables_number   1
_chemical_formula_structural   Cs2U(PdS2)3
_chemical_formula_sum   'Cs4 U2 Pd6 S12'
_cell_volume   663.36973301
_cell_formula_units_Z   2
loop_
 _symmetry_equiv_pos_site_id
 _symmetry_equiv_pos_as_xyz
  1  'x, y, z'
loop_
 _atom_site_type_symbol
 _atom_site_label
 _atom_site_symmetry_multiplicity
 _atom_site_fract_x
 _atom_site_fract_y
 _atom_site_fract_z
 _atom_site_occupancy
  Cs  Cs0  1  0.75000000  0.75000000  0.75000000  1
  Cs  Cs1  1  0.25000000  0.25000000  0.25000000  1
  Cs  Cs2  1  0.29873700  0.70126300  0.29873700  1
  Cs  Cs3  1  0.70126300  0.29873700  0.70126300  1
  U  U0  1  0.83301900  0.83301900  0.16698100  1
  U  U1  1  0.16698100  0.16698100  0.83301900  1
  Pd  Pd0  1  0.50268200  0.17816700  0.49731800  1
  Pd  Pd1  1  0.82183300  0.49731800  0.17816700  1
  Pd  Pd2  1  0.49731800  0.82183300  0.50268200  1
  Pd  Pd3  1  0.17816700  0.50268200  0.82183300  1
  Pd  Pd4  1  0.82590100  0.17409900  0.17409900  1
  Pd  Pd5  1  0.17409900  0.82590100  0.82590100  1
  S  S0  1  0.81258300  0.98326300  0.39063700  1
  S  S1  1  0.81351800  0.39063700  0.98326300  1
  S  S2  1  0.39063700  0.81351800  0.81258300  1
  S  S3  1  0.98326300  0.81258300  0.81351800  1
  S  S4  1  0.18741700  0.01673700  0.60936300  1
  S  S5  1  0.18648200  0.60936300  0.01673700  1
  S  S6  1  0.60936300  0.18648200  0.18741700  1
  S  S7  1  0.01673700  0.18741700  0.18648200  1
  S  S8  1  0.80508700  0.60378600  0.39621400  1
  S  S9  1  0.19491300  0.39621400  0.60378600  1
  S  S10  1  0.39621400  0.19491300  0.80508700  1
  S  S11  1  0.60378600  0.80508700  0.19491300  1
loop_
_geom_bond_atom_site_label_1
_geom_bond_atom_site_label_2
_geom_bond_distance
_geom_bond_site_symmetry_2
Cs0 S2 3.497288 1_555
Cs0 S1 3.497293 1_555
Cs0 S0 3.497293 1_555
Cs0 S3 3.497300 1_555
Cs0 S11 3.501421 1_556
Cs0 S9 3.501421 1_655
Cs0 S10 3.501421 1_565
Cs0 S8 3.501421 1_555
Cs1 S6 3.497288 1_555
Cs1 S5 3.497293 1_555
Cs1 S4 3.497293 1_555
Cs1 S7 3.497300 1_555
Cs1 S9 3.501421 1_555
Cs1 S11 3.501421 1_545
Cs1 S8 3.501421 1_455
Cs1 S10 3.501421 1_554
Cs2 S11 3.824562 1_555
Cs2 S9 3.824562 1_555
Cs2 S4 3.876274 1_565
Cs2 S1 3.876281 1_554
Cs2 S3 3.876281 1_455
Cs2 S6 3.876281 1_555
Cs2 S0 4.017683 1_455
Cs2 S2 4.017685 1_554
Cs2 S7 4.017687 1_565
Cs2 S5 4.017693 1_555
Cs3 S8 3.824562 1_555
Cs3 S10 3.824562 1_555
Cs3 S0 3.876274 1_545
Cs3 S5 3.876281 1_556
Cs3 S7 3.876281 1_655
Cs3 S2 3.876281 1_555
Cs3 S4 4.017683 1_655
Cs3 S6 4.017685 1_556
Cs3 S3 4.017687 1_545
Cs3 S1 4.017693 1_555
Pd0 S10 2.382772 1_555
Pd0 S9 2.382772 1_555
Pd0 S6 2.398262 1_555
Pd0 S0 2.398263 1_545
Pd1 S8 2.382772 1_555
Pd1 S11 2.382772 1_555
Pd1 S1 2.398254 1_554
Pd1 S7 2.398261 1_655
Pd2 S8 2.382772 1_555
Pd2 S11 2.382772 1_555
Pd2 S2 2.398262 1_555
Pd2 S4 2.398263 1_565
Pd3 S10 2.382772 1_555
Pd3 S9 2.382772 1_555
Pd3 S5 2.398254 1_556
Pd3 S3 2.398261 1_455
Pd4 S7 2.369831 1_655
Pd4 S0 2.369836 1_545
Pd4 S1 2.369837 1_554
Pd4 S6 2.369842 1_555
Pd5 S3 2.369831 1_455
Pd5 S4 2.369836 1_565
Pd5 S5 2.369837 1_556
Pd5 S2 2.369842 1_555
S0 U0 2.683418 1_555
S1 U1 2.683410 1_655
S2 U1 2.683411 1_565
S3 U0 2.683410 1_556
S4 U1 2.683418 1_555
S5 U0 2.683410 1_455
S6 U0 2.683411 1_545
S7 U1 2.683410 1_554
S8 U0 2.705622 1_555
S9 U1 2.705622 1_555
S10 U1 2.705622 1_555
S11 U0 2.705622 1_555
