# generated using pymatgen
data_NaNb4Bi5O18
_symmetry_space_group_name_H-M   'P 1'
_cell_length_a   12.81667798
_cell_length_b   12.81667798
_cell_length_c   5.55053016
_cell_angle_alpha   89.86316300
_cell_angle_beta   89.86316300
_cell_angle_gamma   155.23686927
_symmetry_Int_Tables_number   1
_chemical_formula_structural   NaNb4Bi5O18
_chemical_formula_sum   'Na1 Nb4 Bi5 O18'
_cell_volume   381.88754929
_cell_formula_units_Z   1
loop_
 _symmetry_equiv_pos_site_id
 _symmetry_equiv_pos_as_xyz
  1  'x, y, z'
loop_
 _atom_site_type_symbol
 _atom_site_label
 _atom_site_symmetry_multiplicity
 _atom_site_fract_x
 _atom_site_fract_y
 _atom_site_fract_z
 _atom_site_occupancy
  Na  Na0  1  0.73543289  0.73543289  0.51261911  1
  Nb  Nb0  1  0.82737543  0.66093177  0.04283083  1
  Nb  Nb1  1  0.66093177  0.82737543  0.04283083  1
  Nb  Nb2  1  0.15527111  0.32382773  0.53900086  1
  Nb  Nb3  1  0.32382773  0.15527111  0.53900086  1
  Bi  Bi0  1  0.08144658  0.48025234  0.97350373  1
  Bi  Bi1  1  0.48025234  0.08144658  0.97350373  1
  Bi  Bi2  1  0.92504859  0.52493792  0.47462831  1
  Bi  Bi3  1  0.52493792  0.92504859  0.47462831  1
  Bi  Bi4  1  0.23300856  0.23300856  0.99415784  1
  O  O0  1  0.47770306  0.60409989  0.78321504  1
  O  O1  1  0.60409989  0.47770306  0.78321504  1
  O  O2  1  0.52617524  0.39590803  0.27968850  1
  O  O3  1  0.39590803  0.52617524  0.27968850  1
  O  O4  1  0.83489036  0.52051247  0.05786956  1
  O  O5  1  0.52051247  0.83489036  0.05786956  1
  O  O6  1  0.16995593  0.48377633  0.57638569  1
  O  O7  1  0.48377633  0.16995593  0.57638569  1
  O  O8  1  0.97722335  0.14818559  0.87553090  1
  O  O9  1  0.14818559  0.97722335  0.87553090  1
  O  O10  1  0.04173445  0.85921490  0.36486387  1
  O  O11  1  0.85921490  0.04173445  0.36486387  1
  O  O12  1  0.83436214  0.83436214  0.09121940  1
  O  O13  1  0.17310383  0.17310383  0.59669577  1
  O  O14  1  0.76572677  0.26339476  0.75168976  1
  O  O15  1  0.26339476  0.76572677  0.75168976  1
  O  O16  1  0.23813741  0.73836259  0.25324739  1
  O  O17  1  0.73836259  0.23813741  0.25324739  1
loop_
_geom_bond_atom_site_label_1
_geom_bond_atom_site_label_2
_geom_bond_distance
_geom_bond_site_symmetry_2
Na0 O12 2.395457 1_555
Na0 O0 2.422187 1_555
Na0 O1 2.422187 1_555
Na0 O13 2.455530 1_665
Na0 O3 2.578542 1_555
Na0 O2 2.578542 1_555
Na0 O11 2.696051 1_565
Na0 O10 2.696051 1_655
Nb0 O4 1.889265 1_555
Nb0 O1 1.900445 1_554
Nb0 O9 1.973525 1_654
Nb0 O2 2.075886 1_555
Nb0 O10 2.136966 1_655
Nb0 O12 2.159279 1_555
Nb1 O5 1.889265 1_555
Nb1 O0 1.900445 1_554
Nb1 O8 1.973525 1_564
Nb1 O3 2.075886 1_555
Nb1 O11 2.136966 1_565
Nb1 O12 2.159279 1_555
Nb2 O11 1.877081 1_455
Nb2 O6 1.892757 1_555
Nb2 O3 1.935050 1_555
Nb2 O8 2.096275 1_455
Nb2 O13 2.164671 1_555
Nb2 O0 2.215723 1_555
Nb3 O10 1.877081 1_545
Nb3 O7 1.892757 1_555
Nb3 O2 1.935050 1_555
Nb3 O9 2.096275 1_545
Nb3 O13 2.164671 1_555
Nb3 O1 2.215723 1_555
Bi0 O15 2.193237 1_555
Bi0 O14 2.286877 1_455
Bi0 O16 2.315558 1_556
Bi0 O6 2.458046 1_555
Bi0 O5 2.473231 1_556
Bi0 O17 2.557222 1_456
Bi1 O14 2.193237 1_555
Bi1 O15 2.286877 1_545
Bi1 O17 2.315558 1_556
Bi1 O7 2.458046 1_555
Bi1 O4 2.473231 1_556
Bi1 O16 2.557222 1_546
Bi2 O17 2.193042 1_555
Bi2 O16 2.262872 1_655
Bi2 O14 2.302305 1_555
Bi2 O7 2.499353 1_555
Bi2 O15 2.538514 1_655
Bi2 O4 2.565906 1_555
Bi3 O16 2.193042 1_555
Bi3 O17 2.262872 1_565
Bi3 O15 2.302305 1_555
Bi3 O6 2.499353 1_555
Bi3 O14 2.538514 1_565
Bi3 O5 2.565906 1_555
Bi4 O13 2.234184 1_555
Bi4 O12 2.250519 1_446
Bi4 O8 2.429802 1_455
Bi4 O9 2.429802 1_545
Bi4 O1 2.587326 1_555
Bi4 O0 2.587326 1_555
Bi4 O2 2.605042 1_556
Bi4 O3 2.605042 1_556
