# generated using pymatgen
data_Ce4(TmS2)11
_symmetry_space_group_name_H-M   'P 1'
_cell_length_a   19.59585179
_cell_length_b   19.59585179
_cell_length_c   11.31532561
_cell_angle_alpha   88.61184172
_cell_angle_beta   88.61184172
_cell_angle_gamma   11.51514356
_symmetry_Int_Tables_number   1
_chemical_formula_structural   Ce4(TmS2)11
_chemical_formula_sum   'Ce4 Tm11 S22'
_cell_volume   867.13296240
_cell_formula_units_Z   1
loop_
 _symmetry_equiv_pos_site_id
 _symmetry_equiv_pos_as_xyz
  1  'x, y, z'
loop_
 _atom_site_type_symbol
 _atom_site_label
 _atom_site_symmetry_multiplicity
 _atom_site_fract_x
 _atom_site_fract_y
 _atom_site_fract_z
 _atom_site_occupancy
  Ce  Ce0  1  0.10396700  0.10396700  0.98806300  1
  Ce  Ce1  1  0.89603300  0.89603300  0.01193700  1
  Ce  Ce2  1  0.36728200  0.36728200  0.65251900  1
  Ce  Ce3  1  0.63271800  0.63271800  0.34748100  1
  Tm  Tm0  1  0.79810700  0.79810700  0.94179600  1
  Tm  Tm1  1  0.20189300  0.20189300  0.05820400  1
  Tm  Tm2  1  0.46175600  0.46175600  0.72893900  1
  Tm  Tm3  1  0.53824400  0.53824400  0.27106100  1
  Tm  Tm4  1  0.65761500  0.65761500  0.69781800  1
  Tm  Tm5  1  0.34238500  0.34238500  0.30218200  1
  Tm  Tm6  1  0.26412200  0.26412200  0.64797300  1
  Tm  Tm7  1  0.73587800  0.73587800  0.35202700  1
  Tm  Tm8  1  0.06950900  0.06950900  0.64022600  1
  Tm  Tm9  1  0.93049100  0.93049100  0.35977400  1
  Tm  Tm10  1  0.00000000  0.00000000  0.00000000  1
  S  S0  1  0.08760300  0.08760300  0.24844300  1
  S  S1  1  0.91239700  0.91239700  0.75155700  1
  S  S2  1  0.18858900  0.18858900  0.30787600  1
  S  S3  1  0.81141100  0.81141100  0.69212400  1
  S  S4  1  0.27996100  0.27996100  0.40977600  1
  S  S5  1  0.72003900  0.72003900  0.59022400  1
  S  S6  1  0.44583000  0.44583000  0.50451800  1
  S  S7  1  0.55417000  0.55417000  0.49548200  1
  S  S8  1  0.13481100  0.13481100  0.54580500  1
  S  S9  1  0.86518900  0.86518900  0.45419500  1
  S  S10  1  0.59296200  0.59296200  0.78860100  1
  S  S11  1  0.40703800  0.40703800  0.21139900  1
  S  S12  1  0.45281100  0.45281100  0.96847500  1
  S  S13  1  0.54718900  0.54718900  0.03152500  1
  S  S14  1  0.35111300  0.35111300  0.90857300  1
  S  S15  1  0.64888700  0.64888700  0.09142700  1
  S  S16  1  0.16830900  0.16830900  0.84876000  1
  S  S17  1  0.83169100  0.83169100  0.15124000  1
  S  S18  1  0.00786400  0.00786400  0.76044200  1
  S  S19  1  0.99213600  0.99213600  0.23955800  1
  S  S20  1  0.25515400  0.25515400  0.88063800  1
  S  S21  1  0.74484600  0.74484600  0.11936200  1
loop_
_geom_bond_atom_site_label_1
_geom_bond_atom_site_label_2
_geom_bond_distance
_geom_bond_site_symmetry_2
Ce0 S15 2.898347 1_456
Ce0 S15 2.898347 1_546
Ce0 S16 2.930332 1_555
Ce0 S13 2.992522 1_546
Ce0 S13 2.992522 1_456
Ce0 S0 2.999368 1_556
Ce0 S10 3.031471 1_545
Ce0 S10 3.031471 1_455
Ce1 S14 2.898347 1_564
Ce1 S14 2.898347 1_654
Ce1 S17 2.930332 1_555
Ce1 S12 2.992522 1_654
Ce1 S12 2.992522 1_564
Ce1 S1 2.999368 1_554
Ce1 S11 3.031471 1_655
Ce1 S11 3.031471 1_565
Ce2 S1 2.882922 1_545
Ce2 S1 2.882922 1_455
Ce2 S14 2.950104 1_555
Ce2 S3 2.960454 1_545
Ce2 S3 2.960454 1_455
Ce2 S9 2.985988 1_545
Ce2 S9 2.985988 1_455
Ce2 S6 3.454870 1_555
Ce3 S0 2.882922 1_565
Ce3 S0 2.882922 1_655
Ce3 S15 2.950104 1_555
Ce3 S2 2.960454 1_565
Ce3 S2 2.960454 1_655
Ce3 S8 2.985988 1_655
Ce3 S8 2.985988 1_565
Ce3 S7 3.454870 1_555
S0 Tm3 2.758723 1_545
S0 Tm3 2.758723 1_455
S1 Tm2 2.758723 1_655
S1 Tm2 2.758723 1_565
S2 Tm7 2.749416 1_455
S2 Tm7 2.749416 1_545
S2 Tm1 2.859906 1_555
S3 Tm6 2.749416 1_655
S3 Tm6 2.749416 1_565
S3 Tm0 2.859906 1_555
S4 Tm5 2.695002 1_555
S4 Tm7 2.702057 1_455
S4 Tm7 2.702057 1_545
S4 Tm6 2.750439 1_555
S5 Tm4 2.695002 1_555
S5 Tm6 2.702057 1_565
S5 Tm6 2.702057 1_655
S5 Tm7 2.750439 1_555
S6 Tm2 2.628877 1_555
S6 Tm9 2.636757 1_455
S6 Tm9 2.636757 1_545
S7 Tm3 2.628877 1_555
S7 Tm8 2.636757 1_655
S7 Tm8 2.636757 1_565
S8 Tm8 2.737350 1_555
S8 Tm4 2.772798 1_455
S8 Tm4 2.772798 1_545
S9 Tm9 2.737350 1_555
S9 Tm5 2.772798 1_655
S9 Tm5 2.772798 1_565
S10 Tm4 2.699064 1_555
S10 Tm8 2.755799 1_655
S10 Tm8 2.755799 1_565
S11 Tm5 2.699064 1_555
S11 Tm9 2.755799 1_455
S11 Tm9 2.755799 1_545
S12 Tm10 2.722074 1_656
S12 Tm10 2.722074 1_566
S12 Tm2 2.724343 1_555
S13 Tm10 2.722074 1_565
S13 Tm10 2.722074 1_655
S13 Tm3 2.724343 1_555
S14 Tm0 2.870571 1_455
S14 Tm0 2.870571 1_545
S15 Tm1 2.870571 1_655
S15 Tm1 2.870571 1_565
S16 Tm4 2.643908 1_455
S16 Tm4 2.643908 1_545
S16 Tm1 2.735448 1_556
S17 Tm5 2.643908 1_565
S17 Tm5 2.643908 1_655
S17 Tm0 2.735448 1_554
S18 Tm2 2.693586 1_455
S18 Tm2 2.693586 1_545
S18 Tm10 2.720537 1_556
S18 Tm8 2.733006 1_555
S19 Tm3 2.693586 1_655
S19 Tm3 2.693586 1_565
S19 Tm10 2.720537 1_665
S19 Tm9 2.733006 1_555
S20 Tm6 2.647350 1_555
S20 Tm0 2.684253 1_455
S20 Tm0 2.684253 1_545
S20 Tm1 2.854311 1_556
S21 Tm7 2.647350 1_555
S21 Tm1 2.684253 1_565
S21 Tm1 2.684253 1_655
S21 Tm0 2.854311 1_554
