# generated using pymatgen
data_YNiO3
_symmetry_space_group_name_H-M   'P 1'
_cell_length_a   5.16370850
_cell_length_b   5.50626840
_cell_length_c   7.38760105
_cell_angle_alpha   90.00000000
_cell_angle_beta   90.00000000
_cell_angle_gamma   90.00000000
_symmetry_Int_Tables_number   1
_chemical_formula_structural   YNiO3
_chemical_formula_sum   'Y4 Ni4 O12'
_cell_volume   210.04992413
_cell_formula_units_Z   4
loop_
 _symmetry_equiv_pos_site_id
 _symmetry_equiv_pos_as_xyz
  1  'x, y, z'
loop_
 _atom_site_type_symbol
 _atom_site_label
 _atom_site_symmetry_multiplicity
 _atom_site_fract_x
 _atom_site_fract_y
 _atom_site_fract_z
 _atom_site_occupancy
  Y  Y0  1  0.48102473  0.42702572  0.75000000  1
  Y  Y1  1  0.01897527  0.92702572  0.75000000  1
  Y  Y2  1  0.51897527  0.57297428  0.25000000  1
  Y  Y3  1  0.98102473  0.07297428  0.25000000  1
  Ni  Ni0  1  -0.00000000  0.50000000  -0.00000000  1
  Ni  Ni1  1  0.50000000  -0.00000000  0.50000000  1
  Ni  Ni2  1  -0.00000000  0.50000000  0.50000000  1
  Ni  Ni3  1  0.50000000  -0.00000000  -0.00000000  1
  O  O0  1  0.69566590  0.30309283  0.45032928  1
  O  O1  1  0.80433410  0.80309283  0.04967072  1
  O  O2  1  0.30433410  0.69690717  0.54967072  1
  O  O3  1  0.19566590  0.19690717  0.95032928  1
  O  O4  1  0.19566590  0.19690717  0.54967072  1
  O  O5  1  0.30433410  0.69690717  0.95032928  1
  O  O6  1  0.80433410  0.80309283  0.45032928  1
  O  O7  1  0.69566590  0.30309283  0.04967072  1
  O  O8  1  0.09856187  0.47212432  0.25000000  1
  O  O9  1  0.40143813  0.97212432  0.25000000  1
  O  O10  1  0.90143813  0.52787568  0.75000000  1
  O  O11  1  0.59856187  0.02787568  0.75000000  1
loop_
_geom_bond_atom_site_label_1
_geom_bond_atom_site_label_2
_geom_bond_distance
_geom_bond_site_symmetry_2
Ni0 O8 1.921881 1_555
Ni0 O10 1.921881 1_454
Ni0 O5 1.944166 1_554
Ni0 O7 1.944166 1_455
Ni0 O1 1.985131 1_455
Ni0 O3 1.985131 1_554
Ni1 O9 1.921881 1_545
Ni1 O11 1.921881 1_555
Ni1 O4 1.944166 1_555
Ni1 O6 1.944166 1_545
Ni1 O0 1.985131 1_555
Ni1 O2 1.985131 1_545
Ni2 O8 1.921881 1_555
Ni2 O10 1.921881 1_455
Ni2 O2 1.944166 1_555
Ni2 O0 1.944166 1_455
Ni2 O6 1.985131 1_455
Ni2 O4 1.985131 1_555
Ni3 O11 1.921881 1_554
Ni3 O9 1.921881 1_545
Ni3 O3 1.944166 1_554
Ni3 O1 1.944166 1_545
Ni3 O7 1.985131 1_555
Ni3 O5 1.985131 1_544
O0 Y2 2.287140 1_555
O0 Y3 2.442748 1_555
O0 Y0 2.568118 1_555
O1 Y3 2.287140 1_565
O1 Y2 2.442748 1_555
O1 Y1 2.568118 1_654
O2 Y0 2.287140 1_555
O2 Y1 2.442748 1_555
O2 Y2 2.568118 1_555
O3 Y1 2.287140 1_545
O3 Y0 2.442748 1_555
O3 Y3 2.568118 1_456
O4 Y1 2.287140 1_545
O4 Y0 2.442748 1_555
O4 Y3 2.568118 1_455
O5 Y0 2.287140 1_555
O5 Y1 2.442748 1_555
O5 Y2 2.568118 1_556
O6 Y3 2.287140 1_565
O6 Y2 2.442748 1_555
O6 Y1 2.568118 1_655
O7 Y2 2.287140 1_555
O7 Y3 2.442748 1_555
O7 Y0 2.568118 1_554
O8 Y2 2.240790 1_555
O8 Y3 2.280089 1_455
O9 Y3 2.240790 1_465
O9 Y2 2.280089 1_555
O10 Y0 2.240790 1_555
O10 Y1 2.280089 1_655
O11 Y1 2.240790 1_645
O11 Y0 2.280089 1_555
