# generated using pymatgen
data_Na(Mo3Se4)2
_symmetry_space_group_name_H-M   'P 1'
_cell_length_a   6.83618979
_cell_length_b   6.83618979
_cell_length_c   6.83618919
_cell_angle_alpha   89.77695779
_cell_angle_beta   89.77695779
_cell_angle_gamma   89.77695255
_symmetry_Int_Tables_number   1
_chemical_formula_structural   Na(Mo3Se4)2
_chemical_formula_sum   'Na1 Mo6 Se8'
_cell_volume   319.47174160
_cell_formula_units_Z   1
loop_
 _symmetry_equiv_pos_site_id
 _symmetry_equiv_pos_as_xyz
  1  'x, y, z'
loop_
 _atom_site_type_symbol
 _atom_site_label
 _atom_site_symmetry_multiplicity
 _atom_site_fract_x
 _atom_site_fract_y
 _atom_site_fract_z
 _atom_site_occupancy
  Na  Na0  1  0.00000000  0.00000000  0.00000000  1
  Mo  Mo0  1  0.76478400  0.44396400  0.57935100  1
  Mo  Mo1  1  0.57935100  0.76478400  0.44396400  1
  Mo  Mo2  1  0.44396400  0.57935100  0.76478400  1
  Mo  Mo3  1  0.23521600  0.55603600  0.42064900  1
  Mo  Mo4  1  0.42064900  0.23521600  0.55603600  1
  Mo  Mo5  1  0.55603600  0.42064900  0.23521600  1
  Se  Se0  1  0.87582500  0.61730800  0.25339500  1
  Se  Se1  1  0.25339500  0.87582500  0.61730800  1
  Se  Se2  1  0.61730800  0.25339500  0.87582500  1
  Se  Se3  1  0.12417500  0.38269200  0.74660500  1
  Se  Se4  1  0.74660500  0.12417500  0.38269200  1
  Se  Se5  1  0.38269200  0.74660500  0.12417500  1
  Se  Se6  1  0.76430100  0.76430100  0.76430100  1
  Se  Se7  1  0.23569900  0.23569900  0.23569900  1
loop_
_geom_bond_atom_site_label_1
_geom_bond_atom_site_label_2
_geom_bond_distance
_geom_bond_site_symmetry_2
Na0 Se6 2.801667 1_444
Na0 Se7 2.801667 1_555
Na0 Se4 3.245942 1_455
Na0 Se1 3.245942 1_544
Na0 Se5 3.245942 1_545
Na0 Se2 3.245942 1_454
Na0 Se0 3.245942 1_445
Na0 Se3 3.245942 1_554
Mo0 Se6 2.532916 1_555
Mo0 Se4 2.574558 1_555
Mo0 Se2 2.606741 1_555
Mo0 Se0 2.630412 1_555
Mo0 Se3 2.743917 1_655
Mo1 Se6 2.532916 1_555
Mo1 Se5 2.574558 1_555
Mo1 Se0 2.606741 1_555
Mo1 Se1 2.630412 1_555
Mo1 Se4 2.743918 1_565
Mo2 Se6 2.532916 1_555
Mo2 Se3 2.574558 1_555
Mo2 Se1 2.606741 1_555
Mo2 Se2 2.630412 1_555
Mo2 Se5 2.743917 1_556
Mo3 Se7 2.532916 1_555
Mo3 Se1 2.574558 1_555
Mo3 Se5 2.606741 1_555
Mo3 Se3 2.630412 1_555
Mo3 Se0 2.743917 1_455
Mo4 Se7 2.532916 1_555
Mo4 Se2 2.574558 1_555
Mo4 Se3 2.606741 1_555
Mo4 Se4 2.630412 1_555
Mo4 Se1 2.743918 1_545
Mo5 Se7 2.532916 1_555
Mo5 Se0 2.574558 1_555
Mo5 Se4 2.606741 1_555
Mo5 Se5 2.630412 1_555
Mo5 Se2 2.743917 1_554
