# generated using pymatgen
data_TiCrAs
_symmetry_space_group_name_H-M   'P 1'
_cell_length_a   3.33175700
_cell_length_b   6.62503695
_cell_length_c   6.62503695
_cell_angle_alpha   119.99998954
_cell_angle_beta   90.00000000
_cell_angle_gamma   90.00000000
_symmetry_Int_Tables_number   1
_chemical_formula_structural   TiCrAs
_chemical_formula_sum   'Ti3 Cr3 As3'
_cell_volume   126.64282985
_cell_formula_units_Z   3
loop_
 _symmetry_equiv_pos_site_id
 _symmetry_equiv_pos_as_xyz
  1  'x, y, z'
loop_
 _atom_site_type_symbol
 _atom_site_label
 _atom_site_symmetry_multiplicity
 _atom_site_fract_x
 _atom_site_fract_y
 _atom_site_fract_z
 _atom_site_occupancy
  Ti  Ti0  1  0.50000000  0.59521000  0.59521000  1
  Ti  Ti1  1  0.50000000  0.00000000  0.40479000  1
  Ti  Ti2  1  0.50000000  0.40479000  0.00000000  1
  Cr  Cr0  1  0.00000000  0.25737900  0.25737900  1
  Cr  Cr1  1  0.00000000  0.00000000  0.74262100  1
  Cr  Cr2  1  0.00000000  0.74262100  0.00000000  1
  As  As0  1  0.00000000  0.66666700  0.33333300  1
  As  As1  1  0.00000000  0.33333300  0.66666700  1
  As  As2  1  0.50000000  0.00000000  0.00000000  1
loop_
_geom_bond_atom_site_label_1
_geom_bond_atom_site_label_2
_geom_bond_distance
_geom_bond_site_symmetry_2
Cr0 Ti0 2.790060 1_555
Cr0 Ti0 2.790060 1_455
Cr0 Ti2 2.881263 1_555
Cr0 Ti2 2.881263 1_455
Cr0 Ti1 2.881263 1_555
Cr0 Ti1 2.881263 1_455
Cr1 Ti1 2.790060 1_455
Cr1 Ti1 2.790060 1_555
Cr1 Ti0 2.881263 1_445
Cr1 Ti0 2.881263 1_545
Cr1 Ti2 2.881263 1_456
Cr1 Ti2 2.881263 1_556
Cr2 Ti2 2.790060 1_455
Cr2 Ti2 2.790060 1_555
Cr2 Ti0 2.881263 1_454
Cr2 Ti0 2.881263 1_554
Cr2 Ti1 2.881263 1_465
Cr2 Ti1 2.881263 1_565
As0 Cr2 2.498244 1_555
As0 Cr1 2.498249 1_565
As0 Cr0 2.498251 1_555
As0 Ti1 2.613542 1_465
As0 Ti1 2.613542 1_565
As0 Ti2 2.613544 1_455
As0 Ti2 2.613544 1_555
As0 Ti0 2.613547 1_555
As0 Ti0 2.613547 1_455
As1 Cr1 2.498244 1_555
As1 Cr2 2.498249 1_556
As1 Cr0 2.498251 1_555
As1 Ti2 2.613542 1_556
As1 Ti2 2.613542 1_456
As1 Ti1 2.613544 1_455
As1 Ti1 2.613544 1_555
As1 Ti0 2.613547 1_555
As1 Ti0 2.613547 1_455
As2 Cr2 2.383836 1_545
As2 Cr2 2.383836 1_645
As2 Cr1 2.383836 1_654
As2 Cr1 2.383836 1_554
As2 Cr0 2.383836 1_655
As2 Cr0 2.383836 1_555
As2 Ti1 2.681749 1_555
As2 Ti2 2.681749 1_555
As2 Ti0 2.681749 1_544
