# generated using pymatgen
data_MgZnH12(CO3)4
_symmetry_space_group_name_H-M   'P 1'
_cell_length_a   7.28818000
_cell_length_b   8.78190500
_cell_length_c   9.43894171
_cell_angle_alpha   82.42566688
_cell_angle_beta   90.00000000
_cell_angle_gamma   90.00000000
_symmetry_Int_Tables_number   1
_chemical_formula_structural   MgZnH12(CO3)4
_chemical_formula_sum   'Mg2 Zn2 H24 C8 O24'
_cell_volume   598.85977900
_cell_formula_units_Z   2
loop_
 _symmetry_equiv_pos_site_id
 _symmetry_equiv_pos_as_xyz
  1  'x, y, z'
loop_
 _atom_site_type_symbol
 _atom_site_label
 _atom_site_symmetry_multiplicity
 _atom_site_fract_x
 _atom_site_fract_y
 _atom_site_fract_z
 _atom_site_occupancy
  Mg  Mg0  1  0.00000000  0.50000000  0.50000000  1
  Mg  Mg1  1  0.50000000  0.50000000  0.00000000  1
  Zn  Zn0  1  0.50000000  0.00000000  0.50000000  1
  Zn  Zn1  1  0.00000000  0.00000000  0.00000000  1
  H  H0  1  0.59814000  0.80358400  0.73547700  1
  H  H1  1  0.09814000  0.19641600  0.76452300  1
  H  H2  1  0.40186000  0.19641600  0.26452300  1
  H  H3  1  0.90186000  0.80358400  0.23547700  1
  H  H4  1  0.98133300  0.82596900  0.60389500  1
  H  H5  1  0.48133300  0.17403100  0.89610500  1
  H  H6  1  0.01866700  0.17403100  0.39610500  1
  H  H7  1  0.51866700  0.82596900  0.10389500  1
  H  H8  1  0.40375600  0.73647500  0.45170100  1
  H  H9  1  0.90375600  0.26352500  0.04829900  1
  H  H10  1  0.59624400  0.26352500  0.54829900  1
  H  H11  1  0.09624400  0.73647500  0.95170100  1
  H  H12  1  0.29142500  0.56984800  0.72421300  1
  H  H13  1  0.79142500  0.43015200  0.77578700  1
  H  H14  1  0.70857500  0.43015200  0.27578700  1
  H  H15  1  0.20857500  0.56984800  0.22421300  1
  H  H16  1  0.61702600  0.71686200  0.49025900  1
  H  H17  1  0.11702600  0.28313800  0.00974100  1
  H  H18  1  0.38297400  0.28313800  0.50974100  1
  H  H19  1  0.88297400  0.71686200  0.99025900  1
  H  H20  1  0.64598800  0.97143300  0.77619000  1
  H  H21  1  0.14598800  0.02856700  0.72381000  1
  H  H22  1  0.35401200  0.02856700  0.22381000  1
  H  H23  1  0.85401200  0.97143300  0.27619000  1
  C  C0  1  0.22684900  0.46201900  0.77350900  1
  C  C1  1  0.72684900  0.53798100  0.72649100  1
  C  C2  1  0.77315100  0.53798100  0.22649100  1
  C  C3  1  0.27315100  0.46201900  0.27350900  1
  C  C4  1  0.12186000  0.82158200  0.56037000  1
  C  C5  1  0.62186000  0.17841800  0.93963000  1
  C  C6  1  0.87814000  0.17841800  0.43963000  1
  C  C7  1  0.37814000  0.82158200  0.06037000  1
  O  O0  1  0.16552700  0.70464200  0.50044600  1
  O  O1  1  0.66552700  0.29535800  0.99955400  1
  O  O2  1  0.83447300  0.29535800  0.49955400  1
  O  O3  1  0.33447300  0.70464200  0.00044600  1
  O  O4  1  0.27755400  0.40802500  0.89914900  1
  O  O5  1  0.77755400  0.59197500  0.60085100  1
  O  O6  1  0.72244600  0.59197500  0.10085100  1
  O  O7  1  0.22244600  0.40802500  0.39914900  1
  O  O8  1  0.10767800  0.40068100  0.70119200  1
  O  O9  1  0.60767800  0.59931900  0.79880800  1
  O  O10  1  0.89232200  0.59931900  0.29880800  1
  O  O11  1  0.39232200  0.40068100  0.20119200  1
  O  O12  1  0.52767700  0.78116600  0.42970700  1
  O  O13  1  0.02767700  0.21883400  0.07029300  1
  O  O14  1  0.47232300  0.21883400  0.57029300  1
  O  O15  1  0.97232300  0.78116600  0.92970700  1
  O  O16  1  0.22554600  0.93359200  0.57680500  1
  O  O17  1  0.72554600  0.06640800  0.92319500  1
  O  O18  1  0.77445400  0.06640800  0.42319500  1
  O  O19  1  0.27445400  0.93359200  0.07680500  1
  O  O20  1  0.60543700  0.91409700  0.69828600  1
  O  O21  1  0.10543700  0.08590300  0.80171400  1
  O  O22  1  0.39456300  0.08590300  0.30171400  1
  O  O23  1  0.89456300  0.91409700  0.19828600  1
loop_
_geom_bond_atom_site_label_1
_geom_bond_atom_site_label_2
_geom_bond_distance
_geom_bond_site_symmetry_2
Mg0 O5 2.095147 1_455
Mg0 O7 2.095147 1_555
Mg0 O8 2.132210 1_555
Mg0 O10 2.132210 1_455
Mg0 O0 2.164977 1_555
Mg0 O2 2.164977 1_455
Mg1 O6 2.095147 1_555
Mg1 O4 2.095147 1_554
Mg1 O11 2.132210 1_555
Mg1 O9 2.132210 1_554
Mg1 O1 2.164977 1_554
Mg1 O3 2.164977 1_555
H0 O20 0.989011 1_555
H1 O21 0.989011 1_555
H2 O22 0.989011 1_555
H3 O23 0.989011 1_555
H8 O12 0.995665 1_555
H9 O13 0.995665 1_655
H10 O14 0.995665 1_555
H11 O15 0.995665 1_455
H16 O12 0.992234 1_555
H17 O13 0.992234 1_555
H18 O14 0.992234 1_555
H19 O15 0.992234 1_555
H20 O20 0.989544 1_555
H21 O21 0.989544 1_555
H22 O22 0.989544 1_555
H23 O23 0.989544 1_555
C0 H12 1.103882 1_555
C0 O8 1.267829 1_555
C0 O4 1.272611 1_555
C1 H13 1.103882 1_555
C1 O9 1.267829 1_555
C1 O5 1.272611 1_555
C2 H14 1.103882 1_555
C2 O10 1.267829 1_555
C2 O6 1.272611 1_555
C3 H15 1.103882 1_555
C3 O11 1.267829 1_555
C3 O7 1.272611 1_555
C4 H4 1.106072 1_455
C4 O16 1.266072 1_555
C4 O0 1.276315 1_555
C5 H5 1.106072 1_555
C5 O17 1.266072 1_555
C5 O1 1.276315 1_555
C6 H6 1.106072 1_655
C6 O18 1.266072 1_555
C6 O2 1.276315 1_555
C7 H7 1.106072 1_555
C7 O19 1.266072 1_555
C7 O3 1.276315 1_555
O12 Zn0 2.123744 1_565
O13 Zn1 2.123744 1_555
O14 Zn0 2.123744 1_555
O15 Zn1 2.123744 1_666
O16 Zn0 2.180664 1_565
O17 Zn1 2.180664 1_656
O18 Zn0 2.180664 1_555
O19 Zn1 2.180664 1_565
O20 Zn0 2.071308 1_565
O21 Zn1 2.071308 1_556
O22 Zn0 2.071308 1_555
O23 Zn1 2.071308 1_665
