# generated using pymatgen
data_Co4GeN4
_symmetry_space_group_name_H-M   'P 1'
_cell_length_a   5.39289300
_cell_length_b   6.81162700
_cell_length_c   10.70090300
_cell_angle_alpha   90.00000000
_cell_angle_beta   90.00000000
_cell_angle_gamma   90.00000000
_symmetry_Int_Tables_number   1
_chemical_formula_structural   Co4GeN4
_chemical_formula_sum   'Co16 Ge4 N16'
_cell_volume   393.09098971
_cell_formula_units_Z   4
loop_
 _symmetry_equiv_pos_site_id
 _symmetry_equiv_pos_as_xyz
  1  'x, y, z'
loop_
 _atom_site_type_symbol
 _atom_site_label
 _atom_site_symmetry_multiplicity
 _atom_site_fract_x
 _atom_site_fract_y
 _atom_site_fract_z
 _atom_site_occupancy
  Co  Co0  1  0.10516200  0.35921000  0.55362000  1
  Co  Co1  1  0.39483800  0.64079000  0.55362000  1
  Co  Co2  1  0.10516200  0.14079000  0.94638000  1
  Co  Co3  1  0.39483800  0.85921000  0.94638000  1
  Co  Co4  1  0.89483800  0.64079000  0.44638000  1
  Co  Co5  1  0.60516200  0.35921000  0.44638000  1
  Co  Co6  1  0.89483800  0.85921000  0.05362000  1
  Co  Co7  1  0.60516200  0.14079000  0.05362000  1
  Co  Co8  1  0.75000000  0.50000000  0.04630900  1
  Co  Co9  1  0.75000000  0.00000000  0.45369100  1
  Co  Co10  1  0.25000000  0.50000000  0.95369100  1
  Co  Co11  1  0.25000000  0.00000000  0.54630900  1
  Co  Co12  1  0.46085000  0.25000000  0.75000000  1
  Co  Co13  1  0.03915000  0.75000000  0.75000000  1
  Co  Co14  1  0.53915000  0.75000000  0.25000000  1
  Co  Co15  1  0.96085000  0.25000000  0.25000000  1
  Ge  Ge0  1  0.75000000  0.50000000  0.79090300  1
  Ge  Ge1  1  0.75000000  0.00000000  0.70909700  1
  Ge  Ge2  1  0.25000000  0.50000000  0.20909700  1
  Ge  Ge3  1  0.25000000  0.00000000  0.29090300  1
  N  N0  1  0.43802100  0.38233600  0.60580800  1
  N  N1  1  0.06197900  0.61766400  0.60580800  1
  N  N2  1  0.43802100  0.11766400  0.89419200  1
  N  N3  1  0.06197900  0.88233600  0.89419200  1
  N  N4  1  0.56197900  0.61766400  0.39419200  1
  N  N5  1  0.93802100  0.38233600  0.39419200  1
  N  N6  1  0.56197900  0.88233600  0.10580800  1
  N  N7  1  0.93802100  0.11766400  0.10580800  1
  N  N8  1  0.94904100  0.12438500  0.58099800  1
  N  N9  1  0.55095900  0.87561500  0.58099800  1
  N  N10  1  0.94904100  0.37561500  0.91900200  1
  N  N11  1  0.55095900  0.62438500  0.91900200  1
  N  N12  1  0.05095900  0.87561500  0.41900200  1
  N  N13  1  0.44904100  0.12438500  0.41900200  1
  N  N14  1  0.05095900  0.62438500  0.08099800  1
  N  N15  1  0.44904100  0.37561500  0.08099800  1
loop_
_geom_bond_atom_site_label_1
_geom_bond_atom_site_label_2
_geom_bond_distance
_geom_bond_site_symmetry_2
Co0 N8 1.831183 1_455
Co0 N1 1.861570 1_555
Co0 N0 1.886525 1_555
Co0 N5 1.935925 1_455
Co1 N9 1.831183 1_555
Co1 N0 1.861570 1_555
Co1 N1 1.886525 1_555
Co1 N4 1.935925 1_555
Co2 N10 1.831183 1_455
Co2 N3 1.861570 1_545
Co2 N2 1.886525 1_555
Co2 N7 1.935925 1_456
Co3 N11 1.831183 1_555
Co3 N2 1.861570 1_565
Co3 N3 1.886525 1_555
Co3 N6 1.935925 1_556
Co4 N12 1.831183 1_655
Co4 N5 1.861570 1_555
Co4 N4 1.886525 1_555
Co4 N1 1.935925 1_655
Co5 N13 1.831183 1_555
Co5 N4 1.861570 1_555
Co5 N5 1.886525 1_555
Co5 N0 1.935925 1_555
Co6 N14 1.831183 1_655
Co6 N7 1.861570 1_565
Co6 N6 1.886525 1_555
Co6 N3 1.935925 1_654
Co7 N15 1.831183 1_555
Co7 N6 1.861570 1_545
Co7 N7 1.886525 1_555
Co7 N2 1.935925 1_554
Co8 N14 1.868129 1_655
Co8 N15 1.868129 1_555
Co8 N10 1.930264 1_554
Co8 N11 1.930264 1_554
Co9 N12 1.868129 1_645
Co9 N13 1.868129 1_555
Co9 N8 1.930264 1_555
Co9 N9 1.930264 1_545
Co10 N11 1.868129 1_555
Co10 N10 1.868129 1_455
Co10 N15 1.930264 1_556
Co10 N14 1.930264 1_556
Co11 N9 1.868129 1_545
Co11 N8 1.868129 1_455
Co11 N13 1.930264 1_555
Co11 N12 1.930264 1_545
Co12 N0 1.791235 1_555
Co12 N2 1.791235 1_555
Co13 N3 1.791235 1_555
Co13 N1 1.791235 1_555
Co14 N6 1.791235 1_555
Co14 N4 1.791235 1_555
Co15 N5 1.791235 1_555
Co15 N7 1.791235 1_555
Ge0 N10 1.936255 1_555
Ge0 N11 1.936255 1_555
Ge1 N8 1.936255 1_555
Ge1 N9 1.936255 1_545
Ge2 N15 1.936255 1_555
Ge2 N14 1.936255 1_555
Ge3 N13 1.936255 1_555
Ge3 N12 1.936255 1_545
