# generated using pymatgen
data_Zr3Te
_symmetry_space_group_name_H-M   'P 1'
_cell_length_a   11.29532587
_cell_length_b   11.29532587
_cell_length_c   11.29532528
_cell_angle_alpha   29.18850927
_cell_angle_beta   29.18850927
_cell_angle_gamma   29.18850446
_symmetry_Int_Tables_number   1
_chemical_formula_structural   Zr3Te
_chemical_formula_sum   'Zr9 Te3'
_cell_volume   303.23917352
_cell_formula_units_Z   3
loop_
 _symmetry_equiv_pos_site_id
 _symmetry_equiv_pos_as_xyz
  1  'x, y, z'
loop_
 _atom_site_type_symbol
 _atom_site_label
 _atom_site_symmetry_multiplicity
 _atom_site_fract_x
 _atom_site_fract_y
 _atom_site_fract_z
 _atom_site_occupancy
  Zr  Zr0  1  0.41492700  0.91176800  0.41492700  1
  Zr  Zr1  1  0.41492700  0.41492700  0.91176800  1
  Zr  Zr2  1  0.91176800  0.41492700  0.41492700  1
  Zr  Zr3  1  0.58507300  0.08823200  0.58507300  1
  Zr  Zr4  1  0.58507300  0.58507300  0.08823200  1
  Zr  Zr5  1  0.08823200  0.58507300  0.58507300  1
  Zr  Zr6  1  0.66723900  0.66723900  0.66723900  1
  Zr  Zr7  1  0.33276100  0.33276100  0.33276100  1
  Zr  Zr8  1  0.50000000  0.50000000  0.50000000  1
  Te  Te0  1  0.87344000  0.87344000  0.87344000  1
  Te  Te1  1  0.12656000  0.12656000  0.12656000  1
  Te  Te2  1  0.00000000  0.00000000  0.00000000  1
loop_
_geom_bond_atom_site_label_1
_geom_bond_atom_site_label_2
_geom_bond_distance
_geom_bond_site_symmetry_2
Zr0 Zr2 2.828127 1_555
Zr0 Zr1 2.828128 1_555
Zr0 Zr2 2.864091 1_465
Zr0 Zr1 2.864091 1_564
Zr0 Zr8 3.079625 1_555
Zr0 Zr7 3.229159 1_565
Zr0 Zr6 3.250610 1_555
Zr1 Zr2 2.828128 1_555
Zr1 Zr2 2.864091 1_456
Zr1 Zr8 3.079624 1_555
Zr1 Zr7 3.229158 1_556
Zr1 Zr6 3.250610 1_555
Zr2 Zr8 3.079625 1_555
Zr2 Zr7 3.229159 1_655
Zr2 Zr6 3.250610 1_555
Zr3 Zr5 2.828127 1_555
Zr3 Zr4 2.828128 1_555
Zr3 Zr5 2.864091 1_645
Zr3 Zr4 2.864091 1_546
Zr3 Zr8 3.079625 1_555
Zr3 Zr6 3.229159 1_545
Zr3 Zr7 3.250610 1_555
Zr4 Zr5 2.828128 1_555
Zr4 Zr5 2.864091 1_654
Zr4 Zr8 3.079624 1_555
Zr4 Zr6 3.229158 1_554
Zr4 Zr7 3.250610 1_555
Zr5 Zr8 3.079625 1_555
Zr5 Zr6 3.229159 1_455
Zr5 Zr7 3.250610 1_555
Te0 Zr1 3.133500 1_565
Te0 Zr1 3.133500 1_655
Te0 Zr0 3.133500 1_556
Te0 Zr2 3.133500 1_556
Te0 Zr2 3.133501 1_565
Te0 Zr0 3.133501 1_655
Te0 Zr8 3.534278 1_655
Te0 Zr8 3.534278 1_565
Te0 Zr8 3.534278 1_556
Te1 Zr4 3.133500 1_455
Te1 Zr4 3.133500 1_545
Te1 Zr3 3.133500 1_554
Te1 Zr5 3.133500 1_554
Te1 Zr3 3.133501 1_455
Te1 Zr5 3.133501 1_545
Te1 Zr8 3.534278 1_545
Te1 Zr8 3.534278 1_455
Te1 Zr8 3.534278 1_554
Te2 Zr7 3.286456 1_455
Te2 Zr6 3.286456 1_544
Te2 Zr6 3.286456 1_454
Te2 Zr7 3.286456 1_545
Te2 Zr7 3.286457 1_554
Te2 Zr6 3.286457 1_445
