# generated using pymatgen
data_K2VCo6Cu2As5O24
_symmetry_space_group_name_H-M   'P 1'
_cell_length_a   6.93547200
_cell_length_b   8.93878973
_cell_length_c   8.94279018
_cell_angle_alpha   92.40957269
_cell_angle_beta   106.07064919
_cell_angle_gamma   106.03934992
_symmetry_Int_Tables_number   1
_chemical_formula_structural   K2VCo6Cu2As5O24
_chemical_formula_sum   'K2 V1 Co6 Cu2 As5 O24'
_cell_volume   507.76739417
_cell_formula_units_Z   1
loop_
 _symmetry_equiv_pos_site_id
 _symmetry_equiv_pos_as_xyz
  1  'x, y, z'
loop_
 _atom_site_type_symbol
 _atom_site_label
 _atom_site_symmetry_multiplicity
 _atom_site_fract_x
 _atom_site_fract_y
 _atom_site_fract_z
 _atom_site_occupancy
  K  K0  1  0.24979300  0.98578700  0.01401100  1
  K  K1  1  0.74981100  0.01348900  0.98629800  1
  V  V0  1  0.37239800  0.64593700  0.87818200  1
  Co  Co0  1  0.12959200  0.37750900  0.06101300  1
  Co  Co1  1  0.36897600  0.94057500  0.62257700  1
  Co  Co2  1  0.87028100  0.62290700  0.94055300  1
  Co  Co3  1  0.62992800  0.05978600  0.37786100  1
  Co  Co4  1  0.24957500  0.25647200  0.74267000  1
  Co  Co5  1  0.75130400  0.74112300  0.25777200  1
  Cu  Cu0  1  0.24996200  0.50152400  0.49716200  1
  Cu  Cu1  1  0.75007600  0.49735700  0.50292900  1
  As  As0  1  0.74980300  0.28566300  0.71443100  1
  As  As1  1  0.25058600  0.71509000  0.28599200  1
  As  As2  1  0.12768500  0.12232300  0.35273900  1
  As  As3  1  0.62776100  0.35262700  0.12265900  1
  As  As4  1  0.87191500  0.87729100  0.64702700  1
  O  O0  1  0.81891000  0.40660200  0.02886400  1
  O  O1  1  0.68050000  0.97123400  0.59305300  1
  O  O2  1  0.17555900  0.59292100  0.97115700  1
  O  O3  1  0.31977800  0.02847200  0.40692800  1
  O  O4  1  0.38205200  0.33083300  0.98957200  1
  O  O5  1  0.11785600  0.01016000  0.66998900  1
  O  O6  1  0.62246700  0.67216500  0.01262200  1
  O  O7  1  0.88189400  0.99066400  0.33020600  1
  O  O8  1  0.97583100  0.25052100  0.82589100  1
  O  O9  1  0.52390000  0.17410000  0.74973500  1
  O  O10  1  0.02524700  0.75110000  0.17462600  1
  O  O11  1  0.47638900  0.82626900  0.24981400  1
  O  O12  1  0.62535800  0.17446700  0.18437900  1
  O  O13  1  0.87410200  0.81566400  0.82521700  1
  O  O14  1  0.37541300  0.82466500  0.81299800  1
  O  O15  1  0.12630200  0.18446300  0.17457000  1
  O  O16  1  0.23631000  0.51584800  0.27624800  1
  O  O17  1  0.26477400  0.72421600  0.48523000  1
  O  O18  1  0.76399400  0.48490200  0.72425700  1
  O  O19  1  0.73660800  0.27641700  0.51533000  1
  O  O20  1  0.18596000  0.27565700  0.49980200  1
  O  O21  1  0.31157000  0.49885500  0.71999600  1
  O  O22  1  0.81414200  0.72386800  0.49941200  1
  O  O23  1  0.68564000  0.50047800  0.27622600  1
loop_
_geom_bond_atom_site_label_1
_geom_bond_atom_site_label_2
_geom_bond_distance
_geom_bond_site_symmetry_2
K0 O12 2.666380 1_565
K0 O13 2.666672 1_454
K0 O15 2.693703 1_565
K0 O14 2.721678 1_554
K0 O10 2.928427 1_555
K0 O11 2.933612 1_555
K0 O5 2.992934 1_564
K0 O4 3.001054 1_564
K1 O14 2.668961 1_545
K1 O15 2.670764 1_656
K1 O13 2.694573 1_545
K1 O12 2.696653 1_556
K1 O9 2.941897 1_555
K1 O8 2.944381 1_555
K1 O6 2.971641 1_546
K1 O7 2.989266 1_546
Co0 O15 2.036640 1_555
Co0 O16 2.070549 1_555
Co0 O2 2.094685 1_554
Co0 O4 2.156063 1_554
Co0 O8 2.176192 1_454
Co0 O0 2.183137 1_455
Co1 O14 2.026614 1_555
Co1 O17 2.075498 1_555
Co1 O3 2.089043 1_565
Co1 O5 2.141320 1_565
Co1 O9 2.165525 1_565
Co1 O1 2.192618 1_555
Co2 O13 2.042707 1_555
Co2 O18 2.077034 1_555
Co2 O0 2.095850 1_556
Co2 O6 2.137942 1_556
Co2 O2 2.151380 1_655
Co2 O10 2.173045 1_656
Co3 O12 2.045096 1_555
Co3 O19 2.076775 1_555
Co3 O1 2.088242 1_545
Co3 O7 2.145687 1_545
Co3 O11 2.167461 1_545
Co3 O3 2.180790 1_555
Co4 O20 2.117520 1_555
Co4 O21 2.119108 1_555
Co4 O5 2.131688 1_555
Co4 O4 2.139433 1_555
Co4 O9 2.208484 1_555
Co4 O8 2.211553 1_455
Co5 O23 2.095682 1_555
Co5 O22 2.104076 1_555
Co5 O6 2.117101 1_555
Co5 O7 2.157025 1_555
Co5 O10 2.205589 1_655
Co5 O11 2.225096 1_555
Cu0 O21 1.921573 1_555
Cu0 O20 1.946392 1_555
Cu0 O16 1.962833 1_555
Cu0 O17 1.973663 1_555
Cu1 O22 1.952925 1_555
Cu1 O23 1.954663 1_555
Cu1 O19 1.960512 1_555
Cu1 O18 1.964177 1_555
As0 O8 1.727127 1_555
As0 O9 1.727946 1_555
As0 O18 1.753397 1_555
As0 O19 1.754619 1_555
As1 O10 1.726595 1_555
As1 O11 1.729843 1_555
As1 O16 1.753290 1_555
As1 O17 1.754201 1_555
As2 O15 1.707694 1_555
As2 O3 1.734322 1_555
As2 O7 1.735750 1_445
As2 O20 1.737703 1_555
As3 O12 1.704532 1_555
As3 O0 1.729184 1_555
As3 O4 1.741437 1_554
As3 O23 1.744363 1_555
As4 O13 1.705294 1_555
As4 O1 1.730861 1_555
As4 O5 1.740211 1_665
As4 O22 1.742195 1_555
O2 V0 1.756033 1_555
O6 V0 1.762256 1_554
O14 V0 1.720233 1_555
O21 V0 1.764759 1_555
