# generated using pymatgen
data_K2CS3O
_symmetry_space_group_name_H-M   'P 1'
_cell_length_a   16.09296200
_cell_length_b   6.61643200
_cell_length_c   9.18216074
_cell_angle_alpha   47.95891710
_cell_angle_beta   90.00000000
_cell_angle_gamma   90.00000000
_symmetry_Int_Tables_number   1
_chemical_formula_structural   K2CS3O
_chemical_formula_sum   'K8 C4 S12 O4'
_cell_volume   726.10194140
_cell_formula_units_Z   4
loop_
 _symmetry_equiv_pos_site_id
 _symmetry_equiv_pos_as_xyz
  1  'x, y, z'
loop_
 _atom_site_type_symbol
 _atom_site_label
 _atom_site_symmetry_multiplicity
 _atom_site_fract_x
 _atom_site_fract_y
 _atom_site_fract_z
 _atom_site_occupancy
  K  K0  1  0.19871800  0.04107600  0.06386300  1
  K  K1  1  0.30128200  0.04107600  0.56386300  1
  K  K2  1  0.80128200  0.95892400  0.93613700  1
  K  K3  1  0.69871800  0.95892400  0.43613700  1
  K  K4  1  0.94342400  0.90297400  0.32241500  1
  K  K5  1  0.55657600  0.90297400  0.82241500  1
  K  K6  1  0.05657600  0.09702600  0.67758500  1
  K  K7  1  0.44342400  0.09702600  0.17758500  1
  C  C0  1  0.13035100  0.36937700  0.22078100  1
  C  C1  1  0.36964900  0.36937700  0.72078100  1
  C  C2  1  0.86964900  0.63062300  0.77921900  1
  C  C3  1  0.63035100  0.63062300  0.27921900  1
  S  S0  1  0.21992800  0.52492100  0.08476200  1
  S  S1  1  0.28007200  0.52492100  0.58476200  1
  S  S2  1  0.78007200  0.47507900  0.91523800  1
  S  S3  1  0.71992800  0.47507900  0.41523800  1
  S  S4  1  0.37505500  0.02231000  0.89868900  1
  S  S5  1  0.12494500  0.02231000  0.39868900  1
  S  S6  1  0.62494500  0.97769000  0.10131100  1
  S  S7  1  0.87505500  0.97769000  0.60131100  1
  S  S8  1  0.05308800  0.59643900  0.15911000  1
  S  S9  1  0.44691200  0.59643900  0.65911000  1
  S  S10  1  0.94691200  0.40356100  0.84089000  1
  S  S11  1  0.55308800  0.40356100  0.34089000  1
  O  O0  1  0.79007600  0.68645500  0.34396600  1
  O  O1  1  0.70992400  0.68645500  0.84396600  1
  O  O2  1  0.20992400  0.31354500  0.65603400  1
  O  O3  1  0.29007600  0.31354500  0.15603400  1
loop_
_geom_bond_atom_site_label_1
_geom_bond_atom_site_label_2
_geom_bond_distance
_geom_bond_site_symmetry_2
K0 O3 2.858544 1_555
K0 O2 2.874712 1_554
K0 S5 3.219589 1_555
K0 S4 3.258971 1_554
K0 S0 3.307346 1_545
K0 S8 3.386190 1_545
K1 O2 2.858544 1_555
K1 O3 2.874712 1_555
K1 S4 3.219589 1_555
K1 S5 3.258971 1_555
K1 S1 3.307346 1_545
K1 S9 3.386190 1_545
K2 O1 2.858544 1_555
K2 O0 2.874712 1_556
K2 S7 3.219589 1_555
K2 S6 3.258971 1_556
K2 S2 3.307346 1_565
K2 S10 3.386190 1_565
K3 O0 2.858544 1_555
K3 O1 2.874712 1_555
K3 S6 3.219589 1_555
K3 S7 3.258971 1_555
K3 S3 3.307346 1_565
K3 S11 3.386190 1_565
K4 O0 2.793193 1_555
K4 S7 3.115855 1_555
K4 S5 3.223049 1_665
K4 S10 3.302855 1_564
K4 S10 3.537976 1_555
K4 S8 3.680994 1_655
K5 O1 2.793193 1_555
K5 S6 3.115855 1_556
K5 S4 3.223049 1_565
K5 S11 3.302855 1_565
K5 S11 3.537976 1_556
K5 S9 3.680994 1_555
K6 O2 2.793193 1_555
K6 S5 3.115855 1_555
K6 S7 3.223049 1_445
K6 S8 3.302855 1_546
K6 S8 3.537976 1_555
K6 S10 3.680994 1_455
K7 O3 2.793193 1_555
K7 S4 3.115855 1_554
K7 S6 3.223049 1_545
K7 S9 3.302855 1_545
K7 S9 3.537976 1_554
K7 S11 3.680994 1_555
C0 S5 1.710318 1_555
C0 S0 1.724994 1_555
C0 S8 1.727513 1_555
C1 S4 1.710318 1_555
C1 S1 1.724994 1_555
C1 S9 1.727513 1_555
C2 S7 1.710318 1_555
C2 S2 1.724994 1_555
C2 S10 1.727513 1_555
C3 S6 1.710318 1_555
C3 S3 1.724994 1_555
C3 S11 1.727513 1_555
O0 S3 1.559743 1_555
O1 S2 1.559743 1_555
O2 S1 1.559743 1_555
O3 S0 1.559743 1_555
