# generated using pymatgen
data_CeSmB12
_symmetry_space_group_name_H-M   'P 1'
_cell_length_a   5.82608966
_cell_length_b   5.82608966
_cell_length_c   4.12194999
_cell_angle_alpha   90.00000000
_cell_angle_beta   90.00000000
_cell_angle_gamma   90.00000000
_symmetry_Int_Tables_number   1
_chemical_formula_structural   CeSmB12
_chemical_formula_sum   'Ce1 Sm1 B12'
_cell_volume   139.91267053
_cell_formula_units_Z   1
loop_
 _symmetry_equiv_pos_site_id
 _symmetry_equiv_pos_as_xyz
  1  'x, y, z'
loop_
 _atom_site_type_symbol
 _atom_site_label
 _atom_site_symmetry_multiplicity
 _atom_site_fract_x
 _atom_site_fract_y
 _atom_site_fract_z
 _atom_site_occupancy
  Ce  Ce0  1  0.50000000  0.50000000  0.00000000  1
  Sm  Sm0  1  -0.00000000  0.00000000  0.00000000  1
  B  B0  1  -0.00000000  0.50000000  0.19928576  1
  B  B1  1  0.50000000  0.00000000  0.19928576  1
  B  B2  1  0.15061895  0.65007186  0.50000000  1
  B  B3  1  0.65007186  0.15061895  0.50000000  1
  B  B4  1  0.15061895  0.34992814  0.50000000  1
  B  B5  1  0.65007186  0.84938105  0.50000000  1
  B  B6  1  0.84938105  0.34992814  0.50000000  1
  B  B7  1  0.34992814  0.84938105  0.50000000  1
  B  B8  1  0.84938105  0.65007186  0.50000000  1
  B  B9  1  0.34992814  0.15061895  0.50000000  1
  B  B10  1  -0.00000000  0.50000000  0.80071424  1
  B  B11  1  0.50000000  0.00000000  0.80071424  1
loop_
_geom_bond_atom_site_label_1
_geom_bond_atom_site_label_2
_geom_bond_distance
_geom_bond_site_symmetry_2
B0 B10 1.642892 1_554
B0 B4 1.752407 1_555
B0 B6 1.752407 1_455
B0 B2 1.752407 1_555
B0 B8 1.752407 1_455
B0 Sm0 3.026649 1_555
B0 Ce0 3.026649 1_455
B0 Ce0 3.026649 1_555
B0 Sm0 3.026649 1_565
B1 B11 1.642892 1_554
B1 B9 1.752407 1_555
B1 B7 1.752407 1_545
B1 B5 1.752407 1_545
B1 B3 1.752407 1_555
B1 Sm0 3.026649 1_555
B1 Sm0 3.026649 1_655
B1 Ce0 3.026649 1_555
B1 Ce0 3.026649 1_545
B2 B7 1.642175 1_555
B2 B4 1.748664 1_555
B2 B8 1.755039 1_455
B2 Ce0 3.025795 1_556
B2 Ce0 3.025795 1_555
B2 Sm0 3.028862 1_566
B2 Sm0 3.028862 1_565
B3 B6 1.642175 1_555
B3 B9 1.748664 1_555
B3 B5 1.755039 1_545
B3 Ce0 3.025795 1_556
B3 Ce0 3.025795 1_555
B3 Sm0 3.028862 1_655
B3 Sm0 3.028862 1_656
B4 B9 1.642175 1_555
B4 B6 1.755039 1_455
B4 Ce0 3.025795 1_556
B4 Ce0 3.025795 1_555
B4 Sm0 3.028862 1_555
B4 Sm0 3.028862 1_556
B5 B8 1.642175 1_555
B5 B7 1.748664 1_555
B5 Ce0 3.025795 1_556
B5 Ce0 3.025795 1_555
B5 Sm0 3.028862 1_666
B5 Sm0 3.028862 1_665
B6 B8 1.748664 1_555
B6 Ce0 3.025795 1_556
B6 Ce0 3.025795 1_555
B6 Sm0 3.028862 1_655
B6 Sm0 3.028862 1_656
B7 B9 1.755039 1_565
B7 Ce0 3.025795 1_556
B7 Ce0 3.025795 1_555
B7 Sm0 3.028862 1_566
B7 Sm0 3.028862 1_565
B8 Ce0 3.025795 1_556
B8 Ce0 3.025795 1_555
B8 Sm0 3.028862 1_666
B8 Sm0 3.028862 1_665
B9 Ce0 3.025795 1_556
B9 Ce0 3.025795 1_555
B9 Sm0 3.028862 1_555
B9 Sm0 3.028862 1_556
B10 B4 1.752407 1_555
B10 B6 1.752407 1_455
B10 B2 1.752407 1_555
B10 B8 1.752407 1_455
B10 Sm0 3.026649 1_556
B10 Sm0 3.026649 1_566
B10 Ce0 3.026649 1_556
B10 Ce0 3.026649 1_456
B11 B9 1.752407 1_555
B11 B7 1.752407 1_545
B11 B5 1.752407 1_545
B11 B3 1.752407 1_555
B11 Ce0 3.026649 1_546
B11 Sm0 3.026649 1_556
B11 Sm0 3.026649 1_656
B11 Ce0 3.026649 1_556
