# generated using pymatgen
data_SrMg14TiO16
_symmetry_space_group_name_H-M   'P 1'
_cell_length_a   8.66123282
_cell_length_b   8.72836882
_cell_length_c   4.40396643
_cell_angle_alpha   90.00000000
_cell_angle_beta   90.00000000
_cell_angle_gamma   90.00000000
_symmetry_Int_Tables_number   1
_chemical_formula_structural   SrMg14TiO16
_chemical_formula_sum   'Sr1 Mg14 Ti1 O16'
_cell_volume   332.93296765
_cell_formula_units_Z   1
loop_
 _symmetry_equiv_pos_site_id
 _symmetry_equiv_pos_as_xyz
  1  'x, y, z'
loop_
 _atom_site_type_symbol
 _atom_site_label
 _atom_site_symmetry_multiplicity
 _atom_site_fract_x
 _atom_site_fract_y
 _atom_site_fract_z
 _atom_site_occupancy
  Sr  Sr0  1  -0.00000000  0.50000000  -0.00000000  1
  Mg  Mg0  1  0.50000000  0.00000000  -0.00000000  1
  Mg  Mg1  1  0.50000000  0.50000000  -0.00000000  1
  Mg  Mg2  1  -0.00000000  0.24340200  0.50000000  1
  Mg  Mg3  1  -0.00000000  0.75659800  0.50000000  1
  Mg  Mg4  1  0.50000000  0.24893997  0.50000000  1
  Mg  Mg5  1  0.50000000  0.75106003  0.50000000  1
  Mg  Mg6  1  0.25318995  0.00000000  0.50000000  1
  Mg  Mg7  1  0.25977462  0.50000000  0.50000000  1
  Mg  Mg8  1  0.74681005  0.00000000  0.50000000  1
  Mg  Mg9  1  0.74022538  0.50000000  0.50000000  1
  Mg  Mg10  1  0.25713657  0.24590447  0.00000000  1
  Mg  Mg11  1  0.25713657  0.75409553  0.00000000  1
  Mg  Mg12  1  0.74286343  0.24590447  -0.00000000  1
  Mg  Mg13  1  0.74286343  0.75409553  0.00000000  1
  Ti  Ti0  1  -0.00000000  0.00000000  -0.00000000  1
  O  O0  1  0.25649311  0.00000000  0.00000000  1
  O  O1  1  0.27212664  0.50000000  0.00000000  1
  O  O2  1  0.74350689  0.00000000  -0.00000000  1
  O  O3  1  0.72787336  0.50000000  -0.00000000  1
  O  O4  1  0.24982637  0.24935947  0.50000000  1
  O  O5  1  0.24982637  0.75064053  0.50000000  1
  O  O6  1  0.75017363  0.24935947  0.50000000  1
  O  O7  1  0.75017363  0.75064053  0.50000000  1
  O  O8  1  -0.00000000  0.00000000  0.50000000  1
  O  O9  1  -0.00000000  0.50000000  0.50000000  1
  O  O10  1  0.50000000  0.00000000  0.50000000  1
  O  O11  1  0.50000000  0.50000000  0.50000000  1
  O  O12  1  -0.00000000  0.23382395  -0.00000000  1
  O  O13  1  -0.00000000  0.76617605  0.00000000  1
  O  O14  1  0.50000000  0.24509325  0.00000000  1
  O  O15  1  0.50000000  0.75490675  -0.00000000  1
loop_
_geom_bond_atom_site_label_1
_geom_bond_atom_site_label_2
_geom_bond_distance
_geom_bond_site_symmetry_2
Mg0 O0 2.109070 1_555
Mg0 O2 2.109070 1_555
Mg0 O15 2.139264 1_545
Mg0 O14 2.139264 1_555
Mg0 O10 2.201983 1_554
Mg0 O10 2.201983 1_555
Mg1 O1 1.973664 1_555
Mg1 O3 1.973664 1_555
Mg1 O11 2.201983 1_554
Mg1 O11 2.201983 1_555
Mg1 O14 2.224920 1_555
Mg1 O15 2.224920 1_555
Mg2 O8 2.124502 1_555
Mg2 O6 2.164429 1_455
Mg2 O4 2.164429 1_555
Mg2 O12 2.203570 1_555
Mg2 O12 2.203570 1_556
Mg2 O9 2.239682 1_555
Mg3 O8 2.124502 1_565
Mg3 O7 2.164429 1_455
Mg3 O5 2.164429 1_555
Mg3 O13 2.203570 1_555
Mg3 O13 2.203570 1_556
Mg3 O9 2.239682 1_555
Mg4 O4 2.166815 1_555
Mg4 O6 2.166815 1_555
Mg4 O10 2.172840 1_555
Mg4 O11 2.191345 1_555
Mg4 O14 2.202239 1_555
Mg4 O14 2.202239 1_556
Mg5 O5 2.166815 1_555
Mg5 O7 2.166815 1_555
Mg5 O10 2.172840 1_565
Mg5 O11 2.191345 1_555
Mg5 O15 2.202239 1_556
Mg5 O15 2.202239 1_555
Mg6 O10 2.137679 1_555
Mg6 O4 2.176696 1_555
Mg6 O5 2.176696 1_545
Mg6 O8 2.192937 1_555
Mg6 O0 2.202169 1_555
Mg6 O0 2.202169 1_556
Mg7 O11 2.080648 1_555
Mg7 O4 2.189379 1_555
Mg7 O5 2.189379 1_555
Mg7 O1 2.204581 1_556
Mg7 O1 2.204581 1_555
Mg7 O9 2.249968 1_555
Mg8 O10 2.137679 1_555
Mg8 O6 2.176696 1_555
Mg8 O7 2.176696 1_545
Mg8 O8 2.192937 1_655
Mg8 O2 2.202169 1_556
Mg8 O2 2.202169 1_555
Mg9 O11 2.080648 1_555
Mg9 O6 2.189379 1_555
Mg9 O7 2.189379 1_555
Mg9 O3 2.204581 1_556
Mg9 O3 2.204581 1_555
Mg9 O9 2.249968 1_655
Mg10 O14 2.103509 1_555
Mg10 O0 2.146352 1_555
Mg10 O4 2.203100 1_554
Mg10 O4 2.203100 1_555
Mg10 O1 2.221636 1_555
Mg10 O12 2.229614 1_555
Mg11 O15 2.103509 1_555
Mg11 O0 2.146352 1_565
Mg11 O5 2.203100 1_554
Mg11 O5 2.203100 1_555
Mg11 O1 2.221636 1_555
Mg11 O13 2.229614 1_555
Mg12 O14 2.103509 1_555
Mg12 O2 2.146352 1_555
Mg12 O6 2.203100 1_555
Mg12 O6 2.203100 1_554
Mg12 O3 2.221636 1_555
Mg12 O12 2.229614 1_655
Mg13 O15 2.103509 1_555
Mg13 O2 2.146352 1_565
Mg13 O7 2.203100 1_555
Mg13 O7 2.203100 1_554
Mg13 O3 2.221636 1_555
Mg13 O13 2.229614 1_655
O0 Ti0 2.221547 1_555
O1 Sr0 2.356952 1_555
O2 Ti0 2.221547 1_655
O3 Sr0 2.356952 1_655
O8 Ti0 2.201983 1_555
O8 Ti0 2.201983 1_556
O9 Sr0 2.201983 1_555
O9 Sr0 2.201983 1_556
O12 Ti0 2.040902 1_555
O12 Sr0 2.323283 1_555
O13 Ti0 2.040902 1_565
O13 Sr0 2.323283 1_555
