# generated using pymatgen
data_Y4MgNi
_symmetry_space_group_name_H-M   'P 1'
_cell_length_a   9.67966704
_cell_length_b   9.67956606
_cell_length_c   9.67969671
_cell_angle_alpha   60.00102317
_cell_angle_beta   60.00135234
_cell_angle_gamma   60.00088908
_symmetry_Int_Tables_number   1
_chemical_formula_structural   Y4MgNi
_chemical_formula_sum   'Y16 Mg4 Ni4'
_cell_volume   641.31850824
_cell_formula_units_Z   4
loop_
 _symmetry_equiv_pos_site_id
 _symmetry_equiv_pos_as_xyz
  1  'x, y, z'
loop_
 _atom_site_type_symbol
 _atom_site_label
 _atom_site_symmetry_multiplicity
 _atom_site_fract_x
 _atom_site_fract_y
 _atom_site_fract_z
 _atom_site_occupancy
  Y  Y0  1  0.06214267  0.43782615  0.43786400  1
  Y  Y1  1  0.43786002  0.06215931  0.06214878  1
  Y  Y2  1  0.43783580  0.06215595  0.43783982  1
  Y  Y3  1  0.06214566  0.43785042  0.06214871  1
  Y  Y4  1  0.43786524  0.43783166  0.06214114  1
  Y  Y5  1  0.06215156  0.06216419  0.43785774  1
  Y  Y6  1  0.18594840  0.81403789  0.81402461  1
  Y  Y7  1  0.81402737  0.18600910  0.18592791  1
  Y  Y8  1  0.81402746  0.18598504  0.81402183  1
  Y  Y9  1  0.18597149  0.81403805  0.18595210  1
  Y  Y10  1  0.81402762  0.81403614  0.18593759  1
  Y  Y11  1  0.18593844  0.18599944  0.81402445  1
  Y  Y12  1  0.59602509  0.59599395  0.59603144  1
  Y  Y13  1  0.59603739  0.59600713  0.21194927  1
  Y  Y14  1  0.59602531  0.21194899  0.59603175  1
  Y  Y15  1  0.21194704  0.59600491  0.59604300  1
  Mg  Mg0  1  0.82906827  0.82906989  0.82906563  1
  Mg  Mg1  1  0.82906388  0.82906629  0.51279511  1
  Mg  Mg2  1  0.82906182  0.51280805  0.82905841  1
  Mg  Mg3  1  0.51279974  0.82906540  0.82906127  1
  Ni  Ni0  1  0.39186492  0.39185180  0.39187114  1
  Ni  Ni1  1  0.39185980  0.39184712  0.82445172  1
  Ni  Ni2  1  0.39187289  0.82439191  0.39188009  1
  Ni  Ni3  1  0.82443110  0.39185123  0.39187050  1
loop_
_geom_bond_atom_site_label_1
_geom_bond_atom_site_label_2
_geom_bond_distance
_geom_bond_site_symmetry_2
Y0 Y11 3.633501 1_555
Y0 Y8 3.633517 1_455
Y0 Y9 3.634051 1_555
Y0 Y10 3.634071 1_455
Y1 Y10 3.633514 1_545
Y1 Y8 3.633709 1_554
Y1 Y9 3.633862 1_545
Y1 Y11 3.634050 1_554
Y2 Y6 3.633843 1_545
Y2 Y7 3.634038 1_555
Y3 Y7 3.633534 1_455
Y3 Y6 3.633726 1_554
Y4 Y7 3.633460 1_555
Y4 Y8 3.633569 1_554
Y4 Y9 3.633915 1_555
Y4 Y6 3.634019 1_554
Y5 Y6 3.633558 1_545
Y5 Y8 3.633663 1_455
Y5 Y9 3.633989 1_545
Y5 Y7 3.634101 1_455
Y6 Y8 3.600227 1_465
Y6 Y9 3.600258 1_556
Y7 Y8 3.600054 1_554
Y7 Y9 3.600455 1_645
Y10 Y13 3.515695 1_555
Y10 Y12 3.516318 1_555
Y10 Y6 3.600111 1_654
Y10 Y8 3.600224 1_564
Y10 Y9 3.600372 1_655
Y10 Y7 3.600489 1_565
Y10 Y3 3.633640 1_655
Y10 Y2 3.633938 1_565
Y11 Y15 3.515699 1_555
Y11 Y14 3.516235 1_555
Y11 Y7 3.600018 1_456
Y11 Y8 3.600057 1_455
Y11 Y9 3.600342 1_546
Y11 Y6 3.600377 1_545
Y11 Y3 3.633619 1_556
Y11 Y2 3.633940 1_555
Y12 Y8 3.515671 1_555
Y12 Y6 3.516194 1_555
Y13 Y7 3.515673 1_555
Y13 Y9 3.516196 1_555
Y14 Y8 3.515730 1_555
Y14 Y7 3.516355 1_555
Y15 Y6 3.515726 1_555
Y15 Y9 3.516350 1_555
Mg0 Mg2 3.061344 1_555
Mg0 Mg3 3.061417 1_555
Mg0 Mg1 3.061441 1_555
Mg0 Y10 3.315260 1_556
Mg0 Y6 3.315334 1_655
Mg0 Y8 3.315584 1_565
Mg0 Y14 3.504360 1_565
Mg0 Y15 3.504429 1_655
Mg0 Y13 3.504484 1_556
Mg0 Y3 3.538879 1_656
Mg0 Y1 3.538907 1_566
Mg0 Y5 3.538936 1_665
Mg1 Mg2 3.061335 1_555
Mg1 Mg3 3.061409 1_555
Mg1 Y9 3.315703 1_655
Mg1 Y10 3.315784 1_555
Mg1 Y7 3.315958 1_565
Mg1 Y12 3.504440 1_555
Mg1 Y14 3.504526 1_565
Mg1 Y15 3.504603 1_655
Mg1 Y0 3.538980 1_655
Mg1 Y2 3.539007 1_565
Mg1 Y5 3.539051 1_665
Mg2 Mg3 3.061314 1_555
Mg2 Y7 3.315280 1_556
Mg2 Y11 3.315347 1_655
Mg2 Y8 3.315434 1_555
Mg2 Y12 3.504268 1_555
Mg2 Y15 3.504422 1_655
Mg2 Y13 3.504485 1_556
Mg2 Y4 3.538851 1_556
Mg2 Y0 3.538862 1_655
Mg2 Y3 3.538889 1_656
Mg3 Y9 3.315551 1_556
Mg3 Y6 3.315704 1_555
Mg3 Y11 3.315875 1_565
Mg3 Y12 3.504406 1_555
Mg3 Y14 3.504492 1_565
Mg3 Y13 3.504612 1_556
Mg3 Y4 3.538947 1_556
Mg3 Y2 3.539000 1_565
Mg3 Y1 3.539010 1_566
Ni0 Y14 2.804636 1_555
Ni0 Y15 2.804649 1_555
Ni0 Y13 2.804666 1_555
Ni0 Y2 2.817527 1_555
Ni0 Y0 2.817725 1_555
Ni0 Y4 2.817768 1_555
Ni0 Y11 3.510881 1_555
Ni0 Y7 3.510939 1_555
Ni0 Y9 3.511109 1_555
Ni1 Y12 2.804592 1_555
Ni1 Y14 2.804626 1_555
Ni1 Y15 2.804636 1_555
Ni1 Y4 2.817221 1_556
Ni1 Y1 2.817328 1_556
Ni1 Y3 2.817529 1_556
Ni1 Y8 3.510819 1_555
Ni1 Y6 3.510983 1_555
Ni1 Y11 3.510999 1_555
Ni2 Y12 2.804514 1_555
Ni2 Y15 2.804559 1_555
Ni2 Y13 2.804573 1_555
Ni2 Y2 2.817480 1_565
Ni2 Y5 2.817789 1_565
Ni2 Y1 2.817848 1_565
Ni2 Y6 3.510850 1_555
Ni2 Y10 3.510920 1_555
Ni2 Y9 3.511096 1_555
Ni3 Y12 2.804524 1_555
Ni3 Y14 2.804550 1_555
Ni3 Y13 2.804580 1_555
Ni3 Y0 2.817290 1_655
Ni3 Y5 2.817391 1_655
Ni3 Y3 2.817638 1_655
Ni3 Y8 3.510767 1_555
Ni3 Y7 3.510997 1_555
Ni3 Y10 3.511000 1_555
