# generated using pymatgen
data_KNaHf4(PO4)6
_symmetry_space_group_name_H-M   'P 1'
_cell_length_a   9.27322437
_cell_length_b   9.27322437
_cell_length_c   9.27322358
_cell_angle_alpha   57.02183316
_cell_angle_beta   57.02183316
_cell_angle_gamma   57.02183477
_symmetry_Int_Tables_number   1
_chemical_formula_structural   KNaHf4(PO4)6
_chemical_formula_sum   'K1 Na1 Hf4 P6 O24'
_cell_volume   525.15133604
_cell_formula_units_Z   1
loop_
 _symmetry_equiv_pos_site_id
 _symmetry_equiv_pos_as_xyz
  1  'x, y, z'
loop_
 _atom_site_type_symbol
 _atom_site_label
 _atom_site_symmetry_multiplicity
 _atom_site_fract_x
 _atom_site_fract_y
 _atom_site_fract_z
 _atom_site_occupancy
  K  K0  1  0.00000000  0.00000000  0.00000000  1
  Na  Na0  1  0.50000000  0.50000000  0.50000000  1
  Hf  Hf0  1  0.35343900  0.35343900  0.35343900  1
  Hf  Hf1  1  0.85301600  0.85301600  0.85301600  1
  Hf  Hf2  1  0.64656100  0.64656100  0.64656100  1
  Hf  Hf3  1  0.14698400  0.14698400  0.14698400  1
  P  P0  1  0.54018200  0.95686900  0.25174900  1
  P  P1  1  0.25174900  0.54018200  0.95686900  1
  P  P2  1  0.95686900  0.25174900  0.54018200  1
  P  P3  1  0.74825100  0.45981800  0.04313100  1
  P  P4  1  0.04313100  0.74825100  0.45981800  1
  P  P5  1  0.45981800  0.04313100  0.74825100  1
  O  O0  1  0.50703800  0.12005000  0.28567000  1
  O  O1  1  0.28567000  0.50703800  0.12005000  1
  O  O2  1  0.12005000  0.28567000  0.50703800  1
  O  O3  1  0.78121000  0.62469100  0.00668800  1
  O  O4  1  0.00668800  0.78121000  0.62469100  1
  O  O5  1  0.62469100  0.00668800  0.78121000  1
  O  O6  1  0.49296200  0.87995000  0.71433000  1
  O  O7  1  0.71433000  0.49296200  0.87995000  1
  O  O8  1  0.87995000  0.71433000  0.49296200  1
  O  O9  1  0.21879000  0.37530900  0.99331200  1
  O  O10  1  0.99331200  0.21879000  0.37530900  1
  O  O11  1  0.37530900  0.99331200  0.21879000  1
  O  O12  1  0.71527100  0.92951400  0.08199800  1
  O  O13  1  0.08199800  0.71527100  0.92951400  1
  O  O14  1  0.92951400  0.08199800  0.71527100  1
  O  O15  1  0.58064300  0.43252800  0.22142700  1
  O  O16  1  0.22142700  0.58064300  0.43252800  1
  O  O17  1  0.43252800  0.22142700  0.58064300  1
  O  O18  1  0.28472900  0.07048600  0.91800200  1
  O  O19  1  0.91800200  0.28472900  0.07048600  1
  O  O20  1  0.07048600  0.91800200  0.28472900  1
  O  O21  1  0.41935700  0.56747200  0.77857300  1
  O  O22  1  0.77857300  0.41935700  0.56747200  1
  O  O23  1  0.56747200  0.77857300  0.41935700  1
loop_
_geom_bond_atom_site_label_1
_geom_bond_atom_site_label_2
_geom_bond_distance
_geom_bond_site_symmetry_2
K0 O14 2.670015 1_454
K0 O20 2.670015 1_545
K0 O13 2.670015 1_544
K0 O19 2.670015 1_455
K0 O18 2.670015 1_554
K0 O12 2.670015 1_445
Na0 O21 2.602142 1_555
Na0 O15 2.602142 1_555
Na0 O22 2.602142 1_555
Na0 O16 2.602142 1_555
Na0 O23 2.602142 1_555
Na0 O17 2.602142 1_555
Hf0 O1 2.063504 1_555
Hf0 O2 2.063505 1_555
Hf0 O0 2.063505 1_555
Hf0 O17 2.091058 1_555
Hf0 O16 2.091058 1_555
Hf0 O15 2.091058 1_555
Hf1 O4 2.043098 1_655
Hf1 O3 2.043098 1_556
Hf1 O5 2.043098 1_565
Hf1 O12 2.084302 1_556
Hf1 O13 2.084302 1_655
Hf1 O14 2.084302 1_565
Hf2 O7 2.063504 1_555
Hf2 O8 2.063505 1_555
Hf2 O6 2.063505 1_555
Hf2 O23 2.091058 1_555
Hf2 O22 2.091058 1_555
Hf2 O21 2.091058 1_555
Hf3 O10 2.043098 1_455
Hf3 O9 2.043098 1_554
Hf3 O11 2.043098 1_545
Hf3 O18 2.084302 1_554
Hf3 O19 2.084302 1_455
Hf3 O20 2.084302 1_545
O0 P0 1.545913 1_545
O1 P1 1.545913 1_554
O2 P2 1.545913 1_455
O3 P3 1.542385 1_555
O4 P4 1.542385 1_555
O5 P5 1.542385 1_555
O6 P5 1.545913 1_565
O7 P3 1.545913 1_556
O8 P4 1.545913 1_655
O9 P1 1.542385 1_555
O10 P2 1.542385 1_555
O11 P0 1.542385 1_555
O12 P0 1.543508 1_555
O13 P1 1.543508 1_555
O14 P2 1.543508 1_555
O15 P3 1.545499 1_555
O16 P4 1.545500 1_555
O17 P5 1.545499 1_555
O18 P5 1.543508 1_555
O19 P3 1.543508 1_555
O20 P4 1.543508 1_555
O21 P1 1.545499 1_555
O22 P2 1.545500 1_555
O23 P0 1.545499 1_555
