# generated using pymatgen
data_ZnCdB2O5
_symmetry_space_group_name_H-M   'P 1'
_cell_length_a   3.47760200
_cell_length_b   6.50265900
_cell_length_c   17.94926200
_cell_angle_alpha   90.00000000
_cell_angle_beta   90.00000000
_cell_angle_gamma   90.00000000
_symmetry_Int_Tables_number   1
_chemical_formula_structural   ZnCdB2O5
_chemical_formula_sum   'Zn4 Cd4 B8 O20'
_cell_volume   405.89850711
_cell_formula_units_Z   4
loop_
 _symmetry_equiv_pos_site_id
 _symmetry_equiv_pos_as_xyz
  1  'x, y, z'
loop_
 _atom_site_type_symbol
 _atom_site_label
 _atom_site_symmetry_multiplicity
 _atom_site_fract_x
 _atom_site_fract_y
 _atom_site_fract_z
 _atom_site_occupancy
  Zn  Zn0  1  0.01623300  0.60038700  0.20779600  1
  Zn  Zn1  1  0.48376700  0.39961300  0.70779600  1
  Zn  Zn2  1  0.98376700  0.10038700  0.29220400  1
  Zn  Zn3  1  0.51623300  0.89961300  0.79220400  1
  Cd  Cd0  1  0.62115800  0.48185400  0.02647400  1
  Cd  Cd1  1  0.87884200  0.51814600  0.52647400  1
  Cd  Cd2  1  0.37884200  0.98185400  0.47352600  1
  Cd  Cd3  1  0.12115800  0.01814600  0.97352600  1
  B  B0  1  0.01606500  0.14512300  0.61491800  1
  B  B1  1  0.48393500  0.85487700  0.11491800  1
  B  B2  1  0.98393500  0.64512300  0.88508200  1
  B  B3  1  0.51606500  0.35487700  0.38508200  1
  B  B4  1  0.15078000  0.19890200  0.14373400  1
  B  B5  1  0.34922000  0.80109800  0.64373400  1
  B  B6  1  0.84922000  0.69890200  0.35626600  1
  B  B7  1  0.65078000  0.30109800  0.85626600  1
  O  O0  1  0.29440100  0.00114100  0.15832200  1
  O  O1  1  0.20559900  0.99885900  0.65832200  1
  O  O2  1  0.70559900  0.50114100  0.34167800  1
  O  O3  1  0.79440100  0.49885900  0.84167800  1
  O  O4  1  0.39154500  0.38375900  0.45577300  1
  O  O5  1  0.10845500  0.61624100  0.95577300  1
  O  O6  1  0.60845500  0.88375900  0.04422700  1
  O  O7  1  0.89154500  0.11624100  0.54422700  1
  O  O8  1  0.02164400  0.29650500  0.20728300  1
  O  O9  1  0.47835600  0.70349500  0.70728300  1
  O  O10  1  0.97835600  0.79650500  0.29271700  1
  O  O11  1  0.52164400  0.20349500  0.79271700  1
  O  O12  1  0.12900700  0.28043300  0.07364400  1
  O  O13  1  0.37099300  0.71956700  0.57364400  1
  O  O14  1  0.87099300  0.78043300  0.42635600  1
  O  O15  1  0.62900700  0.21956700  0.92635600  1
  O  O16  1  0.48146400  0.16078000  0.35113600  1
  O  O17  1  0.01853600  0.83922000  0.85113600  1
  O  O18  1  0.51853600  0.66078000  0.14886400  1
  O  O19  1  0.98146400  0.33922000  0.64886400  1
loop_
_geom_bond_atom_site_label_1
_geom_bond_atom_site_label_2
_geom_bond_distance
_geom_bond_site_symmetry_2
Cd0 O5 2.290381 1_654
Cd0 O12 2.315512 1_555
Cd0 O12 2.356150 1_655
Cd0 O5 2.356502 1_554
Cd0 O15 2.477712 1_554
Cd0 O18 2.511386 1_555
Cd0 O6 2.633176 1_555
Cd1 O4 2.290381 1_555
Cd1 O13 2.315512 1_655
Cd1 O13 2.356150 1_555
Cd1 O4 2.356502 1_655
Cd1 O14 2.477712 1_555
Cd1 O19 2.511386 1_555
Cd1 O7 2.633176 1_555
Cd2 O7 2.290381 1_465
Cd2 O14 2.315512 1_555
Cd2 O14 2.356150 1_455
Cd2 O7 2.356502 1_565
Cd2 O13 2.477712 1_555
Cd2 O16 2.511386 1_565
Cd2 O4 2.633176 1_565
Cd3 O6 2.290381 1_546
Cd3 O15 2.315512 1_455
Cd3 O15 2.356150 1_555
Cd3 O6 2.356502 1_446
Cd3 O12 2.477712 1_556
Cd3 O17 2.511386 1_545
Cd3 O5 2.633176 1_545
B0 O7 1.353799 1_455
B0 O1 1.394989 1_545
B0 O19 1.406679 1_455
B1 O6 1.353799 1_555
B1 O0 1.394989 1_565
B1 O18 1.406679 1_555
B2 O5 1.353799 1_655
B2 O3 1.394989 1_555
B2 O17 1.406679 1_655
B3 O4 1.353799 1_555
B3 O2 1.394989 1_555
B3 O16 1.406679 1_555
B4 O12 1.367310 1_555
B4 O8 1.380432 1_555
B4 O0 1.404188 1_555
B5 O13 1.367310 1_555
B5 O9 1.380432 1_555
B5 O1 1.404188 1_555
B6 O14 1.367310 1_555
B6 O10 1.380432 1_555
B6 O2 1.404188 1_555
B7 O15 1.367310 1_555
B7 O11 1.380432 1_555
B7 O3 1.404188 1_555
O8 Zn0 1.976152 1_555
O8 Zn2 1.991760 1_455
O9 Zn1 1.976152 1_555
O9 Zn3 1.991760 1_555
O10 Zn2 1.976152 1_565
O10 Zn0 1.991760 1_655
O11 Zn3 1.976152 1_545
O11 Zn1 1.991760 1_555
O16 Zn2 2.066102 1_455
O16 Zn2 2.079539 1_555
O17 Zn3 2.066102 1_555
O17 Zn3 2.079539 1_455
O18 Zn0 2.066102 1_655
O18 Zn0 2.079539 1_555
O19 Zn1 2.066102 1_555
O19 Zn1 2.079539 1_655
