# generated using pymatgen
data_NaMnO3F4
_symmetry_space_group_name_H-M   'P 1'
_cell_length_a   8.94241647
_cell_length_b   8.94241647
_cell_length_c   11.27294852
_cell_angle_alpha   75.76026307
_cell_angle_beta   75.76026307
_cell_angle_gamma   43.05791173
_symmetry_Int_Tables_number   1
_chemical_formula_structural   NaMnO3F4
_chemical_formula_sum   'Na4 Mn4 O12 F16'
_cell_volume   593.55437238
_cell_formula_units_Z   4
loop_
 _symmetry_equiv_pos_site_id
 _symmetry_equiv_pos_as_xyz
  1  'x, y, z'
loop_
 _atom_site_type_symbol
 _atom_site_label
 _atom_site_symmetry_multiplicity
 _atom_site_fract_x
 _atom_site_fract_y
 _atom_site_fract_z
 _atom_site_occupancy
  Na  Na0  1  0.22865400  0.71829000  0.96842200  1
  Na  Na1  1  0.28171000  0.77134600  0.53157800  1
  Na  Na2  1  0.77134600  0.28171000  0.03157800  1
  Na  Na3  1  0.71829000  0.22865400  0.46842200  1
  Mn  Mn0  1  0.24297200  0.75702800  0.25000000  1
  Mn  Mn1  1  0.75702800  0.24297200  0.75000000  1
  Mn  Mn2  1  0.00000000  0.50000000  0.00000000  1
  Mn  Mn3  1  0.50000000  0.00000000  0.50000000  1
  O  O0  1  0.35198800  0.87866300  0.20837700  1
  O  O1  1  0.12133700  0.64801200  0.29162300  1
  O  O2  1  0.64801200  0.12133700  0.79162300  1
  O  O3  1  0.87866300  0.35198800  0.70837700  1
  O  O4  1  0.97073700  0.34010600  0.20750700  1
  O  O5  1  0.65989400  0.02926300  0.29249300  1
  O  O6  1  0.02926300  0.65989400  0.79249300  1
  O  O7  1  0.34010600  0.97073700  0.70750700  1
  O  O8  1  0.41939200  0.92229600  0.80148200  1
  O  O9  1  0.07770400  0.58060800  0.69851800  1
  O  O10  1  0.58060800  0.07770400  0.19851800  1
  O  O11  1  0.92229600  0.41939200  0.30148200  1
  F  F0  1  0.55766200  0.43910000  0.86831700  1
  F  F1  1  0.56090000  0.44233800  0.63168300  1
  F  F2  1  0.44233800  0.56090000  0.13168300  1
  F  F3  1  0.43910000  0.55766200  0.36831700  1
  F  F4  1  0.95080600  0.04720600  0.87080700  1
  F  F5  1  0.95279400  0.04919400  0.62919300  1
  F  F6  1  0.04919400  0.95279400  0.12919300  1
  F  F7  1  0.04720600  0.95080600  0.37080700  1
  F  F8  1  0.15864700  0.52688800  0.05617800  1
  F  F9  1  0.47311200  0.84135300  0.44382200  1
  F  F10  1  0.84135300  0.47311200  0.94382200  1
  F  F11  1  0.52688800  0.15864700  0.55617800  1
  F  F12  1  0.74540400  0.77228800  0.04556100  1
  F  F13  1  0.22771200  0.25459600  0.45443900  1
  F  F14  1  0.25459600  0.22771200  0.95443900  1
  F  F15  1  0.77228800  0.74540400  0.54556100  1
loop_
_geom_bond_atom_site_label_1
_geom_bond_atom_site_label_2
_geom_bond_distance
_geom_bond_site_symmetry_2
Mn0 O0 1.851238 1_555
Mn0 O1 1.851238 1_555
Mn1 O3 1.851238 1_555
Mn1 O2 1.851238 1_555
Mn2 O4 2.486970 1_455
Mn2 O6 2.486970 1_554
Mn3 O5 2.486970 1_555
Mn3 O7 2.486970 1_545
O6 O9 1.227824 1_555
O7 O8 1.227824 1_555
O10 O5 1.227824 1_555
O11 O4 1.227824 1_555
F0 Mn1 1.856107 1_555
F0 Na0 2.276263 1_555
F0 Na2 2.354807 1_556
F1 Mn1 1.856107 1_555
F1 Na1 2.276263 1_555
F1 Na3 2.354807 1_555
F2 Mn0 1.856107 1_555
F2 Na2 2.276263 1_555
F2 Na0 2.354807 1_554
F3 Mn0 1.856107 1_555
F3 Na3 2.276263 1_555
F3 Na1 2.354807 1_555
F4 Mn1 1.864707 1_555
F4 Na0 2.260282 1_645
F4 Na2 2.403878 1_556
F5 Mn1 1.864707 1_555
F5 Na1 2.260282 1_645
F5 Na3 2.403878 1_555
F6 Mn0 1.864707 1_555
F6 Na2 2.260282 1_465
F6 Na0 2.403878 1_554
F7 Mn0 1.864707 1_555
F7 Na3 2.260282 1_465
F7 Na1 2.403878 1_555
F8 Mn2 1.867334 1_555
F8 Na0 2.174462 1_554
F9 Mn3 1.867334 1_565
F9 Na1 2.174462 1_555
F10 Mn2 1.867334 1_656
F10 Na2 2.174462 1_556
F11 Mn3 1.867334 1_555
F11 Na3 2.174462 1_555
F12 Mn2 1.820705 1_655
F13 Mn3 1.820705 1_555
F14 Mn2 1.820705 1_556
F15 Mn3 1.820705 1_565
