# generated using pymatgen
data_InPt
_symmetry_space_group_name_H-M   'P 1'
_cell_length_a   9.39700180
_cell_length_b   9.39700180
_cell_length_c   9.39700201
_cell_angle_alpha   39.36375373
_cell_angle_beta   39.36375373
_cell_angle_gamma   39.36375100
_symmetry_Int_Tables_number   1
_chemical_formula_structural   InPt
_chemical_formula_sum   'In8 Pt8'
_cell_volume   300.39155416
_cell_formula_units_Z   8
loop_
 _symmetry_equiv_pos_site_id
 _symmetry_equiv_pos_as_xyz
  1  'x, y, z'
loop_
 _atom_site_type_symbol
 _atom_site_label
 _atom_site_symmetry_multiplicity
 _atom_site_fract_x
 _atom_site_fract_y
 _atom_site_fract_z
 _atom_site_occupancy
  In  In0_0  1  0.25000000  0.25000000  0.25000000  1
  In  In0_1  1  0.25000000  0.25000000  0.75000000  1
  In  In0_2  1  0.25000000  0.75000000  0.25000000  1
  In  In0_3  1  0.25000000  0.75000000  0.75000000  1
  In  In0_4  1  0.75000000  0.25000000  0.25000000  1
  In  In0_5  1  0.75000000  0.25000000  0.75000000  1
  In  In0_6  1  0.75000000  0.75000000  0.25000000  1
  In  In0_7  1  0.75000000  0.75000000  0.75000000  1
  Pt  Pt0_0  1  0.00000000  0.00000000  0.00000000  1
  Pt  Pt0_1  1  0.00000000  0.00000000  0.50000000  1
  Pt  Pt0_2  1  0.00000000  0.50000000  0.00000000  1
  Pt  Pt0_3  1  1.00000000  0.50000000  0.50000000  1
  Pt  Pt0_4  1  0.50000000  0.00000000  0.00000000  1
  Pt  Pt0_5  1  0.50000000  1.00000000  0.50000000  1
  Pt  Pt0_6  1  0.50000000  0.50000000  0.00000000  1
  Pt  Pt0_7  1  0.50000000  0.50000000  0.50000000  1
loop_
_geom_bond_atom_site_label_1
_geom_bond_atom_site_label_2
_geom_bond_distance
_geom_bond_site_symmetry_2
In0_0 Pt0_3 2.832508 1_455
In0_0 Pt0_5 2.832508 1_545
In0_0 Pt0_4 2.832508 1_555
In0_0 Pt0_2 2.832508 1_555
In0_0 Pt0_1 2.832508 1_555
In0_0 Pt0_6 2.832508 1_555
In0_0 In0_6 3.164886 1_455
In0_0 In0_6 3.164886 1_545
In0_0 In0_3 3.164886 1_545
In0_0 In0_5 3.164886 1_554
In0_0 In0_5 3.164886 1_455
In0_0 In0_3 3.164886 1_554
In0_1 Pt0_2 2.832508 1_556
In0_1 Pt0_5 2.832508 1_545
In0_1 Pt0_4 2.832508 1_556
In0_1 Pt0_3 2.832508 1_455
In0_1 Pt0_0 2.832508 1_556
In0_1 Pt0_7 2.832508 1_555
In0_1 In0_7 3.164886 1_455
In0_1 In0_7 3.164886 1_545
In0_1 In0_4 3.164886 1_555
In0_1 In0_2 3.164886 1_555
In0_1 In0_2 3.164886 1_546
In0_1 In0_4 3.164886 1_456
In0_2 Pt0_7 2.832508 1_555
In0_2 Pt0_0 2.832508 1_565
In0_2 Pt0_1 2.832508 1_565
In0_2 Pt0_6 2.832508 1_555
In0_2 Pt0_4 2.832508 1_565
In0_2 Pt0_3 2.832508 1_455
In0_2 In0_4 3.164886 1_555
In0_2 In0_4 3.164886 1_465
In0_2 In0_7 3.164886 1_455
In0_2 In0_7 3.164886 1_554
In0_3 Pt0_1 2.832508 1_565
In0_3 Pt0_7 2.832508 1_555
In0_3 Pt0_6 2.832508 1_556
In0_3 Pt0_0 2.832508 1_566
In0_3 Pt0_2 2.832508 1_556
In0_3 Pt0_5 2.832508 1_555
In0_3 In0_5 3.164886 1_555
In0_3 In0_5 3.164886 1_465
In0_3 In0_6 3.164886 1_555
In0_3 In0_6 3.164886 1_456
In0_4 Pt0_7 2.832508 1_555
In0_4 Pt0_6 2.832508 1_555
In0_4 Pt0_0 2.832508 1_655
In0_4 Pt0_1 2.832508 1_655
In0_4 Pt0_2 2.832508 1_655
In0_4 Pt0_5 2.832508 1_545
In0_4 In0_7 3.164886 1_554
In0_4 In0_7 3.164886 1_545
In0_5 Pt0_1 2.832508 1_655
In0_5 Pt0_7 2.832508 1_555
In0_5 Pt0_0 2.832508 1_656
In0_5 Pt0_6 2.832508 1_556
In0_5 Pt0_4 2.832508 1_556
In0_5 Pt0_3 2.832508 1_555
In0_5 In0_6 3.164886 1_555
In0_5 In0_6 3.164886 1_546
In0_6 Pt0_3 2.832508 1_555
In0_6 Pt0_5 2.832508 1_555
In0_6 Pt0_4 2.832508 1_565
In0_6 Pt0_2 2.832508 1_655
In0_6 Pt0_7 2.832508 1_555
In0_6 Pt0_0 2.832508 1_665
In0_7 Pt0_2 2.832508 1_656
In0_7 Pt0_5 2.832508 1_555
In0_7 Pt0_4 2.832508 1_566
In0_7 Pt0_3 2.832508 1_555
In0_7 Pt0_6 2.832508 1_556
In0_7 Pt0_1 2.832508 1_665
Pt0_0 Pt0_6 3.164886 1_455
Pt0_0 Pt0_6 3.164886 1_545
Pt0_0 Pt0_3 3.164886 1_454
Pt0_0 Pt0_5 3.164886 1_544
Pt0_0 Pt0_5 3.164886 1_445
Pt0_0 Pt0_3 3.164886 1_445
Pt0_1 Pt0_7 3.164886 1_455
Pt0_1 Pt0_7 3.164886 1_545
Pt0_1 Pt0_4 3.164886 1_555
Pt0_1 Pt0_4 3.164886 1_456
Pt0_1 Pt0_2 3.164886 1_555
Pt0_1 Pt0_2 3.164886 1_546
Pt0_2 Pt0_4 3.164886 1_555
Pt0_2 Pt0_4 3.164886 1_465
Pt0_2 Pt0_7 3.164886 1_455
Pt0_2 Pt0_7 3.164886 1_554
Pt0_3 Pt0_5 3.164886 1_645
Pt0_3 Pt0_5 3.164886 1_555
Pt0_3 Pt0_6 3.164886 1_556
Pt0_3 Pt0_6 3.164886 1_655
Pt0_4 Pt0_7 3.164886 1_554
Pt0_4 Pt0_7 3.164886 1_545
Pt0_5 Pt0_6 3.164886 1_556
Pt0_5 Pt0_6 3.164886 1_565
