# generated using pymatgen
data_Cr3Cu2NiSe8
_symmetry_space_group_name_H-M   'P 1'
_cell_length_a   7.28952280
_cell_length_b   7.31514529
_cell_length_c   7.28952280
_cell_angle_alpha   90.00000000
_cell_angle_beta   60.00000000
_cell_angle_gamma   119.88420031
_symmetry_Int_Tables_number   1
_chemical_formula_structural   Cr3Cu2NiSe8
_chemical_formula_sum   'Cr3 Cu2 Ni1 Se8'
_cell_volume   275.33669328
_cell_formula_units_Z   1
loop_
 _symmetry_equiv_pos_site_id
 _symmetry_equiv_pos_as_xyz
  1  'x, y, z'
loop_
 _atom_site_type_symbol
 _atom_site_label
 _atom_site_symmetry_multiplicity
 _atom_site_fract_x
 _atom_site_fract_y
 _atom_site_fract_z
 _atom_site_occupancy
  Cr  Cr0  1  0.50000000  0.50000000  0.50000000  1
  Cr  Cr1  1  0.00000000  0.50000000  0.00000000  1
  Cr  Cr2  1  0.00000000  0.50000000  0.50000000  1
  Cu  Cu0  1  0.24998800  0.12498200  0.12500600  1
  Cu  Cu1  1  0.75001200  0.87501800  0.87499400  1
  Ni  Ni0  1  0.50000000  0.00000000  0.50000000  1
  Se  Se0  1  0.98412200  0.72618200  0.25793900  1
  Se  Se1  1  0.98156800  0.25672300  0.25921600  1
  Se  Se2  1  0.51593900  0.25672300  0.72484500  1
  Se  Se3  1  0.51593900  0.25672300  0.25921600  1
  Se  Se4  1  0.01587800  0.27381800  0.74206100  1
  Se  Se5  1  0.01843200  0.74327700  0.74078400  1
  Se  Se6  1  0.48406100  0.74327700  0.27515500  1
  Se  Se7  1  0.48406100  0.74327700  0.74078400  1
loop_
_geom_bond_atom_site_label_1
_geom_bond_atom_site_label_2
_geom_bond_distance
_geom_bond_site_symmetry_2
Cr0 Se4 2.501905 1_555
Cr0 Se0 2.501905 1_555
Cr0 Se6 2.502666 1_555
Cr0 Se3 2.502666 1_555
Cr0 Se7 2.502666 1_555
Cr0 Se2 2.502666 1_555
Cr1 Se0 2.501899 1_455
Cr1 Se4 2.501899 1_554
Cr1 Se3 2.502666 1_455
Cr1 Se1 2.502666 1_455
Cr1 Se5 2.502666 1_554
Cr1 Se7 2.502666 1_554
Cr2 Se4 2.501899 1_555
Cr2 Se0 2.501899 1_455
Cr2 Se5 2.502666 1_555
Cr2 Se6 2.502666 1_555
Cr2 Se2 2.502666 1_455
Cr2 Se1 2.502666 1_455
Cu0 Se3 2.383092 1_555
Cu0 Se2 2.383092 1_554
Cu0 Se1 2.383092 1_455
Cu0 Se0 2.386110 1_445
Cu1 Se6 2.383092 1_556
Cu1 Se7 2.383092 1_555
Cu1 Se5 2.383092 1_655
Cu1 Se4 2.386110 1_665
Ni0 Se3 2.489904 1_555
Ni0 Se2 2.489904 1_555
Ni0 Se7 2.489904 1_545
Ni0 Se6 2.489904 1_545
Ni0 Se1 2.489904 1_555
Ni0 Se5 2.489904 1_545
