# generated using pymatgen
data_Sr2FeMoO6
_symmetry_space_group_name_H-M   'P 1'
_cell_length_a   5.60765862
_cell_length_b   5.62420133
_cell_length_c   56.73747306
_cell_angle_alpha   119.54025649
_cell_angle_beta   119.41314111
_cell_angle_gamma   90.31075848
_symmetry_Int_Tables_number   1
_chemical_formula_structural   Sr2FeMoO6
_chemical_formula_sum   'Sr20 Fe10 Mo10 O60'
_cell_volume   1281.75219088
_cell_formula_units_Z   10
loop_
 _symmetry_equiv_pos_site_id
 _symmetry_equiv_pos_as_xyz
  1  'x, y, z'
loop_
 _atom_site_type_symbol
 _atom_site_label
 _atom_site_symmetry_multiplicity
 _atom_site_fract_x
 _atom_site_fract_y
 _atom_site_fract_z
 _atom_site_occupancy
  Sr  Sr0  1  0.24964834  0.74848769  0.94959676  1
  Sr  Sr1  1  0.24801466  0.74711653  0.84979646  1
  Sr  Sr2  1  0.74932149  0.24833483  0.94973498  1
  Sr  Sr3  1  0.24893884  0.74848280  0.74987925  1
  Sr  Sr4  1  0.74715204  0.24902263  0.84969777  1
  Sr  Sr5  1  0.25092423  0.74669171  0.64984500  1
  Sr  Sr6  1  0.75258400  0.25107973  0.75062842  1
  Sr  Sr7  1  0.25360113  0.75246147  0.55062735  1
  Sr  Sr8  1  0.75189464  0.24889602  0.65009813  1
  Sr  Sr9  1  0.24810536  0.75110398  0.44990187  1
  Sr  Sr10  1  0.74639887  0.24753853  0.54937265  1
  Sr  Sr11  1  0.24741600  0.74892027  0.34937158  1
  Sr  Sr12  1  0.74907577  0.25330829  0.45015500  1
  Sr  Sr13  1  0.25284796  0.75097737  0.25030223  1
  Sr  Sr14  1  0.75106116  0.25151720  0.35012075  1
  Sr  Sr15  1  0.25067851  0.75166517  0.15026502  1
  Sr  Sr16  1  0.75198534  0.25288347  0.25020354  1
  Sr  Sr17  1  0.24742567  0.74768575  0.04957673  1
  Sr  Sr18  1  0.75035166  0.25151231  0.15040324  1
  Sr  Sr19  1  0.75257433  0.25231425  0.05042327  1
  Fe  Fe0  1  0.00413837  0.00286721  0.90069750  1
  Fe  Fe1  1  0.99646927  0.99815124  0.79962804  1
  Fe  Fe2  1  0.00111216  -0.00086202  0.70020963  1
  Fe  Fe3  1  0.00013928  0.99803413  0.59994396  1
  Fe  Fe4  1  0.99986072  0.00196587  0.50005604  1
  Fe  Fe5  1  -0.00111216  0.00086202  0.39979037  1
  Fe  Fe6  1  0.00353073  0.00184876  0.30037196  1
  Fe  Fe7  1  0.99586163  0.99713279  0.19930250  1
  Fe  Fe8  1  0.50490761  0.50655290  0.10116541  1
  Fe  Fe9  1  0.49509239  0.49344710  0.99883459  1
  Mo  Mo0  1  0.49583931  0.49458222  0.89907186  1
  Mo  Mo1  1  0.49987462  0.50185768  0.80030404  1
  Mo  Mo2  1  0.50018764  0.49813995  0.70002003  1
  Mo  Mo3  1  0.50073020  0.49853335  0.60006960  1
  Mo  Mo4  1  0.49926980  0.50146665  0.49993040  1
  Mo  Mo5  1  0.49981236  0.50186005  0.39997997  1
  Mo  Mo6  1  0.50012538  0.49814232  0.29969596  1
  Mo  Mo7  1  0.99636876  -0.00171011  0.09944972  1
  Mo  Mo8  1  0.50416069  0.50541778  0.20092814  1
  Mo  Mo9  1  0.00363124  0.00171011  0.00055028  1
  O  O0  1  0.25236990  0.24660224  0.94977642  1
  O  O1  1  0.21901502  0.70069894  0.89944158  1
  O  O2  1  0.28744221  0.20407934  0.89921365  1
  O  O3  1  0.24697588  0.25065564  0.84973808  1
  O  O4  1  0.75029548  0.74835235  0.94983977  1
  O  O5  1  0.70926921  0.78818423  0.89969594  1
  O  O6  1  0.21198162  0.71909773  0.80028268  1
  O  O7  1  0.77851796  0.29481251  0.89988429  1
  O  O8  1  0.29023935  0.22328677  0.79982366  1
  O  O9  1  0.24862429  0.24921516  0.74999319  1
  O  O10  1  0.74808076  0.75229022  0.85018187  1
  O  O11  1  0.70521186  0.77657620  0.79995486  1
  O  O12  1  0.21020828  0.71101303  0.70007442  1
  O  O13  1  0.78822939  0.28554332  0.80043445  1
  O  O14  1  0.29702752  0.22000352  0.70022751  1
  O  O15  1  0.25048054  0.24535987  0.65000096  1
  O  O16  1  0.74966331  0.75308399  0.75028848  1
  O  O17  1  0.70532690  0.77784739  0.70016096  1
  O  O18  1  0.21730650  0.69797206  0.59941405  1
  O  O19  1  0.79117037  0.28631570  0.70008454  1
  O  O20  1  0.28985744  0.20804420  0.60033545  1
  O  O21  1  0.24909565  0.24994528  0.54989778  1
  O  O22  1  0.75103426  0.74597814  0.65006552  1
  O  O23  1  0.71427401  0.79121505  0.60026768  1
  O  O24  1  0.21871084  0.70397036  0.49993510  1
  O  O25  1  0.78128916  0.29602964  0.60006490  1
  O  O26  1  0.28572599  0.20878495  0.49973232  1
  O  O27  1  0.24896574  0.25402186  0.44993448  1
  O  O28  1  0.75090435  0.75005472  0.55010222  1
  O  O29  1  0.71014256  0.79195580  0.49966455  1
  O  O30  1  0.20882963  0.71368430  0.39991546  1
  O  O31  1  0.78269350  0.30202794  0.50058595  1
  O  O32  1  0.29467310  0.22215261  0.39983904  1
  O  O33  1  0.25033669  0.24691601  0.34971152  1
  O  O34  1  0.74951946  0.75464013  0.44999904  1
  O  O35  1  0.70297248  0.77999648  0.39977249  1
  O  O36  1  0.21177061  0.71445668  0.29956555  1
  O  O37  1  0.78979172  0.28898697  0.39992558  1
  O  O38  1  0.29478814  0.22342380  0.30004514  1
  O  O39  1  0.25191924  0.24770978  0.24981813  1
  O  O40  1  0.75137571  0.75078484  0.35000681  1
  O  O41  1  0.70976065  0.77671323  0.30017634  1
  O  O42  1  0.22148204  0.70518749  0.20011571  1
  O  O43  1  0.78801838  0.28090227  0.29971732  1
  O  O44  1  0.29073079  0.21181577  0.20030406  1
  O  O45  1  0.24970452  0.25164765  0.15016023  1
  O  O46  1  0.75302412  0.74934436  0.25026192  1
  O  O47  1  0.71255779  0.79592066  0.20078635  1
  O  O48  1  0.21008243  0.71011851  0.09986606  1
  O  O49  1  0.78098498  0.29930106  0.20055842  1
  O  O50  1  0.28015473  0.20412971  0.10014601  1
  O  O51  1  0.25029205  0.24926783  0.05017029  1
  O  O52  1  0.74763010  0.75339776  0.15022358  1
  O  O53  1  0.71809458  0.79808965  0.09987964  1
  O  O54  1  0.21168352  0.70766382  0.99993266  1
  O  O55  1  0.78831648  0.29233618  0.10006734  1
  O  O56  1  0.28190542  0.20191035  0.00012036  1
  O  O57  1  0.74970795  0.75073217  0.04982971  1
  O  O58  1  0.71984527  0.79587029  0.99985399  1
  O  O59  1  0.78991757  0.28988149  0.00013394  1
loop_
_geom_bond_atom_site_label_1
_geom_bond_atom_site_label_2
_geom_bond_distance
_geom_bond_site_symmetry_2
Fe0 O0 1.994729 1_555
Fe0 O5 2.003406 1_445
Fe0 O2 2.004352 1_555
Fe0 O10 2.053159 1_445
Fe0 O1 2.081412 1_545
Fe0 O7 2.082978 1_455
Fe1 O6 1.989736 1_655
Fe1 O13 1.994574 1_565
Fe1 O16 2.005249 1_555
Fe1 O3 2.036568 1_665
Fe1 O11 2.061880 1_555
Fe1 O8 2.064646 1_665
Fe2 O12 2.004502 1_545
Fe2 O19 2.004610 1_455
Fe2 O9 2.023292 1_555
Fe2 O22 2.037970 1_445
Fe2 O17 2.066368 1_445
Fe2 O14 2.066729 1_555
Fe3 O23 1.988173 1_455
Fe3 O20 1.988192 1_565
Fe3 O28 2.025648 1_455
Fe3 O15 2.034454 1_565
Fe3 O25 2.081906 1_465
Fe3 O18 2.083312 1_555
Fe4 O26 1.988173 1_655
Fe4 O29 1.988192 1_545
Fe4 O21 2.025648 1_655
Fe4 O34 2.034454 1_545
Fe4 O24 2.081906 1_645
Fe4 O31 2.083312 1_555
Fe5 O37 2.004502 1_455
Fe5 O30 2.004610 1_545
Fe5 O40 2.023292 1_445
Fe5 O27 2.037970 1_555
Fe5 O32 2.066368 1_555
Fe5 O35 2.066729 1_445
Fe6 O43 1.989736 1_455
Fe6 O36 1.994574 1_545
Fe6 O33 2.005249 1_555
Fe6 O46 2.036568 1_445
Fe6 O38 2.061880 1_555
Fe6 O41 2.064646 1_445
Fe7 O52 1.994729 1_555
Fe7 O44 2.003406 1_665
Fe7 O47 2.004352 1_555
Fe7 O39 2.053159 1_665
Fe7 O49 2.081412 1_565
Fe7 O42 2.082978 1_655
Fe8 O52 1.993853 1_555
Fe8 O55 2.006284 1_555
Fe8 O48 2.008381 1_555
Fe8 O50 2.071946 1_555
Fe8 O51 2.072550 1_555
Fe8 O53 2.074929 1_555
Fe9 O0 1.993853 1_555
Fe9 O54 2.006284 1_555
Fe9 O59 2.008381 1_556
Fe9 O58 2.071946 1_555
Fe9 O57 2.072550 1_556
Fe9 O56 2.074929 1_556
Mo0 O7 1.943154 1_555
Mo0 O1 1.944622 1_555
Mo0 O3 2.005097 1_555
Mo0 O2 2.009148 1_555
Mo0 O5 2.009896 1_555
Mo0 O4 2.063281 1_555
Mo1 O8 1.934892 1_555
Mo1 O11 1.935664 1_555
Mo1 O10 2.027117 1_555
Mo1 O13 2.028126 1_555
Mo1 O6 2.029789 1_555
Mo1 O9 2.044709 1_555
Mo2 O17 1.938310 1_555
Mo2 O14 1.938312 1_555
Mo2 O12 2.024850 1_555
Mo2 O19 2.025186 1_555
Mo2 O15 2.032897 1_555
Mo2 O16 2.043097 1_555
Mo3 O18 1.946274 1_555
Mo3 O25 1.947280 1_555
Mo3 O20 2.022030 1_555
Mo3 O23 2.022595 1_555
Mo3 O22 2.031955 1_555
Mo3 O21 2.039099 1_555
Mo4 O31 1.946274 1_555
Mo4 O24 1.947280 1_555
Mo4 O29 2.022030 1_555
Mo4 O26 2.022595 1_555
Mo4 O27 2.031955 1_555
Mo4 O28 2.039099 1_555
Mo5 O32 1.938310 1_555
Mo5 O35 1.938312 1_555
Mo5 O37 2.024850 1_555
Mo5 O30 2.025186 1_555
Mo5 O34 2.032897 1_555
Mo5 O33 2.043097 1_555
Mo6 O41 1.934892 1_555
Mo6 O38 1.935664 1_555
Mo6 O39 2.027117 1_555
Mo6 O36 2.028126 1_555
Mo6 O43 2.029789 1_555
Mo6 O40 2.044709 1_555
Mo7 O50 1.935830 1_655
Mo7 O53 1.936198 1_545
Mo7 O57 2.016638 1_545
Mo7 O48 2.023510 1_645
Mo7 O55 2.025166 1_555
Mo7 O45 2.060944 1_655
Mo8 O42 1.943154 1_555
Mo8 O49 1.944622 1_555
Mo8 O46 2.005097 1_555
Mo8 O47 2.009148 1_555
Mo8 O44 2.009896 1_555
Mo8 O45 2.063281 1_555
Mo9 O58 1.935830 1_444
Mo9 O56 1.936198 1_555
Mo9 O51 2.016638 1_555
Mo9 O59 2.023510 1_455
Mo9 O54 2.025166 1_544
Mo9 O4 2.060944 1_444
O0 Sr2 2.787859 1_555
O0 Sr0 2.796416 1_545
O0 Sr2 2.819844 1_455
O0 Sr0 2.827841 1_555
O1 Sr4 2.634869 1_455
O1 Sr0 2.639092 1_555
O1 Sr1 3.033671 1_555
O1 Sr2 3.061350 1_565
O2 Sr1 2.606681 1_545
O2 Sr2 2.642766 1_555
O2 Sr4 3.079656 1_455
O2 Sr0 3.092398 1_555
O3 Sr1 2.790535 1_555
O3 Sr4 2.801680 1_455
O3 Sr4 2.806002 1_555
O3 Sr1 2.833674 1_545
O4 Sr0 2.800719 1_555
O4 Sr0 2.806995 1_655
O4 Sr2 2.809243 1_555
O4 Sr2 2.814967 1_565
O5 Sr1 2.629671 1_555
O5 Sr2 2.632630 1_565
O5 Sr4 3.066625 1_555
O5 Sr0 3.074437 1_655
O6 Sr1 2.638812 1_555
O6 Sr6 2.643414 1_455
O6 Sr4 3.024689 1_565
O6 Sr3 3.048984 1_555
O7 Sr0 2.637613 1_655
O7 Sr4 2.643815 1_555
O7 Sr2 3.046049 1_555
O7 Sr1 3.062597 1_545
O8 Sr4 2.657816 1_555
O8 Sr3 2.664874 1_545
O8 Sr6 3.012483 1_455
O8 Sr1 3.033960 1_555
O9 Sr6 2.799510 1_455
O9 Sr6 2.808405 1_555
O9 Sr3 2.811168 1_555
O9 Sr3 2.813050 1_545
O10 Sr1 2.793407 1_555
O10 Sr4 2.807375 1_565
O10 Sr1 2.814458 1_655
O10 Sr4 2.816989 1_555
O11 Sr4 2.650946 1_565
O11 Sr3 2.656419 1_555
O11 Sr6 3.036537 1_555
O11 Sr1 3.049985 1_655
O12 Sr3 2.624160 1_555
O12 Sr8 2.627392 1_455
O12 Sr5 3.068679 1_555
O12 Sr6 3.073098 1_565
O13 Sr1 2.626071 1_655
O13 Sr6 2.639645 1_555
O13 Sr4 3.017562 1_555
O13 Sr3 3.055199 1_545
O14 Sr6 2.657269 1_555
O14 Sr5 2.662267 1_545
O14 Sr3 3.056391 1_555
O14 Sr8 3.063007 1_455
O15 Sr8 2.798770 1_455
O15 Sr5 2.800276 1_545
O15 Sr8 2.808999 1_555
O15 Sr5 2.823956 1_555
O16 Sr6 2.791273 1_565
O16 Sr3 2.796435 1_555
O16 Sr3 2.811396 1_655
O16 Sr6 2.833013 1_555
O17 Sr5 2.651507 1_555
O17 Sr6 2.661815 1_565
O17 Sr3 3.048944 1_655
O17 Sr8 3.064484 1_555
O18 Sr10 2.631163 1_455
O18 Sr5 2.644678 1_555
O18 Sr7 3.030924 1_555
O18 Sr8 3.082656 1_565
O19 Sr3 2.625036 1_655
O19 Sr8 2.633190 1_555
O19 Sr5 3.066256 1_545
O19 Sr6 3.078861 1_555
O20 Sr7 2.620339 1_545
O20 Sr8 2.627958 1_555
O20 Sr5 3.055198 1_555
O20 Sr10 3.111764 1_455
O21 Sr10 2.803494 1_555
O21 Sr10 2.804328 1_455
O21 Sr7 2.805867 1_555
O21 Sr7 2.818655 1_545
O22 Sr8 2.796631 1_555
O22 Sr5 2.798357 1_555
O22 Sr5 2.809368 1_655
O22 Sr8 2.827576 1_565
O23 Sr7 2.625961 1_555
O23 Sr8 2.625996 1_565
O23 Sr5 3.069142 1_655
O23 Sr10 3.087234 1_555
O24 Sr12 2.626746 1_455
O24 Sr7 2.656715 1_555
O24 Sr10 3.043656 1_565
O24 Sr9 3.058948 1_555
O25 Sr5 2.626746 1_655
O25 Sr10 2.656715 1_555
O25 Sr7 3.043656 1_545
O25 Sr8 3.058948 1_555
O26 Sr10 2.625961 1_555
O26 Sr9 2.625996 1_545
O26 Sr12 3.069142 1_455
O26 Sr7 3.087234 1_555
O27 Sr9 2.796631 1_555
O27 Sr12 2.798357 1_555
O27 Sr12 2.809368 1_455
O27 Sr9 2.827576 1_545
O28 Sr7 2.803494 1_555
O28 Sr7 2.804328 1_655
O28 Sr10 2.805867 1_555
O28 Sr10 2.818655 1_565
O29 Sr10 2.620339 1_565
O29 Sr9 2.627958 1_555
O29 Sr12 3.055198 1_555
O29 Sr7 3.111764 1_655
O30 Sr14 2.625036 1_455
O30 Sr9 2.633190 1_555
O30 Sr12 3.066256 1_565
O30 Sr11 3.078861 1_555
O31 Sr7 2.631163 1_655
O31 Sr12 2.644678 1_555
O31 Sr10 3.030924 1_555
O31 Sr9 3.082656 1_545
O32 Sr12 2.651507 1_555
O32 Sr11 2.661815 1_545
O32 Sr14 3.048944 1_455
O32 Sr9 3.064484 1_555
O33 Sr11 2.791273 1_545
O33 Sr14 2.796435 1_555
O33 Sr14 2.811396 1_455
O33 Sr11 2.833013 1_555
O34 Sr9 2.798770 1_655
O34 Sr12 2.800276 1_565
O34 Sr9 2.808999 1_555
O34 Sr12 2.823956 1_555
O35 Sr11 2.657269 1_555
O35 Sr12 2.662267 1_565
O35 Sr14 3.056391 1_555
O35 Sr9 3.063007 1_655
O36 Sr16 2.626071 1_455
O36 Sr11 2.639645 1_555
O36 Sr13 3.017562 1_555
O36 Sr14 3.055199 1_565
O37 Sr14 2.624160 1_555
O37 Sr9 2.627392 1_655
O37 Sr12 3.068679 1_555
O37 Sr11 3.073098 1_545
O38 Sr13 2.650946 1_545
O38 Sr14 2.656419 1_555
O38 Sr11 3.036537 1_555
O38 Sr16 3.049985 1_455
O39 Sr16 2.793407 1_555
O39 Sr13 2.807375 1_545
O39 Sr16 2.814458 1_455
O39 Sr13 2.816989 1_555
O40 Sr11 2.799510 1_655
O40 Sr11 2.808405 1_555
O40 Sr14 2.811168 1_555
O40 Sr14 2.813050 1_565
O41 Sr13 2.657816 1_555
O41 Sr14 2.664874 1_565
O41 Sr11 3.012483 1_655
O41 Sr16 3.033960 1_555
O42 Sr18 2.637613 1_455
O42 Sr13 2.643815 1_555
O42 Sr15 3.046049 1_555
O42 Sr16 3.062597 1_565
O43 Sr16 2.638812 1_555
O43 Sr11 2.643414 1_655
O43 Sr13 3.024689 1_545
O43 Sr14 3.048984 1_555
O44 Sr16 2.629671 1_555
O44 Sr15 2.632630 1_545
O44 Sr13 3.066625 1_555
O44 Sr18 3.074437 1_455
O45 Sr18 2.800719 1_555
O45 Sr18 2.806995 1_455
O45 Sr15 2.809243 1_555
O45 Sr15 2.814967 1_545
O46 Sr16 2.790535 1_555
O46 Sr13 2.801680 1_655
O46 Sr13 2.806002 1_555
O46 Sr16 2.833674 1_565
O47 Sr16 2.606681 1_565
O47 Sr15 2.642766 1_555
O47 Sr13 3.079656 1_655
O47 Sr18 3.092398 1_555
O48 Sr19 2.611146 1_455
O48 Sr15 2.642801 1_555
O48 Sr17 3.067671 1_555
O48 Sr18 3.070857 1_565
O49 Sr13 2.634869 1_655
O49 Sr18 2.639092 1_555
O49 Sr16 3.033671 1_555
O49 Sr15 3.061350 1_545
O50 Sr18 2.648107 1_555
O50 Sr17 2.659085 1_545
O50 Sr19 3.057730 1_455
O50 Sr15 3.070653 1_555
O51 Sr19 2.798210 1_455
O51 Sr17 2.804411 1_545
O51 Sr19 2.809522 1_555
O51 Sr17 2.819997 1_555
O52 Sr15 2.787859 1_555
O52 Sr18 2.796416 1_565
O52 Sr15 2.819844 1_655
O52 Sr18 2.827841 1_555
O53 Sr17 2.643376 1_555
O53 Sr18 2.651522 1_565
O53 Sr19 3.062579 1_555
O53 Sr15 3.085233 1_655
O54 Sr17 2.616171 1_556
O54 Sr2 2.631911 1_455
O54 Sr0 3.081824 1_555
O54 Sr19 3.082459 1_566
O55 Sr19 2.616171 1_555
O55 Sr15 2.631911 1_655
O55 Sr18 3.081824 1_555
O55 Sr17 3.082459 1_545
O56 Sr19 2.643376 1_555
O56 Sr0 2.651522 1_544
O56 Sr17 3.062579 1_555
O56 Sr2 3.085233 1_454
O57 Sr17 2.798210 1_655
O57 Sr19 2.804411 1_565
O57 Sr17 2.809522 1_555
O57 Sr19 2.819997 1_555
O58 Sr0 2.648107 1_555
O58 Sr19 2.659085 1_566
O58 Sr17 3.057730 1_656
O58 Sr2 3.070653 1_555
O59 Sr17 2.611146 1_655
O59 Sr2 2.642801 1_554
O59 Sr19 3.067671 1_555
O59 Sr0 3.070857 1_544
