# generated using pymatgen
data_Mg6TiGa
_symmetry_space_group_name_H-M   'P 1'
_cell_length_a   4.95834000
_cell_length_b   6.01732400
_cell_length_c   11.00998600
_cell_angle_alpha   90.00000000
_cell_angle_beta   90.00000000
_cell_angle_gamma   90.00000000
_symmetry_Int_Tables_number   1
_chemical_formula_structural   Mg6TiGa
_chemical_formula_sum   'Mg12 Ti2 Ga2'
_cell_volume   328.49326278
_cell_formula_units_Z   2
loop_
 _symmetry_equiv_pos_site_id
 _symmetry_equiv_pos_as_xyz
  1  'x, y, z'
loop_
 _atom_site_type_symbol
 _atom_site_label
 _atom_site_symmetry_multiplicity
 _atom_site_fract_x
 _atom_site_fract_y
 _atom_site_fract_z
 _atom_site_occupancy
  Mg  Mg0  1  0.50000000  0.24888400  0.41905500  1
  Mg  Mg1  1  0.50000000  0.75111600  0.41905500  1
  Mg  Mg2  1  0.00000000  0.75400400  0.08378500  1
  Mg  Mg3  1  0.00000000  0.24599600  0.08378500  1
  Mg  Mg4  1  0.00000000  0.00000000  0.32742500  1
  Mg  Mg5  1  0.00000000  0.50000000  0.32884400  1
  Mg  Mg6  1  0.50000000  0.74888400  0.91905500  1
  Mg  Mg7  1  0.50000000  0.25111600  0.91905500  1
  Mg  Mg8  1  0.00000000  0.25400400  0.58378500  1
  Mg  Mg9  1  0.00000000  0.74599600  0.58378500  1
  Mg  Mg10  1  0.00000000  0.50000000  0.82742500  1
  Mg  Mg11  1  0.00000000  0.00000000  0.82884400  1
  Ti  Ti0  1  0.50000000  0.00000000  0.17125200  1
  Ti  Ti1  1  0.50000000  0.50000000  0.67125200  1
  Ga  Ga0  1  0.50000000  0.50000000  0.16679300  1
  Ga  Ga1  1  0.50000000  0.00000000  0.66679300  1
loop_
_geom_bond_atom_site_label_1
_geom_bond_atom_site_label_2
_geom_bond_distance
_geom_bond_site_symmetry_2
Mg0 Mg1 2.995231 1_545
Mg0 Mg1 3.022093 1_555
Mg0 Mg4 3.067068 1_655
Mg0 Mg4 3.067068 1_555
Mg0 Mg5 3.068556 1_655
Mg0 Mg5 3.068556 1_555
Mg0 Mg8 3.071913 1_655
Mg0 Mg8 3.071913 1_555
Mg0 Ti0 3.112317 1_555
Mg0 Ti1 3.161209 1_555
Mg1 Mg4 3.067068 1_565
Mg1 Mg4 3.067068 1_665
Mg1 Mg5 3.068556 1_655
Mg1 Mg5 3.068556 1_555
Mg1 Mg9 3.071913 1_555
Mg1 Mg9 3.071913 1_655
Mg1 Ti0 3.112317 1_565
Mg1 Ti1 3.161209 1_555
Mg2 Mg3 2.960475 1_565
Mg2 Ti0 3.043810 1_565
Mg2 Ti0 3.043810 1_465
Mg2 Mg3 3.056849 1_555
Mg2 Mg4 3.063783 1_565
Mg2 Mg6 3.071913 1_554
Mg2 Mg6 3.071913 1_454
Mg2 Mg5 3.100936 1_555
Mg3 Ti0 3.043810 1_455
Mg3 Ti0 3.043810 1_555
Mg3 Mg4 3.063783 1_555
Mg3 Mg7 3.071913 1_454
Mg3 Mg7 3.071913 1_554
Mg3 Mg5 3.100936 1_555
Mg4 Mg5 3.008703 1_555
Mg4 Mg5 3.008703 1_545
Mg4 Ti0 3.017091 1_555
Mg4 Ti0 3.017091 1_455
Mg4 Mg9 3.209782 1_545
Mg4 Mg8 3.209782 1_555
Mg5 Mg9 3.173291 1_555
Mg5 Mg8 3.173291 1_555
Mg6 Mg7 2.995231 1_555
Mg6 Mg7 3.022093 1_565
Mg6 Ti1 3.112317 1_555
Mg6 Ti0 3.161209 1_566
Mg7 Ti1 3.112317 1_555
Mg7 Ti0 3.161209 1_556
Mg8 Mg9 2.960475 1_555
Mg8 Ti1 3.043810 1_555
Mg8 Ti1 3.043810 1_455
Mg8 Mg9 3.056849 1_545
Mg9 Ti1 3.043810 1_555
Mg9 Ti1 3.043810 1_455
Mg10 Mg11 3.008703 1_555
Mg10 Mg11 3.008703 1_565
Mg10 Ti1 3.017091 1_455
Mg10 Ti1 3.017091 1_555
Mg10 Mg8 3.063783 1_555
Mg10 Mg9 3.063783 1_555
Mg10 Mg6 3.067068 1_455
Mg10 Mg7 3.067068 1_455
Mg10 Mg6 3.067068 1_555
Mg10 Mg7 3.067068 1_555
Mg10 Mg3 3.209782 1_556
Mg10 Mg2 3.209782 1_556
Mg11 Mg6 3.068556 1_545
Mg11 Mg6 3.068556 1_445
Mg11 Mg7 3.068556 1_455
Mg11 Mg7 3.068556 1_555
Mg11 Mg8 3.100936 1_555
Mg11 Mg9 3.100936 1_545
Mg11 Mg3 3.173291 1_556
Mg11 Mg2 3.173291 1_546
Ga0 Ti0 3.009063 1_555
Ga0 Ti0 3.009063 1_565
Ga0 Mg3 3.052476 1_655
Ga0 Mg2 3.052476 1_555
Ga0 Mg2 3.052476 1_655
Ga0 Mg3 3.052476 1_555
Ga0 Mg5 3.054436 1_555
Ga0 Mg5 3.054436 1_655
Ga0 Mg7 3.111689 1_554
Ga0 Mg6 3.111689 1_554
Ga0 Mg1 3.161838 1_555
Ga0 Mg0 3.161838 1_555
Ga1 Ti1 3.009063 1_555
Ga1 Ti1 3.009063 1_545
Ga1 Mg8 3.052476 1_555
Ga1 Mg9 3.052476 1_645
Ga1 Mg8 3.052476 1_655
Ga1 Mg9 3.052476 1_545
Ga1 Mg11 3.054436 1_555
Ga1 Mg11 3.054436 1_655
Ga1 Mg0 3.111689 1_555
Ga1 Mg1 3.111689 1_545
Ga1 Mg6 3.161838 1_545
Ga1 Mg7 3.161838 1_555
