# generated using pymatgen
data_Gd3SOF5
_symmetry_space_group_name_H-M   'P 1'
_cell_length_a   3.75180100
_cell_length_b   9.53397200
_cell_length_c   9.59498912
_cell_angle_alpha   60.49330150
_cell_angle_beta   90.00000000
_cell_angle_gamma   90.00000000
_symmetry_Int_Tables_number   1
_chemical_formula_structural   Gd3SOF5
_chemical_formula_sum   'Gd6 S2 O2 F10'
_cell_volume   298.69379401
_cell_formula_units_Z   2
loop_
 _symmetry_equiv_pos_site_id
 _symmetry_equiv_pos_as_xyz
  1  'x, y, z'
loop_
 _atom_site_type_symbol
 _atom_site_label
 _atom_site_symmetry_multiplicity
 _atom_site_fract_x
 _atom_site_fract_y
 _atom_site_fract_z
 _atom_site_occupancy
  Gd  Gd0  1  0.00000000  0.41817900  0.86530100  1
  Gd  Gd1  1  0.00000000  0.86629100  0.72902800  1
  Gd  Gd2  1  0.00000000  0.70136000  0.41565000  1
  Gd  Gd3  1  0.50000000  0.59481400  0.10391500  1
  Gd  Gd4  1  0.50000000  0.12347000  0.28515200  1
  Gd  Gd5  1  0.50000000  0.29560700  0.59688400  1
  S  S0  1  0.00000000  0.32908900  0.33255500  1
  S  S1  1  0.50000000  0.67265500  0.66209400  1
  O  O0  1  0.00000000  0.43623300  0.61261600  1
  O  O1  1  0.00000000  0.61663300  0.94797100  1
  F  F0  1  0.00000000  0.15888100  0.11987700  1
  F  F1  1  0.00000000  0.11250200  0.72677000  1
  F  F2  1  0.00000000  0.72465600  0.16251000  1
  F  F3  1  0.50000000  0.85454100  0.88208300  1
  F  F4  1  0.50000000  0.87921800  0.28381900  1
  F  F5  1  0.50000000  0.27189200  0.85059300  1
  F  F6  1  0.00000000  0.95183300  0.43398800  1
  F  F7  1  0.50000000  0.56888300  0.37513800  1
  F  F8  1  0.50000000  0.37834600  0.04713100  1
  F  F9  1  0.50000000  0.04491700  0.56692800  1
loop_
_geom_bond_atom_site_label_1
_geom_bond_atom_site_label_2
_geom_bond_distance
_geom_bond_site_symmetry_2
Gd0 O0 2.344524 1_555
Gd0 O1 2.384836 1_555
Gd0 S1 2.923549 1_455
Gd0 S1 2.923549 1_555
Gd1 O1 2.270054 1_555
Gd1 S1 2.916768 1_455
Gd1 S1 2.916768 1_555
Gd2 O0 2.292450 1_555
Gd2 S1 2.923680 1_455
Gd2 S1 2.923680 1_555
Gd3 O1 2.344041 1_654
Gd3 O1 2.344041 1_554
Gd3 S0 3.045526 1_655
Gd3 S0 3.045526 1_555
Gd4 S0 2.906409 1_555
Gd4 S0 2.906409 1_655
Gd5 O0 2.353441 1_555
Gd5 O0 2.353441 1_655
Gd5 S0 3.042348 1_555
Gd5 S0 3.042348 1_655
F0 Gd4 2.370739 1_555
F0 Gd4 2.370739 1_455
F0 Gd0 2.475828 1_554
F1 Gd1 2.336774 1_545
F1 Gd5 2.444708 1_455
F1 Gd5 2.444708 1_555
F2 Gd2 2.327524 1_555
F2 Gd3 2.460302 1_555
F2 Gd3 2.460302 1_455
F3 Gd3 2.338872 1_556
F3 Gd1 2.350780 1_555
F3 Gd1 2.350780 1_655
F4 Gd4 2.335018 1_565
F4 Gd2 2.425190 1_655
F4 Gd2 2.425190 1_555
F5 Gd5 2.331295 1_555
F5 Gd0 2.382851 1_655
F5 Gd0 2.382851 1_555
F6 Gd4 2.436024 1_465
F6 Gd4 2.436024 1_565
F6 Gd2 2.479397 1_555
F6 Gd1 2.530793 1_555
F7 Gd2 2.397700 1_655
F7 Gd2 2.397700 1_555
F7 Gd5 2.419610 1_555
F7 Gd3 2.489931 1_555
F8 Gd4 2.377802 1_555
F8 Gd3 2.379865 1_555
F8 Gd0 2.460568 1_654
F8 Gd0 2.460568 1_554
F9 Gd4 2.424046 1_555
F9 Gd1 2.495834 1_545
F9 Gd1 2.495834 1_645
F9 Gd5 2.543965 1_555
