# generated using pymatgen
data_DyUTe4
_symmetry_space_group_name_H-M   'P 1'
_cell_length_a   8.08464454
_cell_length_b   8.06659044
_cell_length_c   8.06668313
_cell_angle_alpha   149.37211125
_cell_angle_beta   135.49218060
_cell_angle_gamma   54.97354263
_symmetry_Int_Tables_number   1
_chemical_formula_structural   DyUTe4
_chemical_formula_sum   'Dy1 U1 Te4'
_cell_volume   186.71400377
_cell_formula_units_Z   1
loop_
 _symmetry_equiv_pos_site_id
 _symmetry_equiv_pos_as_xyz
  1  'x, y, z'
loop_
 _atom_site_type_symbol
 _atom_site_label
 _atom_site_symmetry_multiplicity
 _atom_site_fract_x
 _atom_site_fract_y
 _atom_site_fract_z
 _atom_site_occupancy
  Dy  Dy0  1  0.14161604  0.14117424  0.00039945  1
  U  U0  1  0.86225660  0.86290291  -0.00065591  1
  Te  Te0  1  0.70651104  0.20636957  0.50015824  1
  Te  Te1  1  0.29220598  0.79208261  0.50008578  1
  Te  Te2  1  0.74997376  0.49823208  0.25169639  1
  Te  Te3  1  0.24743757  0.49923759  0.74831604  1
loop_
_geom_bond_atom_site_label_1
_geom_bond_atom_site_label_2
_geom_bond_distance
_geom_bond_site_symmetry_2
Dy0 Te1 3.035409 1_555
Dy0 Te1 3.035472 1_544
Dy0 Te0 3.196339 1_454
Dy0 Te0 3.199081 1_555
Dy0 Te3 3.309889 1_544
Dy0 Te3 3.310386 1_555
Dy0 Te2 3.326859 1_444
Dy0 Te2 3.326923 1_455
Te0 U0 3.093446 1_556
Te0 U0 3.093602 1_545
Te1 U0 3.221035 1_556
Te1 U0 3.223436 1_455
Te2 Te3 3.037263 1_655
Te2 Te3 3.079515 1_554
Te2 U0 3.251752 1_545
Te2 U0 3.251912 1_556
Te3 U0 3.269243 1_456
Te3 U0 3.269522 1_445
