# generated using pymatgen
data_Be(PN2)2
_symmetry_space_group_name_H-M   'P 1'
_cell_length_a   7.88950628
_cell_length_b   7.88950628
_cell_length_c   7.88950663
_cell_angle_alpha   108.14863286
_cell_angle_beta   108.14863286
_cell_angle_gamma   108.14862743
_symmetry_Int_Tables_number   1
_chemical_formula_structural   Be(PN2)2
_chemical_formula_sum   'Be6 P12 N24'
_cell_volume   395.45980567
_cell_formula_units_Z   6
loop_
 _symmetry_equiv_pos_site_id
 _symmetry_equiv_pos_as_xyz
  1  'x, y, z'
loop_
 _atom_site_type_symbol
 _atom_site_label
 _atom_site_symmetry_multiplicity
 _atom_site_fract_x
 _atom_site_fract_y
 _atom_site_fract_z
 _atom_site_occupancy
  Be  Be0  1  0.96172500  0.73237700  0.55628300  1
  Be  Be1  1  0.55628300  0.96172500  0.73237700  1
  Be  Be2  1  0.73237700  0.55628300  0.96172500  1
  Be  Be3  1  0.03827500  0.26762300  0.44371700  1
  Be  Be4  1  0.44371700  0.03827500  0.26762300  1
  Be  Be5  1  0.26762300  0.44371700  0.03827500  1
  P  P0  1  0.60137700  0.77722700  0.37023600  1
  P  P1  1  0.37023600  0.60137700  0.77722700  1
  P  P2  1  0.77722700  0.37023600  0.60137700  1
  P  P3  1  0.39862300  0.22277300  0.62976400  1
  P  P4  1  0.62976400  0.39862300  0.22277300  1
  P  P5  1  0.22277300  0.62976400  0.39862300  1
  P  P6  1  0.93022300  0.11336900  0.70794500  1
  P  P7  1  0.70794500  0.93022300  0.11336900  1
  P  P8  1  0.11336900  0.70794500  0.93022300  1
  P  P9  1  0.06977700  0.88663100  0.29205500  1
  P  P10  1  0.29205500  0.06977700  0.88663100  1
  P  P11  1  0.88663100  0.29205500  0.06977700  1
  N  N0  1  0.83186100  0.87533700  0.54764600  1
  N  N1  1  0.54764600  0.83186100  0.87533700  1
  N  N2  1  0.87533700  0.54764600  0.83186100  1
  N  N3  1  0.16813900  0.12466300  0.45235400  1
  N  N4  1  0.45235400  0.16813900  0.12466300  1
  N  N5  1  0.12466300  0.45235400  0.16813900  1
  N  N6  1  0.08748500  0.75146300  0.41289000  1
  N  N7  1  0.41289000  0.08748500  0.75146300  1
  N  N8  1  0.75146300  0.41289000  0.08748500  1
  N  N9  1  0.91251500  0.24853700  0.58711000  1
  N  N10  1  0.58711000  0.91251500  0.24853700  1
  N  N11  1  0.24853700  0.58711000  0.91251500  1
  N  N12  1  0.13603600  0.83604200  0.80268900  1
  N  N13  1  0.80268900  0.13603600  0.83604200  1
  N  N14  1  0.83604200  0.80268900  0.13603600  1
  N  N15  1  0.86396400  0.16395800  0.19731100  1
  N  N16  1  0.19731100  0.86396400  0.16395800  1
  N  N17  1  0.16395800  0.19731100  0.86396400  1
  N  N18  1  0.78702500  0.48064300  0.45677600  1
  N  N19  1  0.45677600  0.78702500  0.48064300  1
  N  N20  1  0.48064300  0.45677600  0.78702500  1
  N  N21  1  0.21297500  0.51935700  0.54322400  1
  N  N22  1  0.54322400  0.21297500  0.51935700  1
  N  N23  1  0.51935700  0.54322400  0.21297500  1
loop_
_geom_bond_atom_site_label_1
_geom_bond_atom_site_label_2
_geom_bond_distance
_geom_bond_site_symmetry_2
Be0 N12 1.727057 1_655
Be0 N6 1.731833 1_655
Be0 N0 1.746646 1_555
Be0 N18 1.763451 1_555
Be1 N13 1.727057 1_565
Be1 N7 1.731833 1_565
Be1 N1 1.746646 1_555
Be1 N19 1.763451 1_555
Be2 N14 1.727057 1_556
Be2 N8 1.731833 1_556
Be2 N2 1.746646 1_555
Be2 N20 1.763451 1_555
Be3 N15 1.727057 1_455
Be3 N9 1.731833 1_455
Be3 N3 1.746646 1_555
Be3 N21 1.763451 1_555
Be4 N16 1.727057 1_545
Be4 N10 1.731833 1_545
Be4 N4 1.746646 1_555
Be4 N22 1.763451 1_555
Be5 N17 1.727057 1_554
Be5 N11 1.731833 1_554
Be5 N5 1.746646 1_555
Be5 N23 1.763451 1_555
N0 P0 1.651517 1_555
N0 P6 1.652127 1_565
N1 P1 1.651517 1_555
N1 P7 1.652127 1_556
N2 P2 1.651517 1_555
N2 P8 1.652127 1_655
N3 P3 1.651517 1_555
N3 P9 1.652127 1_545
N4 P4 1.651517 1_555
N4 P10 1.652127 1_554
N5 P5 1.651517 1_555
N5 P11 1.652127 1_455
N6 P9 1.645829 1_555
N6 P5 1.649163 1_555
N7 P10 1.645829 1_555
N7 P3 1.649163 1_555
N8 P11 1.645829 1_555
N8 P4 1.649163 1_555
N9 P6 1.645829 1_555
N9 P2 1.649163 1_555
N10 P7 1.645829 1_555
N10 P0 1.649163 1_555
N11 P8 1.645829 1_555
N11 P1 1.649163 1_555
N12 P10 1.634500 1_565
N12 P8 1.642777 1_555
N13 P11 1.634500 1_556
N13 P6 1.642777 1_555
N14 P9 1.634500 1_655
N14 P7 1.642777 1_555
N15 P7 1.634500 1_545
N15 P11 1.642777 1_555
N16 P8 1.634500 1_554
N16 P9 1.642777 1_555
N17 P6 1.634500 1_455
N17 P10 1.642777 1_555
N18 P4 1.641680 1_555
N18 P2 1.642638 1_555
N19 P5 1.641680 1_555
N19 P0 1.642638 1_555
N20 P3 1.641680 1_555
N20 P1 1.642638 1_555
N21 P1 1.641680 1_555
N21 P5 1.642638 1_555
N22 P2 1.641680 1_555
N22 P3 1.642638 1_555
N23 P0 1.641680 1_555
N23 P4 1.642638 1_555
