# generated using pymatgen
data_Ti9Zn2O13
_symmetry_space_group_name_H-M   'P 1'
_cell_length_a   5.15219870
_cell_length_b   5.15219870
_cell_length_c   16.70984561
_cell_angle_alpha   81.03293893
_cell_angle_beta   81.03293893
_cell_angle_gamma   33.38171425
_symmetry_Int_Tables_number   1
_chemical_formula_structural   Ti9Zn2O13
_chemical_formula_sum   'Ti9 Zn2 O13'
_cell_volume   240.80319954
_cell_formula_units_Z   1
loop_
 _symmetry_equiv_pos_site_id
 _symmetry_equiv_pos_as_xyz
  1  'x, y, z'
loop_
 _atom_site_type_symbol
 _atom_site_label
 _atom_site_symmetry_multiplicity
 _atom_site_fract_x
 _atom_site_fract_y
 _atom_site_fract_z
 _atom_site_occupancy
  Ti  Ti0  1  0.50000000  0.50000000  0.50000000  1
  Ti  Ti1  1  0.34635300  0.34635300  0.03621900  1
  Ti  Ti2  1  0.65364700  0.65364700  0.96378100  1
  Ti  Ti3  1  0.23619500  0.23619500  0.42519200  1
  Ti  Ti4  1  0.76380500  0.76380500  0.57480800  1
  Ti  Ti5  1  0.06897800  0.06897800  0.11714000  1
  Ti  Ti6  1  0.93102200  0.93102200  0.88286000  1
  Ti  Ti7  1  0.01039300  0.01039300  0.33670400  1
  Ti  Ti8  1  0.98960700  0.98960700  0.66329600  1
  Zn  Zn0  1  0.78578700  0.78578700  0.22859900  1
  Zn  Zn1  1  0.21421300  0.21421300  0.77140100  1
  O  O0  1  0.00000000  0.00000000  0.00000000  1
  O  O1  1  0.13148400  0.13148400  0.22944500  1
  O  O2  1  0.86851600  0.86851600  0.77055500  1
  O  O3  1  0.71389700  0.71389700  0.08613900  1
  O  O4  1  0.28610300  0.28610300  0.91386100  1
  O  O5  1  0.42032300  0.42032300  0.14658300  1
  O  O6  1  0.57967700  0.57967700  0.85341700  1
  O  O7  1  0.37313200  0.37313200  0.31353600  1
  O  O8  1  0.62686800  0.62686800  0.68646400  1
  O  O9  1  0.62680700  0.62680700  0.37790600  1
  O  O10  1  0.37319300  0.37319300  0.62209400  1
  O  O11  1  0.87716300  0.87716300  0.45139500  1
  O  O12  1  0.12283700  0.12283700  0.54860500  1
loop_
_geom_bond_atom_site_label_1
_geom_bond_atom_site_label_2
_geom_bond_distance
_geom_bond_site_symmetry_2
O0 Ti2 2.134742 1_544
O0 Ti2 2.134742 1_454
O0 Ti1 2.134742 1_545
O0 Ti1 2.134742 1_455
O0 Ti5 2.174538 1_555
O0 Ti6 2.174538 1_444
O1 Ti7 1.985857 1_555
O1 Ti5 2.068584 1_555
O1 Zn0 2.121890 1_545
O1 Zn0 2.121890 1_455
O2 Ti8 1.985857 1_555
O2 Ti6 2.068584 1_555
O2 Zn1 2.121890 1_565
O2 Zn1 2.121890 1_655
O3 Ti1 2.059075 1_565
O3 Ti1 2.059075 1_655
O3 Ti5 2.064673 1_565
O3 Ti5 2.064673 1_655
O3 Ti2 2.220286 1_554
O4 Ti2 2.059075 1_455
O4 Ti2 2.059075 1_545
O4 Ti6 2.064673 1_545
O4 Ti6 2.064673 1_455
O4 Ti1 2.220286 1_556
O5 Ti5 2.085580 1_565
O5 Ti5 2.085580 1_655
O5 Ti1 2.090977 1_555
O5 Zn0 2.288871 1_455
O5 Zn0 2.288871 1_545
O6 Ti6 2.085580 1_545
O6 Ti6 2.085580 1_455
O6 Ti2 2.090977 1_555
O6 Zn1 2.288871 1_565
O6 Zn1 2.288871 1_655
O7 Ti7 2.084638 1_655
O7 Ti7 2.084638 1_565
O7 Ti3 2.118296 1_555
O7 Zn0 2.312031 1_545
O7 Zn0 2.312031 1_455
O8 Ti8 2.084638 1_455
O8 Ti8 2.084638 1_545
O8 Ti4 2.118296 1_555
O8 Zn1 2.312031 1_655
O8 Zn1 2.312031 1_565
O9 Ti7 2.059467 1_655
O9 Ti7 2.059467 1_565
O9 Ti3 2.063335 1_565
O9 Ti3 2.063335 1_655
O9 Ti0 2.213102 1_555
O10 Ti8 2.059467 1_545
O10 Ti8 2.059467 1_455
O10 Ti4 2.063335 1_545
O10 Ti4 2.063335 1_455
O10 Ti0 2.213102 1_555
O11 Ti3 2.124996 1_655
O11 Ti3 2.124996 1_565
O11 Ti7 2.140545 1_665
O11 Ti0 2.154012 1_655
O11 Ti0 2.154012 1_565
O11 Ti4 2.180293 1_555
O12 Ti4 2.124996 1_455
O12 Ti4 2.124996 1_545
O12 Ti8 2.140545 1_445
O12 Ti0 2.154012 1_545
O12 Ti0 2.154012 1_455
O12 Ti3 2.180293 1_555
