# generated using pymatgen
data_Rb2Co(SO7)2
_symmetry_space_group_name_H-M   'P 1'
_cell_length_a   12.40738700
_cell_length_b   6.37981300
_cell_length_c   8.90790446
_cell_angle_alpha   76.82123084
_cell_angle_beta   90.00000000
_cell_angle_gamma   90.00000000
_symmetry_Int_Tables_number   1
_chemical_formula_structural   Rb2Co(SO7)2
_chemical_formula_sum   'Rb4 Co2 S4 O28'
_cell_volume   686.55082960
_cell_formula_units_Z   2
loop_
 _symmetry_equiv_pos_site_id
 _symmetry_equiv_pos_as_xyz
  1  'x, y, z'
loop_
 _atom_site_type_symbol
 _atom_site_label
 _atom_site_symmetry_multiplicity
 _atom_site_fract_x
 _atom_site_fract_y
 _atom_site_fract_z
 _atom_site_occupancy
  Rb  Rb0  1  0.65672200  0.84350500  0.86385400  1
  Rb  Rb1  1  0.34327800  0.15649500  0.13614600  1
  Rb  Rb2  1  0.15672200  0.15649500  0.63614600  1
  Rb  Rb3  1  0.84327800  0.84350500  0.36385400  1
  Co  Co0  1  0.50000000  0.50000000  0.50000000  1
  Co  Co1  1  0.00000000  0.50000000  0.00000000  1
  S  S0  1  0.35735200  0.75091100  0.90303700  1
  S  S1  1  0.64264800  0.24908900  0.09696300  1
  S  S2  1  0.85735200  0.24908900  0.59696300  1
  S  S3  1  0.14264800  0.75091100  0.40303700  1
  O  O0  1  0.31624800  0.54545400  0.87530000  1
  O  O1  1  0.68375200  0.45454600  0.12470000  1
  O  O2  1  0.81624800  0.45454600  0.62470000  1
  O  O3  1  0.18375200  0.54545400  0.37530000  1
  O  O4  1  0.07664900  0.71637900  0.54479000  1
  O  O5  1  0.92335100  0.28362100  0.45521000  1
  O  O6  1  0.57664900  0.28362100  0.95521000  1
  O  O7  1  0.42335100  0.71637900  0.04479000  1
  O  O8  1  0.40825400  0.34006500  0.62979600  1
  O  O9  1  0.59174600  0.65993500  0.37020400  1
  O  O10  1  0.90825400  0.65993500  0.87020400  1
  O  O11  1  0.09174600  0.34006500  0.12979600  1
  O  O12  1  0.42587400  0.86089600  0.76887400  1
  O  O13  1  0.57412600  0.13910400  0.23112600  1
  O  O14  1  0.92587400  0.13910400  0.73112600  1
  O  O15  1  0.07412600  0.86089600  0.26887400  1
  O  O16  1  0.09563600  0.42944200  0.87200900  1
  O  O17  1  0.90436400  0.57055800  0.12799100  1
  O  O18  1  0.59563600  0.57055800  0.62799100  1
  O  O19  1  0.40436400  0.42944200  0.37200900  1
  O  O20  1  0.45744000  0.76685600  0.50215700  1
  O  O21  1  0.54256000  0.23314400  0.49784300  1
  O  O22  1  0.95744000  0.23314400  0.99784300  1
  O  O23  1  0.04256000  0.76685600  0.00215700  1
  O  O24  1  0.26622800  0.90128700  0.90844500  1
  O  O25  1  0.73377200  0.09871300  0.09155500  1
  O  O26  1  0.76622800  0.09871300  0.59155500  1
  O  O27  1  0.23377200  0.90128700  0.40844500  1
loop_
_geom_bond_atom_site_label_1
_geom_bond_atom_site_label_2
_geom_bond_distance
_geom_bond_site_symmetry_2
Co0 O8 1.770818 1_555
Co0 O9 1.770818 1_555
Co0 O19 1.773290 1_555
Co0 O18 1.773290 1_555
Co0 O20 1.786787 1_555
Co0 O21 1.786787 1_555
Co1 O11 1.770818 1_555
Co1 O10 1.770818 1_454
Co1 O16 1.773290 1_554
Co1 O17 1.773290 1_455
Co1 O22 1.786787 1_454
Co1 O23 1.786787 1_555
O0 S0 1.478835 1_555
O0 Rb1 3.006686 1_556
O1 S1 1.478835 1_555
O1 Rb0 3.006686 1_554
O2 S2 1.478835 1_555
O2 Rb3 3.006686 1_555
O3 S3 1.478835 1_555
O3 Rb2 3.006686 1_555
O4 S3 1.478753 1_555
O4 Rb2 3.251965 1_565
O4 Rb3 3.323185 1_455
O5 S2 1.478753 1_555
O5 Rb3 3.251965 1_545
O5 Rb2 3.323185 1_655
O6 S1 1.478753 1_556
O6 Rb0 3.251965 1_545
O6 Rb1 3.323185 1_556
O7 S0 1.478753 1_554
O7 Rb1 3.251965 1_565
O7 Rb0 3.323185 1_554
O8 Rb2 3.329310 1_555
O9 Rb3 3.329310 1_555
O10 Rb0 3.329310 1_555
O11 Rb1 3.329310 1_555
O12 S0 1.503687 1_555
O12 Rb0 2.981460 1_555
O13 S1 1.503687 1_555
O13 Rb1 2.981460 1_555
O14 S2 1.503687 1_555
O14 Rb2 2.981460 1_655
O15 S3 1.503687 1_555
O15 Rb3 2.981460 1_455
O16 Rb2 3.112781 1_555
O17 Rb3 3.112781 1_555
O18 Rb0 3.112781 1_555
O19 Rb1 3.112781 1_555
O24 S0 1.490660 1_555
O24 Rb2 2.929125 1_565
O24 Rb1 3.030663 1_566
O25 S1 1.490660 1_555
O25 Rb3 2.929125 1_545
O25 Rb0 3.030663 1_544
O26 S2 1.490660 1_555
O26 Rb0 2.929125 1_545
O26 Rb3 3.030663 1_545
O27 S3 1.490660 1_555
O27 Rb1 2.929125 1_565
O27 Rb2 3.030663 1_565
