# generated using pymatgen
data_Li9Mn2Co5O16
_symmetry_space_group_name_H-M   'P 1'
_cell_length_a   5.90516500
_cell_length_b   6.44407087
_cell_length_c   7.87907154
_cell_angle_alpha   87.56213715
_cell_angle_beta   104.37840562
_cell_angle_gamma   103.30686319
_symmetry_Int_Tables_number   1
_chemical_formula_structural   Li9Mn2Co5O16
_chemical_formula_sum   'Li9 Mn2 Co5 O16'
_cell_volume   282.60147856
_cell_formula_units_Z   1
loop_
 _symmetry_equiv_pos_site_id
 _symmetry_equiv_pos_as_xyz
  1  'x, y, z'
loop_
 _atom_site_type_symbol
 _atom_site_label
 _atom_site_symmetry_multiplicity
 _atom_site_fract_x
 _atom_site_fract_y
 _atom_site_fract_z
 _atom_site_occupancy
  Li  Li0  1  0.86715800  0.87915400  0.62626300  1
  Li  Li1  1  0.87400900  0.37498600  0.11495400  1
  Li  Li2  1  0.13037100  0.12716000  0.38119900  1
  Li  Li3  1  0.11706500  0.61066800  0.87506600  1
  Li  Li4  1  0.37867100  0.37117600  0.12013500  1
  Li  Li5  1  0.39389100  0.88808500  0.62736800  1
  Li  Li6  1  0.62159800  0.62090800  0.87346500  1
  Li  Li7  1  0.61472000  0.12725000  0.38646600  1
  Li  Li8  1  0.74858900  0.24749800  0.74908900  1
  Mn  Mn0  1  0.99915100  0.00301000  0.99553400  1
  Mn  Mn1  1  0.99626000  0.50110000  0.50421500  1
  Co  Co0  1  0.24702500  0.25123700  0.74950700  1
  Co  Co1  1  0.25036700  0.75104200  0.25155000  1
  Co  Co2  1  0.49937800  0.49765800  0.50309700  1
  Co  Co3  1  0.50355900  0.99976900  0.99345300  1
  Co  Co4  1  0.75237300  0.74942400  0.24863600  1
  O  O0  1  0.70473300  0.93537500  0.82351400  1
  O  O1  1  0.70643100  0.45191600  0.31402400  1
  O  O2  1  0.95967900  0.20780000  0.56623900  1
  O  O3  1  0.96119200  0.70168400  0.06784300  1
  O  O4  1  0.18811800  0.46139300  0.33485700  1
  O  O5  1  0.18651200  0.95574500  0.83122800  1
  O  O6  1  0.46114700  0.70805200  0.07150500  1
  O  O7  1  0.44001600  0.21000900  0.56102500  1
  O  O8  1  0.04217000  0.79818600  0.43064700  1
  O  O9  1  0.05839300  0.29385800  0.94585800  1
  O  O10  1  0.29862000  0.04356300  0.18292000  1
  O  O11  1  0.29085800  0.55216800  0.68493600  1
  O  O12  1  0.53540400  0.28902900  0.93059800  1
  O  O13  1  0.54440100  0.79435000  0.42913000  1
  O  O14  1  0.81339500  0.55491500  0.65978500  1
  O  O15  1  0.81474700  0.04183100  0.16589600  1
loop_
_geom_bond_atom_site_label_1
_geom_bond_atom_site_label_2
_geom_bond_distance
_geom_bond_site_symmetry_2
Li0 O14 2.055617 1_555
Li0 O0 2.101146 1_555
Li0 O13 2.113345 1_555
Li0 O2 2.125512 1_565
Li0 O5 2.129505 1_655
Li0 O8 2.196261 1_655
Li1 O9 2.067769 1_654
Li1 O3 2.089132 1_555
Li1 O12 2.128599 1_554
Li1 O15 2.131489 1_555
Li1 O1 2.178994 1_555
Li1 O4 2.182449 1_655
Li2 O7 1.991040 1_555
Li2 O8 2.106993 1_545
Li2 O2 2.108803 1_455
Li2 O4 2.131992 1_555
Li2 O15 2.165913 1_455
Li2 O10 2.192445 1_555
Li3 O9 2.067018 1_555
Li3 O11 2.104565 1_555
Li3 O14 2.113405 1_455
Li3 O3 2.125315 1_456
Li3 O5 2.194890 1_555
Li3 O6 2.202638 1_556
Li4 O9 2.011311 1_554
Li4 O12 2.084766 1_554
Li4 O1 2.118046 1_555
Li4 O10 2.119686 1_555
Li4 O6 2.152170 1_555
Li4 O4 2.407628 1_555
Li5 O0 2.055307 1_555
Li5 O7 2.090295 1_565
Li5 O13 2.147390 1_555
Li5 O11 2.170019 1_555
Li5 O8 2.230585 1_555
Li5 O5 2.356269 1_555
Li6 O0 2.018056 1_555
Li6 O11 2.105728 1_555
Li6 O12 2.136899 1_555
Li6 O3 2.167932 1_556
Li6 O6 2.168314 1_556
Li6 O14 2.351123 1_555
Li7 O7 2.064150 1_555
Li7 O10 2.114367 1_555
Li7 O13 2.117867 1_545
Li7 O1 2.127583 1_555
Li7 O2 2.137306 1_555
Li7 O15 2.473591 1_555
Li8 O7 2.015232 1_555
Li8 O0 2.047373 1_545
Li8 O9 2.053994 1_655
Li8 O14 2.057218 1_555
Li8 O2 2.182863 1_555
Li8 O12 2.187120 1_555
Mn0 O9 1.868727 1_655
Mn0 O0 1.892291 1_545
Mn0 O5 1.973030 1_645
Mn0 O10 1.974534 1_656
Mn0 O3 1.978444 1_546
Mn0 O15 1.982429 1_556
Mn1 O2 1.908838 1_555
Mn1 O14 1.911730 1_555
Mn1 O11 1.925689 1_655
Mn1 O1 1.947349 1_555
Mn1 O8 1.954304 1_655
Mn1 O4 2.010712 1_655
Co0 O12 1.904470 1_555
Co0 O2 1.908275 1_455
Co0 O11 1.958780 1_555
Co0 O5 1.965932 1_545
Co0 O7 2.142027 1_555
Co0 O9 2.177720 1_555
Co1 O13 1.911531 1_555
Co1 O10 1.915586 1_565
Co1 O3 1.916720 1_455
Co1 O4 1.936393 1_555
Co1 O8 2.159884 1_555
Co1 O6 2.169675 1_555
Co2 O7 1.864274 1_555
Co2 O14 1.919795 1_555
Co2 O4 1.951593 1_555
Co2 O13 1.952916 1_555
Co2 O11 2.193260 1_555
Co2 O1 2.215624 1_555
Co3 O12 1.887201 1_565
Co3 O6 1.932914 1_556
Co3 O5 1.953784 1_555
Co3 O15 1.964275 1_566
Co3 O0 2.107239 1_555
Co3 O10 2.205235 1_566
Co4 O6 1.898666 1_555
Co4 O8 1.912018 1_655
Co4 O1 1.939202 1_555
Co4 O15 1.951019 1_565
Co4 O13 2.163472 1_555
Co4 O3 2.174545 1_555
