# generated using pymatgen
data_HfMg6Cr
_symmetry_space_group_name_H-M   'P 1'
_cell_length_a   4.94785500
_cell_length_b   6.24925700
_cell_length_c   11.04963600
_cell_angle_alpha   90.00000000
_cell_angle_beta   90.00000000
_cell_angle_gamma   90.00000000
_symmetry_Int_Tables_number   1
_chemical_formula_structural   HfMg6Cr
_chemical_formula_sum   'Hf2 Mg12 Cr2'
_cell_volume   341.65935827
_cell_formula_units_Z   2
loop_
 _symmetry_equiv_pos_site_id
 _symmetry_equiv_pos_as_xyz
  1  'x, y, z'
loop_
 _atom_site_type_symbol
 _atom_site_label
 _atom_site_symmetry_multiplicity
 _atom_site_fract_x
 _atom_site_fract_y
 _atom_site_fract_z
 _atom_site_occupancy
  Hf  Hf0  1  0.50000000  0.50000000  0.18048000  1
  Hf  Hf1  1  0.50000000  0.00000000  0.68048000  1
  Mg  Mg0  1  0.00000000  0.74529500  0.08175500  1
  Mg  Mg1  1  0.00000000  0.25470500  0.08175500  1
  Mg  Mg2  1  0.00000000  0.00000000  0.33276000  1
  Mg  Mg3  1  0.50000000  0.25724600  0.41992600  1
  Mg  Mg4  1  0.50000000  0.74275400  0.41992600  1
  Mg  Mg5  1  0.50000000  0.00000000  0.16430600  1
  Mg  Mg6  1  0.00000000  0.24529500  0.58175500  1
  Mg  Mg7  1  0.00000000  0.75470500  0.58175500  1
  Mg  Mg8  1  0.00000000  0.50000000  0.83276000  1
  Mg  Mg9  1  0.50000000  0.75724600  0.91992600  1
  Mg  Mg10  1  0.50000000  0.24275400  0.91992600  1
  Mg  Mg11  1  0.50000000  0.50000000  0.66430600  1
  Cr  Cr0  1  0.00000000  0.50000000  0.31909200  1
  Cr  Cr1  1  0.00000000  0.00000000  0.81909200  1
loop_
_geom_bond_atom_site_label_1
_geom_bond_atom_site_label_2
_geom_bond_distance
_geom_bond_site_symmetry_2
Hf0 Mg4 3.049852 1_555
Hf0 Mg3 3.049852 1_555
Hf0 Mg0 3.108077 1_555
Hf0 Mg0 3.108077 1_655
Hf0 Mg1 3.108077 1_555
Hf0 Mg1 3.108077 1_655
Hf0 Mg5 3.129735 1_565
Hf0 Mg5 3.129735 1_555
Hf0 Mg9 3.297448 1_554
Hf0 Mg10 3.297448 1_554
Hf1 Mg9 3.049852 1_545
Hf1 Mg10 3.049852 1_555
Hf1 Mg6 3.108077 1_655
Hf1 Mg6 3.108077 1_555
Hf1 Mg7 3.108077 1_645
Hf1 Mg7 3.108077 1_545
Hf1 Mg11 3.129735 1_555
Hf1 Mg11 3.129735 1_545
Hf1 Mg3 3.297448 1_555
Hf1 Mg4 3.297448 1_545
Mg0 Mg9 3.053421 1_554
Mg0 Mg9 3.053421 1_454
Mg0 Mg1 3.065823 1_555
Mg0 Mg5 3.079921 1_565
Mg0 Mg5 3.079921 1_465
Mg0 Mg8 3.149523 1_554
Mg0 Mg1 3.183434 1_565
Mg0 Mg2 3.197803 1_565
Mg1 Mg10 3.053421 1_454
Mg1 Mg10 3.053421 1_554
Mg1 Mg5 3.079921 1_455
Mg1 Mg5 3.079921 1_555
Mg1 Mg8 3.149523 1_554
Mg1 Mg2 3.197803 1_555
Mg2 Mg5 3.095959 1_455
Mg2 Mg5 3.095959 1_555
Mg2 Mg3 3.103602 1_455
Mg2 Mg3 3.103602 1_555
Mg2 Mg4 3.103602 1_545
Mg2 Mg4 3.103602 1_445
Mg2 Mg6 3.149523 1_555
Mg2 Mg7 3.149523 1_545
Mg3 Mg4 3.034064 1_555
Mg3 Mg6 3.053421 1_655
Mg3 Mg6 3.053421 1_555
Mg3 Mg4 3.215193 1_545
Mg3 Mg5 3.249956 1_555
Mg4 Mg7 3.053421 1_555
Mg4 Mg7 3.053421 1_655
Mg4 Mg5 3.249956 1_565
Mg5 Mg9 3.097267 1_544
Mg6 Mg7 3.065823 1_545
Mg6 Mg7 3.183434 1_555
Mg6 Mg8 3.197803 1_555
Mg7 Mg8 3.197803 1_555
Mg8 Mg9 3.103602 1_555
Mg8 Mg9 3.103602 1_455
Mg10 Mg9 3.034064 1_545
Mg10 Mg5 3.097267 1_556
Mg10 Mg8 3.103602 1_555
Mg10 Mg8 3.103602 1_655
Mg10 Mg9 3.215193 1_555
Mg10 Mg11 3.249956 1_555
Mg11 Mg7 3.079921 1_655
Mg11 Mg7 3.079921 1_555
Mg11 Mg6 3.079921 1_655
Mg11 Mg6 3.079921 1_555
Mg11 Mg8 3.095959 1_555
Mg11 Mg8 3.095959 1_655
Mg11 Mg4 3.097267 1_555
Mg11 Mg3 3.097267 1_555
Mg11 Mg9 3.249956 1_555
Cr0 Hf0 2.909665 1_555
Cr0 Hf0 2.909665 1_455
Cr0 Mg0 3.037640 1_555
Cr0 Mg1 3.037640 1_555
Cr0 Mg4 3.108552 1_555
Cr0 Mg4 3.108552 1_455
Cr0 Mg3 3.108552 1_455
Cr0 Mg3 3.108552 1_555
Cr0 Mg2 3.128276 1_555
Cr0 Mg2 3.128276 1_565
Cr0 Mg7 3.310149 1_555
Cr0 Mg6 3.310149 1_555
Cr1 Hf1 2.909665 1_455
Cr1 Hf1 2.909665 1_555
Cr1 Mg6 3.037640 1_555
Cr1 Mg7 3.037640 1_545
Cr1 Mg9 3.108552 1_545
Cr1 Mg10 3.108552 1_555
Cr1 Mg10 3.108552 1_455
Cr1 Mg9 3.108552 1_445
Cr1 Mg8 3.128276 1_545
Cr1 Mg8 3.128276 1_555
Cr1 Mg1 3.310149 1_556
Cr1 Mg0 3.310149 1_546
