# generated using pymatgen
data_PrMgCr2O6
_symmetry_space_group_name_H-M   'P 1'
_cell_length_a   5.28559100
_cell_length_b   5.43502300
_cell_length_c   7.71840100
_cell_angle_alpha   90.00000000
_cell_angle_beta   90.00000000
_cell_angle_gamma   90.00000000
_symmetry_Int_Tables_number   1
_chemical_formula_structural   PrMgCr2O6
_chemical_formula_sum   'Pr2 Mg2 Cr4 O12'
_cell_volume   221.72888784
_cell_formula_units_Z   2
loop_
 _symmetry_equiv_pos_site_id
 _symmetry_equiv_pos_as_xyz
  1  'x, y, z'
loop_
 _atom_site_type_symbol
 _atom_site_label
 _atom_site_symmetry_multiplicity
 _atom_site_fract_x
 _atom_site_fract_y
 _atom_site_fract_z
 _atom_site_occupancy
  Pr  Pr0  1  0.00844500  0.70111000  0.00000000  1
  Pr  Pr1  1  0.50844500  0.29889000  0.50000000  1
  Mg  Mg0  1  0.48012700  0.19445800  0.00000000  1
  Mg  Mg1  1  0.98012700  0.80554200  0.50000000  1
  Cr  Cr0  1  0.99647400  0.24298100  0.74964600  1
  Cr  Cr1  1  0.99647400  0.24298100  0.25035400  1
  Cr  Cr2  1  0.49647400  0.75701900  0.24964600  1
  Cr  Cr3  1  0.49647400  0.75701900  0.75035400  1
  O  O0  1  0.08351300  0.19445100  0.50000000  1
  O  O1  1  0.21193500  0.97490200  0.80690200  1
  O  O2  1  0.21193500  0.97490200  0.19309800  1
  O  O3  1  0.31822800  0.44974300  0.19337200  1
  O  O4  1  0.31822800  0.44974300  0.80662800  1
  O  O5  1  0.37225700  0.72604700  0.50000000  1
  O  O6  1  0.58351300  0.80554900  0.00000000  1
  O  O7  1  0.71193500  0.02509800  0.69309800  1
  O  O8  1  0.71193500  0.02509800  0.30690200  1
  O  O9  1  0.81822800  0.55025700  0.69337200  1
  O  O10  1  0.81822800  0.55025700  0.30662800  1
  O  O11  1  0.87225700  0.27395300  0.00000000  1
loop_
_geom_bond_atom_site_label_1
_geom_bond_atom_site_label_2
_geom_bond_distance
_geom_bond_site_symmetry_2
Mg0 O11 2.117193 1_555
Mg0 O6 2.183224 1_545
Mg0 O4 2.210204 1_554
Mg0 O3 2.210204 1_555
Mg0 O2 2.377965 1_545
Mg0 O1 2.377965 1_544
Mg1 O5 2.117193 1_655
Mg1 O0 2.183224 1_665
Mg1 O10 2.210204 1_555
Mg1 O9 2.210204 1_555
Mg1 O7 2.377965 1_565
Mg1 O8 2.377965 1_565
Cr0 O1 1.901354 1_645
Cr0 O7 1.963342 1_555
Cr0 O9 1.966049 1_555
Cr0 O0 1.998509 1_655
Cr0 O11 2.047759 1_556
Cr0 O4 2.085307 1_655
Cr1 O2 1.901354 1_645
Cr1 O8 1.963342 1_555
Cr1 O10 1.966049 1_555
Cr1 O0 1.998509 1_655
Cr1 O11 2.047759 1_555
Cr1 O3 2.085307 1_655
Cr2 O8 1.901354 1_565
Cr2 O2 1.963342 1_555
Cr2 O3 1.966049 1_555
Cr2 O6 1.998509 1_555
Cr2 O5 2.047759 1_555
Cr2 O10 2.085307 1_555
Cr3 O7 1.901354 1_565
Cr3 O1 1.963342 1_555
Cr3 O4 1.966049 1_555
Cr3 O6 1.998509 1_556
Cr3 O5 2.047759 1_555
Cr3 O9 2.085307 1_555
O0 Pr1 2.316634 1_555
O1 Pr0 2.364846 1_556
O2 Pr0 2.364846 1_555
O3 Pr0 2.602906 1_555
O3 Pr1 2.698931 1_555
O4 Pr0 2.602906 1_556
O4 Pr1 2.698931 1_555
O5 Pr1 2.430643 1_555
O6 Pr0 2.316634 1_655
O7 Pr1 2.364846 1_555
O8 Pr1 2.364846 1_555
O9 Pr1 2.602906 1_555
O9 Pr0 2.698931 1_656
O10 Pr1 2.602906 1_555
O10 Pr0 2.698931 1_655
O11 Pr0 2.430643 1_655
