# generated using pymatgen
data_La6Mg(GeS7)2
_symmetry_space_group_name_H-M   'P 1'
_cell_length_a   10.41816924
_cell_length_b   10.41816924
_cell_length_c   5.83830200
_cell_angle_alpha   90.00000000
_cell_angle_beta   90.00000000
_cell_angle_gamma   119.99999516
_symmetry_Int_Tables_number   1
_chemical_formula_structural   La6Mg(GeS7)2
_chemical_formula_sum   'La6 Mg1 Ge2 S14'
_cell_volume   548.78221097
_cell_formula_units_Z   1
loop_
 _symmetry_equiv_pos_site_id
 _symmetry_equiv_pos_as_xyz
  1  'x, y, z'
loop_
 _atom_site_type_symbol
 _atom_site_label
 _atom_site_symmetry_multiplicity
 _atom_site_fract_x
 _atom_site_fract_y
 _atom_site_fract_z
 _atom_site_occupancy
  La  La0  1  0.56481800  0.02332800  0.24852700  1
  La  La1  1  0.97667200  0.54149000  0.24852700  1
  La  La2  1  0.45851000  0.43518200  0.24852700  1
  La  La3  1  0.10215500  0.31038100  0.75104400  1
  La  La4  1  0.68961900  0.79177500  0.75104400  1
  La  La5  1  0.20822500  0.89784500  0.75104400  1
  Mg  Mg0  1  0.33333300  0.66666700  0.48609600  1
  Ge  Ge0  1  0.66666700  0.33333300  0.83204300  1
  Ge  Ge1  1  0.00000000  0.00000000  0.33407400  1
  S  S0  1  0.44100600  0.18672700  0.98313800  1
  S  S1  1  0.81327300  0.25427900  0.98313800  1
  S  S2  1  0.74572100  0.55899400  0.98313800  1
  S  S3  1  0.22561800  0.14612200  0.48456400  1
  S  S4  1  0.85387800  0.07949600  0.48456400  1
  S  S5  1  0.92050400  0.77438200  0.48456400  1
  S  S6  1  0.66666700  0.33333300  0.45601000  1
  S  S7  1  0.00000000  0.00000000  0.95726200  1
  S  S8  1  0.49150400  0.91128600  0.72494000  1
  S  S9  1  0.08871400  0.58021700  0.72494000  1
  S  S10  1  0.41978300  0.50849600  0.72494000  1
  S  S11  1  0.17374600  0.42250600  0.24525800  1
  S  S12  1  0.57749400  0.75123900  0.24525800  1
  S  S13  1  0.24876100  0.82625400  0.24525800  1
loop_
_geom_bond_atom_site_label_1
_geom_bond_atom_site_label_2
_geom_bond_distance
_geom_bond_site_symmetry_2
La0 S13 2.880524 1_545
La0 S12 2.903016 1_545
La0 S1 2.943125 1_554
La0 S8 2.964924 1_545
La0 S0 3.026257 1_554
La0 S4 3.090021 1_555
La0 S6 3.097929 1_555
La0 S8 3.224708 1_544
La1 S11 2.880532 1_655
La1 S13 2.903011 1_655
La1 S2 2.943125 1_554
La1 S9 2.964925 1_655
La1 S1 3.026257 1_554
La1 S5 3.090020 1_555
La1 S6 3.097931 1_555
La1 S9 3.224708 1_654
La2 S12 2.880522 1_555
La2 S11 2.903006 1_555
La2 S0 2.943125 1_554
La2 S10 2.964922 1_555
La2 S2 3.026257 1_554
La2 S3 3.090021 1_555
La2 S6 3.097938 1_555
La2 S10 3.224705 1_554
La3 S9 2.887788 1_555
La3 S10 2.898878 1_555
La3 S4 2.945353 1_455
La3 S3 3.033902 1_555
La3 S11 3.061853 1_556
La3 S1 3.078392 1_455
La3 S7 3.097895 1_555
La3 S11 3.125602 1_555
La4 S10 2.887799 1_555
La4 S8 2.898861 1_555
La4 S5 2.945357 1_555
La4 S4 3.033895 1_565
La4 S12 3.061852 1_556
La4 S2 3.078401 1_555
La4 S7 3.097894 1_665
La4 S12 3.125600 1_555
La5 S8 2.887809 1_555
La5 S9 2.898880 1_555
La5 S3 2.945349 1_565
La5 S5 3.033894 1_455
La5 S13 3.061858 1_556
La5 S0 3.078395 1_565
La5 S7 3.097886 1_565
La5 S13 3.125607 1_555
Mg0 S9 2.637255 1_555
Mg0 S8 2.637258 1_555
Mg0 S10 2.637271 1_555
Mg0 S13 2.642449 1_555
Mg0 S11 2.642463 1_555
Mg0 S12 2.642466 1_555
Ge0 S6 2.195394 1_555
Ge0 S1 2.246612 1_555
Ge0 S0 2.246619 1_555
Ge0 S2 2.246621 1_555
Ge1 S7 2.199942 1_554
Ge1 S4 2.244132 1_455
Ge1 S5 2.244133 1_445
Ge1 S3 2.244133 1_555
