# generated using pymatgen
data_ScMn(BiO3)2
_symmetry_space_group_name_H-M   'P 1'
_cell_length_a   5.67480549
_cell_length_b   10.04741940
_cell_length_c   10.06116173
_cell_angle_alpha   110.09615091
_cell_angle_beta   90.38031636
_cell_angle_gamma   92.14957188
_symmetry_Int_Tables_number   1
_chemical_formula_structural   ScMn(BiO3)2
_chemical_formula_sum   'Sc4 Mn4 Bi8 O24'
_cell_volume   538.23726819
_cell_formula_units_Z   4
loop_
 _symmetry_equiv_pos_site_id
 _symmetry_equiv_pos_as_xyz
  1  'x, y, z'
loop_
 _atom_site_type_symbol
 _atom_site_label
 _atom_site_symmetry_multiplicity
 _atom_site_fract_x
 _atom_site_fract_y
 _atom_site_fract_z
 _atom_site_occupancy
  Sc  Sc0  1  0.26432200  0.48579400  0.75005000  1
  Sc  Sc1  1  0.76441600  0.98576200  0.75001700  1
  Sc  Sc2  1  0.73571100  0.51421200  0.24996000  1
  Sc  Sc3  1  0.23560400  0.01427500  0.24999800  1
  Mn  Mn0  1  0.75023900  0.74999000  0.99994300  1
  Mn  Mn1  1  0.25010500  0.75020000  0.49991700  1
  Mn  Mn2  1  0.24981100  0.25006600  0.00004300  1
  Mn  Mn3  1  0.74983900  0.24988000  0.49993900  1
  Bi  Bi0  1  0.28524500  0.36303300  0.37788500  1
  Bi  Bi1  1  0.78524600  0.86293900  0.37777600  1
  Bi  Bi2  1  0.75152400  0.09989100  0.12215300  1
  Bi  Bi3  1  0.25171600  0.59993200  0.12213200  1
  Bi  Bi4  1  0.71475000  0.63705800  0.62216700  1
  Bi  Bi5  1  0.21477300  0.13712500  0.62226000  1
  Bi  Bi6  1  0.24846100  0.90004200  0.87777100  1
  Bi  Bi7  1  0.74828600  0.40002300  0.87781400  1
  O  O0  1  0.00535400  0.42369600  0.11987200  1
  O  O1  1  0.50532700  0.92368500  0.11991900  1
  O  O2  1  0.67165900  0.39939600  0.38024900  1
  O  O3  1  0.17166500  0.89941300  0.38023200  1
  O  O4  1  0.99468300  0.57628400  0.88014200  1
  O  O5  1  0.49468400  0.07629700  0.88010600  1
  O  O6  1  0.32835700  0.60060400  0.61976800  1
  O  O7  1  0.82836400  0.10057400  0.61977000  1
  O  O8  1  0.40853800  0.62267100  0.33709000  1
  O  O9  1  0.90840700  0.12267500  0.33712300  1
  O  O10  1  0.28083600  0.18852600  0.16292900  1
  O  O11  1  0.78098500  0.68848300  0.16286100  1
  O  O12  1  0.59140600  0.37726800  0.66286600  1
  O  O13  1  0.09154500  0.87727400  0.66282300  1
  O  O14  1  0.71913800  0.81150400  0.83717600  1
  O  O15  1  0.21900500  0.31151700  0.83722600  1
  O  O16  1  0.51247000  0.58826600  0.91690200  1
  O  O17  1  0.01237800  0.08822800  0.91688300  1
  O  O18  1  0.06969300  0.32946400  0.58316800  1
  O  O19  1  0.56970100  0.82946300  0.58309800  1
  O  O20  1  0.48757000  0.41168900  0.08308900  1
  O  O21  1  0.98764200  0.91170300  0.08310500  1
  O  O22  1  0.93029100  0.67054700  0.41686100  1
  O  O23  1  0.43025300  0.17055000  0.41691700  1
loop_
_geom_bond_atom_site_label_1
_geom_bond_atom_site_label_2
_geom_bond_distance
_geom_bond_site_symmetry_2
Mn0 O14 1.948036 1_555
Mn0 O11 1.949241 1_556
Mn0 O21 2.010383 1_556
Mn0 O16 2.011615 1_555
Mn0 O4 2.276254 1_555
Mn0 O1 2.278368 1_556
Mn1 O13 1.947786 1_555
Mn1 O8 1.948699 1_555
Mn1 O19 2.009335 1_555
Mn1 O22 2.010949 1_455
Mn1 O3 2.275812 1_555
Mn1 O6 2.280104 1_555
Mn2 O15 1.947967 1_554
Mn2 O10 1.949290 1_555
Mn2 O20 2.010936 1_555
Mn2 O17 2.011293 1_554
Mn2 O0 2.275913 1_555
Mn2 O5 2.278571 1_554
Mn3 O9 1.947753 1_555
Mn3 O12 1.948775 1_555
Mn3 O23 2.008995 1_555
Mn3 O18 2.011473 1_655
Mn3 O7 2.277817 1_555
Mn3 O2 2.278113 1_555
Bi0 O2 2.208113 1_555
Bi0 O10 2.267668 1_555
Bi0 O23 2.282228 1_555
Bi0 O18 2.521336 1_555
Bi0 O6 2.763406 1_555
Bi0 O8 2.840062 1_555
Bi1 O3 2.208232 1_655
Bi1 O11 2.267177 1_555
Bi1 O22 2.281715 1_555
Bi1 O19 2.521286 1_555
Bi1 O7 2.764418 1_565
Bi1 O9 2.840188 1_565
Bi2 O1 2.207602 1_545
Bi2 O9 2.267558 1_555
Bi2 O21 2.282861 1_545
Bi2 O17 2.521423 1_654
Bi2 O5 2.764300 1_554
Bi2 O10 2.835118 1_555
Bi3 O0 2.208329 1_555
Bi3 O8 2.267425 1_555
Bi3 O20 2.282376 1_555
Bi3 O16 2.520754 1_554
Bi3 O4 2.764253 1_454
Bi3 O11 2.835078 1_455
Bi4 O6 2.208091 1_555
Bi4 O14 2.267766 1_555
Bi4 O19 2.281770 1_555
Bi4 O22 2.521187 1_555
Bi4 O2 2.764116 1_555
Bi4 O12 2.841143 1_555
Bi5 O7 2.208254 1_455
Bi5 O15 2.267248 1_555
Bi5 O18 2.281335 1_555
Bi5 O23 2.521087 1_555
Bi5 O3 2.765046 1_545
Bi5 O13 2.840959 1_545
Bi6 O5 2.207799 1_565
Bi6 O13 2.267466 1_555
Bi6 O17 2.282652 1_565
Bi6 O21 2.521829 1_456
Bi6 O1 2.765121 1_556
Bi6 O14 2.834688 1_555
Bi7 O4 2.208459 1_555
Bi7 O12 2.267419 1_555
Bi7 O16 2.282194 1_555
Bi7 O20 2.520992 1_556
Bi7 O0 2.764877 1_656
Bi7 O15 2.834817 1_655
O0 Sc2 2.048067 1_455
O1 Sc3 2.048559 1_565
O2 Sc2 2.048249 1_555
O3 Sc3 2.048044 1_565
O4 Sc0 2.048004 1_655
O5 Sc1 2.048509 1_545
O6 Sc0 2.048128 1_555
O7 Sc1 2.047771 1_545
O8 Sc2 2.218115 1_555
O9 Sc3 2.217991 1_655
O10 Sc3 2.218495 1_555
O11 Sc2 2.218902 1_555
O12 Sc0 2.218068 1_555
O13 Sc1 2.218163 1_455
O14 Sc1 2.219186 1_555
O15 Sc0 2.219496 1_555
O16 Sc0 2.129150 1_555
O17 Sc1 2.128552 1_445
O18 Sc0 2.130511 1_555
O19 Sc1 2.130807 1_555
O20 Sc2 2.129339 1_555
O21 Sc3 2.128920 1_665
O22 Sc2 2.130500 1_555
O23 Sc3 2.130517 1_555
