# generated using pymatgen
data_Te2Mo3W(SeS2)2
_symmetry_space_group_name_H-M   'P 1'
_cell_length_a   3.30561426
_cell_length_b   3.30561426
_cell_length_c   37.60197800
_cell_angle_alpha   90.00000000
_cell_angle_beta   90.00000000
_cell_angle_gamma   120.00000522
_symmetry_Int_Tables_number   1
_chemical_formula_structural   Te2Mo3W(SeS2)2
_chemical_formula_sum   'Te2 Mo3 W1 Se2 S4'
_cell_volume   355.83252850
_cell_formula_units_Z   1
loop_
 _symmetry_equiv_pos_site_id
 _symmetry_equiv_pos_as_xyz
  1  'x, y, z'
loop_
 _atom_site_type_symbol
 _atom_site_label
 _atom_site_symmetry_multiplicity
 _atom_site_fract_x
 _atom_site_fract_y
 _atom_site_fract_z
 _atom_site_occupancy
  Te  Te0  1  0.00000000  0.00000000  0.33261500  1
  Te  Te1  1  0.00000000  0.00000000  0.23095100  1
  Mo  Mo0  1  0.00000000  0.00000000  0.09391100  1
  Mo  Mo1  1  0.33333300  0.66666700  0.28178800  1
  Mo  Mo2  1  0.33333300  0.66666700  0.65752700  1
  W  W0  1  0.00000000  0.00000000  0.46967100  1
  Se  Se0  1  0.00000000  0.00000000  0.70218500  1
  Se  Se1  1  0.00000000  0.00000000  0.61289200  1
  S  S0  1  0.33333300  0.66666700  0.05326800  1
  S  S1  1  0.33333300  0.66666700  0.42890400  1
  S  S2  1  0.33333300  0.66666700  0.13457700  1
  S  S3  1  0.33333300  0.66666700  0.51045600  1
loop_
_geom_bond_atom_site_label_1
_geom_bond_atom_site_label_2
_geom_bond_distance
_geom_bond_site_symmetry_2
Mo0 S0 2.444980 1_545
Mo0 S0 2.444982 1_555
Mo0 S0 2.444982 1_445
Mo0 S2 2.445520 1_545
Mo0 S2 2.445522 1_555
Mo0 S2 2.445522 1_445
Mo1 Te0 2.700930 1_565
Mo1 Te0 2.700932 1_665
Mo1 Te0 2.700932 1_555
Mo1 Te1 2.701196 1_565
Mo1 Te1 2.701198 1_665
Mo1 Te1 2.701198 1_555
Mo2 Se1 2.541508 1_565
Mo2 Se1 2.541510 1_555
Mo2 Se1 2.541510 1_665
Mo2 Se0 2.542079 1_565
Mo2 Se0 2.542081 1_555
Mo2 Se0 2.542081 1_665
S1 W0 2.447897 1_565
S1 W0 2.447899 1_665
S1 W0 2.447899 1_555
S3 W0 2.448321 1_565
S3 W0 2.448323 1_555
S3 W0 2.448323 1_665
