# generated using pymatgen
data_Mn3Pb3N5
_symmetry_space_group_name_H-M   'P 1'
_cell_length_a   5.67606007
_cell_length_b   7.46271747
_cell_length_c   8.30526047
_cell_angle_alpha   103.36373374
_cell_angle_beta   99.71001811
_cell_angle_gamma   96.42720417
_symmetry_Int_Tables_number   1
_chemical_formula_structural   Mn3Pb3N5
_chemical_formula_sum   'Mn6 Pb6 N10'
_cell_volume   333.16753250
_cell_formula_units_Z   2
loop_
 _symmetry_equiv_pos_site_id
 _symmetry_equiv_pos_as_xyz
  1  'x, y, z'
loop_
 _atom_site_type_symbol
 _atom_site_label
 _atom_site_symmetry_multiplicity
 _atom_site_fract_x
 _atom_site_fract_y
 _atom_site_fract_z
 _atom_site_occupancy
  Mn  Mn0  1  0.93461300  0.32286700  0.97118100  1
  Mn  Mn1  1  0.06538700  0.67713300  0.02881900  1
  Mn  Mn2  1  0.68329800  0.99069800  0.59687500  1
  Mn  Mn3  1  0.31670200  0.00930200  0.40312500  1
  Mn  Mn4  1  0.07926200  0.92577900  0.72341400  1
  Mn  Mn5  1  0.92073800  0.07422100  0.27658600  1
  Pb  Pb0  1  0.76073200  0.43696800  0.54227300  1
  Pb  Pb1  1  0.23926800  0.56303200  0.45772700  1
  Pb  Pb2  1  0.56889000  0.80533000  0.86493400  1
  Pb  Pb3  1  0.43111000  0.19467000  0.13506600  1
  Pb  Pb4  1  0.62215800  0.66819700  0.22802800  1
  Pb  Pb5  1  0.37784200  0.33180300  0.77197200  1
  N  N0  1  0.92298800  0.13748600  0.77547600  1
  N  N1  1  0.07701200  0.86251400  0.22452400  1
  N  N2  1  0.82343300  0.78731000  0.57346100  1
  N  N3  1  0.17656700  0.21269000  0.42653900  1
  N  N4  1  0.77163700  0.52349800  0.97043700  1
  N  N5  1  0.22836300  0.47650200  0.02956300  1
  N  N6  1  0.34612200  0.94962200  0.60755800  1
  N  N7  1  0.65387800  0.05037800  0.39244200  1
  N  N8  1  0.11853200  0.80965600  0.88722700  1
  N  N9  1  0.88146800  0.19034400  0.11277300  1
loop_
_geom_bond_atom_site_label_1
_geom_bond_atom_site_label_2
_geom_bond_distance
_geom_bond_site_symmetry_2
Mn0 N9 1.744260 1_556
Mn0 N5 1.836299 1_656
Mn0 N4 1.846613 1_555
Mn0 N0 1.861200 1_555
Mn1 N8 1.744260 1_554
Mn1 N4 1.836299 1_454
Mn1 N5 1.846613 1_555
Mn1 N1 1.861200 1_555
Mn2 N2 1.777731 1_555
Mn2 N7 1.838362 1_565
Mn2 N0 1.866993 1_565
Mn2 N6 1.924343 1_555
Mn3 N3 1.777731 1_555
Mn3 N6 1.838362 1_545
Mn3 N1 1.866993 1_545
Mn3 N7 1.924343 1_555
Mn4 N8 1.771332 1_555
Mn4 N2 1.785093 1_455
Mn4 N0 1.896633 1_465
Mn4 N6 1.939670 1_555
Mn5 N9 1.771332 1_555
Mn5 N3 1.785093 1_655
Mn5 N1 1.896633 1_645
Mn5 N7 1.939670 1_555
N0 Pb5 2.824176 1_655
N1 Pb4 2.824176 1_455
N2 Pb0 2.544978 1_555
N2 Pb4 2.795383 1_555
N3 Pb1 2.544978 1_555
N3 Pb5 2.795383 1_555
N4 Pb4 2.492449 1_556
N4 Pb5 2.590532 1_555
N4 Pb2 2.751249 1_555
N5 Pb5 2.492449 1_554
N5 Pb4 2.590532 1_555
N5 Pb3 2.751249 1_555
N6 Pb2 2.790105 1_555
N6 Pb1 2.816691 1_555
N6 Pb5 2.834312 1_565
N7 Pb3 2.790105 1_555
N7 Pb0 2.816691 1_555
N7 Pb4 2.834312 1_545
N8 Pb2 2.597142 1_555
N9 Pb3 2.597142 1_555
