# generated using pymatgen
data_Cs3Tb7Te12
_symmetry_space_group_name_H-M   'P 1'
_cell_length_a   4.46274458
_cell_length_b   13.65049737
_cell_length_c   28.49220559
_cell_angle_alpha   90.00000000
_cell_angle_beta   90.00000000
_cell_angle_gamma   90.00000000
_symmetry_Int_Tables_number   1
_chemical_formula_structural   Cs3Tb7Te12
_chemical_formula_sum   'Cs6 Tb14 Te24'
_cell_volume   1735.70764465
_cell_formula_units_Z   2
loop_
 _symmetry_equiv_pos_site_id
 _symmetry_equiv_pos_as_xyz
  1  'x, y, z'
loop_
 _atom_site_type_symbol
 _atom_site_label
 _atom_site_symmetry_multiplicity
 _atom_site_fract_x
 _atom_site_fract_y
 _atom_site_fract_z
 _atom_site_occupancy
  Cs  Cs0  1  0.50000000  0.02350957  0.37441460  1
  Cs  Cs1  1  0.50000000  0.47089123  0.63160656  1
  Cs  Cs2  1  0.00000000  0.52910877  0.13160656  1
  Cs  Cs3  1  -0.00000000  0.97649043  0.87441460  1
  Cs  Cs4  1  0.50000000  0.30155220  0.02411606  1
  Cs  Cs5  1  0.00000000  0.69844780  0.52411606  1
  Tb  Tb0  1  0.50000000  0.66506296  0.31599951  1
  Tb  Tb1  1  0.50000000  0.83832778  0.68432667  1
  Tb  Tb2  1  0.00000000  0.16167222  0.18432667  1
  Tb  Tb3  1  -0.00000000  0.33493704  0.81599951  1
  Tb  Tb4  1  0.50000000  0.25415032  0.50058419  1
  Tb  Tb5  1  -0.00000000  0.74584968  0.00058419  1
  Tb  Tb6  1  0.50000000  0.53452112  0.91319891  1
  Tb  Tb7  1  0.50000000  0.96021425  0.08529460  1
  Tb  Tb8  1  -0.00000000  0.03978575  0.58529460  1
  Tb  Tb9  1  0.00000000  0.46547888  0.41319891  1
  Tb  Tb10  1  0.50000000  0.33116429  0.28864860  1
  Tb  Tb11  1  0.50000000  0.16799643  0.71175052  1
  Tb  Tb12  1  0.00000000  0.83200357  0.21175052  1
  Tb  Tb13  1  0.00000000  0.66883571  0.78864860  1
  Te  Te0  1  0.50000000  0.62185710  0.42108227  1
  Te  Te1  1  0.50000000  0.88503256  0.57914744  1
  Te  Te2  1  -0.00000000  0.11496744  0.07914744  1
  Te  Te3  1  0.00000000  0.37814290  0.92108227  1
  Te  Te4  1  0.50000000  0.50378587  0.80179348  1
  Te  Te5  1  0.50000000  0.99566185  0.19756893  1
  Te  Te6  1  -0.00000000  0.00433815  0.69756893  1
  Te  Te7  1  0.00000000  0.49621413  0.30179348  1
  Te  Te8  1  0.50000000  0.31623248  0.17924841  1
  Te  Te9  1  0.50000000  0.18217631  0.81952268  1
  Te  Te10  1  -0.00000000  0.81782369  0.31952268  1
  Te  Te11  1  0.00000000  0.68376752  0.67924841  1
  Te  Te12  1  0.50000000  0.31168588  0.39646333  1
  Te  Te13  1  0.50000000  0.19210623  0.60405512  1
  Te  Te14  1  -0.00000000  0.80789377  0.10405512  1
  Te  Te15  1  -0.00000000  0.68831412  0.89646333  1
  Te  Te16  1  0.50000000  0.58869255  0.01792873  1
  Te  Te17  1  0.50000000  0.89933049  0.98291309  1
  Te  Te18  1  0.00000000  0.10066951  0.48291309  1
  Te  Te19  1  -0.00000000  0.41130745  0.51792873  1
  Te  Te20  1  0.50000000  0.68113175  0.20983039  1
  Te  Te21  1  0.50000000  0.81974851  0.79070589  1
  Te  Te22  1  0.00000000  0.18025149  0.29070589  1
  Te  Te23  1  -0.00000000  0.31886825  0.70983039  1
loop_
_geom_bond_atom_site_label_1
_geom_bond_atom_site_label_2
_geom_bond_distance
_geom_bond_site_symmetry_2
Cs0 Te22 3.904533 1_655
Cs0 Te22 3.904533 1_555
Cs0 Te10 3.912589 1_645
Cs0 Te10 3.912589 1_545
Cs0 Te18 3.955366 1_655
Cs0 Te18 3.955366 1_555
Cs0 Te12 3.983597 1_555
Cs1 Te23 3.775294 1_555
Cs1 Te23 3.775294 1_655
Cs1 Te13 3.885675 1_555
Cs1 Te11 3.907132 1_655
Cs1 Te11 3.907132 1_555
Cs1 Te19 4.016371 1_555
Cs1 Te19 4.016371 1_655
Cs2 Te20 3.775294 1_555
Cs2 Te20 3.775294 1_455
Cs2 Te14 3.885675 1_555
Cs2 Te8 3.907132 1_555
Cs2 Te8 3.907132 1_455
Cs2 Te16 4.016371 1_455
Cs2 Te16 4.016371 1_555
Cs3 Te21 3.904533 1_555
Cs3 Te21 3.904533 1_455
Cs3 Te9 3.912589 1_565
Cs3 Te9 3.912589 1_465
Cs3 Te17 3.955366 1_455
Cs3 Te17 3.955366 1_555
Cs3 Te15 3.983597 1_555
Cs4 Te2 3.731570 1_555
Cs4 Te2 3.731570 1_655
Cs4 Te3 3.832779 1_654
Cs4 Te3 3.832779 1_554
Cs4 Te16 3.923571 1_555
Cs4 Te8 4.424603 1_555
Cs5 Te1 3.731570 1_555
Cs5 Te1 3.731570 1_455
Cs5 Te0 3.832779 1_455
Cs5 Te0 3.832779 1_555
Cs5 Te19 3.923571 1_555
Cs5 Te11 4.424603 1_555
Tb0 Te20 3.032935 1_555
Tb0 Te0 3.051576 1_555
Tb0 Te10 3.055717 1_655
Tb0 Te10 3.055717 1_555
Tb0 Te7 3.233463 1_555
Tb0 Te7 3.233463 1_655
Tb1 Te21 3.041571 1_555
Tb1 Te1 3.063854 1_555
Tb1 Te11 3.074299 1_655
Tb1 Te11 3.074299 1_555
Tb1 Te6 3.202608 1_565
Tb1 Te6 3.202608 1_665
Tb2 Te22 3.041571 1_555
Tb2 Te2 3.063854 1_555
Tb2 Te8 3.074299 1_455
Tb2 Te8 3.074299 1_555
Tb2 Te5 3.202608 1_545
Tb2 Te5 3.202608 1_445
Tb3 Te23 3.032935 1_555
Tb3 Te3 3.051576 1_555
Tb3 Te9 3.055717 1_555
Tb3 Te9 3.055717 1_455
Tb3 Te4 3.233463 1_555
Tb3 Te4 3.233463 1_455
Tb4 Te13 3.067357 1_555
Tb4 Te12 3.068835 1_555
Tb4 Te18 3.101922 1_655
Tb4 Te18 3.101922 1_555
Tb4 Te19 3.134555 1_555
Tb4 Te19 3.134555 1_655
Tb5 Te14 3.067357 1_555
Tb5 Te15 3.068835 1_554
Tb5 Te17 3.101922 1_554
Tb5 Te17 3.101922 1_454
Tb5 Te16 3.134555 1_455
Tb5 Te16 3.134555 1_555
Tb6 Te16 3.074243 1_556
Tb6 Te3 3.096153 1_555
Tb6 Te3 3.096153 1_655
Tb6 Te15 3.100591 1_655
Tb6 Te15 3.100591 1_555
Tb6 Te4 3.201794 1_555
Tb7 Te17 3.033157 1_554
Tb7 Te2 3.077690 1_565
Tb7 Te2 3.077690 1_665
Tb7 Te14 3.096454 1_555
Tb7 Te14 3.096454 1_655
Tb7 Te5 3.235332 1_555
Tb8 Te18 3.033157 1_555
Tb8 Te1 3.077690 1_445
Tb8 Te1 3.077690 1_545
Tb8 Te13 3.096454 1_555
Tb8 Te13 3.096454 1_455
Tb8 Te6 3.235332 1_555
Tb9 Te19 3.074243 1_555
Tb9 Te0 3.096153 1_455
Tb9 Te0 3.096153 1_555
Tb9 Te12 3.100591 1_555
Tb9 Te12 3.100591 1_455
Tb9 Te7 3.201794 1_555
Tb10 Te22 3.037466 1_555
Tb10 Te22 3.037466 1_655
Tb10 Te12 3.083365 1_555
Tb10 Te8 3.123710 1_555
Tb10 Te7 3.193017 1_555
Tb10 Te7 3.193017 1_655
Tb11 Te23 3.037014 1_555
Tb11 Te23 3.037014 1_655
Tb11 Te9 3.076761 1_555
Tb11 Te13 3.086078 1_555
Tb11 Te6 3.183257 1_655
Tb11 Te6 3.183257 1_555
Tb12 Te20 3.037014 1_455
Tb12 Te20 3.037014 1_555
Tb12 Te10 3.076761 1_555
Tb12 Te14 3.086078 1_555
Tb12 Te5 3.183257 1_555
Tb12 Te5 3.183257 1_455
Tb13 Te21 3.037466 1_455
Tb13 Te21 3.037466 1_555
Tb13 Te15 3.083365 1_555
Tb13 Te11 3.123710 1_555
Tb13 Te4 3.193017 1_555
Tb13 Te4 3.193017 1_455
