# generated using pymatgen
data_Al5C2N6F17
_symmetry_space_group_name_H-M   'P 1'
_cell_length_a   3.65822400
_cell_length_b   9.61198400
_cell_length_c   12.20410620
_cell_angle_alpha   113.19123064
_cell_angle_beta   90.00000000
_cell_angle_gamma   90.00000000
_symmetry_Int_Tables_number   1
_chemical_formula_structural   Al5C2N6F17
_chemical_formula_sum   'Al5 C2 N6 F17'
_cell_volume   394.45481311
_cell_formula_units_Z   1
loop_
 _symmetry_equiv_pos_site_id
 _symmetry_equiv_pos_as_xyz
  1  'x, y, z'
loop_
 _atom_site_type_symbol
 _atom_site_label
 _atom_site_symmetry_multiplicity
 _atom_site_fract_x
 _atom_site_fract_y
 _atom_site_fract_z
 _atom_site_occupancy
  Al  Al0  1  0.00000000  0.10603800  0.84108400  1
  Al  Al1  1  0.00000000  0.89396200  0.15891600  1
  Al  Al2  1  0.00000000  0.73504600  0.84108400  1
  Al  Al3  1  0.00000000  0.26495400  0.15891600  1
  Al  Al4  1  0.00000000  0.50000000  0.00000000  1
  C  C0  1  0.50000000  0.26391000  0.52782100  1
  C  C1  1  0.50000000  0.73609000  0.47217900  1
  N  N0  1  0.50000000  0.35450500  0.46646300  1
  N  N1  1  0.50000000  0.64549500  0.53353700  1
  N  N2  1  0.50000000  0.11195800  0.46646300  1
  N  N3  1  0.50000000  0.88804200  0.53353700  1
  N  N4  1  0.50000000  0.32396300  0.64792700  1
  N  N5  1  0.50000000  0.67603700  0.35207300  1
  F  F0  1  0.50000000  0.10725000  0.84521900  1
  F  F1  1  0.50000000  0.89275000  0.15478100  1
  F  F2  1  0.50000000  0.73796900  0.84521900  1
  F  F3  1  0.50000000  0.26203100  0.15478100  1
  F  F4  1  0.00000000  0.07469300  0.68679100  1
  F  F5  1  0.00000000  0.92530700  0.31320900  1
  F  F6  1  0.00000000  0.61209700  0.68679100  1
  F  F7  1  0.00000000  0.38790300  0.31320900  1
  F  F8  1  0.00000000  0.31092600  0.88392700  1
  F  F9  1  0.00000000  0.68907400  0.11607300  1
  F  F10  1  0.00000000  0.57300100  0.88392700  1
  F  F11  1  0.00000000  0.42699900  0.11607300  1
  F  F12  1  0.00000000  0.14174200  0.00000000  1
  F  F13  1  0.00000000  0.85825800  0.00000000  1
  F  F14  1  0.00000000  0.90272500  0.80545100  1
  F  F15  1  0.00000000  0.09727500  0.19454900  1
  F  F16  1  0.50000000  0.50000000  0.00000000  1
loop_
_geom_bond_atom_site_label_1
_geom_bond_atom_site_label_2
_geom_bond_distance
_geom_bond_site_symmetry_2
Al0 F4 1.785964 1_555
Al0 F14 1.827248 1_545
Al0 F8 1.827796 1_555
Al0 F0 1.829719 1_455
Al0 F0 1.829719 1_555
Al0 F12 1.831650 1_556
Al1 F5 1.785964 1_555
Al1 F15 1.827248 1_565
Al1 F9 1.827796 1_555
Al1 F1 1.829719 1_555
Al1 F1 1.829719 1_455
Al1 F13 1.831650 1_555
Al2 F6 1.785966 1_555
Al2 F14 1.827239 1_555
Al2 F10 1.827796 1_555
Al2 F2 1.829719 1_555
Al2 F2 1.829719 1_455
Al2 F13 1.831650 1_556
Al3 F7 1.785966 1_555
Al3 F15 1.827239 1_555
Al3 F11 1.827796 1_555
Al3 F3 1.829719 1_455
Al3 F3 1.829719 1_555
Al3 F12 1.831650 1_555
Al4 F9 1.811598 1_555
Al4 F8 1.811598 1_554
Al4 F11 1.811598 1_555
Al4 F10 1.811598 1_554
Al4 F16 1.829112 1_455
Al4 F16 1.829112 1_555
C0 N4 1.347344 1_555
C0 N2 1.353724 1_555
C0 N0 1.353732 1_555
C1 N5 1.347344 1_555
C1 N3 1.353724 1_555
C1 N1 1.353732 1_555
