# generated using pymatgen
data_Sr3Ca5Fe4(CoO5)4
_symmetry_space_group_name_H-M   'P 1'
_cell_length_a   10.75103635
_cell_length_b   11.25786996
_cell_length_c   17.34691127
_cell_angle_alpha   109.14165915
_cell_angle_beta   108.21124389
_cell_angle_gamma   89.52104605
_symmetry_Int_Tables_number   1
_chemical_formula_structural   Sr3Ca5Fe4(CoO5)4
_chemical_formula_sum   'Sr12 Ca20 Fe16 Co16 O80'
_cell_volume   1873.73673460
_cell_formula_units_Z   4
loop_
 _symmetry_equiv_pos_site_id
 _symmetry_equiv_pos_as_xyz
  1  'x, y, z'
loop_
 _atom_site_type_symbol
 _atom_site_label
 _atom_site_symmetry_multiplicity
 _atom_site_fract_x
 _atom_site_fract_y
 _atom_site_fract_z
 _atom_site_occupancy
  Sr  Sr0  1  0.30872251  0.56389062  0.61072280  1
  Sr  Sr1  1  0.80725145  0.06102184  0.60920271  1
  Sr  Sr2  1  0.80640523  0.56543665  0.61129968  1
  Sr  Sr3  1  0.19552159  0.43283133  0.38529499  1
  Sr  Sr4  1  0.20060111  0.43857051  0.89588682  1
  Sr  Sr5  1  0.69471354  0.93068465  0.38513832  1
  Sr  Sr6  1  0.05990722  0.29399252  0.61024600  1
  Sr  Sr7  1  0.05619385  0.79866707  0.61091972  1
  Sr  Sr8  1  0.55713944  0.29701880  0.61143471  1
  Sr  Sr9  1  0.44951071  0.20499492  0.89286423  1
  Sr  Sr10  1  0.94426540  0.20086908  0.38561647  1
  Sr  Sr11  1  0.95081042  0.20688172  0.89391415  1
  Ca  Ca0  1  0.30428944  0.06614040  0.10584420  1
  Ca  Ca1  1  0.30327727  0.06971417  0.60680428  1
  Ca  Ca2  1  0.30281090  0.56926505  0.10676635  1
  Ca  Ca3  1  0.80098892  0.06612669  0.10414735  1
  Ca  Ca4  1  0.80331785  0.56837676  0.10586950  1
  Ca  Ca5  1  0.19530213  0.92896197  0.38968267  1
  Ca  Ca6  1  0.20051089  0.93507769  0.89942126  1
  Ca  Ca7  1  0.69102658  0.43170590  0.38813215  1
  Ca  Ca8  1  0.69899492  0.43591062  0.89707857  1
  Ca  Ca9  1  0.69844532  0.93504058  0.89686699  1
  Ca  Ca10  1  0.05480929  0.28710002  0.10570582  1
  Ca  Ca11  1  0.05181745  0.78868461  0.10474032  1
  Ca  Ca12  1  0.55132412  0.28639643  0.10594400  1
  Ca  Ca13  1  0.55260938  0.78811159  0.10413295  1
  Ca  Ca14  1  0.55605604  0.78934058  0.60867690  1
  Ca  Ca15  1  0.44416866  0.21033162  0.38913079  1
  Ca  Ca16  1  0.44384462  0.70708779  0.39019181  1
  Ca  Ca17  1  0.44968169  0.71555144  0.89865799  1
  Ca  Ca18  1  0.94259921  0.71171994  0.38929589  1
  Ca  Ca19  1  0.94865140  0.71500459  0.89909068  1
  Fe  Fe0  1  0.10589745  0.08429285  0.24491826  1
  Fe  Fe1  1  0.11299604  0.08764243  0.75445030  1
  Fe  Fe2  1  0.10267735  0.59290766  0.24655599  1
  Fe  Fe3  1  0.10949316  0.59825070  0.75536775  1
  Fe  Fe4  1  0.60015494  0.09093626  0.24622836  1
  Fe  Fe5  1  0.60345873  0.08879315  0.74975541  1
  Fe  Fe6  1  0.60250786  0.58711711  0.24625484  1
  Fe  Fe7  1  0.61042284  0.60008112  0.75722517  1
  Fe  Fe8  1  0.35457801  0.40895918  0.24498111  1
  Fe  Fe9  1  0.36373428  0.41358270  0.75541242  1
  Fe  Fe10  1  0.35180128  0.90679174  0.24817747  1
  Fe  Fe11  1  0.36220251  0.90797464  0.75224592  1
  Fe  Fe12  1  0.85102103  0.41190655  0.24707558  1
  Fe  Fe13  1  0.85762569  0.41599206  0.75609465  1
  Fe  Fe14  1  0.85462480  0.90452015  0.24249618  1
  Fe  Fe15  1  0.85467525  0.90566327  0.75329269  1
  Co  Co0  1  0.00877582  0.00027294  0.00353847  1
  Co  Co1  1  0.00590375  0.99770977  0.49727787  1
  Co  Co2  1  0.00709265  0.50268603  0.00356184  1
  Co  Co3  1  0.00001653  0.49907465  0.49391265  1
  Co  Co4  1  0.50857683  0.00100302  0.00337215  1
  Co  Co5  1  0.50248980  0.99826769  0.49759712  1
  Co  Co6  1  0.50865228  0.50298766  0.00363918  1
  Co  Co7  1  0.50206260  0.49737888  0.49339727  1
  Co  Co8  1  0.25966635  0.25184918  0.00526179  1
  Co  Co9  1  0.25292086  0.24543670  0.49288172  1
  Co  Co10  1  0.25833199  0.75249642  0.00356144  1
  Co  Co11  1  0.25541502  0.75043908  0.49904956  1
  Co  Co12  1  0.75922345  0.25318352  0.00539968  1
  Co  Co13  1  0.75191448  0.24901044  0.49670385  1
  Co  Co14  1  0.75726232  0.75068366  0.00109843  1
  Co  Co15  1  0.75057644  0.74476450  0.49379515  1
  O  O0  1  0.12602663  0.11458941  0.48583996  1
  O  O1  1  0.12754715  0.11759025  0.99226617  1
  O  O2  1  0.11576425  0.61755415  0.48866663  1
  O  O3  1  0.12458694  0.62542882  0.99303863  1
  O  O4  1  0.61471810  0.11383142  0.48684985  1
  O  O5  1  0.62835340  0.11931403  0.99160658  1
  O  O6  1  0.61689502  0.61465355  0.47871324  1
  O  O7  1  0.62429961  0.62000632  0.98815049  1
  O  O8  1  0.14056939  0.38209890  0.02105695  1
  O  O9  1  0.13780696  0.36889874  0.50580458  1
  O  O10  1  0.13797066  0.87848640  0.01528571  1
  O  O11  1  0.13107192  0.88359634  0.50462622  1
  O  O12  1  0.64396128  0.37745219  0.01609763  1
  O  O13  1  0.62635095  0.38311142  0.50361146  1
  O  O14  1  0.63836225  0.87960949  0.01535771  1
  O  O15  1  0.63382159  0.86502272  0.50638280  1
  O  O16  1  0.36651976  0.12135897  0.48528690  1
  O  O17  1  0.37448883  0.11602071  0.99078423  1
  O  O18  1  0.38085188  0.61626309  0.48936504  1
  O  O19  1  0.37797364  0.62439377  0.99263893  1
  O  O20  1  0.87987055  0.11225083  0.49100394  1
  O  O21  1  0.87101526  0.12306967  0.99264065  1
  O  O22  1  0.86486885  0.62254926  0.48459361  1
  O  O23  1  0.87150988  0.61845726  0.98589193  1
  O  O24  1  0.39188582  0.38737055  0.01940258  1
  O  O25  1  0.38430946  0.37852036  0.50685333  1
  O  O26  1  0.38830185  0.88543149  0.01549462  1
  O  O27  1  0.38828959  0.88800235  0.50935189  1
  O  O28  1  0.88630350  0.38737750  0.01645841  1
  O  O29  1  0.88476691  0.38740743  0.50385055  1
  O  O30  1  0.88851406  0.88678798  0.01572959  1
  O  O31  1  0.88399160  0.87660826  0.50557952  1
  O  O32  1  0.09514520  0.10358050  0.14088171  1
  O  O33  1  0.09353000  0.09206856  0.64325519  1
  O  O34  1  0.08559787  0.60838450  0.14059430  1
  O  O35  1  0.07867111  0.59689665  0.64190340  1
  O  O36  1  0.58691758  0.10563275  0.14057701  1
  O  O37  1  0.58437313  0.09362273  0.63920519  1
  O  O38  1  0.59232081  0.60587856  0.14166215  1
  O  O39  1  0.58482117  0.60498255  0.64542396  1
  O  O40  1  0.44026619  0.39439961  0.35398075  1
  O  O41  1  0.45074223  0.40418254  0.86409250  1
  O  O42  1  0.43911164  0.89320416  0.35726886  1
  O  O43  1  0.45607510  0.89919234  0.86098287  1
  O  O44  1  0.94063514  0.40355050  0.35693293  1
  O  O45  1  0.94649382  0.40245598  0.86278043  1
  O  O46  1  0.94354315  0.89638303  0.35287123  1
  O  O47  1  0.94783914  0.89803697  0.86202975  1
  O  O48  1  0.34363298  0.28440978  0.14081007  1
  O  O49  1  0.33749505  0.29110088  0.64540841  1
  O  O50  1  0.33964567  0.78790891  0.14113002  1
  O  O51  1  0.33779597  0.79401836  0.64024212  1
  O  O52  1  0.84154064  0.28763423  0.14183869  1
  O  O53  1  0.83021984  0.30240880  0.64211407  1
  O  O54  1  0.83833476  0.78242111  0.13621159  1
  O  O55  1  0.82814632  0.79361787  0.64080300  1
  O  O56  1  0.19528933  0.20305766  0.35485989  1
  O  O57  1  0.19381660  0.20871716  0.86281254  1
  O  O58  1  0.19766785  0.70690501  0.35747630  1
  O  O59  1  0.20430171  0.71550274  0.86384860  1
  O  O60  1  0.68828819  0.20770165  0.35738107  1
  O  O61  1  0.68977945  0.21245532  0.85805661  1
  O  O62  1  0.69855819  0.70340804  0.35466716  1
  O  O63  1  0.70342350  0.71980538  0.86450725  1
  O  O64  1  0.42107148  0.06641532  0.24926732  1
  O  O65  1  0.42070214  0.06462326  0.74415788  1
  O  O66  1  0.42223686  0.57005185  0.24826799  1
  O  O67  1  0.43288778  0.57506701  0.75977071  1
  O  O68  1  0.92302597  0.06024182  0.23911681  1
  O  O69  1  0.93229514  0.05894619  0.75108585  1
  O  O70  1  0.92201916  0.57091792  0.24845985  1
  O  O71  1  0.93280961  0.57521404  0.76120862  1
  O  O72  1  0.17209201  0.43140588  0.23988559  1
  O  O73  1  0.18329176  0.44069059  0.75267904  1
  O  O74  1  0.17061866  0.92443667  0.24760673  1
  O  O75  1  0.18601216  0.93243136  0.76063229  1
  O  O76  1  0.66869613  0.42629300  0.24639695  1
  O  O77  1  0.67932309  0.44158149  0.75982776  1
  O  O78  1  0.67387486  0.93182387  0.24045966  1
  O  O79  1  0.67313539  0.93005741  0.75298570  1
loop_
_geom_bond_atom_site_label_1
_geom_bond_atom_site_label_2
_geom_bond_distance
_geom_bond_site_symmetry_2
Ca0 O48 2.337617 1_555
Ca0 O64 2.410150 1_555
Ca0 O26 2.484758 1_545
Ca0 O1 2.493572 1_554
Ca0 O10 2.501818 1_545
Ca0 O32 2.504646 1_555
Ca0 O17 2.559756 1_554
Ca0 O36 2.914800 1_555
Ca1 O65 2.341442 1_555
Ca1 O49 2.358461 1_555
Ca1 O33 2.515066 1_555
Ca1 O0 2.543525 1_555
Ca1 O11 2.556895 1_545
Ca1 O27 2.558221 1_545
Ca1 O16 2.636283 1_555
Ca1 O37 2.893783 1_555
Ca2 O50 2.340396 1_555
Ca2 O66 2.385329 1_555
Ca2 O8 2.465524 1_555
Ca2 O24 2.499241 1_555
Ca2 O3 2.529484 1_554
Ca2 O34 2.581011 1_555
Ca2 O19 2.602256 1_554
Ca2 O38 2.984014 1_555
Ca3 O68 2.321150 1_555
Ca3 O52 2.367881 1_555
Ca3 O14 2.468909 1_545
Ca3 O5 2.469372 1_554
Ca3 O30 2.480664 1_545
Ca3 O21 2.539830 1_554
Ca3 O36 2.569366 1_555
Ca4 O54 2.298886 1_555
Ca4 O70 2.393496 1_555
Ca4 O28 2.472969 1_555
Ca4 O12 2.485774 1_555
Ca4 O38 2.530213 1_555
Ca4 O7 2.552489 1_554
Ca4 O23 2.630032 1_554
Ca4 O34 2.911708 1_655
Ca5 O58 2.377835 1_555
Ca5 O74 2.378288 1_555
Ca5 O0 2.483673 1_565
Ca5 O11 2.499544 1_555
Ca5 O16 2.575476 1_565
Ca5 O46 2.578960 1_455
Ca5 O27 2.597396 1_555
Ca5 O42 2.846763 1_555
Ca6 O59 2.346623 1_555
Ca6 O75 2.353721 1_555
Ca6 O1 2.454297 1_565
Ca6 O17 2.500690 1_565
Ca6 O10 2.566951 1_556
Ca6 O26 2.573135 1_556
Ca6 O47 2.591163 1_455
Ca7 O76 2.374751 1_555
Ca7 O60 2.398784 1_555
Ca7 O6 2.445216 1_555
Ca7 O13 2.528101 1_555
Ca7 O29 2.577297 1_555
Ca7 O40 2.579321 1_555
Ca7 O22 2.581426 1_555
Ca7 O44 2.894113 1_555
Ca8 O77 2.345657 1_555
Ca8 O61 2.375273 1_555
Ca8 O7 2.460481 1_555
Ca8 O23 2.497643 1_555
Ca8 O41 2.550639 1_555
Ca8 O12 2.589777 1_556
Ca8 O28 2.599873 1_556
Ca8 O45 2.898599 1_555
Ca9 O63 2.305195 1_555
Ca9 O79 2.406370 1_555
Ca9 O5 2.466668 1_565
Ca9 O43 2.485798 1_555
Ca9 O21 2.552625 1_565
Ca9 O14 2.590243 1_556
Ca9 O30 2.608565 1_556
Ca9 O47 2.925201 1_555
Ca10 O72 2.316643 1_555
Ca10 O32 2.339936 1_555
Ca10 O8 2.458192 1_555
Ca10 O28 2.512399 1_455
Ca10 O21 2.534705 1_454
Ca10 O52 2.558454 1_455
Ca10 O1 2.568996 1_554
Ca10 O48 2.973610 1_555
Ca11 O34 2.305040 1_555
Ca11 O74 2.383097 1_555
Ca11 O30 2.465329 1_455
Ca11 O10 2.496159 1_555
Ca11 O3 2.516456 1_554
Ca11 O54 2.526242 1_455
Ca11 O23 2.579497 1_454
Ca11 O50 2.959123 1_555
Ca12 O36 2.300808 1_555
Ca12 O76 2.367275 1_555
Ca12 O24 2.441778 1_555
Ca12 O48 2.491174 1_555
Ca12 O17 2.541330 1_554
Ca12 O12 2.550858 1_555
Ca12 O5 2.590710 1_554
Ca12 O52 2.983926 1_555
Ca13 O38 2.345742 1_555
Ca13 O78 2.347084 1_555
Ca13 O26 2.461658 1_555
Ca13 O19 2.472482 1_554
Ca13 O14 2.495219 1_555
Ca13 O50 2.563897 1_555
Ca13 O7 2.582890 1_554
Ca13 O54 2.949854 1_555
Ca14 O39 2.354418 1_555
Ca14 O79 2.413228 1_555
Ca14 O15 2.550385 1_555
Ca14 O51 2.567270 1_555
Ca14 O18 2.570633 1_555
Ca14 O27 2.595131 1_555
Ca14 O6 2.714874 1_555
Ca14 O55 2.799249 1_555
Ca15 O40 2.340684 1_555
Ca15 O64 2.371783 1_555
Ca15 O25 2.536698 1_555
Ca15 O16 2.542140 1_555
Ca15 O56 2.548930 1_555
Ca15 O4 2.578254 1_555
Ca15 O13 2.581243 1_555
Ca15 O60 2.843222 1_555
Ca16 O42 2.341740 1_555
Ca16 O66 2.377564 1_555
Ca16 O6 2.476310 1_555
Ca16 O18 2.521338 1_555
Ca16 O58 2.527323 1_555
Ca16 O15 2.555933 1_555
Ca16 O27 2.601547 1_555
Ca16 O62 2.986075 1_555
Ca17 O67 2.360608 1_555
Ca17 O43 2.371194 1_555
Ca17 O19 2.490248 1_555
Ca17 O59 2.515604 1_555
Ca17 O7 2.516158 1_555
Ca17 O26 2.544338 1_556
Ca17 O14 2.582261 1_556
Ca17 O63 2.970870 1_555
Ca18 O46 2.363692 1_555
Ca18 O70 2.378761 1_555
Ca18 O31 2.496199 1_555
Ca18 O62 2.497100 1_555
Ca18 O22 2.530766 1_555
Ca18 O2 2.592437 1_655
Ca18 O11 2.616369 1_655
Ca18 O58 2.958301 1_655
Ca19 O71 2.346876 1_555
Ca19 O47 2.350367 1_555
Ca19 O23 2.450584 1_555
Ca19 O63 2.518728 1_555
Ca19 O3 2.523841 1_655
Ca19 O30 2.546074 1_556
Ca19 O10 2.580369 1_656
Ca19 O59 2.996799 1_655
Fe0 O32 1.855715 1_555
Fe0 O56 1.884702 1_555
Fe0 O74 1.933615 1_545
Fe0 O68 1.953506 1_455
Fe1 O57 1.861436 1_555
Fe1 O33 1.891414 1_555
Fe1 O75 1.930875 1_545
Fe1 O69 1.951717 1_455
Fe2 O34 1.855061 1_555
Fe2 O58 1.888518 1_555
Fe2 O72 1.941486 1_555
Fe2 O70 1.971866 1_455
Fe3 O59 1.875403 1_555
Fe3 O35 1.885951 1_555
Fe3 O73 1.929600 1_555
Fe3 O71 1.957424 1_455
Fe4 O36 1.855248 1_555
Fe4 O60 1.886859 1_555
Fe4 O78 1.937806 1_545
Fe4 O64 1.966662 1_555
Fe5 O37 1.882789 1_555
Fe5 O61 1.882943 1_555
Fe5 O79 1.942885 1_545
Fe5 O65 1.953550 1_555
Fe6 O38 1.864199 1_555
Fe6 O62 1.873808 1_555
Fe6 O76 1.940285 1_555
Fe6 O66 1.961451 1_555
Fe7 O63 1.869288 1_555
Fe7 O39 1.891130 1_555
Fe7 O77 1.935083 1_555
Fe7 O67 1.947859 1_555
Fe8 O48 1.858359 1_555
Fe8 O40 1.887504 1_555
Fe8 O66 1.936410 1_555
Fe8 O72 1.954161 1_555
Fe9 O41 1.862081 1_555
Fe9 O49 1.888569 1_555
Fe9 O67 1.939280 1_555
Fe9 O73 1.949580 1_555
Fe10 O50 1.864918 1_555
Fe10 O42 1.887546 1_555
Fe10 O64 1.943079 1_565
Fe10 O74 1.953623 1_555
Fe11 O43 1.875373 1_555
Fe11 O51 1.882006 1_555
Fe11 O65 1.939392 1_565
Fe11 O75 1.955077 1_555
Fe12 O52 1.873881 1_555
Fe12 O44 1.880737 1_555
Fe12 O70 1.941898 1_555
Fe12 O76 1.962193 1_555
Fe13 O45 1.854283 1_555
Fe13 O53 1.901412 1_555
Fe13 O71 1.936338 1_555
Fe13 O77 1.953960 1_555
Fe14 O54 1.859990 1_555
Fe14 O46 1.886192 1_555
Fe14 O68 1.932217 1_565
Fe14 O78 1.956061 1_555
Fe15 O47 1.868802 1_555
Fe15 O55 1.877271 1_555
Fe15 O69 1.939856 1_565
Fe15 O79 1.967294 1_555
Co0 O30 1.929866 1_445
Co0 O1 1.940809 1_554
Co0 O10 1.955776 1_545
Co0 O21 2.025480 1_454
Co0 O32 2.170064 1_555
Co0 O47 2.221309 1_444
Co1 O11 1.857091 1_555
Co1 O20 1.865815 1_465
Co1 O0 1.948937 1_565
Co1 O31 1.968233 1_455
Co1 O46 2.261608 1_455
Co1 O33 2.278114 1_565
Co2 O28 1.954941 1_455
Co2 O23 1.966816 1_454
Co2 O3 1.969042 1_554
Co2 O8 1.989908 1_555
Co2 O34 2.164861 1_555
Co2 O45 2.207328 1_454
Co3 O29 1.856620 1_455
Co3 O2 1.874583 1_555
Co3 O22 2.009064 1_455
Co3 O9 2.087038 1_555
Co3 O44 2.144236 1_455
Co3 O35 2.307141 1_555
Co4 O17 1.939062 1_554
Co4 O26 1.945927 1_545
Co4 O14 1.957290 1_545
Co4 O5 1.960904 1_554
Co4 O36 2.164872 1_555
Co4 O43 2.239649 1_544
Co5 O27 1.854163 1_555
Co5 O4 1.873255 1_565
Co5 O16 2.016901 1_565
Co5 O15 2.060829 1_555
Co5 O42 2.208489 1_555
Co5 O37 2.212771 1_565
Co6 O24 1.954524 1_555
Co6 O7 1.954958 1_554
Co6 O19 1.962061 1_554
Co6 O12 2.032149 1_555
Co6 O38 2.176208 1_555
Co6 O41 2.188248 1_554
Co7 O13 1.855938 1_555
Co7 O18 1.862686 1_555
Co7 O6 1.943320 1_555
Co7 O25 1.966091 1_555
Co7 O40 2.191840 1_555
Co7 O39 2.381219 1_555
Co8 O8 1.946557 1_555
Co8 O17 1.958469 1_554
Co8 O1 1.991291 1_554
Co8 O24 1.995346 1_555
Co8 O48 2.142814 1_555
Co8 O57 2.229013 1_554
Co9 O16 1.847024 1_555
Co9 O9 1.858515 1_555
Co9 O0 1.964033 1_555
Co9 O25 1.970293 1_555
Co9 O56 2.161608 1_555
Co9 O49 2.388246 1_555
Co10 O10 1.916312 1_555
Co10 O19 1.926745 1_554
Co10 O3 1.961203 1_554
Co10 O26 1.971304 1_555
Co10 O50 2.167019 1_555
Co10 O59 2.201544 1_554
Co11 O11 1.998966 1_555
Co11 O18 2.017357 1_555
Co11 O27 2.041310 1_555
Co11 O2 2.053401 1_555
Co11 O51 2.210729 1_555
Co11 O58 2.218023 1_555
Co12 O12 1.863255 1_555
Co12 O21 1.887689 1_554
Co12 O28 1.966310 1_555
Co12 O5 1.974011 1_554
Co12 O52 2.151717 1_555
Co12 O61 2.311908 1_554
Co13 O13 2.016000 1_555
Co13 O20 2.054855 1_555
Co13 O4 2.056733 1_555
Co13 O29 2.069494 1_555
Co13 O60 2.181766 1_555
Co13 O53 2.262616 1_555
Co14 O23 1.925767 1_554
Co14 O14 1.932110 1_555
Co14 O7 1.968739 1_554
Co14 O30 1.990132 1_555
Co14 O54 2.135386 1_555
Co14 O63 2.162419 1_554
Co15 O22 1.838121 1_555
Co15 O15 1.845330 1_555
Co15 O6 1.956640 1_555
Co15 O31 1.988863 1_555
Co15 O62 2.185873 1_555
Co15 O55 2.293411 1_555
O0 Sr10 2.595558 1_455
O0 Sr6 2.705205 1_555
O1 Sr11 2.568701 1_455
O2 Sr3 2.600216 1_555
O2 Sr7 2.656362 1_555
O2 Sr0 2.687751 1_555
O3 Sr4 2.537798 1_555
O4 Sr5 2.576228 1_545
O4 Sr8 2.683065 1_555
O4 Sr1 2.683988 1_555
O5 Sr9 2.560334 1_555
O6 Sr2 2.763307 1_555
O8 Sr11 2.705400 1_454
O8 Sr4 2.706178 1_554
O9 Sr6 2.580133 1_555
O9 Sr0 2.620067 1_555
O9 Sr10 2.650011 1_455
O9 Sr3 2.660462 1_555
O11 Sr7 2.656853 1_555
O12 Sr9 2.694871 1_554
O13 Sr2 2.596453 1_555
O13 Sr8 2.657498 1_555
O15 Sr1 2.633575 1_565
O15 Sr5 2.699413 1_555
O16 Sr8 2.706637 1_555
O17 Sr9 2.554367 1_555
O18 Sr3 2.620909 1_555
O18 Sr0 2.687526 1_555
O19 Sr4 2.567738 1_555
O20 Sr10 2.610644 1_555
O20 Sr5 2.614301 1_545
O20 Sr1 2.632457 1_555
O20 Sr6 2.645662 1_655
O21 Sr11 2.559456 1_555
O22 Sr7 2.713972 1_655
O22 Sr2 2.727006 1_555
O24 Sr4 2.681093 1_554
O24 Sr9 2.700121 1_554
O25 Sr8 2.557689 1_555
O25 Sr0 2.585123 1_555
O25 Sr3 2.662614 1_555
O28 Sr11 2.682156 1_554
O29 Sr2 2.589249 1_555
O29 Sr10 2.645520 1_555
O29 Sr6 2.669351 1_655
O31 Sr7 2.538972 1_655
O31 Sr1 2.583209 1_565
O31 Sr5 2.651925 1_555
O33 Sr6 2.517275 1_555
O33 Sr1 2.947899 1_455
O33 Sr7 3.170558 1_545
O35 Sr7 2.493453 1_555
O35 Sr0 2.690128 1_555
O35 Sr2 2.810366 1_455
O37 Sr8 2.486975 1_555
O37 Sr1 2.605135 1_555
O39 Sr2 2.629568 1_555
O39 Sr0 2.847971 1_555
O40 Sr3 2.850615 1_555
O41 Sr9 2.452829 1_555
O41 Sr4 2.907906 1_555
O42 Sr5 2.649230 1_555
O44 Sr10 2.487262 1_555
O44 Sr3 2.631726 1_655
O45 Sr11 2.429813 1_555
O45 Sr4 2.615967 1_655
O46 Sr5 2.897568 1_555
O49 Sr8 2.612704 1_555
O49 Sr6 2.855364 1_555
O51 Sr0 2.472926 1_555
O51 Sr7 2.911972 1_555
O53 Sr1 2.584063 1_555
O53 Sr6 2.688380 1_655
O53 Sr8 2.812756 1_555
O53 Sr2 3.171657 1_555
O55 Sr2 2.447150 1_555
O55 Sr7 2.664407 1_655
O56 Sr3 2.464494 1_555
O56 Sr10 2.911757 1_455
O57 Sr4 2.456386 1_555
O57 Sr9 2.635729 1_555
O57 Sr11 2.829531 1_455
O60 Sr10 2.645390 1_555
O61 Sr11 2.682916 1_555
O61 Sr9 2.838311 1_555
O62 Sr5 2.439823 1_555
O65 Sr9 2.466361 1_555
O67 Sr0 2.472832 1_555
O68 Sr10 2.453903 1_555
O69 Sr1 2.415486 1_555
O69 Sr11 2.437856 1_555
O71 Sr2 2.495440 1_555
O72 Sr3 2.450023 1_555
O73 Sr6 2.429782 1_555
O73 Sr4 2.440567 1_555
O75 Sr7 2.482963 1_555
O77 Sr8 2.485013 1_555
O78 Sr5 2.453305 1_555
