# generated using pymatgen
data_MgFe7(Ni3O8)2
_symmetry_space_group_name_H-M   'P 1'
_cell_length_a   6.02393261
_cell_length_b   6.02393261
_cell_length_c   10.41942614
_cell_angle_alpha   105.27481882
_cell_angle_beta   74.72518118
_cell_angle_gamma   119.34561322
_symmetry_Int_Tables_number   1
_chemical_formula_structural   MgFe7(Ni3O8)2
_chemical_formula_sum   'Mg1 Fe7 Ni6 O16'
_cell_volume   313.85342714
_cell_formula_units_Z   1
loop_
 _symmetry_equiv_pos_site_id
 _symmetry_equiv_pos_as_xyz
  1  'x, y, z'
loop_
 _atom_site_type_symbol
 _atom_site_label
 _atom_site_symmetry_multiplicity
 _atom_site_fract_x
 _atom_site_fract_y
 _atom_site_fract_z
 _atom_site_occupancy
  Mg  Mg0  1  0.81250000  0.18750000  0.06250000  1
  Fe  Fe0  1  0.31250000  0.68750000  0.06250000  1
  Fe  Fe1  1  0.06306749  0.93693251  0.82325035  1
  Fe  Fe2  1  0.56251532  0.93851331  0.31274239  1
  Fe  Fe3  1  0.06148669  0.43748468  0.31274239  1
  Fe  Fe4  1  0.56193251  0.43806749  0.30174965  1
  Fe  Fe5  1  0.56351331  0.93751532  0.81225761  1
  Fe  Fe6  1  0.06248468  0.43648669  0.81225761  1
  Ni  Ni0  1  0.06302633  0.93697367  0.29917617  1
  Ni  Ni1  1  0.31250000  0.68750000  0.56250000  1
  Ni  Ni2  1  0.81250000  0.68750000  0.56250000  1
  Ni  Ni3  1  0.31250000  0.18750000  0.56250000  1
  Ni  Ni4  1  0.81250000  0.18750000  0.56250000  1
  Ni  Ni5  1  0.56197367  0.43802633  0.82582383  1
  O  O0  1  0.41499090  0.58500910  0.21226670  1
  O  O1  1  0.18416102  0.81583898  0.44103731  1
  O  O2  1  0.68460396  0.82129419  0.44188108  1
  O  O3  1  0.17870581  0.31539604  0.44188108  1
  O  O4  1  0.94154623  0.55800670  0.19766948  1
  O  O5  1  0.44199330  0.05845377  0.19766948  1
  O  O6  1  0.68256871  0.31743129  0.44002641  1
  O  O7  1  0.91413434  0.08586566  0.21045744  1
  O  O8  1  0.21000910  0.78999090  0.91273330  1
  O  O9  1  0.44083898  0.55916102  0.68396269  1
  O  O10  1  0.68345377  0.81699330  0.92733052  1
  O  O11  1  0.18300670  0.31654623  0.92733052  1
  O  O12  1  0.94039604  0.55370581  0.68311892  1
  O  O13  1  0.44629419  0.05960396  0.68311892  1
  O  O14  1  0.94243129  0.05756871  0.68497359  1
  O  O15  1  0.71086566  0.28913434  0.91454256  1
loop_
_geom_bond_atom_site_label_1
_geom_bond_atom_site_label_2
_geom_bond_distance
_geom_bond_site_symmetry_2
Mg0 O15 2.118565 1_554
Mg0 O7 2.118565 1_555
Mg0 O11 2.188449 1_654
Mg0 O5 2.188449 1_555
Mg0 O4 2.188449 1_555
Mg0 O10 2.188449 1_544
Fe0 O8 2.141577 1_554
Fe0 O0 2.141577 1_555
Fe0 O10 2.190338 1_554
Fe0 O11 2.190338 1_554
Fe0 O4 2.190338 1_455
Fe0 O5 2.190338 1_565
Fe1 O8 2.018415 1_555
Fe1 O10 2.100985 1_455
Fe1 O11 2.100985 1_565
Fe1 O14 2.180127 1_465
Fe1 O13 2.264439 1_565
Fe1 O12 2.264439 1_455
Fe2 O7 1.968860 1_565
Fe2 O0 1.970062 1_555
Fe2 O5 1.978879 1_565
Fe2 O2 2.093095 1_555
Fe2 O6 2.187323 1_565
Fe2 O1 2.189069 1_555
Fe3 O7 1.968860 1_455
Fe3 O0 1.970062 1_555
Fe3 O4 1.978879 1_455
Fe3 O3 2.093095 1_555
Fe3 O6 2.187323 1_455
Fe3 O1 2.189069 1_555
Fe4 O0 2.018415 1_555
Fe4 O5 2.100985 1_555
Fe4 O4 2.100985 1_555
Fe4 O6 2.180127 1_555
Fe4 O3 2.264439 1_555
Fe4 O2 2.264439 1_555
Fe5 O15 1.968860 1_565
Fe5 O8 1.970062 1_555
Fe5 O10 1.978879 1_555
Fe5 O13 2.093095 1_565
Fe5 O14 2.187323 1_565
Fe5 O9 2.189069 1_555
Fe6 O15 1.968860 1_455
Fe6 O8 1.970062 1_555
Fe6 O11 1.978879 1_555
Fe6 O12 2.093095 1_455
Fe6 O14 2.187323 1_455
Fe6 O9 2.189069 1_555
Ni0 O7 2.031164 1_465
Ni0 O4 2.088978 1_455
Ni0 O5 2.088978 1_565
Ni0 O1 2.215463 1_555
Ni0 O3 2.257436 1_565
Ni0 O2 2.257436 1_455
Ni1 O1 2.100938 1_555
Ni1 O9 2.100938 1_555
Ni1 O13 2.128889 1_565
Ni1 O12 2.128889 1_455
Ni1 O3 2.128889 1_555
Ni1 O2 2.128889 1_555
Ni2 O12 2.115458 1_555
Ni2 O2 2.115458 1_555
Ni2 O6 2.127873 1_555
Ni2 O14 2.127873 1_565
Ni2 O1 2.130242 1_655
Ni2 O9 2.130242 1_555
Ni3 O13 2.115458 1_555
Ni3 O3 2.115458 1_555
Ni3 O14 2.127873 1_455
Ni3 O6 2.127873 1_555
Ni3 O9 2.130242 1_555
Ni3 O1 2.130242 1_545
Ni4 O12 2.103099 1_555
Ni4 O13 2.103099 1_555
Ni4 O2 2.103099 1_545
Ni4 O3 2.103099 1_655
Ni4 O6 2.122891 1_555
Ni4 O14 2.122891 1_555
Ni5 O15 2.031164 1_555
Ni5 O10 2.088978 1_555
Ni5 O11 2.088978 1_555
Ni5 O9 2.215463 1_555
Ni5 O12 2.257436 1_555
Ni5 O13 2.257436 1_555
