# generated using pymatgen
data_Y2Re3Si5
_symmetry_space_group_name_H-M   'P 1'
_cell_length_a   10.95064123
_cell_length_b   10.95064123
_cell_length_c   5.52198233
_cell_angle_alpha   90.00000000
_cell_angle_beta   90.00000000
_cell_angle_gamma   90.00000000
_symmetry_Int_Tables_number   1
_chemical_formula_structural   Y2Re3Si5
_chemical_formula_sum   'Y8 Re12 Si20'
_cell_volume   662.17703344
_cell_formula_units_Z   4
loop_
 _symmetry_equiv_pos_site_id
 _symmetry_equiv_pos_as_xyz
  1  'x, y, z'
loop_
 _atom_site_type_symbol
 _atom_site_label
 _atom_site_symmetry_multiplicity
 _atom_site_fract_x
 _atom_site_fract_y
 _atom_site_fract_z
 _atom_site_occupancy
  Y  Y0  1  0.57802731  0.73755221  0.50000000  1
  Y  Y1  1  0.42197269  0.26244779  0.50000000  1
  Y  Y2  1  0.07802731  0.76244779  -0.00000000  1
  Y  Y3  1  0.92197269  0.23755221  -0.00000000  1
  Y  Y4  1  0.26244779  0.57802731  0.50000000  1
  Y  Y5  1  0.73755221  0.42197269  0.50000000  1
  Y  Y6  1  0.23755221  0.07802731  -0.00000000  1
  Y  Y7  1  0.76244779  0.92197269  -0.00000000  1
  Re  Re0  1  0.87523622  0.85220416  0.50000000  1
  Re  Re1  1  0.12476378  0.14779584  0.50000000  1
  Re  Re2  1  0.37523622  0.64779584  -0.00000000  1
  Re  Re3  1  0.62476378  0.35220416  -0.00000000  1
  Re  Re4  1  0.14779584  0.87523622  0.50000000  1
  Re  Re5  1  0.85220416  0.12476378  0.50000000  1
  Re  Re6  1  0.35220416  0.37523622  -0.00000000  1
  Re  Re7  1  0.64779584  0.62476378  -0.00000000  1
  Re  Re8  1  0.50000000  0.00000000  0.25000000  1
  Re  Re9  1  0.00000000  0.50000000  0.75000000  1
  Re  Re10  1  0.00000000  0.50000000  0.25000000  1
  Re  Re11  1  0.50000000  0.00000000  0.75000000  1
  Si  Si0  1  0.67203079  0.17203079  0.25000000  1
  Si  Si1  1  0.32796921  0.82796921  0.25000000  1
  Si  Si2  1  0.17203079  0.32796921  0.75000000  1
  Si  Si3  1  0.82796921  0.67203079  0.75000000  1
  Si  Si4  1  0.82796921  0.67203079  0.25000000  1
  Si  Si5  1  0.17203079  0.32796921  0.25000000  1
  Si  Si6  1  0.67203079  0.17203079  0.75000000  1
  Si  Si7  1  0.32796921  0.82796921  0.75000000  1
  Si  Si8  1  0.50000000  0.50000000  0.25121033  1
  Si  Si9  1  0.00000000  0.00000000  0.75121033  1
  Si  Si10  1  0.50000000  0.50000000  0.74878967  1
  Si  Si11  1  0.00000000  0.00000000  0.24878967  1
  Si  Si12  1  0.68572791  0.97382890  0.50000000  1
  Si  Si13  1  0.31427209  0.02617110  0.50000000  1
  Si  Si14  1  0.18572791  0.52617110  -0.00000000  1
  Si  Si15  1  0.81427209  0.47382890  -0.00000000  1
  Si  Si16  1  0.02617110  0.68572791  0.50000000  1
  Si  Si17  1  0.97382890  0.31427209  0.50000000  1
  Si  Si18  1  0.47382890  0.18572791  -0.00000000  1
  Si  Si19  1  0.52617110  0.81427209  -0.00000000  1
loop_
_geom_bond_atom_site_label_1
_geom_bond_atom_site_label_2
_geom_bond_distance
_geom_bond_site_symmetry_2
Re0 Si16 2.460745 1_655
Re0 Si3 2.463020 1_555
Re0 Si4 2.463020 1_555
Re0 Si12 2.465864 1_555
Re0 Si9 2.531856 1_665
Re0 Si11 2.531856 1_665
Re0 Y7 3.119659 1_555
Re0 Y7 3.119659 1_556
Re1 Si17 2.460745 1_455
Re1 Si5 2.463020 1_555
Re1 Si2 2.463020 1_555
Re1 Si13 2.465864 1_555
Re1 Si11 2.531856 1_555
Re1 Si9 2.531856 1_555
Re1 Y6 3.119659 1_555
Re1 Y6 3.119659 1_556
Re2 Si19 2.460745 1_555
Re2 Si1 2.463020 1_555
Re2 Si7 2.463020 1_554
Re2 Si14 2.465864 1_555
Re2 Si8 2.531856 1_555
Re2 Si10 2.531856 1_554
Re2 Y4 3.119659 1_554
Re2 Y4 3.119659 1_555
Re3 Si18 2.460745 1_555
Re3 Si0 2.463020 1_555
Re3 Si6 2.463020 1_554
Re3 Si15 2.465864 1_555
Re3 Si8 2.531856 1_555
Re3 Si10 2.531856 1_554
Re3 Y5 3.119659 1_555
Re3 Y5 3.119659 1_554
Re4 Si13 2.460745 1_565
Re4 Si1 2.463020 1_555
Re4 Si7 2.463020 1_555
Re4 Si16 2.465864 1_555
Re4 Si9 2.531856 1_565
Re4 Si11 2.531856 1_565
Re4 Y2 3.119659 1_556
Re4 Y2 3.119659 1_555
Re5 Si12 2.460745 1_545
Re5 Si6 2.463020 1_555
Re5 Si0 2.463020 1_555
Re5 Si17 2.465864 1_555
Re5 Si11 2.531856 1_655
Re5 Si9 2.531856 1_655
Re5 Y3 3.119659 1_555
Re5 Y3 3.119659 1_556
Re6 Si14 2.460745 1_555
Re6 Si2 2.463020 1_554
Re6 Si5 2.463020 1_555
Re6 Si18 2.465864 1_555
Re6 Si8 2.531856 1_555
Re6 Si10 2.531856 1_554
Re6 Y1 3.119659 1_554
Re6 Y1 3.119659 1_555
Re7 Si15 2.460745 1_555
Re7 Si3 2.463020 1_554
Re7 Si4 2.463020 1_555
Re7 Si19 2.465864 1_555
Re7 Si8 2.531856 1_555
Re7 Si10 2.531856 1_554
Re7 Y0 3.119659 1_555
Re7 Y0 3.119659 1_554
Re8 Si12 2.474754 1_545
Re8 Si13 2.474754 1_555
Re8 Si19 2.474754 1_545
Re8 Si18 2.474754 1_555
Re8 Si0 2.664163 1_555
Re8 Si1 2.664163 1_545
Re8 Y0 3.300843 1_545
Re8 Y6 3.300843 1_555
Re8 Y7 3.300843 1_545
Re8 Y1 3.300843 1_555
Re9 Si15 2.474754 1_456
Re9 Si16 2.474754 1_555
Re9 Si14 2.474754 1_556
Re9 Si17 2.474754 1_455
Re9 Si2 2.664163 1_555
Re9 Si3 2.664163 1_455
Re9 Y5 3.300843 1_455
Re9 Y3 3.300843 1_456
Re9 Y4 3.300843 1_555
Re9 Y2 3.300843 1_556
Re10 Si15 2.474754 1_455
Re10 Si16 2.474754 1_555
Re10 Si17 2.474754 1_455
Re10 Si14 2.474754 1_555
Re10 Si5 2.664163 1_555
Re10 Si4 2.664163 1_455
Re10 Re9 2.760991 1_555
Re10 Re9 2.760991 1_554
Re10 Y5 3.300843 1_455
Re10 Y3 3.300843 1_455
Re10 Y4 3.300843 1_555
Re10 Y2 3.300843 1_555
Re11 Si12 2.474754 1_545
Re11 Si13 2.474754 1_555
Re11 Si18 2.474754 1_556
Re11 Si19 2.474754 1_546
Re11 Si6 2.664163 1_555
Re11 Si7 2.664163 1_545
Re11 Re8 2.760991 1_556
Re11 Re8 2.760991 1_555
Re11 Y6 3.300843 1_556
Re11 Y0 3.300843 1_545
Re11 Y7 3.300843 1_546
Re11 Y1 3.300843 1_555
Si0 Si18 2.576638 1_555
Si0 Si12 2.576638 1_545
Si0 Si6 2.760991 1_555
Si0 Si6 2.760991 1_554
Si0 Y5 3.148313 1_555
Si0 Y3 3.148313 1_555
Si0 Y7 3.222481 1_545
Si0 Y1 3.222481 1_555
Si1 Si19 2.576638 1_555
Si1 Si13 2.576638 1_565
Si1 Si7 2.760991 1_554
Si1 Si7 2.760991 1_555
Si1 Y2 3.148313 1_555
Si1 Y4 3.148313 1_555
Si1 Y6 3.222481 1_565
Si1 Y0 3.222481 1_555
Si2 Si5 2.760991 1_555
Si2 Si5 2.760991 1_556
Si2 Y1 3.148313 1_555
Si2 Y6 3.148313 1_556
Si2 Y4 3.222481 1_555
Si2 Y3 3.222481 1_456
Si3 Si4 2.760991 1_555
Si3 Si4 2.760991 1_556
Si3 Y7 3.148313 1_556
Si3 Y0 3.148313 1_555
Si3 Y2 3.222481 1_656
Si3 Y5 3.222481 1_555
Si4 Y7 3.148313 1_555
Si4 Y0 3.148313 1_555
Si4 Y5 3.222481 1_555
Si4 Y2 3.222481 1_655
Si5 Y1 3.148313 1_555
Si5 Y6 3.148313 1_555
Si5 Y4 3.222481 1_555
Si5 Y3 3.222481 1_455
Si6 Y5 3.148313 1_555
Si6 Y3 3.148313 1_556
Si6 Y7 3.222481 1_546
Si6 Y1 3.222481 1_555
Si7 Y2 3.148313 1_556
Si7 Y4 3.148313 1_555
Si7 Y0 3.222481 1_555
Si7 Y6 3.222481 1_566
Si8 Y1 3.063407 1_555
Si8 Y4 3.063407 1_555
Si8 Y0 3.063407 1_555
Si8 Y5 3.063407 1_555
Si9 Y7 3.063407 1_446
Si9 Y2 3.063407 1_546
Si9 Y3 3.063407 1_456
Si9 Y6 3.063407 1_556
Si10 Si8 2.747624 1_555
Si10 Si8 2.774358 1_556
Si10 Y1 3.063407 1_555
Si10 Y0 3.063407 1_555
Si10 Y4 3.063407 1_555
Si10 Y5 3.063407 1_555
Si11 Si9 2.747624 1_554
Si11 Si9 2.774358 1_555
Si11 Y7 3.063407 1_445
Si11 Y2 3.063407 1_545
Si11 Y3 3.063407 1_455
Si11 Y6 3.063407 1_555
Si12 Si6 2.576638 1_565
Si12 Y0 2.843502 1_555
Si12 Y7 2.941319 1_556
Si12 Y7 2.941319 1_555
Si13 Si7 2.576638 1_545
Si13 Y1 2.843502 1_555
Si13 Y6 2.941319 1_555
Si13 Y6 2.941319 1_556
Si14 Si2 2.576638 1_554
Si14 Si5 2.576638 1_555
Si14 Y2 2.843502 1_555
Si14 Y4 2.941319 1_554
Si14 Y4 2.941319 1_555
Si15 Si3 2.576638 1_554
Si15 Si4 2.576638 1_555
Si15 Y3 2.843502 1_555
Si15 Y5 2.941319 1_555
Si15 Y5 2.941319 1_554
Si16 Si3 2.576638 1_455
Si16 Si4 2.576638 1_455
Si16 Y4 2.843502 1_555
Si16 Y2 2.941319 1_556
Si16 Y2 2.941319 1_555
Si17 Si5 2.576638 1_655
Si17 Si2 2.576638 1_655
Si17 Y5 2.843502 1_555
Si17 Y3 2.941319 1_555
Si17 Y3 2.941319 1_556
Si18 Si6 2.576638 1_554
Si18 Y6 2.843502 1_555
Si18 Y1 2.941319 1_555
Si18 Y1 2.941319 1_554
Si19 Si7 2.576638 1_554
Si19 Y7 2.843502 1_555
Si19 Y0 2.941319 1_554
Si19 Y0 2.941319 1_555
