# generated using pymatgen
data_Te(S2O7)2
_symmetry_space_group_name_H-M   'P 1'
_cell_length_a   11.06674300
_cell_length_b   8.54593100
_cell_length_c   14.76893852
_cell_angle_alpha   90.00000000
_cell_angle_beta   124.59101101
_cell_angle_gamma   90.00000000
_symmetry_Int_Tables_number   1
_chemical_formula_structural   Te(S2O7)2
_chemical_formula_sum   'Te4 S16 O56'
_cell_volume   1149.86611271
_cell_formula_units_Z   4
loop_
 _symmetry_equiv_pos_site_id
 _symmetry_equiv_pos_as_xyz
  1  'x, y, z'
loop_
 _atom_site_type_symbol
 _atom_site_label
 _atom_site_symmetry_multiplicity
 _atom_site_fract_x
 _atom_site_fract_y
 _atom_site_fract_z
 _atom_site_occupancy
  Te  Te0  1  0.75029700  0.44499800  0.25585200  1
  Te  Te1  1  0.75029700  0.05500200  0.75585200  1
  Te  Te2  1  0.24970300  0.55500200  0.74414800  1
  Te  Te3  1  0.24970300  0.94499800  0.24414800  1
  S  S0  1  0.94182800  0.26060500  0.49873600  1
  S  S1  1  0.94182800  0.23939500  0.99873600  1
  S  S2  1  0.05817200  0.73939500  0.50126400  1
  S  S3  1  0.05817200  0.76060500  0.00126400  1
  S  S4  1  0.99891100  0.17427200  0.33718900  1
  S  S5  1  0.99891100  0.32572800  0.83718900  1
  S  S6  1  0.00108900  0.82572800  0.66281100  1
  S  S7  1  0.00108900  0.67427200  0.16281100  1
  S  S8  1  0.58898500  0.25021400  0.01477900  1
  S  S9  1  0.58898500  0.24978600  0.51477900  1
  S  S10  1  0.41101500  0.74978600  0.98522100  1
  S  S11  1  0.41101500  0.75021400  0.48522100  1
  S  S12  1  0.46593800  0.22774900  0.14552800  1
  S  S13  1  0.46593800  0.27225100  0.64552800  1
  S  S14  1  0.53406200  0.77225100  0.85447200  1
  S  S15  1  0.53406200  0.72774900  0.35447200  1
  O  O0  1  0.63924300  0.40131600  0.08343900  1
  O  O1  1  0.63924300  0.09868400  0.58343900  1
  O  O2  1  0.36075700  0.59868400  0.91656100  1
  O  O3  1  0.36075700  0.90131600  0.41656100  1
  O  O4  1  0.85486000  0.40156700  0.42402100  1
  O  O5  1  0.85486000  0.09843300  0.92402100  1
  O  O6  1  0.14514000  0.59843300  0.57597900  1
  O  O7  1  0.14514000  0.90156700  0.07597900  1
  O  O8  1  0.05801200  0.22661100  0.46145300  1
  O  O9  1  0.05801200  0.27338900  0.96145300  1
  O  O10  1  0.94198800  0.77338900  0.53854700  1
  O  O11  1  0.94198800  0.72661100  0.03854700  1
  O  O12  1  0.63134900  0.26453800  0.24824500  1
  O  O13  1  0.63134900  0.23546200  0.74824500  1
  O  O14  1  0.36865100  0.73546200  0.75175500  1
  O  O15  1  0.36865100  0.76453800  0.25175500  1
  O  O16  1  0.91812200  0.33298800  0.27130200  1
  O  O17  1  0.91812200  0.16701200  0.77130200  1
  O  O18  1  0.08187800  0.66701200  0.72869800  1
  O  O19  1  0.08187800  0.83298800  0.22869800  1
  O  O20  1  0.85449700  0.12501200  0.47556800  1
  O  O21  1  0.85449700  0.37498800  0.97556800  1
  O  O22  1  0.14550300  0.87498800  0.52443200  1
  O  O23  1  0.14550300  0.62501200  0.02443200  1
  O  O24  1  0.48031200  0.28464800  0.90157500  1
  O  O25  1  0.48031200  0.21535200  0.40157500  1
  O  O26  1  0.51968800  0.71535200  0.09842500  1
  O  O27  1  0.51968800  0.78464800  0.59842500  1
  O  O28  1  0.04067200  0.31499800  0.60948000  1
  O  O29  1  0.04067200  0.18500200  0.10948000  1
  O  O30  1  0.95932800  0.68500200  0.39052000  1
  O  O31  1  0.95932800  0.81499800  0.89052000  1
  O  O32  1  0.89516400  0.05077900  0.29912800  1
  O  O33  1  0.89516400  0.44922100  0.79912800  1
  O  O34  1  0.10483600  0.94922100  0.70087200  1
  O  O35  1  0.10483600  0.55077900  0.20087200  1
  O  O36  1  0.70538300  0.14336200  0.04628700  1
  O  O37  1  0.70538300  0.35663800  0.54628700  1
  O  O38  1  0.29461700  0.85663800  0.95371300  1
  O  O39  1  0.29461700  0.64336200  0.45371300  1
  O  O40  1  0.12914600  0.16482400  0.33899000  1
  O  O41  1  0.12914600  0.33517600  0.83899000  1
  O  O42  1  0.87085400  0.83517600  0.66101000  1
  O  O43  1  0.87085400  0.66482400  0.16101000  1
  O  O44  1  0.42046900  0.09587000  0.17907200  1
  O  O45  1  0.42046900  0.40413000  0.67907200  1
  O  O46  1  0.57953100  0.90413000  0.82092800  1
  O  O47  1  0.57953100  0.59587000  0.32092800  1
  O  O48  1  0.49262800  0.15674000  0.05828400  1
  O  O49  1  0.49262800  0.34326000  0.55828400  1
  O  O50  1  0.50737200  0.84326000  0.94171600  1
  O  O51  1  0.50737200  0.65674000  0.44171600  1
  O  O52  1  0.38390800  0.36941200  0.10775400  1
  O  O53  1  0.38390800  0.13058800  0.60775400  1
  O  O54  1  0.61609200  0.63058800  0.89224600  1
  O  O55  1  0.61609200  0.86941200  0.39224600  1
loop_
_geom_bond_atom_site_label_1
_geom_bond_atom_site_label_2
_geom_bond_distance
_geom_bond_site_symmetry_2
O0 S8 1.537762 1_555
O0 Te0 2.140195 1_555
O1 S9 1.537762 1_555
O1 Te1 2.140195 1_555
O2 S10 1.537762 1_555
O2 Te2 2.140195 1_555
O3 S11 1.537762 1_555
O3 Te3 2.140195 1_555
O4 S0 1.545726 1_555
O4 Te0 2.093368 1_555
O5 S1 1.545726 1_555
O5 Te1 2.093368 1_555
O6 S2 1.545726 1_555
O6 Te2 2.093368 1_555
O7 S3 1.545726 1_555
O7 Te3 2.093368 1_555
O8 S4 1.622673 1_455
O8 S0 1.686620 1_455
O9 S5 1.622673 1_455
O9 S1 1.686620 1_455
O10 S6 1.622673 1_655
O10 S2 1.686620 1_655
O11 S7 1.622673 1_655
O11 S3 1.686620 1_655
O12 S12 1.611851 1_555
O12 Te0 1.988945 1_555
O13 S13 1.611851 1_555
O13 Te1 1.988945 1_555
O14 S14 1.611851 1_555
O14 Te2 1.988945 1_555
O15 S15 1.611851 1_555
O15 Te3 1.988945 1_555
O16 S4 1.611887 1_555
O16 Te0 1.984097 1_555
O17 S5 1.611887 1_555
O17 Te1 1.984097 1_555
O18 S6 1.611887 1_555
O18 Te2 1.984097 1_555
O19 S7 1.611887 1_555
O19 Te3 1.984097 1_555
O20 S0 1.420706 1_555
O21 S1 1.420706 1_555
O22 S2 1.420706 1_555
O23 S3 1.420706 1_555
O24 S8 1.430105 1_556
O25 S9 1.430105 1_555
O26 S10 1.430105 1_554
O27 S11 1.430105 1_555
O28 S0 1.433989 1_455
O29 S1 1.433989 1_454
O30 S2 1.433989 1_655
O31 S3 1.433989 1_656
O32 S4 1.419577 1_555
O33 S5 1.419577 1_555
O34 S6 1.419577 1_555
O35 S7 1.419577 1_555
O36 S8 1.424465 1_555
O37 S9 1.424465 1_555
O38 S10 1.424465 1_555
O39 S11 1.424465 1_555
O40 S4 1.428628 1_455
O41 S5 1.428628 1_455
O42 S6 1.428628 1_655
O43 S7 1.428628 1_655
O44 S12 1.432437 1_555
O45 S13 1.432437 1_555
O46 S14 1.432437 1_555
O47 S15 1.432437 1_555
O48 S12 1.596202 1_555
O48 S8 1.722214 1_555
O49 S13 1.596202 1_555
O49 S9 1.722214 1_555
O50 S14 1.596202 1_555
O50 S10 1.722214 1_555
O51 S15 1.596202 1_555
O51 S11 1.722214 1_555
O52 S12 1.423363 1_555
O53 S13 1.423363 1_555
O54 S14 1.423363 1_555
O55 S15 1.423363 1_555
