# generated using pymatgen
data_Nd2Mo4O15
_symmetry_space_group_name_H-M   'P 1'
_cell_length_a   9.50162459
_cell_length_b   11.04742105
_cell_length_c   11.58896866
_cell_angle_alpha   104.21284195
_cell_angle_beta   109.78292179
_cell_angle_gamma   108.86940979
_symmetry_Int_Tables_number   1
_chemical_formula_structural   Nd2Mo4O15
_chemical_formula_sum   'Nd6 Mo12 O45'
_cell_volume   993.36111793
_cell_formula_units_Z   3
loop_
 _symmetry_equiv_pos_site_id
 _symmetry_equiv_pos_as_xyz
  1  'x, y, z'
loop_
 _atom_site_type_symbol
 _atom_site_label
 _atom_site_symmetry_multiplicity
 _atom_site_fract_x
 _atom_site_fract_y
 _atom_site_fract_z
 _atom_site_occupancy
  Nd  Nd0  1  0.33355617  0.65846847  0.79930953  1
  Nd  Nd1  1  0.66644383  0.34153153  0.20069047  1
  Nd  Nd2  1  0.23284119  0.22178391  0.17447109  1
  Nd  Nd3  1  0.76715881  0.77821609  0.82552891  1
  Nd  Nd4  1  0.78220031  0.94260588  0.40835440  1
  Nd  Nd5  1  0.21779969  0.05739412  0.59164560  1
  Mo  Mo0  1  0.46937836  0.56589617  0.13170677  1
  Mo  Mo1  1  0.53062164  0.43410383  0.86829323  1
  Mo  Mo2  1  0.26808903  0.98154370  0.92233848  1
  Mo  Mo3  1  0.73191097  0.01845630  0.07766152  1
  Mo  Mo4  1  0.09062082  0.53419611  0.18167507  1
  Mo  Mo5  1  0.90937918  0.46580389  0.81832493  1
  Mo  Mo6  1  0.08409641  0.31033397  0.44667922  1
  Mo  Mo7  1  0.91590359  0.68966603  0.55332078  1
  Mo  Mo8  1  0.93322482  0.13266821  0.79595567  1
  Mo  Mo9  1  0.06677518  0.86733179  0.20404433  1
  Mo  Mo10  1  0.41539943  0.77553941  0.51849007  1
  Mo  Mo11  1  0.58460057  0.22446059  0.48150993  1
  O  O0  1  0.44919503  0.42500790  0.18887769  1
  O  O1  1  0.55080497  0.57499210  0.81112231  1
  O  O2  1  0.32671216  0.61380207  0.16847344  1
  O  O3  1  0.67328784  0.38619793  0.83152656  1
  O  O4  1  0.38541533  0.14224614  0.06710089  1
  O  O5  1  0.61458467  0.85775386  0.93289911  1
  O  O6  1  0.05839808  0.92321830  0.89164785  1
  O  O7  1  0.94160192  0.07678170  0.10835215  1
  O  O8  1  0.33493544  0.85571328  0.94954222  1
  O  O9  1  0.66506456  0.14428672  0.05045778  1
  O  O10  1  0.40451663  0.55230912  0.95951603  1
  O  O11  1  0.59548337  0.44769088  0.04048397  1
  O  O12  1  0.08778029  0.50085939  0.79957179  1
  O  O13  1  0.91221971  0.49914061  0.20042821  1
  O  O14  1  0.18429837  0.46219525  0.59185573  1
  O  O15  1  0.10960776  0.38237546  0.16747797  1
  O  O16  1  0.22408302  0.30887411  0.37935743  1
  O  O17  1  0.89039224  0.61762454  0.83252203  1
  O  O18  1  0.41837764  0.16511059  0.51953649  1
  O  O19  1  0.58162236  0.83488941  0.48046351  1
  O  O20  1  0.33856382  0.28913748  0.75783265  1
  O  O21  1  0.66143618  0.71086252  0.24216735  1
  O  O22  1  0.28941204  0.01398767  0.78667345  1
  O  O23  1  0.71058796  0.98601233  0.21332655  1
  O  O24  1  0.96579593  0.84019444  0.51320955  1
  O  O25  1  0.03420407  0.15980556  0.48679045  1
  O  O26  1  0.03029695  0.93242271  0.34145123  1
  O  O27  1  0.96970305  0.06757729  0.65854877  1
  O  O28  1  0.65661533  0.09917907  0.45097784  1
  O  O29  1  0.34338467  0.90082093  0.54902216  1
  O  O30  1  0.52577987  0.26830113  0.34071077  1
  O  O31  1  0.47422013  0.73169887  0.65928923  1
  O  O32  1  0.75243831  0.38026672  0.62020238  1
  O  O33  1  0.24756169  0.61973328  0.37979762  1
  O  O34  1  -0.00000000  0.50000000  0.00000000  1
  O  O35  1  0.21734061  0.00716684  0.20075994  1
  O  O36  1  0.78265939  0.99283316  0.79924006  1
  O  O37  1  0.14776491  0.74476101  0.22451441  1
  O  O38  1  0.85223509  0.25523899  0.77548559  1
  O  O39  1  0.88281321  0.78788469  0.05385167  1
  O  O40  1  0.11718679  0.21211531  0.94614833  1
  O  O41  1  0.10235656  0.70091621  0.66763600  1
  O  O42  1  0.89764344  0.29908379  0.33236400  1
  O  O43  1  0.77591698  0.69112589  0.62064257  1
  O  O44  1  0.81570163  0.53780475  0.40814427  1
loop_
_geom_bond_atom_site_label_1
_geom_bond_atom_site_label_2
_geom_bond_distance
_geom_bond_site_symmetry_2
Nd0 O14 2.374032 1_555
Nd0 O12 2.421265 1_555
Nd0 O8 2.425444 1_555
Nd0 O10 2.451616 1_555
Nd0 O5 2.469690 1_555
Nd0 O41 2.474436 1_555
Nd0 O1 2.496436 1_555
Nd0 O31 2.547013 1_555
Nd1 O44 2.374032 1_555
Nd1 O13 2.421265 1_555
Nd1 O9 2.425444 1_555
Nd1 O11 2.451616 1_555
Nd1 O4 2.469690 1_555
Nd1 O42 2.474436 1_555
Nd1 O0 2.496436 1_555
Nd1 O30 2.547013 1_555
Nd2 O16 2.373653 1_555
Nd2 O15 2.423876 1_555
Nd2 O0 2.427476 1_555
Nd2 O35 2.428002 1_555
Nd2 O7 2.430128 1_455
Nd2 O4 2.435192 1_555
Nd2 O40 2.457124 1_554
Nd2 O30 2.584907 1_555
Nd3 O43 2.373653 1_555
Nd3 O17 2.423876 1_555
Nd3 O1 2.427476 1_555
Nd3 O36 2.428002 1_555
Nd3 O6 2.430128 1_655
Nd3 O5 2.435192 1_555
Nd3 O39 2.457124 1_556
Nd3 O31 2.584907 1_555
Nd4 O23 2.345964 1_555
Nd4 O21 2.400629 1_555
Nd4 O19 2.417854 1_555
Nd4 O28 2.444243 1_565
Nd4 O25 2.461005 1_665
Nd4 O24 2.513276 1_555
Nd4 O27 2.536489 1_565
Nd4 O26 2.745302 1_655
Nd5 O22 2.345964 1_555
Nd5 O20 2.400629 1_555
Nd5 O18 2.417854 1_555
Nd5 O29 2.444243 1_545
Nd5 O24 2.461005 1_445
Nd5 O25 2.513276 1_555
Nd5 O26 2.536489 1_545
Nd5 O27 2.745302 1_455
Mo0 O2 1.744555 1_555
Mo0 O21 1.747934 1_555
Mo0 O0 1.815935 1_555
Mo0 O10 1.828939 1_554
Mo0 O11 2.334571 1_555
Mo1 O3 1.744555 1_555
Mo1 O20 1.747934 1_555
Mo1 O1 1.815935 1_555
Mo1 O11 1.828939 1_556
Mo1 O10 2.334571 1_555
Mo2 O8 1.756685 1_555
Mo2 O22 1.756915 1_565
Mo2 O6 1.757481 1_555
Mo2 O4 1.788975 1_566
Mo3 O9 1.756685 1_555
Mo3 O23 1.756915 1_545
Mo3 O7 1.757481 1_555
Mo3 O5 1.788975 1_544
Mo4 O13 1.713669 1_455
Mo4 O15 1.718432 1_555
Mo4 O34 1.867834 1_555
Mo4 O33 2.023334 1_555
Mo4 O37 2.094267 1_555
Mo4 O2 2.202573 1_555
Mo5 O12 1.713669 1_655
Mo5 O17 1.718432 1_555
Mo5 O34 1.867834 1_656
Mo5 O32 2.023334 1_555
Mo5 O38 2.094267 1_555
Mo5 O3 2.202573 1_555
Mo6 O14 1.745904 1_555
Mo6 O16 1.757349 1_555
Mo6 O42 1.759862 1_455
Mo6 O25 1.795846 1_555
Mo7 O44 1.745904 1_555
Mo7 O43 1.757349 1_555
Mo7 O41 1.759862 1_655
Mo7 O24 1.795846 1_555
Mo8 O40 1.747365 1_655
Mo8 O36 1.752369 1_545
Mo8 O27 1.773557 1_555
Mo8 O38 1.786110 1_555
Mo9 O39 1.747365 1_455
Mo9 O35 1.752369 1_565
Mo9 O26 1.773557 1_555
Mo9 O37 1.786110 1_555
Mo10 O29 1.744978 1_555
Mo10 O19 1.749795 1_555
Mo10 O31 1.776308 1_555
Mo10 O33 1.794494 1_555
Mo11 O28 1.744978 1_555
Mo11 O18 1.749795 1_555
Mo11 O30 1.776308 1_555
Mo11 O32 1.794494 1_555
