# generated using pymatgen
data_Mg14CdSnO16
_symmetry_space_group_name_H-M   'P 1'
_cell_length_a   8.74882068
_cell_length_b   8.77688042
_cell_length_c   4.41238902
_cell_angle_alpha   90.00000000
_cell_angle_beta   90.00000000
_cell_angle_gamma   90.00000000
_symmetry_Int_Tables_number   1
_chemical_formula_structural   Mg14CdSnO16
_chemical_formula_sum   'Mg14 Cd1 Sn1 O16'
_cell_volume   338.81567292
_cell_formula_units_Z   1
loop_
 _symmetry_equiv_pos_site_id
 _symmetry_equiv_pos_as_xyz
  1  'x, y, z'
loop_
 _atom_site_type_symbol
 _atom_site_label
 _atom_site_symmetry_multiplicity
 _atom_site_fract_x
 _atom_site_fract_y
 _atom_site_fract_z
 _atom_site_occupancy
  Mg  Mg0  1  0.50000000  0.00000000  0.00000000  1
  Mg  Mg1  1  0.50000000  0.50000000  0.00000000  1
  Mg  Mg2  1  0.00000000  0.25489623  0.50000000  1
  Mg  Mg3  1  0.00000000  0.74510377  0.50000000  1
  Mg  Mg4  1  0.50000000  0.25094168  0.50000000  1
  Mg  Mg5  1  0.50000000  0.74905832  0.50000000  1
  Mg  Mg6  1  0.25952050  0.00000000  0.50000000  1
  Mg  Mg7  1  0.25595870  0.50000000  0.50000000  1
  Mg  Mg8  1  0.74047950  0.00000000  0.50000000  1
  Mg  Mg9  1  0.74404130  0.50000000  0.50000000  1
  Mg  Mg10  1  0.25811141  0.25262652  0.00000000  1
  Mg  Mg11  1  0.25811141  0.74737348  0.00000000  1
  Mg  Mg12  1  0.74188859  0.25262652  -0.00000000  1
  Mg  Mg13  1  0.74188859  0.74737348  0.00000000  1
  Cd  Cd0  1  0.00000000  0.50000000  0.00000000  1
  Sn  Sn0  1  0.00000000  0.00000000  0.00000000  1
  O  O0  1  0.27234387  0.00000000  0.00000000  1
  O  O1  1  0.26900736  0.50000000  0.00000000  1
  O  O2  1  0.72765613  0.00000000  0.00000000  1
  O  O3  1  0.73099264  0.50000000  0.00000000  1
  O  O4  1  0.24958181  0.25031624  0.50000000  1
  O  O5  1  0.24958181  0.74968376  0.50000000  1
  O  O6  1  0.75041819  0.25031624  0.50000000  1
  O  O7  1  0.75041819  0.74968376  0.50000000  1
  O  O8  1  0.00000000  0.00000000  0.50000000  1
  O  O9  1  0.00000000  0.50000000  0.50000000  1
  O  O10  1  0.50000000  0.00000000  0.50000000  1
  O  O11  1  0.50000000  0.50000000  0.50000000  1
  O  O12  1  0.00000000  0.25465412  0.00000000  1
  O  O13  1  0.00000000  0.74534588  0.00000000  1
  O  O14  1  0.50000000  0.25097157  -0.00000000  1
  O  O15  1  0.50000000  0.74902843  0.00000000  1
loop_
_geom_bond_atom_site_label_1
_geom_bond_atom_site_label_2
_geom_bond_distance
_geom_bond_site_symmetry_2
Mg0 O2 1.991723 1_555
Mg0 O0 1.991723 1_555
Mg0 O14 2.202747 1_555
Mg0 O15 2.202747 1_545
Mg0 O10 2.206195 1_554
Mg0 O10 2.206195 1_555
Mg1 O3 2.020913 1_555
Mg1 O1 2.020913 1_555
Mg1 O15 2.185693 1_555
Mg1 O14 2.185693 1_555
Mg1 O11 2.206195 1_554
Mg1 O11 2.206195 1_555
Mg2 O9 2.151246 1_555
Mg2 O4 2.183916 1_555
Mg2 O6 2.183916 1_455
Mg2 O12 2.206196 1_555
Mg2 O12 2.206196 1_556
Mg2 O8 2.237194 1_555
Mg3 O9 2.151246 1_555
Mg3 O7 2.183916 1_455
Mg3 O5 2.183916 1_555
Mg3 O13 2.206196 1_555
Mg3 O13 2.206196 1_556
Mg3 O8 2.237194 1_565
Mg4 O11 2.185955 1_555
Mg4 O4 2.190871 1_555
Mg4 O6 2.190871 1_555
Mg4 O10 2.202485 1_555
Mg4 O14 2.206195 1_556
Mg4 O14 2.206195 1_555
Mg5 O11 2.185955 1_555
Mg5 O5 2.190871 1_555
Mg5 O7 2.190871 1_555
Mg5 O10 2.202485 1_565
Mg5 O15 2.206195 1_556
Mg5 O15 2.206195 1_555
Mg6 O10 2.103912 1_555
Mg6 O4 2.198716 1_555
Mg6 O5 2.198716 1_545
Mg6 O0 2.209045 1_555
Mg6 O0 2.209045 1_556
Mg6 O8 2.270498 1_555
Mg7 O11 2.135074 1_555
Mg7 O4 2.192155 1_555
Mg7 O5 2.192155 1_555
Mg7 O1 2.209146 1_556
Mg7 O1 2.209146 1_555
Mg7 O9 2.239337 1_555
Mg8 O10 2.103912 1_555
Mg8 O6 2.198716 1_555
Mg8 O7 2.198716 1_545
Mg8 O2 2.209045 1_556
Mg8 O2 2.209045 1_555
Mg8 O8 2.270498 1_655
Mg9 O11 2.135074 1_555
Mg9 O6 2.192155 1_555
Mg9 O7 2.192155 1_555
Mg9 O3 2.209146 1_556
Mg9 O3 2.209146 1_555
Mg9 O9 2.239337 1_655
Mg10 O14 2.116290 1_555
Mg10 O1 2.173259 1_555
Mg10 O4 2.207549 1_554
Mg10 O4 2.207549 1_555
Mg10 O0 2.220766 1_555
Mg10 O12 2.258241 1_555
Mg11 O15 2.116290 1_555
Mg11 O1 2.173259 1_555
Mg11 O5 2.207549 1_554
Mg11 O5 2.207549 1_555
Mg11 O0 2.220766 1_565
Mg11 O13 2.258241 1_555
Mg12 O14 2.116290 1_555
Mg12 O3 2.173259 1_555
Mg12 O6 2.207549 1_554
Mg12 O6 2.207549 1_555
Mg12 O2 2.220766 1_555
Mg12 O12 2.258241 1_655
Mg13 O15 2.116290 1_555
Mg13 O3 2.173259 1_555
Mg13 O7 2.207549 1_554
Mg13 O7 2.207549 1_555
Mg13 O2 2.220766 1_565
Mg13 O13 2.258241 1_655
Cd0 O13 2.153371 1_555
Cd0 O12 2.153371 1_555
Cd0 O9 2.206195 1_555
Cd0 O9 2.206195 1_554
Cd0 O1 2.353497 1_555
Cd0 O3 2.353497 1_455
O0 Sn0 2.382688 1_555
O2 Sn0 2.382688 1_655
O8 Sn0 2.206195 1_556
O8 Sn0 2.206195 1_555
O12 Sn0 2.235069 1_555
O13 Sn0 2.235069 1_565
