# generated using pymatgen
data_Tm4Ni2C5
_symmetry_space_group_name_H-M   'P 1'
_cell_length_a   3.54933005
_cell_length_b   3.64207491
_cell_length_c   11.40795840
_cell_angle_alpha   90.00000000
_cell_angle_beta   90.00000000
_cell_angle_gamma   90.00000000
_symmetry_Int_Tables_number   1
_chemical_formula_structural   Tm4Ni2C5
_chemical_formula_sum   'Tm4 Ni2 C5'
_cell_volume   147.46983316
_cell_formula_units_Z   1
loop_
 _symmetry_equiv_pos_site_id
 _symmetry_equiv_pos_as_xyz
  1  'x, y, z'
loop_
 _atom_site_type_symbol
 _atom_site_label
 _atom_site_symmetry_multiplicity
 _atom_site_fract_x
 _atom_site_fract_y
 _atom_site_fract_z
 _atom_site_occupancy
  Tm  Tm0  1  0.50000000  0.50151965  0.20336706  1
  Tm  Tm1  1  0.50000000  0.50151965  0.79663294  1
  Tm  Tm2  1  0.50000000  0.21101812  0.50000000  1
  Tm  Tm3  1  -0.00000000  0.99871449  0.00000000  1
  Ni  Ni0  1  -0.00000000  0.70009123  0.38448552  1
  Ni  Ni1  1  0.00000000  0.70009123  0.61551448  1
  C  C0  1  -0.00000000  0.99900695  0.22871939  1
  C  C1  1  -0.00000000  0.99900695  0.77128061  1
  C  C2  1  -0.00000000  0.19920778  0.33298303  1
  C  C3  1  -0.00000000  0.19920778  0.66701697  1
  C  C4  1  0.50000000  0.49211419  -0.00000000  1
loop_
_geom_bond_atom_site_label_1
_geom_bond_atom_site_label_2
_geom_bond_distance
_geom_bond_site_symmetry_2
Ni0 Tm2 2.838804 1_455
Ni0 Tm2 2.838804 1_555
Ni0 Tm2 2.889411 1_565
Ni0 Tm2 2.889411 1_465
Ni1 Tm2 2.838804 1_455
Ni1 Tm2 2.838804 1_555
Ni1 Tm2 2.889411 1_565
Ni1 Tm2 2.889411 1_465
C0 C2 1.395138 1_565
C0 Ni0 2.083949 1_555
C0 Tm0 2.552648 1_455
C0 Tm0 2.552648 1_555
C0 Tm0 2.565672 1_565
C0 Tm0 2.565672 1_465
C0 Tm3 2.609222 1_555
C1 C3 1.395138 1_565
C1 Ni1 2.083949 1_555
C1 Tm1 2.552648 1_455
C1 Tm1 2.552648 1_555
C1 Tm1 2.565672 1_565
C1 Tm1 2.565672 1_465
C1 Tm3 2.609222 1_556
C2 Ni0 1.910411 1_545
C2 Ni0 1.916535 1_555
C2 Tm0 2.558935 1_455
C2 Tm0 2.558935 1_555
C2 Tm2 2.604139 1_555
C2 Tm2 2.604139 1_455
C3 Ni1 1.910411 1_545
C3 Ni1 1.916535 1_555
C3 Tm1 2.558935 1_455
C3 Tm1 2.558935 1_555
C3 Tm2 2.604139 1_555
C3 Tm2 2.604139 1_455
C4 Tm1 2.320256 1_554
C4 Tm0 2.320256 1_555
C4 Tm3 2.525597 1_545
C4 Tm3 2.525597 1_645
C4 Tm3 2.560028 1_655
C4 Tm3 2.560028 1_555
