# generated using pymatgen
data_Cr2FeO4
_symmetry_space_group_name_H-M   'P 1'
_cell_length_a   6.03282646
_cell_length_b   5.99222044
_cell_length_c   6.04040665
_cell_angle_alpha   60.62118004
_cell_angle_beta   60.70208777
_cell_angle_gamma   91.26828348
_symmetry_Int_Tables_number   1
_chemical_formula_structural   Cr2FeO4
_chemical_formula_sum   'Cr4 Fe2 O8'
_cell_volume   155.74937952
_cell_formula_units_Z   2
loop_
 _symmetry_equiv_pos_site_id
 _symmetry_equiv_pos_as_xyz
  1  'x, y, z'
loop_
 _atom_site_type_symbol
 _atom_site_label
 _atom_site_symmetry_multiplicity
 _atom_site_fract_x
 _atom_site_fract_y
 _atom_site_fract_z
 _atom_site_occupancy
  Cr  Cr0  1  0.99999400  0.99998200  0.50001000  1
  Cr  Cr1  1  0.00000400  0.50000400  0.99999800  1
  Cr  Cr2  1  0.00000500  0.50000400  0.49999800  1
  Cr  Cr3  1  0.49999700  0.50000400  0.00000200  1
  Fe  Fe0  1  0.62532300  0.87521900  0.25005200  1
  Fe  Fe1  1  0.37467800  0.12478000  0.74995500  1
  O  O0  1  0.75855500  0.73034400  0.52868600  1
  O  O1  1  0.23167100  0.25965100  0.02743000  1
  O  O2  1  0.78711800  0.26014500  0.47150400  1
  O  O3  1  0.76006100  0.28879500  0.97082600  1
  O  O4  1  0.24144400  0.26965800  0.47131300  1
  O  O5  1  0.76832700  0.74035300  0.97256400  1
  O  O6  1  0.21288100  0.73985300  0.52849300  1
  O  O7  1  0.23994200  0.71121000  0.02917100  1
loop_
_geom_bond_atom_site_label_1
_geom_bond_atom_site_label_2
_geom_bond_distance
_geom_bond_site_symmetry_2
Cr0 O0 2.033827 1_555
Cr0 O4 2.033955 1_665
Cr0 O6 2.037279 1_655
Cr0 O2 2.037386 1_565
Cr0 O5 2.040494 1_555
Cr0 O1 2.040616 1_665
Cr1 O7 2.028647 1_556
Cr1 O3 2.028677 1_455
Cr1 O1 2.033883 1_556
Cr1 O5 2.033912 1_455
Cr1 O6 2.036861 1_555
Cr1 O2 2.036862 1_456
Cr2 O6 2.030242 1_555
Cr2 O2 2.030325 1_455
Cr2 O4 2.033083 1_555
Cr2 O0 2.033103 1_455
Cr2 O7 2.035589 1_555
Cr2 O3 2.035593 1_455
Cr3 O5 2.030321 1_554
Cr3 O1 2.030358 1_555
Cr3 O7 2.032304 1_555
Cr3 O3 2.032357 1_554
Cr3 O4 2.036221 1_555
Cr3 O0 2.036245 1_554
Fe0 O3 2.028552 1_564
Fe0 O5 2.037525 1_554
Fe0 O0 2.038052 1_555
Fe0 O6 2.038178 1_555
Fe1 O7 2.028522 1_546
Fe1 O1 2.037486 1_556
Fe1 O4 2.038102 1_555
Fe1 O2 2.038171 1_555
