# generated using pymatgen
data_LiTiFeO4
_symmetry_space_group_name_H-M   'P 1'
_cell_length_a   2.94836900
_cell_length_b   8.99922500
_cell_length_c   10.78537700
_cell_angle_alpha   90.00000000
_cell_angle_beta   90.00000000
_cell_angle_gamma   90.00000000
_symmetry_Int_Tables_number   1
_chemical_formula_structural   LiTiFeO4
_chemical_formula_sum   'Li4 Ti4 Fe4 O16'
_cell_volume   286.16879637
_cell_formula_units_Z   4
loop_
 _symmetry_equiv_pos_site_id
 _symmetry_equiv_pos_as_xyz
  1  'x, y, z'
loop_
 _atom_site_type_symbol
 _atom_site_label
 _atom_site_symmetry_multiplicity
 _atom_site_fract_x
 _atom_site_fract_y
 _atom_site_fract_z
 _atom_site_occupancy
  Li  Li0  1  0.25000000  0.24563000  0.63306100  1
  Li  Li1  1  0.25000000  0.74563000  0.86693900  1
  Li  Li2  1  0.75000000  0.75437000  0.36693900  1
  Li  Li3  1  0.75000000  0.25437000  0.13306100  1
  Ti  Ti0  1  0.25000000  0.08611300  0.39293200  1
  Ti  Ti1  1  0.25000000  0.58611300  0.10706800  1
  Ti  Ti2  1  0.75000000  0.91388700  0.60706800  1
  Ti  Ti3  1  0.75000000  0.41388700  0.89293200  1
  Fe  Fe0  1  0.25000000  0.06170000  0.88904500  1
  Fe  Fe1  1  0.25000000  0.56170000  0.61095500  1
  Fe  Fe2  1  0.75000000  0.93830000  0.11095500  1
  Fe  Fe3  1  0.75000000  0.43830000  0.38904500  1
  O  O0  1  0.25000000  0.28815600  0.34539700  1
  O  O1  1  0.25000000  0.78815600  0.15460300  1
  O  O2  1  0.75000000  0.71184400  0.65460300  1
  O  O3  1  0.75000000  0.21184400  0.84539700  1
  O  O4  1  0.25000000  0.38148700  0.01741400  1
  O  O5  1  0.25000000  0.88148700  0.48258600  1
  O  O6  1  0.75000000  0.61851300  0.98258600  1
  O  O7  1  0.75000000  0.11851300  0.51741400  1
  O  O8  1  0.25000000  0.48479500  0.79130500  1
  O  O9  1  0.25000000  0.98479500  0.70869500  1
  O  O10  1  0.75000000  0.51520500  0.20869500  1
  O  O11  1  0.75000000  0.01520500  0.29130500  1
  O  O12  1  0.25000000  0.08725800  0.07655500  1
  O  O13  1  0.25000000  0.58725800  0.42344500  1
  O  O14  1  0.75000000  0.91274200  0.92344500  1
  O  O15  1  0.75000000  0.41274200  0.57655500  1
loop_
_geom_bond_atom_site_label_1
_geom_bond_atom_site_label_2
_geom_bond_distance
_geom_bond_site_symmetry_2
Li0 O15 2.192324 1_555
Li0 O15 2.192324 1_455
Li0 O7 2.244460 1_455
Li0 O7 2.244460 1_555
Li0 O9 2.485017 1_545
Li1 O14 2.192324 1_455
Li1 O14 2.192324 1_555
Li1 O6 2.244460 1_555
Li1 O6 2.244460 1_455
Li1 O8 2.485017 1_555
Li2 O13 2.192324 1_555
Li2 O13 2.192324 1_655
Li2 O5 2.244460 1_655
Li2 O5 2.244460 1_555
Li2 O11 2.485017 1_565
Li3 O12 2.192324 1_655
Li3 O12 2.192324 1_555
Li3 O4 2.244460 1_555
Li3 O4 2.244460 1_655
Li3 O10 2.485017 1_555
Fe0 O14 2.026779 1_445
Fe0 O14 2.026779 1_545
Fe0 O12 2.035403 1_556
Fe0 O3 2.054391 1_455
Fe0 O3 2.054391 1_555
Fe0 O9 2.064597 1_545
Fe1 O15 2.026779 1_455
Fe1 O15 2.026779 1_555
Fe1 O13 2.035403 1_555
Fe1 O2 2.054391 1_455
Fe1 O2 2.054391 1_555
Fe1 O8 2.064597 1_555
Fe2 O12 2.026779 1_665
Fe2 O12 2.026779 1_565
Fe2 O14 2.035403 1_554
Fe2 O1 2.054391 1_555
Fe2 O1 2.054391 1_655
Fe2 O11 2.064597 1_565
Fe3 O13 2.026779 1_655
Fe3 O13 2.026779 1_555
Fe3 O15 2.035403 1_555
Fe3 O0 2.054391 1_555
Fe3 O0 2.054391 1_655
Fe3 O10 2.064597 1_555
O0 Ti0 1.889128 1_555
O1 Ti1 1.889128 1_555
O2 Ti2 1.889128 1_555
O3 Ti3 1.889128 1_555
O4 Ti3 2.015136 1_454
O4 Ti3 2.015136 1_554
O4 Ti1 2.079911 1_555
O5 Ti2 2.015136 1_555
O5 Ti2 2.015136 1_455
O5 Ti0 2.079911 1_565
O6 Ti1 2.015136 1_656
O6 Ti1 2.015136 1_556
O6 Ti3 2.079911 1_555
O7 Ti0 2.015136 1_555
O7 Ti0 2.015136 1_655
O7 Ti2 2.079911 1_545
O8 Ti3 1.944689 1_455
O8 Ti3 1.944689 1_555
O9 Ti2 1.944689 1_555
O9 Ti2 1.944689 1_455
O10 Ti1 1.944689 1_555
O10 Ti1 1.944689 1_655
O11 Ti0 1.944689 1_555
O11 Ti0 1.944689 1_655
