# generated using pymatgen
data_Sm5Ge4
_symmetry_space_group_name_H-M   'P 1'
_cell_length_a   7.83523179
_cell_length_b   7.90782459
_cell_length_c   14.99601909
_cell_angle_alpha   90.00000000
_cell_angle_beta   90.00000000
_cell_angle_gamma   90.00000000
_symmetry_Int_Tables_number   1
_chemical_formula_structural   Sm5Ge4
_chemical_formula_sum   'Sm20 Ge16'
_cell_volume   929.14792351
_cell_formula_units_Z   4
loop_
 _symmetry_equiv_pos_site_id
 _symmetry_equiv_pos_as_xyz
  1  'x, y, z'
loop_
 _atom_site_type_symbol
 _atom_site_label
 _atom_site_symmetry_multiplicity
 _atom_site_fract_x
 _atom_site_fract_y
 _atom_site_fract_z
 _atom_site_occupancy
  Sm  Sm0  1  0.39017825  0.16132756  0.88634816  1
  Sm  Sm1  1  0.89017725  0.33867244  0.61365184  1
  Sm  Sm2  1  0.10982275  0.66132756  0.11365184  1
  Sm  Sm3  1  0.60982175  0.83867244  0.38634816  1
  Sm  Sm4  1  0.39017825  0.16132756  0.61365184  1
  Sm  Sm5  1  0.89017725  0.33867244  0.88634816  1
  Sm  Sm6  1  0.10982275  0.66132756  0.38634816  1
  Sm  Sm7  1  0.60982175  0.83867244  0.11365184  1
  Sm  Sm8  1  0.03941380  0.82552728  0.60472796  1
  Sm  Sm9  1  0.53941380  0.67447272  0.89527204  1
  Sm  Sm10  1  0.46058620  0.32552728  0.39527204  1
  Sm  Sm11  1  0.96058620  0.17447272  0.10472796  1
  Sm  Sm12  1  0.96058620  0.17447272  0.39527204  1
  Sm  Sm13  1  0.46058620  0.32552728  0.10472796  1
  Sm  Sm14  1  0.53941380  0.67447272  0.60472796  1
  Sm  Sm15  1  0.03941380  0.82552728  0.89527204  1
  Sm  Sm16  1  0.27776626  0.99760766  0.25000000  1
  Sm  Sm17  1  0.77776626  0.50239234  0.25000000  1
  Sm  Sm18  1  0.22223374  0.49760766  0.75000000  1
  Sm  Sm19  1  0.72223374  0.00239234  0.75000000  1
  Ge  Ge0  1  0.76965189  0.52488856  0.45366007  1
  Ge  Ge1  1  0.26965189  0.97511144  0.04633993  1
  Ge  Ge2  1  0.73034811  0.02488856  0.54633993  1
  Ge  Ge3  1  0.23034811  0.47511144  0.95366007  1
  Ge  Ge4  1  0.23034811  0.47511144  0.54633993  1
  Ge  Ge5  1  0.73034811  0.02488856  0.95366007  1
  Ge  Ge6  1  0.26965189  0.97511144  0.45366007  1
  Ge  Ge7  1  0.76965189  0.52488856  0.04633993  1
  Ge  Ge8  1  0.90175571  0.88664940  0.25000000  1
  Ge  Ge9  1  0.40175571  0.61335060  0.25000000  1
  Ge  Ge10  1  0.59824429  0.38664940  0.75000000  1
  Ge  Ge11  1  0.09824429  0.11335060  0.75000000  1
  Ge  Ge12  1  0.16162649  0.36969152  0.25000000  1
  Ge  Ge13  1  0.66162649  0.13030848  0.25000000  1
  Ge  Ge14  1  0.33837351  0.86969152  0.75000000  1
  Ge  Ge15  1  0.83837351  0.63030848  0.75000000  1
loop_
_geom_bond_atom_site_label_1
_geom_bond_atom_site_label_2
_geom_bond_distance
_geom_bond_site_symmetry_2
Ge0 Sm3 2.957071 1_555
Ge0 Sm1 2.969273 1_555
Ge0 Sm10 3.019305 1_555
Ge0 Sm6 3.047446 1_655
Ge0 Sm17 3.059928 1_555
Ge0 Sm14 3.128200 1_555
Ge0 Sm12 3.268532 1_555
Ge1 Sm2 2.957068 1_555
Ge1 Sm0 2.969276 1_564
Ge1 Sm11 3.019305 1_465
Ge1 Sm7 3.047440 1_555
Ge1 Sm16 3.059928 1_555
Ge1 Sm15 3.128200 1_554
Ge1 Sm13 3.268532 1_565
Ge2 Sm1 2.957068 1_555
Ge2 Sm3 2.969276 1_545
Ge2 Sm8 3.019305 1_645
Ge2 Sm4 3.047440 1_555
Ge2 Sm19 3.059928 1_555
Ge2 Sm12 3.128200 1_555
Ge2 Sm14 3.268532 1_545
Ge3 Sm0 2.957071 1_555
Ge3 Sm2 2.969273 1_556
Ge3 Sm9 3.019305 1_555
Ge3 Sm5 3.047446 1_455
Ge3 Sm18 3.059928 1_555
Ge3 Sm13 3.128200 1_556
Ge3 Sm15 3.268532 1_555
Ge4 Sm4 2.957071 1_555
Ge4 Sm6 2.969273 1_555
Ge4 Sm14 3.019305 1_555
Ge4 Sm1 3.047446 1_455
Ge4 Sm18 3.059928 1_555
Ge4 Sm10 3.128200 1_555
Ge4 Sm8 3.268532 1_555
Ge5 Sm5 2.957068 1_555
Ge5 Sm7 2.969276 1_546
Ge5 Sm15 3.019305 1_645
Ge5 Sm0 3.047440 1_555
Ge5 Sm19 3.059928 1_555
Ge5 Sm11 3.128200 1_556
Ge5 Sm9 3.268532 1_545
Ge6 Sm6 2.957068 1_555
Ge6 Sm4 2.969276 1_565
Ge6 Sm12 3.019305 1_465
Ge6 Sm3 3.047440 1_555
Ge6 Sm16 3.059928 1_555
Ge6 Sm8 3.128200 1_555
Ge6 Sm10 3.268532 1_565
Ge7 Sm7 2.957071 1_555
Ge7 Sm5 2.969273 1_554
Ge7 Sm13 3.019305 1_555
Ge7 Sm2 3.047446 1_655
Ge7 Sm17 3.059928 1_555
Ge7 Sm9 3.128200 1_554
Ge7 Sm11 3.268532 1_555
Ge8 Sm16 3.074017 1_655
Ge8 Sm7 3.091394 1_555
Ge8 Sm3 3.091394 1_555
Ge8 Sm6 3.164375 1_655
Ge8 Sm2 3.164375 1_655
Ge8 Sm11 3.184145 1_565
Ge8 Sm12 3.184145 1_565
Ge8 Sm17 3.190157 1_555
Ge9 Sm17 3.074017 1_555
Ge9 Sm2 3.091388 1_555
Ge9 Sm6 3.091388 1_555
Ge9 Sm7 3.164371 1_555
Ge9 Sm3 3.164371 1_555
Ge9 Sm10 3.184145 1_555
Ge9 Sm13 3.184145 1_555
Ge9 Sm16 3.190157 1_555
Ge10 Ge15 2.693052 1_555
Ge10 Sm18 3.074017 1_555
Ge10 Sm1 3.091388 1_555
Ge10 Sm5 3.091388 1_555
Ge10 Sm4 3.164371 1_555
Ge10 Sm0 3.164371 1_555
Ge10 Sm9 3.184145 1_555
Ge10 Sm14 3.184145 1_555
Ge10 Sm19 3.190157 1_555
Ge11 Ge14 2.693052 1_545
Ge11 Sm19 3.074017 1_455
Ge11 Sm4 3.091394 1_555
Ge11 Sm0 3.091394 1_555
Ge11 Sm1 3.164375 1_455
Ge11 Sm5 3.164375 1_455
Ge11 Sm15 3.184145 1_545
Ge11 Sm8 3.184145 1_545
Ge11 Sm18 3.190157 1_555
Ge12 Ge9 2.693052 1_555
Ge12 Sm16 3.079875 1_545
Ge12 Sm11 3.100049 1_455
Ge12 Sm12 3.100049 1_455
Ge12 Sm2 3.108706 1_555
Ge12 Sm6 3.108706 1_555
Ge12 Sm17 3.185443 1_455
Ge12 Sm10 3.217883 1_555
Ge12 Sm13 3.217883 1_555
Ge13 Ge8 2.693052 1_545
Ge13 Sm17 3.079875 1_555
Ge13 Sm10 3.100049 1_555
Ge13 Sm13 3.100049 1_555
Ge13 Sm3 3.108707 1_545
Ge13 Sm7 3.108707 1_545
Ge13 Sm16 3.185443 1_545
Ge13 Sm11 3.217883 1_555
Ge13 Sm12 3.217883 1_555
Ge14 Sm18 3.079875 1_555
Ge14 Sm14 3.100049 1_555
Ge14 Sm9 3.100049 1_555
Ge14 Sm0 3.108707 1_565
Ge14 Sm4 3.108707 1_565
Ge14 Sm19 3.185443 1_565
Ge14 Sm8 3.217883 1_555
Ge14 Sm15 3.217883 1_555
Ge15 Sm19 3.079875 1_565
Ge15 Sm8 3.100049 1_655
Ge15 Sm15 3.100049 1_655
Ge15 Sm1 3.108706 1_555
Ge15 Sm5 3.108706 1_555
Ge15 Sm18 3.185443 1_655
Ge15 Sm9 3.217883 1_555
Ge15 Sm14 3.217883 1_555
