# generated using pymatgen
data_Sr2TaAlO6
_symmetry_space_group_name_H-M   'P 1'
_cell_length_a   3.96565200
_cell_length_b   3.96565200
_cell_length_c   7.88860500
_cell_angle_alpha   90.00000000
_cell_angle_beta   90.00000000
_cell_angle_gamma   90.00000000
_symmetry_Int_Tables_number   1
_chemical_formula_structural   Sr2TaAlO6
_chemical_formula_sum   'Sr2 Ta1 Al1 O6'
_cell_volume   124.05932442
_cell_formula_units_Z   1
loop_
 _symmetry_equiv_pos_site_id
 _symmetry_equiv_pos_as_xyz
  1  'x, y, z'
loop_
 _atom_site_type_symbol
 _atom_site_label
 _atom_site_symmetry_multiplicity
 _atom_site_fract_x
 _atom_site_fract_y
 _atom_site_fract_z
 _atom_site_occupancy
  Sr  Sr0  1  0.00000000  0.00000000  0.71567400  1
  Sr  Sr1  1  0.00000000  0.00000000  0.28432600  1
  Ta  Ta0  1  0.50000000  0.50000000  0.00000000  1
  Al  Al0  1  0.50000000  0.50000000  0.50000000  1
  O  O0  1  0.50000000  0.00000000  0.00000000  1
  O  O1  1  0.50000000  0.00000000  0.50000000  1
  O  O2  1  0.00000000  0.50000000  0.00000000  1
  O  O3  1  0.00000000  0.50000000  0.50000000  1
  O  O4  1  0.50000000  0.50000000  0.74921000  1
  O  O5  1  0.50000000  0.50000000  0.25079000  1
loop_
_geom_bond_atom_site_label_1
_geom_bond_atom_site_label_2
_geom_bond_distance
_geom_bond_site_symmetry_2
Al0 O5 1.965919 1_555
Al0 O4 1.965919 1_555
Al0 O3 1.982826 1_655
Al0 O1 1.982826 1_565
Al0 O3 1.982826 1_555
Al0 O1 1.982826 1_555
O0 Ta0 1.982826 1_545
O0 Ta0 1.982826 1_555
O0 Sr1 2.993720 1_655
O0 Sr1 2.993720 1_555
O0 Sr0 2.993720 1_554
O0 Sr0 2.993720 1_654
O1 Sr0 2.612709 1_655
O1 Sr0 2.612709 1_555
O1 Sr1 2.612709 1_555
O1 Sr1 2.612709 1_655
O2 Ta0 1.982826 1_555
O2 Ta0 1.982826 1_455
O2 Sr1 2.993720 1_565
O2 Sr1 2.993720 1_555
O2 Sr0 2.993720 1_554
O2 Sr0 2.993720 1_564
O3 Sr0 2.612709 1_565
O3 Sr0 2.612709 1_555
O3 Sr1 2.612709 1_565
O3 Sr1 2.612709 1_555
O4 Ta0 1.978383 1_556
O4 Sr0 2.816591 1_565
O4 Sr0 2.816591 1_665
O4 Sr0 2.816591 1_655
O4 Sr0 2.816591 1_555
O5 Ta0 1.978383 1_555
O5 Sr1 2.816591 1_655
O5 Sr1 2.816591 1_565
O5 Sr1 2.816591 1_555
O5 Sr1 2.816591 1_665
