# generated using pymatgen
data_RbMg14V
_symmetry_space_group_name_H-M   'P 1'
_cell_length_a   6.48835982
_cell_length_b   6.57460910
_cell_length_c   10.61118620
_cell_angle_alpha   90.00000000
_cell_angle_beta   90.00000000
_cell_angle_gamma   120.44071488
_symmetry_Int_Tables_number   1
_chemical_formula_structural   RbMg14V
_chemical_formula_sum   'Rb1 Mg14 V1'
_cell_volume   390.25958157
_cell_formula_units_Z   1
loop_
 _symmetry_equiv_pos_site_id
 _symmetry_equiv_pos_as_xyz
  1  'x, y, z'
loop_
 _atom_site_type_symbol
 _atom_site_label
 _atom_site_symmetry_multiplicity
 _atom_site_fract_x
 _atom_site_fract_y
 _atom_site_fract_z
 _atom_site_occupancy
  Rb  Rb0  1  0.16595753  0.83297827  0.12500000  1
  Mg  Mg0  1  0.16561912  0.33280906  0.62500000  1
  Mg  Mg1  1  0.16780518  0.83390209  0.62500000  1
  Mg  Mg2  1  0.66504489  0.33466211  0.12500000  1
  Mg  Mg3  1  0.66653357  0.33154377  0.62500000  1
  Mg  Mg4  1  0.66504489  0.83038178  0.12500000  1
  Mg  Mg5  1  0.66653357  0.83498880  0.62500000  1
  Mg  Mg6  1  0.33530996  0.18018255  0.38501398  1
  Mg  Mg7  1  0.33530996  0.18018255  0.86498602  1
  Mg  Mg8  1  0.33530996  0.65512841  0.38501398  1
  Mg  Mg9  1  0.33530996  0.65512841  0.86498602  1
  Mg  Mg10  1  0.83840608  0.16920354  0.36733486  1
  Mg  Mg11  1  0.83840608  0.16920354  0.88266514  1
  Mg  Mg12  1  0.82158784  0.66079442  0.39125672  1
  Mg  Mg13  1  0.82158784  0.66079442  0.85874328  1
  V  V0  1  0.17623358  0.33811629  0.12500000  1
loop_
_geom_bond_atom_site_label_1
_geom_bond_atom_site_label_2
_geom_bond_distance
_geom_bond_site_symmetry_2
Rb0 V0 3.287807 1_565
Rb0 V0 3.287807 1_555
Mg0 Mg6 3.134250 1_555
Mg0 Mg7 3.134250 1_555
Mg0 Mg8 3.134257 1_555
Mg0 Mg9 3.134257 1_555
Mg0 Mg5 3.234040 1_445
Mg0 Mg3 3.234040 1_455
Mg0 Mg5 3.254336 1_555
Mg0 Mg3 3.254336 1_555
Mg0 Mg1 3.287327 1_555
Mg0 Mg1 3.287327 1_545
Mg0 Mg11 3.290275 1_455
Mg0 Mg10 3.290275 1_455
Mg1 Mg12 3.146867 1_455
Mg1 Mg13 3.146867 1_455
Mg1 Mg8 3.215889 1_555
Mg1 Mg9 3.215889 1_555
Mg1 Mg6 3.215896 1_565
Mg1 Mg7 3.215896 1_565
Mg1 Mg3 3.232315 1_565
Mg1 Mg5 3.232315 1_555
Mg1 Mg3 3.256056 1_455
Mg1 Mg5 3.256056 1_455
Mg2 V0 3.183150 1_555
Mg2 Rb0 3.241486 1_655
Mg2 Rb0 3.246940 1_545
Mg2 Mg4 3.259163 1_555
Mg2 V0 3.305328 1_655
Mg2 Mg4 3.315446 1_545
Mg2 Mg7 3.319538 1_554
Mg2 Mg6 3.319538 1_555
Mg3 Mg7 3.150665 1_555
Mg3 Mg6 3.150665 1_555
Mg3 Mg5 3.264655 1_545
Mg3 Mg5 3.309954 1_555
Mg4 V0 3.183149 1_555
Mg4 Rb0 3.241486 1_655
Mg4 Rb0 3.246941 1_555
Mg4 V0 3.305328 1_665
Mg4 Mg9 3.319538 1_554
Mg4 Mg8 3.319538 1_555
Mg5 Mg9 3.150665 1_555
Mg5 Mg8 3.150665 1_555
Mg6 Mg8 3.122583 1_555
Mg6 V0 3.292700 1_555
Mg6 Rb0 3.389544 1_545
Mg6 Mg8 3.452026 1_545
Mg7 Mg9 3.122583 1_555
Mg7 V0 3.292700 1_556
Mg7 Rb0 3.389544 1_546
Mg7 Mg9 3.452026 1_545
Mg8 V0 3.292706 1_555
Mg8 Rb0 3.389538 1_555
Mg9 V0 3.292706 1_556
Mg9 Rb0 3.389538 1_556
Mg10 V0 3.191196 1_655
Mg10 Mg8 3.193642 1_655
Mg10 Mg6 3.193642 1_655
Mg10 Mg2 3.209501 1_555
Mg10 Mg4 3.209508 1_545
Mg10 Mg12 3.298432 1_545
Mg10 Mg12 3.298432 1_555
Mg10 Mg8 3.306752 1_545
Mg10 Mg6 3.306752 1_555
Mg10 Mg3 3.326310 1_555
Mg10 Mg5 3.326316 1_545
Mg11 V0 3.191196 1_656
Mg11 Mg9 3.193642 1_655
Mg11 Mg7 3.193642 1_655
Mg11 Mg2 3.209501 1_556
Mg11 Mg4 3.209508 1_546
Mg11 Mg13 3.298432 1_545
Mg11 Mg13 3.298432 1_555
Mg11 Mg9 3.306752 1_545
Mg11 Mg7 3.306752 1_555
Mg11 Mg3 3.326310 1_555
Mg11 Mg5 3.326316 1_545
Mg12 Mg5 3.105336 1_555
Mg12 Mg3 3.105343 1_555
Mg12 Mg6 3.137136 1_555
Mg12 Mg8 3.137136 1_555
Mg12 Mg6 3.352895 1_665
Mg12 Mg8 3.352896 1_655
Mg12 Mg4 3.377081 1_555
Mg12 Mg2 3.377087 1_555
Mg12 Rb0 3.419547 1_655
Mg13 Mg5 3.105336 1_555
Mg13 Mg3 3.105343 1_555
Mg13 Mg7 3.137136 1_555
Mg13 Mg9 3.137136 1_555
Mg13 Mg7 3.352895 1_665
Mg13 Mg9 3.352896 1_655
Mg13 Mg4 3.377081 1_556
Mg13 Mg2 3.377087 1_556
Mg13 Rb0 3.419547 1_656
