# generated using pymatgen
data_K3Na2SnAs3
_symmetry_space_group_name_H-M   'P 1'
_cell_length_a   10.88884365
_cell_length_b   10.88884365
_cell_length_c   15.61491100
_cell_angle_alpha   90.00000000
_cell_angle_beta   90.00000000
_cell_angle_gamma   143.24732116
_symmetry_Int_Tables_number   1
_chemical_formula_structural   K3Na2SnAs3
_chemical_formula_sum   'K12 Na8 Sn4 As12'
_cell_volume   1107.81460720
_cell_formula_units_Z   4
loop_
 _symmetry_equiv_pos_site_id
 _symmetry_equiv_pos_as_xyz
  1  'x, y, z'
loop_
 _atom_site_type_symbol
 _atom_site_label
 _atom_site_symmetry_multiplicity
 _atom_site_fract_x
 _atom_site_fract_y
 _atom_site_fract_z
 _atom_site_occupancy
  K  K0  1  0.60049800  0.93388300  0.82455500  1
  K  K1  1  0.25969800  0.25969800  0.32230000  1
  K  K2  1  0.24030200  0.24030200  0.82230000  1
  K  K3  1  0.74030200  0.74030200  0.67770000  1
  K  K4  1  0.43388300  0.10049800  0.67544500  1
  K  K5  1  0.89950200  0.56611700  0.32455500  1
  K  K6  1  0.06611700  0.39950200  0.17544500  1
  K  K7  1  0.39950200  0.06611700  0.17544500  1
  K  K8  1  0.56611700  0.89950200  0.32455500  1
  K  K9  1  0.10049800  0.43388300  0.67544500  1
  K  K10  1  0.93388300  0.60049800  0.82455500  1
  K  K11  1  0.75969800  0.75969800  0.17770000  1
  Na  Na0  1  0.08136000  0.91864000  0.00000000  1
  Na  Na1  1  0.58136000  0.41864000  0.50000000  1
  Na  Na2  1  0.91864000  0.08136000  0.00000000  1
  Na  Na3  1  0.75477300  0.24522700  0.00000000  1
  Na  Na4  1  0.74522700  0.25477300  0.50000000  1
  Na  Na5  1  0.24522700  0.75477300  0.00000000  1
  Na  Na6  1  0.25477300  0.74522700  0.50000000  1
  Na  Na7  1  0.41864000  0.58136000  0.50000000  1
  Sn  Sn0  1  0.08859700  0.91140300  0.50000000  1
  Sn  Sn1  1  0.41140300  0.58859700  0.00000000  1
  Sn  Sn2  1  0.91140300  0.08859700  0.50000000  1
  Sn  Sn3  1  0.58859700  0.41140300  0.00000000  1
  As  As0  1  0.06372400  0.38148700  0.39425400  1
  As  As1  1  0.88148700  0.56372400  0.10574600  1
  As  As2  1  0.43627600  0.11851300  0.89425400  1
  As  As3  1  0.61851300  0.93627600  0.60574600  1
  As  As4  1  0.93627600  0.61851300  0.60574600  1
  As  As5  1  0.11851300  0.43627600  0.89425400  1
  As  As6  1  0.56372400  0.88148700  0.10574600  1
  As  As7  1  0.38148700  0.06372400  0.39425400  1
  As  As8  1  0.20607800  0.20607800  0.59486400  1
  As  As9  1  0.70607800  0.70607800  0.90513600  1
  As  As10  1  0.29392200  0.29392200  0.09486400  1
  As  As11  1  0.79392200  0.79392200  0.40513600  1
loop_
_geom_bond_atom_site_label_1
_geom_bond_atom_site_label_2
_geom_bond_distance
_geom_bond_site_symmetry_2
As0 Sn2 2.678105 1_455
As0 Na7 2.986705 1_555
As0 Na4 2.998300 1_455
As0 Na6 3.088369 1_555
As0 K6 3.421212 1_555
As0 K1 3.479864 1_555
As0 K8 3.538150 1_445
As0 K8 3.671574 1_555
As0 K5 3.766249 1_455
As1 Sn3 2.678105 1_555
As1 Na0 2.986705 1_655
As1 Na3 2.998300 1_555
As1 Na5 3.088369 1_655
As1 K5 3.421212 1_555
As1 K11 3.479864 1_555
As1 K7 3.538150 1_555
As1 K7 3.671574 1_665
As1 K6 3.766249 1_655
As2 Sn3 2.678105 1_556
As2 Na0 2.986705 1_546
As2 Na3 2.998300 1_556
As2 Na5 3.088369 1_546
As2 K4 3.421212 1_555
As2 K2 3.479864 1_555
As2 K10 3.538150 1_555
As2 K10 3.671574 1_445
As2 K0 3.766249 1_545
As3 Sn2 2.678105 1_565
As3 Na7 2.986705 1_555
As3 Na4 2.998300 1_565
As3 Na6 3.088369 1_555
As3 K0 3.421212 1_555
As3 K3 3.479864 1_555
As3 K9 3.538150 1_665
As3 K9 3.671574 1_555
As3 K4 3.766249 1_565
As4 Sn0 2.678105 1_655
As4 Na1 2.986705 1_555
As4 Na6 2.998300 1_655
As4 Na4 3.088369 1_555
As4 K10 3.421212 1_555
As4 K3 3.479864 1_555
As4 K4 3.538150 1_665
As4 K4 3.671574 1_555
As4 K9 3.766249 1_655
As5 Sn1 2.678105 1_556
As5 Na2 2.986705 1_456
As5 Na5 2.998300 1_556
As5 Na3 3.088369 1_456
As5 K9 3.421212 1_555
As5 K2 3.479864 1_555
As5 K0 3.538150 1_555
As5 K0 3.671574 1_445
As5 K10 3.766249 1_455
As6 Sn1 2.678105 1_555
As6 Na2 2.986705 1_565
As6 Na5 2.998300 1_555
As6 Na3 3.088369 1_565
As6 K8 3.421212 1_555
As6 K11 3.479864 1_555
As6 K6 3.538150 1_555
As6 K6 3.671574 1_665
As6 K7 3.766249 1_565
As7 Sn0 2.678105 1_545
As7 Na1 2.986705 1_555
As7 Na6 2.998300 1_545
As7 Na4 3.088369 1_555
As7 K7 3.421212 1_555
As7 K1 3.479864 1_555
As7 K5 3.538150 1_445
As7 K5 3.671574 1_555
As7 K8 3.766249 1_545
As8 Sn0 2.747499 1_545
As8 Sn2 2.747499 1_455
As8 Na7 3.015576 1_555
As8 Na1 3.015576 1_555
As8 K3 3.449511 1_445
As8 K2 3.559157 1_555
As8 K9 3.691574 1_555
As8 K4 3.691574 1_555
As8 K3 3.889151 1_555
As9 Sn1 2.747499 1_556
As9 Sn3 2.747499 1_556
As9 Na2 3.015576 1_566
As9 Na0 3.015576 1_656
As9 K2 3.449511 1_555
As9 K3 3.559157 1_555
As9 K10 3.691574 1_555
As9 K0 3.691574 1_555
As9 K2 3.889151 1_665
As10 Sn3 2.747499 1_555
As10 Sn1 2.747499 1_555
As10 Na2 3.015576 1_455
As10 Na0 3.015576 1_545
As10 K11 3.449511 1_555
As10 K1 3.559157 1_555
As10 K7 3.691574 1_555
As10 K6 3.691574 1_555
As10 K11 3.889151 1_445
As11 Sn0 2.747499 1_655
As11 Sn2 2.747499 1_565
As11 Na7 3.015576 1_555
As11 Na1 3.015576 1_555
As11 K1 3.449511 1_665
As11 K11 3.559157 1_555
As11 K5 3.691574 1_555
As11 K8 3.691574 1_555
As11 K1 3.889151 1_555
