# generated using pymatgen
data_Cu2Si3H24C8(N10F9)2
_symmetry_space_group_name_H-M   'P 1'
_cell_length_a   7.63528700
_cell_length_b   8.53333182
_cell_length_c   12.23308534
_cell_angle_alpha   87.14648322
_cell_angle_beta   88.09149972
_cell_angle_gamma   67.12398380
_symmetry_Int_Tables_number   1
_chemical_formula_structural   Cu2Si3H24C8(N10F9)2
_chemical_formula_sum   'Cu2 Si3 H24 C8 N20 F18'
_cell_volume   733.35635173
_cell_formula_units_Z   1
loop_
 _symmetry_equiv_pos_site_id
 _symmetry_equiv_pos_as_xyz
  1  'x, y, z'
loop_
 _atom_site_type_symbol
 _atom_site_label
 _atom_site_symmetry_multiplicity
 _atom_site_fract_x
 _atom_site_fract_y
 _atom_site_fract_z
 _atom_site_occupancy
  Cu  Cu0  1  0.26975900  0.33493000  0.64304000  1
  Cu  Cu1  1  0.73024100  0.66507000  0.35696000  1
  Si  Si0  1  0.18877900  0.05087400  0.31729900  1
  Si  Si1  1  0.81122100  0.94912600  0.68270100  1
  Si  Si2  1  0.50000000  0.50000000  0.00000000  1
  H  H0  1  0.03367600  0.66950800  0.51820500  1
  H  H1  1  0.96632400  0.33049200  0.48179500  1
  H  H2  1  0.59011500  0.16135300  0.49064900  1
  H  H3  1  0.40988500  0.83864700  0.50935100  1
  H  H4  1  0.05967500  0.40811200  0.22959900  1
  H  H5  1  0.94032500  0.59188800  0.77040100  1
  H  H6  1  0.43333200  0.03566200  0.80191300  1
  H  H7  1  0.56666800  0.96433800  0.19808700  1
  H  H8  1  0.03701000  0.71681900  0.99812700  1
  H  H9  1  0.96299000  0.28318100  0.00187300  1
  H  H10  1  0.07378400  0.75556600  0.39509800  1
  H  H11  1  0.92621600  0.24443400  0.60490200  1
  H  H12  1  0.20498500  0.99026700  0.07793800  1
  H  H13  1  0.79501500  0.00973300  0.92206200  1
  H  H14  1  0.61473900  0.13698700  0.01310000  1
  H  H15  1  0.38526100  0.86301300  0.98690000  1
  H  H16  1  0.18340800  0.43856100  0.11265200  1
  H  H17  1  0.81659200  0.56143900  0.88734800  1
  H  H18  1  0.67282700  0.33324900  0.20680600  1
  H  H19  1  0.32717300  0.66675100  0.79319400  1
  H  H20  1  0.35944000  0.57542600  0.27266600  1
  H  H21  1  0.64056000  0.42457400  0.72733400  1
  H  H22  1  0.78885100  0.17042200  0.30504000  1
  H  H23  1  0.21114900  0.82957800  0.69496000  1
  C  C0  1  0.22069200  0.10432600  0.93070200  1
  C  C1  1  0.77930800  0.89567400  0.06929800  1
  C  C2  1  0.53005400  0.34165400  0.35304900  1
  C  C3  1  0.46994600  0.65834600  0.64695100  1
  C  C4  1  0.26241700  0.51566000  0.43077700  1
  C  C5  1  0.73758300  0.48434000  0.56922300  1
  C  C6  1  0.06262500  0.35922200  0.85128100  1
  C  C7  1  0.93737500  0.64077800  0.14871900  1
  N  N0  1  0.27070200  0.97360200  0.00211500  1
  N  N1  1  0.72929800  0.02639800  0.99788500  1
  N  N2  1  0.06496300  0.48249600  0.16216800  1
  N  N3  1  0.93503700  0.51750400  0.83783200  1
  N  N4  1  0.09330100  0.64641200  0.44113700  1
  N  N5  1  0.90669900  0.35358800  0.55886300  1
  N  N6  1  0.30534400  0.11897700  0.83552600  1
  N  N7  1  0.69465600  0.88102300  0.16447400  1
  N  N8  1  0.37622500  0.49108500  0.33864000  1
  N  N9  1  0.62377500  0.50891500  0.66136000  1
  N  N10  1  0.06663800  0.25436000  0.94126800  1
  N  N11  1  0.93336200  0.74564000  0.05873200  1
  N  N12  1  0.34194500  0.38645100  0.50322400  1
  N  N13  1  0.65805500  0.61354900  0.49677600  1
  N  N14  1  0.20767000  0.27759000  0.78358700  1
  N  N15  1  0.79233000  0.72241000  0.21641300  1
  N  N16  1  0.50999800  0.27941400  0.45300400  1
  N  N17  1  0.49000200  0.72058600  0.54699600  1
  N  N18  1  0.67116600  0.27532800  0.28197100  1
  N  N19  1  0.32883400  0.72467200  0.71802900  1
  F  F0  1  0.07753400  0.09102200  0.19224800  1
  F  F1  1  0.92246600  0.90897800  0.80775200  1
  F  F2  1  0.71825100  0.38844100  0.06070900  1
  F  F3  1  0.28174900  0.61155900  0.93929100  1
  F  F4  1  0.30353400  0.84078200  0.29205700  1
  F  F5  1  0.69646600  0.15921800  0.70794300  1
  F  F6  1  0.42514100  0.33815400  0.04011000  1
  F  F7  1  0.57485900  0.66184600  0.95989000  1
  F  F8  1  0.07463400  0.26625500  0.34478500  1
  F  F9  1  0.92536600  0.73374500  0.65521500  1
  F  F10  1  0.37352800  0.09470700  0.25720700  1
  F  F11  1  0.62647200  0.90529300  0.74279300  1
  F  F12  1  0.99822300  0.01351600  0.37289200  1
  F  F13  1  0.00177700  0.98648400  0.62710800  1
  F  F14  1  0.41356500  0.59662800  0.11983100  1
  F  F15  1  0.58643500  0.40337200  0.88016900  1
  F  F16  1  0.29483600  0.01936700  0.44301200  1
  F  F17  1  0.70516400  0.98063300  0.55698800  1
loop_
_geom_bond_atom_site_label_1
_geom_bond_atom_site_label_2
_geom_bond_distance
_geom_bond_site_symmetry_2
Cu0 N14 1.860786 1_555
Cu0 N12 1.863654 1_555
Cu1 N15 1.860786 1_555
Cu1 N13 1.863654 1_555
H0 N4 1.027174 1_555
H1 N5 1.027174 1_555
H2 N16 1.046262 1_555
H3 N17 1.046262 1_555
H4 N2 1.024962 1_555
H5 N3 1.024962 1_555
H6 N6 1.044837 1_555
H7 N7 1.044837 1_555
H8 N11 1.031590 1_456
H9 N10 1.031590 1_654
H10 N4 1.025884 1_555
H11 N5 1.025884 1_555
H12 N0 1.029076 1_555
H13 N1 1.029076 1_555
H14 N1 1.027214 1_554
H15 N0 1.027214 1_556
H16 N2 1.023649 1_555
H17 N3 1.023649 1_555
H18 N18 1.024100 1_555
H19 N19 1.024100 1_555
H20 N8 1.031070 1_555
H21 N9 1.031070 1_555
H22 N18 1.027020 1_555
H23 N19 1.027020 1_555
C0 N0 1.321883 1_546
C0 N6 1.336856 1_555
C0 N10 1.369279 1_555
C1 N1 1.321883 1_564
C1 N7 1.336856 1_555
C1 N11 1.369279 1_555
C2 N18 1.322769 1_555
C2 N16 1.336702 1_555
C2 N8 1.365126 1_555
C3 N19 1.322769 1_555
C3 N17 1.336702 1_555
C3 N9 1.365126 1_555
C4 N12 1.337112 1_555
C4 N4 1.345862 1_555
C4 N8 1.373347 1_555
C5 N13 1.337112 1_555
C5 N5 1.345862 1_555
C5 N9 1.373347 1_555
C6 N3 1.328891 1_455
C6 N14 1.339416 1_555
C6 N10 1.377063 1_555
C7 N2 1.328891 1_655
C7 N15 1.339416 1_555
C7 N11 1.377063 1_555
N12 N16 1.396526 1_555
N13 N17 1.396526 1_555
N14 N6 1.397491 1_555
N15 N7 1.397491 1_555
F0 Si0 1.728328 1_555
F1 Si1 1.728328 1_555
F2 Si2 1.735909 1_555
F3 Si2 1.735909 1_556
F4 Si0 1.700869 1_565
F5 Si1 1.700869 1_545
F6 Si2 1.732751 1_555
F7 Si2 1.732751 1_556
F8 Si0 1.745626 1_555
F9 Si1 1.745626 1_555
F10 H7 1.633683 1_545
F10 Si0 1.727395 1_555
F11 H6 1.633683 1_565
F11 Si1 1.727395 1_555
F12 Si0 1.718756 1_655
F13 Si1 1.718756 1_455
F14 Si2 1.702098 1_555
F15 Si2 1.702098 1_556
F16 H3 1.636486 1_545
F16 Si0 1.722074 1_555
F17 H2 1.636486 1_565
F17 Si1 1.722074 1_555
