# generated using pymatgen
data_EuTmB12
_symmetry_space_group_name_H-M   'P 1'
_cell_length_a   5.81311900
_cell_length_b   5.81311900
_cell_length_c   4.10831900
_cell_angle_alpha   90.00000000
_cell_angle_beta   90.00000000
_cell_angle_gamma   90.00000000
_symmetry_Int_Tables_number   1
_chemical_formula_structural   EuTmB12
_chemical_formula_sum   'Eu1 Tm1 B12'
_cell_volume   138.82976386
_cell_formula_units_Z   1
loop_
 _symmetry_equiv_pos_site_id
 _symmetry_equiv_pos_as_xyz
  1  'x, y, z'
loop_
 _atom_site_type_symbol
 _atom_site_label
 _atom_site_symmetry_multiplicity
 _atom_site_fract_x
 _atom_site_fract_y
 _atom_site_fract_z
 _atom_site_occupancy
  Eu  Eu0  1  0.00000000  0.00000000  0.00000000  1
  Tm  Tm0  1  0.50000000  0.50000000  0.00000000  1
  B  B0  1  0.00000000  0.50000000  0.19974800  1
  B  B1  1  0.50000000  0.00000000  0.19974800  1
  B  B2  1  0.15023000  0.65006900  0.50000000  1
  B  B3  1  0.65006900  0.15023000  0.50000000  1
  B  B4  1  0.15023000  0.34993100  0.50000000  1
  B  B5  1  0.65006900  0.84977000  0.50000000  1
  B  B6  1  0.84977000  0.34993100  0.50000000  1
  B  B7  1  0.34993100  0.84977000  0.50000000  1
  B  B8  1  0.84977000  0.65006900  0.50000000  1
  B  B9  1  0.34993100  0.15023000  0.50000000  1
  B  B10  1  0.00000000  0.50000000  0.80025200  1
  B  B11  1  0.50000000  0.00000000  0.80025200  1
loop_
_geom_bond_atom_site_label_1
_geom_bond_atom_site_label_2
_geom_bond_distance
_geom_bond_site_symmetry_2
B0 B10 1.641257 1_554
B0 B4 1.745075 1_555
B0 B8 1.745075 1_455
B0 B2 1.745075 1_555
B0 B6 1.745075 1_455
B0 Eu0 3.020185 1_555
B0 Tm0 3.020185 1_555
B0 Eu0 3.020185 1_565
B0 Tm0 3.020185 1_455
B1 B11 1.641257 1_554
B1 B7 1.745075 1_545
B1 B9 1.745075 1_555
B1 B5 1.745075 1_545
B1 B3 1.745075 1_555
B1 Eu0 3.020185 1_555
B1 Eu0 3.020185 1_655
B1 Tm0 3.020185 1_555
B1 Tm0 3.020185 1_545
B2 B7 1.641740 1_555
B2 B4 1.744738 1_555
B2 B8 1.746610 1_455
B2 Tm0 3.019060 1_556
B2 Tm0 3.019060 1_555
B2 Eu0 3.019961 1_566
B2 Eu0 3.019961 1_565
B3 B6 1.641740 1_555
B3 B9 1.744738 1_555
B3 B5 1.746610 1_545
B3 Tm0 3.019060 1_556
B3 Tm0 3.019060 1_555
B3 Eu0 3.019961 1_655
B3 Eu0 3.019961 1_656
B4 B9 1.641740 1_555
B4 B6 1.746610 1_455
B4 Tm0 3.019060 1_556
B4 Tm0 3.019060 1_555
B4 Eu0 3.019961 1_556
B4 Eu0 3.019961 1_555
B5 B8 1.641740 1_555
B5 B7 1.744738 1_555
B5 Tm0 3.019060 1_556
B5 Tm0 3.019060 1_555
B5 Eu0 3.019961 1_665
B5 Eu0 3.019961 1_666
B6 B8 1.744738 1_555
B6 Tm0 3.019060 1_556
B6 Tm0 3.019060 1_555
B6 Eu0 3.019961 1_655
B6 Eu0 3.019961 1_656
B7 B9 1.746610 1_565
B7 Tm0 3.019060 1_556
B7 Tm0 3.019060 1_555
B7 Eu0 3.019961 1_566
B7 Eu0 3.019961 1_565
B8 Tm0 3.019060 1_556
B8 Tm0 3.019060 1_555
B8 Eu0 3.019961 1_665
B8 Eu0 3.019961 1_666
B9 Tm0 3.019060 1_556
B9 Tm0 3.019060 1_555
B9 Eu0 3.019961 1_556
B9 Eu0 3.019961 1_555
B10 B8 1.745075 1_455
B10 B6 1.745075 1_455
B10 B4 1.745075 1_555
B10 B2 1.745075 1_555
B10 Tm0 3.020185 1_556
B10 Tm0 3.020185 1_456
B10 Eu0 3.020185 1_556
B10 Eu0 3.020185 1_566
B11 B7 1.745075 1_545
B11 B5 1.745075 1_545
B11 B9 1.745075 1_555
B11 B3 1.745075 1_555
B11 Tm0 3.020185 1_556
B11 Eu0 3.020185 1_556
B11 Tm0 3.020185 1_546
B11 Eu0 3.020185 1_656
