# generated using pymatgen
data_Co2As2O7
_symmetry_space_group_name_H-M   'P 1'
_cell_length_a   4.81219631
_cell_length_b   6.39409859
_cell_length_c   8.56904430
_cell_angle_alpha   89.55432833
_cell_angle_beta   89.86521939
_cell_angle_gamma   101.80083315
_symmetry_Int_Tables_number   1
_chemical_formula_structural   Co2As2O7
_chemical_formula_sum   'Co4 As4 O14'
_cell_volume   258.08391050
_cell_formula_units_Z   2
loop_
 _symmetry_equiv_pos_site_id
 _symmetry_equiv_pos_as_xyz
  1  'x, y, z'
loop_
 _atom_site_type_symbol
 _atom_site_label
 _atom_site_symmetry_multiplicity
 _atom_site_fract_x
 _atom_site_fract_y
 _atom_site_fract_z
 _atom_site_occupancy
  Co  Co0  1  0.49418737  0.00151506  0.31026443  1
  Co  Co1  1  0.49032035  0.00573333  0.69359293  1
  Co  Co2  1  0.49410382  0.49707020  0.81381526  1
  Co  Co3  1  0.49124986  0.50705370  0.19587743  1
  As  As0  1  0.10108292  0.74566664  0.99893804  1
  As  As1  1  0.09869878  0.24372199  0.49820960  1
  As  As2  1  0.90260390  0.22121225  0.00119556  1
  As  As3  1  0.90227725  0.72008345  0.50104263  1
  O  O0  1  0.08119547  0.51779265  0.48795262  1
  O  O1  1  0.08308566  0.01944810  0.98952732  1
  O  O2  1  0.75232548  0.62308829  0.00305487  1
  O  O3  1  0.74825288  0.12286960  0.50233765  1
  O  O4  1  0.19762264  0.42431009  0.00114756  1
  O  O5  1  0.19592785  0.92450791  0.50111674  1
  O  O6  1  0.28268973  0.75284110  0.82704995  1
  O  O7  1  0.28199287  0.25274856  0.32668194  1
  O  O8  1  0.28290229  0.75781315  0.16989916  1
  O  O9  1  0.28325190  0.25865353  0.66845702  1
  O  O10  1  0.70449228  0.22956476  0.83962868  1
  O  O11  1  0.70639083  0.73039840  0.33919871  1
  O  O12  1  0.71288388  0.22298988  0.16556138  1
  O  O13  1  0.71246097  0.72091337  0.66544951  1
loop_
_geom_bond_atom_site_label_1
_geom_bond_atom_site_label_2
_geom_bond_distance
_geom_bond_site_symmetry_2
Co0 O12 2.001868 1_555
Co0 O8 2.072565 1_545
Co0 O7 2.077694 1_555
Co0 O3 2.108820 1_555
Co0 O5 2.159736 1_545
Co0 O11 2.197272 1_545
Co1 O10 2.026603 1_555
Co1 O6 2.055700 1_545
Co1 O9 2.075898 1_555
Co1 O3 2.092511 1_555
Co1 O5 2.172646 1_545
Co1 O13 2.306390 1_545
Co2 O13 2.029601 1_555
Co2 O9 2.075523 1_555
Co2 O6 2.098902 1_555
Co2 O2 2.107895 1_556
Co2 O4 2.129544 1_556
Co2 O10 2.168659 1_555
Co3 O11 2.011991 1_555
Co3 O7 2.052076 1_555
Co3 O8 2.068486 1_555
Co3 O2 2.109240 1_555
Co3 O4 2.186299 1_555
Co3 O12 2.302707 1_555
As0 O2 1.701020 1_456
As0 O8 1.702270 1_556
As0 O6 1.706409 1_555
As0 O1 1.771554 1_565
As0 O4 2.197318 1_556
As1 O9 1.702849 1_555
As1 O3 1.705476 1_455
As1 O7 1.706895 1_555
As1 O0 1.773093 1_555
As1 O5 2.185280 1_545
As2 O12 1.678047 1_555
As2 O10 1.689492 1_554
As2 O1 1.699578 1_654
As2 O4 1.716930 1_655
As3 O13 1.677849 1_555
As3 O11 1.687137 1_555
As3 O0 1.698310 1_655
As3 O5 1.717534 1_655
