# generated using pymatgen
data_MgFeMoS4
_symmetry_space_group_name_H-M   'P 1'
_cell_length_a   7.25812970
_cell_length_b   7.12267940
_cell_length_c   7.13114228
_cell_angle_alpha   58.14765311
_cell_angle_beta   59.51979299
_cell_angle_gamma   59.48794396
_symmetry_Int_Tables_number   1
_chemical_formula_structural   MgFeMoS4
_chemical_formula_sum   'Mg2 Fe2 Mo2 S8'
_cell_volume   254.94891318
_cell_formula_units_Z   2
loop_
 _symmetry_equiv_pos_site_id
 _symmetry_equiv_pos_as_xyz
  1  'x, y, z'
loop_
 _atom_site_type_symbol
 _atom_site_label
 _atom_site_symmetry_multiplicity
 _atom_site_fract_x
 _atom_site_fract_y
 _atom_site_fract_z
 _atom_site_occupancy
  Mg  Mg0  1  0.87102700  0.88004000  0.88058400  1
  Mg  Mg1  1  0.12896300  0.11997600  0.11941100  1
  Fe  Fe0  1  0.49999700  0.49998300  0.50001900  1
  Fe  Fe1  1  0.00000700  0.50000500  0.49999300  1
  Mo  Mo0  1  0.49999700  0.50003700  0.99996700  1
  Mo  Mo1  1  0.49999200  0.99996300  0.50005000  1
  S  S0  1  0.75901800  0.73010600  0.72985800  1
  S  S1  1  0.25734400  0.28342600  0.70146300  1
  S  S2  1  0.25737000  0.70136300  0.28353400  1
  S  S3  1  0.71919800  0.26931300  0.26944900  1
  S  S4  1  0.74263600  0.29864900  0.71644500  1
  S  S5  1  0.28078600  0.73067600  0.73055400  1
  S  S6  1  0.24101600  0.26987600  0.27013700  1
  S  S7  1  0.74265300  0.71658100  0.29853600  1
loop_
_geom_bond_atom_site_label_1
_geom_bond_atom_site_label_2
_geom_bond_distance
_geom_bond_site_symmetry_2
Mg0 S7 2.393461 1_556
Mg0 S4 2.393766 1_565
Mg0 S5 2.425305 1_655
Mg0 S0 2.436457 1_555
Mg1 S1 2.393437 1_554
Mg1 S2 2.393786 1_545
Mg1 S3 2.425332 1_455
Mg1 S6 2.436503 1_555
Fe0 S4 2.323109 1_555
Fe0 S2 2.323307 1_555
Fe0 S1 2.323329 1_555
Fe0 S7 2.323524 1_555
Fe0 S5 2.340289 1_555
Fe0 S3 2.340354 1_555
Fe1 S2 2.321124 1_555
Fe1 S4 2.321163 1_455
Fe1 S1 2.321588 1_555
Fe1 S7 2.321624 1_455
Fe1 S0 2.334186 1_455
Fe1 S6 2.334285 1_555
Mo0 S5 2.457038 1_555
Mo0 S3 2.457316 1_556
Mo0 S0 2.460309 1_555
Mo0 S6 2.460544 1_556
Mo0 S2 2.475942 1_556
Mo0 S4 2.475985 1_555
Mo1 S5 2.455641 1_555
Mo1 S3 2.455931 1_565
Mo1 S0 2.458911 1_555
Mo1 S6 2.459152 1_565
Mo1 S1 2.474862 1_565
Mo1 S7 2.474892 1_555
