# generated using pymatgen
data_SrCa7Ti3Mn5O24
_symmetry_space_group_name_H-M   'P 1'
_cell_length_a   7.69987015
_cell_length_b   7.66953705
_cell_length_c   7.69987015
_cell_angle_alpha   89.99044992
_cell_angle_beta   90.02035855
_cell_angle_gamma   89.99044992
_symmetry_Int_Tables_number   1
_chemical_formula_structural   SrCa7Ti3Mn5O24
_chemical_formula_sum   'Sr1 Ca7 Ti3 Mn5 O24'
_cell_volume   454.71147377
_cell_formula_units_Z   1
loop_
 _symmetry_equiv_pos_site_id
 _symmetry_equiv_pos_as_xyz
  1  'x, y, z'
loop_
 _atom_site_type_symbol
 _atom_site_label
 _atom_site_symmetry_multiplicity
 _atom_site_fract_x
 _atom_site_fract_y
 _atom_site_fract_z
 _atom_site_occupancy
  Sr  Sr0  1  0.25142500  0.25455600  0.25142500  1
  Ca  Ca0  1  0.25194500  0.25667200  0.74815200  1
  Ca  Ca1  1  0.25204800  0.74400200  0.25204800  1
  Ca  Ca2  1  0.25201700  0.74317600  0.74797000  1
  Ca  Ca3  1  0.74815200  0.25667200  0.25194500  1
  Ca  Ca4  1  0.74795600  0.25664800  0.74795600  1
  Ca  Ca5  1  0.74797000  0.74317600  0.25201700  1
  Ca  Ca6  1  0.74793500  0.74329500  0.74793500  1
  Ti  Ti0  1  0.99917500  0.99863200  0.99917500  1
  Ti  Ti1  1  0.99863900  0.99879400  0.50087000  1
  Ti  Ti2  1  0.50087000  0.99879400  0.99863900  1
  Mn  Mn0  1  0.99927400  0.50032400  0.99927400  1
  Mn  Mn1  1  0.99924400  0.50010600  0.50070900  1
  Mn  Mn2  1  0.50042400  0.99907200  0.50042400  1
  Mn  Mn3  1  0.50070900  0.50010600  0.99924400  1
  Mn  Mn4  1  0.50056700  0.50064400  0.50056700  1
  O  O0  1  0.99822500  0.99825000  0.25078300  1
  O  O1  1  0.99921700  0.99926300  0.74923600  1
  O  O2  1  0.99669600  0.50396500  0.25025100  1
  O  O3  1  0.99945300  0.49996100  0.74978000  1
  O  O4  1  0.50220000  0.99786100  0.25292400  1
  O  O5  1  0.50071800  0.99925300  0.74710800  1
  O  O6  1  0.50334800  0.50357700  0.25019700  1
  O  O7  1  0.50057300  0.50034900  0.74986500  1
  O  O8  1  0.25078300  0.99825000  0.99822500  1
  O  O9  1  0.25292400  0.99786100  0.50220000  1
  O  O10  1  0.25025100  0.50396500  0.99669600  1
  O  O11  1  0.25019700  0.50357700  0.50334800  1
  O  O12  1  0.74923600  0.99926300  0.99921700  1
  O  O13  1  0.74710800  0.99925300  0.50071800  1
  O  O14  1  0.74978000  0.49996100  0.99945300  1
  O  O15  1  0.74986500  0.50034900  0.50057300  1
  O  O16  1  0.99791700  0.25359100  0.99791700  1
  O  O17  1  0.99785700  0.25314900  0.50220500  1
  O  O18  1  0.99930000  0.74641300  0.99930000  1
  O  O19  1  0.99931300  0.74698800  0.50065400  1
  O  O20  1  0.50220500  0.25314900  0.99785700  1
  O  O21  1  0.50338100  0.25029600  0.50338100  1
  O  O22  1  0.50065400  0.74698800  0.99931300  1
  O  O23  1  0.50044700  0.74980100  0.50044700  1
loop_
_geom_bond_atom_site_label_1
_geom_bond_atom_site_label_2
_geom_bond_distance
_geom_bond_site_symmetry_2
Ca0 O11 2.671691 1_555
Ca0 O7 2.675639 1_555
Ca0 O3 2.694503 1_455
Ca0 O10 2.694630 1_555
Ca0 O21 2.702829 1_555
Ca0 O20 2.721770 1_555
Ca0 O17 2.722523 1_455
Ca0 O16 2.743654 1_455
Ca0 O9 2.743694 1_545
Ca0 O5 2.750606 1_545
Ca0 O8 2.763100 1_545
Ca0 O1 2.772303 1_445
Ca1 O6 2.672700 1_555
Ca1 O11 2.672700 1_555
Ca1 O10 2.693774 1_554
Ca1 O2 2.693774 1_455
Ca1 O23 2.704777 1_555
Ca1 O19 2.730290 1_455
Ca1 O22 2.730290 1_554
Ca1 O4 2.738984 1_555
Ca1 O9 2.738984 1_555
Ca1 O18 2.751808 1_454
Ca1 O8 2.760591 1_554
Ca1 O0 2.760591 1_455
Ca2 O11 2.631720 1_555
Ca2 O10 2.651936 1_555
Ca2 O7 2.670251 1_555
Ca2 O3 2.694964 1_455
Ca2 O23 2.701243 1_555
Ca2 O9 2.719456 1_555
Ca2 O22 2.721926 1_555
Ca2 O19 2.722249 1_455
Ca2 O5 2.743294 1_555
Ca2 O18 2.744960 1_455
Ca2 O8 2.746184 1_555
Ca2 O1 2.765027 1_455
Ca3 O6 2.671691 1_555
Ca3 O15 2.675639 1_555
Ca3 O14 2.694503 1_554
Ca3 O2 2.694630 1_555
Ca3 O21 2.702829 1_555
Ca3 O17 2.721770 1_555
Ca3 O20 2.722523 1_554
Ca3 O16 2.743654 1_554
Ca3 O4 2.743694 1_545
Ca3 O13 2.750606 1_545
Ca3 O0 2.763100 1_545
Ca3 O12 2.772303 1_544
Ca4 O21 2.663225 1_555
Ca4 O15 2.668487 1_555
Ca4 O7 2.668487 1_555
Ca4 O14 2.689558 1_555
Ca4 O3 2.689558 1_555
Ca4 O20 2.699349 1_555
Ca4 O17 2.699349 1_555
Ca4 O16 2.721502 1_555
Ca4 O13 2.742707 1_545
Ca4 O5 2.742707 1_545
Ca4 O12 2.763793 1_545
Ca4 O1 2.763793 1_545
Ca5 O6 2.631720 1_555
Ca5 O2 2.651936 1_555
Ca5 O15 2.670251 1_555
Ca5 O14 2.694964 1_554
Ca5 O23 2.701243 1_555
Ca5 O4 2.719456 1_555
Ca5 O19 2.721926 1_555
Ca5 O22 2.722249 1_554
Ca5 O13 2.743294 1_555
Ca5 O18 2.744960 1_554
Ca5 O0 2.746184 1_555
Ca5 O12 2.765027 1_554
Ca6 O15 2.664761 1_555
Ca6 O7 2.664761 1_555
Ca6 O3 2.689336 1_555
Ca6 O14 2.689336 1_555
Ca6 O23 2.694933 1_555
Ca6 O22 2.715736 1_555
Ca6 O19 2.715736 1_555
Ca6 O13 2.734213 1_555
Ca6 O5 2.734213 1_555
Ca6 O18 2.736803 1_555
Ca6 O1 2.756618 1_555
Ca6 O12 2.756618 1_555
Mn0 O18 1.887389 1_555
Mn0 O16 1.892389 1_555
Mn0 O14 1.921075 1_555
Mn0 O3 1.921075 1_555
Mn0 O10 1.932806 1_655
Mn0 O2 1.932806 1_556
Mn1 O19 1.893471 1_555
Mn1 O17 1.894111 1_555
Mn1 O3 1.917815 1_555
Mn1 O15 1.920186 1_555
Mn1 O2 1.928809 1_555
Mn1 O11 1.932593 1_655
Mn2 O5 1.899436 1_555
Mn2 O13 1.899436 1_555
Mn2 O4 1.905796 1_555
Mn2 O9 1.905796 1_555
Mn2 O23 1.911793 1_555
Mn2 O21 1.927048 1_565
Mn3 O22 1.893471 1_555
Mn3 O20 1.894111 1_555
Mn3 O14 1.917815 1_555
Mn3 O7 1.920186 1_555
Mn3 O10 1.928809 1_555
Mn3 O6 1.932593 1_556
Mn4 O23 1.910919 1_555
Mn4 O15 1.919563 1_555
Mn4 O7 1.919563 1_555
Mn4 O21 1.920290 1_555
Mn4 O11 1.928071 1_555
Mn4 O6 1.928071 1_555
O0 Ti1 1.925644 1_555
O0 Ti0 1.937367 1_554
O0 Sr0 2.768832 1_665
O1 Ti1 1.912394 1_555
O1 Ti0 1.924503 1_555
O2 Sr0 2.739494 1_655
O4 Ti2 1.957996 1_554
O4 Sr0 2.757400 1_565
O5 Ti2 1.936759 1_555
O6 Sr0 2.722440 1_555
O8 Ti2 1.925644 1_555
O8 Ti0 1.937367 1_455
O8 Sr0 2.768832 1_566
O9 Ti1 1.957996 1_455
O9 Sr0 2.757400 1_565
O10 Sr0 2.739494 1_556
O11 Sr0 2.722440 1_555
O12 Ti2 1.912394 1_555
O12 Ti0 1.924503 1_555
O13 Ti1 1.936759 1_555
O16 Ti0 1.955462 1_545
O16 Sr0 2.760036 1_656
O17 Ti1 1.950822 1_545
O17 Sr0 2.746539 1_655
O18 Ti0 1.934403 1_555
O19 Ti1 1.931243 1_555
O20 Ti2 1.950822 1_545
O20 Sr0 2.746539 1_556
O21 Sr0 2.743314 1_555
O22 Ti2 1.931243 1_555
