# generated using pymatgen
data_VGe2
_symmetry_space_group_name_H-M   'P 1'
_cell_length_a   4.77424348
_cell_length_b   4.77421886
_cell_length_c   6.58402461
_cell_angle_alpha   90.00000000
_cell_angle_beta   90.00000000
_cell_angle_gamma   120.00032688
_symmetry_Int_Tables_number   1
_chemical_formula_structural   VGe2
_chemical_formula_sum   'V3 Ge6'
_cell_volume   129.96533609
_cell_formula_units_Z   3
loop_
 _symmetry_equiv_pos_site_id
 _symmetry_equiv_pos_as_xyz
  1  'x, y, z'
loop_
 _atom_site_type_symbol
 _atom_site_label
 _atom_site_symmetry_multiplicity
 _atom_site_fract_x
 _atom_site_fract_y
 _atom_site_fract_z
 _atom_site_occupancy
  V  V0  1  0.50000000  0.50000000  0.33332773  1
  V  V1  1  0.50000000  0.00000000  0.00000505  1
  V  V2  1  0.00000000  0.50000000  0.66666810  1
  Ge  Ge0  1  0.16606699  0.83394532  0.33332912  1
  Ge  Ge1  1  0.16606052  0.33212820  -0.00000152  1
  Ge  Ge2  1  0.66787017  0.83394542  0.66667246  1
  Ge  Ge3  1  0.83393301  0.16605468  0.33332912  1
  Ge  Ge4  1  0.83393948  0.66787180  -0.00000152  1
  Ge  Ge5  1  0.33212983  0.16605458  0.66667246  1
loop_
_geom_bond_atom_site_label_1
_geom_bond_atom_site_label_2
_geom_bond_distance
_geom_bond_site_symmetry_2
Ge0 Ge4 2.588868 1_455
Ge0 Ge5 2.588896 1_565
Ge0 V1 2.592803 1_565
Ge0 V2 2.592909 1_555
Ge0 Ge3 2.746389 1_465
Ge0 V0 2.753861 1_565
Ge0 V0 2.753926 1_455
Ge0 Ge3 2.761374 1_565
Ge0 V0 2.761418 1_555
Ge0 Ge3 2.761462 1_455
Ge1 Ge3 2.588868 1_455
Ge1 Ge5 2.588878 1_554
Ge1 V2 2.592838 1_554
Ge1 V0 2.592846 1_555
Ge1 Ge4 2.746422 1_445
Ge1 V1 2.753899 1_455
Ge1 V1 2.753935 1_555
Ge1 V1 2.761370 1_565
Ge1 Ge4 2.761375 1_455
Ge1 Ge4 2.761427 1_555
Ge2 Ge4 2.588878 1_556
Ge2 Ge3 2.588896 1_565
Ge2 V1 2.592834 1_566
Ge2 V0 2.592941 1_555
Ge2 Ge5 2.746450 1_665
Ge2 V2 2.753860 1_665
Ge2 V2 2.753966 1_655
Ge2 Ge5 2.761312 1_565
Ge2 V2 2.761378 1_555
Ge2 Ge5 2.761462 1_555
Ge3 V1 2.592803 1_555
Ge3 V2 2.592909 1_655
Ge3 V0 2.753861 1_545
Ge3 V0 2.753926 1_655
Ge3 V0 2.761418 1_555
Ge4 V2 2.592838 1_654
Ge4 V0 2.592846 1_555
Ge4 V1 2.753899 1_665
Ge4 V1 2.753935 1_565
Ge4 V1 2.761370 1_555
Ge5 V1 2.592834 1_556
Ge5 V0 2.592941 1_555
Ge5 V2 2.753860 1_545
Ge5 V2 2.753966 1_555
Ge5 V2 2.761378 1_655
