# generated using pymatgen
data_SrLiSnSbO6
_symmetry_space_group_name_H-M   'P 1'
_cell_length_a   5.69593931
_cell_length_b   5.69593931
_cell_length_c   5.69593931
_cell_angle_alpha   60.00000000
_cell_angle_beta   60.00000000
_cell_angle_gamma   60.00000000
_symmetry_Int_Tables_number   1
_chemical_formula_structural   SrLiSnSbO6
_chemical_formula_sum   'Sr1 Li1 Sn1 Sb1 O6'
_cell_volume   130.67155568
_cell_formula_units_Z   1
loop_
 _symmetry_equiv_pos_site_id
 _symmetry_equiv_pos_as_xyz
  1  'x, y, z'
loop_
 _atom_site_type_symbol
 _atom_site_label
 _atom_site_symmetry_multiplicity
 _atom_site_fract_x
 _atom_site_fract_y
 _atom_site_fract_z
 _atom_site_occupancy
  Sr  Sr0  1  0.25000000  0.25000000  0.25000000  1
  Li  Li0  1  0.75000000  0.75000000  0.75000000  1
  Sn  Sn0  1  0.50000000  0.50000000  0.50000000  1
  Sb  Sb0  1  -0.00000000  -0.00000000  -0.00000000  1
  O  O0  1  0.75421512  0.24578488  0.24578488  1
  O  O1  1  0.24578488  0.75421512  0.75421512  1
  O  O2  1  0.75421512  0.24578488  0.75421512  1
  O  O3  1  0.24578488  0.75421512  0.24578488  1
  O  O4  1  0.75421512  0.75421512  0.24578488  1
  O  O5  1  0.24578488  0.24578488  0.75421512  1
loop_
_geom_bond_atom_site_label_1
_geom_bond_atom_site_label_2
_geom_bond_distance
_geom_bond_site_symmetry_2
O0 Sb0 1.979865 1_655
O0 Sn0 2.047773 1_555
O0 Sr0 2.848172 1_655
O0 Sr0 2.848172 1_555
O1 Sb0 1.979865 1_566
O1 Sn0 2.047773 1_555
O1 Sr0 2.848172 1_556
O1 Sr0 2.848172 1_565
O2 Sb0 1.979865 1_656
O2 Sn0 2.047773 1_555
O2 Sr0 2.848172 1_655
O2 Sr0 2.848172 1_556
O3 Sb0 1.979865 1_565
O3 Sn0 2.047773 1_555
O3 Sr0 2.848172 1_555
O3 Sr0 2.848172 1_565
O4 Sb0 1.979865 1_665
O4 Sn0 2.047773 1_555
O4 Sr0 2.848172 1_655
O4 Sr0 2.848172 1_565
O5 Sb0 1.979865 1_556
O5 Sn0 2.047773 1_555
O5 Sr0 2.848172 1_555
O5 Sr0 2.848172 1_556
