# generated using pymatgen
data_V2Zn3(SiO4)3
_symmetry_space_group_name_H-M   'P 1'
_cell_length_a   10.30937945
_cell_length_b   10.30937945
_cell_length_c   10.30937945
_cell_angle_alpha   109.47122063
_cell_angle_beta   109.47122063
_cell_angle_gamma   109.47122063
_symmetry_Int_Tables_number   1
_chemical_formula_structural   V2Zn3(SiO4)3
_chemical_formula_sum   'V8 Zn12 Si12 O48'
_cell_volume   843.48173594
_cell_formula_units_Z   4
loop_
 _symmetry_equiv_pos_site_id
 _symmetry_equiv_pos_as_xyz
  1  'x, y, z'
loop_
 _atom_site_type_symbol
 _atom_site_label
 _atom_site_symmetry_multiplicity
 _atom_site_fract_x
 _atom_site_fract_y
 _atom_site_fract_z
 _atom_site_occupancy
  V  V0  1  0.50000000  0.00000000  0.00000000  1
  V  V1  1  0.50000000  0.50000000  0.00000000  1
  V  V2  1  0.00000000  0.50000000  0.50000000  1
  V  V3  1  0.00000000  0.00000000  0.50000000  1
  V  V4  1  0.50000000  0.50000000  0.50000000  1
  V  V5  1  0.00000000  0.50000000  0.00000000  1
  V  V6  1  0.50000000  0.00000000  0.50000000  1
  V  V7  1  0.00000000  0.00000000  0.00000000  1
  Zn  Zn0  1  0.25000000  0.37500000  0.12500000  1
  Zn  Zn1  1  0.75000000  0.12500000  0.37500000  1
  Zn  Zn2  1  0.37500000  0.12500000  0.25000000  1
  Zn  Zn3  1  0.12500000  0.37500000  0.75000000  1
  Zn  Zn4  1  0.25000000  0.87500000  0.62500000  1
  Zn  Zn5  1  0.12500000  0.25000000  0.37500000  1
  Zn  Zn6  1  0.62500000  0.25000000  0.87500000  1
  Zn  Zn7  1  0.75000000  0.62500000  0.87500000  1
  Zn  Zn8  1  0.87500000  0.75000000  0.62500000  1
  Zn  Zn9  1  0.87500000  0.62500000  0.25000000  1
  Zn  Zn10  1  0.62500000  0.87500000  0.75000000  1
  Zn  Zn11  1  0.37500000  0.75000000  0.12500000  1
  Si  Si0  1  0.12500000  0.75000000  0.87500000  1
  Si  Si1  1  0.87500000  0.25000000  0.12500000  1
  Si  Si2  1  0.75000000  0.37500000  0.62500000  1
  Si  Si3  1  0.12500000  0.87500000  0.25000000  1
  Si  Si4  1  0.25000000  0.12500000  0.87500000  1
  Si  Si5  1  0.37500000  0.62500000  0.75000000  1
  Si  Si6  1  0.37500000  0.25000000  0.62500000  1
  Si  Si7  1  0.87500000  0.12500000  0.75000000  1
  Si  Si8  1  0.62500000  0.37500000  0.25000000  1
  Si  Si9  1  0.75000000  0.87500000  0.12500000  1
  Si  Si10  1  0.25000000  0.62500000  0.37500000  1
  Si  Si11  1  0.62500000  0.75000000  0.37500000  1
  O  O0  1  0.58585300  0.89381000  0.37635600  1
  O  O1  1  0.37635600  0.58585300  0.89381000  1
  O  O2  1  0.29050300  0.30795700  0.91414700  1
  O  O3  1  0.48254600  0.60619000  0.19204300  1
  O  O4  1  0.30795700  0.89381000  0.01745400  1
  O  O5  1  0.12364400  0.01745400  0.20949700  1
  O  O6  1  0.37635600  0.29050300  0.48254600  1
  O  O7  1  0.89381000  0.37635600  0.58585300  1
  O  O8  1  0.19204300  0.20949700  0.58585300  1
  O  O9  1  0.48254600  0.37635600  0.29050300  1
  O  O10  1  0.89381000  0.01745400  0.30795700  1
  O  O11  1  0.60619000  0.91414700  0.12364400  1
  O  O12  1  0.91414700  0.12364400  0.60619000  1
  O  O13  1  0.29050300  0.48254600  0.37635600  1
  O  O14  1  0.58585300  0.19204300  0.20949700  1
  O  O15  1  0.20949700  0.58585300  0.19204300  1
  O  O16  1  0.01745400  0.30795700  0.89381000  1
  O  O17  1  0.91414700  0.29050300  0.30795700  1
  O  O18  1  0.01745400  0.20949700  0.12364400  1
  O  O19  1  0.80795700  0.79050300  0.41414700  1
  O  O20  1  0.19204300  0.48254600  0.60619000  1
  O  O21  1  0.60619000  0.19204300  0.48254600  1
  O  O22  1  0.20949700  0.12364400  0.01745400  1
  O  O23  1  0.12364400  0.60619000  0.91414700  1
  O  O24  1  0.41414700  0.10619000  0.62364400  1
  O  O25  1  0.62364400  0.41414700  0.10619000  1
  O  O26  1  0.70949700  0.69204300  0.08585300  1
  O  O27  1  0.51745400  0.39381000  0.80795700  1
  O  O28  1  0.69204300  0.10619000  0.98254600  1
  O  O29  1  0.87635600  0.98254600  0.79050300  1
  O  O30  1  0.62364400  0.70949700  0.51745400  1
  O  O31  1  0.10619000  0.62364400  0.41414700  1
  O  O32  1  0.87635600  0.39381000  0.08585300  1
  O  O33  1  0.79050300  0.87635600  0.98254600  1
  O  O34  1  0.39381000  0.80795700  0.51745400  1
  O  O35  1  0.69204300  0.08585300  0.70949700  1
  O  O36  1  0.80795700  0.51745400  0.39381000  1
  O  O37  1  0.98254600  0.79050300  0.87635600  1
  O  O38  1  0.08585300  0.70949700  0.69204300  1
  O  O39  1  0.98254600  0.69204300  0.10619000  1
  O  O40  1  0.79050300  0.41414700  0.80795700  1
  O  O41  1  0.41414700  0.80795700  0.79050300  1
  O  O42  1  0.70949700  0.51745400  0.62364400  1
  O  O43  1  0.08585300  0.87635600  0.39381000  1
  O  O44  1  0.39381000  0.08585300  0.87635600  1
  O  O45  1  0.10619000  0.98254600  0.69204300  1
  O  O46  1  0.51745400  0.62364400  0.70949700  1
  O  O47  1  0.30795700  0.91414700  0.29050300  1
loop_
_geom_bond_atom_site_label_1
_geom_bond_atom_site_label_2
_geom_bond_distance
_geom_bond_site_symmetry_2
O0 Si11 1.658310 1_555
O0 V6 2.018542 1_565
O0 Zn11 2.274471 1_555
O0 Zn1 2.427697 1_565
O1 Si5 1.658310 1_555
O1 V1 2.018542 1_556
O1 Zn3 2.274471 1_555
O1 Zn11 2.427697 1_556
O2 Si4 1.658310 1_555
O2 V1 2.018542 1_556
O2 Zn0 2.274471 1_556
O2 Zn3 2.427697 1_555
O3 Si11 1.658310 1_555
O3 V1 2.018542 1_555
O3 Zn11 2.274471 1_555
O3 Zn0 2.427697 1_555
O4 Si0 1.658310 1_554
O4 V0 2.018542 1_565
O4 Zn11 2.274471 1_555
O4 Zn2 2.427697 1_565
O5 Si3 1.658310 1_545
O5 V7 2.018542 1_555
O5 Zn2 2.274471 1_555
O5 Zn5 2.427697 1_555
O6 Si6 1.658310 1_555
O6 V4 2.018542 1_555
O6 Zn5 2.274471 1_555
O6 Zn2 2.427697 1_555
O7 Si2 1.658310 1_555
O7 V2 2.018542 1_655
O7 Zn1 2.274471 1_555
O7 Zn3 2.427697 1_655
O8 Si6 1.658310 1_555
O8 V3 2.018542 1_555
O8 Zn5 2.274471 1_555
O8 Zn3 2.427697 1_555
O9 Si8 1.658310 1_555
O9 V4 2.018542 1_555
O9 Zn2 2.274471 1_555
O9 Zn0 2.427697 1_555
O10 Si9 1.658310 1_545
O10 V3 2.018542 1_655
O10 Zn1 2.274471 1_555
O10 Zn5 2.427697 1_655
O11 Si9 1.658310 1_555
O11 V0 2.018542 1_565
O11 Zn1 2.274471 1_565
O11 Zn11 2.427697 1_555
O12 Si7 1.658310 1_555
O12 V3 2.018542 1_655
O12 Zn3 2.274471 1_655
O12 Zn1 2.427697 1_555
O13 Si10 1.658310 1_555
O13 V4 2.018542 1_555
O13 Zn0 2.274471 1_555
O13 Zn5 2.427697 1_555
O14 Si8 1.658310 1_555
O14 V0 2.018542 1_555
O14 Zn2 2.274471 1_555
O14 Zn1 2.427697 1_555
O15 Si10 1.658310 1_555
O15 V5 2.018542 1_555
O15 Zn0 2.274471 1_555
O15 Zn11 2.427697 1_555
O16 Si7 1.658310 1_455
O16 V5 2.018542 1_556
O16 Zn3 2.274471 1_555
O16 Zn0 2.427697 1_556
O17 Si1 1.658310 1_555
O17 V2 2.018542 1_655
O17 Zn5 2.274471 1_655
O17 Zn1 2.427697 1_555
O18 Si1 1.658310 1_455
O18 V7 2.018542 1_555
O18 Zn5 2.274471 1_555
O18 Zn0 2.427697 1_555
O19 Si11 1.658310 1_555
O19 V3 2.018542 1_665
O19 Zn8 2.274471 1_555
O19 Zn9 2.427697 1_555
O20 Si5 1.658310 1_555
O20 V2 2.018542 1_555
O20 Zn3 2.274471 1_555
O20 Zn5 2.427697 1_555
O21 Si2 1.658310 1_555
O21 V6 2.018542 1_555
O21 Zn1 2.274471 1_555
O21 Zn2 2.427697 1_555
O22 Si4 1.658310 1_554
O22 V7 2.018542 1_555
O22 Zn0 2.274471 1_555
O22 Zn2 2.427697 1_555
O23 Si0 1.658310 1_555
O23 V5 2.018542 1_556
O23 Zn11 2.274471 1_556
O23 Zn3 2.427697 1_555
O24 Si6 1.658310 1_555
O24 V6 2.018542 1_555
O24 Zn6 2.274471 1_555
O24 Zn4 2.427697 1_545
O25 Si8 1.658310 1_555
O25 V1 2.018542 1_555
O25 Zn9 2.274471 1_555
O25 Zn6 2.427697 1_554
O26 Si9 1.658310 1_555
O26 V1 2.018542 1_555
O26 Zn7 2.274471 1_554
O26 Zn9 2.427697 1_555
O27 Si6 1.658310 1_555
O27 V1 2.018542 1_556
O27 Zn6 2.274471 1_555
O27 Zn7 2.427697 1_555
O28 Si1 1.658310 1_556
O28 V0 2.018542 1_556
O28 Zn6 2.274471 1_555
O28 Zn10 2.427697 1_545
O29 Si7 1.658310 1_565
O29 V7 2.018542 1_666
O29 Zn10 2.274471 1_555
O29 Zn8 2.427697 1_555
O30 Si11 1.658310 1_555
O30 V4 2.018542 1_555
O30 Zn8 2.274471 1_555
O30 Zn10 2.427697 1_555
O31 Si10 1.658310 1_555
O31 V2 2.018542 1_555
O31 Zn4 2.274471 1_555
O31 Zn9 2.427697 1_455
O32 Si1 1.658310 1_555
O32 V5 2.018542 1_655
O32 Zn6 2.274471 1_554
O32 Zn9 2.427697 1_555
O33 Si9 1.658310 1_556
O33 V7 2.018542 1_666
O33 Zn7 2.274471 1_555
O33 Zn10 2.427697 1_555
O34 Si10 1.658310 1_555
O34 V6 2.018542 1_565
O34 Zn4 2.274471 1_555
O34 Zn10 2.427697 1_555
O35 Si7 1.658310 1_555
O35 V6 2.018542 1_555
O35 Zn10 2.274471 1_545
O35 Zn6 2.427697 1_555
O36 Si8 1.658310 1_555
O36 V2 2.018542 1_655
O36 Zn9 2.274471 1_555
O36 Zn8 2.427697 1_555
O37 Si0 1.658310 1_655
O37 V7 2.018542 1_666
O37 Zn8 2.274471 1_555
O37 Zn7 2.427697 1_555
O38 Si0 1.658310 1_555
O38 V2 2.018542 1_555
O38 Zn8 2.274471 1_455
O38 Zn4 2.427697 1_555
O39 Si3 1.658310 1_655
O39 V5 2.018542 1_655
O39 Zn9 2.274471 1_555
O39 Zn7 2.427697 1_554
O40 Si2 1.658310 1_555
O40 V5 2.018542 1_656
O40 Zn7 2.274471 1_555
O40 Zn6 2.427697 1_555
O41 Si5 1.658310 1_555
O41 V0 2.018542 1_566
O41 Zn10 2.274471 1_555
O41 Zn4 2.427697 1_555
O42 Si2 1.658310 1_555
O42 V4 2.018542 1_555
O42 Zn7 2.274471 1_555
O42 Zn8 2.427697 1_555
O43 Si3 1.658310 1_555
O43 V3 2.018542 1_565
O43 Zn9 2.274471 1_455
O43 Zn4 2.427697 1_555
O44 Si4 1.658310 1_555
O44 V0 2.018542 1_556
O44 Zn4 2.274471 1_545
O44 Zn6 2.427697 1_555
O45 Si4 1.658310 1_565
O45 V3 2.018542 1_565
O45 Zn4 2.274471 1_555
O45 Zn8 2.427697 1_455
O46 Si5 1.658310 1_555
O46 V4 2.018542 1_555
O46 Zn10 2.274471 1_555
O46 Zn7 2.427697 1_555
O47 Si3 1.658310 1_555
O47 V6 2.018542 1_565
O47 Zn2 2.274471 1_565
O47 Zn11 2.427697 1_555
