# generated using pymatgen
data_Sr2P3Pb3O13
_symmetry_space_group_name_H-M   'P 1'
_cell_length_a   9.89740015
_cell_length_b   9.89740015
_cell_length_c   7.42564300
_cell_angle_alpha   90.00000000
_cell_angle_beta   90.00000000
_cell_angle_gamma   120.00000098
_symmetry_Int_Tables_number   1
_chemical_formula_structural   Sr2P3Pb3O13
_chemical_formula_sum   'Sr4 P6 Pb6 O26'
_cell_volume   629.95126325
_cell_formula_units_Z   2
loop_
 _symmetry_equiv_pos_site_id
 _symmetry_equiv_pos_as_xyz
  1  'x, y, z'
loop_
 _atom_site_type_symbol
 _atom_site_label
 _atom_site_symmetry_multiplicity
 _atom_site_fract_x
 _atom_site_fract_y
 _atom_site_fract_z
 _atom_site_occupancy
  Sr  Sr0  1  0.33333300  0.66666700  0.50459300  1
  Sr  Sr1  1  0.66666700  0.33333300  0.49540700  1
  Sr  Sr2  1  0.66666700  0.33333300  0.00459300  1
  Sr  Sr3  1  0.33333300  0.66666700  0.99540700  1
  P  P0  1  0.41068300  0.03435600  0.75000000  1
  P  P1  1  0.58931700  0.96564400  0.25000000  1
  P  P2  1  0.96564400  0.37632700  0.75000000  1
  P  P3  1  0.03435600  0.62367300  0.25000000  1
  P  P4  1  0.62367300  0.58931700  0.75000000  1
  P  P5  1  0.37632700  0.41068300  0.25000000  1
  Pb  Pb0  1  0.23970800  0.23378200  0.75000000  1
  Pb  Pb1  1  0.76029200  0.76621800  0.25000000  1
  Pb  Pb2  1  0.76621800  0.00592600  0.75000000  1
  Pb  Pb3  1  0.23378200  0.99407400  0.25000000  1
  Pb  Pb4  1  0.99407400  0.76029200  0.75000000  1
  Pb  Pb5  1  0.00592600  0.23970800  0.25000000  1
  O  O0  1  0.14280000  0.49294500  0.75000000  1
  O  O1  1  0.85720000  0.50705500  0.25000000  1
  O  O2  1  0.50705500  0.64985500  0.75000000  1
  O  O3  1  0.49294500  0.35014500  0.25000000  1
  O  O4  1  0.35014500  0.85720000  0.75000000  1
  O  O5  1  0.64985500  0.14280000  0.25000000  1
  O  O6  1  0.59343500  0.12836000  0.75000000  1
  O  O7  1  0.40656500  0.87164000  0.25000000  1
  O  O8  1  0.87164000  0.46507600  0.75000000  1
  O  O9  1  0.12836000  0.53492400  0.25000000  1
  O  O10  1  0.53492400  0.40656500  0.75000000  1
  O  O11  1  0.46507600  0.59343500  0.25000000  1
  O  O12  1  0.00000000  0.00000000  0.75000000  1
  O  O13  1  0.00000000  0.00000000  0.25000000  1
  O  O14  1  0.35466500  0.08820600  0.58097700  1
  O  O15  1  0.64533500  0.91179400  0.41902300  1
  O  O16  1  0.91179400  0.26645900  0.58097700  1
  O  O17  1  0.64533500  0.91179400  0.08097700  1
  O  O18  1  0.08820600  0.73354100  0.41902300  1
  O  O19  1  0.35466500  0.08820600  0.91902300  1
  O  O20  1  0.73354100  0.64533500  0.58097700  1
  O  O21  1  0.08820600  0.73354100  0.08097700  1
  O  O22  1  0.26645900  0.35466500  0.41902300  1
  O  O23  1  0.91179400  0.26645900  0.91902300  1
  O  O24  1  0.26645900  0.35466500  0.08097700  1
  O  O25  1  0.73354100  0.64533500  0.91902300  1
loop_
_geom_bond_atom_site_label_1
_geom_bond_atom_site_label_2
_geom_bond_distance
_geom_bond_site_symmetry_2
O0 P2 1.543627 1_455
O0 Sr3 2.567272 1_555
O0 Sr0 2.567272 1_555
O1 P3 1.543627 1_655
O1 Sr2 2.567272 1_555
O1 Sr1 2.567272 1_555
O2 P4 1.543627 1_555
O2 Sr3 2.567276 1_555
O2 Sr0 2.567276 1_555
O3 P5 1.543627 1_555
O3 Sr1 2.567276 1_555
O3 Sr2 2.567276 1_555
O4 P0 1.543627 1_565
O4 Sr3 2.567269 1_555
O4 Sr0 2.567269 1_555
O5 P1 1.543627 1_545
O5 Sr2 2.567269 1_555
O5 Sr1 2.567269 1_555
O6 P0 1.566656 1_555
O6 Pb2 2.542660 1_555
O6 Sr1 2.597038 1_555
O6 Sr2 2.597038 1_556
O7 P1 1.566656 1_555
O7 Pb3 2.542660 1_555
O7 Sr0 2.597038 1_555
O7 Sr3 2.597038 1_554
O8 P2 1.566665 1_555
O8 Pb4 2.542651 1_555
O8 Sr1 2.597040 1_555
O8 Sr2 2.597040 1_556
O9 P3 1.566665 1_555
O9 Pb5 2.542651 1_555
O9 Sr0 2.597040 1_555
O9 Sr3 2.597040 1_554
O10 P4 1.566656 1_555
O10 Pb0 2.542652 1_555
O10 Sr2 2.597051 1_556
O10 Sr1 2.597051 1_555
O11 P5 1.566656 1_555
O11 Pb1 2.542652 1_555
O11 Sr0 2.597051 1_555
O11 Sr3 2.597051 1_554
O12 Pb0 2.343710 1_555
O12 Pb4 2.343710 1_445
O12 Pb2 2.343710 1_455
O13 Pb1 2.343710 1_445
O13 Pb5 2.343710 1_555
O13 Pb3 2.343710 1_545
O14 P0 1.569154 1_555
O14 Pb0 2.566150 1_555
O14 Pb3 2.687962 1_545
O14 Sr1 2.886819 1_555
O15 P1 1.569154 1_555
O15 Pb1 2.566150 1_555
O15 Pb2 2.687962 1_565
O15 Sr0 2.886819 1_555
O16 P2 1.569154 1_555
O16 Pb2 2.566150 1_555
O16 Pb5 2.687962 1_655
O16 Sr1 2.886813 1_555
O17 P1 1.569154 1_555
O17 Pb1 2.566150 1_555
O17 Pb2 2.687962 1_564
O17 Sr3 2.886819 1_554
O18 P3 1.569154 1_555
O18 Pb3 2.566150 1_555
O18 Pb4 2.687962 1_455
O18 Sr0 2.886813 1_555
O19 P0 1.569154 1_555
O19 Pb0 2.566150 1_555
O19 Pb3 2.687962 1_546
O19 Sr2 2.886819 1_556
O20 P4 1.569154 1_555
O20 Pb4 2.566150 1_555
O20 Pb1 2.687962 1_555
O20 Sr1 2.886822 1_555
O21 P3 1.569154 1_555
O21 Pb3 2.566150 1_555
O21 Pb4 2.687962 1_454
O21 Sr3 2.886813 1_554
O22 P5 1.569154 1_555
O22 Pb5 2.566150 1_555
O22 Pb0 2.687962 1_555
O22 Sr0 2.886822 1_555
O23 P2 1.569154 1_555
O23 Pb2 2.566150 1_555
O23 Pb5 2.687962 1_656
O23 Sr2 2.886813 1_556
O24 P5 1.569154 1_555
O24 Pb5 2.566150 1_555
O24 Pb0 2.687962 1_554
O24 Sr3 2.886822 1_554
O25 P4 1.569154 1_555
O25 Pb4 2.566150 1_555
O25 Pb1 2.687962 1_556
O25 Sr2 2.886822 1_556
