# generated using pymatgen
data_Cu2NO6
_symmetry_space_group_name_H-M   'P 1'
_cell_length_a   5.27669668
_cell_length_b   5.79310700
_cell_length_c   7.30665250
_cell_angle_alpha   90.00000000
_cell_angle_beta   95.77346756
_cell_angle_gamma   90.00000000
_symmetry_Int_Tables_number   1
_chemical_formula_structural   Cu2NO6
_chemical_formula_sum   'Cu4 N2 O12'
_cell_volume   222.22019543
_cell_formula_units_Z   2
loop_
 _symmetry_equiv_pos_site_id
 _symmetry_equiv_pos_as_xyz
  1  'x, y, z'
loop_
 _atom_site_type_symbol
 _atom_site_label
 _atom_site_symmetry_multiplicity
 _atom_site_fract_x
 _atom_site_fract_y
 _atom_site_fract_z
 _atom_site_occupancy
  Cu  Cu0  1  0.49987500  0.29884400  0.00205200  1
  Cu  Cu1  1  0.50012500  0.79884400  0.99794800  1
  Cu  Cu2  1  0.99973100  0.04893000  0.00200700  1
  Cu  Cu3  1  0.00026900  0.54893000  0.99799300  1
  N  N0  1  0.74837500  0.83512000  0.44885400  1
  N  N1  1  0.25162500  0.33512000  0.55114600  1
  O  O0  1  0.83763800  0.29730700  0.86903700  1
  O  O1  1  0.16236200  0.79730700  0.13096300  1
  O  O2  1  0.32181000  0.54655600  0.86787200  1
  O  O3  1  0.67819000  0.04655600  0.13212800  1
  O  O4  1  0.67602700  0.55075300  0.12333500  1
  O  O5  1  0.32397300  0.05075300  0.87666500  1
  O  O6  1  0.82509400  0.80216100  0.86150000  1
  O  O7  1  0.17490600  0.30216100  0.13850000  1
  O  O8  1  0.93217700  0.93277600  0.51809700  1
  O  O9  1  0.06782300  0.43277600  0.48190300  1
  O  O10  1  0.59205900  0.70495500  0.49575600  1
  O  O11  1  0.40794100  0.20495500  0.50424400  1
loop_
_geom_bond_atom_site_label_1
_geom_bond_atom_site_label_2
_geom_bond_distance
_geom_bond_site_symmetry_2
Cu0 O5 1.896148 1_554
Cu0 O4 1.900846 1_555
Cu0 O2 1.928209 1_554
Cu0 O3 1.935142 1_555
Cu0 O7 2.068502 1_555
Cu0 O0 2.114156 1_554
Cu1 O4 1.896148 1_556
Cu1 O5 1.900846 1_565
Cu1 O3 1.928209 1_566
Cu1 O2 1.935142 1_555
Cu1 O6 2.068502 1_555
Cu1 O1 2.114156 1_556
Cu2 O0 1.891739 1_554
Cu2 O1 1.893776 1_645
Cu2 O6 1.938158 1_544
Cu2 O7 1.953366 1_655
Cu2 O5 2.020242 1_654
Cu2 O3 2.026662 1_555
Cu3 O1 1.891739 1_556
Cu3 O0 1.893776 1_455
Cu3 O7 1.938158 1_556
Cu3 O6 1.953366 1_455
Cu3 O4 2.020242 1_456
Cu3 O2 2.026662 1_555
N0 O8 1.190774 1_555
N0 O10 1.193007 1_555
N1 O9 1.190774 1_555
N1 O11 1.193007 1_555
