# generated using pymatgen
data_Eu2Zn2CuP3
_symmetry_space_group_name_H-M   'P 1'
_cell_length_a   4.09391441
_cell_length_b   4.09391441
_cell_length_c   21.92578800
_cell_angle_alpha   90.00000000
_cell_angle_beta   90.00000000
_cell_angle_gamma   120.00000665
_symmetry_Int_Tables_number   1
_chemical_formula_structural   Eu2Zn2CuP3
_chemical_formula_sum   'Eu4 Zn4 Cu2 P6'
_cell_volume   318.24627649
_cell_formula_units_Z   2
loop_
 _symmetry_equiv_pos_site_id
 _symmetry_equiv_pos_as_xyz
  1  'x, y, z'
loop_
 _atom_site_type_symbol
 _atom_site_label
 _atom_site_symmetry_multiplicity
 _atom_site_fract_x
 _atom_site_fract_y
 _atom_site_fract_z
 _atom_site_occupancy
  Eu  Eu0  1  0.00000000  0.00000000  0.15763400  1
  Eu  Eu1  1  0.00000000  0.00000000  0.84236600  1
  Eu  Eu2  1  0.00000000  0.00000000  0.65763400  1
  Eu  Eu3  1  0.00000000  0.00000000  0.34236600  1
  Zn  Zn0  1  0.33333300  0.66666700  0.54206900  1
  Zn  Zn1  1  0.66666700  0.33333300  0.45793100  1
  Zn  Zn2  1  0.66666700  0.33333300  0.04206900  1
  Zn  Zn3  1  0.33333300  0.66666700  0.95793100  1
  Cu  Cu0  1  0.33333300  0.66666700  0.25000000  1
  Cu  Cu1  1  0.66666700  0.33333300  0.75000000  1
  P  P0  1  0.33333300  0.66666700  0.75000000  1
  P  P1  1  0.66666700  0.33333300  0.25000000  1
  P  P2  1  0.33333300  0.66666700  0.07432500  1
  P  P3  1  0.66666700  0.33333300  0.92567500  1
  P  P4  1  0.66666700  0.33333300  0.57432500  1
  P  P5  1  0.33333300  0.66666700  0.42567500  1
loop_
_geom_bond_atom_site_label_1
_geom_bond_atom_site_label_2
_geom_bond_distance
_geom_bond_site_symmetry_2
Eu0 P2 2.987177 1_545
Eu0 P2 2.987179 1_555
Eu0 P2 2.987179 1_445
Eu0 P1 3.112575 1_455
Eu0 P1 3.112578 1_445
Eu0 P1 3.112578 1_555
Eu1 P3 2.987177 1_455
Eu1 P3 2.987179 1_445
Eu1 P3 2.987179 1_555
Eu1 P0 3.112575 1_545
Eu1 P0 3.112578 1_555
Eu1 P0 3.112578 1_445
Eu2 P4 2.987177 1_455
Eu2 P4 2.987179 1_445
Eu2 P4 2.987179 1_555
Eu2 P0 3.112575 1_545
Eu2 P0 3.112578 1_555
Eu2 P0 3.112578 1_445
Eu3 P5 2.987177 1_545
Eu3 P5 2.987179 1_445
Eu3 P5 2.987179 1_555
Eu3 P1 3.112575 1_455
Eu3 P1 3.112578 1_445
Eu3 P1 3.112578 1_555
Cu0 P1 2.363620 1_455
Cu0 P1 2.363620 1_565
Cu0 P1 2.363627 1_555
Cu0 Eu0 3.112575 1_565
Cu0 Eu3 3.112575 1_565
Cu0 Eu0 3.112578 1_665
Cu0 Eu3 3.112578 1_665
Cu0 Eu0 3.112578 1_555
Cu0 Eu3 3.112578 1_555
Cu1 P0 2.363620 1_545
Cu1 P0 2.363620 1_655
Cu1 P0 2.363627 1_555
Cu1 Eu1 3.112575 1_655
Cu1 Eu2 3.112575 1_655
Cu1 Eu1 3.112578 1_665
Cu1 Eu1 3.112578 1_555
Cu1 Eu2 3.112578 1_665
Cu1 Eu2 3.112578 1_555
P2 Zn2 2.467161 1_455
P2 Zn2 2.467161 1_565
P2 Zn2 2.467168 1_555
P2 Zn3 2.552030 1_554
P3 Zn3 2.467161 1_545
P3 Zn3 2.467161 1_655
P3 Zn3 2.467168 1_555
P3 Zn2 2.552030 1_556
P4 Zn0 2.467161 1_655
P4 Zn0 2.467161 1_545
P4 Zn0 2.467168 1_555
P4 Zn1 2.552030 1_555
P5 Zn1 2.467161 1_455
P5 Zn1 2.467161 1_565
P5 Zn1 2.467168 1_555
P5 Zn0 2.552030 1_555
