# generated using pymatgen
data_Li2CoP2O7
_symmetry_space_group_name_H-M   'P 1'
_cell_length_a   4.81573930
_cell_length_b   11.79341155
_cell_length_c   9.21891405
_cell_angle_alpha   95.22749022
_cell_angle_beta   90.04396308
_cell_angle_gamma   89.98390731
_symmetry_Int_Tables_number   1
_chemical_formula_structural   Li2CoP2O7
_chemical_formula_sum   'Li8 Co4 P8 O28'
_cell_volume   521.40112779
_cell_formula_units_Z   4
loop_
 _symmetry_equiv_pos_site_id
 _symmetry_equiv_pos_as_xyz
  1  'x, y, z'
loop_
 _atom_site_type_symbol
 _atom_site_label
 _atom_site_symmetry_multiplicity
 _atom_site_fract_x
 _atom_site_fract_y
 _atom_site_fract_z
 _atom_site_occupancy
  Li  Li0  1  0.72765700  0.16061800  0.64685000  1
  Li  Li1  1  0.22919900  0.16206900  0.14606100  1
  Li  Li2  1  0.24491900  0.30959000  0.84908500  1
  Li  Li3  1  0.74721300  0.30704600  0.34688300  1
  Li  Li4  1  0.76144200  0.67447200  0.15000500  1
  Li  Li5  1  0.27126500  0.66507600  0.64701400  1
  Li  Li6  1  0.25347000  0.80652300  0.34689700  1
  Li  Li7  1  0.75494600  0.80628000  0.84618200  1
  Co  Co0  1  0.25024800  0.99566500  0.74946200  1
  Co  Co1  1  0.25167100  0.49706400  0.24829200  1
  Co  Co2  1  0.75189700  0.99788300  0.24911900  1
  Co  Co3  1  0.75180300  0.49656400  0.74819800  1
  P  P0  1  0.28855700  0.87119700  0.05296200  1
  P  P1  1  0.78671100  0.87244400  0.55274700  1
  P  P2  1  0.28358300  0.63216900  0.94613300  1
  P  P3  1  0.78271600  0.63294800  0.44672500  1
  P  P4  1  0.71479100  0.37269900  0.05354900  1
  P  P5  1  0.21384000  0.37240600  0.55377000  1
  P  P6  1  0.72061000  0.13337900  0.94731600  1
  P  P7  1  0.21895300  0.13286200  0.44693800  1
  O  O0  1  0.10812700  0.75299300  0.99967100  1
  O  O1  1  0.60742400  0.75318300  0.50147800  1
  O  O2  1  0.89394200  0.25361300  0.00131400  1
  O  O3  1  0.39248500  0.25279400  0.50219400  1
  O  O4  1  0.09034900  0.09735900  0.58738300  1
  O  O5  1  0.59364300  0.09901500  0.08862500  1
  O  O6  1  0.57873600  0.40289300  0.91192500  1
  O  O7  1  0.07887000  0.40203600  0.41169300  1
  O  O8  1  0.41083700  0.59930200  0.08810300  1
  O  O9  1  0.91132100  0.59908500  0.58798500  1
  O  O10  1  0.92178300  0.90171600  0.41084100  1
  O  O11  1  0.42476700  0.90278300  0.91209200  1
  O  O12  1  0.50511500  0.66318000  0.83470600  1
  O  O13  1  0.00299400  0.66362000  0.33469000  1
  O  O14  1  0.50288400  0.83824300  0.16719400  1
  O  O15  1  0.00006500  0.84079700  0.66796000  1
  O  O16  1  0.49909700  0.16278600  0.83535900  1
  O  O17  1  0.99784200  0.16276700  0.33457200  1
  O  O18  1  0.50167700  0.34070300  0.16851200  1
  O  O19  1  0.00076800  0.34063700  0.66890200  1
  O  O20  1  0.06251400  0.55644200  0.87550600  1
  O  O21  1  0.55962700  0.55763900  0.37702200  1
  O  O22  1  0.07322100  0.95305700  0.11930200  1
  O  O23  1  0.57039000  0.95433700  0.61729000  1
  O  O24  1  0.94614500  0.05892000  0.87882600  1
  O  O25  1  0.44311200  0.05819200  0.37687100  1
  O  O26  1  0.93270500  0.45413500  0.11796400  1
  O  O27  1  0.43121900  0.45439200  0.61798700  1
loop_
_geom_bond_atom_site_label_1
_geom_bond_atom_site_label_2
_geom_bond_distance
_geom_bond_site_symmetry_2
Li0 O4 1.958073 1_655
Li0 O16 2.055992 1_555
Li0 O3 2.413572 1_555
Li0 O19 2.490174 1_655
Li0 O23 2.538911 1_545
Li1 O5 1.960241 1_555
Li1 O17 2.064449 1_455
Li1 O2 2.410622 1_455
Li1 O18 2.474782 1_555
Li1 O22 2.567310 1_545
Li2 O6 2.003524 1_555
Li2 O19 2.093636 1_555
Li2 O16 2.114455 1_555
Li2 O2 2.331354 1_456
Li3 O7 2.010098 1_655
Li3 O17 2.080566 1_555
Li3 O18 2.091748 1_555
Li3 O3 2.355615 1_555
Li4 O8 1.967107 1_555
Li4 O13 2.074837 1_655
Li4 O14 2.291084 1_555
Li4 O0 2.409140 1_654
Li5 O9 1.956687 1_455
Li5 O12 2.065618 1_555
Li5 O1 2.399752 1_555
Li5 O15 2.442044 1_555
Li5 O27 2.591660 1_555
Li6 O10 2.009755 1_455
Li6 O13 2.067439 1_555
Li6 O14 2.107935 1_555
Li6 O1 2.343300 1_555
Li7 O11 2.016731 1_555
Li7 O12 2.067661 1_555
Li7 O15 2.093737 1_655
Li7 O0 2.334035 1_655
Co0 O24 1.990840 1_465
Co0 O23 1.998349 1_555
Co0 O11 2.109705 1_555
Co0 O4 2.142005 1_565
Co0 O15 2.258700 1_555
Co0 O16 2.379756 1_565
Co1 O26 1.986483 1_455
Co1 O21 1.990359 1_555
Co1 O7 2.127846 1_555
Co1 O8 2.132811 1_555
Co1 O18 2.268014 1_555
Co1 O13 2.375278 1_555
Co2 O25 1.988376 1_565
Co2 O22 1.998328 1_655
Co2 O10 2.117571 1_555
Co2 O5 2.124101 1_565
Co2 O14 2.300823 1_555
Co2 O17 2.350617 1_565
Co3 O27 1.990125 1_555
Co3 O20 1.990453 1_655
Co3 O6 2.121208 1_555
Co3 O9 2.135685 1_555
Co3 O19 2.260226 1_655
Co3 O12 2.371293 1_555
O0 P0 1.677766 1_556
O0 P2 1.691086 1_555
O1 P1 1.681070 1_555
O1 P3 1.687489 1_555
O2 P4 1.680882 1_555
O2 P6 1.681252 1_554
O3 P7 1.681406 1_555
O3 P5 1.683395 1_555
O4 P7 1.528205 1_555
O5 P6 1.527329 1_554
O6 P4 1.531016 1_556
O7 P5 1.530397 1_555
O8 P2 1.526387 1_554
O9 P3 1.527200 1_555
O10 P1 1.528873 1_555
O11 P0 1.531395 1_556
O12 P2 1.548378 1_555
O13 P3 1.546895 1_455
O14 P0 1.548565 1_555
O15 P1 1.547078 1_455
O16 P6 1.544938 1_555
O17 P7 1.547887 1_655
O18 P4 1.547156 1_555
O19 P5 1.547306 1_555
O20 P2 1.499478 1_555
O21 P3 1.500470 1_555
O22 P0 1.508059 1_555
O23 P1 1.505893 1_555
O24 P6 1.499637 1_555
O25 P7 1.501635 1_555
O26 P4 1.507311 1_555
O27 P5 1.508824 1_555
