# generated using pymatgen
data_Ca2SnN2
_symmetry_space_group_name_H-M   'P 1'
_cell_length_a   6.19494953
_cell_length_b   6.19494953
_cell_length_c   12.13042800
_cell_angle_alpha   90.00000000
_cell_angle_beta   90.00000000
_cell_angle_gamma   131.08566149
_symmetry_Int_Tables_number   1
_chemical_formula_structural   Ca2SnN2
_chemical_formula_sum   'Ca8 Sn4 N8'
_cell_volume   350.88616863
_cell_formula_units_Z   4
loop_
 _symmetry_equiv_pos_site_id
 _symmetry_equiv_pos_as_xyz
  1  'x, y, z'
loop_
 _atom_site_type_symbol
 _atom_site_label
 _atom_site_symmetry_multiplicity
 _atom_site_fract_x
 _atom_site_fract_y
 _atom_site_fract_z
 _atom_site_occupancy
  Ca  Ca0  1  0.53930000  0.46070000  0.86244500  1
  Ca  Ca1  1  0.46070000  0.53930000  0.13755500  1
  Ca  Ca2  1  0.96070000  0.03930000  0.36244500  1
  Ca  Ca3  1  0.03930000  0.96070000  0.63755500  1
  Ca  Ca4  1  0.86162800  0.13837200  0.95417400  1
  Ca  Ca5  1  0.13837200  0.86162800  0.04582600  1
  Ca  Ca6  1  0.63837200  0.36162800  0.45417400  1
  Ca  Ca7  1  0.36162800  0.63837200  0.54582600  1
  Sn  Sn0  1  0.74291600  0.25708400  0.68557200  1
  Sn  Sn1  1  0.25708400  0.74291600  0.31442800  1
  Sn  Sn2  1  0.75708400  0.24291600  0.18557200  1
  Sn  Sn3  1  0.24291600  0.75708400  0.81442800  1
  N  N0  1  0.56166200  0.43833800  0.64055600  1
  N  N1  1  0.43833800  0.56166200  0.35944400  1
  N  N2  1  0.93833800  0.06166200  0.14055600  1
  N  N3  1  0.06166200  0.93833800  0.85944400  1
  N  N4  1  0.84884300  0.15115700  0.54527100  1
  N  N5  1  0.15115700  0.84884300  0.45472900  1
  N  N6  1  0.65115700  0.34884300  0.04527100  1
  N  N7  1  0.34884300  0.65115700  0.95472900  1
loop_
_geom_bond_atom_site_label_1
_geom_bond_atom_site_label_2
_geom_bond_distance
_geom_bond_site_symmetry_2
Ca0 N7 2.422206 1_555
Ca0 N6 2.551458 1_556
Ca0 N3 2.577416 1_655
Ca0 N3 2.577416 1_545
Ca0 N0 2.703398 1_555
Ca1 N6 2.422206 1_555
Ca1 N7 2.551458 1_554
Ca1 N2 2.577416 1_565
Ca1 N2 2.577416 1_455
Ca1 N1 2.703398 1_555
Ca2 N5 2.422206 1_645
Ca2 N4 2.551458 1_555
Ca2 N1 2.577416 1_545
Ca2 N1 2.577416 1_655
Ca2 N2 2.703398 1_555
Ca3 N4 2.422206 1_465
Ca3 N5 2.551458 1_555
Ca3 N0 2.577416 1_565
Ca3 N0 2.577416 1_455
Ca3 N3 2.703398 1_555
Ca4 N2 2.420769 1_556
Ca4 N3 2.531813 1_645
Ca4 N7 2.568848 1_655
Ca4 N7 2.568848 1_545
Ca4 N6 2.618340 1_556
Ca5 N3 2.420769 1_554
Ca5 N2 2.531813 1_465
Ca5 N6 2.568848 1_565
Ca5 N6 2.568848 1_455
Ca5 N7 2.618340 1_554
Ca6 N0 2.420769 1_555
Ca6 N1 2.531813 1_555
Ca6 N5 2.568848 1_655
Ca6 N5 2.568848 1_545
Ca6 N4 2.618340 1_555
Ca7 N1 2.420769 1_555
Ca7 N0 2.531813 1_555
Ca7 N4 2.568848 1_565
Ca7 N4 2.568848 1_455
Ca7 N5 2.618340 1_555
N0 Sn0 2.115890 1_555
N1 Sn1 2.115890 1_555
N2 Sn2 2.115890 1_555
N3 Sn3 2.115890 1_555
N4 Sn0 2.079356 1_555
N5 Sn1 2.079356 1_555
N6 Sn2 2.079356 1_555
N7 Sn3 2.079356 1_555
