# generated using pymatgen
data_NaCr(PS3)2
_symmetry_space_group_name_H-M   'P 1'
_cell_length_a   11.88784434
_cell_length_b   11.26207064
_cell_length_c   6.94543281
_cell_angle_alpha   77.54027369
_cell_angle_beta   67.67557670
_cell_angle_gamma   34.78414961
_symmetry_Int_Tables_number   1
_chemical_formula_structural   NaCr(PS3)2
_chemical_formula_sum   'Na2 Cr2 P4 S12'
_cell_volume   482.49024828
_cell_formula_units_Z   2
loop_
 _symmetry_equiv_pos_site_id
 _symmetry_equiv_pos_as_xyz
  1  'x, y, z'
loop_
 _atom_site_type_symbol
 _atom_site_label
 _atom_site_symmetry_multiplicity
 _atom_site_fract_x
 _atom_site_fract_y
 _atom_site_fract_z
 _atom_site_occupancy
  Na  Na0  1  0.33506000  0.33506000  0.66494000  1
  Na  Na1  1  0.58506000  0.58506000  0.91494000  1
  Cr  Cr0  1  0.99969900  0.99969900  0.00030100  1
  Cr  Cr1  1  0.24969900  0.24969900  0.25030100  1
  P  P0  1  0.10876600  0.21312400  0.00899000  1
  P  P1  1  0.21312400  0.10876600  0.66912000  1
  P  P2  1  0.24101000  0.58088000  0.14123400  1
  P  P3  1  0.58088000  0.24101000  0.03687600  1
  S  S0  1  0.86768600  0.28556200  0.15284400  1
  S  S1  1  0.28556200  0.86768600  0.69390800  1
  S  S2  1  0.09715600  0.55609200  0.38231400  1
  S  S3  1  0.55609200  0.09715600  0.96443800  1
  S  S4  1  0.01240100  0.46324300  0.05303700  1
  S  S5  1  0.46324300  0.01240100  0.47131900  1
  S  S6  1  0.19696300  0.77868100  0.23759900  1
  S  S7  1  0.77868100  0.19696300  0.78675700  1
  S  S8  1  0.36727600  0.97395300  0.09533600  1
  S  S9  1  0.97395300  0.36727600  0.56343500  1
  S  S10  1  0.15466400  0.68656500  0.88272400  1
  S  S11  1  0.68656500  0.15466400  0.27604700  1
loop_
_geom_bond_atom_site_label_1
_geom_bond_atom_site_label_2
_geom_bond_distance
_geom_bond_site_symmetry_2
Na0 S2 2.931404 1_555
Na0 S3 2.931404 1_555
Na0 S10 2.955103 1_555
Na0 S11 2.955103 1_555
Na0 S4 2.965010 1_556
Na0 S5 2.965010 1_555
Na1 S0 2.931404 1_556
Na1 S1 2.931404 1_555
Na1 S9 2.955103 1_555
Na1 S8 2.955103 1_556
Na1 S6 2.965010 1_556
Na1 S7 2.965010 1_555
Cr0 S1 2.420643 1_654
Cr0 S0 2.420643 1_565
Cr0 S11 2.434224 1_565
Cr0 S10 2.434224 1_654
Cr0 S7 2.447285 1_564
Cr0 S6 2.447285 1_655
Cr1 S2 2.420643 1_555
Cr1 S3 2.420643 1_554
Cr1 S9 2.434224 1_455
Cr1 S8 2.434224 1_545
Cr1 S4 2.447285 1_555
Cr1 S5 2.447285 1_555
P0 S4 2.036086 1_555
P0 S8 2.040863 1_545
P0 S0 2.052607 1_455
P1 S5 2.036086 1_555
P1 S9 2.040863 1_455
P1 S1 2.052607 1_545
P2 S6 2.036086 1_555
P2 S10 2.040863 1_554
P2 S2 2.052607 1_555
P3 S7 2.036086 1_554
P3 S11 2.040863 1_555
P3 S3 2.052607 1_554
