# generated using pymatgen
data_ErAgPb
_symmetry_space_group_name_H-M   'P 1'
_cell_length_a   4.86519676
_cell_length_b   4.86257000
_cell_length_c   7.65199601
_cell_angle_alpha   90.00000000
_cell_angle_beta   89.99723812
_cell_angle_gamma   60.01785844
_symmetry_Int_Tables_number   1
_chemical_formula_structural   ErAgPb
_chemical_formula_sum   'Er2 Ag2 Pb2'
_cell_volume   156.80133866
_cell_formula_units_Z   2
loop_
 _symmetry_equiv_pos_site_id
 _symmetry_equiv_pos_as_xyz
  1  'x, y, z'
loop_
 _atom_site_type_symbol
 _atom_site_label
 _atom_site_symmetry_multiplicity
 _atom_site_fract_x
 _atom_site_fract_y
 _atom_site_fract_z
 _atom_site_occupancy
  Er  Er0  1  0.99983800  0.00008100  0.71404900  1
  Er  Er1  1  0.00016200  0.99991900  0.28595100  1
  Ag  Ag0  1  0.33323100  0.33338400  0.51500200  1
  Ag  Ag1  1  0.66676900  0.66661600  0.48499800  1
  Pb  Pb0  1  0.66599900  0.66700000  0.07774800  1
  Pb  Pb1  1  0.33400100  0.33300000  0.92225200  1
loop_
_geom_bond_atom_site_label_1
_geom_bond_atom_site_label_2
_geom_bond_distance
_geom_bond_site_symmetry_2
Er0 Pb1 3.226599 1_555
Er0 Pb1 3.229958 1_645
Er0 Pb1 3.229961 1_655
Er1 Pb0 3.226599 1_555
Er1 Pb0 3.229958 1_465
Er1 Pb0 3.229961 1_455
Ag0 Ag1 2.817702 1_545
Ag0 Ag1 2.817710 1_555
Ag0 Ag1 2.817947 1_455
Ag0 Pb1 3.116277 1_555
Ag0 Er0 3.194476 1_455
Ag0 Er0 3.194480 1_465
Ag0 Er0 3.195591 1_555
Ag0 Er1 3.309600 1_545
Ag0 Er1 3.309603 1_555
Ag0 Er1 3.312181 1_645
Ag1 Pb0 3.116277 1_555
Ag1 Er1 3.194476 1_655
Ag1 Er1 3.194480 1_645
Ag1 Er1 3.195591 1_555
Ag1 Er0 3.309600 1_565
Ag1 Er0 3.309603 1_555
Ag1 Er0 3.312181 1_465
