# generated using pymatgen
data_Sr3ReN3
_symmetry_space_group_name_H-M   'P 1'
_cell_length_a   7.83008343
_cell_length_b   7.83008343
_cell_length_c   5.42781700
_cell_angle_alpha   90.00000000
_cell_angle_beta   90.00000000
_cell_angle_gamma   119.99999519
_symmetry_Int_Tables_number   1
_chemical_formula_structural   Sr3ReN3
_chemical_formula_sum   'Sr6 Re2 N6'
_cell_volume   288.19645123
_cell_formula_units_Z   2
loop_
 _symmetry_equiv_pos_site_id
 _symmetry_equiv_pos_as_xyz
  1  'x, y, z'
loop_
 _atom_site_type_symbol
 _atom_site_label
 _atom_site_symmetry_multiplicity
 _atom_site_fract_x
 _atom_site_fract_y
 _atom_site_fract_z
 _atom_site_occupancy
  Sr  Sr0  1  0.90223100  0.64457500  0.25000000  1
  Sr  Sr1  1  0.74234500  0.09776900  0.25000000  1
  Sr  Sr2  1  0.35542500  0.25765500  0.25000000  1
  Sr  Sr3  1  0.09776900  0.35542500  0.75000000  1
  Sr  Sr4  1  0.25765500  0.90223100  0.75000000  1
  Sr  Sr5  1  0.64457500  0.74234500  0.75000000  1
  Re  Re0  1  0.66666700  0.33333300  0.75000000  1
  Re  Re1  1  0.33333300  0.66666700  0.25000000  1
  N  N0  1  0.89196700  0.57871200  0.75000000  1
  N  N1  1  0.68674500  0.10803300  0.75000000  1
  N  N2  1  0.42128800  0.31325500  0.75000000  1
  N  N3  1  0.10803300  0.42128800  0.25000000  1
  N  N4  1  0.31325500  0.89196700  0.25000000  1
  N  N5  1  0.57871200  0.68674500  0.25000000  1
loop_
_geom_bond_atom_site_label_1
_geom_bond_atom_site_label_2
_geom_bond_distance
_geom_bond_site_symmetry_2
N0 Re0 1.847751 1_555
N0 Sr4 2.713384 1_655
N0 Sr0 2.756133 1_555
N0 Sr0 2.756133 1_556
N0 Sr5 2.806406 1_555
N0 Sr3 2.910480 1_655
N1 Re0 1.847747 1_555
N1 Sr5 2.713381 1_545
N1 Sr1 2.756135 1_556
N1 Sr1 2.756135 1_555
N1 Sr3 2.806400 1_655
N1 Sr4 2.910487 1_545
N2 Re0 1.847755 1_555
N2 Sr3 2.713388 1_555
N2 Sr2 2.756134 1_556
N2 Sr2 2.756134 1_555
N2 Sr4 2.806399 1_545
N2 Sr5 2.910486 1_555
N3 Re1 1.847751 1_555
N3 Sr1 2.713384 1_455
N3 Sr3 2.756133 1_554
N3 Sr3 2.756133 1_555
N3 Sr2 2.806406 1_555
N3 Sr0 2.910480 1_455
N4 Re1 1.847747 1_555
N4 Sr2 2.713381 1_565
N4 Sr4 2.756135 1_555
N4 Sr4 2.756135 1_554
N4 Sr0 2.806400 1_455
N4 Sr1 2.910487 1_565
N5 Re1 1.847755 1_555
N5 Sr0 2.713388 1_555
N5 Sr5 2.756134 1_555
N5 Sr5 2.756134 1_554
N5 Sr1 2.806399 1_565
N5 Sr2 2.910486 1_555
