# generated using pymatgen
data_KCaH3
_symmetry_space_group_name_H-M   'P 1'
_cell_length_a   6.31177700
_cell_length_b   6.32258500
_cell_length_c   8.93302100
_cell_angle_alpha   90.00000000
_cell_angle_beta   90.00000000
_cell_angle_gamma   90.00000000
_symmetry_Int_Tables_number   1
_chemical_formula_structural   KCaH3
_chemical_formula_sum   'K4 Ca4 H12'
_cell_volume   356.48780527
_cell_formula_units_Z   4
loop_
 _symmetry_equiv_pos_site_id
 _symmetry_equiv_pos_as_xyz
  1  'x, y, z'
loop_
 _atom_site_type_symbol
 _atom_site_label
 _atom_site_symmetry_multiplicity
 _atom_site_fract_x
 _atom_site_fract_y
 _atom_site_fract_z
 _atom_site_occupancy
  K  K0  1  0.50340300  0.51642200  0.25000000  1
  K  K1  1  0.99659700  0.01642200  0.25000000  1
  K  K2  1  0.49659700  0.48357800  0.75000000  1
  K  K3  1  0.00340300  0.98357800  0.75000000  1
  Ca  Ca0  1  0.00000000  0.50000000  0.00000000  1
  Ca  Ca1  1  0.50000000  0.00000000  0.50000000  1
  Ca  Ca2  1  0.00000000  0.50000000  0.50000000  1
  Ca  Ca3  1  0.50000000  0.00000000  0.00000000  1
  H  H0  1  0.05630300  0.48603300  0.25000000  1
  H  H1  1  0.44369700  0.98603300  0.25000000  1
  H  H2  1  0.94369700  0.51396700  0.75000000  1
  H  H3  1  0.55630300  0.01396700  0.75000000  1
  H  H4  1  0.27831900  0.72186600  0.97039800  1
  H  H5  1  0.22168100  0.22186600  0.52960200  1
  H  H6  1  0.72168100  0.27813400  0.47039800  1
  H  H7  1  0.77831900  0.77813400  0.02960200  1
  H  H8  1  0.72168100  0.27813400  0.02960200  1
  H  H9  1  0.77831900  0.77813400  0.47039800  1
  H  H10  1  0.27831900  0.72186600  0.52960200  1
  H  H11  1  0.22168100  0.22186600  0.97039800  1
loop_
_geom_bond_atom_site_label_1
_geom_bond_atom_site_label_2
_geom_bond_distance
_geom_bond_site_symmetry_2
Ca0 H7 2.262764 1_455
Ca0 H11 2.262764 1_554
Ca0 H0 2.263077 1_555
Ca0 H2 2.263077 1_454
Ca0 H8 2.263544 1_455
Ca0 H4 2.263544 1_554
Ca1 H6 2.262764 1_555
Ca1 H10 2.262764 1_545
Ca1 H3 2.263077 1_555
Ca1 H1 2.263077 1_545
Ca1 H5 2.263544 1_555
Ca1 H9 2.263544 1_545
Ca2 H9 2.262764 1_455
Ca2 H5 2.262764 1_555
Ca2 H0 2.263077 1_555
Ca2 H2 2.263077 1_455
Ca2 H10 2.263544 1_555
Ca2 H6 2.263544 1_455
Ca3 H8 2.262764 1_555
Ca3 H4 2.262764 1_544
Ca3 H3 2.263077 1_554
Ca3 H1 2.263077 1_545
Ca3 H11 2.263544 1_554
Ca3 H7 2.263544 1_545
H0 K0 2.828529 1_555
H0 K1 2.992975 1_455
H1 K1 2.828529 1_465
H1 K0 2.992975 1_555
H2 K2 2.828529 1_555
H2 K3 2.992975 1_655
H3 K3 2.828529 1_645
H3 K2 2.992975 1_555
H4 K2 2.836230 1_555
H5 K3 2.836230 1_545
H6 K0 2.836230 1_555
H7 K1 2.836230 1_565
H8 K0 2.836230 1_555
H9 K1 2.836230 1_565
H10 K2 2.836230 1_555
H11 K3 2.836230 1_545
