# generated using pymatgen
data_Ba6Nd2Y(CuO2)12
_symmetry_space_group_name_H-M   'P 1'
_cell_length_a   3.91984300
_cell_length_b   11.73870800
_cell_length_c   13.95801297
_cell_angle_alpha   81.99682869
_cell_angle_beta   90.00000000
_cell_angle_gamma   90.00000000
_symmetry_Int_Tables_number   1
_chemical_formula_structural   Ba6Nd2Y(CuO2)12
_chemical_formula_sum   'Ba6 Nd2 Y1 Cu12 O24'
_cell_volume   636.00710345
_cell_formula_units_Z   1
loop_
 _symmetry_equiv_pos_site_id
 _symmetry_equiv_pos_as_xyz
  1  'x, y, z'
loop_
 _atom_site_type_symbol
 _atom_site_label
 _atom_site_symmetry_multiplicity
 _atom_site_fract_x
 _atom_site_fract_y
 _atom_site_fract_z
 _atom_site_occupancy
  Ba  Ba0  1  0.50000000  0.28768300  0.27354200  1
  Ba  Ba1  1  0.50000000  0.62138300  0.27338800  1
  Ba  Ba2  1  0.50000000  0.95445900  0.27237100  1
  Ba  Ba3  1  0.50000000  0.04554100  0.72762900  1
  Ba  Ba4  1  0.50000000  0.37861700  0.72661200  1
  Ba  Ba5  1  0.50000000  0.71231700  0.72645800  1
  Nd  Nd0  1  0.50000000  0.66795700  0.00010800  1
  Nd  Nd1  1  0.50000000  0.33204300  0.99989200  1
  Y  Y0  1  0.50000000  0.00000000  0.00000000  1
  Cu  Cu0  1  0.00000000  0.09565400  0.42485900  1
  Cu  Cu1  1  0.00000000  0.42908200  0.42516000  1
  Cu  Cu2  1  0.00000000  0.76278800  0.42487500  1
  Cu  Cu3  1  0.00000000  0.23721200  0.57512500  1
  Cu  Cu4  1  0.00000000  0.57091800  0.57484000  1
  Cu  Cu5  1  0.00000000  0.90434600  0.57514100  1
  Cu  Cu6  1  0.00000000  0.14377800  0.12693500  1
  Cu  Cu7  1  0.00000000  0.47877200  0.12822400  1
  Cu  Cu8  1  0.00000000  0.81417600  0.12690500  1
  Cu  Cu9  1  0.00000000  0.18582400  0.87309500  1
  Cu  Cu10  1  0.00000000  0.52122800  0.87177600  1
  Cu  Cu11  1  0.00000000  0.85622200  0.87306500  1
  O  O0  1  0.00000000  0.26017600  0.43826600  1
  O  O1  1  0.00000000  0.59370100  0.43802000  1
  O  O2  1  0.00000000  0.92696700  0.43818000  1
  O  O3  1  0.00000000  0.07303300  0.56182000  1
  O  O4  1  0.00000000  0.40629900  0.56198000  1
  O  O5  1  0.00000000  0.73982400  0.56173400  1
  O  O6  1  0.50000000  0.14363900  0.10754000  1
  O  O7  1  0.50000000  0.48171500  0.11067000  1
  O  O8  1  0.50000000  0.82063800  0.10758200  1
  O  O9  1  0.50000000  0.17936200  0.89241800  1
  O  O10  1  0.50000000  0.51828500  0.88933000  1
  O  O11  1  0.50000000  0.85636100  0.89246000  1
  O  O12  1  0.00000000  0.11725900  0.29127200  1
  O  O13  1  0.00000000  0.45092200  0.29181000  1
  O  O14  1  0.00000000  0.78472700  0.29130400  1
  O  O15  1  0.00000000  0.21527300  0.70869600  1
  O  O16  1  0.00000000  0.54907800  0.70819000  1
  O  O17  1  0.00000000  0.88274100  0.70872800  1
  O  O18  1  0.00000000  0.31394800  0.11045300  1
  O  O19  1  0.00000000  0.64920400  0.11031000  1
  O  O20  1  0.00000000  0.98315700  0.10378400  1
  O  O21  1  0.00000000  0.01684300  0.89621600  1
  O  O22  1  0.00000000  0.35079600  0.88969000  1
  O  O23  1  0.00000000  0.68605200  0.88954700  1
loop_
_geom_bond_atom_site_label_1
_geom_bond_atom_site_label_2
_geom_bond_distance
_geom_bond_site_symmetry_2
Ba0 O13 2.777453 1_555
Ba0 O13 2.777453 1_655
Ba0 O12 2.786917 1_555
Ba0 O12 2.786917 1_655
Ba0 O7 2.985667 1_555
Ba0 O18 2.987123 1_555
Ba0 O18 2.987123 1_655
Ba0 O0 3.004203 1_555
Ba0 O0 3.004203 1_655
Ba0 O6 3.052676 1_555
Ba1 O14 2.777400 1_655
Ba1 O14 2.777400 1_555
Ba1 O13 2.787132 1_655
Ba1 O13 2.787132 1_555
Ba1 O7 2.980497 1_555
Ba1 O19 2.987012 1_555
Ba1 O19 2.987012 1_655
Ba1 O1 3.003243 1_555
Ba1 O1 3.003243 1_655
Ba1 O8 3.052811 1_555
Ba2 O12 2.775507 1_565
Ba2 O12 2.775507 1_665
Ba2 O14 2.781062 1_555
Ba2 O14 2.781062 1_655
Ba2 O8 2.960472 1_555
Ba2 O6 2.966853 1_565
Ba2 O2 3.015584 1_655
Ba2 O2 3.015584 1_555
Ba2 O20 3.044882 1_555
Ba2 O20 3.044882 1_655
Ba3 O17 2.775507 1_545
Ba3 O17 2.775507 1_645
Ba3 O15 2.781062 1_655
Ba3 O15 2.781062 1_555
Ba3 O9 2.960472 1_555
Ba3 O11 2.966853 1_545
Ba3 O3 3.015584 1_555
Ba3 O3 3.015584 1_655
Ba3 O21 3.044882 1_555
Ba3 O21 3.044882 1_655
Ba4 O15 2.777400 1_655
Ba4 O15 2.777400 1_555
Ba4 O16 2.787132 1_555
Ba4 O16 2.787132 1_655
Ba4 O10 2.980497 1_555
Ba4 O22 2.987012 1_555
Ba4 O22 2.987012 1_655
Ba4 O4 3.003243 1_555
Ba4 O4 3.003243 1_655
Ba4 O9 3.052811 1_555
Ba5 O16 2.777453 1_655
Ba5 O16 2.777453 1_555
Ba5 O17 2.786917 1_655
Ba5 O17 2.786917 1_555
Ba5 O10 2.985667 1_555
Ba5 O23 2.987123 1_655
Ba5 O23 2.987123 1_555
Ba5 O5 3.004203 1_555
Ba5 O5 3.004203 1_655
Ba5 O11 3.052676 1_555
Nd0 O19 2.482242 1_555
Nd0 O19 2.482242 1_655
Nd0 O23 2.485284 1_654
Nd0 O23 2.485284 1_554
Nd0 O8 2.492247 1_555
Nd0 O7 2.494338 1_555
Nd0 O11 2.494713 1_554
Nd0 O10 2.496844 1_554
Nd1 O22 2.482242 1_655
Nd1 O22 2.482242 1_555
Nd1 O18 2.485284 1_656
Nd1 O18 2.485284 1_556
Nd1 O9 2.492247 1_555
Nd1 O10 2.494338 1_555
Nd1 O6 2.494713 1_556
Nd1 O7 2.496844 1_556
Cu0 O12 1.846458 1_555
Cu0 O3 1.893084 1_555
Cu0 O2 1.962935 1_545
Cu0 O0 1.966083 1_555
Cu1 O13 1.843175 1_555
Cu1 O4 1.891136 1_555
Cu1 O1 1.965460 1_555
Cu1 O0 1.965634 1_555
Cu2 O14 1.846228 1_555
Cu2 O5 1.891678 1_555
Cu2 O2 1.961744 1_555
Cu2 O1 1.967724 1_555
Cu3 O15 1.846228 1_555
Cu3 O0 1.891678 1_555
Cu3 O3 1.961744 1_555
Cu3 O4 1.967724 1_555
Cu4 O16 1.843175 1_555
Cu4 O1 1.891136 1_555
Cu4 O4 1.965460 1_555
Cu4 O5 1.965634 1_555
Cu5 O17 1.846458 1_555
Cu5 O2 1.893084 1_555
Cu5 O3 1.962935 1_565
Cu5 O5 1.966083 1_555
Cu6 O20 1.956815 1_545
Cu6 O6 1.978561 1_455
Cu6 O6 1.978561 1_555
Cu6 O18 1.978704 1_555
Cu6 O12 2.271491 1_555
Cu7 O7 1.974883 1_455
Cu7 O7 1.974883 1_555
Cu7 O19 1.981371 1_555
Cu7 O18 1.984615 1_555
Cu7 O13 2.261115 1_555
Cu8 O20 1.964850 1_555
Cu8 O8 1.978407 1_455
Cu8 O8 1.978407 1_555
Cu8 O19 1.982125 1_555
Cu8 O14 2.272485 1_555
Cu9 O21 1.964850 1_555
Cu9 O9 1.978407 1_455
Cu9 O9 1.978407 1_555
Cu9 O22 1.982125 1_555
Cu9 O15 2.272485 1_555
Cu10 O10 1.974883 1_455
Cu10 O10 1.974883 1_555
Cu10 O22 1.981371 1_555
Cu10 O23 1.984615 1_555
Cu10 O16 2.261115 1_555
Cu11 O21 1.956815 1_565
Cu11 O11 1.978561 1_455
Cu11 O11 1.978561 1_555
Cu11 O23 1.978704 1_555
Cu11 O17 2.271491 1_555
O6 Y0 2.408517 1_555
O8 Y0 2.409887 1_565
O9 Y0 2.409887 1_556
O11 Y0 2.408517 1_566
O20 Y0 2.428811 1_565
O20 Y0 2.428811 1_465
O21 Y0 2.428811 1_556
O21 Y0 2.428811 1_456
