# generated using pymatgen
data_BaLa8Co(Si3O13)2
_symmetry_space_group_name_H-M   'P 1'
_cell_length_a   9.81295361
_cell_length_b   9.81295361
_cell_length_c   7.23802300
_cell_angle_alpha   90.00000000
_cell_angle_beta   90.00000000
_cell_angle_gamma   119.99999737
_symmetry_Int_Tables_number   1
_chemical_formula_structural   BaLa8Co(Si3O13)2
_chemical_formula_sum   'Ba1 La8 Co1 Si6 O26'
_cell_volume   603.60119865
_cell_formula_units_Z   1
loop_
 _symmetry_equiv_pos_site_id
 _symmetry_equiv_pos_as_xyz
  1  'x, y, z'
loop_
 _atom_site_type_symbol
 _atom_site_label
 _atom_site_symmetry_multiplicity
 _atom_site_fract_x
 _atom_site_fract_y
 _atom_site_fract_z
 _atom_site_occupancy
  Ba  Ba0  1  0.33333300  0.66666700  0.56774100  1
  La  La0  1  0.24141000  0.23186700  0.81882500  1
  La  La1  1  0.99045700  0.75859000  0.81882500  1
  La  La2  1  0.76813300  0.00954300  0.81882500  1
  La  La3  1  0.75816100  0.76692300  0.31467100  1
  La  La4  1  0.00876200  0.24183900  0.31467100  1
  La  La5  1  0.23307700  0.99123800  0.31467100  1
  La  La6  1  0.66666700  0.33333300  0.55706200  1
  La  La7  1  0.33333300  0.66666700  0.06655900  1
  Co  Co0  1  0.66666700  0.33333300  0.03849800  1
  Si  Si0  1  0.01914700  0.39721600  0.82728800  1
  Si  Si1  1  0.37806900  0.98085300  0.82728800  1
  Si  Si2  1  0.60278400  0.62193100  0.82728800  1
  Si  Si3  1  0.96414100  0.59722400  0.30535900  1
  Si  Si4  1  0.63308300  0.03585900  0.30535900  1
  Si  Si5  1  0.40277600  0.36691700  0.30535900  1
  O  O0  1  0.90677300  0.64579800  0.49935900  1
  O  O1  1  0.73902400  0.09322700  0.49935900  1
  O  O2  1  0.35420200  0.26097600  0.49935900  1
  O  O3  1  0.08870600  0.34240000  0.00254400  1
  O  O4  1  0.25369400  0.91129400  0.00254400  1
  O  O5  1  0.65760000  0.74630600  0.00254400  1
  O  O6  1  0.11298500  0.59103200  0.83280700  1
  O  O7  1  0.47804700  0.88701500  0.83280700  1
  O  O8  1  0.40896800  0.52195300  0.83280700  1
  O  O9  1  0.86604900  0.40354300  0.29509700  1
  O  O10  1  0.53749400  0.13395100  0.29509700  1
  O  O11  1  0.59645700  0.46250600  0.29509700  1
  O  O12  1  0.82615500  0.32084300  0.83347200  1
  O  O13  1  0.49468800  0.17384500  0.83347200  1
  O  O14  1  0.67915700  0.50531200  0.83347200  1
  O  O15  1  0.15596300  0.67411000  0.29896500  1
  O  O16  1  0.51814800  0.84403700  0.29896500  1
  O  O17  1  0.32589000  0.48185200  0.29896500  1
  O  O18  1  0.07198600  0.33339700  0.64317400  1
  O  O19  1  0.26141100  0.92801400  0.64317400  1
  O  O20  1  0.66660300  0.73858900  0.64317400  1
  O  O21  1  0.91576100  0.67899400  0.13786000  1
  O  O22  1  0.76323400  0.08423900  0.13786000  1
  O  O23  1  0.32100600  0.23676600  0.13786000  1
  O  O24  1  0.00000000  0.00000000  0.82219600  1
  O  O25  1  0.00000000  0.00000000  0.32572400  1
loop_
_geom_bond_atom_site_label_1
_geom_bond_atom_site_label_2
_geom_bond_distance
_geom_bond_site_symmetry_2
Ba0 O15 2.635619 1_555
Ba0 O16 2.635626 1_555
Ba0 O17 2.635632 1_555
Ba0 O6 2.702270 1_555
Ba0 O7 2.702271 1_555
Ba0 O8 2.702277 1_555
Ba0 O19 3.030398 1_555
Ba0 O18 3.030404 1_555
Ba0 O20 3.030407 1_555
La0 O24 2.323667 1_555
La0 O23 2.430465 1_556
La0 O8 2.477177 1_555
La0 O2 2.517386 1_555
La0 O3 2.610653 1_556
La0 O18 2.651318 1_555
La0 O13 2.815629 1_555
La1 O24 2.323666 1_665
La1 O21 2.430464 1_556
La1 O6 2.477177 1_655
La1 O0 2.517387 1_555
La1 O4 2.610653 1_656
La1 O19 2.651318 1_655
La1 O14 2.815629 1_555
La2 O24 2.323666 1_655
La2 O22 2.430462 1_556
La2 O7 2.477177 1_545
La2 O1 2.517390 1_555
La2 O5 2.610653 1_546
La2 O20 2.651318 1_545
La2 O12 2.815629 1_555
La3 O25 2.332726 1_665
La3 O5 2.432893 1_555
La3 O21 2.471523 1_555
La3 O20 2.507636 1_555
La3 O11 2.592569 1_555
La3 O0 2.657025 1_555
La3 O16 2.813348 1_555
La4 O25 2.332726 1_555
La4 O3 2.432893 1_555
La4 O22 2.471516 1_455
La4 O18 2.507636 1_555
La4 O9 2.592568 1_455
La4 O1 2.657033 1_455
La4 O17 2.813355 1_555
La5 O25 2.332726 1_565
La5 O4 2.432893 1_555
La5 O23 2.471515 1_565
La5 O19 2.507636 1_555
La5 O10 2.592569 1_565
La5 O2 2.657033 1_565
La5 O15 2.813357 1_555
La6 O9 2.559281 1_555
La6 O10 2.559282 1_555
La6 O11 2.559287 1_555
La6 O12 2.580478 1_555
La6 O13 2.580481 1_555
La6 O14 2.580484 1_555
La6 O1 2.811223 1_555
La6 O0 2.811236 1_555
La6 O2 2.811242 1_555
La7 O15 2.447763 1_555
La7 O16 2.447770 1_555
La7 O17 2.447777 1_555
La7 O6 2.546360 1_554
La7 O7 2.546361 1_554
La7 O8 2.546367 1_554
La7 O4 2.909273 1_555
La7 O3 2.909280 1_555
La7 O5 2.909282 1_555
Co0 O12 2.204183 1_554
Co0 O13 2.204187 1_554
Co0 O14 2.204190 1_554
Co0 O9 2.530640 1_555
Co0 O10 2.530641 1_555
Co0 O11 2.530646 1_555
O0 Si3 1.668579 1_555
O1 Si4 1.668574 1_555
O2 Si5 1.668574 1_555
O3 Si0 1.652735 1_554
O4 Si1 1.652735 1_554
O5 Si2 1.652735 1_554
O6 Si0 1.647860 1_555
O7 Si1 1.647860 1_555
O8 Si2 1.647860 1_555
O9 Si3 1.647674 1_555
O10 Si4 1.647674 1_555
O11 Si5 1.647674 1_555
O12 Si0 1.652548 1_655
O13 Si1 1.652548 1_545
O14 Si2 1.652548 1_555
O15 Si3 1.641463 1_455
O16 Si4 1.641462 1_565
O17 Si5 1.641454 1_555
O18 Si0 1.661818 1_555
O19 Si1 1.661818 1_555
O20 Si2 1.661818 1_555
O21 Si3 1.649244 1_555
O22 Si4 1.649250 1_555
O23 Si5 1.649249 1_555
