# generated using pymatgen
data_SrMg14CdO16
_symmetry_space_group_name_H-M   'P 1'
_cell_length_a   8.71735266
_cell_length_b   8.79055499
_cell_length_c   4.43801502
_cell_angle_alpha   90.00000000
_cell_angle_beta   90.00000000
_cell_angle_gamma   90.00000000
_symmetry_Int_Tables_number   1
_chemical_formula_structural   SrMg14CdO16
_chemical_formula_sum   'Sr1 Mg14 Cd1 O16'
_cell_volume   340.08672384
_cell_formula_units_Z   1
loop_
 _symmetry_equiv_pos_site_id
 _symmetry_equiv_pos_as_xyz
  1  'x, y, z'
loop_
 _atom_site_type_symbol
 _atom_site_label
 _atom_site_symmetry_multiplicity
 _atom_site_fract_x
 _atom_site_fract_y
 _atom_site_fract_z
 _atom_site_occupancy
  Sr  Sr0  1  -0.00000000  0.00000000  0.00000000  1
  Mg  Mg0  1  0.50000000  0.00000000  0.00000000  1
  Mg  Mg1  1  0.50000000  0.50000000  0.00000000  1
  Mg  Mg2  1  -0.00000000  0.25541486  0.50000000  1
  Mg  Mg3  1  -0.00000000  0.74458514  0.50000000  1
  Mg  Mg4  1  0.50000000  0.25081260  0.50000000  1
  Mg  Mg5  1  0.50000000  0.74918740  0.50000000  1
  Mg  Mg6  1  0.25967900  0.00000000  0.50000000  1
  Mg  Mg7  1  0.25551284  0.50000000  0.50000000  1
  Mg  Mg8  1  0.74032100  -0.00000000  0.50000000  1
  Mg  Mg9  1  0.74448716  0.50000000  0.50000000  1
  Mg  Mg10  1  0.25839183  0.25363424  0.00000000  1
  Mg  Mg11  1  0.25839183  0.74636576  0.00000000  1
  Mg  Mg12  1  0.74160817  0.25363424  -0.00000000  1
  Mg  Mg13  1  0.74160817  0.74636576  -0.00000000  1
  Cd  Cd0  1  -0.00000000  0.50000000  0.00000000  1
  O  O0  1  0.27226472  -0.00000000  0.00000000  1
  O  O1  1  0.26911231  0.50000000  0.00000000  1
  O  O2  1  0.72773528  0.00000000  -0.00000000  1
  O  O3  1  0.73088769  0.50000000  0.00000000  1
  O  O4  1  0.24961781  0.25041261  0.50000000  1
  O  O5  1  0.24961781  0.74958739  0.50000000  1
  O  O6  1  0.75038219  0.25041261  0.50000000  1
  O  O7  1  0.75038219  0.74958739  0.50000000  1
  O  O8  1  -0.00000000  0.00000000  0.50000000  1
  O  O9  1  -0.00000000  0.50000000  0.50000000  1
  O  O10  1  0.50000000  0.00000000  0.50000000  1
  O  O11  1  0.50000000  0.50000000  0.50000000  1
  O  O12  1  -0.00000000  0.25779381  0.00000000  1
  O  O13  1  -0.00000000  0.74220619  0.00000000  1
  O  O14  1  0.50000000  0.25148602  0.00000000  1
  O  O15  1  0.50000000  0.74851398  -0.00000000  1
loop_
_geom_bond_atom_site_label_1
_geom_bond_atom_site_label_2
_geom_bond_distance
_geom_bond_site_symmetry_2
Mg0 O0 1.985249 1_555
Mg0 O2 1.985249 1_555
Mg0 O15 2.210702 1_545
Mg0 O14 2.210702 1_555
Mg0 O10 2.219008 1_555
Mg0 O10 2.219008 1_554
Mg1 O3 2.012729 1_555
Mg1 O1 2.012729 1_555
Mg1 O14 2.184576 1_555
Mg1 O15 2.184576 1_555
Mg1 O11 2.219008 1_554
Mg1 O11 2.219008 1_555
Mg2 O9 2.150039 1_555
Mg2 O6 2.176451 1_455
Mg2 O4 2.176451 1_555
Mg2 O12 2.219106 1_556
Mg2 O12 2.219106 1_555
Mg2 O8 2.245238 1_555
Mg3 O9 2.150039 1_555
Mg3 O7 2.176451 1_455
Mg3 O5 2.176451 1_555
Mg3 O13 2.219106 1_555
Mg3 O13 2.219106 1_556
Mg3 O8 2.245238 1_565
Mg4 O4 2.182673 1_555
Mg4 O6 2.182673 1_555
Mg4 O11 2.190496 1_555
Mg4 O10 2.204782 1_555
Mg4 O14 2.219015 1_556
Mg4 O14 2.219015 1_555
Mg5 O5 2.182673 1_555
Mg5 O7 2.182673 1_555
Mg5 O11 2.190496 1_555
Mg5 O10 2.204782 1_565
Mg5 O15 2.219015 1_556
Mg5 O15 2.219015 1_555
Mg6 O10 2.094963 1_555
Mg6 O4 2.203012 1_555
Mg6 O5 2.203012 1_545
Mg6 O0 2.221718 1_555
Mg6 O0 2.221718 1_556
Mg6 O8 2.263713 1_555
Mg7 O11 2.131281 1_555
Mg7 O5 2.194613 1_555
Mg7 O4 2.194613 1_555
Mg7 O1 2.222172 1_555
Mg7 O1 2.222172 1_556
Mg7 O9 2.227396 1_555
Mg8 O10 2.094963 1_555
Mg8 O6 2.203012 1_555
Mg8 O7 2.203012 1_545
Mg8 O2 2.221718 1_556
Mg8 O2 2.221718 1_555
Mg8 O8 2.263713 1_655
Mg9 O11 2.131281 1_555
Mg9 O7 2.194613 1_555
Mg9 O6 2.194613 1_555
Mg9 O3 2.222172 1_556
Mg9 O3 2.222172 1_555
Mg9 O9 2.227396 1_655
Mg10 O14 2.106268 1_555
Mg10 O1 2.167707 1_555
Mg10 O4 2.220506 1_554
Mg10 O4 2.220506 1_555
Mg10 O0 2.232863 1_555
Mg10 O12 2.252789 1_555
Mg11 O15 2.106268 1_555
Mg11 O1 2.167707 1_555
Mg11 O5 2.220506 1_554
Mg11 O5 2.220506 1_555
Mg11 O0 2.232863 1_565
Mg11 O13 2.252789 1_555
Mg12 O14 2.106268 1_555
Mg12 O3 2.167707 1_555
Mg12 O6 2.220506 1_555
Mg12 O6 2.220506 1_554
Mg12 O2 2.232863 1_555
Mg12 O12 2.252789 1_655
Mg13 O15 2.106268 1_555
Mg13 O3 2.167707 1_555
Mg13 O7 2.220506 1_554
Mg13 O7 2.220506 1_555
Mg13 O2 2.232863 1_565
Mg13 O13 2.252789 1_655
Cd0 O12 2.129127 1_555
Cd0 O13 2.129127 1_555
Cd0 O9 2.219008 1_555
Cd0 O9 2.219008 1_554
Cd0 O1 2.345947 1_555
Cd0 O3 2.345947 1_455
O0 Sr0 2.373428 1_555
O2 Sr0 2.373428 1_655
O8 Sr0 2.219008 1_555
O8 Sr0 2.219008 1_556
O12 Sr0 2.266151 1_555
O13 Sr0 2.266151 1_565
