# generated using pymatgen
data_HoZn(MoO3)2
_symmetry_space_group_name_H-M   'P 1'
_cell_length_a   5.64055000
_cell_length_b   5.41899100
_cell_length_c   9.62647644
_cell_angle_alpha   56.10161452
_cell_angle_beta   90.00000000
_cell_angle_gamma   90.00000000
_symmetry_Int_Tables_number   1
_chemical_formula_structural   HoZn(MoO3)2
_chemical_formula_sum   'Ho2 Zn2 Mo4 O12'
_cell_volume   244.23054528
_cell_formula_units_Z   2
loop_
 _symmetry_equiv_pos_site_id
 _symmetry_equiv_pos_as_xyz
  1  'x, y, z'
loop_
 _atom_site_type_symbol
 _atom_site_label
 _atom_site_symmetry_multiplicity
 _atom_site_fract_x
 _atom_site_fract_y
 _atom_site_fract_z
 _atom_site_occupancy
  Ho  Ho0  1  0.31291800  0.76443400  0.24896800  1
  Ho  Ho1  1  0.68708200  0.76443400  0.74896800  1
  Zn  Zn0  1  0.75410400  0.25497300  0.25052300  1
  Zn  Zn1  1  0.24589600  0.25497300  0.75052300  1
  Mo  Mo0  1  0.76446900  0.00175100  0.99810400  1
  Mo  Mo1  1  0.75994700  0.49771300  0.50135200  1
  Mo  Mo2  1  0.23553100  0.00175100  0.49810400  1
  Mo  Mo3  1  0.24005300  0.49771300  0.00135200  1
  O  O0  1  0.82743600  0.37701900  0.75342700  1
  O  O1  1  0.06565700  0.10179200  0.06619400  1
  O  O2  1  0.07389100  0.75082900  0.43203900  1
  O  O3  1  0.56771500  0.23811900  0.07063400  1
  O  O4  1  0.55902000  0.89566700  0.43128100  1
  O  O5  1  0.30953700  0.61896500  0.74621600  1
  O  O6  1  0.17256400  0.37701900  0.25342700  1
  O  O7  1  0.93434300  0.10179200  0.56619400  1
  O  O8  1  0.92610900  0.75082900  0.93203900  1
  O  O9  1  0.44098000  0.89566700  0.93128100  1
  O  O10  1  0.43228500  0.23811900  0.57063400  1
  O  O11  1  0.69046300  0.61896500  0.24621600  1
loop_
_geom_bond_atom_site_label_1
_geom_bond_atom_site_label_2
_geom_bond_distance
_geom_bond_site_symmetry_2
Ho0 O2 2.187252 1_555
Ho0 O1 2.189771 1_565
Ho0 O6 2.221609 1_555
Ho0 O11 2.276057 1_555
Ho0 O3 2.585779 1_565
Ho0 O4 2.627738 1_555
Ho0 O9 2.820323 1_554
Ho0 O10 2.885319 1_555
Ho1 O8 2.187252 1_555
Ho1 O7 2.189771 1_565
Ho1 O0 2.221609 1_555
Ho1 O5 2.276057 1_555
Ho1 O10 2.585779 1_565
Ho1 O9 2.627738 1_555
Ho1 O4 2.820323 1_555
Ho1 O3 2.885319 1_556
Mo0 O1 2.001510 1_656
Mo0 O8 2.012269 1_545
Mo0 O3 2.087428 1_556
Mo0 O0 2.113429 1_555
Mo0 O9 2.118047 1_545
Mo0 O11 2.157629 1_546
Mo1 O2 2.107490 1_655
Mo1 O7 2.113430 1_555
Mo1 O0 2.165810 1_555
Mo1 O4 2.183441 1_555
Mo1 O10 2.189297 1_555
Mo1 O11 2.194877 1_555
Mo2 O7 2.001510 1_455
Mo2 O2 2.012269 1_545
Mo2 O10 2.087428 1_555
Mo2 O6 2.113429 1_555
Mo2 O4 2.118047 1_545
Mo2 O5 2.157629 1_545
Mo3 O8 2.107490 1_454
Mo3 O1 2.113430 1_555
Mo3 O6 2.165810 1_555
Mo3 O9 2.183441 1_554
Mo3 O3 2.189297 1_555
Mo3 O5 2.194877 1_554
O0 Zn1 2.455613 1_655
O3 Zn0 2.070952 1_555
O4 Zn0 2.061699 1_565
O5 Zn1 1.982421 1_555
O6 Zn0 2.455613 1_455
O9 Zn1 2.061699 1_565
O10 Zn1 2.070952 1_555
O11 Zn0 1.982421 1_555
