# generated using pymatgen
data_SrMg14Co
_symmetry_space_group_name_H-M   'P 1'
_cell_length_a   6.42535690
_cell_length_b   6.42535637
_cell_length_c   10.42731954
_cell_angle_alpha   90.00000000
_cell_angle_beta   90.00000000
_cell_angle_gamma   120.00000274
_symmetry_Int_Tables_number   1
_chemical_formula_structural   SrMg14Co
_chemical_formula_sum   'Sr1 Mg14 Co1'
_cell_volume   372.81877736
_cell_formula_units_Z   1
loop_
 _symmetry_equiv_pos_site_id
 _symmetry_equiv_pos_as_xyz
  1  'x, y, z'
loop_
 _atom_site_type_symbol
 _atom_site_label
 _atom_site_symmetry_multiplicity
 _atom_site_fract_x
 _atom_site_fract_y
 _atom_site_fract_z
 _atom_site_occupancy
  Sr  Sr0  1  0.16666700  0.33333300  0.62500000  1
  Mg  Mg0  1  0.15647505  0.82823703  0.12500000  1
  Mg  Mg1  1  0.17797268  0.83898584  0.62500000  1
  Mg  Mg2  1  0.67176297  0.34352495  0.12500000  1
  Mg  Mg3  1  0.66101416  0.32202732  0.62500000  1
  Mg  Mg4  1  0.67176297  0.82823703  0.12500000  1
  Mg  Mg5  1  0.66101416  0.83898584  0.62500000  1
  Mg  Mg6  1  0.32875826  0.17124174  0.34788381  1
  Mg  Mg7  1  0.32875826  0.17124174  0.90211619  1
  Mg  Mg8  1  0.32875826  0.65751753  0.34788381  1
  Mg  Mg9  1  0.32875826  0.65751753  0.90211619  1
  Mg  Mg10  1  0.84248247  0.17124174  0.34788381  1
  Mg  Mg11  1  0.84248247  0.17124174  0.90211619  1
  Mg  Mg12  1  0.83333300  0.66666700  0.38638530  1
  Mg  Mg13  1  0.83333300  0.66666700  0.86361470  1
  Co  Co0  1  0.16666700  0.33333300  0.12500000  1
loop_
_geom_bond_atom_site_label_1
_geom_bond_atom_site_label_2
_geom_bond_distance
_geom_bond_site_symmetry_2
Mg0 Mg8 3.007375 1_555
Mg0 Mg9 3.007375 1_554
Mg0 Mg6 3.007382 1_565
Mg0 Mg7 3.007382 1_564
Mg0 Mg2 3.114448 1_455
Mg0 Mg4 3.114448 1_455
Mg0 Mg12 3.265255 1_455
Mg0 Mg13 3.265255 1_454
Mg0 Mg2 3.310909 1_565
Mg0 Mg4 3.310909 1_555
Mg1 Mg3 3.103714 1_565
Mg1 Mg5 3.103714 1_555
Mg1 Mg12 3.141414 1_455
Mg1 Mg13 3.141414 1_455
Mg1 Sr0 3.213294 1_555
Mg1 Sr0 3.213294 1_565
Mg1 Mg3 3.321643 1_455
Mg1 Mg5 3.321643 1_455
Mg1 Mg9 3.431847 1_555
Mg1 Mg8 3.431847 1_555
Mg1 Mg6 3.431853 1_565
Mg1 Mg7 3.431853 1_565
Mg2 Mg7 3.007382 1_554
Mg2 Mg6 3.007382 1_555
Mg2 Mg4 3.114448 1_555
Mg2 Mg4 3.310909 1_545
Mg3 Mg5 3.103714 1_545
Mg3 Sr0 3.213294 1_655
Mg3 Sr0 3.213294 1_555
Mg3 Mg5 3.321643 1_555
Mg3 Mg6 3.431853 1_555
Mg3 Mg7 3.431853 1_555
Mg4 Mg9 3.007382 1_554
Mg4 Mg8 3.007382 1_555
Mg5 Sr0 3.213294 1_555
Mg5 Sr0 3.213294 1_665
Mg5 Mg8 3.431853 1_555
Mg5 Mg9 3.431853 1_555
Mg6 Sr0 3.406435 1_555
Mg7 Sr0 3.406435 1_555
Mg8 Sr0 3.406441 1_555
Mg9 Sr0 3.406441 1_555
Mg10 Mg2 3.007375 1_555
Mg10 Mg4 3.007382 1_545
Mg10 Mg12 3.238066 1_555
Mg10 Mg12 3.238066 1_545
Mg10 Sr0 3.406441 1_655
Mg10 Mg3 3.431847 1_555
Mg10 Mg5 3.431852 1_545
Mg11 Mg2 3.007375 1_556
Mg11 Mg4 3.007382 1_546
Mg11 Mg13 3.238066 1_555
Mg11 Mg13 3.238066 1_545
Mg11 Sr0 3.406441 1_655
Mg11 Mg3 3.431847 1_555
Mg11 Mg5 3.431852 1_545
Mg12 Mg5 3.141408 1_555
Mg12 Mg3 3.141414 1_555
Mg12 Mg6 3.238066 1_665
Mg12 Mg6 3.238066 1_555
Mg12 Mg8 3.238066 1_655
Mg12 Mg8 3.238066 1_555
Mg12 Mg4 3.265248 1_555
Mg12 Mg2 3.265255 1_555
Mg13 Mg5 3.141408 1_555
Mg13 Mg3 3.141414 1_555
Mg13 Mg7 3.238066 1_665
Mg13 Mg7 3.238066 1_555
Mg13 Mg9 3.238066 1_655
Mg13 Mg9 3.238066 1_555
Mg13 Mg4 3.265248 1_556
Mg13 Mg2 3.265255 1_556
Co0 Mg7 2.942020 1_554
Co0 Mg6 2.942020 1_555
Co0 Mg8 2.942027 1_555
Co0 Mg9 2.942027 1_554
Co0 Mg10 2.942027 1_455
Co0 Mg11 2.942027 1_454
Co0 Mg0 3.213179 1_545
Co0 Mg4 3.213179 1_445
Co0 Mg4 3.213179 1_555
Co0 Mg0 3.213179 1_555
Co0 Mg2 3.213179 1_555
Co0 Mg2 3.213179 1_455
