# generated using pymatgen
data_K2Ba(BiO3)3
_symmetry_space_group_name_H-M   'P 1'
_cell_length_a   6.10443320
_cell_length_b   6.10443320
_cell_length_c   7.48111300
_cell_angle_alpha   90.00000000
_cell_angle_beta   90.00000000
_cell_angle_gamma   119.99999137
_symmetry_Int_Tables_number   1
_chemical_formula_structural   K2Ba(BiO3)3
_chemical_formula_sum   'K2 Ba1 Bi3 O9'
_cell_volume   241.42796626
_cell_formula_units_Z   1
loop_
 _symmetry_equiv_pos_site_id
 _symmetry_equiv_pos_as_xyz
  1  'x, y, z'
loop_
 _atom_site_type_symbol
 _atom_site_label
 _atom_site_symmetry_multiplicity
 _atom_site_fract_x
 _atom_site_fract_y
 _atom_site_fract_z
 _atom_site_occupancy
  K  K0  1  0.66666700  0.33333300  0.33480500  1
  K  K1  1  0.33333300  0.66666700  0.66519500  1
  Ba  Ba0  1  0.00000000  0.00000000  0.00000000  1
  Bi  Bi0  1  0.00000000  0.00000000  0.50000000  1
  Bi  Bi1  1  0.66666700  0.33333300  0.83036600  1
  Bi  Bi2  1  0.33333300  0.66666700  0.16963400  1
  O  O0  1  0.67792400  0.83896200  0.32274600  1
  O  O1  1  0.32207600  0.16103800  0.67725400  1
  O  O2  1  0.00000000  0.50000000  0.00000000  1
  O  O3  1  0.83896200  0.67792400  0.67725400  1
  O  O4  1  0.50000000  0.00000000  0.00000000  1
  O  O5  1  0.16103800  0.32207600  0.32274600  1
  O  O6  1  0.83896200  0.16103800  0.67725400  1
  O  O7  1  0.50000000  0.50000000  0.00000000  1
  O  O8  1  0.16103800  0.83896200  0.32274600  1
loop_
_geom_bond_atom_site_label_1
_geom_bond_atom_site_label_2
_geom_bond_distance
_geom_bond_site_symmetry_2
K0 O0 3.054126 1_545
K0 O5 3.054126 1_655
K0 O8 3.054130 1_655
K0 O8 3.054130 1_545
K0 O0 3.054132 1_555
K0 O5 3.054132 1_555
K0 O2 3.062504 1_655
K0 O4 3.062504 1_555
K0 O7 3.062507 1_555
K0 O6 3.143557 1_555
K0 O3 3.143560 1_555
K0 O1 3.143560 1_555
K1 O3 3.054126 1_455
K1 O1 3.054126 1_565
K1 O6 3.054130 1_455
K1 O6 3.054130 1_565
K1 O3 3.054132 1_555
K1 O1 3.054132 1_555
K1 O4 3.062504 1_566
K1 O2 3.062504 1_556
K1 O7 3.062507 1_556
K1 O8 3.143557 1_555
K1 O0 3.143560 1_555
K1 O5 3.143560 1_555
Ba0 O8 2.954479 1_545
Ba0 O6 2.954479 1_454
Ba0 O1 2.954479 1_554
Ba0 O3 2.954479 1_444
Ba0 O5 2.954479 1_555
Ba0 O0 2.954479 1_445
Ba0 O4 3.052217 1_555
Ba0 O2 3.052217 1_555
Ba0 O4 3.052217 1_455
Ba0 O2 3.052217 1_545
Ba0 O7 3.052217 1_555
Ba0 O7 3.052217 1_445
Bi0 O6 2.158139 1_455
Bi0 O8 2.158139 1_545
Bi0 O1 2.158139 1_555
Bi0 O3 2.158139 1_445
Bi0 O5 2.158139 1_555
Bi0 O0 2.158139 1_445
Bi1 O6 2.151899 1_555
Bi1 O3 2.151904 1_555
Bi1 O1 2.151904 1_555
Bi1 O4 2.171596 1_556
Bi1 O2 2.171596 1_656
Bi1 O7 2.171600 1_556
Bi2 O8 2.151899 1_555
Bi2 O0 2.151904 1_555
Bi2 O5 2.151904 1_555
Bi2 O2 2.171596 1_555
Bi2 O4 2.171596 1_565
Bi2 O7 2.171600 1_555
