# generated using pymatgen
data_PrMoClO4
_symmetry_space_group_name_H-M   'P 1'
_cell_length_a   5.90784900
_cell_length_b   7.95906000
_cell_length_c   19.32876494
_cell_angle_alpha   89.91770280
_cell_angle_beta   90.00000000
_cell_angle_gamma   90.00000000
_symmetry_Int_Tables_number   1
_chemical_formula_structural   PrMoClO4
_chemical_formula_sum   'Pr8 Mo8 Cl8 O32'
_cell_volume   908.85546245
_cell_formula_units_Z   8
loop_
 _symmetry_equiv_pos_site_id
 _symmetry_equiv_pos_as_xyz
  1  'x, y, z'
loop_
 _atom_site_type_symbol
 _atom_site_label
 _atom_site_symmetry_multiplicity
 _atom_site_fract_x
 _atom_site_fract_y
 _atom_site_fract_z
 _atom_site_occupancy
  Pr  Pr0  1  0.69554000  0.37323200  0.10455200  1
  Pr  Pr1  1  0.19554000  0.12676800  0.89544800  1
  Pr  Pr2  1  0.30446000  0.62676800  0.89544800  1
  Pr  Pr3  1  0.80446000  0.87323200  0.10455200  1
  Pr  Pr4  1  0.69662900  0.37770600  0.60444800  1
  Pr  Pr5  1  0.19662900  0.12229400  0.39555200  1
  Pr  Pr6  1  0.30337100  0.62229400  0.39555200  1
  Pr  Pr7  1  0.80337100  0.87770600  0.60444800  1
  Mo  Mo0  1  0.74793000  0.40812700  0.82171600  1
  Mo  Mo1  1  0.24793000  0.09187300  0.17828400  1
  Mo  Mo2  1  0.25207000  0.59187300  0.17828400  1
  Mo  Mo3  1  0.75207000  0.90812700  0.82171600  1
  Mo  Mo4  1  0.75581800  0.34285000  0.32192800  1
  Mo  Mo5  1  0.25581800  0.15715000  0.67807200  1
  Mo  Mo6  1  0.24418200  0.65715000  0.67807200  1
  Mo  Mo7  1  0.74418200  0.84285000  0.32192800  1
  Cl  Cl0  1  0.76460300  0.12516600  0.98976900  1
  Cl  Cl1  1  0.26460300  0.37483400  0.01023100  1
  Cl  Cl2  1  0.23539700  0.87483400  0.01023100  1
  Cl  Cl3  1  0.73539700  0.62516600  0.98976900  1
  Cl  Cl4  1  0.76318000  0.12716200  0.48964200  1
  Cl  Cl5  1  0.26318000  0.37283800  0.51035800  1
  Cl  Cl6  1  0.23682000  0.87283800  0.51035800  1
  Cl  Cl7  1  0.73682000  0.62716200  0.48964200  1
  O  O0  1  0.76505600  0.37604800  0.73130600  1
  O  O1  1  0.26505600  0.12395200  0.26869400  1
  O  O2  1  0.23494400  0.62395200  0.26869400  1
  O  O3  1  0.73494400  0.87604800  0.73130600  1
  O  O4  1  0.81951800  0.13036500  0.82873500  1
  O  O5  1  0.31951800  0.36963500  0.17126500  1
  O  O6  1  0.18048200  0.86963500  0.17126500  1
  O  O7  1  0.68048200  0.63036500  0.82873500  1
  O  O8  1  0.98579900  0.15702700  0.13495000  1
  O  O9  1  0.48579900  0.34297300  0.86505000  1
  O  O10  1  0.01420100  0.84297300  0.86505000  1
  O  O11  1  0.51420100  0.65702700  0.13495000  1
  O  O12  1  0.52109300  0.09576300  0.13227900  1
  O  O13  1  0.02109300  0.40423700  0.86772100  1
  O  O14  1  0.47890700  0.90423700  0.86772100  1
  O  O15  1  0.97890700  0.59576300  0.13227900  1
  O  O16  1  0.75845900  0.37838700  0.23152800  1
  O  O17  1  0.25845900  0.12161300  0.76847200  1
  O  O18  1  0.24154100  0.62161300  0.76847200  1
  O  O19  1  0.74154100  0.87838700  0.23152800  1
  O  O20  1  0.82062800  0.12009000  0.32854600  1
  O  O21  1  0.32062800  0.37991000  0.67145400  1
  O  O22  1  0.17937200  0.87991000  0.67145400  1
  O  O23  1  0.67937200  0.62009000  0.32854600  1
  O  O24  1  0.97840600  0.15449000  0.63479100  1
  O  O25  1  0.47840600  0.34551000  0.36520900  1
  O  O26  1  0.02159400  0.84551000  0.36520900  1
  O  O27  1  0.52159400  0.65449000  0.63479100  1
  O  O28  1  0.51370700  0.09386600  0.63188400  1
  O  O29  1  0.01370700  0.40613400  0.36811600  1
  O  O30  1  0.48629300  0.90613400  0.36811600  1
  O  O31  1  0.98629300  0.59386600  0.63188400  1
loop_
_geom_bond_atom_site_label_1
_geom_bond_atom_site_label_2
_geom_bond_distance
_geom_bond_site_symmetry_2
Mo0 O0 1.769325 1_555
Mo0 O7 1.818392 1_555
Mo0 O9 1.835069 1_555
Mo0 O13 1.842813 1_655
Mo0 O4 2.254710 1_555
Mo1 O1 1.769325 1_555
Mo1 O6 1.818392 1_545
Mo1 O8 1.835069 1_455
Mo1 O12 1.842813 1_555
Mo1 O5 2.254710 1_555
Mo2 O2 1.769325 1_555
Mo2 O5 1.818392 1_555
Mo2 O11 1.835069 1_555
Mo2 O15 1.842813 1_455
Mo2 O6 2.254710 1_555
Mo3 O3 1.769325 1_555
Mo3 O4 1.818392 1_565
Mo3 O10 1.835069 1_655
Mo3 O14 1.842813 1_555
Mo3 O7 2.254710 1_555
Mo4 O16 1.769732 1_555
Mo4 O20 1.818159 1_555
Mo4 O29 1.836645 1_655
Mo4 O25 1.840208 1_555
Mo4 O23 2.256124 1_555
Mo5 O17 1.769732 1_555
Mo5 O21 1.818159 1_555
Mo5 O28 1.836645 1_555
Mo5 O24 1.840208 1_455
Mo5 O22 2.256124 1_545
Mo6 O18 1.769732 1_555
Mo6 O22 1.818159 1_555
Mo6 O31 1.836645 1_455
Mo6 O27 1.840208 1_555
Mo6 O21 2.256124 1_555
Mo7 O19 1.769732 1_555
Mo7 O23 1.818159 1_555
Mo7 O30 1.836645 1_555
Mo7 O26 1.840208 1_655
Mo7 O20 2.256124 1_565
Cl0 Pr3 2.997594 1_546
Cl0 Pr0 2.999908 1_556
Cl0 Pr1 3.131371 1_655
Cl1 Pr2 2.997594 1_554
Cl1 Pr1 2.999908 1_554
Cl1 Pr0 3.131371 1_555
Cl2 Pr1 2.997594 1_564
Cl2 Pr2 2.999908 1_554
Cl2 Pr3 3.131371 1_455
Cl3 Pr0 2.997594 1_556
Cl3 Pr3 2.999908 1_556
Cl3 Pr2 3.131371 1_555
Cl4 Pr7 2.984945 1_545
Cl4 Pr4 3.011300 1_555
Cl4 Pr5 3.141117 1_655
Cl5 Pr6 2.984945 1_555
Cl5 Pr5 3.011300 1_555
Cl5 Pr4 3.141117 1_555
Cl6 Pr5 2.984945 1_565
Cl6 Pr6 3.011300 1_555
Cl6 Pr7 3.141117 1_455
Cl7 Pr4 2.984945 1_555
Cl7 Pr7 3.011300 1_555
Cl7 Pr6 3.141117 1_555
O0 Pr4 2.485126 1_555
O1 Pr5 2.485126 1_555
O2 Pr6 2.485126 1_555
O3 Pr7 2.485126 1_555
O4 Pr1 2.568745 1_655
O5 Pr0 2.568745 1_555
O6 Pr3 2.568745 1_455
O7 Pr2 2.568745 1_555
O8 Pr0 2.498798 1_555
O8 Pr3 2.568790 1_545
O9 Pr1 2.498798 1_555
O9 Pr2 2.568790 1_555
O10 Pr2 2.498798 1_555
O10 Pr1 2.568790 1_565
O11 Pr3 2.498798 1_555
O11 Pr0 2.568790 1_555
O12 Pr0 2.494587 1_555
O12 Pr3 2.495887 1_545
O13 Pr1 2.494587 1_555
O13 Pr2 2.495887 1_555
O14 Pr2 2.494587 1_555
O14 Pr1 2.495887 1_565
O15 Pr3 2.494587 1_555
O15 Pr0 2.495887 1_555
O16 Pr0 2.482676 1_555
O17 Pr1 2.482676 1_555
O18 Pr2 2.482676 1_555
O19 Pr3 2.482676 1_555
O20 Pr5 2.571419 1_655
O21 Pr4 2.571419 1_555
O22 Pr7 2.571419 1_455
O23 Pr6 2.571419 1_555
O24 Pr4 2.503690 1_555
O24 Pr7 2.503988 1_545
O25 Pr5 2.503690 1_555
O25 Pr6 2.503988 1_555
O26 Pr6 2.503690 1_555
O26 Pr5 2.503988 1_565
O27 Pr7 2.503690 1_555
O27 Pr4 2.503988 1_555
O28 Pr7 2.484400 1_545
O28 Pr4 2.559135 1_555
O29 Pr6 2.484400 1_555
O29 Pr5 2.559135 1_555
O30 Pr5 2.484400 1_565
O30 Pr6 2.559135 1_555
O31 Pr4 2.484400 1_555
O31 Pr7 2.559135 1_555
