# generated using pymatgen
data_Mg6CdCo
_symmetry_space_group_name_H-M   'P 1'
_cell_length_a   4.85342400
_cell_length_b   6.18055500
_cell_length_c   10.59725300
_cell_angle_alpha   90.00000000
_cell_angle_beta   90.00000000
_cell_angle_gamma   90.00000000
_symmetry_Int_Tables_number   1
_chemical_formula_structural   Mg6CdCo
_chemical_formula_sum   'Mg12 Cd2 Co2'
_cell_volume   317.88425073
_cell_formula_units_Z   2
loop_
 _symmetry_equiv_pos_site_id
 _symmetry_equiv_pos_as_xyz
  1  'x, y, z'
loop_
 _atom_site_type_symbol
 _atom_site_label
 _atom_site_symmetry_multiplicity
 _atom_site_fract_x
 _atom_site_fract_y
 _atom_site_fract_z
 _atom_site_occupancy
  Mg  Mg0  1  0.50000000  0.25134900  0.08365500  1
  Mg  Mg1  1  0.50000000  0.74865100  0.08365500  1
  Mg  Mg2  1  0.00000000  0.23548300  0.91171500  1
  Mg  Mg3  1  0.00000000  0.76451700  0.91171500  1
  Mg  Mg4  1  0.00000000  0.50000000  0.17616800  1
  Mg  Mg5  1  0.00000000  0.50000000  0.66669300  1
  Mg  Mg6  1  0.50000000  0.75134900  0.58365500  1
  Mg  Mg7  1  0.50000000  0.24865100  0.58365500  1
  Mg  Mg8  1  0.00000000  0.73548300  0.41171500  1
  Mg  Mg9  1  0.00000000  0.26451700  0.41171500  1
  Mg  Mg10  1  0.00000000  0.00000000  0.67616800  1
  Mg  Mg11  1  0.00000000  0.00000000  0.16669300  1
  Cd  Cd0  1  0.50000000  0.50000000  0.83340900  1
  Cd  Cd1  1  0.50000000  0.00000000  0.33340900  1
  Co  Co0  1  0.50000000  0.50000000  0.33299500  1
  Co  Co1  1  0.50000000  0.00000000  0.83299500  1
loop_
_geom_bond_atom_site_label_1
_geom_bond_atom_site_label_2
_geom_bond_distance
_geom_bond_site_symmetry_2
Mg0 Mg11 3.012736 1_555
Mg0 Mg11 3.012736 1_655
Mg0 Mg4 3.035102 1_555
Mg0 Mg4 3.035102 1_655
Mg0 Mg2 3.036209 1_554
Mg0 Mg2 3.036209 1_654
Mg0 Mg1 3.073602 1_555
Mg0 Mg1 3.106953 1_545
Mg1 Mg11 3.012736 1_665
Mg1 Mg11 3.012736 1_565
Mg1 Mg4 3.035102 1_555
Mg1 Mg4 3.035102 1_655
Mg1 Mg3 3.036209 1_654
Mg1 Mg3 3.036209 1_554
Mg2 Mg3 2.910831 1_545
Mg2 Mg5 3.068371 1_555
Mg2 Mg4 3.244479 1_556
Mg2 Mg3 3.269724 1_555
Mg3 Mg5 3.068371 1_555
Mg3 Mg4 3.244479 1_556
Mg4 Mg8 2.889465 1_555
Mg4 Mg9 2.889465 1_555
Mg5 Mg7 3.012736 1_455
Mg5 Mg7 3.012736 1_555
Mg5 Mg6 3.012736 1_455
Mg5 Mg6 3.012736 1_555
Mg5 Mg9 3.069104 1_555
Mg5 Mg8 3.069104 1_555
Mg6 Mg8 3.036209 1_655
Mg6 Mg8 3.036209 1_555
Mg6 Mg7 3.073602 1_565
Mg6 Mg7 3.106953 1_555
Mg7 Mg9 3.036209 1_655
Mg7 Mg9 3.036209 1_555
Mg8 Mg9 2.910831 1_555
Mg8 Mg9 3.269724 1_565
Mg10 Mg2 2.889465 1_555
Mg10 Mg3 2.889465 1_545
Mg10 Mg7 3.035102 1_555
Mg10 Mg6 3.035102 1_445
Mg10 Mg6 3.035102 1_545
Mg10 Mg7 3.035102 1_455
Mg10 Mg5 3.091908 1_555
Mg10 Mg5 3.091908 1_545
Mg10 Mg9 3.244479 1_555
Mg10 Mg8 3.244479 1_545
Mg11 Mg8 3.068371 1_545
Mg11 Mg9 3.068371 1_555
Mg11 Mg2 3.069104 1_554
Mg11 Mg3 3.069104 1_544
Mg11 Mg4 3.091908 1_555
Mg11 Mg4 3.091908 1_545
Cd0 Mg5 3.001711 1_555
Cd0 Mg5 3.001711 1_655
Cd0 Mg2 3.041434 1_655
Cd0 Mg3 3.041434 1_555
Cd0 Mg3 3.041434 1_655
Cd0 Mg2 3.041434 1_555
Cd0 Mg0 3.065035 1_556
Cd0 Mg1 3.065035 1_556
Cd0 Mg7 3.068932 1_555
Cd0 Mg6 3.068932 1_555
Cd0 Co1 3.090281 1_565
Cd0 Co1 3.090281 1_555
Cd1 Mg11 3.001711 1_555
Cd1 Mg11 3.001711 1_655
Cd1 Mg9 3.041434 1_555
Cd1 Mg9 3.041434 1_655
Cd1 Mg8 3.041434 1_645
Cd1 Mg8 3.041434 1_545
Cd1 Mg6 3.065035 1_545
Cd1 Mg7 3.065035 1_555
Cd1 Mg0 3.068932 1_555
Cd1 Mg1 3.068932 1_545
Cd1 Co0 3.090281 1_555
Cd1 Co0 3.090281 1_545
Co0 Mg4 2.941252 1_555
Co0 Mg4 2.941252 1_655
Co0 Mg9 2.950099 1_555
Co0 Mg8 2.950099 1_655
Co0 Mg9 2.950099 1_655
Co0 Mg8 2.950099 1_555
Co0 Mg1 3.056732 1_555
Co0 Mg0 3.056732 1_555
Co0 Mg7 3.077216 1_555
Co0 Mg6 3.077216 1_555
Co1 Mg10 2.941252 1_555
Co1 Mg10 2.941252 1_655
Co1 Mg3 2.950099 1_645
Co1 Mg2 2.950099 1_655
Co1 Mg3 2.950099 1_545
Co1 Mg2 2.950099 1_555
Co1 Mg6 3.056732 1_545
Co1 Mg7 3.056732 1_555
Co1 Mg0 3.077216 1_556
Co1 Mg1 3.077216 1_546
