# generated using pymatgen
data_Nd6Ta4Al43
_symmetry_space_group_name_H-M   'P 1'
_cell_length_a   11.11834823
_cell_length_b   11.11837657
_cell_length_c   17.97079889
_cell_angle_alpha   90.00001261
_cell_angle_beta   89.99997070
_cell_angle_gamma   120.00014576
_symmetry_Int_Tables_number   1
_chemical_formula_structural   Nd6Ta4Al43
_chemical_formula_sum   'Nd12 Ta8 Al86'
_cell_volume   1923.88464678
_cell_formula_units_Z   2
loop_
 _symmetry_equiv_pos_site_id
 _symmetry_equiv_pos_as_xyz
  1  'x, y, z'
loop_
 _atom_site_type_symbol
 _atom_site_label
 _atom_site_symmetry_multiplicity
 _atom_site_fract_x
 _atom_site_fract_y
 _atom_site_fract_z
 _atom_site_occupancy
  Nd  Nd0  1  0.53017516  0.00000104  0.59587071  1
  Nd  Nd1  1  0.46982409  0.00000141  0.40415302  1
  Nd  Nd2  1  -0.00000062  0.53017716  0.59587187  1
  Nd  Nd3  1  0.46983433  0.00000071  0.09584448  1
  Nd  Nd4  1  -0.00000152  0.53017074  0.90413328  1
  Nd  Nd5  1  0.00000166  0.46982949  0.40415442  1
  Nd  Nd6  1  0.53018024  0.00000089  0.90413171  1
  Nd  Nd7  1  0.00000055  0.46982799  0.09584138  1
  Nd  Nd8  1  0.46982144  0.46982019  0.59587094  1
  Nd  Nd9  1  0.53017082  0.53017033  0.40415384  1
  Nd  Nd10  1  0.53017141  0.53017392  0.09584306  1
  Nd  Nd11  1  0.46982754  0.46983011  0.90413321  1
  Ta  Ta0  1  -0.00004738  -0.00004859  0.50000140  1
  Ta  Ta1  1  0.00004106  -0.00002594  -0.00000158  1
  Ta  Ta2  1  0.72781486  0.00000017  0.75000294  1
  Ta  Ta3  1  0.27218231  0.00000046  0.25000291  1
  Ta  Ta4  1  0.00000124  0.72781560  0.74999903  1
  Ta  Ta5  1  0.00000096  0.27218439  0.24999717  1
  Ta  Ta6  1  0.27218434  0.27218195  0.74999989  1
  Ta  Ta7  1  0.72781826  0.72782006  0.24999917  1
  Al  Al0  1  0.15383222  0.59843874  0.75000322  1
  Al  Al1  1  0.84617401  0.40156498  0.24999750  1
  Al  Al2  1  0.40156017  0.55539155  0.75000168  1
  Al  Al3  1  0.59844149  0.15383303  0.75000016  1
  Al  Al4  1  0.59843921  0.44461429  0.24999772  1
  Al  Al5  1  0.40155521  0.84617036  0.24999828  1
  Al  Al6  1  0.44460985  0.84616603  0.75000178  1
  Al  Al7  1  0.55539006  0.40155854  0.75000238  1
  Al  Al8  1  0.55538247  0.15382361  0.24999892  1
  Al  Al9  1  0.44461126  0.59843999  0.24999886  1
  Al  Al10  1  0.84615899  0.44460245  0.75000271  1
  Al  Al11  1  0.15382779  0.55539015  0.24999782  1
  Al  Al12  1  0.15773403  0.00000184  0.11579399  1
  Al  Al13  1  0.84226593  0.00000253  0.88419020  1
  Al  Al14  1  0.00000133  0.15773026  0.11579684  1
  Al  Al15  1  0.84227193  0.00000003  0.61581240  1
  Al  Al16  1  0.00000071  0.15773133  0.38420026  1
  Al  Al17  1  -0.00000146  0.84226826  0.88418931  1
  Al  Al18  1  0.15772665  0.00000263  0.38419932  1
  Al  Al19  1  0.00000287  0.84227103  0.61581240  1
  Al  Al20  1  0.84227259  0.84227474  0.11579840  1
  Al  Al21  1  0.15773075  0.15772782  0.88419055  1
  Al  Al22  1  0.15773552  0.15773564  0.61581464  1
  Al  Al23  1  0.84227499  0.84227725  0.38420344  1
  Al  Al24  1  0.24744121  0.49487058  0.50001012  1
  Al  Al25  1  0.75256608  0.50512737  0.50001143  1
  Al  Al26  1  0.50512868  0.75257184  0.50001009  1
  Al  Al27  1  0.75256307  0.50512418  -0.00000782  1
  Al  Al28  1  0.49486732  0.24743544  -0.00001209  1
  Al  Al29  1  0.49487395  0.24744029  0.50001149  1
  Al  Al30  1  0.24744427  0.49487604  -0.00001028  1
  Al  Al31  1  0.50513727  0.75257671  -0.00001043  1
  Al  Al32  1  0.24743666  0.75256928  0.50000976  1
  Al  Al33  1  0.75255779  0.24742845  0.50001026  1
  Al  Al34  1  0.75255751  0.24742956  -0.00001120  1
  Al  Al35  1  0.24743811  0.75257266  -0.00001024  1
  Al  Al36  1  0.14702871  -0.00000249  0.75000029  1
  Al  Al37  1  0.85297014  0.00000316  0.24999877  1
  Al  Al38  1  -0.00000226  0.14702618  0.75000211  1
  Al  Al39  1  0.00000044  0.85297311  0.24999824  1
  Al  Al40  1  0.85297088  0.85297178  0.75000115  1
  Al  Al41  1  0.14702830  0.14702936  0.24999816  1
  Al  Al42  1  0.33333125  0.66666397  0.62559692  1
  Al  Al43  1  0.66666632  0.33333369  0.37441355  1
  Al  Al44  1  0.66666453  0.33333193  0.12558329  1
  Al  Al45  1  0.66666505  0.33333110  0.87440615  1
  Al  Al46  1  0.33333585  0.66666609  0.87440464  1
  Al  Al47  1  0.33333535  0.66666821  0.12558206  1
  Al  Al48  1  0.33333173  0.66666676  0.37441610  1
  Al  Al49  1  0.66666642  0.33333541  0.62559538  1
  Al  Al50  1  0.25194151  0.00000379  0.52992911  1
  Al  Al51  1  0.74806708  0.00000147  0.47008174  1
  Al  Al52  1  0.00000099  0.25194037  0.52992907  1
  Al  Al53  1  0.74805647  0.00000196  0.02991524  1
  Al  Al54  1  0.00000109  0.25194319  0.97007021  1
  Al  Al55  1  -0.00000014  0.74806381  0.47008608  1
  Al  Al56  1  0.25193702  -0.00000012  0.97007001  1
  Al  Al57  1  -0.00000291  0.74806446  0.02991807  1
  Al  Al58  1  0.74806540  0.74806470  0.52992938  1
  Al  Al59  1  0.25193708  0.25193818  0.47008157  1
  Al  Al60  1  0.25193282  0.25193542  0.02991814  1
  Al  Al61  1  0.74806543  0.74806258  0.97007124  1
  Al  Al62  1  0.15789428  0.39353951  0.66436420  1
  Al  Al63  1  0.84210484  0.60645678  0.33564696  1
  Al  Al64  1  0.60645825  0.76435691  0.66435959  1
  Al  Al65  1  0.84209788  0.60645211  0.16435053  1
  Al  Al66  1  0.39354783  0.15789911  0.83564278  1
  Al  Al67  1  0.39354278  0.23565014  0.33564694  1
  Al  Al68  1  0.15789596  0.39353922  0.83564211  1
  Al  Al69  1  0.60645251  0.84210204  0.16434995  1
  Al  Al70  1  0.23564802  0.84210108  0.66436070  1
  Al  Al71  1  0.39354862  0.23565129  0.16435136  1
  Al  Al72  1  0.76435226  0.60645196  0.83564241  1
  Al  Al73  1  0.76435076  0.15790078  0.33564614  1
  Al  Al74  1  0.60646179  0.76435658  0.83563954  1
  Al  Al75  1  0.23564980  0.39354874  0.16434932  1
  Al  Al76  1  0.60645319  0.84210664  0.33564764  1
  Al  Al77  1  0.39354536  0.15789919  0.66435926  1
  Al  Al78  1  0.76435011  0.15790003  0.16434890  1
  Al  Al79  1  0.23564962  0.39354727  0.33564637  1
  Al  Al80  1  0.23564773  0.84209945  0.83564195  1
  Al  Al81  1  0.76435394  0.60645753  0.66436274  1
  Al  Al82  1  0.84209948  0.23564331  0.83564296  1
  Al  Al83  1  0.15789811  0.76435057  0.16435108  1
  Al  Al84  1  0.15789372  0.76435120  0.33564598  1
  Al  Al85  1  0.84210136  0.23564496  0.66436221  1
loop_
_geom_bond_atom_site_label_1
_geom_bond_atom_site_label_2
_geom_bond_distance
_geom_bond_site_symmetry_2
Nd0 Nd1 3.510054 1_555
Nd0 Ta2 3.535667 1_555
Nd1 Ta3 3.535927 1_555
Nd2 Nd5 3.510045 1_555
Nd2 Ta4 3.535580 1_555
Nd3 Nd6 3.509955 1_554
Nd3 Ta3 3.536116 1_555
Nd4 Nd7 3.509870 1_556
Nd4 Ta4 3.535722 1_555
Nd5 Ta5 3.536054 1_555
Nd6 Ta2 3.535581 1_555
Nd7 Ta5 3.536027 1_555
Nd8 Nd9 3.510040 1_555
Nd8 Ta6 3.535602 1_555
Nd9 Ta7 3.536039 1_555
Nd10 Nd11 3.509900 1_554
Nd10 Ta7 3.536046 1_555
Nd11 Ta6 3.535719 1_555
Al0 Ta4 2.730335 1_555
Al0 Al62 2.768286 1_555
Al0 Al68 2.768296 1_555
Al0 Al46 2.835932 1_555
Al0 Al42 2.835972 1_555
Al0 Al80 2.840933 1_555
Al0 Al70 2.840984 1_555
Al0 Al10 2.962511 1_455
Al0 Al2 3.022193 1_555
Al0 Al6 3.022201 1_555
Al0 Nd4 3.142498 1_555
Al0 Nd2 3.142518 1_555
Al1 Ta5 2.730330 1_655
Al1 Al65 2.768321 1_555
Al1 Al63 2.768355 1_555
Al1 Al44 2.836145 1_555
Al1 Al43 2.836160 1_555
Al1 Al73 2.841047 1_555
Al1 Al78 2.841052 1_555
Al1 Al11 2.962324 1_655
Al1 Al4 3.022283 1_555
Al1 Al8 3.022355 1_555
Al1 Nd7 3.142879 1_655
Al1 Nd5 3.142897 1_655
Al2 Ta6 2.730352 1_555
Al2 Al74 2.768297 1_555
Al2 Al64 2.768324 1_555
Al2 Al46 2.835929 1_555
Al2 Al42 2.835967 1_555
Al2 Al62 2.840963 1_555
Al2 Al68 2.840980 1_555
Al2 Al7 2.962422 1_555
Al2 Al6 3.022180 1_555
Al2 Nd11 3.142502 1_555
Al2 Nd8 3.142509 1_555
Al3 Ta2 2.730322 1_555
Al3 Al66 2.768284 1_555
Al3 Al77 2.768292 1_555
Al3 Al45 2.835967 1_555
Al3 Al49 2.835976 1_555
Al3 Al85 2.840918 1_555
Al3 Al82 2.840953 1_555
Al3 Al6 2.962459 1_545
Al3 Al7 3.022201 1_555
Al3 Nd0 3.142483 1_555
Al3 Nd6 3.142519 1_555
Al4 Ta7 2.730312 1_555
Al4 Al71 2.768323 1_555
Al4 Al67 2.768382 1_555
Al4 Al44 2.836146 1_555
Al4 Al43 2.836166 1_555
Al4 Al65 2.840981 1_555
Al4 Al63 2.841059 1_555
Al4 Al9 2.962333 1_555
Al4 Al8 3.022329 1_555
Al4 Nd10 3.142862 1_555
Al4 Nd9 3.142870 1_555
Al5 Ta3 2.730290 1_565
Al5 Al76 2.768382 1_555
Al5 Al69 2.768386 1_555
Al5 Al83 2.840971 1_555
Al5 Al84 2.841015 1_555
Al5 Al8 2.962326 1_565
Al5 Al9 3.022286 1_555
Al5 Nd3 3.142857 1_565
Al5 Nd1 3.142879 1_565
Al6 Ta2 2.730301 1_565
Al6 Al80 2.768279 1_555
Al6 Al70 2.768294 1_555
Al6 Al74 2.840940 1_555
Al6 Al64 2.840948 1_555
Al6 Nd6 3.142505 1_565
Al6 Nd0 3.142522 1_565
Al7 Ta6 2.730306 1_555
Al7 Al72 2.768268 1_555
Al7 Al81 2.768296 1_555
Al7 Al77 2.840963 1_555
Al7 Nd8 3.142509 1_555
Al7 Nd11 3.142513 1_555
Al8 Ta3 2.730250 1_555
Al8 Nd1 3.142828 1_555
Al8 Nd3 3.142833 1_555
Al9 Ta7 2.730316 1_555
Al9 Nd10 3.142873 1_555
Al9 Nd9 3.142874 1_555
Al10 Ta4 2.730388 1_655
Al10 Al85 2.768285 1_555
Al10 Al82 2.768290 1_555
Al10 Al45 2.835902 1_555
Al10 Al49 2.835947 1_555
Al10 Al72 2.840919 1_555
Al10 Al81 2.840960 1_555
Al10 Al3 3.022107 1_555
Al10 Al7 3.022135 1_555
Al10 Nd4 3.142533 1_655
Al10 Nd2 3.142543 1_655
Al11 Ta5 2.730311 1_555
Al11 Al83 2.768318 1_555
Al11 Al84 2.768357 1_555
Al11 Al47 2.836156 1_555
Al11 Al48 2.836172 1_555
Al11 Al75 2.841042 1_555
Al11 Al79 2.841055 1_555
Al11 Al5 3.022222 1_555
Al11 Al9 3.022270 1_555
Al11 Nd5 3.142884 1_555
Al11 Nd7 3.142888 1_555
Al12 Ta1 2.720989 1_555
Al12 Ta3 2.726939 1_555
Al12 Al71 2.762396 1_555
Al12 Al83 2.762416 1_545
Al12 Al56 2.820464 1_554
Al12 Al60 2.896719 1_555
Al12 Al57 2.896748 1_545
Al12 Al41 2.949166 1_555
Al12 Al39 2.949168 1_545
Al12 Al20 3.037502 1_445
Al12 Al14 3.037509 1_555
Al12 Nd3 3.488516 1_555
Al13 Ta1 2.721953 1_656
Al13 Ta2 2.726600 1_555
Al13 Al82 2.762262 1_555
Al13 Al74 2.762284 1_545
Al13 Al53 2.820503 1_556
Al13 Al54 2.896809 1_655
Al13 Al61 2.896822 1_545
Al13 Al38 2.948910 1_655
Al13 Al40 2.948962 1_545
Al13 Al21 3.037534 1_655
Al13 Al17 3.037565 1_645
Al13 Nd6 3.488325 1_555
Al14 Ta1 2.721724 1_555
Al14 Ta5 2.726831 1_555
Al14 Al75 2.762383 1_555
Al14 Al78 2.762410 1_455
Al14 Al54 2.820548 1_554
Al14 Al60 2.896712 1_555
Al14 Al53 2.896842 1_455
Al14 Al41 2.949103 1_555
Al14 Al37 2.949119 1_455
Al14 Al20 3.037453 1_445
Al14 Nd7 3.488506 1_555
Al15 Ta0 2.721385 1_655
Al15 Ta2 2.726688 1_555
Al15 Al64 2.762299 1_545
Al15 Al85 2.762342 1_555
Al15 Al51 2.820583 1_555
Al15 Al58 2.896792 1_545
Al15 Al52 2.896830 1_655
Al15 Al38 2.948921 1_655
Al15 Al40 2.948921 1_545
Al15 Al19 3.037498 1_645
Al15 Al22 3.037523 1_655
Al15 Nd0 3.488463 1_555
Al16 Ta0 2.721618 1_555
Al16 Ta5 2.726868 1_555
Al16 Al79 2.762380 1_555
Al16 Al73 2.762408 1_455
Al16 Al52 2.820566 1_555
Al16 Al51 2.896759 1_455
Al16 Al59 2.896779 1_555
Al16 Al37 2.949115 1_455
Al16 Al41 2.949120 1_555
Al16 Al23 3.037439 1_445
Al16 Al18 3.037447 1_555
Al16 Nd5 3.488499 1_555
Al17 Ta1 2.721216 1_566
Al17 Ta4 2.726670 1_555
Al17 Al72 2.762329 1_455
Al17 Al80 2.762357 1_555
Al17 Al57 2.820542 1_556
Al17 Al61 2.896757 1_455
Al17 Al56 2.896791 1_565
Al17 Al40 2.948923 1_455
Al17 Al36 2.948934 1_565
Al17 Al21 3.037491 1_565
Al17 Nd4 3.488478 1_555
Al18 Ta0 2.721573 1_555
Al18 Ta3 2.726779 1_555
Al18 Al67 2.762365 1_555
Al18 Al84 2.762412 1_545
Al18 Al50 2.820605 1_555
Al18 Al59 2.896781 1_555
Al18 Al55 2.896848 1_545
Al18 Al41 2.949092 1_555
Al18 Al39 2.949099 1_545
Al18 Al23 3.037408 1_445
Al18 Nd1 3.488493 1_555
Al19 Ta0 2.721392 1_565
Al19 Ta4 2.726615 1_555
Al19 Al70 2.762327 1_555
Al19 Al81 2.762347 1_455
Al19 Al55 2.820512 1_555
Al19 Al58 2.896806 1_455
Al19 Al50 2.896817 1_565
Al19 Al36 2.948896 1_565
Al19 Al40 2.948948 1_455
Al19 Al22 3.037540 1_565
Al19 Nd2 3.488412 1_555
Al20 Ta1 2.721440 1_665
Al20 Ta7 2.726837 1_555
Al20 Al69 2.762382 1_555
Al20 Al65 2.762409 1_555
Al20 Al61 2.820541 1_554
Al20 Al57 2.896756 1_655
Al20 Al53 2.896852 1_565
Al20 Al39 2.949088 1_655
Al20 Al37 2.949103 1_565
Al20 Nd10 3.488526 1_555
Al21 Ta1 2.721461 1_556
Al21 Ta6 2.726673 1_555
Al21 Al68 2.762320 1_555
Al21 Al66 2.762337 1_555
Al21 Al60 2.820528 1_556
Al21 Al56 2.896751 1_555
Al21 Al54 2.896832 1_555
Al21 Al38 2.948944 1_555
Al21 Al36 2.948954 1_555
Al21 Nd11 3.488486 1_555
Al22 Ta0 2.721979 1_555
Al22 Ta6 2.726555 1_555
Al22 Al62 2.762280 1_555
Al22 Al77 2.762284 1_555
Al22 Al59 2.820608 1_555
Al22 Al50 2.896840 1_555
Al22 Al52 2.896854 1_555
Al22 Al36 2.948923 1_555
Al22 Al38 2.948936 1_555
Al22 Nd8 3.488330 1_555
Al23 Ta0 2.720997 1_665
Al23 Ta7 2.726906 1_555
Al23 Al63 2.762435 1_555
Al23 Al76 2.762437 1_555
Al23 Al58 2.820526 1_555
Al23 Al51 2.896718 1_565
Al23 Al55 2.896805 1_655
Al23 Al39 2.949157 1_655
Al23 Al37 2.949158 1_565
Al23 Nd9 3.488567 1_555
Al24 Al59 2.778896 1_555
Al24 Al52 2.778908 1_555
Al24 Al42 2.798182 1_555
Al24 Al48 2.798303 1_555
Al24 Al26 2.865133 1_555
Al24 Al32 2.865216 1_555
Al24 Nd8 3.138019 1_555
Al24 Nd5 3.138085 1_555
Al24 Al62 3.140455 1_555
Al24 Al79 3.140579 1_555
Al24 Nd9 3.430625 1_555
Al24 Nd2 3.430830 1_555
Al25 Al55 2.778927 1_655
Al25 Al58 2.778940 1_555
Al25 Al49 2.798133 1_555
Al25 Al43 2.798345 1_555
Al25 Al29 2.865080 1_555
Al25 Al33 2.865148 1_555
Al25 Nd2 3.138040 1_655
Al25 Nd9 3.138086 1_555
Al25 Al81 3.140400 1_555
Al25 Al63 3.140614 1_555
Al25 Nd5 3.430678 1_655
Al25 Nd8 3.430769 1_555
Al26 Al51 2.778925 1_565
Al26 Al58 2.778967 1_555
Al26 Al42 2.798203 1_555
Al26 Al48 2.798305 1_555
Al26 Al32 2.865095 1_555
Al26 Nd0 3.138022 1_565
Al26 Nd9 3.138130 1_555
Al26 Al64 3.140371 1_555
Al26 Al76 3.140563 1_555
Al26 Nd1 3.430666 1_565
Al26 Nd8 3.430856 1_555
Al27 Al61 2.778945 1_554
Al27 Al57 2.778951 1_655
Al27 Al45 2.798170 1_554
Al27 Al44 2.798238 1_555
Al27 Al28 2.865109 1_555
Al27 Al34 2.865115 1_555
Al27 Nd10 3.138021 1_555
Al27 Nd4 3.138056 1_654
Al27 Al72 3.140363 1_554
Al27 Al65 3.140502 1_555
Al27 Nd7 3.430617 1_655
Al27 Nd11 3.430729 1_554
Al28 Al56 2.778879 1_554
Al28 Al60 2.778941 1_555
Al28 Al45 2.798131 1_554
Al28 Al44 2.798327 1_555
Al28 Al34 2.865122 1_555
Al28 Nd11 3.138040 1_554
Al28 Nd3 3.138086 1_555
Al28 Al66 3.140262 1_554
Al28 Al71 3.140566 1_555
Al28 Nd10 3.430691 1_555
Al28 Nd6 3.430753 1_554
Al29 Al50 2.778895 1_555
Al29 Al59 2.778954 1_555
Al29 Al49 2.798133 1_555
Al29 Al43 2.798335 1_555
Al29 Al33 2.865084 1_555
Al29 Nd8 3.138017 1_555
Al29 Nd1 3.138077 1_555
Al29 Al77 3.140333 1_555
Al29 Al67 3.140624 1_555
Al29 Nd9 3.430661 1_555
Al29 Nd0 3.430759 1_555
Al30 Al54 2.778941 1_554
Al30 Al60 2.778944 1_555
Al30 Al46 2.798138 1_554
Al30 Al47 2.798256 1_555
Al30 Al31 2.865160 1_555
Al30 Al35 2.865202 1_555
Al30 Nd11 3.137979 1_554
Al30 Nd7 3.138056 1_555
Al30 Al68 3.140361 1_554
Al30 Al75 3.140520 1_555
Al30 Nd10 3.430584 1_555
Al30 Nd4 3.430754 1_554
Al31 Al53 2.778790 1_565
Al31 Al61 2.778909 1_554
Al31 Al46 2.798199 1_554
Al31 Al47 2.798310 1_555
Al31 Al35 2.865166 1_555
Al31 Nd6 3.137963 1_564
Al31 Nd10 3.138072 1_555
Al31 Al74 3.140368 1_554
Al31 Al69 3.140493 1_555
Al31 Nd3 3.430583 1_565
Al31 Nd11 3.430758 1_554
Al32 Al50 2.778884 1_565
Al32 Al55 2.778914 1_555
Al32 Al42 2.798226 1_555
Al32 Al48 2.798306 1_555
Al32 Nd1 3.138011 1_565
Al32 Nd2 3.138109 1_555
Al32 Al70 3.140356 1_555
Al32 Al84 3.140600 1_555
Al32 Nd5 3.430695 1_555
Al32 Nd0 3.430725 1_565
Al33 Al51 2.778909 1_555
Al33 Al52 2.778933 1_655
Al33 Al49 2.798187 1_555
Al33 Al43 2.798346 1_555
Al33 Nd0 3.138004 1_555
Al33 Nd5 3.138117 1_655
Al33 Al85 3.140406 1_555
Al33 Al73 3.140573 1_555
Al33 Nd1 3.430646 1_555
Al33 Nd2 3.430828 1_655
Al34 Al53 2.778854 1_555
Al34 Al54 2.778927 1_654
Al34 Al45 2.798127 1_554
Al34 Al44 2.798305 1_555
Al34 Nd6 3.137957 1_554
Al34 Nd7 3.138071 1_655
Al34 Al82 3.140302 1_554
Al34 Al78 3.140512 1_555
Al34 Nd3 3.430577 1_555
Al34 Nd4 3.430727 1_654
Al35 Al56 2.778838 1_564
Al35 Al57 2.778961 1_555
Al35 Al46 2.798221 1_554
Al35 Al47 2.798311 1_555
Al35 Nd3 3.138004 1_565
Al35 Nd4 3.138105 1_554
Al35 Al80 3.140289 1_554
Al35 Al83 3.140537 1_555
Al35 Nd7 3.430699 1_555
Al35 Nd6 3.430705 1_564
Al36 Ta4 2.623599 1_545
Al36 Ta6 2.623625 1_555
Al36 Al40 2.831412 1_445
Al36 Al38 2.831439 1_555
Al36 Al70 2.855011 1_545
Al36 Al77 2.855031 1_555
Al36 Al80 2.855044 1_545
Al36 Al66 2.855064 1_555
Al37 Ta5 2.623595 1_655
Al37 Ta7 2.623613 1_545
Al37 Al41 2.831415 1_655
Al37 Al39 2.831446 1_645
Al37 Al73 2.855097 1_555
Al37 Al76 2.855102 1_545
Al37 Al69 2.855114 1_545
Al37 Al78 2.855121 1_555
Al38 Ta2 2.623601 1_455
Al38 Ta6 2.623639 1_555
Al38 Al40 2.831386 1_445
Al38 Al62 2.854974 1_555
Al38 Al68 2.854995 1_555
Al38 Al85 2.855009 1_455
Al38 Al82 2.855021 1_455
Al39 Ta3 2.623592 1_565
Al39 Ta7 2.623597 1_455
Al39 Al41 2.831404 1_565
Al39 Al84 2.855080 1_555
Al39 Al63 2.855099 1_455
Al39 Al83 2.855117 1_555
Al39 Al65 2.855134 1_455
Al40 Ta2 2.623626 1_565
Al40 Ta4 2.623647 1_655
Al40 Al74 2.854940 1_555
Al40 Al81 2.854989 1_555
Al40 Al64 2.855003 1_555
Al40 Al72 2.855063 1_555
Al41 Ta5 2.623606 1_555
Al41 Ta3 2.623613 1_555
Al41 Al67 2.855081 1_555
Al41 Al79 2.855109 1_555
Al41 Al71 2.855110 1_555
Al41 Al75 2.855128 1_555
Al42 Al70 2.754644 1_555
Al42 Al64 2.754680 1_555
Al42 Al62 2.754689 1_555
Al42 Al6 2.835976 1_555
Al42 Nd2 3.270978 1_555
Al42 Nd8 3.271009 1_555
Al42 Nd0 3.271032 1_565
Al43 Al73 2.754628 1_555
Al43 Al63 2.754677 1_555
Al43 Al67 2.754680 1_555
Al43 Al8 2.836162 1_555
Al43 Nd9 3.271026 1_555
Al43 Nd1 3.271027 1_555
Al43 Nd5 3.271049 1_655
Al44 Al71 2.754614 1_555
Al44 Al78 2.754620 1_555
Al44 Al65 2.754647 1_555
Al44 Al8 2.836165 1_555
Al44 Nd3 3.271002 1_555
Al44 Nd7 3.271058 1_655
Al44 Nd10 3.271059 1_555
Al45 Al66 2.754598 1_555
Al45 Al72 2.754641 1_555
Al45 Al82 2.754650 1_555
Al45 Al7 2.835960 1_555
Al45 Nd6 3.270974 1_555
Al45 Nd4 3.270991 1_655
Al45 Nd11 3.271025 1_555
Al46 Al80 2.754642 1_555
Al46 Al74 2.754684 1_555
Al46 Al68 2.754693 1_555
Al46 Al6 2.835931 1_555
Al46 Nd11 3.270952 1_555
Al46 Nd6 3.271015 1_565
Al46 Nd4 3.271033 1_555
Al47 Al69 2.754621 1_555
Al47 Al75 2.754645 1_555
Al47 Al83 2.754659 1_555
Al47 Al5 2.836141 1_555
Al47 Al9 2.836155 1_555
Al47 Nd10 3.271004 1_555
Al47 Nd3 3.271016 1_565
Al47 Nd7 3.271043 1_555
Al48 Al79 2.754663 1_555
Al48 Al76 2.754669 1_555
Al48 Al84 2.754690 1_555
Al48 Al5 2.836170 1_555
Al48 Al9 2.836175 1_555
Al48 Nd5 3.270991 1_555
Al48 Nd1 3.271043 1_565
Al48 Nd9 3.271050 1_555
Al49 Al77 2.754639 1_555
Al49 Al81 2.754669 1_555
Al49 Al85 2.754694 1_555
Al49 Al7 2.835990 1_555
Al49 Nd8 3.270967 1_555
Al49 Nd2 3.270978 1_655
Al49 Nd0 3.271005 1_555
Al50 Ta0 2.852569 1_555
Al50 Al77 2.938179 1_555
Al50 Al70 2.938244 1_545
Al50 Al59 3.000504 1_555
Al50 Al55 3.000510 1_545
Al50 Nd0 3.312720 1_555
Al50 Nd1 3.313228 1_555
Al51 Ta0 2.851973 1_655
Al51 Al76 2.938262 1_545
Al51 Al73 2.938308 1_555
Al51 Al52 3.000492 1_655
Al51 Al58 3.000498 1_545
Al51 Nd1 3.312719 1_555
Al51 Nd0 3.313450 1_555
Al52 Ta0 2.852598 1_555
Al52 Al62 2.938233 1_555
Al52 Al85 2.938239 1_455
Al52 Al59 3.000503 1_555
Al52 Nd2 3.312761 1_555
Al52 Nd5 3.313257 1_555
Al53 Ta1 2.852923 1_655
Al53 Al78 2.938245 1_555
Al53 Al69 2.938263 1_545
Al53 Al54 3.000544 1_654
Al53 Al61 3.000556 1_544
Al53 Nd3 3.312499 1_555
Al53 Nd6 3.313255 1_554
Al54 Ta1 2.852866 1_556
Al54 Al68 2.938125 1_555
Al54 Al82 2.938154 1_455
Al54 Al60 3.000490 1_556
Al54 Nd4 3.312633 1_555
Al54 Nd7 3.313183 1_556
Al55 Ta0 2.851972 1_565
Al55 Al63 2.938319 1_455
Al55 Al84 2.938327 1_555
Al55 Al58 3.000452 1_455
Al55 Nd5 3.312664 1_555
Al55 Nd2 3.313374 1_555
Al56 Ta1 2.851701 1_556
Al56 Al66 2.938168 1_555
Al56 Al80 2.938189 1_545
Al56 Al57 3.000509 1_546
Al56 Al60 3.000518 1_556
Al56 Nd6 3.312777 1_555
Al56 Nd3 3.313316 1_556
Al57 Ta1 2.851729 1_565
Al57 Al65 2.938249 1_455
Al57 Al83 2.938272 1_555
Al57 Al61 3.000432 1_454
Al57 Nd7 3.312642 1_555
Al57 Nd4 3.313426 1_554
Al58 Ta0 2.851740 1_665
Al58 Al64 2.938204 1_555
Al58 Al81 2.938240 1_555
Al58 Nd8 3.312812 1_555
Al58 Nd9 3.313308 1_555
Al59 Ta0 2.852790 1_555
Al59 Al67 2.938244 1_555
Al59 Al79 2.938275 1_555
Al59 Nd9 3.312605 1_555
Al59 Nd8 3.313386 1_555
Al60 Ta1 2.852145 1_555
Al60 Al75 2.938225 1_555
Al60 Al71 2.938274 1_555
Al60 Nd10 3.312646 1_555
Al60 Nd11 3.313424 1_554
Al61 Ta1 2.852356 1_666
Al61 Al72 2.938188 1_555
Al61 Al74 2.938211 1_555
Al61 Nd11 3.312695 1_555
Al61 Nd10 3.313236 1_556
Al62 Ta6 2.741944 1_555
Al62 Al85 3.040694 1_455
Al62 Al68 3.078001 1_555
Al62 Nd2 3.093839 1_555
Al62 Nd8 3.364640 1_555
Al63 Ta7 2.742085 1_555
Al63 Al84 3.040655 1_655
Al63 Al65 3.078334 1_555
Al63 Nd5 3.093875 1_655
Al63 Nd9 3.364781 1_555
Al64 Ta2 2.741984 1_565
Al64 Al81 3.040725 1_555
Al64 Al74 3.078038 1_555
Al64 Nd8 3.093849 1_555
Al64 Nd0 3.364615 1_565
Al65 Ta7 2.742075 1_555
Al65 Al83 3.040764 1_655
Al65 Nd7 3.093912 1_655
Al65 Nd10 3.364735 1_555
Al66 Ta6 2.742007 1_555
Al66 Al7 2.840932 1_555
Al66 Al80 3.040766 1_545
Al66 Al77 3.078102 1_555
Al66 Nd6 3.093800 1_555
Al66 Nd11 3.364672 1_555
Al67 Ta3 2.742043 1_555
Al67 Al8 2.841052 1_555
Al67 Al79 3.040679 1_555
Al67 Al71 3.078318 1_555
Al67 Nd9 3.093833 1_555
Al67 Nd1 3.364762 1_555
Al68 Ta6 2.741993 1_555
Al68 Al82 3.040728 1_455
Al68 Nd4 3.093800 1_555
Al68 Nd11 3.364641 1_555
Al69 Ta7 2.742083 1_555
Al69 Al9 2.841032 1_555
Al69 Al78 3.040750 1_565
Al69 Al76 3.078356 1_555
Al69 Nd3 3.093800 1_565
Al69 Nd10 3.364747 1_555
Al70 Ta4 2.741957 1_555
Al70 Al77 3.040751 1_565
Al70 Al80 3.078061 1_555
Al70 Nd0 3.093768 1_565
Al70 Nd2 3.364597 1_555
Al71 Ta3 2.742128 1_555
Al71 Al8 2.841005 1_555
Al71 Al75 3.040736 1_555
Al71 Nd10 3.093868 1_555
Al71 Nd3 3.364817 1_555
Al72 Ta4 2.742026 1_655
Al72 Al74 3.040725 1_555
Al72 Al81 3.078033 1_555
Al72 Nd11 3.093754 1_555
Al72 Nd4 3.364632 1_655
Al73 Ta5 2.742092 1_655
Al73 Al8 2.768361 1_555
Al73 Al76 3.040713 1_545
Al73 Al78 3.078348 1_555
Al73 Nd1 3.093885 1_555
Al73 Nd5 3.364765 1_655
Al74 Ta2 2.741918 1_565
Al74 Nd11 3.093793 1_555
Al74 Nd6 3.364627 1_565
Al75 Ta5 2.742070 1_555
Al75 Al9 2.768350 1_555
Al75 Al79 3.078345 1_555
Al75 Nd10 3.093835 1_555
Al75 Nd7 3.364760 1_555
Al76 Ta7 2.742105 1_555
Al76 Al9 2.841065 1_555
Al76 Nd1 3.093857 1_565
Al76 Nd9 3.364821 1_555
Al77 Ta6 2.741963 1_555
Al77 Nd0 3.093773 1_555
Al77 Nd8 3.364568 1_555
Al78 Ta5 2.742091 1_655
Al78 Al8 2.768385 1_555
Al78 Nd3 3.093774 1_555
Al78 Nd7 3.364753 1_655
Al79 Ta5 2.742083 1_555
Al79 Al9 2.768336 1_555
Al79 Nd9 3.093842 1_555
Al79 Nd5 3.364768 1_555
Al80 Ta4 2.742002 1_555
Al80 Nd6 3.093814 1_565
Al80 Nd4 3.364649 1_555
Al81 Ta4 2.741941 1_655
Al81 Nd8 3.093826 1_555
Al81 Nd2 3.364617 1_655
Al82 Ta2 2.741950 1_555
Al82 Al85 3.078052 1_555
Al82 Nd4 3.093779 1_655
Al82 Nd6 3.364540 1_555
Al83 Ta3 2.742124 1_565
Al83 Al84 3.078306 1_555
Al83 Nd7 3.093876 1_555
Al83 Nd3 3.364801 1_565
Al84 Ta3 2.742030 1_565
Al84 Nd5 3.093857 1_555
Al84 Nd1 3.364763 1_565
Al85 Ta2 2.741971 1_555
Al85 Nd2 3.093820 1_655
Al85 Nd0 3.364613 1_555
