# generated using pymatgen
data_Sr3Sm(FeO4)2
_symmetry_space_group_name_H-M   'P 1'
_cell_length_a   6.90133291
_cell_length_b   6.90133291
_cell_length_c   5.47622900
_cell_angle_alpha   90.00000000
_cell_angle_beta   90.00000000
_cell_angle_gamma   133.34641302
_symmetry_Int_Tables_number   1
_chemical_formula_structural   Sr3Sm(FeO4)2
_chemical_formula_sum   'Sr3 Sm1 Fe2 O8'
_cell_volume   189.67563990
_cell_formula_units_Z   1
loop_
 _symmetry_equiv_pos_site_id
 _symmetry_equiv_pos_as_xyz
  1  'x, y, z'
loop_
 _atom_site_type_symbol
 _atom_site_label
 _atom_site_symmetry_multiplicity
 _atom_site_fract_x
 _atom_site_fract_y
 _atom_site_fract_z
 _atom_site_occupancy
  Sr  Sr0  1  0.64644600  0.35355400  0.00000000  1
  Sr  Sr1  1  0.35491600  0.64508400  0.00000000  1
  Sr  Sr2  1  0.85439300  0.14560700  0.50000000  1
  Sm  Sm0  1  0.13978200  0.86021800  0.50000000  1
  Fe  Fe0  1  0.50376800  0.49623200  0.50000000  1
  Fe  Fe1  1  0.99761300  0.00238700  0.00000000  1
  O  O0  1  0.84239200  0.15760800  0.00000000  1
  O  O1  1  0.31787700  0.68212300  0.50000000  1
  O  O2  1  0.66468100  0.33531900  0.50000000  1
  O  O3  1  0.16051400  0.83948600  0.00000000  1
  O  O4  1  0.25385100  0.24504200  0.25958800  1
  O  O5  1  0.75495800  0.74614900  0.74041200  1
  O  O6  1  0.75495800  0.74614900  0.25958800  1
  O  O7  1  0.25385100  0.24504200  0.74041200  1
loop_
_geom_bond_atom_site_label_1
_geom_bond_atom_site_label_2
_geom_bond_distance
_geom_bond_site_symmetry_2
Fe0 O7 1.899641 1_555
Fe0 O4 1.899641 1_555
Fe0 O5 1.899641 1_555
Fe0 O6 1.899641 1_555
Fe0 O2 2.039484 1_555
Fe0 O1 2.356067 1_555
Fe1 O0 1.967341 1_555
Fe1 O4 1.971543 1_655
Fe1 O7 1.971543 1_654
Fe1 O6 1.971543 1_545
Fe1 O5 1.971543 1_544
Fe1 O3 2.064681 1_645
O0 Sr0 2.483509 1_555
O0 Sr1 2.737361 1_545
O0 Sr1 2.737361 1_655
O0 Sr2 2.742336 1_555
O0 Sr2 2.742336 1_554
O1 Sm0 2.257257 1_555
O1 Sr2 2.771670 1_455
O1 Sr2 2.771670 1_565
O1 Sr1 2.778066 1_555
O1 Sr1 2.778066 1_556
O2 Sr2 2.404496 1_555
O2 Sr0 2.747851 1_556
O2 Sr0 2.747851 1_555
O2 Sm0 2.750916 1_655
O2 Sm0 2.750916 1_545
O3 Sr1 2.463939 1_555
O3 Sr0 2.738566 1_565
O3 Sr0 2.738566 1_455
O3 Sm0 2.750694 1_554
O3 Sm0 2.750694 1_555
O4 Sm0 2.556585 1_545
O4 Sr0 2.671550 1_555
O4 Sr2 2.684591 1_455
O4 Sr1 2.736044 1_555
O5 Sm0 2.556585 1_655
O5 Sr0 2.671550 1_556
O5 Sr2 2.684591 1_565
O5 Sr1 2.736044 1_556
O6 Sm0 2.556585 1_655
O6 Sr0 2.671550 1_555
O6 Sr2 2.684591 1_565
O6 Sr1 2.736044 1_555
O7 Sm0 2.556585 1_545
O7 Sr0 2.671550 1_556
O7 Sr2 2.684591 1_455
O7 Sr1 2.736044 1_556
