# generated using pymatgen
data_CaPr(WO3)2
_symmetry_space_group_name_H-M   'P 1'
_cell_length_a   5.63643600
_cell_length_b   5.90226500
_cell_length_c   8.05568223
_cell_angle_alpha   89.37307325
_cell_angle_beta   90.00000000
_cell_angle_gamma   90.00000000
_symmetry_Int_Tables_number   1
_chemical_formula_structural   CaPr(WO3)2
_chemical_formula_sum   'Ca2 Pr2 W4 O12'
_cell_volume   267.97829061
_cell_formula_units_Z   2
loop_
 _symmetry_equiv_pos_site_id
 _symmetry_equiv_pos_as_xyz
  1  'x, y, z'
loop_
 _atom_site_type_symbol
 _atom_site_label
 _atom_site_symmetry_multiplicity
 _atom_site_fract_x
 _atom_site_fract_y
 _atom_site_fract_z
 _atom_site_occupancy
  Ca  Ca0  1  0.51759500  0.80465500  0.74126900  1
  Ca  Ca1  1  0.01759500  0.19534500  0.25873100  1
  Pr  Pr0  1  0.97987600  0.30756100  0.73989600  1
  Pr  Pr1  1  0.47987600  0.69243900  0.26010400  1
  W  W0  1  0.99897200  0.75199400  0.50043800  1
  W  W1  1  0.00048600  0.75211600  0.99953900  1
  W  W2  1  0.50048600  0.24788400  0.00046100  1
  W  W3  1  0.49897200  0.24800600  0.49956200  1
  O  O0  1  0.89171700  0.78698100  0.24081900  1
  O  O1  1  0.80890300  0.05453100  0.55752800  1
  O  O2  1  0.80488900  0.04297600  0.94082200  1
  O  O3  1  0.69862600  0.54021500  0.94044200  1
  O  O4  1  0.68895200  0.55426300  0.55762300  1
  O  O5  1  0.60981300  0.28472600  0.24061600  1
  O  O6  1  0.39171700  0.21301900  0.75918100  1
  O  O7  1  0.30890300  0.94546900  0.44247200  1
  O  O8  1  0.30488900  0.95702400  0.05917800  1
  O  O9  1  0.18895200  0.44573700  0.44237700  1
  O  O10  1  0.19862600  0.45978500  0.05955800  1
  O  O11  1  0.10981300  0.71527400  0.75938400  1
loop_
_geom_bond_atom_site_label_1
_geom_bond_atom_site_label_2
_geom_bond_distance
_geom_bond_site_symmetry_2
Ca0 O4 2.313749 1_555
Ca0 O11 2.362358 1_555
Ca0 O3 2.448831 1_555
Ca0 O6 2.518182 1_565
Ca0 O1 2.648433 1_565
Ca0 O2 2.689693 1_565
Ca0 O7 2.797201 1_555
Ca0 O8 2.975758 1_556
Ca1 O9 2.313749 1_555
Ca1 O5 2.362358 1_455
Ca1 O10 2.448831 1_555
Ca1 O0 2.518182 1_445
Ca1 O7 2.648433 1_545
Ca1 O8 2.689693 1_545
Ca1 O1 2.797201 1_455
Ca1 O2 2.975758 1_454
O0 W1 2.050567 1_654
O0 W0 2.184638 1_555
O0 Pr1 2.392095 1_555
O1 W3 2.135905 1_555
O1 W0 2.136761 1_545
O1 Pr0 2.316319 1_555
O2 W1 2.090114 1_645
O2 W2 2.156391 1_556
O2 Pr0 2.444603 1_555
O3 W2 2.107087 1_556
O3 W1 2.167653 1_655
O3 Pr0 2.656529 1_555
O3 Pr1 3.001534 1_556
O4 W0 2.148467 1_555
O4 W3 2.156699 1_555
O4 Pr0 2.630267 1_555
O4 Pr1 2.784841 1_555
O5 W2 2.044245 1_555
O5 W3 2.186031 1_555
O5 Pr1 2.521944 1_555
O6 W2 2.050567 1_556
O6 W3 2.184638 1_555
O6 Pr0 2.392095 1_455
O7 W0 2.135905 1_455
O7 W3 2.136761 1_565
O7 Pr1 2.316319 1_555
O8 W2 2.090114 1_565
O8 W1 2.156391 1_554
O8 Pr1 2.444603 1_555
O9 W3 2.148467 1_555
O9 W0 2.156699 1_455
O9 Pr1 2.630267 1_555
O9 Pr0 2.784841 1_455
O10 W1 2.107087 1_554
O10 W2 2.167653 1_555
O10 Pr1 2.656529 1_555
O10 Pr0 3.001534 1_454
O11 W1 2.044245 1_555
O11 W0 2.186031 1_455
O11 Pr0 2.521944 1_455
