# generated using pymatgen
data_YbPrS3
_symmetry_space_group_name_H-M   'P 1'
_cell_length_a   7.23970564
_cell_length_b   7.23970564
_cell_length_c   8.87674700
_cell_angle_alpha   90.00000000
_cell_angle_beta   90.00000000
_cell_angle_gamma   147.86300049
_symmetry_Int_Tables_number   1
_chemical_formula_structural   YbPrS3
_chemical_formula_sum   'Yb2 Pr2 S6'
_cell_volume   247.49293513
_cell_formula_units_Z   2
loop_
 _symmetry_equiv_pos_site_id
 _symmetry_equiv_pos_as_xyz
  1  'x, y, z'
loop_
 _atom_site_type_symbol
 _atom_site_label
 _atom_site_symmetry_multiplicity
 _atom_site_fract_x
 _atom_site_fract_y
 _atom_site_fract_z
 _atom_site_occupancy
  Yb  Yb0  1  0.00000000  0.00000000  0.50000000  1
  Yb  Yb1  1  0.00000000  0.00000000  0.00000000  1
  Pr  Pr0  1  0.74765400  0.25234600  0.25000000  1
  Pr  Pr1  1  0.25234600  0.74765400  0.75000000  1
  S  S0  1  0.63837800  0.36162200  0.58409800  1
  S  S1  1  0.63837800  0.36162200  0.91590200  1
  S  S2  1  0.36162200  0.63837800  0.08409800  1
  S  S3  1  0.36162200  0.63837800  0.41590200  1
  S  S4  1  0.10825200  0.89174800  0.25000000  1
  S  S5  1  0.89174800  0.10825200  0.75000000  1
loop_
_geom_bond_atom_site_label_1
_geom_bond_atom_site_label_2
_geom_bond_distance
_geom_bond_site_symmetry_2
Pr0 S4 2.788812 1_545
Pr0 S4 2.788812 1_655
Pr0 S2 2.949353 1_545
Pr0 S2 2.949353 1_655
Pr0 S3 2.949353 1_545
Pr0 S3 2.949353 1_655
Pr0 S1 3.332735 1_554
Pr0 S0 3.332735 1_555
Pr1 S5 2.788812 1_455
Pr1 S5 2.788812 1_565
Pr1 S0 2.949353 1_455
Pr1 S1 2.949353 1_565
Pr1 S1 2.949353 1_455
Pr1 S0 2.949353 1_565
Pr1 S2 3.332735 1_556
Pr1 S3 3.332735 1_555
S0 Yb0 2.877446 1_555
S0 Yb0 2.877446 1_665
S1 Yb1 2.877446 1_556
S1 Yb1 2.877446 1_666
S2 Yb1 2.877446 1_665
S2 Yb1 2.877446 1_555
S3 Yb0 2.877446 1_665
S3 Yb0 2.877446 1_555
S4 Yb1 2.682050 1_565
S4 Yb0 2.682050 1_565
S5 Yb1 2.682050 1_656
S5 Yb0 2.682050 1_655
