# generated using pymatgen
data_CrN2
_symmetry_space_group_name_H-M   'P 1'
_cell_length_a   17.07825133
_cell_length_b   17.07825133
_cell_length_c   17.07825133
_cell_angle_alpha   109.47122063
_cell_angle_beta   109.47122063
_cell_angle_gamma   109.47122063
_symmetry_Int_Tables_number   1
_chemical_formula_structural   CrN2
_chemical_formula_sum   'Cr24 N48'
_cell_volume   3834.49618857
_cell_formula_units_Z   24
loop_
 _symmetry_equiv_pos_site_id
 _symmetry_equiv_pos_as_xyz
  1  'x, y, z'
loop_
 _atom_site_type_symbol
 _atom_site_label
 _atom_site_symmetry_multiplicity
 _atom_site_fract_x
 _atom_site_fract_y
 _atom_site_fract_z
 _atom_site_occupancy
  Cr  Cr0  1  0.27227800  0.57510800  0.69717000  1
  Cr  Cr1  1  0.30283000  0.72772200  0.42489200  1
  Cr  Cr2  1  0.42489200  0.69717000  0.12206200  1
  Cr  Cr3  1  0.69717000  0.42489200  0.12206200  1
  Cr  Cr4  1  0.57510800  0.27227800  0.69717000  1
  Cr  Cr5  1  0.72772200  0.30283000  0.42489200  1
  Cr  Cr6  1  0.12206200  0.42489200  0.69717000  1
  Cr  Cr7  1  0.69717000  0.27227800  0.57510800  1
  Cr  Cr8  1  0.42489200  0.30283000  0.72772200  1
  Cr  Cr9  1  0.69717000  0.57510800  0.27227800  1
  Cr  Cr10  1  0.42489200  0.72772200  0.30283000  1
  Cr  Cr11  1  0.12206200  0.69717000  0.42489200  1
  Cr  Cr12  1  0.72772200  0.42489200  0.30283000  1
  Cr  Cr13  1  0.69717000  0.12206200  0.42489200  1
  Cr  Cr14  1  0.57510800  0.69717000  0.27227800  1
  Cr  Cr15  1  0.30283000  0.42489200  0.72772200  1
  Cr  Cr16  1  0.42489200  0.12206200  0.69717000  1
  Cr  Cr17  1  0.27227800  0.69717000  0.57510800  1
  Cr  Cr18  1  0.87793800  0.57510800  0.30283000  1
  Cr  Cr19  1  0.30283000  0.87793800  0.57510800  1
  Cr  Cr20  1  0.57510800  0.30283000  0.87793800  1
  Cr  Cr21  1  0.30283000  0.57510800  0.87793800  1
  Cr  Cr22  1  0.57510800  0.87793800  0.30283000  1
  Cr  Cr23  1  0.87793800  0.30283000  0.57510800  1
  N  N0  1  0.82137000  0.50000000  0.17863000  1
  N  N1  1  0.67863000  0.17863000  0.35725900  1
  N  N2  1  0.50000000  0.32137000  0.67863000  1
  N  N3  1  0.32137000  0.50000000  0.67863000  1
  N  N4  1  0.50000000  0.82137000  0.17863000  1
  N  N5  1  0.17863000  0.67863000  0.35725900  1
  N  N6  1  0.67863000  0.50000000  0.32137000  1
  N  N7  1  0.17863000  0.82137000  0.50000000  1
  N  N8  1  0.35725900  0.67863000  0.17863000  1
  N  N9  1  0.17863000  0.50000000  0.82137000  1
  N  N10  1  0.35725900  0.17863000  0.67863000  1
  N  N11  1  0.67863000  0.32137000  0.50000000  1
  N  N12  1  0.17863000  0.35725900  0.67863000  1
  N  N13  1  0.32137000  0.67863000  0.50000000  1
  N  N14  1  0.50000000  0.17863000  0.82137000  1
  N  N15  1  0.67863000  0.35725900  0.17863000  1
  N  N16  1  0.50000000  0.67863000  0.32137000  1
  N  N17  1  0.82137000  0.17863000  0.50000000  1
  N  N18  1  0.32137000  0.64274100  0.82137000  1
  N  N19  1  0.82137000  0.32137000  0.64274100  1
  N  N20  1  0.64274100  0.82137000  0.32137000  1
  N  N21  1  0.82137000  0.64274100  0.32137000  1
  N  N22  1  0.64274100  0.32137000  0.82137000  1
  N  N23  1  0.32137000  0.82137000  0.64274100  1
  N  N24  1  0.14992900  0.50000000  0.64992900  1
  N  N25  1  0.35007100  0.85007100  0.50000000  1
  N  N26  1  0.50000000  0.64992900  0.14992900  1
  N  N27  1  0.64992900  0.50000000  0.14992900  1
  N  N28  1  0.50000000  0.14992900  0.64992900  1
  N  N29  1  0.85007100  0.35007100  0.50000000  1
  N  N30  1  0.64992900  0.14992900  0.50000000  1
  N  N31  1  0.50000000  0.35007100  0.85007100  1
  N  N32  1  0.50000000  0.85007100  0.35007100  1
  N  N33  1  0.14992900  0.64992900  0.50000000  1
  N  N34  1  0.85007100  0.50000000  0.35007100  1
  N  N35  1  0.35007100  0.50000000  0.85007100  1
  N  N36  1  0.35420200  0.64579800  0.00000000  1
  N  N37  1  0.29159600  0.64579800  0.64579800  1
  N  N38  1  0.35420200  0.70840400  0.35420200  1
  N  N39  1  0.70840400  0.35420200  0.35420200  1
  N  N40  1  0.64579800  0.35420200  0.00000000  1
  N  N41  1  0.64579800  0.29159600  0.64579800  1
  N  N42  1  0.35420200  0.35420200  0.70840400  1
  N  N43  1  0.00000000  0.35420200  0.64579800  1
  N  N44  1  0.00000000  0.64579800  0.35420200  1
  N  N45  1  0.64579800  0.64579800  0.29159600  1
  N  N46  1  0.64579800  0.00000000  0.35420200  1
  N  N47  1  0.35420200  0.00000000  0.64579800  1
loop_
_geom_bond_atom_site_label_1
_geom_bond_atom_site_label_2
_geom_bond_distance
_geom_bond_site_symmetry_2
Cr0 N37 1.723258 1_555
Cr0 N24 1.749769 1_555
Cr0 N3 1.752627 1_555
Cr0 N18 1.752628 1_555
Cr1 N38 1.723258 1_555
Cr1 N25 1.749769 1_555
Cr1 N13 1.752627 1_555
Cr1 N5 1.752628 1_555
Cr2 N36 1.723258 1_555
Cr2 N26 1.749769 1_555
Cr2 N4 1.752627 1_555
Cr2 N8 1.752640 1_555
Cr3 N40 1.723258 1_555
Cr3 N27 1.749769 1_555
Cr3 N0 1.752627 1_555
Cr3 N15 1.752640 1_555
Cr4 N41 1.723258 1_555
Cr4 N28 1.749769 1_555
Cr4 N2 1.752627 1_555
Cr4 N22 1.752628 1_555
Cr5 N39 1.723258 1_555
Cr5 N29 1.749769 1_555
Cr5 N11 1.752627 1_555
Cr5 N1 1.752628 1_555
Cr6 N43 1.723258 1_555
Cr6 N24 1.749769 1_555
Cr6 N9 1.752627 1_555
Cr6 N12 1.752640 1_555
Cr7 N41 1.723258 1_555
Cr7 N30 1.749769 1_555
Cr7 N11 1.752627 1_555
Cr7 N19 1.752628 1_555
Cr8 N42 1.723258 1_555
Cr8 N31 1.749769 1_555
Cr8 N2 1.752627 1_555
Cr8 N10 1.752628 1_555
Cr9 N45 1.723258 1_555
Cr9 N27 1.749769 1_555
Cr9 N6 1.752627 1_555
Cr9 N21 1.752628 1_555
Cr10 N38 1.723258 1_555
Cr10 N32 1.749769 1_555
Cr10 N16 1.752627 1_555
Cr10 N8 1.752628 1_555
Cr11 N44 1.723258 1_555
Cr11 N33 1.749769 1_555
Cr11 N7 1.752627 1_555
Cr11 N5 1.752640 1_555
Cr12 N39 1.723258 1_555
Cr12 N34 1.749769 1_555
Cr12 N6 1.752627 1_555
Cr12 N15 1.752628 1_555
Cr13 N46 1.723258 1_555
Cr13 N30 1.749769 1_555
Cr13 N17 1.752627 1_555
Cr13 N1 1.752640 1_555
Cr14 N45 1.723258 1_555
Cr14 N26 1.749769 1_555
Cr14 N16 1.752627 1_555
Cr14 N20 1.752628 1_555
Cr15 N42 1.723258 1_555
Cr15 N35 1.749769 1_555
Cr15 N3 1.752627 1_555
Cr15 N12 1.752628 1_555
Cr16 N47 1.723258 1_555
Cr16 N28 1.749769 1_555
Cr16 N14 1.752627 1_555
Cr16 N10 1.752640 1_555
Cr17 N37 1.723258 1_555
Cr17 N33 1.749769 1_555
Cr17 N13 1.752627 1_555
Cr17 N23 1.752628 1_555
Cr18 N44 1.723258 1_655
Cr18 N34 1.749769 1_555
Cr18 N0 1.752627 1_555
Cr18 N21 1.752640 1_555
Cr19 N47 1.723258 1_565
Cr19 N25 1.749769 1_555
Cr19 N7 1.752627 1_555
Cr19 N23 1.752640 1_555
Cr20 N40 1.723258 1_556
Cr20 N31 1.749769 1_555
Cr20 N14 1.752627 1_555
Cr20 N22 1.752640 1_555
Cr21 N36 1.723258 1_556
Cr21 N35 1.749769 1_555
Cr21 N9 1.752627 1_555
Cr21 N18 1.752640 1_555
Cr22 N46 1.723258 1_565
Cr22 N32 1.749769 1_555
Cr22 N4 1.752627 1_555
Cr22 N20 1.752640 1_555
Cr23 N43 1.723258 1_655
Cr23 N29 1.749769 1_555
Cr23 N17 1.752627 1_555
Cr23 N19 1.752640 1_555
