# generated using pymatgen
data_KCrH4(C2O5)2
_symmetry_space_group_name_H-M   'P 1'
_cell_length_a   6.78723028
_cell_length_b   7.24785600
_cell_length_c   10.09749833
_cell_angle_alpha   90.00065845
_cell_angle_beta   91.34604110
_cell_angle_gamma   90.00136111
_symmetry_Int_Tables_number   1
_chemical_formula_structural   KCrH4(C2O5)2
_chemical_formula_sum   'K2 Cr2 H8 C8 O20'
_cell_volume   496.58783148
_cell_formula_units_Z   2
loop_
 _symmetry_equiv_pos_site_id
 _symmetry_equiv_pos_as_xyz
  1  'x, y, z'
loop_
 _atom_site_type_symbol
 _atom_site_label
 _atom_site_symmetry_multiplicity
 _atom_site_fract_x
 _atom_site_fract_y
 _atom_site_fract_z
 _atom_site_occupancy
  K  K0  1  0.99996600  0.99999100  0.00000600  1
  K  K1  1  0.50000600  0.49998600  0.00000200  1
  Cr  Cr0  1  0.00003600  0.50010300  0.49994700  1
  Cr  Cr1  1  0.50006500  0.99999600  0.50013200  1
  H  H0  1  0.15465100  0.11350900  0.39791600  1
  H  H1  1  0.65472200  0.61356100  0.39784800  1
  H  H2  1  0.15466600  0.88646700  0.39790800  1
  H  H3  1  0.65476700  0.38642500  0.39785900  1
  H  H4  1  0.84538700  0.88641200  0.60212300  1
  H  H5  1  0.34517800  0.38643000  0.60212600  1
  H  H6  1  0.84540300  0.11357100  0.60212000  1
  H  H7  1  0.34522600  0.61355400  0.60213500  1
  C  C0  1  0.62952100  0.89250300  0.24684500  1
  C  C1  1  0.12949600  0.39246600  0.24677300  1
  C  C2  1  0.62952600  0.10748300  0.24683700  1
  C  C3  1  0.12950600  0.60753900  0.24675400  1
  C  C4  1  0.37043400  0.10748300  0.75322800  1
  C  C5  1  0.87054100  0.60750000  0.75311500  1
  C  C6  1  0.37043600  0.89250300  0.75322000  1
  C  C7  1  0.87054700  0.39251400  0.75309200  1
  O  O0  1  0.21372700  0.99999400  0.43945800  1
  O  O1  1  0.71383500  0.50001200  0.43935500  1
  O  O2  1  0.78629600  0.99999300  0.56062300  1
  O  O3  1  0.28618700  0.50000700  0.56055400  1
  O  O4  1  0.56754600  0.81923000  0.35768800  1
  O  O5  1  0.06750700  0.31923600  0.35763800  1
  O  O6  1  0.56755200  0.18076100  0.35768100  1
  O  O7  1  0.06752800  0.68083600  0.35760800  1
  O  O8  1  0.43245600  0.18080300  0.64241600  1
  O  O9  1  0.93249100  0.68082400  0.64228200  1
  O  O10  1  0.43244900  0.81919000  0.64240900  1
  O  O11  1  0.93248400  0.31924500  0.64225400  1
  O  O12  1  0.68638700  0.80454700  0.15087300  1
  O  O13  1  0.18629700  0.30454300  0.15083100  1
  O  O14  1  0.68639300  0.19542200  0.15087100  1
  O  O15  1  0.18632000  0.69542700  0.15079400  1
  O  O16  1  0.31352500  0.19544300  0.84922200  1
  O  O17  1  0.81370300  0.69544000  0.84912800  1
  O  O18  1  0.31352400  0.80451900  0.84922000  1
  O  O19  1  0.81371300  0.30453200  0.84911000  1
loop_
_geom_bond_atom_site_label_1
_geom_bond_atom_site_label_2
_geom_bond_distance
_geom_bond_site_symmetry_2
K0 O13 2.949657 1_665
K0 O15 2.949669 1_655
K0 O17 2.949731 1_554
K0 O19 2.949811 1_564
K0 O16 3.001045 1_664
K0 O18 3.001150 1_654
K0 O14 3.001502 1_565
K0 O12 3.001555 1_555
K1 O16 2.949803 1_554
K1 O18 2.949833 1_554
K1 O12 2.950083 1_555
K1 O14 2.950177 1_555
K1 O15 3.001703 1_555
K1 O13 3.001987 1_555
K1 O17 3.002204 1_554
K1 O19 3.002379 1_554
Cr0 O9 2.005596 1_455
Cr0 O7 2.005601 1_555
Cr0 O5 2.005974 1_555
Cr0 O11 2.006059 1_455
Cr0 O3 2.022551 1_555
Cr0 O1 2.022832 1_455
Cr1 O10 2.005701 1_555
Cr1 O8 2.005738 1_565
Cr1 O4 2.006497 1_555
Cr1 O6 2.006561 1_565
Cr1 O2 2.022741 1_555
Cr1 O0 2.023950 1_555
H0 O0 1.002871 1_545
H0 O5 1.651459 1_555
H1 O1 1.003026 1_555
H1 O4 1.650873 1_555
H2 O0 1.002912 1_555
H2 O7 1.650835 1_555
H3 O1 1.003064 1_555
H3 O6 1.650943 1_555
H4 O2 1.003130 1_555
H4 O9 1.650168 1_555
H5 O3 1.003138 1_555
H5 O8 1.651154 1_555
H6 O2 1.003118 1_545
H6 O11 1.650582 1_555
H7 O3 1.003101 1_555
H7 O10 1.651009 1_555
C0 O12 1.229652 1_555
C0 O4 1.316734 1_555
C1 O13 1.229140 1_555
C1 O5 1.316831 1_555
C2 O14 1.229544 1_555
C2 O6 1.316752 1_555
C3 O15 1.229185 1_555
C3 O7 1.316904 1_555
C4 O16 1.229941 1_555
C4 O8 1.316711 1_555
C5 O17 1.229858 1_555
C5 O9 1.316739 1_555
C6 O18 1.230088 1_555
C6 O10 1.316659 1_555
C7 O19 1.230049 1_555
C7 O11 1.316589 1_555
