# generated using pymatgen
data_CaAl2(Si3O10)2
_symmetry_space_group_name_H-M   'P 1'
_cell_length_a   16.95293500
_cell_length_b   7.37965300
_cell_length_c   7.60118848
_cell_angle_alpha   71.13740505
_cell_angle_beta   90.00000000
_cell_angle_gamma   90.00000000
_symmetry_Int_Tables_number   1
_chemical_formula_structural   CaAl2(Si3O10)2
_chemical_formula_sum   'Ca2 Al4 Si12 O40'
_cell_volume   899.89042426
_cell_formula_units_Z   2
loop_
 _symmetry_equiv_pos_site_id
 _symmetry_equiv_pos_as_xyz
  1  'x, y, z'
loop_
 _atom_site_type_symbol
 _atom_site_label
 _atom_site_symmetry_multiplicity
 _atom_site_fract_x
 _atom_site_fract_y
 _atom_site_fract_z
 _atom_site_occupancy
  Ca  Ca0  1  0.74657200  0.67020700  0.85244800  1
  Ca  Ca1  1  0.24657200  0.32979300  0.14755200  1
  Al  Al0  1  0.87284900  0.75358100  0.43284000  1
  Al  Al1  1  0.37284900  0.24641900  0.56716000  1
  Al  Al2  1  0.61362300  0.09179100  0.76330800  1
  Al  Al3  1  0.11362300  0.90820900  0.23669200  1
  Si  Si0  1  0.53970000  0.38250300  0.38066900  1
  Si  Si1  1  0.03970000  0.61749700  0.61933100  1
  Si  Si2  1  0.86552700  0.32879500  0.39041900  1
  Si  Si3  1  0.36552700  0.67120500  0.60958100  1
  Si  Si4  1  0.73538800  0.01367900  0.48932900  1
  Si  Si5  1  0.23538800  0.98632100  0.51067100  1
  Si  Si6  1  0.94870700  0.13845600  0.14500300  1
  Si  Si7  1  0.44870700  0.86154400  0.85499700  1
  Si  Si8  1  0.60385500  0.12058500  0.18376900  1
  Si  Si9  1  0.10385500  0.87941500  0.81623100  1
  Si  Si10  1  0.97990100  0.21216400  0.73842500  1
  Si  Si11  1  0.47990100  0.78783600  0.26157500  1
  O  O0  1  0.94619400  0.68080200  0.60673900  1
  O  O1  1  0.44619400  0.31919800  0.39326100  1
  O  O2  1  0.84838500  0.55267000  0.36497800  1
  O  O3  1  0.34838500  0.44733000  0.63502200  1
  O  O4  1  0.79077000  0.82149700  0.54075800  1
  O  O5  1  0.29077000  0.17850300  0.45924200  1
  O  O6  1  0.90075500  0.94364800  0.24212600  1
  O  O7  1  0.40075500  0.05635200  0.75787400  1
  O  O8  1  0.58446600  0.32606100  0.21248000  1
  O  O9  1  0.08446600  0.67393900  0.78752000  1
  O  O10  1  0.58186700  0.28466500  0.57845400  1
  O  O11  1  0.08186700  0.71533500  0.42154600  1
  O  O12  1  0.54468000  0.61614600  0.32443800  1
  O  O13  1  0.04468000  0.38385400  0.67556200  1
  O  O14  1  0.78193800  0.21628100  0.40338400  1
  O  O15  1  0.28193800  0.78371900  0.59661600  1
  O  O16  1  0.91678600  0.31364700  0.21498500  1
  O  O17  1  0.41678600  0.68635300  0.78501500  1
  O  O18  1  0.91387300  0.22788800  0.58045800  1
  O  O19  1  0.41387300  0.77211200  0.41954200  1
  O  O20  1  0.67046200  0.00747400  0.33361900  1
  O  O21  1  0.17046200  0.99252600  0.66638100  1
  O  O22  1  0.69754000  0.98669800  0.69520100  1
  O  O23  1  0.19754000  0.01330200  0.30479900  1
  O  O24  1  0.54373100  0.90112700  0.81846400  1
  O  O25  1  0.04373100  0.09887300  0.18153600  1
  O  O26  1  0.93160800  0.21583000  0.92149900  1
  O  O27  1  0.43160800  0.78417000  0.07850100  1
  O  O28  1  0.63210000  0.14831100  0.97053100  1
  O  O29  1  0.13210000  0.85168900  0.02946900  1
  O  O30  1  0.52425200  0.99159200  0.22268200  1
  O  O31  1  0.02425200  0.00840800  0.77731800  1
  O  O32  1  0.72393100  0.35300100  0.82736100  1
  O  O33  1  0.22393100  0.64699900  0.17263900  1
  O  O34  1  0.74495100  0.65507700  0.18055100  1
  O  O35  1  0.24495100  0.34492300  0.81944900  1
  O  O36  1  0.89286200  0.67073600  0.88971300  1
  O  O37  1  0.39286200  0.32926400  0.11028700  1
  O  O38  1  0.60212000  0.62422200  0.81563400  1
  O  O39  1  0.10212000  0.37577800  0.18436600  1
loop_
_geom_bond_atom_site_label_1
_geom_bond_atom_site_label_2
_geom_bond_distance
_geom_bond_site_symmetry_2
Ca0 O4 2.389718 1_555
Ca0 O22 2.401984 1_555
Ca0 O32 2.439671 1_555
Ca0 O34 2.460298 1_556
Ca0 O36 2.496315 1_555
Ca0 O38 2.500381 1_555
Ca1 O5 2.389718 1_555
Ca1 O23 2.401984 1_555
Ca1 O33 2.439671 1_555
Ca1 O35 2.460298 1_554
Ca1 O37 2.496315 1_555
Ca1 O39 2.500381 1_555
Al0 O6 1.725667 1_555
Al0 O0 1.767130 1_555
Al0 O4 1.768093 1_555
Al0 O2 1.769426 1_555
Al1 O7 1.725667 1_555
Al1 O1 1.767130 1_555
Al1 O5 1.768093 1_555
Al1 O3 1.769426 1_555
Al2 O10 1.731156 1_555
Al2 O22 1.775668 1_545
Al2 O28 1.782685 1_555
Al2 O24 1.782699 1_545
Al3 O11 1.731156 1_555
Al3 O23 1.775668 1_565
Al3 O29 1.782685 1_555
Al3 O25 1.782699 1_565
O0 Si1 1.646620 1_655
O1 Si0 1.646620 1_555
O2 Si2 1.626274 1_555
O3 Si3 1.626274 1_555
O4 Si4 1.639279 1_565
O5 Si5 1.639279 1_545
O6 Si6 1.608214 1_565
O7 Si7 1.608214 1_545
O8 Si8 1.633688 1_555
O8 Si0 1.651713 1_555
O9 Si9 1.633688 1_555
O9 Si1 1.651713 1_555
O10 Si0 1.609554 1_555
O11 Si1 1.609554 1_555
O12 Si11 1.627333 1_555
O12 Si0 1.638956 1_555
O13 Si10 1.627333 1_455
O13 Si1 1.638956 1_555
O14 Si4 1.628929 1_555
O14 Si2 1.629214 1_555
O15 Si5 1.628929 1_555
O15 Si3 1.629214 1_555
O16 Si2 1.625506 1_555
O16 Si6 1.640718 1_555
O17 Si3 1.625506 1_555
O17 Si7 1.640718 1_555
O18 Si2 1.617833 1_555
O18 Si10 1.618063 1_555
O19 Si3 1.617833 1_555
O19 Si11 1.618063 1_555
O20 Si4 1.627733 1_555
O20 Si8 1.629248 1_555
O21 Si5 1.627733 1_555
O21 Si9 1.629248 1_555
O22 Si4 1.642771 1_565
O23 Si5 1.642771 1_545
O24 Si7 1.644720 1_555
O25 Si6 1.644720 1_455
O26 Si10 1.622299 1_555
O26 Si6 1.633729 1_556
O27 Si11 1.622299 1_555
O27 Si7 1.633729 1_554
O28 Si8 1.638262 1_556
O29 Si9 1.638262 1_554
O30 Si11 1.620571 1_555
O30 Si8 1.622575 1_565
O31 Si10 1.620571 1_455
O31 Si9 1.622575 1_545
