# generated using pymatgen
data_AlFe2Ge
_symmetry_space_group_name_H-M   'P 1'
_cell_length_a   10.46775935
_cell_length_b   10.46775935
_cell_length_c   10.46775935
_cell_angle_alpha   126.64260554
_cell_angle_beta   117.95634271
_cell_angle_gamma   86.23752775
_symmetry_Int_Tables_number   1
_chemical_formula_structural   AlFe2Ge
_chemical_formula_sum   'Al1 Fe2 Ge1'
_cell_volume   774.91773940
_cell_formula_units_Z   1
loop_
 _symmetry_equiv_pos_site_id
 _symmetry_equiv_pos_as_xyz
  1  'x, y, z'
loop_
 _atom_site_type_symbol
 _atom_site_label
 _atom_site_symmetry_multiplicity
 _atom_site_fract_x
 _atom_site_fract_y
 _atom_site_fract_z
 _atom_site_occupancy
  Al  Al0  1  0.00000000  0.00000000  0.00000000  1
  Fe  Fe0  1  -0.00000000  0.25564512  0.25564512  1
  Fe  Fe1  1  0.00000000  0.74435488  0.74435488  1
  Ge  Ge0  1  0.00000000  0.50000000  0.50000000  1
loop_
_geom_bond_atom_site_label_1
_geom_bond_atom_site_label_2
_geom_bond_distance
_geom_bond_site_symmetry_2
Al0 Fe1 2.403006 1_544
Al0 Fe0 2.403006 1_555
Fe0 Ge0 2.296880 1_555
Fe1 Ge0 2.296880 1_555
