# generated using pymatgen
data_Ba2Y2Mg(Fe2O5)2
_symmetry_space_group_name_H-M   'P 1'
_cell_length_a   3.89961793
_cell_length_b   7.78678798
_cell_length_c   9.66829486
_cell_angle_alpha   89.96178362
_cell_angle_beta   100.46471674
_cell_angle_gamma   89.99762084
_symmetry_Int_Tables_number   1
_chemical_formula_structural   Ba2Y2Mg(Fe2O5)2
_chemical_formula_sum   'Ba2 Y2 Mg1 Fe4 O10'
_cell_volume   288.69934475
_cell_formula_units_Z   1
loop_
 _symmetry_equiv_pos_site_id
 _symmetry_equiv_pos_as_xyz
  1  'x, y, z'
loop_
 _atom_site_type_symbol
 _atom_site_label
 _atom_site_symmetry_multiplicity
 _atom_site_fract_x
 _atom_site_fract_y
 _atom_site_fract_z
 _atom_site_occupancy
  Ba  Ba0  1  0.76704200  0.00472600  0.54181400  1
  Ba  Ba1  1  0.97421400  0.98404500  0.05375600  1
  Y  Y0  1  0.97287700  0.50274500  0.00617500  1
  Y  Y1  1  0.16197400  0.49536300  0.39489800  1
  Mg  Mg0  1  0.78304500  0.49850700  0.64495500  1
  Fe  Fe0  1  0.57872100  0.74655100  0.24196900  1
  Fe  Fe1  1  0.38311900  0.23402000  0.81087200  1
  Fe  Fe2  1  0.57176400  0.25654500  0.22386300  1
  Fe  Fe3  1  0.37774000  0.76515800  0.80705800  1
  O  O0  1  0.69467300  0.66503500  0.46777100  1
  O  O1  1  0.69475100  0.33506300  0.47060800  1
  O  O2  1  0.47195200  0.70396900  0.01101400  1
  O  O3  1  0.47360900  0.32766800  0.00802000  1
  O  O4  1  0.87191800  0.68145100  0.79044100  1
  O  O5  1  0.06550400  0.31435000  0.21725600  1
  O  O6  1  0.06221600  0.66678800  0.21492300  1
  O  O7  1  0.87451400  0.31179900  0.78971800  1
  O  O8  1  0.55254000  0.99744000  0.24776600  1
  O  O9  1  0.35115000  0.00044300  0.72379000  1
loop_
_geom_bond_atom_site_label_1
_geom_bond_atom_site_label_2
_geom_bond_distance
_geom_bond_site_symmetry_2
Ba0 O9 2.600645 1_555
Ba0 O9 2.613252 1_655
Ba0 O1 2.664027 1_555
Ba0 O0 2.741875 1_545
Ba0 O8 2.814534 1_545
Ba1 O8 2.660648 1_655
Ba1 O8 2.711815 1_555
Ba1 O6 2.906763 1_655
Ba1 O2 2.910469 1_555
Ba1 O2 2.997785 1_655
Ba1 O5 3.006974 1_665
Mg0 O4 1.988366 1_555
Mg0 O7 2.003929 1_555
Mg0 O1 2.090878 1_555
Mg0 O0 2.125414 1_555
Fe0 O8 1.957652 1_555
Fe0 O6 2.046524 1_655
Fe0 O6 2.078467 1_555
Fe0 O2 2.220945 1_555
Fe0 O0 2.238954 1_555
Fe1 O9 1.999104 1_555
Fe1 O3 2.011711 1_556
Fe1 O7 2.048111 1_455
Fe1 O7 2.054985 1_555
Fe2 O5 1.989611 1_655
Fe2 O5 2.014524 1_555
Fe2 O8 2.033569 1_545
Fe2 O3 2.125178 1_555
Fe2 O1 2.425136 1_555
Fe3 O9 1.995798 1_565
Fe3 O2 1.996491 1_556
Fe3 O4 2.055870 1_455
Fe3 O4 2.068068 1_555
O0 Y1 2.455004 1_555
O0 Y1 2.455640 1_655
O1 Y1 2.420024 1_555
O1 Y1 2.428365 1_655
O2 Y0 2.492450 1_455
O2 Y0 2.511216 1_555
O3 Y0 2.378836 1_455
O3 Y0 2.379560 1_555
O4 Y0 2.477834 1_556
O5 Y1 2.201499 1_555
O5 Y0 2.485067 1_455
O6 Y1 2.170692 1_555
O6 Y0 2.361013 1_455
O7 Y0 2.539715 1_556
