# generated using pymatgen
data_Li9Mn2Co5O16
_symmetry_space_group_name_H-M   'P 1'
_cell_length_a   2.99744400
_cell_length_b   6.43217118
_cell_length_c   15.48318027
_cell_angle_alpha   88.90985158
_cell_angle_beta   86.65989756
_cell_angle_gamma   76.85413011
_symmetry_Int_Tables_number   1
_chemical_formula_structural   Li9Mn2Co5O16
_chemical_formula_sum   'Li9 Mn2 Co5 O16'
_cell_volume   290.19504508
_cell_formula_units_Z   1
loop_
 _symmetry_equiv_pos_site_id
 _symmetry_equiv_pos_as_xyz
  1  'x, y, z'
loop_
 _atom_site_type_symbol
 _atom_site_label
 _atom_site_symmetry_multiplicity
 _atom_site_fract_x
 _atom_site_fract_y
 _atom_site_fract_z
 _atom_site_occupancy
  Li  Li0  1  0.92786800  0.13288300  0.81225100  1
  Li  Li1  1  0.19244400  0.60797200  0.56299700  1
  Li  Li2  1  0.42929900  0.12602900  0.30986400  1
  Li  Li3  1  0.57081800  0.87804900  0.68876300  1
  Li  Li4  1  0.82576800  0.37762200  0.44337100  1
  Li  Li5  1  0.06406100  0.87809600  0.18815300  1
  Li  Li6  1  0.69286700  0.61796700  0.06286300  1
  Li  Li7  1  0.30854700  0.37818500  0.93709500  1
  Li  Li8  1  0.85752400  0.25903000  0.61990000  1
  Mn  Mn0  1  0.99378400  0.99944300  0.00079400  1
  Mn  Mn1  1  0.50243200  0.00573700  0.50307800  1
  Co  Co0  1  0.25096500  0.49208200  0.74384600  1
  Co  Co1  1  0.74803500  0.50027700  0.25048300  1
  Co  Co2  1  0.13664600  0.74481600  0.37632200  1
  Co  Co3  1  0.38015300  0.25291800  0.12643300  1
  Co  Co4  1  0.62031000  0.74651400  0.87298600  1
  O  O0  1  0.43607900  0.04650100  0.90660700  1
  O  O1  1  0.69219200  0.56100300  0.66420800  1
  O  O2  1  0.00539900  0.03824200  0.41584500  1
  O  O3  1  0.10992400  0.78902600  0.78162600  1
  O  O4  1  0.35147600  0.29157900  0.52699900  1
  O  O5  1  0.56439400  0.80018800  0.28528800  1
  O  O6  1  0.24055500  0.54555100  0.15889500  1
  O  O7  1  0.81177300  0.29909200  0.03495500  1
  O  O8  1  0.39362300  0.21858500  0.72402200  1
  O  O9  1  0.69041000  0.70090300  0.46396600  1
  O  O10  1  0.94453300  0.20215400  0.21743400  1
  O  O11  1  0.01047000  0.94408000  0.58081300  1
  O  O12  1  0.26002200  0.45308000  0.33959900  1
  O  O13  1  0.54907800  0.95650200  0.09444100  1
  O  O14  1  0.13421300  0.70086300  0.96575900  1
  O  O15  1  0.80434000  0.45503100  0.84034100  1
loop_
_geom_bond_atom_site_label_1
_geom_bond_atom_site_label_2
_geom_bond_distance
_geom_bond_site_symmetry_2
Li0 O8 2.053828 1_655
Li0 O15 2.070372 1_555
Li0 O8 2.135209 1_555
Li0 O0 2.146399 1_655
Li0 O0 2.169507 1_555
Li0 O3 2.207988 1_645
Li1 O4 2.061657 1_555
Li1 O11 2.125140 1_555
Li1 O1 2.170171 1_455
Li1 O9 2.190360 1_455
Li1 O1 2.200125 1_555
Li1 O9 2.245119 1_555
Li2 O10 2.071529 1_455
Li2 O5 2.080329 1_545
Li2 O12 2.102110 1_555
Li2 O2 2.161961 1_555
Li2 O10 2.175482 1_555
Li2 O2 2.417604 1_655
Li3 O1 2.027693 1_555
Li3 O3 2.097805 1_555
Li3 O11 2.163700 1_655
Li3 O3 2.196584 1_655
Li3 O8 2.204644 1_565
Li3 O11 2.402233 1_555
Li4 O4 2.029809 1_555
Li4 O9 2.053436 1_555
Li4 O4 2.068758 1_655
Li4 O12 2.127302 1_655
Li4 O2 2.170449 1_655
Li4 O12 2.367757 1_555
Li5 O10 2.087092 1_465
Li5 O13 2.129095 1_555
Li5 O6 2.134146 1_555
Li5 O13 2.149760 1_455
Li5 O5 2.157423 1_555
Li5 O5 2.192356 1_455
Li6 O7 2.050329 1_555
Li6 O6 2.071693 1_555
Li6 O14 2.086486 1_654
Li6 O13 2.180699 1_555
Li6 O6 2.243457 1_655
Li6 O14 2.281568 1_554
Li7 O14 2.071837 1_555
Li7 O0 2.137029 1_555
Li7 O15 2.160666 1_455
Li7 O7 2.172045 1_556
Li7 O15 2.177972 1_555
Li7 O7 2.196410 1_456
Li8 O1 2.015483 1_555
Li8 O4 2.046061 1_655
Li8 O11 2.066936 1_645
Li8 O8 2.118390 1_555
Li8 O4 2.124147 1_555
Li8 O8 2.311849 1_655
Mn0 O14 1.950679 1_654
Mn0 O7 1.954256 1_565
Mn0 O13 1.970408 1_555
Mn0 O0 1.978982 1_664
Mn0 O13 2.237400 1_655
Mn0 O0 2.247212 1_564
Mn1 O4 1.830377 1_555
Mn1 O11 1.954857 1_545
Mn1 O11 1.961013 1_645
Mn1 O9 2.007889 1_545
Mn1 O2 2.009033 1_655
Mn1 O2 2.041957 1_555
Co0 O8 1.742085 1_555
Co0 O1 1.876684 1_555
Co0 O3 1.953301 1_555
Co0 O15 1.994917 1_455
Co0 O1 2.098645 1_455
Co0 O15 2.266212 1_555
Co1 O10 1.942765 1_555
Co1 O5 1.958759 1_555
Co1 O12 2.021541 1_555
Co1 O6 2.052095 1_655
Co1 O12 2.090467 1_655
Co1 O6 2.108024 1_555
Co2 O9 1.912093 1_455
Co2 O12 1.918785 1_555
Co2 O5 1.932736 1_555
Co2 O2 1.941533 1_565
Co2 O9 2.170500 1_555
Co2 O5 2.245105 1_455
Co3 O6 1.903647 1_555
Co3 O13 1.924695 1_545
Co3 O7 1.927010 1_555
Co3 O10 1.938782 1_455
Co3 O10 2.227708 1_555
Co3 O7 2.243186 1_455
Co4 O15 1.899484 1_555
Co4 O0 1.954280 1_565
Co4 O3 2.038490 1_655
Co4 O14 2.051145 1_555
Co4 O3 2.112658 1_555
Co4 O14 2.135038 1_655
