# generated using pymatgen
data_ZnS
_symmetry_space_group_name_H-M   'P 1'
_cell_length_a   12.34515076
_cell_length_b   15.34169717
_cell_length_c   13.41094744
_cell_angle_alpha   83.62301169
_cell_angle_beta   87.00931494
_cell_angle_gamma   82.88458676
_symmetry_Int_Tables_number   1
_chemical_formula_structural   ZnS
_chemical_formula_sum   'Zn50 S50'
_cell_volume   2502.91673912
_cell_formula_units_Z   50
loop_
 _symmetry_equiv_pos_site_id
 _symmetry_equiv_pos_as_xyz
  1  'x, y, z'
loop_
 _atom_site_type_symbol
 _atom_site_label
 _atom_site_symmetry_multiplicity
 _atom_site_fract_x
 _atom_site_fract_y
 _atom_site_fract_z
 _atom_site_occupancy
  Zn  Zn0  1  0.44687949  0.90280256  0.83674984  1
  Zn  Zn1  1  0.44888276  0.25234893  0.10103630  1
  Zn  Zn2  1  0.66919876  0.04660563  0.93701667  1
  Zn  Zn3  1  0.66853529  0.32569276  0.93520086  1
  Zn  Zn4  1  0.05939490  0.32977285  0.30081770  1
  Zn  Zn5  1  0.75955908  0.26126320  0.56902984  1
  Zn  Zn6  1  0.63169870  0.84054361  0.60199400  1
  Zn  Zn7  1  0.90292815  0.96861977  0.10137387  1
  Zn  Zn8  1  0.31567605  0.10030337  0.59846876  1
  Zn  Zn9  1  0.59424492  0.78313200  0.88304819  1
  Zn  Zn10  1  0.61649299  0.45815977  0.54923099  1
  Zn  Zn11  1  0.65524585  0.07216348  0.19080027  1
  Zn  Zn12  1  0.60835552  0.57734379  0.02206263  1
  Zn  Zn13  1  0.97623475  0.02793086  0.90422600  1
  Zn  Zn14  1  0.23506255  0.62723814  0.93433843  1
  Zn  Zn15  1  0.59912345  0.40556662  0.28950584  1
  Zn  Zn16  1  0.11850494  0.97570200  0.41945931  1
  Zn  Zn17  1  0.10216097  0.69487502  0.21100963  1
  Zn  Zn18  1  0.93625856  0.05858083  0.37888182  1
  Zn  Zn19  1  0.19075554  0.00773584  0.70692908  1
  Zn  Zn20  1  0.89500623  0.40508903  0.89806240  1
  Zn  Zn21  1  0.74977106  0.23206452  0.75693067  1
  Zn  Zn22  1  0.79884558  0.36640197  0.32133519  1
  Zn  Zn23  1  0.62865540  0.05969405  0.47434759  1
  Zn  Zn24  1  0.28586807  0.11180044  0.93777310  1
  Zn  Zn25  1  0.24142105  0.76295045  0.64063747  1
  Zn  Zn26  1  0.91653351  0.76933391  0.72590368  1
  Zn  Zn27  1  0.53419744  0.74610353  0.14672152  1
  Zn  Zn28  1  0.84223698  0.97926924  0.61766555  1
  Zn  Zn29  1  0.49580819  0.25503402  0.80268589  1
  Zn  Zn30  1  0.30339137  0.82124304  0.30640162  1
  Zn  Zn31  1  0.97475902  0.43709211  0.52074384  1
  Zn  Zn32  1  0.08376048  0.64107087  0.50681632  1
  Zn  Zn33  1  0.31495130  0.26133163  0.33405333  1
  Zn  Zn34  1  0.19423431  0.22810446  0.16133939  1
  Zn  Zn35  1  0.44681314  0.90471217  0.43009866  1
  Zn  Zn36  1  0.66804490  0.24964864  0.32401715  1
  Zn  Zn37  1  0.53802360  0.53102905  0.79712303  1
  Zn  Zn38  1  0.17858678  0.19173141  0.69982109  1
  Zn  Zn39  1  0.35654495  0.50854087  0.56023366  1
  Zn  Zn40  1  0.48583953  0.58540883  0.28126388  1
  Zn  Zn41  1  0.41319400  0.74118249  0.81952183  1
  Zn  Zn42  1  0.23890031  0.38957959  0.56273500  1
  Zn  Zn43  1  0.97857171  0.55416735  0.33438606  1
  Zn  Zn44  1  0.93235122  0.22606452  0.66892710  1
  Zn  Zn45  1  0.16553256  0.86048804  0.94760958  1
  Zn  Zn46  1  0.99587242  0.63202187  0.02824057  1
  Zn  Zn47  1  0.78393170  0.62787157  0.82848054  1
  Zn  Zn48  1  0.16818710  0.30625515  0.90749599  1
  Zn  Zn49  1  0.99475819  0.84265676  0.57837045  1
  S  S0  1  0.62541365  0.12965061  0.79557618  1
  S  S1  1  0.07917888  0.97071283  0.03927470  1
  S  S2  1  0.40772040  0.27242574  0.47555059  1
  S  S3  1  0.83752118  0.26764132  0.90637493  1
  S  S4  1  0.06506867  0.32684643  0.64824280  1
  S  S5  1  0.13327978  0.18979888  0.01864608  1
  S  S6  1  0.30624852  0.33735093  0.17452514  1
  S  S7  1  0.66815640  0.71500014  0.02948112  1
  S  S8  1  0.82651425  0.02864210  0.23456663  1
  S  S9  1  0.71496719  0.50046571  0.88648102  1
  S  S10  1  0.51419356  0.56704675  0.63426725  1
  S  S11  1  0.45033838  0.76411463  0.64094345  1
  S  S12  1  0.54379821  0.18435590  0.24745917  1
  S  S13  1  0.43923320  0.60535782  0.91786017  1
  S  S14  1  0.22075052  0.62366745  0.60899254  1
  S  S15  1  0.76194511  0.15590228  0.44890724  1
  S  S16  1  0.40473201  0.90946771  0.62443932  1
  S  S17  1  0.31582227  0.64306443  0.20731463  1
  S  S18  1  0.22178172  0.76027965  0.81856412  1
  S  S19  1  0.71658635  0.76284164  0.73930862  1
  S  S20  1  0.13183904  0.50405246  0.98956541  1
  S  S21  1  0.60447767  0.33024862  0.67107335  1
  S  S22  1  0.03201119  0.09873644  0.75655626  1
  S  S23  1  0.15622546  0.19117987  0.33070202  1
  S  S24  1  0.34545742  0.77163169  0.14778847  1
  S  S25  1  0.27918037  0.97841020  0.86477714  1
  S  S26  1  0.49104494  0.47604806  0.41684996  1
  S  S27  1  0.92233911  0.59344012  0.49651744  1
  S  S28  1  0.49203368  0.33611958  0.94588752  1
  S  S29  1  0.79805178  0.39994089  0.48815030  1
  S  S30  1  0.07359253  0.44521623  0.86962458  1
  S  S31  1  0.94731198  0.66032014  0.86036857  1
  S  S32  1  0.58147335  0.70685857  0.31101762  1
  S  S33  1  0.92122184  0.36721819  0.19669351  1
  S  S34  1  0.13834006  0.74716661  0.36094288  1
  S  S35  1  0.10966045  0.43774357  0.38848097  1
  S  S36  1  0.55082636  0.01682580  0.07284755  1
  S  S37  1  0.82516150  0.95465005  0.94952503  1
  S  S38  1  0.30533560  0.23357864  0.80647226  1
  S  S39  1  0.44865407  0.74803499  0.40588312  1
  S  S40  1  0.53972415  0.49303291  0.15210605  1
  S  S41  1  0.53001429  0.96754153  0.68341108  1
  S  S42  1  0.29545227  0.96552963  0.34011984  1
  S  S43  1  0.40538344  0.10545765  0.07067926  1
  S  S44  1  0.63297683  0.91527475  0.44229036  1
  S  S45  1  0.13337985  0.72622197  0.04089401  1
  S  S46  1  0.15899996  0.90943745  0.59372103  1
  S  S47  1  0.01675884  0.85150470  0.39627875  1
  S  S48  1  0.47332696  0.14681797  0.53877124  1
  S  S49  1  0.93387340  0.64447116  0.19589855  1
loop_
_geom_bond_atom_site_label_1
_geom_bond_atom_site_label_2
_geom_bond_distance
_geom_bond_site_symmetry_2
Zn28 Zn49 2.716586 1_555
Zn39 Zn42 2.465617 1_555
S0 Zn2 2.216521 1_555
S0 Zn21 2.329767 1_555
S0 Zn29 2.351947 1_555
S1 Zn7 2.291544 1_455
S1 Zn13 2.297061 1_464
S1 Zn45 2.320715 1_554
S2 S48 2.100084 1_555
S2 Zn33 2.299631 1_555
S2 Zn42 2.868030 1_555
S3 Zn3 2.196980 1_555
S3 Zn20 2.296265 1_555
S3 Zn21 2.470673 1_555
S4 Zn44 2.374209 1_455
S4 Zn38 2.408785 1_555
S4 Zn31 2.473194 1_455
S4 Zn42 2.618439 1_555
S5 Zn34 2.254618 1_555
S5 Zn48 2.265360 1_554
S5 Zn24 2.381879 1_554
S6 Zn1 2.303918 1_555
S6 Zn33 2.321105 1_555
S6 Zn34 2.327678 1_555
S7 Zn27 2.265956 1_555
S7 Zn9 2.297035 1_554
S7 Zn12 2.335710 1_555
S8 Zn7 2.214240 1_545
S8 Zn11 2.225631 1_555
S8 Zn18 2.533280 1_555
S9 Zn47 2.270650 1_555
S9 Zn12 2.504305 1_556
S9 Zn20 2.506996 1_555
S9 Zn37 2.514385 1_555
S9 Zn3 2.810236 1_555
S10 Zn37 2.218252 1_555
S10 Zn10 2.331596 1_555
S10 Zn39 2.532086 1_555
S11 S16 2.220594 1_555
S11 Zn41 2.409943 1_555
S11 Zn25 2.581609 1_555
S11 Zn6 2.655705 1_555
S12 Zn11 2.242248 1_555
S12 Zn36 2.276764 1_555
S12 Zn1 2.408188 1_555
S13 Zn37 2.295454 1_555
S13 Zn41 2.335073 1_555
S13 Zn14 2.502654 1_555
S13 Zn12 2.538780 1_556
S14 Zn32 2.204010 1_555
S14 Zn25 2.271372 1_555
S14 Zn39 2.401281 1_555
S15 Zn23 2.331056 1_555
S15 Zn36 2.339231 1_555
S15 Zn5 2.402197 1_555
S15 Zn18 2.654545 1_555
S16 S41 2.106385 1_555
S16 Zn35 2.638092 1_555
S17 S24 2.111911 1_555
S17 Zn40 2.394508 1_555
S17 Zn17 2.658445 1_555
S18 Zn41 2.345347 1_555
S18 Zn25 2.382146 1_555
S18 Zn14 2.417288 1_555
S18 Zn45 2.458027 1_555
S19 Zn6 2.305361 1_555
S19 Zn47 2.352911 1_555
S19 Zn9 2.409765 1_555
S19 Zn26 2.479063 1_555
S20 S30 2.126776 1_555
S20 Zn14 2.435418 1_555
S20 Zn46 2.501972 1_456
S21 Zn10 2.424347 1_555
S21 Zn29 2.435292 1_555
S21 Zn21 2.443950 1_555
S21 Zn5 2.490905 1_555
S22 Zn13 2.267423 1_455
S22 Zn19 2.371725 1_555
S22 Zn44 2.399199 1_455
S22 Zn38 2.478596 1_555
S23 Zn4 2.311178 1_555
S23 Zn34 2.317060 1_555
S23 Zn33 2.354216 1_555
S24 Zn27 2.313936 1_555
S24 Zn30 2.349517 1_555
S25 Zn0 2.278930 1_555
S25 Zn24 2.376625 1_565
S25 Zn19 2.404822 1_565
S25 Zn45 2.548549 1_555
S26 Zn40 2.330925 1_555
S26 Zn15 2.383498 1_555
S26 Zn10 2.387252 1_555
S26 Zn39 2.525431 1_555
S27 Zn32 2.221729 1_655
S27 Zn43 2.366973 1_555
S27 Zn31 2.396269 1_555
S28 Zn3 2.163345 1_555
S28 Zn1 2.392631 1_556
S28 Zn29 2.396850 1_555
S29 Zn22 2.349863 1_555
S29 Zn5 2.369145 1_555
S29 Zn31 2.395336 1_555
S29 Zn10 2.442847 1_555
S30 Zn48 2.317599 1_555
S30 Zn20 2.362493 1_455
S31 Zn47 2.210170 1_555
S31 Zn26 2.331842 1_555
S31 Zn46 2.339990 1_556
S32 S39 2.100103 1_555
S32 Zn27 2.304428 1_555
S32 Zn40 2.405002 1_555
S33 Zn22 2.193897 1_555
S33 Zn4 2.239909 1_655
S34 S47 2.130441 1_555
S34 Zn17 2.329590 1_555
S34 Zn30 2.492347 1_555
S34 Zn32 2.521366 1_555
S35 Zn4 2.296610 1_555
S35 Zn43 2.335399 1_455
S35 Zn31 2.368922 1_455
S35 Zn42 2.875089 1_555
S36 S43 2.113172 1_555
S36 Zn2 2.316303 1_554
S36 Zn11 2.380539 1_555
S37 Zn2 2.243588 1_565
S37 Zn13 2.315342 1_565
S37 Zn7 2.338080 1_556
S38 Zn48 2.360913 1_555
S38 Zn38 2.364886 1_555
S38 Zn29 2.411565 1_555
S38 Zn24 2.446463 1_555
S39 Zn30 2.382242 1_555
S39 Zn35 2.458216 1_555
S40 Zn12 2.246928 1_555
S40 Zn15 2.254267 1_555
S40 Zn40 2.375450 1_555
S41 Zn0 2.418103 1_555
S41 Zn6 2.507541 1_555
S42 Zn30 2.297411 1_555
S42 Zn35 2.317653 1_555
S42 Zn16 2.374483 1_555
S43 Zn24 2.358736 1_554
S43 Zn1 2.461520 1_555
S44 Zn23 2.297095 1_565
S44 Zn6 2.314607 1_555
S44 Zn35 2.339265 1_555
S45 Zn17 2.301108 1_555
S45 Zn45 2.354568 1_554
S45 Zn46 2.385655 1_455
S45 Zn14 2.397193 1_554
S46 Zn19 2.334552 1_565
S46 Zn25 2.380759 1_555
S46 Zn49 2.410020 1_455
S46 Zn16 2.492647 1_555
S47 Zn49 2.433507 1_455
S47 Zn16 2.463764 1_555
S48 Zn8 2.234404 1_555
S48 Zn23 2.378812 1_555
S49 Zn43 2.240359 1_555
S49 Zn17 2.330648 1_655
S49 Zn46 2.357422 1_555
