# generated using pymatgen
data_Cs12Sn2Sb6O
_symmetry_space_group_name_H-M   'P 1'
_cell_length_a   6.51746402
_cell_length_b   13.29343218
_cell_length_c   13.29343218
_cell_angle_alpha   120.02262437
_cell_angle_beta   90.00812708
_cell_angle_gamma   89.99187292
_symmetry_Int_Tables_number   1
_chemical_formula_structural   Cs12Sn2Sb6O
_chemical_formula_sum   'Cs12 Sn2 Sb6 O1'
_cell_volume   997.20503309
_cell_formula_units_Z   1
loop_
 _symmetry_equiv_pos_site_id
 _symmetry_equiv_pos_as_xyz
  1  'x, y, z'
loop_
 _atom_site_type_symbol
 _atom_site_label
 _atom_site_symmetry_multiplicity
 _atom_site_fract_x
 _atom_site_fract_y
 _atom_site_fract_z
 _atom_site_occupancy
  Cs  Cs0  1  0.75050600  0.54643200  0.09287200  1
  Cs  Cs1  1  0.75050200  0.54644000  0.45356000  1
  Cs  Cs2  1  0.75050600  0.90712800  0.45356800  1
  Cs  Cs3  1  0.24949400  0.45356800  0.90712800  1
  Cs  Cs4  1  0.24949800  0.45356000  0.54644000  1
  Cs  Cs5  1  0.24949400  0.09287200  0.54643200  1
  Cs  Cs6  1  0.72841400  0.88518700  0.77038400  1
  Cs  Cs7  1  0.72841300  0.88519800  0.11480200  1
  Cs  Cs8  1  0.72841400  0.22961600  0.11481300  1
  Cs  Cs9  1  0.27158600  0.11481300  0.22961600  1
  Cs  Cs10  1  0.27158700  0.11480200  0.88519800  1
  Cs  Cs11  1  0.27158600  0.77038400  0.88518700  1
  Sn  Sn0  1  0.25070800  0.66665600  0.33334400  1
  Sn  Sn1  1  0.74929200  0.33334400  0.66665600  1
  Sb  Sb0  1  0.74996800  0.21261600  0.42526100  1
  Sb  Sb1  1  0.74996100  0.21251000  0.78749000  1
  Sb  Sb2  1  0.74996800  0.57473900  0.78738400  1
  Sb  Sb3  1  0.25003200  0.78738400  0.57473900  1
  Sb  Sb4  1  0.25003900  0.78749000  0.21251000  1
  Sb  Sb5  1  0.25003200  0.42526100  0.21261600  1
  O  O0  1  0.50000000  0.00000000  0.00000000  1
loop_
_geom_bond_atom_site_label_1
_geom_bond_atom_site_label_2
_geom_bond_distance
_geom_bond_site_symmetry_2
Cs0 Cs3 3.892052 1_654
Cs0 Cs3 3.902788 1_554
Cs0 Sb1 4.260512 1_554
Cs0 Sb2 4.261734 1_554
Cs0 Sn0 4.274681 1_555
Cs0 Sn0 4.276342 1_655
Cs0 Sb5 4.276742 1_655
Cs0 Sb4 4.277758 1_655
Cs0 Sb4 4.282044 1_555
Cs0 Sb5 4.282138 1_555
Cs1 Cs4 3.892159 1_655
Cs1 Cs4 3.903686 1_555
Cs1 Sb2 4.261909 1_555
Cs1 Sb0 4.261909 1_555
Cs1 Sn0 4.274458 1_555
Cs1 Sb3 4.276878 1_655
Cs1 Sb5 4.276878 1_655
Cs1 Sn0 4.277195 1_655
Cs1 Sb3 4.281200 1_555
Cs1 Sb5 4.281200 1_555
Cs2 Cs5 3.892052 1_665
Cs2 Cs5 3.902788 1_565
Cs2 Sb1 4.260512 1_565
Cs2 Sb0 4.261734 1_565
Cs2 Sn0 4.274681 1_555
Cs2 Sn0 4.276342 1_655
Cs2 Sb3 4.276742 1_655
Cs2 Sb4 4.277758 1_655
Cs2 Sb4 4.282044 1_555
Cs2 Sb3 4.282138 1_555
Cs3 Sb4 4.260512 1_556
Cs3 Sb5 4.261734 1_556
Cs3 Sn1 4.274681 1_555
Cs3 Sn1 4.276342 1_455
Cs3 Sb2 4.276742 1_455
Cs3 Sb1 4.277758 1_455
Cs3 Sb1 4.282044 1_555
Cs3 Sb2 4.282138 1_555
Cs4 Sb3 4.261909 1_555
Cs4 Sb5 4.261909 1_555
Cs4 Sn1 4.274458 1_555
Cs4 Sb2 4.276878 1_455
Cs4 Sb0 4.276878 1_455
Cs4 Sn1 4.277195 1_455
Cs4 Sb0 4.281200 1_555
Cs4 Sb2 4.281200 1_555
Cs5 Sb4 4.260512 1_545
Cs5 Sb3 4.261734 1_545
Cs5 Sn1 4.274681 1_555
Cs5 Sn1 4.276342 1_455
Cs5 Sb0 4.276742 1_455
Cs5 Sb1 4.277758 1_455
Cs5 Sb1 4.282044 1_555
Cs5 Sb0 4.282138 1_555
Cs6 O0 3.033384 1_566
Cs6 Sb3 3.845848 1_555
Cs6 Sb3 4.077928 1_655
Cs6 Sb1 4.244384 1_565
Cs6 Sb2 4.246807 1_555
Cs7 O0 3.033729 1_565
Cs7 Sb4 3.845161 1_555
Cs7 Sb4 4.076480 1_655
Cs7 Sb0 4.245159 1_565
Cs7 Sb2 4.245159 1_554
Cs8 O0 3.033384 1_555
Cs8 Sb5 3.845848 1_555
Cs8 Sb5 4.077928 1_655
Cs8 Sb1 4.244384 1_554
Cs8 Sb0 4.246807 1_555
Cs9 O0 3.033384 1_555
Cs9 Sb0 3.845848 1_555
Cs9 Sb0 4.077928 1_455
Cs9 Sb4 4.244384 1_545
Cs9 Sb5 4.246807 1_555
Cs10 O0 3.033729 1_556
Cs10 Sb1 3.845161 1_555
Cs10 Sb1 4.076480 1_455
Cs10 Sb5 4.245159 1_556
Cs10 Sb3 4.245159 1_545
Cs11 O0 3.033384 1_566
Cs11 Sb2 3.845848 1_555
Cs11 Sb2 4.077928 1_455
Cs11 Sb4 4.244384 1_556
Cs11 Sb3 4.246807 1_555
Sb0 Sn1 2.778418 1_555
Sb1 Sn1 2.782511 1_555
Sb2 Sn1 2.778418 1_555
Sb3 Sn0 2.778418 1_555
Sb4 Sn0 2.782511 1_555
Sb5 Sn0 2.778418 1_555
