# generated using pymatgen
data_Ge5O11
_symmetry_space_group_name_H-M   'P 1'
_cell_length_a   8.31194066
_cell_length_b   8.31194066
_cell_length_c   7.99685254
_cell_angle_alpha   86.76733891
_cell_angle_beta   86.76733891
_cell_angle_gamma   126.49522223
_symmetry_Int_Tables_number   1
_chemical_formula_structural   Ge5O11
_chemical_formula_sum   'Ge10 O22'
_cell_volume   440.65082820
_cell_formula_units_Z   2
loop_
 _symmetry_equiv_pos_site_id
 _symmetry_equiv_pos_as_xyz
  1  'x, y, z'
loop_
 _atom_site_type_symbol
 _atom_site_label
 _atom_site_symmetry_multiplicity
 _atom_site_fract_x
 _atom_site_fract_y
 _atom_site_fract_z
 _atom_site_occupancy
  Ge  Ge0  1  0.28755700  0.28755700  0.17537900  1
  Ge  Ge1  1  0.72112700  0.72112700  0.81744200  1
  Ge  Ge2  1  0.84929500  0.84929500  0.19801300  1
  Ge  Ge3  1  0.14123000  0.14123000  0.82539200  1
  Ge  Ge4  1  0.71710200  0.40304700  0.30101900  1
  Ge  Ge5  1  0.40304700  0.71710200  0.30101900  1
  Ge  Ge6  1  0.28794900  0.59237100  0.69055200  1
  Ge  Ge7  1  0.59237100  0.28794900  0.69055200  1
  Ge  Ge8  1  0.85690200  0.27234300  0.96301300  1
  Ge  Ge9  1  0.27234300  0.85690200  0.96301300  1
  O  O0  1  0.85261000  0.66065800  0.31895300  1
  O  O1  1  0.66065800  0.85261000  0.31895300  1
  O  O2  1  0.13788400  0.33244700  0.68978100  1
  O  O3  1  0.33244700  0.13788400  0.68978100  1
  O  O4  1  0.71112600  0.28884400  0.49953200  1
  O  O5  1  0.28884400  0.71112600  0.49953200  1
  O  O6  1  0.33304900  0.33304900  0.95319200  1
  O  O7  1  0.69435400  0.69435400  0.04080900  1
  O  O8  1  0.12086900  0.87077800  0.50572800  1
  O  O9  1  0.87077800  0.12086900  0.50572800  1
  O  O10  1  0.06209500  0.06209500  0.27073500  1
  O  O11  1  0.94246000  0.94246000  0.71515700  1
  O  O12  1  0.92895700  0.11534400  0.98768600  1
  O  O13  1  0.11534400  0.92895700  0.98768600  1
  O  O14  1  0.46778000  0.26914500  0.26015900  1
  O  O15  1  0.26914500  0.46778000  0.26015900  1
  O  O16  1  0.53291800  0.73489600  0.74377700  1
  O  O17  1  0.73489600  0.53291800  0.74377700  1
  O  O18  1  0.85657100  0.36297700  0.15403500  1
  O  O19  1  0.36297700  0.85657100  0.15403500  1
  O  O20  1  0.15178000  0.62233800  0.86210600  1
  O  O21  1  0.62233800  0.15178000  0.86210600  1
loop_
_geom_bond_atom_site_label_1
_geom_bond_atom_site_label_2
_geom_bond_distance
_geom_bond_site_symmetry_2
Ge0 O15 1.761426 1_555
Ge0 O14 1.761426 1_555
Ge0 O10 1.762260 1_555
Ge0 O6 1.766733 1_554
Ge1 O11 1.752924 1_555
Ge1 O16 1.765422 1_555
Ge1 O17 1.765422 1_555
Ge1 O7 1.772316 1_556
Ge2 O10 1.762357 1_665
Ge2 O0 1.810504 1_555
Ge2 O1 1.810504 1_555
Ge2 O7 1.813794 1_555
Ge2 O13 2.422970 1_654
Ge2 O12 2.422970 1_564
Ge3 O11 1.821529 1_445
Ge3 O6 1.863423 1_555
Ge3 O2 1.888005 1_555
Ge3 O3 1.888005 1_555
Ge3 O12 2.025454 1_455
Ge3 O13 2.025454 1_545
Ge4 O14 1.736064 1_555
Ge4 O0 1.748763 1_555
Ge4 O18 1.784977 1_555
Ge4 O4 1.785693 1_555
Ge5 O15 1.736064 1_555
Ge5 O1 1.748763 1_555
Ge5 O19 1.784977 1_555
Ge5 O5 1.785693 1_555
Ge6 O16 1.736627 1_555
Ge6 O2 1.737918 1_555
Ge6 O5 1.768546 1_555
Ge6 O20 1.850387 1_555
Ge7 O17 1.736627 1_555
Ge7 O3 1.737918 1_555
Ge7 O4 1.768546 1_555
Ge7 O21 1.850387 1_555
Ge8 O12 1.736243 1_555
Ge8 O18 1.741493 1_556
Ge8 O21 1.844236 1_555
Ge8 O20 2.480375 1_655
Ge9 O13 1.736243 1_555
Ge9 O19 1.741493 1_556
Ge9 O20 1.844236 1_555
Ge9 O21 2.480375 1_565
