# generated using pymatgen
data_Rb2CuC2O7
_symmetry_space_group_name_H-M   'P 1'
_cell_length_a   14.97562900
_cell_length_b   6.66299400
_cell_length_c   7.97428745
_cell_angle_alpha   87.87178276
_cell_angle_beta   90.00000000
_cell_angle_gamma   90.00000000
_symmetry_Int_Tables_number   1
_chemical_formula_structural   Rb2CuC2O7
_chemical_formula_sum   'Rb8 Cu4 C8 O28'
_cell_volume   795.14569740
_cell_formula_units_Z   4
loop_
 _symmetry_equiv_pos_site_id
 _symmetry_equiv_pos_as_xyz
  1  'x, y, z'
loop_
 _atom_site_type_symbol
 _atom_site_label
 _atom_site_symmetry_multiplicity
 _atom_site_fract_x
 _atom_site_fract_y
 _atom_site_fract_z
 _atom_site_occupancy
  Rb  Rb0  1  0.39561400  0.73358900  0.91713900  1
  Rb  Rb1  1  0.89561400  0.76641100  0.08286100  1
  Rb  Rb2  1  0.60438600  0.26641100  0.08286100  1
  Rb  Rb3  1  0.10438600  0.23358900  0.91713900  1
  Rb  Rb4  1  0.39951900  0.24469600  0.59180400  1
  Rb  Rb5  1  0.89951900  0.25530400  0.40819600  1
  Rb  Rb6  1  0.60048100  0.75530400  0.40819600  1
  Rb  Rb7  1  0.10048100  0.74469600  0.59180400  1
  Cu  Cu0  1  0.76462400  0.57148600  0.75176000  1
  Cu  Cu1  1  0.26462400  0.92851400  0.24824000  1
  Cu  Cu2  1  0.23537600  0.42851400  0.24824000  1
  Cu  Cu3  1  0.73537600  0.07148600  0.75176000  1
  C  C0  1  0.86150200  0.73746900  0.55411100  1
  C  C1  1  0.36150200  0.76253100  0.44588900  1
  C  C2  1  0.13849800  0.26253100  0.44588900  1
  C  C3  1  0.63849800  0.23746900  0.55411100  1
  C  C4  1  0.85626000  0.26346500  0.93995000  1
  C  C5  1  0.35626000  0.23653500  0.06005000  1
  C  C6  1  0.14374000  0.73653500  0.06005000  1
  C  C7  1  0.64374000  0.76346500  0.93995000  1
  O  O0  1  0.25592300  0.96915200  0.74411400  1
  O  O1  1  0.75592300  0.53084800  0.25588600  1
  O  O2  1  0.74407700  0.03084800  0.25588600  1
  O  O3  1  0.24407700  0.46915200  0.74411400  1
  O  O4  1  0.08547200  0.18038100  0.54740500  1
  O  O5  1  0.58547200  0.31961900  0.45259500  1
  O  O6  1  0.91452800  0.81961900  0.45259500  1
  O  O7  1  0.41452800  0.68038100  0.54740500  1
  O  O8  1  0.88383500  0.58425500  0.65721600  1
  O  O9  1  0.38383500  0.91574500  0.34278400  1
  O  O10  1  0.11616500  0.41574500  0.34278400  1
  O  O11  1  0.61616500  0.08425500  0.65721600  1
  O  O12  1  0.77692700  0.78881400  0.57636500  1
  O  O13  1  0.27692700  0.71118600  0.42363500  1
  O  O14  1  0.22307300  0.21118600  0.42363500  1
  O  O15  1  0.72307300  0.28881400  0.57636500  1
  O  O16  1  0.78797600  0.38916300  0.94264600  1
  O  O17  1  0.28797600  0.11083700  0.05735400  1
  O  O18  1  0.21202400  0.61083700  0.05735400  1
  O  O19  1  0.71202400  0.88916300  0.94264600  1
  O  O20  1  0.85403800  0.11858700  0.83117700  1
  O  O21  1  0.35403800  0.38141300  0.16882300  1
  O  O22  1  0.14596200  0.88141300  0.16882300  1
  O  O23  1  0.64596200  0.61858700  0.83117700  1
  O  O24  1  0.42129500  0.22258200  0.96119800  1
  O  O25  1  0.92129500  0.27741800  0.03880200  1
  O  O26  1  0.57870500  0.77741800  0.03880200  1
  O  O27  1  0.07870500  0.72258200  0.96119800  1
loop_
_geom_bond_atom_site_label_1
_geom_bond_atom_site_label_2
_geom_bond_distance
_geom_bond_site_symmetry_2
Cu0 O23 1.916293 1_555
Cu0 O8 1.938562 1_555
Cu0 O16 1.943648 1_555
Cu0 O12 1.984089 1_555
Cu0 O15 2.467068 1_555
Cu1 O22 1.916293 1_555
Cu1 O9 1.938562 1_555
Cu1 O17 1.943648 1_565
Cu1 O13 1.984089 1_555
Cu1 O14 2.467068 1_565
Cu2 O21 1.916293 1_555
Cu2 O10 1.938562 1_555
Cu2 O18 1.943648 1_555
Cu2 O14 1.984089 1_555
Cu2 O13 2.467068 1_555
Cu3 O20 1.916293 1_555
Cu3 O11 1.938562 1_555
Cu3 O19 1.943648 1_545
Cu3 O15 1.984089 1_555
Cu3 O12 2.467068 1_545
C0 O6 1.246037 1_555
C0 O12 1.325604 1_555
C0 O8 1.329540 1_555
C1 O7 1.246037 1_555
C1 O13 1.325604 1_555
C1 O9 1.329540 1_555
C2 O4 1.246037 1_555
C2 O14 1.325604 1_555
C2 O10 1.329540 1_555
C3 O5 1.246037 1_555
C3 O15 1.325604 1_555
C3 O11 1.329540 1_555
C4 O25 1.258579 1_556
C4 O20 1.321931 1_555
C4 O16 1.322479 1_555
C5 O24 1.258579 1_554
C5 O21 1.321931 1_555
C5 O17 1.322479 1_555
C6 O27 1.258579 1_554
C6 O22 1.321931 1_555
C6 O18 1.322479 1_555
C7 O26 1.258579 1_556
C7 O23 1.321931 1_555
C7 O19 1.322479 1_555
O0 Rb0 2.929620 1_555
O0 Rb7 3.043943 1_555
O0 Rb4 3.050352 1_565
O0 Rb3 3.215387 1_565
O1 Rb1 2.929620 1_555
O1 Rb6 3.043943 1_555
O1 Rb5 3.050352 1_555
O1 Rb2 3.215387 1_555
O2 Rb2 2.929620 1_555
O2 Rb5 3.043943 1_555
O2 Rb6 3.050352 1_545
O2 Rb1 3.215387 1_545
O3 Rb3 2.929620 1_555
O3 Rb4 3.043943 1_555
O3 Rb7 3.050352 1_555
O3 Rb0 3.215387 1_555
O4 Rb7 2.920060 1_545
O4 Rb3 2.996066 1_555
O4 Rb5 3.032369 1_455
O5 Rb6 2.920060 1_555
O5 Rb2 2.996066 1_555
O5 Rb4 3.032369 1_555
O6 Rb5 2.920060 1_565
O6 Rb1 2.996066 1_555
O6 Rb7 3.032369 1_655
O7 Rb4 2.920060 1_555
O7 Rb0 2.996066 1_555
O7 Rb6 3.032369 1_555
O8 Rb5 3.020867 1_555
O9 Rb4 3.020867 1_565
O10 Rb7 3.020867 1_555
O11 Rb6 3.020867 1_545
O12 Rb6 2.975344 1_555
O13 Rb7 2.975344 1_555
O14 Rb4 2.975344 1_555
O15 Rb5 2.975344 1_555
O16 Rb2 3.067618 1_556
O16 Rb1 3.221100 1_556
O17 Rb3 3.067618 1_554
O17 Rb0 3.221100 1_544
O18 Rb0 3.067618 1_554
O18 Rb3 3.221100 1_554
O19 Rb1 3.067618 1_556
O19 Rb2 3.221100 1_566
O20 Rb1 3.093899 1_546
O21 Rb0 3.093899 1_554
O22 Rb3 3.093899 1_564
O23 Rb2 3.093899 1_556
O24 Rb2 2.926704 1_556
O24 Rb4 2.961874 1_555
O24 Rb0 3.312395 1_545
O24 Rb0 3.431532 1_555
O25 Rb3 2.926704 1_654
O25 Rb5 2.961874 1_555
O25 Rb1 3.312395 1_555
O25 Rb1 3.431532 1_545
O26 Rb0 2.926704 1_554
O26 Rb6 2.961874 1_555
O26 Rb2 3.312395 1_565
O26 Rb2 3.431532 1_555
O27 Rb1 2.926704 1_456
O27 Rb7 2.961874 1_555
O27 Rb3 3.312395 1_555
O27 Rb3 3.431532 1_565
