# generated using pymatgen
data_TiNiH
_symmetry_space_group_name_H-M   'P 1'
_cell_length_a   5.03263099
_cell_length_b   5.03263099
_cell_length_c   3.84050000
_cell_angle_alpha   90.00000000
_cell_angle_beta   90.00000000
_cell_angle_gamma   141.26163422
_symmetry_Int_Tables_number   1
_chemical_formula_structural   TiNiH
_chemical_formula_sum   'Ti2 Ni2 H2'
_cell_volume   60.86803503
_cell_formula_units_Z   2
loop_
 _symmetry_equiv_pos_site_id
 _symmetry_equiv_pos_as_xyz
  1  'x, y, z'
loop_
 _atom_site_type_symbol
 _atom_site_label
 _atom_site_symmetry_multiplicity
 _atom_site_fract_x
 _atom_site_fract_y
 _atom_site_fract_z
 _atom_site_occupancy
  Ti  Ti0  1  0.85814300  0.14185700  0.75000000  1
  Ti  Ti1  1  0.14185700  0.85814300  0.25000000  1
  Ni  Ni0  1  0.58594500  0.41405500  0.75000000  1
  Ni  Ni1  1  0.41405500  0.58594500  0.25000000  1
  H  H0  1  0.08223400  0.91776600  0.75000000  1
  H  H1  1  0.91776600  0.08223400  0.25000000  1
loop_
_geom_bond_atom_site_label_1
_geom_bond_atom_site_label_2
_geom_bond_distance
_geom_bond_site_symmetry_2
H0 Ni0 1.669463 1_565
H0 Ni0 1.669463 1_455
H0 Ti1 2.001972 1_555
H0 Ti1 2.001972 1_556
H0 Ti0 2.127874 1_465
H1 Ni1 1.669463 1_655
H1 Ni1 1.669463 1_545
H1 Ti0 2.001972 1_554
H1 Ti0 2.001972 1_555
H1 Ti1 2.127874 1_645
