# generated using pymatgen
data_Mg6TiNiO8
_symmetry_space_group_name_H-M   'P 1'
_cell_length_a   8.85983633
_cell_length_b   4.21556051
_cell_length_c   4.21556051
_cell_angle_alpha   90.00000000
_cell_angle_beta   90.00000000
_cell_angle_gamma   90.00000000
_symmetry_Int_Tables_number   1
_chemical_formula_structural   Mg6TiNiO8
_chemical_formula_sum   'Mg6 Ti1 Ni1 O8'
_cell_volume   157.44771209
_cell_formula_units_Z   1
loop_
 _symmetry_equiv_pos_site_id
 _symmetry_equiv_pos_as_xyz
  1  'x, y, z'
loop_
 _atom_site_type_symbol
 _atom_site_label
 _atom_site_symmetry_multiplicity
 _atom_site_fract_x
 _atom_site_fract_y
 _atom_site_fract_z
 _atom_site_occupancy
  Mg  Mg0  1  0.00000000  0.50000000  0.50000000  1
  Mg  Mg1  1  0.50000000  0.50000000  0.50000000  1
  Mg  Mg2  1  0.23633077  0.00000000  0.50000000  1
  Mg  Mg3  1  0.76366923  0.00000000  0.50000000  1
  Mg  Mg4  1  0.23633077  0.50000000  0.00000000  1
  Mg  Mg5  1  0.76366923  0.50000000  0.00000000  1
  Ti  Ti0  1  0.50000000  0.00000000  0.00000000  1
  Ni  Ni0  1  0.00000000  0.00000000  0.00000000  1
  O  O0  1  0.27533474  0.00000000  0.00000000  1
  O  O1  1  0.72466526  0.00000000  0.00000000  1
  O  O2  1  0.25089047  0.50000000  0.50000000  1
  O  O3  1  0.74910953  0.50000000  0.50000000  1
  O  O4  1  0.00000000  0.00000000  0.50000000  1
  O  O5  1  0.50000000  0.00000000  0.50000000  1
  O  O6  1  0.00000000  0.50000000  0.00000000  1
  O  O7  1  0.50000000  0.50000000  0.00000000  1
loop_
_geom_bond_atom_site_label_1
_geom_bond_atom_site_label_2
_geom_bond_distance
_geom_bond_site_symmetry_2
Mg0 O4 2.107780 1_555
Mg0 O4 2.107780 1_565
Mg0 O6 2.107780 1_556
Mg0 O6 2.107780 1_555
Mg0 O3 2.222849 1_455
Mg0 O2 2.222849 1_555
Mg1 O7 2.107780 1_555
Mg1 O7 2.107780 1_556
Mg1 O5 2.107780 1_555
Mg1 O5 2.107780 1_565
Mg1 O2 2.207070 1_555
Mg1 O3 2.207070 1_555
Mg2 O4 2.093852 1_555
Mg2 O2 2.111724 1_555
Mg2 O2 2.111724 1_545
Mg2 O0 2.135920 1_555
Mg2 O0 2.135920 1_556
Mg2 O5 2.336066 1_555
Mg3 O4 2.093852 1_655
Mg3 O3 2.111724 1_545
Mg3 O3 2.111724 1_555
Mg3 O1 2.135920 1_556
Mg3 O1 2.135920 1_555
Mg3 O5 2.336066 1_555
Mg4 O6 2.093852 1_555
Mg4 O2 2.111724 1_555
Mg4 O2 2.111724 1_554
Mg4 O0 2.135920 1_565
Mg4 O0 2.135920 1_555
Mg4 O7 2.336066 1_555
Mg5 O6 2.093852 1_655
Mg5 O3 2.111724 1_555
Mg5 O3 2.111724 1_554
Mg5 O1 2.135920 1_565
Mg5 O1 2.135920 1_555
Mg5 O7 2.336066 1_555
Ni0 O4 2.107780 1_555
Ni0 O4 2.107780 1_554
Ni0 O6 2.107780 1_545
Ni0 O6 2.107780 1_555
Ni0 O0 2.439421 1_555
Ni0 O1 2.439421 1_455
O0 Ti0 1.990497 1_555
O1 Ti0 1.990497 1_555
O5 Ti0 2.107780 1_556
O5 Ti0 2.107780 1_555
O7 Ti0 2.107780 1_565
O7 Ti0 2.107780 1_555
