# generated using pymatgen
data_CaAl2(SiO5)2
_symmetry_space_group_name_H-M   'P 1'
_cell_length_a   5.04079446
_cell_length_b   5.04079446
_cell_length_c   13.26828500
_cell_angle_alpha   90.00000000
_cell_angle_beta   90.00000000
_cell_angle_gamma   104.34493767
_symmetry_Int_Tables_number   1
_chemical_formula_structural   CaAl2(SiO5)2
_chemical_formula_sum   'Ca2 Al4 Si4 O20'
_cell_volume   326.63042263
_cell_formula_units_Z   2
loop_
 _symmetry_equiv_pos_site_id
 _symmetry_equiv_pos_as_xyz
  1  'x, y, z'
loop_
 _atom_site_type_symbol
 _atom_site_label
 _atom_site_symmetry_multiplicity
 _atom_site_fract_x
 _atom_site_fract_y
 _atom_site_fract_z
 _atom_site_occupancy
  Ca  Ca0  1  0.35517700  0.64482300  0.25000000  1
  Ca  Ca1  1  0.64482300  0.35517700  0.75000000  1
  Al  Al0  1  0.00000000  0.50000000  0.50000000  1
  Al  Al1  1  0.50000000  0.00000000  0.50000000  1
  Al  Al2  1  0.00000000  0.50000000  0.00000000  1
  Al  Al3  1  0.50000000  0.00000000  0.00000000  1
  Si  Si0  1  0.96903100  0.03096900  0.36476600  1
  Si  Si1  1  0.03096900  0.96903100  0.63523400  1
  Si  Si2  1  0.96903100  0.03096900  0.13523400  1
  Si  Si3  1  0.03096900  0.96903100  0.86476600  1
  O  O0  1  0.05416700  0.94583300  0.25000000  1
  O  O1  1  0.94583300  0.05416700  0.75000000  1
  O  O2  1  0.07253100  0.36009000  0.37860100  1
  O  O3  1  0.36009000  0.07253100  0.62139900  1
  O  O4  1  0.07253100  0.36009000  0.12139900  1
  O  O5  1  0.36009000  0.07253100  0.87860100  1
  O  O6  1  0.92746900  0.63991000  0.62139900  1
  O  O7  1  0.63991000  0.92746900  0.37860100  1
  O  O8  1  0.92746900  0.63991000  0.87860100  1
  O  O9  1  0.63991000  0.92746900  0.12139900  1
  O  O10  1  0.13466500  0.86533500  0.44123100  1
  O  O11  1  0.86533500  0.13466500  0.55876900  1
  O  O12  1  0.13466500  0.86533500  0.05876900  1
  O  O13  1  0.86533500  0.13466500  0.94123100  1
  O  O14  1  0.57933400  0.42066600  0.47178900  1
  O  O15  1  0.42066600  0.57933400  0.52821100  1
  O  O16  1  0.57933400  0.42066600  0.02821100  1
  O  O17  1  0.42066600  0.57933400  0.97178900  1
  O  O18  1  0.65100200  0.34899800  0.25000000  1
  O  O19  1  0.34899800  0.65100200  0.75000000  1
loop_
_geom_bond_atom_site_label_1
_geom_bond_atom_site_label_2
_geom_bond_distance
_geom_bond_site_symmetry_2
Ca0 O18 2.355669 1_555
Ca0 O0 2.396957 1_555
Ca0 O9 2.447076 1_555
Ca0 O2 2.447076 1_555
Ca0 O7 2.447076 1_555
Ca0 O4 2.447076 1_555
Ca1 O19 2.355669 1_555
Ca1 O1 2.396957 1_555
Ca1 O8 2.447076 1_555
Ca1 O5 2.447076 1_555
Ca1 O3 2.447076 1_555
Ca1 O6 2.447076 1_555
Al0 O2 1.831221 1_555
Al0 O6 1.831221 1_455
Al0 O11 1.959794 1_455
Al0 O10 1.959794 1_555
Al0 O15 2.091965 1_555
Al0 O14 2.091965 1_455
Al1 O7 1.831221 1_545
Al1 O3 1.831221 1_555
Al1 O11 1.959794 1_555
Al1 O10 1.959794 1_545
Al1 O14 2.091965 1_555
Al1 O15 2.091965 1_545
Al2 O4 1.831221 1_555
Al2 O8 1.831221 1_454
Al2 O13 1.959794 1_454
Al2 O12 1.959794 1_555
Al2 O16 2.091965 1_455
Al2 O17 2.091965 1_554
Al3 O9 1.831221 1_545
Al3 O5 1.831221 1_554
Al3 O13 1.959794 1_554
Al3 O12 1.959794 1_545
Al3 O17 2.091965 1_544
Al3 O16 2.091965 1_555
O0 Si0 1.666843 1_465
O0 Si2 1.666843 1_465
O1 Si3 1.666843 1_645
O1 Si1 1.666843 1_645
O2 Si0 1.621536 1_455
O3 Si1 1.621536 1_545
O4 Si2 1.621536 1_455
O5 Si3 1.621536 1_545
O6 Si1 1.621536 1_655
O7 Si0 1.621536 1_565
O8 Si3 1.621536 1_655
O9 Si2 1.621536 1_565
O10 Si0 1.664020 1_465
O11 Si1 1.664020 1_645
O12 Si2 1.664020 1_465
O13 Si3 1.664020 1_645
O14 O15 1.468612 1_555
O16 O17 1.468612 1_554
