# generated using pymatgen
data_Li2FeCo3O8
_symmetry_space_group_name_H-M   'P 1'
_cell_length_a   5.81117750
_cell_length_b   5.77443080
_cell_length_c   10.20940869
_cell_angle_alpha   90.09430755
_cell_angle_beta   106.61010617
_cell_angle_gamma   119.55586746
_symmetry_Int_Tables_number   1
_chemical_formula_structural   Li2FeCo3O8
_chemical_formula_sum   'Li4 Fe2 Co6 O16'
_cell_volume   281.36193405
_cell_formula_units_Z   2
loop_
 _symmetry_equiv_pos_site_id
 _symmetry_equiv_pos_as_xyz
  1  'x, y, z'
loop_
 _atom_site_type_symbol
 _atom_site_label
 _atom_site_symmetry_multiplicity
 _atom_site_fract_x
 _atom_site_fract_y
 _atom_site_fract_z
 _atom_site_occupancy
  Li  Li0  1  0.88055600  0.44684000  0.31720500  1
  Li  Li1  1  0.86880500  0.93589300  0.81586300  1
  Li  Li2  1  0.13119700  0.06410700  0.18413800  1
  Li  Li3  1  0.11944300  0.55315900  0.68279400  1
  Fe  Fe0  1  0.50303900  0.75284400  0.25052300  1
  Fe  Fe1  1  0.49694900  0.24715200  0.74947500  1
  Co  Co0  1  0.50000200  0.99999800  0.50000000  1
  Co  Co1  1  0.50000200  0.50000000  0.49999900  1
  Co  Co2  1  0.99999700  0.99999700  0.49999800  1
  Co  Co3  1  0.50000300  0.50000000  0.00000000  1
  Co  Co4  1  0.50000300  0.00000300  0.99999900  1
  Co  Co5  1  0.99999900  0.49999800  0.99999900  1
  O  O0  1  0.26657900  0.13612300  0.39849800  1
  O  O1  1  0.27442900  0.63674000  0.89521400  1
  O  O2  1  0.72557900  0.36326300  0.10478900  1
  O  O3  1  0.73342200  0.86387200  0.60150300  1
  O  O4  1  0.74952300  0.10390300  0.39593300  1
  O  O5  1  0.72727200  0.59604900  0.88660700  1
  O  O6  1  0.75771300  0.66129900  0.38615400  1
  O  O7  1  0.72299300  0.12587600  0.88550500  1
  O  O8  1  0.29023000  0.66098800  0.38443800  1
  O  O9  1  0.29018500  0.14458200  0.89378800  1
  O  O10  1  0.70981700  0.85542300  0.10621400  1
  O  O11  1  0.70977100  0.33900700  0.61556400  1
  O  O12  1  0.27700200  0.87412600  0.11449300  1
  O  O13  1  0.24228700  0.33870600  0.61384200  1
  O  O14  1  0.27272800  0.40395300  0.11339600  1
  O  O15  1  0.25047700  0.89609700  0.60406900  1
loop_
_geom_bond_atom_site_label_1
_geom_bond_atom_site_label_2
_geom_bond_distance
_geom_bond_site_symmetry_2
Li0 O6 1.922305 1_555
Li0 O8 1.956174 1_655
Li0 O4 2.003712 1_555
Li0 O2 2.048941 1_555
Li1 O7 1.919881 1_565
Li1 O5 1.949648 1_555
Li1 O9 2.013264 1_665
Li1 O3 2.066701 1_555
Li2 O12 1.919853 1_545
Li2 O14 1.949647 1_555
Li2 O10 2.013264 1_445
Li2 O0 2.066701 1_555
Li3 O13 1.922295 1_555
Li3 O11 1.956166 1_455
Li3 O15 2.003701 1_555
Li3 O1 2.048981 1_555
Fe0 O6 1.997431 1_555
Fe0 O8 2.000453 1_555
Fe0 O12 2.003095 1_555
Fe0 O14 2.017282 1_555
Fe0 O4 2.067554 1_565
Fe0 O10 2.068388 1_555
Fe1 O13 1.997427 1_555
Fe1 O11 2.000470 1_555
Fe1 O7 2.003097 1_555
Fe1 O5 2.017329 1_555
Fe1 O15 2.067518 1_545
Fe1 O9 2.068372 1_555
Co0 O8 1.877779 1_555
Co0 O11 1.877785 1_565
Co0 O4 1.901560 1_565
Co0 O15 1.901596 1_555
Co0 O3 1.944900 1_555
Co0 O0 1.944905 1_565
Co1 O3 1.925133 1_555
Co1 O0 1.925144 1_555
Co1 O8 2.010344 1_555
Co1 O11 2.010371 1_555
Co1 O13 2.020855 1_555
Co1 O6 2.020858 1_555
Co2 O6 1.870474 1_555
Co2 O13 1.870519 1_665
Co2 O4 1.893926 1_565
Co2 O15 1.893950 1_655
Co2 O0 1.952107 1_665
Co2 O3 1.952115 1_555
Co3 O5 1.882994 1_554
Co3 O14 1.883045 1_555
Co3 O9 1.908574 1_554
Co3 O10 1.908605 1_555
Co3 O1 1.925726 1_554
Co3 O2 1.925732 1_555
Co4 O7 1.874418 1_555
Co4 O12 1.874463 1_546
Co4 O9 1.900214 1_555
Co4 O10 1.900218 1_546
Co4 O1 1.934180 1_545
Co4 O2 1.934185 1_556
Co5 O5 1.994988 1_555
Co5 O14 1.994991 1_656
Co5 O2 2.011729 1_556
Co5 O1 2.011734 1_655
Co5 O7 2.027270 1_555
Co5 O12 2.027292 1_656
