# generated using pymatgen
data_Li9Mn2Co5O16
_symmetry_space_group_name_H-M   'P 1'
_cell_length_a   3.01769300
_cell_length_b   8.06076721
_cell_length_c   11.99792594
_cell_angle_alpha   90.80246648
_cell_angle_beta   94.54165032
_cell_angle_gamma   90.84529043
_symmetry_Int_Tables_number   1
_chemical_formula_structural   Li9Mn2Co5O16
_chemical_formula_sum   'Li9 Mn2 Co5 O16'
_cell_volume   290.86683552
_cell_formula_units_Z   1
loop_
 _symmetry_equiv_pos_site_id
 _symmetry_equiv_pos_as_xyz
  1  'x, y, z'
loop_
 _atom_site_type_symbol
 _atom_site_label
 _atom_site_symmetry_multiplicity
 _atom_site_fract_x
 _atom_site_fract_y
 _atom_site_fract_z
 _atom_site_occupancy
  Li  Li0  1  0.99932500  0.00214000  0.24927100  1
  Li  Li1  1  0.49951500  0.74572600  0.62869400  1
  Li  Li2  1  0.00429800  0.50233700  0.99867100  1
  Li  Li3  1  0.49972500  0.25004300  0.37640000  1
  Li  Li4  1  0.00094100  0.99978800  0.74984900  1
  Li  Li5  1  0.50223800  0.74778700  0.12459800  1
  Li  Li6  1  0.99510800  0.49603000  0.50182900  1
  Li  Li7  1  0.49840300  0.25699000  0.87011600  1
  Li  Li8  1  0.99959900  0.49968000  0.74955200  1
  Mn  Mn0  1  0.00084700  0.99825000  0.99895700  1
  Mn  Mn1  1  0.50839900  0.75130900  0.37708500  1
  Co  Co0  1  0.49156200  0.25057900  0.12409100  1
  Co  Co1  1  0.99997500  0.00358300  0.50202500  1
  Co  Co2  1  0.50529100  0.73903900  0.86850100  1
  Co  Co3  1  0.99922900  0.49772700  0.24879200  1
  Co  Co4  1  0.49759400  0.25945900  0.63022100  1
  O  O0  1  0.47508200  0.01197000  0.12118300  1
  O  O1  1  0.97844500  0.76320000  0.49975600  1
  O  O2  1  0.49535900  0.52338800  0.87660200  1
  O  O3  1  0.96467000  0.25836300  0.24314000  1
  O  O4  1  0.47617100  0.02069800  0.61760900  1
  O  O5  1  0.97538600  0.75780200  0.99360200  1
  O  O6  1  0.51628400  0.50875000  0.36885300  1
  O  O7  1  0.97443900  0.24907300  0.74085500  1
  O  O8  1  0.52726000  0.99349600  0.38292900  1
  O  O9  1  0.02349900  0.74970700  0.75873000  1
  O  O10  1  0.48257800  0.48699600  0.13139400  1
  O  O11  1  0.02400900  0.23854600  0.50797000  1
  O  O12  1  0.52147200  0.98023100  0.87866500  1
  O  O13  1  0.03643500  0.74047300  0.25322700  1
  O  O14  1  0.50370900  0.47520200  0.62246300  1
  O  O15  1  0.02315800  0.24164000  0.00436900  1
loop_
_geom_bond_atom_site_label_1
_geom_bond_atom_site_label_2
_geom_bond_distance
_geom_bond_site_symmetry_2
Li0 O3 2.071580 1_555
Li0 O13 2.114853 1_645
Li0 O0 2.119629 1_555
Li0 O8 2.171720 1_645
Li0 O0 2.186018 1_655
Li0 O8 2.228848 1_545
Li1 O1 2.124371 1_455
Li1 O9 2.131154 1_655
Li1 O14 2.181123 1_555
Li1 O9 2.203057 1_555
Li1 O1 2.203628 1_555
Li1 O4 2.224149 1_565
Li2 O2 2.047181 1_455
Li2 O5 2.063920 1_455
Li2 O10 2.069047 1_556
Li2 O15 2.104948 1_556
Li2 O2 2.170936 1_555
Li2 O10 2.329495 1_456
Li3 O8 2.073186 1_545
Li3 O6 2.088642 1_555
Li3 O11 2.148603 1_655
Li3 O3 2.182934 1_455
Li3 O3 2.210174 1_555
Li3 O11 2.218189 1_555
Li4 O7 2.016257 1_465
Li4 O9 2.022012 1_555
Li4 O12 2.123813 1_555
Li4 O4 2.161241 1_465
Li4 O12 2.204819 1_455
Li4 O4 2.227794 1_565
Li5 O10 2.105041 1_555
Li5 O0 2.133143 1_565
Li5 O13 2.143650 1_655
Li5 O5 2.148493 1_454
Li5 O13 2.169032 1_555
Li5 O5 2.207010 1_554
Li6 O14 2.035008 1_655
Li6 O6 2.070666 1_555
Li6 O11 2.080726 1_655
Li6 O1 2.155369 1_555
Li6 O14 2.159018 1_555
Li6 O6 2.329522 1_655
Li7 O7 2.124908 1_455
Li7 O2 2.147874 1_555
Li7 O15 2.173682 1_656
Li7 O7 2.196731 1_555
Li7 O12 2.236537 1_545
Li7 O15 2.243391 1_556
Li8 O9 2.016789 1_655
Li8 O7 2.021314 1_555
Li8 O2 2.054396 1_655
Li8 O14 2.055433 1_555
Li8 O2 2.245722 1_555
Li8 O14 2.246317 1_655
Mn0 O5 1.938548 1_455
Mn0 O15 1.962061 1_566
Mn0 O12 1.963170 1_455
Mn0 O0 1.967027 1_566
Mn0 O12 2.220889 1_555
Mn0 O0 2.247026 1_466
Mn1 O8 1.952318 1_555
Mn1 O6 1.956913 1_555
Mn1 O1 1.961837 1_555
Mn1 O13 1.975328 1_555
Mn1 O1 2.259705 1_455
Mn1 O13 2.265061 1_655
Co0 O10 1.907181 1_555
Co0 O0 1.923037 1_555
Co0 O15 1.933653 1_555
Co0 O3 1.937603 1_555
Co0 O3 2.220875 1_455
Co0 O15 2.237712 1_655
Co1 O11 1.894429 1_655
Co1 O4 1.918427 1_655
Co1 O8 1.937479 1_545
Co1 O1 1.937540 1_545
Co1 O4 2.188362 1_555
Co1 O8 2.222810 1_645
Co2 O2 1.742335 1_555
Co2 O9 1.886634 1_555
Co2 O12 1.945959 1_555
Co2 O5 1.984508 1_555
Co2 O9 2.124327 1_655
Co2 O5 2.283355 1_455
Co3 O3 1.930689 1_555
Co3 O13 1.958020 1_655
Co3 O10 2.016692 1_555
Co3 O6 2.038097 1_655
Co3 O10 2.108229 1_655
Co3 O6 2.130620 1_555
Co4 O14 1.742749 1_555
Co4 O7 1.882487 1_555
Co4 O4 1.928152 1_555
Co4 O11 1.968812 1_555
Co4 O7 2.142985 1_455
Co4 O11 2.252397 1_655
