# generated using pymatgen
data_Sm2SeO2
_symmetry_space_group_name_H-M   'P 1'
_cell_length_a   3.93799707
_cell_length_b   3.93799742
_cell_length_c   6.94589621
_cell_angle_alpha   90.00000000
_cell_angle_beta   90.00000000
_cell_angle_gamma   120.00000573
_symmetry_Int_Tables_number   1
_chemical_formula_structural   Sm2SeO2
_chemical_formula_sum   'Sm2 Se1 O2'
_cell_volume   93.28454801
_cell_formula_units_Z   1
loop_
 _symmetry_equiv_pos_site_id
 _symmetry_equiv_pos_as_xyz
  1  'x, y, z'
loop_
 _atom_site_type_symbol
 _atom_site_label
 _atom_site_symmetry_multiplicity
 _atom_site_fract_x
 _atom_site_fract_y
 _atom_site_fract_z
 _atom_site_occupancy
  Sm  Sm0  1  0.66666700  0.33333300  0.71055521  1
  Sm  Sm1  1  0.33333300  0.66666700  0.28944479  1
  Se  Se0  1  -0.00000000  -0.00000000  -0.00000000  1
  O  O0  1  0.66666700  0.33333300  0.37449430  1
  O  O1  1  0.33333300  0.66666700  0.62550570  1
loop_
_geom_bond_atom_site_label_1
_geom_bond_atom_site_label_2
_geom_bond_distance
_geom_bond_site_symmetry_2
Se0 Sm1 3.034994 1_545
Se0 Sm0 3.034994 1_454
Se0 Sm1 3.034996 1_445
Se0 Sm0 3.034996 1_554
Se0 Sm1 3.034996 1_555
Se0 Sm0 3.034996 1_444
O0 Sm0 2.334244 1_555
O0 Sm1 2.349094 1_655
O0 Sm1 2.349094 1_545
O0 Sm1 2.349101 1_555
O1 Sm1 2.334244 1_555
O1 Sm0 2.349094 1_455
O1 Sm0 2.349094 1_565
O1 Sm0 2.349101 1_555
