# generated using pymatgen
data_Mg14ZrGa
_symmetry_space_group_name_H-M   'P 1'
_cell_length_a   6.37367004
_cell_length_b   6.21851360
_cell_length_c   10.24707130
_cell_angle_alpha   90.00000000
_cell_angle_beta   90.00000000
_cell_angle_gamma   119.19794885
_symmetry_Int_Tables_number   1
_chemical_formula_structural   Mg14ZrGa
_chemical_formula_sum   'Mg14 Zr1 Ga1'
_cell_volume   354.53579521
_cell_formula_units_Z   1
loop_
 _symmetry_equiv_pos_site_id
 _symmetry_equiv_pos_as_xyz
  1  'x, y, z'
loop_
 _atom_site_type_symbol
 _atom_site_label
 _atom_site_symmetry_multiplicity
 _atom_site_fract_x
 _atom_site_fract_y
 _atom_site_fract_z
 _atom_site_occupancy
  Mg  Mg0  1  0.16614460  0.33307180  0.62500000  1
  Mg  Mg1  1  0.16521262  0.83260581  0.62500000  1
  Mg  Mg2  1  0.66304202  0.32828531  0.12500000  1
  Mg  Mg3  1  0.66581801  0.33410160  0.62500000  1
  Mg  Mg4  1  0.66304202  0.83475571  0.12500000  1
  Mg  Mg5  1  0.66581801  0.83171541  0.62500000  1
  Mg  Mg6  1  0.33246425  0.16711217  0.37202215  1
  Mg  Mg7  1  0.33246425  0.16711217  0.87797785  1
  Mg  Mg8  1  0.33246425  0.66535308  0.37202215  1
  Mg  Mg9  1  0.33246425  0.66535308  0.87797785  1
  Mg  Mg10  1  0.83796933  0.16898517  0.37517172  1
  Mg  Mg11  1  0.83796933  0.16898517  0.87482828  1
  Mg  Mg12  1  0.83693019  0.66846559  0.37019822  1
  Mg  Mg13  1  0.83693019  0.66846559  0.87980178  1
  Zr  Zr0  1  0.15980651  0.32990275  0.12500000  1
  Ga  Ga0  1  0.17146016  0.83572958  0.12500000  1
loop_
_geom_bond_atom_site_label_1
_geom_bond_atom_site_label_2
_geom_bond_distance
_geom_bond_site_symmetry_2
Mg0 Mg1 3.109261 1_545
Mg0 Mg1 3.109261 1_555
Mg0 Mg10 3.144454 1_455
Mg0 Mg11 3.144454 1_455
Mg0 Mg6 3.158499 1_555
Mg0 Mg7 3.158499 1_555
Mg0 Mg8 3.158505 1_555
Mg0 Mg9 3.158505 1_555
Mg0 Mg5 3.181634 1_555
Mg0 Mg3 3.181634 1_555
Mg0 Mg5 3.192045 1_445
Mg0 Mg3 3.192045 1_455
Mg1 Mg8 3.165399 1_555
Mg1 Mg9 3.165399 1_555
Mg1 Mg6 3.165405 1_565
Mg1 Mg7 3.165405 1_565
Mg1 Mg3 3.180279 1_455
Mg1 Mg5 3.180279 1_455
Mg1 Mg12 3.186425 1_455
Mg1 Mg13 3.186425 1_455
Mg1 Mg3 3.193398 1_565
Mg1 Mg5 3.193398 1_555
Mg2 Mg4 3.069021 1_545
Mg2 Mg7 3.129032 1_554
Mg2 Mg6 3.129032 1_555
Mg2 Mg4 3.149493 1_555
Mg2 Zr0 3.161319 1_655
Mg2 Zr0 3.212376 1_555
Mg3 Mg5 3.094418 1_555
Mg3 Mg5 3.124095 1_545
Mg3 Mg6 3.187464 1_555
Mg3 Mg7 3.187464 1_555
Mg4 Mg9 3.129032 1_554
Mg4 Mg8 3.129032 1_555
Mg4 Zr0 3.161318 1_665
Mg4 Zr0 3.212375 1_555
Mg5 Mg8 3.187464 1_555
Mg5 Mg9 3.187464 1_555
Mg6 Mg8 3.098318 1_555
Mg6 Zr0 3.119286 1_555
Mg6 Mg8 3.120196 1_545
Mg7 Mg9 3.098318 1_555
Mg7 Zr0 3.119286 1_556
Mg7 Mg9 3.120196 1_545
Mg8 Zr0 3.119292 1_555
Mg9 Zr0 3.119292 1_556
Mg10 Mg12 3.109680 1_555
Mg10 Mg12 3.109680 1_545
Mg10 Zr0 3.126994 1_655
Mg10 Mg2 3.142232 1_555
Mg10 Mg4 3.142238 1_545
Mg10 Mg3 3.148180 1_555
Mg10 Mg5 3.148186 1_545
Mg10 Mg8 3.157610 1_655
Mg10 Mg6 3.157611 1_655
Mg10 Mg8 3.216418 1_545
Mg10 Mg6 3.216419 1_555
Mg11 Mg13 3.109680 1_555
Mg11 Mg13 3.109680 1_545
Mg11 Zr0 3.126994 1_656
Mg11 Mg2 3.142232 1_556
Mg11 Mg4 3.142238 1_546
Mg11 Mg3 3.148180 1_555
Mg11 Mg5 3.148186 1_545
Mg11 Mg9 3.157610 1_655
Mg11 Mg7 3.157611 1_655
Mg11 Mg9 3.216418 1_545
Mg11 Mg7 3.216419 1_555
Mg12 Mg4 3.119104 1_555
Mg12 Mg2 3.119110 1_555
Mg12 Mg6 3.167913 1_665
Mg12 Mg8 3.167913 1_655
Mg12 Mg5 3.180784 1_555
Mg12 Mg3 3.180790 1_555
Mg12 Mg6 3.205956 1_555
Mg12 Mg8 3.205956 1_555
Mg13 Mg4 3.119104 1_556
Mg13 Mg2 3.119110 1_556
Mg13 Mg7 3.167913 1_665
Mg13 Mg9 3.167913 1_655
Mg13 Mg5 3.180784 1_555
Mg13 Mg3 3.180790 1_555
Mg13 Mg7 3.205956 1_555
Mg13 Mg9 3.205956 1_555
Ga0 Mg9 3.105413 1_554
Ga0 Mg8 3.105413 1_555
Ga0 Mg7 3.105419 1_564
Ga0 Mg6 3.105419 1_565
Ga0 Zr0 3.109933 1_565
Ga0 Zr0 3.109933 1_555
Ga0 Mg12 3.126866 1_455
Ga0 Mg13 3.126866 1_454
Ga0 Mg2 3.136139 1_565
Ga0 Mg4 3.136139 1_555
Ga0 Mg2 3.237539 1_455
Ga0 Mg4 3.237539 1_455
