# generated using pymatgen
data_V2O5
_symmetry_space_group_name_H-M   'P 1'
_cell_length_a   13.32081160
_cell_length_b   12.43997348
_cell_length_c   11.48801903
_cell_angle_alpha   90.05986677
_cell_angle_beta   87.07266737
_cell_angle_gamma   86.14619074
_symmetry_Int_Tables_number   1
_chemical_formula_structural   V2O5
_chemical_formula_sum   'V30 O75'
_cell_volume   1896.88359714
_cell_formula_units_Z   15
loop_
 _symmetry_equiv_pos_site_id
 _symmetry_equiv_pos_as_xyz
  1  'x, y, z'
loop_
 _atom_site_type_symbol
 _atom_site_label
 _atom_site_symmetry_multiplicity
 _atom_site_fract_x
 _atom_site_fract_y
 _atom_site_fract_z
 _atom_site_occupancy
  V  V0  1  0.89382717  0.04383499  0.76595363  1
  V  V1  1  0.89813543  0.76848476  0.77223972  1
  V  V2  1  0.71814399  0.40935866  0.72055103  1
  V  V3  1  0.81691963  0.03891154  0.27549772  1
  V  V4  1  0.67219539  0.06123144  0.03201354  1
  V  V5  1  0.15141454  0.74324883  0.73840586  1
  V  V6  1  0.58061610  0.65581705  0.26135242  1
  V  V7  1  0.35805513  0.01230053  0.35949518  1
  V  V8  1  0.95930091  0.27959336  0.63192848  1
  V  V9  1  0.34731494  0.75864461  0.25419467  1
  V  V10  1  0.41483887  0.19910608  0.53729954  1
  V  V11  1  0.04347191  0.61613276  0.14556364  1
  V  V12  1  0.12974986  0.97983883  0.75664934  1
  V  V13  1  0.35428197  0.09885940  0.81832721  1
  V  V14  1  0.07339200  0.22145086  0.34810978  1
  V  V15  1  0.14482224  0.94500830  0.26029675  1
  V  V16  1  0.97031330  0.80739281  0.35984269  1
  V  V17  1  0.27755284  0.13326681  0.08831909  1
  V  V18  1  0.67183157  0.63132200  0.76796060  1
  V  V19  1  0.77654140  0.31605096  0.99520345  1
  V  V20  1  0.75085551  0.32198477  0.25769319  1
  V  V21  1  0.19074209  0.86961325  0.54359296  1
  V  V22  1  0.03486625  0.52141162  0.70376640  1
  V  V23  1  0.57091699  0.14427582  0.34792330  1
  V  V24  1  0.58069326  0.10117767  0.75110899  1
  V  V25  1  0.22720808  0.54620200  0.33962790  1
  V  V26  1  0.00709205  0.40640260  0.97542435  1
  V  V27  1  0.62319501  0.79336333  0.02438243  1
  V  V28  1  0.59163685  0.56248616  0.53217393  1
  V  V29  1  0.32364660  0.28181229  0.28973018  1
  O  O0  1  0.30908044  0.42846920  0.32303101  1
  O  O1  1  0.89474928  0.90702146  0.71734180  1
  O  O2  1  0.99283320  0.48778667  0.84972781  1
  O  O3  1  0.47660348  0.75496547  0.29349786  1
  O  O4  1  0.64848815  0.43731867  0.58942829  1
  O  O5  1  0.27721451  0.00356010  0.05626575  1
  O  O6  1  0.84215861  0.19874652  0.24532392  1
  O  O7  1  0.98575012  0.49780482  0.09799458  1
  O  O8  1  0.44255109  0.14775739  0.69915012  1
  O  O9  1  0.22712829  0.06317330  0.77954063  1
  O  O10  1  0.50427211  0.82502496  0.04525000  1
  O  O11  1  0.79793858  0.01656728  0.13442210  1
  O  O12  1  0.14596370  0.53463643  0.44751217  1
  O  O13  1  0.47215561  0.55205518  0.52318645  1
  O  O14  1  0.01896356  0.30666203  0.26109645  1
  O  O15  1  0.60731816  0.52108355  0.80113418  1
  O  O16  1  0.02163210  0.05212070  0.81796258  1
  O  O17  1  0.43808576  0.24063937  0.36296822  1
  O  O18  1  0.75378841  0.40095491  0.12002442  1
  O  O19  1  0.81095857  0.06809297  0.87559168  1
  O  O20  1  0.28955575  0.67243245  0.35773552  1
  O  O21  1  0.82048224  0.33153663  0.67012542  1
  O  O22  1  0.28349517  0.89930051  0.25610564  1
  O  O23  1  0.15743190  0.57087732  0.21148653  1
  O  O24  1  0.33936060  0.28695280  0.14632962  1
  O  O25  1  0.42245802  0.99274265  0.85486670  1
  O  O26  1  0.61264833  0.66875677  0.63547702  1
  O  O27  1  0.70149331  0.05935800  0.34568186  1
  O  O28  1  0.88365153  0.91853796  0.33242609  1
  O  O29  1  0.77808070  0.39721817  0.36408227  1
  O  O30  1  0.55839873  0.16140240  0.49673374  1
  O  O31  1  0.03780937  0.26292945  0.73394946  1
  O  O32  1  0.64004315  0.61087732  0.39327529  1
  O  O33  1  0.15452317  0.49227176  0.69066724  1
  O  O34  1  0.97074001  0.70515178  0.24946675  1
  O  O35  1  0.97510027  0.43341494  0.61404857  1
  O  O36  1  0.23655301  0.86494746  0.69135945  1
  O  O37  1  0.02138022  0.24005530  0.49444071  1
  O  O38  1  0.19720248  0.26304826  0.35610873  1
  O  O39  1  0.88782543  0.76743106  0.91301705  1
  O  O40  1  0.62292630  0.98657575  0.69180393  1
  O  O41  1  0.90892461  0.30882912  0.96855568  1
  O  O42  1  0.59298574  0.08417872  0.14683516  1
  O  O43  1  0.12008973  0.35224594  0.97044792  1
  O  O44  1  0.64287766  0.71311095  0.89203655  1
  O  O45  1  0.48575098  0.01330776  0.34399671  1
  O  O46  1  0.07578915  0.90875571  0.15762882  1
  O  O47  1  0.53518159  0.55196371  0.20504271  1
  O  O48  1  0.79345513  0.71456670  0.72439477  1
  O  O49  1  0.09736723  0.85563117  0.83104927  1
  O  O50  1  0.29696228  0.90187611  0.46663069  1
  O  O51  1  0.73702695  0.19761785  0.04594523  1
  O  O52  1  0.09840189  0.85961990  0.38529100  1
  O  O53  1  0.33729400  0.70588062  0.12830265  1
  O  O54  1  0.15826714  0.17506122  0.10298606  1
  O  O55  1  0.33549220  0.18266924  0.93794595  1
  O  O56  1  0.59994287  0.09668686  0.91378466  1
  O  O57  1  0.90469897  0.14430134  0.32908539  1
  O  O58  1  0.07700495  0.68268881  0.03166036  1
  O  O59  1  0.31596701  0.11738444  0.25291694  1
  O  O60  1  0.16316337  0.73576442  0.57030332  1
  O  O61  1  0.89763747  0.14288375  0.65821236  1
  O  O62  1  0.63669749  0.26498307  0.28920963  1
  O  O63  1  0.10633172  0.07233956  0.31522349  1
  O  O64  1  0.71012538  0.35590035  0.87585300  1
  O  O65  1  0.35447450  0.31158070  0.57503961  1
  O  O66  1  0.10208937  0.97925870  0.60267969  1
  O  O67  1  0.33123240  0.10645759  0.49314966  1
  O  O68  1  0.93328369  0.75313545  0.48048781  1
  O  O69  1  0.78366925  0.52483153  0.74013185  1
  O  O70  1  0.65117183  0.19872554  0.70498652  1
  O  O71  1  0.68483340  0.91348749  0.00787109  1
  O  O72  1  0.02058474  0.67762083  0.72544341  1
  O  O73  1  0.66106201  0.71681208  0.15291085  1
  O  O74  1  0.23097003  0.66877393  0.80683259  1
loop_
_geom_bond_atom_site_label_1
_geom_bond_atom_site_label_2
_geom_bond_distance
_geom_bond_site_symmetry_2
O0 V25 1.770388 1_555
O0 V29 1.858989 1_555
O1 V0 1.789743 1_565
O1 V1 1.834281 1_555
O2 V26 1.775227 1_655
O2 V22 1.799225 1_655
O3 V9 1.800251 1_555
O3 V6 1.815056 1_555
O4 V28 1.823496 1_555
O4 V2 1.830699 1_555
O5 V17 1.655009 1_555
O6 V20 1.892353 1_555
O6 V3 2.065453 1_555
O7 V11 1.802774 1_655
O7 V26 1.807959 1_654
O8 V13 1.886923 1_555
O8 V10 2.010560 1_555
O8 V24 2.011927 1_555
O9 V12 1.743994 1_545
O9 V13 1.855342 1_555
O10 V27 1.612226 1_555
O11 V3 1.678736 1_555
O11 V4 2.139151 1_555
O12 V25 1.616262 1_555
O13 V28 1.614053 1_555
O14 V14 1.619096 1_555
O15 V18 1.700133 1_555
O15 V2 2.133081 1_555
O16 V12 1.760646 1_545
O16 V0 1.842104 1_455
O17 V29 1.822371 1_555
O17 V23 2.069046 1_555
O17 V10 2.081841 1_555
O18 V19 1.781303 1_554
O18 V20 1.862788 1_555
O19 V0 1.645730 1_555
O19 V4 2.517022 1_556
O20 V9 1.782457 1_555
O20 V25 1.841511 1_555
O21 V2 1.694686 1_555
O21 V8 1.945625 1_555
O22 V9 1.892857 1_555
O22 V15 1.894090 1_555
O22 V7 2.162843 1_565
O23 V11 1.788396 1_555
O23 V25 1.796537 1_555
O24 V29 1.651845 1_555
O24 V17 2.245470 1_555
O25 V13 1.619425 1_565
O26 V18 1.797075 1_555
O26 V28 1.820656 1_555
O27 V3 1.702729 1_555
O27 V23 1.972415 1_555
O28 V16 1.779620 1_555
O28 V3 1.828312 1_565
O29 V20 1.609259 1_555
O30 V23 1.720774 1_555
O30 V10 1.970314 1_555
O31 V8 1.614574 1_455
O32 V28 1.809261 1_555
O32 V6 1.816824 1_555
O33 V22 1.610085 1_555
O34 V16 1.794561 1_555
O34 V11 1.823366 1_655
O35 V22 1.758706 1_655
O35 V8 1.949012 1_555
O36 V21 1.832667 1_555
O36 V5 2.010025 1_555
O36 V12 2.060302 1_555
O37 V14 1.793934 1_555
O37 V8 1.797430 1_455
O38 V14 1.768154 1_555
O38 V29 1.842556 1_555
O39 V1 1.616212 1_555
O40 V24 1.632218 1_565
O41 V19 1.770609 1_555
O41 V26 1.847503 1_655
O42 V4 1.658712 1_555
O42 V23 2.424748 1_555
O43 V26 1.605508 1_555
O44 V18 1.761750 1_555
O44 V27 1.816023 1_556
O45 V7 1.702127 1_555
O45 V23 2.048666 1_555
O46 V15 1.614164 1_555
O47 V6 1.611582 1_555
O48 V1 1.702839 1_555
O48 V18 2.022737 1_555
O49 V12 1.832690 1_555
O49 V5 1.840889 1_555
O50 V21 1.701219 1_555
O50 V7 2.028688 1_565
O51 V19 1.691799 1_554
O51 V4 1.964827 1_555
O52 V15 1.890344 1_555
O52 V16 1.902214 1_455
O52 V21 2.254828 1_555
O53 V9 1.603062 1_555
O54 V17 1.638595 1_555
O55 V13 1.721865 1_555
O55 V17 1.971645 1_556
O56 V4 1.744514 1_556
O56 V24 1.899632 1_555
O57 O6 1.444331 1_555
O57 V3 1.934677 1_555
O57 V14 2.521522 1_655
O58 V11 1.609208 1_555
O59 V7 1.870089 1_555
O59 V17 1.990582 1_555
O59 V29 2.098580 1_555
O60 V21 1.753104 1_555
O60 V5 1.931154 1_555
O61 V0 1.748704 1_555
O61 V8 1.954907 1_555
O62 V20 1.742303 1_555
O62 V23 1.896358 1_555
O63 V15 1.739480 1_545
O63 V14 1.910043 1_555
O64 V19 1.724745 1_555
O64 V2 1.905067 1_555
O65 V10 1.613738 1_555
O66 V12 1.825209 1_555
O66 V21 1.848099 1_555
O67 V10 1.747845 1_555
O67 V7 1.934196 1_555
O68 V16 1.611423 1_555
O69 V2 1.750389 1_555
O69 V18 1.939518 1_555
O70 V24 1.654810 1_555
O71 V27 1.758639 1_555
O71 V4 1.853598 1_565
O72 V22 1.954185 1_555
O72 V1 1.971949 1_455
O72 V5 1.985805 1_555
O73 V6 1.803043 1_555
O73 V27 1.831913 1_555
O74 V5 1.598111 1_555
