# generated using pymatgen
data_KEu2Cl7
_symmetry_space_group_name_H-M   'P 1'
_cell_length_a   13.21605000
_cell_length_b   7.17979800
_cell_length_c   13.32537495
_cell_angle_alpha   89.61301097
_cell_angle_beta   90.00000000
_cell_angle_gamma   90.00000000
_symmetry_Int_Tables_number   1
_chemical_formula_structural   KEu2Cl7
_chemical_formula_sum   'K4 Eu8 Cl28'
_cell_volume   1264.39692378
_cell_formula_units_Z   4
loop_
 _symmetry_equiv_pos_site_id
 _symmetry_equiv_pos_as_xyz
  1  'x, y, z'
loop_
 _atom_site_type_symbol
 _atom_site_label
 _atom_site_symmetry_multiplicity
 _atom_site_fract_x
 _atom_site_fract_y
 _atom_site_fract_z
 _atom_site_occupancy
  K  K0  1  0.20293800  0.71442300  0.03767000  1
  K  K1  1  0.79706200  0.28557700  0.96233000  1
  K  K2  1  0.70293800  0.28557700  0.46233000  1
  K  K3  1  0.29706200  0.71442300  0.53767000  1
  Eu  Eu0  1  0.53804900  0.78088700  0.23845500  1
  Eu  Eu1  1  0.46195100  0.21911300  0.76154500  1
  Eu  Eu2  1  0.03804900  0.21911300  0.26154500  1
  Eu  Eu3  1  0.96195100  0.78088700  0.73845500  1
  Eu  Eu4  1  0.83735600  0.72398500  0.24968300  1
  Eu  Eu5  1  0.16264400  0.27601500  0.75031700  1
  Eu  Eu6  1  0.33735600  0.27601500  0.25031700  1
  Eu  Eu7  1  0.66264400  0.72398500  0.74968300  1
  Cl  Cl0  1  0.97253800  0.94233400  0.13078100  1
  Cl  Cl1  1  0.02746200  0.05766600  0.86921900  1
  Cl  Cl2  1  0.47253800  0.05766600  0.36921900  1
  Cl  Cl3  1  0.52746200  0.94233400  0.63078100  1
  Cl  Cl4  1  0.68407400  0.73742600  0.39675100  1
  Cl  Cl5  1  0.31592600  0.26257400  0.60324900  1
  Cl  Cl6  1  0.18407400  0.26257400  0.10324900  1
  Cl  Cl7  1  0.81592600  0.73742600  0.89675100  1
  Cl  Cl8  1  0.67604400  0.51253100  0.17046600  1
  Cl  Cl9  1  0.32395600  0.48746900  0.82953400  1
  Cl  Cl10  1  0.17604400  0.48746900  0.32953400  1
  Cl  Cl11  1  0.82395600  0.51253100  0.67046600  1
  Cl  Cl12  1  0.92569200  0.97025200  0.38258000  1
  Cl  Cl13  1  0.07430800  0.02974800  0.61742000  1
  Cl  Cl14  1  0.42569200  0.02974800  0.11742000  1
  Cl  Cl15  1  0.57430800  0.97025200  0.88258000  1
  Cl  Cl16  1  0.93999400  0.45793600  0.12701000  1
  Cl  Cl17  1  0.06000600  0.54206400  0.87299000  1
  Cl  Cl18  1  0.43999400  0.54206400  0.37299000  1
  Cl  Cl19  1  0.56000600  0.45793600  0.62701000  1
  Cl  Cl20  1  0.70308200  0.99707800  0.17554900  1
  Cl  Cl21  1  0.29691800  0.00292200  0.82445100  1
  Cl  Cl22  1  0.20308200  0.00292200  0.32445100  1
  Cl  Cl23  1  0.79691800  0.99707800  0.67554900  1
  Cl  Cl24  1  0.91156500  0.45263500  0.38221700  1
  Cl  Cl25  1  0.08843500  0.54736500  0.61778300  1
  Cl  Cl26  1  0.41156500  0.54736500  0.11778300  1
  Cl  Cl27  1  0.58843500  0.45263500  0.88221700  1
loop_
_geom_bond_atom_site_label_1
_geom_bond_atom_site_label_2
_geom_bond_distance
_geom_bond_site_symmetry_2
Cl0 Eu2 2.789560 1_665
Cl0 Eu4 2.850674 1_555
Cl0 K0 3.676467 1_655
Cl1 Eu3 2.789560 1_445
Cl1 Eu5 2.850674 1_555
Cl1 K1 3.676467 1_455
Cl2 Eu0 2.789560 1_545
Cl2 Eu6 2.850674 1_555
Cl2 K2 3.676467 1_555
Cl3 Eu1 2.789560 1_565
Cl3 Eu7 2.850674 1_555
Cl3 K3 3.676467 1_555
Cl4 Eu4 2.820679 1_555
Cl4 Eu0 2.874415 1_555
Cl4 K2 3.363366 1_555
Cl5 Eu5 2.820679 1_555
Cl5 Eu1 2.874415 1_555
Cl5 K3 3.363366 1_555
Cl6 Eu6 2.820679 1_555
Cl6 Eu2 2.874415 1_555
Cl6 K0 3.363366 1_555
Cl7 Eu7 2.820679 1_555
Cl7 Eu3 2.874415 1_555
Cl7 K1 3.363366 1_555
Cl8 Eu0 2.807627 1_555
Cl8 Eu4 2.825931 1_555
Cl8 K1 3.600907 1_554
Cl9 Eu1 2.807627 1_555
Cl9 Eu5 2.825931 1_555
Cl9 K0 3.600907 1_556
Cl10 Eu2 2.807627 1_555
Cl10 Eu6 2.825931 1_555
Cl10 K3 3.600907 1_555
Cl11 Eu3 2.807627 1_555
Cl11 Eu7 2.825931 1_555
Cl11 K2 3.600907 1_555
Cl12 Eu4 2.769058 1_555
Cl12 Eu2 2.821319 1_665
Cl13 Eu5 2.769058 1_555
Cl13 Eu3 2.821319 1_445
Cl14 Eu6 2.769058 1_555
Cl14 Eu0 2.821319 1_545
Cl15 Eu7 2.769058 1_555
Cl15 Eu1 2.821319 1_565
Cl16 Eu2 2.791399 1_655
Cl16 Eu4 2.864104 1_555
Cl16 K1 3.154662 1_554
Cl17 Eu3 2.791399 1_455
Cl17 Eu5 2.864104 1_555
Cl17 K0 3.154662 1_556
Cl18 Eu0 2.791399 1_555
Cl18 Eu6 2.864104 1_555
Cl18 K3 3.154662 1_555
Cl19 Eu1 2.791399 1_555
Cl19 Eu7 2.864104 1_555
Cl19 K2 3.154662 1_555
Cl20 Eu0 2.802063 1_555
Cl20 Eu4 2.818398 1_555
Cl20 K1 3.718370 1_564
Cl21 Eu1 2.802063 1_555
Cl21 Eu5 2.818398 1_555
Cl21 K0 3.718370 1_546
Cl22 Eu2 2.802063 1_555
Cl22 Eu6 2.818398 1_555
Cl22 K3 3.718370 1_545
Cl23 Eu3 2.802063 1_555
Cl23 Eu7 2.818398 1_555
Cl23 K2 3.718370 1_565
Cl24 Eu4 2.798216 1_555
Cl24 Eu2 2.868365 1_655
Cl24 K2 3.187991 1_555
Cl25 Eu5 2.798216 1_555
Cl25 Eu3 2.868365 1_455
Cl25 K3 3.187991 1_555
Cl26 Eu6 2.798216 1_555
Cl26 Eu0 2.868365 1_555
Cl26 K0 3.187991 1_555
Cl27 Eu7 2.798216 1_555
Cl27 Eu1 2.868365 1_555
Cl27 K1 3.187991 1_555
