# generated using pymatgen
data_Pr11C11Cl7
_symmetry_space_group_name_H-M   'P 1'
_cell_length_a   46.99642900
_cell_length_b   6.84919300
_cell_length_c   7.70540294
_cell_angle_alpha   76.09722598
_cell_angle_beta   90.00000000
_cell_angle_gamma   90.00000000
_symmetry_Int_Tables_number   1
_chemical_formula_structural   Pr11C11Cl7
_chemical_formula_sum   'Pr44 C44 Cl28'
_cell_volume   2407.61376260
_cell_formula_units_Z   4
loop_
 _symmetry_equiv_pos_site_id
 _symmetry_equiv_pos_as_xyz
  1  'x, y, z'
loop_
 _atom_site_type_symbol
 _atom_site_label
 _atom_site_symmetry_multiplicity
 _atom_site_fract_x
 _atom_site_fract_y
 _atom_site_fract_z
 _atom_site_occupancy
  Pr  Pr0  1  0.95053900  0.86711900  0.39021500  1
  Pr  Pr1  1  0.45053900  0.63288100  0.60978500  1
  Pr  Pr2  1  0.04946100  0.13288100  0.60978500  1
  Pr  Pr3  1  0.54946200  0.36711900  0.39021500  1
  Pr  Pr4  1  0.91139100  0.36402800  0.39529100  1
  Pr  Pr5  1  0.41139100  0.13597200  0.60470900  1
  Pr  Pr6  1  0.08860900  0.63597200  0.60470900  1
  Pr  Pr7  1  0.58860900  0.86402800  0.39529100  1
  Pr  Pr8  1  0.82267500  0.35541300  0.24726900  1
  Pr  Pr9  1  0.32267500  0.14458700  0.75273100  1
  Pr  Pr10  1  0.17732500  0.64458700  0.75273100  1
  Pr  Pr11  1  0.67732500  0.85541300  0.24726900  1
  Pr  Pr12  1  0.95960300  0.13924200  0.76834000  1
  Pr  Pr13  1  0.45960300  0.36075800  0.23166000  1
  Pr  Pr14  1  0.04039700  0.86075800  0.23166000  1
  Pr  Pr15  1  0.54039700  0.63924200  0.76834000  1
  Pr  Pr16  1  0.99724800  0.37408900  0.31084700  1
  Pr  Pr17  1  0.49724800  0.12591100  0.68915300  1
  Pr  Pr18  1  0.00275200  0.62591100  0.68915300  1
  Pr  Pr19  1  0.50275200  0.87408900  0.31084700  1
  Pr  Pr20  1  0.85886400  0.12144200  0.69922600  1
  Pr  Pr21  1  0.35886400  0.37855800  0.30077400  1
  Pr  Pr22  1  0.14113600  0.87855800  0.30077400  1
  Pr  Pr23  1  0.64113600  0.62144200  0.69922600  1
  Pr  Pr24  1  0.76974500  0.11398300  0.54787700  1
  Pr  Pr25  1  0.26974500  0.38601700  0.45212300  1
  Pr  Pr26  1  0.23025500  0.88601700  0.45212300  1
  Pr  Pr27  1  0.73025500  0.61398300  0.54787700  1
  Pr  Pr28  1  0.81522300  0.61558800  0.62566700  1
  Pr  Pr29  1  0.31522300  0.88441200  0.37433300  1
  Pr  Pr30  1  0.18477700  0.38441200  0.37433300  1
  Pr  Pr31  1  0.68477700  0.11558800  0.62566700  1
  Pr  Pr32  1  0.86570600  0.86245500  0.32069700  1
  Pr  Pr33  1  0.36570600  0.63754500  0.67930300  1
  Pr  Pr34  1  0.13429400  0.13754500  0.67930300  1
  Pr  Pr35  1  0.63429400  0.36245500  0.32069700  1
  Pr  Pr36  1  0.90428400  0.63345100  0.77119100  1
  Pr  Pr37  1  0.40428400  0.86654900  0.22880900  1
  Pr  Pr38  1  0.09571600  0.36654900  0.22880900  1
  Pr  Pr39  1  0.59571600  0.13345100  0.77119100  1
  Pr  Pr40  1  0.77788500  0.84414500  0.17239600  1
  Pr  Pr41  1  0.27788500  0.65585500  0.82760400  1
  Pr  Pr42  1  0.22211500  0.15585500  0.82760400  1
  Pr  Pr43  1  0.72211500  0.34414500  0.17239600  1
  C  C0  1  0.80981900  0.96143500  0.37510700  1
  C  C1  1  0.30981900  0.53856500  0.62489300  1
  C  C2  1  0.19018100  0.03856500  0.62489300  1
  C  C3  1  0.69018100  0.46143500  0.37510700  1
  C  C4  1  0.96379700  0.47492800  0.50964800  1
  C  C5  1  0.46379700  0.02507200  0.49035200  1
  C  C6  1  0.03620300  0.52507200  0.49035200  1
  C  C7  1  0.53620300  0.97492800  0.50964800  1
  C  C8  1  0.87151500  0.51719900  0.57236300  1
  C  C9  1  0.37151500  0.98280100  0.42763700  1
  C  C10  1  0.12848500  0.48280100  0.42763700  1
  C  C11  1  0.62848500  0.01719900  0.57236300  1
  C  C12  1  0.89886200  0.97197100  0.51871800  1
  C  C13  1  0.39886200  0.52802900  0.48128200  1
  C  C14  1  0.10113800  0.02802900  0.48128200  1
  C  C15  1  0.60113800  0.47197100  0.51871800  1
  C  C16  1  0.82657300  0.01685800  0.49668500  1
  C  C17  1  0.32657300  0.48314200  0.50331500  1
  C  C18  1  0.17342700  0.98314200  0.50331500  1
  C  C19  1  0.67342700  0.51685800  0.49668500  1
  C  C20  1  0.91882300  0.02090800  0.62758000  1
  C  C21  1  0.41882300  0.47909200  0.37242000  1
  C  C22  1  0.08117700  0.97909200  0.37242000  1
  C  C23  1  0.58117700  0.52090800  0.62758000  1
  C  C24  1  0.78269800  0.50545100  0.42455900  1
  C  C25  1  0.28269800  0.99454900  0.57544100  1
  C  C26  1  0.21730200  0.49454900  0.57544100  1
  C  C27  1  0.71730200  0.00545100  0.42455900  1
  C  C28  1  0.73719500  0.95676400  0.31530800  1
  C  C29  1  0.23719500  0.54323600  0.68469200  1
  C  C30  1  0.26280500  0.04323600  0.68469200  1
  C  C31  1  0.76280500  0.45676400  0.31530800  1
  C  C32  1  0.99190400  0.02619500  0.56144300  1
  C  C33  1  0.49190400  0.47380500  0.43855700  1
  C  C34  1  0.00809600  0.97380500  0.43855700  1
  C  C35  1  0.50809600  0.52619500  0.56144300  1
  C  C36  1  0.94412400  0.52182000  0.62227600  1
  C  C37  1  0.44412400  0.97818000  0.37772400  1
  C  C38  1  0.05587600  0.47818000  0.37772400  1
  C  C39  1  0.55587600  0.02182000  0.62227600  1
  C  C40  1  0.85465800  0.46196200  0.45139900  1
  C  C41  1  0.35465800  0.03803800  0.54860100  1
  C  C42  1  0.14534200  0.53803800  0.54860100  1
  C  C43  1  0.64534200  0.96196200  0.45139900  1
  Cl  Cl0  1  0.94744100  0.26005500  0.11885000  1
  Cl  Cl1  1  0.44744100  0.23994500  0.88115000  1
  Cl  Cl2  1  0.05255900  0.73994500  0.88115000  1
  Cl  Cl3  1  0.55255900  0.76005500  0.11885000  1
  Cl  Cl4  1  0.91312800  0.75678000  0.12016400  1
  Cl  Cl5  1  0.41312800  0.74322000  0.87983600  1
  Cl  Cl6  1  0.08687200  0.24322000  0.87983600  1
  Cl  Cl7  1  0.58687200  0.25678000  0.12016400  1
  Cl  Cl8  1  0.76680600  0.72036400  0.82442600  1
  Cl  Cl9  1  0.26680600  0.77963600  0.17557400  1
  Cl  Cl10  1  0.23319400  0.27963600  0.17557400  1
  Cl  Cl11  1  0.73319400  0.22036400  0.82442600  1
  Cl  Cl12  1  0.84007900  0.73871300  0.97390700  1
  Cl  Cl13  1  0.34007900  0.76128700  0.02609300  1
  Cl  Cl14  1  0.15992100  0.26128700  0.02609300  1
  Cl  Cl15  1  0.65992100  0.23871300  0.97390700  1
  Cl  Cl16  1  0.80543400  0.21993800  0.88773900  1
  Cl  Cl17  1  0.30543400  0.28006200  0.11226100  1
  Cl  Cl18  1  0.19456600  0.78006200  0.11226100  1
  Cl  Cl19  1  0.69456600  0.71993800  0.88773900  1
  Cl  Cl20  1  0.87547600  0.25815300  0.05632000  1
  Cl  Cl21  1  0.37547600  0.24184700  0.94368000  1
  Cl  Cl22  1  0.12452400  0.74184700  0.94368000  1
  Cl  Cl23  1  0.62452400  0.75815300  0.05632000  1
  Cl  Cl24  1  0.98416700  0.75902500  0.04766000  1
  Cl  Cl25  1  0.48416700  0.74097500  0.95234000  1
  Cl  Cl26  1  0.01583300  0.24097500  0.95234000  1
  Cl  Cl27  1  0.51583300  0.25902500  0.04766000  1
loop_
_geom_bond_atom_site_label_1
_geom_bond_atom_site_label_2
_geom_bond_distance
_geom_bond_site_symmetry_2
C0 C16 1.346314 1_565
C0 Pr40 2.437304 1_555
C0 Pr24 2.660695 1_565
C0 Pr28 2.684279 1_555
C0 Pr8 2.709160 1_565
C0 Pr32 2.769548 1_555
C1 C17 1.346314 1_555
C1 Pr41 2.437304 1_555
C1 Pr25 2.660695 1_555
C1 Pr29 2.684279 1_555
C1 Pr9 2.709160 1_555
C1 Pr33 2.769548 1_555
C2 Pr42 2.437304 1_555
C2 Pr26 2.660695 1_545
C2 Pr30 2.684279 1_555
C2 Pr10 2.709160 1_545
C2 Pr34 2.769548 1_555
C3 Pr43 2.437304 1_555
C3 Pr27 2.660695 1_555
C3 Pr31 2.684279 1_555
C3 Pr11 2.709160 1_555
C3 Pr35 2.769548 1_555
C4 Pr16 2.409026 1_555
C4 Pr18 2.649810 1_655
C4 Pr12 2.663842 1_555
C4 Pr0 2.694963 1_555
C4 Pr4 2.782247 1_555
C5 Pr17 2.409026 1_555
C5 Pr19 2.649810 1_545
C5 Pr13 2.663842 1_555
C5 Pr1 2.694963 1_545
C5 Pr5 2.782247 1_555
C6 Pr18 2.409026 1_555
C6 Pr16 2.649810 1_455
C6 Pr14 2.663842 1_555
C6 Pr2 2.694963 1_555
C6 Pr6 2.782247 1_555
C7 Pr19 2.409026 1_555
C7 Pr17 2.649810 1_565
C7 Pr15 2.663842 1_555
C7 Pr3 2.694974 1_565
C7 Pr7 2.782247 1_555
C8 Pr36 2.437017 1_555
C8 Pr4 2.676204 1_555
C8 Pr32 2.687614 1_555
C8 Pr20 2.717201 1_555
C8 Pr28 2.784712 1_555
C9 Pr37 2.437017 1_555
C9 Pr5 2.676204 1_565
C9 Pr33 2.687614 1_555
C9 Pr21 2.717201 1_565
C9 Pr29 2.784712 1_555
C10 C42 1.344978 1_555
C10 Pr38 2.437017 1_555
C10 Pr6 2.676204 1_555
C10 Pr34 2.687614 1_555
C10 Pr22 2.717201 1_555
C10 Pr30 2.784712 1_555
C11 C43 1.344978 1_545
C11 Pr39 2.437017 1_555
C11 Pr7 2.676204 1_545
C11 Pr35 2.687614 1_555
C11 Pr23 2.717201 1_545
C11 Pr31 2.784712 1_555
C12 C20 1.353184 1_565
C12 Pr32 2.422568 1_555
C12 Pr36 2.656656 1_555
C12 Pr20 2.683360 1_565
C12 Pr4 2.689732 1_565
C12 Pr0 2.781394 1_555
C13 C21 1.353184 1_555
C13 Pr33 2.422568 1_555
C13 Pr37 2.656656 1_555
C13 Pr21 2.683360 1_555
C13 Pr5 2.689732 1_555
C13 Pr1 2.781394 1_555
C14 C22 1.353184 1_545
C14 Pr34 2.422568 1_555
C14 Pr38 2.656656 1_555
C14 Pr22 2.683360 1_545
C14 Pr6 2.689732 1_545
C14 Pr2 2.781394 1_555
C15 C23 1.353184 1_555
C15 Pr35 2.422568 1_555
C15 Pr39 2.656656 1_555
C15 Pr23 2.683360 1_555
C15 Pr7 2.689732 1_555
C15 Pr3 2.781353 1_555
C16 Pr20 2.406030 1_555
C16 Pr8 2.638653 1_555
C16 Pr32 2.651180 1_545
C16 Pr28 2.741027 1_545
C16 Pr24 2.803021 1_555
C17 Pr21 2.406030 1_555
C17 Pr9 2.638653 1_555
C17 Pr33 2.651180 1_555
C17 Pr29 2.741027 1_555
C17 Pr25 2.803021 1_555
C18 C2 1.346314 1_565
C18 Pr22 2.406030 1_555
C18 Pr10 2.638653 1_555
C18 Pr34 2.651180 1_565
C18 Pr30 2.741027 1_565
C18 Pr26 2.803021 1_555
C19 C3 1.346314 1_555
C19 Pr23 2.406030 1_555
C19 Pr11 2.638653 1_555
C19 Pr35 2.651180 1_555
C19 Pr31 2.741027 1_555
C19 Pr27 2.803021 1_555
C20 Pr12 2.434902 1_555
C20 Pr4 2.612897 1_555
C20 Pr36 2.706047 1_545
C20 Pr0 2.757213 1_545
C20 Pr20 2.983607 1_555
C21 Pr13 2.434902 1_555
C21 Pr5 2.612897 1_555
C21 Pr37 2.706047 1_555
C21 Pr1 2.757213 1_555
C21 Pr21 2.983607 1_555
C22 Pr14 2.434902 1_555
C22 Pr6 2.612897 1_555
C22 Pr38 2.706047 1_565
C22 Pr2 2.757213 1_565
C22 Pr22 2.983607 1_555
C23 Pr15 2.434902 1_555
C23 Pr7 2.612897 1_555
C23 Pr39 2.706047 1_555
C23 Pr3 2.757187 1_555
C23 Pr23 2.983607 1_555
C24 C31 1.352333 1_555
C24 Pr28 2.422518 1_555
C24 Pr40 2.653647 1_555
C24 Pr8 2.669582 1_555
C24 Pr24 2.690391 1_555
C24 Pr27 2.805235 1_555
C25 C30 1.352333 1_565
C25 Pr29 2.422518 1_555
C25 Pr41 2.653647 1_555
C25 Pr9 2.669582 1_565
C25 Pr25 2.690391 1_565
C25 Pr26 2.805235 1_555
C26 C29 1.352333 1_555
C26 Pr30 2.422518 1_555
C26 Pr42 2.653647 1_555
C26 Pr10 2.669582 1_555
C26 Pr26 2.690391 1_555
C26 Pr25 2.805235 1_555
C27 C28 1.352333 1_545
C27 Pr31 2.422518 1_555
C27 Pr43 2.653647 1_555
C27 Pr11 2.669582 1_545
C27 Pr27 2.690391 1_545
C27 Pr24 2.805235 1_555
C28 Pr40 2.423350 1_555
C28 Pr27 2.609214 1_555
C28 Pr43 2.711194 1_565
C28 Pr24 2.763757 1_565
C28 Pr11 2.974625 1_555
C29 Pr41 2.423350 1_555
C29 Pr26 2.609214 1_555
C29 Pr42 2.711194 1_555
C29 Pr25 2.763757 1_555
C29 Pr10 2.974625 1_555
C30 Pr42 2.423350 1_555
C30 Pr25 2.609214 1_555
C30 Pr41 2.711194 1_545
C30 Pr26 2.763757 1_545
C30 Pr9 2.974625 1_555
C31 Pr43 2.423350 1_555
C31 Pr24 2.609214 1_555
C31 Pr40 2.711194 1_555
C31 Pr27 2.763757 1_555
C31 Pr8 2.974625 1_555
C32 C34 1.329548 1_645
C32 Pr12 2.457369 1_555
C32 Pr16 2.694122 1_555
C32 Pr0 2.719896 1_545
C32 Pr18 2.729156 1_645
C32 Pr2 2.849627 1_655
C33 C35 1.329548 1_555
C33 Pr13 2.457369 1_555
C33 Pr17 2.694122 1_555
C33 Pr1 2.719896 1_555
C33 Pr19 2.729156 1_555
C33 Pr3 2.849672 1_555
C34 Pr14 2.457369 1_555
C34 Pr18 2.694122 1_555
C34 Pr2 2.719896 1_565
C34 Pr16 2.729156 1_465
C34 Pr0 2.849627 1_455
C35 Pr15 2.457369 1_555
C35 Pr19 2.694122 1_555
C35 Pr3 2.719929 1_555
C35 Pr17 2.729156 1_555
C35 Pr1 2.849627 1_555
C36 C4 1.358330 1_555
C36 Pr36 2.414223 1_555
C36 Pr0 2.617131 1_555
C36 Pr12 2.691640 1_555
C36 Pr4 2.738956 1_555
C36 Pr18 2.922686 1_655
C37 C5 1.358330 1_565
C37 Pr37 2.414223 1_555
C37 Pr1 2.617131 1_555
C37 Pr13 2.691640 1_565
C37 Pr5 2.738956 1_565
C37 Pr19 2.922686 1_555
C38 C6 1.358330 1_555
C38 Pr38 2.414223 1_555
C38 Pr2 2.617131 1_555
C38 Pr14 2.691640 1_555
C38 Pr6 2.738956 1_555
C38 Pr16 2.922686 1_455
C39 C7 1.358330 1_545
C39 Pr39 2.414223 1_555
C39 Pr3 2.617125 1_555
C39 Pr15 2.691640 1_545
C39 Pr7 2.738956 1_545
C39 Pr17 2.922686 1_555
C40 C8 1.344978 1_555
C40 Pr8 2.411944 1_555
C40 Pr20 2.642912 1_555
C40 Pr28 2.650282 1_555
C40 Pr32 2.735079 1_555
C40 Pr4 2.808039 1_555
C41 C9 1.344978 1_545
C41 Pr9 2.411944 1_555
C41 Pr21 2.642912 1_555
C41 Pr29 2.650282 1_545
C41 Pr33 2.735079 1_545
C41 Pr5 2.808039 1_555
C42 Pr10 2.411944 1_555
C42 Pr22 2.642912 1_555
C42 Pr30 2.650282 1_555
C42 Pr34 2.735079 1_555
C42 Pr6 2.808039 1_555
C43 Pr11 2.411944 1_555
C43 Pr23 2.642912 1_555
C43 Pr31 2.650282 1_565
C43 Pr35 2.735079 1_565
C43 Pr7 2.808039 1_555
Cl0 Pr4 2.940025 1_555
Cl0 Pr16 2.972049 1_555
Cl0 Pr0 2.988676 1_545
Cl0 Pr12 3.062645 1_554
Cl1 Pr5 2.940025 1_555
Cl1 Pr17 2.972049 1_555
Cl1 Pr1 2.988676 1_555
Cl1 Pr13 3.062645 1_556
Cl2 Pr6 2.940025 1_555
Cl2 Pr18 2.972049 1_555
Cl2 Pr2 2.988676 1_565
Cl2 Pr14 3.062645 1_556
Cl3 Pr7 2.940025 1_555
Cl3 Pr19 2.972049 1_555
Cl3 Pr3 2.988674 1_555
Cl3 Pr15 3.062645 1_554
Cl4 Pr32 2.901011 1_555
Cl4 Pr0 2.957699 1_555
Cl4 Pr4 2.999455 1_555
Cl4 Pr36 3.034534 1_554
Cl5 Pr33 2.901011 1_555
Cl5 Pr1 2.957699 1_555
Cl5 Pr5 2.999455 1_565
Cl5 Pr37 3.034534 1_556
Cl6 Pr34 2.901011 1_555
Cl6 Pr2 2.957699 1_555
Cl6 Pr6 2.999455 1_555
Cl6 Pr38 3.034534 1_556
Cl7 Pr35 2.901011 1_555
Cl7 Pr3 2.957671 1_555
Cl7 Pr7 2.999455 1_545
Cl7 Pr39 3.034534 1_554
Cl8 Pr28 2.926818 1_555
Cl8 Pr27 2.961176 1_555
Cl8 Pr24 3.011222 1_565
Cl8 Pr40 3.044886 1_556
Cl9 Pr29 2.926818 1_555
Cl9 Pr26 2.961176 1_555
Cl9 Pr25 3.011222 1_555
Cl9 Pr41 3.044886 1_554
Cl10 Pr30 2.926818 1_555
Cl10 Pr25 2.961176 1_555
Cl10 Pr26 3.011222 1_545
Cl10 Pr42 3.044886 1_554
Cl11 Pr31 2.926818 1_555
Cl11 Pr24 2.961176 1_555
Cl11 Pr27 3.011222 1_555
Cl11 Pr43 3.044886 1_556
Cl12 Pr8 3.056238 1_556
Cl12 Pr20 3.076447 1_565
Cl12 Pr28 3.219224 1_555
Cl12 Pr32 3.224528 1_556
Cl12 Pr40 3.454664 1_556
Cl12 Pr36 3.550431 1_555
Cl13 Pr9 3.056238 1_564
Cl13 Pr21 3.076447 1_555
Cl13 Pr29 3.219224 1_555
Cl13 Pr33 3.224528 1_554
Cl13 Pr41 3.454664 1_554
Cl13 Pr37 3.550431 1_555
Cl14 Pr10 3.056238 1_554
Cl14 Pr22 3.076447 1_545
Cl14 Pr30 3.219224 1_555
Cl14 Pr34 3.224528 1_554
Cl14 Pr42 3.454664 1_554
Cl14 Pr38 3.550431 1_555
Cl15 Pr11 3.056238 1_546
Cl15 Pr23 3.076447 1_555
Cl15 Pr31 3.219224 1_555
Cl15 Pr35 3.224528 1_556
Cl15 Pr43 3.454664 1_556
Cl15 Pr39 3.550431 1_555
Cl16 Pr28 3.000546 1_555
Cl16 Pr20 3.056336 1_555
Cl16 Pr40 3.224770 1_546
Cl16 Pr8 3.229164 1_556
Cl16 Pr24 3.333328 1_555
Cl17 Pr29 3.000546 1_545
Cl17 Pr21 3.056336 1_555
Cl17 Pr41 3.224770 1_554
Cl17 Pr9 3.229164 1_554
Cl17 Pr25 3.333328 1_555
Cl18 Pr30 3.000546 1_555
Cl18 Pr22 3.056336 1_555
Cl18 Pr42 3.224770 1_564
Cl18 Pr10 3.229164 1_554
Cl18 Pr26 3.333328 1_555
Cl19 Pr31 3.000546 1_565
Cl19 Pr23 3.056336 1_555
Cl19 Pr43 3.224770 1_556
Cl19 Pr11 3.229164 1_556
Cl19 Pr27 3.333328 1_555
Cl20 Pr32 3.008792 1_545
Cl20 Pr8 3.039283 1_555
Cl20 Pr20 3.208649 1_554
Cl20 Pr36 3.248609 1_554
Cl20 Pr4 3.332721 1_555
Cl21 Pr33 3.008792 1_555
Cl21 Pr9 3.039283 1_555
Cl21 Pr21 3.208649 1_556
Cl21 Pr37 3.248609 1_546
Cl21 Pr5 3.332721 1_555
Cl22 Pr34 3.008792 1_565
Cl22 Pr10 3.039283 1_555
Cl22 Pr22 3.208649 1_556
Cl22 Pr38 3.248609 1_556
Cl22 Pr6 3.332721 1_555
Cl23 Pr35 3.008792 1_555
Cl23 Pr11 3.039283 1_555
Cl23 Pr23 3.208649 1_554
Cl23 Pr39 3.248609 1_564
Cl23 Pr7 3.332721 1_555
Cl24 Pr16 2.978645 1_555
Cl24 Pr14 3.154960 1_655
Cl24 Pr12 3.170691 1_564
Cl24 Pr18 3.230403 1_654
Cl24 Pr0 3.309374 1_555
Cl25 Pr17 2.978645 1_565
Cl25 Pr15 3.154960 1_555
Cl25 Pr13 3.170691 1_556
Cl25 Pr19 3.230403 1_556
Cl25 Pr1 3.309374 1_555
Cl26 Pr18 2.978645 1_555
Cl26 Pr12 3.154960 1_455
Cl26 Pr14 3.170691 1_546
Cl26 Pr16 3.230403 1_456
Cl26 Pr2 3.309374 1_555
Cl27 Pr19 2.978645 1_545
Cl27 Pr13 3.154960 1_555
Cl27 Pr15 3.170691 1_554
Cl27 Pr17 3.230403 1_554
Cl27 Pr3 3.309396 1_555
