# generated using pymatgen
data_NaAs3(PbO3)4
_symmetry_space_group_name_H-M   'P 1'
_cell_length_a   10.22697375
_cell_length_b   10.22697375
_cell_length_c   7.44354900
_cell_angle_alpha   90.00000000
_cell_angle_beta   90.00000000
_cell_angle_gamma   119.99999839
_symmetry_Int_Tables_number   1
_chemical_formula_structural   NaAs3(PbO3)4
_chemical_formula_sum   'Na2 As6 Pb8 O24'
_cell_volume   674.22518776
_cell_formula_units_Z   2
loop_
 _symmetry_equiv_pos_site_id
 _symmetry_equiv_pos_as_xyz
  1  'x, y, z'
loop_
 _atom_site_type_symbol
 _atom_site_label
 _atom_site_symmetry_multiplicity
 _atom_site_fract_x
 _atom_site_fract_y
 _atom_site_fract_z
 _atom_site_occupancy
  Na  Na0  1  0.66666700  0.33333300  0.50771700  1
  Na  Na1  1  0.33333300  0.66666700  0.00771700  1
  As  As0  1  0.98342600  0.37726900  0.25219900  1
  As  As1  1  0.39384300  0.01657400  0.25219900  1
  As  As2  1  0.62273100  0.60615700  0.25219900  1
  As  As3  1  0.01657400  0.62273100  0.75219900  1
  As  As4  1  0.60615700  0.98342600  0.75219900  1
  As  As5  1  0.37726900  0.39384300  0.75219900  1
  Pb  Pb0  1  0.74232100  0.74404000  0.74867900  1
  Pb  Pb1  1  0.00171800  0.25767900  0.74867900  1
  Pb  Pb2  1  0.25596000  0.99828200  0.74867900  1
  Pb  Pb3  1  0.25767900  0.25596000  0.24867900  1
  Pb  Pb4  1  0.99828200  0.74232100  0.24867900  1
  Pb  Pb5  1  0.74404000  0.00171800  0.24867900  1
  Pb  Pb6  1  0.33333300  0.66666700  0.48614300  1
  Pb  Pb7  1  0.66666700  0.33333300  0.98614300  1
  O  O0  1  0.66013000  0.91538100  0.93214800  1
  O  O1  1  0.25525100  0.33987000  0.93214800  1
  O  O2  1  0.08461900  0.74474900  0.93214800  1
  O  O3  1  0.33987000  0.08461900  0.43214800  1
  O  O4  1  0.74474900  0.66013000  0.43214800  1
  O  O5  1  0.91538100  0.25525100  0.43214800  1
  O  O6  1  0.34669700  0.08730900  0.06807000  1
  O  O7  1  0.74061300  0.65330300  0.06807000  1
  O  O8  1  0.91269100  0.25938700  0.06807000  1
  O  O9  1  0.65330300  0.91269100  0.56807000  1
  O  O10  1  0.25938700  0.34669700  0.56807000  1
  O  O11  1  0.08730900  0.74061300  0.56807000  1
  O  O12  1  0.89683600  0.48658500  0.25243300  1
  O  O13  1  0.58974900  0.10316400  0.25243300  1
  O  O14  1  0.51341500  0.41025100  0.25243300  1
  O  O15  1  0.10316400  0.51341500  0.75243300  1
  O  O16  1  0.41025100  0.89683600  0.75243300  1
  O  O17  1  0.48658500  0.58974900  0.75243300  1
  O  O18  1  0.30815100  0.82260800  0.24851800  1
  O  O19  1  0.51445700  0.69184900  0.24851800  1
  O  O20  1  0.17739200  0.48554300  0.24851800  1
  O  O21  1  0.69184900  0.17739200  0.74851800  1
  O  O22  1  0.48554300  0.30815100  0.74851800  1
  O  O23  1  0.82260800  0.51445700  0.74851800  1
loop_
_geom_bond_atom_site_label_1
_geom_bond_atom_site_label_2
_geom_bond_distance
_geom_bond_site_symmetry_2
Na0 O21 2.496636 1_555
Na0 O23 2.496641 1_555
Na0 O22 2.496643 1_555
Na0 O13 2.814060 1_555
Na0 O12 2.814062 1_555
Na0 O14 2.814068 1_555
Na1 O18 2.496636 1_555
Na1 O20 2.496641 1_555
Na1 O19 2.496643 1_555
Na1 O16 2.814060 1_554
Na1 O15 2.814062 1_554
Na1 O17 2.814068 1_554
As0 O20 1.722016 1_655
As0 O5 1.722563 1_555
As0 O8 1.727159 1_555
As0 O12 1.738992 1_555
As1 O18 1.722016 1_545
As1 O3 1.722563 1_555
As1 O6 1.727154 1_555
As1 O13 1.738992 1_555
As2 O19 1.722016 1_555
As2 O4 1.722563 1_555
As2 O7 1.727160 1_555
As2 O14 1.738992 1_555
As3 O23 1.722016 1_455
As3 O2 1.722563 1_555
As3 O11 1.727159 1_555
As3 O15 1.738992 1_555
As4 O21 1.722016 1_565
As4 O0 1.722563 1_555
As4 O9 1.727154 1_555
As4 O16 1.738992 1_555
As5 O22 1.722016 1_555
As5 O1 1.722563 1_555
As5 O10 1.727160 1_555
As5 O17 1.738992 1_555
O0 Pb5 2.511892 1_566
O0 Pb0 2.667406 1_555
O1 Pb3 2.511894 1_556
O1 Pb1 2.667415 1_555
O2 Pb4 2.511891 1_456
O2 Pb2 2.667413 1_555
O3 Pb2 2.511892 1_545
O3 Pb3 2.667406 1_555
O4 Pb0 2.511894 1_555
O4 Pb4 2.667415 1_555
O5 Pb1 2.511891 1_655
O5 Pb5 2.667413 1_555
O6 Pb2 2.548968 1_544
O6 Pb3 2.679787 1_555
O7 Pb0 2.548972 1_554
O7 Pb4 2.679787 1_555
O8 Pb1 2.548964 1_654
O8 Pb5 2.679787 1_555
O9 Pb5 2.548968 1_565
O9 Pb0 2.679787 1_555
O10 Pb3 2.548972 1_555
O10 Pb1 2.679787 1_555
O11 Pb4 2.548964 1_455
O11 Pb2 2.679787 1_555
O12 Pb4 2.281240 1_555
O13 Pb5 2.281250 1_555
O14 Pb3 2.281241 1_555
O15 Pb1 2.281240 1_555
O16 Pb2 2.281250 1_555
O17 Pb0 2.281241 1_555
O18 Pb6 2.479719 1_555
O18 Pb4 2.848655 1_455
O19 Pb6 2.479726 1_555
O19 Pb5 2.848658 1_565
O20 Pb6 2.479723 1_555
O20 Pb3 2.848665 1_555
O21 Pb7 2.479719 1_555
O21 Pb1 2.848655 1_655
O22 Pb7 2.479726 1_555
O22 Pb2 2.848658 1_545
O23 Pb7 2.479723 1_555
O23 Pb0 2.848665 1_555
