# generated using pymatgen
data_MgGa4P6(HO3)6
_symmetry_space_group_name_H-M   'P 1'
_cell_length_a   8.51019773
_cell_length_b   8.51019737
_cell_length_c   8.10157161
_cell_angle_alpha   90.00000000
_cell_angle_beta   90.00000000
_cell_angle_gamma   119.99999685
_symmetry_Int_Tables_number   1
_chemical_formula_structural   MgGa4P6(HO3)6
_chemical_formula_sum   'Mg1 Ga4 P6 H6 O18'
_cell_volume   508.13511011
_cell_formula_units_Z   1
loop_
 _symmetry_equiv_pos_site_id
 _symmetry_equiv_pos_as_xyz
  1  'x, y, z'
loop_
 _atom_site_type_symbol
 _atom_site_label
 _atom_site_symmetry_multiplicity
 _atom_site_fract_x
 _atom_site_fract_y
 _atom_site_fract_z
 _atom_site_occupancy
  Mg  Mg0  1  0.33333300  0.66666700  0.75000000  1
  Ga  Ga0  1  0.33333300  0.66666700  0.45031845  1
  Ga  Ga1  1  0.66666700  0.33333300  0.03709799  1
  Ga  Ga2  1  0.66666700  0.33333300  0.46290201  1
  Ga  Ga3  1  0.33333300  0.66666700  0.04968155  1
  P  P0  1  0.91303940  0.28809635  0.75000000  1
  P  P1  1  0.64949594  0.98037919  0.25000000  1
  P  P2  1  0.33088226  0.35050406  0.25000000  1
  P  P3  1  0.71190365  0.62494205  0.75000000  1
  P  P4  1  0.37505795  0.08696060  0.75000000  1
  P  P5  1  0.01962081  0.66911774  0.25000000  1
  H  H0  1  0.84944869  0.80835789  0.75000000  1
  H  H1  1  0.95261446  0.79044092  0.25000000  1
  H  H2  1  0.83782646  0.04738554  0.25000000  1
  H  H3  1  0.19164211  0.04109080  0.75000000  1
  H  H4  1  0.95890920  0.15055131  0.75000000  1
  H  H5  1  0.20955908  0.16217354  0.25000000  1
  O  O0  1  0.08581286  0.47202784  0.75000000  1
  O  O1  1  0.61675353  0.14376049  0.25000000  1
  O  O2  1  0.52700696  0.38324647  0.25000000  1
  O  O3  1  0.52797216  0.61378502  0.75000000  1
  O  O4  1  0.14000328  0.71223062  0.09548701  1
  O  O5  1  0.44682509  0.19505046  0.58611563  1
  O  O6  1  0.74822537  0.55317491  0.58611563  1
  O  O7  1  0.28776938  0.42777266  0.09548701  1
  O  O8  1  0.57222734  0.85999672  0.09548701  1
  O  O9  1  0.80494954  0.25177463  0.58611563  1
  O  O10  1  0.80494954  0.25177463  0.91388437  1
  O  O11  1  0.57222734  0.85999672  0.40451299  1
  O  O12  1  0.28776938  0.42777266  0.40451299  1
  O  O13  1  0.74822537  0.55317491  0.91388437  1
  O  O14  1  0.44682509  0.19505046  0.91388437  1
  O  O15  1  0.14000328  0.71223062  0.40451299  1
  O  O16  1  0.85623951  0.47299304  0.25000000  1
  O  O17  1  0.38621498  0.91418714  0.75000000  1
loop_
_geom_bond_atom_site_label_1
_geom_bond_atom_site_label_2
_geom_bond_distance
_geom_bond_site_symmetry_2
Mg0 O17 1.921371 1_555
Mg0 O0 1.921374 1_555
Mg0 O3 1.921380 1_555
Ga0 O15 1.906032 1_555
Ga0 O11 1.906037 1_555
Ga0 O12 1.906040 1_555
Ga1 O10 1.918301 1_554
Ga1 O14 1.918307 1_554
Ga1 O13 1.918308 1_554
Ga1 O1 2.252323 1_555
Ga1 O16 2.252324 1_555
Ga1 O2 2.252328 1_555
Ga2 O9 1.918301 1_555
Ga2 O5 1.918307 1_555
Ga2 O6 1.918308 1_555
Ga2 O1 2.252323 1_555
Ga2 O16 2.252324 1_555
Ga2 O2 2.252328 1_555
Ga3 O4 1.906032 1_555
Ga3 O8 1.906037 1_555
Ga3 O7 1.906040 1_555
H0 P3 1.406941 1_555
H1 P5 1.407109 1_655
H2 P1 1.407117 1_545
H3 P4 1.406943 1_555
H4 P0 1.406935 1_555
H5 P2 1.407115 1_555
O0 P0 1.520041 1_455
O1 P1 1.548646 1_545
O2 P2 1.548654 1_555
O3 P3 1.520045 1_555
O4 P5 1.541197 1_555
O5 P4 1.555701 1_555
O6 P3 1.555697 1_555
O7 P2 1.541193 1_555
O8 P1 1.541197 1_555
O9 P0 1.555702 1_555
O10 P0 1.555702 1_555
O11 P1 1.541197 1_555
O12 P2 1.541193 1_555
O13 P3 1.555697 1_555
O14 P4 1.555701 1_555
O15 P5 1.541197 1_555
O16 P5 1.548651 1_655
O17 P4 1.520036 1_565
