# generated using pymatgen
data_Na7(WO3)20
_symmetry_space_group_name_H-M   'P 1'
_cell_length_a   3.89200200
_cell_length_b   3.89200200
_cell_length_c   78.26379300
_cell_angle_alpha   90.00000000
_cell_angle_beta   90.00000000
_cell_angle_gamma   90.00000000
_symmetry_Int_Tables_number   1
_chemical_formula_structural   Na7(WO3)20
_chemical_formula_sum   'Na7 W20 O60'
_cell_volume   1185.51485814
_cell_formula_units_Z   1
loop_
 _symmetry_equiv_pos_site_id
 _symmetry_equiv_pos_as_xyz
  1  'x, y, z'
loop_
 _atom_site_type_symbol
 _atom_site_label
 _atom_site_symmetry_multiplicity
 _atom_site_fract_x
 _atom_site_fract_y
 _atom_site_fract_z
 _atom_site_occupancy
  Na  Na0  1  0.00000000  0.00000000  0.05014400  1
  Na  Na1  1  0.00000000  0.00000000  0.59985500  1
  Na  Na2  1  0.00000000  0.00000000  0.69937500  1
  Na  Na3  1  0.00000000  0.00000000  0.75057900  1
  Na  Na4  1  0.00000000  0.00000000  0.84907800  1
  Na  Na5  1  0.00000000  0.00000000  0.90020200  1
  Na  Na6  1  0.00000000  0.00000000  0.95080000  1
  W  W0  1  0.50000000  0.50000000  0.02498300  1
  W  W1  1  0.50000000  0.50000000  0.07632700  1
  W  W2  1  0.50000000  0.50000000  0.12633700  1
  W  W3  1  0.50000000  0.50000000  0.17613600  1
  W  W4  1  0.50000000  0.50000000  0.22586200  1
  W  W5  1  0.50000000  0.50000000  0.32501700  1
  W  W6  1  0.50000000  0.50000000  0.27549300  1
  W  W7  1  0.50000000  0.50000000  0.42413500  1
  W  W8  1  0.50000000  0.50000000  0.37452900  1
  W  W9  1  0.50000000  0.50000000  0.52361100  1
  W  W10  1  0.50000000  0.50000000  0.47383300  1
  W  W11  1  0.50000000  0.50000000  0.62515000  1
  W  W12  1  0.50000000  0.50000000  0.57364700  1
  W  W13  1  0.50000000  0.50000000  0.72494300  1
  W  W14  1  0.50000000  0.50000000  0.67417900  1
  W  W15  1  0.50000000  0.50000000  0.77569900  1
  W  W16  1  0.50000000  0.50000000  0.87480100  1
  W  W17  1  0.50000000  0.50000000  0.82432300  1
  W  W18  1  0.50000000  0.50000000  0.92523300  1
  W  W19  1  0.50000000  0.50000000  0.97595900  1
  O  O0  1  0.00000000  0.50000000  0.02569900  1
  O  O1  1  0.00000000  0.50000000  0.07426500  1
  O  O2  1  0.00000000  0.50000000  0.12472100  1
  O  O3  1  0.00000000  0.50000000  0.17476600  1
  O  O4  1  0.00000000  0.50000000  0.22481200  1
  O  O5  1  0.00000000  0.50000000  0.27489300  1
  O  O6  1  0.00000000  0.50000000  0.32499400  1
  O  O7  1  0.00000000  0.50000000  0.37509800  1
  O  O8  1  0.00000000  0.50000000  0.42518300  1
  O  O9  1  0.00000000  0.50000000  0.47523300  1
  O  O10  1  0.00000000  0.50000000  0.52529000  1
  O  O11  1  0.00000000  0.50000000  0.57578800  1
  O  O12  1  0.00000000  0.50000000  0.62416500  1
  O  O13  1  0.00000000  0.50000000  0.67556400  1
  O  O14  1  0.00000000  0.50000000  0.72517200  1
  O  O15  1  0.00000000  0.50000000  0.77418200  1
  O  O16  1  0.00000000  0.50000000  0.82573600  1
  O  O17  1  0.00000000  0.50000000  0.87491400  1
  O  O18  1  0.00000000  0.50000000  0.92475300  1
  O  O19  1  0.50000000  0.00000000  0.02569900  1
  O  O20  1  0.50000000  0.00000000  0.07426500  1
  O  O21  1  0.50000000  0.50000000  0.00032800  1
  O  O22  1  0.50000000  0.50000000  0.05025500  1
  O  O23  1  0.50000000  0.00000000  0.12472100  1
  O  O24  1  0.50000000  0.00000000  0.17476600  1
  O  O25  1  0.50000000  0.50000000  0.09981500  1
  O  O26  1  0.50000000  0.50000000  0.14993000  1
  O  O27  1  0.50000000  0.00000000  0.22481200  1
  O  O28  1  0.50000000  0.50000000  0.19993200  1
  O  O29  1  0.50000000  0.00000000  0.27489300  1
  O  O30  1  0.50000000  0.00000000  0.32499400  1
  O  O31  1  0.50000000  0.50000000  0.24991200  1
  O  O32  1  0.50000000  0.50000000  0.29994900  1
  O  O33  1  0.50000000  0.00000000  0.37509800  1
  O  O34  1  0.50000000  0.00000000  0.42518300  1
  O  O35  1  0.50000000  0.50000000  0.35003800  1
  O  O36  1  0.50000000  0.50000000  0.40008600  1
  O  O37  1  0.50000000  0.00000000  0.52529000  1
  O  O38  1  0.50000000  0.00000000  0.47523300  1
  O  O39  1  0.50000000  0.50000000  0.45006500  1
  O  O40  1  0.50000000  0.00000000  0.57578800  1
  O  O41  1  0.50000000  0.00000000  0.62416500  1
  O  O42  1  0.50000000  0.50000000  0.50005300  1
  O  O43  1  0.50000000  0.00000000  0.67556400  1
  O  O44  1  0.50000000  0.00000000  0.72517200  1
  O  O45  1  0.50000000  0.50000000  0.55018500  1
  O  O46  1  0.50000000  0.50000000  0.59983400  1
  O  O47  1  0.50000000  0.00000000  0.77418200  1
  O  O48  1  0.50000000  0.00000000  0.82573600  1
  O  O49  1  0.50000000  0.50000000  0.64926900  1
  O  O50  1  0.50000000  0.50000000  0.70052900  1
  O  O51  1  0.50000000  0.50000000  0.74980100  1
  O  O52  1  0.50000000  0.00000000  0.87491400  1
  O  O53  1  0.50000000  0.00000000  0.92475300  1
  O  O54  1  0.50000000  0.50000000  0.79975700  1
  O  O55  1  0.50000000  0.50000000  0.85029400  1
  O  O56  1  0.50000000  0.00000000  0.97470200  1
  O  O57  1  0.50000000  0.50000000  0.89942800  1
  O  O58  1  0.50000000  0.50000000  0.95045300  1
  O  O59  1  0.00000000  0.50000000  0.97470200  1
loop_
_geom_bond_atom_site_label_1
_geom_bond_atom_site_label_2
_geom_bond_distance
_geom_bond_site_symmetry_2
Na0 O1 2.711220 1_545
Na0 O20 2.711220 1_455
Na0 O1 2.711220 1_555
Na0 O20 2.711220 1_555
Na0 O0 2.728937 1_555
Na0 O19 2.728937 1_555
Na0 O19 2.728937 1_455
Na0 O0 2.728937 1_545
Na0 O22 2.752075 1_545
Na0 O22 2.752075 1_445
Na0 O22 2.752075 1_455
Na0 O22 2.752075 1_555
Na1 O11 2.708279 1_545
Na1 O11 2.708279 1_555
Na1 O40 2.708279 1_555
Na1 O40 2.708279 1_455
Na1 O12 2.721540 1_555
Na1 O41 2.721540 1_555
Na1 O12 2.721540 1_545
Na1 O41 2.721540 1_455
Na1 O46 2.752061 1_545
Na1 O46 2.752061 1_445
Na1 O46 2.752061 1_455
Na1 O46 2.752061 1_555
Na2 O43 2.694383 1_455
Na2 O43 2.694383 1_555
Na2 O13 2.694383 1_545
Na2 O13 2.694383 1_555
Na2 O50 2.753543 1_555
Na2 O50 2.753543 1_545
Na2 O50 2.753543 1_445
Na2 O50 2.753543 1_455
Na2 O44 2.804133 1_455
Na2 O14 2.804133 1_545
Na2 O44 2.804133 1_555
Na2 O14 2.804133 1_555
Na3 O47 2.683149 1_455
Na3 O15 2.683149 1_555
Na3 O47 2.683149 1_555
Na3 O15 2.683149 1_545
Na3 O51 2.752735 1_545
Na3 O51 2.752735 1_455
Na3 O51 2.752735 1_555
Na3 O51 2.752735 1_445
Na3 O44 2.782238 1_455
Na3 O14 2.782238 1_545
Na3 O44 2.782238 1_555
Na3 O14 2.782238 1_555
Na4 O48 2.669127 1_555
Na4 O16 2.669127 1_545
Na4 O48 2.669127 1_455
Na4 O16 2.669127 1_555
Na4 O55 2.753706 1_455
Na4 O55 2.753706 1_555
Na4 O55 2.753706 1_545
Na4 O55 2.753706 1_445
Na4 O17 2.806332 1_545
Na4 O17 2.806332 1_555
Na4 O52 2.806332 1_555
Na4 O52 2.806332 1_455
Na5 O18 2.734759 1_545
Na5 O53 2.734759 1_455
Na5 O18 2.734759 1_555
Na5 O53 2.734759 1_555
Na5 O57 2.752728 1_445
Na5 O57 2.752728 1_455
Na5 O57 2.752728 1_555
Na5 O57 2.752728 1_545
Na5 O52 2.775589 1_555
Na5 O52 2.775589 1_455
Na5 O17 2.775589 1_545
Na5 O17 2.775589 1_555
Na6 O59 2.699313 1_545
Na6 O56 2.699313 1_555
Na6 O56 2.699313 1_455
Na6 O59 2.699313 1_555
Na6 O58 2.752195 1_455
Na6 O58 2.752195 1_555
Na6 O58 2.752195 1_545
Na6 O58 2.752195 1_445
Na6 O53 2.818254 1_455
Na6 O18 2.818254 1_555
Na6 O53 2.818254 1_555
Na6 O18 2.818254 1_545
O0 W0 1.946808 1_555
O0 W0 1.946808 1_455
O1 W1 1.952681 1_455
O1 W1 1.952681 1_555
O2 W2 1.950107 1_555
O2 W2 1.950107 1_455
O3 W3 1.948953 1_455
O3 W3 1.948953 1_555
O4 W4 1.947735 1_455
O4 W4 1.947735 1_555
O5 W6 1.946567 1_555
O5 W6 1.946567 1_455
O6 W5 1.946002 1_555
O6 W5 1.946002 1_455
O7 W8 1.946510 1_555
O7 W8 1.946510 1_455
O8 W7 1.947729 1_455
O8 W7 1.947729 1_555
O9 W10 1.949083 1_555
O9 W10 1.949083 1_455
O10 W9 1.950433 1_555
O10 W9 1.950433 1_455
O11 W12 1.953202 1_555
O11 W12 1.953202 1_455
O12 W11 1.947527 1_555
O12 W11 1.947527 1_455
O13 W14 1.949018 1_455
O13 W14 1.949018 1_555
O14 W13 1.946084 1_455
O14 W13 1.946084 1_555
O15 W15 1.949619 1_555
O15 W15 1.949619 1_455
O16 W17 1.949141 1_555
O16 W17 1.949141 1_455
O17 W16 1.946021 1_555
O17 W16 1.946021 1_455
O18 W18 1.946364 1_455
O18 W18 1.946364 1_555
O19 W0 1.946808 1_555
O19 W0 1.946808 1_545
O20 W1 1.952681 1_545
O20 W1 1.952681 1_555
O21 W19 1.907210 1_554
O21 W0 1.929594 1_555
O22 W0 1.977883 1_555
O22 W1 2.040494 1_555
O23 W2 1.950107 1_545
O23 W2 1.950107 1_555
O24 W3 1.948953 1_545
O24 W3 1.948953 1_555
O25 W1 1.838260 1_555
O25 W2 2.075712 1_555
O26 W2 1.846478 1_555
O26 W3 2.050981 1_555
O27 W4 1.947735 1_555
O27 W4 1.947735 1_545
O28 W3 1.862365 1_555
O28 W4 2.029380 1_555
O29 W6 1.946567 1_555
O29 W6 1.946567 1_545
O30 W5 1.946002 1_555
O30 W5 1.946002 1_545
O31 W4 1.882244 1_555
O31 W6 2.002066 1_555
O32 W6 1.914019 1_555
O32 W5 1.961917 1_555
O33 W8 1.946510 1_555
O33 W8 1.946510 1_545
O34 W7 1.947729 1_545
O34 W7 1.947729 1_555
O35 W8 1.916759 1_555
O35 W5 1.958238 1_555
O36 W7 1.882166 1_555
O36 W8 2.000188 1_555
O37 W9 1.950433 1_555
O37 W9 1.950433 1_545
O38 W10 1.949083 1_555
O38 W10 1.949083 1_545
O39 W10 1.860174 1_555
O39 W7 2.029380 1_555
O40 W12 1.953202 1_545
O40 W12 1.953202 1_555
O41 W11 1.947527 1_555
O41 W11 1.947527 1_545
O42 W9 1.843738 1_555
O42 W10 2.052077 1_555
O43 W14 1.949018 1_545
O43 W14 1.949018 1_555
O44 W13 1.946084 1_555
O44 W13 1.946084 1_545
O45 W12 1.836225 1_555
O45 W9 2.079782 1_555
O46 W11 1.981326 1_555
O46 W12 2.049494 1_555
O47 W15 1.949619 1_555
O47 W15 1.949619 1_545
O48 W17 1.949141 1_555
O48 W17 1.949141 1_545
O49 W11 1.887644 1_555
O49 W14 1.949551 1_555
O50 W13 1.910732 1_555
O50 W14 2.062251 1_555
O51 W13 1.945481 1_555
O51 W15 2.026876 1_555
O52 W16 1.946021 1_545
O52 W16 1.946021 1_555
O53 W18 1.946364 1_555
O53 W18 1.946364 1_545
O54 W15 1.882870 1_555
O54 W17 1.922628 1_555
O55 W16 1.918011 1_555
O55 W17 2.032589 1_555
O56 W19 1.948486 1_555
O56 W19 1.948486 1_545
O57 W16 1.927402 1_555
O57 W18 2.019597 1_555
O58 W18 1.973813 1_555
O58 W19 1.996196 1_555
O59 W19 1.948486 1_455
O59 W19 1.948486 1_555
