# generated using pymatgen
data_Rb2Mo(OF2)2
_symmetry_space_group_name_H-M   'P 1'
_cell_length_a   7.96043503
_cell_length_b   7.96043503
_cell_length_c   7.20446600
_cell_angle_alpha   90.00000000
_cell_angle_beta   90.00000000
_cell_angle_gamma   134.44955289
_symmetry_Int_Tables_number   1
_chemical_formula_structural   Rb2Mo(OF2)2
_chemical_formula_sum   'Rb4 Mo2 O4 F8'
_cell_volume   325.90640081
_cell_formula_units_Z   2
loop_
 _symmetry_equiv_pos_site_id
 _symmetry_equiv_pos_as_xyz
  1  'x, y, z'
loop_
 _atom_site_type_symbol
 _atom_site_label
 _atom_site_symmetry_multiplicity
 _atom_site_fract_x
 _atom_site_fract_y
 _atom_site_fract_z
 _atom_site_occupancy
  Rb  Rb0  1  0.44132700  0.55260900  0.25000000  1
  Rb  Rb1  1  0.55260900  0.44132700  0.75000000  1
  Rb  Rb2  1  0.75117700  0.22075500  0.25000000  1
  Rb  Rb3  1  0.22075500  0.75117700  0.75000000  1
  Mo  Mo0  1  0.11571000  0.88896000  0.25000000  1
  Mo  Mo1  1  0.88896000  0.11571000  0.75000000  1
  O  O0  1  0.06712700  0.30130300  0.93769800  1
  O  O1  1  0.30130300  0.06712700  0.06230200  1
  O  O2  1  0.30130300  0.06712700  0.43769800  1
  O  O3  1  0.06712700  0.30130300  0.56230200  1
  F  F0  1  0.93971800  0.97407000  0.25000000  1
  F  F1  1  0.97407000  0.93971800  0.75000000  1
  F  F2  1  0.85768400  0.61714300  0.07079700  1
  F  F3  1  0.61714300  0.85768400  0.92920300  1
  F  F4  1  0.61714300  0.85768400  0.57079700  1
  F  F5  1  0.85768400  0.61714300  0.42920300  1
  F  F6  1  0.21146100  0.71469800  0.25000000  1
  F  F7  1  0.71469800  0.21146100  0.75000000  1
loop_
_geom_bond_atom_site_label_1
_geom_bond_atom_site_label_2
_geom_bond_distance
_geom_bond_site_symmetry_2
Mo0 O2 1.757317 1_565
Mo0 O1 1.757317 1_565
Mo1 O3 1.757317 1_655
Mo1 O0 1.757317 1_655
O0 Rb2 3.088781 1_456
O0 Rb0 3.097018 1_556
O0 Rb3 3.164688 1_555
O0 Rb1 3.460248 1_555
O1 Rb3 3.088781 1_544
O1 Rb1 3.097018 1_554
O1 Rb2 3.164688 1_555
O1 Rb0 3.460248 1_555
O2 Rb3 3.088781 1_545
O2 Rb1 3.097018 1_555
O2 Rb2 3.164688 1_555
O2 Rb0 3.460248 1_555
O3 Rb2 3.088781 1_455
O3 Rb0 3.097018 1_555
O3 Rb3 3.164688 1_555
O3 Rb1 3.460248 1_555
F0 Mo0 1.936783 1_655
F0 Rb0 2.890324 1_555
F0 Rb2 3.199478 1_565
F0 Rb0 3.376157 1_665
F1 Mo1 1.936783 1_565
F1 Rb1 2.890324 1_555
F1 Rb3 3.199478 1_655
F1 Rb1 3.376157 1_665
F2 Mo0 2.083996 1_655
F2 Rb1 2.904771 1_554
F2 Rb2 2.931798 1_555
F2 Rb3 3.242563 1_654
F2 Rb0 3.245181 1_555
F3 Mo1 2.083996 1_565
F3 Rb0 2.904771 1_556
F3 Rb3 2.931798 1_555
F3 Rb2 3.242563 1_566
F3 Rb1 3.245181 1_555
F4 Mo1 2.083996 1_565
F4 Rb0 2.904771 1_555
F4 Rb3 2.931798 1_555
F4 Rb2 3.242563 1_565
F4 Rb1 3.245181 1_555
F5 Mo0 2.083996 1_655
F5 Rb1 2.904771 1_555
F5 Rb2 2.931798 1_555
F5 Rb3 3.242563 1_655
F5 Rb0 3.245181 1_555
F6 Mo0 1.996545 1_555
F6 Rb0 2.884429 1_555
F6 Rb2 2.950924 1_455
F6 Rb2 3.232129 1_565
F7 Mo1 1.996545 1_555
F7 Rb1 2.884429 1_555
F7 Rb3 2.950924 1_545
F7 Rb3 3.232129 1_655
