# generated using pymatgen
data_Ba(YSe2)2
_symmetry_space_group_name_H-M   'P 1'
_cell_length_a   4.20570681
_cell_length_b   12.81914896
_cell_length_c   15.18759405
_cell_angle_alpha   90.00000000
_cell_angle_beta   90.00000000
_cell_angle_gamma   90.00000000
_symmetry_Int_Tables_number   1
_chemical_formula_structural   Ba(YSe2)2
_chemical_formula_sum   'Ba4 Y8 Se16'
_cell_volume   818.81759840
_cell_formula_units_Z   4
loop_
 _symmetry_equiv_pos_site_id
 _symmetry_equiv_pos_as_xyz
  1  'x, y, z'
loop_
 _atom_site_type_symbol
 _atom_site_label
 _atom_site_symmetry_multiplicity
 _atom_site_fract_x
 _atom_site_fract_y
 _atom_site_fract_z
 _atom_site_occupancy
  Ba  Ba0  1  0.25000000  0.24073161  0.33550458  1
  Ba  Ba1  1  0.25000000  0.74073161  0.16449542  1
  Ba  Ba2  1  0.75000000  0.75926839  0.66449542  1
  Ba  Ba3  1  0.75000000  0.25926839  0.83550458  1
  Y  Y0  1  0.25000000  0.07936159  0.59998821  1
  Y  Y1  1  0.25000000  0.57936159  0.90001179  1
  Y  Y2  1  0.75000000  0.92063841  0.40001179  1
  Y  Y3  1  0.75000000  0.42063841  0.09998821  1
  Y  Y4  1  0.25000000  0.56438934  0.39103412  1
  Y  Y5  1  0.25000000  0.06438934  0.10896588  1
  Y  Y6  1  0.75000000  0.43561066  0.60896588  1
  Y  Y7  1  0.75000000  0.93561066  0.89103412  1
  Se  Se0  1  0.25000000  0.08464386  0.92357951  1
  Se  Se1  1  0.25000000  0.58464386  0.57642049  1
  Se  Se2  1  0.75000000  0.91535614  0.07642049  1
  Se  Se3  1  0.75000000  0.41535614  0.42357951  1
  Se  Se4  1  0.25000000  0.29357159  0.66273989  1
  Se  Se5  1  0.25000000  0.79357159  0.83726011  1
  Se  Se6  1  0.75000000  0.70642841  0.33726011  1
  Se  Se7  1  0.75000000  0.20642841  0.16273989  1
  Se  Se8  1  0.25000000  0.37463753  0.97522828  1
  Se  Se9  1  0.25000000  0.87463753  0.52477172  1
  Se  Se10  1  0.75000000  0.62536247  0.02477172  1
  Se  Se11  1  0.75000000  0.12536247  0.47522828  1
  Se  Se12  1  0.25000000  0.47594341  0.21676742  1
  Se  Se13  1  0.25000000  0.97594341  0.28323258  1
  Se  Se14  1  0.75000000  0.52405659  0.78323258  1
  Se  Se15  1  0.75000000  0.02405659  0.71676742  1
loop_
_geom_bond_atom_site_label_1
_geom_bond_atom_site_label_2
_geom_bond_distance
_geom_bond_site_symmetry_2
Ba0 Se11 3.333528 1_455
Ba0 Se11 3.333528 1_555
Ba0 Se3 3.349976 1_555
Ba0 Se3 3.349976 1_455
Ba0 Se7 3.391181 1_455
Ba0 Se7 3.391181 1_555
Ba0 Se13 3.485962 1_545
Ba0 Se12 3.513336 1_555
Ba1 Se10 3.333528 1_455
Ba1 Se10 3.333528 1_555
Ba1 Se2 3.349976 1_555
Ba1 Se2 3.349976 1_455
Ba1 Se6 3.391181 1_555
Ba1 Se6 3.391181 1_455
Ba1 Se12 3.485962 1_555
Ba1 Se13 3.513336 1_555
Ba2 Se9 3.333528 1_555
Ba2 Se9 3.333528 1_655
Ba2 Se1 3.349976 1_655
Ba2 Se1 3.349976 1_555
Ba2 Se5 3.391181 1_555
Ba2 Se5 3.391181 1_655
Ba2 Se15 3.485962 1_565
Ba2 Se14 3.513336 1_555
Ba3 Se8 3.333528 1_655
Ba3 Se8 3.333528 1_555
Ba3 Se0 3.349976 1_655
Ba3 Se0 3.349976 1_555
Ba3 Se4 3.391181 1_655
Ba3 Se4 3.391181 1_555
Ba3 Se14 3.485962 1_555
Ba3 Se15 3.513336 1_555
Se0 Y5 2.827520 1_556
Se0 Y7 2.883789 1_445
Se0 Y7 2.883789 1_545
Se1 Y4 2.827520 1_555
Se1 Y6 2.883789 1_555
Se1 Y6 2.883789 1_455
Se2 Y7 2.827520 1_554
Se2 Y5 2.883789 1_665
Se2 Y5 2.883789 1_565
Se3 Y6 2.827520 1_555
Se3 Y4 2.883789 1_555
Se3 Y4 2.883789 1_655
Se4 Y6 2.899030 1_455
Se4 Y6 2.899030 1_555
Se4 Y0 2.906675 1_555
Se5 Y7 2.899030 1_455
Se5 Y7 2.899030 1_555
Se5 Y1 2.906675 1_555
Se6 Y4 2.899030 1_555
Se6 Y4 2.899030 1_655
Se6 Y2 2.906675 1_555
Se7 Y5 2.899030 1_655
Se7 Y5 2.899030 1_555
Se7 Y3 2.906675 1_555
Se8 Y1 2.862236 1_555
Se8 Y3 2.891368 1_456
Se8 Y3 2.891368 1_556
Se9 Y0 2.862236 1_565
Se9 Y2 2.891368 1_455
Se9 Y2 2.891368 1_555
Se10 Y3 2.862236 1_555
Se10 Y1 2.891368 1_654
Se10 Y1 2.891368 1_554
Se11 Y2 2.862236 1_545
Se11 Y0 2.891368 1_655
Se11 Y0 2.891368 1_555
Se12 Y3 2.840820 1_555
Se12 Y3 2.840820 1_455
Se12 Y4 2.879320 1_555
Se13 Y2 2.840820 1_455
Se13 Y2 2.840820 1_555
Se13 Y5 2.879320 1_565
Se14 Y1 2.840820 1_655
Se14 Y1 2.840820 1_555
Se14 Y6 2.879320 1_555
Se15 Y0 2.840820 1_555
Se15 Y0 2.840820 1_655
Se15 Y7 2.879320 1_545
