# generated using pymatgen
data_CuTeSe
_symmetry_space_group_name_H-M   'P 1'
_cell_length_a   6.40034300
_cell_length_b   6.40034300
_cell_length_c   6.40034300
_cell_angle_alpha   90.00000000
_cell_angle_beta   90.00000000
_cell_angle_gamma   90.00000000
_symmetry_Int_Tables_number   1
_chemical_formula_structural   CuTeSe
_chemical_formula_sum   'Cu4 Te4 Se4'
_cell_volume   262.18615010
_cell_formula_units_Z   4
loop_
 _symmetry_equiv_pos_site_id
 _symmetry_equiv_pos_as_xyz
  1  'x, y, z'
loop_
 _atom_site_type_symbol
 _atom_site_label
 _atom_site_symmetry_multiplicity
 _atom_site_fract_x
 _atom_site_fract_y
 _atom_site_fract_z
 _atom_site_occupancy
  Cu  Cu0  1  0.51016000  0.48984000  0.98984000  1
  Cu  Cu1  1  0.48984000  0.98984000  0.51016000  1
  Cu  Cu2  1  0.98984000  0.51016000  0.48984000  1
  Cu  Cu3  1  0.01016000  0.01016000  0.01016000  1
  Te  Te0  1  0.87990100  0.12009900  0.62009900  1
  Te  Te1  1  0.12009900  0.62009900  0.87990100  1
  Te  Te2  1  0.62009900  0.87990100  0.12009900  1
  Te  Te3  1  0.37990100  0.37990100  0.37990100  1
  Se  Se0  1  0.11642900  0.88357100  0.38357100  1
  Se  Se1  1  0.88357100  0.38357100  0.11642900  1
  Se  Se2  1  0.38357100  0.11642900  0.88357100  1
  Se  Se3  1  0.61642900  0.61642900  0.61642900  1
loop_
_geom_bond_atom_site_label_1
_geom_bond_atom_site_label_2
_geom_bond_distance
_geom_bond_site_symmetry_2
Cu0 Se1 2.613611 1_556
Cu0 Se3 2.613611 1_555
Cu0 Se2 2.613611 1_555
Cu0 Te2 2.724484 1_556
Cu0 Te3 2.724484 1_556
Cu0 Te1 2.724484 1_555
Cu1 Se2 2.613611 1_565
Cu1 Se3 2.613611 1_555
Cu1 Se0 2.613611 1_555
Cu1 Te0 2.724484 1_565
Cu1 Te3 2.724484 1_565
Cu1 Te2 2.724484 1_555
Cu2 Se0 2.613611 1_655
Cu2 Se3 2.613611 1_555
Cu2 Se1 2.613611 1_555
Cu2 Te1 2.724484 1_655
Cu2 Te3 2.724484 1_655
Cu2 Te0 2.724484 1_555
Cu3 Se0 2.613611 1_545
Cu3 Se2 2.613611 1_554
Cu3 Se1 2.613611 1_455
Cu3 Te0 2.724484 1_454
Cu3 Te1 2.724484 1_544
Cu3 Te2 2.724484 1_445
Se0 Te0 2.622083 1_465
Se1 Te1 2.622083 1_654
Se2 Te2 2.622083 1_546
Se3 Te3 2.622083 1_555
