# generated using pymatgen
data_MgCoP2O7
_symmetry_space_group_name_H-M   'P 1'
_cell_length_a   7.08005464
_cell_length_b   9.56310237
_cell_length_c   8.32543215
_cell_angle_alpha   100.64048564
_cell_angle_beta   82.03824264
_cell_angle_gamma   109.05040826
_symmetry_Int_Tables_number   1
_chemical_formula_structural   MgCoP2O7
_chemical_formula_sum   'Mg4 Co4 P8 O28'
_cell_volume   521.79751455
_cell_formula_units_Z   4
loop_
 _symmetry_equiv_pos_site_id
 _symmetry_equiv_pos_as_xyz
  1  'x, y, z'
loop_
 _atom_site_type_symbol
 _atom_site_label
 _atom_site_symmetry_multiplicity
 _atom_site_fract_x
 _atom_site_fract_y
 _atom_site_fract_z
 _atom_site_occupancy
  Mg  Mg0  1  0.68736600  0.57193900  0.73343600  1
  Mg  Mg1  1  0.18763400  0.07139500  0.23367300  1
  Mg  Mg2  1  0.31213400  0.42786300  0.26642200  1
  Mg  Mg3  1  0.81257100  0.92846500  0.76611600  1
  Co  Co0  1  0.69671100  0.88534700  0.19909300  1
  Co  Co1  1  0.80341700  0.61554000  0.29989900  1
  Co  Co2  1  0.19689900  0.38435800  0.70001500  1
  Co  Co3  1  0.30378800  0.11503600  0.79981300  1
  P  P0  1  0.96129400  0.20380800  0.02628100  1
  P  P1  1  0.46158200  0.70396900  0.52638100  1
  P  P2  1  0.03843100  0.79617500  0.97391200  1
  P  P3  1  0.53882100  0.29600400  0.47343300  1
  P  P4  1  0.33312000  0.63866600  0.00408900  1
  P  P5  1  0.83420200  0.13898900  0.50366300  1
  P  P6  1  0.66637900  0.36130300  0.99600200  1
  P  P7  1  0.16631000  0.86090400  0.49624300  1
  O  O0  1  0.16239000  0.68014400  0.92506600  1
  O  O1  1  0.66397900  0.18072600  0.42422000  1
  O  O2  1  0.83702700  0.31969700  0.07506700  1
  O  O3  1  0.33648800  0.81938900  0.57606600  1
  O  O4  1  0.81719400  0.04204600  0.01021600  1
  O  O5  1  0.31843400  0.54197100  0.51004300  1
  O  O6  1  0.18220500  0.95793800  0.98981000  1
  O  O7  1  0.68184400  0.45803300  0.48992500  1
  O  O8  1  0.76801400  0.43638200  0.84801500  1
  O  O9  1  0.26831500  0.93589200  0.34832300  1
  O  O10  1  0.23148700  0.56322600  0.15183900  1
  O  O11  1  0.73232800  0.06438600  0.65190300  1
  O  O12  1  0.60771000  0.47090400  0.14242700  1
  O  O13  1  0.10731400  0.97072100  0.64231900  1
  O  O14  1  0.39228200  0.52950300  0.85744600  1
  O  O15  1  0.89282200  0.02909300  0.35768200  1
  O  O16  1  0.89756300  0.75989000  0.83776900  1
  O  O17  1  0.39847000  0.25950800  0.33682800  1
  O  O18  1  0.10160500  0.23987600  0.16276000  1
  O  O19  1  0.60197200  0.74046300  0.66301800  1
  O  O20  1  0.91718300  0.77167100  0.14083600  1
  O  O21  1  0.41705100  0.27063700  0.63999500  1
  O  O22  1  0.08294700  0.22842200  0.85959300  1
  O  O23  1  0.58337400  0.72945700  0.35995000  1
  O  O24  1  0.49249500  0.21844000  0.96635300  1
  O  O25  1  0.99272500  0.71783000  0.46625800  1
  O  O26  1  0.50613000  0.78192800  0.03436500  1
  O  O27  1  0.00798900  0.28206400  0.53343800  1
loop_
_geom_bond_atom_site_label_1
_geom_bond_atom_site_label_2
_geom_bond_distance
_geom_bond_site_symmetry_2
Mg0 O8 2.001817 1_555
Mg0 O16 2.057975 1_555
Mg0 O19 2.095162 1_555
Mg0 O7 2.115845 1_555
Mg0 O14 2.144560 1_555
Mg1 O9 2.001896 1_545
Mg1 O17 2.057574 1_555
Mg1 O18 2.099295 1_555
Mg1 O6 2.116975 1_544
Mg1 O15 2.142979 1_455
Mg2 O10 2.000297 1_555
Mg2 O18 2.057326 1_555
Mg2 O17 2.097503 1_555
Mg2 O5 2.117193 1_555
Mg2 O12 2.147234 1_555
Mg3 O11 2.001157 1_565
Mg3 O19 2.055974 1_555
Mg3 O16 2.098733 1_555
Mg3 O4 2.119177 1_566
Mg3 O13 2.141911 1_655
Co0 O26 1.954539 1_555
Co0 O15 2.037745 1_565
Co0 O23 2.078099 1_555
Co0 O20 2.134687 1_555
Co0 O4 2.260551 1_565
Co1 O25 1.956941 1_555
Co1 O12 2.033304 1_555
Co1 O20 2.069158 1_555
Co1 O23 2.134215 1_555
Co1 O7 2.273540 1_555
Co2 O27 1.956492 1_555
Co2 O14 2.033494 1_555
Co2 O22 2.071003 1_555
Co2 O21 2.133550 1_555
Co2 O5 2.273855 1_555
Co3 O24 1.956965 1_555
Co3 O13 2.035368 1_545
Co3 O21 2.069850 1_555
Co3 O22 2.135437 1_555
Co3 O6 2.270751 1_545
O0 P2 1.592822 1_555
O0 P4 1.637373 1_556
O1 P3 1.593341 1_555
O1 P5 1.637546 1_555
O2 P0 1.593292 1_555
O2 P6 1.637741 1_554
O3 P1 1.594334 1_555
O3 P7 1.637829 1_555
O4 P0 1.543673 1_555
O5 P1 1.543084 1_555
O6 P2 1.542894 1_555
O7 P3 1.543004 1_555
O8 P6 1.514950 1_555
O9 P7 1.514623 1_555
O10 P4 1.514923 1_555
O11 P5 1.514934 1_555
O12 P6 1.558613 1_554
O13 P7 1.558962 1_555
O14 P4 1.558491 1_556
O15 P5 1.557930 1_555
O16 P2 1.530302 1_655
O17 P3 1.530609 1_555
O18 P0 1.530089 1_455
O19 P1 1.531010 1_555
O20 P2 1.543243 1_654
O21 P3 1.543236 1_555
O22 P0 1.542813 1_456
O23 P1 1.542532 1_555
O24 P6 1.518144 1_555
O25 P7 1.518532 1_655
O26 P4 1.517707 1_555
O27 P5 1.519116 1_455
