# generated using pymatgen
data_BaTaNO2
_symmetry_space_group_name_H-M   'P 1'
_cell_length_a   4.13410500
_cell_length_b   4.13410500
_cell_length_c   4.14312500
_cell_angle_alpha   90.00000000
_cell_angle_beta   90.00000000
_cell_angle_gamma   90.00000000
_symmetry_Int_Tables_number   1
_chemical_formula_structural   BaTaNO2
_chemical_formula_sum   'Ba1 Ta1 N1 O2'
_cell_volume   70.80942081
_cell_formula_units_Z   1
loop_
 _symmetry_equiv_pos_site_id
 _symmetry_equiv_pos_as_xyz
  1  'x, y, z'
loop_
 _atom_site_type_symbol
 _atom_site_label
 _atom_site_symmetry_multiplicity
 _atom_site_fract_x
 _atom_site_fract_y
 _atom_site_fract_z
 _atom_site_occupancy
  Ba  Ba0  1  0.00000000  0.00000000  0.00000000  1
  Ta  Ta0  1  0.50000000  0.50000000  0.50000000  1
  N  N0  1  0.50000000  0.50000000  0.00000000  1
  O  O0  1  0.50000000  0.00000000  0.50000000  1
  O  O1  1  0.00000000  0.50000000  0.50000000  1
loop_
_geom_bond_atom_site_label_1
_geom_bond_atom_site_label_2
_geom_bond_distance
_geom_bond_site_symmetry_2
Ba0 N0 2.923254 1_445
Ba0 N0 2.923254 1_555
Ba0 N0 2.923254 1_545
Ba0 N0 2.923254 1_455
Ba0 O1 2.926444 1_545
Ba0 O0 2.926444 1_555
Ba0 O0 2.926444 1_454
Ba0 O0 2.926444 1_554
Ba0 O1 2.926444 1_555
Ba0 O1 2.926444 1_554
Ba0 O1 2.926444 1_544
Ba0 O0 2.926444 1_455
N0 Ta0 2.071563 1_555
N0 Ta0 2.071563 1_554
O0 Ta0 2.067052 1_555
O0 Ta0 2.067052 1_545
O1 Ta0 2.067052 1_455
O1 Ta0 2.067052 1_555
