# generated using pymatgen
data_RbTmBeF6
_symmetry_space_group_name_H-M   'P 1'
_cell_length_a   5.82803900
_cell_length_b   6.51286800
_cell_length_c   7.13314943
_cell_angle_alpha   66.26119988
_cell_angle_beta   90.00000000
_cell_angle_gamma   90.00000000
_symmetry_Int_Tables_number   1
_chemical_formula_structural   RbTmBeF6
_chemical_formula_sum   'Rb2 Tm2 Be2 F12'
_cell_volume   247.84622051
_cell_formula_units_Z   2
loop_
 _symmetry_equiv_pos_site_id
 _symmetry_equiv_pos_as_xyz
  1  'x, y, z'
loop_
 _atom_site_type_symbol
 _atom_site_label
 _atom_site_symmetry_multiplicity
 _atom_site_fract_x
 _atom_site_fract_y
 _atom_site_fract_z
 _atom_site_occupancy
  Rb  Rb0  1  0.25000000  0.07702900  0.79008600  1
  Rb  Rb1  1  0.75000000  0.92297100  0.20991400  1
  Tm  Tm0  1  0.25000000  0.39132100  0.17874800  1
  Tm  Tm1  1  0.75000000  0.60867900  0.82125200  1
  Be  Be0  1  0.25000000  0.76563500  0.46493900  1
  Be  Be1  1  0.75000000  0.23436500  0.53506100  1
  F  F0  1  0.46731600  0.75947600  0.59769200  1
  F  F1  1  0.53268400  0.24052400  0.40230800  1
  F  F2  1  0.96731600  0.24052400  0.40230800  1
  F  F3  1  0.03268400  0.75947600  0.59769200  1
  F  F4  1  0.25000000  0.56603500  0.39932900  1
  F  F5  1  0.75000000  0.43396500  0.60067100  1
  F  F6  1  0.49927000  0.67173200  0.03251200  1
  F  F7  1  0.50073000  0.32826800  0.96748800  1
  F  F8  1  0.99927000  0.32826800  0.96748800  1
  F  F9  1  0.00073000  0.67173200  0.03251200  1
  F  F10  1  0.25000000  0.99409800  0.26861700  1
  F  F11  1  0.75000000  0.00590200  0.73138300  1
loop_
_geom_bond_atom_site_label_1
_geom_bond_atom_site_label_2
_geom_bond_distance
_geom_bond_site_symmetry_2
Be0 F4 1.548802 1_555
Be0 F0 1.572203 1_555
Be0 F3 1.572203 1_555
Be0 F10 1.580324 1_555
Be1 F5 1.548802 1_555
Be1 F2 1.572203 1_555
Be1 F1 1.572203 1_555
Be1 F11 1.580324 1_555
F0 Tm1 2.227294 1_555
F0 Rb1 3.021231 1_555
F0 Rb0 3.170190 1_565
F1 Tm0 2.227294 1_555
F1 Rb0 3.021231 1_555
F1 Rb1 3.170190 1_545
F2 Tm0 2.227294 1_655
F2 Rb0 3.021231 1_655
F2 Rb1 3.170190 1_545
F3 Tm1 2.227294 1_455
F3 Rb1 3.021231 1_455
F3 Rb0 3.170190 1_565
F4 Tm0 2.282982 1_555
F4 Rb0 3.281010 1_555
F5 Tm1 2.282982 1_555
F5 Rb1 3.281010 1_555
F6 Tm0 2.236088 1_555
F6 Tm1 2.252349 1_554
F6 Rb1 2.842741 1_555
F6 Rb0 2.897140 1_564
F7 Tm1 2.236088 1_555
F7 Tm0 2.252349 1_556
F7 Rb0 2.842741 1_555
F7 Rb1 2.897140 1_546
F8 Tm1 2.236088 1_555
F8 Tm0 2.252349 1_656
F8 Rb0 2.842741 1_655
F8 Rb1 2.897140 1_546
F9 Tm0 2.236088 1_555
F9 Tm1 2.252349 1_454
F9 Rb1 2.842741 1_455
F9 Rb0 2.897140 1_564
F10 Tm0 2.401784 1_565
F10 Rb1 3.006263 1_455
F10 Rb1 3.006263 1_555
F10 Rb0 3.234016 1_564
F11 Tm1 2.401784 1_545
F11 Rb0 3.006263 1_655
F11 Rb0 3.006263 1_555
F11 Rb1 3.234016 1_546
