# generated using pymatgen
data_SrPrAl3O7
_symmetry_space_group_name_H-M   'P 1'
_cell_length_a   7.92959878
_cell_length_b   7.92959878
_cell_length_c   5.25756400
_cell_angle_alpha   90.00000000
_cell_angle_beta   90.00000000
_cell_angle_gamma   90.05161356
_symmetry_Int_Tables_number   1
_chemical_formula_structural   SrPrAl3O7
_chemical_formula_sum   'Sr2 Pr2 Al6 O14'
_cell_volume   330.58779730
_cell_formula_units_Z   2
loop_
 _symmetry_equiv_pos_site_id
 _symmetry_equiv_pos_as_xyz
  1  'x, y, z'
loop_
 _atom_site_type_symbol
 _atom_site_label
 _atom_site_symmetry_multiplicity
 _atom_site_fract_x
 _atom_site_fract_y
 _atom_site_fract_z
 _atom_site_occupancy
  Sr  Sr0  1  0.16147800  0.83852100  0.48967000  1
  Sr  Sr1  1  0.83852100  0.16147900  0.48967000  1
  Pr  Pr0  1  0.66284100  0.66284100  0.51145500  1
  Pr  Pr1  1  0.33715900  0.33715900  0.51145500  1
  Al  Al0  1  0.35851900  0.64148100  0.03943700  1
  Al  Al1  1  0.85578900  0.85578900  0.96104500  1
  Al  Al2  1  0.64148100  0.35851900  0.03943700  1
  Al  Al3  1  0.14421100  0.14421100  0.96104500  1
  Al  Al4  1  0.50000000  0.00000000  0.99879200  1
  Al  Al5  1  0.00000000  0.50000000  0.99879200  1
  O  O0  1  0.36876300  0.63123700  0.70692100  1
  O  O1  1  0.84868600  0.84868600  0.29167000  1
  O  O2  1  0.63123700  0.36876300  0.70692100  1
  O  O3  1  0.15131400  0.15131400  0.29167000  1
  O  O4  1  0.00000000  0.00000000  0.83389800  1
  O  O5  1  0.50000000  0.50000000  0.19139400  1
  O  O6  1  0.41905100  0.83355300  0.18809200  1
  O  O7  1  0.90837000  0.66109200  0.80609000  1
  O  O8  1  0.58094900  0.16644700  0.18809200  1
  O  O9  1  0.09163000  0.33890800  0.80609000  1
  O  O10  1  0.33890800  0.09163000  0.80609000  1
  O  O11  1  0.83355300  0.41905100  0.18809200  1
  O  O12  1  0.66109200  0.90837000  0.80609000  1
  O  O13  1  0.16644700  0.58094900  0.18809200  1
loop_
_geom_bond_atom_site_label_1
_geom_bond_atom_site_label_2
_geom_bond_distance
_geom_bond_site_symmetry_2
Al0 O0 1.751998 1_554
Al0 O5 1.777023 1_555
Al0 O6 1.777530 1_555
Al0 O13 1.777530 1_555
Al1 O1 1.740105 1_556
Al1 O4 1.749246 1_665
Al1 O7 1.795062 1_555
Al1 O12 1.795062 1_555
Al2 O2 1.751998 1_554
Al2 O5 1.777023 1_555
Al2 O11 1.777530 1_555
Al2 O8 1.777530 1_555
Al3 O3 1.740105 1_556
Al3 O4 1.749246 1_555
Al3 O10 1.795062 1_555
Al3 O9 1.795062 1_555
Al4 O8 1.772868 1_556
Al4 O6 1.772868 1_546
Al4 O12 1.785441 1_545
Al4 O10 1.785441 1_555
Al5 O13 1.772868 1_556
Al5 O11 1.772868 1_456
Al5 O7 1.785441 1_455
Al5 O9 1.785441 1_555
O0 Pr1 2.560414 1_555
O0 Pr0 2.560414 1_555
O0 Sr0 2.590927 1_555
O1 Pr0 2.382182 1_555
O1 Sr0 2.691189 1_655
O1 Sr1 2.691196 1_565
O2 Pr1 2.560414 1_555
O2 Pr0 2.560414 1_555
O2 Sr1 2.590922 1_555
O3 Pr1 2.382182 1_555
O3 Sr0 2.691196 1_545
O3 Sr1 2.691196 1_455
O4 Sr0 2.560759 1_545
O4 Sr1 2.560763 1_455
O5 Pr1 2.482607 1_555
O5 Pr0 2.482607 1_555
O6 Sr0 2.585985 1_555
O6 Pr0 2.909398 1_555
O7 Pr0 2.488059 1_555
O7 Sr0 2.961450 1_655
O8 Sr1 2.585979 1_555
O8 Pr1 2.909398 1_555
O9 Pr1 2.488059 1_555
O9 Sr1 2.961455 1_455
O10 Pr1 2.488059 1_555
O10 Sr0 2.961459 1_545
O11 Sr1 2.585979 1_555
O11 Pr0 2.909398 1_555
O12 Pr0 2.488059 1_555
O12 Sr1 2.961455 1_565
O13 Sr0 2.585979 1_555
O13 Pr1 2.909398 1_555
