# generated using pymatgen
data_Zr9BW4
_symmetry_space_group_name_H-M   'P 1'
_cell_length_a   12.25141558
_cell_length_b   12.25141558
_cell_length_c   15.00431800
_cell_angle_alpha   90.00000000
_cell_angle_beta   90.00000000
_cell_angle_gamma   119.99999772
_symmetry_Int_Tables_number   1
_chemical_formula_structural   Zr9BW4
_chemical_formula_sum   'Zr54 B6 W24'
_cell_volume   1950.38094402
_cell_formula_units_Z   6
loop_
 _symmetry_equiv_pos_site_id
 _symmetry_equiv_pos_as_xyz
  1  'x, y, z'
loop_
 _atom_site_type_symbol
 _atom_site_label
 _atom_site_symmetry_multiplicity
 _atom_site_fract_x
 _atom_site_fract_y
 _atom_site_fract_z
 _atom_site_occupancy
  Zr  Zr0  1  0.72123100  0.03664500  0.48167800  1
  Zr  Zr1  1  0.38789800  0.36997800  0.81501100  1
  Zr  Zr2  1  0.05456400  0.70331200  0.14834400  1
  Zr  Zr3  1  0.85165600  0.90622000  0.35125300  1
  Zr  Zr4  1  0.51832200  0.23955400  0.68458600  1
  Zr  Zr5  1  0.18498900  0.57288700  0.01792000  1
  Zr  Zr6  1  0.98208000  0.16707000  0.61210200  1
  Zr  Zr7  1  0.64874700  0.50040300  0.94543600  1
  Zr  Zr8  1  0.31541400  0.83373600  0.27876900  1
  Zr  Zr9  1  0.27876900  0.96335500  0.51832200  1
  Zr  Zr10  1  0.94543600  0.29668800  0.85165600  1
  Zr  Zr11  1  0.61210200  0.63002200  0.18498900  1
  Zr  Zr12  1  0.14834400  0.09378000  0.64874700  1
  Zr  Zr13  1  0.81501100  0.42711300  0.98208000  1
  Zr  Zr14  1  0.48167800  0.76044600  0.31541400  1
  Zr  Zr15  1  0.01792000  0.83293000  0.38789800  1
  Zr  Zr16  1  0.68458600  0.16626400  0.72123100  1
  Zr  Zr17  1  0.35125300  0.49959700  0.05456400  1
  Zr  Zr18  1  0.14874700  0.70331200  0.64834400  1
  Zr  Zr19  1  0.81541400  0.03664500  0.98167800  1
  Zr  Zr20  1  0.48208000  0.36997800  0.31501100  1
  Zr  Zr21  1  0.01832200  0.83373600  0.77876900  1
  Zr  Zr22  1  0.68498900  0.16707000  0.11210200  1
  Zr  Zr23  1  0.35165600  0.50040300  0.44543600  1
  Zr  Zr24  1  0.88789800  0.57288700  0.51792000  1
  Zr  Zr25  1  0.55456400  0.90622000  0.85125300  1
  Zr  Zr26  1  0.22123100  0.23955400  0.18458600  1
  Zr  Zr27  1  0.85125300  0.29668800  0.35165600  1
  Zr  Zr28  1  0.51792000  0.63002200  0.68498900  1
  Zr  Zr29  1  0.18458600  0.96335500  0.01832200  1
  Zr  Zr30  1  0.98167800  0.16626400  0.22123100  1
  Zr  Zr31  1  0.64834400  0.49959700  0.55456400  1
  Zr  Zr32  1  0.31501100  0.83293000  0.88789800  1
  Zr  Zr33  1  0.11210200  0.42711300  0.48208000  1
  Zr  Zr34  1  0.77876900  0.76044600  0.81541400  1
  Zr  Zr35  1  0.44543600  0.09378000  0.14874700  1
  Zr  Zr36  1  0.12117600  0.16666700  0.41666700  1
  Zr  Zr37  1  0.78784200  0.50000000  0.75000000  1
  Zr  Zr38  1  0.45450900  0.83333300  0.08333300  1
  Zr  Zr39  1  0.25000000  0.03784200  0.28784200  1
  Zr  Zr40  1  0.91666700  0.37117600  0.62117600  1
  Zr  Zr41  1  0.58333300  0.70450900  0.95450900  1
  Zr  Zr42  1  0.37882400  0.29549100  0.54549100  1
  Zr  Zr43  1  0.04549100  0.62882400  0.87882400  1
  Zr  Zr44  1  0.71215800  0.96215800  0.21215800  1
  Zr  Zr45  1  0.87882400  0.83333300  0.58333300  1
  Zr  Zr46  1  0.54549100  0.16666700  0.91666700  1
  Zr  Zr47  1  0.21215800  0.50000000  0.25000000  1
  Zr  Zr48  1  0.75000000  0.96215800  0.71215800  1
  Zr  Zr49  1  0.41666700  0.29549100  0.04549100  1
  Zr  Zr50  1  0.08333300  0.62882400  0.37882400  1
  Zr  Zr51  1  0.62117600  0.70450900  0.45450900  1
  Zr  Zr52  1  0.28784200  0.03784200  0.78784200  1
  Zr  Zr53  1  0.95450900  0.37117600  0.12117600  1
  B  B0  1  0.91666700  0.16666700  0.41666700  1
  B  B1  1  0.58333300  0.50000000  0.75000000  1
  B  B2  1  0.25000000  0.83333300  0.08333300  1
  B  B3  1  0.08333300  0.83333300  0.58333300  1
  B  B4  1  0.75000000  0.16666700  0.91666700  1
  B  B5  1  0.41666700  0.50000000  0.25000000  1
  W  W0  1  0.47392000  0.16666700  0.41666700  1
  W  W1  1  0.14058700  0.50000000  0.75000000  1
  W  W2  1  0.80725400  0.83333300  0.08333300  1
  W  W3  1  0.25000000  0.39058700  0.64058700  1
  W  W4  1  0.91666700  0.72392000  0.97392000  1
  W  W5  1  0.58333300  0.05725400  0.30725400  1
  W  W6  1  0.02608000  0.94274600  0.19274600  1
  W  W7  1  0.69274600  0.27608000  0.52608000  1
  W  W8  1  0.35941300  0.60941300  0.85941300  1
  W  W9  1  0.52608000  0.83333300  0.58333300  1
  W  W10  1  0.19274600  0.16666700  0.91666700  1
  W  W11  1  0.85941300  0.50000000  0.25000000  1
  W  W12  1  0.75000000  0.60941300  0.35941300  1
  W  W13  1  0.41666700  0.94274600  0.69274600  1
  W  W14  1  0.08333300  0.27608000  0.02608000  1
  W  W15  1  0.97392000  0.05725400  0.80725400  1
  W  W16  1  0.64058700  0.39058700  0.14058700  1
  W  W17  1  0.30725400  0.72392000  0.47392000  1
  W  W18  1  0.83333300  0.66666700  0.16666700  1
  W  W19  1  0.50000000  0.00000000  0.50000000  1
  W  W20  1  0.16666700  0.33333300  0.83333300  1
  W  W21  1  0.00000000  0.00000000  0.00000000  1
  W  W22  1  0.66666700  0.33333300  0.33333300  1
  W  W23  1  0.33333300  0.66666700  0.66666700  1
loop_
_geom_bond_atom_site_label_1
_geom_bond_atom_site_label_2
_geom_bond_distance
_geom_bond_site_symmetry_2
Zr3 Zr44 2.986206 1_555
Zr3 Zr51 3.082627 1_555
Zr4 Zr42 2.986200 1_555
Zr4 Zr52 3.082631 1_555
Zr5 Zr53 3.082627 1_455
Zr12 Zr6 2.662105 1_455
Zr12 Zr52 2.986206 1_555
Zr12 Zr42 3.082627 1_555
Zr13 Zr7 2.662102 1_555
Zr13 Zr53 2.986210 1_556
Zr13 Zr43 3.082627 1_655
Zr14 Zr8 2.662105 1_555
Zr14 Zr51 2.986200 1_555
Zr14 Zr44 3.082631 1_555
Zr15 Zr3 2.662105 1_455
Zr15 Zr50 2.986251 1_555
Zr15 Zr39 3.082633 1_565
Zr16 Zr4 2.662105 1_555
Zr16 Zr48 2.986259 1_545
Zr16 Zr40 3.082632 1_555
Zr17 Zr5 2.662102 1_555
Zr17 Zr49 2.986259 1_555
Zr17 Zr41 3.082625 1_554
Zr21 Zr34 2.662094 1_455
Zr21 Zr52 2.986259 1_565
Zr21 Zr43 3.082631 1_555
Zr22 Zr35 2.662094 1_555
Zr22 Zr53 2.986259 1_555
Zr22 Zr44 3.082639 1_545
Zr23 Zr33 2.662102 1_555
Zr23 Zr51 2.986259 1_555
Zr23 Zr42 3.082625 1_555
Zr24 Zr31 2.662102 1_555
Zr24 Zr50 2.986211 1_655
Zr24 Zr40 3.082627 1_555
Zr25 Zr32 2.662094 1_555
Zr25 Zr48 2.986206 1_555
Zr25 Zr41 3.082627 1_555
Zr26 Zr30 2.662094 1_455
Zr26 Zr49 2.986208 1_555
Zr26 Zr39 3.082637 1_555
Zr30 Zr44 2.986259 1_545
Zr30 Zr53 3.082631 1_555
Zr31 Zr42 2.986259 1_555
Zr31 Zr51 3.082625 1_555
Zr32 Zr43 2.986259 1_555
Zr32 Zr52 3.082639 1_565
Zr33 Zr40 2.986211 1_455
Zr33 Zr50 3.082627 1_555
Zr34 Zr41 2.986208 1_555
Zr34 Zr48 3.082637 1_555
Zr35 Zr39 2.986206 1_555
Zr35 Zr49 3.082627 1_555
Zr39 Zr8 2.986259 1_545
Zr40 Zr6 2.986251 1_555
Zr41 Zr7 2.986259 1_555
Zr43 Zr5 2.986210 1_556
Zr48 Zr6 3.082633 1_565
Zr49 Zr7 3.082625 1_554
Zr50 Zr8 3.082632 1_555
B0 Zr27 2.325473 1_555
B0 Zr0 2.325484 1_555
B0 Zr36 2.505525 1_655
B0 Zr6 3.039260 1_555
B0 Zr30 3.039277 1_555
B0 Zr33 3.039352 1_655
B0 Zr3 3.039368 1_545
B1 Zr28 2.325475 1_555
B1 Zr1 2.325476 1_555
B1 Zr37 2.505525 1_555
B1 Zr31 3.039277 1_555
B1 Zr7 3.039277 1_555
B1 Zr4 3.039357 1_555
B1 Zr34 3.039360 1_555
B2 Zr2 2.325482 1_555
B2 Zr29 2.325484 1_555
B2 Zr38 2.505525 1_555
B2 Zr32 3.039263 1_554
B2 Zr8 3.039277 1_555
B2 Zr5 3.039352 1_555
B2 Zr35 3.039368 1_565
B3 Zr18 2.325473 1_555
B3 Zr9 2.325484 1_555
B3 Zr45 2.505525 1_455
B3 Zr15 3.039260 1_555
B3 Zr21 3.039277 1_555
B3 Zr24 3.039352 1_455
B3 Zr12 3.039368 1_565
B4 Zr10 2.325482 1_555
B4 Zr19 2.325484 1_555
B4 Zr46 2.505525 1_555
B4 Zr22 3.039263 1_556
B4 Zr16 3.039277 1_555
B4 Zr13 3.039352 1_555
B4 Zr25 3.039368 1_545
B5 Zr20 2.325475 1_555
B5 Zr11 2.325476 1_555
B5 Zr47 2.505525 1_555
B5 Zr23 3.039277 1_555
B5 Zr17 3.039277 1_555
B5 Zr14 3.039357 1_555
B5 Zr26 3.039360 1_555
W0 W19 2.547015 1_555
W0 W22 2.547018 1_555
W0 W5 2.843520 1_555
W0 W7 2.843520 1_555
W0 Zr9 2.879542 1_545
W0 Zr20 2.879545 1_555
W0 Zr42 3.069735 1_555
W0 Zr39 3.069746 1_555
W1 W23 2.547009 1_555
W1 W20 2.547015 1_555
W1 W3 2.843520 1_555
W1 W8 2.843520 1_555
W1 Zr10 2.879550 1_455
W1 Zr18 2.879555 1_555
W1 Zr43 3.069735 1_555
W1 Zr40 3.069735 1_455
W2 W21 2.547009 1_665
W2 W4 2.843520 1_554
W2 W6 2.843520 1_655
W2 Zr19 2.879547 1_564
W2 Zr11 2.879550 1_555
W2 Zr41 3.069743 1_554
W2 Zr44 3.069753 1_555
W3 Zr42 2.779031 1_555
W3 Zr33 3.076810 1_555
W3 Zr6 3.076870 1_455
W3 Zr1 3.192777 1_555
W3 Zr28 3.192850 1_555
W3 Zr23 3.203032 1_555
W3 Zr12 3.203130 1_555
W4 Zr43 2.779031 1_655
W4 Zr34 3.076798 1_555
W4 Zr7 3.076867 1_555
W4 Zr2 3.192766 1_656
W4 Zr29 3.192843 1_656
W4 Zr21 3.203030 1_655
W4 Zr13 3.203130 1_555
W5 Zr44 2.779040 1_545
W5 Zr35 3.076802 1_555
W5 Zr8 3.076866 1_545
W5 Zr0 3.192777 1_555
W5 Zr27 3.192845 1_555
W5 Zr22 3.203045 1_555
W5 Zr14 3.203144 1_545
W6 Zr39 2.779031 1_565
W6 Zr3 3.076810 1_455
W6 Zr30 3.076874 1_465
W6 Zr29 3.192770 1_555
W6 Zr2 3.192831 1_555
W6 Zr15 3.203045 1_555
W6 Zr26 3.203140 1_565
W7 Zr40 2.779040 1_555
W7 Zr4 3.076798 1_555
W7 Zr31 3.076860 1_555
W7 Zr27 3.192780 1_555
W7 Zr0 3.192849 1_555
W7 Zr16 3.203032 1_555
W7 Zr24 3.203132 1_555
W8 Zr41 2.779031 1_555
W8 Zr5 3.076810 1_556
W8 Zr32 3.076862 1_555
W8 Zr28 3.192777 1_555
W8 Zr1 3.192849 1_555
W8 Zr17 3.203032 1_556
W8 Zr25 3.203130 1_555
W9 Zr0 2.879542 1_565
W9 Zr28 2.879545 1_555
W9 Zr51 3.069735 1_555
W9 Zr48 3.069746 1_555
W10 W20 2.547005 1_555
W10 W21 2.547009 1_556
W10 W14 2.843520 1_556
W10 W15 2.843520 1_455
W10 Zr29 2.879547 1_546
W10 Zr1 2.879550 1_555
W10 Zr49 3.069743 1_556
W10 Zr52 3.069753 1_555
W11 W22 2.547009 1_555
W11 W18 2.547015 1_555
W11 W12 2.843520 1_555
W11 W16 2.843520 1_555
W11 Zr2 2.879550 1_655
W11 Zr27 2.879555 1_555
W11 Zr53 3.069735 1_555
W11 Zr50 3.069735 1_655
W12 Zr51 2.779031 1_555
W12 W18 3.030183 1_555
W12 W22 3.030292 1_555
W12 Zr24 3.076810 1_555
W12 Zr15 3.076870 1_655
W12 Zr11 3.192777 1_555
W12 Zr20 3.192850 1_555
W12 Zr31 3.203032 1_555
W12 Zr3 3.203130 1_555
W13 Zr52 2.779040 1_565
W13 W9 2.843520 1_555
W13 W19 3.030183 1_565
W13 W23 3.030276 1_555
W13 Zr25 3.076802 1_555
W13 Zr16 3.076866 1_565
W13 Zr9 3.192777 1_555
W13 Zr18 3.192845 1_555
W13 Zr32 3.203045 1_555
W13 Zr4 3.203144 1_565
W14 Zr53 2.779031 1_455
W14 W20 3.030200 1_554
W14 W21 3.030292 1_555
W14 Zr26 3.076798 1_555
W14 Zr17 3.076867 1_555
W14 Zr10 3.192766 1_454
W14 Zr19 3.192843 1_454
W14 Zr30 3.203030 1_455
W14 Zr5 3.203130 1_555
W15 Zr48 2.779031 1_545
W15 W21 3.030186 1_656
W15 W20 3.030281 1_655
W15 Zr12 3.076810 1_655
W15 Zr21 3.076874 1_645
W15 Zr19 3.192770 1_555
W15 Zr10 3.192831 1_555
W15 Zr6 3.203045 1_555
W15 Zr34 3.203140 1_545
W16 Zr49 2.779031 1_555
W16 W22 3.030186 1_555
W16 W18 3.030289 1_555
W16 Zr13 3.076810 1_554
W16 Zr22 3.076862 1_555
W16 Zr20 3.192777 1_555
W16 Zr11 3.192849 1_555
W16 Zr7 3.203032 1_554
W16 Zr35 3.203130 1_555
W17 Zr50 2.779040 1_555
W17 W9 2.843520 1_555
W17 W23 3.030194 1_555
W17 W19 3.030289 1_565
W17 Zr14 3.076798 1_555
W17 Zr23 3.076860 1_555
W17 Zr18 3.192780 1_555
W17 Zr9 3.192849 1_555
W17 Zr8 3.203032 1_555
W17 Zr33 3.203132 1_555
W18 Zr11 2.531111 1_555
W18 Zr2 2.531113 1_655
W18 W2 2.547005 1_555
W18 W4 3.030200 1_554
W18 W6 3.030281 1_655
W19 Zr0 2.531111 1_555
W19 Zr9 2.531111 1_545
W19 W9 2.547015 1_545
W19 W5 3.030183 1_555
W19 W7 3.030289 1_555
W20 Zr1 2.531111 1_555
W20 Zr10 2.531113 1_455
W20 W3 3.030183 1_555
W20 W8 3.030289 1_555
W21 Zr29 2.531111 1_545
W21 Zr19 2.531111 1_454
W21 W6 3.030186 1_545
W21 W4 3.030292 1_444
W22 Zr27 2.531113 1_555
W22 Zr20 2.531123 1_555
W22 W7 3.030194 1_555
W22 W5 3.030276 1_555
W23 Zr18 2.531113 1_555
W23 Zr28 2.531123 1_555
W23 W9 2.547018 1_555
W23 W8 3.030186 1_555
W23 W3 3.030292 1_555
