# generated using pymatgen
data_ThUBe26
_symmetry_space_group_name_H-M   'P 1'
_cell_length_a   7.24416755
_cell_length_b   7.24416755
_cell_length_c   7.24416755
_cell_angle_alpha   60.00000000
_cell_angle_beta   60.00000000
_cell_angle_gamma   60.00000000
_symmetry_Int_Tables_number   1
_chemical_formula_structural   ThUBe26
_chemical_formula_sum   'Th1 U1 Be26'
_cell_volume   268.81312033
_cell_formula_units_Z   1
loop_
 _symmetry_equiv_pos_site_id
 _symmetry_equiv_pos_as_xyz
  1  'x, y, z'
loop_
 _atom_site_type_symbol
 _atom_site_label
 _atom_site_symmetry_multiplicity
 _atom_site_fract_x
 _atom_site_fract_y
 _atom_site_fract_z
 _atom_site_occupancy
  Th  Th0  1  0.00000000  0.00000000  0.00000000  1
  U  U0  1  0.50000000  0.50000000  0.50000000  1
  Be  Be0  1  0.53770800  0.31297000  0.95734700  1
  Be  Be1  1  0.95734700  0.19197600  0.53770800  1
  Be  Be2  1  0.31297000  0.53770800  0.19197600  1
  Be  Be3  1  0.19197600  0.95734700  0.31297000  1
  Be  Be4  1  0.04265300  0.68703000  0.46229200  1
  Be  Be5  1  0.46229200  0.80802400  0.04265300  1
  Be  Be6  1  0.68703000  0.04265300  0.80802400  1
  Be  Be7  1  0.80802400  0.46229200  0.68703000  1
  Be  Be8  1  0.95734700  0.53770800  0.31297000  1
  Be  Be9  1  0.53770800  0.95734700  0.19197600  1
  Be  Be10  1  0.19197600  0.31297000  0.53770800  1
  Be  Be11  1  0.31297000  0.19197600  0.95734700  1
  Be  Be12  1  0.46229200  0.04265300  0.68703000  1
  Be  Be13  1  0.04265300  0.46229200  0.80802400  1
  Be  Be14  1  0.80802400  0.68703000  0.04265300  1
  Be  Be15  1  0.68703000  0.80802400  0.46229200  1
  Be  Be16  1  0.31297000  0.95734700  0.53770800  1
  Be  Be17  1  0.19197600  0.53770800  0.95734700  1
  Be  Be18  1  0.53770800  0.19197600  0.31297000  1
  Be  Be19  1  0.95734700  0.31297000  0.19197600  1
  Be  Be20  1  0.68703000  0.46229200  0.04265300  1
  Be  Be21  1  0.80802400  0.04265300  0.46229200  1
  Be  Be22  1  0.04265300  0.80802400  0.68703000  1
  Be  Be23  1  0.46229200  0.68703000  0.80802400  1
  Be  Be24  1  0.25000000  0.25000000  0.25000000  1
  Be  Be25  1  0.75000000  0.75000000  0.75000000  1
loop_
_geom_bond_atom_site_label_1
_geom_bond_atom_site_label_2
_geom_bond_distance
_geom_bond_site_symmetry_2
Be0 Be24 2.147464 1_556
Be0 Be17 2.201305 1_555
Be0 Be11 2.201305 1_555
Be0 Be23 2.233992 1_555
Be0 Be7 2.237122 1_555
Be0 Be6 2.237132 1_555
Be0 Be18 2.268697 1_556
Be0 Be9 2.268697 1_546
Be0 Be20 2.286730 1_556
Be0 Be2 2.353607 1_556
Be0 U0 2.988813 1_555
Be0 Th0 3.031915 1_656
Be1 Be24 2.147462 1_655
Be1 Be19 2.201305 1_555
Be1 Be8 2.201305 1_555
Be1 Be21 2.234005 1_555
Be1 Be7 2.237119 1_555
Be1 Be6 2.237129 1_555
Be1 Be10 2.268697 1_655
Be1 Be16 2.268697 1_645
Be1 Be22 2.286743 1_645
Be1 Be3 2.353607 1_645
Be1 U0 2.988812 1_555
Be1 Th0 3.031914 1_656
Be2 Be24 2.147467 1_555
Be2 Be20 2.233992 1_555
Be2 Be5 2.237119 1_555
Be2 Be4 2.237122 1_555
Be2 Be8 2.268697 1_455
Be2 Be23 2.286741 1_554
Be2 U0 2.988806 1_555
Be2 Th0 3.031917 1_565
Be3 Be9 2.201305 1_555
Be3 Be5 2.237129 1_555
Be3 Be4 2.237132 1_555
Be3 U0 2.988810 1_555
Be3 Th0 3.031920 1_565
Be4 Be8 2.286730 1_455
Be4 Be7 2.353607 1_455
Be4 U0 2.988813 1_555
Be4 Th0 3.031915 1_565
Be5 Be9 2.234005 1_555
Be5 Be6 2.353607 1_564
Be5 U0 2.988812 1_555
Be5 Th0 3.031914 1_565
Be6 Be9 2.286743 1_546
Be6 U0 2.988810 1_555
Be6 Th0 3.031920 1_656
Be7 Be8 2.233992 1_555
Be7 U0 2.988806 1_555
Be7 Th0 3.031917 1_656
Be8 U0 2.988813 1_555
Be8 Th0 3.031915 1_665
Be9 U0 2.988812 1_555
Be9 Th0 3.031914 1_665
Be10 Be24 2.147467 1_555
Be10 Be2 2.201305 1_555
Be10 Be18 2.201305 1_555
Be10 Be4 2.233992 1_555
Be10 Be13 2.237119 1_555
Be10 Be12 2.237122 1_555
Be10 Be16 2.268697 1_545
Be10 Be7 2.286741 1_455
Be10 Be8 2.353607 1_455
Be10 U0 2.988806 1_555
Be10 Th0 3.031917 1_556
Be11 Be24 2.147460 1_556
Be11 Be17 2.201305 1_555
Be11 Be6 2.233994 1_555
Be11 Be13 2.237129 1_555
Be11 Be12 2.237132 1_555
Be11 Be3 2.268697 1_546
Be11 Be19 2.268697 1_456
Be11 Be5 2.286743 1_546
Be11 Be9 2.353607 1_546
Be11 U0 2.988810 1_555
Be11 Th0 3.031920 1_556
Be12 Be25 2.147464 1_545
Be12 Be21 2.201305 1_555
Be12 Be6 2.201305 1_555
Be12 Be18 2.233992 1_555
Be12 Be23 2.268697 1_545
Be12 Be5 2.268697 1_546
Be12 Be16 2.286730 1_545
Be12 Be15 2.353607 1_545
Be12 U0 2.988813 1_555
Be12 Th0 3.031915 1_556
Be13 Be25 2.147462 1_455
Be13 Be22 2.201305 1_555
Be13 Be4 2.201305 1_555
Be13 Be17 2.234005 1_555
Be13 Be7 2.268697 1_455
Be13 Be20 2.268697 1_456
Be13 Be19 2.286743 1_456
Be13 Be14 2.353607 1_456
Be13 U0 2.988812 1_555
Be13 Th0 3.031914 1_556
Be14 Be25 2.147460 1_554
Be14 Be5 2.201305 1_555
Be14 Be20 2.201305 1_555
Be14 Be19 2.233994 1_555
Be14 Be9 2.237129 1_555
Be14 Be8 2.237132 1_555
Be14 Be22 2.268697 1_654
Be14 Be6 2.268697 1_564
Be14 Be17 2.286743 1_654
Be14 U0 2.988810 1_555
Be14 Th0 3.031920 1_665
Be15 Be25 2.147467 1_555
Be15 Be23 2.201305 1_555
Be15 Be7 2.201305 1_555
Be15 Be16 2.233992 1_555
Be15 Be9 2.237119 1_555
Be15 Be8 2.237122 1_555
Be15 Be21 2.268697 1_565
Be15 Be4 2.268697 1_655
Be15 Be18 2.286741 1_565
Be15 U0 2.988806 1_555
Be15 Th0 3.031917 1_665
Be16 Be24 2.147464 1_565
Be16 Be9 2.201305 1_555
Be16 Be3 2.201305 1_555
Be16 Be23 2.237122 1_555
Be16 Be22 2.237132 1_555
Be16 Be18 2.353607 1_565
Be16 U0 2.988813 1_555
Be16 Th0 3.031915 1_566
Be17 Be24 2.147462 1_556
Be17 Be23 2.237119 1_555
Be17 Be22 2.237129 1_555
Be17 Be2 2.268697 1_556
Be17 Be8 2.268697 1_456
Be17 Be19 2.353607 1_456
Be17 U0 2.988812 1_555
Be17 Th0 3.031914 1_566
Be18 Be24 2.147467 1_555
Be18 Be2 2.201305 1_555
Be18 Be21 2.237119 1_555
Be18 Be20 2.237122 1_555
Be18 Be9 2.268697 1_545
Be18 U0 2.988806 1_555
Be18 Th0 3.031917 1_655
Be19 Be24 2.147460 1_655
Be19 Be8 2.201305 1_555
Be19 Be21 2.237129 1_555
Be19 Be20 2.237132 1_555
Be19 Be3 2.268697 1_645
Be19 U0 2.988810 1_555
Be19 Th0 3.031920 1_655
Be20 Be25 2.147464 1_554
Be20 Be5 2.201305 1_555
Be20 Be7 2.268697 1_554
Be20 Be23 2.353607 1_554
Be20 U0 2.988813 1_555
Be20 Th0 3.031915 1_655
Be21 Be25 2.147462 1_545
Be21 Be6 2.201305 1_555
Be21 Be4 2.268697 1_645
Be21 Be3 2.286743 1_645
Be21 Be22 2.353607 1_645
Be21 U0 2.988812 1_555
Be21 Th0 3.031914 1_655
Be22 Be25 2.147460 1_455
Be22 Be4 2.201305 1_555
Be22 Be3 2.233994 1_555
Be22 Be6 2.268697 1_465
Be22 U0 2.988810 1_555
Be22 Th0 3.031920 1_566
Be23 Be25 2.147467 1_555
Be23 Be7 2.201305 1_555
Be23 Be5 2.268697 1_556
Be23 U0 2.988806 1_555
Be23 Th0 3.031917 1_566
Be24 Be3 2.147460 1_545
Be24 Be9 2.147462 1_545
Be24 Be8 2.147464 1_455
Be25 Be6 2.147460 1_565
Be25 Be5 2.147462 1_556
Be25 Be4 2.147464 1_655
Be25 Be7 2.147467 1_555
