# generated using pymatgen
data_Sr3Ir3N5
_symmetry_space_group_name_H-M   'P 1'
_cell_length_a   6.55282813
_cell_length_b   7.71457577
_cell_length_c   8.56617800
_cell_angle_alpha   101.49958644
_cell_angle_beta   117.27948698
_cell_angle_gamma   98.17255851
_symmetry_Int_Tables_number   1
_chemical_formula_structural   Sr3Ir3N5
_chemical_formula_sum   'Sr6 Ir6 N10'
_cell_volume   363.34119195
_cell_formula_units_Z   2
loop_
 _symmetry_equiv_pos_site_id
 _symmetry_equiv_pos_as_xyz
  1  'x, y, z'
loop_
 _atom_site_type_symbol
 _atom_site_label
 _atom_site_symmetry_multiplicity
 _atom_site_fract_x
 _atom_site_fract_y
 _atom_site_fract_z
 _atom_site_occupancy
  Sr  Sr0  1  0.72870200  0.40709600  0.60140100  1
  Sr  Sr1  1  0.27129800  0.59290400  0.39859900  1
  Sr  Sr2  1  0.67320200  0.87905000  0.87729200  1
  Sr  Sr3  1  0.32679800  0.12095000  0.12270800  1
  Sr  Sr4  1  0.69006000  0.69341600  0.21788500  1
  Sr  Sr5  1  0.30994000  0.30658400  0.78211500  1
  Ir  Ir0  1  0.88799000  0.34066400  0.99090400  1
  Ir  Ir1  1  0.11201000  0.65933600  0.00909600  1
  Ir  Ir2  1  0.76712600  0.99654000  0.57883400  1
  Ir  Ir3  1  0.23287400  0.00346000  0.42116600  1
  Ir  Ir4  1  0.08889500  0.79567600  0.71805800  1
  Ir  Ir5  1  0.91110500  0.20432400  0.28194200  1
  N  N0  1  0.95049200  0.14847000  0.83280500  1
  N  N1  1  0.04950800  0.85153000  0.16719500  1
  N  N2  1  0.72349000  0.73260300  0.55885500  1
  N  N3  1  0.27651000  0.26739700  0.44114500  1
  N  N4  1  0.73311600  0.53269800  0.90959800  1
  N  N5  1  0.26688300  0.46730200  0.09040200  1
  N  N6  1  0.24306800  0.89622900  0.60000400  1
  N  N7  1  0.75693200  0.10377100  0.39999600  1
  N  N8  1  0.33995400  0.77640200  0.94706600  1
  N  N9  1  0.66004600  0.22359800  0.05293400  1
loop_
_geom_bond_atom_site_label_1
_geom_bond_atom_site_label_2
_geom_bond_distance
_geom_bond_site_symmetry_2
Ir0 N9 1.965804 1_556
Ir0 N4 1.975017 1_555
Ir0 N0 2.020081 1_555
Ir0 N5 2.209946 1_656
Ir1 N8 1.965804 1_554
Ir1 N5 1.975014 1_555
Ir1 N1 2.020081 1_555
Ir1 N4 2.209952 1_454
Ir2 N7 1.860885 1_565
Ir2 N0 1.933196 1_565
Ir2 N2 1.976784 1_555
Ir3 N6 1.860885 1_545
Ir3 N1 1.933196 1_545
Ir3 N3 1.976784 1_555
Ir4 N6 1.916129 1_555
Ir4 N8 1.950502 1_555
Ir4 N2 2.059319 1_455
Ir5 N7 1.916129 1_555
Ir5 N9 1.950502 1_555
Ir5 N3 2.059319 1_655
N0 Sr3 2.653000 1_656
N0 Sr5 2.748854 1_655
N0 Sr2 2.764716 1_545
N0 Sr0 3.127755 1_555
N1 Sr2 2.653000 1_454
N1 Sr4 2.748854 1_455
N1 Sr3 2.764716 1_565
N1 Sr1 3.127755 1_555
N2 Sr1 2.568972 1_555
N2 Sr0 2.611082 1_555
N2 Sr4 2.777247 1_555
N2 Sr2 2.920078 1_555
N3 Sr0 2.568972 1_555
N3 Sr1 2.611082 1_555
N3 Sr5 2.777247 1_555
N3 Sr3 2.920078 1_555
N4 Sr0 2.609933 1_555
N4 Sr5 2.648447 1_555
N4 Sr2 2.804206 1_555
N4 Sr4 2.840394 1_556
N5 Sr1 2.609930 1_555
N5 Sr4 2.648452 1_555
N5 Sr3 2.804207 1_555
N5 Sr5 2.840397 1_554
N6 Sr1 2.700445 1_555
N6 Sr2 2.774660 1_555
N6 Sr5 3.107611 1_565
N7 Sr0 2.700445 1_555
N7 Sr3 2.774660 1_555
N7 Sr4 3.107611 1_545
N8 Sr2 2.578070 1_555
N8 Sr4 2.680682 1_556
N8 Sr3 2.815288 1_566
N9 Sr3 2.578070 1_555
N9 Sr5 2.680682 1_554
N9 Sr2 2.815288 1_544
