# generated using pymatgen
data_BC7
_symmetry_space_group_name_H-M   'P 1'
_cell_length_a   2.53581730
_cell_length_b   2.53581730
_cell_length_c   8.52226800
_cell_angle_alpha   90.00000000
_cell_angle_beta   90.00000000
_cell_angle_gamma   119.99998176
_symmetry_Int_Tables_number   1
_chemical_formula_structural   BC7
_chemical_formula_sum   'B1 C7'
_cell_volume   47.45935372
_cell_formula_units_Z   1
loop_
 _symmetry_equiv_pos_site_id
 _symmetry_equiv_pos_as_xyz
  1  'x, y, z'
loop_
 _atom_site_type_symbol
 _atom_site_label
 _atom_site_symmetry_multiplicity
 _atom_site_fract_x
 _atom_site_fract_y
 _atom_site_fract_z
 _atom_site_occupancy
  B  B0  1  0.00000000  0.00000000  0.32286800  1
  C  C0  1  0.00000000  0.00000000  0.51217800  1
  C  C1  1  0.33333300  0.66666700  0.00001900  1
  C  C2  1  0.33333300  0.66666700  0.81628400  1
  C  C3  1  0.66666700  0.33333300  0.75495500  1
  C  C4  1  0.66666700  0.33333300  0.57352600  1
  C  C5  1  0.66666700  0.33333300  0.06354500  1
  C  C6  1  0.66666700  0.33333300  0.23909400  1
loop_
_geom_bond_atom_site_label_1
_geom_bond_atom_site_label_2
_geom_bond_distance
_geom_bond_site_symmetry_2
B0 C0 1.613351 1_555
B0 C6 1.628855 1_455
B0 C6 1.628857 1_555
B0 C6 1.628857 1_445
C0 C4 1.554605 1_455
C0 C4 1.554607 1_445
C0 C4 1.554607 1_555
C1 C5 1.560946 1_455
C1 C5 1.560946 1_565
C1 C5 1.560949 1_555
C1 C2 1.565839 1_554
C2 C3 1.554551 1_455
C2 C3 1.554551 1_565
C2 C3 1.554555 1_555
C3 C4 1.546187 1_555
C5 C6 1.496076 1_555
