# generated using pymatgen
data_USnRh
_symmetry_space_group_name_H-M   'P 1'
_cell_length_a   7.39012450
_cell_length_b   7.39017508
_cell_length_c   4.05688797
_cell_angle_alpha   90.00000000
_cell_angle_beta   90.00000000
_cell_angle_gamma   120.00102221
_symmetry_Int_Tables_number   1
_chemical_formula_structural   USnRh
_chemical_formula_sum   'U3 Sn3 Rh3'
_cell_volume   191.87820885
_cell_formula_units_Z   3
loop_
 _symmetry_equiv_pos_site_id
 _symmetry_equiv_pos_as_xyz
  1  'x, y, z'
loop_
 _atom_site_type_symbol
 _atom_site_label
 _atom_site_symmetry_multiplicity
 _atom_site_fract_x
 _atom_site_fract_y
 _atom_site_fract_z
 _atom_site_occupancy
  U  U0  1  0.42476539  0.42475917  0.50000000  1
  U  U1  1  0.57523228  0.99998804  0.50000000  1
  U  U2  1  -0.00000214  0.57524419  0.50000000  1
  Sn  Sn0  1  0.75174637  0.75170032  -0.00000000  1
  Sn  Sn1  1  0.24825411  -0.00005051  -0.00000000  1
  Sn  Sn2  1  -0.00000155  0.24833224  -0.00000000  1
  Rh  Rh0  1  0.66666014  0.33333657  -0.00000000  1
  Rh  Rh1  1  0.33333982  0.66666574  0.00000000  1
  Rh  Rh2  1  0.00000657  0.00002325  0.50000000  1
loop_
_geom_bond_atom_site_label_1
_geom_bond_atom_site_label_2
_geom_bond_distance
_geom_bond_site_symmetry_2
Sn0 U0 3.154817 1_555
Sn0 U0 3.154817 1_554
Sn0 Sn1 3.177634 1_665
Sn0 Sn2 3.178451 1_665
Sn0 U2 3.401967 1_654
Sn0 U2 3.401967 1_655
Sn0 U1 3.402446 1_554
Sn0 U1 3.402446 1_555
Sn1 U1 3.154827 1_544
Sn1 U1 3.154827 1_545
Sn1 Sn2 3.178531 1_555
Sn1 U2 3.401930 1_544
Sn1 U2 3.401930 1_545
Sn1 U0 3.402467 1_555
Sn1 U0 3.402467 1_554
Sn2 U2 3.154575 1_555
Sn2 U2 3.154575 1_554
Sn2 U1 3.402262 1_445
Sn2 U1 3.402262 1_444
Sn2 U0 3.402269 1_555
Sn2 U0 3.402269 1_554
Rh0 Sn0 2.830253 1_555
Rh0 Sn2 2.830297 1_655
Rh0 Sn1 2.830675 1_555
Rh0 U0 2.995747 1_555
Rh0 U0 2.995747 1_554
Rh0 U2 2.995815 1_655
Rh0 U2 2.995815 1_654
Rh0 U1 2.995898 1_544
Rh0 U1 2.995898 1_545
Rh1 Sn2 2.830221 1_555
Rh1 Sn1 2.830311 1_565
Rh1 Sn0 2.830665 1_555
Rh1 U1 2.995741 1_555
Rh1 U1 2.995741 1_554
Rh1 U0 2.995827 1_555
Rh1 U0 2.995827 1_554
Rh1 U2 2.995860 1_554
Rh1 U2 2.995860 1_555
Rh2 Sn1 2.735191 1_555
Rh2 Sn1 2.735191 1_556
Rh2 Sn0 2.735212 1_446
Rh2 Sn0 2.735212 1_445
Rh2 Sn2 2.735341 1_556
Rh2 Sn2 2.735341 1_555
Rh2 U0 3.138898 1_555
Rh2 U1 3.139005 1_445
Rh2 U2 3.139159 1_545
