# generated using pymatgen
data_Lu2Be2GeO7
_symmetry_space_group_name_H-M   'P 1'
_cell_length_a   7.34584900
_cell_length_b   7.34584900
_cell_length_c   4.76078700
_cell_angle_alpha   90.00000000
_cell_angle_beta   90.00000000
_cell_angle_gamma   90.00000000
_symmetry_Int_Tables_number   1
_chemical_formula_structural   Lu2Be2GeO7
_chemical_formula_sum   'Lu4 Be4 Ge2 O14'
_cell_volume   256.89919595
_cell_formula_units_Z   2
loop_
 _symmetry_equiv_pos_site_id
 _symmetry_equiv_pos_as_xyz
  1  'x, y, z'
loop_
 _atom_site_type_symbol
 _atom_site_label
 _atom_site_symmetry_multiplicity
 _atom_site_fract_x
 _atom_site_fract_y
 _atom_site_fract_z
 _atom_site_occupancy
  Lu  Lu0  1  0.15785500  0.34214500  0.50628600  1
  Lu  Lu1  1  0.84214500  0.65785500  0.50628600  1
  Lu  Lu2  1  0.65785500  0.15785500  0.49371400  1
  Lu  Lu3  1  0.34214500  0.84214500  0.49371400  1
  Be  Be0  1  0.63576000  0.86424000  0.94706800  1
  Be  Be1  1  0.36424000  0.13576000  0.94706800  1
  Be  Be2  1  0.13576000  0.63576000  0.05293200  1
  Be  Be3  1  0.86424000  0.36424000  0.05293200  1
  Ge  Ge0  1  0.00000000  0.00000000  0.00000000  1
  Ge  Ge1  1  0.50000000  0.50000000  0.00000000  1
  O  O0  1  0.00000000  0.50000000  0.19637500  1
  O  O1  1  0.50000000  0.00000000  0.80362500  1
  O  O2  1  0.64252500  0.85747500  0.28053700  1
  O  O3  1  0.35747500  0.14252500  0.28053700  1
  O  O4  1  0.14252500  0.64252500  0.71946300  1
  O  O5  1  0.85747500  0.35747500  0.71946300  1
  O  O6  1  0.08261800  0.82950400  0.22500400  1
  O  O7  1  0.91738200  0.17049600  0.22500400  1
  O  O8  1  0.17049600  0.08261800  0.77499600  1
  O  O9  1  0.41738200  0.32950400  0.77499600  1
  O  O10  1  0.82950400  0.91738200  0.77499600  1
  O  O11  1  0.58261800  0.67049600  0.77499600  1
  O  O12  1  0.32950400  0.58261800  0.22500400  1
  O  O13  1  0.67049600  0.41738200  0.22500400  1
loop_
_geom_bond_atom_site_label_1
_geom_bond_atom_site_label_2
_geom_bond_distance
_geom_bond_site_symmetry_2
Lu0 O0 2.205927 1_555
Lu0 O8 2.297759 1_555
Lu0 O9 2.297759 1_555
Lu0 O3 2.335723 1_555
Lu0 O5 2.431364 1_455
Lu0 O4 2.431364 1_555
Lu0 O12 2.550213 1_555
Lu0 O7 2.550213 1_455
Lu1 O0 2.205927 1_655
Lu1 O10 2.297759 1_555
Lu1 O11 2.297759 1_555
Lu1 O2 2.335723 1_555
Lu1 O5 2.431364 1_555
Lu1 O4 2.431364 1_655
Lu1 O13 2.550213 1_555
Lu1 O6 2.550213 1_655
Lu2 O1 2.205927 1_555
Lu2 O7 2.297759 1_555
Lu2 O13 2.297759 1_555
Lu2 O5 2.335723 1_555
Lu2 O3 2.431364 1_555
Lu2 O2 2.431364 1_545
Lu2 O9 2.550213 1_555
Lu2 O10 2.550213 1_545
Lu3 O1 2.205927 1_565
Lu3 O12 2.297759 1_555
Lu3 O6 2.297759 1_555
Lu3 O4 2.335723 1_555
Lu3 O3 2.431364 1_565
Lu3 O2 2.431364 1_555
Lu3 O11 2.550213 1_555
Lu3 O8 2.550213 1_565
Be0 O1 1.566991 1_565
Be0 O2 1.589130 1_556
Be0 O10 1.687903 1_555
Be0 O11 1.687903 1_555
Be1 O1 1.566991 1_555
Be1 O3 1.589130 1_556
Be1 O9 1.687903 1_555
Be1 O8 1.687903 1_555
Be2 O0 1.566991 1_555
Be2 O4 1.589130 1_554
Be2 O6 1.687903 1_555
Be2 O12 1.687903 1_555
Be3 O0 1.566991 1_655
Be3 O5 1.589130 1_554
Be3 O13 1.687903 1_555
Be3 O7 1.687903 1_555
Ge0 O7 1.756243 1_455
Ge0 O8 1.756243 1_554
Ge0 O6 1.756243 1_545
Ge0 O10 1.756243 1_444
Ge1 O13 1.756243 1_555
Ge1 O11 1.756243 1_554
Ge1 O12 1.756243 1_555
Ge1 O9 1.756243 1_554
