# generated using pymatgen
data_Sr2NdTa(CuO4)2
_symmetry_space_group_name_H-M   'P 1'
_cell_length_a   5.52993285
_cell_length_b   5.52993270
_cell_length_c   12.54755266
_cell_angle_alpha   102.74497242
_cell_angle_beta   102.74497144
_cell_angle_gamma   90.10409394
_symmetry_Int_Tables_number   1
_chemical_formula_structural   Sr2NdTa(CuO4)2
_chemical_formula_sum   'Sr4 Nd2 Ta2 Cu4 O16'
_cell_volume   364.51691708
_cell_formula_units_Z   2
loop_
 _symmetry_equiv_pos_site_id
 _symmetry_equiv_pos_as_xyz
  1  'x, y, z'
loop_
 _atom_site_type_symbol
 _atom_site_label
 _atom_site_symmetry_multiplicity
 _atom_site_fract_x
 _atom_site_fract_y
 _atom_site_fract_z
 _atom_site_occupancy
  Sr  Sr0  1  0.59836100  0.09836100  0.19996700  1
  Sr  Sr1  1  0.90450200  0.40450200  0.80092600  1
  Sr  Sr2  1  0.09549800  0.59549800  0.19907400  1
  Sr  Sr3  1  0.40163900  0.90163900  0.80003300  1
  Nd  Nd0  1  0.24941900  0.74941900  0.49956900  1
  Nd  Nd1  1  0.75058100  0.25058100  0.50043100  1
  Ta  Ta0  1  0.00000000  0.00000000  0.00000000  1
  Ta  Ta1  1  0.50000000  0.50000000  0.00000000  1
  Cu  Cu0  1  0.67465600  0.67445400  0.35384900  1
  Cu  Cu1  1  0.82554600  0.82534400  0.64615100  1
  Cu  Cu2  1  0.17445400  0.17465600  0.35384900  1
  Cu  Cu3  1  0.32534400  0.32554600  0.64615100  1
  O  O0  1  0.18656900  0.31343100  0.00000000  1
  O  O1  1  0.43783600  0.42603600  0.36963900  1
  O  O2  1  0.59148600  0.57081600  0.16454000  1
  O  O3  1  0.57334800  0.07334800  0.63247900  1
  O  O4  1  0.68265200  0.18265200  0.99241100  1
  O  O5  1  0.94016600  0.44016600  0.37156900  1
  O  O6  1  0.92918400  0.90851400  0.83546000  1
  O  O7  1  0.07081600  0.09148600  0.16454000  1
  O  O8  1  0.07396400  0.06216400  0.63036100  1
  O  O9  1  0.31734800  0.81734800  0.00758900  1
  O  O10  1  0.42665200  0.92665200  0.36752100  1
  O  O11  1  0.40851400  0.42918400  0.83546000  1
  O  O12  1  0.56216400  0.57396400  0.63036100  1
  O  O13  1  0.81343100  0.68656900  0.00000000  1
  O  O14  1  0.92603600  0.93783600  0.36963900  1
  O  O15  1  0.05983400  0.55983400  0.62843100  1
loop_
_geom_bond_atom_site_label_1
_geom_bond_atom_site_label_2
_geom_bond_distance
_geom_bond_site_symmetry_2
Nd0 O5 2.448332 1_455
Nd0 O8 2.466181 1_565
Nd0 O12 2.466182 1_555
Nd0 O10 2.468986 1_555
Nd0 O15 2.510879 1_555
Nd0 O1 2.532070 1_555
Nd0 O14 2.532070 1_455
Nd0 O3 2.559476 1_565
Nd1 O15 2.448332 1_655
Nd1 O14 2.466181 1_545
Nd1 O1 2.466182 1_555
Nd1 O3 2.468986 1_555
Nd1 O5 2.510879 1_555
Nd1 O12 2.532070 1_555
Nd1 O8 2.532070 1_655
Nd1 O10 2.559476 1_545
Cu0 O14 1.958780 1_555
Cu0 O10 1.964816 1_555
Cu0 O1 1.967100 1_555
Cu0 O5 1.968184 1_555
Cu0 O2 2.258029 1_555
Cu1 O12 1.958780 1_555
Cu1 O3 1.964816 1_565
Cu1 O8 1.967100 1_665
Cu1 O15 1.968184 1_655
Cu1 O6 2.258029 1_555
Cu2 O1 1.958780 1_555
Cu2 O10 1.964816 1_545
Cu2 O14 1.967100 1_445
Cu2 O5 1.968184 1_455
Cu2 O7 2.258029 1_555
Cu3 O8 1.958780 1_555
Cu3 O3 1.964816 1_555
Cu3 O12 1.967100 1_555
Cu3 O15 1.968184 1_555
Cu3 O11 2.258029 1_555
O0 Ta0 2.015465 1_555
O0 Ta1 2.015465 1_555
O0 Sr2 2.786556 1_555
O0 Sr1 2.786556 1_454
O1 Sr0 2.782355 1_555
O1 Sr2 2.854134 1_555
O2 Ta1 1.963024 1_555
O2 Sr2 2.722914 1_655
O2 Sr0 2.744137 1_555
O2 Sr0 2.851242 1_565
O2 Sr2 2.868605 1_555
O3 Sr1 2.783268 1_555
O3 Sr3 2.825183 1_545
O4 Ta1 2.020926 1_556
O4 Ta0 2.020926 1_656
O4 Sr3 2.708795 1_545
O4 Sr0 2.878796 1_556
O5 Sr2 2.792524 1_655
O5 Sr0 2.859578 1_555
O6 Ta0 1.963024 1_666
O6 Sr1 2.722914 1_555
O6 Sr3 2.744137 1_655
O6 Sr3 2.851242 1_555
O6 Sr1 2.868605 1_565
O7 Ta0 1.963024 1_555
O7 Sr2 2.722914 1_555
O7 Sr0 2.744137 1_455
O7 Sr0 2.851242 1_555
O7 Sr2 2.868605 1_545
O8 Sr3 2.782355 1_545
O8 Sr1 2.854134 1_455
O9 Ta1 2.020926 1_555
O9 Ta0 2.020926 1_565
O9 Sr0 2.708795 1_565
O9 Sr3 2.878796 1_554
O10 Sr2 2.783268 1_555
O10 Sr0 2.825183 1_565
O11 Ta1 1.963024 1_556
O11 Sr1 2.722914 1_455
O11 Sr3 2.744137 1_555
O11 Sr3 2.851242 1_545
O11 Sr1 2.868605 1_555
O12 Sr3 2.782355 1_555
O12 Sr1 2.854134 1_555
O13 Ta0 2.015465 1_665
O13 Ta1 2.015465 1_555
O13 Sr1 2.786556 1_554
O13 Sr2 2.786556 1_655
O14 Sr0 2.782355 1_565
O14 Sr2 2.854134 1_655
O15 Sr1 2.792524 1_455
O15 Sr3 2.859578 1_555
