# generated using pymatgen
data_Zn2As
_symmetry_space_group_name_H-M   'P 1'
_cell_length_a   5.59626000
_cell_length_b   5.59626000
_cell_length_c   5.59626000
_cell_angle_alpha   90.00000000
_cell_angle_beta   90.00000000
_cell_angle_gamma   90.00000000
_symmetry_Int_Tables_number   1
_chemical_formula_structural   Zn2As
_chemical_formula_sum   'Zn4 As2'
_cell_volume   175.26437574
_cell_formula_units_Z   2
loop_
 _symmetry_equiv_pos_site_id
 _symmetry_equiv_pos_as_xyz
  1  'x, y, z'
loop_
 _atom_site_type_symbol
 _atom_site_label
 _atom_site_symmetry_multiplicity
 _atom_site_fract_x
 _atom_site_fract_y
 _atom_site_fract_z
 _atom_site_occupancy
  Zn  Zn0  1  0.25000000  0.75000000  0.75000000  1
  Zn  Zn1  1  0.75000000  0.25000000  0.75000000  1
  Zn  Zn2  1  0.75000000  0.75000000  0.25000000  1
  Zn  Zn3  1  0.25000000  0.25000000  0.25000000  1
  As  As0  1  0.00000000  0.00000000  0.00000000  1
  As  As1  1  0.50000000  0.50000000  0.50000000  1
loop_
_geom_bond_atom_site_label_1
_geom_bond_atom_site_label_2
_geom_bond_distance
_geom_bond_site_symmetry_2
As0 Zn0 2.423252 1_544
As0 Zn3 2.423252 1_555
As0 Zn1 2.423252 1_454
As0 Zn2 2.423252 1_445
As1 Zn1 2.423252 1_555
As1 Zn2 2.423252 1_555
As1 Zn3 2.423252 1_555
As1 Zn0 2.423252 1_555
