# generated using pymatgen
data_Eu2TlCl5
_symmetry_space_group_name_H-M   'P 1'
_cell_length_a   7.81955737
_cell_length_b   8.91502408
_cell_length_c   12.58990215
_cell_angle_alpha   90.14926781
_cell_angle_beta   90.00000000
_cell_angle_gamma   90.00000000
_symmetry_Int_Tables_number   1
_chemical_formula_structural   Eu2TlCl5
_chemical_formula_sum   'Eu8 Tl4 Cl20'
_cell_volume   877.65851717
_cell_formula_units_Z   4
loop_
 _symmetry_equiv_pos_site_id
 _symmetry_equiv_pos_as_xyz
  1  'x, y, z'
loop_
 _atom_site_type_symbol
 _atom_site_label
 _atom_site_symmetry_multiplicity
 _atom_site_fract_x
 _atom_site_fract_y
 _atom_site_fract_z
 _atom_site_occupancy
  Eu  Eu0  1  0.47548549  0.99863963  0.82186584  1
  Eu  Eu1  1  0.52451451  0.00136037  0.17813416  1
  Eu  Eu2  1  0.97548549  0.00136037  0.67813416  1
  Eu  Eu3  1  0.02451451  0.99863963  0.32186584  1
  Eu  Eu4  1  0.42885877  0.75123782  0.50622448  1
  Eu  Eu5  1  0.57114123  0.24876218  0.49377552  1
  Eu  Eu6  1  0.92885877  0.24876218  0.99377552  1
  Eu  Eu7  1  0.07114123  0.75123782  0.00622448  1
  Tl  Tl0  1  0.45931969  0.49073599  0.83269952  1
  Tl  Tl1  1  0.54068031  0.50926401  0.16730048  1
  Tl  Tl2  1  0.95931969  0.50926401  0.66730048  1
  Tl  Tl3  1  0.04068031  0.49073599  0.33269952  1
  Cl  Cl0  1  0.33507907  0.46426200  0.58971226  1
  Cl  Cl1  1  0.66492093  0.53573800  0.41028774  1
  Cl  Cl2  1  0.83507907  0.53573800  0.91028774  1
  Cl  Cl3  1  0.16492093  0.46426200  0.08971226  1
  Cl  Cl4  1  0.66763818  0.78788972  0.68242748  1
  Cl  Cl5  1  0.33236182  0.21211028  0.31757252  1
  Cl  Cl6  1  0.16763818  0.21211028  0.81757252  1
  Cl  Cl7  1  0.83236182  0.78788972  0.18242748  1
  Cl  Cl8  1  0.19195903  0.77487372  0.78277839  1
  Cl  Cl9  1  0.80804097  0.22512628  0.21722161  1
  Cl  Cl10  1  0.69195903  0.22512628  0.71722161  1
  Cl  Cl11  1  0.30804097  0.77487372  0.28277839  1
  Cl  Cl12  1  0.04759480  0.78653936  0.50254706  1
  Cl  Cl13  1  0.95240520  0.21346064  0.49745294  1
  Cl  Cl14  1  0.54759480  0.21346064  0.99745294  1
  Cl  Cl15  1  0.45240520  0.78653936  0.00254706  1
  Cl  Cl16  1  0.83890068  0.95980413  0.90033381  1
  Cl  Cl17  1  0.16109932  0.04019587  0.09966619  1
  Cl  Cl18  1  0.33890068  0.04019587  0.59966619  1
  Cl  Cl19  1  0.66109932  0.95980413  0.40033381  1
loop_
_geom_bond_atom_site_label_1
_geom_bond_atom_site_label_2
_geom_bond_distance
_geom_bond_site_symmetry_2
Cl0 Eu4 2.863909 1_555
Cl0 Eu5 2.923197 1_555
Cl0 Tl2 3.121947 1_455
Cl0 Tl0 3.217823 1_555
Cl1 Eu5 2.863909 1_555
Cl1 Eu4 2.923197 1_555
Cl1 Tl3 3.121947 1_655
Cl1 Tl1 3.217823 1_555
Cl2 Eu6 2.863909 1_555
Cl2 Eu7 2.923197 1_656
Cl2 Tl0 3.121947 1_555
Cl2 Tl2 3.217823 1_555
Cl3 Eu7 2.863909 1_555
Cl3 Eu6 2.923197 1_454
Cl3 Tl1 3.121947 1_555
Cl3 Tl3 3.217823 1_555
Cl4 Eu4 2.917266 1_555
Cl4 Eu0 2.975289 1_555
Cl4 Eu2 3.069200 1_565
Cl5 Eu5 2.917266 1_555
Cl5 Eu1 2.975289 1_555
Cl5 Eu3 3.069200 1_545
Cl6 Eu6 2.917266 1_455
Cl6 Eu2 2.975289 1_455
Cl6 Eu0 3.069200 1_545
Cl7 Eu7 2.917266 1_655
Cl7 Eu3 2.975289 1_655
Cl7 Eu1 3.069200 1_565
Cl8 Eu2 2.948184 1_465
Cl8 Eu7 2.975554 1_556
Cl8 Eu0 3.021905 1_555
Cl9 Eu3 2.948184 1_645
Cl9 Eu6 2.975554 1_554
Cl9 Eu1 3.021905 1_555
Cl10 Eu0 2.948184 1_545
Cl10 Eu5 2.975554 1_555
Cl10 Eu2 3.021905 1_555
Cl11 Eu1 2.948184 1_565
Cl11 Eu4 2.975554 1_555
Cl11 Eu3 3.021905 1_555
Cl12 Eu3 2.967311 1_555
Cl12 Eu2 2.974976 1_465
Cl12 Eu4 2.998251 1_555
Cl13 Eu2 2.967311 1_555
Cl13 Eu3 2.974976 1_645
Cl13 Eu5 2.998251 1_555
Cl14 Eu1 2.967311 1_556
Cl14 Eu0 2.974976 1_545
Cl14 Eu6 2.998251 1_555
Cl15 Eu0 2.967311 1_554
Cl15 Eu1 2.974976 1_565
Cl15 Eu7 2.998251 1_555
Cl16 Eu6 2.915325 1_565
Cl16 Eu7 2.923253 1_656
Cl16 Eu2 3.018144 1_565
Cl16 Eu0 3.028717 1_555
Cl17 Eu7 2.915325 1_545
Cl17 Eu6 2.923253 1_454
Cl17 Eu3 3.018144 1_545
Cl17 Eu1 3.028717 1_555
Cl18 Eu4 2.915325 1_545
Cl18 Eu5 2.923253 1_555
Cl18 Eu0 3.018144 1_545
Cl18 Eu2 3.028717 1_455
Cl19 Eu5 2.915325 1_565
Cl19 Eu4 2.923253 1_555
Cl19 Eu1 3.018144 1_565
Cl19 Eu3 3.028717 1_655
