# generated using pymatgen
data_Ca2CrWO6
_symmetry_space_group_name_H-M   'P 1'
_cell_length_a   5.50975000
_cell_length_b   5.51539901
_cell_length_c   5.53344694
_cell_angle_alpha   91.36487734
_cell_angle_beta   118.89805533
_cell_angle_gamma   119.27294496
_symmetry_Int_Tables_number   1
_chemical_formula_structural   Ca2CrWO6
_chemical_formula_sum   'Ca2 Cr1 W1 O6'
_cell_volume   120.73693326
_cell_formula_units_Z   1
loop_
 _symmetry_equiv_pos_site_id
 _symmetry_equiv_pos_as_xyz
  1  'x, y, z'
loop_
 _atom_site_type_symbol
 _atom_site_label
 _atom_site_symmetry_multiplicity
 _atom_site_fract_x
 _atom_site_fract_y
 _atom_site_fract_z
 _atom_site_occupancy
  Ca  Ca0  1  0.47755300  0.23016600  0.74188700  1
  Ca  Ca1  1  0.51333900  0.76715700  0.24142700  1
  Cr  Cr0  1  0.98457900  0.50300800  0.48398600  1
  W  W0  1  0.98467400  0.00311300  0.98396600  1
  O  O0  1  0.06500600  0.34385700  0.21421500  1
  O  O1  1  0.88504900  0.66248600  0.73592900  1
  O  O2  1  0.01159800  0.81921500  0.30088100  1
  O  O3  1  0.48675400  0.22064500  0.17292300  1
  O  O4  1  0.47973500  0.78868700  0.79790500  1
  O  O5  1  0.95890900  0.19022700  0.66733200  1
loop_
_geom_bond_atom_site_label_1
_geom_bond_atom_site_label_2
_geom_bond_distance
_geom_bond_site_symmetry_2
Ca0 O1 2.359522 1_555
Ca0 O3 2.363431 1_556
Ca0 O2 2.382043 1_545
Ca0 O4 2.467004 1_545
Ca0 O5 2.573960 1_455
Ca0 O0 2.731560 1_656
Ca1 O0 2.357779 1_555
Ca1 O5 2.360052 1_565
Ca1 O4 2.380696 1_554
Ca1 O2 2.465563 1_655
Ca1 O3 2.602069 1_565
Cr0 O5 2.002186 1_555
Cr0 O4 2.007117 1_655
Cr0 O3 2.010799 1_555
Cr0 O2 2.016523 1_655
Cr0 O0 2.037772 1_655
Cr0 O1 2.042094 1_555
O0 W0 1.969395 1_454
O1 W0 1.963436 1_565
O2 W0 2.026432 1_464
O3 W0 2.020949 1_454
O4 W0 2.038289 1_565
O5 W0 2.035678 1_555
