# generated using pymatgen
data_HfMg6SnO8
_symmetry_space_group_name_H-M   'P 1'
_cell_length_a   10.31362565
_cell_length_b   4.35923479
_cell_length_c   4.35923479
_cell_angle_alpha   90.00000000
_cell_angle_beta   90.00000000
_cell_angle_gamma   90.00000000
_symmetry_Int_Tables_number   1
_chemical_formula_structural   HfMg6SnO8
_chemical_formula_sum   'Hf1 Mg6 Sn1 O8'
_cell_volume   195.98908518
_cell_formula_units_Z   1
loop_
 _symmetry_equiv_pos_site_id
 _symmetry_equiv_pos_as_xyz
  1  'x, y, z'
loop_
 _atom_site_type_symbol
 _atom_site_label
 _atom_site_symmetry_multiplicity
 _atom_site_fract_x
 _atom_site_fract_y
 _atom_site_fract_z
 _atom_site_occupancy
  Hf  Hf0  1  0.50000000  -0.00000000  -0.00000000  1
  Mg  Mg0  1  0.00000000  0.50000000  0.50000000  1
  Mg  Mg1  1  0.50000000  0.50000000  0.50000000  1
  Mg  Mg2  1  0.22524573  0.00000000  0.50000000  1
  Mg  Mg3  1  0.77475427  -0.00000000  0.50000000  1
  Mg  Mg4  1  0.22524573  0.50000000  -0.00000000  1
  Mg  Mg5  1  0.77475427  0.50000000  0.00000000  1
  Sn  Sn0  1  0.00000000  -0.00000000  -0.00000000  1
  O  O0  1  0.30054103  -0.00000000  0.00000000  1
  O  O1  1  0.69945897  0.00000000  -0.00000000  1
  O  O2  1  0.21719402  0.50000000  0.50000000  1
  O  O3  1  0.78280598  0.50000000  0.50000000  1
  O  O4  1  0.00000000  -0.00000000  0.50000000  1
  O  O5  1  0.50000000  -0.00000000  0.50000000  1
  O  O6  1  0.00000000  0.50000000  -0.00000000  1
  O  O7  1  0.50000000  0.50000000  -0.00000000  1
loop_
_geom_bond_atom_site_label_1
_geom_bond_atom_site_label_2
_geom_bond_distance
_geom_bond_site_symmetry_2
Hf0 O0 2.057145 1_555
Hf0 O1 2.057145 1_555
Hf0 O7 2.179617 1_555
Hf0 O5 2.179617 1_554
Hf0 O5 2.179617 1_555
Hf0 O7 2.179617 1_545
Mg0 O6 2.179617 1_556
Mg0 O6 2.179617 1_555
Mg0 O4 2.179617 1_555
Mg0 O4 2.179617 1_565
Mg0 O2 2.240058 1_555
Mg0 O3 2.240058 1_455
Mg1 O5 2.179617 1_565
Mg1 O7 2.179617 1_555
Mg1 O7 2.179617 1_556
Mg1 O5 2.179617 1_555
Mg2 O2 2.181199 1_555
Mg2 O2 2.181199 1_545
Mg2 O0 2.313826 1_555
Mg2 O0 2.313826 1_556
Mg2 O4 2.323100 1_555
Mg3 O3 2.181199 1_555
Mg3 O3 2.181199 1_545
Mg3 O1 2.313826 1_555
Mg3 O1 2.313826 1_556
Mg3 O4 2.323100 1_655
Mg4 O2 2.181199 1_555
Mg4 O2 2.181199 1_554
Mg4 O0 2.313826 1_555
Mg4 O0 2.313826 1_565
Mg4 O6 2.323100 1_555
Mg5 O3 2.181199 1_555
Mg5 O3 2.181199 1_554
Mg5 O1 2.313826 1_555
Mg5 O1 2.313826 1_565
Mg5 O6 2.323100 1_655
O4 Sn0 2.179617 1_555
O4 Sn0 2.179617 1_556
O6 Sn0 2.179617 1_565
O6 Sn0 2.179617 1_555
