# generated using pymatgen
data_ZnH4C2(N2Cl)2
_symmetry_space_group_name_H-M   'P 1'
_cell_length_a   13.94200600
_cell_length_b   7.41885000
_cell_length_c   7.85384300
_cell_angle_alpha   90.00000000
_cell_angle_beta   90.00000000
_cell_angle_gamma   90.00000000
_symmetry_Int_Tables_number   1
_chemical_formula_structural   ZnH4C2(N2Cl)2
_chemical_formula_sum   'Zn4 H16 C8 N16 Cl8'
_cell_volume   812.35165754
_cell_formula_units_Z   4
loop_
 _symmetry_equiv_pos_site_id
 _symmetry_equiv_pos_as_xyz
  1  'x, y, z'
loop_
 _atom_site_type_symbol
 _atom_site_label
 _atom_site_symmetry_multiplicity
 _atom_site_fract_x
 _atom_site_fract_y
 _atom_site_fract_z
 _atom_site_occupancy
  Zn  Zn0  1  0.92606800  0.77632400  0.71916600  1
  Zn  Zn1  1  0.07393200  0.22367600  0.21916600  1
  Zn  Zn2  1  0.57393200  0.77632400  0.21916600  1
  Zn  Zn3  1  0.42606800  0.22367600  0.71916600  1
  H  H0  1  0.19846800  0.51688300  0.60892400  1
  H  H1  1  0.80153200  0.48311700  0.10892400  1
  H  H2  1  0.30153200  0.51688300  0.10892400  1
  H  H3  1  0.69846800  0.48311700  0.60892400  1
  H  H4  1  0.07391700  0.53426600  0.62807000  1
  H  H5  1  0.92608300  0.46573400  0.12807000  1
  H  H6  1  0.42608300  0.53426600  0.12807000  1
  H  H7  1  0.57391700  0.46573400  0.62807000  1
  H  H8  1  0.29719700  0.71579400  0.75663200  1
  H  H9  1  0.70280300  0.28420600  0.25663200  1
  H  H10  1  0.20280300  0.71579400  0.25663200  1
  H  H11  1  0.79719700  0.28420600  0.75663200  1
  H  H12  1  0.25021500  0.90901500  0.85133300  1
  H  H13  1  0.74978500  0.09098500  0.35133300  1
  H  H14  1  0.24978500  0.90901500  0.35133300  1
  H  H15  1  0.75021500  0.09098500  0.85133300  1
  C  C0  1  0.15103600  0.73228400  0.74704900  1
  C  C1  1  0.84896400  0.26771600  0.24704900  1
  C  C2  1  0.34896400  0.73228400  0.24704900  1
  C  C3  1  0.65103600  0.26771600  0.74704900  1
  C  C4  1  0.07739300  0.94296600  0.91740800  1
  C  C5  1  0.92260700  0.05703400  0.41740800  1
  C  C6  1  0.42260700  0.94296600  0.41740800  1
  C  C7  1  0.57739300  0.05703400  0.91740800  1
  N  N0  1  0.14041200  0.59006800  0.64539300  1
  N  N1  1  0.85958800  0.40993200  0.14539300  1
  N  N2  1  0.35958800  0.59006800  0.14539300  1
  N  N3  1  0.64041200  0.40993200  0.64539300  1
  N  N4  1  0.23802800  0.78561200  0.79613300  1
  N  N5  1  0.76197200  0.21438800  0.29613300  1
  N  N6  1  0.26197200  0.78561200  0.29613300  1
  N  N7  1  0.73802800  0.21438800  0.79613300  1
  N  N8  1  0.06987800  0.82089100  0.79912700  1
  N  N9  1  0.93012200  0.17910900  0.29912700  1
  N  N10  1  0.43012200  0.82089100  0.29912700  1
  N  N11  1  0.56987800  0.17910900  0.79912700  1
  N  N12  1  0.07896300  0.05306600  0.02462900  1
  N  N13  1  0.92103700  0.94693400  0.52462900  1
  N  N14  1  0.42103700  0.05306600  0.52462900  1
  N  N15  1  0.57896300  0.94693400  0.02462900  1
  Cl  Cl0  1  0.91124600  0.48808000  0.63310700  1
  Cl  Cl1  1  0.08875400  0.51192000  0.13310700  1
  Cl  Cl2  1  0.58875400  0.48808000  0.13310700  1
  Cl  Cl3  1  0.41124600  0.51192000  0.63310700  1
  Cl  Cl4  1  0.83803400  0.85136200  0.94603800  1
  Cl  Cl5  1  0.16196600  0.14863800  0.44603800  1
  Cl  Cl6  1  0.66196600  0.85136200  0.44603800  1
  Cl  Cl7  1  0.33803400  0.14863800  0.94603800  1
loop_
_geom_bond_atom_site_label_1
_geom_bond_atom_site_label_2
_geom_bond_distance
_geom_bond_site_symmetry_2
H0 N0 1.015867 1_555
H1 N1 1.015867 1_555
H2 N2 1.015867 1_555
H3 N3 1.015867 1_555
H4 N0 1.024383 1_555
H5 N1 1.024383 1_555
H6 N2 1.024383 1_555
H7 N3 1.024383 1_555
H8 N4 1.022279 1_555
H9 N5 1.022279 1_555
H10 N6 1.022279 1_555
H11 N7 1.022279 1_555
H12 N4 1.027120 1_555
H13 N5 1.027120 1_555
H14 N6 1.027120 1_555
H15 N7 1.027120 1_555
C0 N0 1.331375 1_555
C0 N4 1.332712 1_555
C0 N8 1.371029 1_555
C1 N1 1.331375 1_555
C1 N5 1.332712 1_555
C1 N9 1.371029 1_555
C2 N2 1.331375 1_555
C2 N6 1.332712 1_555
C2 N10 1.371029 1_555
C3 N3 1.331375 1_555
C3 N7 1.332712 1_555
C3 N11 1.371029 1_555
C4 N12 1.173369 1_566
C4 N8 1.301598 1_555
C5 N13 1.173369 1_545
C5 N9 1.301598 1_555
C6 N14 1.173369 1_565
C6 N10 1.301598 1_555
C7 N15 1.173369 1_546
C7 N11 1.301598 1_555
N8 Zn0 2.126906 1_455
N9 Zn1 2.126906 1_655
N10 Zn2 2.126906 1_555
N11 Zn3 2.126906 1_555
N12 Zn1 1.985285 1_555
N13 Zn0 1.985285 1_555
N14 Zn3 1.985285 1_555
N15 Zn2 1.985285 1_555
Cl0 Zn0 2.252212 1_555
Cl1 Zn1 2.252212 1_555
Cl2 Zn2 2.252212 1_555
Cl3 Zn3 2.252212 1_555
Cl4 Zn0 2.234104 1_555
Cl5 Zn1 2.234104 1_555
Cl6 Zn2 2.234104 1_555
Cl7 Zn3 2.234104 1_555
