# generated using pymatgen
data_ScGeRh
_symmetry_space_group_name_H-M   'P 1'
_cell_length_a   3.84301999
_cell_length_b   6.67059899
_cell_length_c   6.67059983
_cell_angle_alpha   119.99999043
_cell_angle_beta   90.00000000
_cell_angle_gamma   90.00000000
_symmetry_Int_Tables_number   1
_chemical_formula_structural   ScGeRh
_chemical_formula_sum   'Sc3 Ge3 Rh3'
_cell_volume   148.09249088
_cell_formula_units_Z   3
loop_
 _symmetry_equiv_pos_site_id
 _symmetry_equiv_pos_as_xyz
  1  'x, y, z'
loop_
 _atom_site_type_symbol
 _atom_site_label
 _atom_site_symmetry_multiplicity
 _atom_site_fract_x
 _atom_site_fract_y
 _atom_site_fract_z
 _atom_site_occupancy
  Sc  Sc0  1  0.50000000  0.58044378  0.00000000  1
  Sc  Sc1  1  0.50000000  0.41956472  0.41959351  1
  Sc  Sc2  1  0.50000000  0.99997120  0.58040649  1
  Ge  Ge0  1  -0.00000000  0.33331529  0.66667803  1
  Ge  Ge1  1  -0.00000000  0.66663626  0.33332197  1
  Ge  Ge2  1  0.50000000  0.00001646  -0.00000000  1
  Rh  Rh0  1  -0.00000000  0.24399484  0.00000000  1
  Rh  Rh1  1  0.00000000  0.75597544  0.75599243  1
  Rh  Rh2  1  0.00000000  0.99998301  0.24400757  1
loop_
_geom_bond_atom_site_label_1
_geom_bond_atom_site_label_2
_geom_bond_distance
_geom_bond_site_symmetry_2
Ge0 Rh0 2.573625 1_556
Ge0 Rh1 2.573754 1_555
Ge0 Rh2 2.573772 1_545
Ge0 Sc1 2.772733 1_455
Ge0 Sc1 2.772733 1_555
Ge0 Sc0 2.772750 1_456
Ge0 Sc0 2.772750 1_556
Ge0 Sc2 2.772752 1_445
Ge0 Sc2 2.772752 1_545
Ge1 Rh0 2.573621 1_555
Ge1 Rh2 2.573760 1_555
Ge1 Rh1 2.573769 1_555
Ge1 Sc2 2.772737 1_455
Ge1 Sc2 2.772737 1_555
Ge1 Sc1 2.772747 1_455
Ge1 Sc1 2.772747 1_555
Ge1 Sc0 2.772751 1_455
Ge1 Sc0 2.772751 1_555
Ge2 Rh0 2.518114 1_655
Ge2 Rh0 2.518114 1_555
Ge2 Rh2 2.518312 1_645
Ge2 Rh2 2.518312 1_545
Ge2 Rh1 2.518312 1_644
Ge2 Rh1 2.518312 1_544
Ge2 Sc2 2.798789 1_544
Ge2 Sc1 2.798790 1_555
Ge2 Sc0 2.798801 1_545
Rh0 Rh2 2.819243 1_545
Rh0 Rh1 2.819244 1_544
Rh0 Sc0 2.954514 1_455
Rh0 Sc0 2.954514 1_555
Rh0 Sc1 3.101593 1_455
Rh0 Sc1 3.101593 1_555
Rh0 Sc2 3.101593 1_444
Rh0 Sc2 3.101593 1_544
Rh1 Rh2 2.819219 1_556
Rh1 Sc1 2.954291 1_555
Rh1 Sc1 2.954291 1_455
Rh1 Sc0 3.101353 1_556
Rh1 Sc0 3.101353 1_456
Rh1 Sc2 3.101529 1_455
Rh1 Sc2 3.101529 1_555
Rh2 Sc2 2.954291 1_555
Rh2 Sc2 2.954291 1_455
Rh2 Sc0 3.101353 1_455
Rh2 Sc0 3.101353 1_555
Rh2 Sc1 3.101529 1_565
Rh2 Sc1 3.101529 1_465
