# generated using pymatgen
data_Mg2VFe3S8
_symmetry_space_group_name_H-M   'P 1'
_cell_length_a   7.01814373
_cell_length_b   6.93174696
_cell_length_c   6.99814824
_cell_angle_alpha   59.71260453
_cell_angle_beta   60.09997330
_cell_angle_gamma   59.69954758
_symmetry_Int_Tables_number   1
_chemical_formula_structural   Mg2VFe3S8
_chemical_formula_sum   'Mg2 V1 Fe3 S8'
_cell_volume   239.83546923
_cell_formula_units_Z   1
loop_
 _symmetry_equiv_pos_site_id
 _symmetry_equiv_pos_as_xyz
  1  'x, y, z'
loop_
 _atom_site_type_symbol
 _atom_site_label
 _atom_site_symmetry_multiplicity
 _atom_site_fract_x
 _atom_site_fract_y
 _atom_site_fract_z
 _atom_site_occupancy
  Mg  Mg0  1  0.87521200  0.87568700  0.87462700  1
  Mg  Mg1  1  0.12478900  0.12431900  0.12537200  1
  V  V0  1  0.49999700  0.99999600  0.50000700  1
  Fe  Fe0  1  0.50000600  0.50000400  0.49998800  1
  Fe  Fe1  1  0.50000200  0.49999700  0.00000200  1
  Fe  Fe2  1  0.00000000  0.49999600  0.50000700  1
  S  S0  1  0.74095400  0.72279200  0.74165600  1
  S  S1  1  0.25923100  0.27660300  0.70569800  1
  S  S2  1  0.26803200  0.69654200  0.26731900  1
  S  S3  1  0.70542200  0.27687700  0.25889000  1
  S  S4  1  0.73195100  0.30346700  0.73267000  1
  S  S5  1  0.29458200  0.72311100  0.74110800  1
  S  S6  1  0.25904500  0.27720300  0.25835500  1
  S  S7  1  0.74078100  0.72340200  0.29430200  1
loop_
_geom_bond_atom_site_label_1
_geom_bond_atom_site_label_2
_geom_bond_distance
_geom_bond_site_symmetry_2
Mg0 S7 2.396949 1_556
Mg0 S0 2.398664 1_555
Mg0 S5 2.401681 1_655
Mg0 S4 2.409697 1_565
Mg1 S1 2.396944 1_554
Mg1 S6 2.398657 1_555
Mg1 S3 2.401662 1_455
Mg1 S2 2.409680 1_545
Fe0 S3 2.296628 1_555
Fe0 S5 2.296640 1_555
Fe0 S7 2.300531 1_555
Fe0 S1 2.300532 1_555
Fe0 S4 2.307500 1_555
Fe0 S2 2.307584 1_555
Fe1 S3 2.297943 1_555
Fe1 S5 2.297977 1_554
Fe1 S0 2.298731 1_554
Fe1 S6 2.298755 1_555
Fe1 S2 2.302711 1_555
Fe1 S4 2.302723 1_554
Fe2 S0 2.299151 1_455
Fe2 S6 2.299151 1_555
Fe2 S7 2.302090 1_455
Fe2 S1 2.302091 1_555
Fe2 S2 2.310992 1_555
Fe2 S4 2.311007 1_455
S0 V0 2.388789 1_555
S1 V0 2.386061 1_545
S3 V0 2.389452 1_545
S5 V0 2.389427 1_555
S6 V0 2.388782 1_545
S7 V0 2.386057 1_555
