# generated using pymatgen
data_Cs2MgGe3Se8
_symmetry_space_group_name_H-M   'P 1'
_cell_length_a   7.85413900
_cell_length_b   13.29571152
_cell_length_c   18.13099190
_cell_angle_alpha   90.00000000
_cell_angle_beta   90.00000000
_cell_angle_gamma   90.00000000
_symmetry_Int_Tables_number   1
_chemical_formula_structural   Cs2MgGe3Se8
_chemical_formula_sum   'Cs8 Mg4 Ge12 Se32'
_cell_volume   1893.35360302
_cell_formula_units_Z   4
loop_
 _symmetry_equiv_pos_site_id
 _symmetry_equiv_pos_as_xyz
  1  'x, y, z'
loop_
 _atom_site_type_symbol
 _atom_site_label
 _atom_site_symmetry_multiplicity
 _atom_site_fract_x
 _atom_site_fract_y
 _atom_site_fract_z
 _atom_site_occupancy
  Cs  Cs0  1  0.75608626  0.62671448  0.05349282  1
  Cs  Cs1  1  0.74391374  0.37328552  0.55349282  1
  Cs  Cs2  1  0.25608626  0.87328552  0.94650718  1
  Cs  Cs3  1  0.24391374  0.12671448  0.44650718  1
  Cs  Cs4  1  0.26949131  0.80966819  0.34764970  1
  Cs  Cs5  1  0.23050869  0.19033181  0.84764970  1
  Cs  Cs6  1  0.76949131  0.69033181  0.65235030  1
  Cs  Cs7  1  0.73050869  0.30966819  0.15235030  1
  Mg  Mg0  1  0.98311772  0.50071216  0.34766686  1
  Mg  Mg1  1  0.51688228  0.49928784  0.84766686  1
  Mg  Mg2  1  0.48311772  0.99928784  0.65233314  1
  Mg  Mg3  1  0.01688228  0.00071216  0.15233314  1
  Ge  Ge0  1  0.76569987  0.04884758  0.32278787  1
  Ge  Ge1  1  0.73430013  0.95115242  0.82278787  1
  Ge  Ge2  1  0.26569987  0.45115242  0.67721213  1
  Ge  Ge3  1  0.23430013  0.54884758  0.17721213  1
  Ge  Ge4  1  0.73914500  0.94218998  0.48264333  1
  Ge  Ge5  1  0.76085500  0.05781002  0.98264333  1
  Ge  Ge6  1  0.23914500  0.55781002  0.51735667  1
  Ge  Ge7  1  0.26085500  0.44218998  0.01735667  1
  Ge  Ge8  1  0.51848707  0.97438637  0.15346263  1
  Ge  Ge9  1  0.98151293  0.02561363  0.65346263  1
  Ge  Ge10  1  0.01848707  0.52561363  0.84653737  1
  Ge  Ge11  1  0.48151293  0.47438637  0.34653737  1
  Se  Se0  1  0.99304169  0.61847608  0.23286339  1
  Se  Se1  1  0.50695831  0.38152392  0.73286339  1
  Se  Se2  1  0.49304169  0.88152392  0.76713661  1
  Se  Se3  1  0.00695831  0.11847608  0.26713661  1
  Se  Se4  1  0.98685667  0.61732829  0.46386548  1
  Se  Se5  1  0.51314333  0.38267171  0.96386548  1
  Se  Se6  1  0.48685667  0.88267171  0.53613452  1
  Se  Se7  1  0.01314333  0.11732829  0.03613452  1
  Se  Se8  1  0.76426219  0.87395563  0.15637258  1
  Se  Se9  1  0.73573781  0.12604437  0.65637258  1
  Se  Se10  1  0.26426219  0.62604437  0.84362742  1
  Se  Se11  1  0.23573781  0.37395563  0.34362742  1
  Se  Se12  1  0.77126174  0.62663197  0.84977601  1
  Se  Se13  1  0.72873826  0.37336803  0.34977601  1
  Se  Se14  1  0.27126174  0.87336803  0.15022399  1
  Se  Se15  1  0.22873826  0.12663197  0.65022399  1
  Se  Se16  1  0.77929791  0.87261104  0.35985302  1
  Se  Se17  1  0.72070209  0.12738896  0.85985302  1
  Se  Se18  1  0.27929791  0.62738896  0.64014698  1
  Se  Se19  1  0.22070209  0.37261104  0.14014698  1
  Se  Se20  1  0.73347785  0.11882953  0.44655373  1
  Se  Se21  1  0.76652215  0.88117047  0.94655373  1
  Se  Se22  1  0.23347785  0.38117047  0.55344627  1
  Se  Se23  1  0.26652215  0.61882953  0.05344627  1
  Se  Se24  1  0.50136221  0.58455098  0.23789695  1
  Se  Se25  1  0.99863779  0.41544902  0.73789695  1
  Se  Se26  1  0.00136221  0.91544902  0.76210305  1
  Se  Se27  1  0.49863779  0.08455098  0.26210305  1
  Se  Se28  1  0.49760781  0.59425034  0.44987017  1
  Se  Se29  1  0.00239219  0.40574966  0.94987017  1
  Se  Se30  1  0.99760781  0.90574966  0.55012983  1
  Se  Se31  1  0.50239219  0.09425034  0.05012983  1
loop_
_geom_bond_atom_site_label_1
_geom_bond_atom_site_label_2
_geom_bond_distance
_geom_bond_site_symmetry_2
Cs0 Se12 3.695511 1_554
Cs0 Se0 3.748627 1_555
Cs0 Se8 3.780146 1_555
Cs0 Se23 3.846534 1_555
Cs0 Se21 3.900251 1_554
Cs0 Se24 3.936412 1_555
Cs0 Se29 3.987901 1_654
Cs0 Se23 4.010405 1_655
Cs0 Se5 4.099979 1_554
Cs1 Se13 3.695511 1_555
Cs1 Se1 3.748627 1_555
Cs1 Se9 3.780146 1_555
Cs1 Se22 3.846534 1_655
Cs1 Se20 3.900251 1_555
Cs1 Se25 3.936412 1_555
Cs1 Se28 3.987901 1_555
Cs1 Se22 4.010405 1_555
Cs1 Se4 4.099979 1_555
Cs2 Se14 3.695511 1_556
Cs2 Se2 3.748627 1_555
Cs2 Se10 3.780146 1_555
Cs2 Se21 3.846534 1_455
Cs2 Se23 3.900251 1_556
Cs2 Se26 3.936412 1_555
Cs2 Se31 3.987901 1_566
Cs2 Se21 4.010405 1_555
Cs2 Se7 4.099979 1_566
Cs3 Se15 3.695511 1_555
Cs3 Se3 3.748627 1_555
Cs3 Se11 3.780146 1_555
Cs3 Se20 3.846534 1_555
Cs3 Se22 3.900251 1_555
Cs3 Se27 3.936412 1_555
Cs3 Se30 3.987901 1_445
Cs3 Se20 4.010405 1_455
Cs3 Se6 4.099979 1_545
Cs4 Se14 3.678381 1_555
Cs4 Se28 3.853341 1_555
Cs4 Se0 3.937985 1_455
Cs4 Se6 3.941505 1_555
Cs4 Se16 3.946159 1_455
Cs4 Se4 3.988409 1_455
Cs4 Se24 4.029267 1_555
Cs4 Se16 4.096591 1_555
Cs5 Se15 3.678381 1_555
Cs5 Se29 3.853341 1_555
Cs5 Se1 3.937985 1_555
Cs5 Se7 3.941505 1_556
Cs5 Se17 3.946159 1_555
Cs5 Se5 3.988409 1_555
Cs5 Se25 4.029267 1_455
Cs5 Se17 4.096591 1_455
Cs6 Se12 3.678381 1_555
Cs6 Se30 3.853341 1_555
Cs6 Se2 3.937985 1_555
Cs6 Se4 3.941505 1_555
Cs6 Se18 3.946159 1_555
Cs6 Se6 3.988409 1_555
Cs6 Se26 4.029267 1_655
Cs6 Se18 4.096591 1_655
Cs7 Se13 3.678381 1_555
Cs7 Se31 3.853341 1_555
Cs7 Se3 3.937985 1_655
Cs7 Se5 3.941505 1_554
Cs7 Se19 3.946159 1_655
Cs7 Se7 3.988409 1_655
Cs7 Se27 4.029267 1_555
Cs7 Se19 4.096591 1_555
Mg0 Se11 2.604298 1_655
Mg0 Se0 2.605822 1_555
Mg0 Se4 2.616006 1_555
Mg0 Se13 2.619138 1_555
Mg1 Se10 2.604298 1_555
Mg1 Se1 2.605822 1_555
Mg1 Se5 2.616006 1_555
Mg1 Se12 2.619138 1_555
Mg2 Se9 2.604298 1_565
Mg2 Se2 2.605822 1_555
Mg2 Se6 2.616006 1_555
Mg2 Se15 2.619138 1_565
Mg3 Se8 2.604298 1_445
Mg3 Se3 2.605822 1_555
Mg3 Se7 2.616006 1_555
Mg3 Se14 2.619138 1_545
Ge0 Se3 2.337883 1_655
Ge0 Se27 2.415706 1_555
Ge0 Se16 2.439993 1_545
Ge0 Se20 2.442402 1_555
Ge1 Se2 2.337883 1_555
Ge1 Se26 2.415706 1_655
Ge1 Se17 2.439993 1_565
Ge1 Se21 2.442402 1_555
Ge2 Se1 2.337883 1_555
Ge2 Se25 2.415706 1_455
Ge2 Se18 2.439993 1_555
Ge2 Se22 2.442402 1_555
Ge3 Se0 2.337883 1_455
Ge3 Se24 2.415706 1_555
Ge3 Se19 2.439993 1_555
Ge3 Se23 2.442402 1_555
Ge4 Se6 2.343756 1_555
Ge4 Se30 2.419265 1_555
Ge4 Se16 2.431404 1_555
Ge4 Se20 2.438406 1_565
Ge5 Se7 2.343756 1_656
Ge5 Se31 2.419265 1_556
Ge5 Se17 2.431404 1_555
Ge5 Se21 2.438406 1_545
Ge6 Se4 2.343756 1_455
Ge6 Se28 2.419265 1_555
Ge6 Se18 2.431404 1_555
Ge6 Se22 2.438406 1_555
Ge7 Se5 2.343756 1_554
Ge7 Se29 2.419265 1_554
Ge7 Se19 2.431404 1_555
Ge7 Se23 2.438406 1_555
Ge8 Se8 2.347778 1_555
Ge8 Se14 2.361728 1_555
Ge8 Se27 2.459603 1_565
Ge8 Se31 2.462902 1_565
Ge9 Se9 2.347778 1_555
Ge9 Se15 2.361728 1_655
Ge9 Se26 2.459603 1_645
Ge9 Se30 2.462902 1_545
Ge10 Se10 2.347778 1_555
Ge10 Se12 2.361728 1_455
Ge10 Se25 2.459603 1_455
Ge10 Se29 2.462902 1_555
Ge11 Se11 2.347778 1_555
Ge11 Se13 2.361728 1_555
Ge11 Se24 2.459603 1_555
Ge11 Se28 2.462902 1_555
