# generated using pymatgen
data_Cu2PO4
_symmetry_space_group_name_H-M   'P 1'
_cell_length_a   5.99624048
_cell_length_b   6.19315973
_cell_length_c   9.23363020
_cell_angle_alpha   73.98347303
_cell_angle_beta   84.14997349
_cell_angle_gamma   79.67638284
_symmetry_Int_Tables_number   1
_chemical_formula_structural   Cu2PO4
_chemical_formula_sum   'Cu8 P4 O16'
_cell_volume   323.75125605
_cell_formula_units_Z   4
loop_
 _symmetry_equiv_pos_site_id
 _symmetry_equiv_pos_as_xyz
  1  'x, y, z'
loop_
 _atom_site_type_symbol
 _atom_site_label
 _atom_site_symmetry_multiplicity
 _atom_site_fract_x
 _atom_site_fract_y
 _atom_site_fract_z
 _atom_site_occupancy
  Cu  Cu0  1  0.80794688  0.67189544  0.02990494  1
  Cu  Cu1  1  0.19205312  0.32810456  0.97009506  1
  Cu  Cu2  1  0.97483975  0.88330838  0.27163325  1
  Cu  Cu3  1  0.02516025  0.11669162  0.72836675  1
  Cu  Cu4  1  0.45138204  0.61575929  0.36553632  1
  Cu  Cu5  1  0.54861796  0.38424071  0.63446368  1
  Cu  Cu6  1  0.56453423  0.81192818  0.65449223  1
  Cu  Cu7  1  0.43546577  0.18807182  0.34550777  1
  P  P0  1  0.12071231  0.69868853  0.61748592  1
  P  P1  1  0.87928769  0.30131147  0.38251408  1
  P  P2  1  0.29072747  0.80506363  0.00096153  1
  P  P3  1  0.70927253  0.19493637  0.99903847  1
  O  O0  1  0.80493641  0.95045219  0.09106111  1
  O  O1  1  0.19506359  0.04954781  0.90893889  1
  O  O2  1  0.75927819  0.53944190  0.29898675  1
  O  O3  1  0.24072181  0.46055810  0.70101325  1
  O  O4  1  0.13445893  0.64575205  0.97765600  1
  O  O5  1  0.86554107  0.35424795  0.02234400  1
  O  O6  1  0.15113276  0.71253215  0.44599777  1
  O  O7  1  0.84886724  0.28746785  0.55400223  1
  O  O8  1  0.87592021  0.74351876  0.67083819  1
  O  O9  1  0.12407979  0.25648124  0.32916181  1
  O  O10  1  0.52738620  0.73942643  0.93717395  1
  O  O11  1  0.47261380  0.26057357  0.06282605  1
  O  O12  1  0.27926266  0.80135616  0.16813178  1
  O  O13  1  0.72073734  0.19864384  0.83186822  1
  O  O14  1  0.24500327  0.88464503  0.64553060  1
  O  O15  1  0.75499673  0.11535497  0.35446940  1
loop_
_geom_bond_atom_site_label_1
_geom_bond_atom_site_label_2
_geom_bond_distance
_geom_bond_site_symmetry_2
Cu0 O10 1.892639 1_554
Cu0 O0 1.954399 1_555
Cu0 O5 1.954879 1_555
Cu0 O4 1.956800 1_654
Cu0 O2 2.396790 1_555
Cu1 O11 1.892639 1_556
Cu1 O1 1.954399 1_555
Cu1 O4 1.954879 1_555
Cu1 O5 1.956800 1_456
Cu1 O3 2.396790 1_555
Cu2 O0 1.950044 1_555
Cu2 O6 1.958257 1_655
Cu2 O12 2.020643 1_655
Cu2 O15 2.027332 1_565
Cu2 O2 2.625454 1_555
Cu3 O1 1.950044 1_555
Cu3 O7 1.958257 1_455
Cu3 O13 2.020643 1_455
Cu3 O14 2.027332 1_545
Cu3 O3 2.625454 1_555
Cu4 O2 1.904146 1_555
Cu4 O6 1.933599 1_555
Cu4 O12 2.123901 1_555
Cu5 O3 1.904146 1_555
Cu5 O7 1.933599 1_555
Cu5 O13 2.123901 1_555
Cu6 O8 1.851254 1_555
Cu6 O14 1.892921 1_555
Cu6 O10 2.516911 1_555
Cu7 O9 1.851254 1_555
Cu7 O15 1.892921 1_555
Cu7 O11 2.516911 1_555
O0 P3 1.556190 1_564
O1 P2 1.556190 1_546
O2 P1 1.546850 1_555
O3 P0 1.546850 1_555
O4 P2 1.545125 1_556
O5 P3 1.545125 1_554
O6 P0 1.555562 1_555
O7 P1 1.555562 1_555
O8 P0 1.502103 1_655
O9 P1 1.502103 1_455
O10 P2 1.510259 1_556
O11 P3 1.510259 1_554
O12 P2 1.532088 1_555
O13 P3 1.532088 1_555
O14 P0 1.568552 1_555
O15 P1 1.568552 1_555
