# generated using pymatgen
data_KLiTb2(MoO4)4
_symmetry_space_group_name_H-M   'P 1'
_cell_length_a   6.92746899
_cell_length_b   6.92746899
_cell_length_c   19.63968307
_cell_angle_alpha   88.80352146
_cell_angle_beta   88.80352146
_cell_angle_gamma   135.12245075
_symmetry_Int_Tables_number   1
_chemical_formula_structural   KLiTb2(MoO4)4
_chemical_formula_sum   'K2 Li2 Tb4 Mo8 O32'
_cell_volume   664.02996076
_cell_formula_units_Z   2
loop_
 _symmetry_equiv_pos_site_id
 _symmetry_equiv_pos_as_xyz
  1  'x, y, z'
loop_
 _atom_site_type_symbol
 _atom_site_label
 _atom_site_symmetry_multiplicity
 _atom_site_fract_x
 _atom_site_fract_y
 _atom_site_fract_z
 _atom_site_occupancy
  K  K0  1  0.53102800  0.46897200  0.25000000  1
  K  K1  1  0.46897200  0.53102800  0.75000000  1
  Li  Li0  1  0.81327000  0.18673000  0.25000000  1
  Li  Li1  1  0.18673000  0.81327000  0.75000000  1
  Tb  Tb0  1  0.64780900  0.35399800  0.03245300  1
  Tb  Tb1  1  0.35219100  0.64600200  0.96754700  1
  Tb  Tb2  1  0.64600200  0.35219100  0.46754700  1
  Tb  Tb3  1  0.35399800  0.64780900  0.53245300  1
  Mo  Mo0  1  0.91884400  0.04352900  0.09183300  1
  Mo  Mo1  1  0.08115600  0.95647100  0.90816700  1
  Mo  Mo2  1  0.95647100  0.08115600  0.40816700  1
  Mo  Mo3  1  0.04352900  0.91884400  0.59183300  1
  Mo  Mo4  1  0.23214400  0.74708600  0.14813300  1
  Mo  Mo5  1  0.76785600  0.25291400  0.85186700  1
  Mo  Mo6  1  0.25291400  0.76785600  0.35186700  1
  Mo  Mo7  1  0.74708600  0.23214400  0.64813300  1
  O  O0  1  0.66773100  0.00712500  0.04234200  1
  O  O1  1  0.33226900  0.99287500  0.95765800  1
  O  O2  1  0.99287500  0.33226900  0.45765800  1
  O  O3  1  0.00712500  0.66773100  0.54234200  1
  O  O4  1  0.48997100  0.76837100  0.17332400  1
  O  O5  1  0.51002900  0.23162900  0.82667600  1
  O  O6  1  0.23162900  0.51002900  0.32667600  1
  O  O7  1  0.76837100  0.48997100  0.67332400  1
  O  O8  1  0.72202500  0.76117600  0.46278500  1
  O  O9  1  0.27797500  0.23882400  0.53721500  1
  O  O10  1  0.23882400  0.27797500  0.03721500  1
  O  O11  1  0.76117600  0.72202500  0.96278500  1
  O  O12  1  0.43628200  0.91635000  0.43322700  1
  O  O13  1  0.56371800  0.08365000  0.56677300  1
  O  O14  1  0.08365000  0.56371800  0.06677300  1
  O  O15  1  0.91635000  0.43628200  0.93322700  1
  O  O16  1  0.80026800  0.98320100  0.32938800  1
  O  O17  1  0.19973200  0.01679900  0.67061200  1
  O  O18  1  0.01679900  0.19973200  0.17061200  1
  O  O19  1  0.98320100  0.80026800  0.82938800  1
  O  O20  1  0.72154200  0.81284800  0.60152500  1
  O  O21  1  0.27845800  0.18715200  0.39847500  1
  O  O22  1  0.18715200  0.27845800  0.89847500  1
  O  O23  1  0.81284800  0.72154200  0.10152500  1
  O  O24  1  0.39934000  0.09762500  0.13223100  1
  O  O25  1  0.60066000  0.90237500  0.86776900  1
  O  O26  1  0.90237500  0.60066000  0.36776900  1
  O  O27  1  0.09762500  0.39934000  0.63223100  1
  O  O28  1  0.43534300  0.02847300  0.28612300  1
  O  O29  1  0.56465700  0.97152700  0.71387700  1
  O  O30  1  0.97152700  0.56465700  0.21387700  1
  O  O31  1  0.02847300  0.43534300  0.78612300  1
loop_
_geom_bond_atom_site_label_1
_geom_bond_atom_site_label_2
_geom_bond_distance
_geom_bond_site_symmetry_2
K0 O28 2.697754 1_555
K0 O30 2.697754 1_555
K0 O6 2.715492 1_555
K0 O4 2.715492 1_555
K0 O18 3.088161 1_555
K0 O16 3.088161 1_555
K0 O26 3.132143 1_555
K0 O24 3.132143 1_555
K0 O23 3.175527 1_555
K0 O21 3.175527 1_555
K1 O31 2.697754 1_555
K1 O29 2.697754 1_555
K1 O5 2.715492 1_555
K1 O7 2.715492 1_555
K1 O17 3.088161 1_555
K1 O19 3.088161 1_555
K1 O27 3.132143 1_555
K1 O25 3.132143 1_555
K1 O20 3.175527 1_555
K1 O22 3.175527 1_555
Li0 O18 2.036998 1_655
Li0 O16 2.036998 1_545
Li0 O30 2.093250 1_555
Li0 O28 2.093250 1_555
Li1 O19 2.036998 1_455
Li1 O17 2.036998 1_565
Li1 O29 2.093250 1_555
Li1 O31 2.093250 1_555
Mo0 O18 1.760203 1_655
Mo0 O23 1.790526 1_545
Mo0 O10 1.851406 1_655
Mo0 O0 1.869117 1_555
Mo1 O19 1.760203 1_455
Mo1 O22 1.790526 1_565
Mo1 O11 1.851406 1_455
Mo1 O1 1.869117 1_555
Mo2 O16 1.760203 1_545
Mo2 O21 1.790526 1_655
Mo2 O8 1.851406 1_545
Mo2 O2 1.869117 1_555
Mo3 O17 1.760203 1_565
Mo3 O20 1.790526 1_455
Mo3 O9 1.851406 1_565
Mo3 O3 1.869117 1_555
Mo4 O4 1.767295 1_555
Mo4 O30 1.767687 1_455
Mo4 O24 1.817422 1_565
Mo4 O14 1.877904 1_555
Mo5 O5 1.767295 1_555
Mo5 O31 1.767687 1_655
Mo5 O25 1.817422 1_545
Mo5 O15 1.877904 1_555
Mo6 O6 1.767295 1_555
Mo6 O28 1.767687 1_565
Mo6 O26 1.817422 1_455
Mo6 O12 1.877904 1_555
Mo7 O7 1.767295 1_555
Mo7 O29 1.767687 1_545
Mo7 O27 1.817422 1_655
Mo7 O13 1.877904 1_555
O0 Tb1 2.394136 1_544
O0 Tb0 2.506505 1_555
O1 Tb0 2.394136 1_566
O1 Tb1 2.506505 1_555
O2 Tb3 2.394136 1_655
O2 Tb2 2.506505 1_555
O3 Tb2 2.394136 1_455
O3 Tb3 2.506505 1_555
O8 Tb3 2.441441 1_555
O8 Tb2 2.487068 1_555
O9 Tb2 2.441441 1_555
O9 Tb3 2.487068 1_555
O10 Tb1 2.441441 1_554
O10 Tb0 2.487068 1_555
O11 Tb0 2.441441 1_556
O11 Tb1 2.487068 1_555
O12 Tb2 2.364374 1_565
O12 Tb3 2.425433 1_555
O13 Tb3 2.364374 1_545
O13 Tb2 2.425433 1_555
O14 Tb0 2.364374 1_455
O14 Tb1 2.425433 1_554
O15 Tb1 2.364374 1_655
O15 Tb0 2.425433 1_556
O20 Tb3 2.390330 1_555
O21 Tb2 2.390330 1_555
O22 Tb1 2.390330 1_555
O23 Tb0 2.390330 1_555
O24 Tb0 2.310491 1_555
O25 Tb1 2.310491 1_555
O26 Tb2 2.310491 1_555
O27 Tb3 2.310491 1_555
