# generated using pymatgen
data_Ba3UFeS6
_symmetry_space_group_name_H-M   'P 1'
_cell_length_a   8.33579030
_cell_length_b   8.33579030
_cell_length_c   8.33579000
_cell_angle_alpha   94.10865171
_cell_angle_beta   94.10865171
_cell_angle_gamma   94.10865844
_symmetry_Int_Tables_number   1
_chemical_formula_structural   Ba3UFeS6
_chemical_formula_sum   'Ba6 U2 Fe2 S12'
_cell_volume   574.52359895
_cell_formula_units_Z   2
loop_
 _symmetry_equiv_pos_site_id
 _symmetry_equiv_pos_as_xyz
  1  'x, y, z'
loop_
 _atom_site_type_symbol
 _atom_site_label
 _atom_site_symmetry_multiplicity
 _atom_site_fract_x
 _atom_site_fract_y
 _atom_site_fract_z
 _atom_site_occupancy
  Ba  Ba0  1  0.36739200  0.13260800  0.75000000  1
  Ba  Ba1  1  0.75000000  0.36739200  0.13260800  1
  Ba  Ba2  1  0.13260800  0.75000000  0.36739200  1
  Ba  Ba3  1  0.25000000  0.63260800  0.86739200  1
  Ba  Ba4  1  0.86739200  0.25000000  0.63260800  1
  Ba  Ba5  1  0.63260800  0.86739200  0.25000000  1
  U  U0  1  0.25000000  0.25000000  0.25000000  1
  U  U1  1  0.75000000  0.75000000  0.75000000  1
  Fe  Fe0  1  0.50000000  0.50000000  0.50000000  1
  Fe  Fe1  1  0.00000000  0.00000000  0.00000000  1
  S  S0  1  0.20311900  0.41275000  0.53254600  1
  S  S1  1  0.53254600  0.20311900  0.41275000  1
  S  S2  1  0.41275000  0.53254600  0.20311900  1
  S  S3  1  0.03254600  0.91275000  0.70311900  1
  S  S4  1  0.70311900  0.03254600  0.91275000  1
  S  S5  1  0.91275000  0.70311900  0.03254600  1
  S  S6  1  0.79688100  0.58725000  0.46745400  1
  S  S7  1  0.46745400  0.79688100  0.58725000  1
  S  S8  1  0.58725000  0.46745400  0.79688100  1
  S  S9  1  0.96745400  0.08725000  0.29688100  1
  S  S10  1  0.29688100  0.96745400  0.08725000  1
  S  S11  1  0.08725000  0.29688100  0.96745400  1
loop_
_geom_bond_atom_site_label_1
_geom_bond_atom_site_label_2
_geom_bond_distance
_geom_bond_site_symmetry_2
Ba0 S3 3.210973 1_545
Ba0 S8 3.210973 1_555
Ba0 S7 3.212583 1_545
Ba0 S4 3.212583 1_555
Ba0 S1 3.289263 1_555
Ba0 S10 3.289263 1_546
Ba0 S0 3.364980 1_555
Ba0 S11 3.364980 1_555
Ba1 S6 3.210973 1_555
Ba1 S4 3.210973 1_554
Ba1 S5 3.212583 1_555
Ba1 S8 3.212583 1_554
Ba1 S11 3.289263 1_654
Ba1 S2 3.289263 1_555
Ba1 S1 3.364980 1_555
Ba1 S9 3.364980 1_555
Ba2 S5 3.210973 1_455
Ba2 S7 3.210973 1_555
Ba2 S6 3.212583 1_455
Ba2 S3 3.212583 1_555
Ba2 S0 3.289263 1_555
Ba2 S9 3.289263 1_465
Ba2 S10 3.364980 1_555
Ba2 S2 3.364980 1_555
Ba3 S0 3.210973 1_555
Ba3 S10 3.210973 1_556
Ba3 S11 3.212583 1_555
Ba3 S2 3.212583 1_556
Ba3 S5 3.289263 1_456
Ba3 S8 3.289263 1_555
Ba3 S7 3.364980 1_555
Ba3 S3 3.364980 1_555
Ba4 S11 3.210973 1_655
Ba4 S1 3.210973 1_555
Ba4 S0 3.212583 1_655
Ba4 S9 3.212583 1_555
Ba4 S6 3.289263 1_555
Ba4 S3 3.289263 1_645
Ba4 S4 3.364980 1_555
Ba4 S8 3.364980 1_555
Ba5 S2 3.210973 1_555
Ba5 S9 3.210973 1_565
Ba5 S10 3.212583 1_555
Ba5 S1 3.212583 1_565
Ba5 S4 3.289263 1_564
Ba5 S7 3.289263 1_555
Ba5 S6 3.364980 1_555
Ba5 S5 3.364980 1_555
Fe0 S6 2.567773 1_555
Fe0 S0 2.567773 1_555
Fe0 S8 2.567773 1_555
Fe0 S2 2.567773 1_555
Fe0 S1 2.567773 1_555
Fe0 S7 2.567773 1_555
Fe1 S11 2.567773 1_554
Fe1 S5 2.567773 1_445
Fe1 S3 2.567773 1_544
Fe1 S9 2.567773 1_455
Fe1 S4 2.567773 1_454
Fe1 S10 2.567773 1_545
S0 U0 2.700072 1_555
S1 U0 2.700072 1_555
S2 U0 2.700071 1_555
S3 U1 2.700071 1_455
S4 U1 2.700072 1_545
S5 U1 2.700072 1_554
S6 U1 2.700072 1_555
S7 U1 2.700072 1_555
S8 U1 2.700071 1_555
S9 U0 2.700071 1_655
S10 U0 2.700072 1_565
S11 U0 2.700072 1_556
