# generated using pymatgen
data_Sc5(In2Co)2
_symmetry_space_group_name_H-M   'P 1'
_cell_length_a   6.67092600
_cell_length_b   15.22449200
_cell_length_c   34.72804400
_cell_angle_alpha   90.00000000
_cell_angle_beta   90.00000000
_cell_angle_gamma   90.00000000
_symmetry_Int_Tables_number   1
_chemical_formula_structural   Sc5(In2Co)2
_chemical_formula_sum   'Sc80 In64 Co32'
_cell_volume   3527.03083490
_cell_formula_units_Z   16
loop_
 _symmetry_equiv_pos_site_id
 _symmetry_equiv_pos_as_xyz
  1  'x, y, z'
loop_
 _atom_site_type_symbol
 _atom_site_label
 _atom_site_symmetry_multiplicity
 _atom_site_fract_x
 _atom_site_fract_y
 _atom_site_fract_z
 _atom_site_occupancy
  Sc  Sc0_0  1  0.25000000  0.25000000  0.25000000  1
  Sc  Sc0_1  1  0.25000000  0.25000000  0.75000000  1
  Sc  Sc0_2  1  0.25000000  0.75000000  0.25000000  1
  Sc  Sc0_3  1  0.25000000  0.75000000  0.75000000  1
  Sc  Sc0_4  1  0.75000000  0.25000000  0.25000000  1
  Sc  Sc0_5  1  0.75000000  0.25000000  0.75000000  1
  Sc  Sc0_6  1  0.75000000  0.75000000  0.25000000  1
  Sc  Sc0_7  1  0.75000000  0.75000000  0.75000000  1
  Sc  Sc1_0  1  0.25000000  0.00000000  0.00000000  1
  Sc  Sc1_1  1  0.25000000  0.00000000  0.50000000  1
  Sc  Sc1_2  1  0.25000000  0.50000000  0.00000000  1
  Sc  Sc1_3  1  0.25000000  0.50000000  0.50000000  1
  Sc  Sc1_4  1  0.75000000  0.00000000  0.00000000  1
  Sc  Sc1_5  1  0.75000000  0.00000000  0.50000000  1
  Sc  Sc1_6  1  0.75000000  0.50000000  0.00000000  1
  Sc  Sc1_7  1  0.75000000  0.50000000  0.50000000  1
  Sc  Sc2_0  1  0.25000000  0.43839150  0.20548550  1
  Sc  Sc2_1  1  0.25000000  0.43839150  0.70548550  1
  Sc  Sc2_2  1  0.25000000  0.93839150  0.20548550  1
  Sc  Sc2_3  1  0.25000000  0.93839150  0.70548550  1
  Sc  Sc2_4  1  0.75000000  0.43839150  0.20548550  1
  Sc  Sc2_5  1  0.75000000  0.43839150  0.70548550  1
  Sc  Sc2_6  1  0.75000000  0.93839150  0.20548550  1
  Sc  Sc2_7  1  0.75000000  0.93839150  0.70548550  1
  Sc  Sc3_0  1  0.25000000  0.06160850  0.29451450  1
  Sc  Sc3_1  1  0.25000000  0.06160850  0.79451450  1
  Sc  Sc3_2  1  0.25000000  0.56160850  0.29451450  1
  Sc  Sc3_3  1  0.25000000  0.56160850  0.79451450  1
  Sc  Sc3_4  1  0.75000000  0.06160850  0.29451450  1
  Sc  Sc3_5  1  0.75000000  0.06160850  0.79451450  1
  Sc  Sc3_6  1  0.75000000  0.56160850  0.29451450  1
  Sc  Sc3_7  1  0.75000000  0.56160850  0.79451450  1
  Sc  Sc4_0  1  0.25000000  0.31160850  0.45548550  1
  Sc  Sc4_1  1  0.25000000  0.31160850  0.95548550  1
  Sc  Sc4_2  1  0.25000000  0.81160850  0.45548550  1
  Sc  Sc4_3  1  0.25000000  0.81160850  0.95548550  1
  Sc  Sc4_4  1  0.75000000  0.31160850  0.45548550  1
  Sc  Sc4_5  1  0.75000000  0.31160850  0.95548550  1
  Sc  Sc4_6  1  0.75000000  0.81160850  0.45548550  1
  Sc  Sc4_7  1  0.75000000  0.81160850  0.95548550  1
  Sc  Sc5_0  1  0.25000000  0.18839150  0.04451450  1
  Sc  Sc5_1  1  0.25000000  0.18839150  0.54451450  1
  Sc  Sc5_2  1  0.25000000  0.68839150  0.04451450  1
  Sc  Sc5_3  1  0.25000000  0.68839150  0.54451450  1
  Sc  Sc5_4  1  0.75000000  0.18839150  0.04451450  1
  Sc  Sc5_5  1  0.75000000  0.18839150  0.54451450  1
  Sc  Sc5_6  1  0.75000000  0.68839150  0.04451450  1
  Sc  Sc5_7  1  0.75000000  0.68839150  0.54451450  1
  Sc  Sc6_0  1  0.25000000  0.12287750  0.13937400  1
  Sc  Sc6_1  1  0.25000000  0.12287750  0.63937400  1
  Sc  Sc6_2  1  0.25000000  0.62287750  0.13937400  1
  Sc  Sc6_3  1  0.25000000  0.62287750  0.63937400  1
  Sc  Sc6_4  1  0.75000000  0.12287750  0.13937400  1
  Sc  Sc6_5  1  0.75000000  0.12287750  0.63937400  1
  Sc  Sc6_6  1  0.75000000  0.62287750  0.13937400  1
  Sc  Sc6_7  1  0.75000000  0.62287750  0.63937400  1
  Sc  Sc7_0  1  0.25000000  0.37712250  0.36062600  1
  Sc  Sc7_1  1  0.25000000  0.37712250  0.86062600  1
  Sc  Sc7_2  1  0.25000000  0.87712250  0.36062600  1
  Sc  Sc7_3  1  0.25000000  0.87712250  0.86062600  1
  Sc  Sc7_4  1  0.75000000  0.37712250  0.36062600  1
  Sc  Sc7_5  1  0.75000000  0.37712250  0.86062600  1
  Sc  Sc7_6  1  0.75000000  0.87712250  0.36062600  1
  Sc  Sc7_7  1  0.75000000  0.87712250  0.86062600  1
  Sc  Sc8_0  1  0.25000000  0.12712250  0.38937400  1
  Sc  Sc8_1  1  0.25000000  0.12712250  0.88937400  1
  Sc  Sc8_2  1  0.25000000  0.62712250  0.38937400  1
  Sc  Sc8_3  1  0.25000000  0.62712250  0.88937400  1
  Sc  Sc8_4  1  0.75000000  0.12712250  0.38937400  1
  Sc  Sc8_5  1  0.75000000  0.12712250  0.88937400  1
  Sc  Sc8_6  1  0.75000000  0.62712250  0.38937400  1
  Sc  Sc8_7  1  0.75000000  0.62712250  0.88937400  1
  Sc  Sc9_0  1  0.25000000  0.37287750  0.11062600  1
  Sc  Sc9_1  1  0.25000000  0.37287750  0.61062600  1
  Sc  Sc9_2  1  0.25000000  0.87287750  0.11062600  1
  Sc  Sc9_3  1  0.25000000  0.87287750  0.61062600  1
  Sc  Sc9_4  1  0.75000000  0.37287750  0.11062600  1
  Sc  Sc9_5  1  0.75000000  0.37287750  0.61062600  1
  Sc  Sc9_6  1  0.75000000  0.87287750  0.11062600  1
  Sc  Sc9_7  1  0.75000000  0.87287750  0.61062600  1
  In  In0_0  1  0.00000000  0.10028350  0.21604900  1
  In  In0_1  1  0.00000000  0.10028350  0.71604900  1
  In  In0_2  1  0.00000000  0.60028350  0.21604900  1
  In  In0_3  1  0.00000000  0.60028350  0.71604900  1
  In  In0_4  1  0.50000000  0.10028350  0.21604900  1
  In  In0_5  1  0.50000000  0.10028350  0.71604900  1
  In  In0_6  1  0.50000000  0.60028350  0.21604900  1
  In  In0_7  1  0.50000000  0.60028350  0.71604900  1
  In  In1_0  1  0.00000000  0.39971650  0.28395100  1
  In  In1_1  1  0.00000000  0.39971650  0.78395100  1
  In  In1_2  1  0.00000000  0.89971650  0.28395100  1
  In  In1_3  1  0.00000000  0.89971650  0.78395100  1
  In  In1_4  1  0.50000000  0.39971650  0.28395100  1
  In  In1_5  1  0.50000000  0.39971650  0.78395100  1
  In  In1_6  1  0.50000000  0.89971650  0.28395100  1
  In  In1_7  1  0.50000000  0.89971650  0.78395100  1
  In  In2_0  1  0.00000000  0.14971650  0.46604900  1
  In  In2_1  1  0.00000000  0.14971650  0.96604900  1
  In  In2_2  1  0.00000000  0.64971650  0.46604900  1
  In  In2_3  1  0.00000000  0.64971650  0.96604900  1
  In  In2_4  1  0.50000000  0.14971650  0.46604900  1
  In  In2_5  1  0.50000000  0.14971650  0.96604900  1
  In  In2_6  1  0.50000000  0.64971650  0.46604900  1
  In  In2_7  1  0.50000000  0.64971650  0.96604900  1
  In  In3_0  1  0.00000000  0.35028350  0.03395100  1
  In  In3_1  1  0.00000000  0.35028350  0.53395100  1
  In  In3_2  1  0.00000000  0.85028350  0.03395100  1
  In  In3_3  1  0.00000000  0.85028350  0.53395100  1
  In  In3_4  1  0.50000000  0.35028350  0.03395100  1
  In  In3_5  1  0.50000000  0.35028350  0.53395100  1
  In  In3_6  1  0.50000000  0.85028350  0.03395100  1
  In  In3_7  1  0.50000000  0.85028350  0.53395100  1
  In  In4_0  1  0.00000000  0.28479200  0.17390700  1
  In  In4_1  1  0.00000000  0.28479200  0.67390700  1
  In  In4_2  1  0.00000000  0.78479200  0.17390700  1
  In  In4_3  1  0.00000000  0.78479200  0.67390700  1
  In  In4_4  1  0.50000000  0.28479200  0.17390700  1
  In  In4_5  1  0.50000000  0.28479200  0.67390700  1
  In  In4_6  1  0.50000000  0.78479200  0.17390700  1
  In  In4_7  1  0.50000000  0.78479200  0.67390700  1
  In  In5_0  1  0.00000000  0.21520800  0.32609300  1
  In  In5_1  1  0.00000000  0.21520800  0.82609300  1
  In  In5_2  1  0.00000000  0.71520800  0.32609300  1
  In  In5_3  1  0.00000000  0.71520800  0.82609300  1
  In  In5_4  1  0.50000000  0.21520800  0.32609300  1
  In  In5_5  1  0.50000000  0.21520800  0.82609300  1
  In  In5_6  1  0.50000000  0.71520800  0.32609300  1
  In  In5_7  1  0.50000000  0.71520800  0.82609300  1
  In  In6_0  1  0.00000000  0.46520800  0.42390700  1
  In  In6_1  1  0.00000000  0.46520800  0.92390700  1
  In  In6_2  1  0.00000000  0.96520800  0.42390700  1
  In  In6_3  1  0.00000000  0.96520800  0.92390700  1
  In  In6_4  1  0.50000000  0.46520800  0.42390700  1
  In  In6_5  1  0.50000000  0.46520800  0.92390700  1
  In  In6_6  1  0.50000000  0.96520800  0.42390700  1
  In  In6_7  1  0.50000000  0.96520800  0.92390700  1
  In  In7_0  1  0.00000000  0.03479200  0.07609300  1
  In  In7_1  1  0.00000000  0.03479200  0.57609300  1
  In  In7_2  1  0.00000000  0.53479200  0.07609300  1
  In  In7_3  1  0.00000000  0.53479200  0.57609300  1
  In  In7_4  1  0.50000000  0.03479200  0.07609300  1
  In  In7_5  1  0.50000000  0.03479200  0.57609300  1
  In  In7_6  1  0.50000000  0.53479200  0.07609300  1
  In  In7_7  1  0.50000000  0.53479200  0.57609300  1
  Co  Co0_0  1  0.00000000  0.48145900  0.15303600  1
  Co  Co0_1  1  0.00000000  0.48145900  0.65303600  1
  Co  Co0_2  1  0.00000000  0.98145900  0.15303600  1
  Co  Co0_3  1  0.00000000  0.98145900  0.65303600  1
  Co  Co0_4  1  0.50000000  0.48145900  0.15303600  1
  Co  Co0_5  1  0.50000000  0.48145900  0.65303600  1
  Co  Co0_6  1  0.50000000  0.98145900  0.15303600  1
  Co  Co0_7  1  0.50000000  0.98145900  0.65303600  1
  Co  Co1_0  1  0.00000000  0.01854100  0.34696400  1
  Co  Co1_1  1  0.00000000  0.01854100  0.84696400  1
  Co  Co1_2  1  0.00000000  0.51854100  0.34696400  1
  Co  Co1_3  1  0.00000000  0.51854100  0.84696400  1
  Co  Co1_4  1  0.50000000  0.01854100  0.34696400  1
  Co  Co1_5  1  0.50000000  0.01854100  0.84696400  1
  Co  Co1_6  1  0.50000000  0.51854100  0.34696400  1
  Co  Co1_7  1  0.50000000  0.51854100  0.84696400  1
  Co  Co2_0  1  0.00000000  0.26854100  0.40303600  1
  Co  Co2_1  1  0.00000000  0.26854100  0.90303600  1
  Co  Co2_2  1  0.00000000  0.76854100  0.40303600  1
  Co  Co2_3  1  0.00000000  0.76854100  0.90303600  1
  Co  Co2_4  1  0.50000000  0.26854100  0.40303600  1
  Co  Co2_5  1  0.50000000  0.26854100  0.90303600  1
  Co  Co2_6  1  0.50000000  0.76854100  0.40303600  1
  Co  Co2_7  1  0.50000000  0.76854100  0.90303600  1
  Co  Co3_0  1  0.00000000  0.23145900  0.09696400  1
  Co  Co3_1  1  0.00000000  0.23145900  0.59696400  1
  Co  Co3_2  1  0.00000000  0.73145900  0.09696400  1
  Co  Co3_3  1  0.00000000  0.73145900  0.59696400  1
  Co  Co3_4  1  0.50000000  0.23145900  0.09696400  1
  Co  Co3_5  1  0.50000000  0.23145900  0.59696400  1
  Co  Co3_6  1  0.50000000  0.73145900  0.09696400  1
  Co  Co3_7  1  0.50000000  0.73145900  0.59696400  1
loop_
_geom_bond_atom_site_label_1
_geom_bond_atom_site_label_2
_geom_bond_distance
_geom_bond_site_symmetry_2
In0_0 Sc2_2 2.998461 1_545
In0_0 Sc2_6 2.998461 1_445
In0_0 Sc0_4 3.060549 1_455
In0_0 Sc0_0 3.060549 1_555
In0_0 Sc6_4 3.160698 1_455
In0_0 Sc6_0 3.160698 1_555
In0_0 In4_0 3.167430 1_555
In0_0 Sc3_0 3.248599 1_555
In0_0 Sc3_4 3.248599 1_455
In0_1 Sc2_7 2.998461 1_445
In0_1 Sc2_3 2.998461 1_545
In0_1 Sc0_1 3.060549 1_555
In0_1 Sc0_5 3.060549 1_455
In0_1 Sc6_1 3.160698 1_555
In0_1 Sc6_5 3.160698 1_455
In0_1 In4_1 3.167430 1_555
In0_1 Sc3_1 3.248599 1_555
In0_1 Sc3_5 3.248599 1_455
In0_2 Sc2_4 2.998461 1_455
In0_2 Sc2_0 2.998461 1_555
In0_2 Sc0_6 3.060549 1_455
In0_2 Sc0_2 3.060549 1_555
In0_2 Sc6_6 3.160698 1_455
In0_2 Sc6_2 3.160698 1_555
In0_2 In4_2 3.167430 1_555
In0_2 Sc3_6 3.248599 1_455
In0_2 Sc3_2 3.248599 1_555
In0_3 Sc2_1 2.998461 1_555
In0_3 Sc2_5 2.998461 1_455
In0_3 Sc0_3 3.060549 1_555
In0_3 Sc0_7 3.060549 1_455
In0_3 Sc6_3 3.160698 1_555
In0_3 Sc6_7 3.160698 1_455
In0_3 In4_3 3.167430 1_555
In0_3 Sc3_3 3.248599 1_555
In0_3 Sc3_7 3.248599 1_455
In0_4 Sc2_2 2.998461 1_545
In0_4 Sc2_6 2.998461 1_545
In0_4 Sc0_0 3.060549 1_555
In0_4 Sc0_4 3.060549 1_555
In0_4 Sc6_0 3.160698 1_555
In0_4 Sc6_4 3.160698 1_555
In0_4 In4_4 3.167430 1_555
In0_4 Sc3_0 3.248599 1_555
In0_4 Sc3_4 3.248599 1_555
In0_5 Sc2_3 2.998461 1_545
In0_5 Sc2_7 2.998461 1_545
In0_5 Sc0_1 3.060549 1_555
In0_5 Sc0_5 3.060549 1_555
In0_5 Sc6_5 3.160698 1_555
In0_5 Sc6_1 3.160698 1_555
In0_5 In4_5 3.167430 1_555
In0_5 Sc3_1 3.248599 1_555
In0_5 Sc3_5 3.248599 1_555
In0_6 Sc2_4 2.998461 1_555
In0_6 Sc2_0 2.998461 1_555
In0_6 Sc0_2 3.060549 1_555
In0_6 Sc0_6 3.060549 1_555
In0_6 Sc6_6 3.160698 1_555
In0_6 Sc6_2 3.160698 1_555
In0_6 In4_6 3.167430 1_555
In0_6 Sc3_6 3.248599 1_555
In0_6 Sc3_2 3.248599 1_555
In0_7 Sc2_5 2.998461 1_555
In0_7 Sc2_1 2.998461 1_555
In0_7 Sc0_3 3.060549 1_555
In0_7 Sc0_7 3.060549 1_555
In0_7 Sc6_3 3.160698 1_555
In0_7 Sc6_7 3.160698 1_555
In0_7 In4_7 3.167430 1_555
In0_7 Sc3_7 3.248599 1_555
In0_7 Sc3_3 3.248599 1_555
In1_0 Sc3_2 2.998461 1_555
In1_0 Sc3_6 2.998461 1_455
In1_0 Sc0_0 3.060549 1_555
In1_0 Sc0_4 3.060549 1_455
In1_0 Sc7_4 3.160698 1_455
In1_0 Sc7_0 3.160698 1_555
In1_0 In5_0 3.167430 1_555
In1_0 Sc2_4 3.248599 1_455
In1_0 Sc2_0 3.248599 1_555
In1_1 Sc3_3 2.998461 1_555
In1_1 Sc3_7 2.998461 1_455
In1_1 Sc0_5 3.060549 1_455
In1_1 Sc0_1 3.060549 1_555
In1_1 Sc7_1 3.160698 1_555
In1_1 Sc7_5 3.160698 1_455
In1_1 In5_1 3.167430 1_555
In1_1 Sc2_1 3.248599 1_555
In1_1 Sc2_5 3.248599 1_455
In1_2 Sc3_0 2.998461 1_565
In1_2 Sc3_4 2.998461 1_465
In1_2 Sc0_6 3.060549 1_455
In1_2 Sc0_2 3.060549 1_555
In1_2 Sc7_2 3.160698 1_555
In1_2 Sc7_6 3.160698 1_455
In1_2 In5_2 3.167430 1_555
In1_2 Sc2_6 3.248599 1_455
In1_2 Sc2_2 3.248599 1_555
In1_3 Sc3_5 2.998461 1_465
In1_3 Sc3_1 2.998461 1_565
In1_3 Sc0_3 3.060549 1_555
In1_3 Sc0_7 3.060549 1_455
In1_3 Sc7_3 3.160698 1_555
In1_3 Sc7_7 3.160698 1_455
In1_3 In5_3 3.167430 1_555
In1_3 Sc2_3 3.248599 1_555
In1_3 Sc2_7 3.248599 1_455
In1_4 Sc3_2 2.998461 1_555
In1_4 Sc3_6 2.998461 1_555
In1_4 Sc0_0 3.060549 1_555
In1_4 Sc0_4 3.060549 1_555
In1_4 Sc7_0 3.160698 1_555
In1_4 Sc7_4 3.160698 1_555
In1_4 In5_4 3.167430 1_555
In1_4 Sc2_4 3.248599 1_555
In1_4 Sc2_0 3.248599 1_555
In1_5 Sc3_7 2.998461 1_555
In1_5 Sc3_3 2.998461 1_555
In1_5 Sc0_5 3.060549 1_555
In1_5 Sc0_1 3.060549 1_555
In1_5 Sc7_1 3.160698 1_555
In1_5 Sc7_5 3.160698 1_555
In1_5 In5_5 3.167430 1_555
In1_5 Sc2_5 3.248599 1_555
In1_5 Sc2_1 3.248599 1_555
In1_6 Sc3_0 2.998461 1_565
In1_6 Sc3_4 2.998461 1_565
In1_6 Sc0_2 3.060549 1_555
In1_6 Sc0_6 3.060549 1_555
In1_6 Sc7_2 3.160698 1_555
In1_6 Sc7_6 3.160698 1_555
In1_6 In5_6 3.167430 1_555
In1_6 Sc2_6 3.248599 1_555
In1_6 Sc2_2 3.248599 1_555
In1_7 Sc3_5 2.998461 1_565
In1_7 Sc3_1 2.998461 1_565
In1_7 Sc0_3 3.060549 1_555
In1_7 Sc0_7 3.060549 1_555
In1_7 Sc7_3 3.160698 1_555
In1_7 Sc7_7 3.160698 1_555
In1_7 In5_7 3.167430 1_555
In1_7 Sc2_3 3.248599 1_555
In1_7 Sc2_7 3.248599 1_555
In2_0 Sc4_0 2.998461 1_555
In2_0 Sc4_4 2.998461 1_455
In2_0 Sc1_5 3.060549 1_455
In2_0 Sc1_1 3.060549 1_555
In2_0 Sc8_0 3.160698 1_555
In2_0 Sc8_4 3.160698 1_455
In2_0 In6_2 3.167430 1_545
In2_0 Sc5_5 3.248599 1_455
In2_0 Sc5_1 3.248599 1_555
In2_1 Sc4_5 2.998461 1_455
In2_1 Sc4_1 2.998461 1_555
In2_1 Sc1_4 3.060549 1_456
In2_1 Sc1_0 3.060549 1_556
In2_1 Sc8_1 3.160698 1_555
In2_1 Sc8_5 3.160698 1_455
In2_1 In6_3 3.167430 1_545
In2_1 Sc5_0 3.248599 1_556
In2_1 Sc5_4 3.248599 1_456
In2_2 Sc4_2 2.998461 1_555
In2_2 Sc4_6 2.998461 1_455
In2_2 Sc1_7 3.060549 1_455
In2_2 Sc1_3 3.060549 1_555
In2_2 Sc8_2 3.160698 1_555
In2_2 Sc8_6 3.160698 1_455
In2_2 In6_0 3.167430 1_555
In2_2 Sc5_3 3.248599 1_555
In2_2 Sc5_7 3.248599 1_455
In2_3 Sc4_3 2.998461 1_555
In2_3 Sc4_7 2.998461 1_455
In2_3 Sc1_2 3.060549 1_556
In2_3 Sc1_6 3.060549 1_456
In2_3 Sc8_7 3.160698 1_455
In2_3 Sc8_3 3.160698 1_555
In2_3 In6_1 3.167430 1_555
In2_3 Sc5_2 3.248599 1_556
In2_3 Sc5_6 3.248599 1_456
In2_4 Sc4_4 2.998461 1_555
In2_4 Sc4_0 2.998461 1_555
In2_4 Sc1_5 3.060549 1_555
In2_4 Sc1_1 3.060549 1_555
In2_4 Sc8_0 3.160698 1_555
In2_4 Sc8_4 3.160698 1_555
In2_4 In6_6 3.167430 1_545
In2_4 Sc5_5 3.248599 1_555
In2_4 Sc5_1 3.248599 1_555
In2_5 Sc4_5 2.998461 1_555
In2_5 Sc4_1 2.998461 1_555
In2_5 Sc1_4 3.060549 1_556
In2_5 Sc1_0 3.060549 1_556
In2_5 Sc8_1 3.160698 1_555
In2_5 Sc8_5 3.160698 1_555
In2_5 In6_7 3.167430 1_545
In2_5 Sc5_4 3.248599 1_556
In2_5 Sc5_0 3.248599 1_556
In2_6 Sc4_2 2.998461 1_555
In2_6 Sc4_6 2.998461 1_555
In2_6 Sc1_7 3.060549 1_555
In2_6 Sc1_3 3.060549 1_555
In2_6 Sc8_2 3.160698 1_555
In2_6 Sc8_6 3.160698 1_555
In2_6 In6_4 3.167430 1_555
In2_6 Sc5_3 3.248599 1_555
In2_6 Sc5_7 3.248599 1_555
In2_7 Sc4_7 2.998461 1_555
In2_7 Sc4_3 2.998461 1_555
In2_7 Sc1_2 3.060549 1_556
In2_7 Sc1_6 3.060549 1_556
In2_7 Sc8_7 3.160698 1_555
In2_7 Sc8_3 3.160698 1_555
In2_7 In6_5 3.167430 1_555
In2_7 Sc5_6 3.248599 1_556
In2_7 Sc5_2 3.248599 1_556
In3_0 Sc5_4 2.998461 1_455
In3_0 Sc5_0 2.998461 1_555
In3_0 Sc1_6 3.060549 1_455
In3_0 Sc1_2 3.060549 1_555
In3_0 Sc9_4 3.160698 1_455
In3_0 Sc9_0 3.160698 1_555
In3_0 In7_2 3.167430 1_555
In3_0 Sc4_1 3.248599 1_554
In3_0 Sc4_5 3.248599 1_454
In3_1 Sc5_1 2.998461 1_555
In3_1 Sc5_5 2.998461 1_455
In3_1 Sc1_3 3.060549 1_555
In3_1 Sc1_7 3.060549 1_455
In3_1 Sc9_5 3.160698 1_455
In3_1 Sc9_1 3.160698 1_555
In3_1 In7_3 3.167430 1_555
In3_1 Sc4_0 3.248599 1_555
In3_1 Sc4_4 3.248599 1_455
In3_2 Sc5_2 2.998461 1_555
In3_2 Sc5_6 2.998461 1_455
In3_2 Sc1_0 3.060549 1_565
In3_2 Sc1_4 3.060549 1_465
In3_2 Sc9_2 3.160698 1_555
In3_2 Sc9_6 3.160698 1_455
In3_2 In7_0 3.167430 1_565
In3_2 Sc4_3 3.248599 1_554
In3_2 Sc4_7 3.248599 1_454
In3_3 Sc5_3 2.998461 1_555
In3_3 Sc5_7 2.998461 1_455
In3_3 Sc1_1 3.060549 1_565
In3_3 Sc1_5 3.060549 1_465
In3_3 Sc9_3 3.160698 1_555
In3_3 Sc9_7 3.160698 1_455
In3_3 In7_1 3.167430 1_565
In3_3 Sc4_2 3.248599 1_555
In3_3 Sc4_6 3.248599 1_455
In3_4 Sc5_0 2.998461 1_555
In3_4 Sc5_4 2.998461 1_555
In3_4 Sc1_2 3.060549 1_555
In3_4 Sc1_6 3.060549 1_555
In3_4 Sc9_4 3.160698 1_555
In3_4 Sc9_0 3.160698 1_555
In3_4 In7_6 3.167430 1_555
In3_4 Sc4_1 3.248599 1_554
In3_4 Sc4_5 3.248599 1_554
In3_5 Sc5_1 2.998461 1_555
In3_5 Sc5_5 2.998461 1_555
In3_5 Sc1_3 3.060549 1_555
In3_5 Sc1_7 3.060549 1_555
In3_5 Sc9_5 3.160698 1_555
In3_5 Sc9_1 3.160698 1_555
In3_5 In7_7 3.167430 1_555
In3_5 Sc4_4 3.248599 1_555
In3_5 Sc4_0 3.248599 1_555
In3_6 Sc5_2 2.998461 1_555
In3_6 Sc5_6 2.998461 1_555
In3_6 Sc1_0 3.060549 1_565
In3_6 Sc1_4 3.060549 1_565
In3_6 Sc9_2 3.160698 1_555
In3_6 Sc9_6 3.160698 1_555
In3_6 In7_4 3.167430 1_565
In3_6 Sc4_3 3.248599 1_554
In3_6 Sc4_7 3.248599 1_554
In3_7 Sc5_3 2.998461 1_555
In3_7 Sc5_7 2.998461 1_555
In3_7 Sc1_1 3.060549 1_565
In3_7 Sc1_5 3.060549 1_565
In3_7 Sc9_3 3.160698 1_555
In3_7 Sc9_7 3.160698 1_555
In3_7 In7_5 3.167430 1_565
In3_7 Sc4_2 3.248599 1_555
In3_7 Sc4_6 3.248599 1_555
In4_0 Sc9_0 3.067461 1_555
In4_0 Sc9_4 3.067461 1_455
In4_0 Sc2_4 3.074484 1_455
In4_0 Sc2_0 3.074484 1_555
In4_0 Sc0_0 3.169389 1_555
In4_0 Sc0_4 3.169389 1_455
In4_0 Sc6_4 3.208755 1_455
In4_0 Sc6_0 3.208755 1_555
In4_0 In4_4 3.335463 1_555
In4_0 In4_4 3.335463 1_455
In4_1 Sc9_1 3.067461 1_555
In4_1 Sc9_5 3.067461 1_455
In4_1 Sc2_1 3.074484 1_555
In4_1 Sc2_5 3.074484 1_455
In4_1 Sc0_1 3.169389 1_555
In4_1 Sc0_5 3.169389 1_455
In4_1 Sc6_1 3.208755 1_555
In4_1 Sc6_5 3.208755 1_455
In4_1 In4_5 3.335463 1_555
In4_1 In4_5 3.335463 1_455
In4_2 Sc9_2 3.067461 1_555
In4_2 Sc9_6 3.067461 1_455
In4_2 Sc2_2 3.074484 1_555
In4_2 Sc2_6 3.074484 1_455
In4_2 Sc0_2 3.169389 1_555
In4_2 Sc0_6 3.169389 1_455
In4_2 Sc6_6 3.208755 1_455
In4_2 Sc6_2 3.208755 1_555
In4_2 In4_6 3.335463 1_455
In4_2 In4_6 3.335463 1_555
In4_3 Sc9_7 3.067461 1_455
In4_3 Sc9_3 3.067461 1_555
In4_3 Sc2_3 3.074484 1_555
In4_3 Sc2_7 3.074484 1_455
In4_3 Sc0_7 3.169389 1_455
In4_3 Sc0_3 3.169389 1_555
In4_3 Sc6_7 3.208755 1_455
In4_3 Sc6_3 3.208755 1_555
In4_3 In4_7 3.335463 1_455
In4_3 In4_7 3.335463 1_555
In4_4 Sc9_4 3.067461 1_555
In4_4 Sc9_0 3.067461 1_555
In4_4 Sc2_0 3.074484 1_555
In4_4 Sc2_4 3.074484 1_555
In4_4 Sc0_0 3.169389 1_555
In4_4 Sc0_4 3.169389 1_555
In4_4 Sc6_4 3.208755 1_555
In4_4 Sc6_0 3.208755 1_555
In4_5 Sc9_1 3.067461 1_555
In4_5 Sc9_5 3.067461 1_555
In4_5 Sc2_5 3.074484 1_555
In4_5 Sc2_1 3.074484 1_555
In4_5 Sc0_5 3.169389 1_555
In4_5 Sc0_1 3.169389 1_555
In4_5 Sc6_1 3.208755 1_555
In4_5 Sc6_5 3.208755 1_555
In4_6 Sc9_2 3.067461 1_555
In4_6 Sc9_6 3.067461 1_555
In4_6 Sc2_2 3.074484 1_555
In4_6 Sc2_6 3.074484 1_555
In4_6 Sc0_2 3.169389 1_555
In4_6 Sc0_6 3.169389 1_555
In4_6 Sc6_2 3.208755 1_555
In4_6 Sc6_6 3.208755 1_555
In4_7 Sc9_3 3.067461 1_555
In4_7 Sc9_7 3.067461 1_555
In4_7 Sc2_3 3.074484 1_555
In4_7 Sc2_7 3.074484 1_555
In4_7 Sc0_7 3.169389 1_555
In4_7 Sc0_3 3.169389 1_555
In4_7 Sc6_3 3.208755 1_555
In4_7 Sc6_7 3.208755 1_555
In5_0 Sc8_0 3.067461 1_555
In5_0 Sc8_4 3.067461 1_455
In5_0 Sc3_0 3.074484 1_555
In5_0 Sc3_4 3.074484 1_455
In5_0 Sc0_0 3.169389 1_555
In5_0 Sc0_4 3.169389 1_455
In5_0 Sc7_4 3.208755 1_455
In5_0 Sc7_0 3.208755 1_555
In5_0 In5_4 3.335463 1_455
In5_0 In5_4 3.335463 1_555
In5_1 Sc8_1 3.067461 1_555
In5_1 Sc8_5 3.067461 1_455
In5_1 Sc3_5 3.074484 1_455
In5_1 Sc3_1 3.074484 1_555
In5_1 Sc0_1 3.169389 1_555
In5_1 Sc0_5 3.169389 1_455
In5_1 Sc7_5 3.208755 1_455
In5_1 Sc7_1 3.208755 1_555
In5_1 In5_5 3.335463 1_555
In5_1 In5_5 3.335463 1_455
In5_2 Sc8_2 3.067461 1_555
In5_2 Sc8_6 3.067461 1_455
In5_2 Sc3_6 3.074484 1_455
In5_2 Sc3_2 3.074484 1_555
In5_2 Sc0_6 3.169389 1_455
In5_2 Sc0_2 3.169389 1_555
In5_2 Sc7_2 3.208755 1_555
In5_2 Sc7_6 3.208755 1_455
In5_2 In5_6 3.335463 1_555
In5_2 In5_6 3.335463 1_455
In5_3 Sc8_3 3.067461 1_555
In5_3 Sc8_7 3.067461 1_455
In5_3 Sc3_3 3.074484 1_555
In5_3 Sc3_7 3.074484 1_455
In5_3 Sc0_3 3.169389 1_555
In5_3 Sc0_7 3.169389 1_455
In5_3 Sc7_3 3.208755 1_555
In5_3 Sc7_7 3.208755 1_455
In5_3 In5_7 3.335463 1_555
In5_3 In5_7 3.335463 1_455
In5_4 Sc8_0 3.067461 1_555
In5_4 Sc8_4 3.067461 1_555
In5_4 Sc3_0 3.074484 1_555
In5_4 Sc3_4 3.074484 1_555
In5_4 Sc0_0 3.169389 1_555
In5_4 Sc0_4 3.169389 1_555
In5_4 Sc7_4 3.208755 1_555
In5_4 Sc7_0 3.208755 1_555
In5_5 Sc8_1 3.067461 1_555
In5_5 Sc8_5 3.067461 1_555
In5_5 Sc3_1 3.074484 1_555
In5_5 Sc3_5 3.074484 1_555
In5_5 Sc0_1 3.169389 1_555
In5_5 Sc0_5 3.169389 1_555
In5_5 Sc7_1 3.208755 1_555
In5_5 Sc7_5 3.208755 1_555
In5_6 Sc8_2 3.067461 1_555
In5_6 Sc8_6 3.067461 1_555
In5_6 Sc3_6 3.074484 1_555
In5_6 Sc3_2 3.074484 1_555
In5_6 Sc0_2 3.169389 1_555
In5_6 Sc0_6 3.169389 1_555
In5_6 Sc7_2 3.208755 1_555
In5_6 Sc7_6 3.208755 1_555
In5_7 Sc8_3 3.067461 1_555
In5_7 Sc8_7 3.067461 1_555
In5_7 Sc3_3 3.074484 1_555
In5_7 Sc3_7 3.074484 1_555
In5_7 Sc0_3 3.169389 1_555
In5_7 Sc0_7 3.169389 1_555
In5_7 Sc7_3 3.208755 1_555
In5_7 Sc7_7 3.208755 1_555
In6_0 Sc7_4 3.067461 1_455
In6_0 Sc7_0 3.067461 1_555
In6_0 Sc4_0 3.074484 1_555
In6_0 Sc4_4 3.074484 1_455
In6_0 Sc1_3 3.169389 1_555
In6_0 Sc1_7 3.169389 1_455
In6_0 Sc8_2 3.208755 1_555
In6_0 Sc8_6 3.208755 1_455
In6_0 In6_4 3.335463 1_455
In6_0 In6_4 3.335463 1_555
In6_1 Sc7_1 3.067461 1_555
In6_1 Sc7_5 3.067461 1_455
In6_1 Sc4_5 3.074484 1_455
In6_1 Sc4_1 3.074484 1_555
In6_1 Sc1_2 3.169389 1_556
In6_1 Sc1_6 3.169389 1_456
In6_1 Sc8_3 3.208755 1_555
In6_1 Sc8_7 3.208755 1_455
In6_1 In6_5 3.335463 1_455
In6_1 In6_5 3.335463 1_555
In6_2 Sc7_6 3.067461 1_455
In6_2 Sc7_2 3.067461 1_555
In6_2 Sc4_2 3.074484 1_555
In6_2 Sc4_6 3.074484 1_455
In6_2 Sc1_1 3.169389 1_565
In6_2 Sc1_5 3.169389 1_465
In6_2 Sc8_4 3.208755 1_465
In6_2 Sc8_0 3.208755 1_565
In6_2 In6_6 3.335463 1_555
In6_2 In6_6 3.335463 1_455
In6_3 Sc7_7 3.067461 1_455
In6_3 Sc7_3 3.067461 1_555
In6_3 Sc4_3 3.074484 1_555
In6_3 Sc4_7 3.074484 1_455
In6_3 Sc1_0 3.169389 1_566
In6_3 Sc1_4 3.169389 1_466
In6_3 Sc8_5 3.208755 1_465
In6_3 Sc8_1 3.208755 1_565
In6_3 In6_7 3.335463 1_555
In6_3 In6_7 3.335463 1_455
In6_4 Sc7_0 3.067461 1_555
In6_4 Sc7_4 3.067461 1_555
In6_4 Sc4_0 3.074484 1_555
In6_4 Sc4_4 3.074484 1_555
In6_4 Sc1_3 3.169389 1_555
In6_4 Sc1_7 3.169389 1_555
In6_4 Sc8_6 3.208755 1_555
In6_4 Sc8_2 3.208755 1_555
In6_5 Sc7_1 3.067461 1_555
In6_5 Sc7_5 3.067461 1_555
In6_5 Sc4_5 3.074484 1_555
In6_5 Sc4_1 3.074484 1_555
In6_5 Sc1_6 3.169389 1_556
In6_5 Sc1_2 3.169389 1_556
In6_5 Sc8_3 3.208755 1_555
In6_5 Sc8_7 3.208755 1_555
In6_6 Sc7_6 3.067461 1_555
In6_6 Sc7_2 3.067461 1_555
In6_6 Sc4_6 3.074484 1_555
In6_6 Sc4_2 3.074484 1_555
In6_6 Sc1_1 3.169389 1_565
In6_6 Sc1_5 3.169389 1_565
In6_6 Sc8_0 3.208755 1_565
In6_6 Sc8_4 3.208755 1_565
In6_7 Sc7_7 3.067461 1_555
In6_7 Sc7_3 3.067461 1_555
In6_7 Sc4_7 3.074484 1_555
In6_7 Sc4_3 3.074484 1_555
In6_7 Sc1_0 3.169389 1_566
In6_7 Sc1_4 3.169389 1_566
In6_7 Sc8_1 3.208755 1_565
In6_7 Sc8_5 3.208755 1_565
In7_0 Sc6_0 3.067461 1_555
In7_0 Sc6_4 3.067461 1_455
In7_0 Sc5_0 3.074484 1_555
In7_0 Sc5_4 3.074484 1_455
In7_0 Sc1_0 3.169389 1_555
In7_0 Sc1_4 3.169389 1_455
In7_0 Sc9_6 3.208755 1_445
In7_0 Sc9_2 3.208755 1_545
In7_0 In7_4 3.335463 1_455
In7_0 In7_4 3.335463 1_555
In7_1 Sc6_1 3.067461 1_555
In7_1 Sc6_5 3.067461 1_455
In7_1 Sc5_1 3.074484 1_555
In7_1 Sc5_5 3.074484 1_455
In7_1 Sc1_1 3.169389 1_555
In7_1 Sc1_5 3.169389 1_455
In7_1 Sc9_3 3.208755 1_545
In7_1 Sc9_7 3.208755 1_445
In7_1 In7_5 3.335463 1_455
In7_1 In7_5 3.335463 1_555
In7_2 Sc6_2 3.067461 1_555
In7_2 Sc6_6 3.067461 1_455
In7_2 Sc5_6 3.074484 1_455
In7_2 Sc5_2 3.074484 1_555
In7_2 Sc1_6 3.169389 1_455
In7_2 Sc1_2 3.169389 1_555
In7_2 Sc9_4 3.208755 1_455
In7_2 Sc9_0 3.208755 1_555
In7_2 In7_6 3.335463 1_555
In7_2 In7_6 3.335463 1_455
In7_3 Sc6_3 3.067461 1_555
In7_3 Sc6_7 3.067461 1_455
In7_3 Sc5_3 3.074484 1_555
In7_3 Sc5_7 3.074484 1_455
In7_3 Sc1_7 3.169389 1_455
In7_3 Sc1_3 3.169389 1_555
In7_3 Sc9_1 3.208755 1_555
In7_3 Sc9_5 3.208755 1_455
In7_3 In7_7 3.335463 1_555
In7_3 In7_7 3.335463 1_455
In7_4 Sc6_0 3.067461 1_555
In7_4 Sc6_4 3.067461 1_555
In7_4 Sc5_4 3.074484 1_555
In7_4 Sc5_0 3.074484 1_555
In7_4 Sc1_0 3.169389 1_555
In7_4 Sc1_4 3.169389 1_555
In7_4 Sc9_6 3.208755 1_545
In7_4 Sc9_2 3.208755 1_545
In7_5 Sc6_1 3.067461 1_555
In7_5 Sc6_5 3.067461 1_555
In7_5 Sc5_5 3.074484 1_555
In7_5 Sc5_1 3.074484 1_555
In7_5 Sc1_1 3.169389 1_555
In7_5 Sc1_5 3.169389 1_555
In7_5 Sc9_3 3.208755 1_545
In7_5 Sc9_7 3.208755 1_545
In7_6 Sc6_2 3.067461 1_555
In7_6 Sc6_6 3.067461 1_555
In7_6 Sc5_2 3.074484 1_555
In7_6 Sc5_6 3.074484 1_555
In7_6 Sc1_6 3.169389 1_555
In7_6 Sc1_2 3.169389 1_555
In7_6 Sc9_4 3.208755 1_555
In7_6 Sc9_0 3.208755 1_555
In7_7 Sc6_3 3.067461 1_555
In7_7 Sc6_7 3.067461 1_555
In7_7 Sc5_3 3.074484 1_555
In7_7 Sc5_7 3.074484 1_555
In7_7 Sc1_7 3.169389 1_555
In7_7 Sc1_3 3.169389 1_555
In7_7 Sc9_1 3.208755 1_555
In7_7 Sc9_5 3.208755 1_555
Co0_0 Sc2_0 2.555189 1_555
Co0_0 Sc2_4 2.555189 1_455
Co0_0 Sc6_6 2.764408 1_455
Co0_0 Sc6_2 2.764408 1_555
Co0_0 Sc9_4 2.771868 1_455
Co0_0 Sc9_0 2.771868 1_555
Co0_0 In7_2 2.792723 1_555
Co0_0 In0_2 2.839256 1_555
Co0_0 In4_0 3.080635 1_555
Co0_1 Sc2_1 2.555189 1_555
Co0_1 Sc2_5 2.555189 1_455
Co0_1 Sc6_3 2.764408 1_555
Co0_1 Sc6_7 2.764408 1_455
Co0_1 Sc9_5 2.771868 1_455
Co0_1 Sc9_1 2.771868 1_555
Co0_1 In7_3 2.792723 1_555
Co0_1 In0_3 2.839256 1_555
Co0_1 In4_1 3.080635 1_555
Co0_2 Sc2_2 2.555189 1_555
Co0_2 Sc2_6 2.555189 1_455
Co0_2 Sc6_0 2.764408 1_565
Co0_2 Sc6_4 2.764408 1_465
Co0_2 Sc9_2 2.771868 1_555
Co0_2 Sc9_6 2.771868 1_455
Co0_2 In7_0 2.792723 1_565
Co0_2 In0_0 2.839256 1_565
Co0_2 In4_2 3.080635 1_555
Co0_3 Sc2_3 2.555189 1_555
Co0_3 Sc2_7 2.555189 1_455
Co0_3 Sc6_5 2.764408 1_465
Co0_3 Sc6_1 2.764408 1_565
Co0_3 Sc9_3 2.771868 1_555
Co0_3 Sc9_7 2.771868 1_455
Co0_3 In7_1 2.792723 1_565
Co0_3 In0_1 2.839256 1_565
Co0_3 In4_3 3.080635 1_555
Co0_4 Sc2_0 2.555189 1_555
Co0_4 Sc2_4 2.555189 1_555
Co0_4 Sc6_2 2.764408 1_555
Co0_4 Sc6_6 2.764408 1_555
Co0_4 Sc9_4 2.771868 1_555
Co0_4 Sc9_0 2.771868 1_555
Co0_4 In7_6 2.792723 1_555
Co0_4 In0_6 2.839256 1_555
Co0_4 In4_4 3.080635 1_555
Co0_5 Sc2_1 2.555189 1_555
Co0_5 Sc2_5 2.555189 1_555
Co0_5 Sc6_3 2.764408 1_555
Co0_5 Sc6_7 2.764408 1_555
Co0_5 Sc9_1 2.771868 1_555
Co0_5 Sc9_5 2.771868 1_555
Co0_5 In7_7 2.792723 1_555
Co0_5 In0_7 2.839256 1_555
Co0_5 In4_5 3.080635 1_555
Co0_6 Sc2_2 2.555189 1_555
Co0_6 Sc2_6 2.555189 1_555
Co0_6 Sc6_0 2.764408 1_565
Co0_6 Sc6_4 2.764408 1_565
Co0_6 Sc9_6 2.771868 1_555
Co0_6 Sc9_2 2.771868 1_555
Co0_6 In7_4 2.792723 1_565
Co0_6 In0_4 2.839256 1_565
Co0_6 In4_6 3.080635 1_555
Co0_7 Sc2_3 2.555189 1_555
Co0_7 Sc2_7 2.555189 1_555
Co0_7 Sc6_1 2.764408 1_565
Co0_7 Sc6_5 2.764408 1_565
Co0_7 Sc9_3 2.771868 1_555
Co0_7 Sc9_7 2.771868 1_555
Co0_7 In7_5 2.792723 1_565
Co0_7 In0_5 2.839256 1_565
Co0_7 In4_7 3.080635 1_555
Co1_0 Sc3_0 2.555189 1_555
Co1_0 Sc3_4 2.555189 1_455
Co1_0 Sc7_2 2.764408 1_545
Co1_0 Sc7_6 2.764408 1_445
Co1_0 Sc8_4 2.771868 1_455
Co1_0 Sc8_0 2.771868 1_555
Co1_0 In6_2 2.792723 1_545
Co1_0 In1_2 2.839256 1_545
Co1_0 In5_0 3.080635 1_555
Co1_1 Sc3_1 2.555189 1_555
Co1_1 Sc3_5 2.555189 1_455
Co1_1 Sc7_3 2.764408 1_545
Co1_1 Sc7_7 2.764408 1_445
Co1_1 Sc8_5 2.771868 1_455
Co1_1 Sc8_1 2.771868 1_555
Co1_1 In6_3 2.792723 1_545
Co1_1 In1_3 2.839256 1_545
Co1_1 In5_1 3.080635 1_555
Co1_2 Sc3_6 2.555189 1_455
Co1_2 Sc3_2 2.555189 1_555
Co1_2 Sc7_4 2.764408 1_455
Co1_2 Sc7_0 2.764408 1_555
Co1_2 Sc8_2 2.771868 1_555
Co1_2 Sc8_6 2.771868 1_455
Co1_2 In6_0 2.792723 1_555
Co1_2 In1_0 2.839256 1_555
Co1_2 In5_2 3.080635 1_555
Co1_3 Sc3_3 2.555189 1_555
Co1_3 Sc3_7 2.555189 1_455
Co1_3 Sc7_1 2.764408 1_555
Co1_3 Sc7_5 2.764408 1_455
Co1_3 Sc8_3 2.771868 1_555
Co1_3 Sc8_7 2.771868 1_455
Co1_3 In6_1 2.792723 1_555
Co1_3 In1_1 2.839256 1_555
Co1_3 In5_3 3.080635 1_555
Co1_4 Sc3_0 2.555189 1_555
Co1_4 Sc3_4 2.555189 1_555
Co1_4 Sc7_2 2.764408 1_545
Co1_4 Sc7_6 2.764408 1_545
Co1_4 Sc8_0 2.771868 1_555
Co1_4 Sc8_4 2.771868 1_555
Co1_4 In6_6 2.792723 1_545
Co1_4 In1_6 2.839256 1_545
Co1_4 In5_4 3.080635 1_555
Co1_5 Sc3_1 2.555189 1_555
Co1_5 Sc3_5 2.555189 1_555
Co1_5 Sc7_3 2.764408 1_545
Co1_5 Sc7_7 2.764408 1_545
Co1_5 Sc8_1 2.771868 1_555
Co1_5 Sc8_5 2.771868 1_555
Co1_5 In6_7 2.792723 1_545
Co1_5 In1_7 2.839256 1_545
Co1_5 In5_5 3.080635 1_555
Co1_6 Sc3_6 2.555189 1_555
Co1_6 Sc3_2 2.555189 1_555
Co1_6 Sc7_0 2.764408 1_555
Co1_6 Sc7_4 2.764408 1_555
Co1_6 Sc8_2 2.771868 1_555
Co1_6 Sc8_6 2.771868 1_555
Co1_6 In6_4 2.792723 1_555
Co1_6 In1_4 2.839256 1_555
Co1_6 In5_6 3.080635 1_555
Co1_7 Sc3_3 2.555189 1_555
Co1_7 Sc3_7 2.555189 1_555
Co1_7 Sc7_5 2.764408 1_555
Co1_7 Sc7_1 2.764408 1_555
Co1_7 Sc8_3 2.771868 1_555
Co1_7 Sc8_7 2.771868 1_555
Co1_7 In6_5 2.792723 1_555
Co1_7 In1_5 2.839256 1_555
Co1_7 In5_7 3.080635 1_555
Co2_0 Sc4_0 2.555189 1_555
Co2_0 Sc4_4 2.555189 1_455
Co2_0 Sc8_0 2.764408 1_555
Co2_0 Sc8_4 2.764408 1_455
Co2_0 Sc7_0 2.771868 1_555
Co2_0 Sc7_4 2.771868 1_455
Co2_0 In5_0 2.792723 1_555
Co2_0 In2_0 2.839256 1_555
Co2_0 In6_0 3.080635 1_555
Co2_1 Sc4_5 2.555189 1_455
Co2_1 Sc4_1 2.555189 1_555
Co2_1 Sc8_1 2.764408 1_555
Co2_1 Sc8_5 2.764408 1_455
Co2_1 Sc7_1 2.771868 1_555
Co2_1 Sc7_5 2.771868 1_455
Co2_1 In5_1 2.792723 1_555
Co2_1 In2_1 2.839256 1_555
Co2_1 In6_1 3.080635 1_555
Co2_2 Sc4_2 2.555189 1_555
Co2_2 Sc4_6 2.555189 1_455
Co2_2 Sc8_2 2.764408 1_555
Co2_2 Sc8_6 2.764408 1_455
Co2_2 Sc7_2 2.771868 1_555
Co2_2 Sc7_6 2.771868 1_455
Co2_2 In5_2 2.792723 1_555
Co2_2 In2_2 2.839256 1_555
Co2_2 In6_2 3.080635 1_555
Co2_3 Sc4_3 2.555189 1_555
Co2_3 Sc4_7 2.555189 1_455
Co2_3 Sc8_3 2.764408 1_555
Co2_3 Sc8_7 2.764408 1_455
Co2_3 Sc7_3 2.771868 1_555
Co2_3 Sc7_7 2.771868 1_455
Co2_3 In5_3 2.792723 1_555
Co2_3 In2_3 2.839256 1_555
Co2_3 In6_3 3.080635 1_555
Co2_4 Sc4_0 2.555189 1_555
Co2_4 Sc4_4 2.555189 1_555
Co2_4 Sc8_0 2.764408 1_555
Co2_4 Sc8_4 2.764408 1_555
Co2_4 Sc7_0 2.771868 1_555
Co2_4 Sc7_4 2.771868 1_555
Co2_4 In5_4 2.792723 1_555
Co2_4 In2_4 2.839256 1_555
Co2_4 In6_4 3.080635 1_555
Co2_5 Sc4_5 2.555189 1_555
Co2_5 Sc4_1 2.555189 1_555
Co2_5 Sc8_1 2.764408 1_555
Co2_5 Sc8_5 2.764408 1_555
Co2_5 Sc7_1 2.771868 1_555
Co2_5 Sc7_5 2.771868 1_555
Co2_5 In5_5 2.792723 1_555
Co2_5 In2_5 2.839256 1_555
Co2_5 In6_5 3.080635 1_555
Co2_6 Sc4_2 2.555189 1_555
Co2_6 Sc4_6 2.555189 1_555
Co2_6 Sc8_6 2.764408 1_555
Co2_6 Sc8_2 2.764408 1_555
Co2_6 Sc7_6 2.771868 1_555
Co2_6 Sc7_2 2.771868 1_555
Co2_6 In5_6 2.792723 1_555
Co2_6 In2_6 2.839256 1_555
Co2_6 In6_6 3.080635 1_555
Co2_7 Sc4_7 2.555189 1_555
Co2_7 Sc4_3 2.555189 1_555
Co2_7 Sc8_3 2.764408 1_555
Co2_7 Sc8_7 2.764408 1_555
Co2_7 Sc7_3 2.771868 1_555
Co2_7 Sc7_7 2.771868 1_555
Co2_7 In5_7 2.792723 1_555
Co2_7 In2_7 2.839256 1_555
Co2_7 In6_7 3.080635 1_555
Co3_0 Sc5_0 2.555189 1_555
Co3_0 Sc5_4 2.555189 1_455
Co3_0 Sc9_0 2.764408 1_555
Co3_0 Sc9_4 2.764408 1_455
Co3_0 Sc6_4 2.771868 1_455
Co3_0 Sc6_0 2.771868 1_555
Co3_0 In4_0 2.792723 1_555
Co3_0 In3_0 2.839256 1_555
Co3_0 In7_0 3.080635 1_555
Co3_1 Sc5_1 2.555189 1_555
Co3_1 Sc5_5 2.555189 1_455
Co3_1 Sc9_1 2.764408 1_555
Co3_1 Sc9_5 2.764408 1_455
Co3_1 Sc6_1 2.771868 1_555
Co3_1 Sc6_5 2.771868 1_455
Co3_1 In4_1 2.792723 1_555
Co3_1 In3_1 2.839256 1_555
Co3_1 In7_1 3.080635 1_555
Co3_2 Sc5_6 2.555189 1_455
Co3_2 Sc5_2 2.555189 1_555
Co3_2 Sc9_2 2.764408 1_555
Co3_2 Sc9_6 2.764408 1_455
Co3_2 Sc6_2 2.771868 1_555
Co3_2 Sc6_6 2.771868 1_455
Co3_2 In4_2 2.792723 1_555
Co3_2 In3_2 2.839256 1_555
Co3_2 In7_2 3.080635 1_555
Co3_3 Sc5_7 2.555189 1_455
Co3_3 Sc5_3 2.555189 1_555
Co3_3 Sc9_3 2.764408 1_555
Co3_3 Sc9_7 2.764408 1_455
Co3_3 Sc6_3 2.771868 1_555
Co3_3 Sc6_7 2.771868 1_455
Co3_3 In4_3 2.792723 1_555
Co3_3 In3_3 2.839256 1_555
Co3_3 In7_3 3.080635 1_555
Co3_4 Sc5_0 2.555189 1_555
Co3_4 Sc5_4 2.555189 1_555
Co3_4 Sc9_0 2.764408 1_555
Co3_4 Sc9_4 2.764408 1_555
Co3_4 Sc6_0 2.771868 1_555
Co3_4 Sc6_4 2.771868 1_555
Co3_4 In4_4 2.792723 1_555
Co3_4 In3_4 2.839256 1_555
Co3_4 In7_4 3.080635 1_555
Co3_5 Sc5_5 2.555189 1_555
Co3_5 Sc5_1 2.555189 1_555
Co3_5 Sc9_1 2.764408 1_555
Co3_5 Sc9_5 2.764408 1_555
Co3_5 Sc6_5 2.771868 1_555
Co3_5 Sc6_1 2.771868 1_555
Co3_5 In4_5 2.792723 1_555
Co3_5 In3_5 2.839256 1_555
Co3_5 In7_5 3.080635 1_555
Co3_6 Sc5_2 2.555189 1_555
Co3_6 Sc5_6 2.555189 1_555
Co3_6 Sc9_2 2.764408 1_555
Co3_6 Sc9_6 2.764408 1_555
Co3_6 Sc6_2 2.771868 1_555
Co3_6 Sc6_6 2.771868 1_555
Co3_6 In4_6 2.792723 1_555
Co3_6 In3_6 2.839256 1_555
Co3_6 In7_6 3.080635 1_555
Co3_7 Sc5_7 2.555189 1_555
Co3_7 Sc5_3 2.555189 1_555
Co3_7 Sc9_3 2.764408 1_555
Co3_7 Sc9_7 2.764408 1_555
Co3_7 Sc6_3 2.771868 1_555
Co3_7 Sc6_7 2.771868 1_555
Co3_7 In4_7 2.792723 1_555
Co3_7 In3_7 2.839256 1_555
Co3_7 In7_7 3.080635 1_555
