# generated using pymatgen
data_SrMnZn(PO4)2
_symmetry_space_group_name_H-M   'P 1'
_cell_length_a   7.03897670
_cell_length_b   11.07038403
_cell_length_c   9.55058235
_cell_angle_alpha   105.65711406
_cell_angle_beta   72.20562068
_cell_angle_gamma   82.09283436
_symmetry_Int_Tables_number   1
_chemical_formula_structural   SrMnZn(PO4)2
_chemical_formula_sum   'Sr4 Mn4 Zn4 P8 O32'
_cell_volume   662.37998444
_cell_formula_units_Z   4
loop_
 _symmetry_equiv_pos_site_id
 _symmetry_equiv_pos_as_xyz
  1  'x, y, z'
loop_
 _atom_site_type_symbol
 _atom_site_label
 _atom_site_symmetry_multiplicity
 _atom_site_fract_x
 _atom_site_fract_y
 _atom_site_fract_z
 _atom_site_occupancy
  Sr  Sr0  1  0.75173800  0.40116400  0.04696300  1
  Sr  Sr1  1  0.75175900  0.90116700  0.04693700  1
  Sr  Sr2  1  0.24823900  0.59885600  0.95304600  1
  Sr  Sr3  1  0.24825800  0.09882900  0.95305400  1
  Mn  Mn0  1  0.27766100  0.46654400  0.55838300  1
  Mn  Mn1  1  0.72233400  0.03343700  0.44161800  1
  Mn  Mn2  1  0.27762000  0.96649800  0.55838700  1
  Mn  Mn3  1  0.72240200  0.53351100  0.44159800  1
  Zn  Zn0  1  0.73073200  0.32413600  0.64502900  1
  Zn  Zn1  1  0.73072700  0.82413600  0.64501500  1
  Zn  Zn2  1  0.26927400  0.67586300  0.35498500  1
  Zn  Zn3  1  0.26926800  0.17586500  0.35497400  1
  P  P0  1  0.19374500  0.41862300  0.22482900  1
  P  P1  1  0.19373700  0.91863500  0.22483600  1
  P  P2  1  0.80626000  0.58136400  0.77516900  1
  P  P3  1  0.80625600  0.08138200  0.77517200  1
  P  P4  1  0.72053400  0.23017600  0.29854500  1
  P  P5  1  0.72053500  0.73017600  0.29853600  1
  P  P6  1  0.27946900  0.76982300  0.70146000  1
  P  P7  1  0.27946300  0.26982200  0.70145500  1
  O  O0  1  0.64930300  0.55048300  0.90464300  1
  O  O1  1  0.64932200  0.05048000  0.90463600  1
  O  O2  1  0.35068100  0.44951900  0.09536300  1
  O  O3  1  0.35068600  0.94951700  0.09535600  1
  O  O4  1  0.25911200  0.27461900  0.21374400  1
  O  O5  1  0.25910500  0.77462300  0.21375700  1
  O  O6  1  0.74089900  0.72537800  0.78624600  1
  O  O7  1  0.74088400  0.22538400  0.78625700  1
  O  O8  1  0.02567600  0.55236100  0.77713400  1
  O  O9  1  0.02567400  0.05236400  0.77713100  1
  O  O10  1  0.97432400  0.44763800  0.22287200  1
  O  O11  1  0.97431900  0.94763700  0.22287500  1
  O  O12  1  0.42020400  0.36962300  0.69785700  1
  O  O13  1  0.42020400  0.86962800  0.69786200  1
  O  O14  1  0.57979600  0.63037300  0.30214100  1
  O  O15  1  0.57979700  0.13037000  0.30213300  1
  O  O16  1  0.17403300  0.78547000  0.58093600  1
  O  O17  1  0.17402100  0.28545500  0.58093600  1
  O  O18  1  0.82597600  0.21454100  0.41906100  1
  O  O19  1  0.82597000  0.71453300  0.41906300  1
  O  O20  1  0.12879300  0.80228400  0.86695700  1
  O  O21  1  0.12878500  0.30228800  0.86696300  1
  O  O22  1  0.87121400  0.19771700  0.13303800  1
  O  O23  1  0.87121100  0.69770700  0.13304000  1
  O  O24  1  0.19133300  0.51369300  0.38414300  1
  O  O25  1  0.19132400  0.01370100  0.38414700  1
  O  O26  1  0.80867500  0.48630300  0.61585200  1
  O  O27  1  0.80866700  0.98630700  0.61586100  1
  O  O28  1  0.58657900  0.37174000  0.35933800  1
  O  O29  1  0.58658400  0.87173600  0.35934200  1
  O  O30  1  0.41341800  0.62826300  0.64065600  1
  O  O31  1  0.41341700  0.12825800  0.64066600  1
loop_
_geom_bond_atom_site_label_1
_geom_bond_atom_site_label_2
_geom_bond_distance
_geom_bond_site_symmetry_2
Mn0 O24 2.100122 1_555
Mn0 O8 2.147913 1_555
Mn0 O30 2.214958 1_555
Mn0 O17 2.266479 1_555
Mn0 O28 2.283042 1_555
Mn0 O12 2.285709 1_555
Mn1 O27 2.100078 1_545
Mn1 O11 2.147855 1_545
Mn1 O29 2.214780 1_545
Mn1 O18 2.266653 1_555
Mn1 O31 2.283069 1_555
Mn1 O15 2.285850 1_555
Mn2 O25 2.100263 1_565
Mn2 O9 2.147780 1_565
Mn2 O31 2.215507 1_565
Mn2 O16 2.265671 1_555
Mn2 O29 2.283200 1_555
Mn2 O13 2.285557 1_555
Mn3 O26 2.100332 1_555
Mn3 O10 2.147603 1_555
Mn3 O28 2.215672 1_555
Mn3 O19 2.265521 1_555
Mn3 O30 2.283329 1_555
Mn3 O14 2.285447 1_555
O0 P2 1.537414 1_555
O0 Sr0 2.565880 1_556
O0 Sr2 2.668902 1_555
O1 P3 1.537396 1_555
O1 Sr1 2.565692 1_546
O1 Sr3 2.668870 1_555
O2 P0 1.537379 1_555
O2 Sr2 2.566024 1_554
O2 Sr0 2.668858 1_555
O3 P1 1.537428 1_555
O3 Sr3 2.565669 1_564
O3 Sr1 2.668930 1_555
O4 P0 1.562575 1_555
O4 Zn3 1.962905 1_555
O4 Sr3 2.744766 1_554
O5 P1 1.562678 1_555
O5 Zn2 1.962953 1_555
O5 Sr2 2.744826 1_554
O6 P2 1.562698 1_555
O6 Zn1 1.962965 1_555
O6 Sr1 2.744785 1_556
O7 P3 1.562558 1_555
O7 Zn0 1.962867 1_555
O7 Sr0 2.744825 1_556
O8 P2 1.540565 1_455
O8 Sr2 2.627855 1_555
O9 P3 1.540570 1_455
O9 Sr3 2.628022 1_555
O10 P0 1.540581 1_655
O10 Sr0 2.627941 1_555
O11 P1 1.540564 1_655
O11 Sr1 2.628000 1_555
O12 P7 1.582436 1_555
O12 Zn0 2.042506 1_555
O12 Sr2 2.803290 1_555
O13 P6 1.582441 1_555
O13 Zn1 2.042447 1_555
O13 Sr3 2.803082 1_565
O14 P5 1.582445 1_555
O14 Zn2 2.042444 1_555
O14 Sr0 2.803069 1_555
O15 P4 1.582458 1_555
O15 Zn3 2.042497 1_555
O15 Sr1 2.803119 1_545
O16 P6 1.581193 1_555
O16 Zn2 2.014246 1_555
O17 P7 1.581141 1_555
O17 Zn3 2.014277 1_555
O18 P4 1.581121 1_555
O18 Zn0 2.014340 1_555
O19 P5 1.581204 1_555
O19 Zn1 2.014241 1_555
O20 P6 1.521918 1_555
O20 Sr1 2.567710 1_456
O20 Sr2 2.712108 1_555
O21 P7 1.521995 1_555
O21 Sr0 2.567818 1_456
O21 Sr3 2.712473 1_555
O22 P4 1.522004 1_555
O22 Sr3 2.567779 1_654
O22 Sr0 2.712268 1_555
O23 P5 1.521899 1_555
O23 Sr2 2.567673 1_654
O23 Sr1 2.712511 1_555
O24 P0 1.593109 1_555
O24 Zn2 2.012224 1_555
O25 P1 1.593066 1_545
O25 Zn3 2.012210 1_555
O26 P2 1.593083 1_555
O26 Zn0 2.012251 1_555
O27 P3 1.593111 1_565
O27 Zn1 2.012221 1_555
O28 P4 1.565210 1_555
O28 Sr0 2.977744 1_555
O29 P5 1.565154 1_555
O29 Sr1 2.978050 1_555
O30 P6 1.565150 1_555
O30 Sr2 2.977807 1_555
O31 P7 1.565211 1_555
O31 Sr3 2.977881 1_555
