# generated using pymatgen
data_Cu6SnWS8
_symmetry_space_group_name_H-M   'P 1'
_cell_length_a   7.59601100
_cell_length_b   7.59601100
_cell_length_c   5.27477100
_cell_angle_alpha   90.00000000
_cell_angle_beta   90.00000000
_cell_angle_gamma   90.00000000
_symmetry_Int_Tables_number   1
_chemical_formula_structural   Cu6SnWS8
_chemical_formula_sum   'Cu6 Sn1 W1 S8'
_cell_volume   304.35103276
_cell_formula_units_Z   1
loop_
 _symmetry_equiv_pos_site_id
 _symmetry_equiv_pos_as_xyz
  1  'x, y, z'
loop_
 _atom_site_type_symbol
 _atom_site_label
 _atom_site_symmetry_multiplicity
 _atom_site_fract_x
 _atom_site_fract_y
 _atom_site_fract_z
 _atom_site_occupancy
  Cu  Cu0  1  0.74996000  0.74996000  0.50000000  1
  Cu  Cu1  1  0.74996000  0.25004000  0.50000000  1
  Cu  Cu2  1  0.00000000  0.50000000  0.00179200  1
  Cu  Cu3  1  0.25004000  0.74996000  0.50000000  1
  Cu  Cu4  1  0.50000000  0.00000000  0.99820800  1
  Cu  Cu5  1  0.25004000  0.25004000  0.50000000  1
  Sn  Sn0  1  0.00000000  0.00000000  0.00000000  1
  W  W0  1  0.50000000  0.50000000  0.00000000  1
  S  S0  1  0.00000000  0.73479900  0.73554800  1
  S  S1  1  0.00000000  0.26520100  0.73554800  1
  S  S2  1  0.25642300  0.50000000  0.24469700  1
  S  S3  1  0.73479900  0.00000000  0.26445200  1
  S  S4  1  0.26520100  0.00000000  0.26445200  1
  S  S5  1  0.50000000  0.25642300  0.75530300  1
  S  S6  1  0.50000000  0.74357700  0.75530300  1
  S  S7  1  0.74357700  0.50000000  0.24469700  1
loop_
_geom_bond_atom_site_label_1
_geom_bond_atom_site_label_2
_geom_bond_distance
_geom_bond_site_symmetry_2
Cu0 S3 2.272518 1_565
Cu0 S0 2.272518 1_655
Cu0 S6 2.328286 1_555
Cu0 S7 2.328286 1_555
Cu1 S3 2.272518 1_555
Cu1 S1 2.272518 1_655
Cu1 S5 2.328286 1_555
Cu1 S7 2.328286 1_555
Cu2 S1 2.270082 1_554
Cu2 S0 2.270082 1_554
Cu2 S7 2.331425 1_455
Cu2 S2 2.331425 1_555
Cu3 S0 2.272518 1_555
Cu3 S4 2.272518 1_565
Cu3 S2 2.328286 1_555
Cu3 S6 2.328286 1_555
Cu4 S4 2.270082 1_556
Cu4 S3 2.270082 1_556
Cu4 S6 2.331425 1_545
Cu4 S5 2.331425 1_555
Cu5 S4 2.272518 1_555
Cu5 S1 2.272518 1_555
Cu5 S2 2.328286 1_555
Cu5 S5 2.328286 1_555
S0 Sn0 2.450286 1_566
S1 Sn0 2.450286 1_556
S2 W0 2.255937 1_555
S3 Sn0 2.450286 1_655
S4 Sn0 2.450286 1_555
S5 W0 2.255937 1_556
S6 W0 2.255937 1_556
S7 W0 2.255937 1_555
