# generated using pymatgen
data_Ti2H2O3
_symmetry_space_group_name_H-M   'P 1'
_cell_length_a   3.11483591
_cell_length_b   3.11483591
_cell_length_c   8.67010900
_cell_angle_alpha   90.00000000
_cell_angle_beta   90.00000000
_cell_angle_gamma   119.99999808
_symmetry_Int_Tables_number   1
_chemical_formula_structural   Ti2H2O3
_chemical_formula_sum   'Ti2 H2 O3'
_cell_volume   72.84932686
_cell_formula_units_Z   1
loop_
 _symmetry_equiv_pos_site_id
 _symmetry_equiv_pos_as_xyz
  1  'x, y, z'
loop_
 _atom_site_type_symbol
 _atom_site_label
 _atom_site_symmetry_multiplicity
 _atom_site_fract_x
 _atom_site_fract_y
 _atom_site_fract_z
 _atom_site_occupancy
  Ti  Ti0  1  0.33333300  0.66666700  0.12507400  1
  Ti  Ti1  1  0.66666700  0.33333300  0.87492600  1
  H  H0  1  0.66666700  0.33333300  0.37466400  1
  H  H1  1  0.33333300  0.66666700  0.62533600  1
  O  O0  1  0.66666700  0.33333300  0.26046300  1
  O  O1  1  0.33333300  0.66666700  0.73953700  1
  O  O2  1  0.00000000  0.00000000  0.00000000  1
loop_
_geom_bond_atom_site_label_1
_geom_bond_atom_site_label_2
_geom_bond_distance
_geom_bond_site_symmetry_2
H0 O0 0.990135 1_555
H1 O1 0.990135 1_555
O0 Ti0 2.147546 1_545
O0 Ti0 2.147546 1_655
O0 Ti0 2.147551 1_555
O1 Ti1 2.147546 1_565
O1 Ti1 2.147546 1_455
O1 Ti1 2.147551 1_555
O2 Ti0 2.099999 1_545
O2 Ti1 2.099999 1_454
O2 Ti1 2.100001 1_554
O2 Ti0 2.100001 1_555
O2 Ti1 2.100001 1_444
O2 Ti0 2.100001 1_445
