# generated using pymatgen
data_ZrTiNb
_symmetry_space_group_name_H-M   'P 1'
_cell_length_a   15.22743762
_cell_length_b   14.89274411
_cell_length_c   5.82498569
_cell_angle_alpha   82.09906831
_cell_angle_beta   75.63531073
_cell_angle_gamma   22.26562096
_symmetry_Int_Tables_number   1
_chemical_formula_structural   ZrTiNb
_chemical_formula_sum   'Zr8 Ti8 Nb8'
_cell_volume   469.34941405
_cell_formula_units_Z   8
loop_
 _symmetry_equiv_pos_site_id
 _symmetry_equiv_pos_as_xyz
  1  'x, y, z'
loop_
 _atom_site_type_symbol
 _atom_site_label
 _atom_site_symmetry_multiplicity
 _atom_site_fract_x
 _atom_site_fract_y
 _atom_site_fract_z
 _atom_site_occupancy
  Zr  Zr0_0  1  0.33296150  0.33296150  0.16703850  1
  Zr  Zr0_1  1  0.33296150  0.33296150  0.66703850  1
  Zr  Zr0_2  1  0.33296150  0.83296150  0.16703850  1
  Zr  Zr0_3  1  0.33296150  0.83296150  0.66703850  1
  Zr  Zr0_4  1  0.83296150  0.33296150  0.16703850  1
  Zr  Zr0_5  1  0.83296150  0.33296150  0.66703850  1
  Zr  Zr0_6  1  0.83296150  0.83296150  0.16703850  1
  Zr  Zr0_7  1  0.83296150  0.83296150  0.66703850  1
  Ti  Ti0_0  1  0.17126300  0.17126300  0.32873700  1
  Ti  Ti0_1  1  0.17126300  0.17126300  0.82873700  1
  Ti  Ti0_2  1  0.17126300  0.67126300  0.32873700  1
  Ti  Ti0_3  1  0.17126300  0.67126300  0.82873700  1
  Ti  Ti0_4  1  0.67126300  0.17126300  0.32873700  1
  Ti  Ti0_5  1  0.67126300  0.17126300  0.82873700  1
  Ti  Ti0_6  1  0.67126300  0.67126300  0.32873700  1
  Ti  Ti0_7  1  0.67126300  0.67126300  0.82873700  1
  Nb  Nb0_0  1  0.49577500  0.49577500  0.00422500  1
  Nb  Nb0_1  1  0.49577500  0.49577500  0.50422500  1
  Nb  Nb0_2  1  0.49577500  0.99577500  0.00422500  1
  Nb  Nb0_3  1  0.49577500  0.99577500  0.50422500  1
  Nb  Nb0_4  1  0.99577500  0.49577500  0.00422500  1
  Nb  Nb0_5  1  0.99577500  0.49577500  0.50422500  1
  Nb  Nb0_6  1  0.99577500  0.99577500  0.00422500  1
  Nb  Nb0_7  1  0.99577500  0.99577500  0.50422500  1
loop_
_geom_bond_atom_site_label_1
_geom_bond_atom_site_label_2
_geom_bond_distance
_geom_bond_site_symmetry_2
Zr0_0 Zr0_1 2.912493 1_554
Zr0_0 Zr0_6 2.912493 1_455
Zr0_0 Zr0_6 2.912493 1_545
Zr0_0 Zr0_1 2.912493 1_555
Zr0_1 Zr0_7 2.912493 1_545
Zr0_1 Zr0_7 2.912493 1_455
Zr0_2 Zr0_3 2.912493 1_554
Zr0_2 Zr0_4 2.912493 1_465
Zr0_2 Zr0_4 2.912493 1_555
Zr0_2 Zr0_3 2.912493 1_555
Zr0_3 Zr0_5 2.912493 1_555
Zr0_3 Zr0_5 2.912493 1_465
Zr0_4 Zr0_5 2.912493 1_555
Zr0_4 Zr0_5 2.912493 1_554
Zr0_6 Zr0_7 2.912493 1_555
Zr0_6 Zr0_7 2.912493 1_554
Ti0_0 Ti0_6 2.912493 1_545
Ti0_0 Ti0_1 2.912493 1_554
Ti0_0 Ti0_1 2.912493 1_555
Ti0_0 Ti0_6 2.912493 1_455
Ti0_0 Zr0_5 3.086536 1_455
Ti0_0 Zr0_2 3.086536 1_545
Ti0_1 Ti0_7 2.912493 1_455
Ti0_1 Ti0_7 2.912493 1_545
Ti0_1 Zr0_4 3.086536 1_456
Ti0_1 Zr0_3 3.086536 1_545
Ti0_2 Ti0_3 2.912493 1_555
Ti0_2 Ti0_3 2.912493 1_554
Ti0_2 Ti0_4 2.912493 1_465
Ti0_2 Ti0_4 2.912493 1_555
Ti0_2 Zr0_7 3.086536 1_455
Ti0_2 Zr0_0 3.086536 1_555
Ti0_3 Ti0_5 2.912493 1_465
Ti0_3 Ti0_5 2.912493 1_555
Ti0_3 Zr0_6 3.086536 1_456
Ti0_3 Zr0_1 3.086536 1_555
Ti0_4 Ti0_5 2.912493 1_554
Ti0_4 Ti0_5 2.912493 1_555
Ti0_4 Zr0_1 3.086536 1_555
Ti0_4 Zr0_6 3.086536 1_545
Ti0_5 Zr0_0 3.086536 1_556
Ti0_5 Zr0_7 3.086536 1_545
Ti0_6 Ti0_7 2.912493 1_555
Ti0_6 Ti0_7 2.912493 1_554
Ti0_6 Zr0_3 3.086536 1_555
Ti0_6 Zr0_4 3.086536 1_555
Ti0_7 Zr0_2 3.086536 1_556
Ti0_7 Zr0_5 3.086536 1_555
Nb0_0 Ti0_2 2.764414 1_555
Nb0_0 Ti0_5 2.764414 1_554
Nb0_0 Nb0_1 2.912493 1_555
Nb0_0 Nb0_6 2.912493 1_455
Nb0_0 Nb0_6 2.912493 1_545
Nb0_0 Nb0_1 2.912493 1_554
Nb0_0 Zr0_2 3.059812 1_555
Nb0_0 Zr0_5 3.059812 1_554
Nb0_1 Ti0_3 2.764414 1_555
Nb0_1 Ti0_4 2.764414 1_555
Nb0_1 Nb0_7 2.912493 1_455
Nb0_1 Nb0_7 2.912493 1_545
Nb0_1 Zr0_3 3.059812 1_555
Nb0_1 Zr0_4 3.059812 1_555
Nb0_2 Ti0_7 2.764414 1_554
Nb0_2 Ti0_0 2.764414 1_565
Nb0_2 Nb0_3 2.912493 1_554
Nb0_2 Nb0_4 2.912493 1_465
Nb0_2 Nb0_3 2.912493 1_555
Nb0_2 Nb0_4 2.912493 1_555
Nb0_2 Zr0_0 3.059812 1_565
Nb0_2 Zr0_7 3.059812 1_554
Nb0_3 Ti0_6 2.764414 1_555
Nb0_3 Ti0_1 2.764414 1_565
Nb0_3 Nb0_5 2.912493 1_465
Nb0_3 Nb0_5 2.912493 1_555
Nb0_3 Zr0_1 3.059812 1_565
Nb0_3 Zr0_6 3.059812 1_555
Nb0_4 Ti0_6 2.764414 1_555
Nb0_4 Ti0_1 2.764414 1_654
Nb0_4 Nb0_5 2.912493 1_554
Nb0_4 Nb0_5 2.912493 1_555
Nb0_4 Zr0_6 3.059812 1_555
Nb0_4 Zr0_1 3.059812 1_654
Nb0_5 Ti0_7 2.764414 1_555
Nb0_5 Ti0_0 2.764414 1_655
Nb0_5 Zr0_7 3.059812 1_555
Nb0_5 Zr0_0 3.059812 1_655
Nb0_6 Ti0_3 2.764414 1_654
Nb0_6 Ti0_4 2.764414 1_565
Nb0_6 Nb0_7 2.912493 1_554
Nb0_6 Nb0_7 2.912493 1_555
Nb0_6 Zr0_4 3.059812 1_565
Nb0_6 Zr0_3 3.059812 1_654
Nb0_7 Ti0_2 2.764414 1_655
Nb0_7 Ti0_5 2.764414 1_565
Nb0_7 Zr0_5 3.059812 1_565
Nb0_7 Zr0_2 3.059812 1_655
