# generated using pymatgen
data_Li2MnCoO4
_symmetry_space_group_name_H-M   'P 1'
_cell_length_a   5.16364470
_cell_length_b   5.16364470
_cell_length_c   5.16364470
_cell_angle_alpha   132.13761507
_cell_angle_beta   132.13761507
_cell_angle_gamma   70.01176550
_symmetry_Int_Tables_number   1
_chemical_formula_structural   Li2MnCoO4
_chemical_formula_sum   'Li2 Mn1 Co1 O4'
_cell_volume   74.22364832
_cell_formula_units_Z   1
loop_
 _symmetry_equiv_pos_site_id
 _symmetry_equiv_pos_as_xyz
  1  'x, y, z'
loop_
 _atom_site_type_symbol
 _atom_site_label
 _atom_site_symmetry_multiplicity
 _atom_site_fract_x
 _atom_site_fract_y
 _atom_site_fract_z
 _atom_site_occupancy
  Li  Li0  1  0.25000000  0.75000000  0.50000000  1
  Li  Li1  1  0.50000000  0.50000000  0.00000000  1
  Mn  Mn0  1  0.00000000  0.00000000  0.00000000  1
  Co  Co0  1  0.75000000  0.25000000  0.50000000  1
  O  O0  1  0.52031500  0.02031500  0.50000000  1
  O  O1  1  0.22805200  0.22805200  0.00000000  1
  O  O2  1  0.97968500  0.47968500  0.50000000  1
  O  O3  1  0.77194800  0.77194800  0.00000000  1
loop_
_geom_bond_atom_site_label_1
_geom_bond_atom_site_label_2
_geom_bond_distance
_geom_bond_site_symmetry_2
Li0 O3 2.102789 1_556
Li0 O3 2.102789 1_455
Li0 O1 2.102789 1_566
Li0 O1 2.102789 1_555
Li0 O0 2.286598 1_565
Li0 O2 2.286598 1_455
Li1 O2 2.101614 1_555
Li1 O0 2.101614 1_565
Li1 O0 2.101614 1_554
Li1 O2 2.101614 1_454
Li1 O3 2.300411 1_555
Li1 O1 2.300411 1_555
Mn0 O1 1.929095 1_555
Mn0 O3 1.929095 1_445
Mn0 O2 2.101614 1_444
Mn0 O0 2.101614 1_454
Mn0 O0 2.101614 1_555
Mn0 O2 2.101614 1_455
Co0 O2 1.942908 1_555
Co0 O0 1.942908 1_555
Co0 O3 2.102789 1_556
Co0 O3 2.102789 1_545
Co0 O1 2.102789 1_555
Co0 O1 2.102789 1_656
