# generated using pymatgen
data_TaZnNi2
_symmetry_space_group_name_H-M   'P 1'
_cell_length_a   9.13361335
_cell_length_b   9.23021750
_cell_length_c   9.23021740
_cell_angle_alpha   60.30738570
_cell_angle_beta   60.34561472
_cell_angle_gamma   60.34562117
_symmetry_Int_Tables_number   1
_chemical_formula_structural   TaZnNi2
_chemical_formula_sum   'Ta1 Zn1 Ni2'
_cell_volume   554.38288568
_cell_formula_units_Z   1
loop_
 _symmetry_equiv_pos_site_id
 _symmetry_equiv_pos_as_xyz
  1  'x, y, z'
loop_
 _atom_site_type_symbol
 _atom_site_label
 _atom_site_symmetry_multiplicity
 _atom_site_fract_x
 _atom_site_fract_y
 _atom_site_fract_z
 _atom_site_occupancy
  Ta  Ta0  1  0.50000000  0.00000000  0.00000000  1
  Zn  Zn0  1  0.00000000  0.00000000  0.00000000  1
  Ni  Ni0  1  0.73624100  0.00000000  0.00000000  1
  Ni  Ni1  1  0.26375900  0.00000000  0.00000000  1
loop_
_geom_bond_atom_site_label_1
_geom_bond_atom_site_label_2
_geom_bond_distance
_geom_bond_site_symmetry_2
Ni0 Ta0 2.157734 1_555
Ni0 Zn0 2.409073 1_655
Ni1 Ta0 2.157734 1_555
Ni1 Zn0 2.409073 1_555
