# generated using pymatgen
data_TeC12(BrF5)2
_symmetry_space_group_name_H-M   'P 1'
_cell_length_a   15.90158900
_cell_length_b   6.97506800
_cell_length_c   14.32236500
_cell_angle_alpha   89.84121828
_cell_angle_beta   90.00000000
_cell_angle_gamma   90.00000000
_symmetry_Int_Tables_number   1
_chemical_formula_structural   TeC12(BrF5)2
_chemical_formula_sum   'Te4 C48 Br8 F40'
_cell_volume   1588.55420970
_cell_formula_units_Z   4
loop_
 _symmetry_equiv_pos_site_id
 _symmetry_equiv_pos_as_xyz
  1  'x, y, z'
loop_
 _atom_site_type_symbol
 _atom_site_label
 _atom_site_symmetry_multiplicity
 _atom_site_fract_x
 _atom_site_fract_y
 _atom_site_fract_z
 _atom_site_occupancy
  Te  Te0  1  0.05782400  0.71561600  0.92049600  1
  Te  Te1  1  0.94217600  0.28438400  0.07950400  1
  Te  Te2  1  0.55782400  0.28438400  0.57950400  1
  Te  Te3  1  0.44217600  0.71561600  0.42049600  1
  C  C0  1  0.44582700  0.58234900  0.81588400  1
  C  C1  1  0.55417300  0.41765100  0.18411600  1
  C  C2  1  0.94582700  0.41765100  0.68411600  1
  C  C3  1  0.05417300  0.58234900  0.31588400  1
  C  C4  1  0.00992700  0.38607200  0.61957800  1
  C  C5  1  0.99007300  0.61392800  0.38042200  1
  C  C6  1  0.50992700  0.61392800  0.88042200  1
  C  C7  1  0.49007300  0.38607200  0.11957800  1
  C  C8  1  0.46376400  0.48156100  0.73428000  1
  C  C9  1  0.53623600  0.51843900  0.26572000  1
  C  C10  1  0.96376400  0.51843900  0.76572000  1
  C  C11  1  0.03623600  0.48156100  0.23428000  1
  C  C12  1  0.76398400  0.91689200  0.68966900  1
  C  C13  1  0.23601600  0.08310800  0.31033100  1
  C  C14  1  0.26398400  0.08310800  0.81033100  1
  C  C15  1  0.73601600  0.91689200  0.18966900  1
  C  C16  1  0.82114000  0.91650700  0.61547800  1
  C  C17  1  0.17886000  0.08349300  0.38452200  1
  C  C18  1  0.32114000  0.08349300  0.88452200  1
  C  C19  1  0.67886000  0.91650700  0.11547800  1
  C  C20  1  0.10818400  0.55217200  0.71983600  1
  C  C21  1  0.89181600  0.44782800  0.28016400  1
  C  C22  1  0.60818400  0.44782800  0.78016400  1
  C  C23  1  0.39181600  0.55217200  0.21983600  1
  C  C24  1  0.09140600  0.45333300  0.63718200  1
  C  C25  1  0.90859400  0.54666700  0.36281800  1
  C  C26  1  0.59140600  0.54666700  0.86281800  1
  C  C27  1  0.40859400  0.45333300  0.13718200  1
  C  C28  1  0.22758000  0.88254500  0.97401200  1
  C  C29  1  0.77242000  0.11745500  0.02598800  1
  C  C30  1  0.72758000  0.11745500  0.52598800  1
  C  C31  1  0.27242000  0.88254500  0.47401200  1
  C  C32  1  0.18939700  0.97977600  0.81822300  1
  C  C33  1  0.81060300  0.02022400  0.18177700  1
  C  C34  1  0.68939700  0.02022400  0.68177700  1
  C  C35  1  0.31060300  0.97977600  0.31822300  1
  C  C36  1  0.17073200  0.87649800  0.89943600  1
  C  C37  1  0.82926800  0.12350200  0.10056400  1
  C  C38  1  0.67073200  0.12350200  0.60056400  1
  C  C39  1  0.32926800  0.87649800  0.39943600  1
  C  C40  1  0.04408000  0.58931700  0.78405200  1
  C  C41  1  0.95592000  0.41068300  0.21594800  1
  C  C42  1  0.54408000  0.41068300  0.71594800  1
  C  C43  1  0.45592000  0.58931700  0.28405200  1
  C  C44  1  0.30304700  0.98361300  0.96686500  1
  C  C45  1  0.69695300  0.01638700  0.03313500  1
  C  C46  1  0.80304700  0.01638700  0.53313500  1
  C  C47  1  0.19695300  0.98361300  0.46686500  1
  Br  Br0  1  0.15062600  0.40091700  0.95583800  1
  Br  Br1  1  0.84937400  0.59908300  0.04416200  1
  Br  Br2  1  0.65062600  0.59908300  0.54416200  1
  Br  Br3  1  0.34937400  0.40091700  0.45583800  1
  Br  Br4  1  0.46538000  0.98046300  0.63536100  1
  Br  Br5  1  0.53462000  0.01953700  0.36463900  1
  Br  Br6  1  0.96538000  0.01953700  0.86463900  1
  Br  Br7  1  0.03462000  0.98046300  0.13536100  1
  F  F0  1  0.18825200  0.60640100  0.73565900  1
  F  F1  1  0.81174800  0.39359900  0.26434100  1
  F  F2  1  0.68825200  0.39359900  0.76434100  1
  F  F3  1  0.31174800  0.60640100  0.23565900  1
  F  F4  1  0.13620900  0.98318500  0.74493100  1
  F  F5  1  0.86379100  0.01681500  0.25506900  1
  F  F6  1  0.63620900  0.01681500  0.75506900  1
  F  F7  1  0.36379100  0.98318500  0.24493100  1
  F  F8  1  0.78053900  0.81578900  0.76756700  1
  F  F9  1  0.21946100  0.18421100  0.23243300  1
  F  F10  1  0.28053900  0.18421100  0.73243300  1
  F  F11  1  0.71946100  0.81578900  0.26756700  1
  F  F12  1  0.14229000  0.98485000  0.53833600  1
  F  F13  1  0.85771000  0.01515000  0.46166400  1
  F  F14  1  0.64229000  0.01515000  0.96166400  1
  F  F15  1  0.35771000  0.98485000  0.03833600  1
  F  F16  1  0.15279100  0.42326600  0.57439100  1
  F  F17  1  0.84720900  0.57673400  0.42560900  1
  F  F18  1  0.65279100  0.57673400  0.92560900  1
  F  F19  1  0.34720900  0.42326600  0.07439100  1
  F  F20  1  0.49303400  0.70841100  0.95985300  1
  F  F21  1  0.50696600  0.29158900  0.04014700  1
  F  F22  1  0.99303400  0.29158900  0.54014700  1
  F  F23  1  0.00696600  0.70841100  0.45985300  1
  F  F24  1  0.89352800  0.81853700  0.62282800  1
  F  F25  1  0.10647200  0.18146300  0.37717200  1
  F  F26  1  0.39352800  0.18146300  0.87717200  1
  F  F27  1  0.60647200  0.81853700  0.12282800  1
  F  F28  1  0.40161300  0.45737200  0.67114700  1
  F  F29  1  0.59838700  0.54262800  0.32885300  1
  F  F30  1  0.90161300  0.54262800  0.82885300  1
  F  F31  1  0.09838700  0.45737200  0.17114700  1
  F  F32  1  0.36761300  0.64726300  0.83244900  1
  F  F33  1  0.63238700  0.35273700  0.16755100  1
  F  F34  1  0.86761300  0.35273700  0.66755100  1
  F  F35  1  0.13238700  0.64726300  0.33244900  1
  F  F36  1  0.28919800  0.79050400  0.55475200  1
  F  F37  1  0.71080200  0.20949600  0.44524800  1
  F  F38  1  0.78919800  0.20949600  0.94524800  1
  F  F39  1  0.21080200  0.79050400  0.05475200  1
loop_
_geom_bond_atom_site_label_1
_geom_bond_atom_site_label_2
_geom_bond_distance
_geom_bond_site_symmetry_2
C0 F32 1.344897 1_555
C1 F33 1.344897 1_555
C2 F34 1.344897 1_555
C3 F35 1.344897 1_555
C4 F22 1.343448 1_455
C5 F23 1.343448 1_655
C6 F20 1.343448 1_555
C7 F21 1.343448 1_555
C8 F28 1.350426 1_555
C9 F29 1.350426 1_555
C10 F30 1.350426 1_555
C10 C40 1.394698 1_655
C11 F31 1.350426 1_555
C11 C41 1.394698 1_455
C12 F8 1.344246 1_555
C13 F9 1.344246 1_555
C14 F10 1.344246 1_555
C15 F11 1.344246 1_555
C16 F24 1.342625 1_555
C17 F25 1.342625 1_555
C18 F26 1.342625 1_555
C19 F27 1.342625 1_555
C20 F0 1.347578 1_555
C20 C40 1.397651 1_555
C21 F1 1.347578 1_555
C21 C41 1.397651 1_555
C22 F2 1.347578 1_555
C22 C42 1.397651 1_555
C23 F3 1.347578 1_555
C23 C43 1.397651 1_555
C24 F16 1.344100 1_555
C25 F17 1.344100 1_555
C26 F18 1.344100 1_555
C27 F19 1.344100 1_555
C28 F39 1.347758 1_556
C28 C36 1.400016 1_555
C29 F38 1.347758 1_554
C29 C37 1.400016 1_555
C30 F37 1.347758 1_555
C30 C38 1.400016 1_555
C31 F36 1.347758 1_555
C31 C39 1.400016 1_555
C32 F4 1.348207 1_555
C32 C36 1.398331 1_555
C33 F5 1.348207 1_555
C33 C37 1.398331 1_555
C34 F6 1.348207 1_555
C34 C38 1.398331 1_555
C35 F7 1.348207 1_555
C35 C39 1.398331 1_555
C36 Te0 2.138194 1_555
C37 Te1 2.138194 1_555
C38 Te2 2.138194 1_555
C39 Te3 2.138194 1_555
C40 Te0 2.156912 1_555
C41 Te1 2.156912 1_555
C42 C8 1.394698 1_555
C42 Te2 2.156912 1_555
C43 C9 1.394698 1_555
C43 Te3 2.156912 1_555
C44 F15 1.342947 1_556
C45 F14 1.342947 1_554
C46 F13 1.342947 1_555
C47 F12 1.342947 1_555
Br0 Te0 2.691836 1_555
Br1 Te1 2.691836 1_555
Br2 Te2 2.691836 1_555
Br3 Te3 2.691836 1_555
Br4 Te2 2.699143 1_565
Br5 Te3 2.699143 1_545
Br6 Te0 2.699143 1_645
Br7 Te1 2.699143 1_465
