# generated using pymatgen
data_Cr3Pt
_symmetry_space_group_name_H-M   'P 1'
_cell_length_a   5.34739406
_cell_length_b   5.34739406
_cell_length_c   4.06015017
_cell_angle_alpha   90.00000000
_cell_angle_beta   90.00000000
_cell_angle_gamma   119.99999971
_symmetry_Int_Tables_number   1
_chemical_formula_structural   Cr3Pt
_chemical_formula_sum   'Cr6 Pt2'
_cell_volume   100.54421965
_cell_formula_units_Z   2
loop_
 _symmetry_equiv_pos_site_id
 _symmetry_equiv_pos_as_xyz
  1  'x, y, z'
loop_
 _atom_site_type_symbol
 _atom_site_label
 _atom_site_symmetry_multiplicity
 _atom_site_fract_x
 _atom_site_fract_y
 _atom_site_fract_z
 _atom_site_occupancy
  Cr  Cr0  1  0.15031187  0.30062374  0.25000000  1
  Cr  Cr1  1  0.69937626  0.84968813  0.25000000  1
  Cr  Cr2  1  0.15031187  0.84968813  0.25000000  1
  Cr  Cr3  1  0.84968813  0.69937626  0.75000000  1
  Cr  Cr4  1  0.30062374  0.15031187  0.75000000  1
  Cr  Cr5  1  0.84968813  0.15031187  0.75000000  1
  Pt  Pt0  1  0.33333300  0.66666700  0.75000000  1
  Pt  Pt1  1  0.66666700  0.33333300  0.25000000  1
loop_
_geom_bond_atom_site_label_1
_geom_bond_atom_site_label_2
_geom_bond_distance
_geom_bond_site_symmetry_2
Cr0 Cr2 2.411330 1_545
Cr0 Cr1 2.411330 1_445
Cr0 Cr4 2.461580 1_554
Cr0 Cr4 2.461580 1_555
Cr0 Cr5 2.461580 1_454
Cr0 Cr5 2.461580 1_455
Cr0 Pt0 2.644750 1_554
Cr0 Pt0 2.644750 1_555
Cr0 Pt1 2.677982 1_455
Cr0 Pt1 2.677987 1_555
Cr0 Cr2 2.936064 1_555
Cr0 Cr1 2.936064 1_555
Cr1 Cr2 2.411330 1_655
Cr1 Cr3 2.461580 1_554
Cr1 Cr3 2.461580 1_555
Cr1 Cr5 2.461580 1_565
Cr1 Cr5 2.461580 1_564
Cr1 Pt0 2.644750 1_554
Cr1 Pt0 2.644750 1_555
Cr1 Pt1 2.677982 1_565
Cr1 Pt1 2.677987 1_555
Cr1 Cr2 2.936064 1_555
Cr2 Cr4 2.461580 1_564
Cr2 Cr4 2.461580 1_565
Cr2 Cr3 2.461580 1_455
Cr2 Cr3 2.461580 1_454
Cr2 Pt0 2.644747 1_554
Cr2 Pt0 2.644747 1_555
Cr2 Pt1 2.677985 1_455
Cr2 Pt1 2.677985 1_565
Cr3 Cr5 2.411330 1_565
Cr3 Cr4 2.411330 1_665
Cr3 Pt1 2.644750 1_555
Cr3 Pt1 2.644750 1_556
Cr3 Pt0 2.677982 1_655
Cr3 Pt0 2.677987 1_555
Cr3 Cr5 2.936064 1_555
Cr3 Cr4 2.936064 1_555
Cr4 Cr5 2.411330 1_455
Cr4 Pt1 2.644750 1_555
Cr4 Pt1 2.644750 1_556
Cr4 Pt0 2.677982 1_545
Cr4 Pt0 2.677987 1_555
Cr4 Cr5 2.936064 1_555
Cr5 Pt1 2.644747 1_555
Cr5 Pt1 2.644747 1_556
Cr5 Pt0 2.677985 1_545
Cr5 Pt0 2.677985 1_655
