# generated using pymatgen
data_EuVO2
_symmetry_space_group_name_H-M   'P 1'
_cell_length_a   7.38722955
_cell_length_b   7.38722955
_cell_length_c   7.38722955
_cell_angle_alpha   128.70426969
_cell_angle_beta   128.70426969
_cell_angle_gamma   75.48688392
_symmetry_Int_Tables_number   1
_chemical_formula_structural   EuVO2
_chemical_formula_sum   'Eu4 V4 O8'
_cell_volume   238.89223156
_cell_formula_units_Z   4
loop_
 _symmetry_equiv_pos_site_id
 _symmetry_equiv_pos_as_xyz
  1  'x, y, z'
loop_
 _atom_site_type_symbol
 _atom_site_label
 _atom_site_symmetry_multiplicity
 _atom_site_fract_x
 _atom_site_fract_y
 _atom_site_fract_z
 _atom_site_occupancy
  Eu  Eu0  1  0.87500000  0.62500000  0.25000000  1
  Eu  Eu1  1  0.37500000  0.62500000  0.75000000  1
  Eu  Eu2  1  0.37500000  0.62500000  0.25000000  1
  Eu  Eu3  1  0.37500000  0.12500000  0.75000000  1
  V  V0  1  0.37500000  0.12500000  0.25000000  1
  V  V1  1  0.87500000  0.12500000  0.75000000  1
  V  V2  1  0.87500000  0.12500000  0.25000000  1
  V  V3  1  0.87500000  0.62500000  0.75000000  1
  O  O0  1  0.16047600  0.37294900  0.21247300  1
  O  O1  1  0.16047600  0.94800300  0.78752700  1
  O  O2  1  0.12294900  0.41047600  0.71247300  1
  O  O3  1  0.58952400  0.87705100  0.28752700  1
  O  O4  1  0.69800300  0.41047600  0.28752700  1
  O  O5  1  0.58952400  0.30199700  0.71247300  1
  O  O6  1  0.62705100  0.83952400  0.78752700  1
  O  O7  1  0.05199700  0.83952400  0.21247300  1
loop_
_geom_bond_atom_site_label_1
_geom_bond_atom_site_label_2
_geom_bond_distance
_geom_bond_site_symmetry_2
Eu0 O1 2.471571 1_655
Eu0 O5 2.471571 1_554
Eu0 O3 2.471571 1_555
Eu0 O0 2.471571 1_655
Eu0 O4 2.517757 1_555
Eu0 O7 2.517757 1_655
Eu1 O3 2.471571 1_556
Eu1 O0 2.471571 1_555
Eu1 O1 2.471571 1_555
Eu1 O5 2.471571 1_555
Eu1 O2 2.517757 1_555
Eu1 O6 2.517757 1_555
Eu2 O4 2.471571 1_555
Eu2 O2 2.471571 1_554
Eu2 O6 2.471571 1_555
Eu2 O7 2.471571 1_555
Eu2 O0 2.517757 1_555
Eu2 O3 2.517757 1_555
Eu3 O4 2.471571 1_556
Eu3 O6 2.471571 1_545
Eu3 O7 2.471571 1_545
Eu3 O2 2.471571 1_555
Eu3 O1 2.517757 1_545
Eu3 O5 2.517757 1_555
O0 V0 2.138685 1_555
O0 V1 2.138685 1_454
O1 V1 2.138685 1_465
O1 V0 2.138685 1_566
O2 V3 2.138685 1_455
O2 V2 2.138685 1_455
O3 V0 2.138685 1_565
O3 V1 2.138685 1_565
O4 V2 2.138685 1_555
O4 V3 2.138685 1_555
O5 V1 2.138685 1_555
O5 V0 2.138685 1_555
O6 V2 2.138685 1_566
O6 V3 2.138685 1_555
O7 V2 2.138685 1_465
O7 V3 2.138685 1_454
