# generated using pymatgen
data_La3Hf
_symmetry_space_group_name_H-M   'P 1'
_cell_length_a   7.18293236
_cell_length_b   7.18293236
_cell_length_c   5.84772000
_cell_angle_alpha   90.00000000
_cell_angle_beta   90.00000000
_cell_angle_gamma   120.00000331
_symmetry_Int_Tables_number   1
_chemical_formula_structural   La3Hf
_chemical_formula_sum   'La6 Hf2'
_cell_volume   261.28876749
_cell_formula_units_Z   2
loop_
 _symmetry_equiv_pos_site_id
 _symmetry_equiv_pos_as_xyz
  1  'x, y, z'
loop_
 _atom_site_type_symbol
 _atom_site_label
 _atom_site_symmetry_multiplicity
 _atom_site_fract_x
 _atom_site_fract_y
 _atom_site_fract_z
 _atom_site_occupancy
  La  La0  1  0.17390500  0.34780900  0.25000000  1
  La  La1  1  0.65219100  0.82609500  0.25000000  1
  La  La2  1  0.17390500  0.82609500  0.25000000  1
  La  La3  1  0.82609500  0.65219100  0.75000000  1
  La  La4  1  0.34780900  0.17390500  0.75000000  1
  La  La5  1  0.82609500  0.17390500  0.75000000  1
  Hf  Hf0  1  0.33333300  0.66666700  0.75000000  1
  Hf  Hf1  1  0.66666700  0.33333300  0.25000000  1
loop_
_geom_bond_atom_site_label_1
_geom_bond_atom_site_label_2
_geom_bond_distance
_geom_bond_site_symmetry_2
La0 La1 3.435496 1_555
La0 La2 3.435496 1_555
La0 La4 3.637309 1_555
La0 La4 3.637309 1_554
La0 La5 3.637316 1_455
La0 La5 3.637316 1_454
La0 La1 3.747436 1_445
La0 La2 3.747436 1_545
La1 La2 3.435496 1_555
La1 La3 3.637309 1_554
La1 La3 3.637309 1_555
La1 La5 3.637316 1_565
La1 La5 3.637316 1_564
La1 La2 3.747436 1_655
La2 La4 3.637316 1_564
La2 La3 3.637316 1_455
La2 La3 3.637316 1_454
La2 La4 3.637316 1_565
La3 La4 3.435496 1_555
La3 La5 3.435496 1_555
La3 La4 3.747436 1_665
La3 La5 3.747436 1_565
La4 La5 3.435496 1_555
La4 La5 3.747436 1_455
Hf0 La2 3.533148 1_555
Hf0 La2 3.533148 1_556
Hf0 La1 3.533155 1_555
Hf0 La1 3.533155 1_556
Hf0 La0 3.533155 1_555
Hf0 La0 3.533155 1_556
Hf0 La5 3.592595 1_565
Hf0 La5 3.592595 1_455
Hf0 La4 3.592595 1_565
Hf0 La3 3.592595 1_455
Hf0 La3 3.592595 1_555
Hf0 La4 3.592595 1_555
Hf1 La5 3.533148 1_554
Hf1 La5 3.533148 1_555
Hf1 La3 3.533155 1_555
Hf1 La4 3.533155 1_555
Hf1 La3 3.533155 1_554
Hf1 La4 3.533155 1_554
Hf1 La2 3.592595 1_655
Hf1 La2 3.592595 1_545
Hf1 La0 3.592595 1_655
Hf1 La1 3.592595 1_545
Hf1 La1 3.592595 1_555
Hf1 La0 3.592595 1_555
