# generated using pymatgen
data_MnRu
_symmetry_space_group_name_H-M   'P 1'
_cell_length_a   5.25043829
_cell_length_b   5.25043829
_cell_length_c   8.13101430
_cell_angle_alpha   90.00000000
_cell_angle_beta   90.00000000
_cell_angle_gamma   120.00042446
_symmetry_Int_Tables_number   1
_chemical_formula_structural   MnRu
_chemical_formula_sum   'Mn8 Ru8'
_cell_volume   194.11746676
_cell_formula_units_Z   8
loop_
 _symmetry_equiv_pos_site_id
 _symmetry_equiv_pos_as_xyz
  1  'x, y, z'
loop_
 _atom_site_type_symbol
 _atom_site_label
 _atom_site_symmetry_multiplicity
 _atom_site_fract_x
 _atom_site_fract_y
 _atom_site_fract_z
 _atom_site_occupancy
  Mn  Mn0_0  1  0.99999985  0.00000015  0.25000000  1
  Mn  Mn0_1  1  0.99999985  0.00000015  0.75000000  1
  Mn  Mn0_2  1  0.99999985  0.50000015  0.25000000  1
  Mn  Mn0_3  1  0.99999985  0.50000015  0.75000000  1
  Mn  Mn0_4  1  0.49999985  0.00000015  0.25000000  1
  Mn  Mn0_5  1  0.49999985  0.00000015  0.75000000  1
  Mn  Mn0_6  1  0.49999985  0.50000015  0.25000000  1
  Mn  Mn0_7  1  0.49999985  0.50000015  0.75000000  1
  Ru  Ru0_0  1  0.33333365  0.16666635  0.00000000  1
  Ru  Ru0_1  1  0.33333365  0.16666635  0.50000000  1
  Ru  Ru0_2  1  0.33333365  0.66666635  0.00000000  1
  Ru  Ru0_3  1  0.33333365  0.66666635  0.50000000  1
  Ru  Ru0_4  1  0.83333365  0.16666635  0.00000000  1
  Ru  Ru0_5  1  0.83333365  0.16666635  0.50000000  1
  Ru  Ru0_6  1  0.83333365  0.66666635  0.00000000  1
  Ru  Ru0_7  1  0.83333365  0.66666635  0.50000000  1
loop_
_geom_bond_atom_site_label_1
_geom_bond_atom_site_label_2
_geom_bond_distance
_geom_bond_site_symmetry_2
Mn0_0 Ru0_1 2.535613 1_655
Mn0_0 Ru0_0 2.535613 1_655
Mn0_0 Ru0_6 2.535613 1_545
Mn0_0 Ru0_7 2.535613 1_545
Mn0_0 Ru0_5 2.535615 1_555
Mn0_0 Ru0_4 2.535615 1_555
Mn0_0 Mn0_6 2.625202 1_655
Mn0_0 Mn0_6 2.625202 1_545
Mn0_0 Mn0_4 2.625219 1_655
Mn0_0 Mn0_2 2.625219 1_545
Mn0_0 Mn0_4 2.625219 1_555
Mn0_0 Mn0_2 2.625219 1_555
Mn0_1 Ru0_1 2.535613 1_655
Mn0_1 Ru0_0 2.535613 1_656
Mn0_1 Ru0_6 2.535613 1_546
Mn0_1 Ru0_7 2.535613 1_545
Mn0_1 Ru0_5 2.535615 1_555
Mn0_1 Ru0_4 2.535615 1_556
Mn0_1 Mn0_7 2.625202 1_545
Mn0_1 Mn0_7 2.625202 1_655
Mn0_1 Mn0_3 2.625219 1_555
Mn0_1 Mn0_5 2.625219 1_655
Mn0_1 Mn0_3 2.625219 1_545
Mn0_1 Mn0_5 2.625219 1_555
Mn0_2 Ru0_3 2.535613 1_655
Mn0_2 Ru0_2 2.535613 1_655
Mn0_2 Ru0_4 2.535613 1_555
Mn0_2 Ru0_5 2.535613 1_555
Mn0_2 Ru0_6 2.535615 1_555
Mn0_2 Ru0_7 2.535615 1_555
Mn0_2 Mn0_4 2.625202 1_665
Mn0_2 Mn0_4 2.625202 1_555
Mn0_2 Mn0_6 2.625219 1_555
Mn0_2 Mn0_6 2.625219 1_655
Mn0_3 Ru0_3 2.535613 1_655
Mn0_3 Ru0_2 2.535613 1_656
Mn0_3 Ru0_4 2.535613 1_556
Mn0_3 Ru0_5 2.535613 1_555
Mn0_3 Ru0_6 2.535615 1_556
Mn0_3 Ru0_7 2.535615 1_555
Mn0_3 Mn0_5 2.625202 1_665
Mn0_3 Mn0_5 2.625202 1_555
Mn0_3 Mn0_7 2.625219 1_555
Mn0_3 Mn0_7 2.625219 1_655
Mn0_4 Ru0_3 2.535613 1_545
Mn0_4 Ru0_2 2.535613 1_545
Mn0_4 Ru0_5 2.535613 1_555
Mn0_4 Ru0_4 2.535613 1_555
Mn0_4 Ru0_0 2.535615 1_555
Mn0_4 Ru0_1 2.535615 1_555
Mn0_4 Mn0_6 2.625219 1_555
Mn0_4 Mn0_6 2.625219 1_545
Mn0_5 Ru0_3 2.535613 1_545
Mn0_5 Ru0_2 2.535613 1_546
Mn0_5 Ru0_5 2.535613 1_555
Mn0_5 Ru0_4 2.535613 1_556
Mn0_5 Ru0_0 2.535615 1_556
Mn0_5 Ru0_1 2.535615 1_555
Mn0_5 Mn0_7 2.625219 1_555
Mn0_5 Mn0_7 2.625219 1_545
Mn0_6 Ru0_6 2.535613 1_555
Mn0_6 Ru0_0 2.535613 1_555
Mn0_6 Ru0_7 2.535613 1_555
Mn0_6 Ru0_1 2.535613 1_555
Mn0_6 Ru0_2 2.535615 1_555
Mn0_6 Ru0_3 2.535615 1_555
Mn0_7 Ru0_0 2.535613 1_556
Mn0_7 Ru0_7 2.535613 1_555
Mn0_7 Ru0_1 2.535613 1_555
Mn0_7 Ru0_6 2.535613 1_556
Mn0_7 Ru0_2 2.535615 1_556
Mn0_7 Ru0_3 2.535615 1_555
Ru0_0 Ru0_6 2.625202 1_555
Ru0_0 Ru0_6 2.625202 1_445
Ru0_0 Ru0_2 2.625219 1_545
Ru0_0 Ru0_4 2.625219 1_455
Ru0_0 Ru0_4 2.625219 1_555
Ru0_0 Ru0_2 2.625219 1_555
Ru0_1 Ru0_7 2.625202 1_445
Ru0_1 Ru0_7 2.625202 1_555
Ru0_1 Ru0_5 2.625219 1_455
Ru0_1 Ru0_3 2.625219 1_545
Ru0_1 Ru0_3 2.625219 1_555
Ru0_1 Ru0_5 2.625219 1_555
Ru0_2 Ru0_4 2.625202 1_565
Ru0_2 Ru0_4 2.625202 1_455
Ru0_2 Ru0_6 2.625219 1_455
Ru0_2 Ru0_6 2.625219 1_555
Ru0_3 Ru0_5 2.625202 1_455
Ru0_3 Ru0_5 2.625202 1_565
Ru0_3 Ru0_7 2.625219 1_455
Ru0_3 Ru0_7 2.625219 1_555
Ru0_4 Ru0_6 2.625219 1_555
Ru0_4 Ru0_6 2.625219 1_545
Ru0_5 Ru0_7 2.625219 1_555
Ru0_5 Ru0_7 2.625219 1_545
