# generated using pymatgen
data_Ca(BH4)2
_symmetry_space_group_name_H-M   'P 1'
_cell_length_a   7.92026144
_cell_length_b   7.58205158
_cell_length_c   5.77809771
_cell_angle_alpha   71.26453003
_cell_angle_beta   65.03590700
_cell_angle_gamma   43.69956297
_symmetry_Int_Tables_number   1
_chemical_formula_structural   Ca(BH4)2
_chemical_formula_sum   'Ca2 B4 H16'
_cell_volume   217.25578713
_cell_formula_units_Z   2
loop_
 _symmetry_equiv_pos_site_id
 _symmetry_equiv_pos_as_xyz
  1  'x, y, z'
loop_
 _atom_site_type_symbol
 _atom_site_label
 _atom_site_symmetry_multiplicity
 _atom_site_fract_x
 _atom_site_fract_y
 _atom_site_fract_z
 _atom_site_occupancy
  Ca  Ca0  1  0.75000000  0.75000000  0.75000000  1
  Ca  Ca1  1  0.50000000  0.50000000  0.50000000  1
  B  B0  1  0.97070700  0.97070700  0.52929300  1
  B  B1  1  0.52929300  0.52929300  0.97070700  1
  B  B2  1  0.27929300  0.27929300  0.72070700  1
  B  B3  1  0.72070700  0.72070700  0.27929300  1
  H  H0  1  0.05306100  0.78254500  0.44672200  1
  H  H1  1  0.78254500  0.05306100  0.71767200  1
  H  H2  1  0.44672200  0.71767200  0.05306100  1
  H  H3  1  0.71767200  0.44672200  0.78254500  1
  H  H4  1  0.19693900  0.46745500  0.80327800  1
  H  H5  1  0.46745500  0.19693900  0.53232800  1
  H  H6  1  0.80327800  0.53232800  0.19693900  1
  H  H7  1  0.53232800  0.80327800  0.46745500  1
  H  H8  1  0.12271600  0.32744300  0.65256500  1
  H  H9  1  0.32744300  0.12271600  0.89727600  1
  H  H10  1  0.65256500  0.89727600  0.12271600  1
  H  H11  1  0.89727600  0.65256500  0.32744300  1
  H  H12  1  0.12728400  0.92255700  0.59743500  1
  H  H13  1  0.92255700  0.12728400  0.35272400  1
  H  H14  1  0.59743500  0.35272400  0.12728400  1
  H  H15  1  0.35272400  0.59743500  0.92255700  1
loop_
_geom_bond_atom_site_label_1
_geom_bond_atom_site_label_2
_geom_bond_distance
_geom_bond_site_symmetry_2
Ca0 H9 2.318702 1_565
Ca0 H10 2.318702 1_556
Ca0 H11 2.318702 1_555
Ca0 H8 2.318702 1_655
Ca0 H3 2.433390 1_555
Ca0 H2 2.433390 1_556
Ca0 H1 2.433390 1_565
Ca0 H0 2.433390 1_655
Ca0 H6 2.597279 1_556
Ca0 H7 2.597279 1_555
Ca0 H5 2.597279 1_565
Ca0 H4 2.597279 1_655
Ca1 H12 2.318702 1_555
Ca1 H13 2.318702 1_555
Ca1 H14 2.318702 1_555
Ca1 H15 2.318702 1_555
Ca1 H6 2.433390 1_555
Ca1 H4 2.433390 1_555
Ca1 H5 2.433390 1_555
Ca1 H7 2.433390 1_555
Ca1 H1 2.597279 1_555
Ca1 H0 2.597279 1_555
Ca1 H3 2.597279 1_555
Ca1 H2 2.597279 1_555
B0 H12 1.221231 1_655
B0 H13 1.221231 1_565
B0 H0 1.231852 1_655
B0 H1 1.231852 1_565
B1 H14 1.221231 1_556
B1 H15 1.221231 1_555
B1 H3 1.231852 1_555
B1 H2 1.231852 1_556
B2 H9 1.221231 1_555
B2 H8 1.221231 1_555
B2 H5 1.231852 1_555
B2 H4 1.231852 1_555
B3 H11 1.221231 1_555
B3 H10 1.221231 1_555
B3 H6 1.231852 1_555
B3 H7 1.231852 1_555
