# generated using pymatgen
data_La9Ce3Si8(S8I)4
_symmetry_space_group_name_H-M   'P 1'
_cell_length_a   9.08624387
_cell_length_b   13.61188071
_cell_length_c   13.40901625
_cell_angle_alpha   64.69193509
_cell_angle_beta   71.48724324
_cell_angle_gamma   80.82518105
_symmetry_Int_Tables_number   1
_chemical_formula_structural   La9Ce3Si8(S8I)4
_chemical_formula_sum   'La9 Ce3 Si8 S32 I4'
_cell_volume   1421.13916297
_cell_formula_units_Z   1
loop_
 _symmetry_equiv_pos_site_id
 _symmetry_equiv_pos_as_xyz
  1  'x, y, z'
loop_
 _atom_site_type_symbol
 _atom_site_label
 _atom_site_symmetry_multiplicity
 _atom_site_fract_x
 _atom_site_fract_y
 _atom_site_fract_z
 _atom_site_occupancy
  La  La0  1  0.39540208  0.67945897  0.00128652  1
  La  La1  1  0.26880470  0.05260173  0.12834078  1
  La  La2  1  0.76904342  0.55233165  0.62806468  1
  La  La3  1  0.10457544  0.82020387  0.49940057  1
  La  La4  1  0.60445573  0.32014376  0.99943575  1
  La  La5  1  0.32844979  0.07913468  0.67125937  1
  La  La6  1  0.82818234  0.57852324  0.17159311  1
  La  La7  1  0.67162132  0.92142415  0.32844601  1
  La  La8  1  0.17160435  0.42135292  0.82853823  1
  Ce  Ce0  1  0.72910458  0.94744611  0.87130576  1
  Ce  Ce1  1  0.22854857  0.44661907  0.37180405  1
  Ce  Ce2  1  0.89660208  0.17834491  0.50288567  1
  Si  Si0  1  0.29283554  0.08481667  0.38553943  1
  Si  Si1  1  0.79328281  0.58477475  0.88534473  1
  Si  Si2  1  0.99528636  0.70373985  0.32652111  1
  Si  Si3  1  0.49578532  0.20373737  0.82619403  1
  Si  Si4  1  0.70666206  0.91619709  0.61467603  1
  Si  Si5  1  0.20609678  0.41563113  0.11524233  1
  Si  Si6  1  0.00531806  0.29568778  0.67311180  1
  Si  Si7  1  0.50543715  0.79578970  0.17316613  1
  S  S0  1  0.24132255  0.20535158  0.45464890  1
  S  S1  1  0.74300798  0.70541890  0.95423452  1
  S  S2  1  0.60729211  0.14394621  0.69647798  1
  S  S3  1  0.10634796  0.64336609  0.19725584  1
  S  S4  1  0.75730491  0.79569361  0.54546673  1
  S  S5  1  0.25734573  0.29549483  0.04539449  1
  S  S6  1  0.39456982  0.85533699  0.30335247  1
  S  S7  1  0.89464023  0.35528656  0.80328290  1
  S  S8  1  0.08676406  0.06405791  0.35139842  1
  S  S9  1  0.58777156  0.56351130  0.85067578  1
  S  S10  1  0.09564170  0.61764097  0.46690787  1
  S  S11  1  0.59570507  0.11787765  0.96685939  1
  S  S12  1  0.91146477  0.93701466  0.65051021  1
  S  S13  1  0.41104368  0.43629536  0.15097514  1
  S  S14  1  0.90592791  0.38072453  0.53200348  1
  S  S15  1  0.40607264  0.88191371  0.03203474  1
  S  S16  1  0.34221486  0.93813098  0.51808856  1
  S  S17  1  0.84179212  0.43800190  0.01812734  1
  S  S18  1  0.75736521  0.66239656  0.38222833  1
  S  S19  1  0.25787151  0.16215299  0.88203282  1
  S  S20  1  0.65945123  0.06324488  0.48169911  1
  S  S21  1  0.15799832  0.56225409  0.98201088  1
  S  S22  1  0.24265849  0.33858276  0.61566000  1
  S  S23  1  0.74286170  0.83868503  0.11577838  1
  S  S24  1  0.47859126  0.12092842  0.23210587  1
  S  S25  1  0.97884887  0.62091588  0.73190235  1
  S  S26  1  0.01506215  0.87346273  0.27342055  1
  S  S27  1  0.51505282  0.37352021  0.77328294  1
  S  S28  1  0.52134086  0.87958825  0.76825697  1
  S  S29  1  0.02090387  0.37887334  0.26881326  1
  S  S30  1  0.98482454  0.12601579  0.72645104  1
  S  S31  1  0.48477396  0.62611964  0.22679685  1
  I  I0  1  0.38129657  0.63181512  0.61847507  1
  I  I1  1  0.88133307  0.13180239  0.11844229  1
  I  I2  1  0.61832691  0.36816733  0.38152530  1
  I  I3  1  0.11811053  0.86845145  0.88126715  1
loop_
_geom_bond_atom_site_label_1
_geom_bond_atom_site_label_2
_geom_bond_distance
_geom_bond_site_symmetry_2
La0 S15 2.975869 1_555
La0 S3 2.994917 1_555
La0 S21 3.011513 1_554
La0 S9 3.037830 1_554
La0 S13 3.058687 1_555
La0 S1 3.065694 1_554
La0 S31 3.134429 1_555
La0 S28 3.152768 1_554
La1 S8 2.980112 1_555
La1 S5 2.999809 1_555
La1 S19 3.015298 1_554
La1 S15 3.039682 1_545
La1 S6 3.059415 1_545
La1 S11 3.068084 1_554
La1 S24 3.128968 1_555
La1 S26 3.151968 1_545
La2 S9 2.971955 1_555
La2 S4 3.006162 1_555
La2 S18 3.011853 1_555
La2 S14 3.048136 1_555
La2 S7 3.058637 1_555
La2 S10 3.064787 1_655
La2 S25 3.131899 1_555
La2 S27 3.150766 1_555
La3 S10 2.986611 1_555
La3 S6 3.001770 1_555
La3 S16 3.015737 1_555
La3 S12 3.052804 1_455
La3 S4 3.061225 1_455
La3 S8 3.063193 1_565
La3 S26 3.141323 1_555
La3 S25 3.143123 1_455
La4 S11 2.982861 1_555
La4 S7 3.003583 1_555
La4 S17 3.012845 1_556
La4 S13 3.051245 1_556
La4 S9 3.059108 1_555
La4 S5 3.060392 1_556
La4 S27 3.142633 1_555
La4 S24 3.144011 1_556
La5 S0 2.962225 1_555
La5 S2 2.970494 1_555
La5 S30 3.000747 1_455
La5 S28 3.008366 1_545
La5 S22 3.297818 1_555
La5 S20 3.310743 1_555
La5 S19 3.320320 1_555
La5 S16 3.323926 1_545
La6 S1 2.962953 1_554
La6 S3 2.967996 1_655
La6 S31 3.000419 1_555
La6 S29 3.009051 1_655
La6 S21 3.305150 1_654
La6 S23 3.305882 1_555
La6 S17 3.322172 1_555
La6 S18 3.326152 1_555
La7 S4 2.959596 1_555
La7 S6 2.962831 1_555
La7 S26 3.001447 1_655
La7 S24 3.006706 1_565
La7 S18 3.296293 1_555
La7 S16 3.304643 1_555
La7 S20 3.337824 1_565
La7 S23 3.340744 1_555
La8 S5 2.958245 1_556
La8 S7 2.963066 1_455
La8 S27 3.001265 1_555
La8 S25 3.006679 1_455
La8 S19 3.299772 1_555
La8 S17 3.306477 1_456
La8 S21 3.326576 1_555
La8 S22 3.343894 1_555
Ce0 S12 2.949623 1_555
Ce0 S1 2.988352 1_555
Ce0 S23 3.000912 1_556
Ce0 S11 3.025090 1_565
Ce0 S2 3.036044 1_565
Ce0 S15 3.038070 1_556
Ce0 S28 3.103227 1_555
Ce0 S30 3.158838 1_565
Ce0 I3 3.554219 1_655
Ce1 S13 2.949722 1_555
Ce1 S0 2.978935 1_555
Ce1 S22 2.994322 1_555
Ce1 S10 3.027797 1_555
Ce1 S14 3.033884 1_455
Ce1 S3 3.037445 1_555
Ce1 S29 3.100876 1_555
Ce1 S31 3.169904 1_555
Ce1 I2 3.559287 1_555
Ce2 S14 2.960304 1_555
Ce2 S2 2.981284 1_555
Ce2 S20 3.004068 1_555
Ce2 S8 3.024474 1_655
Ce2 S12 3.032555 1_545
Ce2 S0 3.040004 1_655
Ce2 S30 3.107250 1_555
Ce2 S29 3.159860 1_655
Ce2 I2 3.556994 1_555
S0 Si0 2.132917 1_555
S1 Si1 2.132733 1_555
S2 Si3 2.131325 1_555
S3 Si2 2.130900 1_455
S4 Si4 2.133794 1_555
S5 Si5 2.134914 1_555
S6 Si7 2.133491 1_555
S7 Si6 2.133519 1_655
S8 Si0 2.149191 1_555
S9 Si1 2.150682 1_555
S10 Si2 2.147473 1_455
S11 Si3 2.147614 1_555
S12 Si4 2.150922 1_555
S13 Si5 2.150662 1_555
S14 Si6 2.148200 1_655
S15 Si7 2.149759 1_555
S16 Si0 2.129224 1_565
S17 Si1 2.128876 1_554
S18 Si2 2.133351 1_555
S19 Si3 2.134046 1_555
S20 Si4 2.128455 1_545
S21 Si5 2.129578 1_556
S22 Si6 2.132368 1_555
S23 Si7 2.133155 1_555
S24 Si0 2.125560 1_555
S25 Si1 2.124709 1_555
S26 Si2 2.126325 1_455
S27 Si3 2.126809 1_555
S28 Si4 2.124345 1_555
S29 Si5 2.123546 1_555
S30 Si6 2.126158 1_655
S31 Si7 2.125765 1_555
I0 La8 3.347349 1_555
I0 La3 3.527012 1_555
I0 La2 3.543014 1_555
I1 La7 3.346521 1_545
I1 La4 3.527458 1_554
I1 La1 3.541038 1_655
I2 La6 3.346633 1_555
I3 La5 3.351479 1_565
I3 La0 3.538975 1_556
