# generated using pymatgen
data_Li3Mn3(PO4)4
_symmetry_space_group_name_H-M   'P 1'
_cell_length_a   9.90830027
_cell_length_b   9.90830027
_cell_length_c   10.49368166
_cell_angle_alpha   88.56790179
_cell_angle_beta   88.56790179
_cell_angle_gamma   40.40501264
_symmetry_Int_Tables_number   1
_chemical_formula_structural   Li3Mn3(PO4)4
_chemical_formula_sum   'Li6 Mn6 P8 O32'
_cell_volume   667.53208965
_cell_formula_units_Z   2
loop_
 _symmetry_equiv_pos_site_id
 _symmetry_equiv_pos_as_xyz
  1  'x, y, z'
loop_
 _atom_site_type_symbol
 _atom_site_label
 _atom_site_symmetry_multiplicity
 _atom_site_fract_x
 _atom_site_fract_y
 _atom_site_fract_z
 _atom_site_occupancy
  Li  Li0  1  0.97594100  0.16886400  0.44228700  1
  Li  Li1  1  0.46209100  0.53790900  0.25000000  1
  Li  Li2  1  0.83113600  0.02405900  0.05771300  1
  Li  Li3  1  0.16886400  0.97594100  0.94228700  1
  Li  Li4  1  0.02405900  0.83113600  0.55771300  1
  Li  Li5  1  0.53790900  0.46209100  0.75000000  1
  Mn  Mn0  1  0.63793400  0.67554500  0.75473500  1
  Mn  Mn1  1  0.67554500  0.63793400  0.25473500  1
  Mn  Mn2  1  0.50000000  0.00000000  0.50000000  1
  Mn  Mn3  1  0.32445500  0.36206600  0.74526500  1
  Mn  Mn4  1  0.36206600  0.32445500  0.24526500  1
  Mn  Mn5  1  0.00000000  0.50000000  0.00000000  1
  P  P0  1  0.41205200  0.74844700  0.50346500  1
  P  P1  1  0.74844700  0.41205200  0.00346500  1
  P  P2  1  0.82754000  0.78000400  0.24692600  1
  P  P3  1  0.17246000  0.21999600  0.75307400  1
  P  P4  1  0.78000400  0.82754000  0.74692600  1
  P  P5  1  0.25155300  0.58794800  0.99653500  1
  P  P6  1  0.21999600  0.17246000  0.25307400  1
  P  P7  1  0.58794800  0.25155300  0.49653500  1
  O  O0  1  0.59944500  0.56970400  0.89193900  1
  O  O1  1  0.22978200  0.28158100  0.14486700  1
  O  O2  1  0.35732300  0.95092500  0.21832400  1
  O  O3  1  0.81900300  0.21430600  0.98762800  1
  O  O4  1  0.77021800  0.71841900  0.85513300  1
  O  O5  1  0.68055700  0.80425100  0.64107800  1
  O  O6  1  0.56970400  0.59944500  0.39193900  1
  O  O7  1  0.04907500  0.64267700  0.28167600  1
  O  O8  1  0.21430600  0.81900300  0.48762800  1
  O  O9  1  0.95092500  0.35732300  0.71832400  1
  O  O10  1  0.36732700  0.47649500  0.86671900  1
  O  O11  1  0.47649500  0.36732700  0.36671900  1
  O  O12  1  0.00151300  0.29920600  0.29780100  1
  O  O13  1  0.43029600  0.40055500  0.60806100  1
  O  O14  1  0.18099700  0.78569400  0.01237200  1
  O  O15  1  0.52350500  0.63267300  0.63328100  1
  O  O16  1  0.28158100  0.22978200  0.64486700  1
  O  O17  1  0.19574900  0.31944300  0.85892200  1
  O  O18  1  0.71841900  0.77021800  0.35513300  1
  O  O19  1  0.80425100  0.68055700  0.14107800  1
  O  O20  1  0.99848700  0.70079400  0.70219900  1
  O  O21  1  0.65061100  0.05141600  0.49920500  1
  O  O22  1  0.64267700  0.04907500  0.78167600  1
  O  O23  1  0.05141600  0.65061100  0.99920500  1
  O  O24  1  0.78569400  0.18099700  0.51237200  1
  O  O25  1  0.31944300  0.19574900  0.35892200  1
  O  O26  1  0.63267300  0.52350500  0.13328100  1
  O  O27  1  0.34938900  0.94858400  0.50079500  1
  O  O28  1  0.94858400  0.34938900  0.00079500  1
  O  O29  1  0.40055500  0.43029600  0.10806100  1
  O  O30  1  0.70079400  0.99848700  0.20219900  1
  O  O31  1  0.29920600  0.00151300  0.79780100  1
loop_
_geom_bond_atom_site_label_1
_geom_bond_atom_site_label_2
_geom_bond_distance
_geom_bond_site_symmetry_2
Li0 O24 1.923189 1_555
Li0 O12 2.100523 1_655
Li0 O8 2.307846 1_645
Li0 O27 2.565025 1_645
Li1 O26 1.978668 1_555
Li1 O11 1.978668 1_555
Li1 O6 2.200466 1_555
Li1 O29 2.200466 1_555
Li2 O3 1.923189 1_554
Li2 O30 2.100523 1_545
Li2 O14 2.307846 1_645
Li2 O23 2.565025 1_644
Li3 O14 1.923189 1_556
Li3 O31 2.100523 1_565
Li3 O3 2.307846 1_465
Li3 O28 2.565025 1_466
Li4 O8 1.923189 1_555
Li4 O20 2.100523 1_455
Li4 O24 2.307846 1_465
Li4 O21 2.565025 1_465
Li5 O15 1.978668 1_555
Li5 O10 1.978668 1_555
Li5 O0 2.200466 1_555
Li5 O13 2.200466 1_555
Mn0 O0 1.955591 1_555
Mn0 O15 1.980676 1_555
Mn0 O5 1.986490 1_555
Mn0 O4 1.986897 1_555
Mn0 O9 2.194138 1_555
Mn0 O31 2.321289 1_565
Mn1 O6 1.955591 1_555
Mn1 O26 1.980676 1_555
Mn1 O19 1.986490 1_555
Mn1 O18 1.986897 1_555
Mn1 O2 2.194138 1_555
Mn1 O12 2.321289 1_655
Mn2 O21 1.908809 1_555
Mn2 O27 1.908809 1_545
Mn2 O5 1.964291 1_545
Mn2 O25 1.964291 1_555
Mn2 O18 2.163951 1_545
Mn2 O16 2.163951 1_555
Mn3 O13 1.955591 1_555
Mn3 O10 1.980676 1_555
Mn3 O17 1.986490 1_555
Mn3 O16 1.986897 1_555
Mn3 O22 2.194138 1_555
Mn3 O20 2.321289 1_455
Mn4 O29 1.955591 1_555
Mn4 O11 1.980676 1_555
Mn4 O25 1.986490 1_555
Mn4 O1 1.986897 1_555
Mn4 O7 2.194138 1_555
Mn4 O30 2.321289 1_545
Mn5 O23 1.908809 1_554
Mn5 O28 1.908809 1_455
Mn5 O19 1.964291 1_455
Mn5 O17 1.964291 1_554
Mn5 O1 2.163951 1_555
Mn5 O4 2.163951 1_454
O0 P1 1.572292 1_556
O1 P6 1.600167 1_555
O2 P6 1.506359 1_565
O3 P1 1.509869 1_556
O4 P4 1.600167 1_555
O5 P4 1.634532 1_555
O6 P0 1.572292 1_555
O7 P2 1.506359 1_455
O8 P0 1.509869 1_555
O9 P3 1.506359 1_655
O10 P5 1.568100 1_555
O11 P7 1.568100 1_555
O12 P6 1.523830 1_555
O13 P7 1.572292 1_555
O14 P5 1.509869 1_554
O15 P0 1.568100 1_555
O16 P3 1.600167 1_555
O17 P3 1.634532 1_555
O18 P2 1.600167 1_555
O19 P2 1.634532 1_555
O20 P4 1.523830 1_555
O21 P7 1.562570 1_555
O22 P4 1.506359 1_545
O23 P5 1.562570 1_555
O24 P7 1.509869 1_555
O25 P6 1.634532 1_555
O26 P1 1.568100 1_555
O27 P0 1.562570 1_555
O28 P1 1.562570 1_555
O29 P5 1.572292 1_554
O30 P2 1.523830 1_555
O31 P3 1.523830 1_555
