# generated using pymatgen
data_Nb6V2(CS2)3
_symmetry_space_group_name_H-M   'P 1'
_cell_length_a   5.72833790
_cell_length_b   5.72833790
_cell_length_c   8.84223968
_cell_angle_alpha   83.78742532
_cell_angle_beta   83.78742532
_cell_angle_gamma   120.02060206
_symmetry_Int_Tables_number   1
_chemical_formula_structural   Nb6V2(CS2)3
_chemical_formula_sum   'Nb6 V2 C3 S6'
_cell_volume   245.26483387
_cell_formula_units_Z   1
loop_
 _symmetry_equiv_pos_site_id
 _symmetry_equiv_pos_as_xyz
  1  'x, y, z'
loop_
 _atom_site_type_symbol
 _atom_site_label
 _atom_site_symmetry_multiplicity
 _atom_site_fract_x
 _atom_site_fract_y
 _atom_site_fract_z
 _atom_site_occupancy
  Nb  Nb0  1  0.04371900  0.71100600  0.86862800  1
  Nb  Nb1  1  0.71100600  0.04371900  0.86862800  1
  Nb  Nb2  1  0.37699400  0.37699400  0.86720300  1
  Nb  Nb3  1  0.28899400  0.95628100  0.13137200  1
  Nb  Nb4  1  0.95628100  0.28899400  0.13137200  1
  Nb  Nb5  1  0.62300600  0.62300600  0.13279700  1
  V  V0  1  0.16888200  0.83111800  0.50000000  1
  V  V1  1  0.83111800  0.16888200  0.50000000  1
  C  C0  1  0.33378000  0.66622000  0.00000000  1
  C  C1  1  0.00000000  0.00000000  0.00000000  1
  C  C2  1  0.66622000  0.33378000  0.00000000  1
  S  S0  1  0.22848200  0.22848200  0.33495700  1
  S  S1  1  0.87970200  0.55460300  0.33697100  1
  S  S2  1  0.55460300  0.87970200  0.33697100  1
  S  S3  1  0.12029800  0.44539700  0.66302900  1
  S  S4  1  0.77151800  0.77151800  0.66504300  1
  S  S5  1  0.44539700  0.12029800  0.66302900  1
loop_
_geom_bond_atom_site_label_1
_geom_bond_atom_site_label_2
_geom_bond_distance
_geom_bond_site_symmetry_2
Nb0 S4 2.608689 1_455
Nb0 S5 2.621136 1_565
Nb0 S3 2.627977 1_555
Nb1 S4 2.608689 1_545
Nb1 S3 2.621136 1_655
Nb1 S5 2.627977 1_555
Nb2 S4 2.559470 1_555
Nb2 S3 2.563792 1_555
Nb2 S5 2.563792 1_555
Nb3 S0 2.608689 1_565
Nb3 S1 2.621136 1_455
Nb3 S2 2.627977 1_555
Nb4 S0 2.608689 1_655
Nb4 S2 2.621136 1_545
Nb4 S1 2.627977 1_555
Nb5 S0 2.559470 1_555
Nb5 S1 2.563792 1_555
Nb5 S2 2.563792 1_555
C0 Nb1 2.220874 1_564
C0 Nb4 2.220874 1_455
C0 Nb5 2.225656 1_555
C0 Nb2 2.225656 1_554
C0 Nb0 2.226157 1_554
C0 Nb3 2.226157 1_555
C1 Nb4 2.218267 1_455
C1 Nb3 2.218267 1_545
C1 Nb1 2.218267 1_454
C1 Nb0 2.218267 1_544
C1 Nb2 2.223034 1_554
C1 Nb5 2.223034 1_445
C2 Nb3 2.220874 1_545
C2 Nb0 2.220874 1_654
C2 Nb5 2.225656 1_555
C2 Nb2 2.225656 1_554
C2 Nb4 2.226157 1_555
C2 Nb1 2.226157 1_554
S0 V0 2.413111 1_545
S0 V1 2.413111 1_455
S1 V1 2.376141 1_555
S1 V0 2.390938 1_655
S2 V0 2.376141 1_555
S2 V1 2.390938 1_565
S3 V0 2.376141 1_555
S3 V1 2.390938 1_455
S4 V0 2.413111 1_655
S4 V1 2.413111 1_565
S5 V1 2.376141 1_555
S5 V0 2.390938 1_545
