# generated using pymatgen
data_Tc(I3O)2
_symmetry_space_group_name_H-M   'P 1'
_cell_length_a   7.92813700
_cell_length_b   7.92813700
_cell_length_c   8.62982700
_cell_angle_alpha   90.00000000
_cell_angle_beta   90.00000000
_cell_angle_gamma   90.00000000
_symmetry_Int_Tables_number   1
_chemical_formula_structural   Tc(I3O)2
_chemical_formula_sum   'Tc2 I12 O4'
_cell_volume   542.43085081
_cell_formula_units_Z   2
loop_
 _symmetry_equiv_pos_site_id
 _symmetry_equiv_pos_as_xyz
  1  'x, y, z'
loop_
 _atom_site_type_symbol
 _atom_site_label
 _atom_site_symmetry_multiplicity
 _atom_site_fract_x
 _atom_site_fract_y
 _atom_site_fract_z
 _atom_site_occupancy
  Tc  Tc0  1  0.50000000  0.50000000  0.00000000  1
  Tc  Tc1  1  0.00000000  0.00000000  0.50000000  1
  I  I0  1  0.50000000  0.50000000  0.30938300  1
  I  I1  1  0.00000000  0.00000000  0.80938300  1
  I  I2  1  0.50000000  0.50000000  0.69061700  1
  I  I3  1  0.00000000  0.00000000  0.19061700  1
  I  I4  1  0.82096500  0.60750400  0.00000000  1
  I  I5  1  0.17903500  0.39249600  0.00000000  1
  I  I6  1  0.67903500  0.10750400  0.50000000  1
  I  I7  1  0.32096500  0.89249600  0.50000000  1
  I  I8  1  0.60750400  0.17903500  0.00000000  1
  I  I9  1  0.39249600  0.82096500  0.00000000  1
  I  I10  1  0.10750400  0.32096500  0.50000000  1
  I  I11  1  0.89249600  0.67903500  0.50000000  1
  O  O0  1  0.00000000  0.50000000  0.25000000  1
  O  O1  1  0.50000000  0.00000000  0.75000000  1
  O  O2  1  0.50000000  0.00000000  0.25000000  1
  O  O3  1  0.00000000  0.50000000  0.75000000  1
loop_
_geom_bond_atom_site_label_1
_geom_bond_atom_site_label_2
_geom_bond_distance
_geom_bond_site_symmetry_2
I0 Tc0 2.669922 1_555
I1 Tc1 2.669922 1_555
I2 Tc0 2.669922 1_556
I3 Tc1 2.669922 1_555
I4 Tc0 2.683597 1_555
I4 O0 2.719519 1_655
I4 O3 2.719519 1_654
I5 Tc0 2.683597 1_555
I5 O3 2.719519 1_554
I5 O0 2.719519 1_555
I6 Tc1 2.683597 1_655
I6 O2 2.719519 1_555
I6 O1 2.719519 1_555
I7 Tc1 2.683597 1_565
I7 O2 2.719519 1_565
I7 O1 2.719519 1_565
I8 Tc0 2.683597 1_555
I8 O2 2.719519 1_555
I8 O1 2.719519 1_554
I9 Tc0 2.683597 1_555
I9 O1 2.719519 1_564
I9 O2 2.719519 1_565
I10 Tc1 2.683597 1_555
I10 O3 2.719519 1_555
I10 O0 2.719519 1_555
I11 Tc1 2.683597 1_665
I11 O3 2.719519 1_655
I11 O0 2.719519 1_655
