# generated using pymatgen
data_NaMn2P2O9
_symmetry_space_group_name_H-M   'P 1'
_cell_length_a   6.42415400
_cell_length_b   7.49910600
_cell_length_c   14.07601000
_cell_angle_alpha   90.00000000
_cell_angle_beta   90.00000000
_cell_angle_gamma   90.00000000
_symmetry_Int_Tables_number   1
_chemical_formula_structural   NaMn2P2O9
_chemical_formula_sum   'Na4 Mn8 P8 O36'
_cell_volume   678.11757834
_cell_formula_units_Z   4
loop_
 _symmetry_equiv_pos_site_id
 _symmetry_equiv_pos_as_xyz
  1  'x, y, z'
loop_
 _atom_site_type_symbol
 _atom_site_label
 _atom_site_symmetry_multiplicity
 _atom_site_fract_x
 _atom_site_fract_y
 _atom_site_fract_z
 _atom_site_occupancy
  Na  Na0  1  0.75000000  0.89760900  0.78299100  1
  Na  Na1  1  0.75000000  0.60239100  0.28299100  1
  Na  Na2  1  0.25000000  0.39760900  0.71700900  1
  Na  Na3  1  0.25000000  0.10239100  0.21700900  1
  Mn  Mn0  1  0.75000000  0.35412200  0.87660500  1
  Mn  Mn1  1  0.25000000  0.64587800  0.12339500  1
  Mn  Mn2  1  0.25000000  0.85412200  0.62339500  1
  Mn  Mn3  1  0.75000000  0.14587800  0.37660500  1
  Mn  Mn4  1  0.50000000  0.00000000  0.00000000  1
  Mn  Mn5  1  0.50000000  0.50000000  0.50000000  1
  Mn  Mn6  1  0.00000000  0.50000000  0.50000000  1
  Mn  Mn7  1  0.00000000  0.00000000  0.00000000  1
  P  P0  1  0.25000000  0.36858100  0.93414700  1
  P  P1  1  0.75000000  0.63141900  0.06585300  1
  P  P2  1  0.75000000  0.86858100  0.56585300  1
  P  P3  1  0.25000000  0.13141900  0.43414700  1
  P  P4  1  0.75000000  0.39938900  0.69005600  1
  P  P5  1  0.75000000  0.10061100  0.19005600  1
  P  P6  1  0.25000000  0.89938900  0.80994400  1
  P  P7  1  0.25000000  0.60061100  0.30994400  1
  O  O0  1  0.05285800  0.59580300  0.37280700  1
  O  O1  1  0.55285800  0.40419700  0.62719300  1
  O  O2  1  0.94714200  0.09580300  0.12719300  1
  O  O3  1  0.44714200  0.90419700  0.87280700  1
  O  O4  1  0.94714200  0.40419700  0.62719300  1
  O  O5  1  0.44714200  0.59580300  0.37280700  1
  O  O6  1  0.05285800  0.90419700  0.87280700  1
  O  O7  1  0.55285800  0.09580300  0.12719300  1
  O  O8  1  0.25000000  0.31786400  0.48505900  1
  O  O9  1  0.75000000  0.68213600  0.51494100  1
  O  O10  1  0.75000000  0.81786400  0.01494100  1
  O  O11  1  0.25000000  0.18213600  0.98505900  1
  O  O12  1  0.75000000  0.12768600  0.94568900  1
  O  O13  1  0.25000000  0.87231400  0.05431100  1
  O  O14  1  0.25000000  0.62768600  0.55431100  1
  O  O15  1  0.75000000  0.37231400  0.44568900  1
  O  O16  1  0.75000000  0.22782400  0.75385000  1
  O  O17  1  0.25000000  0.77217600  0.24615000  1
  O  O18  1  0.25000000  0.72782400  0.74615000  1
  O  O19  1  0.75000000  0.27217600  0.25385000  1
  O  O20  1  0.43969600  0.12371800  0.36686600  1
  O  O21  1  0.93969600  0.87628200  0.63313400  1
  O  O22  1  0.56030400  0.62371800  0.13313400  1
  O  O23  1  0.06030400  0.37628200  0.86686600  1
  O  O24  1  0.56030400  0.87628200  0.63313400  1
  O  O25  1  0.06030400  0.12371800  0.36686600  1
  O  O26  1  0.43969600  0.37628200  0.86686600  1
  O  O27  1  0.93969600  0.62371800  0.13313400  1
  O  O28  1  0.75000000  0.48070800  0.99390200  1
  O  O29  1  0.25000000  0.04446500  0.73088600  1
  O  O30  1  0.25000000  0.45553500  0.23088600  1
  O  O31  1  0.75000000  0.54446500  0.76911400  1
  O  O32  1  0.75000000  0.01929200  0.49390200  1
  O  O33  1  0.25000000  0.98070800  0.50609800  1
  O  O34  1  0.25000000  0.51929200  0.00609800  1
  O  O35  1  0.75000000  0.95553500  0.26911400  1
loop_
_geom_bond_atom_site_label_1
_geom_bond_atom_site_label_2
_geom_bond_distance
_geom_bond_site_symmetry_2
Na0 O6 2.320809 1_655
Na0 O3 2.320809 1_555
Na0 O21 2.441347 1_555
Na0 O24 2.441347 1_555
Na0 O16 2.510060 1_565
Na0 O31 2.655458 1_555
Na0 O12 2.867341 1_565
Na1 O0 2.320809 1_655
Na1 O5 2.320809 1_555
Na1 O22 2.441347 1_555
Na1 O27 2.441347 1_555
Na1 O19 2.510060 1_555
Na1 O35 2.655458 1_555
Na1 O15 2.867341 1_555
Na2 O1 2.320809 1_555
Na2 O4 2.320809 1_455
Na2 O26 2.441347 1_555
Na2 O23 2.441347 1_555
Na2 O18 2.510060 1_555
Na2 O29 2.655458 1_555
Na2 O14 2.867341 1_555
Na3 O7 2.320809 1_555
Na3 O2 2.320809 1_455
Na3 O20 2.441347 1_555
Na3 O25 2.441347 1_555
Na3 O17 2.510060 1_545
Na3 O30 2.655458 1_555
Na3 O13 2.867341 1_545
Mn0 O28 1.904516 1_555
Mn0 O12 1.956795 1_555
Mn0 O16 1.970452 1_555
Mn0 O23 2.005047 1_655
Mn0 O26 2.005047 1_555
Mn0 O31 2.080092 1_555
Mn1 O34 1.904516 1_555
Mn1 O13 1.956795 1_555
Mn1 O17 1.970452 1_555
Mn1 O22 2.005047 1_555
Mn1 O27 2.005047 1_455
Mn1 O30 2.080092 1_555
Mn2 O33 1.904516 1_555
Mn2 O14 1.956795 1_555
Mn2 O18 1.970452 1_555
Mn2 O21 2.005047 1_455
Mn2 O24 2.005047 1_555
Mn2 O29 2.080092 1_565
Mn3 O32 1.904516 1_555
Mn3 O15 1.956795 1_555
Mn3 O19 1.970452 1_555
Mn3 O25 2.005047 1_655
Mn3 O20 2.005047 1_555
Mn3 O35 2.080092 1_545
Mn4 O7 1.958796 1_555
Mn4 O3 1.958796 1_544
Mn4 O12 2.020064 1_554
Mn4 O13 2.020064 1_545
Mn4 O11 2.118763 1_554
Mn4 O10 2.118763 1_545
Mn5 O5 1.958796 1_555
Mn5 O1 1.958796 1_555
Mn5 O14 2.020064 1_555
Mn5 O15 2.020064 1_555
Mn5 O9 2.118763 1_555
Mn5 O8 2.118763 1_555
Mn6 O0 1.958796 1_555
Mn6 O4 1.958796 1_455
Mn6 O15 2.020064 1_455
Mn6 O14 2.020064 1_555
Mn6 O9 2.118763 1_455
Mn6 O8 2.118763 1_555
Mn7 O2 1.958796 1_455
Mn7 O6 1.958796 1_544
Mn7 O12 2.020064 1_454
Mn7 O13 2.020064 1_545
Mn7 O11 2.118763 1_554
Mn7 O10 2.118763 1_445
O0 P7 1.545388 1_555
O1 P4 1.545388 1_555
O2 P5 1.545388 1_555
O3 P6 1.545388 1_555
O4 P4 1.545388 1_555
O5 P7 1.545388 1_555
O6 P6 1.545388 1_555
O7 P5 1.545388 1_555
O8 P3 1.571131 1_555
O9 P2 1.571131 1_555
O10 P1 1.571131 1_555
O11 P0 1.571131 1_555
O16 P4 1.568961 1_555
O17 P7 1.568961 1_555
O18 P6 1.568961 1_555
O19 P5 1.568961 1_555
O20 P3 1.544445 1_555
O21 P2 1.544445 1_555
O22 P1 1.544445 1_555
O23 P0 1.544445 1_555
O24 P2 1.544445 1_555
O25 P3 1.544445 1_555
O26 P0 1.544445 1_555
O27 P1 1.544445 1_555
O28 P1 1.517589 1_556
O29 P6 1.556273 1_545
O30 P7 1.556273 1_555
O31 P4 1.556273 1_555
O32 P2 1.517589 1_545
O33 P3 1.517589 1_565
O34 P0 1.517589 1_554
O35 P5 1.556273 1_565
