# generated using pymatgen
data_H13Se2N3O8
_symmetry_space_group_name_H-M   'P 1'
_cell_length_a   6.89675890
_cell_length_b   6.89675890
_cell_length_c   16.84752183
_cell_angle_alpha   82.80304763
_cell_angle_beta   82.80304763
_cell_angle_gamma   54.98149648
_symmetry_Int_Tables_number   1
_chemical_formula_structural   H13Se2N3O8
_chemical_formula_sum   'H26 Se4 N6 O16'
_cell_volume   649.70708074
_cell_formula_units_Z   2
loop_
 _symmetry_equiv_pos_site_id
 _symmetry_equiv_pos_as_xyz
  1  'x, y, z'
loop_
 _atom_site_type_symbol
 _atom_site_label
 _atom_site_symmetry_multiplicity
 _atom_site_fract_x
 _atom_site_fract_y
 _atom_site_fract_z
 _atom_site_occupancy
  H  H0  1  0.10044800  0.37911100  0.64644300  1
  H  H1  1  0.37911100  0.10044800  0.14644300  1
  H  H2  1  0.03108800  0.61621700  0.59808600  1
  H  H3  1  0.61621700  0.03108800  0.09808600  1
  H  H4  1  0.98629100  0.50528000  0.47815800  1
  H  H5  1  0.50528000  0.98629100  0.97815800  1
  H  H6  1  0.57015900  0.71403600  0.43963400  1
  H  H7  1  0.71403600  0.57015900  0.93963400  1
  H  H8  1  0.38985700  0.02068600  0.00097100  1
  H  H9  1  0.02068600  0.38985700  0.50097100  1
  H  H10  1  0.29393900  0.57300700  0.36204800  1
  H  H11  1  0.57300700  0.29393900  0.86204800  1
  H  H12  1  0.74950800  0.95875700  0.32400900  1
  H  H13  1  0.95875700  0.74950800  0.82400900  1
  H  H14  1  0.24389600  0.15396700  0.37812000  1
  H  H15  1  0.15396700  0.24389600  0.87812000  1
  H  H16  1  0.54311600  0.24444900  0.74279900  1
  H  H17  1  0.24444900  0.54311600  0.24279900  1
  H  H18  1  0.77022300  0.17469100  0.67038400  1
  H  H19  1  0.17469100  0.77022300  0.17038400  1
  H  H20  1  0.61804000  0.04070000  0.67423900  1
  H  H21  1  0.04070000  0.61804000  0.17423900  1
  H  H22  1  0.47428300  0.32721700  0.64767200  1
  H  H23  1  0.32721700  0.47428300  0.14767200  1
  H  H24  1  0.61365700  0.92382200  0.54928200  1
  H  H25  1  0.92382200  0.61365700  0.04928200  1
  Se  Se0  1  0.54891400  0.17689100  0.42751200  1
  Se  Se1  1  0.17689100  0.54891400  0.92751200  1
  Se  Se2  1  0.29864700  0.86956200  0.68749800  1
  Se  Se3  1  0.86956200  0.29864700  0.18749800  1
  N  N0  1  0.93277200  0.34424600  0.31155300  1
  N  N1  1  0.34424600  0.93277200  0.81155300  1
  N  N2  1  0.41827000  0.02182600  0.38922700  1
  N  N3  1  0.02182600  0.41827000  0.88922700  1
  N  N4  1  0.60747100  0.19463000  0.68339200  1
  N  N5  1  0.19463000  0.60747100  0.18339200  1
  O  O0  1  0.71948300  0.92644600  0.50290400  1
  O  O1  1  0.92644600  0.71948300  0.00290500  1
  O  O2  1  0.77255000  0.52860700  0.33643400  1
  O  O3  1  0.52860700  0.77255000  0.83643400  1
  O  O4  1  0.80117700  0.02818000  0.35698600  1
  O  O5  1  0.02818000  0.80117700  0.85698600  1
  O  O6  1  0.35341700  0.42619800  0.33713700  1
  O  O7  1  0.42619800  0.35341700  0.83713700  1
  O  O8  1  0.40987900  0.85934300  0.44558700  1
  O  O9  1  0.85934300  0.40987900  0.94558700  1
  O  O10  1  0.14543200  0.49433600  0.63492500  1
  O  O11  1  0.49433600  0.14543200  0.13492500  1
  O  O12  1  0.54443300  0.85388200  0.64517700  1
  O  O13  1  0.85388200  0.54443300  0.14517700  1
  O  O14  1  0.05492300  0.14322100  0.66425400  1
  O  O15  1  0.14322100  0.05492300  0.16425400  1
loop_
_geom_bond_atom_site_label_1
_geom_bond_atom_site_label_2
_geom_bond_distance
_geom_bond_site_symmetry_2
H0 O10 0.997323 1_555
H1 O11 0.997323 1_555
H2 O10 0.972014 1_555
H3 O11 0.972014 1_555
H4 H9 0.753087 1_655
H5 H8 0.753087 1_566
H6 O8 0.980976 1_555
H7 O9 0.980976 1_555
H10 O6 0.977875 1_555
H11 O7 0.977875 1_555
H12 O4 0.988418 1_565
H13 O5 0.988418 1_655
H14 N2 1.033271 1_555
H15 N3 1.033271 1_555
H16 N4 1.056698 1_555
H17 N5 1.056698 1_555
H18 N4 1.046720 1_555
H19 N5 1.046720 1_555
H20 N4 1.051435 1_555
H20 O12 1.768765 1_545
H21 N5 1.051435 1_555
H21 O13 1.768765 1_455
H22 N4 1.038608 1_555
H23 N5 1.038608 1_555
H24 O0 1.006111 1_555
H24 O12 1.716542 1_555
H25 O1 1.006100 1_555
H25 O13 1.716542 1_555
N0 O2 1.190981 1_555
N0 Se3 2.281985 1_555
N1 O3 1.190981 1_555
N1 Se2 2.281985 1_555
N2 O8 1.398127 1_545
N2 Se0 1.948317 1_555
N3 O9 1.398127 1_455
N3 Se1 1.948317 1_555
O0 Se0 1.863681 1_565
O1 Se1 1.863692 1_654
O4 Se0 1.797240 1_555
O5 Se1 1.797240 1_555
O6 Se0 2.071315 1_555
O7 Se1 2.071315 1_555
O12 Se2 1.702828 1_555
O13 Se3 1.702828 1_555
O14 Se2 1.696961 1_545
O15 Se3 1.696961 1_455
