# generated using pymatgen
data_CeMg14Nb
_symmetry_space_group_name_H-M   'P 1'
_cell_length_a   6.50271911
_cell_length_b   6.50271856
_cell_length_c   10.12380524
_cell_angle_alpha   90.00000000
_cell_angle_beta   90.00000000
_cell_angle_gamma   120.00000275
_symmetry_Int_Tables_number   1
_chemical_formula_structural   CeMg14Nb
_chemical_formula_sum   'Ce1 Mg14 Nb1'
_cell_volume   370.73565355
_cell_formula_units_Z   1
loop_
 _symmetry_equiv_pos_site_id
 _symmetry_equiv_pos_as_xyz
  1  'x, y, z'
loop_
 _atom_site_type_symbol
 _atom_site_label
 _atom_site_symmetry_multiplicity
 _atom_site_fract_x
 _atom_site_fract_y
 _atom_site_fract_z
 _atom_site_occupancy
  Ce  Ce0  1  0.16666700  0.33333300  0.12500000  1
  Mg  Mg0  1  0.18172195  0.84086048  0.12500000  1
  Mg  Mg1  1  0.16226905  0.83113403  0.62500000  1
  Mg  Mg2  1  0.65913952  0.31827805  0.12500000  1
  Mg  Mg3  1  0.66886597  0.33773095  0.62500000  1
  Mg  Mg4  1  0.65913952  0.84086048  0.12500000  1
  Mg  Mg5  1  0.66886597  0.83113403  0.62500000  1
  Mg  Mg6  1  0.33170437  0.16829563  0.38816114  1
  Mg  Mg7  1  0.33170437  0.16829563  0.86183886  1
  Mg  Mg8  1  0.33170437  0.66340975  0.38816114  1
  Mg  Mg9  1  0.33170437  0.66340975  0.86183886  1
  Mg  Mg10  1  0.83659025  0.16829563  0.38816114  1
  Mg  Mg11  1  0.83659025  0.16829563  0.86183886  1
  Mg  Mg12  1  0.83333300  0.66666700  0.36306732  1
  Mg  Mg13  1  0.83333300  0.66666700  0.88693268  1
  Nb  Nb0  1  0.16666700  0.33333300  0.62500000  1
loop_
_geom_bond_atom_site_label_1
_geom_bond_atom_site_label_2
_geom_bond_distance
_geom_bond_site_symmetry_2
Ce0 Mg7 3.248560 1_554
Ce0 Mg6 3.248560 1_555
Ce0 Mg9 3.248566 1_554
Ce0 Mg8 3.248566 1_555
Ce0 Mg11 3.248566 1_454
Ce0 Mg10 3.248566 1_455
Ce0 Mg0 3.252464 1_545
Ce0 Mg4 3.252464 1_555
Ce0 Mg4 3.252464 1_445
Ce0 Mg0 3.252465 1_555
Ce0 Mg2 3.252465 1_555
Ce0 Mg2 3.252465 1_455
Mg0 Mg2 3.104512 1_565
Mg0 Mg4 3.104512 1_555
Mg0 Mg13 3.107747 1_454
Mg0 Mg12 3.107747 1_455
Mg0 Mg9 3.241301 1_554
Mg0 Mg8 3.241301 1_555
Mg0 Mg6 3.241308 1_565
Mg0 Mg7 3.241308 1_564
Mg0 Mg2 3.398206 1_455
Mg0 Mg4 3.398207 1_455
Mg1 Mg8 3.058462 1_555
Mg1 Mg9 3.058462 1_555
Mg1 Mg6 3.058469 1_565
Mg1 Mg7 3.058469 1_565
Mg1 Mg3 3.208461 1_455
Mg1 Mg5 3.208462 1_455
Mg1 Mg12 3.234692 1_455
Mg1 Mg13 3.234692 1_455
Mg1 Nb0 3.251454 1_565
Mg1 Nb0 3.251454 1_555
Mg1 Mg3 3.294257 1_565
Mg1 Mg5 3.294257 1_555
Mg2 Mg4 3.104512 1_545
Mg2 Mg7 3.241308 1_554
Mg2 Mg6 3.241308 1_555
Mg2 Mg4 3.398206 1_555
Mg3 Mg6 3.058469 1_555
Mg3 Mg7 3.058469 1_555
Mg3 Mg5 3.208461 1_555
Mg3 Nb0 3.251454 1_555
Mg3 Nb0 3.251454 1_655
Mg3 Mg5 3.294257 1_545
Mg4 Mg8 3.241307 1_555
Mg4 Mg9 3.241307 1_554
Mg5 Mg8 3.058469 1_555
Mg5 Mg9 3.058469 1_555
Mg5 Nb0 3.251454 1_665
Mg5 Nb0 3.251454 1_555
Mg6 Nb0 3.033848 1_555
Mg6 Mg8 3.219588 1_555
Mg6 Mg8 3.283131 1_545
Mg7 Nb0 3.033848 1_555
Mg7 Mg9 3.219588 1_555
Mg7 Mg9 3.283131 1_545
Mg8 Nb0 3.033855 1_555
Mg9 Nb0 3.033855 1_555
Mg10 Nb0 3.033855 1_655
Mg10 Mg3 3.058462 1_555
Mg10 Mg5 3.058469 1_545
Mg10 Mg8 3.219588 1_655
Mg10 Mg6 3.219588 1_655
Mg10 Mg2 3.241301 1_555
Mg10 Mg4 3.241307 1_545
Mg10 Mg12 3.261321 1_555
Mg10 Mg12 3.261321 1_545
Mg10 Mg8 3.283131 1_545
Mg10 Mg6 3.283131 1_555
Mg11 Nb0 3.033855 1_655
Mg11 Mg3 3.058462 1_555
Mg11 Mg5 3.058469 1_545
Mg11 Mg9 3.219588 1_655
Mg11 Mg7 3.219588 1_655
Mg11 Mg2 3.241301 1_556
Mg11 Mg4 3.241307 1_546
Mg11 Mg13 3.261321 1_555
Mg11 Mg13 3.261321 1_545
Mg11 Mg9 3.283131 1_545
Mg11 Mg7 3.283131 1_555
Mg12 Mg4 3.107740 1_555
Mg12 Mg2 3.107747 1_555
Mg12 Mg5 3.234685 1_555
Mg12 Mg3 3.234691 1_555
Mg12 Mg6 3.261321 1_665
Mg12 Mg6 3.261321 1_555
Mg12 Mg8 3.261321 1_655
Mg12 Mg8 3.261321 1_555
Mg13 Mg4 3.107740 1_556
Mg13 Mg2 3.107747 1_556
Mg13 Mg5 3.234685 1_555
Mg13 Mg3 3.234691 1_555
Mg13 Mg7 3.261321 1_665
Mg13 Mg7 3.261321 1_555
Mg13 Mg9 3.261321 1_655
Mg13 Mg9 3.261321 1_555
