# generated using pymatgen
data_Cr(FeO2)3
_symmetry_space_group_name_H-M   'P 1'
_cell_length_a   10.44217522
_cell_length_b   10.42179450
_cell_length_c   9.38718181
_cell_angle_alpha   93.02192581
_cell_angle_beta   92.77706968
_cell_angle_gamma   89.74074707
_symmetry_Int_Tables_number   1
_chemical_formula_structural   Cr(FeO2)3
_chemical_formula_sum   'Cr8 Fe24 O48'
_cell_volume   1018.95075665
_cell_formula_units_Z   8
loop_
 _symmetry_equiv_pos_site_id
 _symmetry_equiv_pos_as_xyz
  1  'x, y, z'
loop_
 _atom_site_type_symbol
 _atom_site_label
 _atom_site_symmetry_multiplicity
 _atom_site_fract_x
 _atom_site_fract_y
 _atom_site_fract_z
 _atom_site_occupancy
  Cr  Cr0  1  0.58089800  0.34082100  0.69580200  1
  Cr  Cr1  1  0.47641400  0.49355800  0.38772300  1
  Cr  Cr2  1  0.61363800  0.73038600  0.88066200  1
  Cr  Cr3  1  0.96053400  0.69832100  0.45549800  1
  Cr  Cr4  1  0.78774500  0.44276700  0.42362900  1
  Cr  Cr5  1  0.51075000  0.37958000  0.09979700  1
  Cr  Cr6  1  0.92790300  0.02571200  0.55232500  1
  Cr  Cr7  1  0.04863900  0.54218700  0.70267300  1
  Fe  Fe0  1  0.19594400  0.89430400  0.36987400  1
  Fe  Fe1  1  0.20715300  0.34867200  0.07129100  1
  Fe  Fe2  1  0.54813000  0.04679000  0.05120300  1
  Fe  Fe3  1  0.38411000  0.15872100  0.28415100  1
  Fe  Fe4  1  0.80233000  0.99121800  0.06506500  1
  Fe  Fe5  1  0.38971300  0.07346100  0.60855700  1
  Fe  Fe6  1  0.43622300  0.81285700  0.54438700  1
  Fe  Fe7  1  0.65549900  0.01206000  0.72406700  1
  Fe  Fe8  1  0.48738500  0.79424600  0.14238900  1
  Fe  Fe9  1  0.07897800  0.76417300  0.00836100  1
  Fe  Fe10  1  0.70749100  0.61470300  0.22001900  1
  Fe  Fe11  1  0.25972400  0.30865900  0.61643800  1
  Fe  Fe12  1  0.04089000  0.17268800  0.28561300  1
  Fe  Fe13  1  0.70730700  0.67879700  0.59948700  1
  Fe  Fe14  1  0.38542000  0.53884600  0.83809200  1
  Fe  Fe15  1  0.95848700  0.25456800  0.84266200  1
  Fe  Fe16  1  0.81532700  0.27803500  0.15206400  1
  Fe  Fe17  1  0.19280800  0.06149500  0.87129800  1
  Fe  Fe18  1  0.75263500  0.48465000  0.89579700  1
  Fe  Fe19  1  0.07864100  0.44662300  0.35765700  1
  Fe  Fe20  1  0.91901200  0.83105000  0.79240300  1
  Fe  Fe21  1  0.27928400  0.63215600  0.24718500  1
  Fe  Fe22  1  0.23217100  0.75977500  0.71248900  1
  Fe  Fe23  1  0.64027300  0.95469700  0.37552600  1
  O  O0  1  0.95416900  0.40644400  0.74683100  1
  O  O1  1  0.61478700  0.87733500  0.00819400  1
  O  O2  1  0.45787900  0.19938000  0.08787100  1
  O  O3  1  0.94138400  0.85302600  0.58759700  1
  O  O4  1  0.40622500  0.96236300  0.13451800  1
  O  O5  1  0.54988100  0.17222900  0.68696900  1
  O  O6  1  0.92927300  0.31436400  0.35378600  1
  O  O7  1  0.36513100  0.78597600  0.33701700  1
  O  O8  1  0.28056800  0.16777700  0.73952300  1
  O  O9  1  0.71314700  0.08113700  0.91294500  1
  O  O10  1  0.34997100  0.41876500  0.98932600  1
  O  O11  1  0.58871000  0.39314600  0.90020900  1
  O  O12  1  0.31693500  0.53883700  0.41706700  1
  O  O13  1  0.48240500  0.03907400  0.41597800  1
  O  O14  1  0.26651800  0.90491100  0.57450600  1
  O  O15  1  0.75634400  0.03626000  0.53636600  1
  O  O16  1  0.92892100  0.12462200  0.12881100  1
  O  O17  1  0.20395200  0.21994600  0.21634800  1
  O  O18  1  0.73872700  0.82236700  0.76192700  1
  O  O19  1  0.61481500  0.81650900  0.51540700  1
  O  O20  1  0.10968300  0.67219100  0.57318100  1
  O  O21  1  0.20472500  0.58407400  0.81433700  1
  O  O22  1  0.65662000  0.78973000  0.25442700  1
  O  O23  1  0.47220400  0.57163300  0.20784100  1
  O  O24  1  0.65030800  0.57520500  0.74431500  1
  O  O25  1  0.85041100  0.34713800  0.96661900  1
  O  O26  1  0.39955500  0.68897500  0.68195300  1
  O  O27  1  0.69409100  0.34944800  0.56450400  1
  O  O28  1  0.68877800  0.05501600  0.21314900  1
  O  O29  1  0.46195500  0.33955900  0.30041300  1
  O  O30  1  0.14906200  0.49916300  0.17769200  1
  O  O31  1  0.98031400  0.66737200  0.84726000  1
  O  O32  1  0.03624900  0.02163500  0.40001700  1
  O  O33  1  0.11556500  0.23440200  0.94027900  1
  O  O34  1  0.64381900  0.56757500  0.43171800  1
  O  O35  1  0.87459200  0.58346200  0.57640000  1
  O  O36  1  0.41495000  0.41123900  0.67048600  1
  O  O37  1  0.69424600  0.41444300  0.21424000  1
  O  O38  1  0.29725600  0.18641500  0.46774600  1
  O  O39  1  0.97401600  0.09245900  0.72518200  1
  O  O40  1  0.16493600  0.86886500  0.87114300  1
  O  O41  1  0.72536800  0.63200500  0.01698000  1
  O  O42  1  0.48782800  0.94131800  0.71777600  1
  O  O43  1  0.45510700  0.67964000  0.96637100  1
  O  O44  1  0.12453100  0.41611200  0.56054700  1
  O  O45  1  0.88415800  0.58400600  0.30958600  1
  O  O46  1  0.93234500  0.87760700  0.99549900  1
  O  O47  1  0.13927100  0.76703400  0.20135400  1
loop_
_geom_bond_atom_site_label_1
_geom_bond_atom_site_label_2
_geom_bond_distance
_geom_bond_site_symmetry_2
Cr0 O27 1.754444 1_555
Cr0 O5 1.784971 1_555
Cr0 O36 1.888076 1_555
Cr0 O11 1.964880 1_555
Cr1 O12 1.759386 1_555
Cr1 O29 1.766888 1_555
Cr1 O23 1.911198 1_555
Cr1 O34 1.931325 1_555
Cr2 O1 1.893204 1_556
Cr2 O43 1.961950 1_555
Cr2 O41 2.008178 1_556
Cr2 O18 2.032843 1_555
Cr2 O24 2.055234 1_555
Cr3 O20 1.892440 1_655
Cr3 O45 1.913685 1_555
Cr3 O35 1.943703 1_555
Cr3 O3 1.996876 1_555
Cr4 O27 1.980042 1_555
Cr4 O34 1.984770 1_555
Cr4 O6 2.094793 1_555
Cr4 O45 2.147161 1_555
Cr4 O37 2.158544 1_555
Cr4 O35 2.166414 1_555
Cr5 O2 1.955882 1_555
Cr5 O10 1.982562 1_554
Cr5 O29 2.039072 1_555
Cr5 O11 2.090389 1_554
Cr5 O37 2.173301 1_555
Cr5 O23 2.239431 1_555
Cr6 O39 1.776802 1_555
Cr6 O15 1.793813 1_555
Cr6 O3 1.850508 1_545
Cr6 O32 1.864367 1_655
Cr7 O0 1.805650 1_455
Cr7 O21 1.933508 1_555
Cr7 O31 1.987969 1_455
Cr7 O20 1.994028 1_555
Cr7 O44 2.010626 1_555
Cr7 O35 2.175102 1_455
Fe0 O14 2.021487 1_555
Fe0 O47 2.075369 1_555
Fe0 O7 2.118704 1_555
Fe0 O32 2.146605 1_565
Fe1 O10 1.878831 1_554
Fe1 O33 1.894017 1_554
Fe1 O30 1.926224 1_555
Fe1 O17 1.962772 1_555
Fe2 O2 1.869684 1_555
Fe2 O1 1.925423 1_545
Fe2 O4 1.943768 1_545
Fe2 O28 2.060692 1_555
Fe2 O9 2.247893 1_554
Fe3 O38 1.993174 1_555
Fe3 O13 2.041513 1_555
Fe3 O29 2.051219 1_555
Fe3 O17 2.065731 1_555
Fe3 O2 2.095376 1_555
Fe3 O4 2.436836 1_545
Fe4 O46 1.913478 1_554
Fe4 O9 1.946509 1_564
Fe4 O28 1.958449 1_565
Fe4 O16 1.972481 1_565
Fe4 O1 2.319857 1_555
Fe5 O8 1.942876 1_555
Fe5 O42 2.007917 1_545
Fe5 O38 2.023655 1_555
Fe5 O5 2.053047 1_555
Fe5 O13 2.105095 1_555
Fe5 O14 2.182678 1_545
Fe6 O19 1.898462 1_555
Fe6 O26 1.925942 1_555
Fe6 O14 2.035974 1_555
Fe6 O7 2.055057 1_555
Fe6 O42 2.103266 1_555
Fe7 O42 1.899891 1_545
Fe7 O9 1.946842 1_555
Fe7 O5 2.032591 1_555
Fe7 O15 2.122767 1_555
Fe7 O18 2.195110 1_545
Fe8 O4 1.946182 1_555
Fe8 O43 2.002981 1_554
Fe8 O22 2.013860 1_555
Fe8 O1 2.096281 1_555
Fe8 O7 2.284446 1_555
Fe8 O23 2.438896 1_555
Fe9 O47 1.887680 1_555
Fe9 O46 1.933228 1_454
Fe9 O40 1.981003 1_554
Fe9 O31 2.015883 1_454
Fe10 O22 1.912999 1_555
Fe10 O41 1.941926 1_555
Fe10 O45 2.021194 1_555
Fe10 O37 2.089946 1_555
Fe10 O34 2.205988 1_555
Fe10 O23 2.495656 1_555
Fe11 O44 1.870329 1_555
Fe11 O38 1.893655 1_555
Fe11 O8 1.920863 1_555
Fe11 O36 1.976469 1_555
Fe12 O16 1.882905 1_455
Fe12 O17 1.926974 1_555
Fe12 O32 1.953946 1_555
Fe12 O6 1.976150 1_455
Fe13 O24 1.899241 1_555
Fe13 O19 1.910131 1_555
Fe13 O34 1.994153 1_555
Fe13 O35 2.020838 1_555
Fe13 O18 2.094520 1_555
Fe14 O21 1.947913 1_555
Fe14 O43 1.967504 1_555
Fe14 O10 1.990238 1_555
Fe14 O36 2.040052 1_555
Fe14 O26 2.209737 1_555
Fe15 O33 1.856281 1_655
Fe15 O0 1.860687 1_555
Fe15 O25 1.886099 1_555
Fe15 O39 1.978681 1_555
Fe16 O25 1.969681 1_554
Fe16 O37 1.981914 1_555
Fe16 O16 1.995509 1_555
Fe16 O6 2.203398 1_555
Fe17 O8 1.964775 1_555
Fe17 O40 2.029755 1_545
Fe17 O33 2.057066 1_555
Fe17 O39 2.634673 1_455
Fe18 O25 1.886715 1_555
Fe18 O41 1.891229 1_556
Fe18 O11 1.966462 1_555
Fe18 O24 2.009869 1_555
Fe19 O30 1.978905 1_555
Fe19 O44 1.982963 1_555
Fe19 O6 2.083908 1_455
Fe19 O45 2.516123 1_455
Fe20 O18 1.892278 1_555
Fe20 O31 1.906711 1_555
Fe20 O46 1.940852 1_555
Fe20 O3 1.973237 1_555
Fe21 O12 1.934645 1_555
Fe21 O7 1.970223 1_555
Fe21 O30 2.007846 1_555
Fe21 O47 2.069488 1_555
Fe21 O23 2.151400 1_555
Fe22 O26 1.922544 1_555
Fe22 O20 1.975312 1_555
Fe22 O40 1.979675 1_555
Fe22 O14 2.085845 1_555
Fe22 O21 2.136605 1_555
Fe23 O13 1.909792 1_565
Fe23 O28 1.980056 1_565
Fe23 O22 2.021710 1_555
Fe23 O19 2.026235 1_555
Fe23 O15 2.041534 1_565
