# generated using pymatgen
data_Sr7CaMnFe7O24
_symmetry_space_group_name_H-M   'P 1'
_cell_length_a   7.80905960
_cell_length_b   7.80905960
_cell_length_c   7.80906000
_cell_angle_alpha   89.99870815
_cell_angle_beta   89.99870815
_cell_angle_gamma   89.99871335
_symmetry_Int_Tables_number   1
_chemical_formula_structural   Sr7CaMnFe7O24
_chemical_formula_sum   'Sr7 Ca1 Mn1 Fe7 O24'
_cell_volume   476.20750423
_cell_formula_units_Z   1
loop_
 _symmetry_equiv_pos_site_id
 _symmetry_equiv_pos_as_xyz
  1  'x, y, z'
loop_
 _atom_site_type_symbol
 _atom_site_label
 _atom_site_symmetry_multiplicity
 _atom_site_fract_x
 _atom_site_fract_y
 _atom_site_fract_z
 _atom_site_occupancy
  Sr  Sr0  1  0.74983900  0.25018700  0.74983900  1
  Sr  Sr1  1  0.74984400  0.25015800  0.25015800  1
  Sr  Sr2  1  0.74983900  0.74983900  0.25018700  1
  Sr  Sr3  1  0.25015800  0.25015800  0.74984400  1
  Sr  Sr4  1  0.25005000  0.25005000  0.25005000  1
  Sr  Sr5  1  0.25018700  0.74983900  0.74983900  1
  Sr  Sr6  1  0.25015800  0.74984400  0.25015800  1
  Ca  Ca0  1  0.75007800  0.75007800  0.75007800  1
  Mn  Mn0  1  0.50047800  0.50047800  0.50047800  1
  Fe  Fe0  1  0.50049800  0.99949900  0.99949900  1
  Fe  Fe1  1  0.50047800  0.99945700  0.50047800  1
  Fe  Fe2  1  0.50047800  0.50047800  0.99945700  1
  Fe  Fe3  1  0.99953700  0.99953700  0.99953700  1
  Fe  Fe4  1  0.99949900  0.99949900  0.50049800  1
  Fe  Fe5  1  0.99949900  0.50049800  0.99949900  1
  Fe  Fe6  1  0.99945700  0.50047800  0.50047800  1
  O  O0  1  0.74941900  0.99794300  0.99794300  1
  O  O1  1  0.75099200  0.99796500  0.50203300  1
  O  O2  1  0.75099200  0.50203300  0.99796500  1
  O  O3  1  0.74747400  0.50198200  0.50198200  1
  O  O4  1  0.25062400  0.99964200  0.99964200  1
  O  O5  1  0.24897900  0.99965400  0.50039500  1
  O  O6  1  0.24897900  0.50039500  0.99965400  1
  O  O7  1  0.25240700  0.50041700  0.50041700  1
  O  O8  1  0.50039500  0.24897900  0.99965400  1
  O  O9  1  0.50041700  0.25240700  0.50041700  1
  O  O10  1  0.50203300  0.75099200  0.99796500  1
  O  O11  1  0.50198200  0.74747400  0.50198200  1
  O  O12  1  0.99964200  0.25062400  0.99964200  1
  O  O13  1  0.99965400  0.24897900  0.50039500  1
  O  O14  1  0.99794300  0.74941900  0.99794300  1
  O  O15  1  0.99796500  0.75099200  0.50203300  1
  O  O16  1  0.50203300  0.99796500  0.75099200  1
  O  O17  1  0.50039500  0.99965400  0.24897900  1
  O  O18  1  0.50198200  0.50198200  0.74747400  1
  O  O19  1  0.50041700  0.50041700  0.25240700  1
  O  O20  1  0.99794300  0.99794300  0.74941900  1
  O  O21  1  0.99964200  0.99964200  0.25062400  1
  O  O22  1  0.99796500  0.50203300  0.75099200  1
  O  O23  1  0.99965400  0.50039500  0.24897900  1
loop_
_geom_bond_atom_site_label_1
_geom_bond_atom_site_label_2
_geom_bond_distance
_geom_bond_site_symmetry_2
Ca0 O20 2.737377 1_555
Ca0 O14 2.737377 1_555
Ca0 O0 2.737377 1_555
Ca0 O15 2.738435 1_555
Ca0 O1 2.738435 1_555
Ca0 O10 2.738435 1_555
Ca0 O2 2.738435 1_555
Ca0 O22 2.738435 1_555
Ca0 O16 2.738435 1_555
Ca0 O18 2.739999 1_555
Ca0 O3 2.739999 1_555
Ca0 O11 2.739999 1_555
Mn0 O3 1.928879 1_555
Mn0 O11 1.928879 1_555
Mn0 O18 1.928879 1_555
Mn0 O9 1.937201 1_555
Mn0 O7 1.937201 1_555
Mn0 O19 1.937201 1_555
Fe0 O10 1.940680 1_555
Fe0 O16 1.940680 1_555
Fe0 O0 1.943914 1_555
Fe0 O8 1.948205 1_565
Fe0 O17 1.948205 1_556
Fe0 O4 1.951282 1_555
Fe1 O1 1.956351 1_555
Fe1 O16 1.956351 1_555
Fe1 O5 1.963971 1_555
Fe1 O17 1.963971 1_555
Fe1 O11 1.967820 1_555
Fe1 O9 1.975302 1_565
Fe2 O2 1.956351 1_555
Fe2 O10 1.956351 1_555
Fe2 O6 1.963971 1_555
Fe2 O8 1.963971 1_555
Fe2 O18 1.967820 1_555
Fe2 O19 1.975302 1_556
Fe3 O14 1.953266 1_555
Fe3 O0 1.953266 1_555
Fe3 O20 1.953266 1_555
Fe3 O4 1.960754 1_655
Fe3 O12 1.960754 1_565
Fe3 O21 1.960754 1_556
Fe4 O1 1.940680 1_555
Fe4 O15 1.940680 1_555
Fe4 O20 1.943914 1_555
Fe4 O13 1.948205 1_565
Fe4 O5 1.948205 1_655
Fe4 O21 1.951282 1_555
Fe5 O2 1.940680 1_555
Fe5 O22 1.940680 1_555
Fe5 O14 1.943914 1_555
Fe5 O6 1.948205 1_655
Fe5 O23 1.948205 1_556
Fe5 O12 1.951282 1_555
Fe6 O15 1.956351 1_555
Fe6 O22 1.956351 1_555
Fe6 O13 1.963971 1_555
Fe6 O23 1.963971 1_555
Fe6 O3 1.967820 1_555
Fe6 O7 1.975302 1_655
O0 Sr0 2.762907 1_565
O0 Sr2 2.762907 1_556
O0 Sr1 2.785415 1_566
O1 Sr2 2.760887 1_555
O1 Sr0 2.761227 1_565
O1 Sr1 2.783366 1_565
O2 Sr0 2.760887 1_555
O2 Sr2 2.761227 1_556
O2 Sr1 2.783366 1_556
O3 Sr2 2.759114 1_555
O3 Sr0 2.759114 1_555
O3 Sr1 2.781156 1_555
O4 Sr5 2.758777 1_555
O4 Sr6 2.762628 1_556
O4 Sr3 2.762628 1_565
O4 Sr4 2.765460 1_566
O5 Sr5 2.756814 1_555
O5 Sr3 2.760713 1_565
O5 Sr6 2.761226 1_555
O5 Sr4 2.764993 1_565
O6 Sr5 2.756814 1_555
O6 Sr6 2.760713 1_556
O6 Sr3 2.761226 1_555
O6 Sr4 2.764993 1_556
O7 Sr5 2.754621 1_555
O7 Sr3 2.759214 1_555
O7 Sr6 2.759214 1_555
O7 Sr4 2.765066 1_555
O8 Sr0 2.756814 1_555
O8 Sr1 2.760713 1_556
O8 Sr3 2.761226 1_555
O8 Sr4 2.764993 1_556
O9 Sr0 2.754621 1_555
O9 Sr3 2.759214 1_555
O9 Sr1 2.759214 1_555
O9 Sr4 2.765066 1_555
O10 Sr5 2.760887 1_555
O10 Sr2 2.761227 1_556
O10 Sr6 2.783366 1_556
O11 Sr2 2.759114 1_555
O11 Sr5 2.759114 1_555
O11 Sr6 2.781156 1_555
O12 Sr0 2.758777 1_555
O12 Sr1 2.762628 1_556
O12 Sr3 2.762628 1_655
O12 Sr4 2.765460 1_656
O13 Sr0 2.756814 1_555
O13 Sr3 2.760713 1_655
O13 Sr1 2.761226 1_555
O13 Sr4 2.764993 1_655
O14 Sr5 2.762907 1_655
O14 Sr2 2.762907 1_556
O14 Sr6 2.785415 1_656
O15 Sr2 2.760887 1_555
O15 Sr5 2.761227 1_655
O15 Sr6 2.783366 1_655
O16 Sr5 2.760887 1_555
O16 Sr0 2.761227 1_565
O16 Sr3 2.783366 1_565
O17 Sr2 2.756814 1_555
O17 Sr1 2.760713 1_565
O17 Sr6 2.761226 1_555
O17 Sr4 2.764993 1_565
O18 Sr0 2.759114 1_555
O18 Sr5 2.759114 1_555
O18 Sr3 2.781155 1_555
O19 Sr2 2.754621 1_555
O19 Sr6 2.759214 1_555
O19 Sr1 2.759214 1_555
O19 Sr4 2.765065 1_555
O20 Sr0 2.762907 1_565
O20 Sr5 2.762907 1_655
O20 Sr3 2.785415 1_665
O21 Sr2 2.758777 1_555
O21 Sr1 2.762628 1_565
O21 Sr6 2.762628 1_655
O21 Sr4 2.765460 1_665
O22 Sr0 2.760887 1_555
O22 Sr5 2.761227 1_655
O22 Sr3 2.783366 1_655
O23 Sr2 2.756814 1_555
O23 Sr6 2.760713 1_655
O23 Sr1 2.761226 1_555
O23 Sr4 2.764993 1_655
