# generated using pymatgen
data_Li4MnCo2O7
_symmetry_space_group_name_H-M   'P 1'
_cell_length_a   5.07471600
_cell_length_b   5.87653701
_cell_length_c   8.92169116
_cell_angle_alpha   90.94510759
_cell_angle_beta   96.09567127
_cell_angle_gamma   107.43682458
_symmetry_Int_Tables_number   1
_chemical_formula_structural   Li4MnCo2O7
_chemical_formula_sum   'Li8 Mn2 Co4 O14'
_cell_volume   252.07173241
_cell_formula_units_Z   2
loop_
 _symmetry_equiv_pos_site_id
 _symmetry_equiv_pos_as_xyz
  1  'x, y, z'
loop_
 _atom_site_type_symbol
 _atom_site_label
 _atom_site_symmetry_multiplicity
 _atom_site_fract_x
 _atom_site_fract_y
 _atom_site_fract_z
 _atom_site_occupancy
  Li  Li0  1  0.28468500  0.07107600  0.57564100  1
  Li  Li1  1  0.57653200  0.64797900  0.14116800  1
  Li  Li2  1  0.71531500  0.92892400  0.42435900  1
  Li  Li3  1  0.00000000  0.50000000  0.00000000  1
  Li  Li4  1  0.14306100  0.78936000  0.27086600  1
  Li  Li5  1  0.42346800  0.35202100  0.85883200  1
  Li  Li6  1  0.85693900  0.21064000  0.72913400  1
  Li  Li7  1  0.00000000  0.00000000  0.00000000  1
  Mn  Mn0  1  0.85837100  0.71628100  0.71983200  1
  Mn  Mn1  1  0.14162900  0.28371900  0.28016800  1
  Co  Co0  1  0.43940900  0.86778500  0.86230500  1
  Co  Co1  1  0.71260700  0.42806700  0.42847400  1
  Co  Co2  1  0.28739300  0.57193300  0.57152600  1
  Co  Co3  1  0.56059100  0.13221500  0.13769500  1
  O  O0  1  0.12762200  0.01130900  0.77887400  1
  O  O1  1  0.41962400  0.58846400  0.36160400  1
  O  O2  1  0.57707200  0.86993100  0.64534800  1
  O  O3  1  0.86587500  0.44363500  0.22044000  1
  O  O4  1  0.98636500  0.72911900  0.51338400  1
  O  O5  1  0.28743100  0.32081000  0.09165400  1
  O  O6  1  0.68865800  0.16300200  0.92842100  1
  O  O7  1  0.42292800  0.13006900  0.35465200  1
  O  O8  1  0.71256900  0.67919000  0.90834600  1
  O  O9  1  0.87237800  0.98869100  0.22112600  1
  O  O10  1  0.13412500  0.55636500  0.77956000  1
  O  O11  1  0.31134200  0.83699800  0.07157900  1
  O  O12  1  0.58037600  0.41153600  0.63839600  1
  O  O13  1  0.01363500  0.27088100  0.48661600  1
loop_
_geom_bond_atom_site_label_1
_geom_bond_atom_site_label_2
_geom_bond_distance
_geom_bond_site_symmetry_2
Li0 O0 2.050961 1_555
Li0 O12 2.133870 1_555
Li0 O4 2.144747 1_445
Li0 O13 2.160593 1_555
Li0 O7 2.161037 1_555
Li0 O2 2.205668 1_545
Li1 O11 2.042435 1_555
Li1 O5 2.046434 1_555
Li1 O9 2.166942 1_555
Li1 O1 2.193738 1_555
Li1 O3 2.227641 1_555
Li1 O8 2.250793 1_554
Li2 O9 2.050961 1_555
Li2 O1 2.133870 1_555
Li2 O13 2.144747 1_665
Li2 O4 2.160593 1_555
Li2 O2 2.161037 1_555
Li2 O7 2.205668 1_565
Li3 O8 2.144925 1_454
Li3 O5 2.144925 1_555
Li3 O10 2.147455 1_554
Li3 O3 2.147455 1_455
Li3 O11 2.166756 1_555
Li3 O6 2.166756 1_454
Li4 O11 2.040701 1_555
Li4 O9 2.075557 1_455
Li4 O3 2.105097 1_455
Li4 O7 2.146065 1_565
Li4 O1 2.191366 1_555
Li4 O4 2.379302 1_455
Li5 O6 2.042435 1_555
Li5 O8 2.046434 1_555
Li5 O0 2.166942 1_555
Li5 O12 2.193738 1_555
Li5 O10 2.227641 1_555
Li5 O5 2.250793 1_556
Li6 O6 2.040701 1_555
Li6 O0 2.075557 1_655
Li6 O10 2.105097 1_655
Li6 O2 2.146065 1_545
Li6 O12 2.191366 1_555
Li6 O13 2.379302 1_655
Li7 O8 2.097196 1_444
Li7 O5 2.097196 1_555
Li7 O6 2.129457 1_454
Li7 O11 2.129457 1_545
Li7 O0 2.136763 1_554
Li7 O9 2.136763 1_445
Mn0 O0 1.883507 1_665
Mn0 O8 1.898252 1_555
Mn0 O10 1.942065 1_655
Mn0 O2 1.971159 1_555
Mn0 O12 1.987583 1_555
Mn0 O4 2.012299 1_555
Mn1 O9 1.883507 1_445
Mn1 O5 1.898252 1_555
Mn1 O3 1.942065 1_455
Mn1 O7 1.971159 1_555
Mn1 O1 1.987583 1_555
Mn1 O13 2.012299 1_555
Co0 O6 1.857482 1_565
Co0 O8 2.033080 1_555
Co0 O11 2.034568 1_556
Co0 O10 2.075483 1_555
Co0 O0 2.083081 1_565
Co0 O2 2.125452 1_555
Co1 O7 1.968500 1_555
Co1 O4 1.973082 1_555
Co1 O1 2.031016 1_555
Co1 O13 2.036949 1_655
Co1 O12 2.049675 1_555
Co1 O3 2.080304 1_555
Co2 O2 1.968500 1_555
Co2 O13 1.973082 1_555
Co2 O12 2.031016 1_555
Co2 O4 2.036949 1_455
Co2 O1 2.049675 1_555
Co2 O10 2.080304 1_555
Co3 O11 1.857482 1_545
Co3 O5 2.033080 1_555
Co3 O6 2.034568 1_554
Co3 O3 2.075483 1_555
Co3 O9 2.083081 1_545
Co3 O7 2.125452 1_555
