# generated using pymatgen
data_LiMn2(PO4)2
_symmetry_space_group_name_H-M   'P 1'
_cell_length_a   4.86201852
_cell_length_b   6.12467868
_cell_length_c   10.22873273
_cell_angle_alpha   90.40857796
_cell_angle_beta   88.57603943
_cell_angle_gamma   89.91605165
_symmetry_Int_Tables_number   1
_chemical_formula_structural   LiMn2(PO4)2
_chemical_formula_sum   'Li2 Mn4 P4 O16'
_cell_volume   304.49206776
_cell_formula_units_Z   2
loop_
 _symmetry_equiv_pos_site_id
 _symmetry_equiv_pos_as_xyz
  1  'x, y, z'
loop_
 _atom_site_type_symbol
 _atom_site_label
 _atom_site_symmetry_multiplicity
 _atom_site_fract_x
 _atom_site_fract_y
 _atom_site_fract_z
 _atom_site_occupancy
  Li  Li0  1  0.75419800  0.25468300  0.79804300  1
  Li  Li1  1  0.25059300  0.74806700  0.29639200  1
  Mn  Mn0  1  0.80115600  0.49304500  0.08570100  1
  Mn  Mn1  1  0.21464000  0.50587900  0.57793800  1
  Mn  Mn2  1  0.69833900  0.00614200  0.50860200  1
  Mn  Mn3  1  0.28604700  0.99646600  0.01624000  1
  P  P0  1  0.14995600  0.00762100  0.68936900  1
  P  P1  1  0.81704300  0.99523000  0.20667500  1
  P  P2  1  0.68278900  0.50253900  0.38764200  1
  P  P3  1  0.34938100  0.49424300  0.90491000  1
  O  O0  1  0.92271400  0.00084800  0.35045400  1
  O  O1  1  0.08071300  0.00247200  0.83576000  1
  O  O2  1  0.46980700  0.01668500  0.66704900  1
  O  O3  1  0.50577300  0.98157900  0.20204400  1
  O  O4  1  0.94619200  0.19080500  0.12927900  1
  O  O5  1  0.01959900  0.81694000  0.61097400  1
  O  O6  1  0.00164700  0.21319600  0.63182400  1
  O  O7  1  0.96992100  0.79175900  0.14110100  1
  O  O8  1  0.49908500  0.28966900  0.96328100  1
  O  O9  1  0.52936200  0.70538900  0.45337400  1
  O  O10  1  0.55349000  0.30660200  0.46469100  1
  O  O11  1  0.47773600  0.68541700  0.98308700  1
  O  O12  1  0.57699900  0.49712800  0.24378100  1
  O  O13  1  0.41963200  0.49853300  0.75861200  1
  O  O14  1  0.99392100  0.51661300  0.39228100  1
  O  O15  1  0.02926300  0.48245000  0.92674600  1
loop_
_geom_bond_atom_site_label_1
_geom_bond_atom_site_label_2
_geom_bond_distance
_geom_bond_site_symmetry_2
Li0 O6 2.072199 1_655
Li0 O8 2.081099 1_555
Li0 O13 2.252409 1_555
Li0 O1 2.255427 1_655
Li0 O15 2.352542 1_655
Li0 O2 2.429433 1_555
Li1 O3 2.116946 1_555
Li1 O14 2.119692 1_455
Li1 O7 2.137678 1_455
Li1 O9 2.144027 1_555
Li1 O12 2.260283 1_555
Li1 O0 2.276136 1_465
Mn0 O12 1.927362 1_555
Mn0 O15 1.945884 1_654
Mn0 O4 2.036215 1_555
Mn0 O7 2.086694 1_555
Mn0 O11 2.248731 1_554
Mn0 O8 2.313241 1_554
Mn1 O13 2.122106 1_555
Mn1 O6 2.140271 1_555
Mn1 O5 2.147705 1_555
Mn1 O14 2.205708 1_455
Mn1 O9 2.321376 1_555
Mn1 O10 2.329120 1_555
Mn2 O0 1.928572 1_555
Mn2 O2 1.942749 1_555
Mn2 O10 2.026782 1_555
Mn2 O9 2.097566 1_545
Mn2 O5 2.229880 1_645
Mn2 O6 2.333788 1_655
Mn3 O1 2.120969 1_564
Mn3 O8 2.140691 1_564
Mn3 O11 2.140748 1_554
Mn3 O3 2.205618 1_555
Mn3 O4 2.315955 1_465
Mn3 O7 2.344442 1_455
O0 P1 1.570007 1_545
O1 P0 1.527146 1_555
O2 P0 1.567289 1_555
O3 P1 1.517726 1_555
O4 P1 1.564240 1_545
O5 P0 1.556497 1_565
O6 P0 1.575027 1_555
O7 P1 1.586180 1_555
O8 P3 1.576625 1_555
O9 P2 1.585088 1_555
O10 P2 1.564457 1_555
O11 P3 1.553527 1_555
O12 P2 1.570983 1_555
O13 P3 1.527050 1_555
O14 P2 1.517209 1_555
O15 P3 1.568703 1_555
