# generated using pymatgen
data_Ba3Dy2MoO9
_symmetry_space_group_name_H-M   'P 1'
_cell_length_a   6.09958512
_cell_length_b   8.64904500
_cell_length_c   10.57306052
_cell_angle_alpha   65.85712938
_cell_angle_beta   73.23485567
_cell_angle_gamma   90.00000000
_symmetry_Int_Tables_number   1
_chemical_formula_structural   Ba3Dy2MoO9
_chemical_formula_sum   'Ba6 Dy4 Mo2 O18'
_cell_volume   482.89915919
_cell_formula_units_Z   2
loop_
 _symmetry_equiv_pos_site_id
 _symmetry_equiv_pos_as_xyz
  1  'x, y, z'
loop_
 _atom_site_type_symbol
 _atom_site_label
 _atom_site_symmetry_multiplicity
 _atom_site_fract_x
 _atom_site_fract_y
 _atom_site_fract_z
 _atom_site_occupancy
  Ba  Ba0  1  0.50000000  0.26460400  0.00000000  1
  Ba  Ba1  1  0.83913400  0.58020400  0.32173200  1
  Ba  Ba2  1  0.16086600  0.90193700  0.67826800  1
  Ba  Ba3  1  0.50000000  0.73539600  0.00000000  1
  Ba  Ba4  1  0.83913400  0.09806300  0.32173200  1
  Ba  Ba5  1  0.16086600  0.41979600  0.67826800  1
  Dy  Dy0  1  0.00000000  0.00000000  0.00000000  1
  Dy  Dy1  1  0.32804600  0.32804600  0.34390700  1
  Dy  Dy2  1  0.67195400  0.67195400  0.65609300  1
  Dy  Dy3  1  0.00000000  0.50000000  0.00000000  1
  Mo  Mo0  1  0.33412700  0.83412700  0.33174400  1
  Mo  Mo1  1  0.66587300  0.16587300  0.66825600  1
  O  O0  1  0.00000000  0.24679900  0.00000000  1
  O  O1  1  0.32994000  0.60141600  0.34011800  1
  O  O2  1  0.67006000  0.94153500  0.65988200  1
  O  O3  1  0.16086300  0.41036900  0.17926100  1
  O  O4  1  0.48942400  0.76004400  0.47991200  1
  O  O5  1  0.81814100  0.08975300  0.82049500  1
  O  O6  1  0.34012500  0.58963100  0.82073900  1
  O  O7  1  0.63863600  0.91024700  0.17950500  1
  O  O8  1  0.96933500  0.23995600  0.52008800  1
  O  O9  1  0.00000000  0.75320100  0.00000000  1
  O  O10  1  0.32994000  0.05846500  0.34011800  1
  O  O11  1  0.67006000  0.39858400  0.65988200  1
  O  O12  1  0.83913700  0.58963100  0.82073900  1
  O  O13  1  0.18185900  0.91024700  0.17950500  1
  O  O14  1  0.51057600  0.23995600  0.52008800  1
  O  O15  1  0.65987500  0.41036900  0.17926100  1
  O  O16  1  0.03066500  0.76004400  0.47991200  1
  O  O17  1  0.36136400  0.08975300  0.82049500  1
loop_
_geom_bond_atom_site_label_1
_geom_bond_atom_site_label_2
_geom_bond_distance
_geom_bond_site_symmetry_2
Ba0 O15 3.025499 1_555
Ba0 O3 3.025502 1_555
Ba0 O6 3.025505 1_554
Ba0 O12 3.025508 1_554
Ba0 O0 3.053678 1_655
Ba0 O0 3.053678 1_555
Ba0 O11 3.128875 1_554
Ba0 O10 3.128876 1_555
Ba0 O5 3.142926 1_554
Ba0 O17 3.142926 1_554
Ba0 O7 3.142932 1_545
Ba0 O13 3.142932 1_545
Ba1 O3 2.895264 1_655
Ba1 O15 2.895267 1_555
Ba1 O9 2.946848 1_655
Ba1 O1 3.065726 1_655
Ba1 O1 3.065738 1_555
Ba1 O7 3.074886 1_555
Ba1 O13 3.074886 1_655
Ba1 O11 3.097163 1_555
Ba1 O8 3.098622 1_555
Ba1 O14 3.098625 1_555
Ba1 O4 3.136317 1_555
Ba1 O16 3.136320 1_655
Ba2 O12 2.895264 1_455
Ba2 O6 2.895267 1_555
Ba2 O9 2.946847 1_556
Ba2 O2 3.065726 1_455
Ba2 O2 3.065738 1_555
Ba2 O5 3.074886 1_465
Ba2 O17 3.074886 1_565
Ba2 O10 3.097164 1_565
Ba2 O16 3.098628 1_555
Ba2 O4 3.098631 1_555
Ba2 O14 3.136310 1_565
Ba2 O8 3.136314 1_465
Ba3 O6 3.025499 1_554
Ba3 O12 3.025502 1_554
Ba3 O15 3.025505 1_555
Ba3 O3 3.025508 1_555
Ba3 O9 3.053678 1_555
Ba3 O9 3.053678 1_655
Ba3 O1 3.128875 1_555
Ba3 O2 3.128876 1_554
Ba3 O13 3.142926 1_555
Ba3 O7 3.142926 1_555
Ba3 O5 3.142932 1_564
Ba3 O17 3.142932 1_564
Ba4 O3 2.895264 1_655
Ba4 O15 2.895267 1_555
Ba4 O0 2.946847 1_655
Ba4 O10 3.065726 1_655
Ba4 O10 3.065738 1_555
Ba4 O7 3.074886 1_545
Ba4 O13 3.074886 1_645
Ba4 O2 3.097164 1_545
Ba4 O8 3.098628 1_555
Ba4 O14 3.098631 1_555
Ba4 O4 3.136310 1_545
Ba4 O16 3.136314 1_645
Ba5 O12 2.895264 1_455
Ba5 O6 2.895267 1_555
Ba5 O0 2.946848 1_556
Ba5 O11 3.065726 1_455
Ba5 O11 3.065738 1_555
Ba5 O5 3.074886 1_455
Ba5 O17 3.074886 1_555
Ba5 O1 3.097163 1_555
Ba5 O16 3.098622 1_555
Ba5 O4 3.098625 1_555
Ba5 O14 3.136317 1_555
Ba5 O8 3.136320 1_455
Dy0 O0 2.134576 1_555
Dy0 O9 2.134576 1_545
Dy0 O17 2.333345 1_554
Dy0 O5 2.333345 1_454
Dy0 O7 2.333345 1_445
Dy0 O13 2.333345 1_545
Dy1 O3 2.141833 1_555
Dy1 O15 2.141833 1_555
Dy1 O8 2.307692 1_455
Dy1 O14 2.307692 1_555
Dy1 O1 2.348260 1_555
Dy1 O10 2.348260 1_555
Dy2 O6 2.141833 1_555
Dy2 O12 2.141833 1_555
Dy2 O4 2.307692 1_555
Dy2 O16 2.307692 1_655
Dy2 O11 2.348260 1_555
Dy2 O2 2.348260 1_555
Dy3 O9 2.189947 1_555
Dy3 O0 2.189947 1_555
Dy3 O3 2.242086 1_555
Dy3 O12 2.242086 1_454
Dy3 O6 2.242090 1_554
Dy3 O15 2.242090 1_455
Mo0 O16 1.948576 1_555
Mo0 O4 1.948589 1_555
Mo0 O13 1.970418 1_555
Mo0 O7 1.970426 1_555
Mo0 O1 1.978000 1_555
Mo0 O10 1.978009 1_565
Mo1 O8 1.948576 1_555
Mo1 O14 1.948589 1_555
Mo1 O5 1.970418 1_555
Mo1 O17 1.970426 1_555
Mo1 O11 1.978000 1_555
Mo1 O2 1.978009 1_545
