# generated using pymatgen
data_YbTiCdSbO7
_symmetry_space_group_name_H-M   'P 1'
_cell_length_a   7.31310692
_cell_length_b   7.31310692
_cell_length_c   7.31310692
_cell_angle_alpha   120.99411540
_cell_angle_beta   119.05028269
_cell_angle_gamma   89.96980314
_symmetry_Int_Tables_number   1
_chemical_formula_structural   YbTiCdSbO7
_chemical_formula_sum   'Yb2 Ti2 Cd2 Sb2 O14'
_cell_volume   276.36854246
_cell_formula_units_Z   2
loop_
 _symmetry_equiv_pos_site_id
 _symmetry_equiv_pos_as_xyz
  1  'x, y, z'
loop_
 _atom_site_type_symbol
 _atom_site_label
 _atom_site_symmetry_multiplicity
 _atom_site_fract_x
 _atom_site_fract_y
 _atom_site_fract_z
 _atom_site_occupancy
  Yb  Yb0  1  0.00000000  0.00000000  0.00000000  1
  Yb  Yb1  1  0.50000000  0.00000000  0.50000000  1
  Ti  Ti0  1  0.50000000  0.50000000  0.50000000  1
  Ti  Ti1  1  0.50000000  0.00000000  0.00000000  1
  Cd  Cd0  1  0.00000000  0.00000000  0.50000000  1
  Cd  Cd1  1  0.00000000  0.50000000  0.00000000  1
  Sb  Sb0  1  0.50000000  0.50000000  0.00000000  1
  Sb  Sb1  1  0.00000000  0.50000000  0.50000000  1
  O  O0  1  0.12079400  0.87079400  0.25000000  1
  O  O1  1  0.87920600  0.12920600  0.75000000  1
  O  O2  1  0.42985500  0.17985500  0.25000000  1
  O  O3  1  0.82923000  0.57923000  0.25000000  1
  O  O4  1  0.43209000  0.58032100  0.25922800  1
  O  O5  1  0.82109300  0.17286100  0.24077200  1
  O  O6  1  0.43209000  0.17286100  0.85176900  1
  O  O7  1  0.82109300  0.58032100  0.64823100  1
  O  O8  1  0.57014500  0.82014500  0.75000000  1
  O  O9  1  0.17077000  0.42077000  0.75000000  1
  O  O10  1  0.56791000  0.41967900  0.74077200  1
  O  O11  1  0.17890700  0.82713900  0.75922800  1
  O  O12  1  0.56791000  0.82713900  0.14823100  1
  O  O13  1  0.17890700  0.41967900  0.35176900  1
loop_
_geom_bond_atom_site_label_1
_geom_bond_atom_site_label_2
_geom_bond_distance
_geom_bond_site_symmetry_2
Cd0 O1 2.191847 1_455
Cd0 O0 2.191847 1_545
Cd0 O9 2.522617 1_555
Cd0 O3 2.522617 1_445
Cd0 O11 2.638457 1_545
Cd0 O5 2.638457 1_455
Cd0 O6 2.638463 1_555
Cd0 O12 2.638463 1_445
Cd1 O0 2.191847 1_555
Cd1 O1 2.191847 1_454
Cd1 O3 2.522617 1_455
Cd1 O9 2.522617 1_554
Cd1 O7 2.638463 1_454
Cd1 O13 2.638463 1_555
Cd1 O10 2.638463 1_454
Cd1 O4 2.638463 1_555
O0 Yb1 2.285961 1_565
O0 Yb0 2.285961 1_565
O1 Yb0 2.285961 1_656
O1 Yb1 2.285961 1_555
O2 Ti0 1.941448 1_555
O2 Ti1 1.941448 1_555
O2 Yb0 2.626949 1_555
O2 Yb1 2.626949 1_555
O3 Sb1 2.027516 1_655
O3 Sb0 2.027516 1_555
O4 Ti0 1.976796 1_555
O4 Sb0 1.988156 1_555
O4 Yb1 2.520594 1_565
O5 Ti1 1.976795 1_555
O5 Sb1 1.988162 1_655
O5 Yb0 2.520593 1_655
O6 Ti1 1.976789 1_556
O6 Sb0 1.988163 1_556
O6 Yb1 2.520594 1_555
O7 Ti0 1.976796 1_555
O7 Sb1 1.988156 1_655
O7 Yb0 2.520594 1_666
O8 Ti0 1.941448 1_555
O8 Ti1 1.941448 1_566
O8 Yb0 2.626949 1_666
O8 Yb1 2.626949 1_565
O9 Sb1 2.027516 1_555
O9 Sb0 2.027516 1_556
O10 Ti0 1.976796 1_555
O10 Sb0 1.988156 1_556
O10 Yb1 2.520594 1_555
O11 Ti1 1.976795 1_566
O11 Sb1 1.988162 1_555
O11 Yb0 2.520593 1_566
O12 Ti1 1.976789 1_565
O12 Sb0 1.988163 1_555
O12 Yb1 2.520594 1_565
O13 Ti0 1.976796 1_555
O13 Sb1 1.988156 1_555
O13 Yb0 2.520594 1_555
