# generated using pymatgen
data_Dy(Fe5Mo)2
_symmetry_space_group_name_H-M   'P 1'
_cell_length_a   4.72674500
_cell_length_b   6.50610981
_cell_length_c   6.50610981
_cell_angle_alpha   96.92029635
_cell_angle_beta   111.30018531
_cell_angle_gamma   68.69981469
_symmetry_Int_Tables_number   1
_chemical_formula_structural   Dy(Fe5Mo)2
_chemical_formula_sum   'Dy1 Fe10 Mo2'
_cell_volume   173.66407373
_cell_formula_units_Z   1
loop_
 _symmetry_equiv_pos_site_id
 _symmetry_equiv_pos_as_xyz
  1  'x, y, z'
loop_
 _atom_site_type_symbol
 _atom_site_label
 _atom_site_symmetry_multiplicity
 _atom_site_fract_x
 _atom_site_fract_y
 _atom_site_fract_z
 _atom_site_occupancy
  Dy  Dy0  1  0.00000000  0.00000000  0.00000000  1
  Fe  Fe0  1  0.71839800  0.78160200  0.21839800  1
  Fe  Fe1  1  0.28160200  0.21839800  0.78160200  1
  Fe  Fe2  1  0.50000000  0.77460200  0.77460200  1
  Fe  Fe3  1  0.50000000  0.22539800  0.22539800  1
  Fe  Fe4  1  0.50000000  0.00000000  0.50000000  1
  Fe  Fe5  1  0.00000000  0.00000000  0.50000000  1
  Fe  Fe6  1  0.50000000  0.50000000  0.00000000  1
  Fe  Fe7  1  0.00000000  0.50000000  0.00000000  1
  Fe  Fe8  1  0.64284700  0.35715300  0.64284700  1
  Fe  Fe9  1  0.35715300  0.64284700  0.35715300  1
  Mo  Mo0  1  0.00000000  0.35782300  0.35782300  1
  Mo  Mo1  1  0.00000000  0.64217700  0.64217700  1
loop_
_geom_bond_atom_site_label_1
_geom_bond_atom_site_label_2
_geom_bond_distance
_geom_bond_site_symmetry_2
Dy0 Fe0 3.007396 1_445
Dy0 Fe1 3.007396 1_554
Dy0 Fe0 3.007397 1_545
Dy0 Fe1 3.007397 1_454
Dy0 Fe8 3.041410 1_454
Dy0 Fe9 3.041410 1_545
Dy0 Fe3 3.060774 1_555
Dy0 Fe2 3.060774 1_544
Dy0 Fe2 3.060774 1_444
Dy0 Fe3 3.060774 1_455
Dy0 Mo0 3.087631 1_555
Dy0 Mo1 3.087631 1_544
Dy0 Fe7 3.253055 1_555
Dy0 Fe5 3.253055 1_554
Dy0 Fe5 3.253055 1_555
Dy0 Fe7 3.253055 1_545
Dy0 Fe6 3.253055 1_545
Dy0 Fe4 3.253055 1_555
Dy0 Fe6 3.253055 1_455
Dy0 Fe4 3.253055 1_454
Fe0 Fe6 2.474361 1_555
Fe0 Fe4 2.474361 1_565
Fe0 Fe5 2.474361 1_665
Fe0 Fe7 2.474361 1_655
Fe0 Fe9 2.642291 1_555
Fe0 Fe9 2.642291 1_655
Fe0 Fe3 2.691043 1_565
Fe0 Fe2 2.691043 1_554
Fe0 Mo0 2.693645 1_655
Fe0 Mo1 2.693645 1_655
Fe1 Fe4 2.474361 1_555
Fe1 Fe6 2.474361 1_556
Fe1 Fe7 2.474361 1_556
Fe1 Fe5 2.474361 1_555
Fe1 Fe8 2.642291 1_555
Fe1 Fe8 2.642291 1_455
Fe1 Fe3 2.691043 1_556
Fe1 Fe2 2.691043 1_545
Fe1 Mo0 2.693645 1_555
Fe1 Mo1 2.693645 1_555
Fe2 Fe4 2.444131 1_565
Fe2 Fe6 2.444131 1_556
Fe2 Fe7 2.444131 1_656
Fe2 Fe5 2.444131 1_565
Fe2 Mo1 2.625121 1_555
Fe2 Mo1 2.625121 1_655
Fe2 Fe8 2.663526 1_555
Fe2 Fe9 2.663526 1_555
Fe3 Fe6 2.444131 1_555
Fe3 Fe4 2.444131 1_555
Fe3 Fe7 2.444131 1_555
Fe3 Fe5 2.444131 1_655
Fe3 Mo0 2.625121 1_555
Fe3 Mo0 2.625121 1_655
Fe3 Fe8 2.663526 1_555
Fe3 Fe9 2.663526 1_555
Fe4 Fe5 2.363373 1_655
Fe4 Fe5 2.363373 1_555
Fe4 Mo0 2.606598 1_555
Fe4 Mo1 2.606598 1_645
Fe4 Fe8 2.623483 1_555
Fe4 Fe9 2.623483 1_545
Fe5 Mo0 2.606597 1_555
Fe5 Mo1 2.606597 1_545
Fe5 Fe8 2.623483 1_455
Fe5 Fe9 2.623483 1_545
Fe6 Fe7 2.363373 1_655
Fe6 Fe7 2.363373 1_555
Fe6 Mo1 2.606598 1_554
Fe6 Mo0 2.606598 1_655
Fe6 Fe8 2.623483 1_554
Fe6 Fe9 2.623483 1_555
Fe7 Mo0 2.606597 1_555
Fe7 Mo1 2.606597 1_554
Fe7 Fe9 2.623483 1_555
Fe7 Fe8 2.623483 1_454
Fe8 Fe9 2.432886 1_555
Fe8 Mo0 2.927523 1_655
Fe8 Mo1 2.927523 1_655
Fe8 Mo0 2.927523 1_555
Fe8 Mo1 2.927523 1_555
Fe9 Mo0 2.927523 1_555
Fe9 Mo1 2.927523 1_555
Fe9 Mo0 2.927523 1_655
Fe9 Mo1 2.927523 1_655
Mo0 Mo1 2.453672 1_555
