# generated using pymatgen
data_Mg6VMo
_symmetry_space_group_name_H-M   'P 1'
_cell_length_a   4.93396200
_cell_length_b   5.86624900
_cell_length_c   10.89919300
_cell_angle_alpha   90.00000000
_cell_angle_beta   90.00000000
_cell_angle_gamma   90.00000000
_symmetry_Int_Tables_number   1
_chemical_formula_structural   Mg6VMo
_chemical_formula_sum   'Mg12 V2 Mo2'
_cell_volume   315.46460348
_cell_formula_units_Z   2
loop_
 _symmetry_equiv_pos_site_id
 _symmetry_equiv_pos_as_xyz
  1  'x, y, z'
loop_
 _atom_site_type_symbol
 _atom_site_label
 _atom_site_symmetry_multiplicity
 _atom_site_fract_x
 _atom_site_fract_y
 _atom_site_fract_z
 _atom_site_occupancy
  Mg  Mg0  1  0.50000000  0.75046600  0.92218900  1
  Mg  Mg1  1  0.50000000  0.24953400  0.92218900  1
  Mg  Mg2  1  0.00000000  0.24527300  0.58518300  1
  Mg  Mg3  1  0.00000000  0.75472700  0.58518300  1
  Mg  Mg4  1  0.00000000  0.50000000  0.82026300  1
  Mg  Mg5  1  0.00000000  0.00000000  0.81967000  1
  Mg  Mg6  1  0.50000000  0.25046600  0.42218900  1
  Mg  Mg7  1  0.50000000  0.74953400  0.42218900  1
  Mg  Mg8  1  0.00000000  0.74527300  0.08518300  1
  Mg  Mg9  1  0.00000000  0.25472700  0.08518300  1
  Mg  Mg10  1  0.00000000  0.00000000  0.32026300  1
  Mg  Mg11  1  0.00000000  0.50000000  0.31967000  1
  V  V0  1  0.50000000  0.50000000  0.67089800  1
  V  V1  1  0.50000000  0.00000000  0.17089800  1
  Mo  Mo0  1  0.50000000  0.00000000  0.67441900  1
  Mo  Mo1  1  0.50000000  0.50000000  0.17441900  1
loop_
_geom_bond_atom_site_label_1
_geom_bond_atom_site_label_2
_geom_bond_distance
_geom_bond_site_symmetry_2
Mg0 Mg1 2.927657 1_565
Mg0 Mg1 2.938592 1_555
Mg0 Mg8 3.040212 1_656
Mg0 Mg8 3.040212 1_556
Mg0 Mo0 3.071719 1_565
Mg0 Mg5 3.078525 1_565
Mg0 Mg5 3.078525 1_665
Mg0 Mg4 3.078790 1_655
Mg0 Mg4 3.078790 1_555
Mg0 V1 3.080720 1_566
Mg0 V0 3.108092 1_555
Mg0 Mo1 3.117114 1_556
Mg1 Mg9 3.040212 1_556
Mg1 Mg9 3.040212 1_656
Mg1 Mo0 3.071719 1_555
Mg1 Mg5 3.078525 1_555
Mg1 Mg5 3.078525 1_655
Mg1 Mg4 3.078790 1_555
Mg1 Mg4 3.078790 1_655
Mg1 V1 3.080720 1_556
Mg1 V0 3.108092 1_555
Mg1 Mo1 3.117114 1_556
Mg2 Mg3 2.877665 1_545
Mg2 Mg5 2.932906 1_555
Mg2 Mg4 2.966089 1_555
Mg2 Mg3 2.988584 1_555
Mg2 Mo0 3.016983 1_455
Mg2 Mo0 3.016983 1_555
Mg2 V0 3.031778 1_455
Mg2 V0 3.031778 1_555
Mg2 Mg6 3.040212 1_455
Mg2 Mg6 3.040212 1_555
Mg3 Mg5 2.932906 1_565
Mg3 Mg4 2.966089 1_555
Mg3 Mo0 3.016983 1_465
Mg3 Mo0 3.016983 1_565
Mg3 V0 3.031778 1_555
Mg3 V0 3.031778 1_455
Mg3 Mg7 3.040212 1_455
Mg3 Mg7 3.040212 1_555
Mg4 Mg5 2.933132 1_555
Mg4 Mg5 2.933132 1_565
Mg4 V0 2.955714 1_455
Mg4 V0 2.955714 1_555
Mg4 Mg8 3.226050 1_556
Mg4 Mg9 3.226050 1_556
Mg5 Mo0 2.931256 1_555
Mg5 Mo0 2.931256 1_455
Mg5 Mg9 3.256906 1_556
Mg5 Mg8 3.256906 1_546
Mg6 Mg7 2.927657 1_555
Mg6 Mg7 2.938592 1_545
Mg6 Mo1 3.071719 1_555
Mg6 V0 3.080720 1_555
Mg6 V1 3.108092 1_555
Mg6 Mo0 3.117114 1_555
Mg7 Mo1 3.071719 1_555
Mg7 V0 3.080720 1_555
Mg7 V1 3.108092 1_565
Mg7 Mo0 3.117114 1_565
Mg8 Mg9 2.877665 1_555
Mg8 Mg9 2.988584 1_565
Mg8 Mo1 3.016983 1_555
Mg8 Mo1 3.016983 1_455
Mg8 V1 3.031778 1_565
Mg8 V1 3.031778 1_465
Mg9 Mo1 3.016983 1_555
Mg9 Mo1 3.016983 1_455
Mg9 V1 3.031778 1_455
Mg9 V1 3.031778 1_555
Mg10 Mg11 2.933132 1_545
Mg10 Mg11 2.933132 1_555
Mg10 V1 2.955714 1_455
Mg10 V1 2.955714 1_555
Mg10 Mg9 2.966089 1_555
Mg10 Mg8 2.966089 1_545
Mg10 Mg6 3.078790 1_555
Mg10 Mg6 3.078790 1_455
Mg10 Mg7 3.078790 1_545
Mg10 Mg7 3.078790 1_445
Mg10 Mg2 3.226050 1_555
Mg10 Mg3 3.226050 1_545
Mg11 Mo1 2.931256 1_555
Mg11 Mo1 2.931256 1_455
Mg11 Mg9 2.932906 1_555
Mg11 Mg8 2.932906 1_555
Mg11 Mg7 3.078525 1_455
Mg11 Mg7 3.078525 1_555
Mg11 Mg6 3.078525 1_455
Mg11 Mg6 3.078525 1_555
Mg11 Mg3 3.256906 1_555
Mg11 Mg2 3.256906 1_555
Mo0 V0 2.933376 1_545
Mo0 V0 2.933376 1_555
Mo1 V1 2.933376 1_565
Mo1 V1 2.933376 1_555
