# generated using pymatgen
data_Ba7Ga5AgSe15
_symmetry_space_group_name_H-M   'P 1'
_cell_length_a   10.22083323
_cell_length_b   10.22083323
_cell_length_c   19.02052700
_cell_angle_alpha   90.00000000
_cell_angle_beta   90.00000000
_cell_angle_gamma   119.99999500
_symmetry_Int_Tables_number   1
_chemical_formula_structural   Ba7Ga5AgSe15
_chemical_formula_sum   'Ba14 Ga10 Ag2 Se30'
_cell_volume   1720.78179706
_cell_formula_units_Z   2
loop_
 _symmetry_equiv_pos_site_id
 _symmetry_equiv_pos_as_xyz
  1  'x, y, z'
loop_
 _atom_site_type_symbol
 _atom_site_label
 _atom_site_symmetry_multiplicity
 _atom_site_fract_x
 _atom_site_fract_y
 _atom_site_fract_z
 _atom_site_occupancy
  Ba  Ba0  1  0.00000000  0.00000000  0.82118400  1
  Ba  Ba1  1  0.00000000  0.00000000  0.32118400  1
  Ba  Ba2  1  0.64909900  0.72801300  0.51682900  1
  Ba  Ba3  1  0.07891400  0.35090100  0.51682900  1
  Ba  Ba4  1  0.27198700  0.92108600  0.51682900  1
  Ba  Ba5  1  0.92108600  0.27198700  0.01682900  1
  Ba  Ba6  1  0.72801300  0.64909900  0.01682900  1
  Ba  Ba7  1  0.35090100  0.07891400  0.01682900  1
  Ba  Ba8  1  0.57827200  0.97547100  0.70714800  1
  Ba  Ba9  1  0.39719900  0.42172800  0.70714800  1
  Ba  Ba10  1  0.02452900  0.60280100  0.70714800  1
  Ba  Ba11  1  0.60280100  0.02452900  0.20714800  1
  Ba  Ba12  1  0.97547100  0.57827200  0.20714800  1
  Ba  Ba13  1  0.42172800  0.39719900  0.20714800  1
  Ga  Ga0  1  0.66666700  0.33333300  0.57664800  1
  Ga  Ga1  1  0.33333300  0.66666700  0.07664800  1
  Ga  Ga2  1  0.53606600  0.89018500  0.90619700  1
  Ga  Ga3  1  0.35411900  0.46393400  0.90619700  1
  Ga  Ga4  1  0.10981500  0.64588100  0.90619700  1
  Ga  Ga5  1  0.64588100  0.10981500  0.40619700  1
  Ga  Ga6  1  0.89018500  0.53606600  0.40619700  1
  Ga  Ga7  1  0.46393400  0.35411900  0.40619700  1
  Ga  Ga8  1  0.00000000  0.00000000  0.62978500  1
  Ga  Ga9  1  0.00000000  0.00000000  0.12978500  1
  Ag  Ag0  1  0.66666700  0.33333300  0.85629100  1
  Ag  Ag1  1  0.33333300  0.66666700  0.35629100  1
  Se  Se0  1  0.87972000  0.62438600  0.86373000  1
  Se  Se1  1  0.74466700  0.12028000  0.86373000  1
  Se  Se2  1  0.37561400  0.25533300  0.86373000  1
  Se  Se3  1  0.25533300  0.37561400  0.36373000  1
  Se  Se4  1  0.62438600  0.87972000  0.36373000  1
  Se  Se5  1  0.12028000  0.74466700  0.36373000  1
  Se  Se6  1  0.57000900  0.68921700  0.85931800  1
  Se  Se7  1  0.11920800  0.42999100  0.85931800  1
  Se  Se8  1  0.31078300  0.88079200  0.85931800  1
  Se  Se9  1  0.88079200  0.31078300  0.35931800  1
  Se  Se10  1  0.68921700  0.57000900  0.35931800  1
  Se  Se11  1  0.42999100  0.11920800  0.35931800  1
  Se  Se12  1  0.89505200  0.55781400  0.53476100  1
  Se  Se13  1  0.66276200  0.10494800  0.53476100  1
  Se  Se14  1  0.44218600  0.33723800  0.53476100  1
  Se  Se15  1  0.33723800  0.44218600  0.03476100  1
  Se  Se16  1  0.55781400  0.89505200  0.03476100  1
  Se  Se17  1  0.10494800  0.66276200  0.03476100  1
  Se  Se18  1  0.66666700  0.33333300  0.70079400  1
  Se  Se19  1  0.33333300  0.66666700  0.20079400  1
  Se  Se20  1  0.00000000  0.00000000  0.50059500  1
  Se  Se21  1  0.00000000  0.00000000  0.00059500  1
  Se  Se22  1  0.77215600  0.79085600  0.68129900  1
  Se  Se23  1  0.01870000  0.22784400  0.68129900  1
  Se  Se24  1  0.20914400  0.98130000  0.68129900  1
  Se  Se25  1  0.98130000  0.20914400  0.18129900  1
  Se  Se26  1  0.79085600  0.77215600  0.18129900  1
  Se  Se27  1  0.22784400  0.01870000  0.18129900  1
  Se  Se28  1  0.33333300  0.66666700  0.60856900  1
  Se  Se29  1  0.66666700  0.33333300  0.10856900  1
loop_
_geom_bond_atom_site_label_1
_geom_bond_atom_site_label_2
_geom_bond_distance
_geom_bond_site_symmetry_2
Ba0 Se21 3.412492 1_556
Ba0 Se24 3.477613 1_545
Ba0 Se23 3.477613 1_555
Ba0 Se22 3.477613 1_445
Ba0 Se1 3.490718 1_455
Ba0 Se2 3.490726 1_555
Ba0 Se0 3.490728 1_445
Ba1 Se20 3.412492 1_555
Ba1 Se25 3.477613 1_455
Ba1 Se27 3.477613 1_555
Ba1 Se26 3.477613 1_445
Ba1 Se5 3.490718 1_545
Ba1 Se3 3.490726 1_555
Ba1 Se4 3.490728 1_445
Ba2 Se20 3.273550 1_665
Ba2 Se22 3.312540 1_555
Ba2 Se4 3.367434 1_555
Ba2 Se28 3.439538 1_555
Ba2 Se14 3.477717 1_555
Ba2 Se10 3.523350 1_555
Ba2 Se12 3.719529 1_555
Ba2 Se13 3.800037 1_565
Ba3 Se20 3.273550 1_555
Ba3 Se23 3.312540 1_555
Ba3 Se3 3.367429 1_555
Ba3 Se28 3.439536 1_555
Ba3 Se12 3.477717 1_455
Ba3 Se9 3.523350 1_455
Ba3 Se13 3.719529 1_455
Ba3 Se14 3.800037 1_555
Ba4 Se20 3.273550 1_565
Ba4 Se24 3.312540 1_555
Ba4 Se5 3.367431 1_555
Ba4 Se28 3.439530 1_555
Ba4 Se13 3.477717 1_565
Ba4 Se11 3.523350 1_565
Ba4 Se14 3.719529 1_565
Ba4 Se12 3.800037 1_455
Ba5 Se21 3.273550 1_655
Ba5 Se25 3.312540 1_555
Ba5 Se1 3.367431 1_554
Ba5 Se29 3.439530 1_555
Ba5 Se17 3.477717 1_655
Ba5 Se7 3.523350 1_654
Ba5 Se15 3.719529 1_655
Ba5 Se16 3.800037 1_545
Ba6 Se21 3.273550 1_665
Ba6 Se26 3.312540 1_555
Ba6 Se0 3.367434 1_554
Ba6 Se29 3.439538 1_555
Ba6 Se15 3.477717 1_555
Ba6 Se6 3.523350 1_554
Ba6 Se16 3.719529 1_555
Ba6 Se17 3.800037 1_655
Ba7 Se21 3.273550 1_555
Ba7 Se27 3.312540 1_555
Ba7 Se2 3.367429 1_554
Ba7 Se29 3.439536 1_555
Ba7 Se16 3.477717 1_545
Ba7 Se8 3.523350 1_544
Ba7 Se17 3.719529 1_545
Ba7 Se15 3.800037 1_555
Ba8 Se18 3.302223 1_565
Ba8 Se1 3.381705 1_565
Ba8 Se22 3.386500 1_555
Ba8 Se28 3.441421 1_555
Ba8 Se13 3.479275 1_565
Ba8 Se8 3.760667 1_555
Ba8 Se24 3.834585 1_555
Ba8 Se23 3.943054 1_665
Ba9 Se18 3.302233 1_555
Ba9 Se2 3.381707 1_555
Ba9 Se23 3.386500 1_555
Ba9 Se28 3.441426 1_555
Ba9 Se14 3.479275 1_555
Ba9 Se6 3.760667 1_555
Ba9 Se22 3.834585 1_555
Ba9 Se24 3.943054 1_545
Ba10 Se18 3.302226 1_455
Ba10 Se0 3.381702 1_455
Ba10 Se24 3.386500 1_555
Ba10 Se28 3.441418 1_555
Ba10 Se12 3.479275 1_455
Ba10 Se7 3.760667 1_555
Ba10 Se23 3.834585 1_555
Ba10 Se22 3.943054 1_455
Ba11 Se19 3.302226 1_545
Ba11 Se4 3.381702 1_545
Ba11 Se25 3.386500 1_555
Ba11 Se29 3.441418 1_555
Ba11 Se16 3.479275 1_545
Ba11 Se11 3.760667 1_555
Ba11 Se27 3.834585 1_555
Ba11 Se26 3.943054 1_545
Ba12 Se19 3.302223 1_655
Ba12 Se5 3.381705 1_655
Ba12 Se26 3.386500 1_555
Ba12 Se29 3.441421 1_555
Ba12 Se17 3.479275 1_655
Ba12 Se9 3.760667 1_555
Ba12 Se25 3.834585 1_555
Ba12 Se27 3.943054 1_665
Ba13 Se19 3.302233 1_555
Ba13 Se3 3.381707 1_555
Ba13 Se27 3.386500 1_555
Ba13 Se29 3.441426 1_555
Ba13 Se15 3.479275 1_555
Ba13 Se10 3.760667 1_555
Ba13 Se26 3.834585 1_555
Ba13 Se25 3.943054 1_455
Ga0 Se18 2.361322 1_555
Ga0 Se13 2.447869 1_555
Ga0 Se12 2.447874 1_555
Ga0 Se14 2.447879 1_555
Ga1 Se19 2.361322 1_555
Ga1 Se17 2.447869 1_555
Ga1 Se16 2.447874 1_555
Ga1 Se15 2.447879 1_555
Ga2 Se1 2.390575 1_565
Ga2 Se6 2.418097 1_555
Ga2 Se8 2.425922 1_555
Ga2 Se16 2.453689 1_556
Ga3 Se2 2.390581 1_555
Ga3 Se7 2.418097 1_555
Ga3 Se6 2.425922 1_555
Ga3 Se15 2.453689 1_556
Ga4 Se0 2.390571 1_455
Ga4 Se8 2.418097 1_555
Ga4 Se7 2.425922 1_555
Ga4 Se17 2.453689 1_556
Ga5 Se4 2.390571 1_545
Ga5 Se9 2.418097 1_555
Ga5 Se11 2.425922 1_555
Ga5 Se13 2.453689 1_555
Ga6 Se5 2.390575 1_655
Ga6 Se10 2.418097 1_555
Ga6 Se9 2.425922 1_555
Ga6 Se12 2.453689 1_555
Ga7 Se3 2.390581 1_555
Ga7 Se11 2.418097 1_555
Ga7 Se10 2.425922 1_555
Ga7 Se14 2.453689 1_555
Ga8 Se24 2.444298 1_545
Ga8 Se23 2.444298 1_555
Ga8 Se22 2.444298 1_445
Ga8 Se20 2.457262 1_555
Ga9 Se25 2.444298 1_455
Ga9 Se27 2.444298 1_555
Ga9 Se26 2.444298 1_445
Ga9 Se21 2.457262 1_555
Ag0 Se1 2.670854 1_555
Ag0 Se2 2.670854 1_555
Ag0 Se0 2.670854 1_555
Ag0 Se18 2.957635 1_555
Ag1 Se5 2.670854 1_555
Ag1 Se3 2.670854 1_555
Ag1 Se4 2.670854 1_555
Ag1 Se19 2.957635 1_555
