# generated using pymatgen
data_Li3Ta12O31
_symmetry_space_group_name_H-M   'P 1'
_cell_length_a   3.90017700
_cell_length_b   9.05741400
_cell_length_c   17.08306930
_cell_angle_alpha   89.56901322
_cell_angle_beta   90.00000000
_cell_angle_gamma   90.00000000
_symmetry_Int_Tables_number   1
_chemical_formula_structural   Li3Ta12O31
_chemical_formula_sum   'Li3 Ta12 O31'
_cell_volume   603.45119517
_cell_formula_units_Z   1
loop_
 _symmetry_equiv_pos_site_id
 _symmetry_equiv_pos_as_xyz
  1  'x, y, z'
loop_
 _atom_site_type_symbol
 _atom_site_label
 _atom_site_symmetry_multiplicity
 _atom_site_fract_x
 _atom_site_fract_y
 _atom_site_fract_z
 _atom_site_occupancy
  Li  Li0  1  0.50000000  0.95685100  0.38212500  1
  Li  Li1  1  0.50000000  0.04238900  0.62252400  1
  Li  Li2  1  0.50000000  0.95230100  0.11483500  1
  Ta  Ta0  1  0.00000000  0.59636100  0.36778400  1
  Ta  Ta1  1  0.00000000  0.39471400  0.63197400  1
  Ta  Ta2  1  0.00000000  0.60134500  0.13036000  1
  Ta  Ta3  1  0.00000000  0.40696500  0.86678900  1
  Ta  Ta4  1  0.00000000  0.94299300  0.25012700  1
  Ta  Ta5  1  0.00000000  0.05496700  0.75488500  1
  Ta  Ta6  1  0.00000000  0.19107200  0.44281800  1
  Ta  Ta7  1  0.00000000  0.80402700  0.55820100  1
  Ta  Ta8  1  0.00000000  0.19531800  0.05910800  1
  Ta  Ta9  1  0.00000000  0.81927500  0.94384400  1
  Ta  Ta10  1  0.00000000  0.30888100  0.25004100  1
  Ta  Ta11  1  0.00000000  0.69474900  0.74824700  1
  O  O0  1  0.00000000  0.53706900  0.24994200  1
  O  O1  1  0.00000000  0.45952000  0.75226000  1
  O  O2  1  0.00000000  0.66467300  0.47678500  1
  O  O3  1  0.00000000  0.33368600  0.52273500  1
  O  O4  1  0.00000000  0.66988200  0.02314700  1
  O  O5  1  0.00000000  0.33958700  0.97292400  1
  O  O6  1  0.00000000  0.11519000  0.32573900  1
  O  O7  1  0.00000000  0.88168300  0.67491900  1
  O  O8  1  0.00000000  0.11756000  0.17291800  1
  O  O9  1  0.00000000  0.87880400  0.82508300  1
  O  O10  1  0.50000000  0.16195100  0.43536900  1
  O  O11  1  0.50000000  0.83825500  0.56404000  1
  O  O12  1  0.50000000  0.17096000  0.06157900  1
  O  O13  1  0.50000000  0.82788500  0.93704900  1
  O  O14  1  0.00000000  0.37318400  0.36770000  1
  O  O15  1  0.00000000  0.62425500  0.63261700  1
  O  O16  1  0.00000000  0.37601500  0.13060900  1
  O  O17  1  0.00000000  0.61968800  0.87002300  1
  O  O18  1  0.00000000  0.99919400  0.49949800  1
  O  O19  1  0.00000000  0.99566800  0.00973800  1
  O  O20  1  0.00000000  0.80987000  0.33797100  1
  O  O21  1  0.00000000  0.18753000  0.66203200  1
  O  O22  1  0.00000000  0.81140900  0.16215600  1
  O  O23  1  0.00000000  0.20565000  0.83294200  1
  O  O24  1  0.50000000  0.29604900  0.24889300  1
  O  O25  1  0.50000000  0.69305600  0.75190400  1
  O  O26  1  0.50000000  0.94626100  0.24907300  1
  O  O27  1  0.50000000  0.05546800  0.74342900  1
  O  O28  1  0.50000000  0.59469600  0.37016300  1
  O  O29  1  0.50000000  0.40625800  0.63254700  1
  O  O30  1  0.50000000  0.59583600  0.13055400  1
loop_
_geom_bond_atom_site_label_1
_geom_bond_atom_site_label_2
_geom_bond_distance
_geom_bond_site_symmetry_2
Li0 O10 2.074536 1_565
Li0 O26 2.275680 1_555
Li0 O20 2.481768 1_555
Li0 O20 2.481768 1_655
Li0 O6 2.601282 1_565
Li0 O6 2.601282 1_665
Li1 O27 2.069712 1_555
Li1 O11 2.108196 1_545
Li1 O21 2.449466 1_655
Li1 O21 2.449466 1_555
Li1 O7 2.589036 1_545
Li1 O7 2.589036 1_645
Li2 O12 2.173225 1_565
Li2 O26 2.293438 1_555
Li2 O22 2.463593 1_555
Li2 O22 2.463593 1_655
O0 Ta10 2.066781 1_555
O0 Ta0 2.087403 1_555
O0 Ta2 2.119948 1_555
O1 Ta3 2.010098 1_555
O1 Ta11 2.131154 1_555
O1 Ta1 2.141287 1_555
O2 Ta7 1.885192 1_555
O2 Ta0 1.966588 1_555
O3 Ta6 1.886505 1_555
O3 Ta1 1.950263 1_555
O4 Ta9 1.907526 1_554
O4 Ta2 1.929440 1_555
O5 Ta3 1.908706 1_555
O5 Ta8 1.961164 1_556
O6 Ta4 2.032559 1_545
O6 Ta6 2.119747 1_555
O6 Ta10 2.171595 1_555
O7 Ta5 2.088476 1_565
O7 Ta11 2.098568 1_555
O7 Ta7 2.119307 1_555
O8 Ta4 2.051404 1_545
O8 Ta8 2.062869 1_555
O8 Ta10 2.184719 1_555
O9 Ta5 1.988760 1_565
O9 Ta9 2.095303 1_555
O9 Ta11 2.129535 1_555
O10 Ta6 1.972083 1_655
O10 Ta6 1.972083 1_555
O11 Ta7 1.977213 1_655
O11 Ta7 1.977213 1_555
O12 Ta8 1.962947 1_555
O12 Ta8 1.962947 1_655
O13 Ta9 1.955061 1_555
O13 Ta9 1.955061 1_655
O14 Ta0 2.021418 1_555
O14 Ta6 2.082212 1_555
O14 Ta10 2.096862 1_555
O15 Ta7 2.058205 1_555
O15 Ta1 2.079160 1_555
O15 Ta11 2.080509 1_555
O16 Ta2 2.040880 1_555
O16 Ta8 2.049548 1_555
O16 Ta10 2.124560 1_555
O17 Ta3 1.927928 1_555
O17 Ta11 2.183715 1_555
O17 Ta9 2.211916 1_555
O18 Ta6 1.983076 1_565
O18 Ta7 2.025781 1_555
O19 Ta9 1.961307 1_554
O19 Ta8 2.001062 1_565
O20 Ta4 1.917954 1_555
O20 Ta0 1.996072 1_555
O21 Ta1 1.941807 1_555
O21 Ta5 1.982183 1_555
O22 Ta4 1.925048 1_555
O22 Ta2 1.982577 1_555
O23 Ta5 1.915242 1_555
O23 Ta3 1.917016 1_555
O24 Ta10 1.953656 1_655
O24 Ta10 1.953656 1_555
O25 Ta11 1.951145 1_655
O25 Ta11 1.951145 1_555
O26 Ta4 1.950394 1_555
O26 Ta4 1.950394 1_655
O27 Ta5 1.959886 1_655
O27 Ta5 1.959886 1_555
O28 Ta0 1.950568 1_655
O28 Ta0 1.950568 1_555
O29 Ta1 1.952918 1_655
O29 Ta1 1.952918 1_555
O30 Ta2 1.950729 1_555
O30 Ta2 1.950729 1_655
