# generated using pymatgen
data_ZnCu2
_symmetry_space_group_name_H-M   'P 1'
_cell_length_a   5.16765121
_cell_length_b   5.16765121
_cell_length_c   12.58674760
_cell_angle_alpha   90.00000000
_cell_angle_beta   90.00000000
_cell_angle_gamma   120.00000064
_symmetry_Int_Tables_number   1
_chemical_formula_structural   ZnCu2
_chemical_formula_sum   'Zn8 Cu16'
_cell_volume   291.09218027
_cell_formula_units_Z   8
loop_
 _symmetry_equiv_pos_site_id
 _symmetry_equiv_pos_as_xyz
  1  'x, y, z'
loop_
 _atom_site_type_symbol
 _atom_site_label
 _atom_site_symmetry_multiplicity
 _atom_site_fract_x
 _atom_site_fract_y
 _atom_site_fract_z
 _atom_site_occupancy
  Zn  Zn0_0  1  0.00000000  0.00000000  0.00000000  1
  Zn  Zn0_1  1  0.00000000  0.00000000  0.50000000  1
  Zn  Zn0_2  1  0.00000000  0.50000000  0.00000000  1
  Zn  Zn0_3  1  0.00000000  0.50000000  0.50000000  1
  Zn  Zn0_4  1  0.50000000  0.00000000  0.00000000  1
  Zn  Zn0_5  1  0.50000000  0.00000000  0.50000000  1
  Zn  Zn0_6  1  0.50000000  0.50000000  0.00000000  1
  Zn  Zn0_7  1  0.50000000  0.50000000  0.50000000  1
  Cu  Cu0_0  1  0.16666650  0.33333350  0.33107074  1
  Cu  Cu0_1  1  0.16666650  0.33333350  0.83107074  1
  Cu  Cu0_2  1  0.16666650  0.83333350  0.33107074  1
  Cu  Cu0_3  1  0.16666650  0.83333350  0.83107074  1
  Cu  Cu0_4  1  0.66666650  0.33333350  0.33107074  1
  Cu  Cu0_5  1  0.66666650  0.33333350  0.83107074  1
  Cu  Cu0_6  1  0.66666650  0.83333350  0.33107074  1
  Cu  Cu0_7  1  0.66666650  0.83333350  0.83107074  1
  Cu  Cu1_0  1  0.33333350  0.16666650  0.16892925  1
  Cu  Cu1_1  1  0.33333350  0.16666650  0.66892926  1
  Cu  Cu1_2  1  0.33333350  0.66666650  0.16892925  1
  Cu  Cu1_3  1  0.33333350  0.66666650  0.66892926  1
  Cu  Cu1_4  1  0.83333350  0.16666650  0.16892925  1
  Cu  Cu1_5  1  0.83333350  0.16666650  0.66892926  1
  Cu  Cu1_6  1  0.83333350  0.66666650  0.16892925  1
  Cu  Cu1_7  1  0.83333350  0.66666650  0.66892926  1
loop_
_geom_bond_atom_site_label_1
_geom_bond_atom_site_label_2
_geom_bond_distance
_geom_bond_site_symmetry_2
Zn0_0 Zn0_6 2.583826 1_555
Zn0_0 Zn0_6 2.583826 1_445
Zn0_0 Zn0_2 2.583826 1_555
Zn0_0 Zn0_4 2.583826 1_455
Zn0_0 Zn0_4 2.583826 1_555
Zn0_0 Zn0_2 2.583826 1_545
Zn0_1 Zn0_7 2.583826 1_555
Zn0_1 Zn0_7 2.583826 1_445
Zn0_1 Zn0_3 2.583826 1_555
Zn0_1 Zn0_5 2.583826 1_555
Zn0_1 Zn0_5 2.583826 1_455
Zn0_1 Zn0_3 2.583826 1_545
Zn0_2 Zn0_4 2.583826 1_565
Zn0_2 Zn0_4 2.583826 1_455
Zn0_2 Zn0_6 2.583826 1_455
Zn0_2 Zn0_6 2.583826 1_555
Zn0_3 Zn0_5 2.583826 1_565
Zn0_3 Zn0_5 2.583826 1_455
Zn0_3 Zn0_7 2.583826 1_555
Zn0_3 Zn0_7 2.583826 1_455
Zn0_4 Zn0_6 2.583826 1_555
Zn0_4 Zn0_6 2.583826 1_545
Zn0_5 Zn0_7 2.583826 1_555
Zn0_5 Zn0_7 2.583826 1_545
Cu0_0 Cu1_2 2.527921 1_555
Cu0_0 Cu1_4 2.527921 1_455
Cu0_0 Cu1_0 2.527924 1_555
Cu0_0 Cu0_6 2.583826 1_445
Cu0_0 Cu0_6 2.583826 1_555
Cu0_0 Cu0_2 2.583826 1_555
Cu0_0 Cu0_4 2.583826 1_455
Cu0_0 Cu0_2 2.583826 1_545
Cu0_0 Cu0_4 2.583826 1_555
Cu0_0 Zn0_3 2.597384 1_555
Cu0_0 Zn0_7 2.597385 1_555
Cu0_0 Zn0_1 2.597385 1_555
Cu0_1 Cu1_5 2.527921 1_455
Cu0_1 Cu1_3 2.527921 1_555
Cu0_1 Cu1_1 2.527924 1_555
Cu0_1 Cu0_7 2.583826 1_445
Cu0_1 Cu0_7 2.583826 1_555
Cu0_1 Cu0_3 2.583826 1_555
Cu0_1 Cu0_5 2.583826 1_455
Cu0_1 Cu0_5 2.583826 1_555
Cu0_1 Cu0_3 2.583826 1_545
Cu0_1 Zn0_2 2.597384 1_556
Cu0_1 Zn0_0 2.597385 1_556
Cu0_1 Zn0_6 2.597385 1_556
Cu0_2 Cu1_6 2.527921 1_455
Cu0_2 Cu1_0 2.527921 1_565
Cu0_2 Cu1_2 2.527924 1_555
Cu0_2 Cu0_4 2.583826 1_455
Cu0_2 Cu0_4 2.583826 1_565
Cu0_2 Cu0_6 2.583826 1_455
Cu0_2 Cu0_6 2.583826 1_555
Cu0_2 Zn0_1 2.597384 1_565
Cu0_2 Zn0_5 2.597385 1_565
Cu0_2 Zn0_3 2.597385 1_555
Cu0_3 Cu1_7 2.527921 1_455
Cu0_3 Cu1_1 2.527921 1_565
Cu0_3 Cu1_3 2.527924 1_555
Cu0_3 Cu0_5 2.583826 1_565
Cu0_3 Cu0_5 2.583826 1_455
Cu0_3 Cu0_7 2.583826 1_455
Cu0_3 Cu0_7 2.583826 1_555
Cu0_3 Zn0_0 2.597384 1_566
Cu0_3 Zn0_4 2.597385 1_566
Cu0_3 Zn0_2 2.597385 1_556
Cu0_4 Cu1_6 2.527921 1_555
Cu0_4 Cu1_0 2.527921 1_555
Cu0_4 Cu1_4 2.527924 1_555
Cu0_4 Cu0_6 2.583826 1_545
Cu0_4 Cu0_6 2.583826 1_555
Cu0_4 Zn0_7 2.597384 1_555
Cu0_4 Zn0_3 2.597385 1_655
Cu0_4 Zn0_5 2.597385 1_555
Cu0_5 Cu1_1 2.527921 1_555
Cu0_5 Cu1_7 2.527921 1_555
Cu0_5 Cu1_5 2.527924 1_555
Cu0_5 Cu0_7 2.583826 1_545
Cu0_5 Cu0_7 2.583826 1_555
Cu0_5 Zn0_6 2.597384 1_556
Cu0_5 Zn0_4 2.597385 1_556
Cu0_5 Zn0_2 2.597385 1_656
Cu0_6 Cu1_4 2.527921 1_565
Cu0_6 Cu1_2 2.527921 1_555
Cu0_6 Cu1_6 2.527924 1_555
Cu0_6 Zn0_5 2.597384 1_565
Cu0_6 Zn0_1 2.597385 1_665
Cu0_6 Zn0_7 2.597385 1_555
Cu0_7 Cu1_5 2.527921 1_565
Cu0_7 Cu1_3 2.527921 1_555
Cu0_7 Cu1_7 2.527924 1_555
Cu0_7 Zn0_4 2.597384 1_566
Cu0_7 Zn0_0 2.597385 1_666
Cu0_7 Zn0_6 2.597385 1_556
Cu1_0 Cu1_6 2.583826 1_445
Cu1_0 Cu1_6 2.583826 1_555
Cu1_0 Cu1_4 2.583826 1_555
Cu1_0 Cu1_4 2.583826 1_455
Cu1_0 Cu1_2 2.583826 1_555
Cu1_0 Cu1_2 2.583826 1_545
Cu1_0 Zn0_4 2.597384 1_555
Cu1_0 Zn0_6 2.597385 1_555
Cu1_0 Zn0_0 2.597385 1_555
Cu1_1 Cu1_7 2.583826 1_445
Cu1_1 Cu1_7 2.583826 1_555
Cu1_1 Cu1_5 2.583826 1_555
Cu1_1 Cu1_3 2.583826 1_555
Cu1_1 Cu1_5 2.583826 1_455
Cu1_1 Cu1_3 2.583826 1_545
Cu1_1 Zn0_5 2.597384 1_555
Cu1_1 Zn0_1 2.597385 1_555
Cu1_1 Zn0_7 2.597385 1_555
Cu1_2 Cu1_4 2.583826 1_565
Cu1_2 Cu1_4 2.583826 1_455
Cu1_2 Cu1_6 2.583826 1_455
Cu1_2 Cu1_6 2.583826 1_555
Cu1_2 Zn0_6 2.597384 1_555
Cu1_2 Zn0_4 2.597385 1_565
Cu1_2 Zn0_2 2.597385 1_555
Cu1_3 Cu1_5 2.583826 1_565
Cu1_3 Cu1_5 2.583826 1_455
Cu1_3 Cu1_7 2.583826 1_455
Cu1_3 Cu1_7 2.583826 1_555
Cu1_3 Zn0_7 2.597384 1_555
Cu1_3 Zn0_3 2.597385 1_555
Cu1_3 Zn0_5 2.597385 1_565
Cu1_4 Cu1_6 2.583826 1_555
Cu1_4 Cu1_6 2.583826 1_545
Cu1_4 Zn0_0 2.597384 1_655
Cu1_4 Zn0_2 2.597385 1_655
Cu1_4 Zn0_4 2.597385 1_555
Cu1_5 Cu1_7 2.583826 1_555
Cu1_5 Cu1_7 2.583826 1_545
Cu1_5 Zn0_1 2.597384 1_655
Cu1_5 Zn0_3 2.597385 1_655
Cu1_5 Zn0_5 2.597385 1_555
Cu1_6 Zn0_2 2.597384 1_655
Cu1_6 Zn0_0 2.597385 1_665
Cu1_6 Zn0_6 2.597385 1_555
Cu1_7 Zn0_3 2.597384 1_655
Cu1_7 Zn0_1 2.597385 1_665
Cu1_7 Zn0_7 2.597385 1_555
