# generated using pymatgen
data_LiNiO2
_symmetry_space_group_name_H-M   'P 1'
_cell_length_a   5.80170725
_cell_length_b   8.13533612
_cell_length_c   5.79488582
_cell_angle_alpha   89.69796465
_cell_angle_beta   90.72061512
_cell_angle_gamma   89.62395763
_symmetry_Int_Tables_number   1
_chemical_formula_structural   LiNiO2
_chemical_formula_sum   'Li8 Ni8 O16'
_cell_volume   273.48043675
_cell_formula_units_Z   8
loop_
 _symmetry_equiv_pos_site_id
 _symmetry_equiv_pos_as_xyz
  1  'x, y, z'
loop_
 _atom_site_type_symbol
 _atom_site_label
 _atom_site_symmetry_multiplicity
 _atom_site_fract_x
 _atom_site_fract_y
 _atom_site_fract_z
 _atom_site_occupancy
  Li  Li0  1  0.24931700  0.74937100  0.24655000  1
  Li  Li1  1  0.75146600  0.25026800  0.75255200  1
  Li  Li2  1  0.25282700  0.25012800  0.25114100  1
  Li  Li3  1  0.74548200  0.74971800  0.74932300  1
  Li  Li4  1  0.74950500  0.74769400  0.25245300  1
  Li  Li5  1  0.25191900  0.25264600  0.74841700  1
  Li  Li6  1  0.50260700  0.99996200  0.00236400  1
  Li  Li7  1  0.99679600  0.50089900  0.49656000  1
  Ni  Ni0  1  0.50213900  0.00061700  0.49850000  1
  Ni  Ni1  1  0.99910400  0.00002800  0.00172800  1
  Ni  Ni2  1  0.50143700  0.50073000  0.49842600  1
  Ni  Ni3  1  0.99835900  0.50092100  0.00141200  1
  Ni  Ni4  1  0.75278000  0.25141700  0.25372000  1
  Ni  Ni5  1  0.24609900  0.74901400  0.74560000  1
  Ni  Ni6  1  0.50079100  0.50104600  0.00092300  1
  Ni  Ni7  1  0.00025300  0.99697800  0.50000100  1
  O  O0  1  0.51579900  0.26121000  0.01622100  1
  O  O1  1  0.01324500  0.76448500  0.51330500  1
  O  O2  1  0.99065600  0.22996500  0.49072500  1
  O  O3  1  0.47854700  0.74121900  0.97860000  1
  O  O4  1  0.76819700  0.99340000  0.26868400  1
  O  O5  1  0.24097800  0.51661600  0.74397200  1
  O  O6  1  0.75622100  0.50626700  0.25325700  1
  O  O7  1  0.23656200  0.98506900  0.73532700  1
  O  O8  1  0.26531000  0.50034400  0.22971400  1
  O  O9  1  0.77310800  0.99926600  0.73416000  1
  O  O10  1  0.51710300  0.25611200  0.48784900  1
  O  O11  1  0.01704300  0.74744200  0.97752900  1
  O  O12  1  0.22817300  0.99855800  0.26660800  1
  O  O13  1  0.73422100  0.50046400  0.76993100  1
  O  O14  1  0.98783700  0.25348900  0.01650700  1
  O  O15  1  0.47611900  0.74466000  0.51793800  1
loop_
_geom_bond_atom_site_label_1
_geom_bond_atom_site_label_2
_geom_bond_distance
_geom_bond_site_symmetry_2
Li0 O8 2.030349 1_555
Li0 O12 2.034148 1_555
Li0 O15 2.037847 1_555
Li0 O11 2.047984 1_554
Li0 O3 2.058147 1_554
Li0 O1 2.081723 1_555
Li1 O10 2.037131 1_555
Li1 O13 2.040310 1_555
Li1 O14 2.041832 1_556
Li1 O9 2.048437 1_545
Li1 O0 2.065022 1_556
Li1 O2 2.075497 1_555
Li2 O14 2.039492 1_455
Li2 O8 2.040537 1_555
Li2 O10 2.045376 1_555
Li2 O12 2.054099 1_545
Li2 O0 2.059571 1_555
Li2 O2 2.078944 1_455
Li3 O13 2.032177 1_555
Li3 O9 2.039042 1_555
Li3 O11 2.044105 1_655
Li3 O15 2.047077 1_555
Li3 O3 2.054422 1_555
Li3 O1 2.086264 1_655
Li4 O6 1.964200 1_555
Li4 O4 2.005189 1_555
Li4 O1 2.142824 1_655
Li4 O3 2.220729 1_554
Li4 O15 2.223663 1_555
Li4 O11 2.238211 1_654
Li5 O2 2.123955 1_455
Li5 O5 2.148015 1_555
Li5 O0 2.167909 1_556
Li5 O10 2.169419 1_555
Li5 O7 2.180916 1_545
Li5 O14 2.195638 1_456
Li6 O3 2.115595 1_554
Li6 O0 2.129121 1_565
Li6 O4 2.167288 1_555
Li6 O7 2.176251 1_554
Li6 O9 2.222577 1_554
Li6 O12 2.222911 1_555
Li7 O6 1.971527 1_555
Li7 O5 2.008008 1_655
Li7 O1 2.149757 1_655
Li7 O2 2.205091 1_555
Li7 O8 2.208763 1_655
Li7 O13 2.211553 1_555
Ni0 O4 2.052082 1_545
Ni0 O12 2.068653 1_545
Ni0 O9 2.069325 1_545
Ni0 O7 2.080246 1_545
Ni0 O10 2.081542 1_555
Ni0 O15 2.091295 1_545
Ni1 O12 2.017602 1_645
Ni1 O9 2.018016 1_544
Ni1 O4 2.059836 1_545
Ni1 O11 2.062424 1_644
Ni1 O14 2.064860 1_555
Ni1 O7 2.085484 1_644
Ni2 O10 1.992829 1_555
Ni2 O15 1.992830 1_555
Ni2 O13 2.060547 1_555
Ni2 O8 2.061050 1_555
Ni2 O6 2.063623 1_555
Ni2 O5 2.092434 1_555
Ni3 O11 2.013297 1_654
Ni3 O14 2.015740 1_555
Ni3 O13 2.023910 1_554
Ni3 O8 2.024179 1_655
Ni3 O6 2.038803 1_555
Ni3 O5 2.067945 1_654
Ni4 O0 1.934073 1_555
Ni4 O10 1.938645 1_555
Ni4 O2 1.941135 1_555
Ni4 O14 1.948550 1_555
Ni4 O6 2.073505 1_555
Ni4 O4 2.101660 1_545
Ni5 O15 1.888601 1_555
Ni5 O5 1.891136 1_555
Ni5 O3 1.896831 1_555
Ni5 O1 1.898208 1_555
Ni5 O11 1.901970 1_555
Ni5 O7 1.921408 1_555
Ni6 O8 1.915695 1_555
Ni6 O13 1.916113 1_554
Ni6 O0 1.954013 1_555
Ni6 O3 1.960784 1_554
Ni6 O6 2.069556 1_555
Ni6 O5 2.108163 1_554
Ni7 O4 1.888327 1_455
Ni7 O1 1.893541 1_555
Ni7 O2 1.896339 1_465
Ni7 O12 1.903405 1_555
Ni7 O9 1.903467 1_455
Ni7 O7 1.923147 1_555
