# generated using pymatgen
data_PmTmAl2
_symmetry_space_group_name_H-M   'P 1'
_cell_length_a   5.10734584
_cell_length_b   5.10734584
_cell_length_c   5.10734584
_cell_angle_alpha   60.00000000
_cell_angle_beta   60.00000000
_cell_angle_gamma   60.00000000
_symmetry_Int_Tables_number   1
_chemical_formula_structural   PmTmAl2
_chemical_formula_sum   'Pm1 Tm1 Al2'
_cell_volume   94.20431662
_cell_formula_units_Z   1
loop_
 _symmetry_equiv_pos_site_id
 _symmetry_equiv_pos_as_xyz
  1  'x, y, z'
loop_
 _atom_site_type_symbol
 _atom_site_label
 _atom_site_symmetry_multiplicity
 _atom_site_fract_x
 _atom_site_fract_y
 _atom_site_fract_z
 _atom_site_occupancy
  Pm  Pm0  1  0.50000000  0.50000000  0.50000000  1
  Tm  Tm0  1  -0.00000000  0.00000000  -0.00000000  1
  Al  Al0  1  0.75000000  0.75000000  0.75000000  1
  Al  Al1  1  0.25000000  0.25000000  0.25000000  1
loop_
_geom_bond_atom_site_label_1
_geom_bond_atom_site_label_2
_geom_bond_distance
_geom_bond_site_symmetry_2
Al0 Tm0 3.127598 1_665
Al0 Pm0 3.127598 1_555
Al0 Pm0 3.127598 1_556
Al0 Tm0 3.127598 1_666
Al0 Pm0 3.127598 1_565
Al0 Tm0 3.127598 1_656
Al0 Pm0 3.127598 1_655
Al0 Tm0 3.127598 1_566
Al1 Tm0 3.127598 1_555
Al1 Pm0 3.127598 1_555
Al1 Pm0 3.127598 1_554
Al1 Tm0 3.127598 1_556
Al1 Pm0 3.127598 1_545
Al1 Tm0 3.127598 1_565
Al1 Tm0 3.127598 1_655
Al1 Pm0 3.127598 1_455
