# generated using pymatgen
data_Nd2C3
_symmetry_space_group_name_H-M   'P 1'
_cell_length_a   7.45501376
_cell_length_b   7.45501216
_cell_length_c   7.45501426
_cell_angle_alpha   109.47122067
_cell_angle_beta   109.47121635
_cell_angle_gamma   109.47122527
_symmetry_Int_Tables_number   1
_chemical_formula_structural   Nd2C3
_chemical_formula_sum   'Nd8 C12'
_cell_volume   318.95057634
_cell_formula_units_Z   4
loop_
 _symmetry_equiv_pos_site_id
 _symmetry_equiv_pos_as_xyz
  1  'x, y, z'
loop_
 _atom_site_type_symbol
 _atom_site_label
 _atom_site_symmetry_multiplicity
 _atom_site_fract_x
 _atom_site_fract_y
 _atom_site_fract_z
 _atom_site_occupancy
  Nd  Nd0  1  0.60294309  0.60294309  0.60294309  1
  Nd  Nd1  1  0.39705691  0.50000000  0.00000000  1
  Nd  Nd2  1  0.50000000  0.00000000  0.39705691  1
  Nd  Nd3  1  -0.00000000  0.39705691  0.50000000  1
  Nd  Nd4  1  0.50000000  0.00000000  0.89705691  1
  Nd  Nd5  1  -0.00000000  0.89705691  0.50000000  1
  Nd  Nd6  1  0.89705691  0.50000000  0.00000000  1
  Nd  Nd7  1  0.10294309  0.10294309  0.10294309  1
  C  C0  1  0.75000000  0.79817521  0.04817521  1
  C  C1  1  0.75000000  0.95182479  0.20182479  1
  C  C2  1  0.29817521  0.25000000  0.54817521  1
  C  C3  1  0.54817521  0.29817521  0.25000000  1
  C  C4  1  0.20182479  0.75000000  0.95182479  1
  C  C5  1  0.95182479  0.20182479  0.75000000  1
  C  C6  1  0.25000000  0.70182479  0.45182479  1
  C  C7  1  0.70182479  0.45182479  0.25000000  1
  C  C8  1  0.25000000  0.54817521  0.29817521  1
  C  C9  1  0.45182479  0.25000000  0.70182479  1
  C  C10  1  0.04817521  0.75000000  0.79817521  1
  C  C11  1  0.79817521  0.04817521  0.75000000  1
loop_
_geom_bond_atom_site_label_1
_geom_bond_atom_site_label_2
_geom_bond_distance
_geom_bond_site_symmetry_2
C0 C1 1.322663 1_555
C0 Nd7 2.632866 1_665
C0 Nd1 2.632866 1_555
C0 Nd6 2.761718 1_555
C0 Nd0 2.761719 1_554
C1 Nd5 2.632866 1_655
C1 Nd4 2.632866 1_564
C1 Nd3 2.761718 1_665
C1 Nd2 2.761719 1_565
C2 C9 1.322663 1_555
C2 Nd5 2.632865 1_545
C2 Nd0 2.632865 1_555
C2 Nd3 2.761719 1_555
C2 Nd7 2.761719 1_555
C3 C7 1.322663 1_555
C3 Nd0 2.632866 1_555
C3 Nd4 2.632866 1_554
C3 Nd2 2.761718 1_555
C3 Nd7 2.761719 1_555
C4 Nd4 2.632866 1_565
C4 Nd6 2.632866 1_456
C4 Nd1 2.761718 1_556
C4 Nd2 2.761719 1_566
C5 Nd5 2.632866 1_645
C5 Nd6 2.632866 1_556
C5 Nd3 2.761719 1_655
C5 Nd1 2.761719 1_656
C6 C8 1.322663 1_555
C6 Nd3 2.632866 1_555
C6 Nd2 2.632866 1_565
C6 Nd5 2.761719 1_555
C6 Nd4 2.761719 1_565
C7 Nd3 2.632866 1_655
C7 Nd1 2.632866 1_555
C7 Nd5 2.761718 1_655
C7 Nd6 2.761719 1_555
C8 Nd6 2.632866 1_455
C8 Nd0 2.632866 1_555
C8 Nd7 2.761718 1_555
C8 Nd1 2.761719 1_555
C9 Nd1 2.632866 1_556
C9 Nd2 2.632866 1_555
C9 Nd4 2.761718 1_555
C9 Nd6 2.761719 1_556
C10 C4 1.322663 1_555
C10 Nd3 2.632866 1_555
C10 Nd7 2.632866 1_566
C10 Nd5 2.761719 1_555
C10 Nd0 2.761719 1_455
C11 C5 1.322663 1_555
C11 Nd2 2.632866 1_555
C11 Nd7 2.632866 1_656
C11 Nd0 2.761718 1_545
C11 Nd4 2.761719 1_555
