# generated using pymatgen
data_Tb11In9Pd4
_symmetry_space_group_name_H-M   'P 1'
_cell_length_a   13.20358651
_cell_length_b   13.20358651
_cell_length_c   3.67972898
_cell_angle_alpha   90.00000000
_cell_angle_beta   90.00000000
_cell_angle_gamma   112.81728409
_symmetry_Int_Tables_number   1
_chemical_formula_structural   Tb11In9Pd4
_chemical_formula_sum   'Tb11 In9 Pd4'
_cell_volume   591.30428281
_cell_formula_units_Z   1
loop_
 _symmetry_equiv_pos_site_id
 _symmetry_equiv_pos_as_xyz
  1  'x, y, z'
loop_
 _atom_site_type_symbol
 _atom_site_label
 _atom_site_symmetry_multiplicity
 _atom_site_fract_x
 _atom_site_fract_y
 _atom_site_fract_z
 _atom_site_occupancy
  Tb  Tb0  1  0.41372957  0.07199939  -0.00000000  1
  Tb  Tb1  1  0.58627043  0.92800061  -0.00000000  1
  Tb  Tb2  1  0.07199939  0.41372957  -0.00000000  1
  Tb  Tb3  1  0.92800061  0.58627043  -0.00000000  1
  Tb  Tb4  1  0.16025472  0.83974528  -0.00000000  1
  Tb  Tb5  1  0.83974528  0.16025472  -0.00000000  1
  Tb  Tb6  1  0.37248691  0.62751309  -0.00000000  1
  Tb  Tb7  1  0.62751309  0.37248691  -0.00000000  1
  Tb  Tb8  1  0.30851949  0.30851949  -0.00000000  1
  Tb  Tb9  1  0.69148051  0.69148051  -0.00000000  1
  Tb  Tb10  1  -0.00000000  0.00000000  -0.00000000  1
  In  In0  1  0.36700018  0.84189471  0.50000000  1
  In  In1  1  0.63299982  0.15810529  0.50000000  1
  In  In2  1  0.84189471  0.36700018  0.50000000  1
  In  In3  1  0.15810529  0.63299982  0.50000000  1
  In  In4  1  0.21645030  0.07384999  0.50000000  1
  In  In5  1  0.78354970  0.92615001  0.50000000  1
  In  In6  1  0.07384999  0.21645030  0.50000000  1
  In  In7  1  0.92615001  0.78354970  0.50000000  1
  In  In8  1  0.50000000  0.50000000  0.50000000  1
  Pd  Pd0  1  0.44867543  0.24577867  0.50000000  1
  Pd  Pd1  1  0.55132457  0.75422133  0.50000000  1
  Pd  Pd2  1  0.24577867  0.44867543  0.50000000  1
  Pd  Pd3  1  0.75422133  0.55132457  0.50000000  1
loop_
_geom_bond_atom_site_label_1
_geom_bond_atom_site_label_2
_geom_bond_distance
_geom_bond_site_symmetry_2
In0 In3 3.051994 1_555
In0 Pd1 3.073795 1_555
In0 Tb1 3.241406 1_555
In0 Tb1 3.241406 1_556
In0 Tb4 3.282915 1_555
In0 Tb4 3.282915 1_556
In0 Tb0 3.397440 1_565
In0 Tb0 3.397440 1_566
In0 Tb6 3.400254 1_556
In0 Tb6 3.400254 1_555
In1 In2 3.051994 1_555
In1 Pd0 3.073795 1_555
In1 Tb0 3.241406 1_555
In1 Tb0 3.241406 1_556
In1 Tb5 3.282915 1_555
In1 Tb5 3.282915 1_556
In1 Tb1 3.397440 1_546
In1 Tb1 3.397440 1_545
In1 Tb7 3.400254 1_556
In1 Tb7 3.400254 1_555
In2 Pd3 3.073795 1_555
In2 Tb3 3.241406 1_555
In2 Tb3 3.241406 1_556
In2 Tb5 3.282915 1_555
In2 Tb5 3.282915 1_556
In2 Tb2 3.397440 1_655
In2 Tb2 3.397440 1_656
In2 Tb7 3.400254 1_556
In2 Tb7 3.400254 1_555
In3 Pd2 3.073795 1_555
In3 Tb2 3.241406 1_555
In3 Tb2 3.241406 1_556
In3 Tb4 3.282915 1_555
In3 Tb4 3.282915 1_556
In3 Tb3 3.397440 1_455
In3 Tb3 3.397440 1_456
In3 Tb6 3.400254 1_555
In3 Tb6 3.400254 1_556
In4 Pd0 3.025949 1_555
In4 In6 3.136822 1_555
In4 Tb0 3.196876 1_555
In4 Tb0 3.196876 1_556
In4 Tb10 3.215938 1_556
In4 Tb10 3.215938 1_555
In4 Tb8 3.397367 1_556
In4 Tb8 3.397367 1_555
In4 Tb4 3.422171 1_545
In4 Tb4 3.422171 1_546
In5 Pd1 3.025949 1_555
In5 In7 3.136822 1_555
In5 Tb1 3.196876 1_555
In5 Tb1 3.196876 1_556
In5 Tb10 3.215938 1_666
In5 Tb10 3.215938 1_665
In5 Tb9 3.397367 1_555
In5 Tb9 3.397367 1_556
In5 Tb5 3.422171 1_565
In5 Tb5 3.422171 1_566
In6 Pd2 3.025949 1_555
In6 Tb2 3.196876 1_555
In6 Tb2 3.196876 1_556
In6 Tb10 3.215938 1_556
In6 Tb10 3.215938 1_555
In6 Tb8 3.397367 1_556
In6 Tb8 3.397367 1_555
In6 Tb5 3.422171 1_455
In6 Tb5 3.422171 1_456
In7 Pd3 3.025949 1_555
In7 Tb3 3.196876 1_556
In7 Tb3 3.196876 1_555
In7 Tb10 3.215938 1_665
In7 Tb10 3.215938 1_666
In7 Tb9 3.397367 1_555
In7 Tb9 3.397367 1_556
In7 Tb4 3.422171 1_655
In7 Tb4 3.422171 1_656
In8 Pd3 3.156264 1_555
In8 Pd0 3.156264 1_555
In8 Pd1 3.156264 1_555
In8 Pd2 3.156264 1_555
In8 Tb9 3.348355 1_555
In8 Tb9 3.348355 1_556
In8 Tb8 3.348355 1_556
In8 Tb8 3.348355 1_555
In8 Tb6 3.354521 1_555
In8 Tb7 3.354521 1_556
In8 Tb7 3.354521 1_555
In8 Tb6 3.354521 1_556
Pd0 Tb0 2.835781 1_555
Pd0 Tb0 2.835781 1_556
Pd0 Tb8 2.947018 1_555
Pd0 Tb8 2.947018 1_556
Pd0 Tb7 2.948872 1_556
Pd0 Tb7 2.948872 1_555
Pd1 Tb1 2.835781 1_555
Pd1 Tb1 2.835781 1_556
Pd1 Tb9 2.947018 1_555
Pd1 Tb9 2.947018 1_556
Pd1 Tb6 2.948872 1_555
Pd1 Tb6 2.948872 1_556
Pd2 Tb2 2.835781 1_555
Pd2 Tb2 2.835781 1_556
Pd2 Tb8 2.947018 1_556
Pd2 Tb8 2.947018 1_555
Pd2 Tb6 2.948872 1_556
Pd2 Tb6 2.948872 1_555
Pd3 Tb3 2.835781 1_556
Pd3 Tb3 2.835781 1_555
Pd3 Tb9 2.947018 1_555
Pd3 Tb9 2.947018 1_556
Pd3 Tb7 2.948872 1_556
Pd3 Tb7 2.948872 1_555
