# generated using pymatgen
data_Li7Mn4CoO12
_symmetry_space_group_name_H-M   'P 1'
_cell_length_a   5.23829700
_cell_length_b   5.99304625
_cell_length_c   7.77947562
_cell_angle_alpha   75.78302653
_cell_angle_beta   74.71000212
_cell_angle_gamma   69.50240913
_symmetry_Int_Tables_number   1
_chemical_formula_structural   Li7Mn4CoO12
_chemical_formula_sum   'Li7 Mn4 Co1 O12'
_cell_volume   217.46654783
_cell_formula_units_Z   1
loop_
 _symmetry_equiv_pos_site_id
 _symmetry_equiv_pos_as_xyz
  1  'x, y, z'
loop_
 _atom_site_type_symbol
 _atom_site_label
 _atom_site_symmetry_multiplicity
 _atom_site_fract_x
 _atom_site_fract_y
 _atom_site_fract_z
 _atom_site_occupancy
  Li  Li0  1  0.49742800  0.17148400  0.84094300  1
  Li  Li1  1  0.48889300  0.99269800  0.49745100  1
  Li  Li2  1  0.50665200  0.82157500  0.16093100  1
  Li  Li3  1  0.50041600  0.66141500  0.83743100  1
  Li  Li4  1  0.49489300  0.50478500  0.49551500  1
  Li  Li5  1  0.51550700  0.34748300  0.16647400  1
  Li  Li6  1  0.99597600  0.49869400  0.00146600  1
  Mn  Mn0  1  0.00081000  0.99998700  0.99770200  1
  Mn  Mn1  1  0.99850200  0.16837100  0.33007800  1
  Mn  Mn2  1  0.99446300  0.66118100  0.32904600  1
  Mn  Mn3  1  0.00376800  0.34148700  0.66987800  1
  Co  Co0  1  0.00354600  0.83468300  0.67146800  1
  O  O0  1  0.76851600  0.31976700  0.90569300  1
  O  O1  1  0.79967300  0.16754100  0.58976700  1
  O  O2  1  0.75875200  0.98156300  0.23622200  1
  O  O3  1  0.79256800  0.84966300  0.90732400  1
  O  O4  1  0.76269000  0.64991800  0.57864800  1
  O  O5  1  0.75732100  0.47949900  0.25420500  1
  O  O6  1  0.24221000  0.02326400  0.76127700  1
  O  O7  1  0.22278500  0.84787800  0.43104400  1
  O  O8  1  0.23275600  0.68096400  0.08697600  1
  O  O9  1  0.21222900  0.50509900  0.73769000  1
  O  O10  1  0.23645400  0.34728300  0.42722100  1
  O  O11  1  0.21319500  0.14371800  0.08555400  1
loop_
_geom_bond_atom_site_label_1
_geom_bond_atom_site_label_2
_geom_bond_distance
_geom_bond_site_symmetry_2
Li0 O3 2.054340 1_545
Li0 O11 2.095084 1_556
Li0 O6 2.121221 1_555
Li0 O0 2.130937 1_555
Li0 O9 2.150994 1_555
Li0 O1 2.165700 1_555
Li1 O10 2.098976 1_565
Li1 O7 2.100141 1_555
Li1 O4 2.110251 1_555
Li1 O6 2.129771 1_565
Li1 O2 2.148974 1_555
Li1 O1 2.538682 1_565
Li2 O11 2.067624 1_565
Li2 O5 2.083293 1_555
Li2 O2 2.139363 1_555
Li2 O3 2.149171 1_554
Li2 O8 2.149387 1_555
Li2 O7 2.236550 1_555
Li3 O0 2.071728 1_555
Li3 O8 2.075919 1_556
Li3 O4 2.118565 1_555
Li3 O6 2.149539 1_565
Li3 O9 2.392458 1_555
Li3 O3 2.420707 1_555
Li4 O5 2.017329 1_555
Li4 O9 2.066490 1_555
Li4 O7 2.080635 1_555
Li4 O10 2.127573 1_555
Li4 O4 2.179894 1_555
Li4 O1 2.191143 1_555
Li5 O5 2.029614 1_555
Li5 O8 2.091270 1_555
Li5 O0 2.119707 1_554
Li5 O2 2.133157 1_545
Li5 O10 2.165098 1_555
Li5 O11 2.579353 1_555
Li6 O5 2.033517 1_555
Li6 O3 2.044800 1_554
Li6 O9 2.064302 1_654
Li6 O11 2.064498 1_655
Li6 O0 2.209095 1_554
Li6 O8 2.217005 1_655
Mn0 O6 1.942225 1_565
Mn0 O8 1.944210 1_556
Mn0 O11 1.951448 1_566
Mn0 O0 1.954022 1_465
Mn0 O2 1.954373 1_456
Mn0 O3 1.974777 1_455
Mn1 O5 1.903730 1_555
Mn1 O11 1.949003 1_655
Mn1 O7 1.962585 1_645
Mn1 O1 2.013737 1_555
Mn1 O10 2.259485 1_655
Mn1 O2 2.287701 1_545
Mn2 O2 1.965079 1_555
Mn2 O10 1.965689 1_655
Mn2 O8 1.967930 1_655
Mn2 O4 1.999678 1_555
Mn2 O5 2.169730 1_555
Mn2 O7 2.277235 1_655
Mn3 O0 1.924509 1_455
Mn3 O4 1.925808 1_455
Mn3 O9 1.933892 1_555
Mn3 O10 1.958152 1_555
Mn3 O6 1.958791 1_555
Mn3 O1 2.017226 1_455
Co0 O3 1.880962 1_455
Co0 O9 1.909676 1_555
Co0 O7 1.918732 1_555
Co0 O1 1.940898 1_465
Co0 O6 2.272987 1_565
Co0 O4 2.278379 1_455
