# generated using pymatgen
data_Pr(Mg4Al3)4
_symmetry_space_group_name_H-M   'P 1'
_cell_length_a   8.90440620
_cell_length_b   9.30492923
_cell_length_c   9.30492912
_cell_angle_alpha   110.32669822
_cell_angle_beta   108.60156677
_cell_angle_gamma   108.60157195
_symmetry_Int_Tables_number   1
_chemical_formula_structural   Pr(Mg4Al3)4
_chemical_formula_sum   'Pr1 Mg16 Al12'
_cell_volume   599.73331602
_cell_formula_units_Z   1
loop_
 _symmetry_equiv_pos_site_id
 _symmetry_equiv_pos_as_xyz
  1  'x, y, z'
loop_
 _atom_site_type_symbol
 _atom_site_label
 _atom_site_symmetry_multiplicity
 _atom_site_fract_x
 _atom_site_fract_y
 _atom_site_fract_z
 _atom_site_occupancy
  Pr  Pr0  1  0.37663200  0.00000000  0.99999900  1
  Mg  Mg0  1  0.99425000  0.00000000  0.00000000  1
  Mg  Mg1  1  0.99464000  0.34049000  0.00000000  1
  Mg  Mg2  1  0.31521600  0.59961400  0.00000000  1
  Mg  Mg3  1  0.61429900  0.33209100  0.00000100  1
  Mg  Mg4  1  0.68839100  0.68691400  0.29400000  1
  Mg  Mg5  1  0.00147800  0.60708700  0.31308700  1
  Mg  Mg6  1  0.61429900  0.00000000  0.33209100  1
  Mg  Mg7  1  0.99464000  0.99999900  0.34049100  1
  Mg  Mg8  1  0.39439100  0.70600100  0.39291400  1
  Mg  Mg9  1  0.71560300  0.40038800  0.40038700  1
  Mg  Mg10  1  0.31521600  0.00000000  0.59961400  1
  Mg  Mg11  1  0.00147800  0.31308700  0.60708800  1
  Mg  Mg12  1  0.65415000  0.65950900  0.65950800  1
  Mg  Mg13  1  0.28220800  0.66791000  0.66790900  1
  Mg  Mg14  1  0.68839100  0.29400000  0.68691300  1
  Mg  Mg15  1  0.39439100  0.39291300  0.70600100  1
  Al  Al0  1  0.81057700  0.63729500  0.00000000  1
  Al  Al1  1  0.63159100  0.81861300  0.00000000  1
  Al  Al2  1  0.36244600  0.36300800  0.17946200  1
  Al  Al3  1  0.81297700  0.18138700  0.18138700  1
  Al  Al4  1  0.18298200  0.82053700  0.18354500  1
  Al  Al5  1  0.17328200  0.36270600  0.36270600  1
  Al  Al6  1  0.36244600  0.17946300  0.36300900  1
  Al  Al7  1  0.99943800  0.81645600  0.63699300  1
  Al  Al8  1  0.81057700  0.00000100  0.63729400  1
  Al  Al9  1  0.99943700  0.63699300  0.81645600  1
  Al  Al10  1  0.63159200  0.00000000  0.81861200  1
  Al  Al11  1  0.18298200  0.18354500  0.82053700  1
loop_
_geom_bond_atom_site_label_1
_geom_bond_atom_site_label_2
_geom_bond_distance
_geom_bond_site_symmetry_2
Mg0 Mg1 3.167129 1_555
Mg0 Mg12 3.167139 1_544
Mg0 Mg7 3.167142 1_545
Mg0 Pr0 3.404888 1_654
Mg1 Mg5 3.068246 1_655
Mg1 Mg14 3.068246 1_554
Mg1 Mg2 3.093704 1_655
Mg1 Mg3 3.362600 1_555
Mg2 Mg4 3.181203 1_555
Mg2 Mg8 3.199928 1_555
Mg2 Mg6 3.307995 1_565
Mg2 Pr0 3.588748 1_564
Mg3 Mg5 3.115431 1_655
Mg3 Pr0 3.139300 1_554
Mg3 Mg4 3.162842 1_555
Mg3 Mg9 3.307989 1_555
Mg4 Mg7 3.068230 1_555
Mg4 Mg8 3.074454 1_555
Mg4 Mg5 3.074454 1_655
Mg4 Mg6 3.115425 1_565
Mg4 Mg9 3.199919 1_555
Mg5 Mg8 3.074445 1_555
Mg5 Mg9 3.181198 1_455
Mg6 Pr0 3.139317 1_554
Mg6 Mg8 3.162839 1_545
Mg6 Mg9 3.308010 1_555
Mg6 Mg7 3.362598 1_545
Mg9 Pr0 3.588761 1_554
Mg10 Mg7 3.093694 1_445
Mg10 Mg8 3.181196 1_545
Mg10 Mg14 3.181206 1_555
Mg10 Mg15 3.199919 1_555
Mg10 Mg5 3.199920 1_545
Mg10 Mg13 3.307987 1_545
Mg10 Mg3 3.308001 1_556
Mg10 Pr0 3.588735 1_555
Mg11 Mg7 3.068252 1_445
Mg11 Mg14 3.074443 1_455
Mg11 Mg15 3.074449 1_555
Mg11 Mg6 3.115435 1_455
Mg11 Mg13 3.162851 1_555
Mg11 Mg9 3.181213 1_455
Mg11 Mg2 3.199915 1_556
Mg12 Mg8 3.068242 1_555
Mg12 Mg15 3.068259 1_555
Mg12 Mg9 3.093678 1_555
Mg12 Mg13 3.362610 1_555
Mg13 Mg8 3.115425 1_555
Mg13 Mg15 3.115445 1_555
Mg13 Pr0 3.139299 1_565
Mg13 Mg5 3.162836 1_555
Mg13 Mg2 3.308001 1_556
Mg14 Mg15 3.074451 1_555
Mg14 Mg3 3.115442 1_556
Mg14 Mg6 3.162840 1_555
Mg14 Mg9 3.199925 1_555
Mg15 Mg3 3.162840 1_556
Mg15 Mg2 3.181199 1_556
Al0 Al1 2.664961 1_555
Al0 Al9 2.752611 1_554
Al0 Al4 2.752618 1_655
Al0 Mg3 2.820134 1_555
Al0 Mg14 3.028199 1_554
Al0 Mg5 3.028199 1_655
Al0 Mg7 3.137497 1_555
Al0 Mg12 3.137510 1_554
Al0 Mg15 3.197260 1_554
Al0 Mg4 3.197262 1_555
Al0 Mg0 3.247105 1_565
Al1 Al3 2.770627 1_565
Al1 Al10 2.770635 1_564
Al1 Mg2 2.902819 1_555
Al1 Mg6 3.044161 1_565
Al1 Mg13 3.044163 1_554
Al1 Mg7 3.099504 1_555
Al1 Mg12 3.099515 1_554
Al1 Mg0 3.130437 1_565
Al1 Pr0 3.232220 1_564
Al1 Mg4 3.329126 1_555
Al1 Mg15 3.329131 1_554
Al2 Al5 2.752640 1_555
Al2 Al6 2.803605 1_555
Al2 Mg4 2.976169 1_555
Al2 Mg8 2.977929 1_555
Al2 Mg9 2.986140 1_555
Al2 Mg1 3.064099 1_455
Al2 Mg3 3.219851 1_555
Al2 Mg0 3.235785 1_455
Al2 Mg2 3.241798 1_555
Al2 Pr0 3.271368 1_554
Al3 Al5 2.664968 1_655
Al3 Mg9 2.902822 1_555
Al3 Mg3 3.044152 1_555
Al3 Mg6 3.044156 1_555
Al3 Mg1 3.099503 1_555
Al3 Mg7 3.099516 1_545
Al3 Mg0 3.130445 1_555
Al3 Pr0 3.232212 1_554
Al3 Mg5 3.329133 1_655
Al3 Mg11 3.329141 1_655
Al4 Al6 2.741239 1_565
Al4 Al9 2.803582 1_454
Al4 Mg8 2.976170 1_555
Al4 Mg5 2.977913 1_555
Al4 Mg2 2.986142 1_555
Al4 Mg7 3.064092 1_455
Al4 Mg6 3.219872 1_565
Al4 Mg0 3.235779 1_465
Al4 Mg10 3.241803 1_565
Al4 Pr0 3.271381 1_564
Al5 Al6 2.752633 1_555
Al5 Mg13 2.820123 1_555
Al5 Mg8 3.028199 1_555
Al5 Mg15 3.028204 1_555
Al5 Mg1 3.137502 1_455
Al5 Mg7 3.137515 1_445
Al5 Mg5 3.197256 1_555
Al5 Mg11 3.197264 1_555
Al5 Mg0 3.247114 1_455
Al6 Mg14 2.976161 1_555
Al6 Mg15 2.977917 1_555
Al6 Mg9 2.986148 1_555
Al6 Mg7 3.064102 1_445
Al6 Mg6 3.219866 1_555
Al6 Mg0 3.235789 1_455
Al6 Mg10 3.241796 1_555
Al6 Pr0 3.271384 1_554
Al7 Al9 2.741239 1_555
Al7 Al8 2.752626 1_565
Al7 Mg5 2.976177 1_655
Al7 Mg4 2.977923 1_555
Al7 Mg10 2.986138 1_665
Al7 Mg12 3.064088 1_555
Al7 Mg13 3.219865 1_655
Al7 Mg0 3.235774 1_566
Al7 Mg9 3.241796 1_555
Al7 Pr0 3.271360 1_665
Al8 Mg6 2.820116 1_555
Al8 Mg11 3.028180 1_655
Al8 Mg4 3.028194 1_545
Al8 Mg1 3.137499 1_556
Al8 Mg12 3.137510 1_545
Al8 Mg14 3.197253 1_555
Al8 Mg8 3.197261 1_545
Al8 Mg0 3.247118 1_556
Al9 Mg11 2.976179 1_655
Al9 Mg14 2.977916 1_555
Al9 Mg2 2.986145 1_656
Al9 Mg12 3.064087 1_555
Al9 Mg13 3.219879 1_655
Al9 Mg0 3.235769 1_566
Al9 Mg9 3.241801 1_555
Al9 Pr0 3.271371 1_665
Al10 Al8 2.664954 1_555
Al10 Al3 2.770635 1_556
Al10 Mg10 2.902823 1_555
Al10 Mg13 3.044163 1_545
Al10 Mg3 3.044170 1_556
Al10 Mg1 3.099492 1_556
Al10 Mg12 3.099502 1_545
Al10 Mg0 3.130432 1_556
Al10 Pr0 3.232228 1_555
Al10 Mg8 3.329118 1_545
Al10 Mg14 3.329126 1_555
Al11 Al2 2.741231 1_556
Al11 Al8 2.752618 1_455
Al11 Al7 2.803582 1_445
Al11 Mg15 2.976164 1_555
Al11 Mg11 2.977907 1_555
Al11 Mg10 2.986142 1_555
Al11 Mg1 3.064092 1_456
Al11 Mg3 3.219872 1_556
Al11 Mg0 3.235779 1_456
Al11 Mg2 3.241803 1_556
Al11 Pr0 3.271368 1_555
