# generated using pymatgen
data_Rb2MoS4
_symmetry_space_group_name_H-M   'P 1'
_cell_length_a   7.06149462
_cell_length_b   9.76420902
_cell_length_c   12.53190343
_cell_angle_alpha   90.00000000
_cell_angle_beta   90.00000000
_cell_angle_gamma   90.00000000
_symmetry_Int_Tables_number   1
_chemical_formula_structural   Rb2MoS4
_chemical_formula_sum   'Rb8 Mo4 S16'
_cell_volume   864.07360690
_cell_formula_units_Z   4
loop_
 _symmetry_equiv_pos_site_id
 _symmetry_equiv_pos_as_xyz
  1  'x, y, z'
loop_
 _atom_site_type_symbol
 _atom_site_label
 _atom_site_symmetry_multiplicity
 _atom_site_fract_x
 _atom_site_fract_y
 _atom_site_fract_z
 _atom_site_occupancy
  Rb  Rb0  1  0.75000000  0.46177733  0.33201195  1
  Rb  Rb1  1  0.25000000  0.34565094  0.10516604  1
  Rb  Rb2  1  0.75000000  0.65434906  0.89483396  1
  Rb  Rb3  1  0.25000000  0.84565094  0.39483396  1
  Rb  Rb4  1  0.25000000  0.03822267  0.83201195  1
  Rb  Rb5  1  0.75000000  0.96177733  0.16798805  1
  Rb  Rb6  1  0.75000000  0.15434906  0.60516604  1
  Rb  Rb7  1  0.25000000  0.53822267  0.66798805  1
  Mo  Mo0  1  0.75000000  0.74564997  0.57337864  1
  Mo  Mo1  1  0.25000000  0.25435003  0.42662136  1
  Mo  Mo2  1  0.75000000  0.24564997  0.92662136  1
  Mo  Mo3  1  0.25000000  0.75435003  0.07337864  1
  S  S0  1  0.50031614  0.16062992  0.35555969  1
  S  S1  1  0.99968386  0.16062992  0.35555969  1
  S  S2  1  0.49968386  0.83937008  0.64444031  1
  S  S3  1  0.50031614  0.66062992  0.14444031  1
  S  S4  1  0.25000000  0.97546649  0.10533013  1
  S  S5  1  0.75000000  0.02453351  0.89466987  1
  S  S6  1  0.25000000  0.47546649  0.39466987  1
  S  S7  1  0.75000000  0.52453351  0.60533013  1
  S  S8  1  0.25000000  0.71319329  0.90184961  1
  S  S9  1  0.75000000  0.28680671  0.09815039  1
  S  S10  1  0.25000000  0.21319329  0.59815039  1
  S  S11  1  0.00031614  0.83937008  0.64444031  1
  S  S12  1  0.99968386  0.66062992  0.14444031  1
  S  S13  1  0.49968386  0.33937008  0.85555969  1
  S  S14  1  0.75000000  0.78680671  0.40184961  1
  S  S15  1  0.00031614  0.33937008  0.85555969  1
loop_
_geom_bond_atom_site_label_1
_geom_bond_atom_site_label_2
_geom_bond_distance
_geom_bond_site_symmetry_2
Rb0 S14 3.292121 1_555
Rb0 S9 3.392342 1_555
Rb0 S1 3.441234 1_555
Rb0 S0 3.441234 1_555
Rb0 S7 3.479577 1_555
Rb0 S12 3.521943 1_555
Rb0 S3 3.521943 1_555
Rb0 S6 3.619478 1_655
Rb0 S6 3.619478 1_555
Rb1 S9 3.578272 1_455
Rb1 S9 3.578272 1_555
Rb1 S3 3.581271 1_555
Rb1 S12 3.581271 1_455
Rb1 S13 3.591250 1_554
Rb1 S15 3.591250 1_554
Rb1 S4 3.614559 1_545
Rb1 S6 3.843085 1_555
Rb2 S8 3.578272 1_655
Rb2 S8 3.578272 1_555
Rb2 S13 3.581271 1_555
Rb2 S15 3.581271 1_655
Rb2 S3 3.591250 1_556
Rb2 S12 3.591250 1_556
Rb2 S5 3.614559 1_565
Rb2 S7 3.843085 1_555
Rb3 S14 3.578272 1_555
Rb3 S14 3.578272 1_455
Rb3 S0 3.581271 1_565
Rb3 S1 3.581271 1_465
Rb3 S2 3.591250 1_555
Rb3 S11 3.591250 1_555
Rb3 S6 3.614559 1_555
Rb3 S4 3.843085 1_555
Rb4 S8 3.292121 1_545
Rb4 S10 3.392342 1_555
Rb4 S13 3.441234 1_555
Rb4 S15 3.441234 1_555
Rb4 S4 3.479577 1_546
Rb4 S11 3.521943 1_545
Rb4 S2 3.521943 1_545
Rb4 S5 3.619478 1_455
Rb4 S5 3.619478 1_555
Rb5 S9 3.292121 1_565
Rb5 S14 3.392342 1_555
Rb5 S12 3.441234 1_555
Rb5 S3 3.441234 1_555
Rb5 S5 3.479577 1_564
Rb5 S0 3.521943 1_565
Rb5 S1 3.521943 1_565
Rb5 S4 3.619478 1_555
Rb5 S4 3.619478 1_655
Rb6 S10 3.578272 1_555
Rb6 S10 3.578272 1_655
Rb6 S2 3.581271 1_545
Rb6 S11 3.581271 1_645
Rb6 S0 3.591250 1_555
Rb6 S1 3.591250 1_555
Rb6 S7 3.614559 1_555
Rb6 S5 3.843085 1_555
Rb7 S10 3.292121 1_555
Rb7 S8 3.392342 1_555
Rb7 S2 3.441234 1_555
Rb7 S11 3.441234 1_555
Rb7 S6 3.479577 1_555
Rb7 S13 3.521943 1_555
Rb7 S15 3.521943 1_555
Rb7 S7 3.619478 1_455
Rb7 S7 3.619478 1_555
Mo0 S11 2.180574 1_655
Mo0 S2 2.180574 1_555
Mo0 S14 2.186827 1_555
Mo0 S7 2.195844 1_555
Mo1 S1 2.180574 1_455
Mo1 S0 2.180574 1_555
Mo1 S10 2.186827 1_555
Mo1 S6 2.195844 1_555
Mo2 S13 2.180574 1_555
Mo2 S15 2.180574 1_655
Mo2 S9 2.186827 1_556
Mo2 S5 2.195844 1_555
Mo3 S3 2.180574 1_555
Mo3 S12 2.180574 1_455
Mo3 S8 2.186827 1_554
Mo3 S4 2.195844 1_555
