# generated using pymatgen
data_Y6Al2SiS14
_symmetry_space_group_name_H-M   'P 1'
_cell_length_a   9.71160506
_cell_length_b   9.71160506
_cell_length_c   5.96973600
_cell_angle_alpha   90.00000000
_cell_angle_beta   90.00000000
_cell_angle_gamma   120.00000722
_symmetry_Int_Tables_number   1
_chemical_formula_structural   Y6Al2SiS14
_chemical_formula_sum   'Y6 Al2 Si1 S14'
_cell_volume   487.60455199
_cell_formula_units_Z   1
loop_
 _symmetry_equiv_pos_site_id
 _symmetry_equiv_pos_as_xyz
  1  'x, y, z'
loop_
 _atom_site_type_symbol
 _atom_site_label
 _atom_site_symmetry_multiplicity
 _atom_site_fract_x
 _atom_site_fract_y
 _atom_site_fract_z
 _atom_site_occupancy
  Y  Y0  1  0.81067200  0.70112100  0.51562000  1
  Y  Y1  1  0.89044900  0.18932800  0.51562000  1
  Y  Y2  1  0.29887900  0.10955100  0.51562000  1
  Y  Y3  1  0.51591200  0.96447800  0.02827000  1
  Y  Y4  1  0.44856600  0.48408800  0.02827000  1
  Y  Y5  1  0.03552200  0.55143400  0.02827000  1
  Al  Al0  1  0.66666700  0.33333300  0.33930100  1
  Al  Al1  1  0.33333300  0.66666700  0.44211500  1
  Si  Si0  1  0.00000000  0.00000000  0.93850300  1
  S  S0  1  0.00000000  0.00000000  0.29690300  1
  S  S1  1  0.33333300  0.66666700  0.81603700  1
  S  S2  1  0.08873300  0.85799700  0.79402900  1
  S  S3  1  0.76926400  0.91126700  0.79402900  1
  S  S4  1  0.14200300  0.23073600  0.79402900  1
  S  S5  1  0.23622400  0.81249500  0.28710900  1
  S  S6  1  0.57627000  0.76377600  0.28710900  1
  S  S7  1  0.18750500  0.42373000  0.28710900  1
  S  S8  1  0.91044500  0.47908200  0.57153800  1
  S  S9  1  0.56863800  0.08955500  0.57153800  1
  S  S10  1  0.52091800  0.43136200  0.57153800  1
  S  S11  1  0.43142500  0.19818200  0.10648600  1
  S  S12  1  0.76675700  0.56857500  0.10648600  1
  S  S13  1  0.80181800  0.23324300  0.10648600  1
loop_
_geom_bond_atom_site_label_1
_geom_bond_atom_site_label_2
_geom_bond_distance
_geom_bond_site_symmetry_2
Al0 S13 2.423858 1_555
Al0 S11 2.423865 1_555
Al0 S12 2.423865 1_555
Al0 S8 2.485857 1_555
Al0 S9 2.485857 1_555
Al0 S10 2.485857 1_555
Al1 S1 2.232216 1_555
Al1 S7 2.255433 1_555
Al1 S6 2.255433 1_555
Al1 S5 2.255433 1_555
S0 Si0 2.139553 1_554
S0 Y0 2.858962 1_445
S0 Y2 2.858962 1_555
S0 Y1 2.858962 1_455
S1 Y5 2.825930 1_556
S1 Y3 2.825931 1_556
S1 Y4 2.825938 1_556
S2 Si0 2.139325 1_565
S2 Y2 2.812445 1_565
S2 Y0 2.874294 1_455
S2 Y5 3.089945 1_556
S3 Si0 2.139325 1_665
S3 Y0 2.812445 1_555
S3 Y1 2.874294 1_565
S3 Y3 3.089945 1_556
S4 Si0 2.139325 1_555
S4 Y1 2.812445 1_455
S4 Y2 2.874295 1_555
S4 Y4 3.089945 1_556
S5 Y5 2.770008 1_555
S5 Y3 2.816900 1_555
S5 Y2 2.966201 1_565
S6 Y3 2.770003 1_555
S6 Y4 2.816901 1_555
S6 Y0 2.966209 1_555
S7 Y4 2.770011 1_555
S7 Y5 2.816894 1_555
S7 Y1 2.966203 1_455
S8 Y1 2.742472 1_555
S8 Y0 2.790984 1_555
S8 Y5 2.924018 1_656
S8 Y5 3.410840 1_655
S9 Y2 2.742482 1_555
S9 Y1 2.790974 1_555
S9 Y3 2.924018 1_546
S9 Y3 3.410840 1_545
S10 Y0 2.742476 1_555
S10 Y2 2.790976 1_555
S10 Y4 2.924021 1_556
S10 Y4 3.410843 1_555
S11 Y2 2.693566 1_555
S11 Y4 2.737346 1_555
S11 Y3 2.811542 1_545
S12 Y0 2.693567 1_555
S12 Y5 2.737346 1_655
S12 Y4 2.811542 1_555
S13 Y1 2.693567 1_555
S13 Y3 2.737346 1_545
S13 Y5 2.811542 1_655
