# generated using pymatgen
data_Sc5Ru3
_symmetry_space_group_name_H-M   'P 1'
_cell_length_a   5.86145900
_cell_length_b   7.77230289
_cell_length_c   7.77230289
_cell_angle_alpha   120.00000753
_cell_angle_beta   90.00000000
_cell_angle_gamma   90.00000000
_symmetry_Int_Tables_number   1
_chemical_formula_structural   Sc5Ru3
_chemical_formula_sum   'Sc10 Ru6'
_cell_volume   306.64491231
_cell_formula_units_Z   2
loop_
 _symmetry_equiv_pos_site_id
 _symmetry_equiv_pos_as_xyz
  1  'x, y, z'
loop_
 _atom_site_type_symbol
 _atom_site_label
 _atom_site_symmetry_multiplicity
 _atom_site_fract_x
 _atom_site_fract_y
 _atom_site_fract_z
 _atom_site_occupancy
  Sc  Sc0  1  0.00000000  0.66666700  0.33333300  1
  Sc  Sc1  1  0.00000000  0.33333300  0.66666700  1
  Sc  Sc2  1  0.50000000  0.33333300  0.66666700  1
  Sc  Sc3  1  0.50000000  0.66666700  0.33333300  1
  Sc  Sc4  1  0.75000000  0.74298200  0.74298200  1
  Sc  Sc5  1  0.25000000  0.25701800  0.25701800  1
  Sc  Sc6  1  0.75000000  0.00000000  0.25701800  1
  Sc  Sc7  1  0.25000000  0.00000000  0.74298200  1
  Sc  Sc8  1  0.75000000  0.25701800  0.00000000  1
  Sc  Sc9  1  0.25000000  0.74298200  0.00000000  1
  Ru  Ru0  1  0.75000000  0.40221500  0.40221500  1
  Ru  Ru1  1  0.25000000  0.59778500  0.59778500  1
  Ru  Ru2  1  0.75000000  0.00000000  0.59778500  1
  Ru  Ru3  1  0.25000000  0.00000000  0.40221500  1
  Ru  Ru4  1  0.75000000  0.59778500  0.00000000  1
  Ru  Ru5  1  0.25000000  0.40221500  0.00000000  1
loop_
_geom_bond_atom_site_label_1
_geom_bond_atom_site_label_2
_geom_bond_distance
_geom_bond_site_symmetry_2
Ru0 Sc4 2.648544 1_555
Ru0 Sc6 2.741967 1_555
Ru0 Sc8 2.741967 1_555
Ru0 Sc2 2.785497 1_555
Ru0 Sc1 2.785497 1_655
Ru0 Sc3 2.785497 1_555
Ru0 Sc0 2.785497 1_655
Ru0 Sc5 3.140497 1_555
Ru0 Sc5 3.140497 1_655
Ru1 Sc5 2.648544 1_555
Ru1 Sc9 2.741967 1_556
Ru1 Sc7 2.741967 1_565
Ru1 Sc2 2.785497 1_555
Ru1 Sc1 2.785497 1_555
Ru1 Sc3 2.785497 1_555
Ru1 Sc0 2.785497 1_555
Ru1 Sc4 3.140497 1_555
Ru1 Sc4 3.140497 1_455
Ru2 Sc6 2.648544 1_555
Ru2 Sc8 2.741967 1_556
Ru2 Sc4 2.741967 1_545
Ru2 Sc2 2.785491 1_555
Ru2 Sc1 2.785491 1_655
Ru2 Sc0 2.785492 1_645
Ru2 Sc3 2.785492 1_545
Ru2 Sc7 3.140497 1_555
Ru2 Sc7 3.140497 1_655
Ru3 Sc7 2.648544 1_555
Ru3 Sc9 2.741967 1_545
Ru3 Sc5 2.741967 1_555
Ru3 Sc0 2.785491 1_545
Ru3 Sc3 2.785491 1_545
Ru3 Sc1 2.785492 1_555
Ru3 Sc2 2.785492 1_555
Ru3 Sc6 3.140497 1_455
Ru3 Sc6 3.140497 1_555
Ru4 Sc8 2.648544 1_555
Ru4 Sc6 2.741967 1_565
Ru4 Sc4 2.741967 1_554
Ru4 Sc0 2.785491 1_655
Ru4 Sc3 2.785491 1_555
Ru4 Sc2 2.785492 1_554
Ru4 Sc1 2.785492 1_654
Ru4 Sc9 3.140497 1_655
Ru4 Sc9 3.140497 1_555
Ru5 Sc9 2.648544 1_555
Ru5 Sc7 2.741967 1_554
Ru5 Sc5 2.741967 1_555
Ru5 Sc2 2.785491 1_554
Ru5 Sc1 2.785491 1_554
Ru5 Sc3 2.785492 1_555
Ru5 Sc0 2.785492 1_555
Ru5 Sc8 3.140497 1_555
Ru5 Sc8 3.140497 1_455
