# generated using pymatgen
data_PtAu
_symmetry_space_group_name_H-M   'P 1'
_cell_length_a   5.59827124
_cell_length_b   5.59827124
_cell_length_c   9.67468538
_cell_angle_alpha   90.00000000
_cell_angle_beta   90.00000000
_cell_angle_gamma   119.99999054
_symmetry_Int_Tables_number   1
_chemical_formula_structural   PtAu
_chemical_formula_sum   'Pt8 Au8'
_cell_volume   262.58831523
_cell_formula_units_Z   8
loop_
 _symmetry_equiv_pos_site_id
 _symmetry_equiv_pos_as_xyz
  1  'x, y, z'
loop_
 _atom_site_type_symbol
 _atom_site_label
 _atom_site_symmetry_multiplicity
 _atom_site_fract_x
 _atom_site_fract_y
 _atom_site_fract_z
 _atom_site_occupancy
  Pt  Pt0_0  1  0.99999997  0.00000003  0.00000000  1
  Pt  Pt0_1  1  0.99999997  0.00000003  0.50000000  1
  Pt  Pt0_2  1  0.99999997  0.50000003  0.00000000  1
  Pt  Pt0_3  1  0.99999997  0.50000003  0.50000000  1
  Pt  Pt0_4  1  0.49999997  0.00000003  0.00000000  1
  Pt  Pt0_5  1  0.49999997  0.00000003  0.50000000  1
  Pt  Pt0_6  1  0.49999997  0.50000003  0.00000000  1
  Pt  Pt0_7  1  0.49999997  0.50000003  0.50000000  1
  Au  Au0_0  1  0.16666653  0.33333347  0.25000000  1
  Au  Au0_1  1  0.16666653  0.33333347  0.75000000  1
  Au  Au0_2  1  0.16666653  0.83333347  0.25000000  1
  Au  Au0_3  1  0.16666653  0.83333347  0.75000000  1
  Au  Au0_4  1  0.66666653  0.33333347  0.25000000  1
  Au  Au0_5  1  0.66666653  0.33333347  0.75000000  1
  Au  Au0_6  1  0.66666653  0.83333347  0.25000000  1
  Au  Au0_7  1  0.66666653  0.83333347  0.75000000  1
loop_
_geom_bond_atom_site_label_1
_geom_bond_atom_site_label_2
_geom_bond_distance
_geom_bond_site_symmetry_2
Pt0_0 Pt0_4 2.799136 1_555
Pt0_0 Pt0_2 2.799136 1_545
Pt0_0 Pt0_4 2.799136 1_655
Pt0_0 Pt0_2 2.799136 1_555
Pt0_0 Pt0_6 2.799136 1_545
Pt0_0 Pt0_6 2.799136 1_655
Pt0_1 Pt0_3 2.799136 1_545
Pt0_1 Pt0_5 2.799136 1_555
Pt0_1 Pt0_5 2.799136 1_655
Pt0_1 Pt0_3 2.799136 1_555
Pt0_1 Pt0_7 2.799136 1_545
Pt0_1 Pt0_7 2.799136 1_655
Pt0_2 Pt0_6 2.799136 1_555
Pt0_2 Pt0_6 2.799136 1_655
Pt0_2 Pt0_4 2.799136 1_555
Pt0_2 Pt0_4 2.799136 1_665
Pt0_3 Pt0_7 2.799136 1_555
Pt0_3 Pt0_7 2.799136 1_655
Pt0_3 Pt0_5 2.799136 1_555
Pt0_3 Pt0_5 2.799136 1_665
Pt0_4 Pt0_6 2.799136 1_545
Pt0_4 Pt0_6 2.799136 1_555
Pt0_5 Pt0_7 2.799136 1_545
Pt0_5 Pt0_7 2.799136 1_555
Au0_0 Au0_4 2.799136 1_455
Au0_0 Au0_4 2.799136 1_555
Au0_0 Au0_2 2.799136 1_555
Au0_0 Au0_2 2.799136 1_545
Au0_0 Au0_6 2.799136 1_555
Au0_0 Au0_6 2.799136 1_445
Au0_0 Pt0_3 2.908898 1_455
Au0_0 Pt0_2 2.908898 1_455
Au0_0 Pt0_0 2.908899 1_455
Au0_0 Pt0_6 2.908899 1_555
Au0_0 Pt0_1 2.908899 1_455
Au0_0 Pt0_7 2.908899 1_555
Au0_1 Au0_5 2.799136 1_455
Au0_1 Au0_3 2.799136 1_545
Au0_1 Au0_5 2.799136 1_555
Au0_1 Au0_3 2.799136 1_555
Au0_1 Au0_7 2.799136 1_555
Au0_1 Au0_7 2.799136 1_445
Au0_1 Pt0_2 2.908898 1_456
Au0_1 Pt0_3 2.908898 1_455
Au0_1 Pt0_0 2.908899 1_456
Au0_1 Pt0_6 2.908899 1_556
Au0_1 Pt0_7 2.908899 1_555
Au0_1 Pt0_1 2.908899 1_455
Au0_2 Au0_6 2.799136 1_455
Au0_2 Au0_6 2.799136 1_555
Au0_2 Au0_4 2.799136 1_565
Au0_2 Au0_4 2.799136 1_455
Au0_2 Pt0_1 2.908898 1_465
Au0_2 Pt0_0 2.908898 1_465
Au0_2 Pt0_2 2.908899 1_455
Au0_2 Pt0_3 2.908899 1_455
Au0_2 Pt0_5 2.908899 1_565
Au0_2 Pt0_4 2.908899 1_565
Au0_3 Au0_7 2.799136 1_555
Au0_3 Au0_7 2.799136 1_455
Au0_3 Au0_5 2.799136 1_565
Au0_3 Au0_5 2.799136 1_455
Au0_3 Pt0_0 2.908898 1_466
Au0_3 Pt0_1 2.908898 1_465
Au0_3 Pt0_4 2.908899 1_566
Au0_3 Pt0_2 2.908899 1_456
Au0_3 Pt0_3 2.908899 1_455
Au0_3 Pt0_5 2.908899 1_565
Au0_4 Au0_6 2.799136 1_555
Au0_4 Au0_6 2.799136 1_545
Au0_4 Pt0_6 2.908898 1_555
Au0_4 Pt0_7 2.908898 1_555
Au0_4 Pt0_5 2.908899 1_555
Au0_4 Pt0_2 2.908899 1_555
Au0_4 Pt0_3 2.908899 1_555
Au0_4 Pt0_4 2.908899 1_555
Au0_5 Au0_7 2.799136 1_555
Au0_5 Au0_7 2.799136 1_545
Au0_5 Pt0_6 2.908898 1_556
Au0_5 Pt0_7 2.908898 1_555
Au0_5 Pt0_2 2.908899 1_556
Au0_5 Pt0_4 2.908899 1_556
Au0_5 Pt0_3 2.908899 1_555
Au0_5 Pt0_5 2.908899 1_555
Au0_6 Pt0_5 2.908898 1_565
Au0_6 Pt0_4 2.908898 1_565
Au0_6 Pt0_6 2.908899 1_555
Au0_6 Pt0_7 2.908899 1_555
Au0_6 Pt0_1 2.908899 1_565
Au0_6 Pt0_0 2.908899 1_565
Au0_7 Pt0_4 2.908898 1_566
Au0_7 Pt0_5 2.908898 1_565
Au0_7 Pt0_6 2.908899 1_556
Au0_7 Pt0_0 2.908899 1_566
Au0_7 Pt0_7 2.908899 1_555
Au0_7 Pt0_1 2.908899 1_565
