# generated using pymatgen
data_Rb2(WO4)3
_symmetry_space_group_name_H-M   'P 1'
_cell_length_a   7.18207808
_cell_length_b   7.18207808
_cell_length_c   7.18207737
_cell_angle_alpha   62.04965201
_cell_angle_beta   62.04965201
_cell_angle_gamma   62.04965586
_symmetry_Int_Tables_number   1
_chemical_formula_structural   Rb2(WO4)3
_chemical_formula_sum   'Rb2 W3 O12'
_cell_volume   273.96564238
_cell_formula_units_Z   1
loop_
 _symmetry_equiv_pos_site_id
 _symmetry_equiv_pos_as_xyz
  1  'x, y, z'
loop_
 _atom_site_type_symbol
 _atom_site_label
 _atom_site_symmetry_multiplicity
 _atom_site_fract_x
 _atom_site_fract_y
 _atom_site_fract_z
 _atom_site_occupancy
  Rb  Rb0  1  0.37355500  0.37355500  0.37355500  1
  Rb  Rb1  1  0.62644500  0.62644500  0.62644500  1
  W  W0  1  0.50000000  0.00000000  0.00000000  1
  W  W1  1  0.00000000  0.00000000  0.50000000  1
  W  W2  1  0.00000000  0.50000000  0.00000000  1
  O  O0  1  0.93887400  0.31573500  0.31573500  1
  O  O1  1  0.31747800  0.93368700  0.93368700  1
  O  O2  1  0.31573500  0.31573500  0.93887400  1
  O  O3  1  0.93368700  0.93368700  0.31747800  1
  O  O4  1  0.93368700  0.31747800  0.93368700  1
  O  O5  1  0.31573500  0.93887400  0.31573500  1
  O  O6  1  0.06112600  0.68426500  0.68426500  1
  O  O7  1  0.68252200  0.06631300  0.06631300  1
  O  O8  1  0.68426500  0.68426500  0.06112600  1
  O  O9  1  0.06631300  0.06631300  0.68252200  1
  O  O10  1  0.06631300  0.68252200  0.06631300  1
  O  O11  1  0.68426500  0.06112600  0.68426500  1
loop_
_geom_bond_atom_site_label_1
_geom_bond_atom_site_label_2
_geom_bond_distance
_geom_bond_site_symmetry_2
O0 W2 1.970923 1_655
O0 W1 1.970923 1_655
O0 Rb1 3.205440 1_555
O1 W0 1.885530 1_566
O1 Rb1 3.169671 1_555
O2 W0 1.970923 1_556
O2 W2 1.970923 1_556
O2 Rb1 3.205440 1_555
O3 W1 1.885530 1_665
O3 Rb1 3.169671 1_555
O4 W2 1.885530 1_656
O4 Rb1 3.169671 1_555
O5 W0 1.970923 1_565
O5 W1 1.970923 1_565
O5 Rb1 3.205440 1_555
O6 W2 1.970923 1_556
O6 W1 1.970923 1_565
O6 Rb0 3.205440 1_555
O7 W0 1.885530 1_555
O7 Rb0 3.169671 1_555
O8 W2 1.970923 1_655
O8 W0 1.970923 1_565
O8 Rb0 3.205440 1_555
O9 W1 1.885530 1_555
O9 Rb0 3.169671 1_555
O10 W2 1.885530 1_555
O10 Rb0 3.169671 1_555
O11 W0 1.970923 1_556
O11 W1 1.970923 1_655
O11 Rb0 3.205440 1_555
