# generated using pymatgen
data_Li4MnCo2O7
_symmetry_space_group_name_H-M   'P 1'
_cell_length_a   5.13544000
_cell_length_b   7.66074231
_cell_length_c   7.71071401
_cell_angle_alpha   118.98009302
_cell_angle_beta   109.08114708
_cell_angle_gamma   83.35979248
_symmetry_Int_Tables_number   1
_chemical_formula_structural   Li4MnCo2O7
_chemical_formula_sum   'Li8 Mn2 Co4 O14'
_cell_volume   250.45069182
_cell_formula_units_Z   2
loop_
 _symmetry_equiv_pos_site_id
 _symmetry_equiv_pos_as_xyz
  1  'x, y, z'
loop_
 _atom_site_type_symbol
 _atom_site_label
 _atom_site_symmetry_multiplicity
 _atom_site_fract_x
 _atom_site_fract_y
 _atom_site_fract_z
 _atom_site_occupancy
  Li  Li0  1  0.50819400  0.21403400  0.07797000  1
  Li  Li1  1  0.50586600  0.48563000  0.49346400  1
  Li  Li2  1  0.50143300  0.64529600  0.21563600  1
  Li  Li3  1  0.50240200  0.92740400  0.64385100  1
  Li  Li4  1  0.50080300  0.07517400  0.36472600  1
  Li  Li5  1  0.48563400  0.35422800  0.77391400  1
  Li  Li6  1  0.49787900  0.78931600  0.93091400  1
  Li  Li7  1  0.99503100  0.28506200  0.42806100  1
  Mn  Mn0  1  0.00404500  0.00313100  0.00508100  1
  Mn  Mn1  1  0.99944500  0.42807600  0.14376300  1
  Co  Co0  1  0.99830000  0.57200600  0.85692200  1
  Co  Co1  1  0.01169700  0.87325500  0.29682300  1
  Co  Co2  1  0.98728000  0.14902100  0.70328100  1
  Co  Co3  1  0.00062700  0.70608600  0.56799900  1
  O  O0  1  0.21636100  0.97245400  0.82209900  1
  O  O1  1  0.22350000  0.24502600  0.22746800  1
  O  O2  1  0.21937400  0.40015900  0.96132800  1
  O  O3  1  0.23133100  0.65733900  0.37658500  1
  O  O4  1  0.23764800  0.83958100  0.10904700  1
  O  O5  1  0.23992900  0.08932000  0.53171000  1
  O  O6  1  0.22035900  0.54858700  0.68961500  1
  O  O7  1  0.77127800  0.46831100  0.31134900  1
  O  O8  1  0.77999900  0.75999800  0.77009400  1
  O  O9  1  0.76951300  0.88667600  0.46861200  1
  O  O10  1  0.77737400  0.18552100  0.91337900  1
  O  O11  1  0.75237400  0.31171100  0.61143700  1
  O  O12  1  0.78918700  0.60368600  0.03927800  1
  O  O13  1  0.77313800  0.02391300  0.16559600  1
loop_
_geom_bond_atom_site_label_1
_geom_bond_atom_site_label_2
_geom_bond_distance
_geom_bond_site_symmetry_2
Li0 O1 2.068602 1_555
Li0 O13 2.079251 1_555
Li0 O10 2.092332 1_554
Li0 O7 2.116705 1_555
Li0 O0 2.175706 1_544
Li0 O2 2.218848 1_554
Li1 O11 2.058311 1_555
Li1 O3 2.102222 1_555
Li1 O1 2.171889 1_555
Li1 O7 2.208236 1_555
Li1 O6 2.291158 1_555
Li1 O8 2.307836 1_555
Li2 O7 2.041997 1_555
Li2 O9 2.111248 1_555
Li2 O3 2.111314 1_555
Li2 O2 2.161851 1_554
Li2 O4 2.171850 1_555
Li2 O12 2.217968 1_555
Li3 O5 1.998438 1_565
Li3 O8 2.122288 1_555
Li3 O9 2.123472 1_555
Li3 O0 2.215643 1_555
Li3 O10 2.228909 1_565
Li3 O3 2.263639 1_555
Li4 O11 2.041004 1_555
Li4 O4 2.084380 1_545
Li4 O5 2.103185 1_555
Li4 O9 2.137395 1_545
Li4 O1 2.182133 1_555
Li4 O13 2.271662 1_555
Li5 O11 2.043403 1_555
Li5 O6 2.094056 1_555
Li5 O5 2.139463 1_555
Li5 O2 2.183968 1_555
Li5 O10 2.217430 1_555
Li5 O12 2.254614 1_556
Li6 O13 2.065516 1_566
Li6 O4 2.095100 1_556
Li6 O6 2.107869 1_555
Li6 O8 2.125249 1_555
Li6 O0 2.154282 1_555
Li6 O12 2.191020 1_556
Li7 O7 2.067850 1_555
Li7 O11 2.099363 1_555
Li7 O13 2.119606 1_555
Li7 O1 2.122875 1_655
Li7 O5 2.130025 1_655
Li7 O6 2.133325 1_655
Mn0 O4 1.910105 1_545
Mn0 O13 1.920502 1_455
Mn0 O1 1.945461 1_555
Mn0 O10 1.962230 1_454
Mn0 O0 1.964691 1_544
Mn0 O8 1.984538 1_444
Mn1 O7 1.912656 1_555
Mn1 O1 1.930097 1_655
Mn1 O3 1.938110 1_655
Mn1 O12 1.941744 1_555
Mn1 O10 1.968742 1_554
Mn1 O2 1.997887 1_654
Co0 O6 1.920193 1_655
Co0 O2 1.937496 1_655
Co0 O12 1.945646 1_556
Co0 O8 1.961962 1_555
Co0 O11 2.125116 1_555
Co0 O4 2.156584 1_656
Co1 O5 1.884029 1_565
Co1 O13 1.962384 1_465
Co1 O4 2.043684 1_555
Co1 O9 2.056114 1_455
Co1 O3 2.118295 1_555
Co1 O12 2.145269 1_455
Co2 O11 1.859872 1_555
Co2 O5 2.010336 1_655
Co2 O0 2.044779 1_645
Co2 O9 2.058350 1_545
Co2 O2 2.086001 1_655
Co2 O10 2.120779 1_555
Co3 O6 1.923057 1_555
Co3 O9 1.990684 1_455
Co3 O7 2.025016 1_455
Co3 O3 2.056306 1_555
Co3 O8 2.074874 1_455
Co3 O0 2.111782 1_555
