# generated using pymatgen
data_MgSi2
_symmetry_space_group_name_H-M   'P 1'
_cell_length_a   6.68685300
_cell_length_b   7.26977649
_cell_length_c   9.62891853
_cell_angle_alpha   83.16933436
_cell_angle_beta   88.10965390
_cell_angle_gamma   82.65967580
_symmetry_Int_Tables_number   1
_chemical_formula_structural   MgSi2
_chemical_formula_sum   'Mg8 Si16'
_cell_volume   460.87381520
_cell_formula_units_Z   8
loop_
 _symmetry_equiv_pos_site_id
 _symmetry_equiv_pos_as_xyz
  1  'x, y, z'
loop_
 _atom_site_type_symbol
 _atom_site_label
 _atom_site_symmetry_multiplicity
 _atom_site_fract_x
 _atom_site_fract_y
 _atom_site_fract_z
 _atom_site_occupancy
  Mg  Mg0  1  0.34680000  0.68753900  0.82315400  1
  Mg  Mg1  1  0.65320000  0.31246100  0.17684600  1
  Mg  Mg2  1  0.90640600  0.30778900  0.48376300  1
  Mg  Mg3  1  0.21534200  0.03978000  0.28161100  1
  Mg  Mg4  1  0.48146000  0.34034100  0.63792200  1
  Mg  Mg5  1  0.51854000  0.65965900  0.36207800  1
  Mg  Mg6  1  0.78465800  0.96022000  0.71838900  1
  Mg  Mg7  1  0.09359400  0.69221100  0.51623700  1
  Si  Si0  1  0.16424200  0.00680800  0.95136600  1
  Si  Si1  1  0.29234000  0.35591900  0.38546300  1
  Si  Si2  1  0.59093100  0.11233900  0.43218700  1
  Si  Si3  1  0.36326800  0.77365900  0.10099600  1
  Si  Si4  1  0.15659000  0.08233900  0.69616500  1
  Si  Si5  1  0.70723700  0.70883800  0.02938100  1
  Si  Si6  1  0.63673200  0.22634100  0.89900400  1
  Si  Si7  1  0.22067800  0.48701600  0.15130500  1
  Si  Si8  1  0.70766000  0.64408100  0.61453700  1
  Si  Si9  1  0.29276300  0.29116200  0.97061900  1
  Si  Si10  1  0.77932200  0.51298400  0.84869500  1
  Si  Si11  1  0.84341000  0.91766100  0.30383500  1
  Si  Si12  1  0.11229400  0.42690400  0.76109200  1
  Si  Si13  1  0.40906900  0.88766100  0.56781300  1
  Si  Si14  1  0.88770600  0.57309600  0.23890800  1
  Si  Si15  1  0.83575800  0.99319200  0.04863400  1
loop_
_geom_bond_atom_site_label_1
_geom_bond_atom_site_label_2
_geom_bond_distance
_geom_bond_site_symmetry_2
Mg0 Si12 2.737984 1_555
Mg0 Si13 2.751606 1_555
Mg0 Si3 2.827878 1_556
Mg0 Si0 2.873949 1_565
Mg0 Si10 3.011734 1_555
Mg0 Si8 3.097409 1_555
Mg0 Si4 3.112142 1_565
Mg0 Si9 3.115951 1_555
Mg0 Si5 3.203188 1_556
Mg1 Si14 2.737984 1_555
Mg1 Si2 2.751606 1_555
Mg1 Si6 2.827878 1_554
Mg1 Si15 2.873949 1_545
Mg1 Si7 3.011734 1_555
Mg1 Si1 3.097409 1_555
Mg1 Si11 3.112142 1_545
Mg1 Si5 3.115951 1_555
Mg1 Si9 3.203188 1_554
Mg2 Si1 2.769307 1_655
Mg2 Si2 2.778226 1_555
Mg2 Si14 2.858400 1_555
Mg2 Si4 2.897511 1_655
Mg2 Si8 3.019994 1_555
Mg3 Si1 2.725816 1_555
Mg3 Si11 2.739209 1_445
Mg3 Si3 2.818454 1_545
Mg3 Si2 3.073883 1_555
Mg3 Si13 3.104856 1_545
Mg4 Si12 2.735655 1_555
Mg4 Si6 2.746176 1_555
Mg4 Si2 2.753720 1_555
Mg4 Si1 2.760820 1_555
Mg4 Si8 2.815503 1_555
Mg4 Si4 3.043378 1_555
Mg5 Si14 2.735655 1_555
Mg5 Si3 2.746176 1_555
Mg5 Si13 2.753720 1_555
Mg5 Si8 2.760820 1_555
Mg5 Si1 2.815503 1_555
Mg5 Si11 3.043378 1_555
Mg6 Si8 2.725816 1_555
Mg6 Si4 2.739209 1_665
Mg6 Si6 2.818454 1_565
Mg6 Si13 3.073883 1_555
Mg6 Si2 3.104856 1_565
Mg7 Si8 2.769307 1_455
Mg7 Si13 2.778226 1_555
Mg7 Si12 2.858400 1_555
Mg7 Si11 2.897511 1_455
Mg7 Si1 3.019994 1_555
Si0 Si9 2.366819 1_555
Si0 Si15 2.368436 1_446
Si0 Si3 2.385175 1_546
Si0 Si4 2.454109 1_555
Si1 Si7 2.380123 1_555
Si1 Si2 2.508171 1_555
Si3 Si5 2.384030 1_555
Si3 Si7 2.392330 1_555
Si6 Si9 2.384030 1_555
Si7 Si9 2.375939 1_554
Si10 Si5 2.375939 1_556
Si10 Si8 2.380123 1_555
Si10 Si12 2.388769 1_655
Si10 Si6 2.392330 1_555
Si11 Si15 2.454109 1_555
Si11 Si2 2.459387 1_565
Si11 Si14 2.631323 1_555
Si12 Si9 2.425536 1_555
Si12 Si4 2.631323 1_555
Si13 Si2 2.397408 1_565
Si13 Si4 2.459387 1_565
Si13 Si8 2.508171 1_555
Si14 Si7 2.388769 1_655
Si14 Si5 2.425536 1_555
Si15 Si5 2.366819 1_555
Si15 Si6 2.385175 1_564
