# generated using pymatgen
data_Y3CuSnS7
_symmetry_space_group_name_H-M   'P 1'
_cell_length_a   9.76877944
_cell_length_b   9.76877944
_cell_length_c   6.28132000
_cell_angle_alpha   90.00000000
_cell_angle_beta   90.00000000
_cell_angle_gamma   119.99999622
_symmetry_Int_Tables_number   1
_chemical_formula_structural   Y3CuSnS7
_chemical_formula_sum   'Y6 Cu2 Sn2 S14'
_cell_volume   519.11332375
_cell_formula_units_Z   2
loop_
 _symmetry_equiv_pos_site_id
 _symmetry_equiv_pos_as_xyz
  1  'x, y, z'
loop_
 _atom_site_type_symbol
 _atom_site_label
 _atom_site_symmetry_multiplicity
 _atom_site_fract_x
 _atom_site_fract_y
 _atom_site_fract_z
 _atom_site_occupancy
  Y  Y0  1  0.20862500  0.35970900  0.87384800  1
  Y  Y1  1  0.35970900  0.15108300  0.37384800  1
  Y  Y2  1  0.64029100  0.84891700  0.87384800  1
  Y  Y3  1  0.79137500  0.64029100  0.37384800  1
  Y  Y4  1  0.84891700  0.20862500  0.37384800  1
  Y  Y5  1  0.15108300  0.79137500  0.87384800  1
  Cu  Cu0  1  0.00000000  0.00000000  0.98983800  1
  Cu  Cu1  1  0.00000000  0.00000000  0.48983800  1
  Sn  Sn0  1  0.33333300  0.66666700  0.30878800  1
  Sn  Sn1  1  0.66666700  0.33333300  0.80878800  1
  S  S0  1  0.66666700  0.33333300  0.19186300  1
  S  S1  1  0.33333300  0.66666700  0.69186300  1
  S  S2  1  0.48006400  0.56234900  0.12666500  1
  S  S3  1  0.91771500  0.48006400  0.62666500  1
  S  S4  1  0.56234900  0.08228500  0.62666500  1
  S  S5  1  0.43765100  0.91771500  0.12666500  1
  S  S6  1  0.08228500  0.51993600  0.12666500  1
  S  S7  1  0.51993600  0.43765100  0.62666500  1
  S  S8  1  0.73808400  0.88430800  0.45605700  1
  S  S9  1  0.85377600  0.73808400  0.95605700  1
  S  S10  1  0.26191600  0.11569200  0.95605700  1
  S  S11  1  0.14622400  0.26191600  0.45605700  1
  S  S12  1  0.11569200  0.85377600  0.45605700  1
  S  S13  1  0.88430800  0.14622400  0.95605700  1
loop_
_geom_bond_atom_site_label_1
_geom_bond_atom_site_label_2
_geom_bond_distance
_geom_bond_site_symmetry_2
Cu0 S13 2.230939 1_455
Cu0 S10 2.230939 1_555
Cu0 S9 2.230939 1_445
Cu1 S12 2.230939 1_545
Cu1 S8 2.230939 1_445
Cu1 S11 2.230939 1_555
S0 Sn1 2.406217 1_554
S0 Y4 2.851212 1_555
S0 Y3 2.851212 1_555
S0 Y1 2.851212 1_555
S1 Sn0 2.406217 1_555
S1 Y5 2.851212 1_555
S1 Y0 2.851212 1_555
S1 Y2 2.851212 1_555
S2 Sn0 2.421249 1_555
S2 Y0 2.867496 1_554
S2 Y2 2.902892 1_554
S2 Y3 3.150136 1_555
S3 Sn1 2.421242 1_555
S3 Y4 2.867498 1_555
S3 Y3 2.902885 1_555
S3 Y5 3.150134 1_655
S4 Sn1 2.421241 1_555
S4 Y1 2.867490 1_555
S4 Y4 2.902892 1_555
S4 Y2 3.150128 1_545
S5 Sn0 2.421241 1_555
S5 Y2 2.867490 1_554
S5 Y5 2.902892 1_554
S5 Y1 3.150128 1_565
S6 Sn0 2.421242 1_555
S6 Y5 2.867498 1_554
S6 Y0 2.902885 1_554
S6 Y4 3.150134 1_455
S7 Sn1 2.421249 1_555
S7 Y3 2.867496 1_555
S7 Y1 2.902892 1_555
S7 Y0 3.150136 1_555
S8 Y3 2.731459 1_555
S8 Y2 2.754763 1_555
S8 Y4 2.836559 1_565
S9 Y5 2.731449 1_655
S9 Y3 2.754763 1_556
S9 Y2 2.836568 1_555
S10 Y0 2.731459 1_555
S10 Y1 2.754763 1_556
S10 Y5 2.836559 1_545
S11 Y4 2.731449 1_455
S11 Y0 2.754763 1_555
S11 Y1 2.836568 1_555
S12 Y1 2.731453 1_565
S12 Y5 2.754761 1_555
S12 Y3 2.836561 1_455
S13 Y2 2.731453 1_545
S13 Y4 2.754761 1_556
S13 Y0 2.836561 1_655
