# generated using pymatgen
data_Mg3Si2
_symmetry_space_group_name_H-M   'P 1'
_cell_length_a   7.95160438
_cell_length_b   7.95160438
_cell_length_c   7.03662200
_cell_angle_alpha   84.39963962
_cell_angle_beta   84.39963962
_cell_angle_gamma   26.72290233
_symmetry_Int_Tables_number   1
_chemical_formula_structural   Mg3Si2
_chemical_formula_sum   'Mg6 Si4'
_cell_volume   199.05713501
_cell_formula_units_Z   2
loop_
 _symmetry_equiv_pos_site_id
 _symmetry_equiv_pos_as_xyz
  1  'x, y, z'
loop_
 _atom_site_type_symbol
 _atom_site_label
 _atom_site_symmetry_multiplicity
 _atom_site_fract_x
 _atom_site_fract_y
 _atom_site_fract_z
 _atom_site_occupancy
  Mg  Mg0  1  0.50008100  0.50008100  0.26924100  1
  Mg  Mg1  1  0.49991900  0.49991900  0.73075900  1
  Mg  Mg2  1  0.12426900  0.12426900  0.97282400  1
  Mg  Mg3  1  0.87573100  0.87573100  0.02717600  1
  Mg  Mg4  1  0.69266300  0.69266300  0.63546600  1
  Mg  Mg5  1  0.30733700  0.30733700  0.36453400  1
  Si  Si0  1  0.69937300  0.69937300  0.21538600  1
  Si  Si1  1  0.30062700  0.30062700  0.78461400  1
  Si  Si2  1  0.11878700  0.11878700  0.38867700  1
  Si  Si3  1  0.88121300  0.88121300  0.61132300  1
loop_
_geom_bond_atom_site_label_1
_geom_bond_atom_site_label_2
_geom_bond_distance
_geom_bond_site_symmetry_2
Mg0 Si2 2.786773 1_655
Mg0 Si2 2.786773 1_565
Mg0 Mg5 2.990390 1_555
Mg0 Si0 3.068832 1_555
Mg1 Si3 2.786773 1_545
Mg1 Si3 2.786773 1_455
Mg1 Mg4 2.990390 1_555
Mg1 Si1 3.068832 1_555
Mg2 Si0 2.835163 1_456
Mg2 Si0 2.835163 1_546
Mg2 Si1 2.911184 1_555
Mg2 Si2 2.918913 1_556
Mg2 Mg4 3.102866 1_455
Mg2 Mg4 3.102866 1_545
Mg3 Si1 2.835163 1_654
Mg3 Si1 2.835163 1_564
Mg3 Si0 2.911184 1_555
Mg3 Si3 2.918913 1_554
Mg3 Mg5 3.102866 1_565
Mg3 Mg5 3.102866 1_655
Mg4 Si1 2.760499 1_565
Mg4 Si1 2.760499 1_655
Mg4 Si2 2.845538 1_655
Mg4 Si2 2.845538 1_565
Mg4 Si3 2.905265 1_555
Mg4 Si0 2.947341 1_555
Mg4 Mg5 3.079091 1_565
Mg4 Mg5 3.079091 1_655
Mg5 Si0 2.760499 1_545
Mg5 Si0 2.760499 1_455
Mg5 Si3 2.845538 1_545
Mg5 Si3 2.845538 1_455
Mg5 Si2 2.905265 1_555
Mg5 Si1 2.947341 1_555
Si0 Si2 2.472498 1_655
Si0 Si2 2.472498 1_565
Si1 Si3 2.472498 1_455
Si1 Si3 2.472498 1_545
