# generated using pymatgen
data_Mg14BiW
_symmetry_space_group_name_H-M   'P 1'
_cell_length_a   6.27645345
_cell_length_b   6.27643251
_cell_length_c   10.19673503
_cell_angle_alpha   90.00000000
_cell_angle_beta   90.00000000
_cell_angle_gamma   120.00011030
_symmetry_Int_Tables_number   1
_chemical_formula_structural   Mg14BiW
_chemical_formula_sum   'Mg14 Bi1 W1'
_cell_volume   347.87118662
_cell_formula_units_Z   1
loop_
 _symmetry_equiv_pos_site_id
 _symmetry_equiv_pos_as_xyz
  1  'x, y, z'
loop_
 _atom_site_type_symbol
 _atom_site_label
 _atom_site_symmetry_multiplicity
 _atom_site_fract_x
 _atom_site_fract_y
 _atom_site_fract_z
 _atom_site_occupancy
  Mg  Mg0  1  0.16629459  0.83314686  0.12500000  1
  Mg  Mg1  1  0.16735045  0.83367441  0.62500000  1
  Mg  Mg2  1  0.66685399  0.33370697  0.12500000  1
  Mg  Mg3  1  0.66632461  0.33264822  0.62500000  1
  Mg  Mg4  1  0.66685327  0.83314686  0.12500000  1
  Mg  Mg5  1  0.66632496  0.83367441  0.62500000  1
  Mg  Mg6  1  0.32884043  0.17115954  0.36031330  1
  Mg  Mg7  1  0.32884043  0.17115954  0.88968670  1
  Mg  Mg8  1  0.32883996  0.65768092  0.36031328  1
  Mg  Mg9  1  0.32883996  0.65768092  0.88968672  1
  Mg  Mg10  1  0.84231811  0.17115954  0.36031330  1
  Mg  Mg11  1  0.84231811  0.17115954  0.88968670  1
  Mg  Mg12  1  0.83333287  0.66666675  0.37525167  1
  Mg  Mg13  1  0.83333287  0.66666675  0.87474833  1
  Bi  Bi0  1  0.16666699  0.33333299  0.62500000  1
  W  W0  1  0.16666839  0.33333578  0.12500000  1
loop_
_geom_bond_atom_site_label_1
_geom_bond_atom_site_label_2
_geom_bond_distance
_geom_bond_site_symmetry_2
Mg0 Mg9 3.022333 1_554
Mg0 Mg8 3.022333 1_555
Mg0 Mg6 3.022334 1_565
Mg0 Mg7 3.022334 1_564
Mg0 Mg12 3.128407 1_455
Mg0 Mg13 3.128407 1_454
Mg0 Mg2 3.134703 1_455
Mg0 Mg4 3.134720 1_455
Mg0 W0 3.138204 1_555
Mg0 W0 3.138230 1_565
Mg0 Mg2 3.141730 1_565
Mg0 Mg4 3.141733 1_555
Mg1 Mg13 3.127550 1_455
Mg1 Mg12 3.127550 1_455
Mg2 Mg6 3.022341 1_555
Mg2 Mg7 3.022341 1_554
Mg2 Mg4 3.134703 1_555
Mg2 W0 3.138227 1_655
Mg2 W0 3.138227 1_555
Mg2 Mg4 3.141729 1_545
Mg4 Mg8 3.022340 1_555
Mg4 Mg9 3.022340 1_554
Mg4 W0 3.138204 1_555
Mg4 W0 3.138230 1_665
Mg6 W0 2.977495 1_555
Mg7 W0 2.977495 1_556
Mg8 W0 2.977481 1_555
Mg9 W0 2.977481 1_556
Mg10 W0 2.977501 1_655
Mg10 Mg4 3.022334 1_545
Mg10 Mg2 3.022334 1_555
Mg10 Mg12 3.142289 1_555
Mg10 Mg12 3.142291 1_545
Mg11 W0 2.977501 1_656
Mg11 Mg4 3.022334 1_546
Mg11 Mg2 3.022334 1_556
Mg11 Mg13 3.142289 1_555
Mg11 Mg13 3.142291 1_545
Mg12 Mg5 3.127543 1_555
Mg12 Mg3 3.127549 1_555
Mg12 Mg2 3.128397 1_555
Mg12 Mg4 3.128400 1_555
Mg12 Mg6 3.142289 1_555
Mg12 Mg6 3.142291 1_665
Mg12 Mg8 3.142301 1_555
Mg12 Mg8 3.142301 1_655
Mg13 Mg5 3.127543 1_555
Mg13 Mg3 3.127549 1_555
Mg13 Mg2 3.128397 1_556
Mg13 Mg4 3.128400 1_556
Mg13 Mg7 3.142289 1_555
Mg13 Mg7 3.142291 1_665
Mg13 Mg9 3.142301 1_555
Mg13 Mg9 3.142301 1_655
Bi0 Mg1 3.138216 1_555
Bi0 Mg5 3.138217 1_555
Bi0 Mg5 3.138220 1_445
Bi0 Mg1 3.138220 1_545
Bi0 Mg3 3.138229 1_455
Bi0 Mg3 3.138229 1_555
Bi0 Mg7 3.223736 1_555
Bi0 Mg6 3.223736 1_555
Bi0 Mg8 3.223736 1_555
Bi0 Mg9 3.223736 1_555
Bi0 Mg11 3.223742 1_455
Bi0 Mg10 3.223742 1_455
