# generated using pymatgen
data_Nd2Co3Ge5
_symmetry_space_group_name_H-M   'P 1'
_cell_length_a   8.21466014
_cell_length_b   8.21466014
_cell_length_c   5.85010496
_cell_angle_alpha   69.85866692
_cell_angle_beta   69.85866692
_cell_angle_gamma   93.07805042
_symmetry_Int_Tables_number   1
_chemical_formula_structural   Nd2Co3Ge5
_chemical_formula_sum   'Nd4 Co6 Ge10'
_cell_volume   341.25187991
_cell_formula_units_Z   2
loop_
 _symmetry_equiv_pos_site_id
 _symmetry_equiv_pos_as_xyz
  1  'x, y, z'
loop_
 _atom_site_type_symbol
 _atom_site_label
 _atom_site_symmetry_multiplicity
 _atom_site_fract_x
 _atom_site_fract_y
 _atom_site_fract_z
 _atom_site_occupancy
  Nd  Nd0  1  0.59769300  0.87082200  0.76596600  1
  Nd  Nd1  1  0.12917800  0.40230700  0.73403400  1
  Nd  Nd2  1  0.40230700  0.12917800  0.23403400  1
  Nd  Nd3  1  0.87082200  0.59769300  0.26596600  1
  Co  Co0  1  0.53681100  0.26000800  0.61625800  1
  Co  Co1  1  0.99656300  0.00343700  0.75000000  1
  Co  Co2  1  0.00343700  0.99656300  0.25000000  1
  Co  Co3  1  0.73999200  0.46318900  0.88374200  1
  Co  Co4  1  0.46318900  0.73999200  0.38374200  1
  Co  Co5  1  0.26000800  0.53681100  0.11625800  1
  Ge  Ge0  1  0.76946800  0.23053200  0.25000000  1
  Ge  Ge1  1  0.23053200  0.76946800  0.75000000  1
  Ge  Ge2  1  0.22100800  0.77899200  0.25000000  1
  Ge  Ge3  1  0.77899200  0.22100800  0.75000000  1
  Ge  Ge4  1  0.06872600  0.25837200  0.33297000  1
  Ge  Ge5  1  0.49389900  0.50610100  0.75000000  1
  Ge  Ge6  1  0.50610100  0.49389900  0.25000000  1
  Ge  Ge7  1  0.25837200  0.06872600  0.83297000  1
  Ge  Ge8  1  0.93127400  0.74162800  0.66703000  1
  Ge  Ge9  1  0.74162800  0.93127400  0.16703000  1
loop_
_geom_bond_atom_site_label_1
_geom_bond_atom_site_label_2
_geom_bond_distance
_geom_bond_site_symmetry_2
Co0 Ge7 2.356500 1_555
Co0 Ge3 2.374957 1_555
Co0 Ge5 2.408116 1_555
Co0 Ge0 2.426747 1_555
Co0 Ge6 2.436250 1_555
Co1 Ge7 2.433710 1_655
Co1 Ge8 2.433710 1_545
Co1 Ge9 2.457893 1_546
Co1 Ge4 2.457893 1_655
Co1 Ge3 2.594558 1_555
Co1 Ge1 2.790106 1_645
Co2 Ge4 2.433710 1_565
Co2 Ge9 2.433710 1_455
Co2 Ge8 2.457893 1_455
Co2 Ge7 2.457893 1_564
Co2 Ge2 2.594558 1_555
Co2 Ge0 2.790106 1_465
Co3 Ge8 2.356500 1_555
Co3 Ge3 2.374957 1_555
Co3 Ge5 2.408116 1_555
Co3 Ge0 2.426747 1_556
Co3 Ge6 2.436250 1_556
Co4 Ge9 2.356500 1_555
Co4 Ge2 2.374957 1_555
Co4 Ge6 2.408116 1_555
Co4 Ge1 2.426747 1_555
Co4 Ge5 2.436250 1_555
Co5 Ge4 2.356500 1_555
Co5 Ge2 2.374957 1_555
Co5 Ge6 2.408116 1_555
Co5 Ge1 2.426747 1_554
Co5 Ge5 2.436250 1_554
Ge0 Ge9 2.677491 1_545
Ge0 Ge4 2.677491 1_655
Ge0 Ge3 2.927257 1_554
Ge0 Ge3 2.927257 1_555
Ge1 Ge8 2.677491 1_455
Ge1 Ge7 2.677491 1_565
Ge1 Ge2 2.927257 1_556
Ge1 Ge2 2.927257 1_555
Ge2 Ge7 2.667945 1_564
Ge2 Ge8 2.667945 1_455
Ge2 Nd3 3.124260 1_455
Ge2 Nd2 3.124260 1_565
Ge2 Nd0 3.225876 1_554
Ge2 Nd1 3.225876 1_555
Ge3 Ge4 2.667945 1_655
Ge3 Ge9 2.667945 1_546
Ge3 Nd0 3.124260 1_545
Ge3 Nd1 3.124260 1_655
Ge3 Nd3 3.225876 1_555
Ge3 Nd2 3.225876 1_556
Ge4 Nd2 2.934860 1_555
Ge4 Nd1 3.130404 1_555
Ge4 Nd1 3.131627 1_554
Ge4 Nd3 3.277085 1_455
Ge5 Nd0 3.112122 1_555
Ge5 Nd1 3.112122 1_555
Ge5 Nd2 3.227371 1_556
Ge5 Nd3 3.227371 1_555
Ge6 Nd3 3.112122 1_555
Ge6 Nd2 3.112122 1_555
Ge6 Nd1 3.227371 1_555
Ge6 Nd0 3.227371 1_554
Ge7 Nd1 2.934860 1_555
Ge7 Nd2 3.130404 1_556
Ge7 Nd2 3.131627 1_555
Ge7 Nd0 3.277085 1_545
Ge8 Nd0 2.934860 1_555
Ge8 Nd3 3.130404 1_555
Ge8 Nd3 3.131627 1_556
Ge8 Nd1 3.277085 1_655
Ge9 Nd3 2.934860 1_555
Ge9 Nd0 3.130404 1_554
Ge9 Nd0 3.131627 1_555
Ge9 Nd2 3.277085 1_565
