# generated using pymatgen
data_PH9C(NO)4
_symmetry_space_group_name_H-M   'P 1'
_cell_length_a   6.91597400
_cell_length_b   7.12006596
_cell_length_c   7.52643516
_cell_angle_alpha   87.06345789
_cell_angle_beta   80.86133743
_cell_angle_gamma   79.87252404
_symmetry_Int_Tables_number   1
_chemical_formula_structural   PH9C(NO)4
_chemical_formula_sum   'P2 H18 C2 N8 O8'
_cell_volume   360.10898973
_cell_formula_units_Z   2
loop_
 _symmetry_equiv_pos_site_id
 _symmetry_equiv_pos_as_xyz
  1  'x, y, z'
loop_
 _atom_site_type_symbol
 _atom_site_label
 _atom_site_symmetry_multiplicity
 _atom_site_fract_x
 _atom_site_fract_y
 _atom_site_fract_z
 _atom_site_occupancy
  P  P0  1  0.29682900  0.75317800  0.99209900  1
  P  P1  1  0.70134400  0.24084100  0.00921800  1
  H  H0  1  0.91814100  0.75026200  0.81660300  1
  H  H1  1  0.08186900  0.24970100  0.18346100  1
  H  H2  1  0.93952700  0.77342900  0.26937800  1
  H  H3  1  0.06030000  0.22695500  0.73028400  1
  H  H4  1  0.45124700  0.49334400  0.84457500  1
  H  H5  1  0.55446600  0.50372500  0.15483300  1
  H  H6  1  0.22445800  0.69028800  0.62328300  1
  H  H7  1  0.77553800  0.30928000  0.37649400  1
  H  H8  1  0.60498100  0.70027300  0.35286100  1
  H  H9  1  0.39509700  0.30001000  0.64748500  1
  H  H10  1  0.99352800  0.01383000  0.99803200  1
  H  H11  1  0.69757900  0.78499300  0.72006200  1
  H  H12  1  0.30283900  0.21320300  0.27885600  1
  H  H13  1  0.60592000  0.92981100  0.35965800  1
  H  H14  1  0.39487500  0.07006800  0.63830300  1
  H  H15  1  0.22930100  0.70692000  0.38757800  1
  H  H16  1  0.77118200  0.29335900  0.61245300  1
  H  H17  1  0.49406000  0.98411600  0.98761300  1
  C  C0  1  0.95356100  0.75070200  0.54093900  1
  C  C1  1  0.04667600  0.24952300  0.45874000  1
  N  N0  1  0.65105300  0.80090900  0.42087000  1
  N  N1  1  0.34886800  0.19976300  0.57917000  1
  N  N2  1  0.85967200  0.76468800  0.39629600  1
  N  N3  1  0.14039500  0.23557800  0.60357800  1
  N  N4  1  0.84854400  0.75740600  0.70636700  1
  N  N5  1  0.15183900  0.24294000  0.29336200  1
  N  N6  1  0.15188000  0.73110800  0.51554100  1
  N  N7  1  0.84838900  0.26916300  0.48433900  1
  O  O0  1  0.42118100  0.90816800  0.90264400  1
  O  O1  1  0.58942200  0.08176200  0.09051400  1
  O  O2  1  0.37165000  0.66497600  0.16261500  1
  O  O3  1  0.63358000  0.33655800  0.83784200  1
  O  O4  1  0.07247300  0.83260800  0.02068300  1
  O  O5  1  0.93318300  0.16762300  0.97689600  1
  O  O6  1  0.32492400  0.59561800  0.84252600  1
  O  O7  1  0.67912800  0.40062200  0.15694800  1
loop_
_geom_bond_atom_site_label_1
_geom_bond_atom_site_label_2
_geom_bond_distance
_geom_bond_site_symmetry_2
H0 N4 1.018117 1_555
H1 N5 1.017624 1_555
H2 N2 1.029458 1_555
H3 N3 1.028695 1_555
H4 O6 1.035936 1_555
H4 O3 1.526218 1_555
H5 O7 1.031046 1_555
H5 O2 1.546949 1_555
H6 N6 1.023643 1_555
H7 N7 1.024605 1_555
H8 N0 1.023051 1_555
H9 N1 1.022802 1_555
H10 O5 1.114032 1_555
H10 O4 1.323383 1_646
H11 N4 1.017377 1_555
H12 N5 1.017707 1_555
H13 N0 1.026465 1_555
H14 N1 1.025474 1_555
H15 N6 1.031837 1_555
H16 N7 1.032317 1_555
H17 O0 1.090464 1_555
H17 O1 1.377253 1_566
C0 N4 1.336661 1_555
C0 N6 1.337671 1_655
C0 N2 1.344395 1_555
C1 N5 1.336747 1_555
C1 N7 1.337409 1_455
C1 N3 1.345003 1_555
N0 N2 1.404160 1_555
N1 N3 1.403179 1_555
O0 P0 1.576209 1_555
O1 P1 1.530789 1_555
O2 P0 1.524237 1_554
O3 P1 1.528867 1_556
O4 P0 1.539980 1_554
O5 P1 1.580175 1_556
O6 P0 1.595885 1_555
O7 P1 1.602499 1_555
