# generated using pymatgen
data_Ba3Te2O9
_symmetry_space_group_name_H-M   'P 1'
_cell_length_a   5.89623769
_cell_length_b   5.89624098
_cell_length_c   14.37498049
_cell_angle_alpha   89.99998960
_cell_angle_beta   90.00000611
_cell_angle_gamma   120.00003308
_symmetry_Int_Tables_number   1
_chemical_formula_structural   Ba3Te2O9
_chemical_formula_sum   'Ba6 Te4 O18'
_cell_volume   432.80070424
_cell_formula_units_Z   2
loop_
 _symmetry_equiv_pos_site_id
 _symmetry_equiv_pos_as_xyz
  1  'x, y, z'
loop_
 _atom_site_type_symbol
 _atom_site_label
 _atom_site_symmetry_multiplicity
 _atom_site_fract_x
 _atom_site_fract_y
 _atom_site_fract_z
 _atom_site_occupancy
  Ba  Ba0  1  0.33333510  0.66666803  0.43849774  1
  Ba  Ba1  1  0.66666782  0.33333410  0.93850334  1
  Ba  Ba2  1  0.66666708  0.33333366  0.56149646  1
  Ba  Ba3  1  0.33333329  0.66666688  0.06150241  1
  Ba  Ba4  1  0.66666680  0.33333340  0.24999996  1
  Ba  Ba5  1  0.33333369  0.66666719  0.75000008  1
  Te  Te0  1  0.00000124  0.00000099  0.35047592  1
  Te  Te1  1  0.00000090  0.00000059  0.85048004  1
  Te  Te2  1  0.00000023  0.00000033  0.64952067  1
  Te  Te3  1  -0.00000090  -0.00000110  0.14952314  1
  O  O0  1  0.83710293  0.16289293  0.40877109  1
  O  O1  1  0.83710285  0.67421076  0.40877113  1
  O  O2  1  0.32579067  0.16289536  0.40877051  1
  O  O3  1  0.67421442  0.83710727  0.90877731  1
  O  O4  1  0.16289413  0.32578652  0.59122283  1
  O  O5  1  0.16289456  0.83710660  0.90877774  1
  O  O6  1  0.16289474  0.32578881  0.90877775  1
  O  O7  1  0.83710329  0.16289394  0.09122842  1
  O  O8  1  0.32578849  0.16289197  0.09122866  1
  O  O9  1  0.67421220  0.83710646  0.59122292  1
  O  O10  1  0.14219892  0.28439862  0.24999958  1
  O  O11  1  0.85779973  0.14220154  0.75000021  1
  O  O12  1  0.28440389  0.14220214  0.75000053  1
  O  O13  1  0.71559904  0.85779945  0.24999939  1
  O  O14  1  0.14219843  0.85779961  0.24999977  1
  O  O15  1  0.85779963  0.71559835  0.75000011  1
  O  O16  1  0.83710142  0.67420740  0.09122850  1
  O  O17  1  0.16289441  0.83710719  0.59122281  1
loop_
_geom_bond_atom_site_label_1
_geom_bond_atom_site_label_2
_geom_bond_distance
_geom_bond_site_symmetry_2
Ba0 O9 2.801718 1_555
Ba0 O17 2.801727 1_555
Ba0 O4 2.801731 1_555
Ba0 O0 2.979154 1_565
Ba0 O1 2.979155 1_555
Ba0 O2 2.979176 1_565
Ba0 O2 2.979182 1_555
Ba0 O0 2.979197 1_455
Ba0 O1 2.979197 1_455
Ba0 O13 3.339516 1_555
Ba0 O14 3.339525 1_555
Ba0 O10 3.339531 1_555
Ba1 O16 2.801707 1_556
Ba1 O7 2.801713 1_556
Ba1 O8 2.801727 1_556
Ba1 O5 2.979171 1_655
Ba1 O6 2.979172 1_655
Ba1 O5 2.979176 1_545
Ba1 O3 2.979176 1_555
Ba1 O6 2.979177 1_555
Ba1 O3 2.979178 1_545
Ba1 O12 3.339568 1_555
Ba1 O15 3.339574 1_555
Ba1 O11 3.339575 1_555
Ba2 O0 2.801720 1_555
Ba2 O1 2.801720 1_555
Ba2 O2 2.801725 1_555
Ba2 O4 2.979172 1_555
Ba2 O17 2.979173 1_545
Ba2 O9 2.979176 1_545
Ba2 O17 2.979178 1_655
Ba2 O9 2.979179 1_555
Ba2 O4 2.979179 1_655
Ba2 O12 3.339581 1_555
Ba2 O15 3.339581 1_555
Ba2 O11 3.339582 1_555
Ba3 O6 2.801716 1_554
Ba3 O5 2.801717 1_554
Ba3 O3 2.801730 1_554
Ba3 O16 2.979162 1_555
Ba3 O8 2.979163 1_565
Ba3 O7 2.979166 1_565
Ba3 O7 2.979183 1_455
Ba3 O16 2.979187 1_455
Ba3 O8 2.979192 1_555
Ba3 O13 3.339506 1_555
Ba3 O10 3.339516 1_555
Ba3 O14 3.339517 1_555
Ba4 O2 2.870319 1_555
Ba4 O16 2.870323 1_555
Ba4 O0 2.870328 1_555
Ba4 O1 2.870331 1_555
Ba4 O7 2.870331 1_555
Ba4 O8 2.870334 1_555
Ba4 O14 2.958682 1_655
Ba4 O10 2.958687 1_655
Ba4 O13 2.958689 1_555
Ba4 O13 2.958690 1_545
Ba4 O10 2.958692 1_555
Ba4 O14 2.958695 1_545
Ba5 O9 2.870402 1_555
Ba5 O17 2.870406 1_555
Ba5 O6 2.870408 1_555
Ba5 O5 2.870409 1_555
Ba5 O3 2.870410 1_555
Ba5 O4 2.870411 1_555
Ba5 O15 2.958686 1_455
Ba5 O11 2.958686 1_455
Ba5 O12 2.958688 1_565
Ba5 O11 2.958688 1_565
Ba5 O12 2.958690 1_555
Ba5 O15 2.958690 1_555
O0 Te0 1.862722 1_655
O1 Te0 1.862721 1_665
O2 Te0 1.862713 1_555
O3 Te1 1.862717 1_665
O4 Te2 1.862720 1_555
O5 Te1 1.862726 1_565
O6 Te1 1.862728 1_555
O7 Te3 1.862721 1_655
O8 Te3 1.862712 1_555
O9 Te2 1.862727 1_665
O10 Te0 2.048187 1_555
O10 Te3 2.048196 1_555
O11 Te2 2.048235 1_655
O11 Te1 2.048239 1_655
O12 Te1 2.048238 1_555
O12 Te2 2.048244 1_555
O13 Te3 2.048194 1_665
O13 Te0 2.048205 1_665
O14 Te0 2.048189 1_565
O14 Te3 2.048193 1_565
O15 Te2 2.048234 1_665
O15 Te1 2.048240 1_665
O16 Te3 1.862724 1_665
O17 Te2 1.862726 1_565
