# generated using pymatgen
data_K3NaMo5Se2O23
_symmetry_space_group_name_H-M   'P 1'
_cell_length_a   9.98725499
_cell_length_b   24.03071955
_cell_length_c   10.40838604
_cell_angle_alpha   90.00000000
_cell_angle_beta   113.66536142
_cell_angle_gamma   90.00000000
_symmetry_Int_Tables_number   1
_chemical_formula_structural   K3NaMo5Se2O23
_chemical_formula_sum   'K12 Na4 Mo20 Se8 O92'
_cell_volume   2287.95214729
_cell_formula_units_Z   4
loop_
 _symmetry_equiv_pos_site_id
 _symmetry_equiv_pos_as_xyz
  1  'x, y, z'
loop_
 _atom_site_type_symbol
 _atom_site_label
 _atom_site_symmetry_multiplicity
 _atom_site_fract_x
 _atom_site_fract_y
 _atom_site_fract_z
 _atom_site_occupancy
  K  K0  1  0.59110604  0.61699486  0.97245704  1
  K  K1  1  0.09110604  0.88300514  0.47245704  1
  K  K2  1  0.40889396  0.38300514  0.02754296  1
  K  K3  1  0.90889396  0.11699486  0.52754296  1
  K  K4  1  0.06620214  0.57630921  0.21239496  1
  K  K5  1  0.56620214  0.92369079  0.71239496  1
  K  K6  1  0.93379786  0.42369079  0.78760504  1
  K  K7  1  0.43379786  0.07630921  0.28760504  1
  K  K8  1  0.92772593  0.74159369  0.01709810  1
  K  K9  1  0.42772593  0.75840631  0.51709810  1
  K  K10  1  0.07227407  0.25840631  0.98290190  1
  K  K11  1  0.57227407  0.24159369  0.48290190  1
  Na  Na0  1  0.43962940  0.52255485  0.30057582  1
  Na  Na1  1  0.93962940  0.97744515  0.80057582  1
  Na  Na2  1  0.56037060  0.47744515  0.69942418  1
  Na  Na3  1  0.06037060  0.02255485  0.19942418  1
  Mo  Mo0  1  0.38993359  0.91607496  0.32644940  1
  Mo  Mo1  1  0.88993359  0.58392504  0.82644940  1
  Mo  Mo2  1  0.61006641  0.08392504  0.67355060  1
  Mo  Mo3  1  0.11006641  0.41607496  0.17355060  1
  Mo  Mo4  1  0.73653101  0.96099171  0.37870551  1
  Mo  Mo5  1  0.23653101  0.53900829  0.87870551  1
  Mo  Mo6  1  0.26346899  0.03900829  0.62129449  1
  Mo  Mo7  1  0.76346899  0.46099171  0.12129449  1
  Mo  Mo8  1  0.28981440  0.80460202  0.10106827  1
  Mo  Mo9  1  0.78981440  0.69539798  0.60106827  1
  Mo  Mo10  1  0.71018560  0.19539798  0.89893173  1
  Mo  Mo11  1  0.21018560  0.30460202  0.39893173  1
  Mo  Mo12  1  0.80085374  0.89532365  0.08146398  1
  Mo  Mo13  1  0.30085374  0.60467635  0.58146398  1
  Mo  Mo14  1  0.19914626  0.10467635  0.91853602  1
  Mo  Mo15  1  0.69914626  0.39532365  0.41853602  1
  Mo  Mo16  1  0.54361794  0.79107554  0.95464441  1
  Mo  Mo17  1  0.04361794  0.70892446  0.45464441  1
  Mo  Mo18  1  0.45638206  0.20892446  0.04535559  1
  Mo  Mo19  1  0.95638206  0.29107554  0.54535559  1
  Se  Se0  1  0.67773741  0.81434669  0.32310806  1
  Se  Se1  1  0.17773741  0.68565331  0.82310806  1
  Se  Se2  1  0.32226259  0.18565331  0.67689194  1
  Se  Se3  1  0.82226259  0.31434669  0.17689194  1
  Se  Se4  1  0.42547185  0.93305647  0.00955591  1
  Se  Se5  1  0.92547185  0.56694353  0.50955591  1
  Se  Se6  1  0.57452815  0.06694353  0.99044409  1
  Se  Se7  1  0.07452815  0.43305647  0.49044409  1
  O  O0  1  0.36314085  0.88116482  0.46355570  1
  O  O1  1  0.86314085  0.61883518  0.96355570  1
  O  O2  1  0.63685915  0.11883518  0.53644430  1
  O  O3  1  0.13685915  0.38116482  0.03644430  1
  O  O4  1  0.28268711  0.97676967  0.29785161  1
  O  O5  1  0.78268711  0.52323033  0.79785161  1
  O  O6  1  0.71731289  0.02323033  0.70214839  1
  O  O7  1  0.21731289  0.47676967  0.20214839  1
  O  O8  1  0.70044615  0.03132725  0.33137444  1
  O  O9  1  0.20044615  0.46867275  0.83137444  1
  O  O10  1  0.29955385  0.96867275  0.66862556  1
  O  O11  1  0.79955385  0.53132725  0.16862556  1
  O  O12  1  0.88894900  0.96628258  0.53897953  1
  O  O13  1  0.38894900  0.53371742  0.03897953  1
  O  O14  1  0.11105100  0.03371742  0.46102047  1
  O  O15  1  0.61105100  0.46628258  0.96102047  1
  O  O16  1  0.12996590  0.79807331  0.94987861  1
  O  O17  1  0.62996590  0.70192669  0.44987861  1
  O  O18  1  0.87003410  0.20192669  0.05012139  1
  O  O19  1  0.37003410  0.29807331  0.55012139  1
  O  O20  1  0.25434817  0.75945789  0.21491938  1
  O  O21  1  0.75434817  0.74054211  0.71491938  1
  O  O22  1  0.74565183  0.24054211  0.78508062  1
  O  O23  1  0.24565183  0.25945789  0.28508062  1
  O  O24  1  0.86136128  0.94167297  0.98259125  1
  O  O25  1  0.36136128  0.55832703  0.48259125  1
  O  O26  1  0.13863872  0.05832703  0.01740875  1
  O  O27  1  0.63863872  0.44167297  0.51740875  1
  O  O28  1  0.95459766  0.85452041  0.16868792  1
  O  O29  1  0.45459766  0.64547959  0.66868792  1
  O  O30  1  0.04540234  0.14547959  0.83131208  1
  O  O31  1  0.54540234  0.35452041  0.33131208  1
  O  O32  1  0.42366806  0.78955212  0.77847545  1
  O  O33  1  0.92366806  0.71044788  0.27847545  1
  O  O34  1  0.57633194  0.21044788  0.22152455  1
  O  O35  1  0.07633194  0.28955212  0.72152455  1
  O  O36  1  0.64477148  0.72976034  0.97885607  1
  O  O37  1  0.14477148  0.77023966  0.47885607  1
  O  O38  1  0.35522852  0.27023966  0.02114393  1
  O  O39  1  0.85522852  0.22976034  0.52114393  1
  O  O40  1  0.57792900  0.94370664  0.97866391  1
  O  O41  1  0.07792900  0.55629336  0.47866391  1
  O  O42  1  0.42207100  0.05629336  0.02133609  1
  O  O43  1  0.92207100  0.44370664  0.52133609  1
  O  O44  1  0.68284759  0.84543615  0.93014201  1
  O  O45  1  0.18284759  0.65456385  0.43014201  1
  O  O46  1  0.31715241  0.15456385  0.06985799  1
  O  O47  1  0.81715241  0.34543615  0.56985799  1
  O  O48  1  0.50119854  0.83096043  0.30553317  1
  O  O49  1  0.00119854  0.66903957  0.80553317  1
  O  O50  1  0.49880146  0.16903957  0.69446683  1
  O  O51  1  0.99880146  0.33096043  0.19446683  1
  O  O52  1  0.42785693  0.76139654  0.05495298  1
  O  O53  1  0.92785693  0.73860346  0.55495298  1
  O  O54  1  0.57214307  0.23860346  0.94504702  1
  O  O55  1  0.07214307  0.26139654  0.44504702  1
  O  O56  1  0.58542807  0.94483974  0.44783680  1
  O  O57  1  0.08542807  0.55516026  0.94783680  1
  O  O58  1  0.41457193  0.05516026  0.55216320  1
  O  O59  1  0.91457193  0.44483974  0.05216320  1
  O  O60  1  0.81789107  0.94186308  0.24162355  1
  O  O61  1  0.31789107  0.55813692  0.74162355  1
  O  O62  1  0.18210893  0.05813692  0.75837645  1
  O  O63  1  0.68210893  0.44186308  0.25837645  1
  O  O64  1  0.67315562  0.83308986  0.15718246  1
  O  O65  1  0.17315562  0.66691014  0.65718246  1
  O  O66  1  0.32684438  0.16691014  0.84281754  1
  O  O67  1  0.82684438  0.33308986  0.34281754  1
  O  O68  1  0.39474624  0.86203658  0.98057143  1
  O  O69  1  0.89474624  0.63796342  0.48057143  1
  O  O70  1  0.60525376  0.13796342  0.01942857  1
  O  O71  1  0.10525376  0.36203658  0.51942857  1
  O  O72  1  0.25592971  0.87854290  0.16203351  1
  O  O73  1  0.75592971  0.62145710  0.66203351  1
  O  O74  1  0.74407029  0.12145710  0.83796649  1
  O  O75  1  0.24407029  0.37854290  0.33796649  1
  O  O76  1  0.77888039  0.86778917  0.41989173  1
  O  O77  1  0.27888039  0.63221083  0.91989173  1
  O  O78  1  0.22111961  0.13221083  0.58010827  1
  O  O79  1  0.72111961  0.36778917  0.08010827  1
  O  O80  1  0.50600374  0.93831176  0.19551101  1
  O  O81  1  0.00600374  0.56168824  0.69551101  1
  O  O82  1  0.49399626  0.06168824  0.80448899  1
  O  O83  1  0.99399626  0.43831176  0.30448899  1
  O  O84  1  0.40173924  0.63847412  0.21822678  1
  O  O85  1  0.90173924  0.86152588  0.71822678  1
  O  O86  1  0.59826076  0.36152588  0.78177322  1
  O  O87  1  0.09826076  0.13847412  0.28177322  1
  O  O88  1  0.52837982  0.62769165  0.23520928  1
  O  O89  1  0.02837982  0.87230835  0.73520928  1
  O  O90  1  0.47162018  0.37230835  0.76479072  1
  O  O91  1  0.97162018  0.12769165  0.26479072  1
loop_
_geom_bond_atom_site_label_1
_geom_bond_atom_site_label_2
_geom_bond_distance
_geom_bond_site_symmetry_2
K0 O1 2.755731 1_555
K0 O36 2.757943 1_555
K0 O77 2.964301 1_555
K0 O29 2.977153 1_555
K0 O88 3.051753 1_556
K0 O11 3.054275 1_556
K0 O13 3.111729 1_556
K0 O61 3.155258 1_555
K1 O0 2.755731 1_555
K1 O37 2.757943 1_555
K1 O76 2.964301 1_455
K1 O28 2.977153 1_455
K1 O89 3.051753 1_555
K1 O10 3.054275 1_555
K1 O12 3.111729 1_455
K1 O60 3.155258 1_455
K2 O3 2.755731 1_555
K2 O38 2.757943 1_555
K2 O79 2.964301 1_555
K2 O31 2.977153 1_555
K2 O90 3.051753 1_554
K2 O9 3.054275 1_554
K2 O15 3.111729 1_554
K2 O63 3.155258 1_555
K3 O2 2.755731 1_555
K3 O39 2.757943 1_555
K3 O78 2.964301 1_655
K3 O30 2.977153 1_655
K3 O91 3.051753 1_555
K3 O8 3.054275 1_555
K3 O14 3.111729 1_655
K3 O62 3.155258 1_655
K4 O11 2.737527 1_455
K4 O1 2.765622 1_454
K4 O41 2.768632 1_555
K4 O45 2.812553 1_555
K4 O7 2.853053 1_555
K4 O57 2.881331 1_554
K4 O25 3.182802 1_555
K5 O10 2.737527 1_555
K5 O0 2.765622 1_555
K5 O40 2.768632 1_555
K5 O44 2.812553 1_555
K5 O6 2.853053 1_565
K5 O56 2.881331 1_555
K5 O24 3.182802 1_555
K6 O9 2.737527 1_655
K6 O3 2.765622 1_656
K6 O43 2.768632 1_555
K6 O47 2.812553 1_555
K6 O5 2.853053 1_555
K6 O59 2.881331 1_556
K6 O27 3.182802 1_555
K7 O8 2.737527 1_555
K7 O2 2.765622 1_555
K7 O42 2.768632 1_555
K7 O46 2.812553 1_555
K7 O4 2.853053 1_545
K7 O58 2.881331 1_555
K7 O26 3.182802 1_555
K8 O36 2.705961 1_554
K8 O16 2.746957 1_654
K8 O33 2.837525 1_555
K8 O21 2.918754 1_554
K8 O1 3.023311 1_554
K8 O28 3.096092 1_555
K8 O20 3.110114 1_655
K8 O49 3.118419 1_654
K8 O44 3.354179 1_554
K9 O37 2.705961 1_555
K9 O17 2.746957 1_555
K9 O32 2.837525 1_555
K9 O20 2.918754 1_555
K9 O0 3.023311 1_555
K9 O29 3.096092 1_555
K9 O21 3.110114 1_555
K9 O48 3.118419 1_555
K9 O45 3.354179 1_555
K10 O38 2.705961 1_556
K10 O18 2.746957 1_456
K10 O35 2.837525 1_555
K10 O23 2.918754 1_556
K10 O3 3.023311 1_556
K10 O30 3.096092 1_555
K10 O22 3.110114 1_455
K10 O51 3.118419 1_456
K10 O46 3.354179 1_556
K11 O39 2.705961 1_555
K11 O19 2.746957 1_555
K11 O34 2.837525 1_555
K11 O22 2.918754 1_555
K11 O2 3.023311 1_555
K11 O31 3.096092 1_555
K11 O23 3.110114 1_555
K11 O50 3.118419 1_555
K11 O47 3.354179 1_555
Na0 O7 2.316007 1_555
Na0 O25 2.475463 1_555
Na0 O13 2.575925 1_555
Na0 O88 2.848849 1_555
Na0 O84 2.894334 1_555
Na0 O27 3.036547 1_555
Na1 O6 2.316007 1_565
Na1 O24 2.475463 1_555
Na1 O12 2.575925 1_555
Na1 O89 2.848849 1_655
Na1 O85 2.894334 1_555
Na1 O26 3.036547 1_666
Na2 O5 2.316007 1_555
Na2 O27 2.475463 1_555
Na2 O15 2.575925 1_555
Na2 O90 2.848849 1_555
Na2 O86 2.894334 1_555
Na2 O25 3.036547 1_555
Na3 O4 2.316007 1_545
Na3 O26 2.475463 1_555
Na3 O14 2.575925 1_555
Na3 O91 2.848849 1_455
Na3 O87 2.894334 1_555
Na3 O24 3.036547 1_444
Mo0 O4 1.762736 1_555
Mo0 O0 1.765905 1_555
Mo0 O72 1.922118 1_555
Mo0 O56 1.976322 1_555
Mo0 O80 2.180599 1_555
Mo0 O48 2.379065 1_555
Mo1 O5 1.762736 1_555
Mo1 O1 1.765905 1_555
Mo1 O73 1.922118 1_555
Mo1 O57 1.976322 1_655
Mo1 O81 2.180599 1_655
Mo1 O49 2.379065 1_655
Mo2 O6 1.762736 1_555
Mo2 O2 1.765905 1_555
Mo2 O74 1.922118 1_555
Mo2 O58 1.976322 1_555
Mo2 O82 2.180599 1_555
Mo2 O50 2.379065 1_555
Mo3 O7 1.762736 1_555
Mo3 O3 1.765905 1_555
Mo3 O75 1.922118 1_555
Mo3 O59 1.976322 1_455
Mo3 O83 2.180599 1_455
Mo3 O51 2.379065 1_455
Mo4 O12 1.754324 1_555
Mo4 O8 1.756948 1_565
Mo4 O56 1.953847 1_555
Mo4 O60 1.959094 1_555
Mo4 O76 2.287677 1_555
Mo4 O80 2.389410 1_555
Mo5 O13 1.754324 1_556
Mo5 O9 1.756948 1_555
Mo5 O57 1.953847 1_555
Mo5 O61 1.959094 1_555
Mo5 O77 2.287677 1_555
Mo5 O81 2.389410 1_555
Mo6 O14 1.754324 1_555
Mo6 O10 1.756948 1_545
Mo6 O58 1.953847 1_555
Mo6 O62 1.959094 1_555
Mo6 O78 2.287677 1_555
Mo6 O82 2.389410 1_555
Mo7 O15 1.754324 1_554
Mo7 O11 1.756948 1_555
Mo7 O59 1.953847 1_555
Mo7 O63 1.959094 1_555
Mo7 O79 2.287677 1_555
Mo7 O83 2.389410 1_555
Mo8 O16 1.741497 1_554
Mo8 O20 1.744580 1_555
Mo8 O52 1.933992 1_555
Mo8 O72 1.961320 1_555
Mo8 O68 2.373038 1_554
Mo8 O48 2.404241 1_555
Mo9 O17 1.741497 1_555
Mo9 O21 1.744580 1_555
Mo9 O53 1.933992 1_555
Mo9 O73 1.961320 1_555
Mo9 O69 2.373038 1_555
Mo9 O49 2.404241 1_655
Mo10 O18 1.741497 1_556
Mo10 O22 1.744580 1_555
Mo10 O54 1.933992 1_555
Mo10 O74 1.961320 1_555
Mo10 O70 2.373038 1_556
Mo10 O50 2.404241 1_555
Mo11 O19 1.741497 1_555
Mo11 O23 1.744580 1_555
Mo11 O55 1.933992 1_555
Mo11 O75 1.961320 1_555
Mo11 O71 2.373038 1_555
Mo11 O51 2.404241 1_455
Mo12 O28 1.739041 1_555
Mo12 O24 1.778780 1_554
Mo12 O44 1.953638 1_554
Mo12 O60 1.957270 1_555
Mo12 O64 2.300244 1_555
Mo12 O40 2.353965 1_554
Mo13 O29 1.739041 1_555
Mo13 O25 1.778780 1_555
Mo13 O45 1.953638 1_555
Mo13 O61 1.957270 1_555
Mo13 O65 2.300244 1_555
Mo13 O41 2.353965 1_555
Mo14 O30 1.739041 1_555
Mo14 O26 1.778780 1_556
Mo14 O46 1.953638 1_556
Mo14 O62 1.957270 1_555
Mo14 O66 2.300244 1_555
Mo14 O42 2.353965 1_556
Mo15 O31 1.739041 1_555
Mo15 O27 1.778780 1_555
Mo15 O47 1.953638 1_555
Mo15 O63 1.957270 1_555
Mo15 O67 2.300244 1_555
Mo15 O43 2.353965 1_555
Mo16 O32 1.742197 1_555
Mo16 O36 1.746647 1_555
Mo16 O52 1.975948 1_556
Mo16 O44 1.997440 1_555
Mo16 O64 2.224344 1_556
Mo16 O68 2.348067 1_555
Mo17 O33 1.742197 1_455
Mo17 O37 1.746647 1_555
Mo17 O53 1.975948 1_455
Mo17 O45 1.997440 1_555
Mo17 O65 2.224344 1_555
Mo17 O69 2.348067 1_455
Mo18 O34 1.742197 1_555
Mo18 O38 1.746647 1_555
Mo18 O54 1.975948 1_554
Mo18 O46 1.997440 1_555
Mo18 O66 2.224344 1_554
Mo18 O70 2.348067 1_555
Mo19 O35 1.742197 1_655
Mo19 O39 1.746647 1_555
Mo19 O55 1.975948 1_655
Mo19 O47 1.997440 1_555
Mo19 O67 2.224344 1_555
Mo19 O71 2.348067 1_655
O40 Se4 1.697148 1_556
O41 Se5 1.697148 1_455
O42 Se6 1.697148 1_554
O43 Se7 1.697148 1_655
O48 Se0 1.744303 1_555
O49 Se1 1.744303 1_555
O50 Se2 1.744303 1_555
O51 Se3 1.744303 1_555
O64 Se0 1.767516 1_555
O65 Se1 1.767516 1_555
O66 Se2 1.767516 1_555
O67 Se3 1.767516 1_555
O68 Se4 1.738834 1_556
O69 Se5 1.738834 1_555
O70 Se6 1.738834 1_554
O71 Se7 1.738834 1_555
O76 Se0 1.693396 1_555
O77 Se1 1.693396 1_555
O78 Se2 1.693396 1_555
O79 Se3 1.693396 1_555
O80 Se4 1.777432 1_555
O81 Se5 1.777432 1_455
O82 Se6 1.777432 1_555
O83 Se7 1.777432 1_655
O84 O88 1.232317 1_555
O85 O89 1.232317 1_655
O86 O90 1.232317 1_555
O87 O91 1.232317 1_455
