# generated using pymatgen
data_RbB2Se3O10
_symmetry_space_group_name_H-M   'P 1'
_cell_length_a   4.73891300
_cell_length_b   12.18255500
_cell_length_c   16.64371200
_cell_angle_alpha   90.00000000
_cell_angle_beta   90.00000000
_cell_angle_gamma   90.00000000
_symmetry_Int_Tables_number   1
_chemical_formula_structural   RbB2Se3O10
_chemical_formula_sum   'Rb4 B8 Se12 O40'
_cell_volume   960.87591733
_cell_formula_units_Z   4
loop_
 _symmetry_equiv_pos_site_id
 _symmetry_equiv_pos_as_xyz
  1  'x, y, z'
loop_
 _atom_site_type_symbol
 _atom_site_label
 _atom_site_symmetry_multiplicity
 _atom_site_fract_x
 _atom_site_fract_y
 _atom_site_fract_z
 _atom_site_occupancy
  Rb  Rb0  1  0.99640000  0.28357900  0.85567700  1
  Rb  Rb1  1  0.50360000  0.71642100  0.35567700  1
  Rb  Rb2  1  0.49640000  0.21642100  0.14432300  1
  Rb  Rb3  1  0.00360000  0.78357900  0.64432300  1
  B  B0  1  0.45464700  0.84340800  0.84356300  1
  B  B1  1  0.04535300  0.15659200  0.34356300  1
  B  B2  1  0.95464700  0.65659200  0.15643700  1
  B  B3  1  0.54535300  0.34340800  0.65643700  1
  B  B4  1  0.45527900  0.03218800  0.91301100  1
  B  B5  1  0.04472100  0.96781200  0.41301100  1
  B  B6  1  0.95527900  0.46781200  0.08698900  1
  B  B7  1  0.54472100  0.53218800  0.58698900  1
  Se  Se0  1  0.95030300  0.01401800  0.00758200  1
  Se  Se1  1  0.54969700  0.98598200  0.50758200  1
  Se  Se2  1  0.45030300  0.48598200  0.99241800  1
  Se  Se3  1  0.04969700  0.51401800  0.49241800  1
  Se  Se4  1  0.47840700  0.02759100  0.73882100  1
  Se  Se5  1  0.02159300  0.97240900  0.23882100  1
  Se  Se6  1  0.97840700  0.47240900  0.26117900  1
  Se  Se7  1  0.52159300  0.52759100  0.76117900  1
  Se  Se8  1  0.95329200  0.74122600  0.90408300  1
  Se  Se9  1  0.54670800  0.25877400  0.40408300  1
  Se  Se10  1  0.45329200  0.75877400  0.09591700  1
  Se  Se11  1  0.04670800  0.24122600  0.59591700  1
  O  O0  1  0.16614900  0.07332200  0.93038800  1
  O  O1  1  0.33385100  0.92667800  0.43038800  1
  O  O2  1  0.66614900  0.42667800  0.06961200  1
  O  O3  1  0.83385100  0.57332200  0.56961200  1
  O  O4  1  0.62307900  0.73956900  0.85552500  1
  O  O5  1  0.87692100  0.26043100  0.35552500  1
  O  O6  1  0.12307900  0.76043100  0.14447500  1
  O  O7  1  0.37692100  0.23956900  0.64447500  1
  O  O8  1  0.48142400  0.91429400  0.91084900  1
  O  O9  1  0.01857600  0.08570600  0.41084900  1
  O  O10  1  0.98142400  0.58570600  0.08915100  1
  O  O11  1  0.51857600  0.41429400  0.58915100  1
  O  O12  1  0.15636600  0.80058600  0.82639200  1
  O  O13  1  0.34363400  0.19941400  0.32639200  1
  O  O14  1  0.65636600  0.69941400  0.17360800  1
  O  O15  1  0.84363400  0.30058600  0.67360800  1
  O  O16  1  0.64149400  0.08314800  0.97468300  1
  O  O17  1  0.85850600  0.91685200  0.47468300  1
  O  O18  1  0.14149400  0.41685200  0.02531700  1
  O  O19  1  0.35850600  0.58314800  0.52531700  1
  O  O20  1  0.53787900  0.08817900  0.83437000  1
  O  O21  1  0.96212100  0.91182100  0.33437000  1
  O  O22  1  0.03787900  0.41182100  0.16563000  1
  O  O23  1  0.46212100  0.58817900  0.66563000  1
  O  O24  1  0.11691900  0.03106000  0.73089200  1
  O  O25  1  0.38308100  0.96894000  0.23089200  1
  O  O26  1  0.61691900  0.46894000  0.26910800  1
  O  O27  1  0.88308100  0.53106000  0.76910800  1
  O  O28  1  0.54552100  0.88835200  0.76473000  1
  O  O29  1  0.95447900  0.11164800  0.26473000  1
  O  O30  1  0.04552100  0.61164800  0.23527000  1
  O  O31  1  0.45447900  0.38835200  0.73527000  1
  O  O32  1  0.01463900  0.60512400  0.90069400  1
  O  O33  1  0.48536100  0.39487600  0.40069400  1
  O  O34  1  0.51463900  0.89487600  0.09930600  1
  O  O35  1  0.98536100  0.10512400  0.59930600  1
  O  O36  1  0.01329200  0.08877800  0.08933100  1
  O  O37  1  0.48670800  0.91122200  0.58933100  1
  O  O38  1  0.51329200  0.41122200  0.91066900  1
  O  O39  1  0.98670800  0.58877800  0.41066900  1
loop_
_geom_bond_atom_site_label_1
_geom_bond_atom_site_label_2
_geom_bond_distance
_geom_bond_site_symmetry_2
B0 O8 1.419863 1_555
B0 O28 1.485525 1_555
B0 O4 1.508981 1_555
B0 O12 1.533586 1_555
B1 O9 1.419863 1_555
B1 O29 1.485525 1_455
B1 O5 1.508981 1_455
B1 O13 1.533586 1_555
B2 O10 1.419863 1_555
B2 O30 1.485525 1_655
B2 O6 1.508981 1_655
B2 O14 1.533586 1_555
B3 O11 1.419863 1_555
B3 O31 1.485525 1_555
B3 O7 1.508981 1_555
B3 O15 1.533586 1_555
B4 O8 1.442033 1_545
B4 O0 1.487316 1_555
B4 O16 1.489212 1_555
B4 O20 1.526978 1_555
B5 O9 1.442033 1_565
B5 O1 1.487316 1_555
B5 O17 1.489212 1_455
B5 O21 1.526978 1_455
B6 O10 1.442033 1_555
B6 O2 1.487316 1_555
B6 O18 1.489212 1_655
B6 O22 1.526978 1_655
B7 O11 1.442033 1_555
B7 O3 1.487316 1_555
B7 O19 1.489212 1_555
B7 O23 1.526978 1_555
O0 Se0 1.794141 1_456
O0 Rb0 2.958789 1_455
O1 Se1 1.794141 1_555
O1 Rb1 2.958789 1_555
O2 Se2 1.794141 1_554
O2 Rb2 2.958789 1_555
O3 Se3 1.794141 1_655
O3 Rb3 2.958789 1_655
O4 Se8 1.761343 1_555
O5 Se9 1.761343 1_555
O6 Se10 1.761343 1_555
O7 Se11 1.761343 1_555
O12 Se8 1.766662 1_455
O12 Rb3 3.122461 1_555
O13 Se9 1.766662 1_555
O13 Rb2 3.122461 1_555
O14 Se10 1.766662 1_555
O14 Rb1 3.122461 1_555
O15 Se11 1.766662 1_655
O15 Rb0 3.122461 1_555
O16 Se0 1.775017 1_556
O16 Rb2 3.328766 1_556
O17 Se1 1.775017 1_555
O17 Rb3 3.328766 1_655
O18 Se2 1.775017 1_554
O18 Rb0 3.328766 1_454
O19 Se3 1.775017 1_555
O19 Rb1 3.328766 1_555
O20 Se4 1.775744 1_555
O20 Rb0 3.242508 1_555
O21 Se5 1.775744 1_655
O21 Rb1 3.242508 1_555
O22 Se6 1.775744 1_455
O22 Rb2 3.242508 1_555
O23 Se7 1.775744 1_555
O23 Rb3 3.242508 1_555
O24 Se4 1.718656 1_555
O24 Rb3 3.384420 1_545
O25 Se5 1.718656 1_555
O25 Rb2 3.384420 1_565
O26 Se6 1.718656 1_555
O26 Rb1 3.384420 1_555
O27 Se7 1.718656 1_555
O27 Rb0 3.384420 1_555
O28 Se4 1.778903 1_565
O28 Rb3 3.218331 1_655
O29 Se5 1.778903 1_645
O29 Rb2 3.218331 1_555
O30 Se6 1.778903 1_455
O30 Rb1 3.218331 1_555
O31 Se7 1.778903 1_555
O31 Rb0 3.218331 1_455
O32 Se8 1.684308 1_455
O33 Se9 1.684308 1_555
O34 Se10 1.684308 1_555
O35 Se11 1.684308 1_655
O36 Se0 1.664287 1_455
O36 Rb2 2.914993 1_555
O36 Rb2 3.042348 1_455
O37 Se1 1.664287 1_555
O37 Rb3 2.914993 1_555
O37 Rb3 3.042348 1_655
O38 Se2 1.664287 1_555
O38 Rb0 2.914993 1_555
O38 Rb0 3.042348 1_455
O39 Se3 1.664287 1_655
O39 Rb1 2.914993 1_555
O39 Rb1 3.042348 1_655
