# generated using pymatgen
data_Np2InPd2
_symmetry_space_group_name_H-M   'P 1'
_cell_length_a   7.66876000
_cell_length_b   7.66876000
_cell_length_c   3.81066100
_cell_angle_alpha   90.00000000
_cell_angle_beta   90.00000000
_cell_angle_gamma   90.00000000
_symmetry_Int_Tables_number   1
_chemical_formula_structural   Np2InPd2
_chemical_formula_sum   'Np4 In2 Pd4'
_cell_volume   224.10451589
_cell_formula_units_Z   2
loop_
 _symmetry_equiv_pos_site_id
 _symmetry_equiv_pos_as_xyz
  1  'x, y, z'
loop_
 _atom_site_type_symbol
 _atom_site_label
 _atom_site_symmetry_multiplicity
 _atom_site_fract_x
 _atom_site_fract_y
 _atom_site_fract_z
 _atom_site_occupancy
  Np  Np0  1  0.67251100  0.17251100  0.50000000  1
  Np  Np1  1  0.32748900  0.82748900  0.50000000  1
  Np  Np2  1  0.17251100  0.32748900  0.50000000  1
  Np  Np3  1  0.82748900  0.67251100  0.50000000  1
  In  In0  1  0.50000000  0.50000000  0.00000000  1
  In  In1  1  0.00000000  0.00000000  0.00000000  1
  Pd  Pd0  1  0.12997700  0.62997700  0.00000000  1
  Pd  Pd1  1  0.87002300  0.37002300  0.00000000  1
  Pd  Pd2  1  0.62997700  0.87002300  0.00000000  1
  Pd  Pd3  1  0.37002300  0.12997700  0.00000000  1
loop_
_geom_bond_atom_site_label_1
_geom_bond_atom_site_label_2
_geom_bond_distance
_geom_bond_site_symmetry_2
Np0 Pd1 2.866836 1_556
Np0 Pd1 2.866836 1_555
Np0 Pd2 3.019557 1_545
Np0 Pd2 3.019557 1_546
Np0 Pd3 3.019557 1_556
Np0 Pd3 3.019557 1_555
Np1 Pd0 2.866836 1_555
Np1 Pd0 2.866836 1_556
Np1 Pd3 3.019557 1_565
Np1 Pd3 3.019557 1_566
Np1 Pd2 3.019557 1_556
Np1 Pd2 3.019557 1_555
Np2 Pd3 2.866836 1_556
Np2 Pd3 2.866836 1_555
Np2 Pd1 3.019557 1_456
Np2 Pd1 3.019557 1_455
Np2 Pd0 3.019557 1_555
Np2 Pd0 3.019557 1_556
Np3 Pd2 2.866836 1_555
Np3 Pd2 2.866836 1_556
Np3 Pd0 3.019557 1_656
Np3 Pd0 3.019557 1_655
Np3 Pd1 3.019557 1_556
Np3 Pd1 3.019557 1_555
In0 Pd1 3.007592 1_555
In0 Pd2 3.007592 1_555
In0 Pd0 3.007592 1_555
In0 Pd3 3.007592 1_555
In0 Np3 3.418738 1_554
In0 Np3 3.418738 1_555
In0 Np1 3.418738 1_554
In0 Np1 3.418738 1_555
In0 Np2 3.418738 1_555
In0 Np0 3.418738 1_555
In0 Np2 3.418738 1_554
In0 Np0 3.418738 1_554
In1 Pd3 3.007592 1_555
In1 Pd0 3.007592 1_545
In1 Pd2 3.007592 1_445
In1 Pd1 3.007592 1_455
In1 Np2 3.418738 1_554
In1 Np2 3.418738 1_555
In1 Np0 3.418738 1_455
In1 Np0 3.418738 1_454
In1 Np1 3.418738 1_544
In1 Np1 3.418738 1_545
In1 Np3 3.418738 1_445
In1 Np3 3.418738 1_444
Pd0 Pd1 2.819270 1_455
Pd2 Pd3 2.819270 1_565
