# generated using pymatgen
data_Ba(SO4)2
_symmetry_space_group_name_H-M   'P 1'
_cell_length_a   6.87980098
_cell_length_b   6.87980098
_cell_length_c   10.84479641
_cell_angle_alpha   70.35381935
_cell_angle_beta   70.35381935
_cell_angle_gamma   58.96088545
_symmetry_Int_Tables_number   1
_chemical_formula_structural   Ba(SO4)2
_chemical_formula_sum   'Ba2 S4 O16'
_cell_volume   405.67997578
_cell_formula_units_Z   2
loop_
 _symmetry_equiv_pos_site_id
 _symmetry_equiv_pos_as_xyz
  1  'x, y, z'
loop_
 _atom_site_type_symbol
 _atom_site_label
 _atom_site_symmetry_multiplicity
 _atom_site_fract_x
 _atom_site_fract_y
 _atom_site_fract_z
 _atom_site_occupancy
  Ba  Ba0  1  0.26531600  0.73468400  0.25000000  1
  Ba  Ba1  1  0.73468400  0.26531600  0.75000000  1
  S  S0  1  0.16935000  0.40733700  0.03333000  1
  S  S1  1  0.59266300  0.83065000  0.46667000  1
  S  S2  1  0.83065000  0.59266300  0.96667000  1
  S  S3  1  0.40733700  0.16935000  0.53333000  1
  O  O0  1  0.13552600  0.52044100  0.13704400  1
  O  O1  1  0.47955900  0.86447400  0.36295600  1
  O  O2  1  0.86447400  0.47955900  0.86295600  1
  O  O3  1  0.52044100  0.13552600  0.63704400  1
  O  O4  1  0.33010500  0.44727300  0.90968600  1
  O  O5  1  0.55272700  0.66989500  0.59031400  1
  O  O6  1  0.66989500  0.55272700  0.09031400  1
  O  O7  1  0.44727300  0.33010500  0.40968600  1
  O  O8  1  0.21587100  0.16410700  0.08241200  1
  O  O9  1  0.83589300  0.78412900  0.41758800  1
  O  O10  1  0.78412900  0.83589300  0.91758800  1
  O  O11  1  0.16410700  0.21587100  0.58241200  1
  O  O12  1  0.03616400  0.91229500  0.54335500  1
  O  O13  1  0.08770500  0.96383600  0.95664500  1
  O  O14  1  0.96383600  0.08770500  0.45664500  1
  O  O15  1  0.91229500  0.03616400  0.04335500  1
loop_
_geom_bond_atom_site_label_1
_geom_bond_atom_site_label_2
_geom_bond_distance
_geom_bond_site_symmetry_2
Ba0 O7 2.633776 1_555
Ba0 O6 2.633776 1_555
Ba0 O0 2.788782 1_555
Ba0 O1 2.788782 1_555
Ba0 O8 2.813514 1_565
Ba0 O9 2.813514 1_455
Ba1 O4 2.633776 1_555
Ba1 O5 2.633776 1_555
Ba1 O2 2.788782 1_555
Ba1 O3 2.788782 1_555
Ba1 O11 2.813514 1_655
Ba1 O10 2.813514 1_545
O0 S0 1.466460 1_555
O1 S1 1.466460 1_555
O2 S2 1.466460 1_555
O3 S3 1.466460 1_555
O4 S0 1.471422 1_556
O5 S1 1.471422 1_555
O6 S2 1.471422 1_554
O7 S3 1.471422 1_555
O8 S0 1.466034 1_555
O9 S1 1.466034 1_555
O10 S2 1.466034 1_555
O11 S3 1.466034 1_555
O12 O14 1.233091 1_465
O13 O15 1.233091 1_466
