# generated using pymatgen
data_VZn(SiO3)2
_symmetry_space_group_name_H-M   'P 1'
_cell_length_a   5.39146356
_cell_length_b   9.49078048
_cell_length_c   9.38454946
_cell_angle_alpha   90.00026035
_cell_angle_beta   90.00019790
_cell_angle_gamma   101.83843971
_symmetry_Int_Tables_number   1
_chemical_formula_structural   VZn(SiO3)2
_chemical_formula_sum   'V4 Zn4 Si8 O24'
_cell_volume   469.98599642
_cell_formula_units_Z   4
loop_
 _symmetry_equiv_pos_site_id
 _symmetry_equiv_pos_as_xyz
  1  'x, y, z'
loop_
 _atom_site_type_symbol
 _atom_site_label
 _atom_site_symmetry_multiplicity
 _atom_site_fract_x
 _atom_site_fract_y
 _atom_site_fract_z
 _atom_site_occupancy
  V  V0  1  0.25001300  0.99996000  0.90381300  1
  V  V1  1  0.25001100  0.50004500  0.59617200  1
  V  V2  1  0.75008200  0.49997500  0.40388800  1
  V  V3  1  0.74991000  0.00006900  0.09610400  1
  Zn  Zn0  1  0.25001700  0.50000000  0.26037300  1
  Zn  Zn1  1  0.75001100  0.99999900  0.76034800  1
  Zn  Zn2  1  0.74999200  0.49999400  0.73965600  1
  Zn  Zn3  1  0.24996900  0.99999000  0.23962500  1
  Si  Si0  1  0.52614700  0.30489500  0.08401600  1
  Si  Si1  1  0.02614800  0.80489100  0.58400000  1
  Si  Si2  1  0.97384600  0.69512300  0.08402000  1
  Si  Si3  1  0.47384500  0.19511100  0.58400500  1
  Si  Si4  1  0.02615500  0.30488800  0.91599300  1
  Si  Si5  1  0.52615300  0.80488400  0.41598000  1
  Si  Si6  1  0.47384900  0.69510300  0.91600400  1
  Si  Si7  1  0.97385000  0.19510600  0.41598800  1
  O  O0  1  0.81831900  0.35597600  0.02372400  1
  O  O1  1  0.31832600  0.85598000  0.52371500  1
  O  O2  1  0.68168200  0.64401300  0.02372400  1
  O  O3  1  0.18167300  0.14401000  0.52371900  1
  O  O4  1  0.18167200  0.64401500  0.97628700  1
  O  O5  1  0.68168000  0.14401800  0.47628100  1
  O  O6  1  0.31833100  0.35598600  0.97628400  1
  O  O7  1  0.81831900  0.85598100  0.47628100  1
  O  O8  1  0.50494000  0.38323900  0.23667600  1
  O  O9  1  0.00491300  0.88323500  0.73665400  1
  O  O10  1  0.99507900  0.61675400  0.23667500  1
  O  O11  1  0.49509300  0.11675400  0.73665600  1
  O  O12  1  0.49509000  0.61676100  0.76334600  1
  O  O13  1  0.99506200  0.11676100  0.26332600  1
  O  O14  1  0.00491500  0.38324300  0.76334200  1
  O  O15  1  0.50491900  0.88324400  0.26332600  1
  O  O16  1  0.96324500  0.12724500  0.91427500  1
  O  O17  1  0.46326500  0.62723900  0.41429300  1
  O  O18  1  0.53677700  0.87274300  0.91427700  1
  O  O19  1  0.03678600  0.37274700  0.41429800  1
  O  O20  1  0.46320000  0.12725600  0.08570300  1
  O  O21  1  0.96322500  0.62724900  0.58572300  1
  O  O22  1  0.03672500  0.87276500  0.08570500  1
  O  O23  1  0.53676000  0.37275300  0.58572200  1
loop_
_geom_bond_atom_site_label_1
_geom_bond_atom_site_label_2
_geom_bond_distance
_geom_bond_site_symmetry_2
O0 Si0 1.650215 1_555
O0 Si4 1.654015 1_654
O1 Si1 1.650229 1_555
O1 Si5 1.654035 1_555
O2 Si2 1.650211 1_555
O2 Si6 1.653946 1_554
O3 Si3 1.650209 1_555
O3 Si7 1.653994 1_455
O4 Si6 1.650216 1_555
O4 Si2 1.654069 1_456
O5 Si7 1.650215 1_555
O5 Si3 1.653992 1_555
O6 Si4 1.650241 1_555
O6 Si0 1.653952 1_556
O7 Si5 1.650224 1_555
O7 Si1 1.653925 1_655
O8 Si0 1.628889 1_555
O8 Zn0 1.947145 1_555
O8 V2 2.199062 1_555
O9 Si1 1.628864 1_555
O9 Zn1 1.947069 1_455
O9 V0 2.198555 1_555
O10 Si2 1.628988 1_555
O10 Zn0 1.947165 1_655
O10 V2 2.198849 1_555
O11 Si3 1.628914 1_555
O11 Zn1 1.947077 1_545
O11 V0 2.198751 1_545
O12 Si6 1.628894 1_555
O12 Zn2 1.947085 1_555
O12 V1 2.198567 1_555
O13 Si7 1.628914 1_555
O13 Zn3 1.947146 1_645
O13 V3 2.198997 1_555
O14 Si4 1.628898 1_555
O14 Zn2 1.947065 1_455
O14 V1 2.198910 1_555
O15 Si5 1.628940 1_555
O15 Zn3 1.947167 1_555
O15 V3 2.199060 1_565
O16 Si4 1.650202 1_655
O16 Zn1 2.072951 1_545
O16 V0 2.150756 1_645
O16 V3 2.263170 1_556
O17 Si5 1.650219 1_555
O17 Zn0 2.072907 1_555
O17 V2 2.150811 1_555
O17 V1 2.263423 1_555
O18 Si6 1.650175 1_555
O18 Zn1 2.073022 1_555
O18 V0 2.150282 1_555
O18 V3 2.263319 1_566
O19 Si7 1.650181 1_455
O19 Zn0 2.072975 1_555
O19 V2 2.150063 1_455
O19 V1 2.263735 1_555
O20 Si0 1.650162 1_555
O20 Zn3 2.073014 1_545
O20 V3 2.149810 1_555
O20 V0 2.263758 1_544
O21 Si1 1.650193 1_655
O21 Zn2 2.073041 1_555
O21 V1 2.150287 1_655
O21 V2 2.263185 1_555
O22 Si2 1.650191 1_455
O22 Zn3 2.072835 1_555
O22 V3 2.151069 1_465
O22 V0 2.263592 1_554
O23 Si3 1.650193 1_555
O23 Zn2 2.072970 1_555
O23 V1 2.150713 1_555
O23 V2 2.263365 1_555
