# generated using pymatgen
data_Mg(SbO2)2
_symmetry_space_group_name_H-M   'P 1'
_cell_length_a   6.36083400
_cell_length_b   6.94135663
_cell_length_c   17.00794566
_cell_angle_alpha   92.01463682
_cell_angle_beta   89.33776682
_cell_angle_gamma   116.49297991
_symmetry_Int_Tables_number   1
_chemical_formula_structural   Mg(SbO2)2
_chemical_formula_sum   'Mg6 Sb12 O24'
_cell_volume   671.66828575
_cell_formula_units_Z   6
loop_
 _symmetry_equiv_pos_site_id
 _symmetry_equiv_pos_as_xyz
  1  'x, y, z'
loop_
 _atom_site_type_symbol
 _atom_site_label
 _atom_site_symmetry_multiplicity
 _atom_site_fract_x
 _atom_site_fract_y
 _atom_site_fract_z
 _atom_site_occupancy
  Mg  Mg0  1  0.81166400  0.62064200  0.03896600  1
  Mg  Mg1  1  0.48205400  0.02668300  0.37929300  1
  Mg  Mg2  1  0.20460200  0.39678800  0.34108800  1
  Mg  Mg3  1  0.19572400  0.40408200  0.70590300  1
  Mg  Mg4  1  0.48366300  0.95192400  0.99061200  1
  Mg  Mg5  1  0.56333500  0.98607900  0.63883500  1
  Sb  Sb0  1  0.33122700  0.66957600  0.12657500  1
  Sb  Sb1  1  0.35128300  0.18465600  0.18879600  1
  Sb  Sb2  1  0.94499500  0.96698300  0.44296400  1
  Sb  Sb3  1  0.83208800  0.18227700  0.19372100  1
  Sb  Sb4  1  0.08546900  0.58023100  0.50374000  1
  Sb  Sb5  1  0.96922200  0.84676500  0.65907200  1
  Sb  Sb6  1  0.82355000  0.65634400  0.24395600  1
  Sb  Sb7  1  0.66610400  0.29526100  0.85425300  1
  Sb  Sb8  1  0.52541000  0.43073900  0.53740500  1
  Sb  Sb9  1  0.63179000  0.75071400  0.81753600  1
  Sb  Sb10  1  0.15310100  0.78363200  0.82269300  1
  Sb  Sb11  1  0.17579700  0.33097800  0.96500400  1
  O  O0  1  0.70803000  0.41621400  0.13464600  1
  O  O1  1  0.53217200  0.07825800  0.26488400  1
  O  O2  1  0.60065000  0.76624700  0.05248800  1
  O  O3  1  0.16453000  0.75751700  0.04839600  1
  O  O4  1  0.31685200  0.68245100  0.41789400  1
  O  O5  1  0.47589700  0.45928500  0.26063400  1
  O  O6  1  0.22423300  0.43873900  0.57709400  1
  O  O7  1  0.97449300  0.45763400  0.26365700  1
  O  O8  1  0.18131500  0.35169900  0.08833000  1
  O  O9  1  0.27520000  0.16841600  0.41306000  1
  O  O10  1  0.82203600  0.16721700  0.41181300  1
  O  O11  1  0.07032400  0.13637700  0.26296100  1
  O  O12  1  0.93711700  0.11147600  0.67493000  1
  O  O13  1  0.22041600  0.85173900  0.57868500  1
  O  O14  1  0.66950200  0.73799800  0.60040300  1
  O  O15  1  0.78059500  0.57743600  0.91466900  1
  O  O16  1  0.84731600  0.73220100  0.36105500  1
  O  O17  1  0.99197300  0.47125300  0.79009600  1
  O  O18  1  0.46178300  0.44333500  0.78636300  1
  O  O19  1  0.55453700  0.26633200  0.62239100  1
  O  O20  1  0.81832100  0.16273700  0.94665500  1
  O  O21  1  0.34803300  0.14924400  0.94890800  1
  O  O22  1  0.40071500  0.79232100  0.73623400  1
  O  O23  1  0.39288300  0.75952200  0.89334200  1
loop_
_geom_bond_atom_site_label_1
_geom_bond_atom_site_label_2
_geom_bond_distance
_geom_bond_site_symmetry_2
Mg0 O3 2.015271 1_655
Mg0 O2 2.015638 1_555
Mg0 O0 2.097453 1_555
Mg0 O15 2.123759 1_554
Mg1 O1 1.987206 1_555
Mg1 O10 2.010426 1_555
Mg1 O9 2.031421 1_555
Mg1 O4 2.258067 1_545
Mg2 O11 2.059740 1_555
Mg2 O5 2.087525 1_555
Mg2 O7 2.165709 1_455
Mg2 O4 2.173570 1_555
Mg2 O9 2.235443 1_555
Mg2 O10 2.552522 1_455
Mg3 O12 2.018090 1_455
Mg3 O17 2.096866 1_455
Mg3 O18 2.104024 1_555
Mg3 O6 2.208893 1_555
Mg3 O22 2.451854 1_555
Mg4 O23 2.008157 1_555
Mg4 O21 2.063993 1_565
Mg4 O2 2.071598 1_556
Mg4 O20 2.119588 1_565
Mg4 O3 2.123856 1_556
Mg5 O19 2.000357 1_565
Mg5 O22 2.121054 1_555
Mg5 O14 2.190163 1_555
Mg5 O13 2.200865 1_555
Mg5 O12 2.221970 1_565
O0 Sb1 2.320063 1_555
O0 Sb6 2.344273 1_555
O0 Sb3 2.354853 1_555
O1 Sb1 2.098525 1_555
O1 Sb3 2.098757 1_555
O2 Sb0 1.989612 1_555
O3 Sb0 1.982943 1_555
O4 Sb4 1.973036 1_555
O5 Sb6 2.038559 1_555
O5 Sb1 2.065339 1_555
O6 Sb4 2.045784 1_555
O6 Sb8 2.047237 1_555
O7 Sb6 2.039137 1_555
O7 Sb3 2.051585 1_555
O8 Sb0 2.058465 1_555
O8 Sb11 2.097023 1_554
O8 Sb1 2.594891 1_555
O8 Sb3 2.693695 1_455
O9 Sb2 2.007601 1_445
O10 Sb2 1.963527 1_545
O11 Sb3 2.069562 1_455
O11 Sb1 2.083399 1_555
O12 Sb5 1.946623 1_545
O13 Sb4 2.080026 1_555
O13 Sb5 2.080158 1_455
O14 Sb5 1.976653 1_555
O14 Sb8 2.157523 1_555
O15 Sb7 2.006442 1_555
O15 Sb9 2.502674 1_555
O15 Sb10 2.675074 1_655
O16 Sb2 1.984870 1_555
O16 Sb6 2.031955 1_555
O17 Sb10 2.001342 1_655
O17 Sb7 2.182159 1_555
O18 Sb9 1.969285 1_555
O18 Sb7 2.321363 1_555
O19 Sb8 1.933074 1_555
O20 Sb11 2.062335 1_655
O20 Sb7 2.277049 1_555
O21 Sb11 2.017013 1_555
O21 Sb7 2.433572 1_555
O22 Sb10 2.124770 1_555
O22 Sb9 2.147017 1_555
O23 Sb9 2.001857 1_555
O23 Sb10 2.020482 1_555
