# generated using pymatgen
data_H2C4(OF2)3
_symmetry_space_group_name_H-M   'P 1'
_cell_length_a   5.90499961
_cell_length_b   6.26808293
_cell_length_c   18.12262085
_cell_angle_alpha   90.00000000
_cell_angle_beta   90.00000000
_cell_angle_gamma   90.00000000
_symmetry_Int_Tables_number   1
_chemical_formula_structural   H2C4(OF2)3
_chemical_formula_sum   'H8 C16 O12 F24'
_cell_volume   670.77305949
_cell_formula_units_Z   4
loop_
 _symmetry_equiv_pos_site_id
 _symmetry_equiv_pos_as_xyz
  1  'x, y, z'
loop_
 _atom_site_type_symbol
 _atom_site_label
 _atom_site_symmetry_multiplicity
 _atom_site_fract_x
 _atom_site_fract_y
 _atom_site_fract_z
 _atom_site_occupancy
  H  H0  1  0.77800758  0.53510304  0.39979799  1
  H  H1  1  0.72199242  0.46489696  0.89979799  1
  H  H2  1  0.27800758  0.96489696  0.60020201  1
  H  H3  1  0.22199242  0.03510304  0.10020201  1
  H  H4  1  0.09559006  0.65870502  0.46197199  1
  H  H5  1  0.40440994  0.34129498  0.96197199  1
  H  H6  1  0.59559006  0.84129498  0.53802801  1
  H  H7  1  0.90440994  0.15870502  0.03802801  1
  C  C0  1  0.45361706  0.56074487  0.41520422  1
  C  C1  1  0.04638294  0.43925513  0.91520422  1
  C  C2  1  0.95361706  0.93925513  0.58479578  1
  C  C3  1  0.54638294  0.06074487  0.08479578  1
  C  C4  1  0.22850111  0.47385391  0.38418589  1
  C  C5  1  0.27149889  0.52614609  0.88418589  1
  C  C6  1  0.72850111  0.02614609  0.61581411  1
  C  C7  1  0.77149889  0.97385391  0.11581411  1
  C  C8  1  0.20961192  0.52777634  0.30101506  1
  C  C9  1  0.29038808  0.47222366  0.80101506  1
  C  C10  1  0.70961192  0.97222366  0.69898494  1
  C  C11  1  0.79038808  0.02777634  0.19898494  1
  C  C12  1  0.21086263  0.23167911  0.40004967  1
  C  C13  1  0.28913737  0.76832089  0.90004967  1
  C  C14  1  0.71086263  0.26832089  0.59995033  1
  C  C15  1  0.78913737  0.73167911  0.09995033  1
  O  O0  1  0.62852692  0.48631589  0.37998590  1
  O  O1  1  0.87147308  0.51368411  0.87998590  1
  O  O2  1  0.12852692  0.01368411  0.62001410  1
  O  O3  1  0.37147308  0.98631589  0.12001410  1
  O  O4  1  0.44887184  0.68433544  0.46703423  1
  O  O5  1  0.05112816  0.31566456  0.96703423  1
  O  O6  1  0.94887184  0.81566456  0.53296577  1
  O  O7  1  0.55112816  0.18433544  0.03296577  1
  O  O8  1  0.04691080  0.57401890  0.41911391  1
  O  O9  1  0.45308920  0.42598110  0.91911391  1
  O  O10  1  0.54691080  0.92598110  0.58088609  1
  O  O11  1  0.95308920  0.07401890  0.08088609  1
  F  F0  1  0.27783848  0.73068087  0.29075788  1
  F  F1  1  0.22216152  0.26931913  0.79075788  1
  F  F2  1  0.77783848  0.76931913  0.70924212  1
  F  F3  1  0.72216152  0.23068087  0.20924212  1
  F  F4  1  0.33460206  0.40031538  0.25785200  1
  F  F5  1  0.16539794  0.59968462  0.75785200  1
  F  F6  1  0.83460206  0.09968462  0.74214800  1
  F  F7  1  0.66539794  0.90031538  0.24214800  1
  F  F8  1  0.99259562  0.51356420  0.27878762  1
  F  F9  1  0.50740438  0.48643580  0.77878762  1
  F  F10  1  0.49259562  0.98643580  0.72121238  1
  F  F11  1  0.00740438  0.01356420  0.22121238  1
  F  F12  1  0.23111467  0.20176227  0.47397449  1
  F  F13  1  0.26888533  0.79823773  0.97397449  1
  F  F14  1  0.73111467  0.29823773  0.52602551  1
  F  F15  1  0.76888533  0.70176227  0.02602551  1
  F  F16  1  0.37097954  0.11504400  0.36685031  1
  F  F17  1  0.12902046  0.88495600  0.86685031  1
  F  F18  1  0.87097954  0.38495600  0.63314969  1
  F  F19  1  0.62902046  0.61504400  0.13314969  1
  F  F20  1  0.00658357  0.15642769  0.37958559  1
  F  F21  1  0.49341643  0.84357231  0.87958559  1
  F  F22  1  0.50658357  0.34357231  0.62041441  1
  F  F23  1  0.99341643  0.65642769  0.12041441  1
loop_
_geom_bond_atom_site_label_1
_geom_bond_atom_site_label_2
_geom_bond_distance
_geom_bond_site_symmetry_2
H0 O0 1.000779 1_555
H0 O8 1.644196 1_655
H1 O1 1.000779 1_555
H1 O9 1.644196 1_555
H2 O2 1.000779 1_565
H2 O10 1.644196 1_555
H3 O3 1.000779 1_545
H3 O11 1.644196 1_455
H4 O8 0.983698 1_555
H5 O9 0.983698 1_555
H6 O10 0.983698 1_555
H7 O11 0.983698 1_555
C0 O4 1.217861 1_555
C0 O0 1.300681 1_555
C1 O5 1.217861 1_555
C1 O1 1.300681 1_455
C2 O6 1.217861 1_555
C2 O2 1.300681 1_665
C3 O7 1.217861 1_555
C3 O3 1.300681 1_545
C4 O8 1.394513 1_555
C5 O9 1.394513 1_555
C6 O10 1.394513 1_545
C7 O11 1.394513 1_565
C8 F4 1.339747 1_555
C8 F8 1.346252 1_455
C8 F0 1.346995 1_555
C9 F5 1.339747 1_555
C9 F9 1.346252 1_555
C9 F1 1.346995 1_555
C10 F6 1.339747 1_565
C10 F10 1.346252 1_555
C10 F2 1.346995 1_555
C11 F7 1.339747 1_545
C11 F11 1.346252 1_655
C11 F3 1.346995 1_555
C12 F16 1.338066 1_555
C12 F20 1.347258 1_555
C12 F12 1.358047 1_555
C13 F17 1.338066 1_555
C13 F21 1.347258 1_555
C13 F13 1.358047 1_555
C14 F18 1.338066 1_555
C14 F22 1.347258 1_555
C14 F14 1.358047 1_555
C15 F19 1.338066 1_555
C15 F23 1.347258 1_555
C15 F15 1.358047 1_555
