# generated using pymatgen
data_Si4Ag10O13
_symmetry_space_group_name_H-M   'P 1'
_cell_length_a   8.11205500
_cell_length_b   9.38491796
_cell_length_c   11.60167623
_cell_angle_alpha   113.40783494
_cell_angle_beta   98.37314326
_cell_angle_gamma   100.57526639
_symmetry_Int_Tables_number   1
_chemical_formula_structural   Si4Ag10O13
_chemical_formula_sum   'Si8 Ag20 O26'
_cell_volume   773.05669140
_cell_formula_units_Z   2
loop_
 _symmetry_equiv_pos_site_id
 _symmetry_equiv_pos_as_xyz
  1  'x, y, z'
loop_
 _atom_site_type_symbol
 _atom_site_label
 _atom_site_symmetry_multiplicity
 _atom_site_fract_x
 _atom_site_fract_y
 _atom_site_fract_z
 _atom_site_occupancy
  Si  Si0  1  0.77886200  0.66530600  0.75542700  1
  Si  Si1  1  0.22113800  0.33469400  0.24457300  1
  Si  Si2  1  0.26795700  0.67439300  0.24502300  1
  Si  Si3  1  0.55730000  0.23412000  0.25032400  1
  Si  Si4  1  0.91665800  0.77229200  0.25132200  1
  Si  Si5  1  0.73204300  0.32560700  0.75497700  1
  Si  Si6  1  0.44270000  0.76588000  0.74967600  1
  Si  Si7  1  0.08334200  0.22770800  0.74867800  1
  Ag  Ag0  1  0.11075400  0.95212500  0.64163900  1
  Ag  Ag1  1  0.15912800  0.49259700  0.91663600  1
  Ag  Ag2  1  0.57663000  0.96305900  0.16101100  1
  Ag  Ag3  1  0.33406600  0.93879100  0.43272800  1
  Ag  Ag4  1  0.21382200  0.10112700  0.07014600  1
  Ag  Ag5  1  0.15082700  0.80284800  0.92860300  1
  Ag  Ag6  1  0.32020000  0.50947100  0.56951300  1
  Ag  Ag7  1  0.84917300  0.19715200  0.07139700  1
  Ag  Ag8  1  0.84087200  0.50740300  0.08336400  1
  Ag  Ag9  1  0.67980000  0.49052900  0.43048700  1
  Ag  Ag10  1  0.78617800  0.89887300  0.92985400  1
  Ag  Ag11  1  0.98599400  0.38931100  0.42905000  1
  Ag  Ag12  1  0.56093200  0.64778900  0.08398800  1
  Ag  Ag13  1  0.43906800  0.35221100  0.91601200  1
  Ag  Ag14  1  0.63293400  0.78920400  0.44799100  1
  Ag  Ag15  1  0.42337000  0.03694100  0.83898900  1
  Ag  Ag16  1  0.66593400  0.06120900  0.56727200  1
  Ag  Ag17  1  0.88924600  0.04787500  0.35836100  1
  Ag  Ag18  1  0.01400600  0.61068900  0.57095000  1
  Ag  Ag19  1  0.36706600  0.21079600  0.55200900  1
  O  O0  1  0.59473500  0.36329500  0.61322500  1
  O  O1  1  0.62005000  0.31772700  0.11444900  1
  O  O2  1  0.72455000  0.20488200  0.37707400  1
  O  O3  1  0.35635300  0.77016000  0.12341400  1
  O  O4  1  0.83066900  0.49590100  0.76345400  1
  O  O5  1  0.88385800  0.68903400  0.89020300  1
  O  O6  1  0.18583300  0.08935400  0.87932100  1
  O  O7  1  0.27545000  0.79511800  0.62292600  1
  O  O8  1  0.64364700  0.22984000  0.87658600  1
  O  O9  1  0.40526500  0.63670500  0.38677500  1
  O  O10  1  0.43332600  0.35618900  0.25489700  1
  O  O11  1  0.16933100  0.50409900  0.23654600  1
  O  O12  1  0.11614200  0.31096600  0.10979700  1
  O  O13  1  0.81416700  0.91064600  0.12067900  1
  O  O14  1  0.17464100  0.19350000  0.37313700  1
  O  O15  1  0.82535900  0.80650000  0.62686300  1
  O  O16  1  0.18342100  0.40368800  0.73465200  1
  O  O17  1  0.56173800  0.93249700  0.74388400  1
  O  O18  1  0.93356100  0.80962700  0.38038700  1
  O  O19  1  0.11286800  0.77692000  0.23175800  1
  O  O20  1  0.88713200  0.22308000  0.76824200  1
  O  O21  1  0.37995000  0.68227300  0.88555100  1
  O  O22  1  0.06643900  0.19037300  0.61961300  1
  O  O23  1  0.81657900  0.59631200  0.26534800  1
  O  O24  1  0.43826200  0.06750300  0.25611600  1
  O  O25  1  0.56667400  0.64381100  0.74510300  1
loop_
_geom_bond_atom_site_label_1
_geom_bond_atom_site_label_2
_geom_bond_distance
_geom_bond_site_symmetry_2
Ag0 O7 2.134521 1_555
Ag0 O15 2.407064 1_455
Ag0 O22 2.432325 1_565
Ag0 O6 2.456562 1_565
Ag1 O16 1.993619 1_555
Ag1 O21 2.456707 1_555
Ag1 O3 2.736338 1_556
Ag2 O24 1.828478 1_565
Ag2 O13 2.145116 1_555
Ag2 O3 2.149142 1_555
Ag2 O2 2.545239 1_565
Ag3 O19 2.435272 1_555
Ag4 O6 2.148281 1_554
Ag4 O12 2.162604 1_555
Ag5 O5 2.126344 1_455
Ag5 O21 2.361751 1_555
Ag5 O3 2.761013 1_556
Ag6 O25 2.363245 1_555
Ag6 O7 2.608664 1_555
Ag6 O16 2.759234 1_555
Ag7 O12 2.126344 1_655
Ag7 O1 2.361751 1_555
Ag7 O8 2.761013 1_554
Ag8 O23 1.993619 1_555
Ag8 O1 2.456707 1_555
Ag8 O8 2.736338 1_554
Ag9 O10 2.363245 1_555
Ag9 O2 2.608664 1_555
Ag9 O23 2.759234 1_555
Ag10 O13 2.148281 1_556
Ag10 O5 2.162604 1_555
Ag11 O2 2.303977 1_555
Ag11 O14 2.552230 1_655
Ag12 O3 2.187586 1_555
Ag12 O21 2.709669 1_554
Ag12 O13 2.745470 1_555
Ag13 O8 2.187586 1_555
Ag13 O1 2.709669 1_556
Ag13 O6 2.745470 1_555
Ag14 O9 1.950330 1_555
Ag14 O15 2.337820 1_555
Ag15 O17 1.828478 1_545
Ag15 O6 2.145116 1_555
Ag15 O8 2.149142 1_555
Ag15 O7 2.545239 1_545
Ag16 O20 2.435272 1_555
Ag17 O2 2.134521 1_555
Ag17 O14 2.407064 1_655
Ag17 O18 2.432325 1_545
Ag17 O13 2.456562 1_545
Ag18 O7 2.303977 1_555
Ag18 O15 2.552230 1_455
Ag19 O0 1.950330 1_555
Ag19 O14 2.337820 1_555
O0 Si5 2.035592 1_555
O1 Si3 2.104664 1_555
O2 Si3 1.988629 1_555
O3 Si2 2.092397 1_555
O4 Si5 1.608372 1_555
O4 Si0 1.750546 1_555
O5 Si0 1.576649 1_555
O6 Si7 2.503478 1_555
O7 Si6 1.988629 1_555
O8 Si5 2.092397 1_555
O9 Si2 2.035592 1_555
O10 Si3 1.648262 1_555
O10 Si1 1.676649 1_555
O11 Si2 1.608372 1_555
O11 Si1 1.750546 1_555
O12 Si1 1.576649 1_555
O13 Si4 2.503478 1_555
O14 Si1 2.381946 1_555
O15 Si0 2.381946 1_555
O16 Si7 1.781313 1_555
O17 Si6 1.711796 1_555
O18 Si4 1.374552 1_555
O19 Si4 1.635383 1_455
O19 Si2 1.742964 1_555
O20 Si7 1.635383 1_655
O20 Si5 1.742964 1_555
O21 Si6 2.104664 1_555
O22 Si7 1.374552 1_555
O23 Si4 1.781313 1_555
O24 Si3 1.711796 1_555
O25 Si6 1.648262 1_555
O25 Si0 1.676649 1_555
