# generated using pymatgen
data_NbVB4
_symmetry_space_group_name_H-M   'P 1'
_cell_length_a   3.05510773
_cell_length_b   3.05510773
_cell_length_c   6.36300548
_cell_angle_alpha   90.00000000
_cell_angle_beta   90.00000000
_cell_angle_gamma   119.99997336
_symmetry_Int_Tables_number   1
_chemical_formula_structural   NbVB4
_chemical_formula_sum   'Nb1 V1 B4'
_cell_volume   51.43350295
_cell_formula_units_Z   1
loop_
 _symmetry_equiv_pos_site_id
 _symmetry_equiv_pos_as_xyz
  1  'x, y, z'
loop_
 _atom_site_type_symbol
 _atom_site_label
 _atom_site_symmetry_multiplicity
 _atom_site_fract_x
 _atom_site_fract_y
 _atom_site_fract_z
 _atom_site_occupancy
  Nb  Nb0  1  -0.00000000  -0.00000000  -0.00000000  1
  V  V0  1  -0.00000000  -0.00000000  0.50000000  1
  B  B0  1  0.66666700  0.33333300  0.73407728  1
  B  B1  1  0.66666700  0.33333300  0.26592272  1
  B  B2  1  0.33333300  0.66666700  0.73407728  1
  B  B3  1  0.33333300  0.66666700  0.26592272  1
loop_
_geom_bond_atom_site_label_1
_geom_bond_atom_site_label_2
_geom_bond_distance
_geom_bond_site_symmetry_2
B0 B2 1.763866 1_545
B0 B2 1.763866 1_655
B0 B2 1.763871 1_555
B0 V0 2.308601 1_655
B0 V0 2.308603 1_665
B0 V0 2.308603 1_555
B0 Nb0 2.444241 1_656
B0 Nb0 2.444243 1_556
B0 Nb0 2.444243 1_666
B1 B3 1.763866 1_545
B1 B3 1.763866 1_655
B1 B3 1.763871 1_555
B1 V0 2.308601 1_655
B1 V0 2.308603 1_665
B1 V0 2.308603 1_555
B1 Nb0 2.444241 1_655
B1 Nb0 2.444243 1_555
B1 Nb0 2.444243 1_665
B2 V0 2.308601 1_565
B2 V0 2.308603 1_665
B2 V0 2.308603 1_555
B2 Nb0 2.444241 1_566
B2 Nb0 2.444243 1_556
B2 Nb0 2.444243 1_666
B3 V0 2.308601 1_565
B3 V0 2.308603 1_665
B3 V0 2.308603 1_555
B3 Nb0 2.444241 1_565
B3 Nb0 2.444243 1_555
B3 Nb0 2.444243 1_665
