# generated using pymatgen
data_TbOF
_symmetry_space_group_name_H-M   'P 1'
_cell_length_a   6.20037078
_cell_length_b   6.20037078
_cell_length_c   4.34425397
_cell_angle_alpha   76.89466264
_cell_angle_beta   76.89466264
_cell_angle_gamma   41.59280715
_symmetry_Int_Tables_number   1
_chemical_formula_structural   TbOF
_chemical_formula_sum   'Tb2 O2 F2'
_cell_volume   107.55819088
_cell_formula_units_Z   2
loop_
 _symmetry_equiv_pos_site_id
 _symmetry_equiv_pos_as_xyz
  1  'x, y, z'
loop_
 _atom_site_type_symbol
 _atom_site_label
 _atom_site_symmetry_multiplicity
 _atom_site_fract_x
 _atom_site_fract_y
 _atom_site_fract_z
 _atom_site_occupancy
  Tb  Tb0  1  0.38431400  0.38431400  0.32373300  1
  Tb  Tb1  1  0.61568600  0.61568600  0.67626700  1
  O  O0  1  0.42235900  0.42235900  0.80050700  1
  O  O1  1  0.57764100  0.57764100  0.19949300  1
  F  F0  1  0.17474700  0.17474700  0.61266100  1
  F  F1  1  0.82525300  0.82525300  0.38733900  1
loop_
_geom_bond_atom_site_label_1
_geom_bond_atom_site_label_2
_geom_bond_distance
_geom_bond_site_symmetry_2
O0 Tb1 2.174285 1_555
O0 Tb0 2.207910 1_556
O0 Tb0 2.219829 1_555
O1 Tb0 2.174285 1_555
O1 Tb1 2.207910 1_554
O1 Tb1 2.219829 1_555
F0 Tb1 2.302101 1_455
F0 Tb1 2.302101 1_545
F0 Tb0 2.449195 1_555
F1 Tb0 2.302101 1_565
F1 Tb0 2.302101 1_655
F1 Tb1 2.449195 1_555
