# generated using pymatgen
data_MgTa4O12
_symmetry_space_group_name_H-M   'P 1'
_cell_length_a   6.83937904
_cell_length_b   6.83827306
_cell_length_c   6.83911780
_cell_angle_alpha   109.44592942
_cell_angle_beta   109.47298722
_cell_angle_gamma   109.48489919
_symmetry_Int_Tables_number   1
_chemical_formula_structural   MgTa4O12
_chemical_formula_sum   'Mg1 Ta4 O12'
_cell_volume   246.26008645
_cell_formula_units_Z   1
loop_
 _symmetry_equiv_pos_site_id
 _symmetry_equiv_pos_as_xyz
  1  'x, y, z'
loop_
 _atom_site_type_symbol
 _atom_site_label
 _atom_site_symmetry_multiplicity
 _atom_site_fract_x
 _atom_site_fract_y
 _atom_site_fract_z
 _atom_site_occupancy
  Mg  Mg0  1  0.99999900  0.00000000  0.00000200  1
  Ta  Ta0  1  0.99999900  0.50000000  0.99999700  1
  Ta  Ta1  1  0.00000300  0.00000400  0.50000000  1
  Ta  Ta2  1  0.49999800  0.49999200  0.49999700  1
  Ta  Ta3  1  0.49999900  0.00000200  0.00000500  1
  O  O0  1  0.23599500  0.98929900  0.75331200  1
  O  O1  1  0.01070100  0.24668500  0.76401700  1
  O  O2  1  0.23599300  0.48268800  0.24669300  1
  O  O3  1  0.24670300  0.76403300  0.01073600  1
  O  O4  1  0.51731500  0.75330600  0.76401000  1
  O  O5  1  0.24672200  0.23597900  0.48269800  1
  O  O6  1  0.75328400  0.76402200  0.51730800  1
  O  O7  1  0.48269300  0.24669900  0.23599200  1
  O  O8  1  0.75329400  0.23596600  0.98925800  1
  O  O9  1  0.76400800  0.51731200  0.75330400  1
  O  O10  1  0.98929400  0.75331100  0.23598000  1
  O  O11  1  0.76400200  0.01070300  0.24669000  1
loop_
_geom_bond_atom_site_label_1
_geom_bond_atom_site_label_2
_geom_bond_distance
_geom_bond_site_symmetry_2
Mg0 O10 2.695332 1_545
Mg0 O1 2.695348 1_654
Mg0 O4 2.696023 1_544
Mg0 O3 2.696055 1_645
Mg0 O8 2.696056 1_554
Mg0 O7 2.696080 1_655
Mg0 O2 2.696099 1_655
Mg0 O9 2.696101 1_544
Mg0 O11 2.696140 1_555
Mg0 O0 2.696146 1_644
Mg0 O6 2.696626 1_544
Mg0 O5 2.696638 1_655
O0 Ta3 1.977542 1_566
O0 Ta1 1.977563 1_565
O1 Ta0 1.978021 1_455
O1 Ta1 1.978069 1_555
O2 Ta0 1.977524 1_454
O2 Ta2 1.977591 1_555
O3 Ta0 1.977131 1_454
O3 Ta3 1.977138 1_565
O4 Ta3 1.978056 1_566
O4 Ta2 1.978103 1_555
O5 Ta2 1.977103 1_555
O5 Ta1 1.977122 1_555
O6 Ta2 1.977167 1_555
O6 Ta1 1.977174 1_665
O7 Ta3 1.977988 1_555
O7 Ta2 1.978035 1_555
O8 Ta0 1.977139 1_555
O8 Ta3 1.977181 1_556
O9 Ta0 1.977501 1_555
O9 Ta2 1.977565 1_555
O10 Ta0 1.978027 1_554
O10 Ta1 1.978085 1_665
O11 Ta3 1.977516 1_555
O11 Ta1 1.977563 1_655
