# generated using pymatgen
data_CsLiI2
_symmetry_space_group_name_H-M   'P 1'
_cell_length_a   10.55065969
_cell_length_b   10.55065969
_cell_length_c   13.57360100
_cell_angle_alpha   90.00000000
_cell_angle_beta   90.00000000
_cell_angle_gamma   153.22286841
_symmetry_Int_Tables_number   1
_chemical_formula_structural   CsLiI2
_chemical_formula_sum   'Cs4 Li4 I8'
_cell_volume   680.72168848
_cell_formula_units_Z   4
loop_
 _symmetry_equiv_pos_site_id
 _symmetry_equiv_pos_as_xyz
  1  'x, y, z'
loop_
 _atom_site_type_symbol
 _atom_site_label
 _atom_site_symmetry_multiplicity
 _atom_site_fract_x
 _atom_site_fract_y
 _atom_site_fract_z
 _atom_site_occupancy
  Cs  Cs0  1  0.34290400  0.65709600  0.98415800  1
  Cs  Cs1  1  0.65709600  0.34290400  0.48415800  1
  Cs  Cs2  1  0.51052900  0.48947100  0.76302900  1
  Cs  Cs3  1  0.48947100  0.51052900  0.26302900  1
  Li  Li0  1  0.86801000  0.13199000  0.54732400  1
  Li  Li1  1  0.13199000  0.86801000  0.04732400  1
  Li  Li2  1  0.28093200  0.71906800  0.28428900  1
  Li  Li3  1  0.71906800  0.28093200  0.78428900  1
  I  I0  1  0.31122000  0.68878000  0.48286100  1
  I  I1  1  0.68878000  0.31122000  0.98286100  1
  I  I2  1  0.14656000  0.85344000  0.25502300  1
  I  I3  1  0.85344000  0.14656000  0.75502300  1
  I  I4  1  0.99988500  0.00011500  0.50513100  1
  I  I5  1  0.00011500  0.99988500  0.00513100  1
  I  I6  1  0.83741100  0.16258900  0.21987600  1
  I  I7  1  0.16258900  0.83741100  0.71987600  1
loop_
_geom_bond_atom_site_label_1
_geom_bond_atom_site_label_2
_geom_bond_distance
_geom_bond_site_symmetry_2
Cs0 I3 3.960872 1_455
Cs0 I3 3.960872 1_565
Cs0 I1 3.997325 1_455
Cs0 I1 3.997325 1_565
Cs0 I6 4.027189 1_566
Cs0 I6 4.027189 1_456
Cs0 I5 4.057627 1_656
Cs0 I5 4.057627 1_546
Cs1 I2 3.960872 1_545
Cs1 I2 3.960872 1_655
Cs1 I0 3.997325 1_545
Cs1 I0 3.997325 1_655
Cs1 I7 4.027189 1_655
Cs1 I7 4.027189 1_545
Cs1 I4 4.057627 1_565
Cs1 I4 4.057627 1_455
Cs2 I7 4.006880 1_655
Cs2 I7 4.006880 1_545
Cs2 I3 4.047091 1_565
Cs2 I3 4.047091 1_455
Cs2 I5 4.100397 1_656
Cs2 I5 4.100397 1_546
Cs2 I4 4.274394 1_565
Cs2 I4 4.274394 1_455
Cs3 I6 4.006880 1_565
Cs3 I6 4.006880 1_455
Cs3 I2 4.047091 1_545
Cs3 I2 4.047091 1_655
Cs3 I4 4.100397 1_565
Cs3 I4 4.100397 1_455
Cs3 I5 4.274394 1_655
Cs3 I5 4.274394 1_545
I0 Li2 2.766118 1_555
I0 Li0 2.844841 1_455
I0 Li0 2.844841 1_565
I1 Li3 2.766118 1_555
I1 Li1 2.844841 1_546
I1 Li1 2.844841 1_656
I2 Li2 2.786823 1_555
I2 Li1 2.835044 1_555
I3 Li3 2.786823 1_555
I3 Li0 2.835044 1_555
I4 Li0 2.767025 1_555
I5 Li1 2.767025 1_555
I6 Li2 2.842021 1_545
I6 Li2 2.842021 1_655
I7 Li3 2.842021 1_455
I7 Li3 2.842021 1_565
