# generated using pymatgen
data_V2PbO2
_symmetry_space_group_name_H-M   'P 1'
_cell_length_a   8.60615131
_cell_length_b   8.60615131
_cell_length_c   8.60615131
_cell_angle_alpha   125.55345046
_cell_angle_beta   125.55345046
_cell_angle_gamma   80.62332248
_symmetry_Int_Tables_number   1
_chemical_formula_structural   V2PbO2
_chemical_formula_sum   'V8 Pb4 O8'
_cell_volume   406.86691066
_cell_formula_units_Z   4
loop_
 _symmetry_equiv_pos_site_id
 _symmetry_equiv_pos_as_xyz
  1  'x, y, z'
loop_
 _atom_site_type_symbol
 _atom_site_label
 _atom_site_symmetry_multiplicity
 _atom_site_fract_x
 _atom_site_fract_y
 _atom_site_fract_z
 _atom_site_occupancy
  V  V0  1  0.57274900  0.33568000  0.76293000  1
  V  V1  1  0.57274900  0.80981900  0.23707000  1
  V  V2  1  0.55981900  0.82274900  0.73707000  1
  V  V3  1  0.17725100  0.44018100  0.26293000  1
  V  V4  1  0.17725100  0.91432000  0.73707000  1
  V  V5  1  0.08568000  0.82274900  0.26293000  1
  V  V6  1  0.19018100  0.42725100  0.76293000  1
  V  V7  1  0.66432000  0.42725100  0.23707000  1
  Pb  Pb0  1  0.87500000  0.12500000  0.25000000  1
  Pb  Pb1  1  0.87500000  0.62500000  0.75000000  1
  Pb  Pb2  1  0.37500000  0.12500000  0.25000000  1
  Pb  Pb3  1  0.87500000  0.12500000  0.75000000  1
  O  O0  1  0.69475000  0.53003500  0.83528500  1
  O  O1  1  0.69475000  0.85946600  0.16471500  1
  O  O2  1  0.60946600  0.94475000  0.66471500  1
  O  O3  1  0.05525000  0.39053400  0.33528500  1
  O  O4  1  0.05525000  0.71996500  0.66471500  1
  O  O5  1  0.28003500  0.94475000  0.33528500  1
  O  O6  1  0.14053400  0.30525000  0.83528500  1
  O  O7  1  0.46996500  0.30525000  0.16471500  1
loop_
_geom_bond_atom_site_label_1
_geom_bond_atom_site_label_2
_geom_bond_distance
_geom_bond_site_symmetry_2
Pb0 V6 2.937914 1_655
Pb0 V2 2.937914 1_544
Pb0 V7 2.937918 1_555
Pb0 V5 2.937918 1_645
Pb1 V5 2.937913 1_656
Pb1 V7 2.937913 1_555
Pb1 V6 2.937914 1_655
Pb1 V2 2.937914 1_555
Pb2 V0 2.937913 1_555
Pb2 V4 2.937913 1_544
Pb2 V1 2.937914 1_545
Pb2 V3 2.937914 1_555
Pb3 V1 2.937914 1_545
Pb3 V3 2.937914 1_656
Pb3 V0 2.937918 1_555
Pb3 V4 2.937918 1_645
O0 V0 1.699589 1_555
O0 Pb1 2.459244 1_555
O1 V1 1.699601 1_555
O1 Pb0 2.459237 1_565
O2 V2 1.699601 1_555
O2 Pb3 2.459237 1_565
O3 V3 1.699601 1_555
O3 Pb0 2.459237 1_455
O4 V4 1.699589 1_555
O4 Pb1 2.459244 1_455
O5 V5 1.699589 1_555
O5 Pb2 2.459244 1_565
O6 V6 1.699601 1_555
O6 Pb3 2.459237 1_455
O7 V7 1.699589 1_555
O7 Pb2 2.459244 1_555
