# generated using pymatgen
data_SrNiP2O7
_symmetry_space_group_name_H-M   'P 1'
_cell_length_a   8.33559200
_cell_length_b   5.33077200
_cell_length_c   12.79510326
_cell_angle_alpha   89.87335463
_cell_angle_beta   90.00000000
_cell_angle_gamma   90.00000000
_symmetry_Int_Tables_number   1
_chemical_formula_structural   SrNiP2O7
_chemical_formula_sum   'Sr4 Ni4 P8 O28'
_cell_volume   568.55082122
_cell_formula_units_Z   4
loop_
 _symmetry_equiv_pos_site_id
 _symmetry_equiv_pos_as_xyz
  1  'x, y, z'
loop_
 _atom_site_type_symbol
 _atom_site_label
 _atom_site_symmetry_multiplicity
 _atom_site_fract_x
 _atom_site_fract_y
 _atom_site_fract_z
 _atom_site_occupancy
  Sr  Sr0  1  0.15865100  0.21473200  0.78162500  1
  Sr  Sr1  1  0.65865100  0.28526800  0.71837500  1
  Sr  Sr2  1  0.84134900  0.78526800  0.21837500  1
  Sr  Sr3  1  0.34134900  0.71473200  0.28162500  1
  Ni  Ni0  1  0.35106900  0.68698500  0.61254100  1
  Ni  Ni1  1  0.85106900  0.81301500  0.88745900  1
  Ni  Ni2  1  0.64893100  0.31301500  0.38745900  1
  Ni  Ni3  1  0.14893100  0.18698500  0.11254100  1
  P  P0  1  0.30357100  0.19164100  0.48245700  1
  P  P1  1  0.80357100  0.30835900  0.01754300  1
  P  P2  1  0.69642900  0.80835900  0.51754300  1
  P  P3  1  0.19642900  0.69164100  0.98245700  1
  P  P4  1  0.96296000  0.74708100  0.66423400  1
  P  P5  1  0.46296000  0.75291900  0.83576600  1
  P  P6  1  0.03704000  0.25291900  0.33576600  1
  P  P7  1  0.53704000  0.24708100  0.16423400  1
  O  O0  1  0.31720500  0.30978800  0.59154500  1
  O  O1  1  0.81720500  0.19021200  0.90845500  1
  O  O2  1  0.68279500  0.69021200  0.40845500  1
  O  O3  1  0.18279500  0.80978800  0.09154500  1
  O  O4  1  0.16602200  0.40718600  0.97905300  1
  O  O5  1  0.66602200  0.09281400  0.52094700  1
  O  O6  1  0.83397800  0.59281400  0.02094700  1
  O  O7  1  0.33397800  0.90718600  0.47905300  1
  O  O8  1  0.43863800  0.01830900  0.79451600  1
  O  O9  1  0.93863800  0.48169100  0.70548400  1
  O  O10  1  0.56136200  0.98169100  0.20548400  1
  O  O11  1  0.06136200  0.51830900  0.29451600  1
  O  O12  1  0.38346300  0.73667100  0.95073800  1
  O  O13  1  0.88346300  0.76332900  0.54926200  1
  O  O14  1  0.61653700  0.26332900  0.04926200  1
  O  O15  1  0.11653700  0.23667100  0.45073800  1
  O  O16  1  0.36174700  0.32513300  0.15198800  1
  O  O17  1  0.86174700  0.17486700  0.34801200  1
  O  O18  1  0.63825300  0.67486700  0.84801200  1
  O  O19  1  0.13825300  0.82513300  0.65198800  1
  O  O20  1  0.40393200  0.33137700  0.39935900  1
  O  O21  1  0.90393200  0.16862300  0.10064100  1
  O  O22  1  0.59606800  0.66862300  0.60064100  1
  O  O23  1  0.09606800  0.83137700  0.89935900  1
  O  O24  1  0.12200800  0.05641100  0.26611000  1
  O  O25  1  0.62200800  0.44358900  0.23389000  1
  O  O26  1  0.87799200  0.94358900  0.73389000  1
  O  O27  1  0.37799200  0.55641100  0.76611000  1
loop_
_geom_bond_atom_site_label_1
_geom_bond_atom_site_label_2
_geom_bond_distance
_geom_bond_site_symmetry_2
Ni0 O19 1.986359 1_555
Ni0 O0 2.048746 1_555
Ni0 O22 2.050234 1_555
Ni0 O7 2.075229 1_555
Ni0 O27 2.095178 1_555
Ni1 O18 1.986359 1_555
Ni1 O1 2.048746 1_565
Ni1 O23 2.050234 1_655
Ni1 O6 2.075229 1_556
Ni1 O26 2.095178 1_555
Ni2 O17 1.986359 1_555
Ni2 O2 2.048746 1_555
Ni2 O20 2.050234 1_555
Ni2 O5 2.075229 1_555
Ni2 O25 2.095178 1_555
Ni3 O16 1.986359 1_555
Ni3 O3 2.048746 1_545
Ni3 O21 2.050234 1_455
Ni3 O4 2.075229 1_554
Ni3 O24 2.095178 1_555
O0 P0 1.536784 1_555
O0 Sr0 2.813029 1_555
O1 P1 1.536784 1_556
O1 Sr1 2.813029 1_555
O2 P2 1.536784 1_555
O2 Sr2 2.813029 1_555
O3 P3 1.536784 1_554
O3 Sr3 2.813029 1_555
O4 P3 1.538114 1_555
O4 Sr0 2.729286 1_555
O5 P2 1.538114 1_545
O5 Sr1 2.729286 1_555
O6 P1 1.538114 1_555
O6 Sr2 2.729286 1_555
O7 P0 1.538114 1_565
O7 Sr3 2.729286 1_555
O8 P5 1.522447 1_545
O8 Sr1 2.516254 1_555
O8 Sr0 2.563147 1_555
O9 P4 1.522447 1_555
O9 Sr0 2.516254 1_655
O9 Sr1 2.563147 1_555
O10 P7 1.522447 1_565
O10 Sr3 2.516254 1_555
O10 Sr2 2.563147 1_555
O11 P6 1.522447 1_555
O11 Sr2 2.516254 1_455
O11 Sr3 2.563147 1_555
O12 P5 1.615587 1_555
O12 P3 1.628652 1_555
O13 P4 1.615587 1_555
O13 P2 1.628652 1_555
O14 P7 1.615587 1_555
O14 P1 1.628652 1_555
O15 P6 1.615587 1_555
O15 P0 1.628652 1_555
O16 P7 1.527221 1_555
O16 Sr3 2.666242 1_555
O17 P6 1.527221 1_655
O17 Sr2 2.666242 1_545
O18 P5 1.527221 1_555
O18 Sr1 2.666242 1_555
O19 P4 1.527221 1_455
O19 Sr0 2.666242 1_565
O20 P0 1.543281 1_555
O20 Sr3 2.589215 1_555
O21 P1 1.543281 1_555
O21 Sr2 2.589215 1_545
O22 P2 1.543281 1_555
O22 Sr1 2.589215 1_555
O23 P3 1.543281 1_555
O23 Sr0 2.589215 1_565
O24 P6 1.548365 1_555
O24 Sr3 2.588083 1_545
O24 Sr2 2.817659 1_445
O25 P7 1.548365 1_555
O25 Sr2 2.588083 1_555
O25 Sr3 2.817659 1_555
O26 P4 1.548365 1_555
O26 Sr1 2.588083 1_565
O26 Sr0 2.817659 1_665
O27 P5 1.548365 1_555
O27 Sr0 2.588083 1_555
O27 Sr1 2.817659 1_555
