# generated using pymatgen
data_Dy4Ge6Rh7
_symmetry_space_group_name_H-M   'P 1'
_cell_length_a   7.22679469
_cell_length_b   7.22679469
_cell_length_c   7.22679469
_cell_angle_alpha   109.47122063
_cell_angle_beta   109.47122063
_cell_angle_gamma   109.47122063
_symmetry_Int_Tables_number   1
_chemical_formula_structural   Dy4Ge6Rh7
_chemical_formula_sum   'Dy4 Ge6 Rh7'
_cell_volume   290.54624011
_cell_formula_units_Z   1
loop_
 _symmetry_equiv_pos_site_id
 _symmetry_equiv_pos_as_xyz
  1  'x, y, z'
loop_
 _atom_site_type_symbol
 _atom_site_label
 _atom_site_symmetry_multiplicity
 _atom_site_fract_x
 _atom_site_fract_y
 _atom_site_fract_z
 _atom_site_occupancy
  Dy  Dy0  1  0.00000000  0.00000000  0.50000000  1
  Dy  Dy1  1  0.00000000  0.50000000  0.00000000  1
  Dy  Dy2  1  0.50000000  0.00000000  0.00000000  1
  Dy  Dy3  1  0.50000000  0.50000000  0.50000000  1
  Ge  Ge0  1  0.67743224  0.67743224  0.00000000  1
  Ge  Ge1  1  0.32256776  -0.00000000  0.32256776  1
  Ge  Ge2  1  -0.00000000  0.32256776  0.32256776  1
  Ge  Ge3  1  0.32256776  0.32256776  -0.00000000  1
  Ge  Ge4  1  0.67743224  0.00000000  0.67743224  1
  Ge  Ge5  1  0.00000000  0.67743224  0.67743224  1
  Rh  Rh0  1  0.75000000  0.25000000  0.50000000  1
  Rh  Rh1  1  0.75000000  0.50000000  0.25000000  1
  Rh  Rh2  1  0.50000000  0.25000000  0.75000000  1
  Rh  Rh3  1  0.25000000  0.50000000  0.75000000  1
  Rh  Rh4  1  0.25000000  0.75000000  0.50000000  1
  Rh  Rh5  1  0.50000000  0.75000000  0.25000000  1
  Rh  Rh6  1  0.00000000  0.00000000  0.00000000  1
loop_
_geom_bond_atom_site_label_1
_geom_bond_atom_site_label_2
_geom_bond_distance
_geom_bond_site_symmetry_2
Dy0 Rh2 2.950327 1_555
Dy0 Rh5 2.950327 1_445
Dy0 Rh3 2.950327 1_555
Dy0 Rh1 2.950327 1_445
Dy0 Rh4 2.950327 1_545
Dy0 Rh0 2.950327 1_455
Dy0 Ge2 3.011832 1_555
Dy0 Ge0 3.011832 1_445
Dy0 Ge5 3.011832 1_545
Dy0 Ge3 3.011832 1_556
Dy0 Ge4 3.011832 1_455
Dy0 Ge1 3.011832 1_555
Dy1 Rh2 2.950327 1_454
Dy1 Rh5 2.950327 1_555
Dy1 Rh4 2.950327 1_555
Dy1 Rh0 2.950327 1_454
Dy1 Rh1 2.950327 1_455
Dy1 Rh3 2.950327 1_554
Dy1 Ge2 3.011832 1_555
Dy1 Ge5 3.011832 1_554
Dy1 Ge4 3.011832 1_454
Dy1 Ge0 3.011832 1_455
Dy1 Ge1 3.011832 1_565
Dy1 Ge3 3.011832 1_555
Dy2 Rh3 2.950327 1_544
Dy2 Rh1 2.950327 1_555
Dy2 Rh2 2.950327 1_554
Dy2 Rh4 2.950327 1_544
Dy2 Rh0 2.950327 1_555
Dy2 Rh5 2.950327 1_545
Dy2 Ge0 3.011832 1_545
Dy2 Ge4 3.011832 1_554
Dy2 Ge2 3.011832 1_655
Dy2 Ge5 3.011832 1_544
Dy2 Ge3 3.011832 1_555
Dy2 Ge1 3.011832 1_555
Dy3 Rh3 2.950327 1_555
Dy3 Rh2 2.950327 1_555
Dy3 Rh5 2.950327 1_555
Dy3 Rh1 2.950327 1_555
Dy3 Rh4 2.950327 1_555
Dy3 Rh0 2.950327 1_555
Dy3 Ge2 3.011832 1_555
Dy3 Ge0 3.011832 1_556
Dy3 Ge3 3.011832 1_555
Dy3 Ge1 3.011832 1_555
Dy3 Ge5 3.011832 1_655
Dy3 Ge4 3.011832 1_565
Ge0 Rh5 2.558220 1_555
Ge0 Rh1 2.558220 1_555
Ge0 Rh3 2.558220 1_554
Ge0 Rh2 2.558220 1_554
Ge0 Rh6 2.691758 1_665
Ge1 Rh2 2.558220 1_555
Ge1 Rh4 2.558220 1_545
Ge1 Rh0 2.558220 1_555
Ge1 Rh5 2.558220 1_545
Ge1 Rh6 2.691758 1_555
Ge2 Rh3 2.558220 1_555
Ge2 Rh4 2.558220 1_555
Ge2 Rh0 2.558220 1_455
Ge2 Rh1 2.558220 1_455
Ge2 Rh6 2.691758 1_555
Ge3 Rh3 2.558220 1_554
Ge3 Rh2 2.558220 1_554
Ge3 Rh5 2.558220 1_555
Ge3 Rh1 2.558220 1_555
Ge3 Rh6 2.691758 1_555
Ge4 Rh2 2.558220 1_555
Ge4 Rh4 2.558220 1_545
Ge4 Rh0 2.558220 1_555
Ge4 Rh5 2.558220 1_545
Ge4 Rh6 2.691758 1_656
Ge5 Rh3 2.558220 1_555
Ge5 Rh4 2.558220 1_555
Ge5 Rh0 2.558220 1_455
Ge5 Rh1 2.558220 1_455
Ge5 Rh6 2.691758 1_566
