# generated using pymatgen
data_Hg
_symmetry_space_group_name_H-M   'P 1'
_cell_length_a   7.99326241
_cell_length_b   6.59827003
_cell_length_c   6.61105614
_cell_angle_alpha   111.44033512
_cell_angle_beta   127.19557107
_cell_angle_gamma   52.79653524
_symmetry_Int_Tables_number   1
_chemical_formula_structural   Hg
_chemical_formula_sum   Hg8
_cell_volume   221.22526794
_cell_formula_units_Z   8
loop_
 _symmetry_equiv_pos_site_id
 _symmetry_equiv_pos_as_xyz
  1  'x, y, z'
loop_
 _atom_site_type_symbol
 _atom_site_label
 _atom_site_symmetry_multiplicity
 _atom_site_fract_x
 _atom_site_fract_y
 _atom_site_fract_z
 _atom_site_occupancy
  Hg  Hg0_0  1  0.00000000  0.00000000  0.00000000  1
  Hg  Hg0_1  1  0.00000000  0.00000000  0.50000000  1
  Hg  Hg0_2  1  0.00000000  0.50000000  0.00000000  1
  Hg  Hg0_3  1  0.00000000  0.50000000  0.50000000  1
  Hg  Hg0_4  1  0.50000000  0.00000000  0.00000000  1
  Hg  Hg0_5  1  0.50000000  0.00000000  0.50000000  1
  Hg  Hg0_6  1  0.50000000  0.50000000  0.00000000  1
  Hg  Hg0_7  1  0.50000000  0.50000000  0.50000000  1
loop_
_geom_bond_atom_site_label_1
_geom_bond_atom_site_label_2
_geom_bond_distance
_geom_bond_site_symmetry_2
Hg0_0 Hg0_2 3.299135 1_555
Hg0_0 Hg0_2 3.299135 1_545
Hg0_0 Hg0_6 3.303375 1_545
Hg0_0 Hg0_6 3.303375 1_455
Hg0_0 Hg0_5 3.305528 1_555
Hg0_0 Hg0_5 3.305528 1_454
Hg0_0 Hg0_1 3.305528 1_555
Hg0_0 Hg0_1 3.305528 1_554
Hg0_1 Hg0_3 3.299135 1_555
Hg0_1 Hg0_3 3.299135 1_545
Hg0_1 Hg0_7 3.303375 1_545
Hg0_1 Hg0_7 3.303375 1_455
Hg0_1 Hg0_4 3.305528 1_556
Hg0_1 Hg0_4 3.305528 1_455
Hg0_2 Hg0_4 3.303375 1_555
Hg0_2 Hg0_4 3.303375 1_465
Hg0_2 Hg0_7 3.305528 1_454
Hg0_2 Hg0_7 3.305528 1_555
Hg0_2 Hg0_3 3.305528 1_554
Hg0_2 Hg0_3 3.305528 1_555
Hg0_3 Hg0_5 3.303375 1_555
Hg0_3 Hg0_5 3.303375 1_465
Hg0_3 Hg0_6 3.305528 1_556
Hg0_3 Hg0_6 3.305528 1_455
Hg0_4 Hg0_6 3.299135 1_555
Hg0_4 Hg0_6 3.299135 1_545
Hg0_4 Hg0_5 3.305528 1_554
Hg0_4 Hg0_5 3.305528 1_555
Hg0_5 Hg0_7 3.299135 1_545
Hg0_5 Hg0_7 3.299135 1_555
Hg0_6 Hg0_7 3.305528 1_555
Hg0_6 Hg0_7 3.305528 1_554
