# generated using pymatgen
data_MnFeCo(PO4)3
_symmetry_space_group_name_H-M   'P 1'
_cell_length_a   5.96499300
_cell_length_b   9.89561700
_cell_length_c   14.57989517
_cell_angle_alpha   89.94316751
_cell_angle_beta   90.00000000
_cell_angle_gamma   90.00000000
_symmetry_Int_Tables_number   1
_chemical_formula_structural   MnFeCo(PO4)3
_chemical_formula_sum   'Mn4 Fe4 Co4 P12 O48'
_cell_volume   860.61122080
_cell_formula_units_Z   4
loop_
 _symmetry_equiv_pos_site_id
 _symmetry_equiv_pos_as_xyz
  1  'x, y, z'
loop_
 _atom_site_type_symbol
 _atom_site_label
 _atom_site_symmetry_multiplicity
 _atom_site_fract_x
 _atom_site_fract_y
 _atom_site_fract_z
 _atom_site_occupancy
  Mn  Mn0  1  0.00000000  0.21470900  0.14594800  1
  Mn  Mn1  1  0.00000000  0.21482400  0.81268800  1
  Mn  Mn2  1  0.50000000  0.28328800  0.97942700  1
  Mn  Mn3  1  0.50000000  0.28320200  0.64629300  1
  Fe  Fe0  1  0.00000000  0.22406000  0.48696200  1
  Fe  Fe1  1  0.50000000  0.27798000  0.31953700  1
  Fe  Fe2  1  0.00000000  0.72350600  0.34633800  1
  Fe  Fe3  1  0.00000000  0.72673500  0.01083700  1
  Co  Co0  1  0.00000000  0.72156600  0.68331300  1
  Co  Co1  1  0.50000000  0.77394900  0.84480600  1
  Co  Co2  1  0.50000000  0.77818300  0.51595000  1
  Co  Co3  1  0.50000000  0.78100900  0.18458100  1
  P  P0  1  0.50000000  0.09753800  0.80553000  1
  P  P1  1  0.50000000  0.09644000  0.13821800  1
  P  P2  1  0.50000000  0.09836900  0.47240800  1
  P  P3  1  0.00000000  0.40048900  0.30505900  1
  P  P4  1  0.00000000  0.40314100  0.63890400  1
  P  P5  1  0.00000000  0.39954500  0.97198700  1
  P  P6  1  0.50000000  0.59983000  0.36362200  1
  P  P7  1  0.50000000  0.60181600  0.03027400  1
  P  P8  1  0.50000000  0.59782400  0.69224600  1
  P  P9  1  0.00000000  0.90342000  0.19349600  1
  P  P10  1  0.00000000  0.90197300  0.86023000  1
  P  P11  1  0.00000000  0.90080000  0.52918200  1
  O  O0  1  0.00000000  0.05338900  0.21927200  1
  O  O1  1  0.00000000  0.05380400  0.88432800  1
  O  O2  1  0.00000000  0.05125300  0.55248400  1
  O  O3  1  0.50000000  0.11983900  0.57737500  1
  O  O4  1  0.50000000  0.11852700  0.90983600  1
  O  O5  1  0.50000000  0.11786500  0.24220900  1
  O  O6  1  0.29830700  0.16905600  0.09001200  1
  O  O7  1  0.70169300  0.16905600  0.09001200  1
  O  O8  1  0.29887300  0.16827600  0.75644600  1
  O  O9  1  0.70112700  0.16827600  0.75644600  1
  O  O10  1  0.29857900  0.17238700  0.42474100  1
  O  O11  1  0.70142100  0.17238700  0.42474100  1
  O  O12  1  0.79541100  0.32902300  0.25889500  1
  O  O13  1  0.20458900  0.32902300  0.25889500  1
  O  O14  1  0.80096700  0.32785600  0.58950500  1
  O  O15  1  0.19903300  0.32785600  0.58950500  1
  O  O16  1  0.79848900  0.32796500  0.92341100  1
  O  O17  1  0.20151100  0.32796500  0.92341100  1
  O  O18  1  0.00000000  0.37985600  0.40948100  1
  O  O19  1  0.00000000  0.37849000  0.07666500  1
  O  O20  1  0.00000000  0.38001300  0.74303800  1
  O  O21  1  0.50000000  0.44911000  0.38662700  1
  O  O22  1  0.50000000  0.44905100  0.04877800  1
  O  O23  1  0.50000000  0.44676800  0.71853900  1
  O  O24  1  0.00000000  0.55296600  0.28412900  1
  O  O25  1  0.00000000  0.55320600  0.61564300  1
  O  O26  1  0.00000000  0.55171300  0.95195300  1
  O  O27  1  0.50000000  0.62008600  0.25931200  1
  O  O28  1  0.50000000  0.61376800  0.58849700  1
  O  O29  1  0.50000000  0.62729400  0.92506500  1
  O  O30  1  0.29728200  0.67337100  0.07773300  1
  O  O31  1  0.70271800  0.67337100  0.07773300  1
  O  O32  1  0.29847700  0.67481200  0.41161800  1
  O  O33  1  0.70152300  0.67481200  0.41161800  1
  O  O34  1  0.29702500  0.67278200  0.74078400  1
  O  O35  1  0.70297500  0.67278200  0.74078400  1
  O  O36  1  0.79704800  0.82555300  0.57705800  1
  O  O37  1  0.20295200  0.82555300  0.57705800  1
  O  O38  1  0.79849200  0.82794900  0.24236400  1
  O  O39  1  0.20150800  0.82794900  0.24236400  1
  O  O40  1  0.80019600  0.82850300  0.90975300  1
  O  O41  1  0.19980400  0.82850300  0.90975300  1
  O  O42  1  0.00000000  0.88347100  0.09025700  1
  O  O43  1  0.00000000  0.88044500  0.42537200  1
  O  O44  1  0.00000000  0.88432000  0.75584300  1
  O  O45  1  0.50000000  0.94352600  0.78598600  1
  O  O46  1  0.50000000  0.94459000  0.11416000  1
  O  O47  1  0.50000000  0.94742200  0.45070000  1
loop_
_geom_bond_atom_site_label_1
_geom_bond_atom_site_label_2
_geom_bond_distance
_geom_bond_site_symmetry_2
Mn0 O19 1.908886 1_555
Mn0 O0 1.920381 1_555
Mn0 O6 2.009027 1_555
Mn0 O7 2.009027 1_455
Mn0 O12 2.341888 1_455
Mn0 O13 2.341888 1_555
Mn1 O1 1.904360 1_555
Mn1 O20 1.923538 1_555
Mn1 O8 2.015841 1_555
Mn1 O9 2.015841 1_455
Mn1 O17 2.303906 1_555
Mn1 O16 2.303906 1_455
Mn2 O4 1.921197 1_555
Mn2 O22 1.927783 1_556
Mn2 O16 2.007954 1_555
Mn2 O17 2.007954 1_555
Mn2 O6 2.306771 1_556
Mn2 O7 2.306771 1_556
Mn3 O3 1.904259 1_555
Mn3 O23 1.932027 1_555
Mn3 O15 2.025595 1_555
Mn3 O14 2.025595 1_555
Mn3 O8 2.303991 1_555
Mn3 O9 2.303991 1_555
Fe0 O18 1.910371 1_555
Fe0 O2 1.957951 1_555
Fe0 O10 2.063345 1_555
Fe0 O11 2.063345 1_455
Fe0 O14 2.168588 1_455
Fe0 O15 2.168588 1_555
Fe1 O5 1.945531 1_555
Fe1 O21 1.956482 1_555
Fe1 O12 2.034958 1_555
Fe1 O13 2.034958 1_555
Fe1 O11 2.210188 1_555
Fe1 O10 2.210188 1_555
Fe2 O24 1.916683 1_555
Fe2 O43 1.934734 1_555
Fe2 O32 2.075337 1_555
Fe2 O33 2.075337 1_455
Fe2 O39 2.192693 1_555
Fe2 O38 2.192693 1_455
Fe3 O26 1.933821 1_554
Fe3 O42 1.936486 1_555
Fe3 O31 2.091329 1_455
Fe3 O30 2.091329 1_555
Fe3 O40 2.145634 1_454
Fe3 O41 2.145634 1_554
Co0 O44 1.927568 1_555
Co0 O25 1.937092 1_555
Co0 O34 2.018281 1_555
Co0 O35 2.018281 1_455
Co0 O37 2.218391 1_555
Co0 O36 2.218391 1_455
Co1 O29 1.863337 1_555
Co1 O45 1.883752 1_555
Co1 O40 2.096567 1_555
Co1 O41 2.096567 1_555
Co1 O34 2.184331 1_555
Co1 O35 2.184331 1_555
Co2 O47 1.925249 1_555
Co2 O28 1.939707 1_555
Co2 O37 2.038122 1_555
Co2 O36 2.038122 1_555
Co2 O33 2.192796 1_555
Co2 O32 2.192796 1_555
Co3 O46 1.916033 1_555
Co3 O27 1.928617 1_555
Co3 O38 2.023977 1_555
Co3 O39 2.023977 1_555
Co3 O31 2.242066 1_555
Co3 O30 2.242066 1_555
O0 P9 1.531242 1_545
O1 P10 1.543335 1_545
O2 P11 1.527425 1_545
O3 P2 1.545294 1_555
O4 P0 1.535092 1_555
O5 P1 1.531138 1_555
O6 P1 1.567412 1_555
O7 P1 1.567412 1_555
O8 P0 1.562201 1_555
O9 P0 1.562201 1_555
O10 P2 1.569082 1_555
O11 P2 1.569082 1_555
O12 P3 1.563139 1_655
O13 P3 1.563139 1_555
O14 P4 1.576175 1_655
O15 P4 1.576175 1_555
O16 P5 1.564976 1_655
O17 P5 1.564976 1_555
O18 P3 1.535891 1_555
O19 P5 1.540146 1_554
O20 P4 1.535191 1_555
O21 P6 1.528392 1_555
O22 P7 1.535325 1_555
O23 P8 1.542797 1_555
O24 P3 1.539106 1_555
O25 P4 1.522892 1_555
O26 P5 1.533580 1_555
O27 P6 1.533784 1_555
O28 P8 1.520700 1_555
O29 P7 1.554271 1_556
O30 P7 1.563117 1_555
O31 P7 1.563117 1_555
O32 P6 1.576793 1_555
O33 P6 1.576793 1_555
O34 P8 1.586806 1_555
O35 P8 1.586806 1_555
O36 P11 1.583109 1_655
O37 P11 1.583109 1_555
O38 P9 1.584025 1_655
O39 P9 1.584025 1_555
O40 P10 1.571411 1_655
O41 P10 1.571411 1_555
O42 P9 1.518298 1_555
O43 P11 1.527081 1_555
O44 P10 1.532116 1_555
O45 P0 1.550731 1_565
O46 P1 1.543385 1_565
O47 P2 1.527184 1_565
