# generated using pymatgen
data_YEr(SnPd2)2
_symmetry_space_group_name_H-M   'P 1'
_cell_length_a   8.28866580
_cell_length_b   8.28866580
_cell_length_c   8.28866616
_cell_angle_alpha   33.72511180
_cell_angle_beta   33.72511180
_cell_angle_gamma   33.72511299
_symmetry_Int_Tables_number   1
_chemical_formula_structural   YEr(SnPd2)2
_chemical_formula_sum   'Y1 Er1 Sn2 Pd4'
_cell_volume   156.39755818
_cell_formula_units_Z   1
loop_
 _symmetry_equiv_pos_site_id
 _symmetry_equiv_pos_as_xyz
  1  'x, y, z'
loop_
 _atom_site_type_symbol
 _atom_site_label
 _atom_site_symmetry_multiplicity
 _atom_site_fract_x
 _atom_site_fract_y
 _atom_site_fract_z
 _atom_site_occupancy
  Y  Y0  1  0.50000000  0.50000000  0.50000000  1
  Er  Er0  1  0.00000000  0.00000000  0.00000000  1
  Sn  Sn0  1  0.25003700  0.25003700  0.25003700  1
  Sn  Sn1  1  0.74996300  0.74996300  0.74996300  1
  Pd  Pd0  1  0.62550800  0.62550800  0.62550800  1
  Pd  Pd1  1  0.12469600  0.12469600  0.12469600  1
  Pd  Pd2  1  0.87530400  0.87530400  0.87530400  1
  Pd  Pd3  1  0.37449200  0.37449200  0.37449200  1
loop_
_geom_bond_atom_site_label_1
_geom_bond_atom_site_label_2
_geom_bond_distance
_geom_bond_site_symmetry_2
Er0 Pd1 2.921580 1_555
Er0 Pd2 2.921580 1_444
Er0 Pd3 2.939014 1_554
Er0 Pd0 2.939014 1_445
Er0 Pd3 2.939014 1_455
Er0 Pd3 2.939014 1_545
Er0 Pd0 2.939014 1_544
Er0 Pd0 2.939014 1_454
Pd0 Sn1 2.915933 1_555
Pd0 Y0 2.940605 1_555
Pd0 Sn0 2.946619 1_556
Pd0 Sn0 2.946619 1_565
Pd0 Sn0 2.946619 1_655
Pd1 Sn0 2.936692 1_555
Pd1 Sn1 2.940871 1_445
Pd1 Sn1 2.940871 1_454
Pd1 Sn1 2.940871 1_544
Pd1 Y0 2.945311 1_554
Pd1 Y0 2.945311 1_545
Pd1 Y0 2.945311 1_455
Pd2 Sn1 2.936692 1_555
Pd2 Sn0 2.940871 1_665
Pd2 Sn0 2.940871 1_656
Pd2 Sn0 2.940871 1_566
Pd2 Y0 2.945311 1_556
Pd2 Y0 2.945311 1_565
Pd2 Y0 2.945311 1_655
Pd3 Sn0 2.915933 1_555
Pd3 Y0 2.940605 1_555
Pd3 Sn1 2.946619 1_554
Pd3 Sn1 2.946619 1_545
Pd3 Sn1 2.946619 1_455
