# generated using pymatgen
data_MgGa4P6(HO3)6
_symmetry_space_group_name_H-M   'P 1'
_cell_length_a   8.49725624
_cell_length_b   8.84044004
_cell_length_c   7.08176256
_cell_angle_alpha   90.00000000
_cell_angle_beta   90.00000000
_cell_angle_gamma   121.79025955
_symmetry_Int_Tables_number   1
_chemical_formula_structural   MgGa4P6(HO3)6
_chemical_formula_sum   'Mg1 Ga4 P6 H6 O18'
_cell_volume   452.17216390
_cell_formula_units_Z   1
loop_
 _symmetry_equiv_pos_site_id
 _symmetry_equiv_pos_as_xyz
  1  'x, y, z'
loop_
 _atom_site_type_symbol
 _atom_site_label
 _atom_site_symmetry_multiplicity
 _atom_site_fract_x
 _atom_site_fract_y
 _atom_site_fract_z
 _atom_site_occupancy
  Mg  Mg0  1  0.32794384  0.38215508  0.75000000  1
  Ga  Ga0  1  0.34217920  0.69657675  0.57059626  1
  Ga  Ga1  1  0.67091776  0.33829016  0.04722669  1
  Ga  Ga2  1  0.67091776  0.33829016  0.45277331  1
  Ga  Ga3  1  0.34217920  0.69657675  0.92940374  1
  P  P0  1  0.85977824  0.19194921  0.75000000  1
  P  P1  1  0.62134477  0.97948186  0.25000000  1
  P  P2  1  0.35260500  0.40441383  0.25000000  1
  P  P3  1  0.75235940  0.63998551  0.75000000  1
  P  P4  1  0.35964700  0.08926939  0.75000000  1
  P  P5  1  0.04130208  0.65807046  0.25000000  1
  H  H0  1  0.88638835  0.82279524  0.75000000  1
  H  H1  1  0.96955844  0.76902518  0.25000000  1
  H  H2  1  0.81428106  0.06116822  0.25000000  1
  H  H3  1  0.16586066  0.00666462  0.75000000  1
  H  H4  1  0.75310670  0.00596218  0.75000000  1
  H  H5  1  0.21227507  0.22334614  0.25000000  1
  O  O0  1  0.06152579  0.24368650  0.75000000  1
  O  O1  1  0.58001772  0.13476851  0.25000000  1
  O  O2  1  0.54205154  0.41247735  0.25000000  1
  O  O3  1  0.56089372  0.61646969  0.75000000  1
  O  O4  1  0.15417342  0.70106245  0.06825788  1
  O  O5  1  0.42352819  0.21983670  0.57767857  1
  O  O6  1  0.78502983  0.56570132  0.56888372  1
  O  O7  1  0.32759949  0.48125166  0.06434728  1
  O  O8  1  0.55366146  0.86895001  0.06884674  1
  O  O9  1  0.80911908  0.25400864  0.56972154  1
  O  O10  1  0.80911908  0.25400864  0.93027846  1
  O  O11  1  0.55366146  0.86895001  0.43115326  1
  O  O12  1  0.32759949  0.48125166  0.43565272  1
  O  O13  1  0.78502983  0.56570132  0.93111628  1
  O  O14  1  0.42352819  0.21983670  0.92232143  1
  O  O15  1  0.15417342  0.70106245  0.43174212  1
  O  O16  1  0.87335432  0.45987916  0.25000000  1
  O  O17  1  0.41662244  0.95540948  0.75000000  1
loop_
_geom_bond_atom_site_label_1
_geom_bond_atom_site_label_2
_geom_bond_distance
_geom_bond_site_symmetry_2
Mg0 O0 1.924467 1_555
Mg0 O3 1.972026 1_555
Mg0 O5 2.331526 1_555
Mg0 O14 2.331526 1_555
Mg0 O12 2.392875 1_555
Mg0 O7 2.392875 1_556
Ga0 O15 1.894037 1_555
Ga0 O11 1.908229 1_555
Ga0 O12 2.074534 1_555
Ga0 O17 2.392715 1_555
Ga1 O10 1.882025 1_554
Ga1 O13 1.898468 1_554
Ga1 O14 1.994649 1_554
Ga1 O16 2.056277 1_555
Ga1 O1 2.105144 1_555
Ga1 O2 2.109010 1_555
Ga2 O9 1.882025 1_555
Ga2 O6 1.898468 1_555
Ga2 O5 1.994649 1_555
Ga2 O16 2.056277 1_555
Ga2 O1 2.105144 1_555
Ga2 O2 2.109010 1_555
Ga3 O4 1.894037 1_556
Ga3 O8 1.908229 1_556
Ga3 O7 2.074534 1_556
Ga3 O17 2.392715 1_555
H0 P3 1.403433 1_555
H1 P5 1.401364 1_655
H2 P1 1.400654 1_545
H3 P4 1.406335 1_555
H4 P0 1.398126 1_555
H5 P2 1.404665 1_555
O0 P0 1.523775 1_455
O1 P1 1.586139 1_545
O2 P2 1.573389 1_555
O3 P3 1.527668 1_555
O4 P5 1.528646 1_555
O5 P4 1.567185 1_555
O6 P3 1.531513 1_555
O7 P2 1.545058 1_555
O8 P1 1.529466 1_555
O9 P0 1.537876 1_555
O10 P0 1.537876 1_555
O11 P1 1.529466 1_555
O12 P2 1.545058 1_555
O13 P3 1.531513 1_555
O14 P4 1.567185 1_555
O15 P5 1.528646 1_555
O16 P5 1.572247 1_655
O17 P4 1.496133 1_565
