# generated using pymatgen
data_Te6IrI3
_symmetry_space_group_name_H-M   'P 1'
_cell_length_a   10.12907392
_cell_length_b   10.12907392
_cell_length_c   10.12907368
_cell_angle_alpha   109.63060395
_cell_angle_beta   109.63060395
_cell_angle_gamma   109.63060140
_symmetry_Int_Tables_number   1
_chemical_formula_structural   Te6IrI3
_chemical_formula_sum   'Te12 Ir2 I6'
_cell_volume   795.23930902
_cell_formula_units_Z   2
loop_
 _symmetry_equiv_pos_site_id
 _symmetry_equiv_pos_as_xyz
  1  'x, y, z'
loop_
 _atom_site_type_symbol
 _atom_site_label
 _atom_site_symmetry_multiplicity
 _atom_site_fract_x
 _atom_site_fract_y
 _atom_site_fract_z
 _atom_site_occupancy
  Te  Te0  1  0.94326500  0.16483700  0.18092000  1
  Te  Te1  1  0.18092000  0.94326500  0.16483700  1
  Te  Te2  1  0.16483700  0.18092000  0.94326500  1
  Te  Te3  1  0.68092000  0.66483700  0.44326500  1
  Te  Te4  1  0.44326500  0.68092000  0.66483700  1
  Te  Te5  1  0.66483700  0.44326500  0.68092000  1
  Te  Te6  1  0.05673500  0.83516300  0.81908000  1
  Te  Te7  1  0.81908000  0.05673500  0.83516300  1
  Te  Te8  1  0.83516300  0.81908000  0.05673500  1
  Te  Te9  1  0.31908000  0.33516300  0.55673500  1
  Te  Te10  1  0.55673500  0.31908000  0.33516300  1
  Te  Te11  1  0.33516300  0.55673500  0.31908000  1
  Ir  Ir0  1  0.25000000  0.25000000  0.25000000  1
  Ir  Ir1  1  0.75000000  0.75000000  0.75000000  1
  I  I0  1  0.99301300  0.50698700  0.25000000  1
  I  I1  1  0.25000000  0.99301300  0.50698700  1
  I  I2  1  0.50698700  0.25000000  0.99301300  1
  I  I3  1  0.75000000  0.00698700  0.49301300  1
  I  I4  1  0.49301300  0.75000000  0.00698700  1
  I  I5  1  0.00698700  0.49301300  0.75000000  1
loop_
_geom_bond_atom_site_label_1
_geom_bond_atom_site_label_2
_geom_bond_distance
_geom_bond_site_symmetry_2
Te0 Te7 2.929937 1_554
Te0 Te8 2.929937 1_545
Te1 Te6 2.929937 1_554
Te1 Te8 2.929937 1_455
Te2 Te6 2.929937 1_545
Te2 Te7 2.929937 1_455
Te4 Te9 2.929937 1_555
Te5 Te9 2.929937 1_555
Te10 Te5 2.929937 1_555
Te10 Te3 2.929937 1_555
Te11 Te4 2.929937 1_555
Te11 Te3 2.929937 1_555
Ir0 Te9 2.686956 1_555
Ir0 Te2 2.686956 1_554
Ir0 Te10 2.686957 1_555
Ir0 Te1 2.686957 1_545
Ir0 Te11 2.686957 1_555
Ir0 Te0 2.686957 1_455
Ir1 Te8 2.686956 1_556
Ir1 Te3 2.686956 1_555
Ir1 Te7 2.686957 1_565
Ir1 Te4 2.686957 1_555
Ir1 Te6 2.686957 1_655
Ir1 Te5 2.686957 1_555
I0 Te0 3.116837 1_555
I0 Te11 3.116837 1_655
I1 Te1 3.116837 1_555
I1 Te9 3.116837 1_565
I2 Te10 3.116837 1_556
I2 Te2 3.116837 1_555
I3 Te7 3.116837 1_555
I3 Te3 3.116837 1_545
I4 Te4 3.116837 1_554
I4 Te8 3.116837 1_555
I5 Te5 3.116837 1_455
I5 Te6 3.116837 1_555
