# generated using pymatgen
data_Sr4Cu3NiO8
_symmetry_space_group_name_H-M   'P 1'
_cell_length_a   8.37028340
_cell_length_b   8.37028340
_cell_length_c   7.87623200
_cell_angle_alpha   90.00000000
_cell_angle_beta   90.00000000
_cell_angle_gamma   154.87354073
_symmetry_Int_Tables_number   1
_chemical_formula_structural   Sr4Cu3NiO8
_chemical_formula_sum   'Sr4 Cu3 Ni1 O8'
_cell_volume   234.31321677
_cell_formula_units_Z   1
loop_
 _symmetry_equiv_pos_site_id
 _symmetry_equiv_pos_as_xyz
  1  'x, y, z'
loop_
 _atom_site_type_symbol
 _atom_site_label
 _atom_site_symmetry_multiplicity
 _atom_site_fract_x
 _atom_site_fract_y
 _atom_site_fract_z
 _atom_site_occupancy
  Sr  Sr0  1  0.33246400  0.66753600  0.50000000  1
  Sr  Sr1  1  0.33267100  0.66732900  0.00000000  1
  Sr  Sr2  1  0.66838500  0.33161500  0.74838900  1
  Sr  Sr3  1  0.66838500  0.33161500  0.25161100  1
  Cu  Cu0  1  0.06260000  0.93740000  0.00000000  1
  Cu  Cu1  1  0.93799500  0.06200500  0.74916300  1
  Cu  Cu2  1  0.93799500  0.06200500  0.25083700  1
  Ni  Ni0  1  0.06157200  0.93842800  0.50000000  1
  O  O0  1  0.94441800  0.05558200  0.50000000  1
  O  O1  1  0.94448900  0.05551000  0.00000000  1
  O  O2  1  0.05463700  0.94536300  0.74781300  1
  O  O3  1  0.05463700  0.94536300  0.25218700  1
  O  O4  1  0.17893700  0.82106300  0.50000000  1
  O  O5  1  0.17990700  0.82009300  0.00000000  1
  O  O6  1  0.82045300  0.17954700  0.75018000  1
  O  O7  1  0.82045300  0.17954700  0.24982000  1
loop_
_geom_bond_atom_site_label_1
_geom_bond_atom_site_label_2
_geom_bond_distance
_geom_bond_site_symmetry_2
Cu0 O5 1.916766 1_555
Cu0 O1 1.929895 1_465
Cu0 O3 1.990540 1_555
Cu0 O2 1.990540 1_554
Cu1 O2 1.905930 1_645
Cu1 O6 1.920622 1_555
Cu1 O0 1.965270 1_555
Cu1 O1 1.978498 1_556
Cu2 O3 1.905930 1_645
Cu2 O7 1.920622 1_555
Cu2 O0 1.965270 1_555
Cu2 O1 1.978498 1_555
Ni0 O0 1.914266 1_465
Ni0 O4 1.917714 1_555
Ni0 O2 1.955119 1_555
Ni0 O3 1.955119 1_555
O0 Sr0 2.580931 1_545
O0 Sr0 2.580931 1_655
O1 Sr1 2.579361 1_545
O1 Sr1 2.579363 1_655
O2 Sr2 2.601794 1_565
O2 Sr2 2.601794 1_455
O3 Sr3 2.601794 1_565
O3 Sr3 2.601794 1_455
O4 Sr0 2.508591 1_555
O4 Sr2 2.678055 1_455
O4 Sr3 2.678055 1_455
O4 Sr2 2.678055 1_565
O4 Sr3 2.678055 1_565
O5 Sr1 2.496124 1_555
O5 Sr3 2.697709 1_455
O5 Sr2 2.697709 1_454
O5 Sr3 2.697709 1_565
O5 Sr2 2.697709 1_564
O6 Sr2 2.484792 1_555
O6 Sr1 2.688184 1_546
O6 Sr1 2.688184 1_656
O6 Sr0 2.690011 1_545
O6 Sr0 2.690011 1_655
O7 Sr3 2.484792 1_555
O7 Sr1 2.688184 1_545
O7 Sr1 2.688184 1_655
O7 Sr0 2.690011 1_545
O7 Sr0 2.690011 1_655
