# generated using pymatgen
data_SrF2
_symmetry_space_group_name_H-M   'P 1'
_cell_length_a   4.15167970
_cell_length_b   4.15167970
_cell_length_c   5.87148800
_cell_angle_alpha   90.00000000
_cell_angle_beta   90.00000000
_cell_angle_gamma   119.99999519
_symmetry_Int_Tables_number   1
_chemical_formula_structural   SrF2
_chemical_formula_sum   'Sr2 F4'
_cell_volume   87.64487199
_cell_formula_units_Z   2
loop_
 _symmetry_equiv_pos_site_id
 _symmetry_equiv_pos_as_xyz
  1  'x, y, z'
loop_
 _atom_site_type_symbol
 _atom_site_label
 _atom_site_symmetry_multiplicity
 _atom_site_fract_x
 _atom_site_fract_y
 _atom_site_fract_z
 _atom_site_occupancy
  Sr  Sr0  1  0.33333300  0.66666700  0.25000000  1
  Sr  Sr1  1  0.66666700  0.33333300  0.75000000  1
  F  F0  1  0.00000000  0.00000000  0.50000000  1
  F  F1  1  0.00000000  0.00000000  0.00000000  1
  F  F2  1  0.33333300  0.66666700  0.75000000  1
  F  F3  1  0.66666700  0.33333300  0.25000000  1
loop_
_geom_bond_atom_site_label_1
_geom_bond_atom_site_label_2
_geom_bond_distance
_geom_bond_site_symmetry_2
F0 Sr1 2.810715 1_455
F0 Sr0 2.810715 1_545
F0 Sr1 2.810718 1_555
F0 Sr1 2.810718 1_445
F0 Sr0 2.810718 1_555
F0 Sr0 2.810718 1_445
F1 Sr1 2.810715 1_454
F1 Sr0 2.810715 1_545
F1 Sr1 2.810718 1_554
F1 Sr1 2.810718 1_444
F1 Sr0 2.810718 1_555
F1 Sr0 2.810718 1_445
F2 Sr1 2.396971 1_455
F2 Sr1 2.396971 1_565
F2 Sr1 2.396978 1_555
F2 Sr0 2.935744 1_555
F2 Sr0 2.935744 1_556
F3 Sr0 2.396971 1_545
F3 Sr0 2.396971 1_655
F3 Sr0 2.396978 1_555
F3 Sr1 2.935744 1_554
F3 Sr1 2.935744 1_555
