# generated using pymatgen
data_CrN2
_symmetry_space_group_name_H-M   'P 1'
_cell_length_a   8.08154900
_cell_length_b   15.31568300
_cell_length_c   20.35964600
_cell_angle_alpha   90.00000000
_cell_angle_beta   90.00000000
_cell_angle_gamma   90.00000000
_symmetry_Int_Tables_number   1
_chemical_formula_structural   CrN2
_chemical_formula_sum   'Cr36 N72'
_cell_volume   2520.00383585
_cell_formula_units_Z   36
loop_
 _symmetry_equiv_pos_site_id
 _symmetry_equiv_pos_as_xyz
  1  'x, y, z'
loop_
 _atom_site_type_symbol
 _atom_site_label
 _atom_site_symmetry_multiplicity
 _atom_site_fract_x
 _atom_site_fract_y
 _atom_site_fract_z
 _atom_site_occupancy
  Cr  Cr0  1  0.50000000  0.50000000  0.34492700  1
  Cr  Cr1  1  0.00000000  0.00000000  0.15507300  1
  Cr  Cr2  1  0.50000000  0.50000000  0.65507300  1
  Cr  Cr3  1  0.00000000  0.00000000  0.84492700  1
  Cr  Cr4  1  0.20854500  0.49947500  0.22569900  1
  Cr  Cr5  1  0.79145500  0.50052500  0.22569900  1
  Cr  Cr6  1  0.70854500  0.00052500  0.27430100  1
  Cr  Cr7  1  0.29145500  0.99947500  0.27430100  1
  Cr  Cr8  1  0.79145500  0.50052500  0.77430100  1
  Cr  Cr9  1  0.20854500  0.49947500  0.77430100  1
  Cr  Cr10  1  0.29145500  0.99947500  0.72569900  1
  Cr  Cr11  1  0.70854500  0.00052500  0.72569900  1
  Cr  Cr12  1  0.48785700  0.70005700  0.41654400  1
  Cr  Cr13  1  0.51214300  0.29994300  0.41654400  1
  Cr  Cr14  1  0.98785700  0.79994300  0.08345600  1
  Cr  Cr15  1  0.01214300  0.20005700  0.08345600  1
  Cr  Cr16  1  0.51214300  0.29994300  0.58345600  1
  Cr  Cr17  1  0.48785700  0.70005700  0.58345600  1
  Cr  Cr18  1  0.01214300  0.20005700  0.91654400  1
  Cr  Cr19  1  0.98785700  0.79994300  0.91654400  1
  Cr  Cr20  1  0.27772400  0.69948700  0.16916500  1
  Cr  Cr21  1  0.72227600  0.30051300  0.16916500  1
  Cr  Cr22  1  0.77772400  0.80051300  0.33083500  1
  Cr  Cr23  1  0.22227600  0.19948700  0.33083500  1
  Cr  Cr24  1  0.72227600  0.30051300  0.83083500  1
  Cr  Cr25  1  0.27772400  0.69948700  0.83083500  1
  Cr  Cr26  1  0.22227600  0.19948700  0.66916500  1
  Cr  Cr27  1  0.77772400  0.80051300  0.66916500  1
  Cr  Cr28  1  0.30661800  0.29385700  0.81895100  1
  Cr  Cr29  1  0.69338200  0.70614300  0.81895100  1
  Cr  Cr30  1  0.80661800  0.20614300  0.68104900  1
  Cr  Cr31  1  0.19338200  0.79385700  0.68104900  1
  Cr  Cr32  1  0.69338200  0.70614300  0.18104900  1
  Cr  Cr33  1  0.30661800  0.29385700  0.18104900  1
  Cr  Cr34  1  0.19338200  0.79385700  0.31895100  1
  Cr  Cr35  1  0.80661800  0.20614300  0.31895100  1
  N  N0  1  0.00000000  0.50000000  0.24463500  1
  N  N1  1  0.50000000  0.00000000  0.25536500  1
  N  N2  1  0.00000000  0.50000000  0.75536500  1
  N  N3  1  0.50000000  0.00000000  0.74463500  1
  N  N4  1  0.32426100  0.50636200  0.29744700  1
  N  N5  1  0.67573900  0.49363800  0.29744700  1
  N  N6  1  0.82426100  0.99363800  0.20255300  1
  N  N7  1  0.17573900  0.00636200  0.20255300  1
  N  N8  1  0.67573900  0.49363800  0.70255300  1
  N  N9  1  0.32426100  0.50636200  0.70255300  1
  N  N10  1  0.17573900  0.00636200  0.79744700  1
  N  N11  1  0.82426100  0.99363800  0.79744700  1
  N  N12  1  0.50845800  0.59255700  0.39389100  1
  N  N13  1  0.49154200  0.40744300  0.39389100  1
  N  N14  1  0.00845800  0.90744300  0.10610900  1
  N  N15  1  0.99154200  0.09255700  0.10610900  1
  N  N16  1  0.49154200  0.40744300  0.60610900  1
  N  N17  1  0.50845800  0.59255700  0.60610900  1
  N  N18  1  0.99154200  0.09255700  0.89389100  1
  N  N19  1  0.00845800  0.90744300  0.89389100  1
  N  N20  1  0.51416500  0.28311900  0.84081400  1
  N  N21  1  0.48583500  0.71688100  0.84081400  1
  N  N22  1  0.01416500  0.21688100  0.65918600  1
  N  N23  1  0.98583500  0.78311900  0.65918600  1
  N  N24  1  0.48583500  0.71688100  0.15918600  1
  N  N25  1  0.51416500  0.28311900  0.15918600  1
  N  N26  1  0.98583500  0.78311900  0.34081400  1
  N  N27  1  0.01416500  0.21688100  0.34081400  1
  N  N28  1  0.45708900  0.70769800  0.50000000  1
  N  N29  1  0.54291100  0.29230200  0.50000000  1
  N  N30  1  0.95708900  0.79230200  0.00000000  1
  N  N31  1  0.04291100  0.20769800  0.00000000  1
  N  N32  1  0.22004000  0.74783900  0.24169900  1
  N  N33  1  0.77996000  0.25216100  0.24169900  1
  N  N34  1  0.72004000  0.75216100  0.25830100  1
  N  N35  1  0.27996000  0.24783900  0.25830100  1
  N  N36  1  0.77996000  0.25216100  0.75830100  1
  N  N37  1  0.22004000  0.74783900  0.75830100  1
  N  N38  1  0.27996000  0.24783900  0.74169900  1
  N  N39  1  0.72004000  0.75216100  0.74169900  1
  N  N40  1  0.31840900  0.74468200  0.37554100  1
  N  N41  1  0.68159100  0.25531800  0.37554100  1
  N  N42  1  0.81840900  0.75531800  0.12445900  1
  N  N43  1  0.18159100  0.24468200  0.12445900  1
  N  N44  1  0.68159100  0.25531800  0.62445900  1
  N  N45  1  0.31840900  0.74468200  0.62445900  1
  N  N46  1  0.18159100  0.24468200  0.87554100  1
  N  N47  1  0.81840900  0.75531800  0.87554100  1
  N  N48  1  0.33642000  0.24215700  0.60444600  1
  N  N49  1  0.66358000  0.75784300  0.60444600  1
  N  N50  1  0.83642000  0.25784300  0.89555400  1
  N  N51  1  0.16358000  0.74215700  0.89555400  1
  N  N52  1  0.66358000  0.75784300  0.39555400  1
  N  N53  1  0.33642000  0.24215700  0.39555400  1
  N  N54  1  0.16358000  0.74215700  0.10444600  1
  N  N55  1  0.83642000  0.25784300  0.10444600  1
  N  N56  1  0.24576800  0.58681300  0.17494900  1
  N  N57  1  0.75423200  0.41318700  0.17494900  1
  N  N58  1  0.74576800  0.91318700  0.32505100  1
  N  N59  1  0.25423200  0.08681300  0.32505100  1
  N  N60  1  0.75423200  0.41318700  0.82505100  1
  N  N61  1  0.24576800  0.58681300  0.82505100  1
  N  N62  1  0.25423200  0.08681300  0.67494900  1
  N  N63  1  0.74576800  0.91318700  0.67494900  1
  N  N64  1  0.25471200  0.40273900  0.81454300  1
  N  N65  1  0.74528800  0.59726100  0.81454300  1
  N  N66  1  0.75471200  0.09726100  0.68545700  1
  N  N67  1  0.24528800  0.90273900  0.68545700  1
  N  N68  1  0.74528800  0.59726100  0.18545700  1
  N  N69  1  0.25471200  0.40273900  0.18545700  1
  N  N70  1  0.24528800  0.90273900  0.31454300  1
  N  N71  1  0.75471200  0.09726100  0.31454300  1
loop_
_geom_bond_atom_site_label_1
_geom_bond_atom_site_label_2
_geom_bond_distance
_geom_bond_site_symmetry_2
Cr0 N4 1.720770 1_555
Cr0 N5 1.720770 1_555
Cr0 N13 1.734352 1_555
Cr0 N12 1.734352 1_555
Cr1 N6 1.720770 1_445
Cr1 N7 1.720770 1_555
Cr1 N15 1.734352 1_455
Cr1 N14 1.734352 1_545
Cr2 N9 1.720770 1_555
Cr2 N8 1.720770 1_555
Cr2 N17 1.734352 1_555
Cr2 N16 1.734352 1_555
Cr3 N11 1.720770 1_445
Cr3 N10 1.720770 1_555
Cr3 N18 1.734352 1_455
Cr3 N19 1.734352 1_545
Cr4 N56 1.716795 1_555
Cr4 N0 1.728918 1_555
Cr4 N69 1.733652 1_555
Cr4 N4 1.737668 1_555
Cr5 N57 1.716795 1_555
Cr5 N0 1.728918 1_655
Cr5 N68 1.733652 1_555
Cr5 N5 1.737668 1_555
Cr6 N58 1.716795 1_545
Cr6 N1 1.728918 1_555
Cr6 N71 1.733652 1_555
Cr6 N6 1.737668 1_545
Cr7 N59 1.716795 1_565
Cr7 N1 1.728918 1_565
Cr7 N70 1.733652 1_555
Cr7 N7 1.737668 1_565
Cr8 N60 1.716795 1_555
Cr8 N2 1.728918 1_655
Cr8 N65 1.733652 1_555
Cr8 N8 1.737668 1_555
Cr9 N61 1.716795 1_555
Cr9 N2 1.728918 1_555
Cr9 N64 1.733652 1_555
Cr9 N9 1.737668 1_555
Cr10 N62 1.716795 1_565
Cr10 N3 1.728918 1_565
Cr10 N67 1.733652 1_555
Cr10 N10 1.737668 1_565
Cr11 N63 1.716795 1_545
Cr11 N3 1.728918 1_555
Cr11 N66 1.733652 1_555
Cr11 N11 1.737668 1_545
Cr12 N12 1.717900 1_555
Cr12 N28 1.721215 1_555
Cr12 N52 1.727030 1_555
Cr12 N40 1.743355 1_555
Cr13 N13 1.717900 1_555
Cr13 N29 1.721215 1_555
Cr13 N53 1.727030 1_555
Cr13 N41 1.743355 1_555
Cr14 N14 1.717900 1_655
Cr14 N30 1.721215 1_555
Cr14 N54 1.727030 1_655
Cr14 N42 1.743355 1_555
Cr15 N15 1.717900 1_455
Cr15 N31 1.721215 1_555
Cr15 N55 1.727030 1_455
Cr15 N43 1.743355 1_555
Cr16 N16 1.717900 1_555
Cr16 N29 1.721215 1_555
Cr16 N48 1.727030 1_555
Cr16 N44 1.743355 1_555
Cr17 N17 1.717900 1_555
Cr17 N28 1.721215 1_555
Cr17 N49 1.727030 1_555
Cr17 N45 1.743355 1_555
Cr18 N18 1.717900 1_455
Cr18 N31 1.721215 1_556
Cr18 N50 1.727030 1_455
Cr18 N46 1.743355 1_555
Cr19 N19 1.717900 1_655
Cr19 N30 1.721215 1_556
Cr19 N51 1.727030 1_655
Cr19 N47 1.743355 1_555
Cr20 N24 1.714905 1_555
Cr20 N32 1.716556 1_555
Cr20 N54 1.736156 1_555
Cr20 N56 1.748866 1_555
Cr21 N25 1.714905 1_555
Cr21 N33 1.716556 1_555
Cr21 N55 1.736156 1_555
Cr21 N57 1.748866 1_555
Cr22 N26 1.714905 1_555
Cr22 N34 1.716556 1_555
Cr22 N52 1.736156 1_555
Cr22 N58 1.748866 1_555
Cr23 N27 1.714905 1_555
Cr23 N35 1.716556 1_555
Cr23 N53 1.736156 1_555
Cr23 N59 1.748866 1_555
Cr24 N20 1.714905 1_555
Cr24 N36 1.716556 1_555
Cr24 N50 1.736156 1_555
Cr24 N60 1.748866 1_555
Cr25 N21 1.714905 1_555
Cr25 N37 1.716556 1_555
Cr25 N51 1.736156 1_555
Cr25 N61 1.748866 1_555
Cr26 N22 1.714905 1_555
Cr26 N38 1.716556 1_555
Cr26 N48 1.736156 1_555
Cr26 N62 1.748866 1_555
Cr27 N23 1.714905 1_555
Cr27 N39 1.716556 1_555
Cr27 N49 1.736156 1_555
Cr27 N63 1.748866 1_555
Cr28 N46 1.707519 1_555
Cr28 N64 1.721893 1_555
Cr28 N38 1.736930 1_555
Cr28 N20 1.743135 1_555
Cr29 N47 1.707519 1_555
Cr29 N65 1.721893 1_555
Cr29 N39 1.736930 1_555
Cr29 N21 1.743135 1_555
Cr30 N44 1.707519 1_555
Cr30 N66 1.721893 1_555
Cr30 N36 1.736930 1_555
Cr30 N22 1.743135 1_655
Cr31 N45 1.707519 1_555
Cr31 N67 1.721893 1_555
Cr31 N37 1.736930 1_555
Cr31 N23 1.743135 1_455
Cr32 N42 1.707519 1_555
Cr32 N68 1.721893 1_555
Cr32 N34 1.736930 1_555
Cr32 N24 1.743135 1_555
Cr33 N43 1.707519 1_555
Cr33 N69 1.721893 1_555
Cr33 N35 1.736930 1_555
Cr33 N25 1.743135 1_555
Cr34 N40 1.707519 1_555
Cr34 N70 1.721893 1_555
Cr34 N32 1.736930 1_555
Cr34 N26 1.743135 1_455
Cr35 N41 1.707519 1_555
Cr35 N71 1.721893 1_555
Cr35 N33 1.736930 1_555
Cr35 N27 1.743135 1_655
