# generated using pymatgen
data_Pd5(N9Cl5)2
_symmetry_space_group_name_H-M   'P 1'
_cell_length_a   7.93315822
_cell_length_b   7.93315822
_cell_length_c   24.34247807
_cell_angle_alpha   90.00000000
_cell_angle_beta   90.00000000
_cell_angle_gamma   90.00000000
_symmetry_Int_Tables_number   1
_chemical_formula_structural   Pd5(N9Cl5)2
_chemical_formula_sum   'Pd10 N36 Cl20'
_cell_volume   1531.99384136
_cell_formula_units_Z   2
loop_
 _symmetry_equiv_pos_site_id
 _symmetry_equiv_pos_as_xyz
  1  'x, y, z'
loop_
 _atom_site_type_symbol
 _atom_site_label
 _atom_site_symmetry_multiplicity
 _atom_site_fract_x
 _atom_site_fract_y
 _atom_site_fract_z
 _atom_site_occupancy
  Pd  Pd0  1  0.75000000  0.25000000  0.75000000  1
  Pd  Pd1  1  0.25000000  0.75000000  0.25000000  1
  Pd  Pd2  1  0.75000000  0.25000000  0.95196054  1
  Pd  Pd3  1  0.25000000  0.75000000  0.45196054  1
  Pd  Pd4  1  0.25000000  0.75000000  0.04803946  1
  Pd  Pd5  1  0.75000000  0.25000000  0.54803946  1
  Pd  Pd6  1  0.75000000  0.75000000  0.27351926  1
  Pd  Pd7  1  0.75000000  0.75000000  0.77351926  1
  Pd  Pd8  1  0.25000000  0.25000000  0.72648074  1
  Pd  Pd9  1  0.25000000  0.25000000  0.22648074  1
  N  N0  1  0.75000000  0.48735535  0.77272824  1
  N  N1  1  0.75000000  0.01264465  0.77272824  1
  N  N2  1  0.48735535  0.75000000  0.27272824  1
  N  N3  1  0.01264465  0.75000000  0.27272824  1
  N  N4  1  0.25000000  0.51264465  0.22727176  1
  N  N5  1  0.25000000  0.98735535  0.22727176  1
  N  N6  1  0.51264465  0.25000000  0.72727176  1
  N  N7  1  0.98735535  0.25000000  0.72727176  1
  N  N8  1  0.75000000  0.42032314  0.00664101  1
  N  N9  1  0.75000000  0.07967686  0.00664101  1
  N  N10  1  0.42032314  0.75000000  0.50664101  1
  N  N11  1  0.07967686  0.75000000  0.50664101  1
  N  N12  1  0.25000000  0.57967686  0.99335899  1
  N  N13  1  0.25000000  0.92032314  0.99335899  1
  N  N14  1  0.57967686  0.25000000  0.49335899  1
  N  N15  1  0.92032314  0.25000000  0.49335899  1
  N  N16  1  0.48671208  0.25000000  0.93450678  1
  N  N17  1  0.01328792  0.25000000  0.93450678  1
  N  N18  1  0.25000000  0.48671208  0.43450678  1
  N  N19  1  0.25000000  0.01328792  0.43450678  1
  N  N20  1  0.51328792  0.75000000  0.06549322  1
  N  N21  1  0.98671208  0.75000000  0.06549322  1
  N  N22  1  0.75000000  0.51328792  0.56549322  1
  N  N23  1  0.75000000  0.98671208  0.56549322  1
  N  N24  1  0.75000000  0.51153793  0.29825377  1
  N  N25  1  0.75000000  0.98846207  0.29825377  1
  N  N26  1  0.51153793  0.75000000  0.79825377  1
  N  N27  1  0.98846207  0.75000000  0.79825377  1
  N  N28  1  0.25000000  0.48846207  0.70174623  1
  N  N29  1  0.25000000  0.01153793  0.70174623  1
  N  N30  1  0.48846207  0.25000000  0.20174623  1
  N  N31  1  0.01153793  0.25000000  0.20174623  1
  N  N32  1  0.75000000  0.75000000  0.19793725  1
  N  N33  1  0.75000000  0.75000000  0.69793725  1
  N  N34  1  0.25000000  0.25000000  0.80206275  1
  N  N35  1  0.25000000  0.25000000  0.30206275  1
  Cl  Cl0  1  0.75000000  0.75000000  0.37700458  1
  Cl  Cl1  1  0.75000000  0.75000000  0.87700458  1
  Cl  Cl2  1  0.25000000  0.25000000  0.62299542  1
  Cl  Cl3  1  0.25000000  0.25000000  0.12299542  1
  Cl  Cl4  1  0.93017752  0.50780731  0.60719944  1
  Cl  Cl5  1  0.56982248  0.50780731  0.60719944  1
  Cl  Cl6  1  0.93017752  0.99219269  0.60719944  1
  Cl  Cl7  1  0.56982248  0.99219269  0.60719944  1
  Cl  Cl8  1  0.50780731  0.93017752  0.10719944  1
  Cl  Cl9  1  0.99219269  0.93017752  0.10719944  1
  Cl  Cl10  1  0.50780731  0.56982248  0.10719944  1
  Cl  Cl11  1  0.99219269  0.56982248  0.10719944  1
  Cl  Cl12  1  0.06982248  0.49219269  0.39280056  1
  Cl  Cl13  1  0.43017752  0.49219269  0.39280056  1
  Cl  Cl14  1  0.06982248  0.00780731  0.39280056  1
  Cl  Cl15  1  0.43017752  0.00780731  0.39280056  1
  Cl  Cl16  1  0.49219269  0.06982248  0.89280056  1
  Cl  Cl17  1  0.00780731  0.06982248  0.89280056  1
  Cl  Cl18  1  0.49219269  0.43017752  0.89280056  1
  Cl  Cl19  1  0.00780731  0.43017752  0.89280056  1
loop_
_geom_bond_atom_site_label_1
_geom_bond_atom_site_label_2
_geom_bond_distance
_geom_bond_site_symmetry_2
N0 Pd0 1.962576 1_555
N0 Pd7 2.083691 1_555
N1 Pd0 1.962576 1_555
N1 Pd7 2.083691 1_545
N2 Pd1 1.962576 1_555
N2 Pd6 2.083691 1_555
N3 Pd1 1.962576 1_555
N3 Pd6 2.083691 1_455
N4 Pd1 1.962576 1_555
N4 Pd9 2.083691 1_555
N5 Pd1 1.962576 1_555
N5 Pd9 2.083691 1_565
N6 Pd0 1.962576 1_555
N6 Pd8 2.083691 1_555
N7 Pd0 1.962576 1_555
N7 Pd8 2.083691 1_655
N8 Pd2 1.896697 1_554
N9 Pd2 1.896697 1_554
N10 Pd3 1.896697 1_555
N11 Pd3 1.896697 1_555
N12 Pd4 1.896697 1_556
N13 Pd4 1.896697 1_556
N14 Pd5 1.896697 1_555
N15 Pd5 1.896697 1_555
N16 Pd2 2.131478 1_555
N17 Pd2 2.131478 1_455
N18 Pd3 2.131478 1_555
N19 Pd3 2.131478 1_545
N20 Pd4 2.131478 1_555
N21 Pd4 2.131478 1_655
N22 Pd5 2.131478 1_555
N23 Pd5 2.131478 1_565
N24 Pd6 1.985263 1_555
N25 Pd6 1.985263 1_555
N26 Pd7 1.985263 1_555
N27 Pd7 1.985263 1_555
N28 Pd8 1.985263 1_555
N29 Pd8 1.985263 1_555
N30 Pd9 1.985263 1_555
N31 Pd9 1.985263 1_555
N32 Pd6 1.839853 1_555
N33 Pd7 1.839853 1_555
N34 Pd8 1.839853 1_555
N35 Pd9 1.839853 1_555
Cl0 Pd6 2.519089 1_555
Cl1 Pd7 2.519089 1_555
Cl2 Pd8 2.519089 1_555
Cl3 Pd9 2.519089 1_555
Cl4 N22 1.753769 1_555
Cl5 N22 1.753769 1_555
Cl6 N23 1.753769 1_555
Cl7 N23 1.753769 1_555
Cl8 N20 1.753769 1_555
Cl9 N21 1.753769 1_555
Cl10 N20 1.753769 1_555
Cl11 N21 1.753769 1_555
Cl12 N18 1.753769 1_555
Cl13 N18 1.753769 1_555
Cl14 N19 1.753769 1_555
Cl15 N19 1.753769 1_555
Cl16 N16 1.753769 1_555
Cl17 N17 1.753769 1_555
Cl18 N16 1.753769 1_555
Cl19 N17 1.753769 1_555
