# generated using pymatgen
data_Sr3Zr2Nb2O12
_symmetry_space_group_name_H-M   'P 1'
_cell_length_a   9.99009321
_cell_length_b   9.99009321
_cell_length_c   9.99009290
_cell_angle_alpha   34.00630162
_cell_angle_beta   34.00630162
_cell_angle_gamma   34.00630223
_symmetry_Int_Tables_number   1
_chemical_formula_structural   Sr3Zr2Nb2O12
_chemical_formula_sum   'Sr3 Zr2 Nb2 O12'
_cell_volume   277.99634368
_cell_formula_units_Z   1
loop_
 _symmetry_equiv_pos_site_id
 _symmetry_equiv_pos_as_xyz
  1  'x, y, z'
loop_
 _atom_site_type_symbol
 _atom_site_label
 _atom_site_symmetry_multiplicity
 _atom_site_fract_x
 _atom_site_fract_y
 _atom_site_fract_z
 _atom_site_occupancy
  Sr  Sr0  1  0.75134500  0.75134500  0.75134500  1
  Sr  Sr1  1  0.00000000  0.00000000  0.00000000  1
  Sr  Sr2  1  0.24865500  0.24865500  0.24865500  1
  Zr  Zr0  1  0.37768400  0.37768400  0.37768400  1
  Zr  Zr1  1  0.62231600  0.62231600  0.62231600  1
  Nb  Nb0  1  0.87308300  0.87308300  0.87308300  1
  Nb  Nb1  1  0.12691700  0.12691700  0.12691700  1
  O  O0  1  0.76011500  0.76011500  0.23020600  1
  O  O1  1  0.50000000  0.50000000  0.00000000  1
  O  O2  1  0.23988500  0.23988500  0.76979400  1
  O  O3  1  0.00000000  0.00000000  0.50000000  1
  O  O4  1  0.76979400  0.23988500  0.23988500  1
  O  O5  1  0.50000000  0.00000000  0.00000000  1
  O  O6  1  0.23020600  0.76011500  0.76011500  1
  O  O7  1  0.00000000  0.50000000  0.50000000  1
  O  O8  1  0.23988500  0.76979400  0.23988500  1
  O  O9  1  0.00000000  0.50000000  0.00000000  1
  O  O10  1  0.76011500  0.23020600  0.76011500  1
  O  O11  1  0.50000000  0.00000000  0.50000000  1
loop_
_geom_bond_atom_site_label_1
_geom_bond_atom_site_label_2
_geom_bond_distance
_geom_bond_site_symmetry_2
Nb0 O0 2.009069 1_556
Nb0 O6 2.009069 1_655
Nb0 O10 2.009069 1_565
Nb0 O3 2.025378 1_665
Nb0 O9 2.025378 1_656
Nb0 O5 2.025378 1_566
Nb1 O2 2.009069 1_554
Nb1 O8 2.009069 1_545
Nb1 O4 2.009069 1_455
Nb1 O3 2.025378 1_555
Nb1 O5 2.025378 1_555
Nb1 O9 2.025378 1_555
O0 Zr1 2.096572 1_555
O0 Sr1 2.832273 1_665
O0 Sr2 2.923390 1_655
O0 Sr2 2.923390 1_565
O1 Zr0 2.100022 1_555
O1 Zr1 2.100022 1_554
O1 Sr1 2.921346 1_655
O1 Sr1 2.921346 1_565
O1 Sr2 2.924213 1_555
O1 Sr0 2.924213 1_554
O2 Zr0 2.096572 1_555
O2 Sr1 2.832273 1_556
O2 Sr0 2.923390 1_545
O2 Sr0 2.923390 1_455
O3 Sr0 2.862557 1_445
O3 Sr2 2.862557 1_555
O4 Zr0 2.096572 1_555
O4 Sr1 2.832273 1_655
O4 Sr0 2.923390 1_545
O4 Sr0 2.923390 1_554
O5 Sr0 2.862557 1_544
O5 Sr2 2.862557 1_555
O6 Zr1 2.096572 1_555
O6 Sr1 2.832273 1_566
O6 Sr2 2.923390 1_565
O6 Sr2 2.923390 1_556
O7 Zr0 2.100022 1_555
O7 Zr1 2.100022 1_455
O7 Sr1 2.921346 1_565
O7 Sr1 2.921346 1_556
O7 Sr2 2.924213 1_555
O7 Sr0 2.924213 1_455
O8 Zr0 2.096572 1_555
O8 Sr1 2.832273 1_565
O8 Sr0 2.923390 1_455
O8 Sr0 2.923390 1_554
O9 Sr0 2.862557 1_454
O9 Sr2 2.862557 1_555
O10 Zr1 2.096572 1_555
O10 Sr1 2.832273 1_656
O10 Sr2 2.923390 1_655
O10 Sr2 2.923390 1_556
O11 Zr0 2.100022 1_555
O11 Zr1 2.100022 1_545
O11 Sr1 2.921346 1_655
O11 Sr1 2.921346 1_556
O11 Sr0 2.924213 1_545
O11 Sr2 2.924213 1_555
