# generated using pymatgen
data_Tl3Sn
_symmetry_space_group_name_H-M   'P 1'
_cell_length_a   7.16838611
_cell_length_b   7.16838611
_cell_length_c   5.37026078
_cell_angle_alpha   90.00000000
_cell_angle_beta   90.00000000
_cell_angle_gamma   119.99998736
_symmetry_Int_Tables_number   1
_chemical_formula_structural   Tl3Sn
_chemical_formula_sum   'Tl6 Sn2'
_cell_volume   238.98400881
_cell_formula_units_Z   2
loop_
 _symmetry_equiv_pos_site_id
 _symmetry_equiv_pos_as_xyz
  1  'x, y, z'
loop_
 _atom_site_type_symbol
 _atom_site_label
 _atom_site_symmetry_multiplicity
 _atom_site_fract_x
 _atom_site_fract_y
 _atom_site_fract_z
 _atom_site_occupancy
  Tl  Tl0  1  0.17042080  0.34084060  0.25000000  1
  Tl  Tl1  1  0.65915940  0.82957920  0.25000000  1
  Tl  Tl2  1  0.17042080  0.82957920  0.25000000  1
  Tl  Tl3  1  0.82957920  0.65915940  0.75000000  1
  Tl  Tl4  1  0.34084060  0.17042080  0.75000000  1
  Tl  Tl5  1  0.82957920  0.17042080  0.75000000  1
  Sn  Sn0  1  0.33333300  0.66666700  0.75000000  1
  Sn  Sn1  1  0.66666700  0.33333300  0.25000000  1
loop_
_geom_bond_atom_site_label_1
_geom_bond_atom_site_label_2
_geom_bond_distance
_geom_bond_site_symmetry_2
Tl0 Tl4 3.418640 1_554
Tl0 Tl4 3.418640 1_555
Tl0 Tl5 3.418648 1_455
Tl0 Tl5 3.418648 1_454
Tl0 Tl2 3.503467 1_555
Tl0 Tl1 3.503468 1_555
Tl0 Tl2 3.664919 1_545
Tl0 Tl1 3.664920 1_445
Tl1 Tl3 3.418640 1_555
Tl1 Tl3 3.418640 1_554
Tl1 Tl5 3.418648 1_565
Tl1 Tl5 3.418648 1_564
Tl1 Tl2 3.503467 1_555
Tl1 Tl2 3.664919 1_655
Tl2 Tl4 3.418648 1_565
Tl2 Tl4 3.418648 1_564
Tl2 Tl3 3.418648 1_454
Tl2 Tl3 3.418648 1_455
Tl3 Tl5 3.503467 1_555
Tl3 Tl4 3.503468 1_555
Tl3 Tl5 3.664919 1_565
Tl3 Tl4 3.664920 1_665
Tl4 Tl5 3.503467 1_555
Tl4 Tl5 3.664919 1_455
Sn0 Tl2 3.361743 1_556
Sn0 Tl2 3.361743 1_555
Sn0 Tl1 3.361751 1_556
Sn0 Tl1 3.361751 1_555
Sn0 Tl0 3.361751 1_556
Sn0 Tl0 3.361751 1_555
Sn0 Tl3 3.584496 1_555
Sn0 Tl4 3.584496 1_555
Sn0 Tl4 3.584496 1_565
Sn0 Tl3 3.584496 1_455
Sn0 Tl5 3.584497 1_565
Sn0 Tl5 3.584497 1_455
Sn1 Tl5 3.361743 1_554
Sn1 Tl5 3.361743 1_555
Sn1 Tl3 3.361751 1_555
Sn1 Tl3 3.361751 1_554
Sn1 Tl4 3.361751 1_554
Sn1 Tl4 3.361751 1_555
Sn1 Tl1 3.584496 1_555
Sn1 Tl0 3.584496 1_555
Sn1 Tl0 3.584496 1_655
Sn1 Tl1 3.584496 1_545
Sn1 Tl2 3.584497 1_655
Sn1 Tl2 3.584497 1_545
