# generated using pymatgen
data_Sr2CrSbO6
_symmetry_space_group_name_H-M   'P 1'
_cell_length_a   5.64154400
_cell_length_b   5.64600628
_cell_length_c   5.64774931
_cell_angle_alpha   60.55236752
_cell_angle_beta   60.03461624
_cell_angle_gamma   60.02763093
_symmetry_Int_Tables_number   1
_chemical_formula_structural   Sr2CrSbO6
_chemical_formula_sum   'Sr2 Cr1 Sb1 O6'
_cell_volume   127.78675562
_cell_formula_units_Z   1
loop_
 _symmetry_equiv_pos_site_id
 _symmetry_equiv_pos_as_xyz
  1  'x, y, z'
loop_
 _atom_site_type_symbol
 _atom_site_label
 _atom_site_symmetry_multiplicity
 _atom_site_fract_x
 _atom_site_fract_y
 _atom_site_fract_z
 _atom_site_occupancy
  Sr  Sr0  1  0.25029800  0.74572200  0.75365600  1
  Sr  Sr1  1  0.74964700  0.25430000  0.24635800  1
  Cr  Cr0  1  0.99993100  0.50015000  0.49996800  1
  Sb  Sb0  1  0.50007800  0.99990000  0.99988300  1
  O  O0  1  0.74815900  0.81067900  0.69305800  1
  O  O1  1  0.25196100  0.18920100  0.30689800  1
  O  O2  1  0.28305400  0.72068500  0.21611200  1
  O  O3  1  0.78015900  0.72070300  0.21609300  1
  O  O4  1  0.71686000  0.27933000  0.78399400  1
  O  O5  1  0.21985300  0.27933100  0.78398000  1
loop_
_geom_bond_atom_site_label_1
_geom_bond_atom_site_label_2
_geom_bond_distance
_geom_bond_site_symmetry_2
Cr0 O0 2.031013 1_555
Cr0 O1 2.032788 1_655
Cr0 O2 2.034243 1_655
Cr0 O3 2.034299 1_555
Cr0 O4 2.035122 1_555
Cr0 O5 2.035382 1_655
O0 Sb0 2.001646 1_555
O0 Sr1 2.534760 1_565
O0 Sr0 2.843173 1_655
O0 Sr0 2.843592 1_555
O0 Sr1 3.159252 1_556
O1 Sb0 2.002758 1_544
O1 Sr0 2.534525 1_545
O1 Sr1 2.843207 1_555
O1 Sr1 2.843627 1_455
O1 Sr0 3.159494 1_554
O2 Sb0 2.004378 1_554
O2 Sr0 2.639856 1_554
O2 Sr1 2.640700 1_555
O2 Sr1 3.015876 1_465
O2 Sr0 3.017671 1_555
O3 Sb0 2.004677 1_554
O3 Sr0 2.639614 1_654
O3 Sr1 2.640858 1_555
O3 Sr1 3.015617 1_565
O3 Sr0 3.017747 1_555
O4 Sb0 2.004545 1_545
O4 Sr1 2.639450 1_556
O4 Sr0 2.640663 1_555
O4 Sr0 3.015964 1_645
O4 Sr1 3.018088 1_555
O5 Sb0 2.004301 1_545
O5 Sr1 2.639668 1_456
O5 Sr0 2.640437 1_555
O5 Sr0 3.016036 1_545
O5 Sr1 3.017753 1_555
