# generated using pymatgen
data_Cr5Si3C
_symmetry_space_group_name_H-M   'P 1'
_cell_length_a   6.93085800
_cell_length_b   6.93085792
_cell_length_c   4.81841800
_cell_angle_alpha   90.00000000
_cell_angle_beta   90.00000000
_cell_angle_gamma   120.00000041
_symmetry_Int_Tables_number   1
_chemical_formula_structural   Cr5Si3C
_chemical_formula_sum   'Cr10 Si6 C2'
_cell_volume   200.45140253
_cell_formula_units_Z   2
loop_
 _symmetry_equiv_pos_site_id
 _symmetry_equiv_pos_as_xyz
  1  'x, y, z'
loop_
 _atom_site_type_symbol
 _atom_site_label
 _atom_site_symmetry_multiplicity
 _atom_site_fract_x
 _atom_site_fract_y
 _atom_site_fract_z
 _atom_site_occupancy
  Cr  Cr0  1  0.66666700  0.33333300  0.00000000  1
  Cr  Cr1  1  0.33333300  0.66666700  0.00000000  1
  Cr  Cr2  1  0.33333300  0.66666700  0.50000000  1
  Cr  Cr3  1  0.66666700  0.33333300  0.50000000  1
  Cr  Cr4  1  0.77028300  0.77028300  0.75000000  1
  Cr  Cr5  1  0.22971700  0.00000000  0.75000000  1
  Cr  Cr6  1  0.00000000  0.22971700  0.75000000  1
  Cr  Cr7  1  0.22971700  0.22971700  0.25000000  1
  Cr  Cr8  1  0.77028300  0.00000000  0.25000000  1
  Cr  Cr9  1  0.00000000  0.77028300  0.25000000  1
  Si  Si0  1  0.40568500  0.40568500  0.75000000  1
  Si  Si1  1  0.59431500  0.00000000  0.75000000  1
  Si  Si2  1  0.00000000  0.59431500  0.75000000  1
  Si  Si3  1  0.59431500  0.59431500  0.25000000  1
  Si  Si4  1  0.40568500  0.00000000  0.25000000  1
  Si  Si5  1  0.00000000  0.40568500  0.25000000  1
  C  C0  1  0.00000000  0.00000000  0.00000000  1
  C  C1  1  0.00000000  0.00000000  0.50000000  1
loop_
_geom_bond_atom_site_label_1
_geom_bond_atom_site_label_2
_geom_bond_distance
_geom_bond_site_symmetry_2
Cr0 Cr3 2.409209 1_554
Cr0 Cr3 2.409209 1_555
Cr0 Si1 2.425166 1_554
Cr0 Si5 2.425166 1_655
Cr0 Si4 2.425167 1_555
Cr0 Si2 2.425167 1_654
Cr0 Si3 2.425171 1_555
Cr0 Si0 2.425171 1_554
Cr1 Cr2 2.409209 1_554
Cr1 Cr2 2.409209 1_555
Cr1 Si4 2.425166 1_565
Cr1 Si2 2.425166 1_554
Cr1 Si1 2.425167 1_564
Cr1 Si5 2.425167 1_555
Cr1 Si0 2.425171 1_554
Cr1 Si3 2.425171 1_555
Cr2 Si4 2.425166 1_565
Cr2 Si2 2.425166 1_555
Cr2 Si1 2.425167 1_565
Cr2 Si5 2.425167 1_555
Cr2 Si0 2.425171 1_555
Cr2 Si3 2.425171 1_555
Cr3 Si1 2.425166 1_555
Cr3 Si5 2.425166 1_655
Cr3 Si4 2.425167 1_555
Cr3 Si2 2.425167 1_655
Cr3 Si3 2.425171 1_555
Cr3 Si0 2.425171 1_555
Cr4 Si1 2.442156 1_565
Cr4 Si2 2.442156 1_655
Cr4 Si0 2.526977 1_555
Cr4 Si3 2.700321 1_555
Cr4 Si3 2.700321 1_556
Cr5 Si0 2.442156 1_555
Cr5 Si2 2.442156 1_545
Cr5 Si1 2.526977 1_555
Cr5 Si4 2.700321 1_556
Cr5 Si4 2.700321 1_555
Cr6 Si1 2.442156 1_455
Cr6 Si0 2.442156 1_555
Cr6 Si2 2.526977 1_555
Cr6 Si5 2.700321 1_556
Cr6 Si5 2.700321 1_555
Cr7 Si4 2.442156 1_555
Cr7 Si5 2.442156 1_555
Cr7 Si3 2.526977 1_555
Cr7 Si0 2.700321 1_555
Cr7 Si0 2.700321 1_554
Cr8 Si5 2.442156 1_655
Cr8 Si3 2.442156 1_545
Cr8 Si4 2.526977 1_555
Cr8 Si1 2.700321 1_554
Cr8 Si1 2.700321 1_555
Cr9 Si4 2.442156 1_565
Cr9 Si3 2.442156 1_455
Cr9 Si5 2.526977 1_555
Cr9 Si2 2.700321 1_555
Cr9 Si2 2.700321 1_554
C0 Cr6 1.996489 1_554
C0 Cr7 1.996489 1_555
C0 Cr9 1.996489 1_545
C0 Cr4 1.996489 1_444
C0 Cr5 1.996489 1_554
C0 Cr8 1.996489 1_455
C1 Cr6 1.996489 1_555
C1 Cr7 1.996489 1_555
C1 Cr9 1.996489 1_545
C1 Cr4 1.996489 1_445
C1 Cr5 1.996489 1_555
C1 Cr8 1.996489 1_455
