# generated using pymatgen
data_RbLi6B2O6F
_symmetry_space_group_name_H-M   'P 1'
_cell_length_a   5.17364200
_cell_length_b   8.54802500
_cell_length_c   16.27192200
_cell_angle_alpha   90.00000000
_cell_angle_beta   90.00000000
_cell_angle_gamma   90.00000000
_symmetry_Int_Tables_number   1
_chemical_formula_structural   RbLi6B2O6F
_chemical_formula_sum   'Rb4 Li24 B8 O24 F4'
_cell_volume   719.61633156
_cell_formula_units_Z   4
loop_
 _symmetry_equiv_pos_site_id
 _symmetry_equiv_pos_as_xyz
  1  'x, y, z'
loop_
 _atom_site_type_symbol
 _atom_site_label
 _atom_site_symmetry_multiplicity
 _atom_site_fract_x
 _atom_site_fract_y
 _atom_site_fract_z
 _atom_site_occupancy
  Rb  Rb0  1  0.38146400  0.37597100  0.75000000  1
  Rb  Rb1  1  0.11853600  0.87597100  0.75000000  1
  Rb  Rb2  1  0.61853600  0.62402900  0.25000000  1
  Rb  Rb3  1  0.88146400  0.12402900  0.25000000  1
  Li  Li0  1  0.88088100  0.21248200  0.63900200  1
  Li  Li1  1  0.61911900  0.71248200  0.86099800  1
  Li  Li2  1  0.11911900  0.78751800  0.13900200  1
  Li  Li3  1  0.38088100  0.28751800  0.36099800  1
  Li  Li4  1  0.11911900  0.78751800  0.36099800  1
  Li  Li5  1  0.38088100  0.28751800  0.13900200  1
  Li  Li6  1  0.88088100  0.21248200  0.86099800  1
  Li  Li7  1  0.61911900  0.71248200  0.63900200  1
  Li  Li8  1  0.63693900  0.42755600  0.55786500  1
  Li  Li9  1  0.86306100  0.92755600  0.94213500  1
  Li  Li10  1  0.36306100  0.57244400  0.05786500  1
  Li  Li11  1  0.13693900  0.07244400  0.44213500  1
  Li  Li12  1  0.36306100  0.57244400  0.44213500  1
  Li  Li13  1  0.13693900  0.07244400  0.05786500  1
  Li  Li14  1  0.63693900  0.42755600  0.94213500  1
  Li  Li15  1  0.86306100  0.92755600  0.55786500  1
  Li  Li16  1  0.20328600  0.30112700  0.53755300  1
  Li  Li17  1  0.29671400  0.80112700  0.96244700  1
  Li  Li18  1  0.79671400  0.69887300  0.03755300  1
  Li  Li19  1  0.70328600  0.19887300  0.46244700  1
  Li  Li20  1  0.79671400  0.69887300  0.46244700  1
  Li  Li21  1  0.70328600  0.19887300  0.03755300  1
  Li  Li22  1  0.20328600  0.30112700  0.96244700  1
  Li  Li23  1  0.29671400  0.80112700  0.53755300  1
  B  B0  1  0.09343200  0.56963000  0.58731500  1
  B  B1  1  0.40656800  0.06963000  0.91268500  1
  B  B2  1  0.90656800  0.43037000  0.08731500  1
  B  B3  1  0.59343200  0.93037000  0.41268500  1
  B  B4  1  0.90656800  0.43037000  0.41268500  1
  B  B5  1  0.59343200  0.93037000  0.08731500  1
  B  B6  1  0.09343200  0.56963000  0.91268500  1
  B  B7  1  0.40656800  0.06963000  0.58731500  1
  O  O0  1  0.36059800  0.57664000  0.57161200  1
  O  O1  1  0.13940200  0.07664000  0.92838800  1
  O  O2  1  0.63940200  0.42336000  0.07161200  1
  O  O3  1  0.86059800  0.92336000  0.42838800  1
  O  O4  1  0.63940200  0.42336000  0.42838800  1
  O  O5  1  0.86059800  0.92336000  0.07161200  1
  O  O6  1  0.36059800  0.57664000  0.92838800  1
  O  O7  1  0.13940200  0.07664000  0.57161200  1
  O  O8  1  0.97648000  0.42997900  0.60650200  1
  O  O9  1  0.52352000  0.92997900  0.89349800  1
  O  O10  1  0.02352000  0.57002100  0.10650200  1
  O  O11  1  0.47648000  0.07002100  0.39349800  1
  O  O12  1  0.02352000  0.57002100  0.39349800  1
  O  O13  1  0.47648000  0.07002100  0.10650200  1
  O  O14  1  0.97648000  0.42997900  0.89349800  1
  O  O15  1  0.52352000  0.92997900  0.60650200  1
  O  O16  1  0.54714900  0.20838500  0.57744100  1
  O  O17  1  0.95285100  0.70838500  0.92255900  1
  O  O18  1  0.45285100  0.79161500  0.07744100  1
  O  O19  1  0.04714900  0.29161500  0.42255900  1
  O  O20  1  0.45285100  0.79161500  0.42255900  1
  O  O21  1  0.04714900  0.29161500  0.07744100  1
  O  O22  1  0.54714900  0.20838500  0.92255900  1
  O  O23  1  0.95285100  0.70838500  0.57744100  1
  F  F0  1  0.59014400  0.67988400  0.75000000  1
  F  F1  1  0.90985600  0.17988400  0.75000000  1
  F  F2  1  0.40985600  0.32011600  0.25000000  1
  F  F3  1  0.09014400  0.82011600  0.25000000  1
loop_
_geom_bond_atom_site_label_1
_geom_bond_atom_site_label_2
_geom_bond_distance
_geom_bond_site_symmetry_2
Li0 O8 1.995196 1_555
Li0 O16 1.996458 1_555
Li0 O7 2.083192 1_655
Li1 O9 1.995196 1_555
Li1 O17 1.996458 1_555
Li1 O6 2.083192 1_555
Li2 O10 1.995196 1_555
Li2 O18 1.996458 1_555
Li2 O5 2.083192 1_455
Li3 O11 1.995196 1_555
Li3 O19 1.996458 1_555
Li3 O4 2.083192 1_555
Li4 O12 1.995196 1_555
Li4 O20 1.996458 1_555
Li4 O3 2.083192 1_455
Li5 O13 1.995196 1_555
Li5 O21 1.996458 1_555
Li5 O2 2.083192 1_555
Li6 O14 1.995196 1_555
Li6 O22 1.996458 1_555
Li6 O1 2.083192 1_655
Li7 O15 1.995196 1_555
Li7 O23 1.996458 1_555
Li7 O0 2.083192 1_555
Li8 O8 1.926821 1_555
Li8 O0 1.928232 1_555
Li8 O16 1.956321 1_555
Li8 O4 2.107183 1_555
Li9 O9 1.926821 1_555
Li9 O1 1.928232 1_665
Li9 O17 1.956321 1_555
Li9 O5 2.107183 1_556
Li10 O10 1.926821 1_555
Li10 O2 1.928232 1_555
Li10 O18 1.956321 1_555
Li10 O6 2.107183 1_554
Li11 O11 1.926821 1_555
Li11 O3 1.928232 1_445
Li11 O19 1.956321 1_555
Li11 O7 2.107183 1_555
Li12 O12 1.926821 1_555
Li12 O4 1.928232 1_555
Li12 O20 1.956321 1_555
Li12 O0 2.107183 1_555
Li13 O13 1.926821 1_555
Li13 O5 1.928232 1_445
Li13 O21 1.956321 1_555
Li13 O1 2.107183 1_554
Li14 O14 1.926821 1_555
Li14 O6 1.928232 1_555
Li14 O22 1.956321 1_555
Li14 O2 2.107183 1_556
Li15 O15 1.926821 1_555
Li15 O7 1.928232 1_665
Li15 O23 1.956321 1_555
Li15 O3 2.107183 1_555
Li16 O8 1.961831 1_455
Li16 O7 2.024509 1_555
Li16 O19 2.039715 1_555
Li16 O16 2.052966 1_555
Li17 O9 1.961831 1_555
Li17 O6 2.024509 1_555
Li17 O18 2.039715 1_556
Li17 O17 2.052966 1_455
Li18 O10 1.961831 1_655
Li18 O5 2.024509 1_555
Li18 O17 2.039715 1_554
Li18 O18 2.052966 1_555
Li19 O11 1.961831 1_555
Li19 O4 2.024509 1_555
Li19 O16 2.039715 1_555
Li19 O19 2.052966 1_655
Li20 O12 1.961831 1_655
Li20 O3 2.024509 1_555
Li20 O23 2.039715 1_555
Li20 O20 2.052966 1_555
Li21 O13 1.961831 1_555
Li21 O2 2.024509 1_555
Li21 O22 2.039715 1_554
Li21 O21 2.052966 1_655
Li22 O14 1.961831 1_455
Li22 O1 2.024509 1_555
Li22 O21 2.039715 1_556
Li22 O22 2.052966 1_555
Li23 O15 1.961831 1_555
Li23 O0 2.024509 1_555
Li23 O20 2.039715 1_555
Li23 O23 2.052966 1_455
B0 O8 1.374263 1_455
B0 O23 1.400568 1_455
B0 O0 1.406917 1_555
B1 O9 1.374263 1_545
B1 O22 1.400568 1_555
B1 O1 1.406917 1_555
B2 O10 1.374263 1_655
B2 O21 1.400568 1_655
B2 O2 1.406917 1_555
B3 O11 1.374263 1_565
B3 O20 1.400568 1_555
B3 O3 1.406917 1_555
B4 O12 1.374263 1_655
B4 O19 1.400568 1_655
B4 O4 1.406917 1_555
B5 O13 1.374263 1_565
B5 O18 1.400568 1_555
B5 O5 1.406917 1_555
B6 O14 1.374263 1_455
B6 O17 1.400568 1_455
B6 O6 1.406917 1_555
B7 O15 1.374263 1_545
B7 O16 1.400568 1_555
B7 O7 1.406917 1_555
F0 Li7 1.833657 1_555
F0 Li1 1.833657 1_555
F0 Rb0 2.813267 1_555
F0 Rb1 2.960197 1_555
F1 Li0 1.833657 1_555
F1 Li6 1.833657 1_555
F1 Rb1 2.813267 1_645
F1 Rb0 2.960197 1_655
F2 Li3 1.833657 1_555
F2 Li5 1.833657 1_555
F2 Rb2 2.813267 1_555
F2 Rb3 2.960197 1_555
F3 Li4 1.833657 1_555
F3 Li2 1.833657 1_555
F3 Rb3 2.813267 1_465
F3 Rb2 2.960197 1_455
