# generated using pymatgen
data_Ta6V3Fe3C2
_symmetry_space_group_name_H-M   'P 1'
_cell_length_a   8.15700106
_cell_length_b   8.15700106
_cell_length_c   8.15700106
_cell_angle_alpha   120.30867528
_cell_angle_beta   119.90838451
_cell_angle_gamma   89.81247399
_symmetry_Int_Tables_number   1
_chemical_formula_structural   Ta6V3Fe3C2
_chemical_formula_sum   'Ta12 V6 Fe6 C4'
_cell_volume   383.13724515
_cell_formula_units_Z   2
loop_
 _symmetry_equiv_pos_site_id
 _symmetry_equiv_pos_as_xyz
  1  'x, y, z'
loop_
 _atom_site_type_symbol
 _atom_site_label
 _atom_site_symmetry_multiplicity
 _atom_site_fract_x
 _atom_site_fract_y
 _atom_site_fract_z
 _atom_site_occupancy
  Ta  Ta0  1  0.17934700  0.17934700  0.00000000  1
  Ta  Ta1  1  0.56653900  0.56653900  0.00000000  1
  Ta  Ta2  1  0.18125000  0.56434800  0.99835000  1
  Ta  Ta3  1  0.56599800  0.18290000  0.00165000  1
  Ta  Ta4  1  0.18125000  0.18290000  0.61690200  1
  Ta  Ta5  1  0.56599800  0.56434800  0.38309800  1
  Ta  Ta6  1  0.31279900  0.81279900  0.50000000  1
  Ta  Ta7  1  0.93231600  0.43231600  0.50000000  1
  Ta  Ta8  1  0.31263200  0.43381700  0.49875200  1
  Ta  Ta9  1  0.93506400  0.81387900  0.50124800  1
  Ta  Ta10  1  0.31263200  0.81387900  0.87881500  1
  Ta  Ta11  1  0.93506400  0.43381700  0.12118500  1
  V  V0  1  0.95753900  0.80034600  0.15719300  1
  V  V1  1  0.64315200  0.80034600  0.84280700  1
  V  V2  1  0.54534500  0.20438800  0.65904400  1
  V  V3  1  0.54534500  0.88630100  0.34095600  1
  V  V4  1  0.54688400  0.20437300  0.34251200  1
  V  V5  1  0.86186100  0.20437300  0.65748800  1
  Fe  Fe0  1  0.75062900  0.99721700  0.24658800  1
  Fe  Fe1  1  0.75062900  0.50404100  0.75341200  1
  Fe  Fe2  1  0.75229700  0.00191700  0.75038000  1
  Fe  Fe3  1  0.25153700  0.00191700  0.24962000  1
  Fe  Fe4  1  0.95806700  0.79837000  0.84030200  1
  Fe  Fe5  1  0.95806700  0.11776500  0.15969800  1
  C  C0  1  0.24940600  0.49677000  0.24736400  1
  C  C1  1  0.24940600  0.00204300  0.75263600  1
  C  C2  1  0.24857600  0.49947200  0.74910400  1
  C  C3  1  0.75036800  0.49947200  0.25089600  1
loop_
_geom_bond_atom_site_label_1
_geom_bond_atom_site_label_2
_geom_bond_distance
_geom_bond_site_symmetry_2
Ta0 V4 2.812638 1_555
Ta0 V5 2.812643 1_454
Ta1 V3 2.779003 1_555
Ta1 V2 2.779008 1_554
Ta1 V1 2.991152 1_554
Ta1 V0 2.991155 1_555
Ta2 V5 2.779610 1_455
Ta2 V3 2.809597 1_556
Ta2 V0 2.920933 1_456
Ta3 V4 2.779615 1_555
Ta3 V2 2.809593 1_554
Ta3 V1 2.920929 1_544
Ta4 V5 2.779610 1_455
Ta4 V2 2.809597 1_555
Ta4 V0 2.920933 1_445
Ta5 V4 2.779610 1_555
Ta5 V3 2.809597 1_555
Ta5 V1 2.920936 1_555
Ta6 V1 2.803839 1_555
Ta6 V0 2.803843 1_455
Ta6 V2 2.981135 1_565
Ta6 V3 2.981142 1_555
Ta7 V5 2.931160 1_555
Ta7 V4 2.931167 1_555
Ta8 V1 2.849945 1_555
Ta8 V4 2.962389 1_555
Ta8 V2 2.964221 1_555
Ta9 V0 2.849957 1_555
Ta9 V5 2.962400 1_565
Ta9 V3 2.964211 1_555
Ta10 V1 2.849941 1_555
Ta10 V4 2.962400 1_566
Ta10 V3 2.964211 1_556
Ta11 V0 2.849949 1_555
Ta11 V5 2.962400 1_554
Ta11 V2 2.964211 1_554
V0 V1 2.568001 1_554
V2 V3 2.582525 1_545
V2 V4 2.588173 1_555
V2 V5 2.588173 1_555
V3 V4 2.588173 1_565
V3 V5 2.588173 1_565
V4 V5 2.572821 1_555
Fe0 V1 2.446785 1_554
Fe0 V0 2.446787 1_555
Fe0 V5 2.484658 1_565
Fe0 V4 2.484664 1_565
Fe0 V3 2.492645 1_555
Fe0 Fe5 2.498524 1_565
Fe0 Ta1 2.921063 1_555
Fe0 Ta4 2.931346 1_665
Fe0 Ta3 2.931346 1_565
Fe0 Ta7 2.939416 1_565
Fe0 Ta10 2.969694 1_554
Fe0 Ta9 2.969700 1_555
Fe1 V0 2.446787 1_556
Fe1 V1 2.446791 1_555
Fe1 V4 2.484658 1_555
Fe1 V5 2.484658 1_555
Fe1 V2 2.492651 1_555
Fe1 Fe4 2.498530 1_555
Fe1 Ta1 2.921063 1_556
Fe1 Ta2 2.931346 1_655
Fe1 Ta5 2.931346 1_555
Fe1 Ta7 2.939416 1_555
Fe1 Ta11 2.969694 1_556
Fe1 Ta8 2.969694 1_555
Fe2 V1 2.448384 1_545
Fe2 V5 2.459278 1_555
Fe2 Fe4 2.468842 1_545
Fe2 Fe5 2.468849 1_556
Fe2 V2 2.470198 1_555
Fe2 V3 2.470205 1_545
Fe2 Ta0 2.891443 1_656
Fe2 Ta9 2.926625 1_545
Fe2 Ta11 2.926631 1_556
Fe2 Ta3 2.954146 1_556
Fe2 Ta5 2.954146 1_545
Fe2 Ta6 2.992955 1_545
Fe3 V0 2.448380 1_445
Fe3 V4 2.459272 1_555
Fe3 Fe5 2.468849 1_455
Fe3 Fe4 2.468849 1_444
Fe3 V3 2.470205 1_545
Fe3 V2 2.470205 1_555
Fe3 Ta0 2.891443 1_555
Fe3 Ta8 2.926631 1_555
Fe3 Ta10 2.926631 1_544
Fe3 Ta4 2.954146 1_555
Fe3 Ta2 2.954146 1_544
Fe3 Ta6 2.992955 1_545
Fe4 V0 2.578940 1_556
Fe4 V1 2.578945 1_555
Fe4 Fe5 2.593145 1_566
Fe4 Ta9 2.745103 1_555
Fe4 Ta10 2.745115 1_655
Fe4 Ta7 2.778863 1_555
Fe4 Ta0 2.866759 1_666
Fe4 Ta5 2.956494 1_555
Fe4 Ta2 2.956501 1_655
Fe5 V0 2.578936 1_545
Fe5 V1 2.578940 1_544
Fe5 Ta8 2.745115 1_655
Fe5 Ta11 2.745115 1_555
Fe5 Ta7 2.778858 1_555
Fe5 Ta0 2.866766 1_655
Fe5 Ta4 2.956494 1_655
Fe5 Ta3 2.956494 1_555
C0 Ta0 2.165335 1_555
C0 Ta2 2.177319 1_554
C0 Ta5 2.177319 1_555
C0 Ta8 2.177374 1_555
C0 Ta11 2.177382 1_455
C0 Ta6 2.177995 1_555
C1 Ta0 2.165333 1_556
C1 Ta4 2.177312 1_555
C1 Ta3 2.177318 1_556
C1 Ta9 2.177384 1_445
C1 Ta10 2.177390 1_545
C1 Ta6 2.177997 1_545
C2 Ta10 2.165280 1_555
C2 Ta8 2.165288 1_555
C2 Ta2 2.177326 1_555
C2 Ta4 2.177326 1_555
C2 Ta7 2.177692 1_455
C2 Ta1 2.191011 1_556
C3 Ta9 2.165280 1_555
C3 Ta11 2.165280 1_555
C3 Ta5 2.177326 1_555
C3 Ta3 2.177326 1_555
C3 Ta7 2.177692 1_555
C3 Ta1 2.191011 1_555
