# generated using pymatgen
data_LiYF2
_symmetry_space_group_name_H-M   'P 1'
_cell_length_a   7.92362577
_cell_length_b   7.92362577
_cell_length_c   7.92362577
_cell_angle_alpha   129.67910016
_cell_angle_beta   129.67910016
_cell_angle_gamma   73.92029937
_symmetry_Int_Tables_number   1
_chemical_formula_structural   LiYF2
_chemical_formula_sum   'Li4 Y4 F8'
_cell_volume   287.40988971
_cell_formula_units_Z   4
loop_
 _symmetry_equiv_pos_site_id
 _symmetry_equiv_pos_as_xyz
  1  'x, y, z'
loop_
 _atom_site_type_symbol
 _atom_site_label
 _atom_site_symmetry_multiplicity
 _atom_site_fract_x
 _atom_site_fract_y
 _atom_site_fract_z
 _atom_site_occupancy
  Li  Li0  1  0.37500000  0.12500000  0.25000000  1
  Li  Li1  1  0.87500000  0.12500000  0.75000000  1
  Li  Li2  1  0.87500000  0.12500000  0.25000000  1
  Li  Li3  1  0.87500000  0.62500000  0.75000000  1
  Y  Y0  1  0.87500000  0.62500000  0.25000000  1
  Y  Y1  1  0.37500000  0.62500000  0.75000000  1
  Y  Y2  1  0.37500000  0.62500000  0.25000000  1
  Y  Y3  1  0.37500000  0.12500000  0.75000000  1
  F  F0  1  0.18782300  0.46948600  0.28166300  1
  F  F1  1  0.18782300  0.90615900  0.71833700  1
  F  F2  1  0.21948600  0.43782300  0.78166300  1
  F  F3  1  0.56217700  0.78051400  0.21833700  1
  F  F4  1  0.65615900  0.43782300  0.21833700  1
  F  F5  1  0.56217700  0.34384100  0.78166300  1
  F  F6  1  0.53051400  0.81217700  0.71833700  1
  F  F7  1  0.09384100  0.81217700  0.28166300  1
loop_
_geom_bond_atom_site_label_1
_geom_bond_atom_site_label_2
_geom_bond_distance
_geom_bond_site_symmetry_2
F0 Y1 2.373602 1_555
F0 Y0 2.373602 1_455
F0 Y2 2.379768 1_555
F1 Y1 2.373595 1_555
F1 Y0 2.373600 1_455
F1 Y3 2.379774 1_565
F2 Y3 2.373602 1_555
F2 Y2 2.373602 1_556
F2 Y1 2.379768 1_555
F3 Y0 2.373602 1_555
F3 Y1 2.373602 1_554
F3 Y2 2.379768 1_555
F4 Y2 2.373595 1_555
F4 Y3 2.373600 1_554
F4 Y0 2.379774 1_555
F5 Y1 2.373595 1_555
F5 Y0 2.373600 1_556
F5 Y3 2.379774 1_555
F6 Y2 2.373602 1_555
F6 Y3 2.373602 1_565
F6 Y1 2.379768 1_555
F7 Y2 2.373595 1_555
F7 Y3 2.373600 1_565
F7 Y0 2.379774 1_455
