# generated using pymatgen
data_Mg(CoS2)2
_symmetry_space_group_name_H-M   'P 1'
_cell_length_a   6.86338174
_cell_length_b   6.86338174
_cell_length_c   6.86338174
_cell_angle_alpha   120.29492047
_cell_angle_beta   118.71082086
_cell_angle_gamma   90.86862444
_symmetry_Int_Tables_number   1
_chemical_formula_structural   Mg(CoS2)2
_chemical_formula_sum   'Mg2 Co4 S8'
_cell_volume   230.24739576
_cell_formula_units_Z   2
loop_
 _symmetry_equiv_pos_site_id
 _symmetry_equiv_pos_as_xyz
  1  'x, y, z'
loop_
 _atom_site_type_symbol
 _atom_site_label
 _atom_site_symmetry_multiplicity
 _atom_site_fract_x
 _atom_site_fract_y
 _atom_site_fract_z
 _atom_site_occupancy
  Mg  Mg0  1  0.50000000  0.50000000  0.00000000  1
  Mg  Mg1  1  0.00000000  0.50000000  0.50000000  1
  Co  Co0  1  0.00000000  0.00000000  0.50000000  1
  Co  Co1  1  0.50000000  0.00000000  0.50000000  1
  Co  Co2  1  0.00000000  0.50000000  0.00000000  1
  Co  Co3  1  0.00000000  0.00000000  0.00000000  1
  S  S0  1  0.20454800  0.23842200  0.96612500  1
  S  S1  1  0.76611800  0.79663800  0.53052100  1
  S  S2  1  0.77229700  0.23842200  0.53387500  1
  S  S3  1  0.23388200  0.76440300  0.03052100  1
  S  S4  1  0.22770300  0.76157800  0.46612500  1
  S  S5  1  0.23388200  0.20336200  0.46947900  1
  S  S6  1  0.76611800  0.23559700  0.96947900  1
  S  S7  1  0.79545200  0.76157800  0.03387500  1
loop_
_geom_bond_atom_site_label_1
_geom_bond_atom_site_label_2
_geom_bond_distance
_geom_bond_site_symmetry_2
Mg0 S7 2.530751 1_555
Mg0 S0 2.530751 1_554
Mg0 S5 2.599533 1_554
Mg0 S1 2.599533 1_555
Mg0 S6 2.599533 1_554
Mg0 S3 2.599533 1_555
Mg1 S2 2.530756 1_455
Mg1 S4 2.530756 1_555
Mg1 S5 2.599528 1_555
Mg1 S1 2.599528 1_455
Mg1 S6 2.599533 1_454
Mg1 S3 2.599533 1_556
Co0 S5 2.262489 1_555
Co0 S1 2.262489 1_445
Co0 S0 2.284070 1_555
Co0 S7 2.284070 1_445
Co0 S2 2.284070 1_455
Co0 S4 2.284070 1_545
Co1 S4 2.308782 1_545
Co1 S2 2.308782 1_555
Co1 S6 2.309253 1_555
Co1 S3 2.309253 1_545
Co1 S1 2.309257 1_545
Co1 S5 2.309257 1_555
Co2 S3 2.262485 1_555
Co2 S6 2.262485 1_454
Co2 S4 2.284070 1_555
Co2 S2 2.284070 1_454
Co2 S0 2.284075 1_554
Co2 S7 2.284075 1_455
Co3 S0 2.308786 1_554
Co3 S7 2.308786 1_445
Co3 S1 2.309252 1_444
Co3 S5 2.309252 1_555
Co3 S6 2.309253 1_454
Co3 S3 2.309253 1_545
