# generated using pymatgen
data_Tb13Zn58
_symmetry_space_group_name_H-M   'P 1'
_cell_length_a   13.98125043
_cell_length_b   14.30463787
_cell_length_c   14.30463787
_cell_angle_alpha   119.99994492
_cell_angle_beta   90.00000000
_cell_angle_gamma   90.00000000
_symmetry_Int_Tables_number   1
_chemical_formula_structural   Tb13Zn58
_chemical_formula_sum   'Tb26 Zn116'
_cell_volume   2477.59675377
_cell_formula_units_Z   2
loop_
 _symmetry_equiv_pos_site_id
 _symmetry_equiv_pos_as_xyz
  1  'x, y, z'
loop_
 _atom_site_type_symbol
 _atom_site_label
 _atom_site_symmetry_multiplicity
 _atom_site_fract_x
 _atom_site_fract_y
 _atom_site_fract_z
 _atom_site_occupancy
  Tb  Tb0  1  0.50000000  -0.00000000  -0.00000000  1
  Tb  Tb1  1  0.00000000  -0.00000000  -0.00000000  1
  Tb  Tb2  1  0.75000000  0.45554285  0.91108612  1
  Tb  Tb3  1  0.75000000  0.45553909  0.54446091  1
  Tb  Tb4  1  0.75000000  0.08891388  0.54445715  1
  Tb  Tb5  1  0.25000000  0.54445715  0.08891388  1
  Tb  Tb6  1  0.25000000  0.54446091  0.45553909  1
  Tb  Tb7  1  0.25000000  0.91108612  0.45554285  1
  Tb  Tb8  1  0.75000000  0.12814186  0.25628322  1
  Tb  Tb9  1  0.75000000  0.12813988  0.87186012  1
  Tb  Tb10  1  0.75000000  0.74371678  0.87185814  1
  Tb  Tb11  1  0.25000000  0.87185814  0.74371678  1
  Tb  Tb12  1  0.25000000  0.87186012  0.12813988  1
  Tb  Tb13  1  0.25000000  0.25628322  0.12814186  1
  Tb  Tb14  1  0.55237983  0.79431704  0.58863415  1
  Tb  Tb15  1  0.55238122  0.79432059  0.20567941  1
  Tb  Tb16  1  0.55237983  0.41136585  0.20568296  1
  Tb  Tb17  1  0.44762017  0.20568296  0.41136585  1
  Tb  Tb18  1  0.44761878  0.20567941  0.79432059  1
  Tb  Tb19  1  0.44762017  0.58863415  0.79431704  1
  Tb  Tb20  1  0.05237983  0.20568296  0.41136585  1
  Tb  Tb21  1  0.05238122  0.20567941  0.79432059  1
  Tb  Tb22  1  0.05237983  0.58863415  0.79431704  1
  Tb  Tb23  1  0.94762017  0.79431704  0.58863415  1
  Tb  Tb24  1  0.94761878  0.79432059  0.20567941  1
  Tb  Tb25  1  0.94762017  0.41136585  0.20568296  1
  Zn  Zn0  1  0.75000000  0.00000015  0.99999985  1
  Zn  Zn1  1  0.25000000  0.99999985  0.00000015  1
  Zn  Zn2  1  0.25000000  0.66667060  0.33332940  1
  Zn  Zn3  1  0.75000000  0.33332940  0.66667060  1
  Zn  Zn4  1  0.59616183  0.66666943  0.33333057  1
  Zn  Zn5  1  0.40383817  0.33333057  0.66666943  1
  Zn  Zn6  1  0.09616183  0.33333057  0.66666943  1
  Zn  Zn7  1  0.90383817  0.66666943  0.33333057  1
  Zn  Zn8  1  0.50000000  0.50000000  -0.00000000  1
  Zn  Zn9  1  0.50000000  0.50000000  0.50000000  1
  Zn  Zn10  1  0.50000000  -0.00000000  0.50000000  1
  Zn  Zn11  1  0.00000000  0.50000000  -0.00000000  1
  Zn  Zn12  1  0.00000000  0.50000000  0.50000000  1
  Zn  Zn13  1  0.00000000  -0.00000000  0.50000000  1
  Zn  Zn14  1  0.75000000  0.73037372  0.46074705  1
  Zn  Zn15  1  0.75000000  0.73037855  0.26962145  1
  Zn  Zn16  1  0.75000000  0.53925295  0.26962628  1
  Zn  Zn17  1  0.25000000  0.26962628  0.53925295  1
  Zn  Zn18  1  0.25000000  0.26962145  0.73037855  1
  Zn  Zn19  1  0.25000000  0.46074705  0.73037372  1
  Zn  Zn20  1  0.49999959  0.79866708  0.99999885  1
  Zn  Zn21  1  0.50000000  0.20133301  0.20133301  1
  Zn  Zn22  1  0.50000041  0.99999885  0.79866708  1
  Zn  Zn23  1  0.50000041  0.20133292  0.00000115  1
  Zn  Zn24  1  0.49999959  0.00000115  0.20133292  1
  Zn  Zn25  1  0.50000000  0.79866699  0.79866699  1
  Zn  Zn26  1  0.99999959  0.20133292  0.00000115  1
  Zn  Zn27  1  0.00000000  0.79866699  0.79866699  1
  Zn  Zn28  1  0.00000041  0.00000115  0.20133292  1
  Zn  Zn29  1  0.00000041  0.79866708  0.99999885  1
  Zn  Zn30  1  0.99999959  0.99999885  0.79866708  1
  Zn  Zn31  1  0.00000000  0.20133301  0.20133301  1
  Zn  Zn32  1  0.75000000  0.91570994  0.63515897  1
  Zn  Zn33  1  0.75000000  0.71944940  0.08428634  1
  Zn  Zn34  1  0.75000000  0.36484089  0.28055146  1
  Zn  Zn35  1  0.75000000  0.71944854  0.63515911  1
  Zn  Zn36  1  0.75000000  0.36484103  0.08429006  1
  Zn  Zn37  1  0.75000000  0.91571366  0.28055060  1
  Zn  Zn38  1  0.25000000  0.08429006  0.36484103  1
  Zn  Zn39  1  0.25000000  0.28055060  0.91571366  1
  Zn  Zn40  1  0.25000000  0.63515911  0.71944854  1
  Zn  Zn41  1  0.25000000  0.28055146  0.36484089  1
  Zn  Zn42  1  0.25000000  0.63515897  0.91570994  1
  Zn  Zn43  1  0.25000000  0.08428634  0.71944940  1
  Zn  Zn44  1  0.65673527  0.90497220  0.80994563  1
  Zn  Zn45  1  0.65673596  0.90497376  0.09502624  1
  Zn  Zn46  1  0.65673527  0.19005437  0.09502780  1
  Zn  Zn47  1  0.34326473  0.09502780  0.19005437  1
  Zn  Zn48  1  0.34326404  0.09502624  0.90497376  1
  Zn  Zn49  1  0.34326473  0.80994563  0.90497220  1
  Zn  Zn50  1  0.15673527  0.09502780  0.19005437  1
  Zn  Zn51  1  0.15673596  0.09502624  0.90497376  1
  Zn  Zn52  1  0.15673527  0.80994563  0.90497220  1
  Zn  Zn53  1  0.84326473  0.90497220  0.80994563  1
  Zn  Zn54  1  0.84326404  0.90497376  0.09502624  1
  Zn  Zn55  1  0.84326473  0.19005437  0.09502780  1
  Zn  Zn56  1  0.14148909  0.43647846  0.87295705  1
  Zn  Zn57  1  0.14148311  0.43646999  0.56353001  1
  Zn  Zn58  1  0.14148909  0.12704295  0.56352154  1
  Zn  Zn59  1  0.85851091  0.56352154  0.12704295  1
  Zn  Zn60  1  0.85851689  0.56353001  0.43646999  1
  Zn  Zn61  1  0.85851091  0.87295705  0.43647846  1
  Zn  Zn62  1  0.64148909  0.56352154  0.12704295  1
  Zn  Zn63  1  0.64148311  0.56353001  0.43646999  1
  Zn  Zn64  1  0.64148909  0.87295705  0.43647846  1
  Zn  Zn65  1  0.35851091  0.43647846  0.87295705  1
  Zn  Zn66  1  0.35851689  0.43646999  0.56353001  1
  Zn  Zn67  1  0.35851091  0.12704295  0.56352154  1
  Zn  Zn68  1  0.55098059  0.39837633  0.79675495  1
  Zn  Zn69  1  0.55096835  0.39837421  0.60162579  1
  Zn  Zn70  1  0.55098059  0.20324505  0.60162367  1
  Zn  Zn71  1  0.44901941  0.60162367  0.20324505  1
  Zn  Zn72  1  0.44903165  0.60162579  0.39837421  1
  Zn  Zn73  1  0.44901941  0.79675495  0.39837633  1
  Zn  Zn74  1  0.05098059  0.60162367  0.20324505  1
  Zn  Zn75  1  0.05096835  0.60162579  0.39837421  1
  Zn  Zn76  1  0.05098059  0.79675495  0.39837633  1
  Zn  Zn77  1  0.94901941  0.39837633  0.79675495  1
  Zn  Zn78  1  0.94903165  0.39837421  0.60162579  1
  Zn  Zn79  1  0.94901941  0.20324505  0.60162367  1
  Zn  Zn80  1  0.15690844  0.76433330  0.52866569  1
  Zn  Zn81  1  0.15690549  0.76433919  0.23566081  1
  Zn  Zn82  1  0.15690844  0.47133431  0.23566670  1
  Zn  Zn83  1  0.84309156  0.23566670  0.47133431  1
  Zn  Zn84  1  0.84309451  0.23566081  0.76433919  1
  Zn  Zn85  1  0.84309156  0.52866569  0.76433330  1
  Zn  Zn86  1  0.65690844  0.23566670  0.47133431  1
  Zn  Zn87  1  0.65690549  0.23566081  0.76433919  1
  Zn  Zn88  1  0.65690844  0.52866569  0.76433330  1
  Zn  Zn89  1  0.34309156  0.76433330  0.52866569  1
  Zn  Zn90  1  0.34309451  0.76433919  0.23566081  1
  Zn  Zn91  1  0.34309156  0.47133431  0.23566670  1
  Zn  Zn92  1  0.60281450  0.63442318  0.96347462  1
  Zn  Zn93  1  0.60281597  0.32905138  0.36557701  1
  Zn  Zn94  1  0.60281503  0.03652418  0.67094824  1
  Zn  Zn95  1  0.60281503  0.32905176  0.96347582  1
  Zn  Zn96  1  0.60281450  0.03652538  0.36557682  1
  Zn  Zn97  1  0.60281597  0.63442299  0.67094862  1
  Zn  Zn98  1  0.39718550  0.36557682  0.03652538  1
  Zn  Zn99  1  0.39718403  0.67094862  0.63442299  1
  Zn  Zn100  1  0.39718497  0.96347582  0.32905176  1
  Zn  Zn101  1  0.39718497  0.67094824  0.03652418  1
  Zn  Zn102  1  0.39718550  0.96347462  0.63442318  1
  Zn  Zn103  1  0.39718403  0.36557701  0.32905138  1
  Zn  Zn104  1  0.10281450  0.36557682  0.03652538  1
  Zn  Zn105  1  0.10281597  0.67094862  0.63442299  1
  Zn  Zn106  1  0.10281503  0.96347582  0.32905176  1
  Zn  Zn107  1  0.10281503  0.67094824  0.03652418  1
  Zn  Zn108  1  0.10281450  0.96347462  0.63442318  1
  Zn  Zn109  1  0.10281597  0.36557701  0.32905138  1
  Zn  Zn110  1  0.89718550  0.63442318  0.96347462  1
  Zn  Zn111  1  0.89718403  0.32905138  0.36557701  1
  Zn  Zn112  1  0.89718497  0.03652418  0.67094824  1
  Zn  Zn113  1  0.89718497  0.32905176  0.96347582  1
  Zn  Zn114  1  0.89718550  0.03652538  0.36557682  1
  Zn  Zn115  1  0.89718403  0.63442299  0.67094862  1
loop_
_geom_bond_atom_site_label_1
_geom_bond_atom_site_label_2
_geom_bond_distance
_geom_bond_site_symmetry_2
Tb0 Zn23 2.879986 1_555
Tb0 Zn20 2.879986 1_544
Tb0 Zn24 2.879986 1_555
Tb0 Zn22 2.879986 1_544
Tb0 Zn21 2.879998 1_555
Tb0 Zn25 2.879998 1_544
Tb0 Zn45 3.216410 1_545
Tb0 Zn48 3.216410 1_554
Tb0 Zn46 3.216422 1_555
Tb0 Zn44 3.216422 1_544
Tb0 Zn47 3.216422 1_555
Tb0 Zn49 3.216422 1_544
Tb0 Zn1 3.495313 1_545
Tb0 Zn0 3.495313 1_554
Tb1 Zn28 2.879986 1_555
Tb1 Zn29 2.879986 1_544
Tb1 Zn30 2.879986 1_444
Tb1 Zn26 2.879986 1_455
Tb1 Zn31 2.879998 1_555
Tb1 Zn27 2.879998 1_544
Tb1 Zn54 3.216410 1_445
Tb1 Zn51 3.216410 1_554
Tb1 Zn55 3.216422 1_455
Tb1 Zn53 3.216422 1_444
Tb1 Zn50 3.216422 1_555
Tb1 Zn52 3.216422 1_544
Tb1 Zn1 3.495313 1_545
Tb1 Zn0 3.495313 1_454
Tb2 Zn3 3.027865 1_555
Tb2 Zn88 3.064431 1_555
Tb2 Zn85 3.064431 1_555
Tb2 Zn87 3.064499 1_555
Tb2 Zn84 3.064499 1_555
Tb2 Zn95 3.070219 1_555
Tb2 Zn113 3.070219 1_555
Tb2 Zn92 3.070224 1_555
Tb2 Zn110 3.070224 1_555
Tb2 Zn59 3.075541 1_556
Tb2 Zn62 3.075541 1_556
Tb2 Zn68 3.122274 1_555
Tb2 Zn77 3.122274 1_555
Tb2 Zn36 3.322137 1_556
Tb2 Zn33 3.322139 1_556
Tb3 Zn3 3.027910 1_555
Tb3 Zn83 3.064383 1_555
Tb3 Zn86 3.064383 1_555
Tb3 Zn88 3.064383 1_555
Tb3 Zn85 3.064383 1_555
Tb3 Zn97 3.070228 1_555
Tb3 Zn111 3.070228 1_555
Tb3 Zn115 3.070228 1_555
Tb3 Zn93 3.070228 1_555
Tb3 Zn63 3.075849 1_555
Tb3 Zn60 3.075849 1_555
Tb3 Zn78 3.122418 1_555
Tb3 Zn69 3.122418 1_555
Tb3 Zn34 3.322198 1_555
Tb3 Zn35 3.322198 1_555
Tb4 Zn3 3.027865 1_555
Tb4 Zn86 3.064431 1_555
Tb4 Zn83 3.064431 1_555
Tb4 Zn87 3.064499 1_555
Tb4 Zn84 3.064499 1_555
Tb4 Zn112 3.070219 1_555
Tb4 Zn94 3.070219 1_555
Tb4 Zn96 3.070224 1_555
Tb4 Zn114 3.070224 1_555
Tb4 Zn64 3.075541 1_545
Tb4 Zn61 3.075541 1_545
Tb4 Zn70 3.122274 1_555
Tb4 Zn79 3.122274 1_555
Tb4 Zn32 3.322137 1_545
Tb4 Zn37 3.322139 1_545
Tb5 Zn2 3.027865 1_555
Tb5 Zn91 3.064431 1_555
Tb5 Zn82 3.064431 1_555
Tb5 Zn81 3.064499 1_555
Tb5 Zn90 3.064499 1_555
Tb5 Zn107 3.070219 1_555
Tb5 Zn101 3.070219 1_555
Tb5 Zn98 3.070224 1_555
Tb5 Zn104 3.070224 1_555
Tb5 Zn56 3.075541 1_554
Tb5 Zn65 3.075541 1_554
Tb5 Zn74 3.122274 1_555
Tb5 Zn71 3.122274 1_555
Tb5 Zn42 3.322137 1_554
Tb5 Zn39 3.322139 1_554
Tb6 Zn2 3.027910 1_555
Tb6 Zn82 3.064383 1_555
Tb6 Zn91 3.064383 1_555
Tb6 Zn80 3.064383 1_555
Tb6 Zn89 3.064383 1_555
Tb6 Zn109 3.070228 1_555
Tb6 Zn103 3.070228 1_555
Tb6 Zn99 3.070228 1_555
Tb6 Zn105 3.070228 1_555
Tb6 Zn57 3.075849 1_555
Tb6 Zn66 3.075849 1_555
Tb6 Zn75 3.122418 1_555
Tb6 Zn72 3.122418 1_555
Tb6 Zn41 3.322198 1_555
Tb6 Zn40 3.322198 1_555
Tb7 Zn2 3.027865 1_555
Tb7 Zn80 3.064431 1_555
Tb7 Zn89 3.064431 1_555
Tb7 Zn81 3.064499 1_555
Tb7 Zn90 3.064499 1_555
Tb7 Zn106 3.070219 1_555
Tb7 Zn100 3.070219 1_555
Tb7 Zn102 3.070224 1_555
Tb7 Zn108 3.070224 1_555
Tb7 Zn58 3.075541 1_565
Tb7 Zn67 3.075541 1_565
Tb7 Zn76 3.122274 1_555
Tb7 Zn73 3.122274 1_555
Tb7 Zn38 3.322137 1_565
Tb7 Zn43 3.322139 1_565
Tb8 Zn86 2.965028 1_555
Tb8 Zn83 2.965028 1_555
Tb8 Zn46 3.138219 1_555
Tb8 Zn55 3.138219 1_555
Tb8 Zn45 3.138224 1_545
Tb8 Zn54 3.138224 1_545
Tb8 Zn0 3.174886 1_554
Tb8 Zn37 3.226313 1_545
Tb8 Zn34 3.226358 1_555
Tb8 Zn93 3.231910 1_555
Tb8 Zn111 3.231910 1_555
Tb8 Zn114 3.231927 1_555
Tb8 Zn96 3.231927 1_555
Tb9 Zn84 2.964941 1_555
Tb9 Zn87 2.964941 1_555
Tb9 Zn53 3.138210 1_545
Tb9 Zn44 3.138210 1_545
Tb9 Zn55 3.138210 1_556
Tb9 Zn46 3.138210 1_556
Tb9 Zn0 3.174835 1_555
Tb9 Zn36 3.226373 1_556
Tb9 Zn32 3.226373 1_545
Tb9 Zn113 3.231942 1_555
Tb9 Zn95 3.231942 1_555
Tb9 Zn112 3.231942 1_555
Tb9 Zn94 3.231942 1_555
Tb10 Zn88 2.965028 1_555
Tb10 Zn85 2.965028 1_555
Tb10 Zn53 3.138219 1_555
Tb10 Zn44 3.138219 1_555
Tb10 Zn54 3.138224 1_556
Tb10 Zn45 3.138224 1_556
Tb10 Zn0 3.174886 1_565
Tb10 Zn33 3.226313 1_556
Tb10 Zn35 3.226358 1_555
Tb10 Zn97 3.231910 1_555
Tb10 Zn115 3.231910 1_555
Tb10 Zn92 3.231927 1_555
Tb10 Zn110 3.231927 1_555
Tb11 Zn80 2.965028 1_555
Tb11 Zn89 2.965028 1_555
Tb11 Zn49 3.138219 1_555
Tb11 Zn52 3.138219 1_555
Tb11 Zn51 3.138224 1_565
Tb11 Zn48 3.138224 1_565
Tb11 Zn1 3.174886 1_556
Tb11 Zn43 3.226313 1_565
Tb11 Zn40 3.226358 1_555
Tb11 Zn105 3.231910 1_555
Tb11 Zn99 3.231910 1_555
Tb11 Zn102 3.231927 1_555
Tb11 Zn108 3.231927 1_555
Tb12 Zn81 2.964941 1_555
Tb12 Zn90 2.964941 1_555
Tb12 Zn50 3.138210 1_565
Tb12 Zn47 3.138210 1_565
Tb12 Zn52 3.138210 1_554
Tb12 Zn49 3.138210 1_554
Tb12 Zn1 3.174835 1_555
Tb12 Zn38 3.226373 1_565
Tb12 Zn42 3.226373 1_554
Tb12 Zn100 3.231942 1_555
Tb12 Zn106 3.231942 1_555
Tb12 Zn107 3.231942 1_555
Tb12 Zn101 3.231942 1_555
Tb13 Zn82 2.965028 1_555
Tb13 Zn91 2.965028 1_555
Tb13 Zn50 3.138219 1_555
Tb13 Zn47 3.138219 1_555
Tb13 Zn51 3.138224 1_554
Tb13 Zn48 3.138224 1_554
Tb13 Zn1 3.174886 1_545
Tb13 Zn39 3.226313 1_554
Tb13 Zn41 3.226358 1_555
Tb13 Zn109 3.231910 1_555
Tb13 Zn103 3.231910 1_555
Tb13 Zn104 3.231927 1_555
Tb13 Zn98 3.231927 1_555
Tb14 Zn89 3.018945 1_555
Tb14 Zn22 3.062660 1_555
Tb14 Zn25 3.062665 1_555
Tb14 Zn102 3.067135 1_555
Tb14 Zn99 3.067146 1_555
Tb14 Zn72 3.096905 1_555
Tb14 Zn73 3.096999 1_555
Tb14 Zn44 3.105700 1_555
Tb14 Zn94 3.131797 1_565
Tb14 Zn97 3.131815 1_555
Tb14 Zn32 3.152248 1_555
Tb14 Zn35 3.152251 1_555
Tb14 Zn63 3.162704 1_555
Tb14 Zn64 3.162801 1_555
Tb14 Zn14 3.184967 1_555
Tb14 Zn4 3.221440 1_555
Tb15 Zn90 3.018907 1_555
Tb15 Zn24 3.062614 1_565
Tb15 Zn20 3.062614 1_554
Tb15 Zn101 3.067147 1_555
Tb15 Zn100 3.067147 1_555
Tb15 Zn71 3.097045 1_555
Tb15 Zn73 3.097045 1_555
Tb15 Zn45 3.105637 1_555
Tb15 Zn96 3.131778 1_565
Tb15 Zn92 3.131778 1_554
Tb15 Zn33 3.152235 1_555
Tb15 Zn37 3.152235 1_555
Tb15 Zn62 3.162844 1_555
Tb15 Zn64 3.162844 1_555
Tb15 Zn15 3.184931 1_555
Tb15 Zn4 3.221419 1_555
Tb16 Zn91 3.018945 1_555
Tb16 Zn23 3.062660 1_555
Tb16 Zn21 3.062665 1_555
Tb16 Zn98 3.067135 1_555
Tb16 Zn103 3.067146 1_555
Tb16 Zn72 3.096905 1_555
Tb16 Zn71 3.096999 1_555
Tb16 Zn46 3.105700 1_555
Tb16 Zn95 3.131797 1_554
Tb16 Zn93 3.131815 1_555
Tb16 Zn36 3.152248 1_555
Tb16 Zn34 3.152251 1_555
Tb16 Zn63 3.162704 1_555
Tb16 Zn62 3.162801 1_555
Tb16 Zn16 3.184967 1_555
Tb16 Zn4 3.221440 1_555
Tb17 Zn86 3.018945 1_555
Tb17 Zn24 3.062660 1_555
Tb17 Zn21 3.062665 1_555
Tb17 Zn96 3.067135 1_555
Tb17 Zn93 3.067146 1_555
Tb17 Zn69 3.096905 1_555
Tb17 Zn70 3.096999 1_555
Tb17 Zn47 3.105700 1_555
Tb17 Zn100 3.131797 1_545
Tb17 Zn103 3.131815 1_555
Tb17 Zn38 3.152248 1_555
Tb17 Zn41 3.152251 1_555
Tb17 Zn66 3.162704 1_555
Tb17 Zn67 3.162801 1_555
Tb17 Zn17 3.184967 1_555
Tb17 Zn5 3.221440 1_555
Tb18 Zn87 3.018907 1_555
Tb18 Zn23 3.062614 1_556
Tb18 Zn22 3.062614 1_545
Tb18 Zn94 3.067147 1_555
Tb18 Zn95 3.067147 1_555
Tb18 Zn70 3.097045 1_555
Tb18 Zn68 3.097045 1_555
Tb18 Zn48 3.105637 1_555
Tb18 Zn102 3.131778 1_545
Tb18 Zn98 3.131778 1_556
Tb18 Zn39 3.152235 1_555
Tb18 Zn43 3.152235 1_555
Tb18 Zn65 3.162844 1_555
Tb18 Zn67 3.162844 1_555
Tb18 Zn18 3.184931 1_555
Tb18 Zn5 3.221419 1_555
Tb19 Zn88 3.018945 1_555
Tb19 Zn20 3.062660 1_555
Tb19 Zn25 3.062665 1_555
Tb19 Zn92 3.067135 1_555
Tb19 Zn97 3.067146 1_555
Tb19 Zn69 3.096905 1_555
Tb19 Zn68 3.096999 1_555
Tb19 Zn49 3.105700 1_555
Tb19 Zn101 3.131797 1_556
Tb19 Zn99 3.131815 1_555
Tb19 Zn42 3.152248 1_555
Tb19 Zn40 3.152251 1_555
Tb19 Zn66 3.162704 1_555
Tb19 Zn65 3.162801 1_555
Tb19 Zn19 3.184967 1_555
Tb19 Zn5 3.221440 1_555
Tb20 Zn83 3.018945 1_455
Tb20 Zn28 3.062660 1_555
Tb20 Zn31 3.062665 1_555
Tb20 Zn114 3.067135 1_455
Tb20 Zn111 3.067146 1_455
Tb20 Zn78 3.096905 1_455
Tb20 Zn79 3.096999 1_455
Tb20 Zn50 3.105700 1_555
Tb20 Zn106 3.131797 1_545
Tb20 Zn109 3.131815 1_555
Tb20 Zn38 3.152248 1_555
Tb20 Zn41 3.152251 1_555
Tb20 Zn57 3.162704 1_555
Tb20 Zn58 3.162801 1_555
Tb20 Zn17 3.184967 1_555
Tb20 Zn6 3.221440 1_555
Tb21 Zn84 3.018907 1_455
Tb21 Zn26 3.062614 1_456
Tb21 Zn30 3.062614 1_445
Tb21 Zn113 3.067147 1_455
Tb21 Zn112 3.067147 1_455
Tb21 Zn79 3.097045 1_455
Tb21 Zn77 3.097045 1_455
Tb21 Zn51 3.105637 1_555
Tb21 Zn108 3.131778 1_545
Tb21 Zn104 3.131778 1_556
Tb21 Zn39 3.152235 1_555
Tb21 Zn43 3.152235 1_555
Tb21 Zn58 3.162844 1_555
Tb21 Zn56 3.162844 1_555
Tb21 Zn18 3.184931 1_555
Tb21 Zn6 3.221419 1_555
Tb22 Zn85 3.018945 1_455
Tb22 Zn29 3.062660 1_555
Tb22 Zn27 3.062665 1_555
Tb22 Zn110 3.067135 1_455
Tb22 Zn115 3.067146 1_455
Tb22 Zn78 3.096905 1_455
Tb22 Zn77 3.096999 1_455
Tb22 Zn52 3.105700 1_555
Tb22 Zn107 3.131797 1_556
Tb22 Zn105 3.131815 1_555
Tb22 Zn42 3.152248 1_555
Tb22 Zn40 3.152251 1_555
Tb22 Zn57 3.162704 1_555
Tb22 Zn56 3.162801 1_555
Tb22 Zn19 3.184967 1_555
Tb22 Zn6 3.221440 1_555
Tb23 Zn80 3.018945 1_655
Tb23 Zn30 3.062660 1_555
Tb23 Zn27 3.062665 1_655
Tb23 Zn108 3.067135 1_655
Tb23 Zn105 3.067146 1_655
Tb23 Zn75 3.096905 1_655
Tb23 Zn76 3.096999 1_655
Tb23 Zn53 3.105700 1_555
Tb23 Zn112 3.131797 1_565
Tb23 Zn115 3.131815 1_555
Tb23 Zn32 3.152248 1_555
Tb23 Zn35 3.152251 1_555
Tb23 Zn60 3.162704 1_555
Tb23 Zn61 3.162801 1_555
Tb23 Zn14 3.184967 1_555
Tb23 Zn7 3.221440 1_555
Tb24 Zn81 3.018907 1_655
Tb24 Zn28 3.062614 1_665
Tb24 Zn29 3.062614 1_654
Tb24 Zn106 3.067147 1_655
Tb24 Zn107 3.067147 1_655
Tb24 Zn74 3.097045 1_655
Tb24 Zn76 3.097045 1_655
Tb24 Zn54 3.105637 1_555
Tb24 Zn114 3.131778 1_565
Tb24 Zn110 3.131778 1_554
Tb24 Zn33 3.152235 1_555
Tb24 Zn37 3.152235 1_555
Tb24 Zn61 3.162844 1_555
Tb24 Zn59 3.162844 1_555
Tb24 Zn15 3.184931 1_555
Tb24 Zn7 3.221419 1_555
Tb25 Zn82 3.018945 1_655
Tb25 Zn26 3.062660 1_555
Tb25 Zn31 3.062665 1_655
Tb25 Zn104 3.067135 1_655
Tb25 Zn109 3.067146 1_655
Tb25 Zn75 3.096905 1_655
Tb25 Zn74 3.096999 1_655
Tb25 Zn55 3.105700 1_555
Tb25 Zn113 3.131797 1_554
Tb25 Zn111 3.131815 1_555
Tb25 Zn36 3.152248 1_555
Tb25 Zn34 3.152251 1_555
Tb25 Zn60 3.162704 1_555
Tb25 Zn59 3.162801 1_555
Tb25 Zn16 3.184967 1_555
Tb25 Zn7 3.221440 1_555
Zn0 Zn54 2.691378 1_546
Zn0 Zn45 2.691378 1_546
Zn0 Zn46 2.691400 1_556
Zn0 Zn55 2.691400 1_556
Zn0 Zn53 2.691400 1_545
Zn0 Zn44 2.691400 1_545
Zn1 Zn48 2.691378 1_564
Zn1 Zn51 2.691378 1_564
Zn1 Zn50 2.691400 1_565
Zn1 Zn47 2.691400 1_565
Zn1 Zn52 2.691400 1_554
Zn1 Zn49 2.691400 1_554
Zn2 Zn80 2.747677 1_555
Zn2 Zn89 2.747677 1_555
Zn2 Zn91 2.747677 1_555
Zn2 Zn82 2.747677 1_555
Zn2 Zn81 2.747705 1_555
Zn2 Zn90 2.747705 1_555
Zn3 Zn88 2.747677 1_555
Zn3 Zn85 2.747677 1_555
Zn3 Zn83 2.747677 1_555
Zn3 Zn86 2.747677 1_555
Zn3 Zn87 2.747705 1_555
Zn3 Zn84 2.747705 1_555
Zn4 Zn72 2.613156 1_555
Zn4 Zn73 2.613279 1_555
Zn4 Zn71 2.613279 1_555
Zn4 Zn63 2.632807 1_555
Zn4 Zn62 2.632935 1_555
Zn4 Zn64 2.632935 1_555
Zn5 Zn69 2.613156 1_555
Zn5 Zn68 2.613279 1_555
Zn5 Zn70 2.613279 1_555
Zn5 Zn66 2.632807 1_555
Zn5 Zn65 2.632935 1_555
Zn5 Zn67 2.632935 1_555
Zn6 Zn78 2.613156 1_455
Zn6 Zn79 2.613279 1_455
Zn6 Zn77 2.613279 1_455
Zn7 Zn75 2.613156 1_655
Zn7 Zn74 2.613279 1_655
Zn7 Zn76 2.613279 1_655
Zn8 Zn98 2.653571 1_555
Zn8 Zn92 2.653571 1_554
Zn8 Zn95 2.653576 1_554
Zn9 Zn97 2.653583 1_555
Zn9 Zn99 2.653583 1_555
Zn9 Zn93 2.653583 1_555
Zn10 Zn67 2.527884 1_555
Zn10 Zn64 2.527884 1_545
Zn10 Zn73 2.616783 1_545
Zn10 Zn70 2.616783 1_555
Zn10 Zn96 2.653571 1_555
Zn10 Zn102 2.653571 1_545
Zn10 Zn100 2.653576 1_545
Zn10 Zn94 2.653576 1_555
Zn11 Zn59 2.527884 1_455
Zn11 Zn56 2.527884 1_554
Zn11 Zn74 2.616783 1_555
Zn11 Zn77 2.616783 1_454
Zn11 Zn110 2.653571 1_454
Zn11 Zn113 2.653576 1_454
Zn12 Zn60 2.527950 1_455
Zn12 Zn57 2.527950 1_555
Zn12 Zn75 2.616812 1_555
Zn12 Zn78 2.616812 1_455
Zn13 Zn61 2.527884 1_445
Zn13 Zn58 2.527884 1_555
Zn13 Zn76 2.616783 1_545
Zn13 Zn79 2.616783 1_455
Zn14 Zn32 2.576592 1_555
Zn14 Zn35 2.576599 1_555
Zn14 Zn4 2.667900 1_555
Zn14 Zn7 2.667900 1_555
Zn14 Zn63 2.699950 1_555
Zn14 Zn60 2.699950 1_555
Zn14 Zn64 2.700036 1_555
Zn14 Zn61 2.700036 1_555
Zn14 Zn16 2.733916 1_555
Zn14 Zn15 2.734017 1_555
Zn15 Zn33 2.576543 1_555
Zn15 Zn37 2.576543 1_555
Zn15 Zn7 2.667912 1_555
Zn15 Zn4 2.667912 1_555
Zn15 Zn59 2.700053 1_555
Zn15 Zn62 2.700053 1_555
Zn15 Zn61 2.700053 1_555
Zn15 Zn64 2.700053 1_555
Zn15 Zn16 2.734017 1_555
Zn16 Zn36 2.576592 1_555
Zn16 Zn34 2.576599 1_555
Zn16 Zn7 2.667900 1_555
Zn16 Zn4 2.667900 1_555
Zn16 Zn63 2.699950 1_555
Zn16 Zn60 2.699950 1_555
Zn16 Zn62 2.700036 1_555
Zn16 Zn59 2.700036 1_555
Zn17 Zn38 2.576592 1_555
Zn17 Zn41 2.576599 1_555
Zn17 Zn6 2.667900 1_555
Zn17 Zn5 2.667900 1_555
Zn17 Zn57 2.699950 1_555
Zn17 Zn66 2.699950 1_555
Zn17 Zn67 2.700036 1_555
Zn17 Zn58 2.700036 1_555
Zn17 Zn19 2.733916 1_555
Zn17 Zn18 2.734017 1_555
Zn18 Zn43 2.576543 1_555
Zn18 Zn39 2.576543 1_555
Zn18 Zn5 2.667912 1_555
Zn18 Zn6 2.667912 1_555
Zn18 Zn56 2.700053 1_555
Zn18 Zn67 2.700053 1_555
Zn18 Zn58 2.700053 1_555
Zn18 Zn65 2.700053 1_555
Zn18 Zn19 2.734017 1_555
Zn19 Zn42 2.576592 1_555
Zn19 Zn40 2.576599 1_555
Zn19 Zn5 2.667900 1_555
Zn19 Zn6 2.667900 1_555
Zn19 Zn66 2.699950 1_555
Zn19 Zn57 2.699950 1_555
Zn19 Zn56 2.700036 1_555
Zn19 Zn65 2.700036 1_555
Zn20 Zn92 2.575215 1_555
Zn20 Zn49 2.625853 1_555
Zn20 Zn45 2.625880 1_556
Zn20 Zn25 2.879979 1_555
Zn20 Zn24 2.880013 1_566
Zn21 Zn93 2.575220 1_555
Zn21 Zn46 2.625858 1_555
Zn21 Zn47 2.625858 1_555
Zn21 Zn23 2.879979 1_555
Zn21 Zn24 2.879979 1_555
Zn22 Zn94 2.575211 1_565
Zn22 Zn44 2.625853 1_555
Zn22 Zn48 2.625880 1_565
Zn22 Zn25 2.879979 1_555
Zn22 Zn23 2.880013 1_566
Zn23 Zn95 2.575211 1_554
Zn23 Zn98 2.575215 1_555
Zn23 Zn46 2.625853 1_555
Zn23 Zn48 2.625880 1_554
Zn24 Zn96 2.575215 1_555
Zn24 Zn47 2.625853 1_555
Zn24 Zn45 2.625880 1_545
Zn25 Zn99 2.575220 1_555
Zn25 Zn97 2.575220 1_555
Zn25 Zn44 2.625858 1_555
Zn25 Zn49 2.625858 1_555
Zn26 Zn55 2.625853 1_555
Zn26 Zn51 2.625880 1_654
Zn26 Zn31 2.879979 1_655
Zn26 Zn30 2.880013 1_544
Zn27 Zn53 2.625858 1_455
Zn27 Zn52 2.625858 1_555
Zn27 Zn30 2.879979 1_455
Zn27 Zn29 2.879979 1_555
Zn28 Zn50 2.625853 1_555
Zn28 Zn54 2.625880 1_445
Zn28 Zn31 2.879979 1_555
Zn28 Zn29 2.880013 1_544
Zn29 Zn52 2.625853 1_555
Zn29 Zn54 2.625880 1_456
Zn30 Zn53 2.625853 1_555
Zn30 Zn51 2.625880 1_665
Zn31 Zn55 2.625858 1_455
Zn31 Zn50 2.625858 1_555
Zn32 Zn94 2.568792 1_565
Zn32 Zn35 2.807449 1_555
Zn32 Zn44 2.891234 1_555
Zn32 Zn53 2.891234 1_555
Zn32 Zn64 3.002470 1_555
Zn32 Zn61 3.002470 1_555
Zn33 Zn92 2.568785 1_554
Zn33 Zn37 2.807492 1_555
Zn33 Zn54 2.891217 1_555
Zn33 Zn45 2.891217 1_555
Zn33 Zn62 3.002503 1_555
Zn33 Zn59 3.002503 1_555
Zn34 Zn93 2.568787 1_555
Zn34 Zn36 2.807449 1_555
Zn34 Zn46 2.891230 1_555
Zn34 Zn55 2.891230 1_555
Zn34 Zn63 3.002549 1_555
Zn34 Zn60 3.002549 1_555
Zn35 Zn97 2.568787 1_555
Zn35 Zn53 2.891230 1_555
Zn35 Zn44 2.891230 1_555
Zn35 Zn63 3.002549 1_555
Zn35 Zn60 3.002549 1_555
Zn36 Zn95 2.568792 1_554
Zn36 Zn55 2.891234 1_555
Zn36 Zn46 2.891234 1_555
Zn36 Zn59 3.002470 1_555
Zn36 Zn62 3.002470 1_555
Zn37 Zn96 2.568785 1_565
Zn37 Zn45 2.891217 1_555
Zn37 Zn54 2.891217 1_555
Zn37 Zn64 3.002503 1_555
Zn37 Zn61 3.002503 1_555
Zn38 Zn41 2.807449 1_555
Zn38 Zn47 2.891234 1_555
Zn38 Zn50 2.891234 1_555
Zn38 Zn58 3.002470 1_555
Zn38 Zn67 3.002470 1_555
Zn39 Zn98 2.568785 1_556
Zn39 Zn43 2.807492 1_555
Zn39 Zn48 2.891217 1_555
Zn39 Zn51 2.891217 1_555
Zn39 Zn56 3.002503 1_555
Zn39 Zn65 3.002503 1_555
Zn40 Zn99 2.568787 1_555
Zn40 Zn42 2.807449 1_555
Zn40 Zn49 2.891230 1_555
Zn40 Zn52 2.891230 1_555
Zn40 Zn66 3.002549 1_555
Zn40 Zn57 3.002549 1_555
Zn41 Zn50 2.891230 1_555
Zn41 Zn47 2.891230 1_555
Zn41 Zn57 3.002549 1_555
Zn41 Zn66 3.002549 1_555
Zn42 Zn52 2.891234 1_555
Zn42 Zn49 2.891234 1_555
Zn42 Zn56 3.002470 1_555
Zn42 Zn65 3.002470 1_555
Zn43 Zn51 2.891217 1_555
Zn43 Zn48 2.891217 1_555
Zn43 Zn58 3.002503 1_555
Zn43 Zn67 3.002503 1_555
Zn44 Zn53 2.607915 1_555
Zn45 Zn54 2.607896 1_555
Zn46 Zn55 2.607915 1_555
Zn47 Zn50 2.607915 1_555
Zn48 Zn51 2.607896 1_555
Zn49 Zn52 2.607915 1_555
Zn56 Zn6 2.632935 1_555
Zn56 Zn77 2.851745 1_455
Zn56 Zn65 3.034236 1_555
Zn57 Zn6 2.632807 1_555
Zn57 Zn78 2.851461 1_455
Zn57 Zn66 3.034404 1_555
Zn58 Zn6 2.632935 1_555
Zn58 Zn79 2.851745 1_455
Zn58 Zn67 3.034236 1_555
Zn59 Zn7 2.632935 1_555
Zn59 Zn74 2.851745 1_655
Zn59 Zn62 3.034236 1_555
Zn60 Zn7 2.632807 1_555
Zn60 Zn75 2.851461 1_655
Zn60 Zn63 3.034404 1_555
Zn61 Zn7 2.632935 1_555
Zn61 Zn76 2.851745 1_655
Zn61 Zn64 3.034236 1_555
Zn62 Zn8 2.527884 1_555
Zn62 Zn71 2.851745 1_555
Zn62 Zn95 3.027979 1_554
Zn62 Zn92 3.027983 1_554
Zn63 Zn9 2.527950 1_555
Zn63 Zn72 2.851461 1_555
Zn63 Zn97 3.028109 1_555
Zn63 Zn93 3.028109 1_555
Zn64 Zn73 2.851745 1_555
Zn64 Zn94 3.027979 1_565
Zn64 Zn96 3.027983 1_565
Zn65 Zn8 2.527884 1_556
Zn65 Zn68 2.851745 1_555
Zn65 Zn98 3.027983 1_556
Zn66 Zn9 2.527950 1_555
Zn66 Zn69 2.851461 1_555
Zn66 Zn99 3.028109 1_555
Zn67 Zn70 2.851745 1_555
Zn68 Zn88 2.597376 1_555
Zn68 Zn87 2.597428 1_555
Zn68 Zn8 2.616783 1_556
Zn68 Zn69 2.791237 1_555
Zn68 Zn70 2.791285 1_555
Zn69 Zn88 2.597457 1_555
Zn69 Zn86 2.597457 1_555
Zn69 Zn9 2.616812 1_555
Zn69 Zn70 2.791237 1_555
Zn70 Zn86 2.597376 1_555
Zn70 Zn87 2.597428 1_555
Zn71 Zn91 2.597376 1_555
Zn71 Zn90 2.597428 1_555
Zn71 Zn8 2.616783 1_555
Zn71 Zn72 2.791237 1_555
Zn71 Zn73 2.791285 1_555
Zn72 Zn89 2.597457 1_555
Zn72 Zn91 2.597457 1_555
Zn72 Zn9 2.616812 1_555
Zn72 Zn73 2.791237 1_555
Zn73 Zn89 2.597376 1_555
Zn73 Zn90 2.597428 1_555
Zn74 Zn82 2.597376 1_555
Zn74 Zn81 2.597428 1_555
Zn74 Zn75 2.791237 1_555
Zn74 Zn76 2.791285 1_555
Zn75 Zn80 2.597457 1_555
Zn75 Zn82 2.597457 1_555
Zn75 Zn76 2.791237 1_555
Zn76 Zn80 2.597376 1_555
Zn76 Zn81 2.597428 1_555
Zn77 Zn85 2.597376 1_555
Zn77 Zn84 2.597428 1_555
Zn77 Zn78 2.791237 1_555
Zn77 Zn79 2.791285 1_555
Zn78 Zn85 2.597457 1_555
Zn78 Zn83 2.597457 1_555
Zn78 Zn79 2.791237 1_555
Zn79 Zn83 2.597376 1_555
Zn79 Zn84 2.597428 1_555
Zn80 Zn89 2.603073 1_555
Zn81 Zn90 2.603155 1_555
Zn82 Zn91 2.603073 1_555
Zn83 Zn86 2.603073 1_555
Zn84 Zn87 2.603155 1_555
Zn85 Zn88 2.603073 1_555
Zn86 Zn93 2.581842 1_555
Zn86 Zn96 2.581843 1_555
Zn87 Zn94 2.581768 1_555
Zn87 Zn95 2.581768 1_555
Zn88 Zn97 2.581842 1_555
Zn88 Zn92 2.581843 1_555
Zn89 Zn99 2.581842 1_555
Zn91 Zn98 2.581843 1_555
Zn100 Zn38 2.568792 1_565
Zn100 Zn24 2.575211 1_565
Zn100 Zn90 2.581768 1_555
Zn100 Zn67 3.027979 1_565
Zn101 Zn42 2.568792 1_554
Zn101 Zn20 2.575211 1_554
Zn101 Zn90 2.581768 1_555
Zn101 Zn8 2.653576 1_555
Zn101 Zn65 3.027979 1_554
Zn102 Zn43 2.568785 1_565
Zn102 Zn22 2.575215 1_555
Zn102 Zn89 2.581843 1_555
Zn102 Zn67 3.027983 1_565
Zn103 Zn41 2.568787 1_555
Zn103 Zn21 2.575220 1_555
Zn103 Zn91 2.581842 1_555
Zn103 Zn9 2.653583 1_555
Zn103 Zn66 3.028109 1_555
Zn104 Zn39 2.568785 1_554
Zn104 Zn26 2.575215 1_455
Zn104 Zn82 2.581843 1_555
Zn104 Zn11 2.653571 1_555
Zn104 Zn56 3.027983 1_554
Zn105 Zn40 2.568787 1_555
Zn105 Zn27 2.575220 1_555
Zn105 Zn80 2.581842 1_555
Zn105 Zn12 2.653583 1_555
Zn105 Zn57 3.028109 1_555
Zn106 Zn38 2.568792 1_565
Zn106 Zn28 2.575211 1_565
Zn106 Zn81 2.581768 1_555
Zn106 Zn13 2.653576 1_565
Zn106 Zn58 3.027979 1_565
Zn107 Zn42 2.568792 1_554
Zn107 Zn29 2.575211 1_554
Zn107 Zn81 2.581768 1_555
Zn107 Zn11 2.653576 1_555
Zn107 Zn56 3.027979 1_554
Zn108 Zn43 2.568785 1_565
Zn108 Zn30 2.575215 1_455
Zn108 Zn80 2.581843 1_555
Zn108 Zn13 2.653571 1_565
Zn108 Zn58 3.027983 1_565
Zn109 Zn41 2.568787 1_555
Zn109 Zn31 2.575220 1_555
Zn109 Zn82 2.581842 1_555
Zn109 Zn12 2.653583 1_555
Zn109 Zn57 3.028109 1_555
Zn110 Zn33 2.568785 1_556
Zn110 Zn29 2.575215 1_655
Zn110 Zn85 2.581843 1_555
Zn110 Zn59 3.027983 1_556
Zn111 Zn34 2.568787 1_555
Zn111 Zn31 2.575220 1_655
Zn111 Zn83 2.581842 1_555
Zn111 Zn12 2.653583 1_655
Zn111 Zn60 3.028109 1_555
Zn112 Zn32 2.568792 1_545
Zn112 Zn30 2.575211 1_545
Zn112 Zn84 2.581768 1_555
Zn112 Zn13 2.653576 1_655
Zn112 Zn61 3.027979 1_545
Zn113 Zn36 2.568792 1_556
Zn113 Zn26 2.575211 1_556
Zn113 Zn84 2.581768 1_555
Zn113 Zn59 3.027979 1_556
Zn114 Zn37 2.568785 1_545
Zn114 Zn28 2.575215 1_655
Zn114 Zn83 2.581843 1_555
Zn114 Zn13 2.653571 1_655
Zn114 Zn61 3.027983 1_545
Zn115 Zn35 2.568787 1_555
Zn115 Zn27 2.575220 1_655
Zn115 Zn85 2.581842 1_555
Zn115 Zn12 2.653583 1_655
Zn115 Zn60 3.028109 1_555
