# generated using pymatgen
data_SrLi2Al4(PO5)4
_symmetry_space_group_name_H-M   'P 1'
_cell_length_a   10.55903766
_cell_length_b   10.55903766
_cell_length_c   10.55903766
_cell_angle_alpha   138.54556351
_cell_angle_beta   112.84126190
_cell_angle_gamma   82.08743323
_symmetry_Int_Tables_number   1
_chemical_formula_structural   SrLi2Al4(PO5)4
_chemical_formula_sum   'Sr2 Li4 Al8 P8 O40'
_cell_volume   695.22560967
_cell_formula_units_Z   2
loop_
 _symmetry_equiv_pos_site_id
 _symmetry_equiv_pos_as_xyz
  1  'x, y, z'
loop_
 _atom_site_type_symbol
 _atom_site_label
 _atom_site_symmetry_multiplicity
 _atom_site_fract_x
 _atom_site_fract_y
 _atom_site_fract_z
 _atom_site_occupancy
  Sr  Sr0  1  0.25000000  0.00000000  0.25000000  1
  Sr  Sr1  1  0.75000000  0.00000000  0.75000000  1
  Li  Li0  1  0.28843700  0.56693000  0.27849300  1
  Li  Li1  1  0.71156300  0.43307000  0.72150700  1
  Li  Li2  1  0.78843700  0.00994400  0.22150700  1
  Li  Li3  1  0.21156300  0.99005600  0.77849300  1
  Al  Al0  1  0.00637800  0.51748800  0.77233000  1
  Al  Al1  1  0.25484300  0.48251200  0.48889100  1
  Al  Al2  1  0.24515700  0.23404800  0.72767000  1
  Al  Al3  1  0.49362200  0.76595200  0.01110900  1
  Al  Al4  1  0.99362200  0.48251200  0.22767000  1
  Al  Al5  1  0.74515700  0.51748800  0.51110900  1
  Al  Al6  1  0.75484300  0.76595200  0.27233000  1
  Al  Al7  1  0.50637800  0.23404800  0.98889100  1
  P  P0  1  0.04157000  0.79157000  0.25000000  1
  P  P1  1  0.45843000  0.20843000  0.25000000  1
  P  P2  1  0.95843000  0.20843000  0.75000000  1
  P  P3  1  0.54157000  0.79157000  0.75000000  1
  P  P4  1  0.95738900  0.23169800  0.27430900  1
  P  P5  1  0.04261100  0.76830200  0.72569100  1
  P  P6  1  0.45738900  0.68308100  0.22569100  1
  P  P7  1  0.54261100  0.31691900  0.77430900  1
  O  O0  1  0.91075600  0.30436300  0.68315300  1
  O  O1  1  0.37879000  0.69563700  0.60639200  1
  O  O2  1  0.12121000  0.22760300  0.81684700  1
  O  O3  1  0.58924400  0.77239700  0.89360800  1
  O  O4  1  0.08924400  0.69563700  0.31684700  1
  O  O5  1  0.62121000  0.30436300  0.39360800  1
  O  O6  1  0.87879000  0.77239700  0.18315300  1
  O  O7  1  0.41075600  0.22760300  0.10639200  1
  O  O8  1  0.07640300  0.69193400  0.06663900  1
  O  O9  1  0.37470500  0.30806600  0.38446800  1
  O  O10  1  0.12529500  0.00976300  0.43336100  1
  O  O11  1  0.42359700  0.99023700  0.11553200  1
  O  O12  1  0.92359700  0.30806600  0.93336100  1
  O  O13  1  0.62529500  0.69193400  0.61553200  1
  O  O14  1  0.87470500  0.99023700  0.56663900  1
  O  O15  1  0.57640300  0.00976300  0.88446800  1
  O  O16  1  0.89880200  0.01263300  0.11383100  1
  O  O17  1  0.10119800  0.98736700  0.88616900  1
  O  O18  1  0.39880200  0.78497100  0.38616900  1
  O  O19  1  0.60119800  0.21502900  0.61383100  1
  O  O20  1  0.90211900  0.35241800  0.45029900  1
  O  O21  1  0.09788100  0.64758200  0.54970100  1
  O  O22  1  0.40211900  0.45182000  0.04970100  1
  O  O23  1  0.59788100  0.54818000  0.95029900  1
  O  O24  1  0.09393500  0.71336300  0.83656500  1
  O  O25  1  0.12320200  0.28663700  0.38057200  1
  O  O26  1  0.37679800  0.25737000  0.66343500  1
  O  O27  1  0.40606500  0.74263000  0.11942800  1
  O  O28  1  0.90606500  0.28663700  0.16343500  1
  O  O29  1  0.87679800  0.71336300  0.61942800  1
  O  O30  1  0.62320200  0.74263000  0.33656500  1
  O  O31  1  0.59393500  0.25737000  0.88057200  1
  O  O32  1  0.83289900  0.58062500  0.74772600  1
  O  O33  1  0.16710100  0.41937500  0.25227400  1
  O  O34  1  0.33289900  0.08517300  0.75227400  1
  O  O35  1  0.66710100  0.91482700  0.24772600  1
  O  O36  1  0.15481800  0.40481800  0.75000000  1
  O  O37  1  0.34518200  0.59518200  0.75000000  1
  O  O38  1  0.84518200  0.59518200  0.25000000  1
  O  O39  1  0.65481800  0.40481800  0.25000000  1
loop_
_geom_bond_atom_site_label_1
_geom_bond_atom_site_label_2
_geom_bond_distance
_geom_bond_site_symmetry_2
Li0 O18 1.933299 1_555
Li0 O33 1.942482 1_555
Li0 O1 2.341801 1_555
Li0 O4 2.341810 1_555
Li0 O22 2.490511 1_555
Li1 O19 1.933299 1_555
Li1 O32 1.942482 1_555
Li1 O5 2.341801 1_555
Li1 O0 2.341810 1_555
Li1 O23 2.490511 1_555
Li2 O16 1.933299 1_555
Li2 O35 1.942482 1_545
Li2 O3 2.341807 1_544
Li2 O6 2.341810 1_545
Li2 O20 2.490511 1_555
Li3 O17 1.933299 1_555
Li3 O34 1.942482 1_565
Li3 O7 2.341807 1_566
Li3 O2 2.341810 1_565
Li3 O21 2.490511 1_555
Al0 O36 1.811266 1_555
Al0 O32 1.849665 1_455
Al0 O24 1.878643 1_555
Al0 O8 1.899382 1_556
Al0 O0 1.918725 1_455
Al0 O20 2.133159 1_455
Al1 O37 1.811257 1_555
Al1 O33 1.849675 1_555
Al1 O25 1.878644 1_555
Al1 O9 1.899376 1_555
Al1 O1 1.918729 1_555
Al1 O21 2.133167 1_555
Al2 O36 1.811262 1_555
Al2 O34 1.849669 1_555
Al2 O26 1.878652 1_555
Al2 O10 1.899381 1_555
Al2 O2 1.918716 1_555
Al2 O22 2.133162 1_556
Al3 O37 1.811262 1_554
Al3 O35 1.849669 1_555
Al3 O27 1.878652 1_555
Al3 O11 1.899386 1_555
Al3 O3 1.918707 1_554
Al3 O23 2.133162 1_554
Al4 O38 1.811266 1_555
Al4 O33 1.849665 1_655
Al4 O28 1.878643 1_555
Al4 O12 1.899382 1_554
Al4 O4 1.918725 1_655
Al4 O21 2.133159 1_655
Al5 O39 1.811257 1_555
Al5 O32 1.849675 1_555
Al5 O29 1.878644 1_555
Al5 O13 1.899376 1_555
Al5 O5 1.918729 1_555
Al5 O20 2.133167 1_555
Al6 O38 1.811262 1_555
Al6 O35 1.849669 1_555
Al6 O30 1.878652 1_555
Al6 O14 1.899381 1_555
Al6 O6 1.918716 1_555
Al6 O23 2.133162 1_554
Al7 O39 1.811262 1_556
Al7 O34 1.849669 1_555
Al7 O31 1.878652 1_555
Al7 O15 1.899386 1_555
Al7 O7 1.918707 1_556
Al7 O22 2.133162 1_556
O0 P2 1.559872 1_555
O1 P3 1.559872 1_555
O2 P2 1.559872 1_455
O3 P3 1.559882 1_555
O4 P0 1.559872 1_555
O5 P1 1.559872 1_555
O6 P0 1.559872 1_655
O7 P1 1.559882 1_555
O8 P0 1.543928 1_555
O8 Sr0 2.671275 1_565
O9 P1 1.543921 1_555
O9 Sr0 2.671282 1_555
O10 P0 1.543921 1_545
O10 Sr0 2.671282 1_555
O11 P1 1.543922 1_565
O11 Sr0 2.671272 1_565
O12 P2 1.543928 1_555
O12 Sr1 2.671275 1_555
O13 P3 1.543921 1_555
O13 Sr1 2.671282 1_565
O14 P2 1.543921 1_565
O14 Sr1 2.671282 1_565
O15 P3 1.543922 1_545
O15 Sr1 2.671272 1_555
O16 P4 1.519664 1_555
O17 P5 1.519664 1_555
O18 P6 1.519666 1_555
O19 P7 1.519666 1_555
O20 P4 1.582761 1_555
O21 P5 1.582761 1_555
O22 P6 1.582768 1_555
O23 P7 1.582768 1_555
O24 P5 1.561951 1_555
O24 Sr0 2.629881 1_566
O25 P4 1.561951 1_455
O25 Sr0 2.629881 1_555
O26 P7 1.561951 1_555
O26 Sr0 2.629881 1_555
O27 P6 1.561941 1_555
O27 Sr0 2.629881 1_565
O28 P4 1.561951 1_555
O28 Sr1 2.629881 1_554
O29 P5 1.561951 1_655
O29 Sr1 2.629881 1_565
O30 P6 1.561951 1_555
O30 Sr1 2.629881 1_565
O31 P7 1.561941 1_555
O31 Sr1 2.629881 1_555
