# generated using pymatgen
data_Al27V
_symmetry_space_group_name_H-M   'P 1'
_cell_length_a   14.16732842
_cell_length_b   14.16732842
_cell_length_c   14.16732842
_cell_angle_alpha   60.00000000
_cell_angle_beta   60.00000000
_cell_angle_gamma   60.00000000
_symmetry_Int_Tables_number   1
_chemical_formula_structural   Al27V
_chemical_formula_sum   'Al54 V2'
_cell_volume   2010.70745162
_cell_formula_units_Z   2
loop_
 _symmetry_equiv_pos_site_id
 _symmetry_equiv_pos_as_xyz
  1  'x, y, z'
loop_
 _atom_site_type_symbol
 _atom_site_label
 _atom_site_symmetry_multiplicity
 _atom_site_fract_x
 _atom_site_fract_y
 _atom_site_fract_z
 _atom_site_occupancy
  Al  Al0  1  0.12500000  0.12500000  0.12500000  1
  Al  Al1  1  0.12500000  0.12500000  0.62500000  1
  Al  Al2  1  0.12500000  0.62500000  0.12500000  1
  Al  Al3  1  0.62500000  0.12500000  0.12500000  1
  Al  Al4  1  0.31453700  0.31453700  0.77813700  1
  Al  Al5  1  0.31453700  0.31453700  0.59278900  1
  Al  Al6  1  0.77813700  0.59278900  0.31453700  1
  Al  Al7  1  0.77813700  0.31453700  0.31453700  1
  Al  Al8  1  0.93546300  0.93546300  0.65721100  1
  Al  Al9  1  0.93546300  0.93546300  0.47186300  1
  Al  Al10  1  0.59278900  0.77813700  0.31453700  1
  Al  Al11  1  0.59278900  0.31453700  0.31453700  1
  Al  Al12  1  0.31453700  0.77813700  0.59278900  1
  Al  Al13  1  0.47186300  0.65721100  0.93546300  1
  Al  Al14  1  0.31453700  0.59278900  0.77813700  1
  Al  Al15  1  0.65721100  0.47186300  0.93546300  1
  Al  Al16  1  0.31453700  0.77813700  0.31453700  1
  Al  Al17  1  0.47186300  0.93546300  0.65721100  1
  Al  Al18  1  0.47186300  0.93546300  0.93546300  1
  Al  Al19  1  0.59278900  0.31453700  0.77813700  1
  Al  Al20  1  0.93546300  0.47186300  0.93546300  1
  Al  Al21  1  0.93546300  0.47186300  0.65721100  1
  Al  Al22  1  0.77813700  0.31453700  0.59278900  1
  Al  Al23  1  0.93546300  0.65721100  0.93546300  1
  Al  Al24  1  0.93546300  0.65721100  0.47186300  1
  Al  Al25  1  0.31453700  0.59278900  0.31453700  1
  Al  Al26  1  0.65721100  0.93546300  0.47186300  1
  Al  Al27  1  0.65721100  0.93546300  0.93546300  1
  Al  Al28  1  0.00000000  0.00000000  0.00000000  1
  Al  Al29  1  0.25000000  0.25000000  0.25000000  1
  Al  Al30  1  0.75538100  0.52212500  0.52212500  1
  Al  Al31  1  0.52212500  0.75538100  0.20036900  1
  Al  Al32  1  0.52212500  0.20036900  0.75538100  1
  Al  Al33  1  0.52212500  0.75538100  0.52212500  1
  Al  Al34  1  0.49461900  0.72787500  0.04963100  1
  Al  Al35  1  0.49461900  0.72787500  0.72787500  1
  Al  Al36  1  0.20036900  0.52212500  0.52212500  1
  Al  Al37  1  0.20036900  0.52212500  0.75538100  1
  Al  Al38  1  0.72787500  0.49461900  0.72787500  1
  Al  Al39  1  0.72787500  0.49461900  0.04963100  1
  Al  Al40  1  0.75538100  0.52212500  0.20036900  1
  Al  Al41  1  0.72787500  0.04963100  0.72787500  1
  Al  Al42  1  0.72787500  0.04963100  0.49461900  1
  Al  Al43  1  0.52212500  0.20036900  0.52212500  1
  Al  Al44  1  0.04963100  0.72787500  0.49461900  1
  Al  Al45  1  0.04963100  0.72787500  0.72787500  1
  Al  Al46  1  0.52212500  0.52212500  0.75538100  1
  Al  Al47  1  0.20036900  0.75538100  0.52212500  1
  Al  Al48  1  0.52212500  0.52212500  0.20036900  1
  Al  Al49  1  0.75538100  0.20036900  0.52212500  1
  Al  Al50  1  0.04963100  0.49461900  0.72787500  1
  Al  Al51  1  0.72787500  0.72787500  0.49461900  1
  Al  Al52  1  0.49461900  0.04963100  0.72787500  1
  Al  Al53  1  0.72787500  0.72787500  0.04963100  1
  V  V0  1  0.50000000  0.50000000  0.50000000  1
  V  V1  1  0.75000000  0.75000000  0.75000000  1
loop_
_geom_bond_atom_site_label_1
_geom_bond_atom_site_label_2
_geom_bond_distance
_geom_bond_site_symmetry_2
Al4 Al5 2.625886 1_555
Al8 Al9 2.625886 1_555
Al10 Al33 2.487130 1_555
Al10 Al31 2.487130 1_555
Al10 Al6 2.625886 1_555
Al11 Al43 2.487130 1_555
Al11 Al48 2.487130 1_555
Al11 Al7 2.625886 1_555
Al12 Al33 2.487130 1_555
Al12 Al47 2.487130 1_555
Al12 Al14 2.625886 1_555
Al13 Al34 2.487130 1_556
Al13 Al35 2.487130 1_555
Al13 Al15 2.625886 1_555
Al14 Al46 2.487130 1_555
Al14 Al37 2.487130 1_555
Al15 Al38 2.487130 1_555
Al15 Al39 2.487130 1_556
Al16 Al47 2.487130 1_555
Al16 Al31 2.487130 1_555
Al16 Al25 2.625886 1_555
Al17 Al35 2.487130 1_555
Al17 Al52 2.487130 1_565
Al17 Al26 2.625886 1_555
Al18 Al34 2.487130 1_556
Al18 Al52 2.487130 1_565
Al18 Al27 2.625886 1_555
Al19 Al46 2.487130 1_555
Al19 Al32 2.487130 1_555
Al19 Al22 2.625886 1_555
Al20 Al39 2.487130 1_556
Al20 Al50 2.487130 1_655
Al20 Al23 2.625886 1_555
Al21 Al38 2.487130 1_555
Al21 Al50 2.487130 1_655
Al21 Al24 2.625886 1_555
Al22 Al30 2.487130 1_555
Al22 Al49 2.487130 1_555
Al23 Al53 2.487130 1_556
Al23 Al45 2.487130 1_655
Al24 Al51 2.487130 1_555
Al24 Al44 2.487130 1_655
Al25 Al36 2.487130 1_555
Al25 Al48 2.487130 1_555
Al26 Al51 2.487130 1_555
Al26 Al42 2.487130 1_565
Al27 Al41 2.487130 1_565
Al27 Al53 2.487130 1_556
Al30 Al6 2.487130 1_555
Al30 Al51 2.584677 1_555
Al30 Al38 2.584677 1_555
Al31 Al34 2.584677 1_555
Al31 Al53 2.584677 1_555
Al32 Al4 2.487130 1_555
Al32 Al52 2.584677 1_555
Al32 Al41 2.584677 1_555
Al33 Al51 2.584677 1_555
Al33 Al35 2.584677 1_555
Al34 Al48 2.584677 1_555
Al35 Al46 2.584677 1_555
Al36 Al5 2.487130 1_555
Al36 Al44 2.584677 1_555
Al36 Al50 2.584677 1_555
Al37 Al4 2.487130 1_555
Al37 Al50 2.584677 1_555
Al37 Al45 2.584677 1_555
Al38 Al46 2.584677 1_555
Al39 Al40 2.584677 1_555
Al39 Al48 2.584677 1_555
Al40 Al7 2.487130 1_555
Al40 Al6 2.487130 1_555
Al40 Al53 2.584677 1_555
Al41 Al8 2.487130 1_545
Al41 Al49 2.584677 1_555
Al42 Al9 2.487130 1_545
Al42 Al49 2.584677 1_555
Al42 Al43 2.584677 1_555
Al43 Al5 2.487130 1_555
Al43 Al52 2.584677 1_555
Al44 Al9 2.487130 1_455
Al44 Al47 2.584677 1_555
Al45 Al8 2.487130 1_455
Al45 Al47 2.584677 1_555
Al49 Al7 2.487130 1_555
