# generated using pymatgen
data_TbSbO4
_symmetry_space_group_name_H-M   'P 1'
_cell_length_a   5.35877230
_cell_length_b   7.50177112
_cell_length_c   7.58485399
_cell_angle_alpha   81.00983171
_cell_angle_beta   90.00000000
_cell_angle_gamma   90.00000000
_symmetry_Int_Tables_number   1
_chemical_formula_structural   TbSbO4
_chemical_formula_sum   'Tb4 Sb4 O16'
_cell_volume   301.16747109
_cell_formula_units_Z   4
loop_
 _symmetry_equiv_pos_site_id
 _symmetry_equiv_pos_as_xyz
  1  'x, y, z'
loop_
 _atom_site_type_symbol
 _atom_site_label
 _atom_site_symmetry_multiplicity
 _atom_site_fract_x
 _atom_site_fract_y
 _atom_site_fract_z
 _atom_site_occupancy
  Tb  Tb0  1  0.72542038  0.39169175  0.35493060  1
  Tb  Tb1  1  0.27457962  0.60830825  0.64506940  1
  Tb  Tb2  1  0.77457962  0.89169175  0.35493060  1
  Tb  Tb3  1  0.22542038  0.10830825  0.64506940  1
  Sb  Sb0  1  0.76905684  0.80601001  0.83667817  1
  Sb  Sb1  1  0.23094316  0.19398999  0.16332183  1
  Sb  Sb2  1  0.26905684  0.69398999  0.16332183  1
  Sb  Sb3  1  0.73094316  0.30601001  0.83667817  1
  O  O0  1  0.90710742  0.30598296  0.06581107  1
  O  O1  1  0.09289258  0.69401704  0.93418893  1
  O  O2  1  0.37692356  0.43968505  0.16979721  1
  O  O3  1  0.62307644  0.56031495  0.83020279  1
  O  O4  1  0.12307644  0.93968505  0.16979721  1
  O  O5  1  0.87692356  0.06031495  0.83020279  1
  O  O6  1  0.59289258  0.80598296  0.06581107  1
  O  O7  1  0.40710742  0.19401704  0.93418893  1
  O  O8  1  0.97758268  0.82597635  0.61501538  1
  O  O9  1  0.02241732  0.17402365  0.38498462  1
  O  O10  1  0.47758268  0.67402365  0.38498462  1
  O  O11  1  0.52241732  0.32597635  0.61501538  1
  O  O12  1  0.50677570  0.12125043  0.32443090  1
  O  O13  1  0.49322430  0.87874957  0.67556910  1
  O  O14  1  0.99322430  0.62125043  0.32443090  1
  O  O15  1  0.00677570  0.37874957  0.67556910  1
loop_
_geom_bond_atom_site_label_1
_geom_bond_atom_site_label_2
_geom_bond_distance
_geom_bond_site_symmetry_2
O0 Sb3 1.977753 1_554
O0 Sb1 2.017459 1_655
O0 Tb0 2.571176 1_555
O1 Sb2 1.977753 1_556
O1 Sb0 2.017459 1_455
O1 Tb1 2.571176 1_555
O2 Sb2 1.986634 1_555
O2 Sb1 2.009939 1_555
O2 Tb0 2.330459 1_555
O3 Sb3 1.986634 1_555
O3 Sb0 2.009939 1_555
O3 Tb1 2.330459 1_555
O4 Sb1 1.986634 1_565
O4 Sb2 2.009939 1_555
O4 Tb2 2.330459 1_455
O5 Sb0 1.986634 1_545
O5 Sb3 2.009939 1_555
O5 Tb3 2.330459 1_655
O6 Sb0 1.977753 1_554
O6 Sb2 2.017459 1_555
O6 Tb2 2.571176 1_555
O7 Sb1 1.977753 1_556
O7 Sb3 2.017459 1_555
O7 Tb3 2.571176 1_555
O8 Sb0 2.004772 1_555
O8 Tb2 2.239212 1_555
O8 Tb1 2.266049 1_655
O8 Tb3 2.540197 1_665
O9 Sb1 2.004772 1_555
O9 Tb3 2.239212 1_555
O9 Tb0 2.266049 1_455
O9 Tb2 2.540197 1_445
O10 Sb2 2.004772 1_555
O10 Tb1 2.239212 1_555
O10 Tb2 2.266049 1_555
O10 Tb0 2.540197 1_555
O11 Sb3 2.004772 1_555
O11 Tb0 2.239212 1_555
O11 Tb3 2.266049 1_555
O11 Tb1 2.540197 1_555
O12 Sb1 1.940997 1_555
O12 Tb2 2.225790 1_545
O12 Tb0 2.385159 1_555
O12 Tb3 2.850167 1_555
O13 Sb0 1.940997 1_555
O13 Tb3 2.225790 1_565
O13 Tb1 2.385159 1_555
O13 Tb2 2.850167 1_555
O14 Sb2 1.940997 1_655
O14 Tb0 2.225790 1_555
O14 Tb2 2.385159 1_555
O14 Tb1 2.850167 1_655
O15 Sb3 1.940997 1_455
O15 Tb1 2.225790 1_555
O15 Tb3 2.385159 1_555
O15 Tb0 2.850167 1_455
