# generated using pymatgen
data_KRbGeO3
_symmetry_space_group_name_H-M   'P 1'
_cell_length_a   5.68509400
_cell_length_b   11.84920800
_cell_length_c   13.43349100
_cell_angle_alpha   90.00000000
_cell_angle_beta   90.00000000
_cell_angle_gamma   90.00000000
_symmetry_Int_Tables_number   1
_chemical_formula_structural   KRbGeO3
_chemical_formula_sum   'K8 Rb8 Ge8 O24'
_cell_volume   904.93182457
_cell_formula_units_Z   8
loop_
 _symmetry_equiv_pos_site_id
 _symmetry_equiv_pos_as_xyz
  1  'x, y, z'
loop_
 _atom_site_type_symbol
 _atom_site_label
 _atom_site_symmetry_multiplicity
 _atom_site_fract_x
 _atom_site_fract_y
 _atom_site_fract_z
 _atom_site_occupancy
  K  K0  1  0.25000000  0.86673700  0.17622900  1
  K  K1  1  0.75000000  0.13326300  0.82377100  1
  K  K2  1  0.75000000  0.36673700  0.32377100  1
  K  K3  1  0.25000000  0.63326300  0.67622900  1
  K  K4  1  0.25000000  0.09743400  0.00165600  1
  K  K5  1  0.75000000  0.90256600  0.99834400  1
  K  K6  1  0.75000000  0.59743400  0.49834400  1
  K  K7  1  0.25000000  0.40256600  0.50165600  1
  Rb  Rb0  1  0.25000000  0.08442200  0.43795900  1
  Rb  Rb1  1  0.75000000  0.91557800  0.56204100  1
  Rb  Rb2  1  0.75000000  0.58442200  0.06204100  1
  Rb  Rb3  1  0.25000000  0.41557800  0.93795900  1
  Rb  Rb4  1  0.25000000  0.55492300  0.24597100  1
  Rb  Rb5  1  0.75000000  0.44507700  0.75402900  1
  Rb  Rb6  1  0.75000000  0.05492300  0.25402900  1
  Rb  Rb7  1  0.25000000  0.94507700  0.74597100  1
  Ge  Ge0  1  0.25000000  0.25251100  0.20580600  1
  Ge  Ge1  1  0.75000000  0.74748900  0.79419400  1
  Ge  Ge2  1  0.75000000  0.75251100  0.29419400  1
  Ge  Ge3  1  0.25000000  0.24748900  0.70580600  1
  Ge  Ge4  1  0.25000000  0.76781200  0.44311100  1
  Ge  Ge5  1  0.75000000  0.23218800  0.55688900  1
  Ge  Ge6  1  0.75000000  0.26781200  0.05688900  1
  Ge  Ge7  1  0.25000000  0.73218800  0.94311100  1
  O  O0  1  0.25000000  0.10536100  0.20998200  1
  O  O1  1  0.75000000  0.89463900  0.79001800  1
  O  O2  1  0.75000000  0.60536100  0.29001800  1
  O  O3  1  0.25000000  0.39463900  0.70998200  1
  O  O4  1  0.25000000  0.32490500  0.31853500  1
  O  O5  1  0.75000000  0.67509500  0.68146500  1
  O  O6  1  0.75000000  0.82490500  0.18146500  1
  O  O7  1  0.25000000  0.17509500  0.81853500  1
  O  O8  1  0.25000000  0.62282500  0.46651600  1
  O  O9  1  0.75000000  0.37717500  0.53348400  1
  O  O10  1  0.75000000  0.12282500  0.03348400  1
  O  O11  1  0.25000000  0.87717500  0.96651600  1
  O  O12  1  0.00038400  0.31109700  0.13514700  1
  O  O13  1  0.99961600  0.68890300  0.86485300  1
  O  O14  1  0.99961600  0.81109700  0.36485300  1
  O  O15  1  0.50038400  0.68890300  0.86485300  1
  O  O16  1  0.00038400  0.18890300  0.63514700  1
  O  O17  1  0.49961600  0.31109700  0.13514700  1
  O  O18  1  0.49961600  0.18890300  0.63514700  1
  O  O19  1  0.50038400  0.81109700  0.36485300  1
  O  O20  1  0.25000000  0.64254000  0.04563000  1
  O  O21  1  0.75000000  0.35746000  0.95437000  1
  O  O22  1  0.75000000  0.14254000  0.45437000  1
  O  O23  1  0.25000000  0.85746000  0.54563000  1
loop_
_geom_bond_atom_site_label_1
_geom_bond_atom_site_label_2
_geom_bond_distance
_geom_bond_site_symmetry_2
K0 O11 2.819891 1_554
K0 O0 2.863630 1_565
K0 O6 2.886298 1_455
K0 O6 2.886298 1_555
K0 O19 2.980173 1_555
K0 O14 2.980173 1_455
K0 O20 3.183585 1_555
K1 O10 2.819891 1_556
K1 O1 2.863630 1_545
K1 O7 2.886298 1_655
K1 O7 2.886298 1_555
K1 O16 2.980173 1_655
K1 O18 2.980173 1_555
K1 O21 3.183585 1_555
K2 O9 2.819891 1_555
K2 O2 2.863630 1_555
K2 O4 2.886298 1_655
K2 O4 2.886298 1_555
K2 O17 2.980173 1_555
K2 O12 2.980173 1_655
K2 O22 3.183585 1_555
K3 O8 2.819891 1_555
K3 O3 2.863630 1_555
K3 O5 2.886298 1_555
K3 O5 2.886298 1_455
K3 O15 2.980173 1_555
K3 O13 2.980173 1_455
K3 O23 3.183585 1_555
K4 O7 2.626439 1_554
K4 O11 2.652241 1_544
K4 O0 2.800121 1_555
K4 O10 2.890225 1_455
K4 O10 2.890225 1_555
K5 O6 2.626439 1_556
K5 O10 2.652241 1_566
K5 O1 2.800121 1_555
K5 O11 2.890225 1_555
K5 O11 2.890225 1_655
K6 O5 2.626439 1_555
K6 O9 2.652241 1_555
K6 O2 2.800121 1_555
K6 O8 2.890225 1_655
K6 O8 2.890225 1_555
K7 O4 2.626439 1_555
K7 O8 2.652241 1_555
K7 O3 2.800121 1_555
K7 O9 2.890225 1_455
K7 O9 2.890225 1_555
Ge0 O4 1.740425 1_555
Ge0 O0 1.744513 1_555
Ge0 O17 1.843015 1_555
Ge0 O12 1.843015 1_555
Ge1 O5 1.740425 1_555
Ge1 O1 1.744513 1_555
Ge1 O15 1.843015 1_555
Ge1 O13 1.843015 1_555
Ge2 O6 1.740425 1_555
Ge2 O2 1.744513 1_555
Ge2 O19 1.843015 1_555
Ge2 O14 1.843015 1_555
Ge3 O7 1.740425 1_555
Ge3 O3 1.744513 1_555
Ge3 O16 1.843015 1_555
Ge3 O18 1.843015 1_555
Ge4 O23 1.739264 1_555
Ge4 O8 1.746515 1_555
Ge4 O14 1.842410 1_455
Ge4 O19 1.842410 1_555
Ge5 O22 1.739264 1_555
Ge5 O9 1.746515 1_555
Ge5 O18 1.842410 1_555
Ge5 O16 1.842410 1_655
Ge6 O21 1.739264 1_554
Ge6 O10 1.746515 1_555
Ge6 O17 1.842410 1_555
Ge6 O12 1.842410 1_655
Ge7 O20 1.739264 1_556
Ge7 O11 1.746515 1_555
Ge7 O13 1.842410 1_455
Ge7 O15 1.842410 1_555
O0 Rb6 2.964351 1_555
O0 Rb6 2.964351 1_455
O0 Rb0 3.072561 1_555
O1 Rb7 2.964351 1_655
O1 Rb7 2.964351 1_555
O1 Rb1 3.072561 1_555
O2 Rb4 2.964351 1_555
O2 Rb4 2.964351 1_655
O2 Rb2 3.072561 1_555
O3 Rb5 2.964351 1_555
O3 Rb5 2.964351 1_455
O3 Rb3 3.072561 1_555
O4 Rb4 2.894604 1_555
O4 Rb0 3.270100 1_555
O5 Rb5 2.894604 1_555
O5 Rb1 3.270100 1_555
O6 Rb6 2.894604 1_565
O6 Rb2 3.270100 1_555
O7 Rb7 2.894604 1_545
O7 Rb3 3.270100 1_555
O8 Rb4 3.069997 1_555
O9 Rb5 3.069997 1_555
O10 Rb6 3.069997 1_555
O11 Rb7 3.069997 1_555
O12 Rb3 3.250123 1_554
O13 Rb2 3.250123 1_556
O14 Rb1 3.250123 1_555
O15 Rb2 3.250123 1_556
O16 Rb0 3.250123 1_555
O17 Rb3 3.250123 1_554
O18 Rb0 3.250123 1_555
O19 Rb1 3.250123 1_555
O20 Rb4 2.884584 1_555
O20 Rb2 2.933073 1_455
O20 Rb2 2.933073 1_555
O20 Rb3 3.053606 1_554
O21 Rb5 2.884584 1_555
O21 Rb3 2.933073 1_655
O21 Rb3 2.933073 1_555
O21 Rb2 3.053606 1_556
O22 Rb6 2.884584 1_555
O22 Rb0 2.933073 1_655
O22 Rb0 2.933073 1_555
O22 Rb1 3.053606 1_545
O23 Rb7 2.884584 1_555
O23 Rb1 2.933073 1_455
O23 Rb1 2.933073 1_555
O23 Rb0 3.053606 1_565
