# generated using pymatgen
data_HoB2C
_symmetry_space_group_name_H-M   'P 1'
_cell_length_a   6.76960129
_cell_length_b   6.76960129
_cell_length_c   7.39714863
_cell_angle_alpha   90.00000000
_cell_angle_beta   90.00000000
_cell_angle_gamma   90.00000000
_symmetry_Int_Tables_number   1
_chemical_formula_structural   HoB2C
_chemical_formula_sum   'Ho8 B16 C8'
_cell_volume   338.99284087
_cell_formula_units_Z   8
loop_
 _symmetry_equiv_pos_site_id
 _symmetry_equiv_pos_as_xyz
  1  'x, y, z'
loop_
 _atom_site_type_symbol
 _atom_site_label
 _atom_site_symmetry_multiplicity
 _atom_site_fract_x
 _atom_site_fract_y
 _atom_site_fract_z
 _atom_site_occupancy
  Ho  Ho0  1  0.30904794  0.80904794  0.75000000  1
  Ho  Ho1  1  0.19095206  0.30904794  0.25000000  1
  Ho  Ho2  1  0.80904794  0.69095206  0.25000000  1
  Ho  Ho3  1  0.69095206  0.19095206  0.75000000  1
  Ho  Ho4  1  0.69095206  0.19095206  0.25000000  1
  Ho  Ho5  1  0.80904794  0.69095206  0.75000000  1
  Ho  Ho6  1  0.19095206  0.30904794  0.75000000  1
  Ho  Ho7  1  0.30904794  0.80904794  0.25000000  1
  B  B0  1  0.15169227  0.03424005  -0.00000000  1
  B  B1  1  0.53424005  0.65169227  0.50000000  1
  B  B2  1  0.84830773  0.96575995  0.00000000  1
  B  B3  1  0.34830773  0.53424005  0.00000000  1
  B  B4  1  0.65169227  0.46575995  -0.00000000  1
  B  B5  1  0.03424005  0.84830773  0.50000000  1
  B  B6  1  0.96575995  0.15169227  0.50000000  1
  B  B7  1  0.46575995  0.34830773  0.50000000  1
  B  B8  1  0.09740229  0.59434526  -0.00000000  1
  B  B9  1  0.40565474  0.09740229  0.50000000  1
  B  B10  1  0.59434526  0.90259771  0.50000000  1
  B  B11  1  0.59740229  0.90565474  -0.00000000  1
  B  B12  1  0.40259771  0.09434526  0.00000000  1
  B  B13  1  0.90259771  0.40565474  0.00000000  1
  B  B14  1  0.09434526  0.59740229  0.50000000  1
  B  B15  1  0.90565474  0.40259771  0.50000000  1
  C  C0  1  0.17764844  0.04065987  0.50000000  1
  C  C1  1  0.67764844  0.45934013  0.50000000  1
  C  C2  1  0.32235156  0.54065987  0.50000000  1
  C  C3  1  0.95934013  0.17764844  -0.00000000  1
  C  C4  1  0.04065987  0.82235156  0.00000000  1
  C  C5  1  0.54065987  0.67764844  -0.00000000  1
  C  C6  1  0.82235156  0.95934013  0.50000000  1
  C  C7  1  0.45934013  0.32235156  0.00000000  1
loop_
_geom_bond_atom_site_label_1
_geom_bond_atom_site_label_2
_geom_bond_distance
_geom_bond_site_symmetry_2
B0 C4 1.619406 1_545
B0 C3 1.624215 1_455
B0 Ho7 2.622703 1_545
B0 Ho0 2.622703 1_544
B0 Ho6 2.636544 1_554
B0 Ho1 2.636544 1_555
B1 C2 1.619406 1_555
B1 C1 1.624215 1_555
B1 Ho0 2.622703 1_555
B1 Ho7 2.622703 1_555
B1 Ho2 2.636544 1_555
B1 Ho5 2.636544 1_555
B2 C3 1.619406 1_565
B2 C4 1.624215 1_655
B2 Ho3 2.622703 1_564
B2 Ho4 2.622703 1_565
B2 Ho2 2.636544 1_555
B2 Ho5 2.636544 1_554
B3 C7 1.619406 1_555
B3 C5 1.624215 1_555
B3 Ho6 2.622703 1_554
B3 Ho1 2.622703 1_555
B3 Ho0 2.636544 1_554
B3 Ho7 2.636544 1_555
B4 C5 1.619406 1_555
B4 C7 1.624215 1_555
B4 Ho5 2.622703 1_554
B4 Ho2 2.622703 1_555
B4 Ho4 2.636544 1_555
B4 Ho3 2.636544 1_554
B5 C6 1.619406 1_455
B5 C0 1.624215 1_565
B5 Ho5 2.622703 1_455
B5 Ho2 2.622703 1_455
B5 Ho7 2.636544 1_555
B5 Ho0 2.636544 1_555
B6 C0 1.619406 1_655
B6 C6 1.624215 1_545
B6 Ho6 2.622703 1_655
B6 Ho1 2.622703 1_655
B6 Ho3 2.636544 1_555
B6 Ho4 2.636544 1_555
B7 C1 1.619406 1_555
B7 C2 1.624215 1_555
B7 Ho3 2.622703 1_555
B7 Ho4 2.622703 1_555
B7 Ho1 2.636544 1_555
B7 Ho6 2.636544 1_555
B8 C4 1.590591 1_555
B8 Ho6 2.747915 1_554
B8 Ho1 2.747915 1_555
B8 Ho0 2.754120 1_554
B8 Ho7 2.754120 1_555
B8 Ho2 2.767317 1_455
B8 Ho5 2.767317 1_454
B9 C0 1.590591 1_555
B9 Ho3 2.747915 1_555
B9 Ho4 2.747915 1_555
B9 Ho1 2.754120 1_555
B9 Ho6 2.754120 1_555
B9 Ho0 2.767317 1_545
B9 Ho7 2.767317 1_545
B10 C6 1.590591 1_555
B10 Ho0 2.747915 1_555
B10 Ho7 2.747915 1_555
B10 Ho2 2.754120 1_555
B10 Ho5 2.754120 1_555
B10 Ho3 2.767317 1_565
B10 Ho4 2.767317 1_565
B11 C5 1.590591 1_555
B11 Ho4 2.747915 1_565
B11 Ho3 2.747915 1_564
B11 Ho5 2.754120 1_554
B11 Ho2 2.754120 1_555
B11 Ho7 2.767317 1_555
B11 Ho0 2.767317 1_554
B12 C7 1.590591 1_555
B12 Ho0 2.747915 1_544
B12 Ho7 2.747915 1_545
B12 Ho6 2.754120 1_554
B12 Ho1 2.754120 1_555
B12 Ho4 2.767317 1_555
B12 Ho3 2.767317 1_554
B13 C3 1.590591 1_555
B13 Ho5 2.747915 1_554
B13 Ho2 2.747915 1_555
B13 Ho4 2.754120 1_555
B13 Ho3 2.754120 1_554
B13 Ho1 2.767317 1_655
B13 Ho6 2.767317 1_654
B14 C2 1.590591 1_555
B14 Ho5 2.747915 1_455
B14 Ho2 2.747915 1_455
B14 Ho0 2.754120 1_555
B14 Ho7 2.754120 1_555
B14 Ho6 2.767317 1_555
B14 Ho1 2.767317 1_555
B15 C1 1.590591 1_555
B15 Ho6 2.747915 1_655
B15 Ho1 2.747915 1_655
B15 Ho3 2.754120 1_555
B15 Ho4 2.754120 1_555
B15 Ho5 2.767317 1_555
B15 Ho2 2.767317 1_555
C0 Ho7 2.582535 1_545
C0 Ho0 2.582535 1_545
C0 Ho1 2.594037 1_555
C0 Ho6 2.594037 1_555
C1 Ho2 2.582535 1_555
C1 Ho5 2.582535 1_555
C1 Ho4 2.594037 1_555
C1 Ho3 2.594037 1_555
C2 Ho1 2.582535 1_555
C2 Ho6 2.582535 1_555
C2 Ho7 2.594037 1_555
C2 Ho0 2.594037 1_555
C3 Ho6 2.582535 1_654
C3 Ho1 2.582535 1_655
C3 Ho4 2.594037 1_555
C3 Ho3 2.594037 1_554
C4 Ho2 2.582535 1_455
C4 Ho5 2.582535 1_454
C4 Ho7 2.594037 1_555
C4 Ho0 2.594037 1_554
C5 Ho0 2.582535 1_554
C5 Ho7 2.582535 1_555
C5 Ho5 2.594037 1_554
C5 Ho2 2.594037 1_555
C6 Ho4 2.582535 1_565
C6 Ho3 2.582535 1_565
C6 Ho2 2.594037 1_555
C6 Ho5 2.594037 1_555
C7 Ho4 2.582535 1_555
C7 Ho3 2.582535 1_554
C7 Ho1 2.594037 1_555
C7 Ho6 2.594037 1_554
