# generated using pymatgen
data_Na2B5O11
_symmetry_space_group_name_H-M   'P 1'
_cell_length_a   6.46162600
_cell_length_b   11.38185600
_cell_length_c   11.85632017
_cell_angle_alpha   89.88919532
_cell_angle_beta   90.00000000
_cell_angle_gamma   90.00000000
_symmetry_Int_Tables_number   1
_chemical_formula_structural   Na2B5O11
_chemical_formula_sum   'Na8 B20 O44'
_cell_volume   871.97495367
_cell_formula_units_Z   4
loop_
 _symmetry_equiv_pos_site_id
 _symmetry_equiv_pos_as_xyz
  1  'x, y, z'
loop_
 _atom_site_type_symbol
 _atom_site_label
 _atom_site_symmetry_multiplicity
 _atom_site_fract_x
 _atom_site_fract_y
 _atom_site_fract_z
 _atom_site_occupancy
  Na  Na0  1  0.24253800  0.04249400  0.23350400  1
  Na  Na1  1  0.75746200  0.04249400  0.73350400  1
  Na  Na2  1  0.09461900  0.86800000  0.53883500  1
  Na  Na3  1  0.90538100  0.86800000  0.03883500  1
  Na  Na4  1  0.40591200  0.36756500  0.45305500  1
  Na  Na5  1  0.59408800  0.36756500  0.95305500  1
  Na  Na6  1  0.25824900  0.54218800  0.75798700  1
  Na  Na7  1  0.74175100  0.54218800  0.25798700  1
  B  B0  1  0.89302600  0.29916100  0.14869000  1
  B  B1  1  0.10697400  0.29916100  0.64869000  1
  B  B2  1  0.23242100  0.38732400  0.21588100  1
  B  B3  1  0.76757900  0.38732400  0.71588100  1
  B  B4  1  0.13340000  0.38511500  0.00750900  1
  B  B5  1  0.86660000  0.38511500  0.50750900  1
  B  B6  1  0.53544000  0.25090400  0.21618400  1
  B  B7  1  0.46456000  0.25090400  0.71618400  1
  B  B8  1  0.78869100  0.09550700  0.20470600  1
  B  B9  1  0.21130900  0.09550700  0.70470600  1
  B  B10  1  0.39306500  0.79876700  0.34305300  1
  B  B11  1  0.60693500  0.79876700  0.84305300  1
  B  B12  1  0.28837500  0.59531600  0.28662100  1
  B  B13  1  0.71162500  0.59531600  0.78662100  1
  B  B14  1  0.03552800  0.75086500  0.27518700  1
  B  B15  1  0.96447200  0.75086500  0.77518700  1
  B  B16  1  0.73298900  0.88718500  0.27632000  1
  B  B17  1  0.26701100  0.88718500  0.77632000  1
  B  B18  1  0.63223600  0.88485800  0.48403100  1
  B  B19  1  0.36776400  0.88485800  0.98403100  1
  O  O0  1  0.00774500  0.37742100  0.22560700  1
  O  O1  1  0.99225500  0.37742100  0.72560700  1
  O  O2  1  0.27198800  0.41373800  0.09356500  1
  O  O3  1  0.72801200  0.41373800  0.59356500  1
  O  O4  1  0.94719400  0.33226400  0.03071900  1
  O  O5  1  0.05280600  0.33226400  0.53071900  1
  O  O6  1  0.66899200  0.32537900  0.16234200  1
  O  O7  1  0.33100800  0.32537900  0.66234200  1
  O  O8  1  0.59406800  0.13528900  0.23993100  1
  O  O9  1  0.40593200  0.13528900  0.73993100  1
  O  O10  1  0.93427200  0.17265400  0.16660500  1
  O  O11  1  0.06572800  0.17265400  0.66660500  1
  O  O12  1  0.43426500  0.67232400  0.32497400  1
  O  O13  1  0.56573500  0.67232400  0.82497400  1
  O  O14  1  0.09441900  0.63551500  0.25071300  1
  O  O15  1  0.90558100  0.63551500  0.75071300  1
  O  O16  1  0.16915300  0.82506500  0.32919000  1
  O  O17  1  0.83084700  0.82506500  0.82919000  1
  O  O18  1  0.50826600  0.87723100  0.26618400  1
  O  O19  1  0.49173400  0.87723100  0.76618400  1
  O  O20  1  0.77168700  0.91366200  0.39852800  1
  O  O21  1  0.22831300  0.91366200  0.89852800  1
  O  O22  1  0.44680500  0.83104700  0.46110500  1
  O  O23  1  0.55319500  0.83104700  0.96110500  1
  O  O24  1  0.32804500  0.47782800  0.28643200  1
  O  O25  1  0.67195500  0.47782800  0.78643200  1
  O  O26  1  0.82925500  0.97797800  0.20572800  1
  O  O27  1  0.17074500  0.97797800  0.70572800  1
  O  O28  1  0.33693200  0.27601000  0.24609900  1
  O  O29  1  0.66306800  0.27601000  0.74609900  1
  O  O30  1  0.20721600  0.40965300  0.90214400  1
  O  O31  1  0.79278400  0.40965300  0.40214400  1
  O  O32  1  0.83676800  0.77599900  0.24594000  1
  O  O33  1  0.16323200  0.77599900  0.74594000  1
  O  O34  1  0.70449500  0.91098300  0.58945500  1
  O  O35  1  0.29550500  0.91098300  0.08945500  1
  O  O36  1  0.08053200  0.03037800  0.41795800  1
  O  O37  1  0.91946800  0.03037800  0.91795800  1
  O  O38  1  0.00114700  0.65211700  0.54091100  1
  O  O39  1  0.99885300  0.65211700  0.04091100  1
  O  O40  1  0.48010100  0.14820600  0.44854700  1
  O  O41  1  0.51989900  0.14820600  0.94854700  1
  O  O42  1  0.43012500  0.52851200  0.57465700  1
  O  O43  1  0.56987500  0.52851200  0.07465700  1
loop_
_geom_bond_atom_site_label_1
_geom_bond_atom_site_label_2
_geom_bond_distance
_geom_bond_site_symmetry_2
Na0 O35 2.298792 1_545
Na0 O36 2.428254 1_555
Na0 O8 2.506221 1_555
Na0 O18 2.575593 1_545
Na0 O10 2.605183 1_455
Na0 O28 2.731301 1_555
Na0 O16 2.761415 1_545
Na0 O26 2.789277 1_445
Na1 O34 2.298792 1_545
Na1 O37 2.428254 1_555
Na1 O9 2.506221 1_555
Na1 O19 2.575593 1_545
Na1 O11 2.605183 1_655
Na1 O29 2.731301 1_555
Na1 O17 2.761415 1_545
Na1 O27 2.789277 1_645
Na2 O36 2.338308 1_565
Na2 O27 2.394542 1_555
Na2 O22 2.491288 1_555
Na2 O38 2.530365 1_555
Na2 O16 2.579487 1_555
Na2 O34 2.637288 1_455
Na2 O33 2.704185 1_555
Na2 O20 2.718134 1_455
Na3 O37 2.338308 1_564
Na3 O26 2.394542 1_555
Na3 O23 2.491288 1_554
Na3 O39 2.530365 1_555
Na3 O17 2.579487 1_554
Na3 O35 2.637288 1_655
Na3 O32 2.704185 1_555
Na3 O21 2.718134 1_654
Na4 O42 2.338613 1_555
Na4 O24 2.391930 1_555
Na4 O5 2.492744 1_555
Na4 O40 2.542981 1_555
Na4 O7 2.572433 1_555
Na4 O31 2.615688 1_555
Na4 O28 2.704678 1_555
Na4 O3 2.717842 1_555
Na5 O43 2.338613 1_556
Na5 O25 2.391930 1_555
Na5 O4 2.492744 1_556
Na5 O41 2.542981 1_555
Na5 O6 2.572433 1_556
Na5 O30 2.615688 1_555
Na5 O29 2.704678 1_555
Na5 O2 2.717842 1_556
Na6 O30 2.301215 1_555
Na6 O42 2.446137 1_555
Na6 O15 2.515630 1_455
Na6 O1 2.573177 1_455
Na6 O13 2.603242 1_555
Na6 O33 2.734572 1_555
Na6 O7 2.758133 1_555
Na6 O25 2.792036 1_555
Na7 O31 2.301215 1_555
Na7 O43 2.446137 1_555
Na7 O14 2.515630 1_655
Na7 O0 2.573177 1_655
Na7 O12 2.603242 1_555
Na7 O32 2.734572 1_555
Na7 O6 2.758133 1_555
Na7 O24 2.792036 1_555
B0 O0 1.475706 1_655
B0 O10 1.479267 1_555
B0 O6 1.486960 1_555
B0 O4 1.489563 1_555
B1 O1 1.475706 1_455
B1 O11 1.479267 1_555
B1 O7 1.486960 1_555
B1 O5 1.489563 1_555
B2 O0 1.460683 1_555
B2 O24 1.464896 1_555
B2 O28 1.479134 1_555
B2 O2 1.502396 1_555
B3 O1 1.460683 1_555
B3 O25 1.464896 1_555
B3 O29 1.479134 1_555
B3 O3 1.502396 1_555
B4 O30 1.365561 1_554
B4 O4 1.372813 1_455
B4 O2 1.396558 1_555
B5 O31 1.365561 1_555
B5 O5 1.372813 1_655
B5 O3 1.396558 1_555
B6 O28 1.361295 1_555
B6 O6 1.366989 1_555
B6 O8 1.397491 1_555
B7 O29 1.361295 1_555
B7 O7 1.366989 1_555
B7 O9 1.397491 1_555
B8 O26 1.363166 1_545
B8 O10 1.363249 1_555
B8 O8 1.400602 1_555
B9 O27 1.363166 1_545
B9 O11 1.363249 1_555
B9 O9 1.400602 1_555
B10 O18 1.476194 1_555
B10 O12 1.479588 1_555
B10 O16 1.486523 1_555
B10 O22 1.488829 1_555
B11 O19 1.476194 1_555
B11 O13 1.479588 1_555
B11 O17 1.486523 1_555
B11 O23 1.488829 1_555
B12 O24 1.361584 1_555
B12 O12 1.365729 1_555
B12 O14 1.400189 1_555
B13 O25 1.361584 1_555
B13 O13 1.365729 1_555
B13 O15 1.400189 1_555
B14 O32 1.360572 1_455
B14 O16 1.367773 1_555
B14 O14 1.397918 1_555
B15 O33 1.360572 1_655
B15 O17 1.367773 1_555
B15 O15 1.397918 1_555
B16 O18 1.461457 1_555
B16 O26 1.466965 1_555
B16 O32 1.477390 1_555
B16 O20 1.501483 1_555
B17 O19 1.461457 1_555
B17 O27 1.466965 1_555
B17 O33 1.477390 1_555
B17 O21 1.501483 1_555
B18 O34 1.367557 1_555
B18 O22 1.373061 1_555
B18 O20 1.394931 1_555
B19 O35 1.367557 1_556
B19 O23 1.373061 1_555
B19 O21 1.394931 1_555
