# generated using pymatgen
data_La7SmMn7CuO20
_symmetry_space_group_name_H-M   'P 1'
_cell_length_a   11.34844578
_cell_length_b   11.73302220
_cell_length_c   17.85156416
_cell_angle_alpha   109.30211606
_cell_angle_beta   108.56344683
_cell_angle_gamma   90.01441399
_symmetry_Int_Tables_number   1
_chemical_formula_structural   La7SmMn7CuO20
_chemical_formula_sum   'La28 Sm4 Mn28 Cu4 O80'
_cell_volume   2111.80156495
_cell_formula_units_Z   4
loop_
 _symmetry_equiv_pos_site_id
 _symmetry_equiv_pos_as_xyz
  1  'x, y, z'
loop_
 _atom_site_type_symbol
 _atom_site_label
 _atom_site_symmetry_multiplicity
 _atom_site_fract_x
 _atom_site_fract_y
 _atom_site_fract_z
 _atom_site_occupancy
  La  La0  1  0.29212600  0.06207000  0.11016900  1
  La  La1  1  0.29874000  0.06542900  0.61162500  1
  La  La2  1  0.29894700  0.56494700  0.61378300  1
  La  La3  1  0.79947900  0.06574300  0.61313600  1
  La  La4  1  0.80322600  0.57042800  0.10669900  1
  La  La5  1  0.80008900  0.56555600  0.61358100  1
  La  La6  1  0.18628200  0.43347900  0.38614000  1
  La  La7  1  0.18175300  0.43621800  0.89164100  1
  La  La8  1  0.18543800  0.93349200  0.38443700  1
  La  La9  1  0.18424900  0.93529100  0.89038000  1
  La  La10  1  0.68525700  0.43527300  0.38553300  1
  La  La11  1  0.68550300  0.93344700  0.38733400  1
  La  La12  1  0.68776100  0.93249400  0.89367200  1
  La  La13  1  0.04662700  0.28840200  0.10900100  1
  La  La14  1  0.04929100  0.29899400  0.61359800  1
  La  La15  1  0.04885000  0.79813000  0.61261400  1
  La  La16  1  0.54943800  0.28410000  0.10859500  1
  La  La17  1  0.54867400  0.29830300  0.61417100  1
  La  La18  1  0.55014000  0.79937200  0.11022900  1
  La  La19  1  0.54938500  0.79801100  0.61347000  1
  La  La20  1  0.43586200  0.20209900  0.38671800  1
  La  La21  1  0.43953900  0.20564800  0.88982100  1
  La  La22  1  0.43498500  0.70009700  0.38446200  1
  La  La23  1  0.44415600  0.71091200  0.89249700  1
  La  La24  1  0.93454000  0.20216300  0.38569300  1
  La  La25  1  0.93690700  0.20971200  0.89153600  1
  La  La26  1  0.93427000  0.70054400  0.38499400  1
  La  La27  1  0.93165300  0.71130300  0.89362100  1
  Sm  Sm0  1  0.28669600  0.56990000  0.10893900  1
  Sm  Sm1  1  0.79432200  0.06319800  0.10801600  1
  Sm  Sm2  1  0.69020000  0.43521600  0.89278700  1
  Sm  Sm3  1  0.04209700  0.78924900  0.10784200  1
  Mn  Mn0  1  0.00133800  0.99975400  0.49936800  1
  Mn  Mn1  1  0.00106100  0.49999800  0.49940900  1
  Mn  Mn2  1  0.50075400  0.99937000  0.49939300  1
  Mn  Mn3  1  0.50227600  0.50202900  0.00244500  1
  Mn  Mn4  1  0.50119300  0.49992600  0.49966800  1
  Mn  Mn5  1  0.25272500  0.25241700  0.00259600  1
  Mn  Mn6  1  0.25073700  0.24987200  0.49956100  1
  Mn  Mn7  1  0.25007600  0.75043100  0.00020600  1
  Mn  Mn8  1  0.25132200  0.74959700  0.49946000  1
  Mn  Mn9  1  0.75153500  0.24936300  0.00073100  1
  Mn  Mn10  1  0.75086200  0.25000800  0.49968000  1
  Mn  Mn11  1  0.75055600  0.74938400  0.49921500  1
  Mn  Mn12  1  0.10400900  0.09628300  0.24971000  1
  Mn  Mn13  1  0.10786900  0.10188800  0.75184400  1
  Mn  Mn14  1  0.10804000  0.59914500  0.25055300  1
  Mn  Mn15  1  0.10773400  0.60201000  0.75292000  1
  Mn  Mn16  1  0.60812900  0.09839500  0.25176600  1
  Mn  Mn17  1  0.60819500  0.10092100  0.75137400  1
  Mn  Mn18  1  0.60264500  0.59737700  0.24378200  1
  Mn  Mn19  1  0.60594000  0.59674300  0.74965400  1
  Mn  Mn20  1  0.35581600  0.39998800  0.24621600  1
  Mn  Mn21  1  0.35944700  0.40193200  0.75330300  1
  Mn  Mn22  1  0.35240200  0.89579000  0.24661400  1
  Mn  Mn23  1  0.35666700  0.90120200  0.74854600  1
  Mn  Mn24  1  0.85474600  0.39805200  0.24686200  1
  Mn  Mn25  1  0.85432100  0.40204800  0.74915800  1
  Mn  Mn26  1  0.85916500  0.90319000  0.25041400  1
  Mn  Mn27  1  0.85578200  0.90096800  0.74954300  1
  Cu  Cu0  1  0.99740500  0.99898000  0.00127300  1
  Cu  Cu1  1  0.99846200  0.50021300  0.00097700  1
  Cu  Cu2  1  0.49688200  0.00052000  0.99995900  1
  Cu  Cu3  1  0.74835800  0.75105400  0.00149700  1
  O  O0  1  0.11184400  0.11670200  0.47565500  1
  O  O1  1  0.11299900  0.12079700  0.98196600  1
  O  O2  1  0.11079200  0.61652600  0.47473700  1
  O  O3  1  0.11447000  0.61948600  0.98558200  1
  O  O4  1  0.61059200  0.11600000  0.47432600  1
  O  O5  1  0.61279800  0.12029800  0.98343000  1
  O  O6  1  0.61061100  0.61632400  0.47416300  1
  O  O7  1  0.61572300  0.61419900  0.97605700  1
  O  O8  1  0.13441400  0.38487100  0.02178400  1
  O  O9  1  0.13590200  0.38340100  0.52448400  1
  O  O10  1  0.12956100  0.87956800  0.02384700  1
  O  O11  1  0.13641400  0.88348300  0.52516800  1
  O  O12  1  0.63338200  0.38037400  0.01942800  1
  O  O13  1  0.63529000  0.38276800  0.52424400  1
  O  O14  1  0.63322800  0.88436500  0.02069400  1
  O  O15  1  0.63595600  0.88313900  0.52305500  1
  O  O16  1  0.36171700  0.10867700  0.47649000  1
  O  O17  1  0.36526200  0.11264400  0.97894000  1
  O  O18  1  0.36091500  0.60721700  0.47361600  1
  O  O19  1  0.36390400  0.61044500  0.97875100  1
  O  O20  1  0.86140000  0.10823300  0.47491100  1
  O  O21  1  0.86432900  0.11043200  0.98158800  1
  O  O22  1  0.86148200  0.60861000  0.47450700  1
  O  O23  1  0.86086900  0.60686100  0.98118500  1
  O  O24  1  0.38414400  0.39576700  0.02531400  1
  O  O25  1  0.38593900  0.39060700  0.52375600  1
  O  O26  1  0.38454600  0.89057500  0.02097100  1
  O  O27  1  0.38732600  0.89159600  0.52554400  1
  O  O28  1  0.88219300  0.38746600  0.01597300  1
  O  O29  1  0.88671300  0.39191700  0.52471000  1
  O  O30  1  0.88220900  0.89128600  0.02412200  1
  O  O31  1  0.88484300  0.89044300  0.52235800  1
  O  O32  1  0.12333600  0.13338500  0.15324400  1
  O  O33  1  0.10167600  0.12006000  0.64067300  1
  O  O34  1  0.12205200  0.63384700  0.15156300  1
  O  O35  1  0.10178500  0.61990200  0.64114800  1
  O  O36  1  0.62869300  0.12717900  0.15271600  1
  O  O37  1  0.60242700  0.11976000  0.64029100  1
  O  O38  1  0.61464900  0.62456500  0.14010500  1
  O  O39  1  0.60129300  0.61710400  0.63916500  1
  O  O40  1  0.46073900  0.38034400  0.35767100  1
  O  O41  1  0.47329000  0.38000500  0.85937900  1
  O  O42  1  0.45780300  0.88000700  0.35877400  1
  O  O43  1  0.47065100  0.87038100  0.84892200  1
  O  O44  1  0.96059600  0.38023300  0.35870000  1
  O  O45  1  0.96783700  0.36949200  0.84909500  1
  O  O46  1  0.96361100  0.88162900  0.36056900  1
  O  O47  1  0.97063200  0.87047300  0.85013700  1
  O  O48  1  0.35845800  0.26772300  0.14038700  1
  O  O49  1  0.35309600  0.27277100  0.64109700  1
  O  O50  1  0.35928700  0.76995000  0.13914800  1
  O  O51  1  0.35126500  0.76968000  0.63827700  1
  O  O52  1  0.85404400  0.26832800  0.13853300  1
  O  O53  1  0.84918600  0.27130200  0.63844000  1
  O  O54  1  0.87705200  0.77214900  0.15172900  1
  O  O55  1  0.85011800  0.77105000  0.63794900  1
  O  O56  1  0.21059200  0.22652000  0.36101200  1
  O  O57  1  0.21703400  0.22939700  0.86123400  1
  O  O58  1  0.21303700  0.73034600  0.36150200  1
  O  O59  1  0.21781900  0.72895100  0.86156500  1
  O  O60  1  0.71268100  0.23036000  0.36162800  1
  O  O61  1  0.71273400  0.22939300  0.86117100  1
  O  O62  1  0.70809400  0.72614000  0.35727000  1
  O  O63  1  0.71783600  0.72883800  0.85087900  1
  O  O64  1  0.42305800  0.06664600  0.25064000  1
  O  O65  1  0.42124200  0.07149600  0.74945700  1
  O  O66  1  0.41540800  0.57043600  0.24350000  1
  O  O67  1  0.42129600  0.56951100  0.75014400  1
  O  O68  1  0.91655900  0.07150000  0.24553700  1
  O  O69  1  0.92168700  0.07042600  0.74996500  1
  O  O70  1  0.92297300  0.56761000  0.24929800  1
  O  O71  1  0.92114900  0.57040500  0.75062500  1
  O  O72  1  0.17233100  0.42992000  0.25002100  1
  O  O73  1  0.17263700  0.43085600  0.75077300  1
  O  O74  1  0.16605200  0.92523300  0.24458200  1
  O  O75  1  0.17238100  0.93125000  0.75004400  1
  O  O76  1  0.67005900  0.43053200  0.24872700  1
  O  O77  1  0.67117300  0.42863100  0.75579000  1
  O  O78  1  0.67414700  0.92948500  0.25134200  1
  O  O79  1  0.67174700  0.93165300  0.74979300  1
loop_
_geom_bond_atom_site_label_1
_geom_bond_atom_site_label_2
_geom_bond_distance
_geom_bond_site_symmetry_2
La0 O32 2.339629 1_555
La0 O48 2.357948 1_555
La0 O64 2.457125 1_555
La0 O10 2.523843 1_545
La0 O26 2.574983 1_545
La0 O1 2.815307 1_554
La0 O17 2.947146 1_554
La1 O49 2.349900 1_555
La1 O65 2.387069 1_555
La1 O33 2.490074 1_555
La1 O11 2.518414 1_545
La1 O27 2.538620 1_545
La1 O0 2.905205 1_555
La1 O16 2.914554 1_555
La2 O51 2.335288 1_555
La2 O67 2.370254 1_555
La2 O35 2.479748 1_555
La2 O9 2.525323 1_555
La2 O25 2.565067 1_555
La2 O2 2.950585 1_555
La2 O18 2.990341 1_555
La3 O53 2.335809 1_555
La3 O69 2.376365 1_555
La3 O37 2.474921 1_555
La3 O15 2.537760 1_545
La3 O31 2.567502 1_545
La3 O4 2.944075 1_555
La3 O20 2.957728 1_555
La4 O54 2.293959 1_555
La4 O38 2.429359 1_555
La4 O70 2.486170 1_555
La4 O28 2.580910 1_555
La4 O12 2.627539 1_555
La4 O23 2.682784 1_554
La4 O7 2.804145 1_554
La5 O55 2.339549 1_555
La5 O71 2.375655 1_555
La5 O39 2.477529 1_555
La5 O13 2.545271 1_555
La5 O29 2.547781 1_555
La5 O6 2.957372 1_555
La5 O22 2.972305 1_555
La6 O56 2.352186 1_555
La6 O72 2.370521 1_555
La6 O44 2.487567 1_455
La6 O18 2.538613 1_555
La6 O2 2.542830 1_555
La6 O9 2.937599 1_555
La6 O25 2.948806 1_555
La7 O45 2.348419 1_455
La7 O57 2.368876 1_555
La7 O73 2.463374 1_555
La7 O3 2.539931 1_555
La7 O19 2.592228 1_555
La7 O8 2.787277 1_556
La7 O24 2.907666 1_556
La8 O58 2.320292 1_555
La8 O74 2.404430 1_555
La8 O46 2.456414 1_455
La8 O0 2.553955 1_565
La8 O16 2.568866 1_565
La8 O11 2.971460 1_555
La8 O27 2.996774 1_555
La9 O47 2.345279 1_455
La9 O59 2.360695 1_555
La9 O75 2.450130 1_555
La9 O1 2.560132 1_565
La9 O17 2.608541 1_565
La9 O26 2.883058 1_556
La9 O10 2.908694 1_556
La10 O60 2.337955 1_555
La10 O76 2.374696 1_555
La10 O40 2.476905 1_555
La10 O6 2.523052 1_555
La10 O22 2.549204 1_555
La10 O13 2.955499 1_555
La10 O29 2.979586 1_555
La11 O62 2.344130 1_555
La11 O78 2.374561 1_555
La11 O42 2.505866 1_555
La11 O4 2.522814 1_565
La11 O20 2.554568 1_565
La11 O15 2.889181 1_555
La11 O31 2.918027 1_555
La12 O63 2.317204 1_555
La12 O43 2.366620 1_555
La12 O79 2.513201 1_555
La12 O21 2.581930 1_565
La12 O5 2.584819 1_565
La12 O14 2.753809 1_556
La12 O30 2.828287 1_556
La13 O32 2.280881 1_555
La13 O52 2.434200 1_455
La13 O72 2.465431 1_555
La13 O8 2.617222 1_555
La13 O28 2.625862 1_455
La13 O21 2.770477 1_454
La13 O1 2.778020 1_554
La14 O33 2.341617 1_555
La14 O73 2.379363 1_555
La14 O53 2.489020 1_455
La14 O29 2.528105 1_455
La14 O9 2.552299 1_555
La14 O20 2.942561 1_455
La14 O0 2.962145 1_555
La15 O35 2.345902 1_555
La15 O75 2.387365 1_555
La15 O55 2.477087 1_455
La15 O11 2.539277 1_555
La15 O31 2.545313 1_455
La15 O22 2.929114 1_455
La15 O2 2.954256 1_555
La16 O36 2.308171 1_555
La16 O48 2.431334 1_555
La16 O76 2.461842 1_555
La16 O12 2.621228 1_555
La16 O24 2.637976 1_555
La16 O5 2.718069 1_554
La16 O17 2.759009 1_554
La17 O37 2.333071 1_555
La17 O77 2.422342 1_555
La17 O49 2.453799 1_555
La17 O25 2.539173 1_555
La17 O13 2.565432 1_555
La17 O16 2.924849 1_555
La17 O4 2.981394 1_555
La18 O38 2.345711 1_555
La18 O78 2.419955 1_555
La18 O50 2.430249 1_555
La18 O26 2.537166 1_555
La18 O14 2.539899 1_555
La18 O19 2.879068 1_554
La18 O7 2.950721 1_554
La19 O39 2.352664 1_555
La19 O79 2.373571 1_555
La19 O51 2.468318 1_555
La19 O27 2.520744 1_555
La19 O15 2.577381 1_555
La19 O18 2.953278 1_555
La19 O6 2.967782 1_555
La20 O40 2.352056 1_555
La20 O64 2.381344 1_555
La20 O56 2.483654 1_555
La20 O4 2.543482 1_555
La20 O16 2.548946 1_555
La20 O25 2.916084 1_555
La20 O13 2.943169 1_555
La21 O41 2.343962 1_555
La21 O65 2.420828 1_555
La21 O57 2.447044 1_555
La21 O17 2.536407 1_555
La21 O5 2.583908 1_555
La21 O12 2.831335 1_556
La21 O24 2.936566 1_556
La22 O42 2.334194 1_555
La22 O66 2.410192 1_555
La22 O58 2.465245 1_555
La22 O18 2.534778 1_555
La22 O6 2.551881 1_555
La22 O27 2.968302 1_555
La22 O15 2.971060 1_555
La23 O43 2.303733 1_555
La23 O67 2.463820 1_555
La23 O59 2.474217 1_555
La23 O7 2.564083 1_555
La23 O19 2.584978 1_555
La23 O14 2.788414 1_556
La23 O26 2.820219 1_556
La24 O44 2.332549 1_555
La24 O68 2.406436 1_555
La24 O60 2.457396 1_555
La24 O20 2.538072 1_555
La24 O0 2.577079 1_655
La24 O29 2.935240 1_555
La24 O9 2.965136 1_655
La25 O45 2.306450 1_555
La25 O61 2.454421 1_555
La25 O69 2.465589 1_555
La25 O21 2.588453 1_555
La25 O1 2.597740 1_655
La25 O28 2.736033 1_556
La25 O8 2.859041 1_656
La26 O46 2.349418 1_555
La26 O70 2.370967 1_555
La26 O62 2.492617 1_555
La26 O22 2.525620 1_555
La26 O2 2.559885 1_655
La26 O31 2.925151 1_555
La26 O11 2.987152 1_655
La27 O63 2.331861 1_555
La27 O47 2.337217 1_555
La27 O71 2.505941 1_555
La27 O23 2.579869 1_555
La27 O3 2.676121 1_655
La27 O30 2.789644 1_556
La27 O10 2.825870 1_656
Mn0 O31 2.062459 1_455
Mn0 O20 2.063860 1_465
Mn0 O0 2.087064 1_565
Mn0 O11 2.095207 1_555
Mn0 O46 2.301642 1_455
Mn0 O33 2.338494 1_565
Mn1 O29 2.060844 1_455
Mn1 O22 2.063452 1_455
Mn1 O2 2.088169 1_555
Mn1 O9 2.093627 1_555
Mn1 O44 2.329540 1_455
Mn1 O35 2.343585 1_555
Mn2 O16 2.058765 1_565
Mn2 O27 2.060572 1_555
Mn2 O15 2.088447 1_555
Mn2 O4 2.094200 1_565
Mn2 O42 2.323110 1_555
Mn2 O37 2.335723 1_565
Mn3 O19 2.048580 1_554
Mn3 O24 2.049996 1_555
Mn3 O12 2.083981 1_555
Mn3 O7 2.099209 1_554
Mn3 O38 2.323861 1_555
Mn3 O41 2.393367 1_554
Mn4 O18 2.062015 1_555
Mn4 O25 2.064633 1_555
Mn4 O13 2.091064 1_555
Mn4 O6 2.093923 1_555
Mn4 O39 2.305776 1_555
Mn4 O40 2.347844 1_555
Mn5 O8 2.068131 1_555
Mn5 O1 2.070221 1_554
Mn5 O24 2.092922 1_555
Mn5 O17 2.094144 1_554
Mn5 O48 2.313259 1_555
Mn5 O57 2.346012 1_554
Mn6 O0 2.058543 1_555
Mn6 O9 2.064026 1_555
Mn6 O25 2.091082 1_555
Mn6 O16 2.092979 1_555
Mn6 O56 2.287883 1_555
Mn6 O49 2.342599 1_555
Mn7 O3 2.067544 1_554
Mn7 O10 2.071265 1_555
Mn7 O26 2.098937 1_555
Mn7 O19 2.100772 1_554
Mn7 O59 2.309475 1_554
Mn7 O50 2.325423 1_555
Mn8 O2 2.066626 1_555
Mn8 O11 2.069845 1_555
Mn8 O27 2.098347 1_555
Mn8 O18 2.099347 1_555
Mn8 O58 2.292579 1_555
Mn8 O51 2.303730 1_555
Mn9 O12 2.054006 1_555
Mn9 O5 2.060933 1_554
Mn9 O21 2.079360 1_554
Mn9 O28 2.085342 1_555
Mn9 O52 2.295697 1_555
Mn9 O61 2.317593 1_554
Mn10 O13 2.062642 1_555
Mn10 O4 2.068949 1_555
Mn10 O20 2.098604 1_555
Mn10 O29 2.101676 1_555
Mn10 O60 2.293215 1_555
Mn10 O53 2.296581 1_555
Mn11 O6 2.060227 1_555
Mn11 O15 2.060888 1_555
Mn11 O31 2.092393 1_555
Mn11 O22 2.092915 1_555
Mn11 O55 2.297137 1_555
Mn11 O62 2.343727 1_555
Mn12 O32 1.984732 1_555
Mn12 O56 2.051229 1_555
Mn12 O74 2.110024 1_545
Mn12 O68 2.121281 1_455
Mn13 O57 2.028218 1_555
Mn13 O33 2.044475 1_555
Mn13 O75 2.125701 1_545
Mn13 O69 2.132589 1_455
Mn14 O34 1.992070 1_555
Mn14 O58 2.047714 1_555
Mn14 O72 2.113617 1_555
Mn14 O70 2.124267 1_455
Mn15 O59 2.021702 1_555
Mn15 O35 2.054512 1_555
Mn15 O73 2.131781 1_555
Mn15 O71 2.134738 1_455
Mn16 O36 1.988094 1_555
Mn16 O60 2.039966 1_555
Mn16 O78 2.117411 1_545
Mn16 O64 2.125576 1_555
Mn17 O61 2.021561 1_555
Mn17 O37 2.047581 1_555
Mn17 O79 2.107575 1_545
Mn17 O65 2.137113 1_555
Mn18 O38 2.024003 1_555
Mn18 O62 2.061777 1_555
Mn18 O76 2.120675 1_555
Mn18 O66 2.146329 1_555
Mn19 O63 1.991590 1_555
Mn19 O39 2.048294 1_555
Mn19 O67 2.122767 1_555
Mn19 O77 2.131332 1_555
Mn20 O48 2.018959 1_555
Mn20 O40 2.055357 1_555
Mn20 O72 2.130364 1_555
Mn20 O66 2.131544 1_555
Mn21 O41 2.021303 1_555
Mn21 O49 2.053106 1_555
Mn21 O67 2.111780 1_555
Mn21 O73 2.135686 1_555
Mn22 O50 2.022230 1_555
Mn22 O42 2.048003 1_555
Mn22 O64 2.129321 1_565
Mn22 O74 2.133722 1_555
Mn23 O43 1.991891 1_555
Mn23 O51 2.043255 1_555
Mn23 O65 2.121261 1_565
Mn23 O75 2.128037 1_555
Mn24 O52 2.025033 1_555
Mn24 O44 2.054679 1_555
Mn24 O70 2.116554 1_555
Mn24 O76 2.139070 1_555
Mn25 O45 1.993907 1_555
Mn25 O53 2.045814 1_555
Mn25 O71 2.104805 1_555
Mn25 O77 2.136310 1_555
Mn26 O54 1.986417 1_555
Mn26 O46 2.044696 1_555
Mn26 O68 2.116769 1_565
Mn26 O78 2.126771 1_555
Mn27 O47 1.996574 1_555
Mn27 O55 2.051140 1_555
Mn27 O79 2.120559 1_555
Mn27 O69 2.120933 1_565
Cu0 O21 2.020171 1_564
Cu0 O30 2.037507 1_555
Cu0 O10 2.089060 1_655
Cu0 O1 2.120162 1_664
Cu0 O47 2.536427 1_554
Cu0 O32 2.567323 1_665
Cu1 O28 2.005188 1_555
Cu1 O23 2.017613 1_554
Cu1 O3 2.061756 1_654
Cu1 O8 2.078044 1_655
Cu1 O34 2.542396 1_655
Cu1 O45 2.544616 1_554
Cu2 O26 2.013332 1_546
Cu2 O17 2.018175 1_555
Cu2 O5 2.076752 1_555
Cu2 O14 2.087689 1_546
Cu2 O43 2.541038 1_545
Cu2 O36 2.569995 1_556
Cu3 O7 2.032652 1_554
Cu3 O14 2.050071 1_555
Cu3 O30 2.084812 1_555
Cu3 O23 2.124695 1_554
Cu3 O63 2.522107 1_554
Cu3 O54 2.540439 1_555
O3 Sm0 2.667395 1_556
O3 Sm3 2.770130 1_556
O5 Sm1 2.776244 1_556
O7 Sm2 2.463982 1_555
O8 Sm0 2.484637 1_555
O10 Sm3 2.520735 1_555
O12 Sm2 2.798282 1_554
O14 Sm1 2.489186 1_565
O19 Sm0 2.902155 1_556
O21 Sm1 2.828502 1_556
O23 Sm2 2.499675 1_555
O23 Sm3 2.785636 1_656
O24 Sm0 2.581035 1_555
O28 Sm2 2.767928 1_554
O30 Sm1 2.502238 1_565
O30 Sm3 2.533101 1_655
O34 Sm0 2.271901 1_555
O34 Sm3 2.290797 1_555
O36 Sm1 2.300648 1_555
O41 Sm2 2.375670 1_555
O50 Sm0 2.314761 1_555
O52 Sm1 2.333682 1_555
O54 Sm3 2.280402 1_655
O61 Sm2 2.325285 1_555
O66 Sm0 2.379032 1_555
O68 Sm1 2.373642 1_555
O74 Sm3 2.391823 1_555
O77 Sm2 2.360604 1_555
