# generated using pymatgen
data_Li7Mn4CoO12
_symmetry_space_group_name_H-M   'P 1'
_cell_length_a   2.87354441
_cell_length_b   9.85582065
_cell_length_c   7.99587687
_cell_angle_alpha   81.35070169
_cell_angle_beta   79.64796345
_cell_angle_gamma   81.61791892
_symmetry_Int_Tables_number   1
_chemical_formula_structural   Li7Mn4CoO12
_chemical_formula_sum   'Li7 Mn4 Co1 O12'
_cell_volume   218.58483697
_cell_formula_units_Z   1
loop_
 _symmetry_equiv_pos_site_id
 _symmetry_equiv_pos_as_xyz
  1  'x, y, z'
loop_
 _atom_site_type_symbol
 _atom_site_label
 _atom_site_symmetry_multiplicity
 _atom_site_fract_x
 _atom_site_fract_y
 _atom_site_fract_z
 _atom_site_occupancy
  Li  Li0  1  0.33497800  0.24242900  0.08767500  1
  Li  Li1  1  0.99299200  0.75568400  0.25831900  1
  Li  Li2  1  0.67367800  0.24431600  0.40834100  1
  Li  Li3  1  0.33168700  0.75756900  0.57899400  1
  Li  Li4  1  0.99986700  0.25385200  0.74638500  1
  Li  Li5  1  0.66680000  0.74614800  0.92028200  1
  Li  Li6  1  0.33333200  0.00000200  0.33333200  1
  Mn  Mn0  1  0.99502200  0.00251100  0.00746800  1
  Mn  Mn1  1  0.67164700  0.99748700  0.65919100  1
  Mn  Mn2  1  0.66969900  0.49734100  0.16326200  1
  Mn  Mn3  1  0.99697200  0.50265900  0.50340800  1
  Co  Co0  1  0.33333300  0.50000100  0.83333400  1
  O  O0  1  0.50973100  0.10627400  0.87425500  1
  O  O1  1  0.16298200  0.61618400  0.05788000  1
  O  O2  1  0.85470300  0.11240800  0.17825000  1
  O  O3  1  0.49343100  0.62024100  0.39293200  1
  O  O4  1  0.16377500  0.11356300  0.55891700  1
  O  O5  1  0.82761000  0.61418600  0.73034500  1
  O  O6  1  0.17323200  0.37976100  0.27373800  1
  O  O7  1  0.81196500  0.88758900  0.48841300  1
  O  O8  1  0.50368800  0.38381700  0.60878900  1
  O  O9  1  0.15693600  0.89372300  0.79241300  1
  O  O10  1  0.83905100  0.38581600  0.93632600  1
  O  O11  1  0.50289100  0.88643700  0.10775000  1
loop_
_geom_bond_atom_site_label_1
_geom_bond_atom_site_label_2
_geom_bond_distance
_geom_bond_site_symmetry_2
Li0 O2 1.987101 1_455
Li0 O2 1.987126 1_555
Li0 O6 2.105977 1_555
Li0 O10 2.238463 1_454
Li0 O10 2.238782 1_554
Li0 O0 2.269209 1_554
Li1 O3 2.138319 1_555
Li1 O3 2.138431 1_655
Li1 O11 2.169536 1_655
Li1 O11 2.169590 1_555
Li1 O1 2.209778 1_655
Li1 O7 2.350282 1_555
Li2 O6 2.138295 1_655
Li2 O6 2.138411 1_555
Li2 O4 2.169563 1_555
Li2 O4 2.169615 1_655
Li2 O8 2.209841 1_555
Li2 O2 2.350281 1_555
Li3 O7 1.987107 1_555
Li3 O7 1.987134 1_455
Li3 O3 2.105942 1_555
Li3 O5 2.238447 1_555
Li3 O5 2.238770 1_455
Li3 O9 2.269196 1_555
Li4 O10 2.092459 1_555
Li4 O8 2.119316 1_555
Li4 O8 2.119318 1_655
Li4 O4 2.135482 1_655
Li4 O0 2.185646 1_555
Li4 O0 2.185703 1_655
Li5 O5 2.092420 1_555
Li5 O1 2.119311 1_556
Li5 O1 2.119326 1_656
Li5 O11 2.135482 1_556
Li5 O9 2.185623 1_655
Li5 O9 2.185684 1_555
Li6 O2 2.100503 1_455
Li6 O7 2.100530 1_545
Li6 O2 2.100614 1_555
Li6 O7 2.100640 1_445
Li6 O4 2.208159 1_555
Li6 O11 2.208162 1_545
Mn0 O2 1.822120 1_555
Mn0 O11 1.933754 1_645
Mn0 O11 1.933853 1_545
Mn0 O0 1.978669 1_654
Mn0 O0 1.978754 1_554
Mn0 O9 2.108198 1_644
Mn1 O7 1.822101 1_555
Mn1 O4 1.933740 1_565
Mn1 O4 1.933846 1_665
Mn1 O9 1.978702 1_555
Mn1 O9 1.978795 1_655
Mn1 O0 2.108254 1_565
Mn2 O1 1.961876 1_555
Mn2 O1 1.961915 1_655
Mn2 O6 1.969628 1_655
Mn2 O6 1.969690 1_555
Mn2 O10 2.205489 1_554
Mn2 O3 2.291733 1_555
Mn3 O8 1.961866 1_655
Mn3 O8 1.961910 1_555
Mn3 O3 1.969653 1_555
Mn3 O3 1.969686 1_655
Mn3 O5 2.205507 1_555
Mn3 O6 2.291721 1_655
Co0 O5 1.931031 1_555
Co0 O10 1.931046 1_455
Co0 O5 1.931582 1_455
Co0 O10 1.931583 1_555
Co0 O8 2.216645 1_555
Co0 O1 2.216646 1_556
