# generated using pymatgen
data_TbGa3Ru
_symmetry_space_group_name_H-M   'P 1'
_cell_length_a   6.39180224
_cell_length_b   6.39180224
_cell_length_c   6.39180224
_cell_angle_alpha   90.00000000
_cell_angle_beta   90.00000000
_cell_angle_gamma   90.00000000
_symmetry_Int_Tables_number   1
_chemical_formula_structural   TbGa3Ru
_chemical_formula_sum   'Tb3 Ga9 Ru3'
_cell_volume   261.13794900
_cell_formula_units_Z   3
loop_
 _symmetry_equiv_pos_site_id
 _symmetry_equiv_pos_as_xyz
  1  'x, y, z'
loop_
 _atom_site_type_symbol
 _atom_site_label
 _atom_site_symmetry_multiplicity
 _atom_site_fract_x
 _atom_site_fract_y
 _atom_site_fract_z
 _atom_site_occupancy
  Tb  Tb0  1  0.50000000  0.50000000  0.00000000  1
  Tb  Tb1  1  0.50000000  -0.00000000  0.50000000  1
  Tb  Tb2  1  0.00000000  0.50000000  0.50000000  1
  Ga  Ga0  1  0.50000000  0.50000000  0.50000000  1
  Ga  Ga1  1  0.20850398  0.20850398  0.79149602  1
  Ga  Ga2  1  0.20850398  0.79149602  0.20850398  1
  Ga  Ga3  1  0.79149602  0.20850398  0.20850398  1
  Ga  Ga4  1  0.79149602  0.79149602  0.79149602  1
  Ga  Ga5  1  0.79149602  0.79149602  0.20850398  1
  Ga  Ga6  1  0.79149602  0.20850398  0.79149602  1
  Ga  Ga7  1  0.20850398  0.79149602  0.79149602  1
  Ga  Ga8  1  0.20850398  0.20850398  0.20850398  1
  Ru  Ru0  1  0.00000000  -0.00000000  0.50000000  1
  Ru  Ru1  1  0.00000000  0.50000000  0.00000000  1
  Ru  Ru2  1  0.50000000  -0.00000000  0.00000000  1
loop_
_geom_bond_atom_site_label_1
_geom_bond_atom_site_label_2
_geom_bond_distance
_geom_bond_site_symmetry_2
Ga0 Tb2 3.195901 1_655
Ga0 Tb0 3.195901 1_555
Ga0 Tb0 3.195901 1_556
Ga0 Tb1 3.195901 1_555
Ga0 Tb1 3.195901 1_565
Ga0 Tb2 3.195901 1_555
Ga1 Ru0 2.650231 1_555
Ga1 Ru2 2.650231 1_556
Ga1 Ru1 2.650231 1_556
Ga1 Ga8 2.665432 1_556
Ga1 Ga7 2.665432 1_545
Ga1 Ga6 2.665432 1_455
Ga1 Tb2 2.952804 1_555
Ga1 Tb0 2.952804 1_556
Ga1 Tb1 2.952804 1_555
Ga2 Ru1 2.650231 1_555
Ga2 Ru2 2.650231 1_565
Ga2 Ru0 2.650231 1_565
Ga2 Ga8 2.665432 1_565
Ga2 Ga5 2.665432 1_455
Ga2 Ga7 2.665432 1_554
Ga2 Tb2 2.952804 1_555
Ga2 Tb0 2.952804 1_555
Ga2 Tb1 2.952804 1_565
Ga3 Ru0 2.650231 1_655
Ga3 Ru1 2.650231 1_655
Ga3 Ru2 2.650231 1_555
Ga3 Ga8 2.665432 1_655
Ga3 Ga5 2.665432 1_545
Ga3 Ga6 2.665432 1_554
Ga3 Tb2 2.952804 1_655
Ga3 Tb0 2.952804 1_555
Ga3 Tb1 2.952804 1_555
Ga4 Ru0 2.650231 1_665
Ga4 Ru1 2.650231 1_656
Ga4 Ru2 2.650231 1_566
Ga4 Ga7 2.665432 1_655
Ga4 Ga6 2.665432 1_565
Ga4 Ga5 2.665432 1_556
Ga4 Tb2 2.952804 1_655
Ga4 Tb0 2.952804 1_556
Ga4 Tb1 2.952804 1_565
Ga5 Ru0 2.650231 1_665
Ga5 Ru2 2.650231 1_565
Ga5 Ru1 2.650231 1_655
Ga5 Tb2 2.952804 1_655
Ga5 Tb0 2.952804 1_555
Ga5 Tb1 2.952804 1_565
Ga6 Ru0 2.650231 1_655
Ga6 Ru2 2.650231 1_556
Ga6 Ru1 2.650231 1_656
Ga6 Tb2 2.952804 1_655
Ga6 Tb0 2.952804 1_556
Ga6 Tb1 2.952804 1_555
Ga7 Ru1 2.650231 1_556
Ga7 Ru0 2.650231 1_565
Ga7 Ru2 2.650231 1_566
Ga7 Tb2 2.952804 1_555
Ga7 Tb0 2.952804 1_556
Ga7 Tb1 2.952804 1_565
Ga8 Ru0 2.650231 1_555
Ga8 Ru1 2.650231 1_555
Ga8 Ru2 2.650231 1_555
Ga8 Tb2 2.952804 1_555
Ga8 Tb0 2.952804 1_555
Ga8 Tb1 2.952804 1_555
Ru0 Tb1 3.195901 1_455
Ru0 Tb2 3.195901 1_545
Ru0 Tb1 3.195901 1_555
Ru0 Tb2 3.195901 1_555
Ru1 Tb0 3.195901 1_555
Ru1 Tb0 3.195901 1_455
Ru1 Tb2 3.195901 1_555
Ru1 Tb2 3.195901 1_554
Ru2 Tb0 3.195901 1_555
Ru2 Tb0 3.195901 1_545
Ru2 Tb1 3.195901 1_554
Ru2 Tb1 3.195901 1_555
