# generated using pymatgen
data_SnOsN
_symmetry_space_group_name_H-M   'P 1'
_cell_length_a   6.41112400
_cell_length_b   6.39062208
_cell_length_c   26.54335000
_cell_angle_alpha   90.00000000
_cell_angle_beta   90.00000000
_cell_angle_gamma   120.10618082
_symmetry_Int_Tables_number   1
_chemical_formula_structural   SnOsN
_chemical_formula_sum   'Sn16 Os16 N16'
_cell_volume   940.80151915
_cell_formula_units_Z   16
loop_
 _symmetry_equiv_pos_site_id
 _symmetry_equiv_pos_as_xyz
  1  'x, y, z'
loop_
 _atom_site_type_symbol
 _atom_site_label
 _atom_site_symmetry_multiplicity
 _atom_site_fract_x
 _atom_site_fract_y
 _atom_site_fract_z
 _atom_site_occupancy
  Sn  Sn0_0  1  0.00066550  0.00133150  0.20771750  1
  Sn  Sn0_1  1  0.00066550  0.00133150  0.70771750  1
  Sn  Sn0_2  1  0.00066550  0.50133150  0.20771750  1
  Sn  Sn0_3  1  0.00066550  0.50133150  0.70771750  1
  Sn  Sn0_4  1  0.50066550  0.00133150  0.20771750  1
  Sn  Sn0_5  1  0.50066550  0.00133150  0.70771750  1
  Sn  Sn0_6  1  0.50066550  0.50133150  0.20771750  1
  Sn  Sn0_7  1  0.50066550  0.50133150  0.70771750  1
  Sn  Sn1_0  1  0.49933450  0.49866850  0.45771750  1
  Sn  Sn1_1  1  0.49933450  0.49866850  0.95771750  1
  Sn  Sn1_2  1  0.49933450  0.99866850  0.45771750  1
  Sn  Sn1_3  1  0.49933450  0.99866850  0.95771750  1
  Sn  Sn1_4  1  0.99933450  0.49866850  0.45771750  1
  Sn  Sn1_5  1  0.99933450  0.49866850  0.95771750  1
  Sn  Sn1_6  1  0.99933450  0.99866850  0.45771750  1
  Sn  Sn1_7  1  0.99933450  0.99866850  0.95771750  1
  Os  Os0_0  1  0.33541850  0.17083650  0.36766850  1
  Os  Os0_1  1  0.33541850  0.17083650  0.86766850  1
  Os  Os0_2  1  0.33541850  0.67083650  0.36766850  1
  Os  Os0_3  1  0.33541850  0.67083650  0.86766850  1
  Os  Os0_4  1  0.83541850  0.17083650  0.36766850  1
  Os  Os0_5  1  0.83541850  0.17083650  0.86766850  1
  Os  Os0_6  1  0.83541850  0.67083650  0.36766850  1
  Os  Os0_7  1  0.83541850  0.67083650  0.86766850  1
  Os  Os1_0  1  0.16458150  0.32916350  0.11766850  1
  Os  Os1_1  1  0.16458150  0.32916350  0.61766850  1
  Os  Os1_2  1  0.16458150  0.82916350  0.11766850  1
  Os  Os1_3  1  0.16458150  0.82916350  0.61766850  1
  Os  Os1_4  1  0.66458150  0.32916350  0.11766850  1
  Os  Os1_5  1  0.66458150  0.32916350  0.61766850  1
  Os  Os1_6  1  0.66458150  0.82916350  0.11766850  1
  Os  Os1_7  1  0.66458150  0.82916350  0.61766850  1
  N  N0_0  1  0.16799700  0.33599450  0.34693400  1
  N  N0_1  1  0.16799700  0.33599450  0.84693400  1
  N  N0_2  1  0.16799700  0.83599450  0.34693400  1
  N  N0_3  1  0.16799700  0.83599450  0.84693400  1
  N  N0_4  1  0.66799700  0.33599450  0.34693400  1
  N  N0_5  1  0.66799700  0.33599450  0.84693400  1
  N  N0_6  1  0.66799700  0.83599450  0.34693400  1
  N  N0_7  1  0.66799700  0.83599450  0.84693400  1
  N  N1_0  1  0.33200300  0.16400550  0.09693400  1
  N  N1_1  1  0.33200300  0.16400550  0.59693400  1
  N  N1_2  1  0.33200300  0.66400550  0.09693400  1
  N  N1_3  1  0.33200300  0.66400550  0.59693400  1
  N  N1_4  1  0.83200300  0.16400550  0.09693400  1
  N  N1_5  1  0.83200300  0.16400550  0.59693400  1
  N  N1_6  1  0.83200300  0.66400550  0.09693400  1
  N  N1_7  1  0.83200300  0.66400550  0.59693400  1
loop_
_geom_bond_atom_site_label_1
_geom_bond_atom_site_label_2
_geom_bond_distance
_geom_bond_site_symmetry_2
Sn0_0 Sn0_6 3.195311 1_445
Sn0_0 Sn0_2 3.195311 1_545
Sn0_0 Sn0_6 3.195311 1_555
Sn0_0 Sn0_2 3.195311 1_555
Sn0_0 Sn0_4 3.205562 1_555
Sn0_0 Sn0_4 3.205562 1_455
Sn0_1 Sn0_3 3.195311 1_545
Sn0_1 Sn0_7 3.195311 1_445
Sn0_1 Sn0_3 3.195311 1_555
Sn0_1 Sn0_7 3.195311 1_555
Sn0_1 Sn0_5 3.205562 1_555
Sn0_1 Sn0_5 3.205562 1_455
Sn0_2 Sn0_4 3.195311 1_565
Sn0_2 Sn0_4 3.195311 1_455
Sn0_2 Sn0_6 3.205562 1_555
Sn0_2 Sn0_6 3.205562 1_455
Sn0_3 Sn0_5 3.195311 1_565
Sn0_3 Sn0_5 3.195311 1_455
Sn0_3 Sn0_7 3.205562 1_555
Sn0_3 Sn0_7 3.205562 1_455
Sn0_4 Sn0_6 3.195311 1_545
Sn0_4 Sn0_6 3.195311 1_555
Sn0_5 Sn0_7 3.195311 1_545
Sn0_5 Sn0_7 3.195311 1_555
Sn1_0 Sn1_2 3.195311 1_545
Sn1_0 Sn1_6 3.195311 1_555
Sn1_0 Sn1_6 3.195311 1_445
Sn1_0 Sn1_2 3.195311 1_555
Sn1_0 Sn1_4 3.205562 1_455
Sn1_0 Sn1_4 3.205562 1_555
Sn1_1 Sn1_3 3.195311 1_545
Sn1_1 Sn1_7 3.195311 1_555
Sn1_1 Sn1_7 3.195311 1_445
Sn1_1 Sn1_3 3.195311 1_555
Sn1_1 Sn1_5 3.205562 1_455
Sn1_1 Sn1_5 3.205562 1_555
Sn1_2 Sn1_4 3.195311 1_565
Sn1_2 Sn1_4 3.195311 1_455
Sn1_2 Sn1_6 3.205562 1_555
Sn1_2 Sn1_6 3.205562 1_455
Sn1_3 Sn1_5 3.195311 1_565
Sn1_3 Sn1_5 3.195311 1_455
Sn1_3 Sn1_7 3.205562 1_555
Sn1_3 Sn1_7 3.205562 1_455
Sn1_4 Sn1_6 3.195311 1_545
Sn1_4 Sn1_6 3.195311 1_555
Sn1_5 Sn1_7 3.195311 1_545
Sn1_5 Sn1_7 3.195311 1_555
Os0_0 Sn1_0 2.999657 1_555
Os0_0 Sn1_2 3.031165 1_545
Os0_0 Sn1_6 3.031165 1_445
Os0_1 Sn1_1 2.999657 1_555
Os0_1 Sn1_3 3.031165 1_545
Os0_1 Sn1_7 3.031165 1_445
Os0_2 Sn1_2 2.999657 1_555
Os0_2 Sn1_0 3.031165 1_555
Os0_2 Sn1_4 3.031165 1_455
Os0_3 Sn1_3 2.999657 1_555
Os0_3 Sn1_1 3.031165 1_555
Os0_3 Sn1_5 3.031165 1_455
Os0_4 Sn1_4 2.999657 1_555
Os0_4 Sn1_6 3.031165 1_545
Os0_4 Sn1_2 3.031165 1_545
Os0_5 Sn1_5 2.999657 1_555
Os0_5 Sn1_7 3.031165 1_545
Os0_5 Sn1_3 3.031165 1_545
Os0_6 Sn1_6 2.999657 1_555
Os0_6 Sn1_4 3.031165 1_555
Os0_6 Sn1_0 3.031165 1_555
Os0_7 Sn1_7 2.999657 1_555
Os0_7 Sn1_5 3.031165 1_555
Os0_7 Sn1_1 3.031165 1_555
Os1_0 Sn0_0 2.999657 1_555
Os1_0 Sn0_6 3.031165 1_555
Os1_0 Sn0_2 3.031165 1_555
Os1_1 Sn0_1 2.999657 1_555
Os1_1 Sn0_3 3.031165 1_555
Os1_1 Sn0_7 3.031165 1_555
Os1_2 Sn0_2 2.999657 1_555
Os1_2 Sn0_4 3.031165 1_565
Os1_2 Sn0_0 3.031165 1_565
Os1_3 Sn0_3 2.999657 1_555
Os1_3 Sn0_1 3.031165 1_565
Os1_3 Sn0_5 3.031165 1_565
Os1_4 Sn0_4 2.999657 1_555
Os1_4 Sn0_2 3.031165 1_655
Os1_4 Sn0_6 3.031165 1_555
Os1_5 Sn0_5 2.999657 1_555
Os1_5 Sn0_3 3.031165 1_655
Os1_5 Sn0_7 3.031165 1_555
Os1_6 Sn0_6 2.999657 1_555
Os1_6 Sn0_4 3.031165 1_565
Os1_6 Sn0_0 3.031165 1_665
Os1_7 Sn0_7 2.999657 1_555
Os1_7 Sn0_1 3.031165 1_665
Os1_7 Sn0_5 3.031165 1_565
N0_0 Os0_4 1.924969 1_455
N0_0 Os0_0 1.924975 1_555
N0_0 Os0_2 1.931258 1_555
N0_1 Os0_5 1.924969 1_455
N0_1 Os0_1 1.924975 1_555
N0_1 Os0_3 1.931258 1_555
N0_2 Os0_6 1.924969 1_455
N0_2 Os0_2 1.924975 1_555
N0_2 Os0_0 1.931258 1_565
N0_3 Os0_7 1.924969 1_455
N0_3 Os0_3 1.924975 1_555
N0_3 Os0_1 1.931258 1_565
N0_4 Os0_0 1.924969 1_555
N0_4 Os0_4 1.924975 1_555
N0_4 Os0_6 1.931258 1_555
N0_5 Os0_1 1.924969 1_555
N0_5 Os0_5 1.924975 1_555
N0_5 Os0_7 1.931258 1_555
N0_6 Os0_2 1.924969 1_555
N0_6 Os0_6 1.924975 1_555
N0_6 Os0_4 1.931258 1_565
N0_7 Os0_3 1.924969 1_555
N0_7 Os0_7 1.924975 1_555
N0_7 Os0_5 1.931258 1_565
N1_0 Os1_4 1.924969 1_555
N1_0 Os1_0 1.924975 1_555
N1_0 Os1_2 1.931258 1_545
N1_1 Os1_5 1.924969 1_555
N1_1 Os1_1 1.924975 1_555
N1_1 Os1_3 1.931258 1_545
N1_2 Os1_6 1.924969 1_555
N1_2 Os1_2 1.924975 1_555
N1_2 Os1_0 1.931258 1_555
N1_3 Os1_7 1.924969 1_555
N1_3 Os1_3 1.924975 1_555
N1_3 Os1_1 1.931258 1_555
N1_4 Os1_0 1.924969 1_655
N1_4 Os1_4 1.924975 1_555
N1_4 Os1_6 1.931258 1_545
N1_5 Os1_1 1.924969 1_655
N1_5 Os1_5 1.924975 1_555
N1_5 Os1_7 1.931258 1_545
N1_6 Os1_2 1.924969 1_655
N1_6 Os1_6 1.924975 1_555
N1_6 Os1_4 1.931258 1_555
N1_7 Os1_3 1.924969 1_655
N1_7 Os1_7 1.924975 1_555
N1_7 Os1_5 1.931258 1_555
