# generated using pymatgen
data_KLaTa2O7
_symmetry_space_group_name_H-M   'P 1'
_cell_length_a   11.33815099
_cell_length_b   11.33815099
_cell_length_c   3.90947100
_cell_angle_alpha   90.00000000
_cell_angle_beta   90.00000000
_cell_angle_gamma   160.08147262
_symmetry_Int_Tables_number   1
_chemical_formula_structural   KLaTa2O7
_chemical_formula_sum   'K1 La1 Ta2 O7'
_cell_volume   171.21967981
_cell_formula_units_Z   1
loop_
 _symmetry_equiv_pos_site_id
 _symmetry_equiv_pos_as_xyz
  1  'x, y, z'
loop_
 _atom_site_type_symbol
 _atom_site_label
 _atom_site_symmetry_multiplicity
 _atom_site_fract_x
 _atom_site_fract_y
 _atom_site_fract_z
 _atom_site_occupancy
  K  K0  1  0.76506400  0.23493600  0.00000000  1
  La  La0  1  0.00106400  0.99893600  0.00000000  1
  Ta  Ta0  1  0.60360400  0.39639600  0.50000000  1
  Ta  Ta1  1  0.39753100  0.60246900  0.50000000  1
  O  O0  1  0.58317000  0.41683000  0.00000000  1
  O  O1  1  0.41605200  0.58394800  0.00000000  1
  O  O2  1  0.68373900  0.31626100  0.50000000  1
  O  O3  1  0.31640600  0.68359400  0.50000000  1
  O  O4  1  0.91521400  0.08478600  0.50000000  1
  O  O5  1  0.08368500  0.91631500  0.50000000  1
  O  O6  1  0.49947200  0.50052800  0.50000000  1
loop_
_geom_bond_atom_site_label_1
_geom_bond_atom_site_label_2
_geom_bond_distance
_geom_bond_site_symmetry_2
K0 O2 2.668362 1_555
K0 O2 2.668362 1_554
K0 O3 2.996846 1_655
K0 O3 2.996846 1_654
K0 O3 2.996846 1_544
K0 O3 2.996846 1_545
La0 O0 2.684773 1_455
La0 O0 2.684773 1_565
La0 O5 2.688149 1_555
La0 O5 2.688149 1_554
La0 O1 2.729517 1_455
La0 O1 2.729517 1_565
La0 O4 2.738158 1_465
La0 O4 2.738158 1_464
La0 O6 2.769011 1_564
La0 O6 2.769011 1_565
La0 O6 2.769011 1_455
La0 O6 2.769011 1_454
O0 Ta0 2.007306 1_555
O0 Ta0 2.007306 1_554
O1 Ta1 1.998025 1_555
O1 Ta1 1.998025 1_554
O2 Ta0 1.789783 1_555
O3 Ta1 1.811894 1_555
O4 Ta1 2.000287 1_655
O4 Ta1 2.000287 1_545
O5 Ta0 2.010743 1_565
O5 Ta0 2.010743 1_455
O6 Ta1 2.276811 1_555
O6 Ta0 2.325746 1_555
