# generated using pymatgen
data_Y10(SiGe)3
_symmetry_space_group_name_H-M   'P 1'
_cell_length_a   8.47716454
_cell_length_b   8.47716454
_cell_length_c   6.41343172
_cell_angle_alpha   90.00000000
_cell_angle_beta   90.00000000
_cell_angle_gamma   119.99999562
_symmetry_Int_Tables_number   1
_chemical_formula_structural   Y10(SiGe)3
_chemical_formula_sum   'Y10 Si3 Ge3'
_cell_volume   399.13733360
_cell_formula_units_Z   1
loop_
 _symmetry_equiv_pos_site_id
 _symmetry_equiv_pos_as_xyz
  1  'x, y, z'
loop_
 _atom_site_type_symbol
 _atom_site_label
 _atom_site_symmetry_multiplicity
 _atom_site_fract_x
 _atom_site_fract_y
 _atom_site_fract_z
 _atom_site_occupancy
  Y  Y0  1  0.33333300  0.66666700  0.25206671  1
  Y  Y1  1  0.66666700  0.33333300  0.25206671  1
  Y  Y2  1  0.66666700  0.33333300  0.74793329  1
  Y  Y3  1  0.33333300  0.66666700  0.74793329  1
  Y  Y4  1  0.00000000  0.75659199  -0.00000000  1
  Y  Y5  1  0.24340801  0.24340801  -0.00000000  1
  Y  Y6  1  0.75659199  0.00000000  -0.00000000  1
  Y  Y7  1  -0.00000000  0.24302630  0.50000000  1
  Y  Y8  1  0.75697370  0.75697370  0.50000000  1
  Y  Y9  1  0.24302630  -0.00000000  0.50000000  1
  Si  Si0  1  0.00000000  0.60658149  0.50000000  1
  Si  Si1  1  0.39341851  0.39341851  0.50000000  1
  Si  Si2  1  0.60658149  0.00000000  0.50000000  1
  Ge  Ge0  1  -0.00000000  0.39335374  -0.00000000  1
  Ge  Ge1  1  0.60664626  0.60664626  -0.00000000  1
  Ge  Ge2  1  0.39335374  -0.00000000  -0.00000000  1
loop_
_geom_bond_atom_site_label_1
_geom_bond_atom_site_label_2
_geom_bond_distance
_geom_bond_site_symmetry_2
Si0 Y8 2.914824 1_455
Si0 Y9 2.914824 1_565
Si0 Y3 3.055039 1_555
Si0 Y0 3.055039 1_555
Si0 Y1 3.055042 1_455
Si0 Y2 3.055042 1_455
Si0 Y7 3.081917 1_555
Si0 Y4 3.449660 1_556
Si0 Y4 3.449660 1_555
Si1 Y9 2.914824 1_555
Si1 Y7 2.914824 1_555
Si1 Y3 3.055046 1_555
Si1 Y0 3.055046 1_555
Si1 Y1 3.055046 1_555
Si1 Y2 3.055046 1_555
Si1 Y8 3.081917 1_555
Si1 Y5 3.449660 1_556
Si1 Y5 3.449660 1_555
Si2 Y8 2.914824 1_545
Si2 Y7 2.914824 1_655
Si2 Y1 3.055039 1_555
Si2 Y2 3.055039 1_555
Si2 Y3 3.055042 1_545
Si2 Y0 3.055042 1_545
Si2 Y9 3.081917 1_555
Si2 Y6 3.449660 1_555
Si2 Y6 3.449660 1_556
Ge0 Y5 2.914828 1_555
Ge0 Y6 2.914828 1_455
Ge0 Y1 3.069082 1_455
Ge0 Y2 3.069082 1_454
Ge0 Y3 3.069085 1_554
Ge0 Y0 3.069085 1_555
Ge0 Y4 3.079230 1_555
Ge0 Y7 3.450651 1_554
Ge0 Y7 3.450651 1_555
Ge1 Y6 2.914828 1_565
Ge1 Y4 2.914828 1_655
Ge1 Y2 3.069089 1_554
Ge1 Y3 3.069089 1_554
Ge1 Y1 3.069089 1_555
Ge1 Y0 3.069089 1_555
Ge1 Y5 3.079231 1_555
Ge1 Y8 3.450652 1_554
Ge1 Y8 3.450652 1_555
Ge2 Y5 2.914828 1_555
Ge2 Y4 2.914828 1_545
Ge2 Y3 3.069082 1_544
Ge2 Y0 3.069082 1_545
Ge2 Y1 3.069085 1_555
Ge2 Y2 3.069085 1_554
Ge2 Y6 3.079230 1_555
Ge2 Y9 3.450651 1_555
Ge2 Y9 3.450651 1_554
