# generated using pymatgen
data_Zn3(AsO3)2
_symmetry_space_group_name_H-M   'P 1'
_cell_length_a   5.18182391
_cell_length_b   8.25343307
_cell_length_c   15.83709290
_cell_angle_alpha   97.46126465
_cell_angle_beta   90.00000734
_cell_angle_gamma   90.00000566
_symmetry_Int_Tables_number   1
_chemical_formula_structural   Zn3(AsO3)2
_chemical_formula_sum   'Zn12 As8 O24'
_cell_volume   671.58326936
_cell_formula_units_Z   4
loop_
 _symmetry_equiv_pos_site_id
 _symmetry_equiv_pos_as_xyz
  1  'x, y, z'
loop_
 _atom_site_type_symbol
 _atom_site_label
 _atom_site_symmetry_multiplicity
 _atom_site_fract_x
 _atom_site_fract_y
 _atom_site_fract_z
 _atom_site_occupancy
  Zn  Zn0  1  0.64595989  0.86871062  0.74015035  1
  Zn  Zn1  1  0.14596142  0.13128671  0.75984996  1
  Zn  Zn2  1  0.35403877  0.13128670  0.25984996  1
  Zn  Zn3  1  0.85403985  0.86871059  0.24015036  1
  Zn  Zn4  1  0.12663503  0.38888802  0.93294728  1
  Zn  Zn5  1  0.62663648  0.61111117  0.56705158  1
  Zn  Zn6  1  0.87336386  0.61111118  0.06705161  1
  Zn  Zn7  1  0.37336469  0.38888799  0.43294729  1
  Zn  Zn8  1  0.54895449  0.51142619  0.81113465  1
  Zn  Zn9  1  0.04896075  0.48857029  0.68886779  1
  Zn  Zn10  1  0.45103950  0.48857033  0.18886775  1
  Zn  Zn11  1  0.95104526  0.51142625  0.31113462  1
  As  As0  1  0.04113183  0.74281539  0.86983238  1
  As  As1  1  0.54115262  0.25719233  0.63016376  1
  As  As2  1  0.95884743  0.25719226  0.13016372  1
  As  As3  1  0.45886802  0.74281538  0.36983237  1
  As  As4  1  0.63138241  0.16635551  0.89372688  1
  As  As5  1  0.13138163  0.83363664  0.60627134  1
  As  As6  1  0.36861839  0.83363664  0.10627130  1
  As  As7  1  0.86861757  0.16635553  0.39372687  1
  O  O0  1  0.99196176  0.61390511  0.94949780  1
  O  O1  1  0.49193307  0.38610553  0.55050391  1
  O  O2  1  0.00806699  0.38610559  0.05050392  1
  O  O3  1  0.50803812  0.61390511  0.44949779  1
  O  O4  1  0.94037238  0.22283355  0.85640651  1
  O  O5  1  0.44036845  0.77716455  0.64359420  1
  O  O6  1  0.05963170  0.77716461  0.14359426  1
  O  O7  1  0.55962753  0.22283359  0.35640654  1
  O  O8  1  0.50042529  0.07374612  0.79479859  1
  O  O9  1  0.00041872  0.92625250  0.70519601  1
  O  O10  1  0.49958139  0.92625257  0.20519597  1
  O  O11  1  -0.00042533  0.07374615  0.29479858  1
  O  O12  1  0.48214345  0.36220577  0.89499124  1
  O  O13  1  0.98214099  0.63778931  0.60501118  1
  O  O14  1  0.51785926  0.63778940  0.10501118  1
  O  O15  1  0.01785628  0.36220588  0.39499126  1
  O  O16  1  0.69104041  0.41379337  0.70228113  1
  O  O17  1  0.19103956  0.58621706  0.79772134  1
  O  O18  1  0.30896049  0.58621696  0.29772130  1
  O  O19  1  0.80895957  0.41379325  0.20228112  1
  O  O20  1  0.72549847  0.72184707  0.82406653  1
  O  O21  1  0.22552127  0.27814806  0.67593563  1
  O  O22  1  0.27447879  0.27814803  0.17593559  1
  O  O23  1  0.77450150  0.72184713  0.32406657  1
loop_
_geom_bond_atom_site_label_1
_geom_bond_atom_site_label_2
_geom_bond_distance
_geom_bond_site_symmetry_2
As0 O0 1.771256 1_455
As0 O17 1.787396 1_555
As0 O20 1.788225 1_455
As1 O1 1.771239 1_555
As1 O16 1.787420 1_555
As1 O21 1.788249 1_555
As2 O2 1.771240 1_655
As2 O19 1.787420 1_555
As2 O22 1.788249 1_655
As3 O3 1.771256 1_555
As3 O18 1.787396 1_555
As3 O23 1.788226 1_555
As4 O8 1.785600 1_555
As4 O4 1.789356 1_555
As4 O12 1.789666 1_555
As5 O9 1.785582 1_555
As5 O5 1.789341 1_555
As5 O13 1.789654 1_455
As6 O10 1.785582 1_555
As6 O6 1.789341 1_555
As6 O14 1.789655 1_555
As7 O11 1.785600 1_655
As7 O7 1.789356 1_555
As7 O15 1.789666 1_655
O0 Zn6 1.963498 1_556
O0 Zn4 1.969349 1_655
O1 Zn7 1.963479 1_555
O1 Zn5 1.969316 1_555
O2 Zn4 1.963479 1_554
O2 Zn6 1.969315 1_455
O3 Zn5 1.963498 1_555
O3 Zn7 1.969349 1_555
O4 Zn1 1.934972 1_655
O4 Zn4 1.961586 1_655
O5 Zn0 1.934973 1_555
O5 Zn5 1.961610 1_555
O6 Zn3 1.934973 1_455
O6 Zn6 1.961610 1_455
O7 Zn2 1.934972 1_555
O7 Zn7 1.961586 1_555
O8 Zn0 1.949637 1_545
O8 Zn1 1.993457 1_555
O9 Zn1 1.949675 1_565
O9 Zn0 1.993464 1_455
O10 Zn2 1.949674 1_565
O10 Zn3 1.993462 1_555
O11 Zn3 1.949638 1_445
O11 Zn2 1.993458 1_555
O12 Zn4 1.941414 1_555
O12 Zn8 1.955795 1_555
O13 Zn5 1.941409 1_555
O13 Zn9 1.955795 1_655
O14 Zn6 1.941410 1_555
O14 Zn10 1.955795 1_555
O15 Zn7 1.941414 1_555
O15 Zn11 1.955795 1_455
O16 Zn8 1.950011 1_555
O16 Zn9 1.974818 1_655
O17 Zn9 1.950031 1_555
O17 Zn8 1.974830 1_555
O18 Zn10 1.950032 1_555
O18 Zn11 1.974831 1_455
O19 Zn11 1.950010 1_555
O19 Zn10 1.974818 1_555
O20 Zn8 1.950019 1_555
O20 Zn0 1.955430 1_555
O21 Zn9 1.950069 1_555
O21 Zn1 1.955419 1_555
O22 Zn10 1.950070 1_555
O22 Zn2 1.955419 1_555
O23 Zn11 1.950018 1_555
O23 Zn3 1.955430 1_555
