# generated using pymatgen
data_SrCu2GeS4
_symmetry_space_group_name_H-M   'P 1'
_cell_length_a   6.18227731
_cell_length_b   6.18227731
_cell_length_c   15.30418100
_cell_angle_alpha   90.00000000
_cell_angle_beta   90.00000000
_cell_angle_gamma   119.99999257
_symmetry_Int_Tables_number   1
_chemical_formula_structural   SrCu2GeS4
_chemical_formula_sum   'Sr3 Cu6 Ge3 S12'
_cell_volume   506.56796339
_cell_formula_units_Z   3
loop_
 _symmetry_equiv_pos_site_id
 _symmetry_equiv_pos_as_xyz
  1  'x, y, z'
loop_
 _atom_site_type_symbol
 _atom_site_label
 _atom_site_symmetry_multiplicity
 _atom_site_fract_x
 _atom_site_fract_y
 _atom_site_fract_z
 _atom_site_occupancy
  Sr  Sr0  1  0.44580600  0.44580600  0.00000000  1
  Sr  Sr1  1  0.00000000  0.55419400  0.33333300  1
  Sr  Sr2  1  0.55419400  0.00000000  0.66666700  1
  Cu  Cu0  1  0.34775300  0.42501000  0.75535000  1
  Cu  Cu1  1  0.92274300  0.57499000  0.57798300  1
  Cu  Cu2  1  0.42501000  0.34775300  0.24465000  1
  Cu  Cu3  1  0.07725700  0.65224700  0.08868300  1
  Cu  Cu4  1  0.57499000  0.92274300  0.42201700  1
  Cu  Cu5  1  0.65224700  0.07725700  0.91131700  1
  Ge  Ge0  1  0.71286000  0.00000000  0.16666700  1
  Ge  Ge1  1  0.00000000  0.71286000  0.83333300  1
  Ge  Ge2  1  0.28714000  0.28714000  0.50000000  1
  S  S0  1  0.76535600  0.66291900  0.16834200  1
  S  S1  1  0.89756300  0.23464400  0.50167500  1
  S  S2  1  0.33708100  0.10243700  0.83500900  1
  S  S3  1  0.10243700  0.33708100  0.16499100  1
  S  S4  1  0.23464400  0.89756300  0.49832500  1
  S  S5  1  0.66291900  0.76535600  0.83165800  1
  S  S6  1  0.96192900  0.47022100  0.94843800  1
  S  S7  1  0.50829200  0.03807100  0.28177100  1
  S  S8  1  0.03807100  0.50829200  0.71822900  1
  S  S9  1  0.47022100  0.96192900  0.05156200  1
  S  S10  1  0.49170800  0.52977900  0.38489500  1
  S  S11  1  0.52977900  0.49170800  0.61510500  1
loop_
_geom_bond_atom_site_label_1
_geom_bond_atom_site_label_2
_geom_bond_distance
_geom_bond_site_symmetry_2
Cu0 S8 2.288896 1_555
Cu0 S2 2.309978 1_555
Cu0 S5 2.342608 1_555
Cu0 S11 2.362019 1_555
Cu1 S11 2.288900 1_555
Cu1 S4 2.309970 1_655
Cu1 S1 2.342607 1_555
Cu1 S8 2.362033 1_655
Cu2 S7 2.288896 1_555
Cu2 S3 2.309978 1_555
Cu2 S0 2.342608 1_555
Cu2 S10 2.362019 1_555
Cu3 S9 2.288896 1_555
Cu3 S0 2.309978 1_455
Cu3 S3 2.342607 1_555
Cu3 S6 2.362019 1_454
Cu4 S10 2.288900 1_555
Cu4 S1 2.309970 1_565
Cu4 S4 2.342607 1_555
Cu4 S7 2.362033 1_565
Cu5 S6 2.288896 1_555
Cu5 S5 2.309978 1_545
Cu5 S2 2.342607 1_555
Cu5 S9 2.362019 1_546
Ge0 S7 2.248479 1_555
Ge0 S9 2.248491 1_545
Ge0 S0 2.263862 1_545
Ge0 S3 2.263862 1_655
Ge1 S8 2.248479 1_555
Ge1 S6 2.248491 1_455
Ge1 S5 2.263862 1_455
Ge1 S2 2.263862 1_565
Ge2 S10 2.248491 1_555
Ge2 S11 2.248491 1_555
Ge2 S1 2.263862 1_455
Ge2 S4 2.263862 1_545
S0 Sr0 3.112917 1_555
S0 Sr1 3.147556 1_655
S1 Sr1 3.112917 1_655
S1 Sr2 3.147568 1_555
S2 Sr2 3.112917 1_555
S2 Sr0 3.147556 1_556
S3 Sr1 3.112917 1_555
S3 Sr0 3.147556 1_555
S4 Sr2 3.112917 1_565
S4 Sr1 3.147568 1_555
S5 Sr0 3.112917 1_556
S5 Sr2 3.147556 1_565
S6 Sr0 3.169520 1_656
S6 Sr0 3.216390 1_556
S7 Sr1 3.169521 1_545
S7 Sr1 3.216390 1_655
S8 Sr2 3.169521 1_455
S8 Sr2 3.216390 1_565
S9 Sr0 3.169520 1_565
S9 Sr0 3.216390 1_555
S10 Sr1 3.169520 1_655
S10 Sr1 3.216390 1_555
S11 Sr2 3.169520 1_565
S11 Sr2 3.216390 1_555
