# generated using pymatgen
data_Na3ErBr6
_symmetry_space_group_name_H-M   'P 1'
_cell_length_a   7.66135758
_cell_length_b   7.11399351
_cell_length_c   12.93480598
_cell_angle_alpha   55.55342314
_cell_angle_beta   90.00000000
_cell_angle_gamma   90.00000000
_symmetry_Int_Tables_number   1
_chemical_formula_structural   Na3ErBr6
_chemical_formula_sum   'Na6 Er2 Br12'
_cell_volume   581.36764896
_cell_formula_units_Z   2
loop_
 _symmetry_equiv_pos_site_id
 _symmetry_equiv_pos_as_xyz
  1  'x, y, z'
loop_
 _atom_site_type_symbol
 _atom_site_label
 _atom_site_symmetry_multiplicity
 _atom_site_fract_x
 _atom_site_fract_y
 _atom_site_fract_z
 _atom_site_occupancy
  Na  Na0  1  -0.00000000  0.50000000  0.50000000  1
  Na  Na1  1  0.50000000  0.50000000  0.00000000  1
  Na  Na2  1  0.41079438  0.22871791  0.73837447  1
  Na  Na3  1  0.58920562  0.77128209  0.26162553  1
  Na  Na4  1  0.91079438  0.77128209  0.76162553  1
  Na  Na5  1  0.08920562  0.22871791  0.23837447  1
  Er  Er0  1  -0.00000000  -0.00000000  0.00000000  1
  Er  Er1  1  0.50000000  -0.00000000  0.50000000  1
  Br  Br0  1  0.69307264  0.91419906  0.92044310  1
  Br  Br1  1  0.30692736  0.08580094  0.07955690  1
  Br  Br2  1  0.19307264  0.08580094  0.57955690  1
  Br  Br3  1  0.80692736  0.91419906  0.42044310  1
  Br  Br4  1  0.06106655  0.38423722  0.75990763  1
  Br  Br5  1  0.93893345  0.61576278  0.24009237  1
  Br  Br6  1  0.56106655  0.61576278  0.74009237  1
  Br  Br7  1  0.43893345  0.38423722  0.25990763  1
  Br  Br8  1  0.17803814  0.74548160  0.93548807  1
  Br  Br9  1  0.82196186  0.25451840  0.06451193  1
  Br  Br10  1  0.67803814  0.25451840  0.56451193  1
  Br  Br11  1  0.32196186  0.74548160  0.43548807  1
loop_
_geom_bond_atom_site_label_1
_geom_bond_atom_site_label_2
_geom_bond_distance
_geom_bond_site_symmetry_2
Br0 Er0 2.769758 1_666
Br0 Na1 2.915341 1_556
Br0 Na2 3.044405 1_565
Br0 Na4 3.224732 1_555
Br1 Er0 2.769758 1_555
Br1 Na1 2.915341 1_555
Br1 Na3 3.044405 1_545
Br1 Na5 3.224732 1_555
Br2 Er1 2.769758 1_555
Br2 Na0 2.915341 1_555
Br2 Na4 3.044405 1_445
Br2 Na2 3.224732 1_555
Br3 Er1 2.769758 1_565
Br3 Na0 2.915341 1_655
Br3 Na5 3.044405 1_665
Br3 Na3 3.224732 1_555
Br4 Er0 2.780620 1_556
Br4 Na2 2.971423 1_555
Br4 Na4 2.996094 1_455
Br4 Na0 3.011164 1_555
Br5 Er0 2.780620 1_665
Br5 Na3 2.971423 1_555
Br5 Na5 2.996094 1_655
Br5 Na0 3.011164 1_655
Br6 Er1 2.780620 1_565
Br6 Na4 2.971423 1_555
Br6 Na2 2.996094 1_555
Br6 Na1 3.011164 1_556
Br7 Er1 2.780620 1_555
Br7 Na5 2.971423 1_555
Br7 Na3 2.996094 1_555
Br7 Na1 3.011164 1_555
Br8 Er0 2.746725 1_566
Br8 Na1 2.860411 1_556
Br8 Na4 2.969215 1_455
Br8 Na2 3.403378 1_565
Br9 Er0 2.746725 1_655
Br9 Na1 2.860411 1_555
Br9 Na5 2.969215 1_655
Br9 Na3 3.403378 1_545
Br10 Er1 2.746725 1_555
Br10 Na0 2.860411 1_655
Br10 Na2 2.969215 1_555
Br10 Na4 3.403378 1_545
Br11 Er1 2.746725 1_565
Br11 Na0 2.860411 1_555
Br11 Na3 2.969215 1_555
Br11 Na5 3.403378 1_565
