# generated using pymatgen
data_BaV2O6
_symmetry_space_group_name_H-M   'P 1'
_cell_length_a   7.64205356
_cell_length_b   7.64202934
_cell_length_c   7.96181936
_cell_angle_alpha   90.00006844
_cell_angle_beta   89.99989606
_cell_angle_gamma   112.29047396
_symmetry_Int_Tables_number   1
_chemical_formula_structural   BaV2O6
_chemical_formula_sum   'Ba3 V6 O18'
_cell_volume   430.23019786
_cell_formula_units_Z   3
loop_
 _symmetry_equiv_pos_site_id
 _symmetry_equiv_pos_as_xyz
  1  'x, y, z'
loop_
 _atom_site_type_symbol
 _atom_site_label
 _atom_site_symmetry_multiplicity
 _atom_site_fract_x
 _atom_site_fract_y
 _atom_site_fract_z
 _atom_site_occupancy
  Ba  Ba0  1  0.83690180  0.16309737  0.49999904  1
  Ba  Ba1  1  0.16309677  0.83690226  0.50000078  1
  Ba  Ba2  1  -0.00000110  0.00000044  -0.00000132  1
  V  V0  1  0.00000062  0.50000107  0.93517282  1
  V  V1  1  0.50000109  -0.00000006  0.06483085  1
  V  V2  1  0.25095201  0.39768292  0.25999363  1
  V  V3  1  0.74904736  0.60231669  0.25999413  1
  V  V4  1  0.60231519  0.74904936  0.74000511  1
  V  V5  1  0.39768329  0.25094991  0.74000629  1
  O  O0  1  0.85745335  0.59101136  0.06195898  1
  O  O1  1  0.14254648  0.40898973  0.06195825  1
  O  O2  1  0.59101019  0.85745313  0.93804153  1
  O  O3  1  0.40898645  0.14254418  0.93804261  1
  O  O4  1  0.82796049  0.50775119  0.41334465  1
  O  O5  1  0.17203871  0.49224735  0.41334549  1
  O  O6  1  0.50774998  0.82796128  0.58665313  1
  O  O7  1  0.49224942  0.17203927  0.58665328  1
  O  O8  1  0.13187557  0.68166422  0.81835464  1
  O  O9  1  0.49999914  0.49999992  0.75495511  1
  O  O10  1  0.50000022  0.50000019  0.24504476  1
  O  O11  1  0.16542988  0.16854244  0.69983326  1
  O  O12  1  0.83456914  0.83145708  0.69983305  1
  O  O13  1  0.86812442  0.31833557  0.81835417  1
  O  O14  1  0.83145572  0.83457100  0.30016441  1
  O  O15  1  0.31834581  0.86812213  0.18165415  1
  O  O16  1  0.68167043  0.13188117  0.18164202  1
  O  O17  1  0.16854459  0.16542884  0.30016417  1
loop_
_geom_bond_atom_site_label_1
_geom_bond_atom_site_label_2
_geom_bond_distance
_geom_bond_site_symmetry_2
Ba0 O7 2.748522 1_555
Ba0 O4 2.748525 1_555
Ba0 O13 2.770238 1_555
Ba0 O16 2.770239 1_555
Ba0 O5 2.911256 1_655
Ba0 O6 2.911261 1_545
Ba0 O14 2.959230 1_545
Ba0 O11 2.959252 1_655
Ba0 O12 2.986750 1_545
Ba0 O17 2.986776 1_655
Ba1 O6 2.748524 1_555
Ba1 O5 2.748535 1_555
Ba1 O15 2.770211 1_555
Ba1 O8 2.770230 1_555
Ba1 O4 2.911263 1_455
Ba1 O7 2.911266 1_565
Ba1 O12 2.959236 1_455
Ba1 O17 2.959239 1_565
Ba1 O11 2.986739 1_565
Ba1 O14 2.986776 1_455
Ba2 O11 2.780902 1_554
Ba2 O14 2.780903 1_445
Ba2 O12 2.780905 1_444
Ba2 O17 2.780906 1_555
Ba2 O3 2.935289 1_554
Ba2 O1 2.935296 1_555
Ba2 O0 2.935296 1_445
Ba2 O2 2.935299 1_444
Ba2 O16 3.299257 1_455
Ba2 O13 3.299277 1_454
Ba2 O8 3.299288 1_544
Ba2 O15 3.299414 1_545
O0 V3 1.798366 1_555
O0 V0 1.806697 1_654
O1 V2 1.798372 1_555
O1 V0 1.806694 1_554
O2 V4 1.798366 1_555
O2 V1 1.806702 1_566
O3 V5 1.798371 1_555
O3 V1 1.806711 1_556
O4 V3 1.645377 1_555
O5 V2 1.645378 1_555
O6 V4 1.645380 1_555
O7 V5 1.645382 1_555
O8 V0 1.657304 1_555
O9 V4 1.766057 1_555
O9 V5 1.766060 1_555
O10 V3 1.766046 1_555
O10 V2 1.766053 1_555
O11 V5 1.673683 1_555
O12 V4 1.673684 1_555
O13 V0 1.657320 1_655
O14 V3 1.673679 1_555
O15 V1 1.657298 1_565
O16 V1 1.657318 1_555
O17 V2 1.673678 1_555
