# generated using pymatgen
data_Rh
_symmetry_space_group_name_H-M   'P 1'
_cell_length_a   5.38348974
_cell_length_b   5.38348875
_cell_length_c   17.59614026
_cell_angle_alpha   90.00000000
_cell_angle_beta   90.00000000
_cell_angle_gamma   119.99999365
_symmetry_Int_Tables_number   1
_chemical_formula_structural   Rh
_chemical_formula_sum   Rh32
_cell_volume   441.64749799
_cell_formula_units_Z   32
loop_
 _symmetry_equiv_pos_site_id
 _symmetry_equiv_pos_as_xyz
  1  'x, y, z'
loop_
 _atom_site_type_symbol
 _atom_site_label
 _atom_site_symmetry_multiplicity
 _atom_site_fract_x
 _atom_site_fract_y
 _atom_site_fract_z
 _atom_site_occupancy
  Rh  Rh0_0  1  0.00000000  0.00000000  0.00000000  1
  Rh  Rh0_1  1  0.00000000  0.00000000  0.50000000  1
  Rh  Rh0_2  1  0.00000000  0.50000000  0.00000000  1
  Rh  Rh0_3  1  0.00000000  0.50000000  0.50000000  1
  Rh  Rh0_4  1  0.50000000  0.00000000  0.00000000  1
  Rh  Rh0_5  1  0.50000000  0.00000000  0.50000000  1
  Rh  Rh0_6  1  0.50000000  0.50000000  0.00000000  1
  Rh  Rh0_7  1  0.50000000  0.50000000  0.50000000  1
  Rh  Rh1_0  1  0.16666650  0.33333300  0.12500000  1
  Rh  Rh1_1  1  0.16666650  0.33333300  0.62500000  1
  Rh  Rh1_2  1  0.16666650  0.83333300  0.12500000  1
  Rh  Rh1_3  1  0.16666650  0.83333300  0.62500000  1
  Rh  Rh1_4  1  0.66666650  0.33333300  0.12500000  1
  Rh  Rh1_5  1  0.66666650  0.33333300  0.62500000  1
  Rh  Rh1_6  1  0.66666650  0.83333300  0.12500000  1
  Rh  Rh1_7  1  0.66666650  0.83333300  0.62500000  1
  Rh  Rh2_0  1  0.00000000  0.00000000  0.25000050  1
  Rh  Rh2_1  1  0.00000000  0.00000000  0.75000050  1
  Rh  Rh2_2  1  0.00000000  0.50000000  0.25000050  1
  Rh  Rh2_3  1  0.00000000  0.50000000  0.75000050  1
  Rh  Rh2_4  1  0.50000000  0.00000000  0.25000050  1
  Rh  Rh2_5  1  0.50000000  0.00000000  0.75000050  1
  Rh  Rh2_6  1  0.50000000  0.50000000  0.25000050  1
  Rh  Rh2_7  1  0.50000000  0.50000000  0.75000050  1
  Rh  Rh3_0  1  0.33333400  0.16666650  0.37500000  1
  Rh  Rh3_1  1  0.33333400  0.16666650  0.87500000  1
  Rh  Rh3_2  1  0.33333400  0.66666650  0.37500000  1
  Rh  Rh3_3  1  0.33333400  0.66666650  0.87500000  1
  Rh  Rh3_4  1  0.83333400  0.16666650  0.37500000  1
  Rh  Rh3_5  1  0.83333400  0.16666650  0.87500000  1
  Rh  Rh3_6  1  0.83333400  0.66666650  0.37500000  1
  Rh  Rh3_7  1  0.83333400  0.66666650  0.87500000  1
loop_
_geom_bond_atom_site_label_1
_geom_bond_atom_site_label_2
_geom_bond_distance
_geom_bond_site_symmetry_2
Rh0_0 Rh0_2 2.691744 1_545
Rh0_0 Rh0_2 2.691744 1_555
Rh0_0 Rh0_4 2.691745 1_455
Rh0_0 Rh0_4 2.691745 1_555
Rh0_0 Rh0_6 2.691745 1_445
Rh0_0 Rh0_6 2.691745 1_555
Rh0_0 Rh3_5 2.693145 1_454
Rh0_0 Rh1_0 2.693146 1_555
Rh0_0 Rh1_2 2.693147 1_545
Rh0_0 Rh3_7 2.693147 1_444
Rh0_0 Rh1_6 2.693148 1_445
Rh0_0 Rh3_1 2.693149 1_554
Rh0_1 Rh0_3 2.691744 1_545
Rh0_1 Rh0_3 2.691744 1_555
Rh0_1 Rh0_5 2.691745 1_555
Rh0_1 Rh0_5 2.691745 1_455
Rh0_1 Rh0_7 2.691745 1_555
Rh0_1 Rh0_7 2.691745 1_445
Rh0_1 Rh3_4 2.693145 1_455
Rh0_1 Rh1_1 2.693146 1_555
Rh0_1 Rh1_3 2.693147 1_545
Rh0_1 Rh3_6 2.693147 1_445
Rh0_1 Rh1_7 2.693148 1_445
Rh0_1 Rh3_0 2.693149 1_555
Rh0_2 Rh0_6 2.691745 1_555
Rh0_2 Rh0_6 2.691745 1_455
Rh0_2 Rh0_4 2.691745 1_455
Rh0_2 Rh0_4 2.691745 1_565
Rh0_2 Rh3_7 2.693145 1_454
Rh0_2 Rh1_2 2.693146 1_555
Rh0_2 Rh1_0 2.693147 1_555
Rh0_2 Rh3_5 2.693147 1_454
Rh0_2 Rh1_4 2.693148 1_455
Rh0_2 Rh3_3 2.693149 1_554
Rh0_3 Rh0_7 2.691745 1_555
Rh0_3 Rh0_7 2.691745 1_455
Rh0_3 Rh0_5 2.691745 1_565
Rh0_3 Rh0_5 2.691745 1_455
Rh0_3 Rh3_6 2.693145 1_455
Rh0_3 Rh1_3 2.693146 1_555
Rh0_3 Rh1_1 2.693147 1_555
Rh0_3 Rh3_4 2.693147 1_455
Rh0_3 Rh1_5 2.693148 1_455
Rh0_3 Rh3_2 2.693149 1_555
Rh0_4 Rh0_6 2.691744 1_555
Rh0_4 Rh0_6 2.691744 1_545
Rh0_4 Rh3_1 2.693145 1_554
Rh0_4 Rh1_4 2.693146 1_555
Rh0_4 Rh1_6 2.693147 1_545
Rh0_4 Rh3_3 2.693147 1_544
Rh0_4 Rh1_2 2.693148 1_545
Rh0_4 Rh3_5 2.693149 1_554
Rh0_5 Rh0_7 2.691744 1_555
Rh0_5 Rh0_7 2.691744 1_545
Rh0_5 Rh3_0 2.693145 1_555
Rh0_5 Rh1_5 2.693146 1_555
Rh0_5 Rh1_7 2.693147 1_545
Rh0_5 Rh3_2 2.693147 1_545
Rh0_5 Rh1_3 2.693148 1_545
Rh0_5 Rh3_4 2.693149 1_555
Rh0_6 Rh3_3 2.693145 1_554
Rh0_6 Rh1_6 2.693146 1_555
Rh0_6 Rh1_4 2.693147 1_555
Rh0_6 Rh3_1 2.693147 1_554
Rh0_6 Rh1_0 2.693148 1_555
Rh0_6 Rh3_7 2.693149 1_554
Rh0_7 Rh3_2 2.693145 1_555
Rh0_7 Rh1_7 2.693146 1_555
Rh0_7 Rh1_5 2.693147 1_555
Rh0_7 Rh3_0 2.693147 1_555
Rh0_7 Rh1_1 2.693148 1_555
Rh0_7 Rh3_6 2.693149 1_555
Rh1_0 Rh1_2 2.691744 1_545
Rh1_0 Rh1_2 2.691744 1_555
Rh1_0 Rh1_4 2.691745 1_455
Rh1_0 Rh1_4 2.691745 1_555
Rh1_0 Rh1_6 2.691745 1_555
Rh1_0 Rh1_6 2.691745 1_445
Rh1_0 Rh2_0 2.693153 1_555
Rh1_0 Rh2_2 2.693155 1_555
Rh1_0 Rh2_6 2.693155 1_555
Rh1_1 Rh1_3 2.691744 1_555
Rh1_1 Rh1_3 2.691744 1_545
Rh1_1 Rh1_5 2.691745 1_555
Rh1_1 Rh1_5 2.691745 1_455
Rh1_1 Rh1_7 2.691745 1_445
Rh1_1 Rh1_7 2.691745 1_555
Rh1_1 Rh2_1 2.693153 1_555
Rh1_1 Rh2_3 2.693155 1_555
Rh1_1 Rh2_7 2.693155 1_555
Rh1_2 Rh1_6 2.691745 1_455
Rh1_2 Rh1_6 2.691745 1_555
Rh1_2 Rh1_4 2.691745 1_565
Rh1_2 Rh1_4 2.691745 1_455
Rh1_2 Rh2_2 2.693153 1_555
Rh1_2 Rh2_0 2.693155 1_565
Rh1_2 Rh2_4 2.693155 1_565
Rh1_3 Rh1_7 2.691745 1_455
Rh1_3 Rh1_7 2.691745 1_555
Rh1_3 Rh1_5 2.691745 1_565
Rh1_3 Rh1_5 2.691745 1_455
Rh1_3 Rh2_3 2.693153 1_555
Rh1_3 Rh2_1 2.693155 1_565
Rh1_3 Rh2_5 2.693155 1_565
Rh1_4 Rh1_6 2.691744 1_545
Rh1_4 Rh1_6 2.691744 1_555
Rh1_4 Rh2_4 2.693153 1_555
Rh1_4 Rh2_6 2.693155 1_555
Rh1_4 Rh2_2 2.693155 1_655
Rh1_5 Rh1_7 2.691744 1_545
Rh1_5 Rh1_7 2.691744 1_555
Rh1_5 Rh2_5 2.693153 1_555
Rh1_5 Rh2_7 2.693155 1_555
Rh1_5 Rh2_3 2.693155 1_655
Rh1_6 Rh2_6 2.693153 1_555
Rh1_6 Rh2_4 2.693155 1_565
Rh1_6 Rh2_0 2.693155 1_665
Rh1_7 Rh2_7 2.693153 1_555
Rh1_7 Rh2_5 2.693155 1_565
Rh1_7 Rh2_1 2.693155 1_665
Rh2_0 Rh2_2 2.691744 1_555
Rh2_0 Rh2_2 2.691744 1_545
Rh2_0 Rh2_4 2.691745 1_455
Rh2_0 Rh2_4 2.691745 1_555
Rh2_0 Rh2_6 2.691745 1_445
Rh2_0 Rh2_6 2.691745 1_555
Rh2_0 Rh3_4 2.693137 1_455
Rh2_0 Rh3_6 2.693140 1_445
Rh2_0 Rh3_0 2.693142 1_555
Rh2_1 Rh2_3 2.691744 1_555
Rh2_1 Rh2_3 2.691744 1_545
Rh2_1 Rh2_5 2.691745 1_455
Rh2_1 Rh2_5 2.691745 1_555
Rh2_1 Rh2_7 2.691745 1_555
Rh2_1 Rh2_7 2.691745 1_445
Rh2_1 Rh3_5 2.693137 1_455
Rh2_1 Rh3_7 2.693140 1_445
Rh2_1 Rh3_1 2.693142 1_555
Rh2_2 Rh2_6 2.691745 1_455
Rh2_2 Rh2_6 2.691745 1_555
Rh2_2 Rh2_4 2.691745 1_455
Rh2_2 Rh2_4 2.691745 1_565
Rh2_2 Rh3_6 2.693137 1_455
Rh2_2 Rh3_4 2.693140 1_455
Rh2_2 Rh3_2 2.693142 1_555
Rh2_3 Rh2_7 2.691745 1_555
Rh2_3 Rh2_7 2.691745 1_455
Rh2_3 Rh2_5 2.691745 1_565
Rh2_3 Rh2_5 2.691745 1_455
Rh2_3 Rh3_7 2.693137 1_455
Rh2_3 Rh3_5 2.693140 1_455
Rh2_3 Rh3_3 2.693142 1_555
Rh2_4 Rh2_6 2.691744 1_545
Rh2_4 Rh2_6 2.691744 1_555
Rh2_4 Rh3_0 2.693137 1_555
Rh2_4 Rh3_2 2.693140 1_545
Rh2_4 Rh3_4 2.693142 1_555
Rh2_5 Rh2_7 2.691744 1_555
Rh2_5 Rh2_7 2.691744 1_545
Rh2_5 Rh3_1 2.693137 1_555
Rh2_5 Rh3_3 2.693140 1_545
Rh2_5 Rh3_5 2.693142 1_555
Rh2_6 Rh3_2 2.693137 1_555
Rh2_6 Rh3_0 2.693140 1_555
Rh2_6 Rh3_6 2.693142 1_555
Rh2_7 Rh3_3 2.693137 1_555
Rh2_7 Rh3_1 2.693140 1_555
Rh2_7 Rh3_7 2.693142 1_555
Rh3_0 Rh3_2 2.691744 1_555
Rh3_0 Rh3_2 2.691744 1_545
Rh3_0 Rh3_4 2.691745 1_555
Rh3_0 Rh3_4 2.691745 1_455
Rh3_0 Rh3_6 2.691745 1_555
Rh3_0 Rh3_6 2.691745 1_445
Rh3_1 Rh3_3 2.691744 1_555
Rh3_1 Rh3_3 2.691744 1_545
Rh3_1 Rh3_5 2.691745 1_555
Rh3_1 Rh3_5 2.691745 1_455
Rh3_1 Rh3_7 2.691745 1_555
Rh3_1 Rh3_7 2.691745 1_445
Rh3_2 Rh3_6 2.691745 1_555
Rh3_2 Rh3_6 2.691745 1_455
Rh3_2 Rh3_4 2.691745 1_455
Rh3_2 Rh3_4 2.691745 1_565
Rh3_3 Rh3_7 2.691745 1_555
Rh3_3 Rh3_7 2.691745 1_455
Rh3_3 Rh3_5 2.691745 1_455
Rh3_3 Rh3_5 2.691745 1_565
Rh3_4 Rh3_6 2.691744 1_545
Rh3_4 Rh3_6 2.691744 1_555
Rh3_5 Rh3_7 2.691744 1_545
Rh3_5 Rh3_7 2.691744 1_555
