# generated using pymatgen
data_UH5(SeO5)2
_symmetry_space_group_name_H-M   'P 1'
_cell_length_a   8.19026100
_cell_length_b   11.89735000
_cell_length_c   12.60809100
_cell_angle_alpha   90.00000000
_cell_angle_beta   90.00000000
_cell_angle_gamma   90.00000000
_symmetry_Int_Tables_number   1
_chemical_formula_structural   UH5(SeO5)2
_chemical_formula_sum   'U4 H20 Se8 O40'
_cell_volume   1228.56266800
_cell_formula_units_Z   4
loop_
 _symmetry_equiv_pos_site_id
 _symmetry_equiv_pos_as_xyz
  1  'x, y, z'
loop_
 _atom_site_type_symbol
 _atom_site_label
 _atom_site_symmetry_multiplicity
 _atom_site_fract_x
 _atom_site_fract_y
 _atom_site_fract_z
 _atom_site_occupancy
  U  U0  1  0.80662700  0.75000000  0.75314600  1
  U  U1  1  0.19337300  0.25000000  0.24685400  1
  U  U2  1  0.30662700  0.25000000  0.74685400  1
  U  U3  1  0.69337300  0.75000000  0.25314600  1
  H  H0  1  0.12582800  0.75000000  0.52958100  1
  H  H1  1  0.87417200  0.25000000  0.47041900  1
  H  H2  1  0.62582800  0.25000000  0.97041900  1
  H  H3  1  0.37417200  0.75000000  0.02958100  1
  H  H4  1  0.26308300  0.75000000  0.81023400  1
  H  H5  1  0.73691700  0.25000000  0.18976600  1
  H  H6  1  0.76308300  0.25000000  0.68976600  1
  H  H7  1  0.23691700  0.75000000  0.31023400  1
  H  H8  1  0.02032100  0.75000000  0.06963900  1
  H  H9  1  0.97967900  0.25000000  0.93036100  1
  H  H10  1  0.52032100  0.25000000  0.43036100  1
  H  H11  1  0.47967900  0.75000000  0.56963900  1
  H  H12  1  0.84135400  0.47276300  0.47974100  1
  H  H13  1  0.15864600  0.52723700  0.52025900  1
  H  H14  1  0.34135400  0.52723700  0.02025900  1
  H  H15  1  0.15864600  0.97276300  0.52025900  1
  H  H16  1  0.65864600  0.47276300  0.97974100  1
  H  H17  1  0.84135400  0.02723700  0.47974100  1
  H  H18  1  0.65864600  0.02723700  0.97974100  1
  H  H19  1  0.34135400  0.97276300  0.02025900  1
  Se  Se0  1  0.52432000  0.51202400  0.82305100  1
  Se  Se1  1  0.47568000  0.48797600  0.17694900  1
  Se  Se2  1  0.02432000  0.48797600  0.67694900  1
  Se  Se3  1  0.47568000  0.01202400  0.17694900  1
  Se  Se4  1  0.97568000  0.51202400  0.32305000  1
  Se  Se5  1  0.52432000  0.98797600  0.82305100  1
  Se  Se6  1  0.97568000  0.98797600  0.32305000  1
  Se  Se7  1  0.02432000  0.01202400  0.67694900  1
  O  O0  1  0.80053400  0.75000000  0.89491900  1
  O  O1  1  0.19946600  0.25000000  0.10508100  1
  O  O2  1  0.30053400  0.25000000  0.60508100  1
  O  O3  1  0.69946600  0.75000000  0.39491900  1
  O  O4  1  0.86315800  0.04205400  0.60464000  1
  O  O5  1  0.13684200  0.95794600  0.39536000  1
  O  O6  1  0.36315800  0.95794600  0.89536000  1
  O  O7  1  0.13684200  0.54205400  0.39536000  1
  O  O8  1  0.63684200  0.04205400  0.10464000  1
  O  O9  1  0.86315800  0.45794600  0.60464000  1
  O  O10  1  0.63684200  0.45794600  0.10464000  1
  O  O11  1  0.36315800  0.54205400  0.89536000  1
  O  O12  1  0.19294000  0.51882800  0.59805800  1
  O  O13  1  0.80706000  0.48117200  0.40194200  1
  O  O14  1  0.69294000  0.48117200  0.90194200  1
  O  O15  1  0.80706000  0.01882800  0.40194200  1
  O  O16  1  0.30706000  0.51882800  0.09805800  1
  O  O17  1  0.19294000  0.98117200  0.59805800  1
  O  O18  1  0.30706000  0.98117200  0.09805800  1
  O  O19  1  0.69294000  0.01882800  0.90194200  1
  O  O20  1  0.59183000  0.61662900  0.74652000  1
  O  O21  1  0.40817000  0.38337100  0.25348000  1
  O  O22  1  0.09183000  0.38337100  0.75348000  1
  O  O23  1  0.40817000  0.11662900  0.25348000  1
  O  O24  1  0.90817000  0.61662900  0.24652000  1
  O  O25  1  0.59183000  0.88337100  0.74652000  1
  O  O26  1  0.90817000  0.88337100  0.24652000  1
  O  O27  1  0.09183000  0.11662900  0.75348000  1
  O  O28  1  0.82632600  0.75000000  0.61188400  1
  O  O29  1  0.17367400  0.25000000  0.38811600  1
  O  O30  1  0.32632600  0.25000000  0.88811600  1
  O  O31  1  0.67367400  0.75000000  0.11188400  1
  O  O32  1  0.99141000  0.59705200  0.75816600  1
  O  O33  1  0.00859000  0.40294800  0.24183400  1
  O  O34  1  0.49141000  0.40294800  0.74183400  1
  O  O35  1  0.00859000  0.09705200  0.24183400  1
  O  O36  1  0.50859000  0.59705200  0.25816600  1
  O  O37  1  0.99141000  0.90294800  0.75816600  1
  O  O38  1  0.50859000  0.90294800  0.25816600  1
  O  O39  1  0.49141000  0.09705200  0.74183400  1
loop_
_geom_bond_atom_site_label_1
_geom_bond_atom_site_label_2
_geom_bond_distance
_geom_bond_site_symmetry_2
H12 O13 1.025212 1_555
H12 O9 1.594605 1_555
H13 O12 1.025212 1_555
H13 O7 1.594605 1_555
H14 O16 1.025212 1_555
H14 O11 1.594605 1_554
H15 O17 1.025212 1_555
H15 O5 1.594605 1_555
H16 O14 1.025212 1_555
H16 O10 1.594605 1_556
H17 O15 1.025212 1_555
H17 O4 1.594605 1_555
H18 O19 1.025212 1_555
H18 O8 1.594605 1_556
H19 O18 1.025212 1_555
H19 O6 1.594605 1_554
O0 U0 1.788183 1_555
O1 U1 1.788183 1_555
O2 U2 1.788183 1_555
O3 U3 1.788183 1_555
O4 Se7 1.643501 1_655
O5 Se6 1.643508 1_455
O6 Se5 1.643501 1_555
O7 Se4 1.643508 1_455
O8 Se3 1.643501 1_555
O9 Se2 1.643501 1_655
O10 Se1 1.643501 1_555
O11 Se0 1.643501 1_555
O12 Se2 1.741082 1_555
O13 Se4 1.741089 1_555
O14 Se0 1.741082 1_555
O15 Se6 1.741089 1_545
O16 Se1 1.741082 1_555
O17 Se7 1.741082 1_565
O18 Se3 1.741082 1_565
O19 Se5 1.741082 1_545
O20 Se0 1.669015 1_555
O20 U0 2.370597 1_555
O21 Se1 1.669015 1_555
O21 U1 2.370597 1_555
O22 Se2 1.669015 1_555
O22 U2 2.370597 1_555
O23 Se3 1.669015 1_555
O23 U1 2.370597 1_555
O24 Se4 1.669008 1_555
O24 U3 2.370597 1_555
O25 Se5 1.669015 1_555
O25 U0 2.370597 1_555
O26 Se6 1.669008 1_555
O26 U3 2.370597 1_555
O27 Se7 1.669015 1_555
O27 U2 2.370597 1_555
O28 U0 1.788337 1_555
O29 U1 1.788337 1_555
O30 U2 1.788337 1_555
O31 U3 1.788337 1_555
O32 Se2 1.674896 1_655
O32 U0 2.367629 1_555
O33 Se4 1.674888 1_455
O33 U1 2.367629 1_555
O34 Se0 1.674896 1_555
O34 U2 2.367629 1_555
O35 Se6 1.674888 1_445
O35 U1 2.367629 1_555
O36 Se1 1.674896 1_555
O36 U3 2.367629 1_555
O37 Se7 1.674896 1_665
O37 U0 2.367629 1_555
O38 Se3 1.674896 1_565
O38 U3 2.367629 1_555
O39 Se5 1.674896 1_545
O39 U2 2.367629 1_555
