# generated using pymatgen
data_U5(PbO11)2
_symmetry_space_group_name_H-M   'P 1'
_cell_length_a   6.83835700
_cell_length_b   11.53442000
_cell_length_c   14.93649663
_cell_angle_alpha   58.17858775
_cell_angle_beta   90.00000000
_cell_angle_gamma   90.00000000
_symmetry_Int_Tables_number   1
_chemical_formula_structural   U5(PbO11)2
_chemical_formula_sum   'U10 Pb4 O44'
_cell_volume   1001.05905394
_cell_formula_units_Z   2
loop_
 _symmetry_equiv_pos_site_id
 _symmetry_equiv_pos_as_xyz
  1  'x, y, z'
loop_
 _atom_site_type_symbol
 _atom_site_label
 _atom_site_symmetry_multiplicity
 _atom_site_fract_x
 _atom_site_fract_y
 _atom_site_fract_z
 _atom_site_occupancy
  U  U0  1  0.53504800  0.80713900  0.10675500  1
  U  U1  1  0.03504800  0.19286100  0.39324500  1
  U  U2  1  0.46495200  0.19286100  0.89324500  1
  U  U3  1  0.96495200  0.80713900  0.60675500  1
  U  U4  1  0.50654700  0.59463000  0.71003000  1
  U  U5  1  0.00654700  0.40537000  0.78997000  1
  U  U6  1  0.49345300  0.40537000  0.28997000  1
  U  U7  1  0.99345300  0.59463000  0.21003000  1
  U  U8  1  0.50000000  0.00000000  0.50000000  1
  U  U9  1  0.00000000  0.00000000  0.00000000  1
  Pb  Pb0  1  0.60298800  0.74648900  0.40100400  1
  Pb  Pb1  1  0.10298800  0.25351100  0.09899600  1
  Pb  Pb2  1  0.39701200  0.25351100  0.59899600  1
  Pb  Pb3  1  0.89701200  0.74648900  0.90100400  1
  O  O0  1  0.53742600  0.83996900  0.21855300  1
  O  O1  1  0.03742600  0.16003100  0.28144700  1
  O  O2  1  0.46257400  0.16003100  0.78144700  1
  O  O3  1  0.96257400  0.83996900  0.71855300  1
  O  O4  1  0.57834400  0.77439800  0.99818600  1
  O  O5  1  0.07834400  0.22560200  0.50181400  1
  O  O6  1  0.42165600  0.22560200  0.00181400  1
  O  O7  1  0.92165600  0.77439800  0.49818600  1
  O  O8  1  0.51469100  0.59276100  0.83726000  1
  O  O9  1  0.01469100  0.40723900  0.66274000  1
  O  O10  1  0.48530900  0.40723900  0.16274000  1
  O  O11  1  0.98530900  0.59276100  0.33726000  1
  O  O12  1  0.52691500  0.60574900  0.57702600  1
  O  O13  1  0.02691500  0.39425100  0.92297400  1
  O  O14  1  0.47308500  0.39425100  0.42297400  1
  O  O15  1  0.97308500  0.60574900  0.07702600  1
  O  O16  1  0.52077400  0.92298800  0.40831600  1
  O  O17  1  0.02077400  0.07701200  0.09168400  1
  O  O18  1  0.47922600  0.07701200  0.59168400  1
  O  O19  1  0.97922600  0.92298800  0.90831600  1
  O  O20  1  0.60547500  0.80766300  0.62223400  1
  O  O21  1  0.10547500  0.19233700  0.87776600  1
  O  O22  1  0.39452500  0.19233700  0.37776600  1
  O  O23  1  0.89452500  0.80766300  0.12223400  1
  O  O24  1  0.83480800  0.59539100  0.71470300  1
  O  O25  1  0.33480800  0.40460900  0.78529700  1
  O  O26  1  0.16519200  0.40460900  0.28529700  1
  O  O27  1  0.66519200  0.59539100  0.21470300  1
  O  O28  1  0.71314200  0.32681900  0.82743000  1
  O  O29  1  0.21314200  0.67318100  0.67257000  1
  O  O30  1  0.28685800  0.67318100  0.17257000  1
  O  O31  1  0.78685800  0.32681900  0.32743000  1
  O  O32  1  0.68971400  0.02890700  0.98739800  1
  O  O33  1  0.18971400  0.97109300  0.51260200  1
  O  O34  1  0.31028600  0.97109300  0.01260200  1
  O  O35  1  0.81028600  0.02890700  0.48739800  1
  O  O36  1  0.89799400  0.76197500  0.34921300  1
  O  O37  1  0.39799400  0.23802500  0.15078700  1
  O  O38  1  0.10200600  0.23802500  0.65078700  1
  O  O39  1  0.60200600  0.76197500  0.84921300  1
  O  O40  1  0.83642600  0.34536000  0.09164600  1
  O  O41  1  0.33642600  0.65464000  0.40835400  1
  O  O42  1  0.16357400  0.65464000  0.90835400  1
  O  O43  1  0.66357400  0.34536000  0.59164600  1
loop_
_geom_bond_atom_site_label_1
_geom_bond_atom_site_label_2
_geom_bond_distance
_geom_bond_site_symmetry_2
O0 U0 1.897092 1_555
O0 Pb0 2.385693 1_555
O1 U1 1.897092 1_555
O1 Pb1 2.385693 1_555
O2 U2 1.897092 1_555
O2 Pb2 2.385693 1_555
O3 U3 1.897092 1_555
O3 Pb3 2.385693 1_555
O4 U0 1.872381 1_556
O5 U1 1.872381 1_555
O6 U2 1.872381 1_554
O7 U3 1.872381 1_555
O8 U4 1.889913 1_555
O9 U5 1.889913 1_555
O10 U6 1.889913 1_555
O11 U7 1.889913 1_555
O12 U4 1.927122 1_555
O12 Pb0 2.305968 1_555
O13 U5 1.927122 1_555
O13 Pb1 2.305968 1_556
O14 U6 1.927122 1_555
O14 Pb2 2.305968 1_555
O15 U7 1.927122 1_555
O15 Pb3 2.305968 1_554
O16 U8 1.991835 1_565
O16 Pb0 2.169566 1_555
O17 U9 1.991835 1_555
O17 Pb1 2.169566 1_555
O18 U8 1.991835 1_555
O18 Pb2 2.169566 1_555
O19 U9 1.991835 1_666
O19 Pb3 2.169566 1_555
O20 U8 2.122255 1_565
O20 U4 2.194803 1_555
O20 U3 2.469386 1_555
O21 U9 2.122255 1_556
O21 U5 2.194803 1_555
O21 U2 2.469386 1_555
O22 U8 2.122255 1_555
O22 U6 2.194803 1_555
O22 U1 2.469386 1_555
O23 U9 2.122255 1_665
O23 U7 2.194803 1_555
O23 U0 2.469386 1_555
O24 U5 2.201948 1_655
O24 U4 2.246012 1_555
O24 U3 2.281274 1_555
O25 U4 2.201948 1_555
O25 U5 2.246012 1_555
O25 U2 2.281274 1_555
O26 U7 2.201948 1_455
O26 U6 2.246012 1_555
O26 U1 2.281274 1_555
O27 U6 2.201948 1_555
O27 U7 2.246012 1_555
O27 U0 2.281274 1_555
O28 U5 2.150592 1_655
O28 U2 2.152334 1_555
O29 U4 2.150592 1_555
O29 U3 2.152334 1_455
O30 U7 2.150592 1_455
O30 U0 2.152334 1_555
O31 U6 2.150592 1_555
O31 U1 2.152334 1_655
O32 U9 2.140713 1_656
O32 U2 2.260939 1_555
O32 U0 2.455829 1_546
O33 U8 2.140713 1_565
O33 U3 2.260939 1_455
O33 U1 2.455829 1_565
O34 U9 2.140713 1_565
O34 U0 2.260939 1_555
O34 U2 2.455829 1_564
O35 U8 2.140713 1_555
O35 U1 2.260939 1_655
O35 U3 2.455829 1_545
O36 Pb0 2.134089 1_555
O37 Pb1 2.134089 1_555
O38 Pb2 2.134089 1_555
O39 Pb3 2.134089 1_555
O40 Pb1 2.081958 1_655
O41 Pb0 2.081958 1_555
O42 Pb3 2.081958 1_455
O43 Pb2 2.081958 1_555
