# generated using pymatgen
data_Tm5(SiSb)2
_symmetry_space_group_name_H-M   'P 1'
_cell_length_a   7.72634900
_cell_length_b   7.74744043
_cell_length_c   8.37570004
_cell_angle_alpha   90.00002937
_cell_angle_beta   117.50826623
_cell_angle_gamma   90.00002863
_symmetry_Int_Tables_number   1
_chemical_formula_structural   Tm5(SiSb)2
_chemical_formula_sum   'Tm10 Si4 Sb4'
_cell_volume   444.68244370
_cell_formula_units_Z   2
loop_
 _symmetry_equiv_pos_site_id
 _symmetry_equiv_pos_as_xyz
  1  'x, y, z'
loop_
 _atom_site_type_symbol
 _atom_site_label
 _atom_site_symmetry_multiplicity
 _atom_site_fract_x
 _atom_site_fract_y
 _atom_site_fract_z
 _atom_site_occupancy
  Tm  Tm0  1  0.53929362  0.83553265  0.75080761  1
  Tm  Tm1  1  0.28905422  0.66432223  0.24948470  1
  Tm  Tm2  1  0.21094678  0.16432023  0.75051630  1
  Tm  Tm3  1  0.96070638  0.33553365  0.24919239  1
  Tm  Tm4  1  0.71094578  0.33567777  0.75051530  1
  Tm  Tm5  1  0.46070638  0.16446735  0.24919239  1
  Tm  Tm6  1  0.78905322  0.83567977  0.24948370  1
  Tm  Tm7  1  0.03929362  0.66446635  0.75080761  1
  Tm  Tm8  1  0.50000000  0.50000000  -0.00000000  1
  Tm  Tm9  1  0.00000000  0.00000000  -0.00000000  1
  Si  Si0  1  0.63448008  0.13306357  -0.00009979  1
  Si  Si1  1  0.13448008  0.36693743  -0.00009979  1
  Si  Si2  1  0.86551992  0.63306257  0.00009979  1
  Si  Si3  1  0.36551992  0.86693643  0.00009979  1
  Sb  Sb0  1  0.29427994  0.50022124  0.58936751  1
  Sb  Sb1  1  0.20572006  0.00022224  0.41063349  1
  Sb  Sb2  1  0.70572006  0.49977876  0.41063249  1
  Sb  Sb3  1  0.79427994  0.99977776  0.58936651  1
loop_
_geom_bond_atom_site_label_1
_geom_bond_atom_site_label_2
_geom_bond_distance
_geom_bond_site_symmetry_2
Si0 Tm3 2.883023 1_555
Si0 Tm4 2.883759 1_554
Si0 Tm0 2.964749 1_544
Si0 Tm6 2.966189 1_545
Si0 Tm5 2.968377 1_555
Si0 Tm2 2.969162 1_554
Si0 Tm9 3.006047 1_655
Si0 Tm8 3.026884 1_555
Si1 Tm5 2.883026 1_555
Si1 Tm2 2.883768 1_554
Si1 Tm7 2.964740 1_554
Si1 Tm1 2.966197 1_555
Si1 Tm3 2.968377 1_455
Si1 Tm4 2.969171 1_454
Si1 Tm8 3.006043 1_555
Si1 Tm9 3.026890 1_555
Si2 Tm0 2.883026 1_554
Si2 Tm6 2.883768 1_555
Si2 Tm3 2.964740 1_555
Si2 Tm4 2.966197 1_554
Si2 Tm7 2.968377 1_654
Si2 Tm1 2.969171 1_655
Si2 Tm8 3.006043 1_555
Si2 Tm9 3.026890 1_665
Si3 Tm7 2.883023 1_554
Si3 Tm1 2.883759 1_555
Si3 Tm5 2.964749 1_565
Si3 Tm2 2.966189 1_564
Si3 Tm0 2.968377 1_554
Si3 Tm6 2.969162 1_555
Si3 Tm9 3.006047 1_565
Si3 Tm8 3.026884 1_555
Sb0 Tm8 3.050498 1_556
Sb0 Tm3 3.099199 1_455
Sb0 Tm1 3.100942 1_555
Sb0 Tm7 3.128857 1_555
Sb0 Tm0 3.129866 1_555
Sb0 Tm4 3.130002 1_555
Sb0 Tm2 3.132326 1_555
Sb1 Tm9 3.050506 1_555
Sb1 Tm0 3.099203 1_545
Sb1 Tm2 3.100928 1_555
Sb1 Tm5 3.128862 1_555
Sb1 Tm3 3.129870 1_455
Sb1 Tm6 3.130003 1_445
Sb1 Tm1 3.132322 1_545
Sb2 Tm8 3.050498 1_555
Sb2 Tm7 3.099199 1_655
Sb2 Tm4 3.100942 1_555
Sb2 Tm3 3.128857 1_555
Sb2 Tm5 3.129866 1_555
Sb2 Tm1 3.130002 1_555
Sb2 Tm6 3.132326 1_555
Sb3 Tm9 3.050506 1_666
Sb3 Tm5 3.099203 1_565
Sb3 Tm6 3.100928 1_555
Sb3 Tm0 3.128862 1_555
Sb3 Tm7 3.129870 1_655
Sb3 Tm2 3.130003 1_665
Sb3 Tm4 3.132322 1_565
