# generated using pymatgen
data_Cr8Fe3NiS16
_symmetry_space_group_name_H-M   'P 1'
_cell_length_a   12.11184443
_cell_length_b   12.11184443
_cell_length_c   12.11184485
_cell_angle_alpha   33.65556016
_cell_angle_beta   33.65556016
_cell_angle_gamma   33.65556429
_symmetry_Int_Tables_number   1
_chemical_formula_structural   Cr8Fe3NiS16
_chemical_formula_sum   'Cr8 Fe3 Ni1 S16'
_cell_volume   486.15587332
_cell_formula_units_Z   1
loop_
 _symmetry_equiv_pos_site_id
 _symmetry_equiv_pos_as_xyz
  1  'x, y, z'
loop_
 _atom_site_type_symbol
 _atom_site_label
 _atom_site_symmetry_multiplicity
 _atom_site_fract_x
 _atom_site_fract_y
 _atom_site_fract_z
 _atom_site_occupancy
  Cr  Cr0  1  0.74840100  0.74840100  0.74840100  1
  Cr  Cr1  1  0.25040100  0.25040100  0.25040100  1
  Cr  Cr2  1  0.99889100  0.50264500  0.50264500  1
  Cr  Cr3  1  0.49678900  0.00003700  0.00003700  1
  Cr  Cr4  1  0.50264500  0.99889100  0.50264500  1
  Cr  Cr5  1  0.00003700  0.49678900  0.00003700  1
  Cr  Cr6  1  0.50264500  0.50264500  0.99889100  1
  Cr  Cr7  1  0.00003700  0.00003700  0.49678900  1
  Fe  Fe0  1  0.56259600  0.56259600  0.56259600  1
  Fe  Fe1  1  0.43765600  0.43765600  0.43765600  1
  Fe  Fe2  1  0.93765600  0.93765600  0.93765600  1
  Ni  Ni0  1  0.06228400  0.06228400  0.06228400  1
  S  S0  1  0.12776300  0.12776300  0.12776300  1
  S  S1  1  0.62939200  0.62939200  0.62939200  1
  S  S2  1  0.38834400  0.86704700  0.86704700  1
  S  S3  1  0.89501200  0.36263600  0.36263600  1
  S  S4  1  0.86704700  0.38834400  0.86704700  1
  S  S5  1  0.36263600  0.89501200  0.36263600  1
  S  S6  1  0.86704700  0.86704700  0.38834400  1
  S  S7  1  0.36263600  0.36263600  0.89501200  1
  S  S8  1  0.37141400  0.37141400  0.37141400  1
  S  S9  1  0.87029200  0.87029200  0.87029200  1
  S  S10  1  0.10324900  0.63724100  0.63724100  1
  S  S11  1  0.60523800  0.13770500  0.13770500  1
  S  S12  1  0.63724100  0.10324900  0.63724100  1
  S  S13  1  0.13770500  0.60523900  0.13770500  1
  S  S14  1  0.63724100  0.63724100  0.10324900  1
  S  S15  1  0.13770500  0.13770500  0.60523800  1
loop_
_geom_bond_atom_site_label_1
_geom_bond_atom_site_label_2
_geom_bond_distance
_geom_bond_site_symmetry_2
Cr0 S2 2.391713 1_555
Cr0 S4 2.391713 1_555
Cr0 S6 2.391713 1_555
Cr0 S12 2.418360 1_565
Cr0 S10 2.418360 1_655
Cr0 S14 2.418360 1_556
Cr1 S11 2.401367 1_555
Cr1 S15 2.401367 1_555
Cr1 S13 2.401377 1_555
Cr1 S3 2.412046 1_455
Cr1 S5 2.412046 1_545
Cr1 S7 2.412046 1_554
Cr2 S4 2.391948 1_555
Cr2 S6 2.391948 1_555
Cr2 S8 2.395478 1_655
Cr2 S1 2.406312 1_555
Cr2 S13 2.422965 1_655
Cr2 S15 2.422970 1_655
Cr3 S12 2.390897 1_554
Cr3 S14 2.390897 1_545
Cr3 S0 2.392875 1_555
Cr3 S5 2.409701 1_545
Cr3 S7 2.409701 1_554
Cr3 S9 2.417716 1_544
Cr4 S2 2.391948 1_555
Cr4 S6 2.391948 1_555
Cr4 S8 2.395478 1_565
Cr4 S1 2.406312 1_555
Cr4 S11 2.422970 1_565
Cr4 S15 2.422970 1_565
Cr5 S10 2.390897 1_554
Cr5 S14 2.390897 1_455
Cr5 S0 2.392875 1_555
Cr5 S3 2.409701 1_455
Cr5 S7 2.409701 1_554
Cr5 S9 2.417716 1_454
Cr6 S4 2.391948 1_555
Cr6 S2 2.391948 1_555
Cr6 S8 2.395478 1_556
Cr6 S1 2.406312 1_555
Cr6 S13 2.422965 1_556
Cr6 S11 2.422970 1_556
Cr7 S10 2.390897 1_545
Cr7 S12 2.390897 1_455
Cr7 S0 2.392875 1_555
Cr7 S5 2.409701 1_545
Cr7 S3 2.409701 1_455
Cr7 S9 2.417716 1_445
Fe0 S1 2.287447 1_555
Fe0 S7 2.289059 1_555
Fe0 S3 2.289059 1_555
Fe0 S5 2.289059 1_555
Fe1 S8 2.268475 1_555
Fe1 S14 2.284906 1_555
Fe1 S10 2.284907 1_555
Fe1 S12 2.284907 1_555
Fe2 S15 2.290083 1_665
Fe2 S11 2.290083 1_566
Fe2 S13 2.290083 1_656
Fe2 S9 2.306899 1_555
Ni0 S6 2.235020 1_445
Ni0 S2 2.235020 1_544
Ni0 S4 2.235020 1_454
Ni0 S0 2.242346 1_555
