# generated using pymatgen
data_AlPt2
_symmetry_space_group_name_H-M   'P 1'
_cell_length_a   4.07676199
_cell_length_b   5.41251351
_cell_length_c   7.94356012
_cell_angle_alpha   90.00000000
_cell_angle_beta   90.00000000
_cell_angle_gamma   90.00000000
_symmetry_Int_Tables_number   1
_chemical_formula_structural   AlPt2
_chemical_formula_sum   'Al4 Pt8'
_cell_volume   175.27885895
_cell_formula_units_Z   4
loop_
 _symmetry_equiv_pos_site_id
 _symmetry_equiv_pos_as_xyz
  1  'x, y, z'
loop_
 _atom_site_type_symbol
 _atom_site_label
 _atom_site_symmetry_multiplicity
 _atom_site_fract_x
 _atom_site_fract_y
 _atom_site_fract_z
 _atom_site_occupancy
  Al  Al0  1  0.75000000  0.31190387  0.39690183  1
  Al  Al1  1  0.25000000  0.68809613  0.60309817  1
  Al  Al2  1  0.75000000  0.81190387  0.10309817  1
  Al  Al3  1  0.25000000  0.18809613  0.89690183  1
  Pt  Pt0  1  0.75000000  0.95454008  0.79055940  1
  Pt  Pt1  1  0.25000000  0.04545992  0.20944060  1
  Pt  Pt2  1  0.75000000  0.45454008  0.70944060  1
  Pt  Pt3  1  0.25000000  0.54545992  0.29055940  1
  Pt  Pt4  1  0.75000000  0.84120773  0.43086148  1
  Pt  Pt5  1  0.25000000  0.15879327  0.56913852  1
  Pt  Pt6  1  0.75000000  0.34120773  0.06913852  1
  Pt  Pt7  1  0.25000000  0.65879227  0.93086148  1
loop_
_geom_bond_atom_site_label_1
_geom_bond_atom_site_label_2
_geom_bond_distance
_geom_bond_site_symmetry_2
Al0 Pt3 2.542949 1_555
Al0 Pt3 2.542949 1_655
Al0 Pt4 2.561891 1_545
Al0 Pt5 2.591073 1_555
Al0 Pt5 2.591073 1_655
Al0 Pt2 2.599936 1_555
Al0 Pt6 2.608434 1_555
Al0 Pt4 2.877537 1_555
Al0 Pt1 2.907265 1_555
Al0 Pt1 2.907265 1_655
Al1 Pt2 2.542949 1_555
Al1 Pt2 2.542949 1_455
Al1 Pt5 2.561897 1_565
Al1 Pt4 2.591075 1_455
Al1 Pt4 2.591075 1_555
Al1 Pt3 2.599936 1_555
Al1 Pt7 2.608434 1_555
Al1 Pt5 2.877531 1_555
Al1 Pt0 2.907265 1_555
Al1 Pt0 2.907265 1_455
Al2 Pt1 2.542949 1_565
Al2 Pt1 2.542949 1_665
Al2 Pt6 2.561891 1_555
Al2 Pt7 2.591075 1_554
Al2 Pt7 2.591075 1_654
Al2 Pt0 2.599936 1_554
Al2 Pt4 2.608434 1_555
Al2 Pt6 2.877537 1_565
Al2 Pt3 2.907265 1_555
Al2 Pt3 2.907265 1_655
Al3 Pt0 2.542949 1_545
Al3 Pt0 2.542949 1_445
Al3 Pt7 2.561891 1_555
Al3 Pt6 2.591075 1_456
Al3 Pt6 2.591075 1_556
Al3 Pt1 2.599936 1_556
Al3 Pt5 2.608434 1_555
Al3 Pt7 2.877537 1_545
Al3 Pt2 2.907265 1_455
Al3 Pt2 2.907265 1_555
