# generated using pymatgen
data_Sr3TaHO6
_symmetry_space_group_name_H-M   'P 1'
_cell_length_a   6.05399511
_cell_length_b   6.05399511
_cell_length_c   6.25969646
_cell_angle_alpha   117.08201015
_cell_angle_beta   117.08201015
_cell_angle_gamma   91.16456280
_symmetry_Int_Tables_number   1
_chemical_formula_structural   Sr3TaHO6
_chemical_formula_sum   'Sr3 Ta1 H1 O6'
_cell_volume   174.21501258
_cell_formula_units_Z   1
loop_
 _symmetry_equiv_pos_site_id
 _symmetry_equiv_pos_as_xyz
  1  'x, y, z'
loop_
 _atom_site_type_symbol
 _atom_site_label
 _atom_site_symmetry_multiplicity
 _atom_site_fract_x
 _atom_site_fract_y
 _atom_site_fract_z
 _atom_site_occupancy
  Sr  Sr0  1  0.34067900  0.78303400  0.62510300  1
  Sr  Sr1  1  0.78303400  0.34067900  0.62510300  1
  Sr  Sr2  1  0.00620900  0.00620900  0.98639800  1
  Ta  Ta0  1  0.49783500  0.49783500  0.01724200  1
  H  H0  1  0.21230200  0.21230200  0.53356900  1
  O  O0  1  0.18575800  0.18575800  0.79996700  1
  O  O1  1  0.63001700  0.63001700  0.40510200  1
  O  O2  1  0.71915100  0.71915100  0.99682700  1
  O  O3  1  0.29824200  0.29824200  0.47725200  1
  O  O4  1  0.67656400  0.23026000  0.91674300  1
  O  O5  1  0.23026000  0.67656400  0.91674300  1
loop_
_geom_bond_atom_site_label_1
_geom_bond_atom_site_label_2
_geom_bond_distance
_geom_bond_site_symmetry_2
H0 O3 0.994315 1_555
O0 Ta0 2.040662 1_556
O0 Sr2 2.446835 1_555
O0 Sr0 2.572900 1_545
O0 Sr1 2.572900 1_455
O1 Ta0 1.900331 1_555
O1 Sr0 2.631302 1_555
O1 Sr1 2.631302 1_555
O1 Sr2 2.883045 1_665
O2 Ta0 1.961004 1_556
O2 Sr2 2.475546 1_665
O2 Sr0 2.610512 1_555
O2 Sr1 2.610512 1_555
O3 Sr2 2.381754 1_554
O3 Sr0 2.610738 1_555
O3 Sr1 2.610738 1_555
O4 Ta0 1.988404 1_556
O4 Sr2 2.422576 1_655
O4 Sr1 2.521934 1_555
O4 Sr0 2.587239 1_545
O5 Ta0 1.988404 1_556
O5 Sr2 2.422576 1_565
O5 Sr0 2.521934 1_555
O5 Sr1 2.587239 1_455
