# generated using pymatgen
data_ScZnPt
_symmetry_space_group_name_H-M   'P 1'
_cell_length_a   5.10265095
_cell_length_b   5.10265095
_cell_length_c   5.24095340
_cell_angle_alpha   90.00000000
_cell_angle_beta   90.00000000
_cell_angle_gamma   130.99710190
_symmetry_Int_Tables_number   1
_chemical_formula_structural   ScZnPt
_chemical_formula_sum   'Sc2 Zn2 Pt2'
_cell_volume   102.99140412
_cell_formula_units_Z   2
loop_
 _symmetry_equiv_pos_site_id
 _symmetry_equiv_pos_as_xyz
  1  'x, y, z'
loop_
 _atom_site_type_symbol
 _atom_site_label
 _atom_site_symmetry_multiplicity
 _atom_site_fract_x
 _atom_site_fract_y
 _atom_site_fract_z
 _atom_site_occupancy
  Sc  Sc0  1  0.70993056  0.29006944  0.25000000  1
  Sc  Sc1  1  0.29006944  0.70993056  0.75000000  1
  Zn  Zn0  1  0.00000000  -0.00000000  0.50000000  1
  Zn  Zn1  1  0.00000000  -0.00000000  -0.00000000  1
  Pt  Pt0  1  0.40124826  0.59875174  0.25000000  1
  Pt  Pt1  1  0.59875174  0.40124826  0.75000000  1
loop_
_geom_bond_atom_site_label_1
_geom_bond_atom_site_label_2
_geom_bond_distance
_geom_bond_site_symmetry_2
Sc0 Zn0 2.995434 1_655
Sc0 Zn1 2.995434 1_655
Sc0 Zn0 3.161536 1_555
Sc0 Zn1 3.161536 1_555
Sc0 Zn1 3.161536 1_665
Sc0 Zn0 3.161536 1_665
Sc0 Sc1 3.449467 1_655
Sc0 Sc1 3.449467 1_654
Sc0 Sc1 3.449467 1_545
Sc0 Sc1 3.449467 1_544
Sc1 Zn1 2.995434 1_566
Sc1 Zn0 2.995434 1_565
Sc1 Zn1 3.161536 1_666
Sc1 Zn0 3.161536 1_665
Sc1 Zn0 3.161536 1_555
Sc1 Zn1 3.161536 1_556
Zn0 Zn1 2.620477 1_555
Zn0 Zn1 2.620477 1_556
Pt0 Zn1 2.652506 1_555
Pt0 Zn1 2.652506 1_665
Pt0 Zn0 2.652506 1_555
Pt0 Zn0 2.652506 1_665
Pt0 Sc0 2.763068 1_565
Pt0 Sc0 2.763068 1_455
Pt0 Sc1 2.816529 1_554
Pt0 Sc1 2.816529 1_555
Pt0 Sc0 2.866523 1_555
Pt1 Zn1 2.652506 1_556
Pt1 Zn0 2.652506 1_555
Pt1 Zn1 2.652506 1_666
Pt1 Zn0 2.652506 1_665
Pt1 Sc1 2.763068 1_655
Pt1 Sc1 2.763068 1_545
Pt1 Sc0 2.816529 1_555
Pt1 Sc0 2.816529 1_556
Pt1 Sc1 2.866523 1_555
