# generated using pymatgen
data_Mn2Co9N8
_symmetry_space_group_name_H-M   'P 1'
_cell_length_a   7.32602863
_cell_length_b   3.90387751
_cell_length_c   6.51945208
_cell_angle_alpha   89.99999720
_cell_angle_beta   71.67411730
_cell_angle_gamma   74.54754546
_symmetry_Int_Tables_number   1
_chemical_formula_structural   Mn2Co9N8
_chemical_formula_sum   'Mn2 Co9 N8'
_cell_volume   169.88463363
_cell_formula_units_Z   1
loop_
 _symmetry_equiv_pos_site_id
 _symmetry_equiv_pos_as_xyz
  1  'x, y, z'
loop_
 _atom_site_type_symbol
 _atom_site_label
 _atom_site_symmetry_multiplicity
 _atom_site_fract_x
 _atom_site_fract_y
 _atom_site_fract_z
 _atom_site_occupancy
  Mn  Mn0  1  0.44082400  0.77958800  0.80609900  1
  Mn  Mn1  1  0.55917600  0.22041200  0.19390100  1
  Co  Co0  1  0.00000000  0.50000000  0.50000000  1
  Co  Co1  1  0.03481100  0.98259500  0.78704300  1
  Co  Co2  1  0.96518900  0.01740500  0.21295700  1
  Co  Co3  1  0.65651800  0.67174100  0.41230000  1
  Co  Co4  1  0.34348200  0.32825900  0.58770000  1
  Co  Co5  1  0.80570400  0.59714900  0.97568700  1
  Co  Co6  1  0.19429600  0.40285100  0.02431300  1
  Co  Co7  1  0.29777800  0.85111100  0.30868300  1
  Co  Co8  1  0.70222200  0.14888900  0.69131700  1
  N  N0  1  0.23268100  0.88365900  0.05535500  1
  N  N1  1  0.76731900  0.11634100  0.94464500  1
  N  N2  1  0.35755700  0.82122100  0.57905500  1
  N  N3  1  0.64244300  0.17877900  0.42094500  1
  N  N4  1  0.71694800  0.64152600  0.70506500  1
  N  N5  1  0.28305200  0.35847400  0.29493500  1
  N  N6  1  0.92039000  0.53980500  0.23027300  1
  N  N7  1  0.07961000  0.46019500  0.76972700  1
loop_
_geom_bond_atom_site_label_1
_geom_bond_atom_site_label_2
_geom_bond_distance
_geom_bond_site_symmetry_2
Mn0 N2 1.761963 1_555
Mn0 N0 1.800717 1_556
Mn0 N4 1.843248 1_555
Mn1 N3 1.761963 1_555
Mn1 N1 1.800717 1_554
Mn1 N5 1.843248 1_555
Co0 N4 2.009666 1_455
Co0 N5 2.009666 1_555
Co0 N6 2.013246 1_455
Co0 N7 2.013246 1_555
Co1 N1 1.832256 1_465
Co1 N7 1.974733 1_565
Co1 N7 1.974737 1_555
Co1 N2 2.239696 1_555
Co2 N0 1.832256 1_645
Co2 N6 1.974733 1_545
Co2 N6 1.974737 1_555
Co2 N3 2.239696 1_555
Co3 N6 1.854022 1_555
Co3 N3 1.954343 1_555
Co3 N3 1.954347 1_565
Co3 N2 2.034946 1_555
Co3 N4 2.087213 1_555
Co4 N7 1.854022 1_555
Co4 N2 1.954343 1_555
Co4 N2 1.954347 1_545
Co4 N3 2.034946 1_555
Co4 N5 2.087213 1_555
Co5 N7 1.961983 1_655
Co5 N1 1.990042 1_565
Co5 N1 1.990046 1_555
Co5 N4 2.055961 1_555
Co5 N6 2.070640 1_556
Co6 N6 1.961983 1_455
Co6 N0 1.990042 1_545
Co6 N0 1.990046 1_555
Co6 N5 2.055961 1_555
Co6 N7 2.070640 1_554
Co7 N0 1.853169 1_555
Co7 N2 1.941815 1_555
Co7 N5 1.958313 1_555
Co7 N5 1.958313 1_565
Co8 N1 1.853169 1_555
Co8 N3 1.941815 1_555
Co8 N4 1.958313 1_555
Co8 N4 1.958313 1_545
