# generated using pymatgen
data_PrPIr
_symmetry_space_group_name_H-M   'P 1'
_cell_length_a   4.13850063
_cell_length_b   4.13850136
_cell_length_c   7.66853627
_cell_angle_alpha   105.65454066
_cell_angle_beta   105.65454754
_cell_angle_gamma   89.99999451
_symmetry_Int_Tables_number   1
_chemical_formula_structural   PrPIr
_chemical_formula_sum   'Pr2 P2 Ir2'
_cell_volume   121.40127082
_cell_formula_units_Z   2
loop_
 _symmetry_equiv_pos_site_id
 _symmetry_equiv_pos_as_xyz
  1  'x, y, z'
loop_
 _atom_site_type_symbol
 _atom_site_label
 _atom_site_symmetry_multiplicity
 _atom_site_fract_x
 _atom_site_fract_y
 _atom_site_fract_z
 _atom_site_occupancy
  Pr  Pr0  1  0.75085519  0.25085519  0.50171039  1
  Pr  Pr1  1  0.00085519  0.00085519  0.00171039  1
  P  P0  1  0.33016099  0.83016099  0.66032197  1
  P  P1  1  0.58016099  0.58016099  0.16032197  1
  Ir  Ir0  1  0.41200382  0.41200382  0.82400664  1
  Ir  Ir1  1  0.16200382  0.66200382  0.32400664  1
loop_
_geom_bond_atom_site_label_1
_geom_bond_atom_site_label_2
_geom_bond_distance
_geom_bond_site_symmetry_2
P0 Pr0 3.134898 1_465
P0 Pr0 3.134898 1_455
P0 Pr0 3.134898 1_555
P0 Pr0 3.134898 1_565
P0 Pr1 3.183928 1_666
P0 Pr1 3.183929 1_566
P1 Pr1 3.134898 1_565
P1 Pr1 3.134898 1_555
P1 Pr1 3.134898 1_655
P1 Pr1 3.134898 1_665
P1 Pr0 3.183929 1_565
P1 Pr0 3.183929 1_555
Ir0 P0 2.372326 1_555
Ir0 P0 2.372329 1_545
Ir0 P1 2.383877 1_556
Ir0 Pr0 3.082330 1_555
Ir0 Pr0 3.082332 1_455
Ir0 Pr1 3.185934 1_666
Ir0 Pr1 3.185937 1_656
Ir0 Pr1 3.185937 1_566
Ir0 Pr1 3.185940 1_556
Ir1 P1 2.372326 1_555
Ir1 P1 2.372329 1_455
Ir1 P0 2.383877 1_555
Ir1 Pr1 3.082330 1_565
Ir1 Pr1 3.082333 1_555
Ir1 Pr0 3.185934 1_565
Ir1 Pr0 3.185937 1_555
Ir1 Pr0 3.185937 1_465
Ir1 Pr0 3.185940 1_455
