# generated using pymatgen
data_Li9Mn2Co5O16
_symmetry_space_group_name_H-M   'P 1'
_cell_length_a   5.07178200
_cell_length_b   5.12657466
_cell_length_c   11.58060910
_cell_angle_alpha   90.57541330
_cell_angle_beta   90.75040331
_cell_angle_gamma   109.46062075
_symmetry_Int_Tables_number   1
_chemical_formula_structural   Li9Mn2Co5O16
_chemical_formula_sum   'Li9 Mn2 Co5 O16'
_cell_volume   283.84643830
_cell_formula_units_Z   1
loop_
 _symmetry_equiv_pos_site_id
 _symmetry_equiv_pos_as_xyz
  1  'x, y, z'
loop_
 _atom_site_type_symbol
 _atom_site_label
 _atom_site_symmetry_multiplicity
 _atom_site_fract_x
 _atom_site_fract_y
 _atom_site_fract_z
 _atom_site_occupancy
  Li  Li0  1  0.00735600  0.50661100  0.12152900  1
  Li  Li1  1  0.49849000  0.49715100  0.24278900  1
  Li  Li2  1  0.00159600  0.50148800  0.37063700  1
  Li  Li3  1  0.50217000  0.50021200  0.50101500  1
  Li  Li4  1  0.00014800  0.49943300  0.62756000  1
  Li  Li5  1  0.50008600  0.50091100  0.75128900  1
  Li  Li6  1  0.99427500  0.49710500  0.87710700  1
  Li  Li7  1  0.49696100  0.50192400  0.00511400  1
  Li  Li8  1  0.49976100  0.00013100  0.12594700  1
  Mn  Mn0  1  0.99733300  0.99414100  0.00603400  1
  Mn  Mn1  1  0.50361100  0.00387800  0.36741700  1
  Co  Co0  1  0.00004100  0.99980000  0.24862600  1
  Co  Co1  1  0.00389100  0.00589500  0.49950100  1
  Co  Co2  1  0.50421400  0.00413200  0.62779700  1
  Co  Co3  1  0.99911400  0.99510400  0.75096800  1
  Co  Co4  1  0.49772000  0.99665000  0.88298700  1
  O  O0  1  0.23379500  0.76980800  0.99710500  1
  O  O1  1  0.77789400  0.77107800  0.12480400  1
  O  O2  1  0.24935200  0.77739200  0.25741300  1
  O  O3  1  0.75741300  0.78566900  0.37030600  1
  O  O4  1  0.27191800  0.78083300  0.49762700  1
  O  O5  1  0.76353300  0.76729300  0.62552500  1
  O  O6  1  0.26008300  0.77092600  0.75085400  1
  O  O7  1  0.75778300  0.76496300  0.88036200  1
  O  O8  1  0.75152100  0.22148300  0.25711600  1
  O  O9  1  0.25722000  0.22338800  0.37042900  1
  O  O10  1  0.74272200  0.22797200  0.49421800  1
  O  O11  1  0.23849400  0.23448600  0.62393600  1
  O  O12  1  0.73776600  0.23074900  0.74527000  1
  O  O13  1  0.22734600  0.22302800  0.87946100  1
  O  O14  1  0.75079700  0.22148500  0.99291800  1
  O  O15  1  0.21559600  0.22488100  0.12633700  1
loop_
_geom_bond_atom_site_label_1
_geom_bond_atom_site_label_2
_geom_bond_distance
_geom_bond_site_symmetry_2
Li0 O15 2.054522 1_555
Li0 O1 2.060468 1_455
Li0 O0 2.065338 1_554
Li0 O2 2.163327 1_555
Li0 O14 2.164772 1_454
Li0 O8 2.263055 1_455
Li1 O15 2.098249 1_555
Li1 O9 2.143999 1_555
Li1 O1 2.147170 1_555
Li1 O3 2.168888 1_555
Li1 O8 2.208901 1_555
Li1 O2 2.213516 1_555
Li2 O8 2.025536 1_455
Li2 O2 2.048167 1_555
Li2 O10 2.144994 1_455
Li2 O4 2.165619 1_555
Li2 O3 2.204186 1_455
Li2 O9 2.223753 1_555
Li3 O5 2.100450 1_555
Li3 O11 2.132005 1_555
Li3 O4 2.134072 1_555
Li3 O9 2.139456 1_555
Li3 O10 2.139486 1_555
Li3 O3 2.223103 1_555
Li4 O12 2.095290 1_455
Li4 O6 2.098099 1_555
Li4 O11 2.098138 1_555
Li4 O5 2.103412 1_455
Li4 O10 2.172370 1_455
Li4 O4 2.240120 1_555
Li5 O12 2.118717 1_555
Li5 O11 2.121726 1_555
Li5 O7 2.122318 1_555
Li5 O6 2.126162 1_555
Li5 O5 2.155574 1_555
Li5 O13 2.220200 1_555
Li6 O0 2.036292 1_655
Li6 O14 2.058874 1_555
Li6 O7 2.103173 1_555
Li6 O13 2.116349 1_655
Li6 O12 2.147198 1_555
Li6 O6 2.181184 1_655
Li7 O1 2.110728 1_555
Li7 O7 2.134496 1_554
Li7 O13 2.152887 1_554
Li7 O15 2.183207 1_555
Li7 O0 2.212869 1_554
Li7 O14 2.231203 1_554
Li8 O8 2.043193 1_555
Li8 O0 2.071396 1_544
Li8 O2 2.086621 1_545
Li8 O14 2.099019 1_554
Li8 O1 2.114906 1_545
Li8 O15 2.123968 1_555
Mn0 O15 1.902530 1_665
Mn0 O1 1.913588 1_555
Mn0 O0 1.921325 1_654
Mn0 O14 1.978511 1_564
Mn0 O7 1.985639 1_554
Mn0 O13 2.013346 1_664
Mn1 O2 1.887730 1_545
Mn1 O8 1.895552 1_555
Mn1 O9 1.940765 1_555
Mn1 O3 1.966874 1_545
Mn1 O10 1.984427 1_555
Mn1 O4 2.036633 1_545
Co0 O1 1.934971 1_455
Co0 O15 1.940374 1_565
Co0 O8 1.960975 1_465
Co0 O2 1.966934 1_555
Co0 O3 1.970121 1_455
Co0 O9 1.981915 1_565
Co1 O11 1.964109 1_555
Co1 O3 2.013087 1_445
Co1 O10 2.014589 1_455
Co1 O5 2.049668 1_445
Co1 O4 2.055473 1_545
Co1 O9 2.063359 1_555
Co2 O12 1.900688 1_555
Co2 O4 1.997768 1_545
Co2 O6 2.021719 1_545
Co2 O5 2.066152 1_545
Co2 O11 2.067061 1_555
Co2 O10 2.081544 1_555
Co3 O5 1.972962 1_555
Co3 O13 1.984485 1_665
Co3 O6 2.021448 1_655
Co3 O11 2.057784 1_665
Co3 O7 2.063212 1_555
Co3 O12 2.070498 1_565
Co4 O14 1.881144 1_565
Co4 O0 1.982586 1_555
Co4 O6 2.029771 1_555
Co4 O7 2.048321 1_555
Co4 O13 2.070945 1_565
Co4 O12 2.140512 1_565
