# generated using pymatgen
data_LiSi2(AgO)8
_symmetry_space_group_name_H-M   'P 1'
_cell_length_a   5.40147300
_cell_length_b   6.11764002
_cell_length_c   8.69323994
_cell_angle_alpha   93.35143649
_cell_angle_beta   90.00000000
_cell_angle_gamma   90.00000000
_symmetry_Int_Tables_number   1
_chemical_formula_structural   LiSi2(AgO)8
_chemical_formula_sum   'Li1 Si2 Ag8 O8'
_cell_volume   286.77045224
_cell_formula_units_Z   1
loop_
 _symmetry_equiv_pos_site_id
 _symmetry_equiv_pos_as_xyz
  1  'x, y, z'
loop_
 _atom_site_type_symbol
 _atom_site_label
 _atom_site_symmetry_multiplicity
 _atom_site_fract_x
 _atom_site_fract_y
 _atom_site_fract_z
 _atom_site_occupancy
  Li  Li0  1  0.27056700  0.25000000  0.75000000  1
  Si  Si0  1  0.77207900  0.25000000  0.25000000  1
  Si  Si1  1  0.24777400  0.75000000  0.75000000  1
  Ag  Ag0  1  0.27050700  0.05409400  0.43809700  1
  Ag  Ag1  1  0.75097900  0.63497200  0.01398200  1
  Ag  Ag2  1  0.75097900  0.86502800  0.48601800  1
  Ag  Ag3  1  0.71792000  0.42252900  0.61200300  1
  Ag  Ag4  1  0.71792000  0.07747100  0.88799700  1
  Ag  Ag5  1  0.31211500  0.56322200  0.40766100  1
  Ag  Ag6  1  0.27050700  0.44590600  0.06190300  1
  Ag  Ag7  1  0.31211500  0.93677800  0.09233900  1
  O  O0  1  0.41583000  0.52816900  0.78140100  1
  O  O1  1  0.94013700  0.27570500  0.41023800  1
  O  O2  1  0.07019300  0.80971400  0.90273100  1
  O  O3  1  0.60210700  0.47599100  0.23922300  1
  O  O4  1  0.94013700  0.22429500  0.08976200  1
  O  O5  1  0.41583000  0.97183100  0.71859900  1
  O  O6  1  0.07019300  0.69028600  0.59726900  1
  O  O7  1  0.60210700  0.02400900  0.26077700  1
loop_
_geom_bond_atom_site_label_1
_geom_bond_atom_site_label_2
_geom_bond_distance
_geom_bond_site_symmetry_2
Li0 O5 1.879299 1_545
Li0 O0 1.879299 1_555
Ag0 O1 2.262620 1_455
Ag0 O7 2.363265 1_555
Ag0 O5 2.638001 1_545
Ag1 O2 2.274194 1_654
Ag1 O3 2.376819 1_555
Ag1 O0 2.763628 1_554
Ag2 O6 2.274194 1_655
Ag2 O7 2.376819 1_565
Ag2 O5 2.763628 1_555
Ag3 O0 2.266613 1_555
Ag3 O1 2.267111 1_555
Ag3 O6 2.518876 1_655
Ag4 O5 2.266613 1_545
Ag4 O4 2.267111 1_556
Ag4 O2 2.518876 1_645
Ag5 O3 2.188851 1_555
Ag5 O6 2.208826 1_555
Ag5 O1 2.671316 1_455
Ag6 O4 2.262620 1_455
Ag6 O3 2.363265 1_555
Ag6 O0 2.638001 1_554
Ag7 O7 2.188851 1_565
Ag7 O2 2.208826 1_554
Ag7 O4 2.671316 1_465
O0 Si1 1.668386 1_555
O1 Si0 1.662396 1_555
O2 Si1 1.661223 1_555
O3 Si0 1.666800 1_555
O4 Si0 1.662396 1_555
O5 Si1 1.668386 1_555
O6 Si1 1.661223 1_555
O7 Si0 1.666800 1_555
