# generated using pymatgen
data_TiCdHg2
_symmetry_space_group_name_H-M   'P 1'
_cell_length_a   4.46838400
_cell_length_b   4.46838400
_cell_length_c   4.14725500
_cell_angle_alpha   90.00000000
_cell_angle_beta   90.00000000
_cell_angle_gamma   90.00000000
_symmetry_Int_Tables_number   1
_chemical_formula_structural   TiCdHg2
_chemical_formula_sum   'Ti1 Cd1 Hg2'
_cell_volume   82.80598270
_cell_formula_units_Z   1
loop_
 _symmetry_equiv_pos_site_id
 _symmetry_equiv_pos_as_xyz
  1  'x, y, z'
loop_
 _atom_site_type_symbol
 _atom_site_label
 _atom_site_symmetry_multiplicity
 _atom_site_fract_x
 _atom_site_fract_y
 _atom_site_fract_z
 _atom_site_occupancy
  Ti  Ti0  1  0.50000000  0.50000000  0.00000000  1
  Cd  Cd0  1  0.00000000  0.00000000  0.00000000  1
  Hg  Hg0  1  0.50000000  0.00000000  0.50000000  1
  Hg  Hg1  1  0.00000000  0.50000000  0.50000000  1
loop_
_geom_bond_atom_site_label_1
_geom_bond_atom_site_label_2
_geom_bond_distance
_geom_bond_site_symmetry_2
Cd0 Hg0 3.048204 1_555
Cd0 Hg0 3.048204 1_554
Cd0 Hg0 3.048204 1_455
Cd0 Hg1 3.048204 1_545
Cd0 Hg1 3.048204 1_554
Cd0 Hg0 3.048204 1_454
Cd0 Hg1 3.048204 1_555
Cd0 Hg1 3.048204 1_544
Cd0 Ti0 3.159625 1_455
Cd0 Ti0 3.159625 1_555
Cd0 Ti0 3.159625 1_545
Cd0 Ti0 3.159625 1_445
Hg0 Ti0 3.048204 1_545
Hg0 Ti0 3.048204 1_546
Hg0 Ti0 3.048204 1_556
Hg0 Ti0 3.048204 1_555
Hg1 Ti0 3.048204 1_455
Hg1 Ti0 3.048204 1_456
Hg1 Ti0 3.048204 1_556
Hg1 Ti0 3.048204 1_555
