# generated using pymatgen
data_BaCdSn
_symmetry_space_group_name_H-M   'P 1'
_cell_length_a   6.61149685
_cell_length_b   6.61149685
_cell_length_c   8.53680758
_cell_angle_alpha   50.08956269
_cell_angle_beta   50.08956269
_cell_angle_gamma   46.63648267
_symmetry_Int_Tables_number   1
_chemical_formula_structural   BaCdSn
_chemical_formula_sum   'Ba2 Cd2 Sn2'
_cell_volume   194.09802360
_cell_formula_units_Z   2
loop_
 _symmetry_equiv_pos_site_id
 _symmetry_equiv_pos_as_xyz
  1  'x, y, z'
loop_
 _atom_site_type_symbol
 _atom_site_label
 _atom_site_symmetry_multiplicity
 _atom_site_fract_x
 _atom_site_fract_y
 _atom_site_fract_z
 _atom_site_occupancy
  Ba  Ba0  1  0.54485019  0.54485019  0.70492822  1
  Ba  Ba1  1  0.45514981  0.45514981  0.29507178  1
  Cd  Cd0  1  0.15854701  0.15854701  0.27514357  1
  Cd  Cd1  1  0.84145299  0.84145299  0.72485643  1
  Sn  Sn0  1  0.83979088  0.83979088  0.09966851  1
  Sn  Sn1  1  0.16020912  0.16020912  0.90033149  1
loop_
_geom_bond_atom_site_label_1
_geom_bond_atom_site_label_2
_geom_bond_distance
_geom_bond_site_symmetry_2
Ba0 Cd1 3.520092 1_455
Ba0 Cd1 3.520092 1_545
Ba0 Sn0 3.560939 1_546
Ba0 Sn0 3.560939 1_456
Ba0 Sn0 3.696874 1_555
Ba0 Sn1 3.702842 1_555
Ba0 Cd0 3.713930 1_556
Ba0 Cd1 3.722479 1_555
Ba0 Sn1 3.854745 1_565
Ba0 Sn1 3.854745 1_655
Ba0 Cd0 3.890844 1_655
Ba0 Cd0 3.890844 1_565
Ba1 Cd0 3.520092 1_565
Ba1 Cd0 3.520092 1_655
Ba1 Sn1 3.560939 1_654
Ba1 Sn1 3.560939 1_564
Ba1 Sn1 3.696874 1_555
Ba1 Sn0 3.702842 1_555
Ba1 Cd1 3.713930 1_554
Ba1 Cd0 3.722479 1_555
Ba1 Sn0 3.854745 1_545
Ba1 Sn0 3.854745 1_455
Ba1 Cd1 3.890844 1_455
Ba1 Cd1 3.890844 1_545
Cd0 Cd1 2.984842 1_445
Cd0 Sn0 3.054516 1_455
Cd0 Sn0 3.054516 1_545
Cd0 Sn1 3.185630 1_554
Cd1 Sn1 3.054516 1_565
Cd1 Sn1 3.054516 1_655
Cd1 Sn0 3.185630 1_556
Sn0 Sn1 2.963555 1_664
