# generated using pymatgen
data_YH16C4N9O16
_symmetry_space_group_name_H-M   'P 1'
_cell_length_a   11.23744496
_cell_length_b   11.23744496
_cell_length_c   6.51862298
_cell_angle_alpha   85.38678283
_cell_angle_beta   85.38678283
_cell_angle_gamma   142.55075275
_symmetry_Int_Tables_number   1
_chemical_formula_structural   YH16C4N9O16
_chemical_formula_sum   'Y1 H16 C4 N9 O16'
_cell_volume   484.57296254
_cell_formula_units_Z   1
loop_
 _symmetry_equiv_pos_site_id
 _symmetry_equiv_pos_as_xyz
  1  'x, y, z'
loop_
 _atom_site_type_symbol
 _atom_site_label
 _atom_site_symmetry_multiplicity
 _atom_site_fract_x
 _atom_site_fract_y
 _atom_site_fract_z
 _atom_site_occupancy
  Y  Y0  1  0.99029600  0.99029600  0.01661000  1
  H  H0  1  0.75074800  0.57184300  0.01725500  1
  H  H1  1  0.57184300  0.75074800  0.01725500  1
  H  H2  1  0.00211100  0.22133500  0.26030900  1
  H  H3  1  0.22133500  0.00211100  0.26030900  1
  H  H4  1  0.18679000  0.38321000  0.04687900  1
  H  H5  1  0.38321000  0.18679000  0.04687900  1
  H  H6  1  0.69130400  0.35526800  0.83941500  1
  H  H7  1  0.35526800  0.69130400  0.83941500  1
  H  H8  1  0.59354700  0.38742900  0.73960500  1
  H  H9  1  0.38742900  0.59354700  0.73960500  1
  H  H10  1  0.69710000  0.56966600  0.25277900  1
  H  H11  1  0.56966600  0.69710000  0.25277900  1
  H  H12  1  0.87892400  0.94952600  0.49035300  1
  H  H13  1  0.94952600  0.87892400  0.49035300  1
  H  H14  1  0.85319200  0.19441100  0.97614900  1
  H  H15  1  0.19441100  0.85319200  0.97614900  1
  C  C0  1  0.88686000  0.13742400  0.68115700  1
  C  C1  1  0.13742400  0.88686000  0.68115700  1
  C  C2  1  0.82646000  0.25317400  0.52671300  1
  C  C3  1  0.25317400  0.82646000  0.52671300  1
  N  N0  1  0.84991000  0.19710400  0.81982600  1
  N  N1  1  0.19710400  0.84991000  0.81982600  1
  N  N2  1  0.80994900  0.26995100  0.72279300  1
  N  N3  1  0.26995100  0.80994900  0.72279300  1
  N  N4  1  0.87410600  0.17698600  0.48843600  1
  N  N5  1  0.17698600  0.87410600  0.48843600  1
  N  N6  1  0.78883200  0.31066700  0.36785600  1
  N  N7  1  0.31066700  0.78883200  0.36785600  1
  N  N8  1  0.40752200  0.40752200  0.60763500  1
  O  O0  1  0.92133400  0.05544700  0.72653800  1
  O  O1  1  0.05544700  0.92133400  0.72653800  1
  O  O2  1  0.73708200  0.37023800  0.42157200  1
  O  O3  1  0.37023800  0.73708200  0.42157200  1
  O  O4  1  0.80908800  0.29537300  0.18447200  1
  O  O5  1  0.29537300  0.80908800  0.18447200  1
  O  O6  1  0.50605600  0.40224700  0.51513000  1
  O  O7  1  0.40224700  0.50605600  0.51513000  1
  O  O8  1  0.79875200  0.65881800  0.11680400  1
  O  O9  1  0.65881800  0.79875200  0.11680400  1
  O  O10  1  0.31680500  0.31680500  0.80223500  1
  O  O11  1  0.88383900  0.88383900  0.40566100  1
  O  O12  1  0.07257200  0.23992000  0.12711300  1
  O  O13  1  0.23992000  0.07257200  0.12711300  1
  O  O14  1  0.62841800  0.38255900  0.87167700  1
  O  O15  1  0.38255900  0.62841800  0.87167700  1
loop_
_geom_bond_atom_site_label_1
_geom_bond_atom_site_label_2
_geom_bond_distance
_geom_bond_site_symmetry_2
H0 O8 0.994261 1_555
H1 O9 0.994261 1_555
H2 O12 1.010995 1_555
H2 N4 1.710949 1_455
H3 O13 1.010995 1_555
H3 N5 1.710949 1_545
H4 O12 0.994366 1_555
H5 O13 0.994366 1_555
H6 O14 0.984000 1_555
H7 O15 0.984000 1_555
H8 O14 0.989184 1_555
H9 O15 0.989184 1_555
H10 O8 0.985604 1_555
H11 O9 0.985604 1_555
H12 O11 0.988984 1_555
H13 O11 0.988984 1_555
H14 N0 1.021526 1_555
H15 N1 1.021526 1_555
C0 O0 1.275721 1_555
C0 N4 1.355252 1_555
C0 N0 1.385123 1_555
C1 O1 1.275721 1_555
C1 N5 1.355252 1_555
C1 N1 1.385123 1_555
C2 N2 1.326593 1_555
C2 N4 1.350058 1_555
C2 N6 1.437048 1_555
C3 N3 1.326593 1_555
C3 N5 1.350058 1_555
C3 N7 1.437048 1_555
N0 N2 1.348312 1_555
N1 N3 1.348312 1_555
N6 O2 1.237738 1_555
N6 O4 1.249701 1_555
N7 O3 1.237738 1_555
N7 O5 1.249701 1_555
N8 O7 1.263226 1_555
N8 O6 1.263226 1_555
N8 O10 1.273385 1_555
O0 Y0 2.371887 1_546
O1 Y0 2.371887 1_456
O8 Y0 2.363669 1_555
O9 Y0 2.363669 1_555
O10 Y0 2.419238 1_446
O11 Y0 2.458773 1_555
O12 Y0 2.357256 1_445
O13 Y0 2.357256 1_445
