# generated using pymatgen
data_Li2V(OF)2
_symmetry_space_group_name_H-M   'P 1'
_cell_length_a   5.76225304
_cell_length_b   10.26231183
_cell_length_c   5.96555702
_cell_angle_alpha   89.41601364
_cell_angle_beta   61.06934785
_cell_angle_gamma   73.77211424
_symmetry_Int_Tables_number   1
_chemical_formula_structural   Li2V(OF)2
_chemical_formula_sum   'Li8 V4 O8 F8'
_cell_volume   293.14534239
_cell_formula_units_Z   4
loop_
 _symmetry_equiv_pos_site_id
 _symmetry_equiv_pos_as_xyz
  1  'x, y, z'
loop_
 _atom_site_type_symbol
 _atom_site_label
 _atom_site_symmetry_multiplicity
 _atom_site_fract_x
 _atom_site_fract_y
 _atom_site_fract_z
 _atom_site_occupancy
  Li  Li0  1  0.12812700  0.56054800  0.18126700  1
  Li  Li1  1  0.12995200  0.06048900  0.68135300  1
  Li  Li2  1  0.86973100  0.43947200  0.81866300  1
  Li  Li3  1  0.87194100  0.93947500  0.31852500  1
  Li  Li4  1  0.50204600  0.00002900  0.99998800  1
  Li  Li5  1  0.49779600  0.50000500  0.49981800  1
  Li  Li6  1  0.50025800  0.24988900  0.74999900  1
  Li  Li7  1  0.49998500  0.74995200  0.24990300  1
  V  V0  1  0.00010300  0.74997500  0.75008300  1
  V  V1  1  0.50028000  0.24947000  0.25090600  1
  V  V2  1  0.00028900  0.25057500  0.24956700  1
  V  V3  1  0.49982300  0.74998100  0.75010000  1
  O  O0  1  0.72933500  0.64381300  0.86381100  1
  O  O1  1  0.76218000  0.14398300  0.36393100  1
  O  O2  1  0.72985800  0.36017000  0.14800100  1
  O  O3  1  0.76287100  0.86007100  0.64781200  1
  O  O4  1  0.23824900  0.35628100  0.13605500  1
  O  O5  1  0.27066600  0.85610200  0.63593100  1
  O  O6  1  0.23714500  0.63979900  0.85199200  1
  O  O7  1  0.26971300  0.13989700  0.35212400  1
  F  F0  1  0.27590900  0.86757500  0.09955000  1
  F  F1  1  0.27447200  0.36598700  0.60144700  1
  F  F2  1  0.75825800  0.86584900  0.10116500  1
  F  F3  1  0.75671300  0.36767800  0.59970700  1
  F  F4  1  0.24309100  0.13259300  0.90020200  1
  F  F5  1  0.24172100  0.63404000  0.39868300  1
  F  F6  1  0.72537500  0.13398600  0.89917300  1
  F  F7  1  0.72411500  0.63231200  0.40024500  1
loop_
_geom_bond_atom_site_label_1
_geom_bond_atom_site_label_2
_geom_bond_distance
_geom_bond_site_symmetry_2
Li0 O4 1.993026 1_555
Li0 O6 1.993418 1_554
Li1 O7 1.993477 1_555
Li1 O5 1.994685 1_545
Li2 O2 1.993458 1_556
Li2 O0 1.994239 1_555
Li3 O3 1.994227 1_555
Li3 O1 1.995489 1_565
Li4 O7 2.128843 1_556
Li4 O3 2.129720 1_545
Li5 O2 2.127417 1_555
Li5 O6 2.128852 1_555
Li6 O1 2.129460 1_555
Li6 O4 2.131046 1_556
Li7 O5 2.130368 1_555
Li7 O0 2.130621 1_554
O0 V3 1.855750 1_555
O0 V0 1.998103 1_655
O1 V2 1.860787 1_655
O1 V1 1.990100 1_555
O2 V1 1.859438 1_555
O2 V2 1.995084 1_655
O3 V0 1.856621 1_655
O3 V3 1.998613 1_555
O4 V2 1.852973 1_555
O4 V1 2.002808 1_555
O5 V3 1.856006 1_555
O5 V0 1.996814 1_555
O6 V0 1.854691 1_555
O6 V3 1.997865 1_555
O7 V1 1.854502 1_555
O7 V2 1.998459 1_555
F0 Li3 1.946044 1_455
F0 V3 2.011366 1_554
F0 Li4 2.030543 1_564
F0 Li7 2.038627 1_555
F1 Li2 1.949381 1_455
F1 V1 2.011134 1_555
F1 Li6 2.031048 1_555
F1 Li5 2.032847 1_555
F2 Li3 1.949304 1_555
F2 V0 2.010799 1_654
F2 Li7 2.026563 1_555
F2 Li4 2.036912 1_564
F3 Li2 1.945220 1_555
F3 V2 2.012252 1_655
F3 Li5 2.033807 1_555
F3 Li6 2.035490 1_555
F4 Li1 1.946746 1_555
F4 V2 2.012613 1_556
F4 Li6 2.034231 1_555
F4 Li4 2.034683 1_555
F5 Li0 1.948518 1_555
F5 V0 2.012377 1_555
F5 Li7 2.026668 1_555
F5 Li5 2.035515 1_555
F6 Li1 1.948992 1_655
F6 V1 2.011983 1_556
F6 Li6 2.030340 1_555
F6 Li4 2.032412 1_555
F7 Li0 1.946168 1_655
F7 V3 2.013408 1_555
F7 Li5 2.029987 1_555
F7 Li7 2.038862 1_555
