# generated using pymatgen
data_Ca2Bi7
_symmetry_space_group_name_H-M   'P 1'
_cell_length_a   6.14912990
_cell_length_b   6.14912990
_cell_length_c   9.08245126
_cell_angle_alpha   83.13074017
_cell_angle_beta   83.13074017
_cell_angle_gamma   119.84548024
_symmetry_Int_Tables_number   1
_chemical_formula_structural   Ca2Bi7
_chemical_formula_sum   'Ca2 Bi7'
_cell_volume   289.26873800
_cell_formula_units_Z   1
loop_
 _symmetry_equiv_pos_site_id
 _symmetry_equiv_pos_as_xyz
  1  'x, y, z'
loop_
 _atom_site_type_symbol
 _atom_site_label
 _atom_site_symmetry_multiplicity
 _atom_site_fract_x
 _atom_site_fract_y
 _atom_site_fract_z
 _atom_site_occupancy
  Ca  Ca0  1  0.66636500  0.33363500  0.00000000  1
  Ca  Ca1  1  0.33363500  0.66636500  0.00000000  1
  Bi  Bi0  1  0.10618200  0.44630700  0.67781100  1
  Bi  Bi1  1  0.76386800  0.76386800  0.69275600  1
  Bi  Bi2  1  0.44630700  0.10618200  0.67781100  1
  Bi  Bi3  1  0.89381800  0.55369300  0.32218900  1
  Bi  Bi4  1  0.55369300  0.89381800  0.32218900  1
  Bi  Bi5  1  0.23613200  0.23613200  0.30724400  1
  Bi  Bi6  1  0.00000000  0.00000000  0.00000000  1
loop_
_geom_bond_atom_site_label_1
_geom_bond_atom_site_label_2
_geom_bond_distance
_geom_bond_site_symmetry_2
Ca0 Ca1 3.541014 1_555
Ca0 Ca1 3.558937 1_545
Ca0 Ca1 3.558937 1_655
Bi0 Ca0 3.480551 1_456
Bi0 Bi1 3.514043 1_455
Bi0 Bi6 3.515604 1_556
Bi0 Bi2 3.520232 1_565
Bi0 Bi2 3.520232 1_455
Bi0 Ca1 3.520336 1_556
Bi0 Bi1 3.538576 1_555
Bi0 Bi1 3.614212 1_445
Bi0 Bi2 3.619714 1_555
Bi0 Bi4 3.713217 1_555
Bi0 Bi3 3.732383 1_455
Bi1 Ca1 3.376474 1_556
Bi1 Ca0 3.376474 1_556
Bi1 Bi6 3.441469 1_666
Bi1 Bi2 3.514043 1_565
Bi1 Bi2 3.538576 1_555
Bi1 Bi2 3.614212 1_665
Bi2 Ca1 3.480551 1_546
Bi2 Bi6 3.515604 1_556
Bi2 Ca0 3.520336 1_556
Bi2 Bi3 3.713217 1_555
Bi2 Bi4 3.732383 1_545
Bi3 Ca1 3.480551 1_655
Bi3 Bi5 3.514043 1_655
Bi3 Bi6 3.515604 1_665
Bi3 Bi4 3.520232 1_655
Bi3 Bi4 3.520232 1_545
Bi3 Ca0 3.520336 1_555
Bi3 Bi5 3.538576 1_555
Bi3 Bi5 3.614212 1_665
Bi3 Bi4 3.619714 1_555
Bi4 Ca0 3.480551 1_565
Bi4 Bi5 3.514043 1_565
Bi4 Bi6 3.515604 1_665
Bi4 Ca1 3.520336 1_555
Bi4 Bi5 3.538576 1_555
Bi4 Bi5 3.614212 1_665
Bi5 Ca0 3.376474 1_555
Bi5 Ca1 3.376474 1_555
Bi5 Bi6 3.441469 1_555
Bi6 Ca1 3.550645 1_545
Bi6 Ca0 3.550645 1_455
Bi6 Ca1 3.554129 1_555
Bi6 Ca0 3.554129 1_555
Bi6 Ca1 3.554129 1_445
Bi6 Ca0 3.554129 1_445
