# generated using pymatgen
data_Nb6TlTe8
_symmetry_space_group_name_H-M   'P 1'
_cell_length_a   10.84652595
_cell_length_b   10.84652595
_cell_length_c   3.68355200
_cell_angle_alpha   90.00000000
_cell_angle_beta   90.00000000
_cell_angle_gamma   119.99999969
_symmetry_Int_Tables_number   1
_chemical_formula_structural   Nb6TlTe8
_chemical_formula_sum   'Nb6 Tl1 Te8'
_cell_volume   375.30016671
_cell_formula_units_Z   1
loop_
 _symmetry_equiv_pos_site_id
 _symmetry_equiv_pos_as_xyz
  1  'x, y, z'
loop_
 _atom_site_type_symbol
 _atom_site_label
 _atom_site_symmetry_multiplicity
 _atom_site_fract_x
 _atom_site_fract_y
 _atom_site_fract_z
 _atom_site_occupancy
  Nb  Nb0  1  0.10127000  0.61276500  0.25029300  1
  Nb  Nb1  1  0.51149500  0.89873000  0.25029300  1
  Nb  Nb2  1  0.38723500  0.48850500  0.25029300  1
  Nb  Nb3  1  0.89873000  0.38723500  0.74970700  1
  Nb  Nb4  1  0.48850500  0.10127000  0.74970700  1
  Nb  Nb5  1  0.61276500  0.51149500  0.74970700  1
  Tl  Tl0  1  0.00000000  0.00000000  0.50000000  1
  Te  Te0  1  0.66666700  0.33333300  0.25021800  1
  Te  Te1  1  0.33333300  0.66666700  0.74978200  1
  Te  Te2  1  0.27306300  0.93605300  0.24807100  1
  Te  Te3  1  0.66299100  0.72693700  0.24807100  1
  Te  Te4  1  0.06394700  0.33700900  0.24807100  1
  Te  Te5  1  0.72693700  0.06394700  0.75192900  1
  Te  Te6  1  0.33700900  0.27306300  0.75192900  1
  Te  Te7  1  0.93605300  0.66299100  0.75192900  1
loop_
_geom_bond_atom_site_label_1
_geom_bond_atom_site_label_2
_geom_bond_distance
_geom_bond_site_symmetry_2
Nb0 Te7 2.802569 1_454
Nb0 Te7 2.810478 1_455
Nb0 Te4 2.810546 1_555
Nb0 Te1 2.931057 1_555
Nb0 Te1 2.933421 1_554
Nb0 Te2 3.038768 1_555
Nb1 Te5 2.802563 1_564
Nb1 Te5 2.810473 1_565
Nb1 Te2 2.810535 1_555
Nb1 Te1 2.931059 1_555
Nb1 Te1 2.933424 1_554
Nb1 Te3 3.038778 1_555
Nb2 Te6 2.802561 1_554
Nb2 Te6 2.810470 1_555
Nb2 Te3 2.810542 1_555
Nb2 Te1 2.931065 1_555
Nb2 Te1 2.933430 1_554
Nb2 Te4 3.038768 1_555
Nb3 Te4 2.802569 1_656
Nb3 Te4 2.810478 1_655
Nb3 Te7 2.810546 1_555
Nb3 Te0 2.931057 1_555
Nb3 Te0 2.933421 1_556
Nb3 Te5 3.038768 1_555
Nb4 Te2 2.802563 1_546
Nb4 Te2 2.810473 1_545
Nb4 Te5 2.810535 1_555
Nb4 Te0 2.931059 1_555
Nb4 Te0 2.933424 1_556
Nb4 Te6 3.038778 1_555
Nb5 Te3 2.802561 1_556
Nb5 Te3 2.810470 1_555
Nb5 Te6 2.810542 1_555
Nb5 Te0 2.931065 1_555
Nb5 Te0 2.933430 1_556
Nb5 Te7 3.038768 1_555
Te2 Tl0 3.488371 1_565
Te3 Tl0 3.488364 1_665
Te4 Tl0 3.488360 1_555
Te5 Tl0 3.488371 1_655
Te6 Tl0 3.488364 1_555
Te7 Tl0 3.488360 1_665
