# generated using pymatgen
data_Li3MnCoO5
_symmetry_space_group_name_H-M   'P 1'
_cell_length_a   5.05009100
_cell_length_b   5.13643788
_cell_length_c   7.72220592
_cell_angle_alpha   102.97845637
_cell_angle_beta   108.56243149
_cell_angle_gamma   99.85368901
_symmetry_Int_Tables_number   1
_chemical_formula_structural   Li3MnCoO5
_chemical_formula_sum   'Li6 Mn2 Co2 O10'
_cell_volume   178.54200603
_cell_formula_units_Z   2
loop_
 _symmetry_equiv_pos_site_id
 _symmetry_equiv_pos_as_xyz
  1  'x, y, z'
loop_
 _atom_site_type_symbol
 _atom_site_label
 _atom_site_symmetry_multiplicity
 _atom_site_fract_x
 _atom_site_fract_y
 _atom_site_fract_z
 _atom_site_occupancy
  Li  Li0  1  0.20337300  0.49658600  0.89735600  1
  Li  Li1  1  0.78324700  0.49297400  0.09206200  1
  Li  Li2  1  0.40781100  0.50024800  0.29942000  1
  Li  Li3  1  0.00578700  0.50892400  0.50750000  1
  Li  Li4  1  0.59592500  0.49873500  0.70557900  1
  Li  Li5  1  0.40027500  0.00183900  0.80215000  1
  Mn  Mn0  1  0.00146500  0.00346300  0.99669800  1
  Mn  Mn1  1  0.20022900  0.99846400  0.40080900  1
  Co  Co0  1  0.59692700  0.99954300  0.19075100  1
  Co  Co1  1  0.80381600  0.99804000  0.60760300  1
  O  O0  1  0.98755900  0.76712400  0.76390700  1
  O  O1  1  0.62138300  0.77485600  0.96673000  1
  O  O2  1  0.19450700  0.78153900  0.15317900  1
  O  O3  1  0.82676900  0.76835700  0.35601700  1
  O  O4  1  0.40660800  0.77908300  0.53611200  1
  O  O5  1  0.37940700  0.23185100  0.05197200  1
  O  O6  1  0.00555100  0.22097400  0.24597300  1
  O  O7  1  0.58029700  0.22206000  0.43989900  1
  O  O8  1  0.17845500  0.22570600  0.62711700  1
  O  O9  1  0.82060700  0.22963500  0.85916600  1
loop_
_geom_bond_atom_site_label_1
_geom_bond_atom_site_label_2
_geom_bond_distance
_geom_bond_site_symmetry_2
Li0 O9 2.062002 1_455
Li0 O5 2.128881 1_556
Li0 O0 2.151117 1_455
Li0 O1 2.165538 1_555
Li0 O8 2.185250 1_555
Li0 O2 2.197025 1_556
Li1 O1 2.057191 1_554
Li1 O9 2.076149 1_554
Li1 O3 2.125356 1_555
Li1 O5 2.128223 1_555
Li1 O2 2.177443 1_655
Li1 O6 2.249010 1_655
Li2 O5 2.036421 1_555
Li2 O4 2.055797 1_555
Li2 O7 2.120836 1_555
Li2 O6 2.134882 1_555
Li2 O3 2.169714 1_555
Li2 O2 2.239267 1_555
Li3 O8 2.062708 1_555
Li3 O3 2.097764 1_455
Li3 O0 2.160137 1_455
Li3 O4 2.165151 1_555
Li3 O7 2.217535 1_455
Li3 O6 2.218645 1_555
Li4 O0 2.058080 1_555
Li4 O8 2.138153 1_555
Li4 O1 2.140742 1_555
Li4 O7 2.187222 1_555
Li4 O9 2.240756 1_555
Li4 O4 2.285013 1_555
Li5 O5 2.068076 1_556
Li5 O9 2.095779 1_555
Li5 O1 2.104510 1_545
Li5 O0 2.114935 1_445
Li5 O4 2.128205 1_545
Li5 O8 2.139861 1_555
Mn0 O9 1.900397 1_455
Mn0 O0 1.902737 1_445
Mn0 O5 1.921283 1_556
Mn0 O1 1.985033 1_445
Mn0 O6 1.988694 1_556
Mn0 O2 1.989715 1_546
Mn1 O8 1.917975 1_565
Mn1 O4 1.919682 1_555
Mn1 O3 1.926577 1_455
Mn1 O7 1.953221 1_565
Mn1 O2 1.973776 1_555
Mn1 O6 1.988069 1_565
Co0 O1 1.904706 1_554
Co0 O5 2.013082 1_565
Co0 O6 2.037746 1_665
Co0 O7 2.040356 1_565
Co0 O2 2.041546 1_555
Co0 O3 2.143695 1_555
Co1 O4 1.958908 1_555
Co1 O8 1.987911 1_665
Co1 O9 2.004662 1_565
Co1 O0 2.007825 1_555
Co1 O3 2.083362 1_555
Co1 O7 2.111520 1_565
