# generated using pymatgen
data_Tm5Ge4
_symmetry_space_group_name_H-M   'P 1'
_cell_length_a   7.42861150
_cell_length_b   7.52872230
_cell_length_c   14.29434328
_cell_angle_alpha   90.00000000
_cell_angle_beta   90.00000000
_cell_angle_gamma   90.00000000
_symmetry_Int_Tables_number   1
_chemical_formula_structural   Tm5Ge4
_chemical_formula_sum   'Tm20 Ge16'
_cell_volume   799.45335996
_cell_formula_units_Z   4
loop_
 _symmetry_equiv_pos_site_id
 _symmetry_equiv_pos_as_xyz
  1  'x, y, z'
loop_
 _atom_site_type_symbol
 _atom_site_label
 _atom_site_symmetry_multiplicity
 _atom_site_fract_x
 _atom_site_fract_y
 _atom_site_fract_z
 _atom_site_occupancy
  Tm  Tm0  1  0.37431690  0.83893917  0.88182236  1
  Tm  Tm1  1  0.87431690  0.66106083  0.61817764  1
  Tm  Tm2  1  0.62568310  0.16106083  0.38182236  1
  Tm  Tm3  1  0.12568310  0.33893917  0.11817764  1
  Tm  Tm4  1  0.62568310  0.16106083  0.11817764  1
  Tm  Tm5  1  0.12568310  0.33893917  0.38182236  1
  Tm  Tm6  1  0.37431690  0.83893917  0.61817764  1
  Tm  Tm7  1  0.87431690  0.66106083  0.88182236  1
  Tm  Tm8  1  0.52518580  0.32286465  0.89953421  1
  Tm  Tm9  1  0.02518580  0.17713535  0.60046579  1
  Tm  Tm10  1  0.47481420  0.67713535  0.39953421  1
  Tm  Tm11  1  0.97481420  0.82286465  0.10046579  1
  Tm  Tm12  1  0.47481420  0.67713535  0.10046579  1
  Tm  Tm13  1  0.97481420  0.82286465  0.39953421  1
  Tm  Tm14  1  0.52518580  0.32286465  0.60046579  1
  Tm  Tm15  1  0.02518580  0.17713535  0.89953421  1
  Tm  Tm16  1  0.20940500  0.50160245  0.75000000  1
  Tm  Tm17  1  0.70940500  0.99839755  0.75000000  1
  Tm  Tm18  1  0.79059500  0.49839755  0.25000000  1
  Tm  Tm19  1  0.29059500  0.00160245  0.25000000  1
  Ge  Ge0  1  0.28431672  0.03411887  0.04345046  1
  Ge  Ge1  1  0.78431672  0.46588113  0.45654954  1
  Ge  Ge2  1  0.71568328  0.96588113  0.54345046  1
  Ge  Ge3  1  0.21568328  0.53411887  0.95654954  1
  Ge  Ge4  1  0.71568328  0.96588113  0.95654954  1
  Ge  Ge5  1  0.21568328  0.53411887  0.54345046  1
  Ge  Ge6  1  0.28431672  0.03411887  0.45654954  1
  Ge  Ge7  1  0.78431672  0.46588113  0.04345046  1
  Ge  Ge8  1  0.57588586  0.61837985  0.75000000  1
  Ge  Ge9  1  0.07588586  0.88162015  0.75000000  1
  Ge  Ge10  1  0.42411414  0.38162015  0.25000000  1
  Ge  Ge11  1  0.92411414  0.11837985  0.25000000  1
  Ge  Ge12  1  0.33199809  0.13994041  0.75000000  1
  Ge  Ge13  1  0.83199809  0.36005959  0.75000000  1
  Ge  Ge14  1  0.66800191  0.86005959  0.25000000  1
  Ge  Ge15  1  0.16800191  0.63994041  0.25000000  1
loop_
_geom_bond_atom_site_label_1
_geom_bond_atom_site_label_2
_geom_bond_distance
_geom_bond_site_symmetry_2
Ge0 Tm3 2.792184 1_555
Ge0 Tm0 2.818526 1_544
Ge0 Tm11 2.912049 1_445
Ge0 Tm4 2.912913 1_555
Ge0 Tm19 2.962989 1_555
Ge0 Tm15 3.016112 1_554
Ge0 Tm12 3.144864 1_545
Ge0 Tm8 3.487045 1_554
Ge1 Tm2 2.792184 1_555
Ge1 Tm1 2.818526 1_555
Ge1 Tm10 2.912049 1_555
Ge1 Tm5 2.912913 1_655
Ge1 Tm18 2.962989 1_555
Ge1 Tm14 3.016112 1_555
Ge1 Tm13 3.144864 1_555
Ge1 Tm9 3.487045 1_655
Ge2 Tm1 2.792184 1_555
Ge2 Tm2 2.818526 1_565
Ge2 Tm9 2.912049 1_665
Ge2 Tm6 2.912913 1_555
Ge2 Tm17 2.962989 1_555
Ge2 Tm13 3.016112 1_555
Ge2 Tm14 3.144864 1_565
Ge2 Tm10 3.487045 1_555
Ge3 Tm0 2.792184 1_555
Ge3 Tm3 2.818526 1_556
Ge3 Tm8 2.912049 1_555
Ge3 Tm7 2.912913 1_455
Ge3 Tm16 2.962989 1_555
Ge3 Tm12 3.016112 1_556
Ge3 Tm15 3.144864 1_555
Ge3 Tm11 3.487045 1_456
Ge4 Tm7 2.792184 1_555
Ge4 Tm4 2.818526 1_566
Ge4 Tm15 2.912049 1_665
Ge4 Tm0 2.912913 1_555
Ge4 Tm17 2.962989 1_555
Ge4 Tm11 3.016112 1_556
Ge4 Tm8 3.144864 1_565
Ge4 Tm12 3.487045 1_556
Ge5 Tm6 2.792184 1_555
Ge5 Tm5 2.818526 1_555
Ge5 Tm14 2.912049 1_555
Ge5 Tm1 2.912913 1_455
Ge5 Tm16 2.962989 1_555
Ge5 Tm10 3.016112 1_555
Ge5 Tm9 3.144864 1_555
Ge5 Tm13 3.487045 1_455
Ge6 Tm5 2.792184 1_555
Ge6 Tm6 2.818526 1_545
Ge6 Tm13 2.912049 1_445
Ge6 Tm2 2.912913 1_555
Ge6 Tm19 2.962989 1_555
Ge6 Tm9 3.016112 1_555
Ge6 Tm10 3.144864 1_545
Ge6 Tm14 3.487045 1_555
Ge7 Tm4 2.792184 1_555
Ge7 Tm7 2.818526 1_554
Ge7 Tm12 2.912049 1_555
Ge7 Tm3 2.912913 1_655
Ge7 Tm18 2.962989 1_555
Ge7 Tm8 3.016112 1_554
Ge7 Tm11 3.144864 1_555
Ge7 Tm15 3.487045 1_654
Ge8 Tm16 2.860886 1_555
Ge8 Tm6 2.924062 1_555
Ge8 Tm0 2.924062 1_555
Ge8 Tm7 2.927228 1_555
Ge8 Tm1 2.927228 1_555
Ge8 Tm17 3.028099 1_555
Ge8 Tm8 3.108166 1_555
Ge8 Tm14 3.108166 1_555
Ge9 Tm17 2.860886 1_455
Ge9 Tm7 2.924062 1_455
Ge9 Tm1 2.924062 1_455
Ge9 Tm0 2.927228 1_555
Ge9 Tm6 2.927228 1_555
Ge9 Tm16 3.028099 1_555
Ge9 Tm15 3.108166 1_565
Ge9 Tm9 3.108166 1_565
Ge10 Ge15 2.720672 1_555
Ge10 Tm18 2.860886 1_555
Ge10 Tm4 2.924062 1_555
Ge10 Tm2 2.924062 1_555
Ge10 Tm3 2.927228 1_555
Ge10 Tm5 2.927228 1_555
Ge10 Tm19 3.028099 1_555
Ge10 Tm10 3.108166 1_555
Ge10 Tm12 3.108166 1_555
Ge11 Ge14 2.720672 1_545
Ge11 Tm19 2.860886 1_655
Ge11 Tm3 2.924062 1_655
Ge11 Tm5 2.924062 1_655
Ge11 Tm4 2.927228 1_555
Ge11 Tm2 2.927228 1_555
Ge11 Tm18 3.028099 1_555
Ge11 Tm13 3.108166 1_545
Ge11 Tm11 3.108166 1_545
Ge12 Ge9 2.720672 1_545
Ge12 Tm16 2.871114 1_555
Ge12 Tm14 2.919774 1_555
Ge12 Tm8 2.919774 1_555
Ge12 Tm0 2.963937 1_545
Ge12 Tm6 2.963937 1_545
Ge12 Tm17 2.999301 1_545
Ge12 Tm9 3.137196 1_555
Ge12 Tm15 3.137196 1_555
Ge13 Ge8 2.720672 1_555
Ge13 Tm17 2.871114 1_545
Ge13 Tm9 2.919774 1_655
Ge13 Tm15 2.919774 1_655
Ge13 Tm1 2.963937 1_555
Ge13 Tm7 2.963937 1_555
Ge13 Tm16 2.999301 1_655
Ge13 Tm8 3.137196 1_555
Ge13 Tm14 3.137196 1_555
Ge14 Tm18 2.871114 1_555
Ge14 Tm12 2.919774 1_555
Ge14 Tm10 2.919774 1_555
Ge14 Tm2 2.963937 1_565
Ge14 Tm4 2.963937 1_565
Ge14 Tm19 2.999301 1_565
Ge14 Tm11 3.137196 1_555
Ge14 Tm13 3.137196 1_555
Ge15 Tm19 2.871114 1_565
Ge15 Tm13 2.919774 1_455
Ge15 Tm11 2.919774 1_455
Ge15 Tm3 2.963937 1_555
Ge15 Tm5 2.963937 1_555
Ge15 Tm18 2.999301 1_455
Ge15 Tm10 3.137196 1_555
Ge15 Tm12 3.137196 1_555
