# generated using pymatgen
data_CsTeAu
_symmetry_space_group_name_H-M   'P 1'
_cell_length_a   5.57099900
_cell_length_b   7.82638100
_cell_length_c   6.27205100
_cell_angle_alpha   90.00000000
_cell_angle_beta   90.00000000
_cell_angle_gamma   90.00000000
_symmetry_Int_Tables_number   1
_chemical_formula_structural   CsTeAu
_chemical_formula_sum   'Cs2 Te2 Au2'
_cell_volume   273.46619490
_cell_formula_units_Z   2
loop_
 _symmetry_equiv_pos_site_id
 _symmetry_equiv_pos_as_xyz
  1  'x, y, z'
loop_
 _atom_site_type_symbol
 _atom_site_label
 _atom_site_symmetry_multiplicity
 _atom_site_fract_x
 _atom_site_fract_y
 _atom_site_fract_z
 _atom_site_occupancy
  Cs  Cs0  1  0.50000000  0.25000000  0.73774800  1
  Cs  Cs1  1  0.50000000  0.75000000  0.26225200  1
  Te  Te0  1  0.00000000  0.75000000  0.72219000  1
  Te  Te1  1  0.00000000  0.25000000  0.27781000  1
  Au  Au0  1  0.00000000  0.00000000  0.00000000  1
  Au  Au1  1  0.00000000  0.50000000  0.00000000  1
loop_
_geom_bond_atom_site_label_1
_geom_bond_atom_site_label_2
_geom_bond_distance
_geom_bond_site_symmetry_2
Cs0 Te1 4.010089 1_555
Cs0 Te1 4.010089 1_655
Cs1 Te0 4.010089 1_555
Cs1 Te0 4.010089 1_655
Au0 Te0 2.619992 1_544
Au0 Te1 2.619992 1_555
Au0 Cs1 3.780586 1_545
Au0 Cs1 3.780586 1_445
Au0 Cs0 3.780586 1_454
Au0 Cs0 3.780586 1_554
Au1 Te0 2.619992 1_554
Au1 Te1 2.619992 1_555
Au1 Cs1 3.780586 1_555
Au1 Cs1 3.780586 1_455
Au1 Cs0 3.780586 1_454
Au1 Cs0 3.780586 1_554
