# generated using pymatgen
data_Sn3H8C2NO7
_symmetry_space_group_name_H-M   'P 1'
_cell_length_a   6.96331800
_cell_length_b   8.29622200
_cell_length_c   9.25575140
_cell_angle_alpha   82.04956606
_cell_angle_beta   90.00000000
_cell_angle_gamma   90.00000000
_symmetry_Int_Tables_number   1
_chemical_formula_structural   Sn3H8C2NO7
_chemical_formula_sum   'Sn6 H16 C4 N2 O14'
_cell_volume   529.55818699
_cell_formula_units_Z   2
loop_
 _symmetry_equiv_pos_site_id
 _symmetry_equiv_pos_as_xyz
  1  'x, y, z'
loop_
 _atom_site_type_symbol
 _atom_site_label
 _atom_site_symmetry_multiplicity
 _atom_site_fract_x
 _atom_site_fract_y
 _atom_site_fract_z
 _atom_site_occupancy
  Sn  Sn0  1  0.31479800  0.70207000  0.66550600  1
  Sn  Sn1  1  0.10043400  0.98174800  0.42223600  1
  Sn  Sn2  1  0.81967700  0.59819100  0.57827300  1
  Sn  Sn3  1  0.60043400  0.01825200  0.57776400  1
  Sn  Sn4  1  0.31967700  0.40180900  0.42172700  1
  Sn  Sn5  1  0.81479800  0.29793000  0.33449400  1
  H  H0  1  0.03966400  0.30872700  0.00251400  1
  H  H1  1  0.53966400  0.69127300  0.99748600  1
  H  H2  1  0.59816400  0.96647700  0.02175900  1
  H  H3  1  0.09816400  0.03352300  0.97824100  1
  H  H4  1  0.63819800  0.62690700  0.16031400  1
  H  H5  1  0.96957300  0.13619700  0.82252700  1
  H  H6  1  0.13819800  0.37309300  0.83968600  1
  H  H7  1  0.35590000  0.41102800  0.03639400  1
  H  H8  1  0.46957300  0.86380300  0.17747300  1
  H  H9  1  0.45293400  0.27154200  0.92120000  1
  H  H10  1  0.34497500  0.19358400  0.09316400  1
  H  H11  1  0.72393900  0.90579400  0.18989100  1
  H  H12  1  0.22393900  0.09420600  0.81010900  1
  H  H13  1  0.85590000  0.58897200  0.96360600  1
  H  H14  1  0.84497500  0.80641600  0.90683600  1
  H  H15  1  0.95293400  0.72845800  0.07880000  1
  C  C0  1  0.84080300  0.70870100  0.99976300  1
  C  C1  1  0.34080300  0.29129900  0.00023700  1
  C  C2  1  0.10693800  0.12438100  0.88103100  1
  C  C3  1  0.60693800  0.87561900  0.11896900  1
  N  N0  1  0.14945000  0.28439000  0.93008000  1
  N  N1  1  0.64945000  0.71561000  0.06992000  1
  O  O0  1  0.66742600  0.05702600  0.77236500  1
  O  O1  1  0.16742600  0.94297400  0.22763500  1
  O  O2  1  0.81470900  0.04229400  0.42415500  1
  O  O3  1  0.82648500  0.31157900  0.12749400  1
  O  O4  1  0.31470900  0.95770600  0.57584500  1
  O  O5  1  0.80685300  0.52633500  0.38357000  1
  O  O6  1  0.59842300  0.75927000  0.57914000  1
  O  O7  1  0.85192500  0.44341100  0.74912100  1
  O  O8  1  0.54401200  0.24068500  0.44195200  1
  O  O9  1  0.09842300  0.24073000  0.42086000  1
  O  O10  1  0.30685300  0.47366500  0.61643000  1
  O  O11  1  0.04401200  0.75931500  0.55804800  1
  O  O12  1  0.35192500  0.55658900  0.25087900  1
  O  O13  1  0.32648500  0.68842100  0.87250600  1
loop_
_geom_bond_atom_site_label_1
_geom_bond_atom_site_label_2
_geom_bond_distance
_geom_bond_site_symmetry_2
H0 N0 1.054567 1_554
H1 N1 1.054567 1_556
H4 N1 1.037965 1_555
H6 N0 1.037965 1_555
C0 H13 1.096197 1_555
C0 H15 1.097657 1_556
C0 H14 1.097691 1_555
C0 N1 1.486833 1_556
C1 H7 1.096197 1_555
C1 H9 1.097657 1_554
C1 H10 1.097691 1_555
C1 N0 1.486833 1_554
C2 H3 1.092635 1_555
C2 H12 1.096722 1_555
C2 H5 1.096845 1_455
C2 N0 1.490847 1_555
C3 H2 1.092635 1_555
C3 H11 1.096722 1_555
C3 H8 1.096845 1_555
C3 N1 1.490847 1_555
O0 Sn3 1.930184 1_555
O1 Sn1 1.930184 1_555
O2 Sn3 2.051588 1_555
O2 Sn1 2.052700 1_645
O2 Sn5 2.167872 1_555
O3 Sn5 1.905323 1_555
O4 Sn1 2.051588 1_555
O4 Sn3 2.052700 1_565
O4 Sn0 2.167872 1_555
O5 Sn2 1.976912 1_555
O5 Sn5 2.009512 1_555
O6 Sn2 2.040219 1_555
O6 Sn3 2.146893 1_565
O6 Sn0 2.158651 1_555
O7 Sn2 1.907402 1_555
O8 Sn4 2.047645 1_555
O8 Sn3 2.120882 1_555
O8 Sn5 2.153947 1_555
O9 Sn4 2.040219 1_555
O9 Sn1 2.146893 1_545
O9 Sn5 2.158651 1_455
O10 Sn4 1.976912 1_555
O10 Sn0 2.009512 1_555
O11 Sn2 2.047645 1_455
O11 Sn1 2.120882 1_555
O11 Sn0 2.153947 1_555
O12 Sn4 1.907402 1_555
O13 Sn0 1.905323 1_555
