# generated using pymatgen
data_Tb2MgCu2
_symmetry_space_group_name_H-M   'P 1'
_cell_length_a   7.61506611
_cell_length_b   7.61506611
_cell_length_c   3.69496352
_cell_angle_alpha   90.00000000
_cell_angle_beta   90.00000000
_cell_angle_gamma   90.00000000
_symmetry_Int_Tables_number   1
_chemical_formula_structural   Tb2MgCu2
_chemical_formula_sum   'Tb4 Mg2 Cu4'
_cell_volume   214.26809627
_cell_formula_units_Z   2
loop_
 _symmetry_equiv_pos_site_id
 _symmetry_equiv_pos_as_xyz
  1  'x, y, z'
loop_
 _atom_site_type_symbol
 _atom_site_label
 _atom_site_symmetry_multiplicity
 _atom_site_fract_x
 _atom_site_fract_y
 _atom_site_fract_z
 _atom_site_occupancy
  Tb  Tb0  1  0.66983585  0.16983585  0.50000000  1
  Tb  Tb1  1  0.33016415  0.83016415  0.50000000  1
  Tb  Tb2  1  0.16983585  0.33016415  0.50000000  1
  Tb  Tb3  1  0.83016415  0.66983585  0.50000000  1
  Mg  Mg0  1  0.00000000  -0.00000000  -0.00000000  1
  Mg  Mg1  1  0.50000000  0.50000000  -0.00000000  1
  Cu  Cu0  1  0.12258973  0.62258973  -0.00000000  1
  Cu  Cu1  1  0.87741027  0.37741027  0.00000000  1
  Cu  Cu2  1  0.62258973  0.87741027  0.00000000  1
  Cu  Cu3  1  0.37741027  0.12258973  -0.00000000  1
loop_
_geom_bond_atom_site_label_1
_geom_bond_atom_site_label_2
_geom_bond_distance
_geom_bond_site_symmetry_2
Mg0 Tb0 3.377448 1_455
Mg0 Tb3 3.377448 1_444
Mg0 Tb3 3.377448 1_445
Mg0 Tb2 3.377448 1_555
Mg0 Tb2 3.377448 1_554
Mg0 Tb0 3.377448 1_454
Mg0 Tb1 3.377448 1_544
Mg0 Tb1 3.377448 1_545
Mg1 Tb3 3.377448 1_555
Mg1 Tb0 3.377448 1_554
Mg1 Tb1 3.377448 1_554
Mg1 Tb1 3.377448 1_555
Mg1 Tb2 3.377448 1_555
Mg1 Tb2 3.377448 1_554
Mg1 Tb3 3.377448 1_554
Mg1 Tb0 3.377448 1_555
Cu0 Cu1 2.640418 1_455
Cu0 Tb1 2.900064 1_554
Cu0 Tb1 2.900064 1_555
Cu0 Tb2 2.915724 1_555
Cu0 Tb2 2.915724 1_554
Cu0 Tb3 2.915724 1_454
Cu0 Tb3 2.915724 1_455
Cu0 Mg0 3.021817 1_565
Cu0 Mg1 3.021817 1_555
Cu1 Tb0 2.900064 1_555
Cu1 Tb0 2.900064 1_554
Cu1 Tb3 2.915724 1_554
Cu1 Tb3 2.915724 1_555
Cu1 Tb2 2.915724 1_655
Cu1 Tb2 2.915724 1_654
Cu1 Mg0 3.021817 1_655
Cu1 Mg1 3.021817 1_555
Cu2 Cu3 2.640418 1_565
Cu2 Tb3 2.900064 1_555
Cu2 Tb3 2.900064 1_554
Cu2 Tb1 2.915724 1_554
Cu2 Tb1 2.915724 1_555
Cu2 Tb0 2.915724 1_565
Cu2 Tb0 2.915724 1_564
Cu2 Mg0 3.021817 1_665
Cu2 Mg1 3.021817 1_555
Cu3 Tb2 2.900064 1_555
Cu3 Tb2 2.900064 1_554
Cu3 Tb1 2.915724 1_544
Cu3 Tb1 2.915724 1_545
Cu3 Tb0 2.915724 1_555
Cu3 Tb0 2.915724 1_554
Cu3 Mg1 3.021817 1_555
Cu3 Mg0 3.021817 1_555
