# generated using pymatgen
data_Li3Mn5OF11
_symmetry_space_group_name_H-M   'P 1'
_cell_length_a   5.36356000
_cell_length_b   5.76604003
_cell_length_c   9.41967062
_cell_angle_alpha   106.56605747
_cell_angle_beta   89.13972845
_cell_angle_gamma   116.86396406
_symmetry_Int_Tables_number   1
_chemical_formula_structural   Li3Mn5OF11
_chemical_formula_sum   'Li3 Mn5 O1 F11'
_cell_volume   246.87495580
_cell_formula_units_Z   1
loop_
 _symmetry_equiv_pos_site_id
 _symmetry_equiv_pos_as_xyz
  1  'x, y, z'
loop_
 _atom_site_type_symbol
 _atom_site_label
 _atom_site_symmetry_multiplicity
 _atom_site_fract_x
 _atom_site_fract_y
 _atom_site_fract_z
 _atom_site_occupancy
  Li  Li0  1  0.52076500  0.54362400  0.49818500  1
  Li  Li1  1  0.77357700  0.26885700  0.25740900  1
  Li  Li2  1  0.30942700  0.81629000  0.77882900  1
  Mn  Mn0  1  0.44585500  0.71962700  0.14998700  1
  Mn  Mn1  1  0.98451500  0.00861300  0.99914000  1
  Mn  Mn2  1  0.95113900  0.27053000  0.63993200  1
  Mn  Mn3  1  0.21208000  0.99733800  0.41032800  1
  Mn  Mn4  1  0.67014100  0.50533700  0.89497600  1
  O  O0  1  0.56731600  0.75775000  0.95605500  1
  F  F0  1  0.44047200  0.83329100  0.34912500  1
  F  F1  1  0.51708800  0.38727700  0.30781800  1
  F  F2  1  0.02373000  0.92663500  0.79135000  1
  F  F3  1  0.42875500  0.14399400  0.04761400  1
  F  F4  1  0.92649200  0.65126400  0.53785800  1
  F  F5  1  0.94362900  0.36684800  0.84780000  1
  F  F6  1  0.99988900  0.57894300  0.10838700  1
  F  F7  1  0.04196200  0.25118400  0.44384700  1
  F  F8  1  0.40154500  0.50164900  0.68664200  1
  F  F9  1  0.91323900  0.01107800  0.20909500  1
  F  F10  1  0.50302300  0.08427400  0.61049900  1
loop_
_geom_bond_atom_site_label_1
_geom_bond_atom_site_label_2
_geom_bond_distance
_geom_bond_site_symmetry_2
Li2 O0 2.372075 1_555
Mn0 O0 1.968163 1_554
Mn1 O0 2.007860 1_545
Mn4 O0 1.729690 1_555
F0 Mn0 1.806509 1_555
F0 Mn3 1.855459 1_555
F1 Li0 1.758352 1_555
F1 Li1 1.796849 1_555
F1 Mn3 2.555465 1_545
F2 Li2 1.897298 1_555
F2 Mn1 1.910145 1_465
F3 Mn1 2.154905 1_454
F3 Li1 2.437066 1_555
F3 Li2 2.572549 1_544
F3 Mn4 2.701672 1_554
F4 Li0 1.982923 1_555
F4 Mn3 2.514088 1_655
F5 Mn2 1.881955 1_555
F5 Mn4 1.955380 1_555
F6 Mn0 2.150904 1_655
F6 Li1 2.461576 1_555
F6 Mn4 2.508220 1_554
F7 Mn2 1.888375 1_455
F7 Mn3 2.002350 1_545
F7 Li0 2.309579 1_555
F7 Li1 2.340354 1_455
F8 Li0 1.920902 1_555
F8 Li2 2.046574 1_555
F8 Mn2 2.143263 1_455
F8 Mn4 2.441401 1_555
F9 Li1 1.894148 1_555
F9 Mn1 2.005954 1_554
F9 Mn0 2.262620 1_545
F9 Mn3 2.541682 1_645
F10 Mn2 2.127079 1_555
F10 Mn3 2.254798 1_545
F10 Li2 2.424395 1_545
