# generated using pymatgen
data_Li9Co7O16
_symmetry_space_group_name_H-M   'P 1'
_cell_length_a   10.67954176
_cell_length_b   10.67954176
_cell_length_c   10.01536374
_cell_angle_alpha   65.85296577
_cell_angle_beta   65.85296577
_cell_angle_gamma   15.64594169
_symmetry_Int_Tables_number   1
_chemical_formula_structural   Li9Co7O16
_chemical_formula_sum   'Li9 Co7 O16'
_cell_volume   280.57368981
_cell_formula_units_Z   1
loop_
 _symmetry_equiv_pos_site_id
 _symmetry_equiv_pos_as_xyz
  1  'x, y, z'
loop_
 _atom_site_type_symbol
 _atom_site_label
 _atom_site_symmetry_multiplicity
 _atom_site_fract_x
 _atom_site_fract_y
 _atom_site_fract_z
 _atom_site_occupancy
  Li  Li0  1  0.62446600  0.62446600  0.56211400  1
  Li  Li1  1  0.87852800  0.87852800  0.18063000  1
  Li  Li2  1  0.12147200  0.12147200  0.81937000  1
  Li  Li3  1  0.12551200  0.12551200  0.31125300  1
  Li  Li4  1  0.37561000  0.37561000  0.93643200  1
  Li  Li5  1  0.62439000  0.62439000  0.06356800  1
  Li  Li6  1  0.87448800  0.87448800  0.68874700  1
  Li  Li7  1  0.37553400  0.37553400  0.43788600  1
  Li  Li8  1  0.50000000  0.50000000  0.00000000  1
  Co  Co0  1  0.99856500  0.99856500  0.76039100  1
  Co  Co1  1  0.00143500  0.00143500  0.23960900  1
  Co  Co2  1  0.24952600  0.24952600  0.37582700  1
  Co  Co3  1  0.75047400  0.75047400  0.62417300  1
  Co  Co4  1  0.25002500  0.25002500  0.87516000  1
  Co  Co5  1  0.50000000  0.50000000  0.50000000  1
  Co  Co6  1  0.74997500  0.74997500  0.12484000  1
  O  O0  1  0.55840000  0.55840000  0.77361800  1
  O  O1  1  0.80436900  0.80436900  0.41768000  1
  O  O2  1  0.05895500  0.05895500  0.05111600  1
  O  O3  1  0.05205800  0.05205800  0.53615800  1
  O  O4  1  0.30743900  0.30743900  0.16863600  1
  O  O5  1  0.55426100  0.55426100  0.29526500  1
  O  O6  1  0.80925900  0.80925900  0.90721800  1
  O  O7  1  0.30750300  0.30750300  0.65530400  1
  O  O8  1  0.69249700  0.69249700  0.34469600  1
  O  O9  1  0.94104500  0.94104500  0.94888400  1
  O  O10  1  0.19563100  0.19563100  0.58232000  1
  O  O11  1  0.19074100  0.19074100  0.09278200  1
  O  O12  1  0.44573900  0.44573900  0.70473500  1
  O  O13  1  0.69256100  0.69256100  0.83136400  1
  O  O14  1  0.94794200  0.94794200  0.46384200  1
  O  O15  1  0.44160000  0.44160000  0.22638200  1
loop_
_geom_bond_atom_site_label_1
_geom_bond_atom_site_label_2
_geom_bond_distance
_geom_bond_site_symmetry_2
Li0 O0 1.998974 1_555
Li0 O8 2.055522 1_555
Li0 O10 2.161781 1_655
Li0 O10 2.161781 1_565
Li0 O3 2.203881 1_655
Li0 O3 2.203881 1_565
Li1 O4 2.130607 1_655
Li1 O4 2.130607 1_565
Li1 O9 2.145098 1_554
Li1 O15 2.146917 1_565
Li1 O15 2.146917 1_655
Li1 O1 2.241045 1_555
Li2 O13 2.130607 1_455
Li2 O13 2.130607 1_545
Li2 O2 2.145098 1_556
Li2 O0 2.146917 1_545
Li2 O0 2.146917 1_455
Li2 O10 2.241045 1_555
Li3 O11 2.049054 1_555
Li3 O3 2.144364 1_555
Li3 O5 2.147364 1_545
Li3 O5 2.147364 1_455
Li3 O8 2.150899 1_545
Li3 O8 2.150899 1_455
Li4 O9 2.046548 1_545
Li4 O9 2.046548 1_455
Li4 O6 2.123468 1_545
Li4 O6 2.123468 1_455
Li4 O4 2.172285 1_556
Li4 O12 2.177872 1_555
Li5 O2 2.046548 1_655
Li5 O2 2.046548 1_565
Li5 O11 2.123468 1_655
Li5 O11 2.123468 1_565
Li5 O13 2.172285 1_554
Li5 O5 2.177872 1_555
Li6 O6 2.049054 1_555
Li6 O14 2.144364 1_555
Li6 O12 2.147364 1_655
Li6 O12 2.147364 1_565
Li6 O7 2.150899 1_655
Li6 O7 2.150899 1_565
Li7 O15 1.998974 1_555
Li7 O7 2.055522 1_555
Li7 O1 2.161781 1_455
Li7 O1 2.161781 1_545
Li7 O14 2.203881 1_545
Li7 O14 2.203881 1_455
Li8 O0 2.086591 1_554
Li8 O15 2.086591 1_555
Li8 O9 2.111588 1_544
Li8 O9 2.111588 1_454
Li8 O2 2.111588 1_655
Li8 O2 2.111588 1_565
Co0 O9 1.774185 1_555
Co0 O0 1.967780 1_655
Co0 O0 1.967780 1_565
Co0 O12 2.046414 1_655
Co0 O12 2.046414 1_565
Co0 O3 2.055583 1_665
Co1 O2 1.774185 1_555
Co1 O15 1.967780 1_545
Co1 O15 1.967780 1_455
Co1 O5 2.046414 1_455
Co1 O5 2.046414 1_545
Co1 O14 2.055583 1_445
Co2 O10 1.905217 1_555
Co2 O4 1.925535 1_555
Co2 O8 1.994292 1_545
Co2 O8 1.994292 1_455
Co2 O1 2.009279 1_545
Co2 O1 2.009279 1_455
Co3 O1 1.905217 1_555
Co3 O13 1.925535 1_555
Co3 O7 1.994292 1_655
Co3 O7 1.994292 1_565
Co3 O10 2.009279 1_565
Co3 O10 2.009279 1_655
Co4 O11 2.016474 1_556
Co4 O7 2.028816 1_555
Co4 O6 2.029652 1_545
Co4 O6 2.029652 1_455
Co4 O13 2.055343 1_455
Co4 O13 2.055343 1_545
Co5 O5 1.891700 1_555
Co5 O12 1.891700 1_555
Co5 O3 1.946032 1_655
Co5 O3 1.946032 1_565
Co5 O14 1.946032 1_455
Co5 O14 1.946032 1_545
Co6 O6 2.016474 1_554
Co6 O8 2.028816 1_555
Co6 O11 2.029652 1_655
Co6 O11 2.029652 1_565
Co6 O4 2.055343 1_655
Co6 O4 2.055343 1_565
