# generated using pymatgen
data_LiMg6Si
_symmetry_space_group_name_H-M   'P 1'
_cell_length_a   4.96144900
_cell_length_b   6.21231400
_cell_length_c   10.76033100
_cell_angle_alpha   90.00000000
_cell_angle_beta   90.00000000
_cell_angle_gamma   90.00000000
_symmetry_Int_Tables_number   1
_chemical_formula_structural   LiMg6Si
_chemical_formula_sum   'Li2 Mg12 Si2'
_cell_volume   331.65577304
_cell_formula_units_Z   2
loop_
 _symmetry_equiv_pos_site_id
 _symmetry_equiv_pos_as_xyz
  1  'x, y, z'
loop_
 _atom_site_type_symbol
 _atom_site_label
 _atom_site_symmetry_multiplicity
 _atom_site_fract_x
 _atom_site_fract_y
 _atom_site_fract_z
 _atom_site_occupancy
  Li  Li0  1  0.00000000  0.50000000  0.33031900  1
  Li  Li1  1  0.00000000  0.00000000  0.83031900  1
  Mg  Mg0  1  0.00000000  0.25580500  0.08554000  1
  Mg  Mg1  1  0.00000000  0.74419500  0.08554000  1
  Mg  Mg2  1  0.00000000  0.00000000  0.33417300  1
  Mg  Mg3  1  0.50000000  0.74756300  0.41460000  1
  Mg  Mg4  1  0.50000000  0.25243700  0.41460000  1
  Mg  Mg5  1  0.50000000  0.00000000  0.16748900  1
  Mg  Mg6  1  0.00000000  0.75580500  0.58554000  1
  Mg  Mg7  1  0.00000000  0.24419500  0.58554000  1
  Mg  Mg8  1  0.00000000  0.50000000  0.83417300  1
  Mg  Mg9  1  0.50000000  0.24756300  0.91460000  1
  Mg  Mg10  1  0.50000000  0.75243700  0.91460000  1
  Mg  Mg11  1  0.50000000  0.50000000  0.66748900  1
  Si  Si0  1  0.50000000  0.50000000  0.16773900  1
  Si  Si1  1  0.50000000  0.00000000  0.66773900  1
loop_
_geom_bond_atom_site_label_1
_geom_bond_atom_site_label_2
_geom_bond_distance
_geom_bond_site_symmetry_2
Li0 Si0 3.035531 1_555
Li0 Si0 3.035531 1_455
Li0 Mg1 3.039537 1_555
Li0 Mg0 3.039537 1_555
Li0 Mg3 3.056420 1_455
Li0 Mg4 3.056420 1_455
Li0 Mg4 3.056420 1_555
Li0 Mg3 3.056420 1_555
Li0 Mg2 3.106434 1_555
Li0 Mg2 3.106434 1_565
Li0 Mg7 3.172905 1_555
Li0 Mg6 3.172905 1_555
Li1 Si1 3.035531 1_455
Li1 Si1 3.035531 1_555
Li1 Mg7 3.039537 1_555
Li1 Mg6 3.039537 1_545
Li1 Mg9 3.056420 1_555
Li1 Mg10 3.056420 1_445
Li1 Mg10 3.056420 1_545
Li1 Mg9 3.056420 1_455
Li1 Mg8 3.106434 1_545
Li1 Mg8 3.106434 1_555
Li1 Mg0 3.172905 1_556
Li1 Mg1 3.172905 1_546
Mg0 Mg1 3.034032 1_555
Mg0 Si0 3.039350 1_555
Mg0 Si0 3.039350 1_455
Mg0 Mg5 3.075212 1_555
Mg0 Mg5 3.075212 1_455
Mg0 Mg9 3.088673 1_554
Mg0 Mg9 3.088673 1_454
Mg0 Mg8 3.101167 1_554
Mg0 Mg2 3.111751 1_555
Mg0 Mg1 3.178282 1_545
Mg1 Si0 3.039350 1_555
Mg1 Si0 3.039350 1_455
Mg1 Mg5 3.075212 1_565
Mg1 Mg5 3.075212 1_465
Mg1 Mg10 3.088673 1_454
Mg1 Mg10 3.088673 1_554
Mg1 Mg8 3.101167 1_554
Mg1 Mg2 3.111751 1_565
Mg2 Mg3 3.059780 1_545
Mg2 Mg4 3.059780 1_555
Mg2 Mg4 3.059780 1_455
Mg2 Mg3 3.059780 1_445
Mg2 Mg5 3.061193 1_555
Mg2 Mg5 3.061193 1_455
Mg2 Mg7 3.101167 1_555
Mg2 Mg6 3.101167 1_545
Mg3 Si0 3.069400 1_555
Mg3 Mg4 3.075878 1_555
Mg3 Mg5 3.087000 1_565
Mg3 Mg6 3.088673 1_655
Mg3 Mg6 3.088673 1_555
Mg3 Mg4 3.136436 1_565
Mg3 Si1 3.143043 1_565
Mg4 Si0 3.069400 1_555
Mg4 Mg5 3.087000 1_555
Mg4 Mg7 3.088673 1_655
Mg4 Mg7 3.088673 1_555
Mg4 Si1 3.143043 1_555
Mg5 Si0 3.106158 1_545
Mg5 Si0 3.106158 1_555
Mg5 Mg9 3.125703 1_554
Mg6 Mg7 3.034032 1_565
Mg6 Si1 3.039350 1_465
Mg6 Si1 3.039350 1_565
Mg6 Mg8 3.111751 1_555
Mg6 Mg7 3.178282 1_555
Mg7 Si1 3.039350 1_455
Mg7 Si1 3.039350 1_555
Mg7 Mg8 3.111751 1_555
Mg8 Mg9 3.059780 1_455
Mg8 Mg9 3.059780 1_555
Mg9 Si1 3.069400 1_555
Mg9 Si0 3.143043 1_556
Mg10 Mg8 3.059780 1_655
Mg10 Mg8 3.059780 1_555
Mg10 Si1 3.069400 1_565
Mg10 Mg9 3.075878 1_565
Mg10 Mg11 3.087000 1_555
Mg10 Mg5 3.125703 1_566
Mg10 Mg9 3.136436 1_555
Mg10 Si0 3.143043 1_556
Mg11 Mg8 3.061193 1_555
Mg11 Mg8 3.061193 1_655
Mg11 Mg6 3.075212 1_655
Mg11 Mg6 3.075212 1_555
Mg11 Mg7 3.075212 1_655
Mg11 Mg7 3.075212 1_555
Mg11 Mg9 3.087000 1_555
Mg11 Si1 3.106158 1_565
Mg11 Si1 3.106158 1_555
Mg11 Mg4 3.125703 1_555
Mg11 Mg3 3.125703 1_555
