# generated using pymatgen
data_Li4MnCo2O7
_symmetry_space_group_name_H-M   'P 1'
_cell_length_a   9.91015269
_cell_length_b   9.91015269
_cell_length_c   9.80847622
_cell_angle_alpha   66.78708034
_cell_angle_beta   66.78708034
_cell_angle_gamma   16.87596549
_symmetry_Int_Tables_number   1
_chemical_formula_structural   Li4MnCo2O7
_chemical_formula_sum   'Li8 Mn2 Co4 O14'
_cell_volume   256.48812209
_cell_formula_units_Z   2
loop_
 _symmetry_equiv_pos_site_id
 _symmetry_equiv_pos_as_xyz
  1  'x, y, z'
loop_
 _atom_site_type_symbol
 _atom_site_label
 _atom_site_symmetry_multiplicity
 _atom_site_fract_x
 _atom_site_fract_y
 _atom_site_fract_z
 _atom_site_occupancy
  Li  Li0  1  0.34229200  0.34229200  0.09493600  1
  Li  Li1  1  0.07832900  0.07832900  0.20887800  1
  Li  Li2  1  0.78462500  0.78462500  0.36033000  1
  Li  Li3  1  0.50094400  0.50094400  0.48842200  1
  Li  Li4  1  0.21845500  0.21845500  0.64277400  1
  Li  Li5  1  0.92233200  0.92233200  0.78654300  1
  Li  Li6  1  0.64761500  0.64761500  0.93063000  1
  Li  Li7  1  0.71202100  0.71202100  0.14603000  1
  Mn  Mn0  1  0.99953900  0.99953900  0.99830300  1
  Mn  Mn1  1  0.57586700  0.57586700  0.70332800  1
  Co  Co0  1  0.42442000  0.42442000  0.29030500  1
  Co  Co1  1  0.15119000  0.15119000  0.40381200  1
  Co  Co2  1  0.85854600  0.85854600  0.57883200  1
  Co  Co3  1  0.27640300  0.27640300  0.88128000  1
  O  O0  1  0.47782500  0.47782500  0.88260500  1
  O  O1  1  0.18268200  0.18268200  0.02465900  1
  O  O2  1  0.89408200  0.89408200  0.18433700  1
  O  O3  1  0.60748000  0.60748000  0.33056100  1
  O  O4  1  0.32558100  0.32558100  0.47288700  1
  O  O5  1  0.04171200  0.04171200  0.61591800  1
  O  O6  1  0.75769900  0.75769900  0.75807200  1
  O  O7  1  0.24395300  0.24395300  0.26536500  1
  O  O8  1  0.95870100  0.95870100  0.38634000  1
  O  O9  1  0.66947500  0.66947500  0.53919700  1
  O  O10  1  0.39199200  0.39199200  0.67203000  1
  O  O11  1  0.10724900  0.10724900  0.79971500  1
  O  O12  1  0.81856400  0.81856400  0.95744400  1
  O  O13  1  0.53042500  0.53042500  0.09646700  1
loop_
_geom_bond_atom_site_label_1
_geom_bond_atom_site_label_2
_geom_bond_distance
_geom_bond_site_symmetry_2
Li0 O7 1.985744 1_555
Li0 O2 2.150396 1_455
Li0 O2 2.150396 1_545
Li0 O12 2.156335 1_544
Li0 O12 2.156335 1_454
Li1 O3 2.099872 1_545
Li1 O3 2.099872 1_455
Li1 O1 2.122414 1_555
Li1 O13 2.244488 1_455
Li1 O13 2.244488 1_545
Li1 O8 2.297230 1_445
Li2 O7 2.051854 1_655
Li2 O7 2.051854 1_565
Li2 O2 2.152426 1_555
Li2 O4 2.164437 1_565
Li2 O4 2.164437 1_655
Li2 O9 2.240156 1_555
Li3 O3 2.045205 1_555
Li3 O8 2.112825 1_455
Li3 O8 2.112825 1_545
Li3 O10 2.177260 1_555
Li3 O5 2.261412 1_565
Li3 O5 2.261412 1_655
Li4 O4 2.097334 1_555
Li4 O11 2.109162 1_555
Li4 O6 2.163111 1_455
Li4 O6 2.163111 1_545
Li4 O9 2.201467 1_455
Li4 O9 2.201467 1_545
Li5 O12 2.056974 1_555
Li5 O10 2.064597 1_655
Li5 O10 2.064597 1_565
Li5 O0 2.236770 1_655
Li5 O0 2.236770 1_565
Li5 O5 2.270980 1_665
Li6 O1 1.985776 1_566
Li6 O1 1.985776 1_656
Li6 O6 2.147488 1_555
Li6 O13 2.224067 1_556
Li6 O11 2.280294 1_565
Li6 O11 2.280294 1_655
Li7 O1 2.099642 1_655
Li7 O1 2.099642 1_565
Li7 O7 2.112033 1_655
Li7 O7 2.112033 1_565
Li7 O3 2.126146 1_555
Li7 O12 2.169256 1_554
Mn0 O13 1.968017 1_656
Mn0 O13 1.968017 1_566
Mn0 O0 1.992178 1_565
Mn0 O0 1.992178 1_655
Mn0 O2 2.144254 1_556
Mn0 O11 2.230586 1_665
Mn1 O9 1.898768 1_555
Mn1 O5 1.937966 1_565
Mn1 O5 1.937966 1_655
Mn1 O11 1.962299 1_565
Mn1 O11 1.962299 1_655
Mn1 O0 2.023180 1_555
Co0 O8 1.989534 1_545
Co0 O8 1.989534 1_455
Co0 O2 2.010347 1_545
Co0 O2 2.010347 1_455
Co0 O4 2.048578 1_555
Co0 O13 2.187504 1_555
Co1 O7 1.784238 1_555
Co1 O3 1.963669 1_545
Co1 O3 1.963669 1_455
Co1 O9 2.094271 1_545
Co1 O9 2.094271 1_455
Co1 O5 2.318754 1_555
Co2 O10 1.964187 1_655
Co2 O10 1.964187 1_565
Co2 O4 2.036540 1_655
Co2 O4 2.036540 1_565
Co2 O6 2.056679 1_555
Co2 O8 2.113291 1_555
Co3 O1 1.815141 1_556
Co3 O12 1.961676 1_455
Co3 O12 1.961676 1_545
Co3 O6 2.015633 1_455
Co3 O6 2.015633 1_545
Co3 O10 2.375179 1_555
