# generated using pymatgen
data_NbFeP
_symmetry_space_group_name_H-M   'P 1'
_cell_length_a   3.58136827
_cell_length_b   6.13382601
_cell_length_c   6.91544631
_cell_angle_alpha   90.00000000
_cell_angle_beta   90.00000000
_cell_angle_gamma   90.00000000
_symmetry_Int_Tables_number   1
_chemical_formula_structural   NbFeP
_chemical_formula_sum   'Nb4 Fe4 P4'
_cell_volume   151.91499659
_cell_formula_units_Z   4
loop_
 _symmetry_equiv_pos_site_id
 _symmetry_equiv_pos_as_xyz
  1  'x, y, z'
loop_
 _atom_site_type_symbol
 _atom_site_label
 _atom_site_symmetry_multiplicity
 _atom_site_fract_x
 _atom_site_fract_y
 _atom_site_fract_z
 _atom_site_occupancy
  Nb  Nb0  1  0.25000000  0.52025345  0.17697926  1
  Nb  Nb1  1  0.75000000  0.47974655  0.82302074  1
  Nb  Nb2  1  0.75000000  0.97974655  0.67697926  1
  Nb  Nb3  1  0.25000000  0.02025345  0.32302074  1
  Fe  Fe0  1  0.25000000  0.64065181  0.56256558  1
  Fe  Fe1  1  0.75000000  0.35934819  0.43743442  1
  Fe  Fe2  1  0.75000000  0.85934819  0.06256558  1
  Fe  Fe3  1  0.25000000  0.14065181  0.93743442  1
  P  P0  1  0.25000000  0.78023177  0.88303331  1
  P  P1  1  0.75000000  0.21976823  0.11696669  1
  P  P2  1  0.75000000  0.71976823  0.38303331  1
  P  P3  1  0.25000000  0.28023177  0.61696669  1
loop_
_geom_bond_atom_site_label_1
_geom_bond_atom_site_label_2
_geom_bond_distance
_geom_bond_site_symmetry_2
Nb0 P0 2.583619 1_554
Nb0 P2 2.595132 1_555
Nb0 P2 2.595132 1_455
Nb0 P1 2.603054 1_555
Nb0 P1 2.603054 1_455
Nb1 P1 2.583619 1_556
Nb1 P3 2.595132 1_555
Nb1 P3 2.595132 1_655
Nb1 P0 2.603054 1_555
Nb1 P0 2.603054 1_655
Nb2 P2 2.583619 1_555
Nb2 P0 2.595132 1_555
Nb2 P0 2.595132 1_655
Nb2 P3 2.603054 1_565
Nb2 P3 2.603054 1_665
Nb3 P3 2.583619 1_555
Nb3 P1 2.595132 1_455
Nb3 P1 2.595132 1_555
Nb3 P2 2.603054 1_445
Nb3 P2 2.603054 1_545
Fe0 P2 2.232373 1_555
Fe0 P2 2.232373 1_455
Fe0 P3 2.242535 1_555
Fe0 P0 2.375805 1_555
Fe1 P3 2.232373 1_655
Fe1 P3 2.232373 1_555
Fe1 P2 2.242535 1_555
Fe1 P1 2.375805 1_555
Fe2 P0 2.232373 1_554
Fe2 P0 2.232373 1_654
Fe2 P1 2.242535 1_565
Fe2 P2 2.375805 1_555
Fe3 P1 2.232373 1_556
Fe3 P1 2.232373 1_456
Fe3 P0 2.242535 1_545
Fe3 P3 2.375805 1_555
