# generated using pymatgen
data_Cu8O7
_symmetry_space_group_name_H-M   'P 1'
_cell_length_a   5.93590687
_cell_length_b   5.93590687
_cell_length_c   5.93590687
_cell_angle_alpha   60.00000000
_cell_angle_beta   60.00000000
_cell_angle_gamma   60.00000000
_symmetry_Int_Tables_number   1
_chemical_formula_structural   Cu8O7
_chemical_formula_sum   'Cu8 O7'
_cell_volume   147.89252976
_cell_formula_units_Z   1
loop_
 _symmetry_equiv_pos_site_id
 _symmetry_equiv_pos_as_xyz
  1  'x, y, z'
loop_
 _atom_site_type_symbol
 _atom_site_label
 _atom_site_symmetry_multiplicity
 _atom_site_fract_x
 _atom_site_fract_y
 _atom_site_fract_z
 _atom_site_occupancy
  Cu  Cu0  1  0.75000000  0.75000000  0.75000000  1
  Cu  Cu1  1  0.25755400  0.25755400  0.74244600  1
  Cu  Cu2  1  0.25755400  0.74244600  0.74244600  1
  Cu  Cu3  1  0.74244600  0.25755400  0.25755400  1
  Cu  Cu4  1  0.25755400  0.74244600  0.25755400  1
  Cu  Cu5  1  0.74244600  0.25755400  0.74244600  1
  Cu  Cu6  1  0.25000000  0.25000000  0.25000000  1
  Cu  Cu7  1  0.74244600  0.74244600  0.25755400  1
  O  O0  1  0.00000000  0.50000000  0.00000000  1
  O  O1  1  0.50000000  0.50000000  0.00000000  1
  O  O2  1  0.00000000  0.50000000  0.50000000  1
  O  O3  1  0.50000000  0.00000000  0.50000000  1
  O  O4  1  0.00000000  0.00000000  0.50000000  1
  O  O5  1  0.50000000  0.00000000  0.00000000  1
  O  O6  1  0.00000000  0.00000000  0.00000000  1
loop_
_geom_bond_atom_site_label_1
_geom_bond_atom_site_label_2
_geom_bond_distance
_geom_bond_site_symmetry_2
Cu0 O3 2.098660 1_565
Cu0 O0 2.098660 1_656
Cu0 O1 2.098660 1_556
Cu0 O5 2.098660 1_566
Cu0 O2 2.098660 1_655
Cu0 O4 2.098660 1_665
Cu1 O2 2.099618 1_555
Cu1 O3 2.099618 1_555
Cu1 O0 2.099618 1_556
Cu1 O5 2.099618 1_556
Cu1 O6 2.162073 1_556
Cu2 O4 2.099618 1_565
Cu2 O3 2.099618 1_565
Cu2 O0 2.099618 1_556
Cu2 O1 2.099618 1_556
Cu2 O6 2.162073 1_566
Cu3 O0 2.099618 1_655
Cu3 O4 2.099618 1_655
Cu3 O1 2.099618 1_555
Cu3 O3 2.099618 1_555
Cu3 O6 2.162073 1_655
Cu4 O4 2.099618 1_565
Cu4 O2 2.099618 1_555
Cu4 O5 2.099618 1_565
Cu4 O1 2.099618 1_555
Cu4 O6 2.162073 1_565
Cu5 O2 2.099618 1_655
Cu5 O1 2.099618 1_556
Cu5 O4 2.099618 1_655
Cu5 O5 2.099618 1_556
Cu5 O6 2.162073 1_656
Cu6 O4 2.098660 1_555
Cu6 O1 2.098660 1_555
Cu6 O5 2.098660 1_555
Cu6 O2 2.098660 1_555
Cu6 O0 2.098660 1_555
Cu6 O3 2.098660 1_555
Cu7 O2 2.099618 1_655
Cu7 O3 2.099618 1_565
Cu7 O0 2.099618 1_655
Cu7 O5 2.099618 1_565
Cu7 O6 2.162073 1_665
