# generated using pymatgen
data_Eu2Si3Ag
_symmetry_space_group_name_H-M   'P 1'
_cell_length_a   8.39621673
_cell_length_b   8.39740137
_cell_length_c   9.80690824
_cell_angle_alpha   77.64265984
_cell_angle_beta   64.65444195
_cell_angle_gamma   60.00467003
_symmetry_Int_Tables_number   1
_chemical_formula_structural   Eu2Si3Ag
_chemical_formula_sum   'Eu8 Si12 Ag4'
_cell_volume   541.19828934
_cell_formula_units_Z   4
loop_
 _symmetry_equiv_pos_site_id
 _symmetry_equiv_pos_as_xyz
  1  'x, y, z'
loop_
 _atom_site_type_symbol
 _atom_site_label
 _atom_site_symmetry_multiplicity
 _atom_site_fract_x
 _atom_site_fract_y
 _atom_site_fract_z
 _atom_site_occupancy
  Eu  Eu0  1  0.24829060  0.25000000  0.50341880  1
  Eu  Eu1  1  0.00170940  0.25000000  0.99658120  1
  Eu  Eu2  1  0.75170940  0.75000000  0.49658120  1
  Eu  Eu3  1  0.99829060  0.75000000  0.00341880  1
  Eu  Eu4  1  0.74940744  0.25000000  0.50118512  1
  Eu  Eu5  1  0.50059256  0.25000000  0.99881488  1
  Eu  Eu6  1  0.25059256  0.75000000  0.49881488  1
  Eu  Eu7  1  0.49940744  0.75000000  0.00118512  1
  Si  Si0  1  0.28664141  0.92671717  0.75000000  1
  Si  Si1  1  0.96335859  0.57328283  0.75000000  1
  Si  Si2  1  0.71335859  0.07328283  0.25000000  1
  Si  Si3  1  0.03664141  0.42671717  0.25000000  1
  Si  Si4  1  0.96614363  0.08844464  0.74584666  1
  Si  Si5  1  0.80043493  0.41155536  0.75415334  1
  Si  Si6  1  0.44541173  0.08844464  0.75415334  1
  Si  Si7  1  0.28800971  0.41155536  0.74584666  1
  Si  Si8  1  0.03385637  0.91155536  0.25415334  1
  Si  Si9  1  0.19956507  0.58844464  0.24584666  1
  Si  Si10  1  0.55458827  0.91155536  0.24584666  1
  Si  Si11  1  0.71199029  0.58844464  0.25415334  1
  Ag  Ag0  1  0.45808375  0.58383250  0.75000000  1
  Ag  Ag1  1  0.79191625  0.91616750  0.75000000  1
  Ag  Ag2  1  0.54191625  0.41616750  0.25000000  1
  Ag  Ag3  1  0.20808375  0.08383250  0.25000000  1
loop_
_geom_bond_atom_site_label_1
_geom_bond_atom_site_label_2
_geom_bond_distance
_geom_bond_site_symmetry_2
Eu0 Si7 3.180526 1_555
Eu0 Si4 3.180526 1_455
Eu0 Si0 3.209979 1_545
Eu0 Si1 3.209979 1_455
Eu0 Si6 3.230717 1_555
Eu0 Si5 3.230718 1_455
Eu0 Si3 3.332034 1_555
Eu0 Si2 3.332034 1_555
Eu0 Si9 3.357788 1_555
Eu0 Si10 3.357788 1_545
Eu1 Si5 3.180526 1_455
Eu1 Si6 3.180526 1_555
Eu1 Si1 3.209979 1_455
Eu1 Si0 3.209979 1_545
Eu1 Si4 3.230717 1_455
Eu1 Si7 3.230717 1_555
Eu1 Si3 3.332034 1_556
Eu1 Si2 3.332034 1_456
Eu1 Si11 3.357788 1_456
Eu1 Si8 3.357788 1_546
Eu2 Si11 3.180526 1_555
Eu2 Si8 3.180526 1_655
Eu2 Si2 3.209979 1_565
Eu2 Si3 3.209979 1_655
Eu2 Si10 3.230717 1_555
Eu2 Si9 3.230718 1_655
Eu2 Si1 3.332034 1_555
Eu2 Si0 3.332034 1_555
Eu2 Si5 3.357788 1_555
Eu2 Si6 3.357788 1_565
Eu3 Si9 3.180526 1_655
Eu3 Si10 3.180526 1_555
Eu3 Si3 3.209979 1_655
Eu3 Si2 3.209979 1_565
Eu3 Si8 3.230717 1_655
Eu3 Si11 3.230717 1_555
Eu3 Si1 3.332034 1_554
Eu3 Si0 3.332034 1_654
Eu3 Si7 3.357788 1_654
Eu3 Si4 3.357788 1_564
Eu4 Si4 3.284140 1_555
Eu4 Si7 3.284140 1_555
Eu4 Si8 3.294988 1_645
Eu4 Si11 3.294988 1_555
Eu4 Si2 3.318722 1_555
Eu4 Si3 3.318722 1_655
Eu4 Si5 3.333208 1_555
Eu4 Si6 3.333209 1_555
Eu5 Si6 3.284140 1_555
Eu5 Si5 3.284140 1_555
Eu5 Si10 3.294988 1_546
Eu5 Si9 3.294988 1_556
Eu5 Si2 3.318722 1_556
Eu5 Si3 3.318722 1_556
Eu5 Si7 3.333208 1_555
Eu5 Si4 3.333209 1_555
Eu6 Si8 3.284140 1_555
Eu6 Si11 3.284140 1_555
Eu6 Si4 3.294988 1_465
Eu6 Si7 3.294988 1_555
Eu6 Si0 3.318722 1_555
Eu6 Si1 3.318722 1_455
Eu6 Si9 3.333208 1_555
Eu6 Si10 3.333209 1_555
Eu7 Si10 3.284140 1_555
Eu7 Si9 3.284140 1_555
Eu7 Si6 3.294988 1_564
Eu7 Si5 3.294988 1_554
Eu7 Si0 3.318722 1_554
Eu7 Si1 3.318722 1_554
Eu7 Si11 3.333208 1_555
Eu7 Si8 3.333209 1_555
Si0 Si6 2.345950 1_565
Si0 Si4 2.345950 1_465
Si1 Si5 2.345950 1_555
Si1 Si7 2.345950 1_655
Si2 Si8 2.345950 1_645
Si3 Si9 2.345950 1_555
Si4 Si5 2.351042 1_555
Si6 Si7 2.351042 1_555
Si8 Si9 2.351042 1_555
Si10 Si2 2.345950 1_565
Si10 Si11 2.351042 1_555
Si11 Si3 2.345950 1_655
Ag0 Si0 2.493699 1_555
Ag0 Si7 2.504839 1_555
Ag0 Si5 2.504839 1_555
Ag0 Eu5 3.279871 1_555
Ag0 Eu4 3.279871 1_555
Ag0 Eu7 3.289770 1_556
Ag0 Eu6 3.289770 1_555
Ag0 Eu2 3.303199 1_555
Ag0 Eu3 3.303199 1_456
Ag1 Si1 2.493699 1_555
Ag1 Si4 2.504839 1_565
Ag1 Si6 2.504839 1_565
Ag1 Eu4 3.279871 1_565
Ag1 Eu5 3.279871 1_565
Ag1 Eu7 3.289770 1_556
Ag1 Eu6 3.289770 1_655
Ag1 Eu2 3.303199 1_555
Ag1 Eu3 3.303199 1_556
Ag2 Si2 2.493699 1_555
Ag2 Si11 2.504839 1_555
Ag2 Si9 2.504839 1_555
Ag2 Eu7 3.279871 1_555
Ag2 Eu6 3.279871 1_555
Ag2 Eu5 3.289770 1_554
Ag2 Eu4 3.289770 1_555
Ag2 Eu0 3.303199 1_555
Ag2 Eu1 3.303199 1_654
Ag3 Si3 2.493699 1_555
Ag3 Si8 2.504839 1_545
Ag3 Si10 2.504839 1_545
Ag3 Eu6 3.279871 1_545
Ag3 Eu7 3.279871 1_545
Ag3 Eu5 3.289770 1_554
Ag3 Eu4 3.289770 1_455
Ag3 Eu0 3.303199 1_555
Ag3 Eu1 3.303199 1_554
