# generated using pymatgen
data_MnC2S2(NO6)2
_symmetry_space_group_name_H-M   'P 1'
_cell_length_a   6.90725200
_cell_length_b   7.13769334
_cell_length_c   7.45854012
_cell_angle_alpha   76.39338575
_cell_angle_beta   84.91176660
_cell_angle_gamma   78.22934894
_symmetry_Int_Tables_number   1
_chemical_formula_structural   MnC2S2(NO6)2
_chemical_formula_sum   'Mn1 C2 S2 N2 O12'
_cell_volume   349.56371210
_cell_formula_units_Z   1
loop_
 _symmetry_equiv_pos_site_id
 _symmetry_equiv_pos_as_xyz
  1  'x, y, z'
loop_
 _atom_site_type_symbol
 _atom_site_label
 _atom_site_symmetry_multiplicity
 _atom_site_fract_x
 _atom_site_fract_y
 _atom_site_fract_z
 _atom_site_occupancy
  Mn  Mn0  1  0.00000000  0.00000000  0.00000000  1
  C  C0  1  0.50799400  0.56443600  0.41685400  1
  C  C1  1  0.49200600  0.43556400  0.58314600  1
  S  S0  1  0.21242100  0.19301200  0.24003300  1
  S  S1  1  0.78757900  0.80698800  0.75996700  1
  N  N0  1  0.47923600  0.32514900  0.72547400  1
  N  N1  1  0.52076400  0.67485100  0.27452600  1
  O  O0  1  0.38776400  0.27852000  0.22217900  1
  O  O1  1  0.61223600  0.72148000  0.77782100  1
  O  O2  1  0.23253200  0.99437000  0.37129400  1
  O  O3  1  0.76746800  0.00563000  0.62870600  1
  O  O4  1  0.03665500  0.30622100  0.32300200  1
  O  O5  1  0.96334500  0.69377900  0.67699800  1
  O  O6  1  0.17207700  0.17080600  0.04908800  1
  O  O7  1  0.82792300  0.82919400  0.95091200  1
  O  O8  1  0.81375900  0.07056500  0.16516000  1
  O  O9  1  0.18624100  0.92943500  0.83484000  1
  O  O10  1  0.92382600  0.18736700  0.79341500  1
  O  O11  1  0.07617400  0.81263300  0.20658500  1
loop_
_geom_bond_atom_site_label_1
_geom_bond_atom_site_label_2
_geom_bond_distance
_geom_bond_site_symmetry_2
Mn0 O9 1.781150 1_544
Mn0 O8 1.781150 1_455
Mn0 O11 1.823922 1_545
Mn0 O10 1.823922 1_454
Mn0 O6 1.977760 1_555
Mn0 O7 1.977760 1_444
C0 N1 1.172142 1_555
C1 N0 1.172142 1_555
O0 S0 1.446315 1_555
O1 S1 1.446315 1_555
O2 S0 1.509540 1_565
O3 S1 1.509540 1_545
O4 S0 1.487145 1_555
O5 S1 1.487145 1_555
O6 S0 1.525013 1_555
O7 S1 1.525013 1_555
