# generated using pymatgen
data_MgTa4Mn4Nb4O24
_symmetry_space_group_name_H-M   'P 1'
_cell_length_a   5.18301263
_cell_length_b   5.94701903
_cell_length_c   14.66484485
_cell_angle_alpha   89.99971262
_cell_angle_beta   89.97209998
_cell_angle_gamma   89.99976049
_symmetry_Int_Tables_number   1
_chemical_formula_structural   MgTa4Mn4Nb4O24
_chemical_formula_sum   'Mg1 Ta4 Mn4 Nb4 O24'
_cell_volume   452.02142084
_cell_formula_units_Z   1
loop_
 _symmetry_equiv_pos_site_id
 _symmetry_equiv_pos_as_xyz
  1  'x, y, z'
loop_
 _atom_site_type_symbol
 _atom_site_label
 _atom_site_symmetry_multiplicity
 _atom_site_fract_x
 _atom_site_fract_y
 _atom_site_fract_z
 _atom_site_occupancy
  Mg  Mg0  1  0.74999920  0.42742111  -0.00000081  1
  Ta  Ta0  1  0.26036974  0.67671455  0.15786176  1
  Ta  Ta1  1  0.76646505  0.81504792  0.34080447  1
  Ta  Ta2  1  0.73353336  0.81504446  0.65919447  1
  Ta  Ta3  1  0.23962979  0.67671521  0.84213825  1
  Mn  Mn0  1  0.25000032  0.17285520  -0.00000022  1
  Mn  Mn1  1  0.74999883  0.31637257  0.50000059  1
  Mn  Mn2  1  0.75000126  0.89404446  -0.00000006  1
  Mn  Mn3  1  0.24999901  0.65634252  0.49999959  1
  Nb  Nb0  1  0.73569526  0.32996504  0.81370736  1
  Nb  Nb1  1  0.23834494  0.15997769  0.65983226  1
  Nb  Nb2  1  0.26165591  0.15997797  0.34016892  1
  Nb  Nb3  1  0.76430588  0.32996548  0.18629150  1
  O  O0  1  0.90444058  0.10712997  0.74056335  1
  O  O1  1  0.38598983  0.37593967  0.75861040  1
  O  O2  1  0.11401175  0.37594077  0.24139020  1
  O  O3  1  0.59556280  0.10713035  0.25943737  1
  O  O4  1  0.08808827  0.85898111  0.25452638  1
  O  O5  1  0.59606202  0.62117757  0.24279609  1
  O  O6  1  0.90393513  0.62117690  0.75720368  1
  O  O7  1  0.41191095  0.85898324  0.74547364  1
  O  O8  1  0.60226518  0.17333715  0.92019163  1
  O  O9  1  0.09619074  0.36178907  0.58025899  1
  O  O10  1  0.40380779  0.36179125  0.41974050  1
  O  O11  1  0.89773545  0.17333395  0.07980934  1
  O  O12  1  0.40523153  0.89338577  0.08314434  1
  O  O13  1  0.90301437  0.60074506  0.41733374  1
  O  O14  1  0.59698670  0.60074261  0.58266626  1
  O  O15  1  0.09477029  0.89338567  0.91685523  1
  O  O16  1  0.04576952  0.41540357  0.90432189  1
  O  O17  1  0.57037637  0.07936070  0.59767210  1
  O  O18  1  0.92962254  0.07936147  0.40232820  1
  O  O19  1  0.45423112  0.41540293  0.09567883  1
  O  O20  1  0.94449823  0.62410561  0.09152032  1
  O  O21  1  0.44001879  0.87654773  0.40066447  1
  O  O22  1  0.05998061  0.87654818  0.59933624  1
  O  O23  1  0.55550091  0.62410551  0.90847874  1
loop_
_geom_bond_atom_site_label_1
_geom_bond_atom_site_label_2
_geom_bond_distance
_geom_bond_site_symmetry_2
Mg0 O23 2.046220 1_554
Mg0 O20 2.046242 1_555
Mg0 O8 2.059177 1_554
Mg0 O11 2.059204 1_555
Mg0 O16 2.078873 1_654
Mg0 O19 2.078888 1_555
Mn0 O8 2.168231 1_554
Mn0 O11 2.168242 1_455
Mn0 O12 2.212967 1_545
Mn0 O15 2.212980 1_544
Mn0 O16 2.274033 1_554
Mn0 O19 2.274056 1_555
Mn1 O9 2.163299 1_655
Mn1 O10 2.163307 1_555
Mn1 O17 2.214441 1_555
Mn1 O18 2.214453 1_555
Mn1 O14 2.226577 1_555
Mn1 O13 2.226600 1_555
Mn2 O15 2.162813 1_654
Mn2 O12 2.162813 1_555
Mn2 O8 2.171574 1_564
Mn2 O11 2.171578 1_565
Mn2 O20 2.322911 1_555
Mn2 O23 2.322941 1_554
Mn3 O21 2.192169 1_555
Mn3 O22 2.192187 1_555
Mn3 O13 2.194406 1_455
Mn3 O14 2.194424 1_555
Mn3 O10 2.255742 1_555
Mn3 O9 2.255749 1_555
Nb0 O0 1.915925 1_555
Nb0 O8 1.945086 1_555
Nb0 O1 2.003566 1_555
Nb0 O6 2.108446 1_555
Nb0 O16 2.146842 1_655
Nb0 O23 2.421256 1_555
Nb1 O9 1.829158 1_555
Nb1 O17 2.005208 1_555
Nb1 O1 2.081959 1_555
Nb1 O22 2.117460 1_545
Nb1 O0 2.119789 1_455
Nb1 O7 2.364706 1_545
Nb2 O10 1.829156 1_555
Nb2 O18 2.005211 1_455
Nb2 O2 2.081954 1_555
Nb2 O21 2.117444 1_545
Nb2 O3 2.119803 1_555
Nb2 O4 2.364744 1_545
Nb3 O3 1.915932 1_555
Nb3 O11 1.945075 1_555
Nb3 O2 2.003582 1_655
Nb3 O5 2.108462 1_555
Nb3 O19 2.146819 1_555
Nb3 O20 2.421244 1_555
O0 Ta2 2.286243 1_545
O1 Ta3 2.296629 1_555
O2 Ta0 2.296618 1_555
O3 Ta1 2.286190 1_545
O4 Ta0 1.995132 1_555
O4 Ta1 2.108528 1_455
O5 Ta1 2.043616 1_555
O5 Ta0 2.165599 1_555
O6 Ta2 2.043600 1_555
O6 Ta3 2.165617 1_655
O7 Ta3 1.995132 1_555
O7 Ta2 2.108538 1_555
O12 Ta0 1.850373 1_555
O13 Ta1 1.839955 1_555
O14 Ta2 1.839948 1_555
O15 Ta3 1.850365 1_555
O16 Ta3 2.062831 1_555
O17 Ta2 2.000169 1_545
O18 Ta1 2.000179 1_545
O19 Ta0 2.062829 1_555
O20 Ta0 1.930354 1_655
O21 Ta1 1.940540 1_555
O22 Ta2 1.940538 1_455
O23 Ta3 1.930342 1_555
