# generated using pymatgen
data_CrH12(CF)8
_symmetry_space_group_name_H-M   'P 1'
_cell_length_a   7.08507135
_cell_length_b   7.08507135
_cell_length_c   7.08507135
_cell_angle_alpha   60.00000000
_cell_angle_beta   60.00000000
_cell_angle_gamma   60.00000000
_symmetry_Int_Tables_number   1
_chemical_formula_structural   CrH12(CF)8
_chemical_formula_sum   'Cr1 H12 C8 F8'
_cell_volume   251.48824343
_cell_formula_units_Z   1
loop_
 _symmetry_equiv_pos_site_id
 _symmetry_equiv_pos_as_xyz
  1  'x, y, z'
loop_
 _atom_site_type_symbol
 _atom_site_label
 _atom_site_symmetry_multiplicity
 _atom_site_fract_x
 _atom_site_fract_y
 _atom_site_fract_z
 _atom_site_occupancy
  Cr  Cr0  1  0.00000000  0.00000000  0.00000000  1
  H  H0  1  0.26319300  0.00000000  0.00000000  1
  H  H1  1  0.73680700  0.00000000  0.00000000  1
  H  H2  1  0.00000000  0.26319300  0.73680700  1
  H  H3  1  0.00000000  0.73680700  0.26319300  1
  H  H4  1  0.00000000  0.26319300  0.00000000  1
  H  H5  1  0.73680700  0.00000000  0.26319300  1
  H  H6  1  0.00000000  0.73680700  0.00000000  1
  H  H7  1  0.26319300  0.00000000  0.73680700  1
  H  H8  1  0.00000000  0.00000000  0.26319300  1
  H  H9  1  0.00000000  0.00000000  0.73680700  1
  H  H10  1  0.73680700  0.26319300  0.00000000  1
  H  H11  1  0.26319300  0.73680700  0.00000000  1
  C  C0  1  0.25000000  0.25000000  0.25000000  1
  C  C1  1  0.75000000  0.75000000  0.75000000  1
  C  C2  1  0.80123100  0.19876900  0.19876900  1
  C  C3  1  0.19876900  0.80123100  0.80123100  1
  C  C4  1  0.19876900  0.80123100  0.19876900  1
  C  C5  1  0.80123100  0.19876900  0.80123100  1
  C  C6  1  0.19876900  0.19876900  0.80123100  1
  C  C7  1  0.80123100  0.80123100  0.19876900  1
  F  F0  1  0.32727800  0.32727800  0.32727800  1
  F  F1  1  0.67272200  0.67272200  0.67272200  1
  F  F2  1  0.32727800  0.32727800  0.01816600  1
  F  F3  1  0.32727800  0.01816600  0.32727800  1
  F  F4  1  0.67272200  0.67272200  0.98183400  1
  F  F5  1  0.67272200  0.98183400  0.67272200  1
  F  F6  1  0.01816600  0.32727800  0.32727800  1
  F  F7  1  0.98183400  0.67272200  0.67272200  1
loop_
_geom_bond_atom_site_label_1
_geom_bond_atom_site_label_2
_geom_bond_distance
_geom_bond_site_symmetry_2
Cr0 H11 1.864741 1_545
Cr0 H8 1.864741 1_555
Cr0 H5 1.864741 1_455
Cr0 H10 1.864741 1_455
Cr0 H0 1.864741 1_555
Cr0 H7 1.864741 1_554
Cr0 H6 1.864741 1_545
Cr0 H3 1.864741 1_545
Cr0 H1 1.864741 1_455
Cr0 H2 1.864741 1_554
Cr0 H4 1.864741 1_555
Cr0 H9 1.864741 1_554
C0 F3 1.341145 1_555
C0 F6 1.341145 1_555
C0 F2 1.341145 1_555
C0 F0 1.341145 1_555
C1 F1 1.341145 1_555
C1 F7 1.341145 1_555
C1 F5 1.341145 1_555
C1 F4 1.341145 1_555
C2 H4 1.480417 1_655
C2 H8 1.480417 1_655
C2 H5 1.480417 1_555
C2 H10 1.480417 1_555
C2 Cr0 1.991626 1_655
C3 H7 1.480417 1_565
C3 H6 1.480417 1_556
C3 H11 1.480417 1_556
C3 H9 1.480417 1_565
C3 Cr0 1.991626 1_566
C4 H8 1.480417 1_565
C4 H0 1.480417 1_565
C4 H3 1.480417 1_555
C4 H11 1.480417 1_555
C4 Cr0 1.991626 1_565
C5 H9 1.480417 1_655
C5 H2 1.480417 1_655
C5 H1 1.480417 1_556
C5 H10 1.480417 1_556
C5 Cr0 1.991626 1_656
C6 H4 1.480417 1_556
C6 H0 1.480417 1_556
C6 H7 1.480417 1_555
C6 H2 1.480417 1_555
C6 Cr0 1.991626 1_556
C7 H3 1.480417 1_655
C7 H1 1.480417 1_565
C7 H5 1.480417 1_565
C7 H6 1.480417 1_655
C7 Cr0 1.991626 1_665
