# generated using pymatgen
data_Nd(SiIr)2
_symmetry_space_group_name_H-M   'P 1'
_cell_length_a   5.81578893
_cell_length_b   5.81578893
_cell_length_c   5.81578893
_cell_angle_alpha   137.15259967
_cell_angle_beta   137.15259967
_cell_angle_gamma   62.20334255
_symmetry_Int_Tables_number   1
_chemical_formula_structural   Nd(SiIr)2
_chemical_formula_sum   'Nd1 Si2 Ir2'
_cell_volume   89.88685989
_cell_formula_units_Z   1
loop_
 _symmetry_equiv_pos_site_id
 _symmetry_equiv_pos_as_xyz
  1  'x, y, z'
loop_
 _atom_site_type_symbol
 _atom_site_label
 _atom_site_symmetry_multiplicity
 _atom_site_fract_x
 _atom_site_fract_y
 _atom_site_fract_z
 _atom_site_occupancy
  Nd  Nd0  1  0.00000000  0.00000000  0.00000000  1
  Si  Si0  1  0.25000000  0.75000000  0.50000000  1
  Si  Si1  1  0.75000000  0.25000000  0.50000000  1
  Ir  Ir0  1  0.63342700  0.63342700  0.00000000  1
  Ir  Ir1  1  0.36657300  0.36657300  0.00000000  1
loop_
_geom_bond_atom_site_label_1
_geom_bond_atom_site_label_2
_geom_bond_distance
_geom_bond_site_symmetry_2
Nd0 Si1 3.272941 1_455
Nd0 Si1 3.272941 1_454
Nd0 Si1 3.272941 1_444
Nd0 Si0 3.272941 1_544
Nd0 Si0 3.272941 1_545
Nd0 Si0 3.272941 1_555
Nd0 Si1 3.272941 1_555
Nd0 Si0 3.272941 1_444
Ir0 Si0 2.420857 1_554
Ir0 Si1 2.420857 1_565
Ir0 Si1 2.420857 1_554
Ir0 Si0 2.420857 1_655
Ir0 Nd0 3.284979 1_666
Ir0 Nd0 3.284979 1_655
Ir0 Nd0 3.284979 1_565
Ir0 Nd0 3.284979 1_554
Ir1 Si0 2.420857 1_544
Ir1 Si0 2.420857 1_555
Ir1 Si1 2.420857 1_555
Ir1 Si1 2.420857 1_454
Ir1 Nd0 3.284979 1_554
Ir1 Nd0 3.284979 1_565
Ir1 Nd0 3.284979 1_655
Ir1 Nd0 3.284979 1_666
