# generated using pymatgen
data_FeP2(PbO5)2
_symmetry_space_group_name_H-M   'P 1'
_cell_length_a   7.64095000
_cell_length_b   4.73636700
_cell_length_c   11.05868062
_cell_angle_alpha   89.57472883
_cell_angle_beta   90.00000000
_cell_angle_gamma   90.00000000
_symmetry_Int_Tables_number   1
_chemical_formula_structural   FeP2(PbO5)2
_chemical_formula_sum   'Fe2 P4 Pb4 O20'
_cell_volume   400.20642520
_cell_formula_units_Z   2
loop_
 _symmetry_equiv_pos_site_id
 _symmetry_equiv_pos_as_xyz
  1  'x, y, z'
loop_
 _atom_site_type_symbol
 _atom_site_label
 _atom_site_symmetry_multiplicity
 _atom_site_fract_x
 _atom_site_fract_y
 _atom_site_fract_z
 _atom_site_occupancy
  Fe  Fe0  1  0.00000000  0.00000000  0.00000000  1
  Fe  Fe1  1  0.50000000  0.00000000  0.50000000  1
  P  P0  1  0.24650300  0.50107200  0.39603400  1
  P  P1  1  0.75349700  0.49892800  0.60396600  1
  P  P2  1  0.74650300  0.49892800  0.10396600  1
  P  P3  1  0.25349700  0.50107200  0.89603400  1
  Pb  Pb0  1  0.39726400  0.98839000  0.18231500  1
  Pb  Pb1  1  0.60273600  0.01161000  0.81768500  1
  Pb  Pb2  1  0.89726400  0.01161000  0.31768500  1
  Pb  Pb3  1  0.10273600  0.98839000  0.68231500  1
  O  O0  1  0.38759700  0.26414800  0.38146000  1
  O  O1  1  0.61240300  0.73585200  0.61854000  1
  O  O2  1  0.88759700  0.73585200  0.11854000  1
  O  O3  1  0.11240300  0.26414800  0.88146000  1
  O  O4  1  0.79177600  0.28171500  0.00482100  1
  O  O5  1  0.20822400  0.71828500  0.99517900  1
  O  O6  1  0.29177600  0.71828500  0.49517900  1
  O  O7  1  0.70822400  0.28171500  0.50482100  1
  O  O8  1  0.22854000  0.65305600  0.27225800  1
  O  O9  1  0.77146000  0.34694400  0.72774200  1
  O  O10  1  0.72854000  0.34694400  0.22774200  1
  O  O11  1  0.27146000  0.65305600  0.77225800  1
  O  O12  1  0.07151200  0.34764500  0.42673800  1
  O  O13  1  0.92848800  0.65235500  0.57326200  1
  O  O14  1  0.57151200  0.65235500  0.07326200  1
  O  O15  1  0.42848800  0.34764500  0.92673800  1
  O  O16  1  0.10457500  0.14934200  0.13620000  1
  O  O17  1  0.89542500  0.85065800  0.86380000  1
  O  O18  1  0.60457500  0.85065800  0.36380000  1
  O  O19  1  0.39542500  0.14934200  0.63620000  1
loop_
_geom_bond_atom_site_label_1
_geom_bond_atom_site_label_2
_geom_bond_distance
_geom_bond_site_symmetry_2
Fe0 O17 1.850201 1_444
Fe0 O16 1.850201 1_555
Fe0 O3 1.999252 1_554
Fe0 O2 1.999252 1_445
Fe0 O4 2.077413 1_455
Fe0 O5 2.077413 1_544
Fe1 O18 1.850201 1_545
Fe1 O19 1.850201 1_555
Fe1 O0 1.999252 1_555
Fe1 O1 1.999252 1_545
Fe1 O7 2.077413 1_555
Fe1 O6 2.077413 1_545
O0 P0 1.565306 1_555
O0 Pb0 2.569839 1_545
O1 P1 1.565306 1_555
O1 Pb1 2.569839 1_565
O2 P2 1.565306 1_555
O2 Pb2 2.569839 1_565
O3 P3 1.565306 1_555
O3 Pb3 2.569839 1_545
O4 P2 1.548213 1_555
O5 P3 1.548213 1_555
O6 P0 1.548213 1_555
O7 P1 1.548213 1_555
O8 P0 1.547905 1_555
O8 Pb0 2.269478 1_555
O9 P1 1.547905 1_555
O9 Pb1 2.269478 1_555
O10 P2 1.547905 1_555
O10 Pb2 2.269478 1_555
O11 P3 1.547905 1_555
O11 Pb3 2.269478 1_555
O12 P0 1.558054 1_555
O12 Pb2 2.405974 1_455
O13 P1 1.558054 1_555
O13 Pb3 2.405974 1_655
O14 P2 1.558054 1_555
O14 Pb0 2.405974 1_555
O15 P3 1.558054 1_555
O15 Pb1 2.405974 1_555
O16 Pb0 2.415994 1_545
O16 Pb2 2.635021 1_455
O17 Pb1 2.415994 1_565
O17 Pb3 2.635021 1_655
O18 Pb2 2.415994 1_565
O18 Pb0 2.635021 1_555
O19 Pb3 2.415994 1_545
O19 Pb1 2.635021 1_555
