# generated using pymatgen
data_NaMg14Si
_symmetry_space_group_name_H-M   'P 1'
_cell_length_a   6.30265042
_cell_length_b   6.30264992
_cell_length_c   10.47798811
_cell_angle_alpha   90.00000000
_cell_angle_beta   90.00000000
_cell_angle_gamma   120.00000261
_symmetry_Int_Tables_number   1
_chemical_formula_structural   NaMg14Si
_chemical_formula_sum   'Na1 Mg14 Si1'
_cell_volume   360.45821362
_cell_formula_units_Z   1
loop_
 _symmetry_equiv_pos_site_id
 _symmetry_equiv_pos_as_xyz
  1  'x, y, z'
loop_
 _atom_site_type_symbol
 _atom_site_label
 _atom_site_symmetry_multiplicity
 _atom_site_fract_x
 _atom_site_fract_y
 _atom_site_fract_z
 _atom_site_occupancy
  Na  Na0  1  0.16666700  0.33333300  0.62500000  1
  Mg  Mg0  1  0.16320442  0.83160171  0.12500000  1
  Mg  Mg1  1  0.17097421  0.83548661  0.62500000  1
  Mg  Mg2  1  0.66839829  0.33679558  0.12500000  1
  Mg  Mg3  1  0.66451339  0.32902579  0.62500000  1
  Mg  Mg4  1  0.66839829  0.83160171  0.12500000  1
  Mg  Mg5  1  0.66451339  0.83548661  0.62500000  1
  Mg  Mg6  1  0.33240942  0.16759058  0.36814146  1
  Mg  Mg7  1  0.33240942  0.16759058  0.88185854  1
  Mg  Mg8  1  0.33240942  0.66481985  0.36814146  1
  Mg  Mg9  1  0.33240942  0.66481985  0.88185854  1
  Mg  Mg10  1  0.83518015  0.16759058  0.36814146  1
  Mg  Mg11  1  0.83518015  0.16759058  0.88185854  1
  Mg  Mg12  1  0.83333300  0.66666700  0.37904439  1
  Mg  Mg13  1  0.83333300  0.66666700  0.87095561  1
  Si  Si0  1  0.16666700  0.33333300  0.12500000  1
loop_
_geom_bond_atom_site_label_1
_geom_bond_atom_site_label_2
_geom_bond_distance
_geom_bond_site_symmetry_2
Mg0 Mg2 3.118590 1_455
Mg0 Mg4 3.118590 1_455
Mg0 Mg8 3.139059 1_555
Mg0 Mg9 3.139059 1_554
Mg0 Mg6 3.139065 1_565
Mg0 Mg7 3.139065 1_564
Mg0 Si0 3.151382 1_565
Mg0 Si0 3.151382 1_555
Mg0 Mg2 3.184060 1_565
Mg0 Mg4 3.184060 1_555
Mg0 Mg12 3.213636 1_455
Mg0 Mg13 3.213636 1_454
Mg1 Mg3 3.110605 1_565
Mg1 Mg5 3.110605 1_555
Mg1 Na0 3.151413 1_565
Mg1 Na0 3.151413 1_555
Mg1 Mg13 3.168272 1_455
Mg1 Mg12 3.168272 1_455
Mg1 Mg3 3.192045 1_455
Mg1 Mg5 3.192045 1_455
Mg1 Mg9 3.245018 1_555
Mg1 Mg8 3.245018 1_555
Mg1 Mg7 3.245024 1_565
Mg1 Mg6 3.245024 1_565
Mg2 Mg4 3.118590 1_555
Mg2 Mg6 3.139065 1_555
Mg2 Mg7 3.139065 1_554
Mg2 Si0 3.151382 1_555
Mg2 Si0 3.151382 1_655
Mg2 Mg4 3.184060 1_545
Mg3 Mg5 3.110605 1_545
Mg3 Na0 3.151413 1_555
Mg3 Na0 3.151413 1_655
Mg3 Mg5 3.192045 1_555
Mg3 Mg7 3.245024 1_555
Mg3 Mg6 3.245024 1_555
Mg4 Mg9 3.139065 1_554
Mg4 Mg8 3.139065 1_555
Mg4 Si0 3.151382 1_665
Mg4 Si0 3.151382 1_555
Mg5 Na0 3.151413 1_555
Mg5 Na0 3.151413 1_665
Mg5 Mg9 3.245024 1_555
Mg5 Mg8 3.245024 1_555
Mg6 Si0 3.124757 1_555
Mg6 Mg8 3.133862 1_555
Mg6 Mg8 3.168788 1_545
Mg6 Na0 3.243007 1_555
Mg7 Si0 3.124757 1_556
Mg7 Mg9 3.133862 1_555
Mg7 Mg9 3.168788 1_545
Mg7 Na0 3.243007 1_555
Mg8 Si0 3.124763 1_555
Mg8 Na0 3.243013 1_555
Mg9 Si0 3.124763 1_556
Mg9 Na0 3.243013 1_555
Mg10 Si0 3.124763 1_655
Mg10 Mg8 3.133862 1_655
Mg10 Mg6 3.133862 1_655
Mg10 Mg2 3.139059 1_555
Mg10 Mg4 3.139065 1_545
Mg10 Mg12 3.153411 1_555
Mg10 Mg12 3.153411 1_545
Mg10 Mg8 3.168788 1_545
Mg10 Mg6 3.168788 1_555
Mg10 Na0 3.243013 1_655
Mg10 Mg3 3.245018 1_555
Mg10 Mg5 3.245024 1_545
Mg11 Si0 3.124763 1_656
Mg11 Mg9 3.133862 1_655
Mg11 Mg7 3.133862 1_655
Mg11 Mg2 3.139059 1_556
Mg11 Mg4 3.139065 1_546
Mg11 Mg13 3.153411 1_555
Mg11 Mg13 3.153411 1_545
Mg11 Mg9 3.168788 1_545
Mg11 Mg7 3.168788 1_555
Mg11 Na0 3.243013 1_655
Mg11 Mg3 3.245018 1_555
Mg11 Mg5 3.245024 1_545
Mg12 Mg6 3.153411 1_665
Mg12 Mg6 3.153411 1_555
Mg12 Mg8 3.153411 1_655
Mg12 Mg8 3.153411 1_555
Mg12 Mg5 3.168265 1_555
Mg12 Mg3 3.168272 1_555
Mg12 Mg4 3.213630 1_555
Mg12 Mg2 3.213636 1_555
Mg13 Mg7 3.153411 1_665
Mg13 Mg7 3.153411 1_555
Mg13 Mg9 3.153411 1_655
Mg13 Mg9 3.153411 1_555
Mg13 Mg5 3.168265 1_555
Mg13 Mg3 3.168272 1_555
Mg13 Mg4 3.213630 1_556
Mg13 Mg2 3.213636 1_556
