# generated using pymatgen
data_BaSr7(Fe2O5)4
_symmetry_space_group_name_H-M   'P 1'
_cell_length_a   11.24858167
_cell_length_b   11.58219963
_cell_length_c   17.72105730
_cell_angle_alpha   109.13342489
_cell_angle_beta   108.32306290
_cell_angle_gamma   90.02683286
_symmetry_Int_Tables_number   1
_chemical_formula_structural   BaSr7(Fe2O5)4
_chemical_formula_sum   'Ba4 Sr28 Fe32 O80'
_cell_volume   2056.79033702
_cell_formula_units_Z   4
loop_
 _symmetry_equiv_pos_site_id
 _symmetry_equiv_pos_as_xyz
  1  'x, y, z'
loop_
 _atom_site_type_symbol
 _atom_site_label
 _atom_site_symmetry_multiplicity
 _atom_site_fract_x
 _atom_site_fract_y
 _atom_site_fract_z
 _atom_site_occupancy
  Ba  Ba0  1  0.30786300  0.06309000  0.11406000  1
  Ba  Ba1  1  0.30786500  0.56236200  0.11363600  1
  Ba  Ba2  1  0.80742300  0.06353700  0.11405000  1
  Ba  Ba3  1  0.05640700  0.80120100  0.11329800  1
  Sr  Sr0  1  0.30580300  0.06423800  0.60879900  1
  Sr  Sr1  1  0.30563100  0.56385900  0.60856000  1
  Sr  Sr2  1  0.80568500  0.06399100  0.60843900  1
  Sr  Sr3  1  0.80571700  0.56179700  0.10839500  1
  Sr  Sr4  1  0.80565200  0.56382100  0.60837100  1
  Sr  Sr5  1  0.19812800  0.43738200  0.39232100  1
  Sr  Sr6  1  0.19754500  0.43531800  0.89044900  1
  Sr  Sr7  1  0.19789600  0.93675100  0.39338200  1
  Sr  Sr8  1  0.19742100  0.93599900  0.89018300  1
  Sr  Sr9  1  0.69726700  0.43652400  0.39158800  1
  Sr  Sr10  1  0.69631900  0.43493300  0.89022900  1
  Sr  Sr11  1  0.69750100  0.93652600  0.39187200  1
  Sr  Sr12  1  0.69611900  0.93619500  0.89038100  1
  Sr  Sr13  1  0.05459100  0.29645100  0.10738800  1
  Sr  Sr14  1  0.05580400  0.29469800  0.60881500  1
  Sr  Sr15  1  0.05559700  0.79470900  0.60853300  1
  Sr  Sr16  1  0.55513800  0.29582900  0.10755900  1
  Sr  Sr17  1  0.55589800  0.29466400  0.60890000  1
  Sr  Sr18  1  0.55706500  0.79423300  0.10791600  1
  Sr  Sr19  1  0.55589900  0.79484300  0.60885600  1
  Sr  Sr20  1  0.44821700  0.20682600  0.39454700  1
  Sr  Sr21  1  0.44770900  0.20517700  0.89024600  1
  Sr  Sr22  1  0.44895200  0.70623200  0.39428700  1
  Sr  Sr23  1  0.44731600  0.70411000  0.89007500  1
  Sr  Sr24  1  0.94865300  0.20705500  0.39377400  1
  Sr  Sr25  1  0.94611300  0.20497200  0.88987000  1
  Sr  Sr26  1  0.94797600  0.70565300  0.39274300  1
  Sr  Sr27  1  0.94622600  0.70389400  0.88999300  1
  Fe  Fe0  1  0.99935400  0.99725200  0.99219300  1
  Fe  Fe1  1  0.00377000  0.99968600  0.50011100  1
  Fe  Fe2  1  0.00025800  0.49705400  0.99558000  1
  Fe  Fe3  1  0.00410700  0.50025800  0.50025000  1
  Fe  Fe4  1  0.50055000  0.99749600  0.99473300  1
  Fe  Fe5  1  0.50439600  0.99968400  0.50013700  1
  Fe  Fe6  1  0.50326800  0.49837000  0.99709200  1
  Fe  Fe7  1  0.50428100  0.49993500  0.50035900  1
  Fe  Fe8  1  0.25174300  0.24794300  0.99579000  1
  Fe  Fe9  1  0.25408400  0.25066100  0.50018400  1
  Fe  Fe10  1  0.25166900  0.74710600  0.99401900  1
  Fe  Fe11  1  0.25417300  0.75020600  0.50054900  1
  Fe  Fe12  1  0.75291700  0.25012900  0.99813900  1
  Fe  Fe13  1  0.75430300  0.25022000  0.49989300  1
  Fe  Fe14  1  0.74976000  0.74615900  0.99458200  1
  Fe  Fe15  1  0.75442000  0.75016700  0.49986800  1
  Fe  Fe16  1  0.11235100  0.09491600  0.25464200  1
  Fe  Fe17  1  0.10736200  0.08926700  0.74928700  1
  Fe  Fe18  1  0.10578200  0.58779300  0.25091200  1
  Fe  Fe19  1  0.10733000  0.58889900  0.74913600  1
  Fe  Fe20  1  0.61195200  0.09181600  0.25275100  1
  Fe  Fe21  1  0.60748800  0.08962800  0.74956800  1
  Fe  Fe22  1  0.61282000  0.59054400  0.25233300  1
  Fe  Fe23  1  0.60694700  0.58877300  0.74908600  1
  Fe  Fe24  1  0.35957300  0.41030900  0.25242600  1
  Fe  Fe25  1  0.35750200  0.41012000  0.74949400  1
  Fe  Fe26  1  0.36506000  0.91144500  0.25443700  1
  Fe  Fe27  1  0.35721300  0.91033400  0.74925100  1
  Fe  Fe28  1  0.85801700  0.41218800  0.25054200  1
  Fe  Fe29  1  0.85720400  0.41008800  0.74929800  1
  Fe  Fe30  1  0.85805200  0.90710000  0.25248200  1
  Fe  Fe31  1  0.85687200  0.91045600  0.74887500  1
  O  O0  1  0.12444300  0.12209100  0.49180700  1
  O  O1  1  0.12117600  0.12183700  0.98872700  1
  O  O2  1  0.12449400  0.62207800  0.49167800  1
  O  O3  1  0.12161500  0.61979400  0.98729100  1
  O  O4  1  0.62467300  0.12206200  0.49184200  1
  O  O5  1  0.62125600  0.12235900  0.98912600  1
  O  O6  1  0.62455900  0.62184600  0.49173700  1
  O  O7  1  0.62326600  0.62031100  0.99025000  1
  O  O8  1  0.12804300  0.37349800  0.00360700  1
  O  O9  1  0.13293700  0.37881700  0.50943200  1
  O  O10  1  0.12840000  0.87497200  0.00118500  1
  O  O11  1  0.13336700  0.87822100  0.50942100  1
  O  O12  1  0.63235200  0.37849900  0.00752700  1
  O  O13  1  0.63334000  0.37842000  0.50929700  1
  O  O14  1  0.62802400  0.87392800  0.00449800  1
  O  O15  1  0.63376600  0.87840600  0.50973500  1
  O  O16  1  0.37448200  0.11947500  0.49197400  1
  O  O17  1  0.37311100  0.11891500  0.98859000  1
  O  O18  1  0.37439700  0.61963600  0.49183200  1
  O  O19  1  0.37436600  0.61923000  0.98931600  1
  O  O20  1  0.87447400  0.11947800  0.49177900  1
  O  O21  1  0.87348700  0.11999500  0.98872700  1
  O  O22  1  0.87447400  0.61934500  0.49168900  1
  O  O23  1  0.86992000  0.61601100  0.98826700  1
  O  O24  1  0.38284300  0.37668900  0.00427900  1
  O  O25  1  0.38374400  0.38177500  0.51040100  1
  O  O26  1  0.38207800  0.87638900  0.00380000  1
  O  O27  1  0.38293800  0.88093500  0.50968100  1
  O  O28  1  0.88093400  0.37908300  0.00602300  1
  O  O29  1  0.88351400  0.38137700  0.50959400  1
  O  O30  1  0.87790500  0.87722900  0.00152400  1
  O  O31  1  0.88343800  0.88116200  0.50984500  1
  O  O32  1  0.07665000  0.09721200  0.14352700  1
  O  O33  1  0.08157500  0.09642800  0.64039200  1
  O  O34  1  0.07283500  0.58642000  0.13927000  1
  O  O35  1  0.08157800  0.59645300  0.64033600  1
  O  O36  1  0.57633500  0.09825300  0.14252400  1
  O  O37  1  0.58161700  0.09643700  0.64052900  1
  O  O38  1  0.58277000  0.59591100  0.14218800  1
  O  O39  1  0.58163200  0.59653000  0.64038300  1
  O  O40  1  0.44065400  0.40129800  0.36100900  1
  O  O41  1  0.44136700  0.40408700  0.85866000  1
  O  O42  1  0.44462200  0.90075400  0.36249300  1
  O  O43  1  0.44058800  0.90409200  0.85853400  1
  O  O44  1  0.94146500  0.40358900  0.35935800  1
  O  O45  1  0.93960200  0.40336900  0.85837600  1
  O  O46  1  0.94071200  0.90126100  0.36167100  1
  O  O47  1  0.94008100  0.90430800  0.85813700  1
  O  O48  1  0.33163900  0.30556900  0.13964800  1
  O  O49  1  0.33141100  0.29406000  0.64045900  1
  O  O50  1  0.33373300  0.80584000  0.14141600  1
  O  O51  1  0.33143200  0.79393500  0.64032700  1
  O  O52  1  0.83111900  0.30362500  0.13891400  1
  O  O53  1  0.83148500  0.29403700  0.64032800  1
  O  O54  1  0.82439200  0.79528800  0.14079200  1
  O  O55  1  0.83149600  0.79387300  0.64030200  1
  O  O56  1  0.19401800  0.21189400  0.36304200  1
  O  O57  1  0.19067600  0.20491700  0.85835400  1
  O  O58  1  0.19117300  0.70567500  0.35924600  1
  O  O59  1  0.19139500  0.70475600  0.85812900  1
  O  O60  1  0.69628400  0.20833100  0.36158100  1
  O  O61  1  0.68989700  0.20545500  0.85865000  1
  O  O62  1  0.69566700  0.70763800  0.36131200  1
  O  O63  1  0.68898900  0.70440300  0.85849400  1
  O  O64  1  0.44942100  0.05994600  0.26095300  1
  O  O65  1  0.43670600  0.05811900  0.74926400  1
  O  O66  1  0.44841300  0.55823600  0.26000900  1
  O  O67  1  0.43647200  0.55791000  0.74897400  1
  O  O68  1  0.94831300  0.05407500  0.25938300  1
  O  O69  1  0.93669200  0.05821800  0.74913900  1
  O  O70  1  0.93549700  0.56179300  0.25205400  1
  O  O71  1  0.93680200  0.55801600  0.74917300  1
  O  O72  1  0.18776400  0.44091100  0.25080800  1
  O  O73  1  0.18681800  0.44109400  0.74956700  1
  O  O74  1  0.20040200  0.95339500  0.25913800  1
  O  O75  1  0.18670100  0.94114000  0.74925000  1
  O  O76  1  0.68753200  0.44005200  0.25039400  1
  O  O77  1  0.68669600  0.44120600  0.74945900  1
  O  O78  1  0.68842000  0.94212000  0.25053200  1
  O  O79  1  0.68667100  0.94133800  0.74952700  1
loop_
_geom_bond_atom_site_label_1
_geom_bond_atom_site_label_2
_geom_bond_distance
_geom_bond_site_symmetry_2
Ba0 O64 2.601729 1_555
Ba0 O48 2.693086 1_555
Ba0 O10 2.724616 1_545
Ba0 O26 2.729149 1_545
Ba0 O1 2.804510 1_554
Ba0 O17 2.805095 1_554
Ba0 O32 2.812955 1_555
Ba0 O36 2.906318 1_555
Ba0 O50 3.171153 1_545
Ba1 O66 2.594783 1_555
Ba1 O50 2.697885 1_555
Ba1 O24 2.718254 1_555
Ba1 O8 2.719998 1_555
Ba1 O19 2.798913 1_554
Ba1 O3 2.805886 1_554
Ba1 O34 2.818909 1_555
Ba1 O38 2.975820 1_555
Ba1 O48 3.154681 1_555
Ba2 O68 2.602976 1_555
Ba2 O52 2.668335 1_555
Ba2 O14 2.720622 1_545
Ba2 O30 2.726931 1_545
Ba2 O5 2.797413 1_554
Ba2 O36 2.804621 1_555
Ba2 O21 2.810916 1_554
Ba2 O32 2.909815 1_655
Ba2 O54 3.289801 1_545
Ba3 O74 2.605573 1_555
Ba3 O34 2.670547 1_555
Ba3 O30 2.715667 1_455
Ba3 O10 2.730722 1_555
Ba3 O23 2.805053 1_454
Ba3 O54 2.806162 1_455
Ba3 O3 2.809710 1_554
Ba3 O50 2.997927 1_555
Ba3 O32 3.288124 1_565
Fe0 O21 2.008439 1_565
Fe0 O1 2.018140 1_665
Fe0 O30 2.029052 1_556
Fe0 O10 2.035374 1_656
Fe0 O47 2.138676 1_555
Fe0 O32 2.405418 1_666
Fe1 O31 2.011636 1_455
Fe1 O20 2.015754 1_465
Fe1 O11 2.033317 1_555
Fe1 O0 2.033389 1_565
Fe1 O46 2.212044 1_455
Fe1 O33 2.237511 1_565
Fe2 O28 2.005738 1_456
Fe2 O23 2.015952 1_455
Fe2 O8 2.034962 1_556
Fe2 O3 2.041360 1_555
Fe2 O45 2.186642 1_455
Fe2 O34 2.277300 1_556
Fe3 O22 2.012891 1_455
Fe3 O29 2.013036 1_455
Fe3 O9 2.026969 1_555
Fe3 O2 2.028718 1_555
Fe3 O35 2.233649 1_555
Fe3 O44 2.245987 1_455
Fe4 O17 2.012113 1_565
Fe4 O26 2.012437 1_556
Fe4 O5 2.030286 1_565
Fe4 O14 2.035334 1_556
Fe4 O43 2.171355 1_555
Fe4 O36 2.353623 1_566
Fe5 O16 2.020400 1_565
Fe5 O27 2.020609 1_555
Fe5 O4 2.030010 1_565
Fe5 O15 2.030422 1_555
Fe5 O42 2.202413 1_555
Fe5 O37 2.238887 1_565
Fe6 O7 2.011162 1_555
Fe6 O24 2.015382 1_556
Fe6 O12 2.017789 1_556
Fe6 O19 2.020797 1_555
Fe6 O41 2.205563 1_555
Fe6 O38 2.310077 1_556
Fe7 O25 2.013109 1_555
Fe7 O18 2.019880 1_555
Fe7 O13 2.029011 1_555
Fe7 O6 2.029085 1_555
Fe7 O40 2.225777 1_555
Fe7 O39 2.233316 1_555
Fe8 O8 2.015207 1_556
Fe8 O1 2.017078 1_555
Fe8 O17 2.024809 1_555
Fe8 O24 2.032808 1_556
Fe8 O57 2.191818 1_555
Fe8 O48 2.279402 1_556
Fe9 O9 2.017418 1_555
Fe9 O0 2.020653 1_555
Fe9 O25 2.029222 1_555
Fe9 O16 2.035893 1_555
Fe9 O56 2.194635 1_555
Fe9 O49 2.238203 1_555
Fe10 O26 2.022863 1_556
Fe10 O19 2.024535 1_555
Fe10 O3 2.025273 1_555
Fe10 O10 2.030126 1_556
Fe10 O59 2.167512 1_555
Fe10 O50 2.335843 1_556
Fe11 O11 2.013233 1_555
Fe11 O2 2.013867 1_555
Fe11 O27 2.026487 1_555
Fe11 O18 2.029741 1_555
Fe11 O51 2.229590 1_555
Fe11 O58 2.252938 1_555
Fe12 O28 2.014596 1_556
Fe12 O12 2.014723 1_556
Fe12 O5 2.025617 1_555
Fe12 O21 2.029365 1_555
Fe12 O61 2.222602 1_555
Fe12 O52 2.233292 1_556
Fe13 O13 2.016475 1_555
Fe13 O4 2.019458 1_555
Fe13 O29 2.029607 1_555
Fe13 O20 2.030356 1_555
Fe13 O60 2.209816 1_555
Fe13 O53 2.240062 1_555
Fe14 O7 2.002770 1_555
Fe14 O14 2.019576 1_556
Fe14 O23 2.024379 1_555
Fe14 O30 2.039977 1_556
Fe14 O63 2.171567 1_555
Fe14 O54 2.325351 1_556
Fe15 O15 2.014811 1_555
Fe15 O6 2.022056 1_555
Fe15 O31 2.024878 1_555
Fe15 O22 2.030162 1_555
Fe15 O62 2.212411 1_555
Fe15 O55 2.240178 1_555
Fe16 O56 1.884891 1_555
Fe16 O32 1.891134 1_555
Fe16 O74 1.926546 1_545
Fe16 O68 1.938625 1_455
Fe17 O33 1.888887 1_555
Fe17 O57 1.889694 1_555
Fe17 O75 1.934152 1_545
Fe17 O69 1.952054 1_455
Fe18 O34 1.889468 1_555
Fe18 O58 1.895635 1_555
Fe18 O72 1.935211 1_555
Fe18 O70 1.946259 1_455
Fe19 O35 1.889019 1_555
Fe19 O59 1.891250 1_555
Fe19 O73 1.932837 1_555
Fe19 O71 1.951341 1_455
Fe20 O60 1.892842 1_555
Fe20 O36 1.893422 1_555
Fe20 O64 1.923920 1_555
Fe20 O78 1.930150 1_545
Fe21 O61 1.888885 1_555
Fe21 O37 1.889708 1_555
Fe21 O79 1.935007 1_545
Fe21 O65 1.953257 1_555
Fe22 O62 1.894115 1_555
Fe22 O38 1.895443 1_555
Fe22 O76 1.930252 1_555
Fe22 O66 1.941519 1_555
Fe23 O39 1.889047 1_555
Fe23 O63 1.891030 1_555
Fe23 O77 1.931599 1_555
Fe23 O67 1.949738 1_555
Fe24 O40 1.890395 1_555
Fe24 O48 1.892100 1_555
Fe24 O66 1.927487 1_555
Fe24 O72 1.958031 1_555
Fe25 O49 1.888642 1_555
Fe25 O41 1.891686 1_555
Fe25 O67 1.932164 1_555
Fe25 O73 1.953669 1_555
Fe26 O42 1.887070 1_555
Fe26 O50 1.892507 1_555
Fe26 O64 1.916115 1_565
Fe26 O74 1.935166 1_555
Fe27 O51 1.889251 1_555
Fe27 O43 1.893444 1_555
Fe27 O65 1.930693 1_565
Fe27 O75 1.951083 1_555
Fe28 O52 1.891696 1_555
Fe28 O44 1.896682 1_555
Fe28 O70 1.927747 1_555
Fe28 O76 1.944161 1_555
Fe29 O53 1.888450 1_555
Fe29 O45 1.890433 1_555
Fe29 O71 1.933775 1_555
Fe29 O77 1.952420 1_555
Fe30 O46 1.888854 1_555
Fe30 O54 1.893680 1_555
Fe30 O68 1.930662 1_565
Fe30 O78 1.942958 1_555
Fe31 O55 1.886236 1_555
Fe31 O47 1.892386 1_555
Fe31 O69 1.930225 1_565
Fe31 O79 1.950717 1_555
O0 Sr7 2.605053 1_545
O0 Sr24 2.618991 1_455
O0 Sr0 2.676133 1_555
O0 Sr14 2.680087 1_555
O1 Sr25 2.610066 1_455
O1 Sr8 2.626294 1_545
O1 Sr13 2.697546 1_556
O2 Sr5 2.609940 1_555
O2 Sr26 2.622757 1_455
O2 Sr1 2.675772 1_555
O2 Sr15 2.680088 1_555
O3 Sr6 2.599896 1_555
O3 Sr27 2.603452 1_455
O4 Sr20 2.614586 1_555
O4 Sr11 2.616478 1_545
O4 Sr2 2.671060 1_555
O4 Sr17 2.681421 1_555
O5 Sr21 2.598893 1_555
O5 Sr12 2.622050 1_545
O5 Sr16 2.685749 1_556
O6 Sr22 2.608233 1_555
O6 Sr9 2.615892 1_555
O6 Sr4 2.671668 1_555
O6 Sr19 2.683657 1_555
O7 Sr10 2.617173 1_555
O7 Sr23 2.633011 1_555
O7 Sr18 2.680383 1_556
O7 Sr3 2.698983 1_556
O8 Sr25 2.623770 1_454
O8 Sr13 2.625238 1_555
O8 Sr6 2.659217 1_554
O9 Sr1 2.614423 1_555
O9 Sr14 2.624604 1_555
O9 Sr24 2.665969 1_455
O9 Sr5 2.680309 1_555
O10 Sr8 2.615899 1_554
O10 Sr27 2.627927 1_454
O11 Sr15 2.620042 1_555
O11 Sr0 2.620417 1_565
O11 Sr7 2.658341 1_555
O11 Sr26 2.682314 1_455
O12 Sr3 2.611881 1_555
O12 Sr16 2.625547 1_555
O12 Sr10 2.663896 1_554
O12 Sr21 2.685174 1_554
O13 Sr4 2.614476 1_555
O13 Sr17 2.627503 1_555
O13 Sr20 2.665641 1_555
O13 Sr9 2.680289 1_555
O14 Sr18 2.622176 1_555
O14 Sr23 2.627228 1_554
O14 Sr12 2.669438 1_554
O15 Sr2 2.612314 1_565
O15 Sr19 2.621127 1_555
O15 Sr22 2.670492 1_555
O15 Sr11 2.681855 1_555
O16 Sr20 2.595566 1_555
O16 Sr7 2.620523 1_545
O16 Sr17 2.675128 1_555
O16 Sr0 2.676844 1_555
O17 Sr21 2.607615 1_555
O17 Sr8 2.615787 1_545
O17 Sr16 2.699230 1_556
O18 Sr22 2.597027 1_555
O18 Sr5 2.618106 1_555
O18 Sr19 2.676232 1_555
O18 Sr1 2.678829 1_555
O19 Sr23 2.602440 1_555
O19 Sr6 2.630881 1_555
O19 Sr18 2.690139 1_556
O20 Sr24 2.608949 1_555
O20 Sr11 2.628355 1_545
O20 Sr14 2.675365 1_655
O20 Sr2 2.676173 1_555
O21 Sr25 2.595078 1_555
O21 Sr12 2.632001 1_545
O21 Sr13 2.689641 1_656
O22 Sr26 2.610963 1_555
O22 Sr9 2.629495 1_555
O22 Sr15 2.674026 1_655
O22 Sr4 2.676949 1_555
O23 Sr10 2.589345 1_555
O23 Sr27 2.628076 1_555
O23 Sr3 2.700016 1_556
O24 Sr21 2.618972 1_554
O24 Sr16 2.622608 1_555
O24 Sr6 2.670266 1_554
O25 Sr1 2.608324 1_555
O25 Sr17 2.616442 1_555
O25 Sr20 2.656559 1_555
O25 Sr5 2.700091 1_555
O26 Sr23 2.622340 1_554
O26 Sr18 2.655800 1_555
O26 Sr8 2.669844 1_554
O27 Sr0 2.619309 1_565
O27 Sr19 2.620876 1_555
O27 Sr22 2.659145 1_555
O27 Sr7 2.678685 1_555
O28 Sr13 2.623150 1_655
O28 Sr3 2.633523 1_555
O28 Sr25 2.658984 1_554
O28 Sr10 2.670904 1_554
O29 Sr4 2.614812 1_555
O29 Sr14 2.621425 1_655
O29 Sr24 2.656379 1_555
O29 Sr9 2.700442 1_555
O30 Sr12 2.622561 1_554
O30 Sr27 2.623503 1_554
O31 Sr15 2.613751 1_655
O31 Sr2 2.615123 1_565
O31 Sr26 2.673731 1_555
O31 Sr11 2.699466 1_555
O32 Sr13 2.581910 1_555
O33 Sr14 2.532121 1_555
O33 Sr0 2.750652 1_555
O33 Sr2 2.974436 1_455
O34 Sr3 2.876137 1_455
O34 Sr13 3.212986 1_555
O35 Sr15 2.534003 1_555
O35 Sr1 2.750500 1_555
O35 Sr4 2.974940 1_455
O36 Sr16 2.552353 1_555
O37 Sr17 2.532051 1_555
O37 Sr2 2.753043 1_555
O37 Sr0 2.974130 1_555
O38 Sr18 2.556054 1_555
O38 Sr3 2.755733 1_555
O39 Sr19 2.532162 1_555
O39 Sr4 2.752105 1_555
O39 Sr1 2.976251 1_555
O40 Sr20 2.505947 1_555
O40 Sr9 2.768150 1_555
O40 Sr5 2.953941 1_555
O41 Sr21 2.538965 1_555
O41 Sr10 2.743069 1_555
O41 Sr6 2.968015 1_555
O42 Sr22 2.492143 1_555
O42 Sr11 2.731376 1_555
O42 Sr7 2.997082 1_555
O43 Sr23 2.550553 1_555
O43 Sr12 2.749583 1_555
O43 Sr8 2.960159 1_555
O44 Sr24 2.537571 1_555
O44 Sr5 2.760150 1_655
O44 Sr9 2.976856 1_555
O45 Sr25 2.532238 1_555
O45 Sr6 2.775405 1_655
O45 Sr10 2.962785 1_555
O46 Sr26 2.496466 1_555
O46 Sr7 2.771145 1_655
O46 Sr11 2.952303 1_555
O47 Sr27 2.558558 1_555
O47 Sr8 2.768636 1_655
O47 Sr12 2.973582 1_555
O48 Sr16 2.741095 1_555
O48 Sr13 2.981585 1_555
O49 Sr0 2.530185 1_555
O49 Sr17 2.753132 1_555
O49 Sr14 2.972431 1_555
O50 Sr18 2.750851 1_555
O51 Sr1 2.532860 1_555
O51 Sr19 2.752387 1_555
O51 Sr15 2.974690 1_555
O52 Sr13 2.736911 1_655
O52 Sr16 2.972618 1_555
O52 Sr3 3.206119 1_555
O53 Sr2 2.532178 1_555
O53 Sr14 2.750922 1_655
O53 Sr17 2.972734 1_555
O54 Sr3 2.567692 1_555
O54 Sr18 2.876753 1_555
O55 Sr4 2.532150 1_555
O55 Sr15 2.750894 1_655
O55 Sr19 2.973059 1_555
O56 Sr5 2.487681 1_555
O56 Sr20 2.740273 1_555
O56 Sr24 2.980323 1_455
O57 Sr6 2.535319 1_555
O57 Sr21 2.765911 1_555
O57 Sr25 2.974162 1_455
O58 Sr7 2.538568 1_555
O58 Sr22 2.767461 1_555
O58 Sr26 2.976087 1_455
O59 Sr8 2.545363 1_555
O59 Sr23 2.754243 1_555
O59 Sr27 2.984494 1_455
O60 Sr9 2.518568 1_555
O60 Sr24 2.715092 1_555
O60 Sr20 3.026467 1_555
O61 Sr10 2.526258 1_555
O61 Sr25 2.758972 1_555
O61 Sr21 2.948798 1_555
O62 Sr11 2.524566 1_555
O62 Sr26 2.716654 1_555
O62 Sr22 3.011522 1_555
O63 Sr12 2.551466 1_555
O63 Sr27 2.769638 1_555
O63 Sr23 2.942984 1_555
O64 Sr20 2.424662 1_555
O65 Sr21 2.484754 1_555
O65 Sr0 2.486055 1_555
O66 Sr22 2.432608 1_555
O67 Sr23 2.483332 1_555
O67 Sr1 2.484414 1_555
O68 Sr24 2.457499 1_555
O69 Sr25 2.484900 1_555
O69 Sr2 2.488386 1_555
O70 Sr26 2.463403 1_555
O70 Sr3 2.505103 1_555
O71 Sr27 2.482519 1_555
O71 Sr4 2.490454 1_555
O72 Sr5 2.487469 1_555
O72 Sr13 2.513803 1_555
O73 Sr6 2.484356 1_555
O73 Sr14 2.486423 1_555
O74 Sr7 2.457667 1_555
O75 Sr8 2.482668 1_555
O75 Sr15 2.486478 1_555
O76 Sr9 2.483738 1_555
O76 Sr16 2.504179 1_555
O77 Sr17 2.484320 1_555
O77 Sr10 2.487777 1_555
O78 Sr11 2.496727 1_555
O78 Sr18 2.513223 1_555
O79 Sr12 2.485146 1_555
O79 Sr19 2.485223 1_555
