# generated using pymatgen
data_TmC8N4Cl7
_symmetry_space_group_name_H-M   'P 1'
_cell_length_a   8.41015200
_cell_length_b   9.34936000
_cell_length_c   14.75384000
_cell_angle_alpha   90.00000000
_cell_angle_beta   90.00000000
_cell_angle_gamma   90.00000000
_symmetry_Int_Tables_number   1
_chemical_formula_structural   TmC8N4Cl7
_chemical_formula_sum   'Tm2 C16 N8 Cl14'
_cell_volume   1160.08763329
_cell_formula_units_Z   2
loop_
 _symmetry_equiv_pos_site_id
 _symmetry_equiv_pos_as_xyz
  1  'x, y, z'
loop_
 _atom_site_type_symbol
 _atom_site_label
 _atom_site_symmetry_multiplicity
 _atom_site_fract_x
 _atom_site_fract_y
 _atom_site_fract_z
 _atom_site_occupancy
  Tm  Tm0  1  0.29105300  0.50000000  0.50000000  1
  Tm  Tm1  1  0.70894700  0.00000000  0.00000000  1
  C  C0  1  0.15017600  0.22361900  0.33382700  1
  C  C1  1  0.15017600  0.77638100  0.66617300  1
  C  C2  1  0.84982400  0.27638100  0.83382700  1
  C  C3  1  0.84982400  0.72361900  0.16617300  1
  C  C4  1  0.94716700  0.19293100  0.45533800  1
  C  C5  1  0.94716700  0.80706900  0.54466200  1
  C  C6  1  0.05283300  0.30706900  0.95533800  1
  C  C7  1  0.05283300  0.69293100  0.04466200  1
  C  C8  1  0.38423500  0.31485000  0.14197600  1
  C  C9  1  0.38423500  0.68515000  0.85802400  1
  C  C10  1  0.61576500  0.18515000  0.64197600  1
  C  C11  1  0.61576500  0.81485000  0.35802400  1
  C  C12  1  0.64733900  0.43078100  0.17638100  1
  C  C13  1  0.64733900  0.56921900  0.82361900  1
  C  C14  1  0.35266100  0.06921900  0.67638100  1
  C  C15  1  0.35266100  0.93078100  0.32361900  1
  N  N0  1  0.06390100  0.19934100  0.40106000  1
  N  N1  1  0.06390100  0.80065900  0.59894000  1
  N  N2  1  0.93609900  0.30065900  0.90106000  1
  N  N3  1  0.93609900  0.69934100  0.09894000  1
  N  N4  1  0.53235500  0.36116100  0.15529200  1
  N  N5  1  0.53235500  0.63883900  0.84470800  1
  N  N6  1  0.46764500  0.13883900  0.65529200  1
  N  N7  1  0.46764500  0.86116100  0.34470800  1
  Cl  Cl0  1  0.39029100  0.30095300  0.39548000  1
  Cl  Cl1  1  0.39029100  0.69904700  0.60452000  1
  Cl  Cl2  1  0.60970900  0.19904700  0.89548000  1
  Cl  Cl3  1  0.60970900  0.80095300  0.10452000  1
  Cl  Cl4  1  0.61601000  0.36058800  0.60463500  1
  Cl  Cl5  1  0.61601000  0.63941200  0.39536500  1
  Cl  Cl6  1  0.38399000  0.13941200  0.10463500  1
  Cl  Cl7  1  0.38399000  0.86058800  0.89536500  1
  Cl  Cl8  1  0.11373500  0.36636300  0.59879100  1
  Cl  Cl9  1  0.11373500  0.63363700  0.40120900  1
  Cl  Cl10  1  0.88626500  0.13363700  0.09879100  1
  Cl  Cl11  1  0.88626500  0.86636300  0.90120900  1
  Cl  Cl12  1  0.90210700  0.00000000  0.50000000  1
  Cl  Cl13  1  0.09789300  0.50000000  0.00000000  1
loop_
_geom_bond_atom_site_label_1
_geom_bond_atom_site_label_2
_geom_bond_distance
_geom_bond_site_symmetry_2
C0 N0 1.249780 1_555
C0 Cl0 2.329841 1_555
C1 N1 1.249780 1_555
C1 Cl1 2.329841 1_555
C2 N2 1.249780 1_555
C2 Cl2 2.329841 1_555
C3 N3 1.249780 1_555
C3 Cl3 2.329841 1_555
C4 N0 1.268354 1_655
C4 Cl12 1.957405 1_555
C5 N1 1.268354 1_655
C5 Cl12 1.957405 1_565
C6 N2 1.268354 1_455
C6 Cl13 1.957405 1_556
C7 N3 1.268354 1_455
C7 Cl13 1.957405 1_555
C8 N4 1.333366 1_555
C8 Cl6 1.730285 1_555
C9 N5 1.333366 1_555
C9 Cl7 1.730285 1_555
C10 N6 1.333366 1_555
C10 Cl4 1.730285 1_555
C11 N7 1.333366 1_555
C11 Cl5 1.730285 1_555
C12 N4 1.206498 1_555
C13 N5 1.206498 1_555
C14 N6 1.206498 1_555
C15 N7 1.206498 1_555
Cl0 Tm0 2.556899 1_555
Cl1 Tm0 2.556899 1_555
Cl2 Tm1 2.556899 1_556
Cl3 Tm1 2.556899 1_565
Cl8 Tm0 2.430922 1_555
Cl9 Tm0 2.430922 1_555
Cl10 Tm1 2.430922 1_555
Cl11 Tm1 2.430922 1_566
