# generated using pymatgen
data_Li2MnO3
_symmetry_space_group_name_H-M   'P 1'
_cell_length_a   3.02281000
_cell_length_b   3.02281000
_cell_length_c   15.20006504
_cell_angle_alpha   87.39376817
_cell_angle_beta   87.39376817
_cell_angle_gamma   56.34846700
_symmetry_Int_Tables_number   1
_chemical_formula_structural   Li2MnO3
_chemical_formula_sum   'Li4 Mn2 O6'
_cell_volume   115.46031591
_cell_formula_units_Z   2
loop_
 _symmetry_equiv_pos_site_id
 _symmetry_equiv_pos_as_xyz
  1  'x, y, z'
loop_
 _atom_site_type_symbol
 _atom_site_label
 _atom_site_symmetry_multiplicity
 _atom_site_fract_x
 _atom_site_fract_y
 _atom_site_fract_z
 _atom_site_occupancy
  Li  Li0  1  0.50000000  0.50000000  0.50000000  1
  Li  Li1  1  0.14972200  0.14972200  0.15608000  1
  Li  Li2  1  0.85027800  0.85027800  0.84392000  1
  Li  Li3  1  0.50000000  0.50000000  0.00000000  1
  Mn  Mn0  1  0.17089500  0.17089500  0.66556100  1
  Mn  Mn1  1  0.82910500  0.82910500  0.33443900  1
  O  O0  1  0.81706900  0.81706900  0.58891400  1
  O  O1  1  0.48577000  0.48577000  0.26486400  1
  O  O2  1  0.16849700  0.16849700  0.91454100  1
  O  O3  1  0.18293100  0.18293100  0.41108600  1
  O  O4  1  0.83150300  0.83150300  0.08545900  1
  O  O5  1  0.51423000  0.51423000  0.73513600  1
loop_
_geom_bond_atom_site_label_1
_geom_bond_atom_site_label_2
_geom_bond_distance
_geom_bond_site_symmetry_2
Li0 O3 2.162877 1_655
Li0 O3 2.162877 1_565
Li0 O0 2.162877 1_545
Li0 O0 2.162877 1_455
Li0 O3 2.217529 1_555
Li0 O0 2.217529 1_555
Li1 O4 2.005119 1_455
Li1 O4 2.005119 1_545
Li1 O4 2.053321 1_445
Li1 O1 2.320673 1_545
Li1 O1 2.320673 1_455
Li1 O1 2.499397 1_555
Li2 O2 2.005119 1_565
Li2 O2 2.005119 1_655
Li2 O2 2.053321 1_665
Li2 O5 2.320673 1_655
Li2 O5 2.320673 1_565
Li2 O5 2.499397 1_555
Li3 O2 2.100087 1_564
Li3 O2 2.100087 1_654
Li3 O4 2.100087 1_545
Li3 O4 2.100087 1_455
Li3 O2 2.246170 1_554
Li3 O4 2.246170 1_555
Mn0 O5 1.939430 1_455
Mn0 O5 1.939430 1_545
Mn0 O0 1.976747 1_545
Mn0 O0 1.976747 1_455
Mn0 O5 2.160087 1_555
Mn0 O0 2.267075 1_445
Mn1 O1 1.939430 1_655
Mn1 O1 1.939430 1_565
Mn1 O3 1.976747 1_565
Mn1 O3 1.976747 1_655
Mn1 O1 2.160087 1_555
Mn1 O3 2.267075 1_665
