# generated using pymatgen
data_ErGa2Co3
_symmetry_space_group_name_H-M   'P 1'
_cell_length_a   8.92753200
_cell_length_b   8.92753243
_cell_length_c   3.83660000
_cell_angle_alpha   90.00000000
_cell_angle_beta   90.00000000
_cell_angle_gamma   119.99999841
_symmetry_Int_Tables_number   1
_chemical_formula_structural   ErGa2Co3
_chemical_formula_sum   'Er3 Ga6 Co9'
_cell_volume   264.81343398
_cell_formula_units_Z   3
loop_
 _symmetry_equiv_pos_site_id
 _symmetry_equiv_pos_as_xyz
  1  'x, y, z'
loop_
 _atom_site_type_symbol
 _atom_site_label
 _atom_site_symmetry_multiplicity
 _atom_site_fract_x
 _atom_site_fract_y
 _atom_site_fract_z
 _atom_site_occupancy
  Er  Er0  1  0.00000000  0.00000000  0.00000000  1
  Er  Er1  1  0.66666700  0.33333300  0.50000000  1
  Er  Er2  1  0.33333300  0.66666700  0.50000000  1
  Ga  Ga0  1  0.68479700  0.68479700  0.50000000  1
  Ga  Ga1  1  0.31520300  0.00000000  0.50000000  1
  Ga  Ga2  1  0.00000000  0.31520300  0.50000000  1
  Ga  Ga3  1  0.31520300  0.31520300  0.50000000  1
  Ga  Ga4  1  0.68479700  0.00000000  0.50000000  1
  Ga  Ga5  1  0.00000000  0.68479700  0.50000000  1
  Co  Co0  1  0.50000000  0.50000000  0.00000000  1
  Co  Co1  1  0.50000000  0.00000000  0.00000000  1
  Co  Co2  1  0.00000000  0.50000000  0.00000000  1
  Co  Co3  1  0.81681300  0.18318700  0.00000000  1
  Co  Co4  1  0.81681300  0.63362500  0.00000000  1
  Co  Co5  1  0.36637500  0.18318700  0.00000000  1
  Co  Co6  1  0.18318700  0.81681300  0.00000000  1
  Co  Co7  1  0.63362500  0.81681300  0.00000000  1
  Co  Co8  1  0.18318700  0.36637500  0.00000000  1
loop_
_geom_bond_atom_site_label_1
_geom_bond_atom_site_label_2
_geom_bond_distance
_geom_bond_site_symmetry_2
Er0 Ga4 3.405640 1_455
Er0 Ga4 3.405640 1_454
Er0 Ga1 3.405640 1_555
Er0 Ga1 3.405640 1_554
Er0 Ga0 3.405640 1_444
Er0 Ga5 3.405640 1_545
Er0 Ga3 3.405640 1_555
Er0 Ga2 3.405640 1_555
Er0 Ga0 3.405640 1_445
Er0 Ga2 3.405640 1_554
Er0 Ga3 3.405640 1_554
Er0 Ga5 3.405640 1_544
Er1 Ga2 3.059981 1_655
Er1 Ga4 3.059981 1_555
Er1 Ga1 3.059986 1_555
Er1 Ga5 3.059986 1_655
Er1 Ga3 3.059990 1_555
Er1 Ga0 3.059990 1_555
Er2 Ga5 3.059981 1_555
Er2 Ga1 3.059981 1_565
Er2 Ga4 3.059986 1_565
Er2 Ga2 3.059986 1_555
Er2 Ga0 3.059990 1_555
Er2 Ga3 3.059990 1_555
Ga0 Ga5 2.813985 1_655
Ga0 Ga4 2.813985 1_565
Ga1 Ga5 2.813985 1_545
Ga1 Ga3 2.813985 1_555
Ga2 Ga3 2.813985 1_555
Ga2 Ga4 2.813985 1_455
Co0 Co4 2.459401 1_555
Co0 Co8 2.459401 1_555
Co0 Co7 2.459401 1_555
Co0 Co5 2.459401 1_555
Co0 Ga0 2.530149 1_555
Co0 Ga3 2.530149 1_554
Co0 Ga0 2.530149 1_554
Co0 Ga3 2.530149 1_555
Co0 Er2 3.212731 1_554
Co0 Er1 3.212731 1_555
Co0 Er2 3.212731 1_555
Co0 Er1 3.212731 1_554
Co1 Co5 2.459393 1_555
Co1 Co7 2.459393 1_545
Co1 Co3 2.459400 1_555
Co1 Co6 2.459400 1_545
Co1 Ga4 2.530149 1_554
Co1 Ga1 2.530149 1_554
Co1 Ga1 2.530149 1_555
Co1 Ga4 2.530149 1_555
Co1 Er2 3.212724 1_545
Co1 Er1 3.212724 1_554
Co1 Er2 3.212724 1_544
Co1 Er1 3.212724 1_555
Co2 Co8 2.459393 1_555
Co2 Co4 2.459393 1_455
Co2 Co3 2.459400 1_455
Co2 Co6 2.459400 1_555
Co2 Ga2 2.530149 1_555
Co2 Ga5 2.530149 1_554
Co2 Ga2 2.530149 1_554
Co2 Ga5 2.530149 1_555
Co2 Er2 3.212724 1_555
Co2 Er1 3.212724 1_454
Co2 Er2 3.212724 1_554
Co2 Er1 3.212724 1_455
Co3 Ga2 2.411643 1_655
Co3 Ga2 2.411643 1_654
Co3 Ga4 2.411643 1_555
Co3 Ga4 2.411643 1_554
Co3 Er0 2.832609 1_655
Co3 Er1 3.011670 1_554
Co3 Er1 3.011670 1_555
Co4 Ga5 2.411642 1_655
Co4 Ga5 2.411642 1_654
Co4 Ga0 2.411647 1_554
Co4 Ga0 2.411647 1_555
Co4 Er0 2.832617 1_665
Co4 Er1 3.011671 1_554
Co4 Er1 3.011671 1_555
Co5 Ga1 2.411642 1_555
Co5 Ga1 2.411642 1_554
Co5 Ga3 2.411647 1_555
Co5 Ga3 2.411647 1_554
Co5 Er0 2.832617 1_555
Co5 Er1 3.011670 1_554
Co5 Er1 3.011670 1_555
Co6 Ga5 2.411643 1_555
Co6 Ga5 2.411643 1_554
Co6 Ga1 2.411643 1_564
Co6 Ga1 2.411643 1_565
Co6 Er0 2.832609 1_565
Co6 Er2 3.011670 1_554
Co6 Er2 3.011670 1_555
Co7 Ga4 2.411642 1_565
Co7 Ga4 2.411642 1_564
Co7 Ga0 2.411647 1_554
Co7 Ga0 2.411647 1_555
Co7 Er0 2.832617 1_665
Co7 Er2 3.011670 1_554
Co7 Er2 3.011670 1_555
Co8 Ga2 2.411642 1_554
Co8 Ga2 2.411642 1_555
Co8 Ga3 2.411647 1_555
Co8 Ga3 2.411647 1_554
Co8 Er0 2.832617 1_555
Co8 Er2 3.011671 1_555
Co8 Er2 3.011671 1_554
