# generated using pymatgen
data_Mg(SiO2)6
_symmetry_space_group_name_H-M   'P 1'
_cell_length_a   5.30514201
_cell_length_b   7.47067243
_cell_length_c   7.88472520
_cell_angle_alpha   73.82562906
_cell_angle_beta   70.34115266
_cell_angle_gamma   69.20260010
_symmetry_Int_Tables_number   1
_chemical_formula_structural   Mg(SiO2)6
_chemical_formula_sum   'Mg1 Si6 O12'
_cell_volume   270.57523647
_cell_formula_units_Z   1
loop_
 _symmetry_equiv_pos_site_id
 _symmetry_equiv_pos_as_xyz
  1  'x, y, z'
loop_
 _atom_site_type_symbol
 _atom_site_label
 _atom_site_symmetry_multiplicity
 _atom_site_fract_x
 _atom_site_fract_y
 _atom_site_fract_z
 _atom_site_occupancy
  Mg  Mg0  1  0.43991200  0.25000000  0.75000000  1
  Si  Si0  1  0.38993700  0.32307800  0.31690500  1
  Si  Si1  1  0.02992000  0.17692200  0.18309500  1
  Si  Si2  1  0.62465800  0.67589400  0.65746700  1
  Si  Si3  1  0.95801800  0.82410600  0.84253300  1
  Si  Si4  1  0.95772400  0.25000000  0.75000000  1
  Si  Si5  1  0.99403300  0.75000000  0.25000000  1
  O  O0  1  0.66795100  0.43567600  0.71463300  1
  O  O1  1  0.81826100  0.06432400  0.78536700  1
  O  O2  1  0.26073000  0.56111000  0.26232300  1
  O  O3  1  0.08416200  0.93889000  0.23767700  1
  O  O4  1  0.46361400  0.25428900  0.50824000  1
  O  O5  1  0.22614300  0.24571100  0.99176000  1
  O  O6  1  0.29151200  0.77742900  0.73626200  1
  O  O7  1  0.80520200  0.72257100  0.76373800  1
  O  O8  1  0.69983900  0.26596700  0.16588600  1
  O  O9  1  0.13169300  0.23403300  0.33411400  1
  O  O10  1  0.90051300  0.76701600  0.06364800  1
  O  O11  1  0.73117700  0.73298400  0.43635200  1
loop_
_geom_bond_atom_site_label_1
_geom_bond_atom_site_label_2
_geom_bond_distance
_geom_bond_site_symmetry_2
Mg0 O5 1.859580 1_555
Mg0 O4 1.859580 1_555
Mg0 O0 2.052957 1_555
Mg0 O1 2.052961 1_555
O0 Si2 1.674149 1_555
O0 Si4 1.709906 1_555
O1 Si3 1.674148 1_545
O1 Si4 1.709902 1_555
O2 Si5 1.612724 1_455
O2 Si0 1.650394 1_555
O3 Si5 1.612720 1_455
O3 Si1 1.650395 1_565
O4 Si0 1.585875 1_555
O5 Si1 1.585875 1_556
O6 Si2 1.629954 1_555
O6 Si3 1.637406 1_455
O7 Si3 1.629954 1_555
O7 Si2 1.637398 1_555
O8 Si0 1.664514 1_555
O8 Si1 1.676228 1_655
O9 Si1 1.664518 1_555
O9 Si0 1.676223 1_555
O10 Si3 1.623205 1_554
O10 Si5 1.662197 1_555
O11 Si2 1.623205 1_555
O11 Si5 1.662197 1_555
