# generated using pymatgen
data_Tb3(SiC)2
_symmetry_space_group_name_H-M   'P 1'
_cell_length_a   7.54824328
_cell_length_b   7.54824328
_cell_length_c   4.67671400
_cell_angle_alpha   90.00000000
_cell_angle_beta   90.00000000
_cell_angle_gamma   148.54565446
_symmetry_Int_Tables_number   1
_chemical_formula_structural   Tb3(SiC)2
_chemical_formula_sum   'Tb3 Si2 C2'
_cell_volume   139.04407155
_cell_formula_units_Z   1
loop_
 _symmetry_equiv_pos_site_id
 _symmetry_equiv_pos_as_xyz
  1  'x, y, z'
loop_
 _atom_site_type_symbol
 _atom_site_label
 _atom_site_symmetry_multiplicity
 _atom_site_fract_x
 _atom_site_fract_y
 _atom_site_fract_z
 _atom_site_occupancy
  Tb  Tb0  1  0.36000700  0.63999300  0.46096400  1
  Tb  Tb1  1  0.63999300  0.36000700  0.46096400  1
  Tb  Tb2  1  0.00000000  0.00000000  0.95394700  1
  Si  Si0  1  0.20099300  0.79900700  0.96523600  1
  Si  Si1  1  0.79900700  0.20099300  0.96523600  1
  C  C0  1  0.15906500  0.15906500  0.45332600  1
  C  C1  1  0.84093500  0.84093500  0.45332600  1
loop_
_geom_bond_atom_site_label_1
_geom_bond_atom_site_label_2
_geom_bond_distance
_geom_bond_site_symmetry_2
Si0 Si1 2.492927 1_565
Si0 Si1 2.492927 1_455
Si0 Tb2 2.921172 1_565
Si0 Tb1 3.216634 1_456
Si0 Tb1 3.216634 1_566
Si0 Tb1 3.245552 1_455
Si0 Tb1 3.245552 1_565
Si0 Tb0 3.273246 1_556
Si0 Tb0 3.301668 1_555
Si1 Tb2 2.921172 1_655
Si1 Tb0 3.216634 1_546
Si1 Tb0 3.216634 1_656
Si1 Tb0 3.245552 1_545
Si1 Tb0 3.245552 1_655
Si1 Tb1 3.273246 1_556
Si1 Tb1 3.301668 1_555
C0 C1 1.301791 1_445
C0 Tb2 2.424460 1_554
C0 Tb2 2.430055 1_555
C0 Tb0 2.466965 1_555
C0 Tb1 2.466965 1_555
C1 Tb2 2.424460 1_664
C1 Tb2 2.430055 1_665
C1 Tb0 2.466965 1_555
C1 Tb1 2.466965 1_555
