# generated using pymatgen
data_TaTiCo
_symmetry_space_group_name_H-M   'P 1'
_cell_length_a   5.08520415
_cell_length_b   5.08575132
_cell_length_c   7.96535800
_cell_angle_alpha   90.00000000
_cell_angle_beta   90.00000000
_cell_angle_gamma   60.40488709
_symmetry_Int_Tables_number   1
_chemical_formula_structural   TaTiCo
_chemical_formula_sum   'Ta4 Ti4 Co4'
_cell_volume   179.12529063
_cell_formula_units_Z   4
loop_
 _symmetry_equiv_pos_site_id
 _symmetry_equiv_pos_as_xyz
  1  'x, y, z'
loop_
 _atom_site_type_symbol
 _atom_site_label
 _atom_site_symmetry_multiplicity
 _atom_site_fract_x
 _atom_site_fract_y
 _atom_site_fract_z
 _atom_site_occupancy
  Ta  Ta0  1  0.32187700  0.32186400  0.56826500  1
  Ta  Ta1  1  0.65344900  0.65352300  0.45601400  1
  Ta  Ta2  1  0.65344900  0.65352300  0.04398600  1
  Ta  Ta3  1  0.32187700  0.32186400  0.93173500  1
  Ti  Ti0  1  0.85177900  0.85176800  0.75000000  1
  Ti  Ti1  1  0.15646500  0.66142500  0.25000000  1
  Ti  Ti2  1  0.66146300  0.15648600  0.25000000  1
  Ti  Ti3  1  0.16724800  0.16723800  0.25000000  1
  Co  Co0  1  0.00583200  0.00576800  0.50013600  1
  Co  Co1  1  0.00583200  0.00576800  0.99986400  1
  Co  Co2  1  0.84223200  0.35854000  0.75000000  1
  Co  Co3  1  0.35849900  0.84223300  0.75000000  1
loop_
_geom_bond_atom_site_label_1
_geom_bond_atom_site_label_2
_geom_bond_distance
_geom_bond_site_symmetry_2
Ta0 Ti3 2.876488 1_555
Ta0 Ta3 2.895169 1_555
Ta0 Ti2 2.946449 1_555
Ta0 Ti1 2.946475 1_555
Ta0 Ti0 2.951139 1_545
Ta0 Ti0 2.951204 1_455
Ta0 Ta1 3.049039 1_555
Ta0 Ta1 3.087864 1_545
Ta0 Ta1 3.087929 1_455
Ta1 Ti0 2.919184 1_555
Ta1 Ti1 2.996859 1_555
Ta1 Ti2 2.997084 1_555
Ta1 Ti3 3.041582 1_565
Ta1 Ti3 3.041918 1_655
Ta1 Ti1 3.055978 1_655
Ta1 Ti2 3.056224 1_565
Ta1 Ta2 3.281951 1_555
Ta2 Ti0 2.919184 1_554
Ta2 Ti1 2.996859 1_555
Ta2 Ti2 2.997084 1_555
Ta2 Ti3 3.041582 1_565
Ta2 Ti3 3.041918 1_655
Ta2 Ta3 3.049039 1_554
Ta2 Ti1 3.055978 1_655
Ta2 Ti2 3.056224 1_565
Ta2 Ta3 3.087864 1_564
Ta2 Ta3 3.087929 1_654
Ta3 Ti3 2.876488 1_556
Ta3 Ti2 2.946449 1_556
Ta3 Ti1 2.946475 1_556
Ta3 Ti0 2.951139 1_545
Ta3 Ti0 2.951204 1_455
Ti1 Ti3 2.486689 1_555
Ti1 Ti2 2.532863 1_465
Ti1 Ti2 2.583706 1_555
Ti1 Ti3 2.599957 1_565
Ti2 Ti3 2.486633 1_555
Ti2 Ti3 2.599461 1_655
Co0 Ti0 2.407128 1_445
Co0 Ti3 2.446156 1_555
Co0 Ti2 2.509602 1_455
Co0 Ti1 2.509653 1_545
Co0 Co3 2.528993 1_545
Co0 Co2 2.529385 1_455
Co0 Ta0 2.830851 1_555
Co0 Ta1 2.889815 1_545
Co0 Ta1 2.890725 1_455
Co0 Ta0 3.074569 1_455
Co0 Ta0 3.074684 1_545
Co0 Ta1 3.116817 1_445
Co1 Ti0 2.407128 1_445
Co1 Ti3 2.446156 1_556
Co1 Ti2 2.509602 1_456
Co1 Ti1 2.509653 1_546
Co1 Co3 2.528993 1_545
Co1 Co2 2.529385 1_455
Co1 Ta3 2.830851 1_555
Co1 Ta2 2.889815 1_546
Co1 Ta2 2.890725 1_456
Co1 Ta3 3.074569 1_455
Co1 Ta3 3.074684 1_545
Co1 Ta2 3.116817 1_446
Co2 Co3 2.474951 1_555
Co2 Ti0 2.532763 1_555
Co2 Ti0 2.553689 1_545
Co2 Co3 2.641618 1_645
Co2 Ta1 2.689474 1_555
Co2 Ta2 2.689474 1_556
Co2 Ta3 2.762262 1_655
Co2 Ta0 2.762262 1_655
Co2 Ta3 3.101566 1_555
Co2 Ta0 3.101566 1_555
Co3 Ti0 2.532729 1_555
Co3 Ti0 2.553174 1_455
Co3 Ta1 2.689326 1_555
Co3 Ta2 2.689326 1_556
Co3 Ta3 2.762533 1_565
Co3 Ta0 2.762533 1_565
Co3 Ta3 3.101738 1_555
Co3 Ta0 3.101738 1_555
