# generated using pymatgen
data_YbNb3
_symmetry_space_group_name_H-M   'P 1'
_cell_length_a   6.33527381
_cell_length_b   6.33527381
_cell_length_c   4.95557100
_cell_angle_alpha   90.00000000
_cell_angle_beta   90.00000000
_cell_angle_gamma   119.99999797
_symmetry_Int_Tables_number   1
_chemical_formula_structural   YbNb3
_chemical_formula_sum   'Yb2 Nb6'
_cell_volume   172.24837062
_cell_formula_units_Z   2
loop_
 _symmetry_equiv_pos_site_id
 _symmetry_equiv_pos_as_xyz
  1  'x, y, z'
loop_
 _atom_site_type_symbol
 _atom_site_label
 _atom_site_symmetry_multiplicity
 _atom_site_fract_x
 _atom_site_fract_y
 _atom_site_fract_z
 _atom_site_occupancy
  Yb  Yb0  1  0.33333300  0.66666700  0.75000000  1
  Yb  Yb1  1  0.66666700  0.33333300  0.25000000  1
  Nb  Nb0  1  0.14737600  0.29475100  0.25000000  1
  Nb  Nb1  1  0.70524900  0.85262400  0.25000000  1
  Nb  Nb2  1  0.14737600  0.85262400  0.25000000  1
  Nb  Nb3  1  0.85262400  0.70524900  0.75000000  1
  Nb  Nb4  1  0.29475100  0.14737600  0.75000000  1
  Nb  Nb5  1  0.85262400  0.14737600  0.75000000  1
loop_
_geom_bond_atom_site_label_1
_geom_bond_atom_site_label_2
_geom_bond_distance
_geom_bond_site_symmetry_2
Nb0 Nb2 2.800996 1_545
Nb0 Nb1 2.800996 1_445
Nb0 Nb4 2.958816 1_555
Nb0 Nb4 2.958816 1_554
Nb0 Nb5 2.958822 1_454
Nb0 Nb5 2.958822 1_455
Nb0 Yb1 3.174702 1_455
Nb0 Yb1 3.174702 1_555
Nb0 Yb0 3.209851 1_555
Nb0 Yb0 3.209851 1_554
Nb0 Nb2 3.534278 1_555
Nb0 Nb1 3.534278 1_555
Nb1 Nb2 2.800996 1_655
Nb1 Nb3 2.958816 1_555
Nb1 Nb3 2.958816 1_554
Nb1 Nb5 2.958822 1_565
Nb1 Nb5 2.958822 1_564
Nb1 Yb1 3.174702 1_565
Nb1 Yb1 3.174702 1_555
Nb1 Yb0 3.209851 1_555
Nb1 Yb0 3.209851 1_554
Nb1 Nb2 3.534278 1_555
Nb2 Nb4 2.958822 1_564
Nb2 Nb3 2.958822 1_455
Nb2 Nb3 2.958822 1_454
Nb2 Nb4 2.958822 1_565
Nb2 Yb1 3.174702 1_565
Nb2 Yb1 3.174702 1_455
Nb2 Yb0 3.209844 1_555
Nb2 Yb0 3.209844 1_554
Nb3 Nb5 2.800996 1_565
Nb3 Nb4 2.800996 1_665
Nb3 Yb0 3.174702 1_655
Nb3 Yb0 3.174702 1_555
Nb3 Yb1 3.209851 1_556
Nb3 Yb1 3.209851 1_555
Nb3 Nb5 3.534278 1_555
Nb3 Nb4 3.534278 1_555
Nb4 Nb5 2.800996 1_455
Nb4 Yb0 3.174702 1_545
Nb4 Yb0 3.174702 1_555
Nb4 Yb1 3.209851 1_556
Nb4 Yb1 3.209851 1_555
Nb4 Nb5 3.534278 1_555
Nb5 Yb0 3.174702 1_655
Nb5 Yb0 3.174702 1_545
Nb5 Yb1 3.209844 1_556
Nb5 Yb1 3.209844 1_555
