# generated using pymatgen
data_TbPrMn4
_symmetry_space_group_name_H-M   'P 1'
_cell_length_a   5.23266938
_cell_length_b   5.23266938
_cell_length_c   5.23266938
_cell_angle_alpha   60.00000000
_cell_angle_beta   60.00000000
_cell_angle_gamma   60.00000000
_symmetry_Int_Tables_number   1
_chemical_formula_structural   TbPrMn4
_chemical_formula_sum   'Tb1 Pr1 Mn4'
_cell_volume   101.31059991
_cell_formula_units_Z   1
loop_
 _symmetry_equiv_pos_site_id
 _symmetry_equiv_pos_as_xyz
  1  'x, y, z'
loop_
 _atom_site_type_symbol
 _atom_site_label
 _atom_site_symmetry_multiplicity
 _atom_site_fract_x
 _atom_site_fract_y
 _atom_site_fract_z
 _atom_site_occupancy
  Tb  Tb0  1  0.00000000  0.00000000  0.00000000  1
  Pr  Pr0  1  0.25000000  0.25000000  0.25000000  1
  Mn  Mn0  1  0.62644900  0.62644900  0.12065200  1
  Mn  Mn1  1  0.62644900  0.12065200  0.62644900  1
  Mn  Mn2  1  0.12065200  0.62644900  0.62644900  1
  Mn  Mn3  1  0.62644900  0.62644900  0.62644900  1
loop_
_geom_bond_atom_site_label_1
_geom_bond_atom_site_label_2
_geom_bond_distance
_geom_bond_site_symmetry_2
Pr0 Tb0 3.204342 1_565
Pr0 Tb0 3.204342 1_655
Pr0 Tb0 3.204342 1_555
Pr0 Tb0 3.204342 1_556
Mn0 Mn2 2.586001 1_654
Mn0 Mn3 2.586001 1_554
Mn0 Mn1 2.586001 1_564
Mn0 Mn2 2.646668 1_555
Mn0 Mn3 2.646668 1_555
Mn0 Mn1 2.646668 1_555
Mn0 Tb0 3.064744 1_565
Mn0 Tb0 3.064744 1_655
Mn0 Tb0 3.064748 1_665
Mn0 Pr0 3.071210 1_555
Mn0 Pr0 3.071214 1_655
Mn0 Pr0 3.071214 1_565
Mn1 Mn2 2.586001 1_645
Mn1 Mn3 2.586001 1_545
Mn1 Mn2 2.646668 1_555
Mn1 Mn3 2.646668 1_555
Mn1 Tb0 3.064744 1_655
Mn1 Tb0 3.064744 1_556
Mn1 Tb0 3.064748 1_656
Mn1 Pr0 3.071210 1_555
Mn1 Pr0 3.071214 1_655
Mn1 Pr0 3.071214 1_556
Mn2 Mn3 2.586001 1_455
Mn2 Mn3 2.646668 1_555
Mn2 Tb0 3.064744 1_565
Mn2 Tb0 3.064744 1_556
Mn2 Tb0 3.064748 1_566
Mn2 Pr0 3.071210 1_555
Mn2 Pr0 3.071214 1_565
Mn2 Pr0 3.071214 1_556
Mn3 Tb0 3.064746 1_665
Mn3 Tb0 3.064746 1_656
Mn3 Tb0 3.064746 1_566
Mn3 Pr0 3.071212 1_556
Mn3 Pr0 3.071212 1_655
Mn3 Pr0 3.071212 1_565
