# generated using pymatgen
data_Cs2BaH6(NO6)2
_symmetry_space_group_name_H-M   'P 1'
_cell_length_a   6.51130200
_cell_length_b   8.29334300
_cell_length_c   13.53076100
_cell_angle_alpha   90.00000000
_cell_angle_beta   90.00000000
_cell_angle_gamma   90.00000000
_symmetry_Int_Tables_number   1
_chemical_formula_structural   Cs2BaH6(NO6)2
_chemical_formula_sum   'Cs4 Ba2 H12 N4 O24'
_cell_volume   730.66732982
_cell_formula_units_Z   2
loop_
 _symmetry_equiv_pos_site_id
 _symmetry_equiv_pos_as_xyz
  1  'x, y, z'
loop_
 _atom_site_type_symbol
 _atom_site_label
 _atom_site_symmetry_multiplicity
 _atom_site_fract_x
 _atom_site_fract_y
 _atom_site_fract_z
 _atom_site_occupancy
  Cs  Cs0  1  0.32771100  0.50000000  0.86067200  1
  Cs  Cs1  1  0.67228900  0.50000000  0.13932800  1
  Cs  Cs2  1  0.82771100  0.00000000  0.63932800  1
  Cs  Cs3  1  0.17228900  0.00000000  0.36067200  1
  Ba  Ba0  1  0.50000000  0.50000000  0.50000000  1
  Ba  Ba1  1  0.00000000  0.00000000  0.00000000  1
  H  H0  1  0.16465700  0.50000000  0.30885300  1
  H  H1  1  0.83534300  0.50000000  0.69114700  1
  H  H2  1  0.66465700  0.00000000  0.19114700  1
  H  H3  1  0.33534300  0.00000000  0.80885300  1
  H  H4  1  0.02197000  0.40147700  0.39024200  1
  H  H5  1  0.97803000  0.40147700  0.60975800  1
  H  H6  1  0.52197000  0.09852300  0.10975800  1
  H  H7  1  0.47803000  0.09852300  0.89024200  1
  H  H8  1  0.97803000  0.59852300  0.60975800  1
  H  H9  1  0.02197000  0.59852300  0.39024200  1
  H  H10  1  0.47803000  0.90147700  0.89024200  1
  H  H11  1  0.52197000  0.90147700  0.10975800  1
  N  N0  1  0.11561600  0.50000000  0.38044400  1
  N  N1  1  0.88438400  0.50000000  0.61955600  1
  N  N2  1  0.61561600  0.00000000  0.11955600  1
  N  N3  1  0.38438400  0.00000000  0.88044400  1
  O  O0  1  0.32676600  0.18530600  0.64127000  1
  O  O1  1  0.67323400  0.18530600  0.35873000  1
  O  O2  1  0.82676600  0.31469400  0.85873000  1
  O  O3  1  0.17323400  0.31469400  0.14127000  1
  O  O4  1  0.67323400  0.81469400  0.35873000  1
  O  O5  1  0.32676600  0.81469400  0.64127000  1
  O  O6  1  0.17323400  0.68530600  0.14127000  1
  O  O7  1  0.82676600  0.68530600  0.85873000  1
  O  O8  1  0.47966900  0.28804200  0.67022000  1
  O  O9  1  0.52033100  0.28804200  0.32978000  1
  O  O10  1  0.97966900  0.21195800  0.82978000  1
  O  O11  1  0.02033100  0.21195800  0.17022000  1
  O  O12  1  0.52033100  0.71195800  0.32978000  1
  O  O13  1  0.47966900  0.71195800  0.67022000  1
  O  O14  1  0.02033100  0.78804200  0.17022000  1
  O  O15  1  0.97966900  0.78804200  0.82978000  1
  O  O16  1  0.22532000  0.23487600  0.55767200  1
  O  O17  1  0.77468000  0.23487600  0.44232800  1
  O  O18  1  0.72532000  0.26512400  0.94232800  1
  O  O19  1  0.27468000  0.26512400  0.05767200  1
  O  O20  1  0.77468000  0.76512400  0.44232800  1
  O  O21  1  0.22532000  0.76512400  0.55767200  1
  O  O22  1  0.27468000  0.73487600  0.05767200  1
  O  O23  1  0.72532000  0.73487600  0.94232800  1
loop_
_geom_bond_atom_site_label_1
_geom_bond_atom_site_label_2
_geom_bond_distance
_geom_bond_site_symmetry_2
Cs0 O13 3.272572 1_555
Cs0 O8 3.272572 1_555
Cs0 O15 3.319175 1_455
Cs0 O10 3.319175 1_455
Cs0 O22 3.319456 1_556
Cs0 O19 3.319456 1_556
Cs0 O23 3.423120 1_555
Cs0 O18 3.423120 1_555
Cs1 O12 3.272572 1_555
Cs1 O9 3.272572 1_555
Cs1 O14 3.319175 1_655
Cs1 O11 3.319175 1_655
Cs1 O23 3.319456 1_554
Cs1 O18 3.319456 1_554
Cs1 O22 3.423120 1_555
Cs1 O19 3.423120 1_555
Cs2 O10 3.272572 1_555
Cs2 O15 3.272572 1_545
Cs2 O8 3.319175 1_555
Cs2 O13 3.319175 1_545
Cs2 O17 3.319456 1_555
Cs2 O20 3.319456 1_545
Cs2 O16 3.423120 1_655
Cs2 O21 3.423120 1_645
Cs3 O11 3.272572 1_555
Cs3 O14 3.272572 1_545
Cs3 O9 3.319175 1_555
Cs3 O12 3.319175 1_545
Cs3 O16 3.319456 1_555
Cs3 O21 3.319456 1_545
Cs3 O17 3.423120 1_455
Cs3 O20 3.423120 1_445
Ba0 O12 2.900394 1_555
Ba0 O13 2.900394 1_555
Ba0 O9 2.900394 1_555
Ba0 O8 2.900394 1_555
Ba0 O21 2.939783 1_555
Ba0 O20 2.939783 1_555
Ba0 O16 2.939783 1_555
Ba0 O17 2.939783 1_555
Ba0 N1 2.980119 1_555
Ba0 N0 2.980119 1_555
Ba1 O10 2.900394 1_454
Ba1 O11 2.900394 1_555
Ba1 O15 2.900394 1_444
Ba1 O14 2.900394 1_545
Ba1 O19 2.939783 1_555
Ba1 O22 2.939783 1_545
Ba1 O18 2.939783 1_454
Ba1 O23 2.939783 1_444
Ba1 N3 2.980119 1_554
Ba1 N2 2.980119 1_455
H0 N0 1.019955 1_555
H1 N1 1.019955 1_555
H2 N2 1.019955 1_555
H3 N3 1.019955 1_555
H4 N0 1.028109 1_555
H5 N1 1.028109 1_555
H6 N2 1.028109 1_555
H7 N3 1.028109 1_555
H8 N1 1.028109 1_555
H9 N0 1.028109 1_555
H10 N3 1.028109 1_565
H11 N2 1.028109 1_565
O0 O8 1.367700 1_555
O0 O16 1.372885 1_555
O1 O9 1.367700 1_555
O1 O17 1.372885 1_555
O10 O2 1.367700 1_555
O11 O3 1.367700 1_555
O12 O4 1.367700 1_555
O13 O5 1.367700 1_555
O14 O6 1.367700 1_555
O15 O7 1.367700 1_555
O18 O2 1.372885 1_555
O19 O3 1.372885 1_555
O20 O4 1.372885 1_555
O21 O5 1.372885 1_555
O22 O6 1.372885 1_555
O23 O7 1.372885 1_555
