# generated using pymatgen
data_Hf4UC5
_symmetry_space_group_name_H-M   'P 1'
_cell_length_a   13.80327882
_cell_length_b   13.80327882
_cell_length_c   13.80327862
_cell_angle_alpha   13.78038746
_cell_angle_beta   13.78038746
_cell_angle_gamma   13.78038817
_symmetry_Int_Tables_number   1
_chemical_formula_structural   Hf4UC5
_chemical_formula_sum   'Hf4 U1 C5'
_cell_volume   129.85331442
_cell_formula_units_Z   1
loop_
 _symmetry_equiv_pos_site_id
 _symmetry_equiv_pos_as_xyz
  1  'x, y, z'
loop_
 _atom_site_type_symbol
 _atom_site_label
 _atom_site_symmetry_multiplicity
 _atom_site_fract_x
 _atom_site_fract_y
 _atom_site_fract_z
 _atom_site_occupancy
  Hf  Hf0  1  0.59615300  0.59615300  0.59615300  1
  Hf  Hf1  1  0.19870900  0.19870900  0.19870900  1
  Hf  Hf2  1  0.80129100  0.80129100  0.80129100  1
  Hf  Hf3  1  0.40384700  0.40384700  0.40384700  1
  U  U0  1  0.00000000  0.00000000  0.00000000  1
  C  C0  1  0.70269700  0.70269700  0.70269700  1
  C  C1  1  0.50000000  0.50000000  0.50000000  1
  C  C2  1  0.10151700  0.10151700  0.10151700  1
  C  C3  1  0.29730300  0.29730300  0.29730300  1
  C  C4  1  0.89848300  0.89848300  0.89848300  1
loop_
_geom_bond_atom_site_label_1
_geom_bond_atom_site_label_2
_geom_bond_distance
_geom_bond_site_symmetry_2
C0 Hf3 2.378251 1_556
C0 Hf3 2.378252 1_565
C0 Hf3 2.378252 1_655
C0 U0 2.416515 1_665
C0 U0 2.416515 1_566
C0 U0 2.416515 1_656
C1 Hf2 2.320121 1_554
C1 Hf1 2.320121 1_556
C1 Hf2 2.320121 1_545
C1 Hf1 2.320121 1_565
C1 Hf1 2.320121 1_655
C1 Hf2 2.320121 1_455
C2 Hf3 2.296256 1_554
C2 Hf3 2.296256 1_455
C2 Hf3 2.296256 1_545
C2 Hf2 2.345135 1_445
C2 Hf2 2.345135 1_454
C2 Hf2 2.345135 1_544
C3 Hf0 2.378251 1_554
C3 Hf0 2.378252 1_455
C3 Hf0 2.378252 1_545
C3 U0 2.416515 1_556
C3 U0 2.416515 1_655
C3 U0 2.416515 1_565
C4 Hf0 2.296256 1_556
C4 Hf0 2.296256 1_655
C4 Hf0 2.296256 1_565
C4 Hf1 2.345135 1_665
C4 Hf1 2.345135 1_656
C4 Hf1 2.345135 1_566
