# generated using pymatgen
data_Te2Mo(WSe2)3
_symmetry_space_group_name_H-M   'P 1'
_cell_length_a   3.38162015
_cell_length_b   3.38162015
_cell_length_c   38.48617200
_cell_angle_alpha   90.00000000
_cell_angle_beta   90.00000000
_cell_angle_gamma   120.00000295
_symmetry_Int_Tables_number   1
_chemical_formula_structural   Te2Mo(WSe2)3
_chemical_formula_sum   'Te2 Mo1 W3 Se6'
_cell_volume   381.14039588
_cell_formula_units_Z   1
loop_
 _symmetry_equiv_pos_site_id
 _symmetry_equiv_pos_as_xyz
  1  'x, y, z'
loop_
 _atom_site_type_symbol
 _atom_site_label
 _atom_site_symmetry_multiplicity
 _atom_site_fract_x
 _atom_site_fract_y
 _atom_site_fract_z
 _atom_site_occupancy
  Te  Te0  1  0.33333300  0.66666700  0.70665600  1
  Te  Te1  1  0.33333300  0.66666700  0.60841900  1
  Mo  Mo0  1  0.66666700  0.33333300  0.28181800  1
  W  W0  1  0.33333300  0.66666700  0.09392200  1
  W  W1  1  0.33333300  0.66666700  0.46966200  1
  W  W2  1  0.66666700  0.33333300  0.65756000  1
  Se  Se0  1  0.33333300  0.66666700  0.32481300  1
  Se  Se1  1  0.66666700  0.33333300  0.05077200  1
  Se  Se2  1  0.66666700  0.33333300  0.42649200  1
  Se  Se3  1  0.66666700  0.33333300  0.13707600  1
  Se  Se4  1  0.66666700  0.33333300  0.51279300  1
  Se  Se5  1  0.33333300  0.66666700  0.23876500  1
loop_
_geom_bond_atom_site_label_1
_geom_bond_atom_site_label_2
_geom_bond_distance
_geom_bond_site_symmetry_2
Te0 W2 2.716993 1_455
Te0 W2 2.716993 1_565
Te0 W2 2.716997 1_555
Te1 W2 2.718198 1_455
Te1 W2 2.718198 1_565
Te1 W2 2.718202 1_555
Mo0 Se0 2.559268 1_655
Mo0 Se0 2.559268 1_545
Mo0 Se0 2.559272 1_555
Mo0 Se5 2.560712 1_545
Mo0 Se5 2.560712 1_655
Mo0 Se5 2.560716 1_555
Se1 W0 2.563129 1_655
Se1 W0 2.563129 1_545
Se1 W0 2.563133 1_555
Se2 W1 2.563628 1_545
Se2 W1 2.563628 1_655
Se2 W1 2.563632 1_555
Se3 W0 2.563229 1_655
Se3 W0 2.563229 1_545
Se3 W0 2.563233 1_555
Se4 W1 2.562655 1_545
Se4 W1 2.562655 1_655
Se4 W1 2.562660 1_555
