# generated using pymatgen
data_CaTl4(NiO3)4
_symmetry_space_group_name_H-M   'P 1'
_cell_length_a   5.39910183
_cell_length_b   5.62376414
_cell_length_c   8.94020725
_cell_angle_alpha   82.75910117
_cell_angle_beta   95.76831301
_cell_angle_gamma   94.17413205
_symmetry_Int_Tables_number   1
_chemical_formula_structural   CaTl4(NiO3)4
_chemical_formula_sum   'Ca1 Tl4 Ni4 O12'
_cell_volume   267.42806698
_cell_formula_units_Z   1
loop_
 _symmetry_equiv_pos_site_id
 _symmetry_equiv_pos_as_xyz
  1  'x, y, z'
loop_
 _atom_site_type_symbol
 _atom_site_label
 _atom_site_symmetry_multiplicity
 _atom_site_fract_x
 _atom_site_fract_y
 _atom_site_fract_z
 _atom_site_occupancy
  Ca  Ca0  1  0.90809600  0.11503200  0.91101100  1
  Tl  Tl0  1  0.52498000  0.53775800  0.24610100  1
  Tl  Tl1  1  0.02198700  0.84398100  0.67439500  1
  Tl  Tl2  1  0.47378800  0.39102400  0.72879300  1
  Tl  Tl3  1  0.97225700  0.04780200  0.27528200  1
  Ni  Ni0  1  0.45059900  0.04276800  0.05021700  1
  Ni  Ni1  1  0.50951700  0.98613500  0.48859600  1
  Ni  Ni2  1  0.02716300  0.46844000  0.46411600  1
  Ni  Ni3  1  0.97604500  0.56731600  0.03154600  1
  O  O0  1  0.72958300  0.27139900  0.41315900  1
  O  O1  1  0.73084000  0.27444700  0.09468100  1
  O  O2  1  0.21676000  0.18286700  0.55648200  1
  O  O3  1  0.81006200  0.75243700  0.43985600  1
  O  O4  1  0.72724700  0.80448000  0.09397000  1
  O  O5  1  0.36179700  0.96179200  0.27025300  1
  O  O6  1  0.28305100  0.31222800  0.94819500  1
  O  O7  1  0.66725700  0.02712400  0.69951900  1
  O  O8  1  0.85297700  0.52172300  0.81000800  1
  O  O9  1  0.19929700  0.83807900  0.95165700  1
  O  O10  1  0.13090800  0.46592700  0.24959300  1
  O  O11  1  0.30078700  0.67057400  0.56090400  1
loop_
_geom_bond_atom_site_label_1
_geom_bond_atom_site_label_2
_geom_bond_distance
_geom_bond_site_symmetry_2
Ca0 O6 2.251547 1_655
Ca0 O9 2.264678 1_645
Ca0 O7 2.271150 1_555
Ca0 O1 2.286445 1_556
Ca0 O8 2.378946 1_555
Ca0 O4 2.455956 1_546
Ni0 O6 1.905754 1_554
Ni0 O9 1.931431 1_544
Ni0 O1 1.966618 1_555
Ni0 O4 2.054655 1_545
Ni0 O5 2.058878 1_545
Ni1 O0 2.012724 1_565
Ni1 O7 2.022987 1_565
Ni1 O5 2.050314 1_555
Ni1 O11 2.098422 1_555
Ni1 O2 2.169669 1_565
Ni1 O3 2.268740 1_555
Ni2 O0 1.933332 1_455
Ni2 O11 1.992479 1_555
Ni2 O2 2.010991 1_555
Ni2 O3 2.026305 1_455
Ni2 O10 2.053323 1_555
Ni3 O9 1.978220 1_654
Ni3 O8 2.066079 1_554
Ni3 O10 2.070239 1_655
Ni3 O1 2.093418 1_555
Ni3 O4 2.119887 1_555
Ni3 O6 2.494924 1_654
O0 Tl0 2.245005 1_555
O0 Tl3 2.402606 1_555
O1 Tl3 2.287038 1_555
O1 Tl0 2.511582 1_555
O2 Tl1 2.296495 1_545
O2 Tl2 2.336160 1_555
O3 Tl3 2.263173 1_565
O3 Tl1 2.382232 1_655
O3 Tl0 2.558897 1_555
O4 Tl0 2.199588 1_555
O4 Tl3 2.472754 1_565
O5 Tl3 2.198154 1_465
O5 Tl0 2.642610 1_555
O6 Tl2 2.285792 1_555
O7 Tl1 2.282824 1_645
O7 Tl2 2.418444 1_555
O8 Tl2 2.208047 1_555
O8 Tl1 2.239372 1_655
O9 Tl1 2.562965 1_555
O10 Tl0 2.139169 1_555
O10 Tl3 2.434319 1_455
O11 Tl2 2.221267 1_555
O11 Tl1 2.239746 1_555
