# generated using pymatgen
data_Mg6SbMo
_symmetry_space_group_name_H-M   'P 1'
_cell_length_a   5.00333800
_cell_length_b   6.22490800
_cell_length_c   10.53476900
_cell_angle_alpha   90.00000000
_cell_angle_beta   90.00000000
_cell_angle_gamma   90.00000000
_symmetry_Int_Tables_number   1
_chemical_formula_structural   Mg6SbMo
_chemical_formula_sum   'Mg12 Sb2 Mo2'
_cell_volume   328.10873839
_cell_formula_units_Z   2
loop_
 _symmetry_equiv_pos_site_id
 _symmetry_equiv_pos_as_xyz
  1  'x, y, z'
loop_
 _atom_site_type_symbol
 _atom_site_label
 _atom_site_symmetry_multiplicity
 _atom_site_fract_x
 _atom_site_fract_y
 _atom_site_fract_z
 _atom_site_occupancy
  Mg  Mg0  1  0.00000000  0.24419500  0.08143600  1
  Mg  Mg1  1  0.00000000  0.75580500  0.08143600  1
  Mg  Mg2  1  0.00000000  0.50000000  0.83432300  1
  Mg  Mg3  1  0.50000000  0.23998000  0.91423900  1
  Mg  Mg4  1  0.50000000  0.76002000  0.91423900  1
  Mg  Mg5  1  0.50000000  0.50000000  0.66641500  1
  Mg  Mg6  1  0.00000000  0.74419500  0.58143600  1
  Mg  Mg7  1  0.00000000  0.25580500  0.58143600  1
  Mg  Mg8  1  0.00000000  0.00000000  0.33432300  1
  Mg  Mg9  1  0.50000000  0.73998000  0.41423900  1
  Mg  Mg10  1  0.50000000  0.26002000  0.41423900  1
  Mg  Mg11  1  0.50000000  0.00000000  0.16641500  1
  Sb  Sb0  1  0.50000000  0.50000000  0.17575500  1
  Sb  Sb1  1  0.50000000  0.00000000  0.67575500  1
  Mo  Mo0  1  0.00000000  0.50000000  0.33215700  1
  Mo  Mo1  1  0.00000000  0.00000000  0.83215700  1
loop_
_geom_bond_atom_site_label_1
_geom_bond_atom_site_label_2
_geom_bond_distance
_geom_bond_site_symmetry_2
Mg0 Mo1 3.034314 1_554
Mg0 Mg2 3.051668 1_554
Mg0 Mg11 3.061122 1_455
Mg0 Mg11 3.061122 1_555
Mg0 Mg8 3.067269 1_555
Mg0 Mo0 3.084156 1_555
Mg0 Sb0 3.127501 1_555
Mg0 Sb0 3.127501 1_455
Mg1 Mo1 3.034314 1_564
Mg1 Mg2 3.051668 1_554
Mg1 Mg11 3.061122 1_465
Mg1 Mg11 3.061122 1_565
Mg1 Mg8 3.067269 1_565
Mg1 Mo0 3.084156 1_555
Mg1 Sb0 3.127501 1_555
Mg1 Sb0 3.127501 1_455
Mg2 Mg5 3.063863 1_455
Mg2 Mg5 3.063863 1_555
Mg2 Mg6 3.067269 1_555
Mg2 Mg7 3.067269 1_555
Mg2 Mg4 3.096289 1_555
Mg2 Mg3 3.096289 1_455
Mg2 Mg4 3.096289 1_455
Mg2 Mg3 3.096289 1_555
Mg2 Mo1 3.112538 1_565
Mg2 Mo1 3.112538 1_555
Mg3 Sb1 2.922947 1_555
Mg3 Mo1 3.039355 1_555
Mg3 Mo1 3.039355 1_655
Mg3 Mg5 3.071804 1_555
Mg3 Sb0 3.195301 1_556
Mg4 Sb1 2.922947 1_565
Mg4 Mo1 3.039355 1_665
Mg4 Mo1 3.039355 1_565
Mg4 Mg5 3.071804 1_555
Mg4 Sb0 3.195301 1_556
Mg5 Mg9 3.047820 1_555
Mg5 Mg6 3.061122 1_555
Mg5 Mg6 3.061122 1_655
Mg5 Mg7 3.061122 1_555
Mg5 Mg7 3.061122 1_655
Mg5 Sb1 3.114009 1_565
Mg5 Sb1 3.114009 1_555
Mg6 Mo0 3.034314 1_555
Mg6 Mg8 3.051668 1_565
Mg6 Mo1 3.084156 1_565
Mg6 Sb1 3.127501 1_465
Mg6 Sb1 3.127501 1_565
Mg7 Mo0 3.034314 1_555
Mg7 Mg8 3.051668 1_555
Mg7 Mo1 3.084156 1_555
Mg7 Sb1 3.127501 1_455
Mg7 Sb1 3.127501 1_555
Mg8 Mg9 3.096289 1_545
Mg8 Mg9 3.096289 1_445
Mg8 Mo0 3.112538 1_555
Mg8 Mo0 3.112538 1_545
Mg9 Sb0 2.922947 1_555
Mg9 Mo0 3.039355 1_655
Mg9 Mo0 3.039355 1_555
Mg9 Sb1 3.195301 1_565
Mg10 Sb0 2.922947 1_555
Mg10 Mo0 3.039355 1_655
Mg10 Mo0 3.039355 1_555
Mg10 Mg5 3.047820 1_555
Mg10 Mg11 3.071804 1_555
Mg10 Mg8 3.096289 1_655
Mg10 Mg8 3.096289 1_555
Mg10 Sb1 3.195301 1_555
Mg11 Mg4 3.047820 1_544
Mg11 Mg3 3.047820 1_554
Mg11 Mg8 3.063863 1_555
Mg11 Mg8 3.063863 1_655
Mg11 Mg9 3.071804 1_545
Mg11 Sb0 3.114009 1_555
Mg11 Sb0 3.114009 1_545
Mo0 Sb0 2.995518 1_455
Mo0 Sb0 2.995518 1_555
Mo1 Sb1 2.995518 1_455
Mo1 Sb1 2.995518 1_555
