# generated using pymatgen
data_HfMg6W
_symmetry_space_group_name_H-M   'P 1'
_cell_length_a   5.05496500
_cell_length_b   5.76773800
_cell_length_c   11.23606800
_cell_angle_alpha   90.00000000
_cell_angle_beta   90.00000000
_cell_angle_gamma   90.00000000
_symmetry_Int_Tables_number   1
_chemical_formula_structural   HfMg6W
_chemical_formula_sum   'Hf2 Mg12 W2'
_cell_volume   327.59558194
_cell_formula_units_Z   2
loop_
 _symmetry_equiv_pos_site_id
 _symmetry_equiv_pos_as_xyz
  1  'x, y, z'
loop_
 _atom_site_type_symbol
 _atom_site_label
 _atom_site_symmetry_multiplicity
 _atom_site_fract_x
 _atom_site_fract_y
 _atom_site_fract_z
 _atom_site_occupancy
  Hf  Hf0  1  0.50000000  0.50000000  0.17345000  1
  Hf  Hf1  1  0.50000000  0.00000000  0.67345000  1
  Mg  Mg0  1  0.50000000  0.25041800  0.42442300  1
  Mg  Mg1  1  0.50000000  0.74958200  0.42442300  1
  Mg  Mg2  1  0.00000000  0.75797800  0.08461300  1
  Mg  Mg3  1  0.00000000  0.24202200  0.08461300  1
  Mg  Mg4  1  0.00000000  0.00000000  0.31176200  1
  Mg  Mg5  1  0.00000000  0.50000000  0.32494000  1
  Mg  Mg6  1  0.50000000  0.75041800  0.92442300  1
  Mg  Mg7  1  0.50000000  0.24958200  0.92442300  1
  Mg  Mg8  1  0.00000000  0.25797800  0.58461300  1
  Mg  Mg9  1  0.00000000  0.74202200  0.58461300  1
  Mg  Mg10  1  0.00000000  0.50000000  0.81176200  1
  Mg  Mg11  1  0.00000000  0.00000000  0.82494000  1
  W  W0  1  0.50000000  0.00000000  0.17177300  1
  W  W1  1  0.50000000  0.50000000  0.67177300  1
loop_
_geom_bond_atom_site_label_1
_geom_bond_atom_site_label_2
_geom_bond_distance
_geom_bond_site_symmetry_2
Hf0 W0 2.883931 1_555
Hf0 W0 2.883931 1_565
Hf0 Mg5 3.047210 1_555
Hf0 Mg5 3.047210 1_655
Hf0 Mg6 3.148874 1_554
Hf0 Mg7 3.148874 1_554
Hf0 Mg1 3.166125 1_555
Hf0 Mg0 3.166125 1_555
Hf1 W1 2.883931 1_545
Hf1 W1 2.883931 1_555
Hf1 Mg11 3.047210 1_655
Hf1 Mg11 3.047210 1_555
Hf1 Mg0 3.148874 1_555
Hf1 Mg1 3.148874 1_545
Hf1 Mg7 3.166125 1_555
Hf1 Mg6 3.166125 1_545
Mg0 Mg1 2.879047 1_555
Mg0 Mg1 2.888691 1_545
Mg0 Mg8 3.103181 1_555
Mg0 Mg8 3.103181 1_655
Mg0 Mg5 3.116066 1_555
Mg0 Mg5 3.116066 1_655
Mg0 W1 3.129922 1_555
Mg0 Mg4 3.174385 1_655
Mg0 Mg4 3.174385 1_555
Mg0 W0 3.185102 1_555
Mg1 Mg9 3.103181 1_555
Mg1 Mg9 3.103181 1_655
Mg1 Mg5 3.116066 1_555
Mg1 Mg5 3.116066 1_655
Mg1 W1 3.129922 1_555
Mg1 Mg4 3.174385 1_665
Mg1 Mg4 3.174385 1_565
Mg1 W0 3.185102 1_565
Mg2 W0 3.048911 1_565
Mg2 W0 3.048911 1_465
Mg2 Mg5 3.083144 1_555
Mg2 Mg6 3.103181 1_554
Mg2 Mg6 3.103181 1_454
Mg3 W0 3.048911 1_555
Mg3 W0 3.048911 1_455
Mg3 Mg5 3.083144 1_555
Mg3 Mg7 3.103181 1_554
Mg3 Mg7 3.103181 1_454
Mg4 Mg5 2.887668 1_555
Mg4 Mg5 2.887668 1_545
Mg4 W0 2.976955 1_555
Mg4 W0 2.976955 1_455
Mg5 Mg8 3.234437 1_555
Mg5 Mg9 3.234437 1_555
Mg6 Mg7 2.879047 1_565
Mg6 Mg7 2.888691 1_555
Mg6 W0 3.129922 1_566
Mg6 W1 3.185102 1_555
Mg7 W0 3.129922 1_556
Mg7 W1 3.185102 1_555
Mg8 W1 3.048911 1_455
Mg8 W1 3.048911 1_555
Mg9 W1 3.048911 1_455
Mg9 W1 3.048911 1_555
Mg10 Mg11 2.887668 1_565
Mg10 Mg11 2.887668 1_555
Mg10 W1 2.976955 1_555
Mg10 W1 2.976955 1_455
Mg10 Mg6 3.174385 1_455
Mg10 Mg6 3.174385 1_555
Mg10 Mg7 3.174385 1_455
Mg10 Mg7 3.174385 1_555
Mg11 Mg8 3.083144 1_555
Mg11 Mg9 3.083144 1_545
Mg11 Mg7 3.116066 1_455
Mg11 Mg7 3.116066 1_555
Mg11 Mg6 3.116066 1_445
Mg11 Mg6 3.116066 1_545
Mg11 Mg3 3.234437 1_556
Mg11 Mg2 3.234437 1_546
