# generated using pymatgen
data_CeSbMo2O9
_symmetry_space_group_name_H-M   'P 1'
_cell_length_a   9.90141728
_cell_length_b   9.90141728
_cell_length_c   11.06958381
_cell_angle_alpha   68.31912749
_cell_angle_beta   68.31912749
_cell_angle_gamma   95.85267418
_symmetry_Int_Tables_number   1
_chemical_formula_structural   CeSbMo2O9
_chemical_formula_sum   'Ce4 Sb4 Mo8 O36'
_cell_volume   900.68464477
_cell_formula_units_Z   4
loop_
 _symmetry_equiv_pos_site_id
 _symmetry_equiv_pos_as_xyz
  1  'x, y, z'
loop_
 _atom_site_type_symbol
 _atom_site_label
 _atom_site_symmetry_multiplicity
 _atom_site_fract_x
 _atom_site_fract_y
 _atom_site_fract_z
 _atom_site_occupancy
  Ce  Ce0  1  0.67574100  0.32425900  0.75000000  1
  Ce  Ce1  1  0.32425900  0.67574100  0.25000000  1
  Ce  Ce2  1  0.12351300  0.87648700  0.75000000  1
  Ce  Ce3  1  0.87648700  0.12351300  0.25000000  1
  Sb  Sb0  1  0.64733700  0.62074600  0.96269900  1
  Sb  Sb1  1  0.37925400  0.35266300  0.53730100  1
  Sb  Sb2  1  0.35266300  0.37925400  0.03730100  1
  Sb  Sb3  1  0.62074600  0.64733700  0.46269900  1
  Mo  Mo0  1  0.04874000  0.26007600  0.47218400  1
  Mo  Mo1  1  0.73992400  0.95126000  0.02781600  1
  Mo  Mo2  1  0.95126000  0.73992400  0.52781600  1
  Mo  Mo3  1  0.26007600  0.04874000  0.97218400  1
  Mo  Mo4  1  0.06218600  0.43491100  0.80348400  1
  Mo  Mo5  1  0.56508900  0.93781400  0.69651600  1
  Mo  Mo6  1  0.93781400  0.56508900  0.19651600  1
  Mo  Mo7  1  0.43491100  0.06218600  0.30348400  1
  O  O0  1  0.06166700  0.09500000  0.59886800  1
  O  O1  1  0.90500000  0.93833300  0.90113200  1
  O  O2  1  0.93833300  0.90500000  0.40113200  1
  O  O3  1  0.09500000  0.06166700  0.09886800  1
  O  O4  1  0.87439600  0.29753200  0.56063300  1
  O  O5  1  0.70246800  0.12560400  0.93936700  1
  O  O6  1  0.12560400  0.70246800  0.43936700  1
  O  O7  1  0.29753200  0.87439600  0.06063300  1
  O  O8  1  0.05237800  0.22831500  0.32101100  1
  O  O9  1  0.77168500  0.94762200  0.17898900  1
  O  O10  1  0.94762200  0.77168500  0.67898900  1
  O  O11  1  0.22831500  0.05237800  0.82101100  1
  O  O12  1  0.78125400  0.59624800  0.57546700  1
  O  O13  1  0.40375200  0.21874600  0.92453300  1
  O  O14  1  0.21874600  0.40375200  0.42453300  1
  O  O15  1  0.59624800  0.78125400  0.07546700  1
  O  O16  1  0.98588600  0.30470100  0.98943700  1
  O  O17  1  0.69529900  0.01411400  0.51056300  1
  O  O18  1  0.01411400  0.69529900  0.01056300  1
  O  O19  1  0.30470100  0.98588600  0.48943700  1
  O  O20  1  0.14142500  0.61783300  0.77777000  1
  O  O21  1  0.38216700  0.85857500  0.72223000  1
  O  O22  1  0.85857500  0.38216700  0.22223000  1
  O  O23  1  0.61783300  0.14142500  0.27777000  1
  O  O24  1  0.91415200  0.44161900  0.74735700  1
  O  O25  1  0.55838100  0.08584800  0.75264300  1
  O  O26  1  0.08584800  0.55838100  0.25264300  1
  O  O27  1  0.44161900  0.91415200  0.24735700  1
  O  O28  1  0.21541100  0.37444400  0.69695500  1
  O  O29  1  0.62555600  0.78458900  0.80304500  1
  O  O30  1  0.78458900  0.62555600  0.30304500  1
  O  O31  1  0.37444400  0.21541100  0.19695500  1
  O  O32  1  0.57561000  0.45989400  0.90070300  1
  O  O33  1  0.54010600  0.42439000  0.59929700  1
  O  O34  1  0.42439000  0.54010600  0.09929700  1
  O  O35  1  0.45989400  0.57561000  0.40070300  1
loop_
_geom_bond_atom_site_label_1
_geom_bond_atom_site_label_2
_geom_bond_distance
_geom_bond_site_symmetry_2
Ce0 O5 2.408864 1_555
Ce0 O4 2.408864 1_555
Ce0 O13 2.483390 1_555
Ce0 O12 2.483390 1_555
Ce0 O32 2.504866 1_555
Ce0 O33 2.504866 1_555
Ce0 O25 2.507599 1_555
Ce0 O24 2.507599 1_555
Ce1 O6 2.408864 1_555
Ce1 O7 2.408864 1_555
Ce1 O14 2.483390 1_555
Ce1 O15 2.483390 1_555
Ce1 O34 2.504866 1_555
Ce1 O35 2.504866 1_555
Ce1 O26 2.507599 1_555
Ce1 O27 2.507599 1_555
Ce2 O10 2.444051 1_455
Ce2 O11 2.444051 1_565
Ce2 O18 2.486574 1_556
Ce2 O19 2.486574 1_555
Ce2 O1 2.491514 1_455
Ce2 O0 2.491514 1_565
Ce2 O20 2.497220 1_555
Ce2 O21 2.497220 1_555
Ce3 O9 2.444051 1_545
Ce3 O8 2.444051 1_655
Ce3 O17 2.486574 1_555
Ce3 O16 2.486574 1_554
Ce3 O2 2.491514 1_545
Ce3 O3 2.491514 1_655
Ce3 O23 2.497220 1_555
Ce3 O22 2.497220 1_555
Mo0 O0 1.770931 1_555
Mo0 O4 1.796152 1_455
Mo0 O8 1.801983 1_555
Mo0 O14 1.853821 1_555
Mo1 O1 1.770931 1_554
Mo1 O5 1.796152 1_564
Mo1 O9 1.801983 1_555
Mo1 O15 1.853821 1_555
Mo2 O2 1.770931 1_555
Mo2 O6 1.796152 1_655
Mo2 O10 1.801983 1_555
Mo2 O12 1.853821 1_555
Mo3 O3 1.770931 1_556
Mo3 O7 1.796152 1_546
Mo3 O11 1.801983 1_555
Mo3 O13 1.853821 1_555
Mo4 O20 1.772357 1_555
Mo4 O16 1.778071 1_455
Mo4 O24 1.789155 1_455
Mo4 O28 1.853585 1_555
Mo5 O21 1.772357 1_555
Mo5 O17 1.778071 1_565
Mo5 O25 1.789155 1_565
Mo5 O29 1.853585 1_555
Mo6 O22 1.772357 1_555
Mo6 O18 1.778071 1_655
Mo6 O26 1.789155 1_655
Mo6 O30 1.853585 1_555
Mo7 O23 1.772357 1_555
Mo7 O19 1.778071 1_545
Mo7 O27 1.789155 1_545
Mo7 O31 1.853585 1_555
O12 Sb3 2.345864 1_555
O13 Sb2 2.345864 1_556
O14 Sb1 2.345864 1_555
O15 Sb0 2.345864 1_554
O28 Sb1 2.009038 1_555
O29 Sb0 2.009038 1_555
O30 Sb3 2.009038 1_555
O31 Sb2 2.009038 1_555
O32 Sb2 2.019684 1_556
O32 Sb0 2.109253 1_555
O33 Sb3 2.019684 1_555
O33 Sb1 2.109253 1_555
O34 Sb0 2.019684 1_554
O34 Sb2 2.109253 1_555
O35 Sb1 2.019684 1_555
O35 Sb3 2.109253 1_555
