# generated using pymatgen
data_Ta6Fe7
_symmetry_space_group_name_H-M   'P 1'
_cell_length_a   4.86234090
_cell_length_b   4.86234100
_cell_length_c   9.18064007
_cell_angle_alpha   74.64404741
_cell_angle_beta   74.64404644
_cell_angle_gamma   60.00000612
_symmetry_Int_Tables_number   1
_chemical_formula_structural   Ta6Fe7
_chemical_formula_sum   'Ta6 Fe7'
_cell_volume   178.96896502
_cell_formula_units_Z   1
loop_
 _symmetry_equiv_pos_site_id
 _symmetry_equiv_pos_as_xyz
  1  'x, y, z'
loop_
 _atom_site_type_symbol
 _atom_site_label
 _atom_site_symmetry_multiplicity
 _atom_site_fract_x
 _atom_site_fract_y
 _atom_site_fract_z
 _atom_site_occupancy
  Ta  Ta0  1  0.83357500  0.83357500  0.49927600  1
  Ta  Ta1  1  0.16642500  0.16642500  0.50072400  1
  Ta  Ta2  1  0.65466300  0.65466300  0.03601000  1
  Ta  Ta3  1  0.34533700  0.34533700  0.96399000  1
  Ta  Ta4  1  0.55062500  0.55062500  0.34812600  1
  Ta  Ta5  1  0.44937500  0.44937500  0.65187400  1
  Fe  Fe0  1  0.00000000  0.00000000  0.00000000  1
  Fe  Fe1  1  0.91010300  0.91010300  0.77506100  1
  Fe  Fe2  1  0.40473300  0.91010300  0.77506100  1
  Fe  Fe3  1  0.91010300  0.40473300  0.77506100  1
  Fe  Fe4  1  0.08989700  0.08989700  0.22493900  1
  Fe  Fe5  1  0.59526700  0.08989700  0.22493900  1
  Fe  Fe6  1  0.08989700  0.59526700  0.22493900  1
loop_
_geom_bond_atom_site_label_1
_geom_bond_atom_site_label_2
_geom_bond_distance
_geom_bond_site_symmetry_2
Ta0 Ta1 2.807297 1_665
Ta0 Ta1 2.807305 1_565
Ta0 Ta1 2.807305 1_655
Ta0 Ta4 3.102631 1_555
Ta0 Ta4 3.102632 1_655
Ta0 Ta4 3.102632 1_565
Ta0 Ta5 3.108040 1_655
Ta0 Ta5 3.108040 1_565
Ta0 Ta5 3.108047 1_555
Ta1 Ta5 3.102631 1_555
Ta1 Ta5 3.102632 1_455
Ta1 Ta5 3.102632 1_545
Ta1 Ta4 3.108040 1_455
Ta1 Ta4 3.108040 1_545
Ta1 Ta4 3.108047 1_555
Ta2 Ta4 2.728175 1_555
Ta2 Ta3 2.876986 1_554
Ta2 Ta3 2.876995 1_654
Ta2 Ta3 2.876995 1_564
Ta3 Ta5 2.728175 1_555
Ta4 Ta5 2.655032 1_555
Fe0 Fe4 2.407058 1_555
Fe0 Fe1 2.407058 1_444
Fe0 Fe2 2.407058 1_544
Fe0 Fe5 2.407058 1_455
Fe0 Fe6 2.407058 1_545
Fe0 Fe3 2.407058 1_454
Fe0 Ta3 2.824863 1_454
Fe0 Ta2 2.824863 1_545
Fe0 Ta3 2.824863 1_544
Fe0 Ta2 2.824863 1_455
Fe0 Ta2 2.824867 1_445
Fe0 Ta3 2.824867 1_554
Fe1 Fe2 2.405060 1_655
Fe1 Fe3 2.405060 1_565
Fe1 Fe2 2.457281 1_555
Fe1 Fe3 2.457281 1_555
Fe1 Ta5 2.658993 1_655
Fe1 Ta5 2.658993 1_565
Fe1 Ta2 2.686148 1_556
Fe1 Ta1 2.770970 1_665
Fe1 Ta0 2.797101 1_555
Fe1 Ta3 2.939043 1_565
Fe1 Ta3 2.939043 1_655
Fe2 Fe3 2.405060 1_465
Fe2 Fe3 2.457281 1_555
Fe2 Ta5 2.658990 1_565
Fe2 Ta5 2.658995 1_555
Fe2 Ta2 2.686146 1_556
Fe2 Ta1 2.770972 1_565
Fe2 Ta0 2.797103 1_555
Fe2 Ta3 2.939041 1_555
Fe2 Ta3 2.939045 1_565
Fe3 Ta5 2.658990 1_655
Fe3 Ta5 2.658995 1_555
Fe3 Ta2 2.686146 1_556
Fe3 Ta1 2.770972 1_655
Fe3 Ta0 2.797103 1_555
Fe3 Ta3 2.939041 1_555
Fe3 Ta3 2.939045 1_655
Fe4 Fe5 2.405060 1_455
Fe4 Fe6 2.405060 1_545
Fe4 Fe5 2.457281 1_555
Fe4 Fe6 2.457281 1_555
Fe4 Ta4 2.658993 1_455
Fe4 Ta4 2.658993 1_545
Fe4 Ta3 2.686148 1_554
Fe4 Ta0 2.770970 1_445
Fe4 Ta1 2.797101 1_555
Fe4 Ta2 2.939043 1_545
Fe4 Ta2 2.939043 1_455
Fe5 Fe6 2.405060 1_645
Fe5 Fe6 2.457281 1_555
Fe5 Ta4 2.658990 1_545
Fe5 Ta4 2.658995 1_555
Fe5 Ta3 2.686146 1_554
Fe5 Ta0 2.770972 1_545
Fe5 Ta1 2.797103 1_555
Fe5 Ta2 2.939041 1_555
Fe5 Ta2 2.939045 1_545
Fe6 Ta4 2.658990 1_455
Fe6 Ta4 2.658995 1_555
Fe6 Ta3 2.686146 1_554
Fe6 Ta0 2.770972 1_455
Fe6 Ta1 2.797103 1_555
Fe6 Ta2 2.939041 1_555
Fe6 Ta2 2.939045 1_455
