# generated using pymatgen
data_Ca3MgNi14
_symmetry_space_group_name_H-M   'P 1'
_cell_length_a   12.29714602
_cell_length_b   12.29714602
_cell_length_c   12.29714626
_cell_angle_alpha   23.40280199
_cell_angle_beta   23.40280199
_cell_angle_gamma   23.40279796
_symmetry_Int_Tables_number   1
_chemical_formula_structural   Ca3MgNi14
_chemical_formula_sum   'Ca3 Mg1 Ni14'
_cell_volume   257.59625419
_cell_formula_units_Z   1
loop_
 _symmetry_equiv_pos_site_id
 _symmetry_equiv_pos_as_xyz
  1  'x, y, z'
loop_
 _atom_site_type_symbol
 _atom_site_label
 _atom_site_symmetry_multiplicity
 _atom_site_fract_x
 _atom_site_fract_y
 _atom_site_fract_z
 _atom_site_occupancy
  Ca  Ca0  1  0.05178700  0.05178700  0.05178700  1
  Ca  Ca1  1  0.94736700  0.94736700  0.94736700  1
  Ca  Ca2  1  0.14969500  0.14969500  0.14969500  1
  Mg  Mg0  1  0.85154500  0.85154500  0.85154500  1
  Ni  Ni0  1  0.27784000  0.27784000  0.27784000  1
  Ni  Ni1  1  0.72204000  0.72204000  0.72204000  1
  Ni  Ni2  1  0.38857100  0.38857100  0.38857100  1
  Ni  Ni3  1  0.61179100  0.61179100  0.61179100  1
  Ni  Ni4  1  0.10831100  0.61115000  0.61115000  1
  Ni  Ni5  1  0.61115000  0.61115000  0.10831100  1
  Ni  Ni6  1  0.61115000  0.10831100  0.61115000  1
  Ni  Ni7  1  0.89049000  0.38903000  0.38903000  1
  Ni  Ni8  1  0.38903000  0.38903000  0.89049000  1
  Ni  Ni9  1  0.38903000  0.89049000  0.38903000  1
  Ni  Ni10  1  0.49966000  0.49966000  0.00054000  1
  Ni  Ni11  1  0.49966000  0.00054000  0.49966000  1
  Ni  Ni12  1  0.00054000  0.49966000  0.49966000  1
  Ni  Ni13  1  0.50034400  0.50034400  0.50034400  1
loop_
_geom_bond_atom_site_label_1
_geom_bond_atom_site_label_2
_geom_bond_distance
_geom_bond_site_symmetry_2
Ca0 Ni2 2.882480 1_455
Ca0 Ni2 2.882480 1_545
Ca0 Ni2 2.882481 1_554
Ca0 Ni1 2.882693 1_544
Ca0 Ni1 2.882693 1_454
Ca0 Ni1 2.882694 1_445
Ca0 Ni10 3.110640 1_455
Ca0 Ni10 3.110640 1_545
Ca0 Ni12 3.110640 1_545
Ca0 Ni11 3.110640 1_455
Ca0 Ni12 3.110640 1_554
Ca0 Ni11 3.110640 1_554
Ca0 Ni5 3.257259 1_455
Ca0 Ni5 3.257259 1_545
Ca0 Ni4 3.257259 1_554
Ca0 Ni6 3.257259 1_554
Ca0 Ni6 3.257259 1_455
Ca0 Ni4 3.257259 1_545
Ca1 Ni3 2.880945 1_565
Ca1 Ni3 2.880945 1_655
Ca1 Ni3 2.880946 1_556
Ca1 Ni0 2.881649 1_566
Ca1 Ni0 2.881649 1_656
Ca1 Ni0 2.881649 1_665
Ca1 Ni10 3.126848 1_566
Ca1 Ni10 3.126848 1_656
Ca1 Ni11 3.126848 1_665
Ca1 Ni12 3.126848 1_665
Ca1 Ni11 3.126848 1_566
Ca1 Ni12 3.126848 1_656
Ca1 Ni8 3.244223 1_655
Ca1 Ni8 3.244223 1_565
Ca1 Ni9 3.244224 1_556
Ca1 Ni7 3.244224 1_556
Ca1 Ni7 3.244224 1_565
Ca1 Ni9 3.244224 1_655
Ca1 Mg0 3.436709 1_555
Ca2 Ni5 2.868140 1_455
Ca2 Ni5 2.868140 1_545
Ca2 Ni6 2.868140 1_455
Ca2 Ni4 2.868140 1_545
Ca2 Ni4 2.868140 1_554
Ca2 Ni6 2.868140 1_554
Ca2 Ni13 2.946025 1_545
Ca2 Ni13 2.946025 1_455
Ca2 Ni13 2.946025 1_554
Ca2 Ni7 2.990867 1_455
Ca2 Ni9 2.990867 1_545
Ca2 Ni8 2.990868 1_554
Ca2 Mg0 3.144152 1_544
Ca2 Mg0 3.144152 1_454
Ca2 Mg0 3.144152 1_445
Mg0 Ni8 2.841611 1_565
Mg0 Ni8 2.841611 1_655
Mg0 Ni7 2.841611 1_565
Mg0 Ni9 2.841611 1_655
Mg0 Ni7 2.841611 1_556
Mg0 Ni9 2.841611 1_556
Mg0 Ni13 2.950262 1_565
Mg0 Ni13 2.950262 1_655
Mg0 Ni13 2.950262 1_556
Mg0 Ni6 3.036919 1_565
Mg0 Ni4 3.036919 1_655
Mg0 Ni5 3.036919 1_556
Ni0 Ni7 2.439469 1_455
Ni0 Ni9 2.439469 1_545
Ni0 Ni8 2.439469 1_554
Ni0 Ni12 2.453708 1_555
Ni0 Ni11 2.453708 1_555
Ni0 Ni10 2.453708 1_555
Ni1 Ni6 2.432502 1_565
Ni1 Ni4 2.432502 1_655
Ni1 Ni5 2.432502 1_556
Ni1 Ni12 2.455906 1_655
Ni1 Ni11 2.455906 1_565
Ni1 Ni10 2.455907 1_556
Ni2 Ni6 2.446082 1_555
Ni2 Ni4 2.446082 1_555
Ni2 Ni5 2.446082 1_555
Ni3 Ni7 2.462336 1_555
Ni3 Ni9 2.462336 1_555
Ni3 Ni8 2.462336 1_555
Ni4 Ni6 2.479838 1_465
Ni4 Ni5 2.479839 1_456
Ni4 Ni6 2.508160 1_555
Ni4 Ni5 2.508160 1_555
Ni5 Ni6 2.479839 1_564
Ni5 Ni6 2.508160 1_555
Ni7 Ni9 2.486717 1_645
Ni7 Ni8 2.486717 1_654
Ni7 Ni9 2.501281 1_555
Ni7 Ni8 2.501282 1_555
Ni8 Ni9 2.486717 1_546
Ni8 Ni9 2.501282 1_555
Ni10 Ni3 2.438783 1_554
Ni10 Ni2 2.448992 1_555
Ni10 Ni11 2.489610 1_555
Ni10 Ni12 2.489610 1_555
Ni10 Ni11 2.498389 1_564
Ni10 Ni12 2.498389 1_654
Ni11 Ni3 2.438783 1_545
Ni11 Ni2 2.448992 1_555
Ni11 Ni12 2.489610 1_555
Ni11 Ni12 2.498388 1_645
Ni12 Ni3 2.438783 1_455
Ni12 Ni2 2.448992 1_555
Ni13 Ni9 2.469071 1_555
Ni13 Ni7 2.469071 1_555
Ni13 Ni8 2.469071 1_555
Ni13 Ni4 2.499603 1_555
Ni13 Ni6 2.499603 1_555
Ni13 Ni5 2.499603 1_555
