# generated using pymatgen
data_RbN3
_symmetry_space_group_name_H-M   'P 1'
_cell_length_a   3.99496100
_cell_length_b   4.46808862
_cell_length_c   4.46808862
_cell_angle_alpha   87.04987199
_cell_angle_beta   90.00000000
_cell_angle_gamma   90.00000000
_symmetry_Int_Tables_number   1
_chemical_formula_structural   RbN3
_chemical_formula_sum   'Rb1 N3'
_cell_volume   79.64896811
_cell_formula_units_Z   1
loop_
 _symmetry_equiv_pos_site_id
 _symmetry_equiv_pos_as_xyz
  1  'x, y, z'
loop_
 _atom_site_type_symbol
 _atom_site_label
 _atom_site_symmetry_multiplicity
 _atom_site_fract_x
 _atom_site_fract_y
 _atom_site_fract_z
 _atom_site_occupancy
  Rb  Rb0  1  0.50000000  0.50266800  0.49733200  1
  N  N0  1  0.00000000  0.01994900  0.98005100  1
  N  N1  1  0.00000000  0.99865700  0.27127300  1
  N  N2  1  0.00000000  0.72872700  0.00134300  1
loop_
_geom_bond_atom_site_label_1
_geom_bond_atom_site_label_2
_geom_bond_distance
_geom_bond_site_symmetry_2
N0 N1 1.299786 1_546
N0 N2 1.299786 1_546
N0 Rb0 3.579795 1_555
N0 Rb0 3.579795 1_455
N1 N2 1.748983 1_555
N1 Rb0 3.113025 1_455
N1 Rb0 3.113025 1_555
N1 Rb0 3.211793 1_465
N1 Rb0 3.211793 1_565
N2 Rb0 3.113025 1_455
N2 Rb0 3.113025 1_555
N2 Rb0 3.211793 1_454
N2 Rb0 3.211793 1_554
