# generated using pymatgen
data_Ba7Al13
_symmetry_space_group_name_H-M   'P 1'
_cell_length_a   6.06074637
_cell_length_b   6.06074572
_cell_length_c   17.30864408
_cell_angle_alpha   89.99999650
_cell_angle_beta   90.00001675
_cell_angle_gamma   120.00000352
_symmetry_Int_Tables_number   1
_chemical_formula_structural   Ba7Al13
_chemical_formula_sum   'Ba7 Al13'
_cell_volume   550.61220913
_cell_formula_units_Z   1
loop_
 _symmetry_equiv_pos_site_id
 _symmetry_equiv_pos_as_xyz
  1  'x, y, z'
loop_
 _atom_site_type_symbol
 _atom_site_label
 _atom_site_symmetry_multiplicity
 _atom_site_fract_x
 _atom_site_fract_y
 _atom_site_fract_z
 _atom_site_occupancy
  Ba  Ba0  1  0.66666700  0.33333300  0.32175514  1
  Ba  Ba1  1  0.33333300  0.66666700  0.67824486  1
  Ba  Ba2  1  0.66666700  0.33333300  0.10771635  1
  Ba  Ba3  1  0.33333300  0.66666700  0.89228365  1
  Ba  Ba4  1  -0.00000000  -0.00000000  0.60677665  1
  Ba  Ba5  1  0.00000000  0.00000000  0.39322335  1
  Ba  Ba6  1  0.00000000  0.00000000  -0.00000000  1
  Al  Al0  1  0.50000000  0.50000000  0.50000000  1
  Al  Al1  1  0.00000000  0.50000000  0.50000000  1
  Al  Al2  1  0.50000000  0.00000000  0.50000000  1
  Al  Al3  1  0.83842087  0.16157913  0.78372245  1
  Al  Al4  1  0.83842087  0.67684174  0.78372245  1
  Al  Al5  1  0.32315826  0.16157913  0.78372245  1
  Al  Al6  1  0.67684174  0.83842087  0.21627755  1
  Al  Al7  1  0.33333300  0.66666700  0.34636359  1
  Al  Al8  1  0.66666700  0.33333300  0.65363641  1
  Al  Al9  1  0.33333300  0.66666700  0.09983454  1
  Al  Al10  1  0.66666700  0.33333300  0.90016546  1
  Al  Al11  1  0.16157913  0.83842087  0.21627755  1
  Al  Al12  1  0.16157913  0.32315826  0.21627755  1
loop_
_geom_bond_atom_site_label_1
_geom_bond_atom_site_label_2
_geom_bond_distance
_geom_bond_site_symmetry_2
Al0 Al2 3.030373 1_565
Al0 Al2 3.030373 1_555
Al0 Al1 3.030373 1_555
Al0 Al1 3.030373 1_655
Al0 Ba0 3.546743 1_555
Al0 Ba1 3.546743 1_555
Al0 Ba5 3.549486 1_555
Al0 Ba4 3.549486 1_665
Al0 Ba5 3.549486 1_665
Al0 Ba4 3.549486 1_555
Al1 Al2 3.030373 1_565
Al1 Al2 3.030373 1_455
Al1 Ba0 3.546739 1_455
Al1 Ba1 3.546739 1_555
Al1 Ba5 3.549486 1_565
Al1 Ba4 3.549486 1_555
Al1 Ba5 3.549486 1_555
Al1 Ba4 3.549486 1_565
Al2 Ba0 3.546740 1_555
Al2 Ba1 3.546740 1_545
Al2 Ba5 3.549486 1_555
Al2 Ba4 3.549486 1_655
Al2 Ba5 3.549487 1_655
Al2 Ba4 3.549487 1_555
Al3 Al8 2.884533 1_555
Al3 Al4 2.937870 1_545
Al3 Al5 2.937870 1_655
Al3 Ba4 3.501016 1_655
Al3 Ba1 3.538233 1_545
Al3 Ba1 3.538234 1_655
Al3 Ba3 3.566066 1_655
Al3 Ba3 3.566067 1_545
Al4 Al8 2.884536 1_555
Al4 Al5 2.937870 1_665
Al4 Ba4 3.501015 1_665
Al4 Ba1 3.538232 1_655
Al4 Ba1 3.538236 1_555
Al4 Ba3 3.566064 1_655
Al4 Ba3 3.566070 1_555
Al5 Al8 2.884537 1_555
Al5 Ba4 3.501015 1_555
Al5 Ba1 3.538231 1_545
Al5 Ba1 3.538236 1_555
Al5 Ba3 3.566064 1_545
Al5 Ba3 3.566069 1_555
Al6 Al9 2.704239 1_555
Al6 Al7 2.884537 1_555
Al6 Ba5 3.501015 1_665
Al6 Ba0 3.538231 1_565
Al6 Ba0 3.538236 1_555
Al6 Ba2 3.566064 1_565
Al6 Ba2 3.566069 1_555
Al7 Ba0 3.524998 1_565
Al7 Ba0 3.524998 1_455
Al7 Ba0 3.525009 1_555
Al7 Ba5 3.591941 1_565
Al7 Ba5 3.591946 1_555
Al7 Ba5 3.591946 1_665
Al8 Ba1 3.524998 1_545
Al8 Ba1 3.524998 1_655
Al8 Ba1 3.525009 1_555
Al8 Ba4 3.591941 1_655
Al8 Ba4 3.591946 1_665
Al8 Ba4 3.591946 1_555
Al9 Ba2 3.501828 1_565
Al9 Ba2 3.501828 1_455
Al9 Ba2 3.501839 1_555
Al9 Ba3 3.592424 1_554
Al9 Ba6 3.902585 1_565
Al9 Ba6 3.902590 1_555
Al9 Ba6 3.902591 1_665
Al10 Al3 2.704237 1_555
Al10 Al5 2.704239 1_555
Al10 Al4 2.704240 1_555
Al10 Ba3 3.501828 1_545
Al10 Ba3 3.501828 1_655
Al10 Ba3 3.501839 1_555
Al10 Ba2 3.592424 1_556
Al10 Ba6 3.902585 1_656
Al10 Ba6 3.902590 1_666
Al10 Ba6 3.902591 1_556
Al11 Al9 2.704237 1_555
Al11 Al7 2.884533 1_555
Al11 Al12 2.937870 1_565
Al11 Al6 2.937870 1_455
Al11 Ba5 3.501016 1_565
Al11 Ba0 3.538233 1_565
Al11 Ba0 3.538234 1_455
Al11 Ba2 3.566066 1_455
Al11 Ba2 3.566067 1_565
Al12 Al9 2.704240 1_555
Al12 Al7 2.884536 1_555
Al12 Al6 2.937870 1_445
Al12 Ba5 3.501015 1_555
Al12 Ba0 3.538232 1_455
Al12 Ba0 3.538236 1_555
Al12 Ba2 3.566064 1_455
Al12 Ba2 3.566070 1_555
