# generated using pymatgen
data_LiNd4(RhO3)4
_symmetry_space_group_name_H-M   'P 1'
_cell_length_a   5.41148682
_cell_length_b   6.20166017
_cell_length_c   7.66089600
_cell_angle_alpha   90.00000000
_cell_angle_beta   90.00000000
_cell_angle_gamma   88.91555811
_symmetry_Int_Tables_number   1
_chemical_formula_structural   LiNd4(RhO3)4
_chemical_formula_sum   'Li1 Nd4 Rh4 O12'
_cell_volume   257.05516926
_cell_formula_units_Z   1
loop_
 _symmetry_equiv_pos_site_id
 _symmetry_equiv_pos_as_xyz
  1  'x, y, z'
loop_
 _atom_site_type_symbol
 _atom_site_label
 _atom_site_symmetry_multiplicity
 _atom_site_fract_x
 _atom_site_fract_y
 _atom_site_fract_z
 _atom_site_occupancy
  Li  Li0  1  0.92507900  0.74482800  0.75000000  1
  Nd  Nd0  1  0.45057700  0.58762800  0.75000000  1
  Nd  Nd1  1  0.97163200  0.91577900  0.25000000  1
  Nd  Nd2  1  0.04871400  0.12519700  0.75000000  1
  Nd  Nd3  1  0.53219700  0.41019600  0.25000000  1
  Rh  Rh0  1  0.50466700  0.99840600  0.50101400  1
  Rh  Rh1  1  0.99632800  0.49752700  0.49318400  1
  Rh  Rh2  1  0.99632800  0.49752700  0.00681600  1
  Rh  Rh3  1  0.50466700  0.99840600  0.99898600  1
  O  O0  1  0.82457200  0.19135400  0.44647200  1
  O  O1  1  0.32685600  0.30834300  0.55250600  1
  O  O2  1  0.67274300  0.69007800  0.05378200  1
  O  O3  1  0.16803100  0.80647100  0.93984000  1
  O  O4  1  0.16803100  0.80647100  0.56016000  1
  O  O5  1  0.67274300  0.69007800  0.44621800  1
  O  O6  1  0.32685600  0.30834300  0.94749400  1
  O  O7  1  0.82457200  0.19135400  0.05352800  1
  O  O8  1  0.37326000  0.04936500  0.25000000  1
  O  O9  1  0.86283900  0.46224200  0.75000000  1
  O  O10  1  0.12612500  0.54857100  0.25000000  1
  O  O11  1  0.64818300  0.94266600  0.75000000  1
loop_
_geom_bond_atom_site_label_1
_geom_bond_atom_site_label_2
_geom_bond_distance
_geom_bond_site_symmetry_2
Li0 O9 1.790823 1_555
Li0 O11 1.918597 1_555
Li0 O4 2.002200 1_655
Li0 O3 2.002200 1_655
Nd0 O9 2.348646 1_555
Nd0 O6 2.404410 1_555
Nd0 O1 2.404410 1_555
Nd0 O11 2.465897 1_555
Nd0 O4 2.493262 1_555
Nd0 O3 2.493262 1_555
Nd0 O2 2.700751 1_556
Nd0 O5 2.700751 1_555
Nd1 O8 2.340551 1_665
Nd1 O7 2.401682 1_565
Nd1 O0 2.401682 1_565
Nd1 O10 2.411013 1_655
Nd1 O5 2.630710 1_555
Nd1 O2 2.630710 1_555
Nd1 O3 2.684716 1_654
Nd1 O4 2.684716 1_655
Nd2 O9 2.302448 1_455
Nd2 O6 2.430925 1_555
Nd2 O1 2.430925 1_555
Nd2 O11 2.464184 1_445
Nd2 O4 2.528000 1_545
Nd2 O3 2.528000 1_545
Nd2 O7 2.650986 1_456
Nd2 O0 2.650986 1_455
Nd3 O10 2.343897 1_555
Nd3 O8 2.412494 1_555
Nd3 O5 2.429161 1_555
Nd3 O2 2.429161 1_555
Nd3 O0 2.555280 1_555
Nd3 O7 2.555280 1_555
Nd3 O1 2.651599 1_555
Nd3 O6 2.651599 1_554
O0 Rh1 2.159657 1_555
O0 Rh0 2.163739 1_545
O1 Rh1 2.168614 1_455
O1 Rh0 2.169340 1_545
O2 Rh2 2.131322 1_555
O2 Rh3 2.143351 1_554
O3 Rh2 2.205659 1_456
O3 Rh3 2.241168 1_555
O4 Rh1 2.205659 1_455
O4 Rh0 2.241168 1_555
O5 Rh1 2.131322 1_555
O5 Rh0 2.143351 1_555
O6 Rh2 2.168614 1_456
O6 Rh3 2.169340 1_545
O7 Rh2 2.159657 1_555
O7 Rh3 2.163739 1_544
O8 Rh0 2.072424 1_545
O8 Rh3 2.072424 1_544
O9 Rh2 2.108676 1_556
O9 Rh1 2.108676 1_555
O10 Rh1 2.018113 1_455
O10 Rh2 2.018113 1_455
O11 Rh3 2.085877 1_555
O11 Rh0 2.085877 1_555
