# generated using pymatgen
data_CaTcO3
_symmetry_space_group_name_H-M   'P 1'
_cell_length_a   5.42016857
_cell_length_b   5.59445017
_cell_length_c   7.74489509
_cell_angle_alpha   90.00000000
_cell_angle_beta   90.00000000
_cell_angle_gamma   90.00000000
_symmetry_Int_Tables_number   1
_chemical_formula_structural   CaTcO3
_chemical_formula_sum   'Ca4 Tc4 O12'
_cell_volume   234.84739259
_cell_formula_units_Z   4
loop_
 _symmetry_equiv_pos_site_id
 _symmetry_equiv_pos_as_xyz
  1  'x, y, z'
loop_
 _atom_site_type_symbol
 _atom_site_label
 _atom_site_symmetry_multiplicity
 _atom_site_fract_x
 _atom_site_fract_y
 _atom_site_fract_z
 _atom_site_occupancy
  Ca  Ca0  1  0.01391034  0.44384616  0.25000000  1
  Ca  Ca1  1  0.48608966  0.94384616  0.25000000  1
  Ca  Ca2  1  0.98608966  0.55615384  0.75000000  1
  Ca  Ca3  1  0.51391034  0.05615384  0.75000000  1
  Tc  Tc0  1  0.50000000  0.50000000  -0.00000000  1
  Tc  Tc1  1  -0.00000000  -0.00000000  0.50000000  1
  Tc  Tc2  1  0.50000000  0.50000000  0.50000000  1
  Tc  Tc3  1  -0.00000000  -0.00000000  -0.00000000  1
  O  O0  1  0.90257108  0.03201350  0.25000000  1
  O  O1  1  0.59742892  0.53201350  0.25000000  1
  O  O2  1  0.09742892  0.96798650  0.75000000  1
  O  O3  1  0.40257108  0.46798650  0.75000000  1
  O  O4  1  0.19852214  0.70187717  0.05040472  1
  O  O5  1  0.30147786  0.20187717  0.44959528  1
  O  O6  1  0.80147786  0.29812283  0.55040472  1
  O  O7  1  0.69852214  0.79812283  0.94959528  1
  O  O8  1  0.80147786  0.29812283  0.94959528  1
  O  O9  1  0.69852214  0.79812283  0.55040472  1
  O  O10  1  0.19852214  0.70187717  0.44959528  1
  O  O11  1  0.30147786  0.20187717  0.05040472  1
loop_
_geom_bond_atom_site_label_1
_geom_bond_atom_site_label_2
_geom_bond_distance
_geom_bond_site_symmetry_2
Ca0 O1 2.310659 1_455
Ca0 O10 2.339808 1_555
Ca0 O4 2.339808 1_555
Ca0 O0 2.381700 1_455
Ca0 O5 2.579056 1_555
Ca0 O11 2.579056 1_555
Ca0 O6 2.720932 1_455
Ca0 O8 2.720932 1_454
Ca1 O0 2.310659 1_565
Ca1 O11 2.339808 1_565
Ca1 O5 2.339808 1_565
Ca1 O1 2.381700 1_555
Ca1 O4 2.579056 1_555
Ca1 O10 2.579056 1_555
Ca1 O7 2.720932 1_554
Ca1 O9 2.720932 1_555
Ca2 O3 2.310659 1_655
Ca2 O8 2.339808 1_555
Ca2 O6 2.339808 1_555
Ca2 O2 2.381700 1_655
Ca2 O7 2.579056 1_555
Ca2 O9 2.579056 1_555
Ca2 O4 2.720932 1_656
Ca2 O10 2.720932 1_655
Ca3 O2 2.310659 1_545
Ca3 O9 2.339808 1_545
Ca3 O7 2.339808 1_545
Ca3 O3 2.381700 1_555
Ca3 O6 2.579056 1_555
Ca3 O8 2.579056 1_555
Ca3 O11 2.720932 1_556
Ca3 O5 2.720932 1_555
O0 Tc3 2.014921 1_655
O0 Tc1 2.014921 1_655
O1 Tc0 2.014921 1_555
O1 Tc2 2.014921 1_555
O2 Tc1 2.014921 1_565
O2 Tc3 2.014921 1_566
O3 Tc2 2.014921 1_555
O3 Tc0 2.014921 1_556
O4 Tc3 2.022842 1_565
O4 Tc0 2.024371 1_555
O5 Tc2 2.022842 1_555
O5 Tc1 2.024371 1_555
O6 Tc1 2.022842 1_655
O6 Tc2 2.024371 1_555
O7 Tc0 2.022842 1_556
O7 Tc3 2.024371 1_666
O8 Tc3 2.022842 1_656
O8 Tc0 2.024371 1_556
O9 Tc2 2.022842 1_555
O9 Tc1 2.024371 1_665
O10 Tc1 2.022842 1_565
O10 Tc2 2.024371 1_555
O11 Tc0 2.022842 1_555
O11 Tc3 2.024371 1_555
