# generated using pymatgen
data_Ge7N2O15
_symmetry_space_group_name_H-M   'P 1'
_cell_length_a   7.61156124
_cell_length_b   7.61156124
_cell_length_c   15.36366658
_cell_angle_alpha   77.93559731
_cell_angle_beta   77.93559731
_cell_angle_gamma   58.18767186
_symmetry_Int_Tables_number   1
_chemical_formula_structural   Ge7N2O15
_chemical_formula_sum   'Ge14 N4 O30'
_cell_volume   734.43851853
_cell_formula_units_Z   2
loop_
 _symmetry_equiv_pos_site_id
 _symmetry_equiv_pos_as_xyz
  1  'x, y, z'
loop_
 _atom_site_type_symbol
 _atom_site_label
 _atom_site_symmetry_multiplicity
 _atom_site_fract_x
 _atom_site_fract_y
 _atom_site_fract_z
 _atom_site_occupancy
  Ge  Ge0  1  0.85814900  0.05509200  0.85205000  1
  Ge  Ge1  1  0.14185100  0.94490800  0.14795000  1
  Ge  Ge2  1  0.94490800  0.14185100  0.64795000  1
  Ge  Ge3  1  0.05509200  0.85814900  0.35205000  1
  Ge  Ge4  1  0.76063100  0.87244400  0.62521800  1
  Ge  Ge5  1  0.23936900  0.12755600  0.37478200  1
  Ge  Ge6  1  0.12755600  0.23936900  0.87478200  1
  Ge  Ge7  1  0.87244400  0.76063100  0.12521800  1
  Ge  Ge8  1  0.28579600  0.23227500  0.66329600  1
  Ge  Ge9  1  0.71420400  0.76772500  0.33670400  1
  Ge  Ge10  1  0.76772500  0.71420400  0.83670400  1
  Ge  Ge11  1  0.23227500  0.28579600  0.16329600  1
  Ge  Ge12  1  0.50000000  0.00000000  0.00000000  1
  Ge  Ge13  1  0.00000000  0.50000000  0.50000000  1
  N  N0  1  0.42281300  0.66466500  0.57575800  1
  N  N1  1  0.57718700  0.33533500  0.42424200  1
  N  N2  1  0.33533500  0.57718700  0.92424200  1
  N  N3  1  0.66466500  0.42281300  0.07575800  1
  O  O0  1  0.71664000  0.73232900  0.72627400  1
  O  O1  1  0.28336000  0.26767100  0.27372600  1
  O  O2  1  0.26767100  0.28336000  0.77372600  1
  O  O3  1  0.73232900  0.71664000  0.22627400  1
  O  O4  1  0.77824500  0.22175500  0.75000000  1
  O  O5  1  0.22175500  0.77824500  0.25000000  1
  O  O6  1  0.52781300  0.87525300  0.89942200  1
  O  O7  1  0.47218700  0.12474700  0.10057800  1
  O  O8  1  0.12474700  0.47218700  0.60057800  1
  O  O9  1  0.87525300  0.52781300  0.39942200  1
  O  O10  1  0.20318600  0.05097700  0.66740700  1
  O  O11  1  0.79681400  0.94902300  0.33259300  1
  O  O12  1  0.94902300  0.79681400  0.83259300  1
  O  O13  1  0.05097700  0.20318600  0.16740700  1
  O  O14  1  0.54669500  0.13290900  0.61625200  1
  O  O15  1  0.45330500  0.86709100  0.38374800  1
  O  O16  1  0.86709100  0.45330500  0.88374800  1
  O  O17  1  0.13290900  0.54669500  0.11625200  1
  O  O18  1  0.76225000  0.77843600  0.03086600  1
  O  O19  1  0.23775000  0.22156400  0.96913400  1
  O  O20  1  0.22156400  0.23775000  0.46913400  1
  O  O21  1  0.77843600  0.76225000  0.53086600  1
  O  O22  1  0.63322800  0.15085100  0.93319800  1
  O  O23  1  0.36677200  0.84914900  0.06680200  1
  O  O24  1  0.84914900  0.36677200  0.56680200  1
  O  O25  1  0.15085100  0.63322800  0.43319800  1
  O  O26  1  0.91909700  0.97056000  0.11536600  1
  O  O27  1  0.08090300  0.02944000  0.88463400  1
  O  O28  1  0.02944000  0.08090300  0.38463400  1
  O  O29  1  0.97056000  0.91909700  0.61536600  1
loop_
_geom_bond_atom_site_label_1
_geom_bond_atom_site_label_2
_geom_bond_distance
_geom_bond_site_symmetry_2
Ge0 O27 1.768730 1_655
Ge0 O12 1.777126 1_545
Ge0 O22 1.785668 1_555
Ge0 O4 1.786374 1_555
Ge1 O26 1.768730 1_455
Ge1 O13 1.777126 1_565
Ge1 O23 1.785668 1_555
Ge1 O5 1.786374 1_555
Ge2 O29 1.768730 1_545
Ge2 O10 1.777126 1_655
Ge2 O24 1.785668 1_555
Ge2 O4 1.786374 1_555
Ge3 O28 1.768730 1_565
Ge3 O11 1.777126 1_455
Ge3 O25 1.785668 1_555
Ge3 O5 1.786374 1_555
Ge4 O0 1.768350 1_555
Ge4 O21 1.769031 1_555
Ge4 O29 1.782384 1_555
Ge4 O14 1.782452 1_565
Ge5 O1 1.768350 1_555
Ge5 O20 1.769031 1_555
Ge5 O28 1.782384 1_555
Ge5 O15 1.782452 1_545
Ge6 O2 1.768350 1_555
Ge6 O19 1.769031 1_555
Ge6 O27 1.782384 1_555
Ge6 O16 1.782452 1_455
Ge7 O3 1.768350 1_555
Ge7 O18 1.769031 1_555
Ge7 O26 1.782384 1_555
Ge7 O17 1.782452 1_655
Ge8 O14 1.755866 1_555
Ge8 O8 1.778770 1_555
Ge8 O10 1.779165 1_555
Ge8 O2 1.780473 1_555
Ge9 O15 1.755866 1_555
Ge9 O9 1.778770 1_555
Ge9 O11 1.779165 1_555
Ge9 O3 1.780473 1_555
Ge10 O16 1.755866 1_555
Ge10 O6 1.778770 1_555
Ge10 O12 1.779165 1_555
Ge10 O0 1.780473 1_555
Ge11 O17 1.755866 1_555
Ge11 O7 1.778770 1_555
Ge11 O13 1.779165 1_555
Ge11 O1 1.780473 1_555
Ge12 O19 1.888340 1_554
Ge12 O18 1.888340 1_545
Ge12 O6 1.897066 1_544
Ge12 O7 1.897066 1_555
Ge12 O23 1.923530 1_545
Ge12 O22 1.923530 1_554
Ge13 O21 1.888340 1_455
Ge13 O20 1.888340 1_555
Ge13 O8 1.897066 1_555
Ge13 O9 1.897066 1_455
Ge13 O25 1.923530 1_555
Ge13 O24 1.923530 1_455
