# generated using pymatgen
data_CsTi2Cl7
_symmetry_space_group_name_H-M   'P 1'
_cell_length_a   6.26237460
_cell_length_b   7.06376504
_cell_length_c   12.03645318
_cell_angle_alpha   92.35710255
_cell_angle_beta   90.00000000
_cell_angle_gamma   90.00000000
_symmetry_Int_Tables_number   1
_chemical_formula_structural   CsTi2Cl7
_chemical_formula_sum   'Cs2 Ti4 Cl14'
_cell_volume   531.99335450
_cell_formula_units_Z   2
loop_
 _symmetry_equiv_pos_site_id
 _symmetry_equiv_pos_as_xyz
  1  'x, y, z'
loop_
 _atom_site_type_symbol
 _atom_site_label
 _atom_site_symmetry_multiplicity
 _atom_site_fract_x
 _atom_site_fract_y
 _atom_site_fract_z
 _atom_site_occupancy
  Cs  Cs0  1  0.37160118  0.50000000  0.25000000  1
  Cs  Cs1  1  0.62839882  0.50000000  0.75000000  1
  Ti  Ti0  1  0.75690402  0.93001905  0.06922612  1
  Ti  Ti1  1  0.75690402  0.06998095  0.43077388  1
  Ti  Ti2  1  0.24309698  0.06998095  0.93077388  1
  Ti  Ti3  1  0.24309698  0.93001905  0.56922612  1
  Cl  Cl0  1  0.87129416  0.64309638  0.12309627  1
  Cl  Cl1  1  0.87129416  0.35690362  0.37690373  1
  Cl  Cl2  1  0.12870584  0.35690362  0.87690373  1
  Cl  Cl3  1  0.12870584  0.64309638  0.62309627  1
  Cl  Cl4  1  0.42022090  0.00000000  0.75000000  1
  Cl  Cl5  1  0.57977910  0.00000000  0.25000000  1
  Cl  Cl6  1  0.07186315  0.88650406  0.38504629  1
  Cl  Cl7  1  0.07186315  0.11349594  0.11495371  1
  Cl  Cl8  1  0.92813685  0.11349594  0.61495371  1
  Cl  Cl9  1  0.92813685  0.88650406  0.88504629  1
  Cl  Cl10  1  0.58143817  0.78148295  0.49695372  1
  Cl  Cl11  1  0.58143817  0.21851705  0.00304628  1
  Cl  Cl12  1  0.41856183  0.21851705  0.50304628  1
  Cl  Cl13  1  0.41856183  0.78148295  0.99695372  1
loop_
_geom_bond_atom_site_label_1
_geom_bond_atom_site_label_2
_geom_bond_distance
_geom_bond_site_symmetry_2
Cl0 Ti0 2.269234 1_555
Cl0 Cs0 3.643375 1_555
Cl0 Cs0 3.646678 1_655
Cl1 Ti1 2.269234 1_555
Cl1 Cs0 3.643375 1_555
Cl1 Cs0 3.646678 1_655
Cl2 Ti2 2.269236 1_555
Cl2 Cs1 3.643375 1_555
Cl2 Cs1 3.646678 1_455
Cl3 Ti3 2.269236 1_555
Cl3 Cs1 3.643375 1_555
Cl3 Cs1 3.646678 1_455
Cl4 Ti3 2.474002 1_545
Cl4 Ti2 2.474002 1_555
Cl4 Cs1 3.764810 1_555
Cl4 Cs1 3.764810 1_545
Cl5 Ti0 2.474005 1_545
Cl5 Ti1 2.474005 1_555
Cl5 Cs0 3.764810 1_545
Cl5 Cs0 3.764810 1_555
Cl6 Ti1 2.411287 1_465
Cl6 Ti3 2.470394 1_555
Cl6 Cs0 3.640658 1_555
Cl7 Ti0 2.411287 1_445
Cl7 Ti2 2.470394 1_554
Cl7 Cs0 3.640658 1_555
Cl8 Ti3 2.411292 1_645
Cl8 Ti1 2.470391 1_555
Cl8 Cs1 3.640658 1_555
Cl9 Ti2 2.411292 1_665
Cl9 Ti0 2.470391 1_556
Cl9 Cs1 3.640658 1_555
Cl10 Ti1 2.475570 1_565
Cl10 Ti3 2.504381 1_555
Cl10 Cs1 3.716834 1_555
Cl10 Cs0 3.745604 1_555
Cl11 Ti0 2.475570 1_545
Cl11 Ti2 2.504381 1_554
Cl11 Cs1 3.716834 1_554
Cl11 Cs0 3.745604 1_555
Cl12 Ti3 2.475567 1_545
Cl12 Ti1 2.504386 1_555
Cl12 Cs0 3.716834 1_555
Cl12 Cs1 3.745604 1_555
Cl13 Ti2 2.475567 1_565
Cl13 Ti0 2.504386 1_556
Cl13 Cs0 3.716834 1_556
Cl13 Cs1 3.745604 1_555
