# generated using pymatgen
data_KMg3
_symmetry_space_group_name_H-M   'P 1'
_cell_length_a   6.48387600
_cell_length_b   10.54058000
_cell_length_c   14.55705200
_cell_angle_alpha   90.00000000
_cell_angle_beta   90.00000000
_cell_angle_gamma   90.00000000
_symmetry_Int_Tables_number   1
_chemical_formula_structural   KMg3
_chemical_formula_sum   'K8 Mg24'
_cell_volume   994.88444974
_cell_formula_units_Z   8
loop_
 _symmetry_equiv_pos_site_id
 _symmetry_equiv_pos_as_xyz
  1  'x, y, z'
loop_
 _atom_site_type_symbol
 _atom_site_label
 _atom_site_symmetry_multiplicity
 _atom_site_fract_x
 _atom_site_fract_y
 _atom_site_fract_z
 _atom_site_occupancy
  K  K0_0  1  0.25000000  0.00000000  0.07006850  1
  K  K0_1  1  0.25000000  0.00000000  0.57006850  1
  K  K0_2  1  0.25000000  0.50000000  0.07006850  1
  K  K0_3  1  0.25000000  0.50000000  0.57006850  1
  K  K0_4  1  0.75000000  0.00000000  0.07006850  1
  K  K0_5  1  0.75000000  0.00000000  0.57006850  1
  K  K0_6  1  0.75000000  0.50000000  0.07006850  1
  K  K0_7  1  0.75000000  0.50000000  0.57006850  1
  Mg  Mg0_0  1  0.00000000  0.00000000  0.32442450  1
  Mg  Mg0_1  1  0.00000000  0.00000000  0.82442450  1
  Mg  Mg0_2  1  0.00000000  0.50000000  0.32442450  1
  Mg  Mg0_3  1  0.00000000  0.50000000  0.82442450  1
  Mg  Mg0_4  1  0.50000000  0.00000000  0.32442450  1
  Mg  Mg0_5  1  0.50000000  0.00000000  0.82442450  1
  Mg  Mg0_6  1  0.50000000  0.50000000  0.32442450  1
  Mg  Mg0_7  1  0.50000000  0.50000000  0.82442450  1
  Mg  Mg1_0  1  0.00000000  0.25000000  0.20819350  1
  Mg  Mg1_1  1  0.00000000  0.25000000  0.70819350  1
  Mg  Mg1_2  1  0.00000000  0.75000000  0.20819350  1
  Mg  Mg1_3  1  0.00000000  0.75000000  0.70819350  1
  Mg  Mg1_4  1  0.50000000  0.25000000  0.20819350  1
  Mg  Mg1_5  1  0.50000000  0.25000000  0.70819350  1
  Mg  Mg1_6  1  0.50000000  0.75000000  0.20819350  1
  Mg  Mg1_7  1  0.50000000  0.75000000  0.70819350  1
  Mg  Mg2_0  1  0.25000000  0.25000000  0.39731350  1
  Mg  Mg2_1  1  0.25000000  0.25000000  0.89731350  1
  Mg  Mg2_2  1  0.25000000  0.75000000  0.39731350  1
  Mg  Mg2_3  1  0.25000000  0.75000000  0.89731350  1
  Mg  Mg2_4  1  0.75000000  0.25000000  0.39731350  1
  Mg  Mg2_5  1  0.75000000  0.25000000  0.89731350  1
  Mg  Mg2_6  1  0.75000000  0.75000000  0.39731350  1
  Mg  Mg2_7  1  0.75000000  0.75000000  0.89731350  1
loop_
_geom_bond_atom_site_label_1
_geom_bond_atom_site_label_2
_geom_bond_distance
_geom_bond_site_symmetry_2
K0_0 K0_4 3.241938 1_555
K0_0 K0_4 3.241938 1_455
K0_0 Mg2_3 3.642558 1_544
K0_0 Mg2_1 3.642558 1_554
K0_0 Mg1_6 3.689772 1_545
K0_0 Mg1_2 3.689772 1_545
K0_0 Mg1_0 3.689772 1_555
K0_0 Mg1_4 3.689772 1_555
K0_0 Mg0_1 3.926100 1_554
K0_0 Mg0_5 3.926100 1_554
K0_0 Mg0_0 4.041947 1_555
K0_0 Mg0_4 4.041947 1_555
K0_1 K0_5 3.241938 1_555
K0_1 K0_5 3.241938 1_455
K0_1 Mg2_0 3.642558 1_555
K0_1 Mg2_2 3.642558 1_545
K0_1 Mg1_1 3.689772 1_555
K0_1 Mg1_7 3.689772 1_545
K0_1 Mg1_5 3.689772 1_555
K0_1 Mg1_3 3.689772 1_545
K0_1 Mg0_0 3.926100 1_555
K0_1 Mg0_4 3.926100 1_555
K0_1 Mg0_1 4.041947 1_555
K0_1 Mg0_5 4.041947 1_555
K0_2 K0_6 3.241938 1_555
K0_2 K0_6 3.241938 1_455
K0_2 Mg2_3 3.642558 1_554
K0_2 Mg2_1 3.642558 1_554
K0_2 Mg1_2 3.689772 1_555
K0_2 Mg1_6 3.689772 1_555
K0_2 Mg1_0 3.689772 1_555
K0_2 Mg1_4 3.689772 1_555
K0_2 Mg0_3 3.926100 1_554
K0_2 Mg0_7 3.926100 1_554
K0_2 Mg0_2 4.041947 1_555
K0_2 Mg0_6 4.041947 1_555
K0_3 K0_7 3.241938 1_555
K0_3 K0_7 3.241938 1_455
K0_3 Mg2_0 3.642558 1_555
K0_3 Mg2_2 3.642558 1_555
K0_3 Mg1_1 3.689772 1_555
K0_3 Mg1_7 3.689772 1_555
K0_3 Mg1_3 3.689772 1_555
K0_3 Mg1_5 3.689772 1_555
K0_3 Mg0_2 3.926100 1_555
K0_3 Mg0_6 3.926100 1_555
K0_3 Mg0_7 4.041947 1_555
K0_3 Mg0_3 4.041947 1_555
K0_4 Mg2_5 3.642558 1_554
K0_4 Mg2_7 3.642558 1_544
K0_4 Mg1_6 3.689772 1_545
K0_4 Mg1_4 3.689772 1_555
K0_4 Mg1_0 3.689772 1_655
K0_4 Mg1_2 3.689772 1_645
K0_4 Mg0_5 3.926100 1_554
K0_4 Mg0_1 3.926100 1_654
K0_4 Mg0_4 4.041947 1_555
K0_4 Mg0_0 4.041947 1_655
K0_5 Mg2_4 3.642558 1_555
K0_5 Mg2_6 3.642558 1_545
K0_5 Mg1_7 3.689772 1_545
K0_5 Mg1_5 3.689772 1_555
K0_5 Mg1_3 3.689772 1_645
K0_5 Mg1_1 3.689772 1_655
K0_5 Mg0_4 3.926100 1_555
K0_5 Mg0_0 3.926100 1_655
K0_5 Mg0_5 4.041947 1_555
K0_5 Mg0_1 4.041947 1_655
K0_6 Mg2_5 3.642558 1_554
K0_6 Mg2_7 3.642558 1_554
K0_6 Mg1_6 3.689772 1_555
K0_6 Mg1_4 3.689772 1_555
K0_6 Mg1_2 3.689772 1_655
K0_6 Mg1_0 3.689772 1_655
K0_6 Mg0_7 3.926100 1_554
K0_6 Mg0_3 3.926100 1_654
K0_6 Mg0_6 4.041947 1_555
K0_6 Mg0_2 4.041947 1_655
K0_7 Mg2_6 3.642558 1_555
K0_7 Mg2_4 3.642558 1_555
K0_7 Mg1_7 3.689772 1_555
K0_7 Mg1_5 3.689772 1_555
K0_7 Mg1_3 3.689772 1_655
K0_7 Mg1_1 3.689772 1_655
K0_7 Mg0_6 3.926100 1_555
K0_7 Mg0_2 3.926100 1_655
K0_7 Mg0_7 4.041947 1_555
K0_7 Mg0_3 4.041947 1_655
Mg0_0 Mg1_2 3.131579 1_545
Mg0_0 Mg1_0 3.131579 1_555
Mg0_0 Mg0_4 3.241938 1_555
Mg0_0 Mg0_4 3.241938 1_455
Mg0_0 Mg2_0 3.270681 1_555
Mg0_0 Mg2_2 3.270681 1_545
Mg0_0 Mg2_6 3.270681 1_445
Mg0_0 Mg2_4 3.270681 1_455
Mg0_1 Mg1_3 3.131579 1_545
Mg0_1 Mg1_1 3.131579 1_555
Mg0_1 Mg0_5 3.241938 1_555
Mg0_1 Mg0_5 3.241938 1_455
Mg0_1 Mg2_1 3.270681 1_555
Mg0_1 Mg2_3 3.270681 1_545
Mg0_1 Mg2_5 3.270681 1_455
Mg0_1 Mg2_7 3.270681 1_445
Mg0_2 Mg1_2 3.131579 1_555
Mg0_2 Mg1_0 3.131579 1_555
Mg0_2 Mg0_6 3.241938 1_555
Mg0_2 Mg0_6 3.241938 1_455
Mg0_2 Mg2_0 3.270681 1_555
Mg0_2 Mg2_2 3.270681 1_555
Mg0_2 Mg2_6 3.270681 1_455
Mg0_2 Mg2_4 3.270681 1_455
Mg0_3 Mg1_3 3.131579 1_555
Mg0_3 Mg1_1 3.131579 1_555
Mg0_3 Mg0_7 3.241938 1_555
Mg0_3 Mg0_7 3.241938 1_455
Mg0_3 Mg2_3 3.270681 1_555
Mg0_3 Mg2_1 3.270681 1_555
Mg0_3 Mg2_7 3.270681 1_455
Mg0_3 Mg2_5 3.270681 1_455
Mg0_4 Mg1_4 3.131579 1_555
Mg0_4 Mg1_6 3.131579 1_545
Mg0_4 Mg2_4 3.270681 1_555
Mg0_4 Mg2_6 3.270681 1_545
Mg0_4 Mg2_0 3.270681 1_555
Mg0_4 Mg2_2 3.270681 1_545
Mg0_5 Mg1_7 3.131579 1_545
Mg0_5 Mg1_5 3.131579 1_555
Mg0_5 Mg2_7 3.270681 1_545
Mg0_5 Mg2_5 3.270681 1_555
Mg0_5 Mg2_1 3.270681 1_555
Mg0_5 Mg2_3 3.270681 1_545
Mg0_6 Mg1_4 3.131579 1_555
Mg0_6 Mg1_6 3.131579 1_555
Mg0_6 Mg2_6 3.270681 1_555
Mg0_6 Mg2_4 3.270681 1_555
Mg0_6 Mg2_0 3.270681 1_555
Mg0_6 Mg2_2 3.270681 1_555
Mg0_7 Mg1_5 3.131579 1_555
Mg0_7 Mg1_7 3.131579 1_555
Mg0_7 Mg2_7 3.270681 1_555
Mg0_7 Mg2_5 3.270681 1_555
Mg0_7 Mg2_3 3.270681 1_555
Mg0_7 Mg2_1 3.270681 1_555
Mg1_0 Mg2_0 3.194795 1_555
Mg1_0 Mg2_4 3.194795 1_455
Mg1_0 Mg1_4 3.241938 1_555
Mg1_0 Mg1_4 3.241938 1_455
Mg1_1 Mg2_1 3.194795 1_555
Mg1_1 Mg2_5 3.194795 1_455
Mg1_1 Mg1_5 3.241938 1_555
Mg1_1 Mg1_5 3.241938 1_455
Mg1_2 Mg2_2 3.194795 1_555
Mg1_2 Mg2_6 3.194795 1_455
Mg1_2 Mg1_6 3.241938 1_555
Mg1_2 Mg1_6 3.241938 1_455
Mg1_3 Mg2_3 3.194795 1_555
Mg1_3 Mg2_7 3.194795 1_455
Mg1_3 Mg1_7 3.241938 1_555
Mg1_3 Mg1_7 3.241938 1_455
Mg1_4 Mg2_0 3.194795 1_555
Mg1_4 Mg2_4 3.194795 1_555
Mg1_5 Mg2_1 3.194795 1_555
Mg1_5 Mg2_5 3.194795 1_555
Mg1_6 Mg2_2 3.194795 1_555
Mg1_6 Mg2_6 3.194795 1_555
Mg1_7 Mg2_3 3.194795 1_555
Mg1_7 Mg2_7 3.194795 1_555
Mg2_0 Mg2_4 3.241938 1_555
Mg2_0 Mg2_4 3.241938 1_455
Mg2_1 Mg2_5 3.241938 1_555
Mg2_1 Mg2_5 3.241938 1_455
Mg2_2 Mg2_6 3.241938 1_555
Mg2_2 Mg2_6 3.241938 1_455
Mg2_3 Mg2_7 3.241938 1_555
Mg2_3 Mg2_7 3.241938 1_455
