# generated using pymatgen
data_MgV4(H4O7)2
_symmetry_space_group_name_H-M   'P 1'
_cell_length_a   6.41170582
_cell_length_b   6.55906439
_cell_length_c   8.04965141
_cell_angle_alpha   86.66645024
_cell_angle_beta   66.11857552
_cell_angle_gamma   79.22830406
_symmetry_Int_Tables_number   1
_chemical_formula_structural   MgV4(H4O7)2
_chemical_formula_sum   'Mg1 V4 H8 O14'
_cell_volume   304.03149303
_cell_formula_units_Z   1
loop_
 _symmetry_equiv_pos_site_id
 _symmetry_equiv_pos_as_xyz
  1  'x, y, z'
loop_
 _atom_site_type_symbol
 _atom_site_label
 _atom_site_symmetry_multiplicity
 _atom_site_fract_x
 _atom_site_fract_y
 _atom_site_fract_z
 _atom_site_occupancy
  Mg  Mg0  1  0.50000000  0.50000000  0.50000000  1
  V  V0  1  0.12577700  0.84040000  0.10099100  1
  V  V1  1  0.87422300  0.15960000  0.89900900  1
  V  V2  1  0.30810100  0.31999200  0.96986200  1
  V  V3  1  0.69189900  0.68000800  0.03013800  1
  H  H0  1  0.54585700  0.78971100  0.71247100  1
  H  H1  1  0.45414300  0.21028900  0.28752900  1
  H  H2  1  0.68498500  0.85349400  0.50948900  1
  H  H3  1  0.31501500  0.14650600  0.49051100  1
  H  H4  1  0.96779100  0.42112200  0.32407600  1
  H  H5  1  0.03220900  0.57887800  0.67592400  1
  H  H6  1  0.90570200  0.25718300  0.48707800  1
  H  H7  1  0.09429800  0.74281700  0.51292200  1
  O  O0  1  0.14115700  0.53348400  0.11153600  1
  O  O1  1  0.85884300  0.46651600  0.88846400  1
  O  O2  1  0.87552900  0.87139100  0.01058800  1
  O  O3  1  0.12447100  0.12860900  0.98941200  1
  O  O4  1  0.46426200  0.78787400  0.96526700  1
  O  O5  1  0.53573800  0.21212600  0.03473300  1
  O  O6  1  0.02870000  0.89520500  0.31957900  1
  O  O7  1  0.97130000  0.10479500  0.68042100  1
  O  O8  1  0.41960500  0.39210900  0.75526400  1
  O  O9  1  0.58039500  0.60789100  0.24473600  1
  O  O10  1  0.56040400  0.78055300  0.58634100  1
  O  O11  1  0.43959600  0.21944700  0.41365900  1
  O  O12  1  0.84210500  0.36902200  0.42539000  1
  O  O13  1  0.15789500  0.63097800  0.57461000  1
loop_
_geom_bond_atom_site_label_1
_geom_bond_atom_site_label_2
_geom_bond_distance
_geom_bond_site_symmetry_2
Mg0 O8 2.024421 1_555
Mg0 O9 2.024421 1_555
Mg0 O12 2.049159 1_555
Mg0 O13 2.049159 1_555
Mg0 O10 2.156926 1_555
Mg0 O11 2.156926 1_555
H0 O10 0.985631 1_555
H1 O11 0.985631 1_555
H2 O10 0.978753 1_555
H3 O11 0.978753 1_555
H4 O12 0.984726 1_555
H5 O13 0.984726 1_555
H6 O12 0.980172 1_555
H7 O13 0.980172 1_555
O0 V2 1.744774 1_554
O0 V0 1.995527 1_555
O1 V3 1.744774 1_556
O1 V1 1.995527 1_555
O2 V3 1.834722 1_555
O2 V0 1.987878 1_655
O2 V1 2.045248 1_564
O3 V2 1.834722 1_555
O3 V1 1.987878 1_455
O3 V0 2.045248 1_546
O4 V3 1.758311 1_556
O4 V0 1.966423 1_556
O5 V2 1.758311 1_554
O5 V1 1.966423 1_554
O6 V0 1.647978 1_555
O7 V1 1.647978 1_555
O8 V2 1.658413 1_555
O9 V3 1.658413 1_555
