# generated using pymatgen
data_HC2N3
_symmetry_space_group_name_H-M   'P 1'
_cell_length_a   4.22585800
_cell_length_b   12.77288229
_cell_length_c   16.96000083
_cell_angle_alpha   89.98264045
_cell_angle_beta   89.93158964
_cell_angle_gamma   89.62178241
_symmetry_Int_Tables_number   1
_chemical_formula_structural   HC2N3
_chemical_formula_sum   'H12 C24 N36'
_cell_volume   915.41892737
_cell_formula_units_Z   12
loop_
 _symmetry_equiv_pos_site_id
 _symmetry_equiv_pos_as_xyz
  1  'x, y, z'
loop_
 _atom_site_type_symbol
 _atom_site_label
 _atom_site_symmetry_multiplicity
 _atom_site_fract_x
 _atom_site_fract_y
 _atom_site_fract_z
 _atom_site_occupancy
  H  H0  1  0.02472900  0.04968500  0.42152900  1
  H  H1  1  0.03788200  0.17508000  0.37409200  1
  H  H2  1  0.97558200  0.94309800  0.57761900  1
  H  H3  1  0.96228700  0.81782500  0.62463500  1
  H  H4  1  0.03823700  0.38463200  0.38161900  1
  H  H5  1  0.96241100  0.60508000  0.61803800  1
  H  H6  1  0.02538500  0.55436700  0.08042400  1
  H  H7  1  0.03752900  0.68214800  0.12378800  1
  H  H8  1  0.97595400  0.44305500  0.92405800  1
  H  H9  1  0.96227200  0.31863200  0.87539300  1
  H  H10  1  0.03697600  0.89068000  0.11626100  1
  H  H11  1  0.96401800  0.10403500  0.88043000  1
  C  C0  1  0.04332000  0.03577600  0.16278300  1
  C  C1  1  0.02265800  0.17036000  0.07373000  1
  C  C2  1  0.05015500  0.19760500  0.21659800  1
  C  C3  1  0.03647500  0.34722200  0.12917400  1
  C  C4  1  0.05038700  0.36651000  0.26239600  1
  C  C5  1  0.04292900  0.53476700  0.33870600  1
  C  C6  1  0.02240500  0.67016400  0.42683200  1
  C  C7  1  0.04993700  0.86533700  0.23682800  1
  C  C8  1  0.03618500  0.84684000  0.37057700  1
  C  C9  1  0.00014200  0.81881700  0.50393500  1
  C  C10  1  0.00021100  0.17392500  0.49473000  1
  C  C11  1  0.96376400  0.14460400  0.62781800  1
  C  C12  1  0.94987400  0.12525600  0.76095600  1
  C  C13  1  0.97772200  0.32170000  0.57250800  1
  C  C14  1  0.95014800  0.29409400  0.71535400  1
  C  C15  1  0.95722800  0.45610300  0.66139600  1
  C  C16  1  0.94989900  0.62457700  0.73751800  1
  C  C17  1  0.96365300  0.64438700  0.87076000  1
  C  C18  1  0.94968000  0.79367900  0.78275500  1
  C  C19  1  0.97697700  0.82212000  0.92511200  1
  C  C20  1  0.95682100  0.95607900  0.83607200  1
  C  C21  1  0.00016700  0.31806400  0.99615200  1
  C  C22  1  0.04979600  0.69654400  0.28367600  1
  C  C23  1  0.99973800  0.67534800  0.00359900  1
  N  N0  1  0.05528800  0.09471200  0.22790600  1
  N  N1  1  0.02683400  0.06721700  0.08712500  1
  N  N2  1  0.03880200  0.23816400  0.14001000  1
  N  N3  1  0.05375500  0.26243000  0.27825100  1
  N  N4  1  0.01972400  0.38659300  0.05779000  1
  N  N5  1  0.04774400  0.41103800  0.19169900  1
  N  N6  1  0.04682400  0.42682000  0.33006400  1
  N  N7  1  0.05470300  0.59374600  0.27331500  1
  N  N8  1  0.02630900  0.56665600  0.41419700  1
  N  N9  1  0.00187100  0.71169300  0.49851100  1
  N  N10  1  0.03872200  0.73770400  0.36015300  1
  N  N11  1  0.05346400  0.76120900  0.22134800  1
  N  N12  1  0.04676900  0.92764900  0.16998400  1
  N  N13  1  0.04698500  0.90991200  0.30753900  1
  N  N14  1  0.01977100  0.88688500  0.44186100  1
  N  N15  1  0.97659100  0.86268400  0.57440200  1
  N  N16  1  0.02383900  0.13011400  0.42427900  1
  N  N17  1  0.98062800  0.10531700  0.55626200  1
  N  N18  1  0.95240300  0.08072800  0.69022400  1
  N  N19  1  0.95378400  0.06399600  0.82806600  1
  N  N20  1  0.99833300  0.28091300  0.50050700  1
  N  N21  1  0.96144800  0.25361700  0.63868000  1
  N  N22  1  0.94643300  0.22916300  0.77709800  1
  N  N23  1  0.97378200  0.42490500  0.58569000  1
  N  N24  1  0.94524600  0.39687400  0.72645600  1
  N  N25  1  0.95362900  0.56388500  0.67000700  1
  N  N26  1  0.95288200  0.58027000  0.80845600  1
  N  N27  1  0.98049000  0.60572900  0.94273900  1
  N  N28  1  0.94613300  0.72846600  0.72126100  1
  N  N29  1  0.96086600  0.75342300  0.85945500  1
  N  N30  1  0.94483300  0.89649300  0.77124000  1
  N  N31  1  0.97313000  0.92514500  0.91176200  1
  N  N32  1  0.99753100  0.78209700  0.99722900  1
  N  N33  1  0.97657600  0.36255700  0.92595800  1
  N  N34  1  0.00215700  0.21108200  0.00177200  1
  N  N35  1  0.02379000  0.63431600  0.07505500  1
loop_
_geom_bond_atom_site_label_1
_geom_bond_atom_site_label_2
_geom_bond_distance
_geom_bond_site_symmetry_2
H0 N16 1.028364 1_555
H1 N16 1.028553 1_555
H2 N15 1.028564 1_555
H3 N15 1.028503 1_555
H4 N6 1.027674 1_555
H5 N25 1.027130 1_555
H6 N35 1.025182 1_555
H7 N35 1.029876 1_555
H8 N33 1.028673 1_555
H9 N33 1.027006 1_555
H10 N12 1.027363 1_555
H11 N19 1.026052 1_555
C0 N0 1.338009 1_555
C0 N1 1.346165 1_555
C0 N12 1.386428 1_545
C1 N34 1.329179 1_555
C1 N1 1.336815 1_555
C1 N2 1.421223 1_555
C2 N0 1.328141 1_555
C2 N3 1.334129 1_555
C2 N2 1.399043 1_555
C3 N4 1.312629 1_555
C3 N5 1.338781 1_555
C3 N2 1.404972 1_555
C4 N5 1.326947 1_555
C4 N3 1.356231 1_555
C4 N6 1.382418 1_555
C5 N7 1.341563 1_555
C5 N8 1.345288 1_555
C5 N6 1.386594 1_555
C6 N9 1.329022 1_555
C6 N8 1.339404 1_555
C6 N10 1.424030 1_555
C7 N13 1.327713 1_555
C7 N11 1.355739 1_555
C7 N12 1.384994 1_555
C8 N14 1.314444 1_555
C8 N13 1.339390 1_555
C8 N10 1.405170 1_555
C9 N15 1.323461 1_455
C9 N14 1.367956 1_555
C9 N9 1.371370 1_555
C10 N16 1.322936 1_555
C10 N17 1.365302 1_455
C10 N20 1.370053 1_455
C11 N17 1.315059 1_555
C11 N18 1.337184 1_555
C11 N21 1.404568 1_555
C12 N18 1.327769 1_555
C12 N22 1.355195 1_555
C12 N19 1.381061 1_555
C13 N20 1.330301 1_555
C13 N23 1.337108 1_555
C13 N21 1.421436 1_555
C14 N24 1.326310 1_555
C14 N22 1.335764 1_555
C14 N21 1.400188 1_555
C15 N24 1.338765 1_555
C15 N23 1.346107 1_555
C15 N25 1.384437 1_555
C16 N26 1.329448 1_555
C16 N28 1.355217 1_555
C16 N25 1.382942 1_555
C17 N27 1.318529 1_555
C17 N26 1.338081 1_555
C17 N29 1.405757 1_555
C18 N30 1.327642 1_555
C18 N28 1.335100 1_555
C18 N29 1.399359 1_555
C19 N32 1.328214 1_555
C19 N31 1.335191 1_555
C19 N29 1.419897 1_555
C20 N30 1.338648 1_555
C20 N31 1.344732 1_555
C20 N19 1.385018 1_565
C21 N33 1.322611 1_455
C21 N4 1.366579 1_556
C21 N34 1.369731 1_556
C22 N7 1.324809 1_555
C22 N11 1.341444 1_555
C22 N10 1.400309 1_555
C23 N35 1.323972 1_655
C23 N27 1.365458 1_554
C23 N32 1.367704 1_554
