# generated using pymatgen
data_Mg2SiO4
_symmetry_space_group_name_H-M   'P 1'
_cell_length_a   4.95514004
_cell_length_b   4.95514004
_cell_length_c   9.47089500
_cell_angle_alpha   90.00000000
_cell_angle_beta   90.00000000
_cell_angle_gamma   147.17141955
_symmetry_Int_Tables_number   1
_chemical_formula_structural   Mg2SiO4
_chemical_formula_sum   'Mg4 Si2 O8'
_cell_volume   126.06782914
_cell_formula_units_Z   2
loop_
 _symmetry_equiv_pos_site_id
 _symmetry_equiv_pos_as_xyz
  1  'x, y, z'
loop_
 _atom_site_type_symbol
 _atom_site_label
 _atom_site_symmetry_multiplicity
 _atom_site_fract_x
 _atom_site_fract_y
 _atom_site_fract_z
 _atom_site_occupancy
  Mg  Mg0  1  0.86031500  0.13968500  0.85384700  1
  Mg  Mg1  1  0.13968500  0.86031500  0.35384700  1
  Mg  Mg2  1  0.39218800  0.60781200  0.18507900  1
  Mg  Mg3  1  0.60781200  0.39218800  0.68507900  1
  Si  Si0  1  0.87346800  0.12653200  0.49910800  1
  Si  Si1  1  0.12653200  0.87346800  0.99910800  1
  O  O0  1  0.50526600  0.49473400  0.93819100  1
  O  O1  1  0.49473400  0.50526600  0.43819100  1
  O  O2  1  0.74674400  0.25325600  0.04536600  1
  O  O3  1  0.25325600  0.74674400  0.54536600  1
  O  O4  1  0.20431500  0.79568500  0.82667900  1
  O  O5  1  0.79568500  0.20431500  0.32667900  1
  O  O6  1  0.95482400  0.04517600  0.66253000  1
  O  O7  1  0.04517600  0.95482400  0.16253000  1
loop_
_geom_bond_atom_site_label_1
_geom_bond_atom_site_label_2
_geom_bond_distance
_geom_bond_site_symmetry_2
Mg0 O6 2.022456 1_555
Mg0 O4 2.055751 1_545
Mg0 O4 2.055751 1_655
Mg0 O2 2.110856 1_556
Mg0 O0 2.120733 1_655
Mg0 O0 2.120733 1_545
Mg1 O7 2.022456 1_555
Mg1 O5 2.055751 1_455
Mg1 O5 2.055751 1_565
Mg1 O3 2.110856 1_555
Mg1 O1 2.120733 1_455
Mg1 O1 2.120733 1_565
Mg2 O7 2.030125 1_545
Mg2 O7 2.030125 1_655
Mg2 O5 2.144933 1_455
Mg2 O5 2.144933 1_565
Mg2 O2 2.371333 1_565
Mg2 O2 2.371333 1_455
Mg2 O0 2.573511 1_554
Mg2 O1 2.587831 1_555
Mg3 O6 2.030125 1_455
Mg3 O6 2.030125 1_565
Mg3 O4 2.144933 1_545
Mg3 O4 2.144933 1_655
Mg3 O3 2.371333 1_655
Mg3 O3 2.371333 1_545
Mg3 O1 2.573511 1_555
Mg3 O0 2.587831 1_555
O0 Si1 1.903271 1_545
O0 Si1 1.903271 1_655
O1 Si0 1.903271 1_565
O1 Si0 1.903271 1_455
O2 Si1 1.859709 1_654
O2 Si1 1.859709 1_544
O3 Si0 1.859709 1_565
O3 Si0 1.859709 1_455
O4 Si1 1.792662 1_555
O5 Si0 1.792662 1_555
O6 Si0 1.730227 1_555
O7 Si1 1.730227 1_554
