# generated using pymatgen
data_Ba3In2WO9
_symmetry_space_group_name_H-M   'P 1'
_cell_length_a   10.36183087
_cell_length_b   10.36183087
_cell_length_c   10.36183087
_cell_angle_alpha   146.48722643
_cell_angle_beta   131.82128726
_cell_angle_gamma   59.96213997
_symmetry_Int_Tables_number   1
_chemical_formula_structural   Ba3In2WO9
_chemical_formula_sum   'Ba6 In4 W2 O18'
_cell_volume   453.59000987
_cell_formula_units_Z   2
loop_
 _symmetry_equiv_pos_site_id
 _symmetry_equiv_pos_as_xyz
  1  'x, y, z'
loop_
 _atom_site_type_symbol
 _atom_site_label
 _atom_site_symmetry_multiplicity
 _atom_site_fract_x
 _atom_site_fract_y
 _atom_site_fract_z
 _atom_site_occupancy
  Ba  Ba0  1  0.58019400  0.83891700  0.74127700  1
  Ba  Ba1  1  0.26572500  0.50000000  0.76572500  1
  Ba  Ba2  1  0.90235900  0.16108300  0.74127700  1
  Ba  Ba3  1  0.09764100  0.83891700  0.25872300  1
  Ba  Ba4  1  0.73427500  0.50000000  0.23427500  1
  Ba  Ba5  1  0.41980600  0.16108300  0.25872300  1
  In  In0  1  0.33068900  0.33068900  0.00000000  1
  In  In1  1  0.00000000  0.00000000  0.00000000  1
  In  In2  1  0.66931100  0.66931100  0.00000000  1
  In  In3  1  0.50000000  0.00000000  0.50000000  1
  W  W0  1  0.16750600  0.66750600  0.50000000  1
  W  W1  1  0.83249400  0.33249400  0.50000000  1
  O  O0  1  0.59794000  0.32969200  0.26824700  1
  O  O1  1  0.24147300  0.00000000  0.24147300  1
  O  O2  1  0.93855500  0.67030800  0.26824700  1
  O  O3  1  0.90919100  0.63934100  0.73015000  1
  O  O4  1  0.58699000  0.33627300  0.74928300  1
  O  O5  1  0.24460500  0.98129200  0.73668700  1
  O  O6  1  0.75539500  0.49208300  0.73668700  1
  O  O7  1  0.41301000  0.16229300  0.74928300  1
  O  O8  1  0.09080900  0.82095900  0.73015000  1
  O  O9  1  0.06144500  0.32969200  0.73175300  1
  O  O10  1  0.75852700  0.00000000  0.75852700  1
  O  O11  1  0.40206000  0.67030800  0.73175300  1
  O  O12  1  0.75539500  0.01870800  0.26331300  1
  O  O13  1  0.41301000  0.66372700  0.25071700  1
  O  O14  1  0.09080900  0.36065900  0.26985000  1
  O  O15  1  0.90919100  0.17904100  0.26985000  1
  O  O16  1  0.58699000  0.83770700  0.25071700  1
  O  O17  1  0.24460500  0.50791700  0.26331300  1
loop_
_geom_bond_atom_site_label_1
_geom_bond_atom_site_label_2
_geom_bond_distance
_geom_bond_site_symmetry_2
Ba0 O13 2.855231 1_555
Ba0 O7 2.855231 1_565
Ba0 O10 2.895222 1_565
Ba0 O15 2.996655 1_566
Ba0 O3 2.996655 1_555
Ba0 O0 3.000614 1_566
Ba0 O0 3.000620 1_555
Ba0 O5 3.005163 1_555
Ba0 O17 3.005167 1_555
Ba0 O11 3.027720 1_555
Ba0 O6 3.084153 1_555
Ba0 O12 3.084162 1_566
Ba1 O16 2.934130 1_556
Ba1 O4 2.934130 1_555
Ba1 O7 2.934130 1_555
Ba1 O13 2.934130 1_556
Ba1 O1 2.994382 1_555
Ba1 O1 2.994382 1_566
Ba1 O11 3.070604 1_555
Ba1 O9 3.070613 1_555
Ba1 O14 3.098380 1_555
Ba1 O15 3.098380 1_455
Ba1 O8 3.098380 1_555
Ba1 O3 3.098380 1_455
Ba2 O4 2.855223 1_555
Ba2 O16 2.855226 1_545
Ba2 O10 2.895213 1_555
Ba2 O14 2.996652 1_656
Ba2 O8 2.996656 1_645
Ba2 O2 3.000615 1_556
Ba2 O2 3.000621 1_545
Ba2 O12 3.005167 1_555
Ba2 O6 3.005174 1_555
Ba2 O9 3.027720 1_655
Ba2 O17 3.084165 1_656
Ba2 O5 3.084171 1_645
Ba3 O13 2.855223 1_555
Ba3 O7 2.855226 1_565
Ba3 O1 2.895213 1_565
Ba3 O3 2.996652 1_454
Ba3 O15 2.996656 1_465
Ba3 O9 3.000615 1_554
Ba3 O9 3.000621 1_565
Ba3 O5 3.005167 1_555
Ba3 O17 3.005174 1_555
Ba3 O2 3.027720 1_455
Ba3 O6 3.084165 1_454
Ba3 O12 3.084171 1_465
Ba4 O16 2.934130 1_555
Ba4 O4 2.934130 1_554
Ba4 O7 2.934130 1_554
Ba4 O13 2.934130 1_555
Ba4 O10 2.994382 1_554
Ba4 O10 2.994382 1_565
Ba4 O0 3.070604 1_555
Ba4 O2 3.070613 1_555
Ba4 O15 3.098380 1_555
Ba4 O8 3.098380 1_655
Ba4 O14 3.098380 1_655
Ba4 O3 3.098380 1_555
Ba5 O16 2.855231 1_545
Ba5 O4 2.855231 1_555
Ba5 O1 2.895222 1_555
Ba5 O8 2.996655 1_544
Ba5 O14 2.996655 1_555
Ba5 O11 3.000614 1_544
Ba5 O11 3.000620 1_555
Ba5 O12 3.005163 1_555
Ba5 O6 3.005167 1_555
Ba5 O0 3.027720 1_555
Ba5 O17 3.084153 1_555
Ba5 O5 3.084162 1_544
In0 O7 2.104167 1_554
In0 O13 2.104167 1_555
In0 O5 2.205185 1_544
In0 O17 2.205189 1_555
In0 O9 2.269061 1_554
In0 O0 2.269066 1_555
In1 O1 2.042521 1_555
In1 O10 2.042521 1_454
In1 O3 2.292723 1_444
In1 O14 2.292723 1_555
In1 O15 2.292723 1_455
In1 O8 2.292723 1_544
In2 O4 2.104167 1_554
In2 O16 2.104167 1_555
In2 O12 2.205185 1_565
In2 O6 2.205189 1_554
In2 O2 2.269061 1_555
In2 O11 2.269066 1_554
In3 O4 2.157926 1_555
In3 O16 2.157926 1_545
In3 O13 2.157926 1_545
In3 O7 2.157926 1_555
In3 O10 2.186773 1_555
In3 O1 2.186773 1_555
O0 W1 1.960944 1_555
O2 W0 1.960948 1_655
O3 W1 1.945842 1_555
O5 W0 1.978677 1_555
O6 W1 1.978672 1_555
O8 W0 1.945842 1_555
O9 W1 1.960948 1_455
O11 W0 1.960944 1_555
O12 W1 1.978677 1_555
O14 W0 1.945842 1_555
O15 W1 1.945842 1_555
O17 W0 1.978672 1_555
