# generated using pymatgen
data_Sm2(GeIr)3
_symmetry_space_group_name_H-M   'P 1'
_cell_length_a   5.68215800
_cell_length_b   5.68215800
_cell_length_c   42.27633800
_cell_angle_alpha   90.00000000
_cell_angle_beta   90.00000000
_cell_angle_gamma   90.00000000
_symmetry_Int_Tables_number   1
_chemical_formula_structural   Sm2(GeIr)3
_chemical_formula_sum   'Sm16 Ge24 Ir24'
_cell_volume   1364.97272332
_cell_formula_units_Z   8
loop_
 _symmetry_equiv_pos_site_id
 _symmetry_equiv_pos_as_xyz
  1  'x, y, z'
loop_
 _atom_site_type_symbol
 _atom_site_label
 _atom_site_symmetry_multiplicity
 _atom_site_fract_x
 _atom_site_fract_y
 _atom_site_fract_z
 _atom_site_occupancy
  Sm  Sm0_0  1  0.25000000  0.25000000  0.38110600  1
  Sm  Sm0_1  1  0.25000000  0.25000000  0.88110600  1
  Sm  Sm0_2  1  0.25000000  0.75000000  0.38110600  1
  Sm  Sm0_3  1  0.25000000  0.75000000  0.88110600  1
  Sm  Sm0_4  1  0.75000000  0.25000000  0.38110600  1
  Sm  Sm0_5  1  0.75000000  0.25000000  0.88110600  1
  Sm  Sm0_6  1  0.75000000  0.75000000  0.38110600  1
  Sm  Sm0_7  1  0.75000000  0.75000000  0.88110600  1
  Sm  Sm1_0  1  0.25000000  0.25000000  0.11889400  1
  Sm  Sm1_1  1  0.25000000  0.25000000  0.61889400  1
  Sm  Sm1_2  1  0.25000000  0.75000000  0.11889400  1
  Sm  Sm1_3  1  0.25000000  0.75000000  0.61889400  1
  Sm  Sm1_4  1  0.75000000  0.25000000  0.11889400  1
  Sm  Sm1_5  1  0.75000000  0.25000000  0.61889400  1
  Sm  Sm1_6  1  0.75000000  0.75000000  0.11889400  1
  Sm  Sm1_7  1  0.75000000  0.75000000  0.61889400  1
  Ge  Ge0_0  1  0.25000000  0.25000000  0.19340950  1
  Ge  Ge0_1  1  0.25000000  0.25000000  0.69340950  1
  Ge  Ge0_2  1  0.25000000  0.75000000  0.19340950  1
  Ge  Ge0_3  1  0.25000000  0.75000000  0.69340950  1
  Ge  Ge0_4  1  0.75000000  0.25000000  0.19340950  1
  Ge  Ge0_5  1  0.75000000  0.25000000  0.69340950  1
  Ge  Ge0_6  1  0.75000000  0.75000000  0.19340950  1
  Ge  Ge0_7  1  0.75000000  0.75000000  0.69340950  1
  Ge  Ge1_0  1  0.25000000  0.25000000  0.30659050  1
  Ge  Ge1_1  1  0.25000000  0.25000000  0.80659050  1
  Ge  Ge1_2  1  0.25000000  0.75000000  0.30659050  1
  Ge  Ge1_3  1  0.25000000  0.75000000  0.80659050  1
  Ge  Ge1_4  1  0.75000000  0.25000000  0.30659050  1
  Ge  Ge1_5  1  0.75000000  0.25000000  0.80659050  1
  Ge  Ge1_6  1  0.75000000  0.75000000  0.30659050  1
  Ge  Ge1_7  1  0.75000000  0.75000000  0.80659050  1
  Ge  Ge2_0  1  0.25000000  0.25000000  0.00000000  1
  Ge  Ge2_1  1  0.25000000  0.25000000  0.50000000  1
  Ge  Ge2_2  1  0.25000000  0.75000000  0.00000000  1
  Ge  Ge2_3  1  0.25000000  0.75000000  0.50000000  1
  Ge  Ge2_4  1  0.75000000  0.25000000  0.00000000  1
  Ge  Ge2_5  1  0.75000000  0.25000000  0.50000000  1
  Ge  Ge2_6  1  0.75000000  0.75000000  0.00000000  1
  Ge  Ge2_7  1  0.75000000  0.75000000  0.50000000  1
  Ir  Ir0_0  1  0.25000000  0.25000000  0.05663500  1
  Ir  Ir0_1  1  0.25000000  0.25000000  0.55663500  1
  Ir  Ir0_2  1  0.25000000  0.75000000  0.05663500  1
  Ir  Ir0_3  1  0.25000000  0.75000000  0.55663500  1
  Ir  Ir0_4  1  0.75000000  0.25000000  0.05663500  1
  Ir  Ir0_5  1  0.75000000  0.25000000  0.55663500  1
  Ir  Ir0_6  1  0.75000000  0.75000000  0.05663500  1
  Ir  Ir0_7  1  0.75000000  0.75000000  0.55663500  1
  Ir  Ir1_0  1  0.25000000  0.25000000  0.44336500  1
  Ir  Ir1_1  1  0.25000000  0.25000000  0.94336500  1
  Ir  Ir1_2  1  0.25000000  0.75000000  0.44336500  1
  Ir  Ir1_3  1  0.25000000  0.75000000  0.94336500  1
  Ir  Ir1_4  1  0.75000000  0.25000000  0.44336500  1
  Ir  Ir1_5  1  0.75000000  0.25000000  0.94336500  1
  Ir  Ir1_6  1  0.75000000  0.75000000  0.44336500  1
  Ir  Ir1_7  1  0.75000000  0.75000000  0.94336500  1
  Ir  Ir2_0  1  0.25000000  0.25000000  0.25000000  1
  Ir  Ir2_1  1  0.25000000  0.25000000  0.75000000  1
  Ir  Ir2_2  1  0.25000000  0.75000000  0.25000000  1
  Ir  Ir2_3  1  0.25000000  0.75000000  0.75000000  1
  Ir  Ir2_4  1  0.75000000  0.25000000  0.25000000  1
  Ir  Ir2_5  1  0.75000000  0.25000000  0.75000000  1
  Ir  Ir2_6  1  0.75000000  0.75000000  0.25000000  1
  Ir  Ir2_7  1  0.75000000  0.75000000  0.75000000  1
loop_
_geom_bond_atom_site_label_1
_geom_bond_atom_site_label_2
_geom_bond_distance
_geom_bond_site_symmetry_2
Sm0_0 Sm0_2 2.841079 1_555
Sm0_0 Sm0_4 2.841079 1_555
Sm0_0 Sm0_2 2.841079 1_545
Sm0_0 Sm0_4 2.841079 1_455
Sm0_1 Sm0_5 2.841079 1_455
Sm0_1 Sm0_5 2.841079 1_555
Sm0_1 Sm0_3 2.841079 1_545
Sm0_1 Sm0_3 2.841079 1_555
Sm0_2 Sm0_6 2.841079 1_455
Sm0_2 Sm0_6 2.841079 1_555
Sm0_3 Sm0_7 2.841079 1_455
Sm0_3 Sm0_7 2.841079 1_555
Sm0_4 Sm0_6 2.841079 1_555
Sm0_4 Sm0_6 2.841079 1_545
Sm0_5 Sm0_7 2.841079 1_545
Sm0_5 Sm0_7 2.841079 1_555
Sm1_0 Sm1_2 2.841079 1_555
Sm1_0 Sm1_4 2.841079 1_455
Sm1_0 Sm1_2 2.841079 1_545
Sm1_0 Sm1_4 2.841079 1_555
Sm1_1 Sm1_5 2.841079 1_555
Sm1_1 Sm1_3 2.841079 1_555
Sm1_1 Sm1_5 2.841079 1_455
Sm1_1 Sm1_3 2.841079 1_545
Sm1_2 Sm1_6 2.841079 1_555
Sm1_2 Sm1_6 2.841079 1_455
Sm1_3 Sm1_7 2.841079 1_455
Sm1_3 Sm1_7 2.841079 1_555
Sm1_4 Sm1_6 2.841079 1_555
Sm1_4 Sm1_6 2.841079 1_545
Sm1_5 Sm1_7 2.841079 1_555
Sm1_5 Sm1_7 2.841079 1_545
Ge0_0 Ir2_0 2.392439 1_555
Ge0_0 Ge0_4 2.841079 1_555
Ge0_0 Ge0_4 2.841079 1_455
Ge0_0 Ge0_2 2.841079 1_545
Ge0_0 Ge0_2 2.841079 1_555
Ge0_0 Sm1_0 3.150242 1_555
Ge0_1 Ir2_1 2.392439 1_555
Ge0_1 Ge0_5 2.841079 1_455
Ge0_1 Ge0_3 2.841079 1_555
Ge0_1 Ge0_5 2.841079 1_555
Ge0_1 Ge0_3 2.841079 1_545
Ge0_1 Sm1_1 3.150242 1_555
Ge0_2 Ir2_2 2.392439 1_555
Ge0_2 Ge0_6 2.841079 1_455
Ge0_2 Ge0_6 2.841079 1_555
Ge0_2 Sm1_2 3.150242 1_555
Ge0_3 Ir2_3 2.392439 1_555
Ge0_3 Ge0_7 2.841079 1_455
Ge0_3 Ge0_7 2.841079 1_555
Ge0_3 Sm1_3 3.150242 1_555
Ge0_4 Ir2_4 2.392439 1_555
Ge0_4 Ge0_6 2.841079 1_555
Ge0_4 Ge0_6 2.841079 1_545
Ge0_4 Sm1_4 3.150242 1_555
Ge0_5 Ir2_5 2.392439 1_555
Ge0_5 Ge0_7 2.841079 1_555
Ge0_5 Ge0_7 2.841079 1_545
Ge0_5 Sm1_5 3.150242 1_555
Ge0_6 Ir2_6 2.392439 1_555
Ge0_6 Sm1_6 3.150242 1_555
Ge0_7 Ir2_7 2.392439 1_555
Ge0_7 Sm1_7 3.150242 1_555
Ge1_0 Ir2_0 2.392439 1_555
Ge1_0 Ge1_2 2.841079 1_545
Ge1_0 Ge1_2 2.841079 1_555
Ge1_0 Ge1_4 2.841079 1_555
Ge1_0 Ge1_4 2.841079 1_455
Ge1_0 Sm0_0 3.150242 1_555
Ge1_1 Ir2_1 2.392439 1_555
Ge1_1 Ge1_3 2.841079 1_555
Ge1_1 Ge1_5 2.841079 1_455
Ge1_1 Ge1_3 2.841079 1_545
Ge1_1 Ge1_5 2.841079 1_555
Ge1_1 Sm0_1 3.150242 1_555
Ge1_2 Ir2_2 2.392439 1_555
Ge1_2 Ge1_6 2.841079 1_455
Ge1_2 Ge1_6 2.841079 1_555
Ge1_2 Sm0_2 3.150242 1_555
Ge1_3 Ir2_3 2.392439 1_555
Ge1_3 Ge1_7 2.841079 1_555
Ge1_3 Ge1_7 2.841079 1_455
Ge1_3 Sm0_3 3.150242 1_555
Ge1_4 Ir2_4 2.392439 1_555
Ge1_4 Ge1_6 2.841079 1_545
Ge1_4 Ge1_6 2.841079 1_555
Ge1_4 Sm0_4 3.150242 1_555
Ge1_5 Ir2_5 2.392439 1_555
Ge1_5 Ge1_7 2.841079 1_555
Ge1_5 Ge1_7 2.841079 1_545
Ge1_5 Sm0_5 3.150242 1_555
Ge1_6 Ir2_6 2.392439 1_555
Ge1_6 Sm0_6 3.150242 1_555
Ge1_7 Ir2_7 2.392439 1_555
Ge1_7 Sm0_7 3.150242 1_555
Ge2_0 Ir1_1 2.394320 1_554
Ge2_0 Ir0_0 2.394320 1_555
Ge2_1 Ir1_0 2.394320 1_555
Ge2_1 Ir0_1 2.394320 1_555
Ge2_2 Ir1_3 2.394320 1_554
Ge2_2 Ir0_2 2.394320 1_555
Ge2_3 Ir1_2 2.394320 1_555
Ge2_3 Ir0_3 2.394320 1_555
Ge2_4 Ir1_5 2.394320 1_554
Ge2_4 Ir0_4 2.394320 1_555
Ge2_5 Ir1_4 2.394320 1_555
Ge2_5 Ir0_5 2.394320 1_555
Ge2_6 Ir1_7 2.394320 1_554
Ge2_6 Ir0_6 2.394320 1_555
Ge2_7 Ir0_7 2.394320 1_555
Ge2_7 Ir1_6 2.394320 1_555
Ir0_0 Sm1_0 2.632083 1_555
Ir0_1 Sm1_1 2.632083 1_555
Ir0_2 Sm1_2 2.632083 1_555
Ir0_3 Sm1_3 2.632083 1_555
Ir0_4 Sm1_4 2.632083 1_555
Ir0_5 Sm1_5 2.632083 1_555
Ir0_6 Sm1_6 2.632083 1_555
Ir0_7 Sm1_7 2.632083 1_555
Ir1_0 Sm0_0 2.632083 1_555
Ir1_1 Sm0_1 2.632083 1_555
Ir1_2 Sm0_2 2.632083 1_555
Ir1_3 Sm0_3 2.632083 1_555
Ir1_4 Sm0_4 2.632083 1_555
Ir1_5 Sm0_5 2.632083 1_555
Ir1_6 Sm0_6 2.632083 1_555
Ir1_7 Sm0_7 2.632083 1_555
