# generated using pymatgen
data_LiSn(PO3)4
_symmetry_space_group_name_H-M   'P 1'
_cell_length_a   10.59564000
_cell_length_b   9.27086900
_cell_length_c   9.78358482
_cell_angle_alpha   88.30758266
_cell_angle_beta   90.00000000
_cell_angle_gamma   90.00000000
_symmetry_Int_Tables_number   1
_chemical_formula_structural   LiSn(PO3)4
_chemical_formula_sum   'Li4 Sn4 P16 O48'
_cell_volume   960.63003859
_cell_formula_units_Z   4
loop_
 _symmetry_equiv_pos_site_id
 _symmetry_equiv_pos_as_xyz
  1  'x, y, z'
loop_
 _atom_site_type_symbol
 _atom_site_label
 _atom_site_symmetry_multiplicity
 _atom_site_fract_x
 _atom_site_fract_y
 _atom_site_fract_z
 _atom_site_occupancy
  Li  Li0  1  0.32212600  0.13180900  0.25071300  1
  Li  Li1  1  0.67609200  0.63463600  0.24727600  1
  Li  Li2  1  0.17609200  0.36536400  0.75272400  1
  Li  Li3  1  0.82212600  0.86819100  0.74928700  1
  Sn  Sn0  1  0.80099800  0.26364400  0.72840900  1
  Sn  Sn1  1  0.69678500  0.24352000  0.22985800  1
  Sn  Sn2  1  0.19678500  0.75648000  0.77014200  1
  Sn  Sn3  1  0.30099800  0.73635600  0.27159100  1
  P  P0  1  0.01945300  0.76413400  0.48501300  1
  P  P1  1  0.09969700  0.27160300  0.44785100  1
  P  P2  1  0.40259900  0.26393400  0.94933100  1
  P  P3  1  0.61269500  0.05157400  0.94913400  1
  P  P4  1  0.38655600  0.94786300  0.54588700  1
  P  P5  1  0.60452400  0.47883900  0.95380200  1
  P  P6  1  0.89726800  0.47969100  0.44677000  1
  P  P7  1  0.90259900  0.73606600  0.05066900  1
  P  P8  1  0.47956900  0.75729000  0.98436900  1
  P  P9  1  0.10452400  0.52116100  0.04619800  1
  P  P10  1  0.88655600  0.05213700  0.45411300  1
  P  P11  1  0.51945300  0.23586600  0.51498700  1
  P  P12  1  0.59969700  0.72839700  0.55214900  1
  P  P13  1  0.39726800  0.52030900  0.55323000  1
  P  P14  1  0.97956900  0.24271000  0.01563100  1
  P  P15  1  0.11269500  0.94842600  0.05086600  1
  O  O0  1  0.87656900  0.43723100  0.59643900  1
  O  O1  1  0.03643100  0.09465600  0.07262300  1
  O  O2  1  0.53302300  0.57452400  0.60272200  1
  O  O3  1  0.89692400  0.76578600  0.90113200  1
  O  O4  1  0.27189100  0.93734800  0.63807000  1
  O  O5  1  0.47975400  0.74428800  0.13953600  1
  O  O6  1  0.70225200  0.43038600  0.85307200  1
  O  O7  1  0.63185900  0.07057800  0.10082000  1
  O  O8  1  0.96683700  0.57765500  0.08362100  1
  O  O9  1  0.13165000  0.54712100  0.89444000  1
  O  O10  1  0.77189100  0.06265200  0.36193000  1
  O  O11  1  0.20225200  0.56961400  0.14692800  1
  O  O12  1  0.13185900  0.92942200  0.89918000  1
  O  O13  1  0.48080400  0.82901900  0.60199700  1
  O  O14  1  0.64588500  0.26360000  0.57834600  1
  O  O15  1  0.58357500  0.64932400  0.92534600  1
  O  O16  1  0.51829200  0.16715700  0.88380600  1
  O  O17  1  0.46683700  0.42234500  0.91637900  1
  O  O18  1  0.39692400  0.23421400  0.09886800  1
  O  O19  1  0.35350500  0.73793900  0.91774100  1
  O  O20  1  0.36662300  0.94187500  0.39234000  1
  O  O21  1  0.79343400  0.44670900  0.34649800  1
  O  O22  1  0.86662300  0.05812500  0.60766000  1
  O  O23  1  0.96102700  0.90745800  0.41792900  1
  O  O24  1  0.37656900  0.56276900  0.40356100  1
  O  O25  1  0.01807700  0.76957500  0.63983000  1
  O  O26  1  0.14588500  0.73640000  0.42165400  1
  O  O27  1  0.29343400  0.55329100  0.65350200  1
  O  O28  1  0.98080400  0.17098100  0.39800300  1
  O  O29  1  0.91688800  0.65137400  0.43365200  1
  O  O30  1  0.97975400  0.25571200  0.86046400  1
  O  O31  1  0.22729700  0.94862800  0.14388400  1
  O  O32  1  0.08357500  0.35067600  0.07465400  1
  O  O33  1  0.79119100  0.74644900  0.14129600  1
  O  O34  1  0.20745300  0.24198600  0.35642500  1
  O  O35  1  0.10991600  0.26719200  0.59897300  1
  O  O36  1  0.46102700  0.09254200  0.58207100  1
  O  O37  1  0.70745300  0.75801400  0.64357500  1
  O  O38  1  0.53643100  0.90534400  0.92737700  1
  O  O39  1  0.85350500  0.26206100  0.08225900  1
  O  O40  1  0.01829200  0.83284300  0.11619400  1
  O  O41  1  0.29119100  0.25355100  0.85870400  1
  O  O42  1  0.41688800  0.34862600  0.56634800  1
  O  O43  1  0.51807700  0.23042500  0.36017000  1
  O  O44  1  0.63165000  0.45287900  0.10556000  1
  O  O45  1  0.72729700  0.05137200  0.85611600  1
  O  O46  1  0.60991600  0.73280800  0.40102700  1
  O  O47  1  0.03302300  0.42547600  0.39727800  1
loop_
_geom_bond_atom_site_label_1
_geom_bond_atom_site_label_2
_geom_bond_distance
_geom_bond_site_symmetry_2
Li0 O34 1.910941 1_555
Li0 O18 1.911309 1_555
Li0 O31 2.256289 1_545
Li0 O20 2.258034 1_545
Li0 O43 2.520158 1_555
Li1 O33 1.890355 1_555
Li1 O46 1.914053 1_555
Li1 O44 2.263067 1_555
Li1 O21 2.328884 1_555
Li1 O5 2.531594 1_555
Li2 O41 1.890355 1_555
Li2 O35 1.914053 1_555
Li2 O9 2.263067 1_555
Li2 O27 2.328884 1_555
Li2 O30 2.531594 1_455
Li3 O37 1.910941 1_555
Li3 O3 1.911309 1_555
Li3 O45 2.256289 1_565
Li3 O22 2.258034 1_565
Li3 O25 2.520158 1_655
O0 P6 1.520914 1_555
O0 Sn0 2.185251 1_555
O1 P14 1.585147 1_455
O1 P15 1.597871 1_545
O2 P13 1.603274 1_555
O2 P12 1.654450 1_555
O3 P7 1.481929 1_556
O4 P4 1.514529 1_555
O4 Sn2 2.233070 1_555
O5 P8 1.519316 1_554
O5 Sn3 2.292673 1_555
O6 P5 1.507111 1_555
O6 Sn0 2.254605 1_555
O7 P3 1.513298 1_554
O7 Sn1 2.181111 1_555
O8 P9 1.596254 1_655
O8 P7 1.641966 1_555
O9 P9 1.524424 1_556
O9 Sn2 2.362833 1_555
O10 P10 1.514529 1_555
O10 Sn1 2.233070 1_555
O11 P9 1.507111 1_555
O11 Sn3 2.254605 1_555
O12 P15 1.513298 1_556
O12 Sn2 2.181111 1_555
O13 P4 1.573785 1_555
O13 P12 1.649817 1_555
O14 P11 1.501458 1_555
O14 Sn0 2.203786 1_555
O15 P8 1.607452 1_555
O15 P5 1.612112 1_555
O16 P3 1.586442 1_555
O16 P2 1.659100 1_555
O17 P5 1.596254 1_555
O17 P2 1.641966 1_555
O18 P2 1.481929 1_554
O19 P8 1.499395 1_555
O19 Sn2 2.203992 1_555
O20 P4 1.519651 1_555
O20 Sn3 2.375369 1_555
O21 P6 1.511300 1_555
O21 Sn1 2.454869 1_555
O22 P10 1.519651 1_555
O22 Sn0 2.375369 1_555
O23 P0 1.589977 1_655
O23 P10 1.604707 1_565
O24 P13 1.520914 1_555
O24 Sn3 2.185251 1_555
O25 P0 1.517063 1_555
O25 Sn2 2.283955 1_555
O26 P0 1.501458 1_555
O26 Sn3 2.203786 1_555
O27 P13 1.511300 1_555
O27 Sn2 2.454869 1_555
O28 P10 1.573785 1_555
O28 P1 1.649817 1_655
O29 P0 1.599176 1_655
O29 P6 1.606541 1_555
O30 P14 1.519316 1_556
O30 Sn0 2.292673 1_555
O31 P15 1.517489 1_555
O31 Sn3 2.428677 1_555
O32 P14 1.607452 1_455
O32 P9 1.612112 1_555
O33 P7 1.481183 1_555
O34 P1 1.481068 1_555
O35 P1 1.481834 1_555
O36 P11 1.589977 1_555
O36 P4 1.604707 1_545
O37 P12 1.481068 1_555
O38 P8 1.585147 1_555
O38 P3 1.597871 1_565
O39 P14 1.499395 1_555
O39 Sn1 2.203992 1_555
O40 P15 1.586442 1_555
O40 P7 1.659100 1_455
O41 P2 1.481183 1_555
O42 P11 1.599176 1_555
O42 P13 1.606541 1_555
O43 P11 1.517063 1_555
O43 Sn1 2.283955 1_555
O44 P5 1.524424 1_554
O44 Sn1 2.362833 1_555
O45 P3 1.517489 1_555
O45 Sn0 2.428677 1_555
O46 P12 1.481834 1_555
O47 P6 1.603274 1_455
O47 P1 1.654450 1_555
