# generated using pymatgen
data_TlP4(W5O17)4
_symmetry_space_group_name_H-M   'P 1'
_cell_length_a   5.41476100
_cell_length_b   6.73437361
_cell_length_c   36.77683255
_cell_angle_alpha   89.75577573
_cell_angle_beta   89.99041249
_cell_angle_gamma   89.85152743
_symmetry_Int_Tables_number   1
_chemical_formula_structural   TlP4(W5O17)4
_chemical_formula_sum   'Tl1 P4 W20 O68'
_cell_volume   1341.05136440
_cell_formula_units_Z   1
loop_
 _symmetry_equiv_pos_site_id
 _symmetry_equiv_pos_as_xyz
  1  'x, y, z'
loop_
 _atom_site_type_symbol
 _atom_site_label
 _atom_site_symmetry_multiplicity
 _atom_site_fract_x
 _atom_site_fract_y
 _atom_site_fract_z
 _atom_site_occupancy
  Tl  Tl0  1  0.02554800  0.74367400  0.75774200  1
  P  P0  1  0.51876500  0.96058600  0.75989900  1
  P  P1  1  0.47749500  0.05439000  0.26079800  1
  P  P2  1  0.99409400  0.43151700  0.69793400  1
  P  P3  1  0.00310300  0.55234900  0.19989300  1
  W  W0  1  0.99929200  0.08068500  0.62800400  1
  W  W1  1  0.00198300  0.90920700  0.13013900  1
  W  W2  1  0.49296300  0.07736800  0.50055400  1
  W  W3  1  0.50719200  0.92100100  0.00120600  1
  W  W4  1  0.50568600  0.74705300  0.66974300  1
  W  W5  1  0.49796000  0.24784400  0.17162800  1
  W  W6  1  0.49559400  0.40798500  0.58528800  1
  W  W7  1  0.50224100  0.58227200  0.08607300  1
  W  W8  1  0.51718600  0.60140700  0.83198500  1
  W  W9  1  0.48344300  0.41001100  0.33082400  1
  W  W10  1  0.00822200  0.58182300  0.96099200  1
  W  W11  1  0.99177300  0.41268700  0.45846000  1
  W  W12  1  0.51042600  0.26117000  0.91633500  1
  W  W13  1  0.48801600  0.74501400  0.41605900  1
  W  W14  1  0.99667000  0.74293000  0.54313400  1
  W  W15  1  0.00581400  0.24593500  0.04520800  1
  W  W16  1  0.00814800  0.91936200  0.87672400  1
  W  W17  1  0.98807100  0.07956000  0.37420700  1
  W  W18  1  0.01310300  0.26075100  0.79055400  1
  W  W19  1  0.98416100  0.74843100  0.28887300  1
  O  O0  1  0.21503300  0.93711100  0.52049800  1
  O  O1  1  0.78053300  0.06513700  0.02222100  1
  O  O2  1  0.49535500  0.25131900  0.54372900  1
  O  O3  1  0.50434000  0.75009500  0.04549400  1
  O  O4  1  0.73649400  0.06749900  0.89276700  1
  O  O5  1  0.26235800  0.93059700  0.39146500  1
  O  O6  1  0.28241500  0.93036200  0.65312400  1
  O  O7  1  0.72905000  0.06671400  0.15359800  1
  O  O8  1  0.74733500  0.42057300  0.80357500  1
  O  O9  1  0.24870800  0.59179100  0.30414100  1
  O  O10  1  0.00350100  0.91447000  0.58849800  1
  O  O11  1  0.99951200  0.08128700  0.09005000  1
  O  O12  1  0.77830600  0.89168700  0.65722200  1
  O  O13  1  0.23246800  0.09151200  0.15644100  1
  O  O14  1  0.23756700  0.10269600  0.89675300  1
  O  O15  1  0.76066900  0.89869200  0.39548500  1
  O  O16  1  0.29613500  0.77778300  0.85296700  1
  O  O17  1  0.71388400  0.23311600  0.35160800  1
  O  O18  1  0.21881800  0.28248300  0.60628400  1
  O  O19  1  0.77120700  0.73432200  0.10893200  1
  O  O20  1  0.72023100  0.90218000  0.52534200  1
  O  O21  1  0.27860800  0.09632800  0.02636200  1
  O  O22  1  0.50107500  0.88589400  0.72056300  1
  O  O23  1  0.49762700  0.11757400  0.22056700  1
  O  O24  1  0.02162600  0.36613000  0.73840800  1
  O  O25  1  0.98162500  0.61781100  0.24002300  1
  O  O26  1  0.00084000  0.24576200  0.67437900  1
  O  O27  1  0.99547800  0.74067000  0.17595900  1
  O  O28  1  0.51806500  0.41701200  0.87292800  1
  O  O29  1  0.48582900  0.58021100  0.37055800  1
  O  O30  1  0.74405600  0.54085000  0.69500600  1
  O  O31  1  0.25111200  0.44394400  0.19489300  1
  O  O32  1  0.73315400  0.73386900  0.97864200  1
  O  O33  1  0.26951400  0.26533200  0.47686700  1
  O  O34  1  0.01524400  0.75066300  0.91676800  1
  O  O35  1  0.98852600  0.24729300  0.41478100  1
  O  O36  1  0.69943100  0.91747000  0.26902100  1
  O  O37  1  0.29447500  0.09132300  0.76882800  1
  O  O38  1  0.50221800  0.59070600  0.62953900  1
  O  O39  1  0.49854800  0.40967400  0.13099900  1
  O  O40  1  0.52051700  0.77452100  0.78447200  1
  O  O41  1  0.48486200  0.24156900  0.28446400  1
  O  O42  1  0.99270500  0.58351000  0.50087200  1
  O  O43  1  0.00701500  0.41478500  0.00299100  1
  O  O44  1  0.77488000  0.56943400  0.56785500  1
  O  O45  1  0.22945400  0.42958200  0.06906900  1
  O  O46  1  0.71574300  0.23937700  0.61101300  1
  O  O47  1  0.27139200  0.76058000  0.11258900  1
  O  O48  1  0.24131700  0.44152300  0.80671300  1
  O  O49  1  0.75176500  0.56817300  0.30687400  1
  O  O50  1  0.21272900  0.57241700  0.69028800  1
  O  O51  1  0.78306200  0.41631700  0.19156800  1
  O  O52  1  0.75796800  0.07864800  0.76510100  1
  O  O53  1  0.23086200  0.94352600  0.26571000  1
  O  O54  1  0.50857600  0.08619300  0.95911500  1
  O  O55  1  0.49082300  0.91043600  0.45832900  1
  O  O56  1  0.76750600  0.23106400  0.48150100  1
  O  O57  1  0.23338200  0.76525700  0.98322900  1
  O  O58  1  0.81039000  0.74225700  0.84880100  1
  O  O59  1  0.21304300  0.26066700  0.34779800  1
  O  O60  1  0.01232300  0.09742400  0.83005200  1
  O  O61  1  0.98410700  0.90846500  0.32950700  1
  O  O62  1  0.78897200  0.40049100  0.93597100  1
  O  O63  1  0.21172700  0.59744400  0.43371900  1
  O  O64  1  0.27831600  0.60603500  0.56238900  1
  O  O65  1  0.73023200  0.40012500  0.06504900  1
  O  O66  1  0.28640500  0.43576600  0.93988400  1
  O  O67  1  0.71350700  0.56246100  0.43813800  1
loop_
_geom_bond_atom_site_label_1
_geom_bond_atom_site_label_2
_geom_bond_distance
_geom_bond_site_symmetry_2
O0 W2 1.922509 1_565
O0 W14 1.949232 1_455
O1 W15 1.924051 1_655
O1 W3 1.935035 1_545
O2 W6 1.860891 1_555
O2 W2 1.977282 1_555
O3 W7 1.868230 1_555
O3 W3 1.990456 1_555
O4 W16 1.871932 1_645
O4 W12 1.987909 1_555
O5 W17 1.897939 1_465
O5 W13 1.963640 1_555
O6 W4 1.828972 1_555
O6 W0 2.052551 1_465
O7 W5 1.868700 1_555
O7 W1 2.013152 1_645
O8 W18 1.858709 1_655
O8 W8 2.032309 1_555
O9 W19 1.862089 1_455
O9 W9 2.014752 1_555
O10 W0 1.837968 1_465
O10 W14 2.033699 1_455
O11 W1 1.871409 1_645
O11 W15 1.983653 1_655
O12 W4 1.828454 1_555
O12 W0 2.049938 1_565
O13 W5 1.870852 1_555
O13 W1 2.004738 1_545
O14 W16 1.904235 1_545
O14 W12 1.963565 1_555
O15 W17 1.900384 1_565
O15 W13 1.955522 1_555
O16 W8 1.854473 1_555
O16 W16 2.025594 1_555
O17 W9 1.882875 1_555
O17 W17 1.987326 1_555
O18 W6 1.886056 1_555
O18 W0 1.973998 1_455
O19 W1 1.890142 1_655
O19 W7 1.972760 1_555
O20 W2 1.928991 1_565
O20 W14 1.950612 1_555
O21 W15 1.917087 1_555
O21 W3 1.945080 1_545
O22 P0 1.536715 1_555
O22 W4 2.093509 1_555
O23 P1 1.541713 1_555
O23 W5 1.998884 1_555
O24 P2 1.557536 1_455
O24 W18 2.042574 1_555
O24 Tl0 2.643133 1_555
O25 P3 1.546363 1_655
O25 W19 2.003769 1_555
O26 P2 1.524999 1_455
O26 W0 2.039843 1_455
O27 P3 1.541137 1_655
O27 W1 2.028038 1_655
O28 W12 1.907218 1_555
O28 W8 1.947660 1_555
O29 W9 1.861089 1_555
O29 W13 2.011967 1_555
O30 P2 1.543035 1_555
O30 W4 2.106566 1_555
O31 P3 1.538232 1_555
O31 W5 2.064643 1_555
O32 W10 1.919797 1_655
O32 W3 1.942776 1_556
O33 W11 1.921355 1_455
O33 W2 1.951435 1_555
O34 W16 1.856477 1_555
O34 W10 1.980899 1_555
O35 W17 1.875352 1_555
O35 W11 1.958755 1_555
O36 P1 1.542020 1_565
O36 W19 2.046973 1_555
O37 P0 1.534515 1_545
O37 W18 2.063948 1_555
O38 W4 1.818933 1_555
O38 W6 2.044806 1_555
O39 W5 1.845674 1_555
O39 W7 2.016198 1_555
O40 P0 1.541807 1_555
O40 W8 2.096547 1_555
O41 P1 1.535477 1_555
O41 W9 2.051874 1_555
O42 W14 1.892922 1_555
O42 W11 1.942074 1_555
O43 W10 1.906939 1_554
O43 W15 1.920576 1_555
O44 W14 1.905730 1_555
O44 W6 1.970377 1_555
O45 W7 1.908881 1_555
O45 W15 1.945095 1_555
O46 W6 1.894614 1_555
O46 W0 1.968754 1_555
O47 W1 1.882574 1_555
O47 W7 1.989257 1_555
O48 W18 1.837503 1_555
O48 W8 2.066837 1_555
O49 W19 1.869803 1_555
O49 W9 2.005197 1_555
O50 P2 1.544145 1_455
O50 W4 2.114720 1_555
O51 P3 1.536466 1_655
O51 W5 2.055418 1_555
O52 P0 1.533973 1_545
O52 W18 2.075502 1_655
O52 Tl0 2.692481 1_645
O53 P1 1.541892 1_565
O53 W19 2.058023 1_455
O54 W3 1.902423 1_546
O54 W12 1.961683 1_555
O55 W13 1.916445 1_555
O55 W2 1.921036 1_565
O56 W11 1.920216 1_555
O56 W2 1.942599 1_555
O57 W10 1.923012 1_555
O57 W3 1.936392 1_556
O58 W16 1.908178 1_655
O58 W8 1.953430 1_555
O59 W9 1.883324 1_555
O59 W17 1.977872 1_455
O60 W18 1.818321 1_555
O60 W16 2.089788 1_545
O61 W19 1.846193 1_555
O61 W17 2.011676 1_565
O62 W12 1.920968 1_555
O62 W10 1.940322 1_655
O63 W13 1.910355 1_555
O63 W11 1.947343 1_455
O64 W14 1.914324 1_455
O64 W6 1.963387 1_555
O65 W7 1.904322 1_555
O65 W15 1.958423 1_655
O66 W12 1.898659 1_555
O66 W10 1.958942 1_555
O67 W13 1.909331 1_555
O67 W11 1.957618 1_555
