# generated using pymatgen
data_SrTi3Al8O19
_symmetry_space_group_name_H-M   'P 1'
_cell_length_a   12.76085970
_cell_length_b   12.76085970
_cell_length_c   9.86034616
_cell_angle_alpha   82.34930268
_cell_angle_beta   82.34930268
_cell_angle_gamma   51.95482767
_symmetry_Int_Tables_number   1
_chemical_formula_structural   SrTi3Al8O19
_chemical_formula_sum   'Sr4 Ti12 Al32 O76'
_cell_volume   1250.54945998
_cell_formula_units_Z   4
loop_
 _symmetry_equiv_pos_site_id
 _symmetry_equiv_pos_as_xyz
  1  'x, y, z'
loop_
 _atom_site_type_symbol
 _atom_site_label
 _atom_site_symmetry_multiplicity
 _atom_site_fract_x
 _atom_site_fract_y
 _atom_site_fract_z
 _atom_site_occupancy
  Sr  Sr0  1  0.42062700  0.68680800  0.81286800  1
  Sr  Sr1  1  0.31319200  0.57937300  0.18713200  1
  Sr  Sr2  1  0.57652600  0.31390500  0.68865200  1
  Sr  Sr3  1  0.68609500  0.42347400  0.31134800  1
  Ti  Ti0  1  0.06819800  0.30984300  0.62024900  1
  Ti  Ti1  1  0.69015700  0.93180200  0.37975100  1
  Ti  Ti2  1  0.93451800  0.69046900  0.88261400  1
  Ti  Ti3  1  0.30953100  0.06548200  0.11738600  1
  Ti  Ti4  1  0.27974300  0.51734800  0.88007500  1
  Ti  Ti5  1  0.48265200  0.72025700  0.11992500  1
  Ti  Ti6  1  0.72407600  0.47760300  0.61333800  1
  Ti  Ti7  1  0.52239700  0.27592400  0.38666200  1
  Ti  Ti8  1  0.39237000  0.60763000  0.50000000  1
  Ti  Ti9  1  0.60795700  0.39204300  0.00000000  1
  Ti  Ti10  1  0.70001100  0.68865000  0.83806800  1
  Ti  Ti11  1  0.31135000  0.29998900  0.16193200  1
  Al  Al0  1  0.23423000  0.97119500  0.63703700  1
  Al  Al1  1  0.02880500  0.76577000  0.36296300  1
  Al  Al2  1  0.76563600  0.02866900  0.86301500  1
  Al  Al3  1  0.97133100  0.23436400  0.13698500  1
  Al  Al4  1  0.15541800  0.63069200  0.61512700  1
  Al  Al5  1  0.36930800  0.84458200  0.38487300  1
  Al  Al6  1  0.84687400  0.36312100  0.88275300  1
  Al  Al7  1  0.63687900  0.15312600  0.11724700  1
  Al  Al8  1  0.88456500  0.90993200  0.61632900  1
  Al  Al9  1  0.09006800  0.11543500  0.38367100  1
  Al  Al10  1  0.11538700  0.08969700  0.88339800  1
  Al  Al11  1  0.91030300  0.88461300  0.11660200  1
  Al  Al12  1  0.43850600  0.17446200  0.90188500  1
  Al  Al13  1  0.82553800  0.56149400  0.09811500  1
  Al  Al14  1  0.55921100  0.82820300  0.59013800  1
  Al  Al15  1  0.17179700  0.44078900  0.40986200  1
  Al  Al16  1  0.09608900  0.84834500  0.83488300  1
  Al  Al17  1  0.15165500  0.90391100  0.16511700  1
  Al  Al18  1  0.90459200  0.15022600  0.66516800  1
  Al  Al19  1  0.84977400  0.09540800  0.33483200  1
  Al  Al20  1  0.12224900  0.87775100  0.50000000  1
  Al  Al21  1  0.87815100  0.12184900  0.00000000  1
  Al  Al22  1  0.34992100  0.10392700  0.43445700  1
  Al  Al23  1  0.89607300  0.65007900  0.56554300  1
  Al  Al24  1  0.64842900  0.89674200  0.07040600  1
  Al  Al25  1  0.10325800  0.35157100  0.92959400  1
  Al  Al26  1  0.56669500  0.04477200  0.65642300  1
  Al  Al27  1  0.95522800  0.43330500  0.34357700  1
  Al  Al28  1  0.43096100  0.95961900  0.84062000  1
  Al  Al29  1  0.04038100  0.56903900  0.15938000  1
  Al  Al30  1  0.29959800  0.30866000  0.65987000  1
  Al  Al31  1  0.69134000  0.70040200  0.34013000  1
  O  O0  1  0.13600800  0.35466100  0.74951700  1
  O  O1  1  0.64533900  0.86399200  0.25048300  1
  O  O2  1  0.86666000  0.64425900  0.74697000  1
  O  O3  1  0.35574100  0.13334000  0.25303000  1
  O  O4  1  0.70786700  0.18802800  0.94634400  1
  O  O5  1  0.81197200  0.29213300  0.05365600  1
  O  O6  1  0.29258100  0.81168600  0.55387000  1
  O  O7  1  0.18831400  0.70741900  0.44613000  1
  O  O8  1  0.51836200  0.77694700  0.94207800  1
  O  O9  1  0.22305300  0.48163800  0.05792200  1
  O  O10  1  0.47846700  0.22601700  0.55889900  1
  O  O11  1  0.77398300  0.52153300  0.44110100  1
  O  O12  1  0.39760300  0.12533800  0.75533100  1
  O  O13  1  0.87466200  0.60239700  0.24466900  1
  O  O14  1  0.60069300  0.87790700  0.74190300  1
  O  O15  1  0.12209300  0.39930700  0.25809700  1
  O  O16  1  0.21663800  0.69155700  0.91395400  1
  O  O17  1  0.30844300  0.78336200  0.08604600  1
  O  O18  1  0.78424700  0.30685600  0.58471600  1
  O  O19  1  0.69314400  0.21575300  0.41528400  1
  O  O20  1  0.14637000  0.13964600  0.70252200  1
  O  O21  1  0.86035400  0.85363000  0.29747800  1
  O  O22  1  0.85372700  0.85990500  0.79760700  1
  O  O23  1  0.14009500  0.14627300  0.20239300  1
  O  O24  1  0.06797600  0.82743700  0.66826500  1
  O  O25  1  0.17256300  0.93202400  0.33173500  1
  O  O26  1  0.93135800  0.17337500  0.83118600  1
  O  O27  1  0.82662500  0.06864200  0.16881400  1
  O  O28  1  0.25932700  0.24613600  0.01022900  1
  O  O29  1  0.75386400  0.74067300  0.98977100  1
  O  O30  1  0.73967500  0.75176600  0.48663000  1
  O  O31  1  0.24823400  0.26032500  0.51337000  1
  O  O32  1  0.94363600  0.95166800  0.94274100  1
  O  O33  1  0.04833200  0.05636400  0.05725900  1
  O  O34  1  0.05651800  0.04823900  0.55713700  1
  O  O35  1  0.95176100  0.94348200  0.44286300  1
  O  O36  1  0.68038800  0.42860400  0.83054300  1
  O  O37  1  0.57139600  0.31961200  0.16945700  1
  O  O38  1  0.31978200  0.57174200  0.67012000  1
  O  O39  1  0.42825800  0.68021800  0.32988000  1
  O  O40  1  0.39679400  0.90120800  0.69729400  1
  O  O41  1  0.09879200  0.60320600  0.30270600  1
  O  O42  1  0.60381000  0.09879200  0.80179100  1
  O  O43  1  0.90120800  0.39619000  0.19820900  1
  O  O44  1  0.27378800  0.03313900  0.94799500  1
  O  O45  1  0.96686100  0.72621200  0.05200500  1
  O  O46  1  0.72610000  0.96625000  0.55150700  1
  O  O47  1  0.03375000  0.27390000  0.44849300  1
  O  O48  1  0.64493400  0.65549000  0.69280200  1
  O  O49  1  0.34451000  0.35506600  0.30719800  1
  O  O50  1  0.35305600  0.34535100  0.80527800  1
  O  O51  1  0.65464900  0.64694400  0.19472200  1
  O  O52  1  0.17247000  0.93044700  0.80544400  1
  O  O53  1  0.06955300  0.82753000  0.19455600  1
  O  O54  1  0.82722900  0.06965900  0.69467500  1
  O  O55  1  0.93034100  0.17277100  0.30532500  1
  O  O56  1  0.45463700  0.45721400  0.91490300  1
  O  O57  1  0.54278600  0.54536300  0.08509700  1
  O  O58  1  0.54559700  0.54229000  0.58543400  1
  O  O59  1  0.45771000  0.45440300  0.41456600  1
  O  O60  1  0.00110400  0.49019800  0.49364500  1
  O  O61  1  0.50980200  0.99889600  0.50635500  1
  O  O62  1  0.99710200  0.51027200  0.00608100  1
  O  O63  1  0.48972800  0.00289800  0.99391900  1
  O  O64  1  0.21723900  0.47122300  0.55757900  1
  O  O65  1  0.52877700  0.78276100  0.44242100  1
  O  O66  1  0.78349600  0.52632700  0.94513200  1
  O  O67  1  0.47367300  0.21650400  0.05486800  1
  O  O68  1  0.10478400  0.60392100  0.79587400  1
  O  O69  1  0.39607900  0.89521600  0.20412600  1
  O  O70  1  0.89430800  0.39735300  0.70413300  1
  O  O71  1  0.60264700  0.10569200  0.29586700  1
  O  O72  1  0.02170300  0.27153100  0.95269200  1
  O  O73  1  0.72846900  0.97829700  0.04730800  1
  O  O74  1  0.97780400  0.72905000  0.54618700  1
  O  O75  1  0.27095000  0.02219600  0.45381300  1
loop_
_geom_bond_atom_site_label_1
_geom_bond_atom_site_label_2
_geom_bond_distance
_geom_bond_site_symmetry_2
Al0 O40 1.832307 1_555
Al0 O20 1.871077 1_565
Al0 O52 1.890942 1_555
Al0 O75 1.935075 1_565
Al0 O6 1.945207 1_555
Al0 O34 2.061899 1_565
Al1 O41 1.832307 1_555
Al1 O21 1.871077 1_455
Al1 O53 1.890942 1_555
Al1 O74 1.935075 1_455
Al1 O7 1.945207 1_555
Al1 O35 2.061899 1_455
Al2 O42 1.827579 1_555
Al2 O22 1.873601 1_545
Al2 O54 1.890706 1_555
Al2 O73 1.943083 1_546
Al2 O4 1.946737 1_555
Al2 O32 2.064391 1_545
Al3 O43 1.827579 1_555
Al3 O23 1.873601 1_655
Al3 O55 1.890706 1_555
Al3 O72 1.943083 1_654
Al3 O5 1.946737 1_555
Al3 O33 2.064391 1_655
Al4 O64 1.815205 1_555
Al4 O38 1.873126 1_555
Al4 O68 1.874529 1_555
Al4 O7 1.948732 1_555
Al4 O74 1.962448 1_455
Al4 O24 2.136476 1_555
Al5 O65 1.815205 1_555
Al5 O39 1.873126 1_555
Al5 O69 1.874529 1_555
Al5 O6 1.948732 1_555
Al5 O75 1.962448 1_565
Al5 O25 2.136476 1_555
Al6 O36 1.861542 1_555
Al6 O70 1.869869 1_555
Al6 O66 1.871467 1_555
Al6 O5 1.936417 1_556
Al6 O72 1.949351 1_655
Al6 O26 2.061064 1_555
Al7 O37 1.861542 1_555
Al7 O71 1.869869 1_555
Al7 O67 1.871467 1_555
Al7 O4 1.936417 1_554
Al7 O73 1.949351 1_545
Al7 O27 2.061064 1_555
Al8 O46 1.855995 1_555
Al8 O22 1.891015 1_555
Al8 O35 1.926429 1_555
Al8 O54 1.928009 1_565
Al8 O24 1.996761 1_655
Al8 O74 2.010660 1_555
Al9 O47 1.855995 1_555
Al9 O23 1.891015 1_555
Al9 O34 1.926429 1_555
Al9 O55 1.928009 1_455
Al9 O25 1.996761 1_545
Al9 O75 2.010660 1_555
Al10 O44 1.853284 1_555
Al10 O20 1.887757 1_555
Al10 O52 1.921827 1_545
Al10 O33 1.927668 1_556
Al10 O26 2.001213 1_455
Al10 O72 2.016349 1_555
Al11 O45 1.853284 1_555
Al11 O21 1.887757 1_555
Al11 O53 1.921827 1_655
Al11 O32 1.927668 1_554
Al11 O27 2.001213 1_565
Al11 O73 2.016349 1_555
Al12 O67 1.859343 1_556
Al12 O42 1.882811 1_555
Al12 O12 1.897094 1_555
Al12 O50 1.909036 1_555
Al12 O63 1.977105 1_555
Al12 O28 2.058628 1_556
Al13 O66 1.859343 1_554
Al13 O43 1.882811 1_555
Al13 O13 1.897094 1_555
Al13 O51 1.909036 1_555
Al13 O62 1.977105 1_555
Al13 O29 2.058628 1_554
Al14 O65 1.806014 1_555
Al14 O40 1.891826 1_555
Al14 O61 1.947136 1_555
Al14 O14 1.949194 1_555
Al14 O48 1.951414 1_555
Al14 O30 2.041309 1_555
Al15 O64 1.806014 1_555
Al15 O41 1.891826 1_555
Al15 O60 1.947136 1_555
Al15 O15 1.949194 1_555
Al15 O49 1.951414 1_555
Al15 O31 2.041309 1_555
Al16 O16 1.757191 1_555
Al16 O52 1.798411 1_555
Al16 O24 1.814019 1_555
Al16 O32 1.820737 1_455
Al17 O17 1.757191 1_555
Al17 O53 1.798411 1_555
Al17 O25 1.814019 1_555
Al17 O33 1.820737 1_565
Al18 O18 1.761110 1_555
Al18 O54 1.791963 1_555
Al18 O26 1.812642 1_555
Al18 O34 1.815594 1_655
Al19 O19 1.761110 1_555
Al19 O55 1.791963 1_555
Al19 O27 1.812642 1_555
Al19 O35 1.815594 1_545
Al20 O24 1.898193 1_555
Al20 O25 1.898193 1_555
Al20 O6 1.909694 1_555
Al20 O7 1.909694 1_555
Al20 O34 1.924940 1_565
Al20 O35 1.924940 1_455
Al21 O26 1.903156 1_554
Al21 O27 1.903156 1_555
Al21 O5 1.907928 1_555
Al21 O4 1.907928 1_554
Al21 O33 1.922817 1_655
Al21 O32 1.922817 1_544
Al22 O3 1.779570 1_555
Al22 O61 1.795316 1_545
Al22 O31 1.795825 1_555
Al22 O75 1.825094 1_555
Al23 O2 1.779570 1_555
Al23 O60 1.795316 1_655
Al23 O30 1.795825 1_555
Al23 O74 1.825094 1_555
Al24 O1 1.770063 1_555
Al24 O29 1.800784 1_554
Al24 O63 1.805105 1_564
Al24 O73 1.833926 1_555
Al25 O0 1.770063 1_555
Al25 O28 1.800784 1_556
Al25 O62 1.805105 1_456
Al25 O72 1.833926 1_555
Al26 O46 1.848084 1_545
Al26 O42 1.897460 1_555
Al26 O12 1.906935 1_555
Al26 O14 1.978275 1_545
Al26 O10 2.007004 1_555
Al26 O61 2.024829 1_545
Al27 O47 1.848084 1_655
Al27 O43 1.897460 1_555
Al27 O13 1.906935 1_555
Al27 O15 1.978275 1_655
Al27 O11 2.007004 1_555
Al27 O60 2.024829 1_655
Al28 O44 1.844887 1_565
Al28 O40 1.894216 1_555
Al28 O14 1.910805 1_555
Al28 O12 1.967922 1_565
Al28 O8 2.037208 1_555
Al28 O63 2.046181 1_565
Al29 O45 1.844887 1_455
Al29 O41 1.894216 1_555
Al29 O15 1.910805 1_555
Al29 O13 1.967922 1_455
Al29 O9 2.037208 1_555
Al29 O62 2.046181 1_455
Al30 O64 1.860940 1_555
Al30 O50 1.890274 1_555
Al30 O0 1.902690 1_555
Al30 O31 1.970887 1_555
Al30 O10 2.005204 1_555
Al30 O12 2.010894 1_555
Al31 O65 1.860940 1_555
Al31 O51 1.890274 1_555
Al31 O1 1.902690 1_555
Al31 O30 1.970887 1_555
Al31 O11 2.005204 1_555
Al31 O13 2.010894 1_555
O0 Ti0 1.948921 1_555
O1 Ti1 1.948921 1_555
O2 Ti10 1.947350 1_555
O2 Ti2 2.008533 1_555
O3 Ti11 1.947350 1_555
O3 Ti3 2.008533 1_555
O4 Ti9 2.186125 1_556
O4 Sr2 2.928217 1_555
O5 Ti9 2.186125 1_555
O5 Sr3 2.928217 1_555
O6 Ti8 2.187542 1_555
O6 Sr0 2.923925 1_555
O7 Ti8 2.187542 1_555
O7 Sr1 2.923925 1_555
O8 Ti5 1.913626 1_556
O8 Ti10 2.037146 1_555
O8 Sr0 2.661441 1_555
O9 Ti4 1.913626 1_554
O9 Ti11 2.037146 1_555
O9 Sr1 2.661441 1_555
O10 Ti7 1.871542 1_555
O10 Sr2 2.645489 1_555
O11 Ti6 1.871542 1_555
O11 Sr3 2.645489 1_555
O14 Ti10 2.067741 1_555
O15 Ti11 2.067741 1_555
O16 Ti4 1.903064 1_555
O16 Sr0 2.627539 1_555
O16 Sr1 2.916506 1_556
O17 Ti5 1.903064 1_555
O17 Sr1 2.627539 1_555
O17 Sr0 2.916506 1_554
O18 Ti6 1.860286 1_555
O18 Sr2 2.663068 1_555
O18 Sr3 2.929602 1_555
O19 Ti7 1.860286 1_555
O19 Sr3 2.663068 1_555
O19 Sr2 2.929602 1_555
O20 Ti0 1.856378 1_555
O21 Ti1 1.856378 1_555
O22 Ti2 1.854826 1_555
O23 Ti3 1.854826 1_555
O28 Ti11 2.061782 1_555
O28 Ti3 2.133674 1_555
O29 Ti10 2.061782 1_555
O29 Ti2 2.133674 1_555
O30 Ti1 2.128692 1_555
O31 Ti0 2.128692 1_555
O36 Ti9 1.943350 1_556
O36 Ti6 2.245857 1_555
O36 Sr0 2.900605 1_555
O36 Sr2 3.047359 1_555
O37 Ti9 1.943350 1_555
O37 Ti7 2.245857 1_555
O37 Sr1 2.900605 1_555
O37 Sr3 3.047359 1_555
O38 Ti8 1.945799 1_555
O38 Ti4 2.191245 1_555
O38 Sr2 2.881944 1_555
O38 Sr0 3.025699 1_555
O39 Ti8 1.945799 1_555
O39 Ti5 2.191245 1_555
O39 Sr3 2.881944 1_555
O39 Sr1 3.025699 1_555
O40 Sr0 2.667020 1_555
O41 Sr1 2.667020 1_555
O42 Sr2 2.647822 1_555
O43 Sr3 2.647822 1_555
O44 Ti3 1.945907 1_556
O45 Ti2 1.945907 1_554
O46 Ti1 1.981255 1_555
O47 Ti0 1.981255 1_555
O48 Ti10 1.876360 1_555
O48 Ti6 2.055227 1_555
O48 Sr0 2.751015 1_555
O49 Ti11 1.876360 1_555
O49 Ti7 2.055227 1_555
O49 Sr1 2.751015 1_555
O50 Ti4 1.988182 1_555
O50 Sr2 2.730335 1_555
O51 Ti5 1.988182 1_555
O51 Sr3 2.730335 1_555
O52 Sr0 2.750547 1_555
O53 Sr1 2.750547 1_555
O54 Sr2 2.768367 1_555
O55 Sr3 2.768367 1_555
O56 Ti9 1.862626 1_556
O56 Ti4 1.926324 1_555
O56 Sr2 2.719739 1_555
O56 Sr0 2.747465 1_555
O56 Sr1 3.041265 1_556
O57 Ti9 1.862626 1_555
O57 Ti5 1.926324 1_555
O57 Sr3 2.719739 1_555
O57 Sr1 2.747465 1_555
O57 Sr0 3.041265 1_554
O58 Ti8 1.862841 1_555
O58 Ti6 1.932209 1_555
O58 Sr0 2.738124 1_555
O58 Sr2 2.754031 1_555
O58 Sr3 3.044267 1_555
O59 Ti8 1.862841 1_555
O59 Ti7 1.932209 1_555
O59 Sr1 2.738124 1_555
O59 Sr3 2.754031 1_555
O59 Sr2 3.044267 1_555
O60 Ti0 2.163126 1_555
O61 Ti1 2.163126 1_555
O62 Ti2 2.158118 1_554
O63 Ti3 2.158118 1_556
O66 Ti10 1.880777 1_555
O67 Ti11 1.880777 1_555
O68 Ti2 1.863083 1_455
O68 Ti4 2.025744 1_555
O69 Ti3 1.863083 1_565
O69 Ti5 2.025744 1_555
O70 Ti0 1.886283 1_655
O70 Ti6 2.025071 1_555
O71 Ti1 1.886283 1_545
O71 Ti7 2.025071 1_555
