# generated using pymatgen
data_Co9Te5(PbO5)6
_symmetry_space_group_name_H-M   'P 1'
_cell_length_a   10.54788220
_cell_length_b   10.54788220
_cell_length_c   13.82225000
_cell_angle_alpha   90.00000000
_cell_angle_beta   90.00000000
_cell_angle_gamma   120.00000126
_symmetry_Int_Tables_number   1
_chemical_formula_structural   Co9Te5(PbO5)6
_chemical_formula_sum   'Co18 Te10 Pb12 O60'
_cell_volume   1331.80276354
_cell_formula_units_Z   2
loop_
 _symmetry_equiv_pos_site_id
 _symmetry_equiv_pos_as_xyz
  1  'x, y, z'
loop_
 _atom_site_type_symbol
 _atom_site_label
 _atom_site_symmetry_multiplicity
 _atom_site_fract_x
 _atom_site_fract_y
 _atom_site_fract_z
 _atom_site_occupancy
  Co  Co0  1  0.33333300  0.66666700  0.38088800  1
  Co  Co1  1  0.66666700  0.33333300  0.61911200  1
  Co  Co2  1  0.66666700  0.33333300  0.88088800  1
  Co  Co3  1  0.33333300  0.66666700  0.11911200  1
  Co  Co4  1  0.16925500  0.83074500  0.75000000  1
  Co  Co5  1  0.16925500  0.33850900  0.75000000  1
  Co  Co6  1  0.66149100  0.83074500  0.75000000  1
  Co  Co7  1  0.83074500  0.16925500  0.25000000  1
  Co  Co8  1  0.33850900  0.16925500  0.25000000  1
  Co  Co9  1  0.83074500  0.66149100  0.25000000  1
  Co  Co10  1  0.00000000  0.00000000  0.25000000  1
  Co  Co11  1  0.00000000  0.00000000  0.75000000  1
  Co  Co12  1  0.00781300  0.50390700  0.75000000  1
  Co  Co13  1  0.49609300  0.50390700  0.75000000  1
  Co  Co14  1  0.49609300  0.99218700  0.75000000  1
  Co  Co15  1  0.50390700  0.00781300  0.25000000  1
  Co  Co16  1  0.50390700  0.49609300  0.25000000  1
  Co  Co17  1  0.99218700  0.49609300  0.25000000  1
  Te  Te0  1  0.33333300  0.66666700  0.59669600  1
  Te  Te1  1  0.66666700  0.33333300  0.40330400  1
  Te  Te2  1  0.66666700  0.33333300  0.09669600  1
  Te  Te3  1  0.33333300  0.66666700  0.90330400  1
  Te  Te4  1  0.16671600  0.83328400  0.25000000  1
  Te  Te5  1  0.16671600  0.33343200  0.25000000  1
  Te  Te6  1  0.66656800  0.83328400  0.25000000  1
  Te  Te7  1  0.83328400  0.16671600  0.75000000  1
  Te  Te8  1  0.33343200  0.16671600  0.75000000  1
  Te  Te9  1  0.83328400  0.66656800  0.75000000  1
  Pb  Pb0  1  0.26667200  0.00000000  0.50000000  1
  Pb  Pb1  1  0.00000000  0.26667200  0.50000000  1
  Pb  Pb2  1  0.73332800  0.73332800  0.50000000  1
  Pb  Pb3  1  0.73332800  0.00000000  0.00000000  1
  Pb  Pb4  1  0.00000000  0.73332800  0.00000000  1
  Pb  Pb5  1  0.26667200  0.26667200  0.00000000  1
  Pb  Pb6  1  0.38940200  0.38940200  0.50000000  1
  Pb  Pb7  1  0.61059800  0.00000000  0.50000000  1
  Pb  Pb8  1  0.00000000  0.61059800  0.50000000  1
  Pb  Pb9  1  0.61059800  0.61059800  0.00000000  1
  Pb  Pb10  1  0.38940200  0.00000000  0.00000000  1
  Pb  Pb11  1  0.00000000  0.38940200  0.00000000  1
  O  O0  1  0.33482600  0.00982000  0.67173400  1
  O  O1  1  0.99018000  0.32500600  0.67173400  1
  O  O2  1  0.67499400  0.66517400  0.67173400  1
  O  O3  1  0.00982000  0.33482600  0.32826600  1
  O  O4  1  0.32500600  0.99018000  0.32826600  1
  O  O5  1  0.66517400  0.67499400  0.32826600  1
  O  O6  1  0.66517400  0.99018000  0.17173400  1
  O  O7  1  0.00982000  0.67499400  0.17173400  1
  O  O8  1  0.32500600  0.33482600  0.17173400  1
  O  O9  1  0.99018000  0.66517400  0.82826600  1
  O  O10  1  0.67499400  0.00982000  0.82826600  1
  O  O11  1  0.33482600  0.32500600  0.82826600  1
  O  O12  1  0.17063200  0.66907100  0.66200000  1
  O  O13  1  0.33092900  0.50156100  0.66200000  1
  O  O14  1  0.49843900  0.82936800  0.66200000  1
  O  O15  1  0.66907100  0.17063200  0.33800000  1
  O  O16  1  0.50156100  0.33092900  0.33800000  1
  O  O17  1  0.82936800  0.49843900  0.33800000  1
  O  O18  1  0.82936800  0.33092900  0.16200000  1
  O  O19  1  0.66907100  0.49843900  0.16200000  1
  O  O20  1  0.50156100  0.17063200  0.16200000  1
  O  O21  1  0.33092900  0.82936800  0.83800000  1
  O  O22  1  0.49843900  0.66907100  0.83800000  1
  O  O23  1  0.17063200  0.50156100  0.83800000  1
  O  O24  1  0.16898200  0.98955600  0.17228000  1
  O  O25  1  0.01044400  0.17942600  0.17228000  1
  O  O26  1  0.82057400  0.83101800  0.17228000  1
  O  O27  1  0.98955600  0.16898200  0.82772000  1
  O  O28  1  0.17942600  0.01044400  0.82772000  1
  O  O29  1  0.83101800  0.82057400  0.82772000  1
  O  O30  1  0.83101800  0.01044400  0.67228000  1
  O  O31  1  0.98955600  0.82057400  0.67228000  1
  O  O32  1  0.17942600  0.16898200  0.67228000  1
  O  O33  1  0.01044400  0.83101800  0.32772000  1
  O  O34  1  0.82057400  0.98955600  0.32772000  1
  O  O35  1  0.16898200  0.17942600  0.32772000  1
  O  O36  1  0.32634300  0.84337800  0.17046000  1
  O  O37  1  0.15662200  0.48296500  0.17046000  1
  O  O38  1  0.51703500  0.67365700  0.17046000  1
  O  O39  1  0.84337800  0.32634300  0.82954000  1
  O  O40  1  0.48296500  0.15662200  0.82954000  1
  O  O41  1  0.67365700  0.51703500  0.82954000  1
  O  O42  1  0.67365700  0.15662200  0.67046000  1
  O  O43  1  0.84337800  0.51703500  0.67046000  1
  O  O44  1  0.48296500  0.32634300  0.67046000  1
  O  O45  1  0.15662200  0.67365700  0.32954000  1
  O  O46  1  0.51703500  0.84337800  0.32954000  1
  O  O47  1  0.32634300  0.48296500  0.32954000  1
  O  O48  1  0.34736000  0.82044200  0.50253900  1
  O  O49  1  0.17955800  0.52691800  0.50253900  1
  O  O50  1  0.47308200  0.65264000  0.50253900  1
  O  O51  1  0.82044200  0.34736000  0.49746100  1
  O  O52  1  0.52691800  0.17955800  0.49746100  1
  O  O53  1  0.65264000  0.47308200  0.49746100  1
  O  O54  1  0.65264000  0.17955800  0.00253900  1
  O  O55  1  0.82044200  0.47308200  0.00253900  1
  O  O56  1  0.52691800  0.34736000  0.00253900  1
  O  O57  1  0.17955800  0.65264000  0.99746100  1
  O  O58  1  0.47308200  0.82044200  0.99746100  1
  O  O59  1  0.34736000  0.52691800  0.99746100  1
loop_
_geom_bond_atom_site_label_1
_geom_bond_atom_site_label_2
_geom_bond_distance
_geom_bond_site_symmetry_2
Co0 O45 2.029981 1_555
Co0 O46 2.029986 1_555
Co0 O47 2.029991 1_555
Co0 O48 2.289149 1_555
Co0 O49 2.289152 1_555
Co0 O50 2.289156 1_555
Co1 O42 2.029981 1_555
Co1 O43 2.029986 1_555
Co1 O44 2.029991 1_555
Co1 O51 2.289149 1_555
Co1 O52 2.289152 1_555
Co1 O53 2.289156 1_555
Co2 O39 2.029981 1_555
Co2 O40 2.029986 1_555
Co2 O41 2.029991 1_555
Co2 O54 2.289149 1_556
Co2 O55 2.289152 1_556
Co2 O56 2.289156 1_556
Co3 O36 2.029981 1_555
Co3 O37 2.029986 1_555
Co3 O38 2.029991 1_555
Co3 O57 2.289149 1_554
Co3 O58 2.289152 1_554
Co3 O59 2.289156 1_554
Co4 O21 2.100623 1_555
Co4 O12 2.100623 1_555
Co4 O9 2.118811 1_455
Co4 O0 2.118811 1_565
Co4 O31 2.134225 1_455
Co4 O28 2.134225 1_565
Co5 O13 2.100627 1_555
Co5 O23 2.100632 1_555
Co5 O11 2.118806 1_555
Co5 O1 2.118815 1_455
Co5 O32 2.134216 1_555
Co5 O27 2.134220 1_455
Co6 O22 2.100627 1_555
Co6 O14 2.100632 1_555
Co6 O2 2.118806 1_555
Co6 O10 2.118815 1_565
Co6 O29 2.134216 1_555
Co6 O30 2.134220 1_565
Co7 O18 2.100623 1_555
Co7 O15 2.100623 1_555
Co7 O3 2.118811 1_655
Co7 O6 2.118811 1_545
Co7 O34 2.134225 1_545
Co7 O25 2.134225 1_655
Co8 O16 2.100627 1_555
Co8 O20 2.100632 1_555
Co8 O8 2.118806 1_555
Co8 O4 2.118815 1_545
Co8 O35 2.134216 1_555
Co8 O24 2.134220 1_545
Co9 O19 2.100627 1_555
Co9 O17 2.100632 1_555
Co9 O5 2.118806 1_555
Co9 O7 2.118815 1_655
Co9 O26 2.134216 1_555
Co9 O33 2.134220 1_655
Co10 O35 2.130608 1_555
Co10 O26 2.130608 1_445
Co10 O25 2.130608 1_555
Co10 O34 2.130608 1_445
Co10 O24 2.130608 1_545
Co10 O33 2.130608 1_545
Co11 O32 2.130608 1_555
Co11 O29 2.130608 1_445
Co11 O28 2.130608 1_555
Co11 O31 2.130608 1_445
Co11 O27 2.130608 1_455
Co11 O30 2.130608 1_455
Co12 O9 2.101136 1_455
Co12 O1 2.101145 1_455
Co12 O12 2.114726 1_555
Co12 O23 2.114730 1_555
Co12 O43 2.115741 1_455
Co12 O39 2.115746 1_455
Co13 O11 2.101141 1_555
Co13 O2 2.101141 1_555
Co13 O13 2.114722 1_555
Co13 O22 2.114722 1_555
Co13 O44 2.115750 1_555
Co13 O41 2.115750 1_555
Co14 O0 2.101136 1_565
Co14 O10 2.101145 1_565
Co14 O21 2.114726 1_555
Co14 O14 2.114730 1_555
Co14 O40 2.115741 1_565
Co14 O42 2.115746 1_565
Co15 O6 2.101136 1_545
Co15 O4 2.101145 1_545
Co15 O15 2.114726 1_555
Co15 O20 2.114730 1_555
Co15 O46 2.115741 1_545
Co15 O36 2.115746 1_545
Co16 O5 2.101141 1_555
Co16 O8 2.101141 1_555
Co16 O16 2.114722 1_555
Co16 O19 2.114722 1_555
Co16 O47 2.115750 1_555
Co16 O38 2.115750 1_555
Co17 O3 2.101136 1_655
Co17 O7 2.101145 1_655
Co17 O18 2.114726 1_555
Co17 O17 2.114730 1_555
Co17 O37 2.115741 1_655
Co17 O45 2.115746 1_655
O0 Te8 1.983338 1_555
O0 Pb0 2.467336 1_555
O1 Te7 1.983338 1_555
O1 Pb1 2.467336 1_655
O2 Te9 1.983338 1_555
O2 Pb2 2.467336 1_555
O3 Te5 1.983338 1_555
O3 Pb1 2.467336 1_555
O4 Te4 1.983338 1_555
O4 Pb0 2.467336 1_565
O5 Te6 1.983338 1_555
O5 Pb2 2.467336 1_555
O6 Te6 1.983338 1_555
O6 Pb3 2.467336 1_565
O7 Te4 1.983338 1_555
O7 Pb4 2.467336 1_555
O8 Te5 1.983338 1_555
O8 Pb5 2.467336 1_555
O9 Te9 1.983338 1_555
O9 Pb4 2.467336 1_656
O10 Te7 1.983338 1_555
O10 Pb3 2.467336 1_556
O11 Te8 1.983338 1_555
O11 Pb5 2.467336 1_556
O12 Te0 1.950412 1_555
O12 Pb8 2.742933 1_555
O13 Te0 1.950422 1_555
O13 Pb6 2.742933 1_555
O14 Te0 1.950417 1_555
O14 Pb7 2.742933 1_565
O15 Te1 1.950412 1_555
O15 Pb7 2.742933 1_555
O16 Te1 1.950422 1_555
O16 Pb6 2.742933 1_555
O17 Te1 1.950417 1_555
O17 Pb8 2.742933 1_655
O18 Te2 1.950412 1_555
O18 Pb11 2.742933 1_655
O19 Te2 1.950422 1_555
O19 Pb9 2.742933 1_555
O20 Te2 1.950417 1_555
O20 Pb10 2.742933 1_555
O21 Te3 1.950412 1_555
O21 Pb10 2.742933 1_566
O22 Te3 1.950422 1_555
O22 Pb9 2.742933 1_556
O23 Te3 1.950417 1_555
O23 Pb11 2.742933 1_556
O24 Te4 1.957611 1_555
O25 Te5 1.957611 1_555
O26 Te6 1.957611 1_555
O27 Te7 1.957611 1_555
O28 Te8 1.957611 1_555
O29 Te9 1.957611 1_555
O30 Te7 1.957611 1_555
O31 Te9 1.957611 1_555
O32 Te8 1.957611 1_555
O33 Te4 1.957611 1_555
O34 Te6 1.957611 1_555
O35 Te5 1.957611 1_555
O36 Te4 1.968688 1_555
O36 Pb10 2.761192 1_565
O37 Te5 1.968688 1_555
O37 Pb11 2.761192 1_555
O38 Te6 1.968688 1_555
O38 Pb9 2.761192 1_555
O39 Te7 1.968688 1_555
O39 Pb11 2.761192 1_656
O40 Te8 1.968688 1_555
O40 Pb10 2.761192 1_556
O41 Te9 1.968688 1_555
O41 Pb9 2.761192 1_556
O42 Te7 1.968688 1_555
O42 Pb7 2.761192 1_555
O43 Te9 1.968688 1_555
O43 Pb8 2.761192 1_655
O44 Te8 1.968688 1_555
O44 Pb6 2.761192 1_555
O45 Te4 1.968688 1_555
O45 Pb8 2.761192 1_555
O46 Te6 1.968688 1_555
O46 Pb7 2.761192 1_565
O47 Te5 1.968688 1_555
O47 Pb6 2.761192 1_555
O48 Te0 2.026474 1_555
O48 Pb0 2.434045 1_565
O48 Pb7 2.457451 1_565
O49 Te0 2.026477 1_555
O49 Pb1 2.434045 1_555
O49 Pb8 2.457451 1_555
O50 Te0 2.026482 1_555
O50 Pb2 2.434045 1_555
O50 Pb6 2.457451 1_555
O51 Te1 2.026474 1_555
O51 Pb1 2.434045 1_655
O51 Pb8 2.457451 1_655
O52 Te1 2.026477 1_555
O52 Pb0 2.434045 1_555
O52 Pb7 2.457451 1_555
O53 Te1 2.026482 1_555
O53 Pb2 2.434045 1_555
O53 Pb6 2.457451 1_555
O54 Te2 2.026474 1_555
O54 Pb3 2.434045 1_555
O54 Pb10 2.457451 1_555
O55 Te2 2.026477 1_555
O55 Pb4 2.434045 1_655
O55 Pb11 2.457451 1_655
O56 Te2 2.026482 1_555
O56 Pb5 2.434045 1_555
O56 Pb9 2.457451 1_555
O57 Te3 2.026474 1_555
O57 Pb4 2.434045 1_556
O57 Pb11 2.457451 1_556
O58 Te3 2.026477 1_555
O58 Pb3 2.434045 1_566
O58 Pb10 2.457451 1_566
O59 Te3 2.026482 1_555
O59 Pb5 2.434045 1_556
O59 Pb9 2.457451 1_556
