# generated using pymatgen
data_KEuHfFeO6
_symmetry_space_group_name_H-M   'P 1'
_cell_length_a   5.66031484
_cell_length_b   5.66031484
_cell_length_c   5.66031484
_cell_angle_alpha   60.00000000
_cell_angle_beta   60.00000000
_cell_angle_gamma   60.00000000
_symmetry_Int_Tables_number   1
_chemical_formula_structural   KEuHfFeO6
_chemical_formula_sum   'K1 Eu1 Hf1 Fe1 O6'
_cell_volume   128.23505670
_cell_formula_units_Z   1
loop_
 _symmetry_equiv_pos_site_id
 _symmetry_equiv_pos_as_xyz
  1  'x, y, z'
loop_
 _atom_site_type_symbol
 _atom_site_label
 _atom_site_symmetry_multiplicity
 _atom_site_fract_x
 _atom_site_fract_y
 _atom_site_fract_z
 _atom_site_occupancy
  K  K0  1  0.75000000  0.75000000  0.75000000  1
  Eu  Eu0  1  0.25000000  0.25000000  0.25000000  1
  Hf  Hf0  1  0.50000000  0.50000000  0.50000000  1
  Fe  Fe0  1  0.00000000  0.00000000  0.00000000  1
  O  O0  1  0.75728582  0.24271418  0.24271418  1
  O  O1  1  0.24271418  0.75728582  0.75728582  1
  O  O2  1  0.75728582  0.24271418  0.75728582  1
  O  O3  1  0.24271418  0.75728582  0.24271418  1
  O  O4  1  0.75728582  0.75728582  0.24271418  1
  O  O5  1  0.24271418  0.24271418  0.75728582  1
loop_
_geom_bond_atom_site_label_1
_geom_bond_atom_site_label_2
_geom_bond_distance
_geom_bond_site_symmetry_2
K0 O2 2.830758 1_555
K0 O4 2.830758 1_555
K0 O1 2.830758 1_555
K0 O3 2.830758 1_556
K0 O2 2.830758 1_565
K0 O4 2.830758 1_556
K0 O0 2.830758 1_565
K0 O3 2.830758 1_655
K0 O5 2.830758 1_565
K0 O1 2.830758 1_655
K0 O5 2.830758 1_655
K0 O0 2.830758 1_556
Eu0 O3 2.830758 1_545
Eu0 O2 2.830758 1_455
Eu0 O5 2.830758 1_555
Eu0 O2 2.830758 1_554
Eu0 O5 2.830758 1_554
Eu0 O4 2.830758 1_545
Eu0 O1 2.830758 1_545
Eu0 O0 2.830758 1_455
Eu0 O0 2.830758 1_555
Eu0 O3 2.830758 1_555
Eu0 O4 2.830758 1_455
Eu0 O1 2.830758 1_554
Hf0 O1 2.059546 1_555
Hf0 O5 2.059546 1_555
Hf0 O3 2.059546 1_555
Hf0 O0 2.059546 1_555
Hf0 O2 2.059546 1_555
Hf0 O4 2.059546 1_555
Fe0 O4 1.942901 1_445
Fe0 O3 1.942901 1_545
Fe0 O5 1.942901 1_554
Fe0 O2 1.942901 1_454
Fe0 O1 1.942901 1_544
Fe0 O0 1.942901 1_455
