# generated using pymatgen
data_Ho4RuBr5
_symmetry_space_group_name_H-M   'P 1'
_cell_length_a   11.82913300
_cell_length_b   11.82913300
_cell_length_c   17.18829100
_cell_angle_alpha   90.00000000
_cell_angle_beta   90.00000000
_cell_angle_gamma   90.00000000
_symmetry_Int_Tables_number   1
_chemical_formula_structural   Ho4RuBr5
_chemical_formula_sum   'Ho32 Ru8 Br40'
_cell_volume   2405.12984406
_cell_formula_units_Z   8
loop_
 _symmetry_equiv_pos_site_id
 _symmetry_equiv_pos_as_xyz
  1  'x, y, z'
loop_
 _atom_site_type_symbol
 _atom_site_label
 _atom_site_symmetry_multiplicity
 _atom_site_fract_x
 _atom_site_fract_y
 _atom_site_fract_z
 _atom_site_occupancy
  Ho  Ho0  1  0.36878800  0.63121200  0.09277700  1
  Ho  Ho1  1  0.86878800  0.86878800  0.59277700  1
  Ho  Ho2  1  0.13121200  0.13121200  0.59277700  1
  Ho  Ho3  1  0.63121200  0.36878800  0.09277700  1
  Ho  Ho4  1  0.13121200  0.86878800  0.40722300  1
  Ho  Ho5  1  0.63121200  0.63121200  0.90722300  1
  Ho  Ho6  1  0.36878800  0.36878800  0.90722300  1
  Ho  Ho7  1  0.86878800  0.13121200  0.40722300  1
  Ho  Ho8  1  0.38381400  0.17222600  0.07650900  1
  Ho  Ho9  1  0.88381400  0.32777400  0.57650900  1
  Ho  Ho10  1  0.11618600  0.67222600  0.57650900  1
  Ho  Ho11  1  0.61618600  0.82777400  0.07650900  1
  Ho  Ho12  1  0.11618600  0.32777400  0.42349100  1
  Ho  Ho13  1  0.61618600  0.17222600  0.92349100  1
  Ho  Ho14  1  0.38381400  0.82777400  0.92349100  1
  Ho  Ho15  1  0.88381400  0.67222600  0.42349100  1
  Ho  Ho16  1  0.17222600  0.38381400  0.07650900  1
  Ho  Ho17  1  0.32777400  0.88381400  0.57650900  1
  Ho  Ho18  1  0.67222600  0.11618600  0.57650900  1
  Ho  Ho19  1  0.82777400  0.61618600  0.07650900  1
  Ho  Ho20  1  0.32777400  0.11618600  0.42349100  1
  Ho  Ho21  1  0.17222600  0.61618600  0.92349100  1
  Ho  Ho22  1  0.82777400  0.38381400  0.92349100  1
  Ho  Ho23  1  0.67222600  0.88381400  0.42349100  1
  Ho  Ho24  1  0.38689100  0.38689100  0.22670400  1
  Ho  Ho25  1  0.88689100  0.11310900  0.72670400  1
  Ho  Ho26  1  0.11310900  0.88689100  0.72670400  1
  Ho  Ho27  1  0.61310900  0.61310900  0.22670400  1
  Ho  Ho28  1  0.11310900  0.11310900  0.27329600  1
  Ho  Ho29  1  0.61310900  0.38689100  0.77329600  1
  Ho  Ho30  1  0.38689100  0.61310900  0.77329600  1
  Ho  Ho31  1  0.88689100  0.88689100  0.27329600  1
  Ru  Ru0  1  0.39788000  0.39788000  0.06970300  1
  Ru  Ru1  1  0.89788000  0.10212000  0.56970300  1
  Ru  Ru2  1  0.10212000  0.89788000  0.56970300  1
  Ru  Ru3  1  0.60212000  0.60212000  0.06970300  1
  Ru  Ru4  1  0.10212000  0.10212000  0.43029700  1
  Ru  Ru5  1  0.60212000  0.39788000  0.93029700  1
  Ru  Ru6  1  0.39788000  0.60212000  0.93029700  1
  Ru  Ru7  1  0.89788000  0.89788000  0.43029700  1
  Br  Br0  1  0.36725700  0.13274300  0.25000000  1
  Br  Br1  1  0.86725700  0.36725700  0.75000000  1
  Br  Br2  1  0.13274300  0.63274300  0.75000000  1
  Br  Br3  1  0.63274300  0.86725700  0.25000000  1
  Br  Br4  1  0.13274300  0.36725700  0.25000000  1
  Br  Br5  1  0.63274300  0.13274300  0.75000000  1
  Br  Br6  1  0.36725700  0.86725700  0.75000000  1
  Br  Br7  1  0.86725700  0.63274300  0.25000000  1
  Br  Br8  1  0.14121800  0.14121800  0.08954900  1
  Br  Br9  1  0.64121800  0.35878200  0.58954900  1
  Br  Br10  1  0.35878200  0.64121800  0.58954900  1
  Br  Br11  1  0.85878200  0.85878200  0.08954900  1
  Br  Br12  1  0.35878200  0.35878200  0.41045100  1
  Br  Br13  1  0.85878200  0.14121800  0.91045100  1
  Br  Br14  1  0.14121800  0.85878200  0.91045100  1
  Br  Br15  1  0.64121800  0.64121800  0.41045100  1
  Br  Br16  1  0.12519000  0.87481000  0.22951000  1
  Br  Br17  1  0.62519000  0.62519000  0.72951000  1
  Br  Br18  1  0.37481000  0.37481000  0.72951000  1
  Br  Br19  1  0.87481000  0.12519000  0.22951000  1
  Br  Br20  1  0.37481000  0.62519000  0.27049000  1
  Br  Br21  1  0.87481000  0.87481000  0.77049000  1
  Br  Br22  1  0.12519000  0.12519000  0.77049000  1
  Br  Br23  1  0.62519000  0.37481000  0.27049000  1
  Br  Br24  1  0.37662500  0.90080800  0.08786300  1
  Br  Br25  1  0.87662500  0.59919200  0.58786300  1
  Br  Br26  1  0.12337500  0.40080800  0.58786300  1
  Br  Br27  1  0.62337500  0.09919200  0.08786300  1
  Br  Br28  1  0.12337500  0.59919200  0.41213700  1
  Br  Br29  1  0.62337500  0.90080800  0.91213700  1
  Br  Br30  1  0.37662500  0.09919200  0.91213700  1
  Br  Br31  1  0.87662500  0.40080800  0.41213700  1
  Br  Br32  1  0.90080800  0.37662500  0.08786300  1
  Br  Br33  1  0.59919200  0.87662500  0.58786300  1
  Br  Br34  1  0.40080800  0.12337500  0.58786300  1
  Br  Br35  1  0.09919200  0.62337500  0.08786300  1
  Br  Br36  1  0.59919200  0.12337500  0.41213700  1
  Br  Br37  1  0.90080800  0.62337500  0.91213700  1
  Br  Br38  1  0.09919200  0.37662500  0.91213700  1
  Br  Br39  1  0.40080800  0.87662500  0.41213700  1
loop_
_geom_bond_atom_site_label_1
_geom_bond_atom_site_label_2
_geom_bond_distance
_geom_bond_site_symmetry_2
Ho0 Ru0 2.809619 1_555
Ho0 Ru3 2.809619 1_555
Ho0 Ru6 2.834842 1_554
Ho1 Ru1 2.809619 1_565
Ho1 Ru2 2.809619 1_655
Ho1 Ru7 2.834842 1_555
Ho2 Ru1 2.809619 1_455
Ho2 Ru2 2.809619 1_545
Ho2 Ru4 2.834842 1_555
Ho3 Ru0 2.809619 1_555
Ho3 Ru3 2.809619 1_555
Ho3 Ru5 2.834842 1_554
Ho4 Ru7 2.809619 1_455
Ho4 Ru4 2.809619 1_565
Ho4 Ru2 2.834842 1_555
Ho5 Ru6 2.809619 1_555
Ho5 Ru5 2.809619 1_555
Ho5 Ru3 2.834842 1_556
Ho6 Ru6 2.809619 1_555
Ho6 Ru5 2.809619 1_555
Ho6 Ru0 2.834842 1_556
Ho7 Ru7 2.809619 1_545
Ho7 Ru4 2.809619 1_655
Ho7 Ru1 2.834842 1_555
Ho8 Ru0 2.677029 1_555
Ho9 Ru1 2.677029 1_555
Ho10 Ru2 2.677029 1_555
Ho11 Ru3 2.677029 1_555
Ho12 Ru4 2.677029 1_555
Ho13 Ru5 2.677029 1_555
Ho14 Ru6 2.677029 1_555
Ho15 Ru7 2.677029 1_555
Ho16 Ru0 2.677029 1_555
Ho17 Ru2 2.677029 1_555
Ho18 Ru1 2.677029 1_555
Ho19 Ru3 2.677029 1_555
Ho20 Ru4 2.677029 1_555
Ho21 Ru6 2.677029 1_555
Ho22 Ru5 2.677029 1_555
Ho23 Ru7 2.677029 1_555
Ho24 Ru0 2.704833 1_555
Ho25 Ru1 2.704833 1_555
Ho26 Ru2 2.704833 1_555
Ho27 Ru3 2.704833 1_555
Ho28 Ru4 2.704833 1_555
Ho29 Ru5 2.704833 1_555
Ho30 Ru6 2.704833 1_555
Ho31 Ru7 2.704833 1_555
Br0 Ho20 3.024715 1_555
Br0 Ho8 3.024715 1_555
Br0 Ho28 3.041779 1_555
Br0 Ho24 3.041779 1_555
Br1 Ho22 3.024715 1_555
Br1 Ho9 3.024715 1_555
Br1 Ho29 3.041779 1_555
Br1 Ho25 3.041779 1_555
Br2 Ho10 3.024715 1_555
Br2 Ho21 3.024715 1_555
Br2 Ho26 3.041779 1_555
Br2 Ho30 3.041779 1_555
Br3 Ho23 3.024715 1_555
Br3 Ho11 3.024715 1_555
Br3 Ho27 3.041779 1_555
Br3 Ho31 3.041779 1_555
Br4 Ho12 3.024715 1_555
Br4 Ho16 3.024715 1_555
Br4 Ho24 3.041779 1_555
Br4 Ho28 3.041779 1_555
Br5 Ho18 3.024715 1_555
Br5 Ho13 3.024715 1_555
Br5 Ho25 3.041779 1_555
Br5 Ho29 3.041779 1_555
Br6 Ho14 3.024715 1_555
Br6 Ho17 3.024715 1_555
Br6 Ho30 3.041779 1_555
Br6 Ho26 3.041779 1_555
Br7 Ho19 3.024715 1_555
Br7 Ho15 3.024715 1_555
Br7 Ho31 3.041779 1_555
Br7 Ho27 3.041779 1_555
Br8 Ho8 2.901716 1_555
Br8 Ho16 2.901716 1_555
Br8 Ho28 3.193111 1_555
Br9 Ho18 2.901716 1_555
Br9 Ho9 2.901716 1_555
Br9 Ho29 3.193111 1_555
Br10 Ho10 2.901716 1_555
Br10 Ho17 2.901716 1_555
Br10 Ho30 3.193111 1_555
Br11 Ho11 2.901716 1_555
Br11 Ho19 2.901716 1_555
Br11 Ho31 3.193111 1_555
Br12 Ho12 2.901716 1_555
Br12 Ho20 2.901716 1_555
Br12 Ho24 3.193111 1_555
Br13 Ho22 2.901716 1_555
Br13 Ho13 2.901716 1_555
Br13 Ho25 3.193111 1_555
Br14 Ho14 2.901716 1_555
Br14 Ho21 2.901716 1_555
Br14 Ho26 3.193111 1_555
Br15 Ho15 2.901716 1_555
Br15 Ho23 2.901716 1_555
Br15 Ho27 3.193111 1_555
Br16 Ho28 2.921108 1_565
Br16 Ho31 2.921108 1_455
Br16 Ho4 3.056244 1_555
Br17 Ho29 2.921108 1_555
Br17 Ho30 2.921108 1_555
Br17 Ho5 3.056244 1_555
Br18 Ho29 2.921108 1_555
Br18 Ho30 2.921108 1_555
Br18 Ho6 3.056244 1_555
Br19 Ho28 2.921108 1_655
Br19 Ho31 2.921108 1_545
Br19 Ho7 3.056244 1_555
Br20 Ho27 2.921108 1_555
Br20 Ho24 2.921108 1_555
Br20 Ho0 3.056244 1_555
Br21 Ho25 2.921108 1_565
Br21 Ho26 2.921108 1_655
Br21 Ho1 3.056244 1_555
Br22 Ho26 2.921108 1_545
Br22 Ho25 2.921108 1_455
Br22 Ho2 3.056244 1_555
Br23 Ho27 2.921108 1_555
Br23 Ho24 2.921108 1_555
Br23 Ho3 3.056244 1_555
Br24 Ho14 2.955635 1_554
Br24 Ho11 2.968986 1_555
Br24 Ho0 3.191552 1_555
Br24 Ho8 3.217689 1_565
Br25 Ho15 2.955635 1_555
Br25 Ho10 2.968986 1_655
Br25 Ho1 3.191552 1_555
Br25 Ho9 3.217689 1_555
Br26 Ho12 2.955635 1_555
Br26 Ho9 2.968986 1_455
Br26 Ho2 3.191552 1_555
Br26 Ho10 3.217689 1_555
Br27 Ho13 2.955635 1_554
Br27 Ho8 2.968986 1_555
Br27 Ho3 3.191552 1_555
Br27 Ho11 3.217689 1_545
Br28 Ho10 2.955635 1_555
Br28 Ho15 2.968986 1_455
Br28 Ho4 3.191552 1_555
Br28 Ho12 3.217689 1_555
Br29 Ho11 2.955635 1_556
Br29 Ho14 2.968986 1_555
Br29 Ho5 3.191552 1_555
Br29 Ho13 3.217689 1_565
Br30 Ho8 2.955635 1_556
Br30 Ho13 2.968986 1_555
Br30 Ho6 3.191552 1_555
Br30 Ho14 3.217689 1_545
Br31 Ho9 2.955635 1_555
Br31 Ho12 2.968986 1_655
Br31 Ho7 3.191552 1_555
Br31 Ho15 3.217689 1_555
Br32 Ho22 2.955635 1_554
Br32 Ho19 2.968986 1_555
Br32 Ho3 3.191552 1_555
Br32 Ho16 3.217689 1_655
Br33 Ho23 2.955635 1_555
Br33 Ho18 2.968986 1_565
Br33 Ho1 3.191552 1_555
Br33 Ho17 3.217689 1_555
Br34 Ho20 2.955635 1_555
Br34 Ho17 2.968986 1_545
Br34 Ho2 3.191552 1_555
Br34 Ho18 3.217689 1_555
Br35 Ho21 2.955635 1_554
Br35 Ho16 2.968986 1_555
Br35 Ho0 3.191552 1_555
Br35 Ho19 3.217689 1_455
Br36 Ho18 2.955635 1_555
Br36 Ho23 2.968986 1_545
Br36 Ho7 3.191552 1_555
Br36 Ho20 3.217689 1_555
Br37 Ho19 2.955635 1_556
Br37 Ho22 2.968986 1_555
Br37 Ho5 3.191552 1_555
Br37 Ho21 3.217689 1_655
Br38 Ho16 2.955635 1_556
Br38 Ho21 2.968986 1_555
Br38 Ho6 3.191552 1_555
Br38 Ho22 3.217689 1_455
Br39 Ho17 2.955635 1_555
Br39 Ho20 2.968986 1_565
Br39 Ho4 3.191552 1_555
Br39 Ho23 3.217689 1_555
