# generated using pymatgen
data_Y2Fe17C
_symmetry_space_group_name_H-M   'P 1'
_cell_length_a   6.45338657
_cell_length_b   6.45338657
_cell_length_c   6.43247969
_cell_angle_alpha   83.07215197
_cell_angle_beta   83.07215197
_cell_angle_gamma   83.46690205
_symmetry_Int_Tables_number   1
_chemical_formula_structural   Y2Fe17C
_chemical_formula_sum   'Y2 Fe17 C1'
_cell_volume   262.64908536
_cell_formula_units_Z   1
loop_
 _symmetry_equiv_pos_site_id
 _symmetry_equiv_pos_as_xyz
  1  'x, y, z'
loop_
 _atom_site_type_symbol
 _atom_site_label
 _atom_site_symmetry_multiplicity
 _atom_site_fract_x
 _atom_site_fract_y
 _atom_site_fract_z
 _atom_site_occupancy
  Y  Y0  1  0.66043200  0.66043200  0.64940100  1
  Y  Y1  1  0.33956800  0.33956800  0.35059900  1
  Fe  Fe0  1  0.34355300  0.34355300  0.84944300  1
  Fe  Fe1  1  0.34152000  0.85007400  0.34312100  1
  Fe  Fe2  1  0.85007400  0.34152000  0.34312100  1
  Fe  Fe3  1  0.65644700  0.65644700  0.15055700  1
  Fe  Fe4  1  0.65848000  0.14992600  0.65687900  1
  Fe  Fe5  1  0.14992600  0.65848000  0.65687900  1
  Fe  Fe6  1  0.90339200  0.90339200  0.90246500  1
  Fe  Fe7  1  0.09660800  0.09660800  0.09753500  1
  Fe  Fe8  1  0.00000000  0.00000000  0.50000000  1
  Fe  Fe9  1  0.00000000  0.50000000  0.00000000  1
  Fe  Fe10  1  0.50000000  0.00000000  0.00000000  1
  Fe  Fe11  1  0.28594200  0.71405800  0.00000000  1
  Fe  Fe12  1  0.70897300  0.00001300  0.29066400  1
  Fe  Fe13  1  0.99998700  0.29102700  0.70933600  1
  Fe  Fe14  1  0.29102700  0.99998700  0.70933600  1
  Fe  Fe15  1  0.00001300  0.70897300  0.29066400  1
  Fe  Fe16  1  0.71405800  0.28594200  0.00000000  1
  C  C0  1  0.50000000  0.50000000  0.00000000  1
loop_
_geom_bond_atom_site_label_1
_geom_bond_atom_site_label_2
_geom_bond_distance
_geom_bond_site_symmetry_2
Fe0 Fe9 2.466012 1_556
Fe0 Fe10 2.466012 1_556
Fe0 Fe4 2.532648 1_555
Fe0 Fe5 2.532648 1_555
Fe0 Fe14 2.563142 1_545
Fe0 Fe13 2.563142 1_455
Fe0 Fe7 2.641388 1_556
Fe1 Fe10 2.453353 1_565
Fe1 Fe8 2.454720 1_565
Fe1 Fe5 2.504938 1_555
Fe1 Fe3 2.532648 1_555
Fe1 Fe11 2.549598 1_555
Fe1 Fe15 2.551521 1_555
Fe1 Fe14 2.623773 1_555
Fe1 Fe12 2.631276 1_565
Fe1 Fe7 2.636016 1_565
Fe1 Y0 3.072162 1_555
Fe1 Y1 3.163627 1_565
Fe1 Y1 3.290474 1_555
Fe2 Fe9 2.453353 1_655
Fe2 Fe8 2.454720 1_655
Fe2 Fe4 2.504938 1_555
Fe2 Fe3 2.532648 1_555
Fe2 Fe7 2.636016 1_655
Fe2 Y0 3.072162 1_555
Fe2 Y1 3.163627 1_655
Fe2 Y1 3.290474 1_555
Fe3 Fe9 2.466012 1_655
Fe3 Fe6 2.641388 1_554
Fe4 Fe8 2.454720 1_655
Fe4 Fe6 2.636016 1_545
Fe4 Y1 3.072162 1_555
Fe4 Y0 3.163627 1_545
Fe4 Y0 3.290474 1_555
Fe5 Fe9 2.453353 1_556
Fe5 Fe8 2.454720 1_565
Fe5 Fe6 2.636016 1_455
Fe5 Y1 3.072162 1_555
Fe5 Y0 3.163627 1_455
Fe5 Y0 3.290474 1_555
Fe6 Fe7 2.406794 1_666
Fe6 Fe8 2.605616 1_665
Fe6 Fe9 2.624924 1_656
Fe6 Y0 3.058983 1_555
Fe7 Fe8 2.605616 1_555
Fe7 Fe9 2.624924 1_555
Fe7 Y1 3.058983 1_555
Fe8 Y0 3.256435 1_445
Fe8 Y1 3.256435 1_555
Fe9 Y1 3.327562 1_555
Fe9 Y0 3.327562 1_454
Fe10 Fe16 2.427639 1_555
Fe10 Fe11 2.427639 1_545
Fe10 Fe12 2.433670 1_555
Fe10 Fe14 2.433670 1_544
Fe10 Fe4 2.453353 1_554
Fe10 Fe3 2.466012 1_545
Fe10 Fe7 2.624924 1_555
Fe10 Fe6 2.624924 1_544
Fe10 Y1 3.327562 1_555
Fe10 Y0 3.327562 1_544
Fe11 Fe9 2.427639 1_555
Fe11 Fe15 2.463398 1_555
Fe11 Fe14 2.463398 1_554
Fe11 Fe5 2.549598 1_554
Fe11 Fe6 2.735606 1_454
Fe11 Fe7 2.735606 1_565
Fe12 Fe8 2.439367 1_655
Fe12 Fe16 2.463398 1_555
Fe12 Fe15 2.500500 1_645
Fe12 Fe2 2.551521 1_555
Fe12 Fe3 2.563142 1_545
Fe12 Fe4 2.623773 1_555
Fe12 Fe7 2.758264 1_655
Fe12 Fe6 2.764087 1_544
Fe12 Y0 2.997891 1_545
Fe12 Y1 3.070304 1_555
Fe13 Fe9 2.433670 1_656
Fe13 Fe8 2.439367 1_655
Fe13 Fe16 2.463398 1_556
Fe13 Fe14 2.500500 1_645
Fe13 Fe4 2.551521 1_555
Fe13 Fe2 2.623773 1_555
Fe13 Fe5 2.631276 1_655
Fe13 Fe6 2.758264 1_545
Fe13 Fe7 2.764087 1_656
Fe13 Y1 2.997891 1_655
Fe13 Y0 3.070304 1_555
Fe14 Fe8 2.439367 1_565
Fe14 Fe5 2.551521 1_555
Fe14 Fe4 2.631276 1_565
Fe14 Fe6 2.758264 1_455
Fe14 Fe7 2.764087 1_566
Fe14 Y1 2.997891 1_565
Fe14 Y0 3.070304 1_555
Fe15 Fe9 2.433670 1_555
Fe15 Fe8 2.439367 1_565
Fe15 Fe3 2.563142 1_455
Fe15 Fe5 2.623773 1_555
Fe15 Fe2 2.631276 1_455
Fe15 Fe7 2.758264 1_565
Fe15 Fe6 2.764087 1_454
Fe15 Y0 2.997891 1_455
Fe15 Y1 3.070304 1_555
Fe16 Fe9 2.427639 1_655
Fe16 Fe4 2.549598 1_554
Fe16 Fe2 2.549598 1_555
Fe16 Fe6 2.735606 1_544
Fe16 Fe7 2.735606 1_655
C0 Fe16 1.839101 1_555
C0 Fe11 1.839101 1_555
C0 Fe3 1.918395 1_555
C0 Fe0 1.918395 1_554
C0 Y0 2.519369 1_554
C0 Y1 2.519369 1_555
