# generated using pymatgen
data_Nd(Ni2Sn)2
_symmetry_space_group_name_H-M   'P 1'
_cell_length_a   6.77500799
_cell_length_b   6.77500799
_cell_length_c   6.77500799
_cell_angle_alpha   107.90143140
_cell_angle_beta   110.26177162
_cell_angle_gamma   110.26177162
_symmetry_Int_Tables_number   1
_chemical_formula_structural   Nd(Ni2Sn)2
_chemical_formula_sum   'Nd2 Ni8 Sn4'
_cell_volume   239.25652770
_cell_formula_units_Z   2
loop_
 _symmetry_equiv_pos_site_id
 _symmetry_equiv_pos_as_xyz
  1  'x, y, z'
loop_
 _atom_site_type_symbol
 _atom_site_label
 _atom_site_symmetry_multiplicity
 _atom_site_fract_x
 _atom_site_fract_y
 _atom_site_fract_z
 _atom_site_occupancy
  Nd  Nd0  1  0.50000000  0.00000000  0.50000000  1
  Nd  Nd1  1  0.50000000  0.50000000  0.00000000  1
  Ni  Ni0  1  0.72222400  0.44580600  0.44619000  1
  Ni  Ni1  1  0.27777600  0.72396600  0.72358200  1
  Ni  Ni2  1  0.99961600  0.94580600  0.22358200  1
  Ni  Ni3  1  0.00038400  0.22396600  0.94619000  1
  Ni  Ni4  1  0.00038400  0.27641800  0.55419400  1
  Ni  Ni5  1  0.99961600  0.55381000  0.27603400  1
  Ni  Ni6  1  0.27777600  0.05381000  0.05419400  1
  Ni  Ni7  1  0.72222400  0.77641800  0.77603400  1
  Sn  Sn0  1  0.31704000  0.40852000  0.40852000  1
  Sn  Sn1  1  0.68296000  0.09148000  0.09148000  1
  Sn  Sn2  1  0.00000000  0.90852000  0.59148000  1
  Sn  Sn3  1  0.00000000  0.59148000  0.90852000  1
loop_
_geom_bond_atom_site_label_1
_geom_bond_atom_site_label_2
_geom_bond_distance
_geom_bond_site_symmetry_2
Nd0 Ni0 3.070766 1_555
Nd0 Ni6 3.070766 1_555
Nd0 Ni1 3.070766 1_545
Nd0 Ni7 3.070766 1_545
Nd0 Ni2 3.074516 1_445
Nd0 Ni3 3.074516 1_655
Nd0 Ni4 3.074516 1_655
Nd0 Ni5 3.074516 1_445
Nd1 Ni2 3.070766 1_555
Nd1 Ni4 3.070766 1_554
Nd1 Ni5 3.070766 1_555
Nd1 Ni3 3.070766 1_554
Nd1 Ni7 3.074516 1_554
Nd1 Ni0 3.074516 1_555
Nd1 Ni6 3.074516 1_555
Nd1 Ni1 3.074516 1_554
Ni0 Ni5 2.542237 1_555
Ni0 Ni4 2.542237 1_655
Ni0 Sn0 2.580596 1_555
Ni0 Ni7 2.633217 1_555
Ni0 Sn3 2.656545 1_655
Ni0 Sn2 2.659294 1_655
Ni0 Sn1 2.679004 1_555
Ni0 Ni6 2.785609 1_555
Ni0 Ni1 3.043133 1_655
Ni1 Ni4 2.542237 1_555
Ni1 Ni5 2.542237 1_455
Ni1 Sn1 2.580596 1_566
Ni1 Ni6 2.633217 1_566
Ni1 Sn2 2.656545 1_555
Ni1 Sn3 2.659294 1_555
Ni1 Sn0 2.679004 1_555
Ni1 Ni7 2.785609 1_555
Ni2 Ni6 2.542237 1_665
Ni2 Ni7 2.542237 1_554
Ni2 Sn2 2.580596 1_655
Ni2 Ni4 2.633217 1_665
Ni2 Sn1 2.656545 1_565
Ni2 Sn0 2.659294 1_665
Ni2 Sn3 2.679004 1_654
Ni2 Ni5 2.785609 1_555
Ni2 Ni3 3.043133 1_664
Ni3 Ni6 2.542237 1_556
Ni3 Ni7 2.542237 1_445
Ni3 Sn3 2.580596 1_555
Ni3 Ni5 2.633217 1_456
Ni3 Sn0 2.656545 1_556
Ni3 Sn1 2.659294 1_456
Ni3 Sn2 2.679004 1_545
Ni3 Ni4 2.785609 1_555
Ni4 Sn2 2.580596 1_545
Ni4 Sn0 2.656545 1_555
Ni4 Sn1 2.659294 1_455
Ni4 Sn3 2.679004 1_555
Ni4 Ni5 3.043133 1_455
Ni5 Sn3 2.580596 1_654
Ni5 Sn1 2.656545 1_555
Ni5 Sn0 2.659294 1_655
Ni5 Sn2 2.679004 1_655
Ni6 Sn1 2.580596 1_555
Ni6 Sn3 2.656545 1_544
Ni6 Sn2 2.659294 1_544
Ni6 Sn0 2.679004 1_555
Ni6 Ni7 3.043133 1_444
Ni7 Sn0 2.580596 1_555
Ni7 Sn2 2.656545 1_655
Ni7 Sn3 2.659294 1_655
Ni7 Sn1 2.679004 1_566
