# generated using pymatgen
data_K2MoHOF5
_symmetry_space_group_name_H-M   'P 1'
_cell_length_a   6.36359854
_cell_length_b   6.36359854
_cell_length_c   9.19320911
_cell_angle_alpha   85.62066358
_cell_angle_beta   85.62066358
_cell_angle_gamma   90.03238033
_symmetry_Int_Tables_number   1
_chemical_formula_structural   K2MoHOF5
_chemical_formula_sum   'K4 Mo2 H2 O2 F10'
_cell_volume   370.10420396
_cell_formula_units_Z   2
loop_
 _symmetry_equiv_pos_site_id
 _symmetry_equiv_pos_as_xyz
  1  'x, y, z'
loop_
 _atom_site_type_symbol
 _atom_site_label
 _atom_site_symmetry_multiplicity
 _atom_site_fract_x
 _atom_site_fract_y
 _atom_site_fract_z
 _atom_site_occupancy
  K  K0  1  0.53255600  0.04365400  0.70930100  1
  K  K1  1  0.95634600  0.46744400  0.29069900  1
  K  K2  1  0.99546300  0.00453700  0.00000000  1
  K  K3  1  0.48208500  0.51791500  0.00000000  1
  Mo  Mo0  1  0.45745300  0.98300200  0.23861100  1
  Mo  Mo1  1  0.01699800  0.54254700  0.76138900  1
  H  H0  1  0.56308400  0.43691600  0.50000000  1
  H  H1  1  0.99513300  0.00486700  0.50000000  1
  O  O0  1  0.44016100  0.99668800  0.42655400  1
  O  O1  1  0.00331200  0.55983900  0.57344600  1
  F  F0  1  0.48116000  0.97193900  0.01320800  1
  F  F1  1  0.02806100  0.51884000  0.98679200  1
  F  F2  1  0.23332700  0.76657600  0.22437400  1
  F  F3  1  0.23342400  0.76667300  0.77562600  1
  F  F4  1  0.67517800  0.75665500  0.22507900  1
  F  F5  1  0.24334500  0.32482200  0.77492100  1
  F  F6  1  0.68522500  0.20345500  0.19052700  1
  F  F7  1  0.79654500  0.31477500  0.80947300  1
  F  F8  1  0.24438500  0.20693800  0.19153100  1
  F  F9  1  0.79306200  0.75561500  0.80846900  1
loop_
_geom_bond_atom_site_label_1
_geom_bond_atom_site_label_2
_geom_bond_distance
_geom_bond_site_symmetry_2
K0 O0 2.746545 1_545
K1 O1 2.746545 1_655
Mo0 O0 1.731745 1_555
Mo1 O1 1.731745 1_555
H0 K0 3.034778 1_555
H0 K1 3.034778 1_555
F0 Mo0 2.072723 1_555
F0 K0 2.790442 1_564
F0 K3 2.901016 1_555
F0 K2 3.108841 1_465
F0 K2 3.271667 1_565
F1 Mo1 2.072723 1_555
F1 K1 2.790442 1_456
F1 K3 2.901016 1_556
F1 K2 3.108841 1_466
F1 K2 3.271667 1_456
F2 Mo0 2.000486 1_555
F2 K1 2.599398 1_455
F2 K2 2.973460 1_465
F2 K3 3.044214 1_555
F3 Mo1 2.000486 1_555
F3 K0 2.599398 1_565
F3 K2 2.973460 1_466
F3 K3 3.044214 1_556
F4 Mo0 2.003278 1_555
F4 K1 2.636563 1_555
F4 K3 2.994300 1_555
F4 K2 3.126944 1_565
F5 Mo1 2.003278 1_555
F5 K0 2.636563 1_555
F5 K3 2.994300 1_556
F5 K2 3.126944 1_456
F6 Mo0 2.017303 1_545
F6 K1 2.668802 1_555
F6 K2 2.895030 1_555
F6 K3 2.925208 1_555
F7 Mo1 2.017303 1_655
F7 K0 2.668802 1_555
F7 K2 2.895030 1_556
F7 K3 2.925208 1_556
F8 Mo0 2.013476 1_545
F8 K1 2.630228 1_455
F8 K2 2.835222 1_455
F8 K3 2.891764 1_555
F9 Mo1 2.013476 1_655
F9 K0 2.630228 1_565
F9 K2 2.835222 1_566
F9 K3 2.891764 1_556
