# generated using pymatgen
data_Sr(GaS2)2
_symmetry_space_group_name_H-M   'P 1'
_cell_length_a   11.97070601
_cell_length_b   11.97070602
_cell_length_c   12.15056181
_cell_angle_alpha   104.92633577
_cell_angle_beta   104.92633778
_cell_angle_gamma   118.49656191
_symmetry_Int_Tables_number   1
_chemical_formula_structural   Sr(GaS2)2
_chemical_formula_sum   'Sr8 Ga16 S32'
_cell_volume   1321.86337625
_cell_formula_units_Z   8
loop_
 _symmetry_equiv_pos_site_id
 _symmetry_equiv_pos_as_xyz
  1  'x, y, z'
loop_
 _atom_site_type_symbol
 _atom_site_label
 _atom_site_symmetry_multiplicity
 _atom_site_fract_x
 _atom_site_fract_y
 _atom_site_fract_z
 _atom_site_occupancy
  Sr  Sr0  1  0.87333468  0.62333468  0.24666936  1
  Sr  Sr1  1  0.37666532  0.12666532  0.25333064  1
  Sr  Sr2  1  0.12666532  0.37666532  0.75333064  1
  Sr  Sr3  1  0.62333468  0.87333468  0.74666936  1
  Sr  Sr4  1  0.62500000  0.37500000  0.75000000  1
  Sr  Sr5  1  0.37500000  0.62500000  0.25000000  1
  Sr  Sr6  1  0.12500000  0.87500000  0.75000000  1
  Sr  Sr7  1  0.87500000  0.12500000  0.25000000  1
  Ga  Ga0  1  0.88888231  0.86332123  0.99921252  1
  Ga  Ga1  1  0.86410971  0.38967079  0.50078748  1
  Ga  Ga2  1  0.13667877  0.11111769  0.50078748  1
  Ga  Ga3  1  0.61032921  0.13589029  0.99921252  1
  Ga  Ga4  1  0.11111769  0.13667877  0.00078748  1
  Ga  Ga5  1  0.13589029  0.61032921  0.49921252  1
  Ga  Ga6  1  0.86332123  0.88888231  0.49921252  1
  Ga  Ga7  1  0.38967079  0.86410971  0.00078748  1
  Ga  Ga8  1  0.53227643  0.63899335  0.99983661  1
  Ga  Ga9  1  0.63915675  0.03243883  0.50016339  1
  Ga  Ga10  1  0.36100665  0.46772357  0.50016339  1
  Ga  Ga11  1  0.96756117  0.36084325  0.99983661  1
  Ga  Ga12  1  0.46772357  0.36100665  0.00016339  1
  Ga  Ga13  1  0.36084325  0.96756117  0.49983661  1
  Ga  Ga14  1  0.63899335  0.53227643  0.49983661  1
  Ga  Ga15  1  0.03243883  0.63915675  0.00016339  1
  S  S0  1  0.81127499  0.15679455  0.99791715  1
  S  S1  1  0.15887740  0.31335883  0.50208285  1
  S  S2  1  0.84320545  0.18872501  0.50208285  1
  S  S3  1  0.68664117  0.84112260  0.99791715  1
  S  S4  1  0.18872501  0.84320545  0.00208285  1
  S  S5  1  0.84112260  0.68664117  0.49791715  1
  S  S6  1  0.15679455  0.81127499  0.49791715  1
  S  S7  1  0.31335883  0.15887740  0.00208285  1
  S  S8  1  0.14966941  0.34012298  0.00195729  1
  S  S9  1  0.33816569  0.64771112  0.49804271  1
  S  S10  1  0.65987702  0.85033059  0.49804271  1
  S  S11  1  0.35228888  0.66183431  0.00195729  1
  S  S12  1  0.85033059  0.65987702  0.99804271  1
  S  S13  1  0.66183431  0.35228888  0.50195729  1
  S  S14  1  0.34012298  0.14966941  0.50195729  1
  S  S15  1  0.64771112  0.33816569  0.99804271  1
  S  S16  1  0.58107793  0.08107670  0.66410692  1
  S  S17  1  0.41696977  0.41697101  0.83589308  1
  S  S18  1  0.91892330  0.41892207  0.83589308  1
  S  S19  1  0.58302899  0.58303023  0.66410692  1
  S  S20  1  0.41892207  0.91892330  0.33589308  1
  S  S21  1  0.58303023  0.58302899  0.16410692  1
  S  S22  1  0.08107670  0.58107793  0.16410692  1
  S  S23  1  0.41697101  0.41696977  0.33589308  1
  S  S24  1  0.91695229  0.41749965  0.33669321  1
  S  S25  1  0.08080744  0.08025908  0.16330679  1
  S  S26  1  0.58250035  0.08304771  0.16330679  1
  S  S27  1  0.91974092  0.91919256  0.33669321  1
  S  S28  1  0.08304771  0.58250035  0.66330679  1
  S  S29  1  0.91919256  0.91974092  0.83669321  1
  S  S30  1  0.41749965  0.91695229  0.83669321  1
  S  S31  1  0.08025908  0.08080744  0.66330679  1
loop_
_geom_bond_atom_site_label_1
_geom_bond_atom_site_label_2
_geom_bond_distance
_geom_bond_site_symmetry_2
Ga0 S12 2.247344 1_555
Ga0 S25 2.297253 1_666
Ga0 S3 2.301368 1_555
Ga0 S29 2.304248 1_555
Ga1 S13 2.247356 1_555
Ga1 S24 2.297242 1_555
Ga1 S2 2.301363 1_555
Ga1 S28 2.304242 1_655
Ga2 S14 2.247344 1_555
Ga2 S27 2.297253 1_445
Ga2 S1 2.301368 1_555
Ga2 S31 2.304248 1_555
Ga3 S15 2.247356 1_555
Ga3 S26 2.297242 1_556
Ga3 S0 2.301363 1_555
Ga3 S30 2.304242 1_545
Ga4 S8 2.247344 1_555
Ga4 S29 2.297253 1_444
Ga4 S7 2.301368 1_555
Ga4 S25 2.304248 1_555
Ga5 S9 2.247356 1_555
Ga5 S28 2.297242 1_555
Ga5 S6 2.301363 1_555
Ga5 S24 2.304242 1_455
Ga6 S10 2.247344 1_555
Ga6 S31 2.297253 1_665
Ga6 S5 2.301368 1_555
Ga6 S27 2.304248 1_555
Ga7 S11 2.247356 1_555
Ga7 S30 2.297242 1_554
Ga7 S4 2.301363 1_555
Ga7 S26 2.304242 1_565
Ga8 S3 2.248242 1_555
Ga8 S21 2.292244 1_556
Ga8 S17 2.300580 1_555
Ga8 S11 2.303201 1_556
Ga9 S2 2.248249 1_555
Ga9 S20 2.292246 1_545
Ga9 S16 2.300582 1_555
Ga9 S10 2.303202 1_545
Ga10 S1 2.248242 1_555
Ga10 S23 2.292244 1_555
Ga10 S19 2.300580 1_555
Ga10 S9 2.303201 1_555
Ga11 S0 2.248249 1_555
Ga11 S22 2.292246 1_656
Ga11 S18 2.300582 1_555
Ga11 S8 2.303202 1_656
Ga12 S7 2.248242 1_555
Ga12 S17 2.292244 1_554
Ga12 S21 2.300580 1_555
Ga12 S15 2.303201 1_554
Ga13 S6 2.248249 1_555
Ga13 S16 2.292246 1_565
Ga13 S20 2.300582 1_555
Ga13 S14 2.303202 1_565
Ga14 S5 2.248242 1_555
Ga14 S19 2.292244 1_555
Ga14 S23 2.300580 1_555
Ga14 S13 2.303201 1_555
Ga15 S4 2.248249 1_555
Ga15 S18 2.292246 1_454
Ga15 S22 2.300582 1_555
Ga15 S12 2.303202 1_454
S0 Sr3 3.120264 1_545
S0 Sr7 3.127675 1_556
S1 Sr2 3.120263 1_555
S1 Sr7 3.127674 1_455
S2 Sr2 3.120264 1_655
S2 Sr7 3.127675 1_555
S3 Sr3 3.120263 1_555
S3 Sr7 3.127675 1_566
S4 Sr1 3.120264 1_565
S4 Sr6 3.127675 1_554
S5 Sr0 3.120263 1_555
S5 Sr6 3.127674 1_655
S6 Sr0 3.120264 1_455
S6 Sr6 3.127675 1_555
S7 Sr1 3.120263 1_555
S7 Sr6 3.127675 1_544
S8 Sr5 3.119062 1_555
S8 Sr2 3.124179 1_554
S9 Sr5 3.119063 1_555
S9 Sr3 3.124181 1_555
S10 Sr5 3.119062 1_555
S10 Sr3 3.124180 1_555
S11 Sr5 3.119063 1_555
S11 Sr2 3.124181 1_554
S12 Sr4 3.119062 1_555
S12 Sr0 3.124179 1_556
S13 Sr4 3.119063 1_555
S13 Sr1 3.124181 1_555
S14 Sr4 3.119062 1_555
S14 Sr1 3.124180 1_555
S15 Sr4 3.119063 1_555
S15 Sr0 3.124181 1_556
S16 Sr3 3.109760 1_545
S16 Sr4 3.131405 1_555
S17 Sr2 3.109760 1_555
S17 Sr4 3.131405 1_555
S18 Sr2 3.109760 1_655
S18 Sr4 3.131405 1_555
S19 Sr3 3.109760 1_555
S19 Sr4 3.131405 1_555
S20 Sr1 3.109760 1_565
S20 Sr5 3.131405 1_555
S21 Sr0 3.109760 1_555
S21 Sr5 3.131405 1_555
S22 Sr0 3.109760 1_455
S22 Sr5 3.131405 1_555
S23 Sr1 3.109760 1_555
S23 Sr5 3.131405 1_555
S24 Sr7 3.125913 1_555
S24 Sr0 3.140416 1_555
S25 Sr7 3.125924 1_455
S25 Sr1 3.140405 1_555
S26 Sr7 3.125912 1_555
S26 Sr1 3.140416 1_555
S27 Sr7 3.125924 1_565
S27 Sr0 3.140405 1_555
S28 Sr6 3.125913 1_555
S28 Sr2 3.140416 1_555
S29 Sr6 3.125924 1_655
S29 Sr3 3.140405 1_555
S30 Sr6 3.125912 1_555
S30 Sr3 3.140416 1_555
S31 Sr6 3.125924 1_545
S31 Sr2 3.140405 1_555
