# generated using pymatgen
data_Ho2P7Rh12
_symmetry_space_group_name_H-M   'P 1'
_cell_length_a   9.51713829
_cell_length_b   9.51718996
_cell_length_c   3.84971420
_cell_angle_alpha   90.00043572
_cell_angle_beta   90.00055164
_cell_angle_gamma   120.00017486
_symmetry_Int_Tables_number   1
_chemical_formula_structural   Ho2P7Rh12
_chemical_formula_sum   'Ho2 P7 Rh12'
_cell_volume   301.97672657
_cell_formula_units_Z   1
loop_
 _symmetry_equiv_pos_site_id
 _symmetry_equiv_pos_as_xyz
  1  'x, y, z'
loop_
 _atom_site_type_symbol
 _atom_site_label
 _atom_site_symmetry_multiplicity
 _atom_site_fract_x
 _atom_site_fract_y
 _atom_site_fract_z
 _atom_site_occupancy
  Ho  Ho0  1  0.33329629  0.66663694  0.74984408  1
  Ho  Ho1  1  0.66670772  0.33335917  0.25015859  1
  P  P0  1  -0.00001590  -0.00000285  0.50000142  1
  P  P1  1  0.40584517  0.28566081  0.75541200  1
  P  P2  1  0.71430587  0.12014685  0.75541253  1
  P  P3  1  0.87982438  0.59417412  0.75539133  1
  P  P4  1  0.59415752  0.71434083  0.24458844  1
  P  P5  1  0.28569191  0.87985362  0.24459208  1
  P  P6  1  0.12017650  0.40583233  0.24459820  1
  Rh  Rh0  1  0.45084248  0.06885216  0.75037547  1
  Rh  Rh1  1  0.93119129  0.38199171  0.75038320  1
  Rh  Rh2  1  0.61797707  0.54915926  0.75039684  1
  Rh  Rh3  1  0.54915611  0.93115145  0.24960894  1
  Rh  Rh4  1  0.06882351  0.61801662  0.24962219  1
  Rh  Rh5  1  0.38202535  0.45083655  0.24961584  1
  Rh  Rh6  1  0.15188826  0.26102041  0.75036782  1
  Rh  Rh7  1  0.73897383  0.89086620  0.75035686  1
  Rh  Rh8  1  0.10916963  0.84812104  0.75037733  1
  Rh  Rh9  1  0.84810323  0.73896901  0.24963193  1
  Rh  Rh10  1  0.26102426  0.10913697  0.24963562  1
  Rh  Rh11  1  0.89083551  0.15187880  0.24962929  1
loop_
_geom_bond_atom_site_label_1
_geom_bond_atom_site_label_2
_geom_bond_distance
_geom_bond_site_symmetry_2
Ho0 P6 2.977969 1_556
Ho0 P5 2.978250 1_556
Ho0 P4 2.978259 1_556
Ho0 P6 3.003913 1_555
Ho0 P5 3.004286 1_555
Ho0 P4 3.004333 1_555
Ho0 Rh4 3.014418 1_556
Ho0 Rh5 3.014539 1_556
Ho0 Rh3 3.014562 1_556
Ho0 Rh4 3.015473 1_555
Ho0 Rh5 3.015646 1_555
Ho0 Rh3 3.015767 1_555
Ho1 P3 2.978042 1_554
Ho1 P2 2.978185 1_554
Ho1 P1 2.978288 1_554
Ho1 P3 3.003921 1_555
Ho1 P2 3.004230 1_555
Ho1 P1 3.004351 1_555
Ho1 Rh1 3.014459 1_554
Ho1 Rh2 3.014519 1_554
Ho1 Rh0 3.014585 1_554
Ho1 Rh1 3.015527 1_555
Ho1 Rh2 3.015676 1_555
Ho1 Rh0 3.015701 1_555
P0 Rh7 2.366070 1_445
P0 Rh6 2.366182 1_555
P0 Rh9 2.366203 1_445
P0 Rh11 2.366238 1_455
P0 Rh10 2.366315 1_555
P0 Rh8 2.366462 1_545
P1 Rh2 2.302660 1_555
P1 Rh0 2.307613 1_555
P1 Rh6 2.308720 1_555
P1 Rh10 2.454917 1_556
P1 Rh10 2.489504 1_555
P1 Rh5 2.549237 1_556
P1 Rh5 2.582728 1_555
P2 Rh0 2.302555 1_555
P2 Rh1 2.308097 1_555
P2 Rh7 2.308545 1_545
P2 Rh11 2.454834 1_556
P2 Rh11 2.489532 1_555
P2 Rh3 2.549173 1_546
P2 Rh3 2.582651 1_545
P3 Rh1 2.303143 1_555
P3 Rh2 2.307927 1_555
P3 Rh8 2.308783 1_655
P3 Rh9 2.454861 1_556
P3 Rh9 2.489400 1_555
P3 Rh4 2.549266 1_656
P3 Rh4 2.582616 1_655
P4 Rh5 2.302698 1_555
P4 Rh3 2.307656 1_555
P4 Rh9 2.308663 1_555
P4 Rh7 2.454937 1_554
P4 Rh7 2.489477 1_555
P4 Rh2 2.549237 1_554
P4 Rh2 2.582799 1_555
P5 Rh3 2.302552 1_555
P5 Rh4 2.307992 1_555
P5 Rh10 2.308569 1_565
P5 Rh8 2.454783 1_554
P5 Rh8 2.489494 1_555
P5 Rh0 2.549245 1_564
P5 Rh0 2.582606 1_565
P6 Rh4 2.303075 1_555
P6 Rh5 2.307978 1_555
P6 Rh11 2.308803 1_455
P6 Rh6 2.454895 1_554
P6 Rh6 2.489495 1_555
P6 Rh1 2.549138 1_454
P6 Rh1 2.582580 1_455
