# generated using pymatgen
data_LiYbS2
_symmetry_space_group_name_H-M   'P 1'
_cell_length_a   6.49766741
_cell_length_b   6.49766741
_cell_length_c   6.49766795
_cell_angle_alpha   34.27014998
_cell_angle_beta   34.27014998
_cell_angle_gamma   34.27015483
_symmetry_Int_Tables_number   1
_chemical_formula_structural   LiYbS2
_chemical_formula_sum   'Li1 Yb1 S2'
_cell_volume   77.56998813
_cell_formula_units_Z   1
loop_
 _symmetry_equiv_pos_site_id
 _symmetry_equiv_pos_as_xyz
  1  'x, y, z'
loop_
 _atom_site_type_symbol
 _atom_site_label
 _atom_site_symmetry_multiplicity
 _atom_site_fract_x
 _atom_site_fract_y
 _atom_site_fract_z
 _atom_site_occupancy
  Li  Li0  1  0.50000000  0.50000000  0.50000000  1
  Yb  Yb0  1  0.00000000  0.00000000  0.00000000  1
  S  S0  1  0.74910166  0.74910166  0.74910166  1
  S  S1  1  0.25089834  0.25089834  0.25089834  1
loop_
_geom_bond_atom_site_label_1
_geom_bond_atom_site_label_2
_geom_bond_distance
_geom_bond_site_symmetry_2
Li0 S1 2.696361 1_565
Li0 S1 2.696361 1_655
Li0 S0 2.696361 1_545
Li0 S0 2.696361 1_455
Li0 S1 2.696361 1_556
Li0 S0 2.696361 1_554
S0 Yb0 2.677638 1_566
S0 Yb0 2.677638 1_656
S0 Yb0 2.677639 1_665
S1 Yb0 2.677638 1_565
S1 Yb0 2.677638 1_655
S1 Yb0 2.677639 1_556
