# generated using pymatgen
data_Li2Ti3FeO8
_symmetry_space_group_name_H-M   'P 1'
_cell_length_a   8.49646600
_cell_length_b   8.49646600
_cell_length_c   8.49646600
_cell_angle_alpha   90.00000000
_cell_angle_beta   90.00000000
_cell_angle_gamma   90.00000000
_symmetry_Int_Tables_number   1
_chemical_formula_structural   Li2Ti3FeO8
_chemical_formula_sum   'Li8 Ti12 Fe4 O32'
_cell_volume   613.35932393
_cell_formula_units_Z   4
loop_
 _symmetry_equiv_pos_site_id
 _symmetry_equiv_pos_as_xyz
  1  'x, y, z'
loop_
 _atom_site_type_symbol
 _atom_site_label
 _atom_site_symmetry_multiplicity
 _atom_site_fract_x
 _atom_site_fract_y
 _atom_site_fract_z
 _atom_site_occupancy
  Li  Li0  1  0.12596600  0.87403400  0.37403400  1
  Li  Li1  1  0.24667400  0.74667400  0.75332600  1
  Li  Li2  1  0.25332600  0.25332600  0.25332600  1
  Li  Li3  1  0.37403400  0.12596600  0.87403400  1
  Li  Li4  1  0.62596600  0.62596600  0.62596600  1
  Li  Li5  1  0.74667400  0.75332600  0.24667400  1
  Li  Li6  1  0.75332600  0.24667400  0.74667400  1
  Li  Li7  1  0.87403400  0.37403400  0.12596600  1
  Ti  Ti0  1  0.11641900  0.62180000  0.12840200  1
  Ti  Ti1  1  0.12180000  0.37159800  0.88358100  1
  Ti  Ti2  1  0.12840200  0.11641900  0.62180000  1
  Ti  Ti3  1  0.37159800  0.88358100  0.12180000  1
  Ti  Ti4  1  0.37820000  0.62840200  0.38358100  1
  Ti  Ti5  1  0.38358100  0.37820000  0.62840200  1
  Ti  Ti6  1  0.61641900  0.87820000  0.87159800  1
  Ti  Ti7  1  0.62180000  0.12840200  0.11641900  1
  Ti  Ti8  1  0.62840200  0.38358100  0.37820000  1
  Ti  Ti9  1  0.87159800  0.61641900  0.87820000  1
  Ti  Ti10  1  0.87820000  0.87159800  0.61641900  1
  Ti  Ti11  1  0.88358100  0.12180000  0.37159800  1
  Fe  Fe0  1  0.00154600  0.49845400  0.50154600  1
  Fe  Fe1  1  0.49845400  0.50154600  0.00154600  1
  Fe  Fe2  1  0.50154600  0.00154600  0.49845400  1
  Fe  Fe3  1  0.99845400  0.99845400  0.99845400  1
  O  O0  1  0.10334600  0.12681800  0.39049800  1
  O  O1  1  0.10950200  0.89665400  0.62681800  1
  O  O2  1  0.11067300  0.61067300  0.88932700  1
  O  O3  1  0.12681800  0.39049800  0.10334600  1
  O  O4  1  0.12227500  0.14611800  0.85895000  1
  O  O5  1  0.13860000  0.36140000  0.63860000  1
  O  O6  1  0.14105000  0.62227500  0.35388200  1
  O  O7  1  0.14611800  0.85895000  0.12227500  1
  O  O8  1  0.35388200  0.14105000  0.62227500  1
  O  O9  1  0.35895000  0.37772500  0.85388200  1
  O  O10  1  0.36140000  0.63860000  0.13860000  1
  O  O11  1  0.37772500  0.85388200  0.35895000  1
  O  O12  1  0.37318200  0.60950200  0.60334600  1
  O  O13  1  0.38932700  0.38932700  0.38932700  1
  O  O14  1  0.39049800  0.10334600  0.12681800  1
  O  O15  1  0.39665400  0.87318200  0.89049800  1
  O  O16  1  0.60334600  0.37318200  0.60950200  1
  O  O17  1  0.60950200  0.60334600  0.37318200  1
  O  O18  1  0.61067300  0.88932700  0.11067300  1
  O  O19  1  0.62681800  0.10950200  0.89665400  1
  O  O20  1  0.62227500  0.35388200  0.14105000  1
  O  O21  1  0.63860000  0.13860000  0.36140000  1
  O  O22  1  0.64105000  0.87772500  0.64611800  1
  O  O23  1  0.64611800  0.64105000  0.87772500  1
  O  O24  1  0.85388200  0.35895000  0.37772500  1
  O  O25  1  0.85895000  0.12227500  0.14611800  1
  O  O26  1  0.86140000  0.86140000  0.86140000  1
  O  O27  1  0.87772500  0.64611800  0.64105000  1
  O  O28  1  0.87318200  0.89049800  0.39665400  1
  O  O29  1  0.88932700  0.11067300  0.61067300  1
  O  O30  1  0.89049800  0.39665400  0.87318200  1
  O  O31  1  0.89665400  0.62681800  0.10950200  1
loop_
_geom_bond_atom_site_label_1
_geom_bond_atom_site_label_2
_geom_bond_distance
_geom_bond_site_symmetry_2
Li0 O11 2.149727 1_555
Li0 O7 2.149727 1_555
Li0 O6 2.149727 1_555
Li0 O28 2.160885 1_455
Li0 O1 2.160885 1_555
Li0 O0 2.160885 1_565
Li1 O2 2.001433 1_555
Li1 O12 2.034091 1_555
Li1 O15 2.034091 1_555
Li1 O1 2.034091 1_555
Li2 O13 2.001433 1_555
Li2 O0 2.034091 1_555
Li2 O14 2.034091 1_555
Li2 O3 2.034091 1_555
Li3 O4 2.149727 1_555
Li3 O8 2.149727 1_555
Li3 O9 2.149727 1_555
Li3 O15 2.160885 1_545
Li3 O19 2.160885 1_555
Li3 O14 2.160885 1_556
Li4 O23 2.149727 1_555
Li4 O27 2.149727 1_555
Li4 O22 2.149727 1_555
Li4 O16 2.160885 1_555
Li4 O17 2.160885 1_555
Li4 O12 2.160885 1_555
Li5 O18 2.001433 1_555
Li5 O28 2.034091 1_555
Li5 O17 2.034091 1_555
Li5 O31 2.034091 1_555
Li6 O29 2.001433 1_555
Li6 O16 2.034091 1_555
Li6 O30 2.034091 1_555
Li6 O19 2.034091 1_555
Li7 O24 2.149727 1_555
Li7 O20 2.149727 1_555
Li7 O25 2.149727 1_555
Li7 O30 2.160885 1_554
Li7 O31 2.160885 1_555
Li7 O3 2.160885 1_655
Fe0 O5 2.016929 1_555
Fe0 O27 2.021332 1_455
Fe0 O24 2.021332 1_455
Fe0 O6 2.021332 1_555
Fe1 O10 2.016929 1_555
Fe1 O23 2.021332 1_554
Fe1 O9 2.021332 1_554
Fe1 O20 2.021332 1_555
Fe2 O21 2.016929 1_555
Fe2 O22 2.021332 1_545
Fe2 O11 2.021332 1_545
Fe2 O8 2.021332 1_555
Fe3 O26 2.016929 1_555
Fe3 O4 2.021332 1_665
Fe3 O7 2.021332 1_656
Fe3 O25 2.021332 1_566
O0 Ti11 1.874603 1_455
O0 Ti2 1.978720 1_555
O1 Ti2 1.874603 1_565
O1 Ti10 1.978720 1_455
O2 Ti0 2.034077 1_556
O2 Ti9 2.034077 1_455
O2 Ti1 2.034077 1_555
O3 Ti1 1.874603 1_554
O3 Ti0 1.978720 1_555
O4 Ti1 1.927184 1_555
O4 Ti2 2.031343 1_555
O5 Ti5 2.088160 1_555
O5 Ti2 2.088160 1_555
O5 Ti1 2.088160 1_555
O6 Ti0 1.927184 1_555
O6 Ti4 2.031343 1_555
O7 Ti3 1.927184 1_555
O7 Ti0 2.031343 1_555
O8 Ti2 1.927184 1_555
O8 Ti5 2.031343 1_555
O9 Ti5 1.927184 1_555
O9 Ti1 2.031343 1_555
O10 Ti0 2.088160 1_555
O10 Ti4 2.088160 1_555
O10 Ti3 2.088160 1_555
O11 Ti4 1.927184 1_555
O11 Ti3 2.031343 1_555
O12 Ti4 1.874603 1_555
O12 Ti5 1.978720 1_555
O13 Ti5 2.034077 1_555
O13 Ti4 2.034077 1_555
O13 Ti8 2.034077 1_555
O14 Ti3 1.874603 1_545
O14 Ti7 1.978720 1_555
O15 Ti6 1.874603 1_555
O15 Ti3 1.978720 1_556
O16 Ti5 1.874603 1_555
O16 Ti8 1.978720 1_555
O17 Ti8 1.874603 1_555
O17 Ti4 1.978720 1_555
O18 Ti7 2.034077 1_565
O18 Ti6 2.034077 1_554
O18 Ti3 2.034077 1_555
O19 Ti7 1.874603 1_556
O19 Ti6 1.978720 1_545
O20 Ti7 1.927184 1_555
O20 Ti8 2.031343 1_555
O21 Ti7 2.088160 1_555
O21 Ti8 2.088160 1_555
O21 Ti11 2.088160 1_555
O22 Ti6 1.927184 1_555
O22 Ti10 2.031343 1_555
O23 Ti9 1.927184 1_555
O23 Ti6 2.031343 1_555
O24 Ti8 1.927184 1_555
O24 Ti11 2.031343 1_555
O25 Ti11 1.927184 1_555
O25 Ti7 2.031343 1_555
O26 Ti10 2.088160 1_555
O26 Ti6 2.088160 1_555
O26 Ti9 2.088160 1_555
O27 Ti10 1.927184 1_555
O27 Ti9 2.031343 1_555
O28 Ti10 1.874603 1_555
O28 Ti11 1.978720 1_565
O29 Ti2 2.034077 1_655
O29 Ti10 2.034077 1_545
O29 Ti11 2.034077 1_555
O30 Ti9 1.874603 1_555
O30 Ti1 1.978720 1_655
O31 Ti0 1.874603 1_655
O31 Ti9 1.978720 1_554
