# generated using pymatgen
data_CeVO4
_symmetry_space_group_name_H-M   'P 1'
_cell_length_a   6.24236161
_cell_length_b   7.06201160
_cell_length_c   8.45367700
_cell_angle_alpha   90.00000000
_cell_angle_beta   90.00000000
_cell_angle_gamma   121.00978918
_symmetry_Int_Tables_number   1
_chemical_formula_structural   CeVO4
_chemical_formula_sum   'Ce4 V4 O16'
_cell_volume   319.40668542
_cell_formula_units_Z   4
loop_
 _symmetry_equiv_pos_site_id
 _symmetry_equiv_pos_as_xyz
  1  'x, y, z'
loop_
 _atom_site_type_symbol
 _atom_site_label
 _atom_site_symmetry_multiplicity
 _atom_site_fract_x
 _atom_site_fract_y
 _atom_site_fract_z
 _atom_site_occupancy
  Ce  Ce0  1  0.34107900  0.27916800  0.15320500  1
  Ce  Ce1  1  0.65892100  0.72083200  0.84679500  1
  Ce  Ce2  1  0.84107900  0.77916800  0.34679500  1
  Ce  Ce3  1  0.15892100  0.22083200  0.65320500  1
  V  V0  1  0.65982100  0.23626600  0.84797100  1
  V  V1  1  0.84017900  0.26373400  0.34797100  1
  V  V2  1  0.15982100  0.73626600  0.65202900  1
  V  V3  1  0.34017900  0.76373400  0.15202900  1
  O  O0  1  0.85595300  0.28060200  0.55369000  1
  O  O1  1  0.58573700  0.65148100  0.12309300  1
  O  O2  1  0.08573700  0.15148100  0.37690700  1
  O  O3  1  0.10825500  0.46029100  0.20398100  1
  O  O4  1  0.36697800  0.59884700  0.65902800  1
  O  O5  1  0.60825500  0.96029100  0.29601900  1
  O  O6  1  0.91426300  0.84851900  0.62309300  1
  O  O7  1  0.13302200  0.90115300  0.15902800  1
  O  O8  1  0.41426300  0.34851900  0.87690700  1
  O  O9  1  0.86697800  0.09884700  0.84097200  1
  O  O10  1  0.64404700  0.21939800  0.05369000  1
  O  O11  1  0.39174500  0.03970900  0.70398100  1
  O  O12  1  0.89174500  0.53970900  0.79601900  1
  O  O13  1  0.14404700  0.71939800  0.44631000  1
  O  O14  1  0.35595300  0.78060200  0.94631000  1
  O  O15  1  0.63302200  0.40115300  0.34097200  1
loop_
_geom_bond_atom_site_label_1
_geom_bond_atom_site_label_2
_geom_bond_distance
_geom_bond_site_symmetry_2
Ce0 O15 2.228291 1_555
Ce0 O1 2.274397 1_555
Ce0 O7 2.289822 1_545
Ce0 O10 2.298956 1_555
Ce0 O2 2.334326 1_555
Ce0 O8 2.381950 1_554
Ce0 O3 2.418278 1_555
Ce1 O4 2.228291 1_555
Ce1 O8 2.274397 1_555
Ce1 O9 2.289822 1_565
Ce1 O14 2.298956 1_555
Ce1 O6 2.334326 1_555
Ce1 O1 2.381950 1_556
Ce1 O12 2.418278 1_555
Ce2 O7 2.228291 1_655
Ce2 O2 2.274397 1_665
Ce2 O15 2.289822 1_555
Ce2 O13 2.298956 1_655
Ce2 O1 2.334326 1_555
Ce2 O6 2.381950 1_555
Ce2 O5 2.418278 1_555
Ce3 O9 2.228291 1_455
Ce3 O6 2.274397 1_445
Ce3 O4 2.289822 1_555
Ce3 O0 2.298956 1_455
Ce3 O8 2.334326 1_555
Ce3 O2 2.381950 1_555
Ce3 O11 2.418278 1_555
O0 V1 1.742471 1_555
O1 V3 2.071226 1_555
O2 V1 2.071226 1_455
O3 V3 1.919463 1_555
O3 V1 1.953311 1_455
O4 V2 1.977516 1_555
O5 V1 1.919463 1_565
O5 V3 1.953311 1_555
O6 V2 2.071226 1_655
O7 V3 1.977516 1_555
O8 V0 2.071226 1_555
O9 V0 1.977516 1_555
O10 V0 1.742471 1_554
O11 V2 1.919463 1_545
O11 V0 1.953311 1_555
O12 V0 1.919463 1_555
O12 V2 1.953311 1_655
O13 V2 1.742471 1_555
O14 V3 1.742471 1_556
O15 V1 1.977516 1_555
