# generated using pymatgen
data_Sb
_symmetry_space_group_name_H-M   'P 1'
_cell_length_a   6.30616191
_cell_length_b   6.30615956
_cell_length_c   7.02155823
_cell_angle_alpha   116.68322494
_cell_angle_beta   116.68319627
_cell_angle_gamma   89.99999180
_symmetry_Int_Tables_number   1
_chemical_formula_structural   Sb
_chemical_formula_sum   Sb8
_cell_volume   215.69490822
_cell_formula_units_Z   8
loop_
 _symmetry_equiv_pos_site_id
 _symmetry_equiv_pos_as_xyz
  1  'x, y, z'
loop_
 _atom_site_type_symbol
 _atom_site_label
 _atom_site_symmetry_multiplicity
 _atom_site_fract_x
 _atom_site_fract_y
 _atom_site_fract_z
 _atom_site_occupancy
  Sb  Sb0_0  1  0.00000000  0.00000000  0.00000000  1
  Sb  Sb0_1  1  0.00000000  0.00000000  0.50000000  1
  Sb  Sb0_2  1  0.00000000  0.50000000  0.00000000  1
  Sb  Sb0_3  1  0.00000000  0.50000000  0.50000000  1
  Sb  Sb0_4  1  0.50000000  0.00000000  0.00000000  1
  Sb  Sb0_5  1  0.50000000  0.00000000  0.50000000  1
  Sb  Sb0_6  1  0.50000000  0.50000000  0.00000000  1
  Sb  Sb0_7  1  0.50000000  0.50000000  0.50000000  1
loop_
_geom_bond_atom_site_label_1
_geom_bond_atom_site_label_2
_geom_bond_distance
_geom_bond_site_symmetry_2
Sb0_0 Sb0_2 3.153080 1_555
Sb0_0 Sb0_2 3.153080 1_545
Sb0_0 Sb0_4 3.153081 1_555
Sb0_0 Sb0_4 3.153081 1_455
Sb0_1 Sb0_3 3.153080 1_545
Sb0_1 Sb0_3 3.153080 1_555
Sb0_1 Sb0_5 3.153081 1_455
Sb0_1 Sb0_5 3.153081 1_555
Sb0_2 Sb0_6 3.153081 1_455
Sb0_2 Sb0_6 3.153081 1_555
Sb0_3 Sb0_7 3.153081 1_555
Sb0_3 Sb0_7 3.153081 1_455
Sb0_4 Sb0_6 3.153080 1_545
Sb0_4 Sb0_6 3.153080 1_555
Sb0_5 Sb0_7 3.153080 1_555
Sb0_5 Sb0_7 3.153080 1_545
