# generated using pymatgen
data_YMg6Cr
_symmetry_space_group_name_H-M   'P 1'
_cell_length_a   5.08271700
_cell_length_b   6.50419800
_cell_length_c   11.28944700
_cell_angle_alpha   90.00000000
_cell_angle_beta   90.00000000
_cell_angle_gamma   90.00000000
_symmetry_Int_Tables_number   1
_chemical_formula_structural   YMg6Cr
_chemical_formula_sum   'Y2 Mg12 Cr2'
_cell_volume   373.21780293
_cell_formula_units_Z   2
loop_
 _symmetry_equiv_pos_site_id
 _symmetry_equiv_pos_as_xyz
  1  'x, y, z'
loop_
 _atom_site_type_symbol
 _atom_site_label
 _atom_site_symmetry_multiplicity
 _atom_site_fract_x
 _atom_site_fract_y
 _atom_site_fract_z
 _atom_site_occupancy
  Y  Y0  1  0.00000000  0.50000000  0.32590900  1
  Y  Y1  1  0.00000000  0.00000000  0.82590900  1
  Mg  Mg0  1  0.00000000  0.26001700  0.08059200  1
  Mg  Mg1  1  0.00000000  0.73998300  0.08059200  1
  Mg  Mg2  1  0.00000000  0.00000000  0.33761300  1
  Mg  Mg3  1  0.50000000  0.75517000  0.42157400  1
  Mg  Mg4  1  0.50000000  0.24483000  0.42157400  1
  Mg  Mg5  1  0.50000000  0.00000000  0.16681100  1
  Mg  Mg6  1  0.00000000  0.76001700  0.58059200  1
  Mg  Mg7  1  0.00000000  0.23998300  0.58059200  1
  Mg  Mg8  1  0.00000000  0.50000000  0.83761300  1
  Mg  Mg9  1  0.50000000  0.25517000  0.92157400  1
  Mg  Mg10  1  0.50000000  0.74483000  0.92157400  1
  Mg  Mg11  1  0.50000000  0.50000000  0.66681100  1
  Cr  Cr0  1  0.50000000  0.50000000  0.16533500  1
  Cr  Cr1  1  0.50000000  0.00000000  0.66533500  1
loop_
_geom_bond_atom_site_label_1
_geom_bond_atom_site_label_2
_geom_bond_distance
_geom_bond_site_symmetry_2
Mg0 Mg9 3.111644 1_554
Mg0 Mg9 3.111644 1_454
Mg0 Mg1 3.121794 1_555
Mg0 Mg8 3.156103 1_554
Mg0 Y0 3.179071 1_555
Mg0 Mg5 3.204077 1_555
Mg0 Mg5 3.204077 1_455
Mg0 Y1 3.335733 1_554
Mg0 Mg2 3.358510 1_555
Mg0 Mg1 3.382404 1_545
Mg1 Mg10 3.111644 1_554
Mg1 Mg10 3.111644 1_454
Mg1 Mg8 3.156103 1_554
Mg1 Y0 3.179071 1_555
Mg1 Mg5 3.204077 1_565
Mg1 Mg5 3.204077 1_465
Mg1 Y1 3.335733 1_564
Mg1 Mg2 3.358510 1_565
Mg2 Mg4 3.145279 1_455
Mg2 Mg3 3.145279 1_545
Mg2 Mg3 3.145279 1_445
Mg2 Mg4 3.145279 1_555
Mg2 Mg7 3.156103 1_555
Mg2 Mg6 3.156103 1_545
Mg2 Mg5 3.190092 1_455
Mg2 Mg5 3.190092 1_555
Mg2 Y0 3.254782 1_555
Mg2 Y0 3.254782 1_545
Mg3 Mg6 3.111644 1_555
Mg3 Mg6 3.111644 1_655
Mg3 Mg4 3.184846 1_565
Mg3 Y0 3.221714 1_555
Mg3 Y0 3.221714 1_655
Mg3 Mg5 3.287545 1_565
Mg3 Mg4 3.319352 1_555
Mg4 Mg7 3.111644 1_655
Mg4 Mg7 3.111644 1_555
Mg4 Y0 3.221714 1_555
Mg4 Y0 3.221714 1_655
Mg4 Mg5 3.287545 1_555
Mg5 Mg9 3.227943 1_554
Mg6 Mg7 3.121794 1_565
Mg6 Y1 3.179071 1_565
Mg6 Y0 3.335733 1_555
Mg6 Mg8 3.358510 1_555
Mg6 Mg7 3.382404 1_555
Mg7 Y1 3.179071 1_555
Mg7 Y0 3.335733 1_555
Mg7 Mg8 3.358510 1_555
Mg8 Mg9 3.145279 1_455
Mg8 Mg9 3.145279 1_555
Mg8 Y1 3.254782 1_565
Mg8 Y1 3.254782 1_555
Mg9 Y1 3.221714 1_655
Mg9 Y1 3.221714 1_555
Mg10 Mg8 3.145279 1_555
Mg10 Mg8 3.145279 1_655
Mg10 Mg9 3.184846 1_555
Mg10 Y1 3.221714 1_565
Mg10 Y1 3.221714 1_665
Mg10 Mg5 3.227943 1_566
Mg10 Mg11 3.287545 1_555
Mg10 Mg9 3.319352 1_565
Mg11 Mg8 3.190092 1_555
Mg11 Mg8 3.190092 1_655
Mg11 Mg6 3.204077 1_555
Mg11 Mg6 3.204077 1_655
Mg11 Mg7 3.204077 1_555
Mg11 Mg7 3.204077 1_655
Mg11 Mg3 3.227943 1_555
Mg11 Mg4 3.227943 1_555
Mg11 Mg9 3.287545 1_555
Cr0 Y0 3.121653 1_655
Cr0 Y0 3.121653 1_555
Cr0 Mg1 3.132121 1_555
Cr0 Mg1 3.132121 1_655
Cr0 Mg0 3.132121 1_655
Cr0 Mg0 3.132121 1_555
Cr0 Mg9 3.179452 1_554
Cr0 Mg10 3.179452 1_554
Cr0 Mg5 3.252142 1_555
Cr0 Mg5 3.252142 1_565
Cr0 Mg4 3.335086 1_555
Cr0 Mg3 3.335086 1_555
Cr1 Y1 3.121653 1_555
Cr1 Y1 3.121653 1_655
Cr1 Mg7 3.132121 1_555
Cr1 Mg7 3.132121 1_655
Cr1 Mg6 3.132121 1_545
Cr1 Mg6 3.132121 1_645
Cr1 Mg3 3.179452 1_545
Cr1 Mg4 3.179452 1_555
Cr1 Mg11 3.252142 1_555
Cr1 Mg11 3.252142 1_545
Cr1 Mg10 3.335086 1_545
Cr1 Mg9 3.335086 1_555
