# generated using pymatgen
data_Mn5(Bi2Pd)2
_symmetry_space_group_name_H-M   'P 1'
_cell_length_a   8.74530009
_cell_length_b   8.74530009
_cell_length_c   8.74530009
_cell_angle_alpha   60.00000000
_cell_angle_beta   60.00000000
_cell_angle_gamma   60.00000000
_symmetry_Int_Tables_number   1
_chemical_formula_structural   Mn5(Bi2Pd)2
_chemical_formula_sum   'Mn10 Bi8 Pd4'
_cell_volume   472.94338202
_cell_formula_units_Z   2
loop_
 _symmetry_equiv_pos_site_id
 _symmetry_equiv_pos_as_xyz
  1  'x, y, z'
loop_
 _atom_site_type_symbol
 _atom_site_label
 _atom_site_symmetry_multiplicity
 _atom_site_fract_x
 _atom_site_fract_y
 _atom_site_fract_z
 _atom_site_occupancy
  Mn  Mn0  1  0.24944700  0.24944700  0.75055300  1
  Mn  Mn1  1  0.75055300  0.24944700  0.75055300  1
  Mn  Mn2  1  0.24944700  0.75055300  0.75055300  1
  Mn  Mn3  1  0.75055300  0.75055300  0.24944700  1
  Mn  Mn4  1  0.24944700  0.75055300  0.24944700  1
  Mn  Mn5  1  0.75055300  0.24944700  0.24944700  1
  Mn  Mn6  1  0.15230500  0.15230500  0.54308500  1
  Mn  Mn7  1  0.15230500  0.54308500  0.15230500  1
  Mn  Mn8  1  0.54308500  0.15230500  0.15230500  1
  Mn  Mn9  1  0.15230500  0.15230500  0.15230500  1
  Bi  Bi0  1  0.95966000  0.95966000  0.54034000  1
  Bi  Bi1  1  0.54034000  0.95966000  0.54034000  1
  Bi  Bi2  1  0.95966000  0.54034000  0.54034000  1
  Bi  Bi3  1  0.54034000  0.54034000  0.95966000  1
  Bi  Bi4  1  0.95966000  0.54034000  0.95966000  1
  Bi  Bi5  1  0.54034000  0.95966000  0.95966000  1
  Bi  Bi6  1  0.00000000  0.00000000  0.00000000  1
  Bi  Bi7  1  0.50000000  0.50000000  0.50000000  1
  Pd  Pd0  1  0.36796500  0.36796500  0.89610500  1
  Pd  Pd1  1  0.36796500  0.89610500  0.36796500  1
  Pd  Pd2  1  0.89610500  0.36796500  0.36796500  1
  Pd  Pd3  1  0.36796500  0.36796500  0.36796500  1
loop_
_geom_bond_atom_site_label_1
_geom_bond_atom_site_label_2
_geom_bond_distance
_geom_bond_site_symmetry_2
Mn0 Pd0 2.735280 1_555
Mn0 Pd3 2.735280 1_555
Mn0 Mn9 2.922297 1_556
Mn0 Mn6 2.922297 1_555
Mn1 Pd0 2.735280 1_555
Mn1 Pd2 2.735280 1_555
Mn1 Mn6 2.922297 1_655
Mn1 Mn8 2.922297 1_556
Mn2 Pd0 2.735280 1_555
Mn2 Pd1 2.735280 1_555
Mn2 Mn7 2.922297 1_556
Mn2 Mn6 2.922297 1_565
Mn3 Pd1 2.735280 1_555
Mn3 Pd2 2.735280 1_555
Mn3 Mn8 2.922297 1_565
Mn3 Mn7 2.922297 1_655
Mn4 Pd1 2.735280 1_555
Mn4 Pd3 2.735280 1_555
Mn4 Mn9 2.922297 1_565
Mn4 Mn7 2.922297 1_555
Mn5 Pd2 2.735280 1_555
Mn5 Pd3 2.735280 1_555
Mn5 Mn9 2.922297 1_655
Mn5 Mn8 2.922297 1_555
Mn6 Pd3 2.690683 1_555
Mn6 Pd2 2.690683 1_455
Mn6 Pd1 2.690683 1_545
Mn7 Pd3 2.690683 1_555
Mn7 Pd2 2.690683 1_455
Mn7 Pd0 2.690683 1_554
Mn8 Pd3 2.690683 1_555
Mn8 Pd1 2.690683 1_545
Mn8 Pd0 2.690683 1_554
Mn9 Pd2 2.690683 1_455
Mn9 Pd1 2.690683 1_545
Mn9 Pd0 2.690683 1_554
Bi0 Mn6 2.931978 1_665
Bi0 Mn9 2.931978 1_665
Bi0 Pd1 2.966826 1_655
Bi0 Pd2 2.966826 1_565
Bi0 Mn4 3.131932 1_655
Bi0 Mn2 3.131932 1_655
Bi0 Mn5 3.131932 1_565
Bi0 Mn1 3.131932 1_565
Bi1 Mn6 2.931978 1_565
Bi1 Mn8 2.931978 1_565
Bi1 Pd3 2.966826 1_565
Bi1 Pd1 2.966826 1_555
Bi1 Mn2 3.131932 1_555
Bi1 Mn5 3.131932 1_565
Bi1 Mn3 3.131932 1_555
Bi1 Mn0 3.131932 1_565
Bi2 Mn7 2.931978 1_655
Bi2 Mn6 2.931978 1_655
Bi2 Pd3 2.966826 1_655
Bi2 Pd2 2.966826 1_555
Bi2 Mn0 3.131932 1_655
Bi2 Mn1 3.131932 1_555
Bi2 Mn4 3.131932 1_655
Bi2 Mn3 3.131932 1_555
Bi3 Mn7 2.931978 1_556
Bi3 Mn8 2.931978 1_556
Bi3 Pd3 2.966826 1_556
Bi3 Pd0 2.966826 1_555
Bi3 Mn4 3.131932 1_556
Bi3 Mn1 3.131932 1_555
Bi3 Mn2 3.131932 1_555
Bi3 Mn5 3.131932 1_556
Bi4 Mn7 2.931978 1_656
Bi4 Mn9 2.931978 1_656
Bi4 Pd0 2.966826 1_655
Bi4 Pd2 2.966826 1_556
Bi4 Mn5 3.131932 1_556
Bi4 Mn2 3.131932 1_655
Bi4 Mn3 3.131932 1_556
Bi4 Mn0 3.131932 1_655
Bi5 Mn9 2.931978 1_566
Bi5 Mn8 2.931978 1_566
Bi5 Pd0 2.966826 1_565
Bi5 Pd1 2.966826 1_556
Bi5 Mn4 3.131932 1_556
Bi5 Mn0 3.131932 1_565
Bi5 Mn1 3.131932 1_565
Bi5 Mn3 3.131932 1_556
Bi6 Mn1 3.085091 1_454
Bi6 Mn3 3.085091 1_445
Bi6 Mn2 3.085091 1_544
Bi6 Mn4 3.085091 1_545
Bi6 Mn0 3.085091 1_554
Bi6 Mn5 3.085091 1_455
Bi6 Mn8 3.262605 1_455
Bi6 Mn7 3.262605 1_545
Bi6 Mn9 3.262605 1_555
Bi6 Mn6 3.262605 1_554
Bi7 Pd1 2.828391 1_555
Bi7 Pd2 2.828391 1_555
Bi7 Pd3 2.828391 1_555
Bi7 Pd0 2.828391 1_555
Bi7 Mn2 3.098770 1_555
Bi7 Mn3 3.098770 1_555
Bi7 Mn0 3.098770 1_555
Bi7 Mn4 3.098770 1_555
Bi7 Mn1 3.098770 1_555
Bi7 Mn5 3.098770 1_555
