# generated using pymatgen
data_CoH8Se2(ClO4)2
_symmetry_space_group_name_H-M   'P 1'
_cell_length_a   18.06900700
_cell_length_b   5.19973300
_cell_length_c   7.23846973
_cell_angle_alpha   79.59253464
_cell_angle_beta   90.00000000
_cell_angle_gamma   90.00000000
_symmetry_Int_Tables_number   1
_chemical_formula_structural   CoH8Se2(ClO4)2
_chemical_formula_sum   'Co2 H16 Se4 Cl4 O16'
_cell_volume   668.89450168
_cell_formula_units_Z   2
loop_
 _symmetry_equiv_pos_site_id
 _symmetry_equiv_pos_as_xyz
  1  'x, y, z'
loop_
 _atom_site_type_symbol
 _atom_site_label
 _atom_site_symmetry_multiplicity
 _atom_site_fract_x
 _atom_site_fract_y
 _atom_site_fract_z
 _atom_site_occupancy
  Co  Co0  1  0.50000000  0.00000000  0.00000000  1
  Co  Co1  1  0.00000000  0.00000000  0.50000000  1
  H  H0  1  0.84942600  0.86244400  0.20978600  1
  H  H1  1  0.38212600  0.22225500  0.86477300  1
  H  H2  1  0.04184500  0.75387800  0.14777100  1
  H  H3  1  0.54184500  0.24612200  0.35222900  1
  H  H4  1  0.42245600  0.47070000  0.93350000  1
  H  H5  1  0.07754400  0.47070000  0.43350000  1
  H  H6  1  0.95815500  0.24612200  0.85222900  1
  H  H7  1  0.15057400  0.13755600  0.79021400  1
  H  H8  1  0.45815500  0.75387800  0.64777100  1
  H  H9  1  0.57754400  0.52930000  0.06650000  1
  H  H10  1  0.11787400  0.22225500  0.36477300  1
  H  H11  1  0.88212600  0.77774500  0.63522700  1
  H  H12  1  0.61787400  0.77774500  0.13522700  1
  H  H13  1  0.65057400  0.86244400  0.70978600  1
  H  H14  1  0.34942600  0.13755600  0.29021400  1
  H  H15  1  0.92245600  0.52930000  0.56650000  1
  Se  Se0  1  0.69432200  0.64964300  0.63945600  1
  Se  Se1  1  0.30567800  0.35035700  0.36054400  1
  Se  Se2  1  0.19432200  0.35035700  0.86054400  1
  Se  Se3  1  0.80567800  0.64964300  0.13945600  1
  Cl  Cl0  1  0.41502100  0.58015000  0.35827000  1
  Cl  Cl1  1  0.08497900  0.58015000  0.85827000  1
  Cl  Cl2  1  0.91502100  0.41985000  0.14173000  1
  Cl  Cl3  1  0.58497900  0.41985000  0.64173000  1
  O  O0  1  0.91235700  0.72911100  0.53490700  1
  O  O1  1  0.06116300  0.89390300  0.20872000  1
  O  O2  1  0.06669900  0.76235600  0.40879400  1
  O  O3  1  0.41235700  0.27088900  0.96509300  1
  O  O4  1  0.43330100  0.76235600  0.90879400  1
  O  O5  1  0.71138200  0.78997300  0.41816100  1
  O  O6  1  0.08764300  0.27088900  0.46509300  1
  O  O7  1  0.93330100  0.23764400  0.59120600  1
  O  O8  1  0.43883700  0.89390300  0.70872000  1
  O  O9  1  0.56669900  0.23764400  0.09120600  1
  O  O10  1  0.28861800  0.21002700  0.58183900  1
  O  O11  1  0.78861800  0.78997300  0.91816100  1
  O  O12  1  0.93883700  0.10609700  0.79128000  1
  O  O13  1  0.58764300  0.72911100  0.03490700  1
  O  O14  1  0.21138200  0.21002700  0.08183900  1
  O  O15  1  0.56116300  0.10609700  0.29128000  1
loop_
_geom_bond_atom_site_label_1
_geom_bond_atom_site_label_2
_geom_bond_distance
_geom_bond_site_symmetry_2
Co0 O9 1.926131 1_555
Co0 O4 1.926131 1_544
Co0 O13 2.104075 1_545
Co0 O3 2.104075 1_554
Co1 O7 1.926131 1_455
Co1 O2 1.926131 1_545
Co1 O6 2.104075 1_555
Co1 O0 2.104075 1_445
H0 Se3 1.520495 1_555
H1 O3 0.977749 1_555
H2 O1 0.981148 1_555
H3 O15 0.981148 1_555
H4 O3 1.038845 1_555
H4 O4 1.507405 1_555
H5 O6 1.038845 1_555
H5 O2 1.507405 1_555
H6 O12 0.981148 1_555
H7 Se2 1.520495 1_555
H8 O8 0.981148 1_555
H9 O13 1.038845 1_555
H9 O9 1.507405 1_555
H10 O6 0.977749 1_555
H11 O0 0.977749 1_555
H12 O13 0.977749 1_555
H13 Se0 1.520495 1_555
H14 Se1 1.520495 1_555
H15 O0 1.038845 1_555
H15 O7 1.507405 1_555
Cl0 Se1 2.307451 1_555
Cl1 Se2 2.307451 1_555
Cl2 Se3 2.307451 1_555
Cl3 Se0 2.307451 1_555
O1 O2 1.489075 1_555
O4 O8 1.489075 1_555
O5 Se0 1.664646 1_555
O10 Se1 1.664646 1_555
O11 Se3 1.664646 1_556
O12 O7 1.489075 1_555
O14 Se2 1.664646 1_554
O15 O9 1.489075 1_555
