# generated using pymatgen
data_Hf3(Mn2Si3)2
_symmetry_space_group_name_H-M   'P 1'
_cell_length_a   16.95296300
_cell_length_b   16.95296300
_cell_length_c   5.03105200
_cell_angle_alpha   90.00000000
_cell_angle_beta   90.00000000
_cell_angle_gamma   90.00000000
_symmetry_Int_Tables_number   1
_chemical_formula_structural   Hf3(Mn2Si3)2
_chemical_formula_sum   'Hf24 Mn32 Si48'
_cell_volume   1445.93920894
_cell_formula_units_Z   8
loop_
 _symmetry_equiv_pos_site_id
 _symmetry_equiv_pos_as_xyz
  1  'x, y, z'
loop_
 _atom_site_type_symbol
 _atom_site_label
 _atom_site_symmetry_multiplicity
 _atom_site_fract_x
 _atom_site_fract_y
 _atom_site_fract_z
 _atom_site_occupancy
  Hf  Hf0  1  0.20995800  0.47249300  0.00000000  1
  Hf  Hf1  1  0.79004200  0.52750700  0.00000000  1
  Hf  Hf2  1  0.47249300  0.79004200  0.50000000  1
  Hf  Hf3  1  0.70995800  0.02750700  0.00000000  1
  Hf  Hf4  1  0.52750700  0.20995800  0.50000000  1
  Hf  Hf5  1  0.29004200  0.97249300  0.00000000  1
  Hf  Hf6  1  0.97249300  0.70995800  0.50000000  1
  Hf  Hf7  1  0.02750700  0.29004200  0.50000000  1
  Hf  Hf8  1  0.29823600  0.28321300  0.00000000  1
  Hf  Hf9  1  0.70176400  0.71678700  0.00000000  1
  Hf  Hf10  1  0.28321300  0.70176400  0.50000000  1
  Hf  Hf11  1  0.79823600  0.21678700  0.00000000  1
  Hf  Hf12  1  0.71678700  0.29823600  0.50000000  1
  Hf  Hf13  1  0.20176400  0.78321300  0.00000000  1
  Hf  Hf14  1  0.78321300  0.79823600  0.50000000  1
  Hf  Hf15  1  0.21678700  0.20176400  0.50000000  1
  Hf  Hf16  1  0.10143100  0.20332600  0.00000000  1
  Hf  Hf17  1  0.89856900  0.79667400  0.00000000  1
  Hf  Hf18  1  0.20332600  0.89856900  0.50000000  1
  Hf  Hf19  1  0.60143100  0.29667400  0.00000000  1
  Hf  Hf20  1  0.79667400  0.10143100  0.50000000  1
  Hf  Hf21  1  0.39856900  0.70332600  0.00000000  1
  Hf  Hf22  1  0.70332600  0.60143100  0.50000000  1
  Hf  Hf23  1  0.29667400  0.39856900  0.50000000  1
  Mn  Mn0  1  0.12490300  0.62490300  0.25000000  1
  Mn  Mn1  1  0.87509700  0.37509700  0.75000000  1
  Mn  Mn2  1  0.87509700  0.37509700  0.25000000  1
  Mn  Mn3  1  0.62490300  0.87509700  0.75000000  1
  Mn  Mn4  1  0.12490300  0.62490300  0.75000000  1
  Mn  Mn5  1  0.37509700  0.12490300  0.25000000  1
  Mn  Mn6  1  0.37509700  0.12490300  0.75000000  1
  Mn  Mn7  1  0.62490300  0.87509700  0.25000000  1
  Mn  Mn8  1  0.15496100  0.05178000  0.24995000  1
  Mn  Mn9  1  0.84503900  0.94822000  0.75005000  1
  Mn  Mn10  1  0.84503900  0.94822000  0.24995000  1
  Mn  Mn11  1  0.05178000  0.84503900  0.74995000  1
  Mn  Mn12  1  0.65496100  0.44822000  0.75005000  1
  Mn  Mn13  1  0.15496100  0.05178000  0.75005000  1
  Mn  Mn14  1  0.94822000  0.15496100  0.25005000  1
  Mn  Mn15  1  0.34503900  0.55178000  0.24995000  1
  Mn  Mn16  1  0.94822000  0.15496100  0.74995000  1
  Mn  Mn17  1  0.34503900  0.55178000  0.75005000  1
  Mn  Mn18  1  0.05178000  0.84503900  0.25005000  1
  Mn  Mn19  1  0.65496100  0.44822000  0.24995000  1
  Mn  Mn20  1  0.55178000  0.65496100  0.25005000  1
  Mn  Mn21  1  0.44822000  0.34503900  0.74995000  1
  Mn  Mn22  1  0.44822000  0.34503900  0.25005000  1
  Mn  Mn23  1  0.55178000  0.65496100  0.74995000  1
  Mn  Mn24  1  0.03971700  0.38502500  0.00000000  1
  Mn  Mn25  1  0.96028300  0.61497500  0.00000000  1
  Mn  Mn26  1  0.38502500  0.96028300  0.50000000  1
  Mn  Mn27  1  0.53971700  0.11497500  0.00000000  1
  Mn  Mn28  1  0.61497500  0.03971700  0.50000000  1
  Mn  Mn29  1  0.46028300  0.88502500  0.00000000  1
  Mn  Mn30  1  0.88502500  0.53971700  0.50000000  1
  Mn  Mn31  1  0.11497500  0.46028300  0.50000000  1
  Si  Si0  1  0.43536900  0.02165700  0.00000000  1
  Si  Si1  1  0.56463100  0.97834300  0.00000000  1
  Si  Si2  1  0.02165700  0.56463100  0.50000000  1
  Si  Si3  1  0.93536900  0.47834300  0.00000000  1
  Si  Si4  1  0.97834300  0.43536900  0.50000000  1
  Si  Si5  1  0.06463100  0.52165700  0.00000000  1
  Si  Si6  1  0.52165700  0.93536900  0.50000000  1
  Si  Si7  1  0.47834300  0.06463100  0.50000000  1
  Si  Si8  1  0.03078600  0.06214600  0.00000000  1
  Si  Si9  1  0.96921400  0.93785400  0.00000000  1
  Si  Si10  1  0.06214600  0.96921400  0.50000000  1
  Si  Si11  1  0.53078600  0.43785400  0.00000000  1
  Si  Si12  1  0.93785400  0.03078600  0.50000000  1
  Si  Si13  1  0.46921400  0.56214600  0.00000000  1
  Si  Si14  1  0.56214600  0.53078600  0.50000000  1
  Si  Si15  1  0.43785400  0.46921400  0.50000000  1
  Si  Si16  1  0.36284700  0.43086700  0.00000000  1
  Si  Si17  1  0.63715300  0.56913300  0.00000000  1
  Si  Si18  1  0.43086700  0.63715300  0.50000000  1
  Si  Si19  1  0.86284700  0.06913300  0.00000000  1
  Si  Si20  1  0.56913300  0.36284700  0.50000000  1
  Si  Si21  1  0.13715300  0.93086700  0.00000000  1
  Si  Si22  1  0.93086700  0.86284700  0.50000000  1
  Si  Si23  1  0.06913300  0.13715300  0.50000000  1
  Si  Si24  1  0.45163500  0.22423200  0.00000000  1
  Si  Si25  1  0.54836500  0.77576800  0.00000000  1
  Si  Si26  1  0.22423200  0.54836500  0.50000000  1
  Si  Si27  1  0.95163500  0.27576800  0.00000000  1
  Si  Si28  1  0.77576800  0.45163500  0.50000000  1
  Si  Si29  1  0.04836500  0.72423200  0.00000000  1
  Si  Si30  1  0.72423200  0.95163500  0.50000000  1
  Si  Si31  1  0.27576800  0.04836500  0.50000000  1
  Si  Si32  1  0.66055800  0.16055800  0.25000000  1
  Si  Si33  1  0.33944200  0.83944200  0.75000000  1
  Si  Si34  1  0.33944200  0.83944200  0.25000000  1
  Si  Si35  1  0.16055800  0.33944200  0.75000000  1
  Si  Si36  1  0.66055800  0.16055800  0.75000000  1
  Si  Si37  1  0.83944200  0.66055800  0.25000000  1
  Si  Si38  1  0.83944200  0.66055800  0.75000000  1
  Si  Si39  1  0.16055800  0.33944200  0.25000000  1
  Si  Si40  1  0.24893600  0.13049400  0.00000000  1
  Si  Si41  1  0.75106400  0.86950600  0.00000000  1
  Si  Si42  1  0.13049400  0.75106400  0.50000000  1
  Si  Si43  1  0.74893600  0.36950600  0.00000000  1
  Si  Si44  1  0.86950600  0.24893600  0.50000000  1
  Si  Si45  1  0.25106400  0.63049400  0.00000000  1
  Si  Si46  1  0.63049400  0.74893600  0.50000000  1
  Si  Si47  1  0.36950600  0.25106400  0.50000000  1
loop_
_geom_bond_atom_site_label_1
_geom_bond_atom_site_label_2
_geom_bond_distance
_geom_bond_site_symmetry_2
Hf0 Si5 2.600887 1_555
Hf0 Si16 2.686270 1_555
Hf0 Si35 2.714978 1_554
Hf0 Si39 2.714978 1_555
Hf0 Si45 2.767751 1_555
Hf0 Si26 2.835645 1_555
Hf0 Si26 2.835645 1_554
Hf1 Si3 2.600887 1_555
Hf1 Si17 2.686270 1_555
Hf1 Si38 2.714978 1_554
Hf1 Si37 2.714978 1_555
Hf1 Si43 2.767751 1_555
Hf1 Si28 2.835645 1_555
Hf1 Si28 2.835645 1_554
Hf2 Si6 2.600887 1_555
Hf2 Si18 2.686270 1_555
Hf2 Si33 2.714978 1_555
Hf2 Si34 2.714978 1_555
Hf2 Si46 2.767751 1_555
Hf2 Si25 2.835645 1_555
Hf2 Si25 2.835645 1_556
Hf3 Si1 2.600887 1_545
Hf3 Si19 2.686270 1_555
Hf3 Si36 2.714978 1_554
Hf3 Si32 2.714978 1_555
Hf3 Si41 2.767751 1_545
Hf3 Si30 2.835645 1_544
Hf3 Si30 2.835645 1_545
Hf4 Si7 2.600887 1_555
Hf4 Si20 2.686270 1_555
Hf4 Si32 2.714978 1_555
Hf4 Si36 2.714978 1_555
Hf4 Si47 2.767751 1_555
Hf4 Si24 2.835645 1_556
Hf4 Si24 2.835645 1_555
Hf5 Si0 2.600887 1_565
Hf5 Si21 2.686270 1_555
Hf5 Si34 2.714978 1_555
Hf5 Si33 2.714978 1_554
Hf5 Si40 2.767751 1_565
Hf5 Si31 2.835645 1_565
Hf5 Si31 2.835645 1_564
Hf6 Si2 2.600887 1_655
Hf6 Si22 2.686270 1_555
Hf6 Si37 2.714978 1_555
Hf6 Si38 2.714978 1_555
Hf6 Si42 2.767751 1_655
Hf6 Si29 2.835645 1_655
Hf6 Si29 2.835645 1_656
Hf7 Si4 2.600887 1_455
Hf7 Si23 2.686270 1_555
Hf7 Si35 2.714978 1_555
Hf7 Si39 2.714978 1_555
Hf7 Si44 2.767751 1_455
Hf7 Si27 2.835645 1_456
Hf7 Si27 2.835645 1_455
Hf8 Si40 2.720598 1_555
Hf8 Si16 2.732336 1_555
Hf8 Si24 2.786172 1_555
Hf8 Si35 2.817524 1_554
Hf8 Si39 2.817524 1_555
Hf8 Si47 2.843371 1_555
Hf8 Si47 2.843371 1_554
Hf9 Si41 2.720598 1_555
Hf9 Si17 2.732336 1_555
Hf9 Si25 2.786172 1_555
Hf9 Si38 2.817524 1_554
Hf9 Si37 2.817524 1_555
Hf9 Si46 2.843371 1_554
Hf9 Si46 2.843371 1_555
Hf10 Si42 2.720598 1_555
Hf10 Si18 2.732336 1_555
Hf10 Si26 2.786172 1_555
Hf10 Si33 2.817524 1_555
Hf10 Si34 2.817524 1_555
Hf10 Si45 2.843371 1_555
Hf10 Si45 2.843371 1_556
Hf11 Si43 2.720598 1_555
Hf11 Si19 2.732336 1_555
Hf11 Si27 2.786172 1_555
Hf11 Si36 2.817524 1_554
Hf11 Si32 2.817524 1_555
Hf11 Si44 2.843371 1_554
Hf11 Si44 2.843371 1_555
Hf12 Si44 2.720598 1_555
Hf12 Si20 2.732336 1_555
Hf12 Si28 2.786172 1_555
Hf12 Si32 2.817524 1_555
Hf12 Si36 2.817524 1_555
Hf12 Si43 2.843371 1_555
Hf12 Si43 2.843371 1_556
Hf13 Si45 2.720598 1_555
Hf13 Si21 2.732336 1_555
Hf13 Si29 2.786172 1_555
Hf13 Si34 2.817524 1_555
Hf13 Si33 2.817524 1_554
Hf13 Si42 2.843371 1_554
Hf13 Si42 2.843371 1_555
Hf14 Si46 2.720598 1_555
Hf14 Si22 2.732336 1_555
Hf14 Si30 2.786172 1_555
Hf14 Si38 2.817524 1_555
Hf14 Si37 2.817524 1_555
Hf14 Si41 2.843371 1_556
Hf14 Si41 2.843371 1_555
Hf15 Si47 2.720598 1_555
Hf15 Si23 2.732336 1_555
Hf15 Si31 2.786172 1_555
Hf15 Si39 2.817524 1_555
Hf15 Si35 2.817524 1_555
Hf15 Si40 2.843371 1_555
Hf15 Si40 2.843371 1_556
Hf16 Si8 2.676341 1_555
Hf16 Si40 2.788864 1_555
Hf16 Si23 2.808234 1_555
Hf16 Si23 2.808234 1_554
Hf16 Si35 2.812758 1_554
Hf16 Si39 2.812758 1_555
Hf16 Si27 2.820857 1_455
Hf17 Si9 2.676341 1_555
Hf17 Si41 2.788864 1_555
Hf17 Si22 2.808234 1_555
Hf17 Si22 2.808234 1_554
Hf17 Si38 2.812758 1_554
Hf17 Si37 2.812758 1_555
Hf17 Si29 2.820857 1_655
Hf18 Si10 2.676341 1_555
Hf18 Si42 2.788864 1_555
Hf18 Si21 2.808234 1_555
Hf18 Si21 2.808234 1_556
Hf18 Si33 2.812758 1_555
Hf18 Si34 2.812758 1_555
Hf18 Si31 2.820857 1_565
Hf19 Si11 2.676341 1_555
Hf19 Si43 2.788864 1_555
Hf19 Si20 2.808234 1_555
Hf19 Si20 2.808234 1_554
Hf19 Si36 2.812758 1_554
Hf19 Si32 2.812758 1_555
Hf19 Si24 2.820857 1_555
Hf20 Si12 2.676341 1_555
Hf20 Si44 2.788864 1_555
Hf20 Si19 2.808234 1_556
Hf20 Si19 2.808234 1_555
Hf20 Si32 2.812758 1_555
Hf20 Si36 2.812758 1_555
Hf20 Si30 2.820857 1_545
Hf21 Si13 2.676341 1_555
Hf21 Si45 2.788864 1_555
Hf21 Si18 2.808234 1_554
Hf21 Si18 2.808234 1_555
Hf21 Si34 2.812758 1_555
Hf21 Si33 2.812758 1_554
Hf21 Si25 2.820857 1_555
Hf22 Si14 2.676341 1_555
Hf22 Si46 2.788864 1_555
Hf22 Si17 2.808234 1_556
Hf22 Si17 2.808234 1_555
Hf22 Si38 2.812758 1_555
Hf22 Si37 2.812758 1_555
Hf22 Si28 2.820857 1_555
Hf23 Si15 2.676341 1_555
Hf23 Si47 2.788864 1_555
Hf23 Si16 2.808234 1_556
Hf23 Si16 2.808234 1_555
Hf23 Si39 2.812758 1_555
Hf23 Si35 2.812758 1_555
Hf23 Si26 2.820857 1_555
Mn0 Si2 2.385301 1_555
Mn0 Si5 2.385301 1_555
Mn0 Si29 2.470057 1_555
Mn0 Si26 2.470057 1_555
Mn0 Si42 2.483028 1_555
Mn0 Si45 2.483028 1_555
Mn1 Si3 2.385301 1_556
Mn1 Si4 2.385301 1_555
Mn1 Si27 2.470057 1_556
Mn1 Si28 2.470057 1_555
Mn1 Si44 2.483028 1_555
Mn1 Si43 2.483028 1_556
Mn2 Si3 2.385301 1_555
Mn2 Si4 2.385301 1_555
Mn2 Si27 2.470057 1_555
Mn2 Si28 2.470057 1_555
Mn2 Si44 2.483028 1_555
Mn2 Si43 2.483028 1_555
Mn3 Si1 2.385301 1_556
Mn3 Si6 2.385301 1_555
Mn3 Si30 2.470057 1_555
Mn3 Si25 2.470057 1_556
Mn3 Si41 2.483028 1_556
Mn3 Si46 2.483028 1_555
Mn4 Si2 2.385301 1_555
Mn4 Si5 2.385301 1_556
Mn4 Si26 2.470057 1_555
Mn4 Si29 2.470057 1_556
Mn4 Si42 2.483028 1_555
Mn4 Si45 2.483028 1_556
Mn5 Si7 2.385301 1_555
Mn5 Si0 2.385301 1_555
Mn5 Si31 2.470057 1_555
Mn5 Si24 2.470057 1_555
Mn5 Si40 2.483028 1_555
Mn5 Si47 2.483028 1_555
Mn6 Si7 2.385301 1_555
Mn6 Si0 2.385301 1_556
Mn6 Si31 2.470057 1_555
Mn6 Si24 2.470057 1_556
Mn6 Si40 2.483028 1_556
Mn6 Si47 2.483028 1_555
Mn7 Si1 2.385301 1_555
Mn7 Si6 2.385301 1_555
Mn7 Si30 2.470057 1_555
Mn7 Si25 2.470057 1_555
Mn7 Si41 2.483028 1_555
Mn7 Si46 2.483028 1_555
Mn8 Si31 2.404248 1_555
Mn8 Si23 2.407175 1_555
Mn8 Si21 2.423695 1_545
Mn8 Si40 2.429032 1_555
Mn8 Si10 2.453108 1_545
Mn8 Si8 2.458416 1_555
Mn9 Si30 2.404248 1_555
Mn9 Si22 2.407175 1_555
Mn9 Si19 2.423695 1_566
Mn9 Si41 2.429032 1_556
Mn9 Si12 2.453108 1_565
Mn9 Si9 2.458416 1_556
Mn10 Si30 2.404248 1_555
Mn10 Si22 2.407175 1_555
Mn10 Si19 2.423695 1_565
Mn10 Si41 2.429032 1_555
Mn10 Si12 2.453108 1_565
Mn10 Si9 2.458416 1_555
Mn11 Si29 2.404248 1_556
Mn11 Si21 2.407175 1_556
Mn11 Si22 2.423695 1_455
Mn11 Si42 2.429032 1_555
Mn11 Si9 2.453108 1_456
Mn11 Si10 2.458416 1_555
Mn12 Si28 2.404248 1_555
Mn12 Si20 2.407175 1_555
Mn12 Si17 2.423695 1_556
Mn12 Si43 2.429032 1_556
Mn12 Si14 2.453108 1_555
Mn12 Si11 2.458416 1_556
Mn13 Si31 2.404248 1_555
Mn13 Si23 2.407175 1_555
Mn13 Si21 2.423695 1_546
Mn13 Si40 2.429032 1_556
Mn13 Si10 2.453108 1_545
Mn13 Si8 2.458416 1_556
Mn14 Si27 2.404248 1_555
Mn14 Si19 2.407175 1_555
Mn14 Si23 2.423695 1_655
Mn14 Si44 2.429032 1_555
Mn14 Si8 2.453108 1_655
Mn14 Si12 2.458416 1_555
Mn15 Si26 2.404248 1_555
Mn15 Si18 2.407175 1_555
Mn15 Si16 2.423695 1_555
Mn15 Si45 2.429032 1_555
Mn15 Si15 2.453108 1_555
Mn15 Si13 2.458416 1_555
Mn16 Si27 2.404248 1_556
Mn16 Si19 2.407175 1_556
Mn16 Si23 2.423695 1_655
Mn16 Si44 2.429032 1_555
Mn16 Si8 2.453108 1_656
Mn16 Si12 2.458416 1_555
Mn17 Si26 2.404248 1_555
Mn17 Si18 2.407175 1_555
Mn17 Si16 2.423695 1_556
Mn17 Si45 2.429032 1_556
Mn17 Si15 2.453108 1_555
Mn17 Si13 2.458416 1_556
Mn18 Si29 2.404248 1_555
Mn18 Si21 2.407175 1_555
Mn18 Si22 2.423695 1_455
Mn18 Si42 2.429032 1_555
Mn18 Si9 2.453108 1_455
Mn18 Si10 2.458416 1_555
Mn19 Si28 2.404248 1_555
Mn19 Si20 2.407175 1_555
Mn19 Si17 2.423695 1_555
Mn19 Si43 2.429032 1_555
Mn19 Si14 2.453108 1_555
Mn19 Si11 2.458416 1_555
Mn20 Si25 2.404248 1_555
Mn20 Si17 2.407175 1_555
Mn20 Si18 2.423695 1_555
Mn20 Si46 2.429032 1_555
Mn20 Si13 2.453108 1_555
Mn20 Si14 2.458416 1_555
Mn21 Si24 2.404248 1_556
Mn21 Si16 2.407175 1_556
Mn21 Si20 2.423695 1_555
Mn21 Si47 2.429032 1_555
Mn21 Si11 2.453108 1_556
Mn21 Si15 2.458416 1_555
Mn22 Si24 2.404248 1_555
Mn22 Si16 2.407175 1_555
Mn22 Si20 2.423695 1_555
Mn22 Si47 2.429032 1_555
Mn22 Si11 2.453108 1_555
Mn22 Si15 2.458416 1_555
Mn23 Si25 2.404248 1_556
Mn23 Si17 2.407175 1_556
Mn23 Si18 2.423695 1_555
Mn23 Si46 2.429032 1_555
Mn23 Si13 2.453108 1_556
Mn23 Si14 2.458416 1_555
Mn24 Si5 2.354510 1_555
Mn24 Si3 2.373218 1_455
Mn24 Si27 2.379192 1_455
Mn24 Si39 2.525065 1_555
Mn24 Si35 2.525065 1_554
Mn25 Si3 2.354510 1_555
Mn25 Si5 2.373218 1_655
Mn25 Si29 2.379192 1_655
Mn25 Si38 2.525065 1_554
Mn25 Si37 2.525065 1_555
Mn26 Si6 2.354510 1_555
Mn26 Si7 2.373218 1_565
Mn26 Si31 2.379192 1_565
Mn26 Si33 2.525065 1_555
Mn26 Si34 2.525065 1_555
Mn27 Si1 2.354510 1_545
Mn27 Si0 2.373218 1_555
Mn27 Si24 2.379192 1_555
Mn27 Si36 2.525065 1_554
Mn27 Si32 2.525065 1_555
Mn28 Si7 2.354510 1_555
Mn28 Si6 2.373218 1_545
Mn28 Si30 2.379192 1_545
Mn28 Si32 2.525065 1_555
Mn28 Si36 2.525065 1_555
Mn29 Si0 2.354510 1_565
Mn29 Si1 2.373218 1_555
Mn29 Si25 2.379192 1_555
Mn29 Si34 2.525065 1_555
Mn29 Si33 2.525065 1_554
Mn30 Si2 2.354510 1_655
Mn30 Si4 2.373218 1_555
Mn30 Si28 2.379192 1_555
Mn30 Si38 2.525065 1_555
Mn30 Si37 2.525065 1_555
Mn31 Si4 2.354510 1_455
Mn31 Si2 2.373218 1_555
Mn31 Si26 2.379192 1_555
Mn31 Si35 2.525065 1_555
Mn31 Si39 2.525065 1_555
Si8 Si9 2.351493 1_445
Si10 Si12 2.351493 1_465
Si11 Si13 2.351493 1_555
Si14 Si15 2.351493 1_555
Si32 Si36 2.515526 1_554
Si32 Si36 2.515526 1_555
Si33 Si34 2.515526 1_556
Si33 Si34 2.515526 1_555
Si35 Si39 2.515526 1_556
Si35 Si39 2.515526 1_555
Si37 Si38 2.515526 1_555
Si37 Si38 2.515526 1_554
