# generated using pymatgen
data_Pr6ZnFe13
_symmetry_space_group_name_H-M   'P 1'
_cell_length_a   8.09714900
_cell_length_b   8.09714900
_cell_length_c   12.91748298
_cell_angle_alpha   108.26535180
_cell_angle_beta   108.26535180
_cell_angle_gamma   90.00000000
_symmetry_Int_Tables_number   1
_chemical_formula_structural   Pr6ZnFe13
_chemical_formula_sum   'Pr12 Zn2 Fe26'
_cell_volume   759.18106521
_cell_formula_units_Z   2
loop_
 _symmetry_equiv_pos_site_id
 _symmetry_equiv_pos_as_xyz
  1  'x, y, z'
loop_
 _atom_site_type_symbol
 _atom_site_label
 _atom_site_symmetry_multiplicity
 _atom_site_fract_x
 _atom_site_fract_y
 _atom_site_fract_z
 _atom_site_occupancy
  Pr  Pr0  1  0.97636000  0.47636000  0.62487900  1
  Pr  Pr1  1  0.64852000  0.14852000  0.62487900  1
  Pr  Pr2  1  0.14852000  0.97636000  0.62487900  1
  Pr  Pr3  1  0.47636000  0.64852000  0.62487900  1
  Pr  Pr4  1  0.02364000  0.52364000  0.37512100  1
  Pr  Pr5  1  0.35148000  0.85148000  0.37512100  1
  Pr  Pr6  1  0.85148000  0.02364000  0.37512100  1
  Pr  Pr7  1  0.52364000  0.35148000  0.37512100  1
  Pr  Pr8  1  0.60711900  0.60711900  0.21423800  1
  Pr  Pr9  1  0.10711900  0.10711900  0.21423800  1
  Pr  Pr10  1  0.39288100  0.39288100  0.78576200  1
  Pr  Pr11  1  0.89288100  0.89288100  0.78576200  1
  Zn  Zn0  1  0.25000000  0.25000000  0.50000000  1
  Zn  Zn1  1  0.75000000  0.75000000  0.50000000  1
  Fe  Fe0  1  0.11932100  0.61932100  0.88167800  1
  Fe  Fe1  1  0.76235700  0.26235700  0.88167800  1
  Fe  Fe2  1  0.26235700  0.11932100  0.88167800  1
  Fe  Fe3  1  0.61932100  0.76235700  0.88167800  1
  Fe  Fe4  1  0.88067900  0.38067900  0.11832200  1
  Fe  Fe5  1  0.23764300  0.73764300  0.11832200  1
  Fe  Fe6  1  0.73764300  0.88067900  0.11832200  1
  Fe  Fe7  1  0.38067900  0.23764300  0.11832200  1
  Fe  Fe8  1  0.71032400  0.56645000  0.00000000  1
  Fe  Fe9  1  0.28967600  0.43355000  0.00000000  1
  Fe  Fe10  1  0.78967600  0.06645000  0.00000000  1
  Fe  Fe11  1  0.21032400  0.93355000  0.00000000  1
  Fe  Fe12  1  0.56645000  0.28967600  0.00000000  1
  Fe  Fe13  1  0.43355000  0.71032400  0.00000000  1
  Fe  Fe14  1  0.06645000  0.21032400  0.00000000  1
  Fe  Fe15  1  0.93355000  0.78967600  0.00000000  1
  Fe  Fe16  1  0.29200400  0.79200400  0.81087100  1
  Fe  Fe17  1  0.51886700  0.01886700  0.81087100  1
  Fe  Fe18  1  0.01886700  0.29200400  0.81087100  1
  Fe  Fe19  1  0.79200400  0.51886700  0.81087100  1
  Fe  Fe20  1  0.70799600  0.20799600  0.18912900  1
  Fe  Fe21  1  0.48113300  0.98113300  0.18912900  1
  Fe  Fe22  1  0.98113300  0.70799600  0.18912900  1
  Fe  Fe23  1  0.20799600  0.48113300  0.18912900  1
  Fe  Fe24  1  0.00000000  0.50000000  0.00000000  1
  Fe  Fe25  1  0.50000000  0.00000000  0.00000000  1
loop_
_geom_bond_atom_site_label_1
_geom_bond_atom_site_label_2
_geom_bond_distance
_geom_bond_site_symmetry_2
Pr0 Zn0 3.355299 1_655
Pr0 Zn1 3.355299 1_555
Pr0 Pr4 3.500029 1_655
Pr0 Pr11 3.554928 1_555
Pr0 Pr10 3.554928 1_655
Pr0 Pr1 3.754128 1_555
Pr0 Pr6 3.925625 1_555
Pr0 Pr7 3.925625 1_555
Pr1 Zn1 3.355302 1_545
Pr1 Zn0 3.355302 1_555
Pr1 Pr5 3.500042 1_545
Pr1 Pr10 3.554932 1_555
Pr1 Pr11 3.554932 1_545
Pr1 Pr6 3.925614 1_555
Pr1 Pr7 3.925614 1_555
Pr2 Zn0 3.355296 1_565
Pr2 Zn1 3.355305 1_455
Pr2 Pr6 3.500036 1_465
Pr2 Pr3 3.754128 1_555
Pr2 Pr5 3.925614 1_555
Pr2 Pr4 3.925625 1_555
Pr3 Zn1 3.355296 1_555
Pr3 Zn0 3.355305 1_555
Pr3 Pr7 3.500036 1_555
Pr3 Pr5 3.925614 1_555
Pr3 Pr4 3.925625 1_555
Pr4 Zn1 3.355299 1_455
Pr4 Zn0 3.355299 1_555
Pr4 Pr8 3.554928 1_455
Pr4 Pr9 3.554928 1_555
Pr4 Pr5 3.754128 1_555
Pr5 Zn1 3.355302 1_555
Pr5 Zn0 3.355302 1_565
Pr5 Pr9 3.554932 1_565
Pr5 Pr8 3.554932 1_555
Pr6 Zn1 3.355296 1_545
Pr6 Zn0 3.355305 1_655
Pr6 Pr8 3.554925 1_545
Pr6 Pr9 3.554935 1_655
Pr6 Pr7 3.754128 1_555
Pr7 Zn0 3.355296 1_555
Pr7 Zn1 3.355305 1_555
Pr7 Pr9 3.554925 1_555
Pr7 Pr8 3.554935 1_555
Pr8 Zn1 3.308915 1_555
Pr9 Zn0 3.308915 1_555
Pr10 Zn0 3.308915 1_555
Pr10 Pr2 3.554925 1_545
Pr10 Pr3 3.554935 1_555
Pr11 Zn1 3.308915 1_555
Pr11 Pr3 3.554925 1_555
Pr11 Pr2 3.554935 1_655
Fe0 Fe24 2.460550 1_556
Fe0 Fe11 2.491819 1_556
Fe0 Fe13 2.491819 1_556
Fe0 Fe16 2.519931 1_555
Fe0 Fe18 2.556675 1_555
Fe0 Fe19 2.556675 1_455
Fe0 Fe15 2.573140 1_456
Fe0 Fe9 2.573140 1_556
Fe0 Fe5 2.740164 1_556
Fe0 Pr0 2.978216 1_455
Fe0 Pr11 3.178001 1_455
Fe0 Pr10 3.178001 1_555
Fe1 Fe24 2.460550 1_656
Fe1 Fe12 2.491819 1_556
Fe1 Fe10 2.491819 1_556
Fe1 Fe17 2.519931 1_555
Fe1 Fe19 2.556675 1_555
Fe1 Fe18 2.556675 1_655
Fe1 Fe8 2.573140 1_556
Fe1 Fe14 2.573140 1_656
Fe1 Fe4 2.740164 1_556
Fe1 Pr1 2.978217 1_555
Fe1 Pr10 3.178001 1_555
Fe1 Pr11 3.178001 1_545
Fe2 Fe25 2.460550 1_556
Fe2 Fe9 2.491819 1_556
Fe2 Fe7 2.740164 1_556
Fe2 Pr2 2.978216 1_545
Fe2 Pr11 3.178000 1_445
Fe2 Pr10 3.178001 1_555
Fe3 Fe8 2.491819 1_556
Fe3 Fe6 2.740164 1_556
Fe3 Pr3 2.978216 1_555
Fe3 Pr10 3.178000 1_555
Fe3 Pr11 3.178001 1_555
Fe4 Fe8 2.573140 1_555
Fe4 Pr4 2.978216 1_655
Fe4 Pr8 3.178001 1_555
Fe4 Pr9 3.178001 1_655
Fe5 Fe9 2.573140 1_555
Fe5 Pr5 2.978217 1_555
Fe5 Pr8 3.178001 1_555
Fe5 Pr9 3.178001 1_565
Fe6 Fe8 2.491819 1_555
Fe6 Pr6 2.978216 1_565
Fe6 Pr9 3.178000 1_665
Fe6 Pr8 3.178001 1_555
Fe7 Fe9 2.491819 1_555
Fe7 Pr7 2.978216 1_555
Fe7 Pr8 3.178000 1_555
Fe7 Pr9 3.178001 1_555
Fe8 Pr10 3.056757 1_554
Fe8 Pr8 3.056757 1_555
Fe9 Pr8 3.056757 1_555
Fe9 Pr10 3.056757 1_554
Fe10 Fe25 2.406472 1_555
Fe10 Fe4 2.491819 1_555
Fe10 Fe14 2.525786 1_655
Fe10 Fe15 2.525786 1_545
Fe10 Fe12 2.556183 1_555
Fe10 Fe3 2.573140 1_544
Fe10 Fe6 2.573140 1_545
Fe10 Fe17 2.641450 1_554
Fe10 Fe20 2.641450 1_555
Fe10 Pr9 3.056757 1_655
Fe10 Pr11 3.056757 1_544
Fe11 Fe25 2.406472 1_565
Fe11 Fe5 2.491819 1_555
Fe11 Fe14 2.525786 1_565
Fe11 Fe15 2.525786 1_455
Fe11 Fe13 2.556183 1_555
Fe11 Fe7 2.573140 1_565
Fe11 Fe2 2.573140 1_564
Fe11 Fe21 2.641450 1_555
Fe11 Fe16 2.641450 1_554
Fe11 Pr11 3.056757 1_454
Fe11 Pr9 3.056757 1_565
Fe12 Fe25 2.406472 1_555
Fe12 Fe4 2.491819 1_555
Fe12 Fe8 2.525786 1_555
Fe12 Fe9 2.525786 1_555
Fe12 Fe2 2.573140 1_554
Fe12 Fe7 2.573140 1_555
Fe12 Fe17 2.641450 1_554
Fe12 Fe20 2.641450 1_555
Fe12 Pr8 3.056757 1_555
Fe12 Pr10 3.056757 1_554
Fe13 Fe25 2.406472 1_565
Fe13 Fe5 2.491819 1_555
Fe13 Fe8 2.525786 1_555
Fe13 Fe9 2.525786 1_555
Fe13 Fe6 2.573140 1_555
Fe13 Fe3 2.573140 1_554
Fe13 Fe21 2.641450 1_555
Fe13 Fe16 2.641450 1_554
Fe13 Pr10 3.056757 1_554
Fe13 Pr8 3.056757 1_555
Fe14 Fe24 2.406472 1_555
Fe14 Fe7 2.491819 1_555
Fe14 Fe2 2.491819 1_554
Fe14 Fe9 2.556183 1_555
Fe14 Fe4 2.573140 1_455
Fe14 Fe23 2.641450 1_555
Fe14 Fe18 2.641450 1_554
Fe14 Pr11 3.056757 1_444
Fe14 Pr9 3.056757 1_555
Fe15 Fe24 2.406472 1_655
Fe15 Fe3 2.491819 1_554
Fe15 Fe6 2.491819 1_555
Fe15 Fe8 2.556183 1_555
Fe15 Fe5 2.573140 1_655
Fe15 Fe19 2.641450 1_554
Fe15 Fe22 2.641450 1_555
Fe15 Pr9 3.056757 1_665
Fe15 Pr11 3.056757 1_554
Fe16 Fe25 2.546207 1_566
Fe16 Fe3 2.556675 1_555
Fe16 Fe2 2.556675 1_565
Fe16 Fe17 2.597830 1_565
Fe16 Pr3 3.138276 1_555
Fe16 Pr2 3.138276 1_555
Fe16 Pr10 3.275006 1_555
Fe16 Pr11 3.275006 1_455
Fe16 Pr0 3.337438 1_455
Fe17 Fe25 2.546208 1_556
Fe17 Fe2 2.556675 1_555
Fe17 Fe3 2.556675 1_545
Fe17 Pr3 3.138272 1_545
Fe17 Pr2 3.138272 1_545
Fe17 Pr11 3.275006 1_545
Fe17 Pr10 3.275006 1_555
Fe17 Pr1 3.337447 1_555
Fe18 Fe2 2.519931 1_555
Fe18 Fe24 2.546208 1_556
Fe18 Fe19 2.597830 1_455
Fe18 Fe9 2.641450 1_556
Fe18 Pr1 3.138270 1_455
Fe18 Pr0 3.138277 1_455
Fe18 Pr11 3.275006 1_445
Fe18 Pr10 3.275006 1_555
Fe18 Pr2 3.337442 1_545
Fe19 Fe3 2.519931 1_555
Fe19 Fe24 2.546208 1_656
Fe19 Fe8 2.641450 1_556
Fe19 Pr1 3.138270 1_555
Fe19 Pr0 3.138277 1_555
Fe19 Pr10 3.275006 1_555
Fe19 Pr11 3.275006 1_555
Fe19 Pr3 3.337442 1_555
Fe20 Fe4 2.519931 1_555
Fe20 Fe25 2.546207 1_555
Fe20 Fe6 2.556675 1_545
Fe20 Fe7 2.556675 1_555
Fe20 Fe21 2.597830 1_545
Fe20 Pr7 3.138276 1_555
Fe20 Pr6 3.138276 1_555
Fe20 Pr9 3.275006 1_655
Fe20 Pr8 3.275006 1_555
Fe20 Pr4 3.337438 1_655
Fe21 Fe5 2.519931 1_555
Fe21 Fe25 2.546208 1_565
Fe21 Fe6 2.556675 1_555
Fe21 Fe7 2.556675 1_565
Fe21 Pr6 3.138272 1_565
Fe21 Pr7 3.138272 1_565
Fe21 Pr8 3.275006 1_555
Fe21 Pr9 3.275006 1_565
Fe21 Pr5 3.337447 1_555
Fe22 Fe6 2.519931 1_555
Fe22 Fe24 2.546208 1_655
Fe22 Fe4 2.556675 1_555
Fe22 Fe5 2.556675 1_655
Fe22 Fe23 2.597830 1_655
Fe22 Fe8 2.641450 1_555
Fe22 Pr5 3.138270 1_655
Fe22 Pr4 3.138277 1_655
Fe22 Pr9 3.275006 1_665
Fe22 Pr8 3.275006 1_555
Fe22 Pr6 3.337442 1_565
Fe23 Fe7 2.519931 1_555
Fe23 Fe24 2.546208 1_555
Fe23 Fe4 2.556675 1_455
Fe23 Fe5 2.556675 1_555
Fe23 Fe9 2.641450 1_555
Fe23 Pr5 3.138270 1_555
Fe23 Pr4 3.138277 1_555
Fe23 Pr8 3.275006 1_555
Fe23 Pr9 3.275006 1_555
Fe23 Pr7 3.337442 1_555
Fe24 Fe9 2.406472 1_555
Fe24 Fe8 2.406472 1_455
Fe24 Fe5 2.460550 1_555
Fe24 Fe4 2.460550 1_455
Fe25 Fe6 2.460550 1_545
Fe25 Fe7 2.460550 1_555
Fe25 Fe3 2.460550 1_544
