# generated using pymatgen
data_Ca(CrS2)2
_symmetry_space_group_name_H-M   'P 1'
_cell_length_a   7.37625196
_cell_length_b   7.37625196
_cell_length_c   7.37625196
_cell_angle_alpha   120.46737656
_cell_angle_beta   119.20530513
_cell_angle_gamma   90.28715829
_symmetry_Int_Tables_number   1
_chemical_formula_structural   Ca(CrS2)2
_chemical_formula_sum   'Ca2 Cr4 S8'
_cell_volume   284.44209098
_cell_formula_units_Z   2
loop_
 _symmetry_equiv_pos_site_id
 _symmetry_equiv_pos_as_xyz
  1  'x, y, z'
loop_
 _atom_site_type_symbol
 _atom_site_label
 _atom_site_symmetry_multiplicity
 _atom_site_fract_x
 _atom_site_fract_y
 _atom_site_fract_z
 _atom_site_occupancy
  Ca  Ca0  1  0.50000000  0.50000000  0.00000000  1
  Ca  Ca1  1  0.00000000  0.50000000  0.50000000  1
  Cr  Cr0  1  0.87747900  0.12747900  0.75000000  1
  Cr  Cr1  1  0.12252100  0.87252100  0.25000000  1
  Cr  Cr2  1  0.50000000  0.50000000  0.50000000  1
  Cr  Cr3  1  0.50000000  0.00000000  0.00000000  1
  S  S0  1  0.28779700  0.76319000  0.52460700  1
  S  S1  1  0.73858300  0.76319000  0.97539300  1
  S  S2  1  0.26595900  0.78343400  0.01747600  1
  S  S3  1  0.71220300  0.23681000  0.47539300  1
  S  S4  1  0.73404100  0.75151700  0.51747600  1
  S  S5  1  0.26141700  0.23681000  0.02460700  1
  S  S6  1  0.26595900  0.24848300  0.48252400  1
  S  S7  1  0.73404100  0.21656600  0.98252400  1
loop_
_geom_bond_atom_site_label_1
_geom_bond_atom_site_label_2
_geom_bond_distance
_geom_bond_site_symmetry_2
Ca0 S2 2.710697 1_555
Ca0 S7 2.710697 1_554
Ca0 S4 2.710702 1_555
Ca0 S6 2.710702 1_554
Ca0 S5 2.744756 1_555
Ca0 S1 2.744756 1_554
Ca1 S7 2.710702 1_454
Ca1 S2 2.710702 1_556
Ca1 S4 2.710702 1_455
Ca1 S6 2.710702 1_555
Ca1 S3 2.744756 1_455
Ca1 S0 2.744756 1_555
Cr0 S7 2.264497 1_555
Cr0 S4 2.264497 1_545
Cr0 S3 2.344378 1_555
Cr0 S5 2.344378 1_656
Cr1 S2 2.264497 1_555
Cr1 S6 2.264497 1_565
Cr1 S1 2.344378 1_454
Cr1 S0 2.344378 1_555
Cr2 S4 2.438657 1_555
Cr2 S6 2.438657 1_555
Cr2 S1 2.490428 1_555
Cr2 S5 2.490428 1_555
Cr2 S0 2.490428 1_555
Cr2 S3 2.490428 1_555
Cr3 S2 2.438662 1_545
Cr3 S7 2.438662 1_554
Cr3 S5 2.490428 1_555
Cr3 S0 2.490428 1_544
Cr3 S1 2.490428 1_544
Cr3 S3 2.490428 1_555
