# generated using pymatgen
data_Zr4NbGa3
_symmetry_space_group_name_H-M   'P 1'
_cell_length_a   5.33488185
_cell_length_b   8.07307334
_cell_length_c   8.07308869
_cell_angle_alpha   83.73091428
_cell_angle_beta   70.71258402
_cell_angle_gamma   70.71266875
_symmetry_Int_Tables_number   1
_chemical_formula_structural   Zr4NbGa3
_chemical_formula_sum   'Zr8 Nb2 Ga6'
_cell_volume   309.76422180
_cell_formula_units_Z   2
loop_
 _symmetry_equiv_pos_site_id
 _symmetry_equiv_pos_as_xyz
  1  'x, y, z'
loop_
 _atom_site_type_symbol
 _atom_site_label
 _atom_site_symmetry_multiplicity
 _atom_site_fract_x
 _atom_site_fract_y
 _atom_site_fract_z
 _atom_site_occupancy
  Zr  Zr0  1  0.72070614  0.86043052  0.69810037  1
  Zr  Zr1  1  0.27929557  0.13956763  0.30189658  1
  Zr  Zr2  1  0.77929109  0.30191932  0.13955549  1
  Zr  Zr3  1  0.22070824  0.69807913  0.86044325  1
  Zr  Zr4  1  0.58120983  0.69805664  0.13956350  1
  Zr  Zr5  1  0.41879362  0.30194359  0.86043702  1
  Zr  Zr6  1  0.08119187  0.13957765  0.69808001  1
  Zr  Zr7  1  0.91880777  0.86042142  0.30192187  1
  Nb  Nb0  1  0.74999616  0.50016366  0.49983678  1
  Nb  Nb1  1  0.25000341  0.49983678  0.50016387  1
  Ga  Ga0  1  0.15863302  0.50000650  0.18283503  1
  Ga  Ga1  1  0.84136375  0.49999613  0.81716550  1
  Ga  Ga2  1  0.34137012  0.81716216  0.49999060  1
  Ga  Ga3  1  0.65862992  0.18283867  0.50000768  1
  Ga  Ga4  1  0.24999938  0.99998226  0.00001946  1
  Ga  Ga5  1  0.75000011  0.00001796  0.99998298  1
loop_
_geom_bond_atom_site_label_1
_geom_bond_atom_site_label_2
_geom_bond_distance
_geom_bond_site_symmetry_2
Nb0 Nb1 2.667404 1_555
Nb0 Nb1 2.667482 1_655
Nb0 Zr7 3.404048 1_555
Nb0 Zr4 3.404061 1_555
Nb0 Zr0 3.405396 1_555
Nb0 Zr2 3.405407 1_555
Nb0 Zr3 3.406789 1_555
Nb0 Zr1 3.406816 1_655
Nb0 Zr5 3.407354 1_555
Nb0 Zr6 3.407371 1_655
Nb1 Zr6 3.404060 1_555
Nb1 Zr5 3.404069 1_555
Nb1 Zr3 3.405384 1_555
Nb1 Zr1 3.405424 1_555
Nb1 Zr0 3.406792 1_455
Nb1 Zr2 3.406803 1_555
Nb1 Zr7 3.407358 1_455
Nb1 Zr4 3.407362 1_555
Ga0 Nb0 2.759565 1_455
Ga0 Nb1 2.761212 1_555
Ga0 Zr3 2.883085 1_554
Ga0 Zr5 2.883363 1_554
Ga0 Zr1 2.892403 1_555
Ga0 Zr7 2.892475 1_455
Ga0 Zr4 3.082153 1_555
Ga0 Zr2 3.082542 1_455
Ga0 Zr2 3.082666 1_555
Ga0 Zr4 3.082697 1_455
Ga1 Nb1 2.759569 1_655
Ga1 Nb0 2.761207 1_555
Ga1 Zr2 2.883090 1_556
Ga1 Zr4 2.883353 1_556
Ga1 Zr0 2.892379 1_555
Ga1 Zr6 2.892498 1_655
Ga1 Zr5 3.082136 1_555
Ga1 Zr3 3.082523 1_655
Ga1 Zr3 3.082651 1_555
Ga1 Zr5 3.082731 1_655
Ga2 Nb0 2.759524 1_555
Ga2 Nb1 2.761165 1_555
Ga2 Zr1 2.883257 1_565
Ga2 Zr6 2.883580 1_565
Ga2 Zr3 2.892557 1_555
Ga2 Zr4 2.892611 1_555
Ga2 Zr7 3.082221 1_455
Ga2 Zr0 3.082620 1_555
Ga2 Zr0 3.082741 1_455
Ga2 Zr7 3.082749 1_555
Ga3 Nb1 2.759520 1_555
Ga3 Nb0 2.761164 1_555
Ga3 Zr0 2.883269 1_545
Ga3 Zr7 2.883577 1_545
Ga3 Zr2 2.892548 1_555
Ga3 Zr5 2.892626 1_555
Ga3 Zr6 3.082238 1_655
Ga3 Zr1 3.082628 1_555
Ga3 Zr1 3.082747 1_655
Ga3 Zr6 3.082762 1_555
Ga4 Ga5 2.667439 1_464
Ga4 Ga5 2.667443 1_564
Ga4 Zr1 2.863810 1_565
Ga4 Zr7 2.863933 1_455
Ga4 Zr3 2.863949 1_554
Ga4 Zr4 2.864026 1_555
Ga4 Zr6 2.864029 1_564
Ga4 Zr5 2.864132 1_564
Ga4 Zr0 2.864181 1_554
Ga4 Zr2 2.864247 1_465
Ga5 Zr0 2.863854 1_545
Ga5 Zr2 2.863920 1_556
Ga5 Zr6 2.863931 1_655
Ga5 Zr5 2.864024 1_555
Ga5 Zr7 2.864028 1_546
Ga5 Zr4 2.864119 1_546
Ga5 Zr1 2.864146 1_556
Ga5 Zr3 2.864261 1_645
