# generated using pymatgen
data_La2ThSe5
_symmetry_space_group_name_H-M   'P 1'
_cell_length_a   7.98034265
_cell_length_b   8.69623077
_cell_length_c   12.68504303
_cell_angle_alpha   90.00000000
_cell_angle_beta   90.00000000
_cell_angle_gamma   90.00000000
_symmetry_Int_Tables_number   1
_chemical_formula_structural   La2ThSe5
_chemical_formula_sum   'La8 Th4 Se20'
_cell_volume   880.32804933
_cell_formula_units_Z   4
loop_
 _symmetry_equiv_pos_site_id
 _symmetry_equiv_pos_as_xyz
  1  'x, y, z'
loop_
 _atom_site_type_symbol
 _atom_site_label
 _atom_site_symmetry_multiplicity
 _atom_site_fract_x
 _atom_site_fract_y
 _atom_site_fract_z
 _atom_site_occupancy
  La  La0  1  0.52436636  0.50011805  0.32248936  1
  La  La1  1  0.97563364  0.99988195  0.82248936  1
  La  La2  1  0.47563364  0.00011805  0.67751064  1
  La  La3  1  0.02436636  0.49988195  0.17751064  1
  La  La4  1  0.47563364  0.49988195  0.67751064  1
  La  La5  1  0.02436636  0.00011805  0.17751064  1
  La  La6  1  0.52436636  0.99988195  0.32248936  1
  La  La7  1  0.97563364  0.50011805  0.82248936  1
  Th  Th0  1  0.07437508  0.75000000  0.49156882  1
  Th  Th1  1  0.42562492  0.75000000  0.99156882  1
  Th  Th2  1  0.92562492  0.25000000  0.50843118  1
  Th  Th3  1  0.57437508  0.25000000  0.00843118  1
  Se  Se0  1  0.83478844  0.95768071  0.59700393  1
  Se  Se1  1  0.66521156  0.54231929  0.09700393  1
  Se  Se2  1  0.16521156  0.45768071  0.40299607  1
  Se  Se3  1  0.33478844  0.04231929  0.90299607  1
  Se  Se4  1  0.16521156  0.04231929  0.40299607  1
  Se  Se5  1  0.33478844  0.45768071  0.90299607  1
  Se  Se6  1  0.83478844  0.54231929  0.59700393  1
  Se  Se7  1  0.66521156  0.95768071  0.09700393  1
  Se  Se8  1  0.83173166  0.75000000  0.31320755  1
  Se  Se9  1  0.66826834  0.75000000  0.81320755  1
  Se  Se10  1  0.16826834  0.25000000  0.68679245  1
  Se  Se11  1  0.33173166  0.25000000  0.18679245  1
  Se  Se12  1  0.45662860  0.75000000  0.49848544  1
  Se  Se13  1  0.04337140  0.75000000  0.99848544  1
  Se  Se14  1  0.54337140  0.25000000  0.50151456  1
  Se  Se15  1  0.95662860  0.25000000  0.00151456  1
  Se  Se16  1  0.19507867  0.75000000  0.71588501  1
  Se  Se17  1  0.30492133  0.75000000  0.21588501  1
  Se  Se18  1  0.80492133  0.25000000  0.28411499  1
  Se  Se19  1  0.69507867  0.25000000  0.78411499  1
loop_
_geom_bond_atom_site_label_1
_geom_bond_atom_site_label_2
_geom_bond_distance
_geom_bond_site_symmetry_2
La0 Se2 3.064977 1_555
La0 Se1 3.095047 1_555
La0 Se17 3.101224 1_555
La0 Se14 3.148202 1_555
La0 Se18 3.159230 1_555
La0 Se12 3.162027 1_555
La0 Se11 3.171309 1_555
La0 Se8 3.279108 1_555
La1 Se3 3.064977 1_665
La1 Se0 3.095047 1_555
La1 Se16 3.101224 1_655
La1 Se15 3.148202 1_566
La1 Se19 3.159230 1_565
La1 Se13 3.162027 1_655
La1 Se10 3.171309 1_665
La1 Se9 3.279108 1_555
La2 Se0 3.064977 1_545
La2 Se3 3.095047 1_555
La2 Se19 3.101224 1_555
La2 Se12 3.148202 1_545
La2 Se16 3.159230 1_545
La2 Se14 3.162027 1_555
La2 Se9 3.171309 1_545
La2 Se10 3.279108 1_555
La3 Se1 3.064977 1_455
La3 Se2 3.095047 1_555
La3 Se18 3.101224 1_455
La3 Se13 3.148202 1_554
La3 Se17 3.159230 1_555
La3 Se15 3.162027 1_455
La3 Se8 3.171309 1_455
La3 Se11 3.279108 1_555
La4 Se6 3.064977 1_555
La4 Se5 3.095047 1_555
La4 Se19 3.101224 1_555
La4 Se12 3.148202 1_555
La4 Se16 3.159230 1_555
La4 Se14 3.162027 1_555
La4 Se9 3.171309 1_555
La4 Se10 3.279108 1_555
La5 Se7 3.064977 1_445
La5 Se4 3.095047 1_555
La5 Se18 3.101224 1_455
La5 Se13 3.148202 1_544
La5 Se17 3.159230 1_545
La5 Se15 3.162027 1_455
La5 Se8 3.171309 1_445
La5 Se11 3.279108 1_555
La6 Se4 3.064977 1_565
La6 Se7 3.095047 1_555
La6 Se17 3.101224 1_555
La6 Se14 3.148202 1_565
La6 Se18 3.159230 1_565
La6 Se12 3.162027 1_555
La6 Se11 3.171309 1_565
La6 Se8 3.279108 1_555
La7 Se5 3.064977 1_655
La7 Se6 3.095047 1_555
La7 Se16 3.101224 1_655
La7 Se15 3.148202 1_556
La7 Se19 3.159230 1_555
La7 Se13 3.162027 1_655
La7 Se10 3.171309 1_655
La7 Se9 3.279108 1_555
Se0 Th2 2.872282 1_565
Se0 Th0 2.950632 1_655
Se1 Th3 2.872282 1_555
Se1 Th1 2.950632 1_554
Se2 Th0 2.872282 1_555
Se2 Th2 2.950632 1_455
Se3 Th1 2.872282 1_545
Se3 Th3 2.950632 1_556
Se4 Th0 2.872282 1_545
Se4 Th2 2.950632 1_455
Se5 Th1 2.872282 1_555
Se5 Th3 2.950632 1_556
Se6 Th2 2.872282 1_555
Se6 Th0 2.950632 1_655
Se7 Th3 2.872282 1_565
Se7 Th1 2.950632 1_554
Se8 Th0 2.978012 1_655
Se9 Th1 2.978012 1_555
Se10 Th2 2.978012 1_455
Se11 Th3 2.978012 1_555
Se12 Th0 3.051776 1_555
Se13 Th1 3.051776 1_555
Se14 Th2 3.051776 1_555
Se15 Th3 3.051776 1_555
Se16 Th0 3.004082 1_555
Se17 Th1 3.004082 1_554
Se18 Th2 3.004082 1_555
Se19 Th3 3.004082 1_556
