# generated using pymatgen
data_YTiNbO6
_symmetry_space_group_name_H-M   'P 1'
_cell_length_a   14.78512600
_cell_length_b   5.24596500
_cell_length_c   5.64002291
_cell_angle_alpha   89.33672828
_cell_angle_beta   90.00000000
_cell_angle_gamma   90.00000000
_symmetry_Int_Tables_number   1
_chemical_formula_structural   YTiNbO6
_chemical_formula_sum   'Y4 Ti4 Nb4 O24'
_cell_volume   437.42357523
_cell_formula_units_Z   4
loop_
 _symmetry_equiv_pos_site_id
 _symmetry_equiv_pos_as_xyz
  1  'x, y, z'
loop_
 _atom_site_type_symbol
 _atom_site_label
 _atom_site_symmetry_multiplicity
 _atom_site_fract_x
 _atom_site_fract_y
 _atom_site_fract_z
 _atom_site_occupancy
  Y  Y0  1  0.00051300  0.74461500  0.76220200  1
  Y  Y1  1  0.50051300  0.25538500  0.73779800  1
  Y  Y2  1  0.99948700  0.25538500  0.23779800  1
  Y  Y3  1  0.49948700  0.74461500  0.26220200  1
  Ti  Ti0  1  0.16343000  0.31600600  0.68786000  1
  Ti  Ti1  1  0.66342900  0.68399400  0.81214000  1
  Ti  Ti2  1  0.83657000  0.68399400  0.31214000  1
  Ti  Ti3  1  0.33657000  0.31600600  0.18786000  1
  Nb  Nb0  1  0.33069000  0.82317400  0.81476400  1
  Nb  Nb1  1  0.83069000  0.17682600  0.68523600  1
  Nb  Nb2  1  0.66931000  0.17682600  0.18523600  1
  Nb  Nb3  1  0.16931000  0.82317400  0.31476400  1
  O  O0  1  0.09220600  0.03799600  0.56536000  1
  O  O1  1  0.40818000  0.53701900  0.94257000  1
  O  O2  1  0.59220600  0.96200400  0.93464000  1
  O  O3  1  0.90818000  0.46298100  0.55743000  1
  O  O4  1  0.90779400  0.96200400  0.43464000  1
  O  O5  1  0.59182000  0.46298100  0.05743000  1
  O  O6  1  0.40779400  0.03799600  0.06536000  1
  O  O7  1  0.09182000  0.53701900  0.44257000  1
  O  O8  1  0.08659400  0.41581100  0.91118200  1
  O  O9  1  0.41513000  0.91795100  0.58742500  1
  O  O10  1  0.58659400  0.58418900  0.58881800  1
  O  O11  1  0.91513000  0.08204900  0.91257500  1
  O  O12  1  0.91340600  0.58418900  0.08881800  1
  O  O13  1  0.58487000  0.08204900  0.41257500  1
  O  O14  1  0.41340600  0.41581100  0.41118200  1
  O  O15  1  0.08487000  0.91795100  0.08742500  1
  O  O16  1  0.25740600  0.14205000  0.85841300  1
  O  O17  1  0.23956100  0.64232000  0.63968400  1
  O  O18  1  0.75740600  0.85795000  0.64158700  1
  O  O19  1  0.73956100  0.35768000  0.86031600  1
  O  O20  1  0.74259400  0.85795000  0.14158700  1
  O  O21  1  0.76043900  0.35768000  0.36031600  1
  O  O22  1  0.24259400  0.14205000  0.35841300  1
  O  O23  1  0.26043900  0.64232000  0.13968400  1
loop_
_geom_bond_atom_site_label_1
_geom_bond_atom_site_label_2
_geom_bond_distance
_geom_bond_site_symmetry_2
Nb0 O9 1.853407 1_555
Nb0 O17 1.926721 1_555
Nb0 O16 2.010582 1_565
Nb0 O1 2.015105 1_555
Nb0 O6 2.145712 1_566
Nb0 O23 2.301516 1_556
Nb1 O11 1.853407 1_555
Nb1 O19 1.926721 1_555
Nb1 O18 2.010582 1_545
Nb1 O3 2.015105 1_555
Nb1 O4 2.145712 1_545
Nb1 O21 2.301516 1_555
Nb2 O13 1.853407 1_555
Nb2 O21 1.926721 1_555
Nb2 O20 2.010582 1_545
Nb2 O5 2.015105 1_555
Nb2 O2 2.145712 1_544
Nb2 O19 2.301516 1_554
Nb3 O15 1.853407 1_555
Nb3 O23 1.926721 1_555
Nb3 O22 2.010582 1_565
Nb3 O7 2.015105 1_555
Nb3 O0 2.145712 1_565
Nb3 O17 2.301516 1_555
O0 Ti0 1.933034 1_555
O0 Y0 2.323704 1_545
O0 Y2 2.558150 1_455
O1 Ti3 2.083752 1_556
O1 Y1 2.328052 1_555
O1 Y3 2.510730 1_556
O2 Ti1 1.933026 1_555
O2 Y1 2.323704 1_565
O2 Y3 2.558150 1_556
O3 Ti2 2.083752 1_555
O3 Y0 2.328052 1_655
O3 Y2 2.510730 1_555
O4 Ti2 1.933034 1_555
O4 Y2 2.323704 1_565
O4 Y0 2.558150 1_655
O5 Ti1 2.083744 1_554
O5 Y3 2.328052 1_555
O5 Y1 2.510730 1_554
O6 Ti3 1.933034 1_555
O6 Y3 2.323704 1_545
O6 Y1 2.558150 1_554
O7 Ti0 2.083752 1_555
O7 Y2 2.328052 1_455
O7 Y0 2.510730 1_555
O8 Ti0 1.779440 1_555
O8 Y0 2.295112 1_555
O8 Y2 2.392582 1_456
O9 Y1 2.341193 1_565
O9 Y3 2.405323 1_555
O10 Ti1 1.779430 1_555
O10 Y1 2.295112 1_555
O10 Y3 2.392582 1_555
O11 Y0 2.341193 1_645
O11 Y2 2.405323 1_556
O12 Ti2 1.779440 1_555
O12 Y2 2.295112 1_555
O12 Y0 2.392582 1_654
O13 Y3 2.341193 1_545
O13 Y1 2.405323 1_555
O14 Ti3 1.779440 1_555
O14 Y3 2.295112 1_555
O14 Y1 2.392582 1_555
O15 Y2 2.341193 1_465
O15 Y0 2.405323 1_554
O16 Ti0 1.915284 1_555
O16 Ti3 2.386311 1_556
O17 Ti0 2.064078 1_555
O18 Ti1 1.915295 1_555
O18 Ti2 2.386311 1_555
O19 Ti1 2.064086 1_555
O20 Ti2 1.915284 1_555
O20 Ti1 2.386319 1_554
O21 Ti2 2.064078 1_555
O22 Ti3 1.915284 1_555
O22 Ti0 2.386311 1_555
O23 Ti3 2.064078 1_555
