# generated using pymatgen
data_Sr2Pr2MgFe2(RuO6)2
_symmetry_space_group_name_H-M   'P 1'
_cell_length_a   5.82054976
_cell_length_b   6.09133786
_cell_length_c   7.95730859
_cell_angle_alpha   91.23930959
_cell_angle_beta   90.40700570
_cell_angle_gamma   97.81568630
_symmetry_Int_Tables_number   1
_chemical_formula_structural   Sr2Pr2MgFe2(RuO6)2
_chemical_formula_sum   'Sr2 Pr2 Mg1 Fe2 Ru2 O12'
_cell_volume   279.42534165
_cell_formula_units_Z   1
loop_
 _symmetry_equiv_pos_site_id
 _symmetry_equiv_pos_as_xyz
  1  'x, y, z'
loop_
 _atom_site_type_symbol
 _atom_site_label
 _atom_site_symmetry_multiplicity
 _atom_site_fract_x
 _atom_site_fract_y
 _atom_site_fract_z
 _atom_site_occupancy
  Sr  Sr0  1  0.58025300  0.46301800  0.73163500  1
  Sr  Sr1  1  0.94956800  0.97817400  0.27241100  1
  Pr  Pr0  1  0.96577700  0.07574900  0.81292500  1
  Pr  Pr1  1  0.44432300  0.48446800  0.23725700  1
  Mg  Mg0  1  0.21414300  0.73197200  0.72497700  1
  Fe  Fe0  1  0.96635300  0.53168400  0.01238900  1
  Fe  Fe1  1  0.45552700  0.01117900  0.48217000  1
  Ru  Ru0  1  0.02131100  0.48859100  0.48578900  1
  Ru  Ru1  1  0.48557700  0.98169200  0.00531900  1
  O  O0  1  0.00751700  0.43576900  0.74552300  1
  O  O1  1  0.40091400  0.03994100  0.74577800  1
  O  O2  1  0.03468000  0.58055800  0.25375200  1
  O  O3  1  0.51752900  0.90331400  0.24669200  1
  O  O4  1  0.20710100  0.24439500  0.43829800  1
  O  O5  1  0.70338600  0.27776800  0.01988300  1
  O  O6  1  0.76017100  0.79172500  0.97102800  1
  O  O7  1  0.36700200  0.66314800  0.51849400  1
  O  O8  1  0.92860600  0.78690900  0.58114600  1
  O  O9  1  0.29026500  0.68551600  0.96239400  1
  O  O10  1  0.22068400  0.16752000  0.05055000  1
  O  O11  1  0.70549900  0.30786100  0.45159100  1
loop_
_geom_bond_atom_site_label_1
_geom_bond_atom_site_label_2
_geom_bond_distance
_geom_bond_site_symmetry_2
Mg0 O7 1.938915 1_555
Mg0 O9 1.972511 1_555
Mg0 O0 2.038122 1_555
Mg0 O1 2.039051 1_565
Mg0 O8 2.079633 1_455
Fe0 O2 1.966650 1_655
Fe0 O5 2.024845 1_555
Fe0 O9 2.033997 1_654
Fe0 O6 2.142787 1_554
Fe0 O0 2.213547 1_654
Fe1 O3 2.023315 1_545
Fe1 O1 2.130829 1_555
Fe1 O7 2.138894 1_545
Fe1 O11 2.179682 1_555
Fe1 O4 2.191751 1_555
O0 Ru0 2.098968 1_555
O0 Pr0 2.250283 1_455
O0 Sr0 2.516674 1_455
O1 Ru1 2.167665 1_546
O1 Pr0 2.629116 1_455
O1 Sr0 2.650724 1_555
O2 Ru0 1.940094 1_555
O2 Pr1 2.534882 1_555
O2 Sr1 2.538786 1_455
O3 Ru1 2.002567 1_555
O3 Sr1 2.500067 1_555
O3 Pr1 2.528258 1_555
O4 Ru0 1.985903 1_555
O4 Sr1 2.416048 1_445
O4 Pr1 2.487492 1_555
O5 Ru1 2.059199 1_545
O5 Pr0 2.649165 1_554
O5 Pr1 2.703723 1_555
O5 Sr0 2.712289 1_554
O5 Sr1 3.201623 1_545
O6 Ru1 2.112706 1_556
O6 Pr0 2.358085 1_565
O6 Sr1 2.785786 1_556
O6 Sr0 2.823272 1_555
O7 Ru0 2.155369 1_555
O7 Sr0 2.524748 1_555
O7 Pr1 2.537219 1_555
O8 Ru0 2.093280 1_655
O8 Pr0 2.508862 1_565
O8 Sr1 2.738071 1_555
O8 Sr0 2.913129 1_555
O9 Ru1 2.018382 1_556
O9 Pr1 2.733903 1_556
O9 Sr0 2.935319 1_555
O10 Ru1 2.062274 1_545
O10 Pr0 2.403754 1_454
O10 Sr1 2.563168 1_445
O10 Pr1 2.606530 1_555
O11 Ru0 2.023496 1_655
O11 Sr0 2.551430 1_555
O11 Pr1 2.619995 1_555
O11 Sr1 2.960553 1_545
