# generated using pymatgen
data_Tm3Fe2Si3
_symmetry_space_group_name_H-M   'P 1'
_cell_length_a   5.57269637
_cell_length_b   5.57269637
_cell_length_c   13.44610300
_cell_angle_alpha   90.00000000
_cell_angle_beta   90.00000000
_cell_angle_gamma   137.36501177
_symmetry_Int_Tables_number   1
_chemical_formula_structural   Tm3Fe2Si3
_chemical_formula_sum   'Tm6 Fe4 Si6'
_cell_volume   282.82938170
_cell_formula_units_Z   2
loop_
 _symmetry_equiv_pos_site_id
 _symmetry_equiv_pos_as_xyz
  1  'x, y, z'
loop_
 _atom_site_type_symbol
 _atom_site_label
 _atom_site_symmetry_multiplicity
 _atom_site_fract_x
 _atom_site_fract_y
 _atom_site_fract_z
 _atom_site_occupancy
  Tm  Tm0  1  0.63748900  0.36251100  0.25000000  1
  Tm  Tm1  1  0.36251100  0.63748900  0.75000000  1
  Tm  Tm2  1  0.92096700  0.07903300  0.11239500  1
  Tm  Tm3  1  0.07903300  0.92096700  0.88760500  1
  Tm  Tm4  1  0.07903300  0.92096700  0.61239500  1
  Tm  Tm5  1  0.92096700  0.07903300  0.38760500  1
  Fe  Fe0  1  0.78567700  0.21432300  0.58096800  1
  Fe  Fe1  1  0.21432300  0.78567700  0.41903200  1
  Fe  Fe2  1  0.21432300  0.78567700  0.08096800  1
  Fe  Fe3  1  0.78567700  0.21432300  0.91903200  1
  Si  Si0  1  0.32748600  0.67251400  0.25000000  1
  Si  Si1  1  0.67251400  0.32748600  0.75000000  1
  Si  Si2  1  0.62393000  0.37607000  0.03964100  1
  Si  Si3  1  0.37607000  0.62393000  0.96035900  1
  Si  Si4  1  0.37607000  0.62393000  0.53964100  1
  Si  Si5  1  0.62393000  0.37607000  0.46035900  1
loop_
_geom_bond_atom_site_label_1
_geom_bond_atom_site_label_2
_geom_bond_distance
_geom_bond_site_symmetry_2
Fe0 Si4 2.300826 1_545
Fe0 Si4 2.300826 1_655
Fe0 Si5 2.334595 1_555
Fe0 Si1 2.558560 1_555
Fe0 Tm5 2.955174 1_555
Fe0 Tm4 2.980958 1_655
Fe0 Tm4 2.980958 1_545
Fe0 Tm4 3.075038 1_645
Fe0 Tm1 3.147427 1_545
Fe0 Tm1 3.147427 1_655
Fe1 Si5 2.300826 1_455
Fe1 Si5 2.300826 1_565
Fe1 Si4 2.334595 1_555
Fe1 Si0 2.558560 1_555
Fe1 Tm4 2.955174 1_555
Fe1 Tm5 2.980958 1_455
Fe1 Tm5 2.980958 1_565
Fe1 Tm5 3.075038 1_465
Fe1 Tm0 3.147427 1_455
Fe1 Tm0 3.147427 1_565
Fe2 Si2 2.300826 1_455
Fe2 Si2 2.300826 1_565
Fe2 Si3 2.334595 1_554
Fe2 Si0 2.558560 1_555
Fe2 Tm3 2.955174 1_554
Fe2 Tm2 2.980958 1_455
Fe2 Tm2 2.980958 1_565
Fe2 Tm2 3.075038 1_465
Fe2 Tm0 3.147427 1_455
Fe2 Tm0 3.147427 1_565
Fe3 Si3 2.300826 1_545
Fe3 Si3 2.300826 1_655
Fe3 Si2 2.334595 1_556
Fe3 Si1 2.558560 1_555
Fe3 Tm2 2.955174 1_556
Fe3 Tm3 2.980958 1_655
Fe3 Tm3 2.980958 1_545
Fe3 Tm3 3.075038 1_645
Fe3 Tm1 3.147427 1_545
Fe3 Tm1 3.147427 1_655
Si0 Tm0 2.827673 1_565
Si0 Tm0 2.827673 1_455
Si0 Tm5 2.910267 1_565
Si0 Tm2 2.910267 1_565
Si0 Tm5 2.910267 1_455
Si0 Tm2 2.910267 1_455
Si0 Tm0 3.218708 1_555
Si1 Tm1 2.827673 1_655
Si1 Tm1 2.827673 1_545
Si1 Tm4 2.910267 1_655
Si1 Tm3 2.910267 1_655
Si1 Tm3 2.910267 1_545
Si1 Tm4 2.910267 1_545
Si1 Tm1 3.218708 1_555
Si2 Si3 2.785546 1_554
Si2 Tm0 2.832010 1_555
Si2 Tm3 2.915578 1_654
Si2 Tm3 2.915578 1_544
Si2 Tm2 3.082530 1_565
Si2 Tm2 3.082530 1_455
Si2 Tm2 3.235516 1_555
Si3 Tm1 2.832010 1_555
Si3 Tm2 2.915578 1_566
Si3 Tm2 2.915578 1_456
Si3 Tm3 3.082530 1_655
Si3 Tm3 3.082530 1_545
Si3 Tm3 3.235516 1_555
Si4 Si5 2.785546 1_555
Si4 Tm1 2.832010 1_555
Si4 Tm5 2.915578 1_565
Si4 Tm5 2.915578 1_455
Si4 Tm4 3.082530 1_655
Si4 Tm4 3.082530 1_545
Si4 Tm4 3.235516 1_555
Si5 Tm0 2.832010 1_555
Si5 Tm4 2.915578 1_655
Si5 Tm4 2.915578 1_545
Si5 Tm5 3.082530 1_565
Si5 Tm5 3.082530 1_455
Si5 Tm5 3.235516 1_555
