# generated using pymatgen
data_Dy2Ge6Pt
_symmetry_space_group_name_H-M   'P 1'
_cell_length_a   4.10240900
_cell_length_b   4.10959400
_cell_length_c   11.11531937
_cell_angle_alpha   90.00000000
_cell_angle_beta   100.63422523
_cell_angle_gamma   90.00000000
_symmetry_Int_Tables_number   1
_chemical_formula_structural   Dy2Ge6Pt
_chemical_formula_sum   'Dy2 Ge6 Pt1'
_cell_volume   184.17731794
_cell_formula_units_Z   1
loop_
 _symmetry_equiv_pos_site_id
 _symmetry_equiv_pos_as_xyz
  1  'x, y, z'
loop_
 _atom_site_type_symbol
 _atom_site_label
 _atom_site_symmetry_multiplicity
 _atom_site_fract_x
 _atom_site_fract_y
 _atom_site_fract_z
 _atom_site_occupancy
  Dy  Dy0  1  0.77865100  0.50000000  0.55730100  1
  Dy  Dy1  1  0.11567000  0.50000000  0.23134000  1
  Ge  Ge0  1  0.49333900  0.50000000  0.98667900  1
  Ge  Ge1  1  0.37905300  0.50000000  0.75810700  1
  Ge  Ge2  1  0.99297700  0.00000000  0.98595300  1
  Ge  Ge3  1  0.87837800  0.00000000  0.75675700  1
  Ge  Ge4  1  0.67000800  0.00000000  0.34001600  1
  Ge  Ge5  1  0.23952700  0.00000000  0.47905300  1
  Pt  Pt0  1  0.55939700  0.00000000  0.11879400  1
loop_
_geom_bond_atom_site_label_1
_geom_bond_atom_site_label_2
_geom_bond_distance
_geom_bond_site_symmetry_2
Dy0 Ge3 2.994991 1_555
Dy0 Ge3 2.994991 1_565
Dy0 Ge1 3.003280 1_655
Dy0 Ge1 3.003286 1_555
Dy0 Ge5 3.026605 1_665
Dy0 Ge5 3.026605 1_655
Dy0 Ge5 3.026605 1_565
Dy0 Ge5 3.026605 1_555
Dy0 Ge4 3.139538 1_565
Dy0 Ge4 3.139538 1_555
Dy1 Ge4 3.136738 1_455
Dy1 Ge4 3.136738 1_465
Dy1 Ge4 3.136738 1_555
Dy1 Ge4 3.136738 1_565
Dy1 Pt0 3.152983 1_555
Dy1 Pt0 3.152983 1_565
Dy1 Pt0 3.152983 1_455
Dy1 Pt0 3.152983 1_465
Dy1 Ge0 3.369151 1_554
Dy1 Ge0 3.369153 1_454
Dy1 Ge2 3.377632 1_454
Dy1 Ge2 3.377632 1_464
Dy1 Ge5 3.397834 1_565
Dy1 Ge5 3.397834 1_555
Ge0 Ge1 2.497016 1_555
Ge0 Pt0 2.511025 1_556
Ge0 Pt0 2.511025 1_566
Ge0 Ge2 2.903391 1_465
Ge0 Ge2 2.903391 1_455
Ge0 Ge2 2.903396 1_565
Ge0 Ge2 2.903396 1_555
Ge1 Ge3 2.903420 1_565
Ge1 Ge3 2.903420 1_555
Ge1 Ge3 2.903420 1_455
Ge1 Ge3 2.903420 1_465
Ge2 Ge3 2.503833 1_555
Ge2 Pt0 2.512657 1_656
Ge2 Pt0 2.512660 1_556
Ge4 Pt0 2.416721 1_555
Ge4 Ge5 2.552348 1_555
Ge4 Ge5 2.552352 1_655
