# generated using pymatgen
data_La6CoCl11
_symmetry_space_group_name_H-M   'P 1'
_cell_length_a   11.38940868
_cell_length_b   11.38940468
_cell_length_c   14.53853305
_cell_angle_alpha   90.00000000
_cell_angle_beta   90.00000000
_cell_angle_gamma   89.99974027
_symmetry_Int_Tables_number   1
_chemical_formula_structural   La6CoCl11
_chemical_formula_sum   'La24 Co4 Cl44'
_cell_volume   1885.91792827
_cell_formula_units_Z   4
loop_
 _symmetry_equiv_pos_site_id
 _symmetry_equiv_pos_as_xyz
  1  'x, y, z'
loop_
 _atom_site_type_symbol
 _atom_site_label
 _atom_site_symmetry_multiplicity
 _atom_site_fract_x
 _atom_site_fract_y
 _atom_site_fract_z
 _atom_site_occupancy
  La  La0  1  0.76875671  0.98627647  0.24055328  1
  La  La1  1  0.23124329  0.01372353  0.24055328  1
  La  La2  1  0.48627263  0.73124381  0.74055292  1
  La  La3  1  0.51372737  0.26875619  0.74055292  1
  La  La4  1  0.73124329  0.51372353  0.25944672  1
  La  La5  1  0.26875671  0.48627647  0.25944672  1
  La  La6  1  0.01372737  0.76875619  0.75944708  1
  La  La7  1  0.98627263  0.23124381  0.75944708  1
  La  La8  1  0.43716435  0.76429036  0.10066400  1
  La  La9  1  0.56283565  0.23570964  0.10066400  1
  La  La10  1  0.26428949  0.06283291  0.60065448  1
  La  La11  1  0.73571051  0.93716709  0.60065448  1
  La  La12  1  0.06283565  0.73570964  0.39933600  1
  La  La13  1  0.93716435  0.26429036  0.39933600  1
  La  La14  1  0.23571051  0.43716709  0.89934552  1
  La  La15  1  0.76428949  0.56283291  0.89934552  1
  La  La16  1  0.39046898  0.75697744  0.37391648  1
  La  La17  1  0.60953102  0.24302256  0.37391648  1
  La  La18  1  0.25697787  0.10952965  0.87392300  1
  La  La19  1  0.74302213  0.89047035  0.87392300  1
  La  La20  1  0.10953102  0.74302256  0.12608352  1
  La  La21  1  0.89046898  0.25697744  0.12608352  1
  La  La22  1  0.24302213  0.39047035  0.62607700  1
  La  La23  1  0.75697787  0.60952965  0.62607700  1
  Co  Co0  1  0.75000000  0.25000000  0.25000000  1
  Co  Co1  1  0.25000000  0.75000000  0.25000000  1
  Co  Co2  1  0.75000000  0.75000000  0.75000000  1
  Co  Co3  1  0.25000000  0.25000000  0.75000000  1
  Cl  Cl0  1  0.60194898  0.75233998  0.25720023  1
  Cl  Cl1  1  0.39805102  0.24766002  0.25720023  1
  Cl  Cl2  1  0.25233979  0.89805044  0.75719980  1
  Cl  Cl3  1  0.74766021  0.10194956  0.75719980  1
  Cl  Cl4  1  0.89805102  0.74766002  0.24279977  1
  Cl  Cl5  1  0.10194898  0.25233998  0.24279977  1
  Cl  Cl6  1  0.24766021  0.60194956  0.74280020  1
  Cl  Cl7  1  0.75233979  0.39805044  0.74280020  1
  Cl  Cl8  1  0.64004094  0.98818709  0.40364085  1
  Cl  Cl9  1  0.35995906  0.01181291  0.40364085  1
  Cl  Cl10  1  0.48818456  0.85995795  0.90364561  1
  Cl  Cl11  1  0.51181544  0.14004205  0.90364561  1
  Cl  Cl12  1  0.85995906  0.51181291  0.09635915  1
  Cl  Cl13  1  0.14004094  0.48818709  0.09635915  1
  Cl  Cl14  1  0.01181544  0.64004205  0.59635439  1
  Cl  Cl15  1  0.98818456  0.35995795  0.59635439  1
  Cl  Cl16  1  0.74476258  0.04940390  0.04720170  1
  Cl  Cl17  1  0.25523742  0.95059610  0.04720170  1
  Cl  Cl18  1  0.54940411  0.75523592  0.54719448  1
  Cl  Cl19  1  0.45059589  0.24476408  0.54719448  1
  Cl  Cl20  1  0.75523742  0.45059610  0.45279830  1
  Cl  Cl21  1  0.24476258  0.54940390  0.45279830  1
  Cl  Cl22  1  0.95059589  0.74476408  0.95280552  1
  Cl  Cl23  1  0.04940411  0.25523592  0.95280552  1
  Cl  Cl24  1  0.50000000  0.00000000  0.16883987  1
  Cl  Cl25  1  0.50000000  0.00000000  0.66883454  1
  Cl  Cl26  1  0.00000000  0.50000000  0.33116013  1
  Cl  Cl27  1  0.00000000  0.50000000  0.83116546  1
  Cl  Cl28  1  0.00000000  0.00000000  0.14314720  1
  Cl  Cl29  1  0.50000000  0.50000000  0.64314401  1
  Cl  Cl30  1  0.50000000  0.50000000  0.35685280  1
  Cl  Cl31  1  0.00000000  0.00000000  0.85685599  1
  Cl  Cl32  1  0.50000000  0.50000000  0.12678873  1
  Cl  Cl33  1  0.00000000  0.00000000  0.62678438  1
  Cl  Cl34  1  0.00000000  0.00000000  0.37321127  1
  Cl  Cl35  1  0.50000000  0.50000000  0.87321562  1
  Cl  Cl36  1  0.26858522  0.68065222  0.96730061  1
  Cl  Cl37  1  0.73141478  0.31934778  0.96730061  1
  Cl  Cl38  1  0.18065229  0.23141649  0.46729315  1
  Cl  Cl39  1  0.81934771  0.76858351  0.46729315  1
  Cl  Cl40  1  0.23141478  0.81934778  0.53269939  1
  Cl  Cl41  1  0.76858522  0.18065222  0.53269939  1
  Cl  Cl42  1  0.31934771  0.26858351  0.03270685  1
  Cl  Cl43  1  0.68065229  0.73141649  0.03270685  1
loop_
_geom_bond_atom_site_label_1
_geom_bond_atom_site_label_2
_geom_bond_distance
_geom_bond_site_symmetry_2
Co0 La17 2.410705 1_555
Co0 La21 2.410705 1_555
Co0 La0 3.014371 1_545
Co0 La4 3.014371 1_555
Co0 La13 3.047030 1_555
Co0 La9 3.047030 1_555
Co1 La16 2.410705 1_555
Co1 La20 2.410705 1_555
Co1 La5 3.014371 1_555
Co1 La1 3.014371 1_565
Co1 La12 3.047030 1_555
Co1 La8 3.047030 1_555
Co2 La19 2.410785 1_555
Co2 La23 2.410785 1_555
Co2 La2 3.014417 1_555
Co2 La6 3.014417 1_655
Co2 La11 3.047148 1_555
Co2 La15 3.047148 1_555
Co3 La18 2.410785 1_555
Co3 La22 2.410785 1_555
Co3 La7 3.014417 1_455
Co3 La3 3.014417 1_555
Co3 La10 3.047148 1_555
Co3 La14 3.047148 1_555
Cl0 La16 2.946813 1_555
Cl0 La8 2.952998 1_555
Cl0 La4 3.091186 1_555
Cl0 La0 3.281315 1_555
Cl1 La17 2.946813 1_555
Cl1 La9 2.952998 1_555
Cl1 La5 3.091186 1_555
Cl1 La1 3.281315 1_555
Cl2 La18 2.946864 1_565
Cl2 La10 2.953084 1_565
Cl2 La6 3.091157 1_555
Cl2 La2 3.281261 1_555
Cl3 La19 2.946864 1_545
Cl3 La11 2.953084 1_545
Cl3 La7 3.091157 1_555
Cl3 La3 3.281261 1_555
Cl4 La20 2.946813 1_655
Cl4 La12 2.952998 1_655
Cl4 La0 3.091186 1_555
Cl4 La4 3.281315 1_555
Cl5 La21 2.946813 1_455
Cl5 La13 2.952998 1_455
Cl5 La1 3.091186 1_555
Cl5 La5 3.281315 1_555
Cl6 La22 2.946864 1_555
Cl6 La14 2.953084 1_555
Cl6 La2 3.091157 1_555
Cl6 La6 3.281261 1_555
Cl7 La23 2.946864 1_555
Cl7 La15 2.953084 1_555
Cl7 La3 3.091157 1_555
Cl7 La7 3.281261 1_555
Cl8 La0 2.787744 1_555
Cl8 La17 2.954921 1_565
Cl8 La11 3.119147 1_555
Cl9 La1 2.787744 1_555
Cl9 La16 2.954921 1_545
Cl9 La10 3.119147 1_555
Cl10 La2 2.787797 1_555
Cl10 La19 2.954948 1_555
Cl10 La8 3.119205 1_556
Cl11 La3 2.787797 1_555
Cl11 La18 2.954948 1_555
Cl11 La9 3.119205 1_556
Cl12 La4 2.787744 1_555
Cl12 La21 2.954921 1_555
Cl12 La15 3.119147 1_554
Cl13 La5 2.787744 1_555
Cl13 La20 2.954921 1_555
Cl13 La14 3.119147 1_554
Cl14 La6 2.787797 1_555
Cl14 La23 2.954948 1_455
Cl14 La12 3.119205 1_555
Cl15 La7 2.787797 1_555
Cl15 La22 2.954948 1_655
Cl15 La13 3.119205 1_555
Cl16 La0 2.914380 1_545
Cl16 La9 3.065935 1_555
Cl16 La19 3.102181 1_544
Cl16 La21 3.107792 1_555
Cl17 La1 2.914380 1_565
Cl17 La8 3.065935 1_555
Cl17 La18 3.102181 1_564
Cl17 La20 3.107792 1_555
Cl18 La2 2.914486 1_555
Cl18 La11 3.065977 1_555
Cl18 La16 3.102184 1_555
Cl18 La23 3.107786 1_555
Cl19 La3 2.914486 1_555
Cl19 La10 3.065977 1_555
Cl19 La17 3.102184 1_555
Cl19 La22 3.107786 1_555
Cl20 La4 2.914380 1_555
Cl20 La13 3.065935 1_555
Cl20 La23 3.102181 1_555
Cl20 La17 3.107792 1_555
Cl21 La5 2.914380 1_555
Cl21 La12 3.065935 1_555
Cl21 La22 3.102181 1_555
Cl21 La16 3.107792 1_555
Cl22 La6 2.914486 1_655
Cl22 La15 3.065977 1_555
Cl22 La20 3.102184 1_656
Cl22 La19 3.107786 1_555
Cl23 La7 2.914486 1_455
Cl23 La14 3.065977 1_555
Cl23 La21 3.102184 1_456
Cl23 La18 3.107786 1_555
Cl24 La8 2.949857 1_545
Cl24 La9 2.949857 1_555
Cl24 La1 3.237446 1_555
Cl24 La0 3.237446 1_545
Cl25 La10 2.949874 1_555
Cl25 La11 2.949874 1_545
Cl25 La2 3.237466 1_545
Cl25 La3 3.237466 1_555
Cl26 La13 2.949857 1_455
Cl26 La12 2.949857 1_555
Cl26 La4 3.237446 1_455
Cl26 La5 3.237446 1_555
Cl27 La14 2.949874 1_555
Cl27 La15 2.949874 1_455
Cl27 La7 3.237466 1_455
Cl27 La6 3.237466 1_555
Cl28 La1 2.994394 1_555
Cl28 La0 2.994394 1_445
Cl28 La20 3.191242 1_545
Cl28 La21 3.191242 1_455
Cl29 La3 2.994419 1_555
Cl29 La2 2.994419 1_555
Cl29 La22 3.191256 1_555
Cl29 La23 3.191256 1_555
Cl30 La4 2.994394 1_555
Cl30 La5 2.994394 1_555
Cl30 La16 3.191242 1_555
Cl30 La17 3.191242 1_555
Cl31 La6 2.994419 1_545
Cl31 La7 2.994419 1_455
Cl31 La19 3.191256 1_445
Cl31 La18 3.191256 1_555
Cl32 La9 3.117238 1_555
Cl32 La8 3.117238 1_555
Cl32 La4 3.268125 1_555
Cl32 La5 3.268125 1_555
Cl33 La10 3.117238 1_555
Cl33 La11 3.117238 1_445
Cl33 La6 3.268170 1_545
Cl33 La7 3.268170 1_455
Cl34 La12 3.117238 1_545
Cl34 La13 3.117238 1_455
Cl34 La1 3.268125 1_555
Cl34 La0 3.268125 1_445
Cl35 La14 3.117238 1_555
Cl35 La15 3.117238 1_555
Cl35 La3 3.268170 1_555
Cl35 La2 3.268170 1_555
Cl36 La8 2.890202 1_556
Cl36 La14 2.967599 1_555
Cl36 La20 3.019154 1_556
Cl37 La9 2.890202 1_556
Cl37 La15 2.967599 1_555
Cl37 La21 3.019154 1_556
Cl38 La10 2.890206 1_555
Cl38 La13 2.967636 1_455
Cl38 La22 3.019164 1_555
Cl39 La11 2.890206 1_555
Cl39 La12 2.967636 1_655
Cl39 La23 3.019164 1_555
Cl40 La12 2.890202 1_555
Cl40 La10 2.967599 1_565
Cl40 La16 3.019154 1_555
Cl41 La13 2.890202 1_555
Cl41 La11 2.967599 1_545
Cl41 La17 3.019154 1_555
Cl42 La14 2.890206 1_554
Cl42 La9 2.967636 1_555
Cl42 La18 3.019164 1_554
Cl43 La15 2.890206 1_554
Cl43 La8 2.967636 1_555
Cl43 La19 3.019164 1_554
