# generated using pymatgen
data_Li9Mn2Co5O16
_symmetry_space_group_name_H-M   'P 1'
_cell_length_a   5.83226700
_cell_length_b   5.88803400
_cell_length_c   8.38415090
_cell_angle_alpha   88.99416035
_cell_angle_beta   90.00000000
_cell_angle_gamma   90.00000000
_symmetry_Int_Tables_number   1
_chemical_formula_structural   Li9Mn2Co5O16
_chemical_formula_sum   'Li9 Mn2 Co5 O16'
_cell_volume   287.87229371
_cell_formula_units_Z   1
loop_
 _symmetry_equiv_pos_site_id
 _symmetry_equiv_pos_as_xyz
  1  'x, y, z'
loop_
 _atom_site_type_symbol
 _atom_site_label
 _atom_site_symmetry_multiplicity
 _atom_site_fract_x
 _atom_site_fract_y
 _atom_site_fract_z
 _atom_site_occupancy
  Li  Li0  1  0.25606000  0.75012400  0.74221100  1
  Li  Li1  1  0.25606000  0.24987600  0.25778900  1
  Li  Li2  1  0.50000000  0.00000000  0.50000000  1
  Li  Li3  1  0.50000000  0.50000000  0.00000000  1
  Li  Li4  1  0.74394000  0.24987600  0.25778900  1
  Li  Li5  1  0.74394000  0.75012400  0.74221100  1
  Li  Li6  1  0.00000000  0.50000000  0.00000000  1
  Li  Li7  1  0.00000000  0.00000000  0.50000000  1
  Li  Li8  1  0.50000000  0.50000000  0.50000000  1
  Mn  Mn0  1  0.00000000  0.00000000  0.00000000  1
  Mn  Mn1  1  0.00000000  0.50000000  0.50000000  1
  Co  Co0  1  0.25742600  0.25605900  0.74160300  1
  Co  Co1  1  0.25742600  0.74394100  0.25839700  1
  Co  Co2  1  0.50000000  0.00000000  0.00000000  1
  Co  Co3  1  0.74257400  0.74394100  0.25839700  1
  Co  Co4  1  0.74257400  0.25605900  0.74160300  1
  O  O0  1  0.24133500  0.77274400  0.00243500  1
  O  O1  1  0.23344000  0.26289700  0.50783200  1
  O  O2  1  0.50000000  0.00877100  0.75395600  1
  O  O3  1  0.50000000  0.52535500  0.23956400  1
  O  O4  1  0.76656000  0.26289700  0.50783200  1
  O  O5  1  0.75866500  0.77274400  0.00243500  1
  O  O6  1  0.00000000  0.50196400  0.26702100  1
  O  O7  1  0.00000000  0.02395600  0.76761000  1
  O  O8  1  0.23344000  0.73710300  0.49216800  1
  O  O9  1  0.24133500  0.22725600  0.99756500  1
  O  O10  1  0.50000000  0.99122900  0.24604400  1
  O  O11  1  0.50000000  0.47464500  0.76043600  1
  O  O12  1  0.75866500  0.22725600  0.99756500  1
  O  O13  1  0.76656000  0.73710300  0.49216800  1
  O  O14  1  0.00000000  0.49803600  0.73297900  1
  O  O15  1  0.00000000  0.97604400  0.23239000  1
loop_
_geom_bond_atom_site_label_1
_geom_bond_atom_site_label_2
_geom_bond_distance
_geom_bond_site_symmetry_2
Li0 O2 2.087677 1_565
Li0 O8 2.103286 1_555
Li0 O14 2.107950 1_555
Li0 O11 2.160965 1_555
Li0 O0 2.189836 1_556
Li0 O7 2.210722 1_565
Li1 O10 2.087677 1_545
Li1 O1 2.103286 1_555
Li1 O6 2.107950 1_555
Li1 O3 2.160965 1_555
Li1 O9 2.189836 1_554
Li1 O15 2.210722 1_545
Li2 O2 2.130738 1_555
Li2 O10 2.130738 1_545
Li2 O4 2.195667 1_555
Li2 O13 2.195667 1_545
Li2 O8 2.195667 1_545
Li2 O1 2.195667 1_555
Li3 O3 2.016693 1_555
Li3 O11 2.016693 1_554
Li3 O5 2.203735 1_555
Li3 O0 2.203735 1_555
Li3 O12 2.203735 1_554
Li3 O9 2.203735 1_554
Li4 O10 2.087677 1_545
Li4 O4 2.103286 1_555
Li4 O6 2.107950 1_655
Li4 O3 2.160965 1_555
Li4 O12 2.189836 1_554
Li4 O15 2.210722 1_645
Li5 O2 2.087677 1_565
Li5 O13 2.103286 1_555
Li5 O14 2.107950 1_655
Li5 O11 2.160965 1_555
Li5 O5 2.189836 1_556
Li5 O7 2.210722 1_665
Li6 O0 2.135815 1_555
Li6 O5 2.135815 1_455
Li6 O9 2.135815 1_554
Li6 O12 2.135815 1_454
Li6 O6 2.238977 1_555
Li6 O14 2.238977 1_554
Li7 O1 2.063409 1_555
Li7 O13 2.063409 1_445
Li7 O4 2.063409 1_455
Li7 O8 2.063409 1_545
Li7 O7 2.250582 1_555
Li7 O15 2.250582 1_545
Li8 O8 2.089746 1_555
Li8 O13 2.089746 1_555
Li8 O4 2.089746 1_555
Li8 O1 2.089746 1_555
Li8 O11 2.186016 1_555
Li8 O3 2.186016 1_555
Mn0 O9 1.941929 1_554
Mn0 O0 1.941929 1_545
Mn0 O12 1.941929 1_454
Mn0 O5 1.941929 1_445
Mn0 O7 1.951021 1_554
Mn0 O15 1.951021 1_545
Mn1 O8 1.950319 1_555
Mn1 O13 1.950319 1_455
Mn1 O4 1.950319 1_455
Mn1 O1 1.950319 1_555
Mn1 O14 1.953162 1_555
Mn1 O6 1.953162 1_555
Co0 O11 1.920958 1_555
Co0 O1 1.964665 1_555
Co0 O2 2.031507 1_555
Co0 O7 2.039337 1_555
Co0 O14 2.070196 1_555
Co0 O9 2.151792 1_555
Co1 O3 1.920958 1_555
Co1 O8 1.964665 1_555
Co1 O10 2.031507 1_555
Co1 O15 2.039337 1_555
Co1 O6 2.070196 1_555
Co1 O0 2.151792 1_555
Co2 O12 2.016390 1_554
Co2 O5 2.016390 1_545
Co2 O9 2.016390 1_554
Co2 O0 2.016390 1_545
Co2 O10 2.062610 1_545
Co2 O2 2.062610 1_554
Co3 O3 1.920958 1_555
Co3 O13 1.964665 1_555
Co3 O10 2.031507 1_555
Co3 O15 2.039337 1_655
Co3 O6 2.070196 1_655
Co3 O5 2.151792 1_555
Co4 O11 1.920958 1_555
Co4 O4 1.964665 1_555
Co4 O2 2.031507 1_555
Co4 O7 2.039337 1_655
Co4 O14 2.070196 1_655
Co4 O12 2.151792 1_555
