# generated using pymatgen
data_Cs2NaAuF6
_symmetry_space_group_name_H-M   'P 1'
_cell_length_a   6.41948083
_cell_length_b   6.41948095
_cell_length_c   6.41948094
_cell_angle_alpha   59.99999949
_cell_angle_beta   59.99999921
_cell_angle_gamma   59.99999924
_symmetry_Int_Tables_number   1
_chemical_formula_structural   Cs2NaAuF6
_chemical_formula_sum   'Cs2 Na1 Au1 F6'
_cell_volume   187.06163680
_cell_formula_units_Z   1
loop_
 _symmetry_equiv_pos_site_id
 _symmetry_equiv_pos_as_xyz
  1  'x, y, z'
loop_
 _atom_site_type_symbol
 _atom_site_label
 _atom_site_symmetry_multiplicity
 _atom_site_fract_x
 _atom_site_fract_y
 _atom_site_fract_z
 _atom_site_occupancy
  Cs  Cs0  1  0.25000000  0.25000000  0.25000000  1
  Cs  Cs1  1  0.75000000  0.75000000  0.75000000  1
  Na  Na0  1  0.50000000  0.50000000  0.50000000  1
  Au  Au0  1  0.00000000  0.00000000  0.00000000  1
  F  F0  1  0.23897040  0.76102959  0.23897041  1
  F  F1  1  0.76102960  0.76102959  0.23897041  1
  F  F2  1  0.76102960  0.23897041  0.76102959  1
  F  F3  1  0.76102960  0.23897041  0.23897041  1
  F  F4  1  0.23897040  0.76102959  0.76102959  1
  F  F5  1  0.23897040  0.23897041  0.76102959  1
loop_
_geom_bond_atom_site_label_1
_geom_bond_atom_site_label_2
_geom_bond_distance
_geom_bond_site_symmetry_2
Cs0 F3 3.211302 1_455
Cs0 F2 3.211302 1_455
Cs0 F1 3.211302 1_455
Cs0 F2 3.211302 1_554
Cs0 F1 3.211302 1_545
Cs0 F5 3.211302 1_555
Cs0 F0 3.211302 1_555
Cs0 F4 3.211302 1_545
Cs0 F4 3.211302 1_554
Cs0 F3 3.211302 1_555
Cs0 F5 3.211302 1_554
Cs0 F0 3.211302 1_545
Cs1 F4 3.211302 1_655
Cs1 F0 3.211302 1_655
Cs1 F5 3.211302 1_655
Cs1 F0 3.211302 1_556
Cs1 F5 3.211302 1_565
Cs1 F1 3.211302 1_555
Cs1 F2 3.211302 1_555
Cs1 F3 3.211302 1_565
Cs1 F3 3.211302 1_556
Cs1 F4 3.211302 1_555
Cs1 F1 3.211302 1_556
Cs1 F2 3.211302 1_565
Au0 F0 2.169497 1_545
Au0 F2 2.169497 1_454
Au0 F5 2.169497 1_554
Au0 F1 2.169497 1_445
Au0 F3 2.169497 1_455
Au0 F4 2.169497 1_544
F0 Na0 2.369762 1_555
F1 Na0 2.369762 1_555
F2 Na0 2.369762 1_555
F3 Na0 2.369762 1_555
F4 Na0 2.369762 1_555
F5 Na0 2.369762 1_555
