# generated using pymatgen
data_HoIn5Rh
_symmetry_space_group_name_H-M   'P 1'
_cell_length_a   4.63033930
_cell_length_b   4.63033930
_cell_length_c   7.40729138
_cell_angle_alpha   90.00000000
_cell_angle_beta   90.00000000
_cell_angle_gamma   90.00000000
_symmetry_Int_Tables_number   1
_chemical_formula_structural   HoIn5Rh
_chemical_formula_sum   'Ho1 In5 Rh1'
_cell_volume   158.81263854
_cell_formula_units_Z   1
loop_
 _symmetry_equiv_pos_site_id
 _symmetry_equiv_pos_as_xyz
  1  'x, y, z'
loop_
 _atom_site_type_symbol
 _atom_site_label
 _atom_site_symmetry_multiplicity
 _atom_site_fract_x
 _atom_site_fract_y
 _atom_site_fract_z
 _atom_site_occupancy
  Ho  Ho0  1  -0.00000000  0.00000000  -0.00000000  1
  In  In0  1  0.50000000  0.50000000  0.00000000  1
  In  In1  1  0.50000000  0.00000000  0.69981322  1
  In  In2  1  -0.00000000  0.50000000  0.30018678  1
  In  In3  1  0.50000000  -0.00000000  0.30018678  1
  In  In4  1  0.00000000  0.50000000  0.69981322  1
  Rh  Rh0  1  -0.00000000  0.00000000  0.50000000  1
loop_
_geom_bond_atom_site_label_1
_geom_bond_atom_site_label_2
_geom_bond_distance
_geom_bond_site_symmetry_2
Ho0 In3 3.210028 1_555
Ho0 In1 3.210028 1_454
Ho0 In1 3.210028 1_554
Ho0 In2 3.210028 1_555
Ho0 In3 3.210028 1_455
Ho0 In4 3.210028 1_544
Ho0 In2 3.210028 1_545
Ho0 In4 3.210028 1_554
Ho0 In0 3.274144 1_555
Ho0 In0 3.274144 1_445
Ho0 In0 3.274144 1_545
Ho0 In0 3.274144 1_455
In0 In3 3.210028 1_555
In0 In2 3.210028 1_655
In0 In1 3.210028 1_554
In0 In2 3.210028 1_555
In0 In1 3.210028 1_564
In0 In3 3.210028 1_565
In0 In4 3.210028 1_554
In0 In4 3.210028 1_654
In1 Rh0 2.747841 1_655
In1 Rh0 2.747841 1_555
In1 In3 2.960149 1_555
In1 In4 3.274144 1_545
In1 In4 3.274144 1_645
In1 In4 3.274144 1_555
In1 In4 3.274144 1_655
In2 Rh0 2.747841 1_565
In2 Rh0 2.747841 1_555
In2 In4 2.960149 1_555
In2 In3 3.274144 1_465
In2 In3 3.274144 1_565
In2 In3 3.274144 1_555
In2 In3 3.274144 1_455
In3 Rh0 2.747841 1_655
In3 Rh0 2.747841 1_555
In4 Rh0 2.747841 1_565
In4 Rh0 2.747841 1_555
