# generated using pymatgen
data_LiAl(CN2)2
_symmetry_space_group_name_H-M   'P 1'
_cell_length_a   5.47871300
_cell_length_b   6.54174100
_cell_length_c   9.21399500
_cell_angle_alpha   90.00000000
_cell_angle_beta   90.00000000
_cell_angle_gamma   90.00000000
_symmetry_Int_Tables_number   1
_chemical_formula_structural   LiAl(CN2)2
_chemical_formula_sum   'Li4 Al4 C8 N16'
_cell_volume   330.23254272
_cell_formula_units_Z   4
loop_
 _symmetry_equiv_pos_site_id
 _symmetry_equiv_pos_as_xyz
  1  'x, y, z'
loop_
 _atom_site_type_symbol
 _atom_site_label
 _atom_site_symmetry_multiplicity
 _atom_site_fract_x
 _atom_site_fract_y
 _atom_site_fract_z
 _atom_site_occupancy
  Li  Li0  1  0.75000000  0.87932000  0.50000000  1
  Li  Li1  1  0.25000000  0.62068000  0.00000000  1
  Li  Li2  1  0.25000000  0.12068000  0.50000000  1
  Li  Li3  1  0.75000000  0.37932000  0.00000000  1
  Al  Al0  1  0.75000000  0.37938100  0.50000000  1
  Al  Al1  1  0.25000000  0.12061900  0.00000000  1
  Al  Al2  1  0.25000000  0.62061900  0.50000000  1
  Al  Al3  1  0.75000000  0.87938100  0.00000000  1
  C  C0  1  0.58797400  0.13116400  0.75394300  1
  C  C1  1  0.08797400  0.36883600  0.74605700  1
  C  C2  1  0.41202600  0.36883600  0.25394300  1
  C  C3  1  0.91202600  0.13116400  0.24605700  1
  C  C4  1  0.41202600  0.86883600  0.24605700  1
  C  C5  1  0.91202600  0.63116400  0.25394300  1
  C  C6  1  0.58797400  0.63116400  0.74605700  1
  C  C7  1  0.08797400  0.86883600  0.75394300  1
  N  N0  1  0.61015800  0.15781800  0.62419400  1
  N  N1  1  0.11015800  0.34218200  0.87580600  1
  N  N2  1  0.38984200  0.34218200  0.12419400  1
  N  N3  1  0.88984200  0.15781800  0.37580600  1
  N  N4  1  0.38984200  0.84218200  0.37580600  1
  N  N5  1  0.88984200  0.65781800  0.12419400  1
  N  N6  1  0.61015800  0.65781800  0.87580600  1
  N  N7  1  0.11015800  0.84218200  0.62419400  1
  N  N8  1  0.56389300  0.09949600  0.88660700  1
  N  N9  1  0.06389300  0.40050400  0.61339300  1
  N  N10  1  0.43610700  0.40050400  0.38660700  1
  N  N11  1  0.93610700  0.09949600  0.11339300  1
  N  N12  1  0.43610700  0.90050400  0.11339300  1
  N  N13  1  0.93610700  0.59949600  0.38660700  1
  N  N14  1  0.56389300  0.59949600  0.61339300  1
  N  N15  1  0.06389300  0.90050400  0.88660700  1
loop_
_geom_bond_atom_site_label_1
_geom_bond_atom_site_label_2
_geom_bond_distance
_geom_bond_site_symmetry_2
Li0 N3 2.283779 1_565
Li0 N0 2.283779 1_565
Li0 N7 2.293911 1_655
Li0 N4 2.293911 1_555
Li0 N13 2.341391 1_555
Li0 N14 2.341391 1_555
Li1 N2 2.283779 1_555
Li1 N1 2.283779 1_554
Li1 N6 2.293911 1_554
Li1 N5 2.293911 1_455
Li1 N12 2.341391 1_555
Li1 N15 2.341391 1_554
Li2 N4 2.283779 1_545
Li2 N7 2.283779 1_545
Li2 N0 2.293911 1_555
Li2 N3 2.293911 1_455
Li2 N10 2.341391 1_555
Li2 N9 2.341391 1_555
Li3 N5 2.283779 1_555
Li3 N6 2.283779 1_554
Li3 N1 2.293911 1_654
Li3 N2 2.293911 1_555
Li3 N11 2.341391 1_555
Li3 N8 2.341391 1_554
Al0 N3 1.999312 1_555
Al0 N0 1.999312 1_555
Al0 N9 2.016972 1_655
Al0 N10 2.016972 1_555
Al0 N13 2.050528 1_555
Al0 N14 2.050528 1_555
Al1 N2 1.999312 1_555
Al1 N1 1.999312 1_554
Al1 N8 2.016972 1_554
Al1 N11 2.016972 1_455
Al1 N12 2.050528 1_545
Al1 N15 2.050528 1_544
Al2 N4 1.999312 1_555
Al2 N7 1.999312 1_555
Al2 N14 2.016972 1_555
Al2 N13 2.016972 1_455
Al2 N10 2.050528 1_555
Al2 N9 2.050528 1_555
Al3 N5 1.999312 1_555
Al3 N6 1.999312 1_554
Al3 N15 2.016972 1_654
Al3 N12 2.016972 1_555
Al3 N11 2.050528 1_565
Al3 N8 2.050528 1_564
C0 N0 1.214253 1_555
C0 N8 1.246796 1_555
C1 N1 1.214253 1_555
C1 N9 1.246796 1_555
C2 N2 1.214253 1_555
C2 N10 1.246796 1_555
C3 N3 1.214253 1_555
C3 N11 1.246796 1_555
C4 N4 1.214253 1_555
C4 N12 1.246796 1_555
C5 N5 1.214253 1_555
C5 N13 1.246796 1_555
C6 N6 1.214253 1_555
C6 N14 1.246796 1_555
C7 N7 1.214253 1_555
C7 N15 1.246796 1_555
