# generated using pymatgen
data_NbRh
_symmetry_space_group_name_H-M   'P 1'
_cell_length_a   5.66228482
_cell_length_b   9.15769514
_cell_length_c   9.83469740
_cell_angle_alpha   90.00000000
_cell_angle_beta   90.00000000
_cell_angle_gamma   90.00000000
_symmetry_Int_Tables_number   1
_chemical_formula_structural   NbRh
_chemical_formula_sum   'Nb16 Rh16'
_cell_volume   509.96326701
_cell_formula_units_Z   16
loop_
 _symmetry_equiv_pos_site_id
 _symmetry_equiv_pos_as_xyz
  1  'x, y, z'
loop_
 _atom_site_type_symbol
 _atom_site_label
 _atom_site_symmetry_multiplicity
 _atom_site_fract_x
 _atom_site_fract_y
 _atom_site_fract_z
 _atom_site_occupancy
  Nb  Nb0_0  1  0.00000000  0.37500000  0.39981627  1
  Nb  Nb0_1  1  0.00000000  0.37500000  0.89981628  1
  Nb  Nb0_2  1  0.00000000  0.87500000  0.39981627  1
  Nb  Nb0_3  1  0.00000000  0.87500000  0.89981628  1
  Nb  Nb0_4  1  0.50000000  0.37500000  0.39981627  1
  Nb  Nb0_5  1  0.50000000  0.37500000  0.89981628  1
  Nb  Nb0_6  1  0.50000000  0.87500000  0.39981627  1
  Nb  Nb0_7  1  0.50000000  0.87500000  0.89981628  1
  Nb  Nb1_0  1  0.00000000  0.12500000  0.10018373  1
  Nb  Nb1_1  1  0.00000000  0.12500000  0.60018372  1
  Nb  Nb1_2  1  0.00000000  0.62500000  0.10018373  1
  Nb  Nb1_3  1  0.00000000  0.62500000  0.60018372  1
  Nb  Nb1_4  1  0.50000000  0.12500000  0.10018373  1
  Nb  Nb1_5  1  0.50000000  0.12500000  0.60018372  1
  Nb  Nb1_6  1  0.50000000  0.62500000  0.10018373  1
  Nb  Nb1_7  1  0.50000000  0.62500000  0.60018372  1
  Rh  Rh0_0  1  0.25000000  0.37500000  0.15576001  1
  Rh  Rh0_1  1  0.25000000  0.37500000  0.65576001  1
  Rh  Rh0_2  1  0.25000000  0.87500000  0.15576001  1
  Rh  Rh0_3  1  0.25000000  0.87500000  0.65576001  1
  Rh  Rh0_4  1  0.75000000  0.37500000  0.15576001  1
  Rh  Rh0_5  1  0.75000000  0.37500000  0.65576001  1
  Rh  Rh0_6  1  0.75000000  0.87500000  0.15576001  1
  Rh  Rh0_7  1  0.75000000  0.87500000  0.65576001  1
  Rh  Rh1_0  1  0.25000000  0.12500000  0.34423998  1
  Rh  Rh1_1  1  0.25000000  0.12500000  0.84423998  1
  Rh  Rh1_2  1  0.25000000  0.62500000  0.34423998  1
  Rh  Rh1_3  1  0.25000000  0.62500000  0.84423998  1
  Rh  Rh1_4  1  0.75000000  0.12500000  0.34423998  1
  Rh  Rh1_5  1  0.75000000  0.12500000  0.84423998  1
  Rh  Rh1_6  1  0.75000000  0.62500000  0.34423998  1
  Rh  Rh1_7  1  0.75000000  0.62500000  0.84423998  1
loop_
_geom_bond_atom_site_label_1
_geom_bond_atom_site_label_2
_geom_bond_distance
_geom_bond_site_symmetry_2
Nb0_0 Rh1_4 2.746643 1_455
Nb0_0 Rh1_6 2.746643 1_455
Nb0_0 Rh1_0 2.746643 1_555
Nb0_0 Rh1_2 2.746643 1_555
Nb0_0 Rh0_4 2.786556 1_455
Nb0_0 Rh0_0 2.786556 1_555
Nb0_0 Nb0_4 2.831142 1_455
Nb0_0 Nb0_4 2.831142 1_555
Nb0_0 Rh0_5 2.887868 1_455
Nb0_0 Rh0_1 2.887868 1_555
Nb0_0 Nb1_3 3.020686 1_555
Nb0_0 Nb1_1 3.020686 1_555
Nb0_1 Rh1_7 2.746643 1_455
Nb0_1 Rh1_5 2.746643 1_455
Nb0_1 Rh1_1 2.746643 1_555
Nb0_1 Rh1_3 2.746643 1_555
Nb0_1 Rh0_5 2.786556 1_455
Nb0_1 Rh0_1 2.786556 1_555
Nb0_1 Nb0_5 2.831142 1_455
Nb0_1 Nb0_5 2.831142 1_555
Nb0_1 Rh0_4 2.887868 1_456
Nb0_1 Rh0_0 2.887868 1_556
Nb0_1 Nb1_2 3.020686 1_556
Nb0_1 Nb1_0 3.020686 1_556
Nb0_2 Rh1_6 2.746643 1_455
Nb0_2 Rh1_4 2.746643 1_465
Nb0_2 Rh1_0 2.746643 1_565
Nb0_2 Rh1_2 2.746643 1_555
Nb0_2 Rh0_6 2.786556 1_455
Nb0_2 Rh0_2 2.786556 1_555
Nb0_2 Nb0_6 2.831142 1_555
Nb0_2 Nb0_6 2.831142 1_455
Nb0_2 Rh0_7 2.887868 1_455
Nb0_2 Rh0_3 2.887868 1_555
Nb0_2 Nb1_3 3.020686 1_555
Nb0_2 Nb1_1 3.020686 1_565
Nb0_3 Rh1_7 2.746643 1_455
Nb0_3 Rh1_5 2.746643 1_465
Nb0_3 Rh1_1 2.746643 1_565
Nb0_3 Rh1_3 2.746643 1_555
Nb0_3 Rh0_7 2.786556 1_455
Nb0_3 Rh0_3 2.786556 1_555
Nb0_3 Nb0_7 2.831142 1_455
Nb0_3 Nb0_7 2.831142 1_555
Nb0_3 Rh0_6 2.887868 1_456
Nb0_3 Rh0_2 2.887868 1_556
Nb0_3 Nb1_2 3.020686 1_556
Nb0_3 Nb1_0 3.020686 1_566
Nb0_4 Rh1_0 2.746643 1_555
Nb0_4 Rh1_2 2.746643 1_555
Nb0_4 Rh1_6 2.746643 1_555
Nb0_4 Rh1_4 2.746643 1_555
Nb0_4 Rh0_0 2.786556 1_555
Nb0_4 Rh0_4 2.786556 1_555
Nb0_4 Rh0_1 2.887868 1_555
Nb0_4 Rh0_5 2.887868 1_555
Nb0_4 Nb1_7 3.020686 1_555
Nb0_4 Nb1_5 3.020686 1_555
Nb0_5 Rh1_1 2.746643 1_555
Nb0_5 Rh1_3 2.746643 1_555
Nb0_5 Rh1_7 2.746643 1_555
Nb0_5 Rh1_5 2.746643 1_555
Nb0_5 Rh0_1 2.786556 1_555
Nb0_5 Rh0_5 2.786556 1_555
Nb0_5 Rh0_0 2.887868 1_556
Nb0_5 Rh0_4 2.887868 1_556
Nb0_5 Nb1_6 3.020686 1_556
Nb0_5 Nb1_4 3.020686 1_556
Nb0_6 Rh1_2 2.746643 1_555
Nb0_6 Rh1_0 2.746643 1_565
Nb0_6 Rh1_6 2.746643 1_555
Nb0_6 Rh1_4 2.746643 1_565
Nb0_6 Rh0_2 2.786556 1_555
Nb0_6 Rh0_6 2.786556 1_555
Nb0_6 Rh0_3 2.887868 1_555
Nb0_6 Rh0_7 2.887868 1_555
Nb0_6 Nb1_5 3.020686 1_565
Nb0_6 Nb1_7 3.020686 1_555
Nb0_7 Rh1_1 2.746643 1_565
Nb0_7 Rh1_3 2.746643 1_555
Nb0_7 Rh1_5 2.746643 1_565
Nb0_7 Rh1_7 2.746643 1_555
Nb0_7 Rh0_3 2.786556 1_555
Nb0_7 Rh0_7 2.786556 1_555
Nb0_7 Rh0_2 2.887868 1_556
Nb0_7 Rh0_6 2.887868 1_556
Nb0_7 Nb1_6 3.020686 1_556
Nb0_7 Nb1_4 3.020686 1_566
Nb1_0 Rh0_6 2.746643 1_445
Nb1_0 Rh0_4 2.746643 1_455
Nb1_0 Rh0_2 2.746643 1_545
Nb1_0 Rh0_0 2.746643 1_555
Nb1_0 Rh1_0 2.786556 1_555
Nb1_0 Rh1_4 2.786556 1_455
Nb1_0 Nb1_4 2.831142 1_555
Nb1_0 Nb1_4 2.831142 1_455
Nb1_0 Rh1_5 2.887868 1_454
Nb1_0 Rh1_1 2.887868 1_554
Nb1_1 Rh0_5 2.746643 1_455
Nb1_1 Rh0_7 2.746643 1_445
Nb1_1 Rh0_1 2.746643 1_555
Nb1_1 Rh0_3 2.746643 1_545
Nb1_1 Rh1_5 2.786556 1_455
Nb1_1 Rh1_1 2.786556 1_555
Nb1_1 Nb1_5 2.831142 1_455
Nb1_1 Nb1_5 2.831142 1_555
Nb1_1 Rh1_0 2.887868 1_555
Nb1_1 Rh1_4 2.887868 1_455
Nb1_2 Rh0_6 2.746643 1_455
Nb1_2 Rh0_4 2.746643 1_455
Nb1_2 Rh0_2 2.746643 1_555
Nb1_2 Rh0_0 2.746643 1_555
Nb1_2 Rh1_2 2.786556 1_555
Nb1_2 Rh1_6 2.786556 1_455
Nb1_2 Nb1_6 2.831142 1_455
Nb1_2 Nb1_6 2.831142 1_555
Nb1_2 Rh1_7 2.887868 1_454
Nb1_2 Rh1_3 2.887868 1_554
Nb1_3 Rh0_5 2.746643 1_455
Nb1_3 Rh0_7 2.746643 1_455
Nb1_3 Rh0_3 2.746643 1_555
Nb1_3 Rh0_1 2.746643 1_555
Nb1_3 Rh1_7 2.786556 1_455
Nb1_3 Rh1_3 2.786556 1_555
Nb1_3 Nb1_7 2.831142 1_555
Nb1_3 Nb1_7 2.831142 1_455
Nb1_3 Rh1_6 2.887868 1_455
Nb1_3 Rh1_2 2.887868 1_555
Nb1_4 Rh0_2 2.746643 1_545
Nb1_4 Rh0_0 2.746643 1_555
Nb1_4 Rh0_6 2.746643 1_545
Nb1_4 Rh0_4 2.746643 1_555
Nb1_4 Rh1_0 2.786556 1_555
Nb1_4 Rh1_4 2.786556 1_555
Nb1_4 Rh1_1 2.887868 1_554
Nb1_4 Rh1_5 2.887868 1_554
Nb1_5 Rh0_1 2.746643 1_555
Nb1_5 Rh0_3 2.746643 1_545
Nb1_5 Rh0_7 2.746643 1_545
Nb1_5 Rh0_5 2.746643 1_555
Nb1_5 Rh1_1 2.786556 1_555
Nb1_5 Rh1_5 2.786556 1_555
Nb1_5 Rh1_0 2.887868 1_555
Nb1_5 Rh1_4 2.887868 1_555
Nb1_6 Rh0_2 2.746643 1_555
Nb1_6 Rh0_0 2.746643 1_555
Nb1_6 Rh0_6 2.746643 1_555
Nb1_6 Rh0_4 2.746643 1_555
Nb1_6 Rh1_2 2.786556 1_555
Nb1_6 Rh1_6 2.786556 1_555
Nb1_6 Rh1_3 2.887868 1_554
Nb1_6 Rh1_7 2.887868 1_554
Nb1_7 Rh0_3 2.746643 1_555
Nb1_7 Rh0_1 2.746643 1_555
Nb1_7 Rh0_5 2.746643 1_555
Nb1_7 Rh0_7 2.746643 1_555
Nb1_7 Rh1_3 2.786556 1_555
Nb1_7 Rh1_7 2.786556 1_555
Nb1_7 Rh1_2 2.887868 1_555
Nb1_7 Rh1_6 2.887868 1_555
Rh0_0 Rh0_4 2.831142 1_455
Rh0_0 Rh0_4 2.831142 1_555
Rh0_0 Rh1_2 2.945752 1_555
Rh0_0 Rh1_0 2.945752 1_555
Rh0_1 Rh0_5 2.831142 1_455
Rh0_1 Rh0_5 2.831142 1_555
Rh0_1 Rh1_3 2.945752 1_555
Rh0_1 Rh1_1 2.945752 1_555
Rh0_2 Rh0_6 2.831142 1_455
Rh0_2 Rh0_6 2.831142 1_555
Rh0_2 Rh1_2 2.945752 1_555
Rh0_2 Rh1_0 2.945752 1_565
Rh0_3 Rh0_7 2.831142 1_455
Rh0_3 Rh0_7 2.831142 1_555
Rh0_3 Rh1_3 2.945752 1_555
Rh0_3 Rh1_1 2.945752 1_565
Rh0_4 Rh1_6 2.945752 1_555
Rh0_4 Rh1_4 2.945752 1_555
Rh0_5 Rh1_7 2.945752 1_555
Rh0_5 Rh1_5 2.945752 1_555
Rh0_6 Rh1_6 2.945752 1_555
Rh0_6 Rh1_4 2.945752 1_565
Rh0_7 Rh1_5 2.945752 1_565
Rh0_7 Rh1_7 2.945752 1_555
Rh1_0 Rh1_4 2.831142 1_455
Rh1_0 Rh1_4 2.831142 1_555
Rh1_1 Rh1_5 2.831142 1_455
Rh1_1 Rh1_5 2.831142 1_555
Rh1_2 Rh1_6 2.831142 1_455
Rh1_2 Rh1_6 2.831142 1_555
Rh1_3 Rh1_7 2.831142 1_455
Rh1_3 Rh1_7 2.831142 1_555
