# generated using pymatgen
data_CaBiF5
_symmetry_space_group_name_H-M   'P 1'
_cell_length_a   11.07812300
_cell_length_b   6.02488000
_cell_length_c   8.35788056
_cell_angle_alpha   70.16342043
_cell_angle_beta   90.00000000
_cell_angle_gamma   90.00000000
_symmetry_Int_Tables_number   1
_chemical_formula_structural   CaBiF5
_chemical_formula_sum   'Ca4 Bi4 F20'
_cell_volume   524.74150191
_cell_formula_units_Z   4
loop_
 _symmetry_equiv_pos_site_id
 _symmetry_equiv_pos_as_xyz
  1  'x, y, z'
loop_
 _atom_site_type_symbol
 _atom_site_label
 _atom_site_symmetry_multiplicity
 _atom_site_fract_x
 _atom_site_fract_y
 _atom_site_fract_z
 _atom_site_occupancy
  Ca  Ca0  1  0.01167500  0.52291500  0.74853800  1
  Ca  Ca1  1  0.51167500  0.47708500  0.75146200  1
  Ca  Ca2  1  0.98832500  0.47708500  0.25146200  1
  Ca  Ca3  1  0.48832500  0.52291500  0.24853800  1
  Bi  Bi0  1  0.75337000  0.10206400  0.60228700  1
  Bi  Bi1  1  0.25337000  0.89793600  0.89771300  1
  Bi  Bi2  1  0.24663000  0.89793600  0.39771300  1
  Bi  Bi3  1  0.74663000  0.10206400  0.10228700  1
  F  F0  1  0.89252300  0.39956300  0.56694400  1
  F  F1  1  0.39252300  0.60043700  0.93305600  1
  F  F2  1  0.10747700  0.60043700  0.43305600  1
  F  F3  1  0.60747700  0.39956300  0.06694400  1
  F  F4  1  0.60337100  0.37299600  0.48949700  1
  F  F5  1  0.10337100  0.62700400  0.01050300  1
  F  F6  1  0.39662900  0.62700400  0.51050300  1
  F  F7  1  0.89662900  0.37299600  0.98949700  1
  F  F8  1  0.41075100  0.13978200  0.80291100  1
  F  F9  1  0.91075100  0.86021800  0.69708900  1
  F  F10  1  0.58924900  0.86021800  0.19708900  1
  F  F11  1  0.08924900  0.13978200  0.30291100  1
  F  F12  1  0.12858500  0.20688300  0.85232800  1
  F  F13  1  0.62858500  0.79311700  0.64767200  1
  F  F14  1  0.87141500  0.79311700  0.14767200  1
  F  F15  1  0.37141500  0.20688300  0.35232800  1
  F  F16  1  0.67858100  0.19978000  0.82759100  1
  F  F17  1  0.17858100  0.80022000  0.67240900  1
  F  F18  1  0.32141900  0.80022000  0.17240900  1
  F  F19  1  0.82141900  0.19978000  0.32759100  1
loop_
_geom_bond_atom_site_label_1
_geom_bond_atom_site_label_2
_geom_bond_distance
_geom_bond_site_symmetry_2
Ca0 F12 2.221339 1_555
Ca0 F9 2.229741 1_455
Ca0 F7 2.293787 1_455
Ca0 F0 2.315971 1_455
Ca0 F17 2.427661 1_555
Ca0 F5 2.674104 1_556
Ca0 F2 2.731523 1_555
Ca1 F13 2.221339 1_555
Ca1 F8 2.229741 1_555
Ca1 F6 2.293787 1_555
Ca1 F1 2.315971 1_555
Ca1 F16 2.427661 1_555
Ca1 F4 2.674104 1_555
Ca1 F3 2.731523 1_556
Ca2 F14 2.221339 1_555
Ca2 F11 2.229741 1_655
Ca2 F5 2.293787 1_655
Ca2 F2 2.315971 1_655
Ca2 F19 2.427661 1_555
Ca2 F7 2.674104 1_554
Ca2 F0 2.731523 1_555
Ca3 F15 2.221339 1_555
Ca3 F10 2.229741 1_555
Ca3 F4 2.293787 1_555
Ca3 F3 2.315971 1_555
Ca3 F18 2.427661 1_555
Ca3 F6 2.674104 1_555
Ca3 F1 2.731523 1_554
Bi0 F9 2.237661 1_545
Bi0 F13 2.245078 1_545
Bi0 F19 2.295346 1_555
Bi0 F4 2.295671 1_555
Bi0 F0 2.305861 1_555
Bi0 F16 2.308975 1_555
Bi1 F8 2.237661 1_565
Bi1 F12 2.245078 1_565
Bi1 F18 2.295346 1_556
Bi1 F5 2.295671 1_556
Bi1 F1 2.305861 1_555
Bi1 F17 2.308975 1_555
Bi2 F11 2.237661 1_565
Bi2 F15 2.245078 1_565
Bi2 F17 2.295346 1_555
Bi2 F6 2.295671 1_555
Bi2 F2 2.305861 1_555
Bi2 F18 2.308975 1_555
Bi3 F10 2.237661 1_545
Bi3 F14 2.245078 1_545
Bi3 F16 2.295346 1_554
Bi3 F7 2.295671 1_554
Bi3 F3 2.305861 1_555
Bi3 F19 2.308975 1_555
