# generated using pymatgen
data_Li9Mn2Co5O16
_symmetry_space_group_name_H-M   'P 1'
_cell_length_a   5.00635500
_cell_length_b   5.90485358
_cell_length_c   10.21670987
_cell_angle_alpha   89.73857863
_cell_angle_beta   99.43477323
_cell_angle_gamma   106.04108532
_symmetry_Int_Tables_number   1
_chemical_formula_structural   Li9Mn2Co5O16
_chemical_formula_sum   'Li9 Mn2 Co5 O16'
_cell_volume   286.07371773
_cell_formula_units_Z   1
loop_
 _symmetry_equiv_pos_site_id
 _symmetry_equiv_pos_as_xyz
  1  'x, y, z'
loop_
 _atom_site_type_symbol
 _atom_site_label
 _atom_site_symmetry_multiplicity
 _atom_site_fract_x
 _atom_site_fract_y
 _atom_site_fract_z
 _atom_site_occupancy
  Li  Li0  1  0.50000000  0.50000000  0.50000000  1
  Li  Li1  1  0.98952300  0.37311300  0.63029600  1
  Li  Li2  1  0.01047700  0.62688700  0.36970400  1
  Li  Li3  1  0.50394800  0.25666300  0.76479600  1
  Li  Li4  1  0.01310300  0.13234500  0.88307700  1
  Li  Li5  1  0.50000000  0.00000000  0.00000000  1
  Li  Li6  1  0.98689700  0.86765500  0.11692300  1
  Li  Li7  1  0.49605200  0.74333700  0.23520400  1
  Li  Li8  1  0.50000000  0.50000000  0.00000000  1
  Mn  Mn0  1  0.99910200  0.12191200  0.37516700  1
  Mn  Mn1  1  0.00089800  0.87808800  0.62483300  1
  Co  Co0  1  0.50000000  0.00000000  0.50000000  1
  Co  Co1  1  0.50995400  0.75033900  0.75886000  1
  Co  Co2  1  0.00801900  0.61444700  0.87847200  1
  Co  Co3  1  0.99198100  0.38555300  0.12152800  1
  Co  Co4  1  0.49004600  0.24966100  0.24114000  1
  O  O0  1  0.23881000  0.16184000  0.55308800  1
  O  O1  1  0.74617200  0.04695800  0.67053500  1
  O  O2  1  0.74161200  0.27857900  0.43307000  1
  O  O3  1  0.23444200  0.93417700  0.79594900  1
  O  O4  1  0.74831700  0.80736400  0.92071600  1
  O  O5  1  0.23182900  0.67861600  0.05870600  1
  O  O6  1  0.75774100  0.54325100  0.19262200  1
  O  O7  1  0.23770700  0.40993600  0.32120100  1
  O  O8  1  0.76119000  0.83816000  0.44691200  1
  O  O9  1  0.25838800  0.72142100  0.56693000  1
  O  O10  1  0.25382800  0.95304200  0.32946500  1
  O  O11  1  0.76229300  0.59006400  0.67879900  1
  O  O12  1  0.24225900  0.45674900  0.80737800  1
  O  O13  1  0.76817100  0.32138400  0.94129400  1
  O  O14  1  0.25168300  0.19263600  0.07928400  1
  O  O15  1  0.76555800  0.06582300  0.20405100  1
loop_
_geom_bond_atom_site_label_1
_geom_bond_atom_site_label_2
_geom_bond_distance
_geom_bond_site_symmetry_2
Li0 O11 2.044654 1_555
Li0 O7 2.044654 1_555
Li0 O0 2.184222 1_555
Li0 O8 2.184222 1_555
Li0 O9 2.189408 1_555
Li0 O2 2.189408 1_555
Li1 O12 2.007574 1_655
Li1 O11 2.043726 1_555
Li1 O1 2.054904 1_555
Li1 O2 2.172487 1_555
Li1 O0 2.219979 1_655
Li1 O9 2.281348 1_655
Li2 O6 2.007574 1_455
Li2 O7 2.043726 1_555
Li2 O10 2.054904 1_555
Li2 O9 2.172487 1_555
Li2 O8 2.219979 1_455
Li2 O2 2.281348 1_455
Li3 O13 2.022958 1_555
Li3 O3 2.064753 1_545
Li3 O12 2.085312 1_555
Li3 O1 2.270449 1_555
Li3 O11 2.295659 1_555
Li3 O0 2.326555 1_555
Li4 O13 2.026082 1_455
Li4 O4 2.083771 1_445
Li4 O3 2.106899 1_545
Li4 O14 2.135015 1_556
Li4 O12 2.155578 1_555
Li4 O1 2.332729 1_455
Li5 O13 2.146887 1_554
Li5 O5 2.146887 1_545
Li5 O14 2.148374 1_555
Li5 O4 2.148374 1_544
Li5 O15 2.253404 1_555
Li5 O3 2.253404 1_544
Li6 O5 2.026082 1_655
Li6 O14 2.083771 1_665
Li6 O15 2.106899 1_565
Li6 O4 2.135015 1_554
Li6 O6 2.155578 1_555
Li6 O10 2.332729 1_655
Li7 O5 2.022958 1_555
Li7 O15 2.064753 1_565
Li7 O6 2.085312 1_555
Li7 O10 2.270449 1_555
Li7 O7 2.295659 1_555
Li7 O8 2.326555 1_555
Li8 O13 2.080126 1_554
Li8 O5 2.080126 1_555
Li8 O4 2.136677 1_554
Li8 O14 2.136677 1_555
Li8 O6 2.143135 1_555
Li8 O12 2.143135 1_554
Mn0 O15 1.911600 1_555
Mn0 O7 1.925626 1_655
Mn0 O10 1.934120 1_645
Mn0 O2 1.944627 1_555
Mn0 O0 1.983023 1_655
Mn0 O8 1.983785 1_545
Mn1 O3 1.911600 1_555
Mn1 O11 1.925626 1_455
Mn1 O1 1.934120 1_465
Mn1 O9 1.944627 1_555
Mn1 O8 1.983023 1_455
Mn1 O0 1.983785 1_565
Co0 O1 1.934673 1_555
Co0 O10 1.934673 1_545
Co0 O2 1.948820 1_555
Co0 O9 1.948820 1_545
Co0 O0 1.960899 1_555
Co0 O8 1.960899 1_545
Co1 O4 1.846073 1_555
Co1 O12 1.993271 1_555
Co1 O11 2.041382 1_555
Co1 O3 2.055983 1_555
Co1 O1 2.114542 1_565
Co1 O9 2.129546 1_555
Co2 O12 1.912799 1_555
Co2 O5 1.971061 1_556
Co2 O13 1.985589 1_455
Co2 O4 2.044828 1_455
Co2 O3 2.162462 1_555
Co2 O11 2.185802 1_455
Co3 O6 1.912799 1_555
Co3 O13 1.971061 1_554
Co3 O5 1.985589 1_655
Co3 O14 2.044828 1_655
Co3 O15 2.162462 1_555
Co3 O7 2.185802 1_655
Co4 O14 1.846073 1_555
Co4 O6 1.993271 1_555
Co4 O7 2.041382 1_555
Co4 O15 2.055983 1_555
Co4 O10 2.114542 1_545
Co4 O2 2.129546 1_555
