# generated using pymatgen
data_Dy5(Ge5Rh2)2
_symmetry_space_group_name_H-M   'P 1'
_cell_length_a   12.97163617
_cell_length_b   12.97163617
_cell_length_c   4.27867051
_cell_angle_alpha   90.00000000
_cell_angle_beta   90.00000000
_cell_angle_gamma   90.00000000
_symmetry_Int_Tables_number   1
_chemical_formula_structural   Dy5(Ge5Rh2)2
_chemical_formula_sum   'Dy10 Ge20 Rh8'
_cell_volume   719.94341185
_cell_formula_units_Z   2
loop_
 _symmetry_equiv_pos_site_id
 _symmetry_equiv_pos_as_xyz
  1  'x, y, z'
loop_
 _atom_site_type_symbol
 _atom_site_label
 _atom_site_symmetry_multiplicity
 _atom_site_fract_x
 _atom_site_fract_y
 _atom_site_fract_z
 _atom_site_occupancy
  Dy  Dy0  1  0.50000000  0.50000000  -0.00000000  1
  Dy  Dy1  1  0.00000000  -0.00000000  -0.00000000  1
  Dy  Dy2  1  0.67475595  0.17475595  0.50000000  1
  Dy  Dy3  1  0.32524405  0.82524405  0.50000000  1
  Dy  Dy4  1  0.17475595  0.32524405  0.50000000  1
  Dy  Dy5  1  0.82524405  0.67475595  0.50000000  1
  Dy  Dy6  1  0.88747156  0.38747156  0.50000000  1
  Dy  Dy7  1  0.11252844  0.61252844  0.50000000  1
  Dy  Dy8  1  0.38747156  0.11252844  0.50000000  1
  Dy  Dy9  1  0.61252844  0.88747156  0.50000000  1
  Ge  Ge0  1  0.56711573  0.06711573  0.00000000  1
  Ge  Ge1  1  0.43288427  0.93288427  -0.00000000  1
  Ge  Ge2  1  0.06711573  0.43288427  -0.00000000  1
  Ge  Ge3  1  0.93288427  0.56711573  0.00000000  1
  Ge  Ge4  1  0.66180760  0.70093422  -0.00000000  1
  Ge  Ge5  1  0.33819240  0.29906578  0.00000000  1
  Ge  Ge6  1  0.16180760  0.79906578  -0.00000000  1
  Ge  Ge7  1  0.83819240  0.20093422  0.00000000  1
  Ge  Ge8  1  0.29906578  0.66180760  0.00000000  1
  Ge  Ge9  1  0.70093422  0.33819240  -0.00000000  1
  Ge  Ge10  1  0.20093422  0.16180760  -0.00000000  1
  Ge  Ge11  1  0.79906578  0.83819240  0.00000000  1
  Ge  Ge12  1  0.65829090  0.50275245  0.50000000  1
  Ge  Ge13  1  0.34170910  0.49724755  0.50000000  1
  Ge  Ge14  1  0.15829090  0.99724755  0.50000000  1
  Ge  Ge15  1  0.84170910  0.00275245  0.50000000  1
  Ge  Ge16  1  0.49724755  0.65829090  0.50000000  1
  Ge  Ge17  1  0.50275245  0.34170910  0.50000000  1
  Ge  Ge18  1  0.00275245  0.15829090  0.50000000  1
  Ge  Ge19  1  0.99724755  0.84170910  0.50000000  1
  Rh  Rh0  1  0.74489750  0.52117809  0.00000000  1
  Rh  Rh1  1  0.25510250  0.47882191  -0.00000000  1
  Rh  Rh2  1  0.24489750  0.97882191  0.00000000  1
  Rh  Rh3  1  0.75510250  0.02117809  -0.00000000  1
  Rh  Rh4  1  0.47882191  0.74489750  -0.00000000  1
  Rh  Rh5  1  0.52117809  0.25510250  0.00000000  1
  Rh  Rh6  1  0.02117809  0.24489750  -0.00000000  1
  Rh  Rh7  1  0.97882191  0.75510250  0.00000000  1
loop_
_geom_bond_atom_site_label_1
_geom_bond_atom_site_label_2
_geom_bond_distance
_geom_bond_site_symmetry_2
Dy0 Ge17 2.965474 1_554
Dy0 Ge13 2.965474 1_555
Dy0 Ge17 2.965474 1_555
Dy0 Ge12 2.965474 1_554
Dy0 Ge12 2.965474 1_555
Dy0 Ge16 2.965474 1_555
Dy0 Ge13 2.965474 1_554
Dy0 Ge16 2.965474 1_554
Dy0 Rh5 3.188577 1_555
Dy0 Rh1 3.188577 1_555
Dy0 Rh4 3.188577 1_555
Dy0 Rh0 3.188577 1_555
Dy0 Ge8 3.346488 1_555
Dy0 Ge4 3.346488 1_555
Dy0 Ge5 3.346488 1_555
Dy0 Ge9 3.346488 1_555
Dy1 Ge18 2.965474 1_555
Dy1 Ge14 2.965474 1_544
Dy1 Ge14 2.965474 1_545
Dy1 Ge18 2.965474 1_554
Dy1 Ge19 2.965474 1_444
Dy1 Ge19 2.965474 1_445
Dy1 Ge15 2.965474 1_454
Dy1 Ge15 2.965474 1_455
Dy1 Rh7 3.188577 1_445
Dy1 Rh6 3.188577 1_555
Dy1 Rh3 3.188577 1_455
Dy1 Rh2 3.188577 1_545
Dy1 Ge6 3.346488 1_545
Dy1 Ge11 3.346488 1_445
Dy1 Ge10 3.346488 1_555
Dy1 Ge7 3.346488 1_455
Dy2 Ge0 2.911339 1_555
Dy2 Ge0 2.911339 1_556
Dy2 Ge7 3.030945 1_556
Dy2 Ge7 3.030945 1_555
Dy2 Ge9 3.030945 1_556
Dy2 Ge9 3.030945 1_555
Dy2 Rh5 3.103494 1_555
Dy2 Rh5 3.103494 1_556
Dy2 Rh3 3.103494 1_555
Dy2 Rh3 3.103494 1_556
Dy2 Ge17 3.109368 1_555
Dy2 Ge15 3.109368 1_555
Dy3 Ge1 2.911339 1_555
Dy3 Ge1 2.911339 1_556
Dy3 Ge6 3.030945 1_556
Dy3 Ge6 3.030945 1_555
Dy3 Ge8 3.030945 1_555
Dy3 Ge8 3.030945 1_556
Dy3 Rh4 3.103494 1_556
Dy3 Rh4 3.103494 1_555
Dy3 Rh2 3.103494 1_555
Dy3 Rh2 3.103494 1_556
Dy3 Ge16 3.109368 1_555
Dy3 Ge14 3.109368 1_555
Dy4 Ge2 2.911339 1_556
Dy4 Ge2 2.911339 1_555
Dy4 Ge5 3.030945 1_556
Dy4 Ge10 3.030945 1_556
Dy4 Ge10 3.030945 1_555
Dy4 Ge5 3.030945 1_555
Dy4 Rh6 3.103494 1_555
Dy4 Rh6 3.103494 1_556
Dy4 Rh1 3.103494 1_556
Dy4 Rh1 3.103494 1_555
Dy4 Ge13 3.109368 1_555
Dy4 Ge18 3.109368 1_555
Dy5 Ge3 2.911339 1_556
Dy5 Ge3 2.911339 1_555
Dy5 Ge11 3.030945 1_556
Dy5 Ge11 3.030945 1_555
Dy5 Ge4 3.030945 1_555
Dy5 Ge4 3.030945 1_556
Dy5 Rh0 3.103494 1_555
Dy5 Rh0 3.103494 1_556
Dy5 Rh7 3.103494 1_555
Dy5 Rh7 3.103494 1_556
Dy5 Ge12 3.109368 1_555
Dy5 Ge19 3.109368 1_555
Dy6 Ge2 3.217758 1_655
Dy6 Ge2 3.217758 1_656
Dy6 Ge3 3.217758 1_556
Dy6 Ge3 3.217758 1_555
Dy6 Ge9 3.292460 1_556
Dy6 Ge9 3.292460 1_555
Dy6 Ge7 3.292460 1_555
Dy6 Ge7 3.292460 1_556
Dy6 Rh6 3.317412 1_656
Dy6 Rh6 3.317412 1_655
Dy6 Rh0 3.317412 1_556
Dy6 Rh0 3.317412 1_555
Dy6 Ge12 3.327761 1_555
Dy6 Ge18 3.327761 1_655
Dy7 Ge3 3.217758 1_455
Dy7 Ge3 3.217758 1_456
Dy7 Ge2 3.217758 1_556
Dy7 Ge2 3.217758 1_555
Dy7 Ge8 3.292460 1_556
Dy7 Ge8 3.292460 1_555
Dy7 Ge6 3.292460 1_556
Dy7 Ge6 3.292460 1_555
Dy7 Rh7 3.317412 1_455
Dy7 Rh7 3.317412 1_456
Dy7 Rh1 3.317412 1_555
Dy7 Rh1 3.317412 1_556
Dy7 Ge19 3.327761 1_455
Dy7 Ge13 3.327761 1_555
Dy8 Ge1 3.217758 1_546
Dy8 Ge1 3.217758 1_545
Dy8 Ge0 3.217758 1_555
Dy8 Ge0 3.217758 1_556
Dy8 Ge5 3.292460 1_556
Dy8 Ge10 3.292460 1_555
Dy8 Ge5 3.292460 1_555
Dy8 Ge10 3.292460 1_556
Dy8 Rh2 3.317412 1_546
Dy8 Rh2 3.317412 1_545
Dy8 Rh5 3.317412 1_555
Dy8 Rh5 3.317412 1_556
Dy8 Ge17 3.327761 1_555
Dy8 Ge14 3.327761 1_545
Dy9 Ge0 3.217758 1_565
Dy9 Ge0 3.217758 1_566
Dy9 Ge1 3.217758 1_555
Dy9 Ge1 3.217758 1_556
Dy9 Ge4 3.292460 1_555
Dy9 Ge4 3.292460 1_556
Dy9 Ge11 3.292460 1_556
Dy9 Ge11 3.292460 1_555
Dy9 Rh3 3.317412 1_565
Dy9 Rh3 3.317412 1_566
Dy9 Rh4 3.317412 1_556
Dy9 Rh4 3.317412 1_555
Dy9 Ge15 3.327761 1_565
Dy9 Ge16 3.327761 1_555
Ge0 Ge1 2.462431 1_545
Ge0 Rh3 2.510248 1_555
Ge0 Rh5 2.510248 1_555
Ge1 Rh2 2.510248 1_555
Ge1 Rh4 2.510248 1_555
Ge2 Ge3 2.462431 1_455
Ge2 Rh1 2.510248 1_555
Ge2 Rh6 2.510248 1_555
Ge3 Rh7 2.510248 1_555
Ge3 Rh0 2.510248 1_555
Ge4 Rh4 2.441169 1_555
Ge4 Rh0 2.568783 1_555
Ge5 Rh5 2.441169 1_555
Ge5 Rh1 2.568783 1_555
Ge6 Rh7 2.441169 1_455
Ge6 Rh2 2.568783 1_555
Ge7 Rh6 2.441169 1_655
Ge7 Rh3 2.568783 1_555
Ge8 Rh1 2.441169 1_555
Ge8 Rh4 2.568783 1_555
Ge9 Rh0 2.441169 1_555
Ge9 Rh5 2.568783 1_555
Ge10 Rh2 2.441169 1_545
Ge10 Rh6 2.568783 1_555
Ge11 Rh3 2.441169 1_565
Ge11 Rh7 2.568783 1_555
Ge12 Rh0 2.428163 1_556
Ge12 Rh0 2.428163 1_555
Ge13 Rh1 2.428163 1_555
Ge13 Rh1 2.428163 1_556
Ge14 Rh2 2.428163 1_555
Ge14 Rh2 2.428163 1_556
Ge15 Rh3 2.428163 1_556
Ge15 Rh3 2.428163 1_555
Ge16 Rh4 2.428163 1_556
Ge16 Rh4 2.428163 1_555
Ge17 Rh5 2.428163 1_555
Ge17 Rh5 2.428163 1_556
Ge18 Rh6 2.428163 1_555
Ge18 Rh6 2.428163 1_556
Ge19 Rh7 2.428163 1_555
Ge19 Rh7 2.428163 1_556
