# generated using pymatgen
data_Ba2Nd2Co4O11
_symmetry_space_group_name_H-M   'P 1'
_cell_length_a   8.65354966
_cell_length_b   8.65354966
_cell_length_c   8.65354966
_cell_angle_alpha   142.01080051
_cell_angle_beta   142.01080051
_cell_angle_gamma   54.81253085
_symmetry_Int_Tables_number   1
_chemical_formula_structural   Ba2Nd2Co4O11
_chemical_formula_sum   'Ba2 Nd2 Co4 O11'
_cell_volume   243.77375686
_cell_formula_units_Z   1
loop_
 _symmetry_equiv_pos_site_id
 _symmetry_equiv_pos_as_xyz
  1  'x, y, z'
loop_
 _atom_site_type_symbol
 _atom_site_label
 _atom_site_symmetry_multiplicity
 _atom_site_fract_x
 _atom_site_fract_y
 _atom_site_fract_z
 _atom_site_occupancy
  Ba  Ba0  1  0.25000000  0.75000000  0.50000000  1
  Ba  Ba1  1  0.75000000  0.25000000  0.50000000  1
  Nd  Nd0  1  0.00000000  0.50000000  0.50000000  1
  Nd  Nd1  1  0.50000000  0.00000000  0.50000000  1
  Co  Co0  1  0.62230600  0.62230600  0.00000000  1
  Co  Co1  1  0.12106900  0.12106900  0.00000000  1
  Co  Co2  1  0.87893100  0.87893100  0.00000000  1
  Co  Co3  1  0.37769400  0.37769400  0.00000000  1
  O  O0  1  0.84000000  0.36800100  0.00000000  1
  O  O1  1  0.36800100  0.84000000  0.00000000  1
  O  O2  1  0.16000000  0.63199900  0.00000000  1
  O  O3  1  0.63199900  0.16000000  0.00000000  1
  O  O4  1  0.84000000  0.84000000  0.47199900  1
  O  O5  1  0.36800100  0.36800100  0.52800100  1
  O  O6  1  0.16000000  0.16000000  0.52800100  1
  O  O7  1  0.63199900  0.63199900  0.47199900  1
  O  O8  1  0.76142100  0.76142100  0.00000000  1
  O  O9  1  0.23857900  0.23857900  0.00000000  1
  O  O10  1  0.00000000  0.00000000  0.00000000  1
loop_
_geom_bond_atom_site_label_1
_geom_bond_atom_site_label_2
_geom_bond_distance
_geom_bond_site_symmetry_2
Ba0 O9 2.822010 1_566
Ba0 O9 2.822010 1_555
Ba0 O8 2.822010 1_455
Ba0 O8 2.822010 1_556
Ba0 O6 3.001831 1_565
Ba0 O3 3.001831 1_566
Ba0 O7 3.001831 1_555
Ba0 O0 3.001831 1_455
Ba0 O5 3.001831 1_555
Ba0 O1 3.001831 1_556
Ba0 O2 3.001831 1_555
Ba0 O4 3.001831 1_455
Ba1 O9 2.822010 1_555
Ba1 O9 2.822010 1_656
Ba1 O8 2.822010 1_545
Ba1 O8 2.822010 1_556
Ba1 O6 3.001831 1_655
Ba1 O2 3.001831 1_656
Ba1 O7 3.001831 1_555
Ba1 O1 3.001831 1_545
Ba1 O0 3.001831 1_556
Ba1 O5 3.001831 1_555
Ba1 O3 3.001831 1_555
Ba1 O4 3.001831 1_545
Nd0 O4 2.555835 1_455
Nd0 O3 2.555835 1_455
Nd0 O5 2.555835 1_555
Nd0 O2 2.555835 1_556
Nd0 O0 2.555835 1_455
Nd0 O6 2.555835 1_555
Nd0 O1 2.555835 1_556
Nd0 O7 2.555835 1_455
Nd0 O10 2.816549 1_566
Nd0 O10 2.816549 1_555
Nd1 O4 2.555835 1_545
Nd1 O5 2.555835 1_555
Nd1 O6 2.555835 1_555
Nd1 O1 2.555835 1_545
Nd1 O2 2.555835 1_545
Nd1 O0 2.555835 1_556
Nd1 O3 2.555835 1_556
Nd1 O7 2.555835 1_545
Nd1 O10 2.816549 1_656
Nd1 O10 2.816549 1_555
Co0 O0 1.900989 1_555
Co0 O4 1.900989 1_555
Co0 O1 1.900989 1_555
Co0 O5 1.900989 1_554
Co0 O8 2.137452 1_555
Co1 O9 1.805499 1_555
Co1 O10 1.860181 1_555
Co1 O4 2.119422 1_444
Co1 O5 2.119422 1_555
Co1 O1 2.119422 1_545
Co1 O0 2.119422 1_455
Co2 O8 1.805499 1_555
Co2 O10 1.860181 1_665
Co2 O2 2.119422 1_655
Co2 O3 2.119422 1_565
Co2 O6 2.119422 1_665
Co2 O7 2.119422 1_554
Co3 O6 1.900989 1_554
Co3 O3 1.900989 1_555
Co3 O7 1.900989 1_555
Co3 O2 1.900989 1_555
Co3 O9 2.137452 1_555
