# generated using pymatgen
data_Nb2Co3Si
_symmetry_space_group_name_H-M   'P 1'
_cell_length_a   4.83185863
_cell_length_b   4.83185848
_cell_length_c   7.51294504
_cell_angle_alpha   90.00000000
_cell_angle_beta   90.00000000
_cell_angle_gamma   120.00000112
_symmetry_Int_Tables_number   1
_chemical_formula_structural   Nb2Co3Si
_chemical_formula_sum   'Nb4 Co6 Si2'
_cell_volume   151.90401861
_cell_formula_units_Z   2
loop_
 _symmetry_equiv_pos_site_id
 _symmetry_equiv_pos_as_xyz
  1  'x, y, z'
loop_
 _atom_site_type_symbol
 _atom_site_label
 _atom_site_symmetry_multiplicity
 _atom_site_fract_x
 _atom_site_fract_y
 _atom_site_fract_z
 _atom_site_occupancy
  Nb  Nb0  1  0.66666700  0.33333300  0.93976477  1
  Nb  Nb1  1  0.33333300  0.66666700  0.43976477  1
  Nb  Nb2  1  0.66666700  0.33333300  0.56023523  1
  Nb  Nb3  1  0.33333300  0.66666700  0.06023523  1
  Co  Co0  1  0.16959056  0.83040944  0.75000000  1
  Co  Co1  1  0.66081888  0.83040944  0.75000000  1
  Co  Co2  1  0.83040944  0.16959056  0.25000000  1
  Co  Co3  1  0.16959056  0.33918112  0.75000000  1
  Co  Co4  1  0.83040944  0.66081888  0.25000000  1
  Co  Co5  1  0.33918112  0.16959056  0.25000000  1
  Si  Si0  1  0.00000000  0.00000000  0.50000000  1
  Si  Si1  1  0.00000000  0.00000000  0.00000000  1
loop_
_geom_bond_atom_site_label_1
_geom_bond_atom_site_label_2
_geom_bond_distance
_geom_bond_site_symmetry_2
Nb0 Si1 2.826140 1_656
Nb0 Si1 2.826144 1_666
Nb0 Si1 2.826144 1_556
Nb0 Nb2 2.851385 1_555
Nb0 Nb3 2.932824 1_546
Nb0 Nb3 2.932824 1_656
Nb0 Nb3 2.932832 1_556
Nb1 Si0 2.826140 1_565
Nb1 Si0 2.826144 1_555
Nb1 Si0 2.826144 1_665
Nb1 Nb3 2.851385 1_555
Nb1 Nb2 2.932824 1_565
Nb1 Nb2 2.932824 1_455
Nb1 Nb2 2.932832 1_555
Nb2 Si0 2.826140 1_655
Nb2 Si0 2.826144 1_665
Nb2 Si0 2.826144 1_555
Nb3 Si1 2.826140 1_565
Nb3 Si1 2.826144 1_555
Nb3 Si1 2.826144 1_665
Co0 Si1 2.354189 1_566
Co0 Si0 2.354189 1_565
Co0 Co3 2.373546 1_555
Co0 Co1 2.373546 1_555
Co0 Co3 2.458313 1_565
Co0 Co1 2.458313 1_455
Co0 Nb3 2.703782 1_556
Co0 Nb1 2.703782 1_555
Co0 Nb0 2.805336 1_565
Co0 Nb2 2.805336 1_565
Co0 Nb2 2.805336 1_455
Co0 Nb0 2.805336 1_455
Co1 Si1 2.354189 1_666
Co1 Si0 2.354189 1_665
Co1 Co3 2.373546 1_555
Co1 Co3 2.458313 1_665
Co1 Nb3 2.703784 1_556
Co1 Nb1 2.703784 1_555
Co1 Nb0 2.805334 1_565
Co1 Nb2 2.805334 1_565
Co1 Nb2 2.805338 1_555
Co1 Nb0 2.805338 1_555
Co2 Si1 2.354189 1_655
Co2 Si0 2.354189 1_655
Co2 Co4 2.373546 1_555
Co2 Co5 2.373546 1_555
Co2 Co4 2.458313 1_545
Co2 Co5 2.458313 1_655
Co2 Nb0 2.703782 1_554
Co2 Nb2 2.703782 1_555
Co2 Nb3 2.805336 1_545
Co2 Nb1 2.805336 1_545
Co2 Nb3 2.805336 1_655
Co2 Nb1 2.805336 1_655
Co3 Si1 2.354189 1_556
Co3 Si0 2.354189 1_555
Co3 Nb3 2.703784 1_556
Co3 Nb1 2.703784 1_555
Co3 Nb2 2.805334 1_455
Co3 Nb0 2.805334 1_455
Co3 Nb2 2.805338 1_555
Co3 Nb0 2.805338 1_555
Co4 Si1 2.354189 1_665
Co4 Si0 2.354189 1_665
Co4 Co5 2.373546 1_555
Co4 Co5 2.458313 1_665
Co4 Nb2 2.703784 1_555
Co4 Nb0 2.703784 1_554
Co4 Nb3 2.805334 1_655
Co4 Nb1 2.805334 1_655
Co4 Nb3 2.805338 1_555
Co4 Nb1 2.805338 1_555
Co5 Si1 2.354189 1_555
Co5 Si0 2.354189 1_555
Co5 Nb0 2.703784 1_554
Co5 Nb2 2.703784 1_555
Co5 Nb3 2.805334 1_545
Co5 Nb1 2.805334 1_545
Co5 Nb1 2.805338 1_555
Co5 Nb3 2.805338 1_555
