# generated using pymatgen
data_K3NiO2
_symmetry_space_group_name_H-M   'P 1'
_cell_length_a   6.11344800
_cell_length_b   6.11344800
_cell_length_c   7.04111100
_cell_angle_alpha   90.00000000
_cell_angle_beta   90.00000000
_cell_angle_gamma   90.00000000
_symmetry_Int_Tables_number   1
_chemical_formula_structural   K3NiO2
_chemical_formula_sum   'K6 Ni2 O4'
_cell_volume   263.15621779
_cell_formula_units_Z   2
loop_
 _symmetry_equiv_pos_site_id
 _symmetry_equiv_pos_as_xyz
  1  'x, y, z'
loop_
 _atom_site_type_symbol
 _atom_site_label
 _atom_site_symmetry_multiplicity
 _atom_site_fract_x
 _atom_site_fract_y
 _atom_site_fract_z
 _atom_site_occupancy
  K  K0  1  0.00000000  0.50000000  0.25000000  1
  K  K1  1  0.50000000  0.00000000  0.75000000  1
  K  K2  1  0.00000000  0.50000000  0.75000000  1
  K  K3  1  0.50000000  0.00000000  0.25000000  1
  K  K4  1  0.00000000  0.00000000  0.50000000  1
  K  K5  1  0.50000000  0.50000000  0.00000000  1
  Ni  Ni0  1  0.50000000  0.50000000  0.50000000  1
  Ni  Ni1  1  0.00000000  0.00000000  0.00000000  1
  O  O0  1  0.70763700  0.70763700  0.50000000  1
  O  O1  1  0.29236300  0.29236300  0.50000000  1
  O  O2  1  0.79236300  0.20763700  0.00000000  1
  O  O3  1  0.20763700  0.79236300  0.00000000  1
loop_
_geom_bond_atom_site_label_1
_geom_bond_atom_site_label_2
_geom_bond_distance
_geom_bond_site_symmetry_2
K0 O1 2.811495 1_555
K0 O0 2.811495 1_455
K0 O3 2.811495 1_555
K0 O2 2.811495 1_455
K1 O1 2.811495 1_555
K1 O2 2.811495 1_556
K1 O3 2.811495 1_546
K1 O0 2.811495 1_545
K2 O1 2.811495 1_555
K2 O2 2.811495 1_456
K2 O0 2.811495 1_455
K2 O3 2.811495 1_556
K3 O1 2.811495 1_555
K3 O2 2.811495 1_555
K3 O3 2.811495 1_545
K3 O0 2.811495 1_545
K4 O1 2.527689 1_555
K4 O0 2.527689 1_445
K5 O2 2.527689 1_555
K5 O3 2.527689 1_555
Ni0 O0 1.795172 1_555
Ni0 O1 1.795172 1_555
Ni1 O3 1.795172 1_545
Ni1 O2 1.795172 1_455
