# generated using pymatgen
data_Li4MnCo2O7
_symmetry_space_group_name_H-M   'P 1'
_cell_length_a   10.24426830
_cell_length_b   10.24426830
_cell_length_c   5.18626888
_cell_angle_alpha   84.45914043
_cell_angle_beta   84.45914043
_cell_angle_gamma   150.55668283
_symmetry_Int_Tables_number   1
_chemical_formula_structural   Li4MnCo2O7
_chemical_formula_sum   'Li8 Mn2 Co4 O14'
_cell_volume   247.47964502
_cell_formula_units_Z   2
loop_
 _symmetry_equiv_pos_site_id
 _symmetry_equiv_pos_as_xyz
  1  'x, y, z'
loop_
 _atom_site_type_symbol
 _atom_site_label
 _atom_site_symmetry_multiplicity
 _atom_site_fract_x
 _atom_site_fract_y
 _atom_site_fract_z
 _atom_site_occupancy
  Li  Li0  1  0.92863400  0.07136600  0.50000000  1
  Li  Li1  1  0.35781600  0.64218400  0.50000000  1
  Li  Li2  1  0.78658500  0.21341500  0.50000000  1
  Li  Li3  1  0.21239000  0.78761000  0.50000000  1
  Li  Li4  1  0.64151400  0.35848600  0.50000000  1
  Li  Li5  1  0.07253600  0.92746400  0.50000000  1
  Li  Li6  1  0.50119600  0.49880400  0.50000000  1
  Li  Li7  1  0.57210600  0.42789400  0.00000000  1
  Mn  Mn0  1  0.00017900  0.99982100  0.00000000  1
  Mn  Mn1  1  0.28519800  0.71480200  0.00000000  1
  Co  Co0  1  0.42924500  0.57075500  0.00000000  1
  Co  Co1  1  0.85727000  0.14273000  0.00000000  1
  Co  Co2  1  0.71245700  0.28754300  0.00000000  1
  Co  Co3  1  0.14302600  0.85697400  0.00000000  1
  O  O0  1  0.70045900  0.84224000  0.23275000  1
  O  O1  1  0.12749800  0.41277400  0.22821100  1
  O  O2  1  0.56596500  0.99352600  0.22788300  1
  O  O3  1  0.98817000  0.56559600  0.23346700  1
  O  O4  1  0.39278100  0.09832600  0.20924800  1
  O  O5  1  0.85551700  0.71075300  0.23331100  1
  O  O6  1  0.24020500  0.24753300  0.21138200  1
  O  O7  1  0.15776000  0.29954100  0.76725000  1
  O  O8  1  0.58722600  0.87250200  0.77178900  1
  O  O9  1  0.00647400  0.43403500  0.77211700  1
  O  O10  1  0.43440400  0.01183000  0.76653300  1
  O  O11  1  0.90167400  0.60721900  0.79075200  1
  O  O12  1  0.28924700  0.14448300  0.76668900  1
  O  O13  1  0.75246700  0.75979500  0.78861800  1
loop_
_geom_bond_atom_site_label_1
_geom_bond_atom_site_label_2
_geom_bond_distance
_geom_bond_site_symmetry_2
Li0 O6 2.051421 1_655
Li0 O13 2.051421 1_545
Li0 O1 2.110262 1_655
Li0 O8 2.110262 1_545
Li0 O0 2.142977 1_545
Li0 O7 2.142977 1_655
Li1 O7 2.103549 1_555
Li1 O0 2.103549 1_555
Li1 O2 2.136347 1_555
Li1 O9 2.136347 1_555
Li1 O8 2.168248 1_555
Li1 O1 2.168248 1_555
Li2 O8 2.103710 1_545
Li2 O1 2.103710 1_655
Li2 O2 2.129954 1_545
Li2 O9 2.129954 1_655
Li2 O10 2.168202 1_555
Li2 O3 2.168202 1_555
Li3 O4 2.027490 1_565
Li3 O11 2.027490 1_455
Li3 O10 2.116849 1_565
Li3 O3 2.116849 1_455
Li3 O9 2.165986 1_555
Li3 O2 2.165986 1_555
Li4 O10 2.094366 1_555
Li4 O3 2.094366 1_555
Li4 O5 2.100823 1_555
Li4 O12 2.100823 1_555
Li4 O11 2.357927 1_555
Li4 O4 2.357927 1_555
Li5 O12 2.091590 1_565
Li5 O5 2.091590 1_455
Li5 O11 2.152676 1_455
Li5 O4 2.152676 1_565
Li5 O6 2.165299 1_565
Li5 O13 2.165299 1_455
Li6 O7 2.114135 1_555
Li6 O0 2.114135 1_555
Li6 O12 2.127588 1_555
Li6 O5 2.127588 1_555
Li6 O13 2.354818 1_555
Li6 O6 2.354818 1_555
Li7 O4 2.014006 1_555
Li7 O11 2.014006 1_554
Li7 O13 2.030678 1_554
Li7 O6 2.030678 1_555
Li7 O5 2.234472 1_555
Li7 O12 2.234472 1_554
Mn0 O5 1.935959 1_455
Mn0 O12 1.935959 1_564
Mn0 O0 1.940537 1_455
Mn0 O7 1.940537 1_564
Mn0 O13 1.969174 1_454
Mn0 O6 1.969174 1_565
Mn1 O1 1.949785 1_555
Mn1 O8 1.949785 1_554
Mn1 O3 1.972769 1_455
Mn1 O10 1.972769 1_564
Mn1 O9 2.196999 1_554
Mn1 O2 2.196999 1_555
Co0 O13 1.907036 1_554
Co0 O6 1.907036 1_555
Co0 O1 1.945705 1_555
Co0 O8 1.945705 1_554
Co0 O0 2.179246 1_555
Co0 O7 2.179246 1_554
Co1 O2 1.914221 1_545
Co1 O9 1.914221 1_654
Co1 O0 1.951638 1_545
Co1 O7 1.951638 1_654
Co1 O8 2.155008 1_544
Co1 O1 2.155008 1_655
Co2 O11 1.873781 1_554
Co2 O4 1.873781 1_555
Co2 O2 1.954088 1_545
Co2 O9 1.954088 1_654
Co2 O10 2.207119 1_554
Co2 O3 2.207119 1_555
Co3 O3 1.891136 1_455
Co3 O10 1.891136 1_564
Co3 O12 1.913241 1_564
Co3 O5 1.913241 1_455
Co3 O4 1.968131 1_565
Co3 O11 1.968131 1_454
