# generated using pymatgen
data_BaCuSeO
_symmetry_space_group_name_H-M   'P 1'
_cell_length_a   4.30965700
_cell_length_b   4.30965700
_cell_length_c   9.78156300
_cell_angle_alpha   90.00000000
_cell_angle_beta   90.00000000
_cell_angle_gamma   90.00000000
_symmetry_Int_Tables_number   1
_chemical_formula_structural   BaCuSeO
_chemical_formula_sum   'Ba2 Cu2 Se2 O2'
_cell_volume   181.67437284
_cell_formula_units_Z   2
loop_
 _symmetry_equiv_pos_site_id
 _symmetry_equiv_pos_as_xyz
  1  'x, y, z'
loop_
 _atom_site_type_symbol
 _atom_site_label
 _atom_site_symmetry_multiplicity
 _atom_site_fract_x
 _atom_site_fract_y
 _atom_site_fract_z
 _atom_site_occupancy
  Ba  Ba0  1  0.00000000  0.50000000  0.64022600  1
  Ba  Ba1  1  0.50000000  0.00000000  0.35977400  1
  Cu  Cu0  1  0.50000000  0.50000000  0.00000000  1
  Cu  Cu1  1  0.00000000  0.00000000  0.00000000  1
  Se  Se0  1  0.50000000  0.00000000  0.86968400  1
  Se  Se1  1  0.00000000  0.50000000  0.13031600  1
  O  O0  1  0.50000000  0.50000000  0.50000000  1
  O  O1  1  0.00000000  0.00000000  0.50000000  1
loop_
_geom_bond_atom_site_label_1
_geom_bond_atom_site_label_2
_geom_bond_distance
_geom_bond_site_symmetry_2
Ba0 O1 2.554340 1_555
Ba0 O0 2.554340 1_455
Ba0 O0 2.554340 1_555
Ba0 O1 2.554340 1_565
Ba1 O0 2.554340 1_545
Ba1 O1 2.554340 1_655
Ba1 O0 2.554340 1_555
Ba1 O1 2.554340 1_555
Cu0 Se0 2.503624 1_564
Cu0 Se0 2.503624 1_554
Cu0 Se1 2.503624 1_555
Cu0 Se1 2.503624 1_655
Cu1 Se0 2.503624 1_454
Cu1 Se0 2.503624 1_554
Cu1 Se1 2.503624 1_555
Cu1 Se1 2.503624 1_545
