# generated using pymatgen
data_Sr5(SnP3)2
_symmetry_space_group_name_H-M   'P 1'
_cell_length_a   4.16802100
_cell_length_b   12.30717700
_cell_length_c   13.91667200
_cell_angle_alpha   90.00000000
_cell_angle_beta   90.00000000
_cell_angle_gamma   90.00000000
_symmetry_Int_Tables_number   1
_chemical_formula_structural   Sr5(SnP3)2
_chemical_formula_sum   'Sr10 Sn4 P12'
_cell_volume   713.87756985
_cell_formula_units_Z   2
loop_
 _symmetry_equiv_pos_site_id
 _symmetry_equiv_pos_as_xyz
  1  'x, y, z'
loop_
 _atom_site_type_symbol
 _atom_site_label
 _atom_site_symmetry_multiplicity
 _atom_site_fract_x
 _atom_site_fract_y
 _atom_site_fract_z
 _atom_site_occupancy
  Sr  Sr0  1  0.00000000  0.62897600  0.06954800  1
  Sr  Sr1  1  0.00000000  0.61886000  0.74217500  1
  Sr  Sr2  1  0.00000000  0.12897600  0.43045200  1
  Sr  Sr3  1  0.00000000  0.87102400  0.56954800  1
  Sr  Sr4  1  0.00000000  0.50000000  0.50000000  1
  Sr  Sr5  1  0.00000000  0.00000000  0.00000000  1
  Sr  Sr6  1  0.00000000  0.88114000  0.24217500  1
  Sr  Sr7  1  0.00000000  0.11886000  0.75782500  1
  Sr  Sr8  1  0.00000000  0.38114000  0.25782500  1
  Sr  Sr9  1  0.00000000  0.37102400  0.93045200  1
  Sn  Sn0  1  0.50000000  0.28531600  0.60347000  1
  Sn  Sn1  1  0.50000000  0.21468400  0.10347000  1
  Sn  Sn2  1  0.50000000  0.78531600  0.89653000  1
  Sn  Sn3  1  0.50000000  0.71468400  0.39653000  1
  P  P0  1  0.00000000  0.63450000  0.30642300  1
  P  P1  1  0.50000000  0.07981500  0.60185000  1
  P  P2  1  0.50000000  0.42018500  0.10185000  1
  P  P3  1  0.50000000  0.57981500  0.89815000  1
  P  P4  1  0.50000000  0.66987000  0.57585900  1
  P  P5  1  0.50000000  0.33013000  0.42414100  1
  P  P6  1  0.50000000  0.16987000  0.92414100  1
  P  P7  1  0.50000000  0.83013000  0.07585900  1
  P  P8  1  0.50000000  0.92018500  0.39815000  1
  P  P9  1  0.00000000  0.86550000  0.80642300  1
  P  P10  1  0.00000000  0.36550000  0.69357700  1
  P  P11  1  0.00000000  0.13450000  0.19357700  1
loop_
_geom_bond_atom_site_label_1
_geom_bond_atom_site_label_2
_geom_bond_distance
_geom_bond_site_symmetry_2
P0 Sn3 2.624774 1_555
P0 Sn3 2.624774 1_455
P0 Sr4 3.161870 1_555
P0 Sr6 3.164389 1_555
P0 Sr8 3.190650 1_555
P0 Sr0 3.297213 1_555
P1 Sn0 2.529238 1_555
P1 Sr7 3.047252 1_655
P1 Sr7 3.047252 1_555
P1 Sr2 3.224713 1_555
P1 Sr2 3.224713 1_655
P1 Sr3 3.338887 1_545
P1 Sr3 3.338887 1_645
P2 Sn1 2.529238 1_555
P2 Sr8 3.047252 1_555
P2 Sr8 3.047252 1_655
P2 Sr9 3.224713 1_654
P2 Sr9 3.224713 1_554
P2 Sr0 3.338887 1_655
P2 Sr0 3.338887 1_555
P3 Sn2 2.529238 1_555
P3 Sr1 3.047252 1_655
P3 Sr1 3.047252 1_555
P3 Sr0 3.224713 1_556
P3 Sr0 3.224713 1_656
P3 Sr9 3.338887 1_555
P3 Sr9 3.338887 1_655
P4 Sn3 2.555880 1_555
P4 Sr4 3.135013 1_655
P4 Sr4 3.135013 1_555
P4 Sr1 3.177173 1_655
P4 Sr1 3.177173 1_555
P4 Sr3 3.237220 1_655
P4 Sr3 3.237220 1_555
P5 Sn0 2.555880 1_555
P5 Sr4 3.135013 1_555
P5 Sr4 3.135013 1_655
P5 Sr8 3.177173 1_555
P5 Sr8 3.177173 1_655
P5 Sr2 3.237220 1_655
P5 Sr2 3.237220 1_555
P6 Sn1 2.555880 1_556
P6 Sr5 3.135013 1_656
P6 Sr5 3.135013 1_556
P6 Sr7 3.177173 1_655
P6 Sr7 3.177173 1_555
P6 Sr9 3.237220 1_555
P6 Sr9 3.237220 1_655
P7 Sn2 2.555880 1_554
P7 Sr5 3.135013 1_565
P7 Sr5 3.135013 1_665
P7 Sr6 3.177173 1_555
P7 Sr6 3.177173 1_655
P7 Sr0 3.237220 1_555
P7 Sr0 3.237220 1_655
P8 Sn3 2.529238 1_555
P8 Sr6 3.047252 1_555
P8 Sr6 3.047252 1_655
P8 Sr3 3.224713 1_655
P8 Sr3 3.224713 1_555
P8 Sr2 3.338887 1_565
P8 Sr2 3.338887 1_665
P9 Sn2 2.624774 1_555
P9 Sn2 2.624774 1_455
P9 Sr5 3.161870 1_566
P9 Sr1 3.164389 1_555
P9 Sr7 3.190650 1_565
P9 Sr3 3.297213 1_555
P10 Sn0 2.624774 1_555
P10 Sn0 2.624774 1_455
P10 Sr4 3.161870 1_555
P10 Sr7 3.164389 1_555
P10 Sr1 3.190650 1_555
P10 Sr9 3.297213 1_555
P11 Sn1 2.624774 1_455
P11 Sn1 2.624774 1_555
P11 Sr5 3.161870 1_555
P11 Sr8 3.164389 1_555
P11 Sr6 3.190650 1_545
P11 Sr2 3.297213 1_555
