# generated using pymatgen
data_BaIrN2
_symmetry_space_group_name_H-M   'P 1'
_cell_length_a   7.40935751
_cell_length_b   13.49963593
_cell_length_c   7.68611200
_cell_angle_alpha   90.00000000
_cell_angle_beta   90.00000000
_cell_angle_gamma   24.35808990
_symmetry_Int_Tables_number   1
_chemical_formula_structural   BaIrN2
_chemical_formula_sum   'Ba4 Ir4 N8'
_cell_volume   317.07951065
_cell_formula_units_Z   4
loop_
 _symmetry_equiv_pos_site_id
 _symmetry_equiv_pos_as_xyz
  1  'x, y, z'
loop_
 _atom_site_type_symbol
 _atom_site_label
 _atom_site_symmetry_multiplicity
 _atom_site_fract_x
 _atom_site_fract_y
 _atom_site_fract_z
 _atom_site_occupancy
  Ba  Ba0  1  0.00000000  0.13900100  0.58383100  1
  Ba  Ba1  1  0.00000000  0.86099900  0.41616900  1
  Ba  Ba2  1  0.00000000  0.36099900  0.08383100  1
  Ba  Ba3  1  0.00000000  0.63900100  0.91616900  1
  Ir  Ir0  1  0.00000000  0.41143100  0.63304100  1
  Ir  Ir1  1  0.00000000  0.58856900  0.36695900  1
  Ir  Ir2  1  0.00000000  0.08856900  0.13304100  1
  Ir  Ir3  1  0.00000000  0.91143100  0.86695900  1
  N  N0  1  0.00000000  0.17018300  0.94799600  1
  N  N1  1  0.00000000  0.82981700  0.05200400  1
  N  N2  1  0.00000000  0.32981700  0.44799600  1
  N  N3  1  0.00000000  0.67018300  0.55200400  1
  N  N4  1  0.50000000  0.71274000  0.75000000  1
  N  N5  1  0.50000000  0.78726000  0.25000000  1
  N  N6  1  0.50000000  0.28726000  0.25000000  1
  N  N7  1  0.50000000  0.21274000  0.75000000  1
loop_
_geom_bond_atom_site_label_1
_geom_bond_atom_site_label_2
_geom_bond_distance
_geom_bond_site_symmetry_2
Ba0 N2 2.779483 1_555
Ba0 N0 2.830489 1_555
Ba0 N3 3.094442 1_645
Ba0 N3 3.094442 1_455
Ba0 N7 3.102851 1_455
Ba0 N4 3.102851 1_545
Ba0 N6 3.287049 1_455
Ba0 N5 3.287050 1_545
Ba1 N3 2.779483 1_555
Ba1 N1 2.830489 1_555
Ba1 N2 3.094442 1_465
Ba1 N2 3.094442 1_655
Ba1 N5 3.102851 1_555
Ba1 N6 3.102851 1_465
Ba1 N4 3.287049 1_555
Ba1 N7 3.287050 1_465
Ba2 N0 2.779483 1_554
Ba2 N2 2.830489 1_555
Ba2 N1 3.094442 1_455
Ba2 N1 3.094442 1_645
Ba2 N6 3.102851 1_555
Ba2 N5 3.102851 1_455
Ba2 N7 3.287049 1_554
Ba2 N4 3.287050 1_454
Ba3 N1 2.779483 1_556
Ba3 N3 2.830489 1_555
Ba3 N0 3.094442 1_655
Ba3 N0 3.094442 1_465
Ba3 N4 3.102851 1_455
Ba3 N7 3.102851 1_555
Ba3 N5 3.287049 1_456
Ba3 N6 3.287050 1_556
Ir0 N2 1.799095 1_555
Ir0 N7 1.903295 1_555
Ir0 N4 1.903295 1_455
Ir1 N3 1.799095 1_555
Ir1 N5 1.903295 1_455
Ir1 N6 1.903295 1_555
Ir2 N0 1.799095 1_554
Ir2 N6 1.903295 1_455
Ir2 N5 1.903295 1_545
Ir3 N1 1.799095 1_556
Ir3 N4 1.903295 1_555
Ir3 N7 1.903295 1_465
