# generated using pymatgen
data_CeMg3O4
_symmetry_space_group_name_H-M   'P 1'
_cell_length_a   4.68121521
_cell_length_b   4.68121521
_cell_length_c   4.68121521
_cell_angle_alpha   90.00000000
_cell_angle_beta   90.00000000
_cell_angle_gamma   90.00000000
_symmetry_Int_Tables_number   1
_chemical_formula_structural   CeMg3O4
_chemical_formula_sum   'Ce1 Mg3 O4'
_cell_volume   102.58310078
_cell_formula_units_Z   1
loop_
 _symmetry_equiv_pos_site_id
 _symmetry_equiv_pos_as_xyz
  1  'x, y, z'
loop_
 _atom_site_type_symbol
 _atom_site_label
 _atom_site_symmetry_multiplicity
 _atom_site_fract_x
 _atom_site_fract_y
 _atom_site_fract_z
 _atom_site_occupancy
  Ce  Ce0  1  0.00000000  0.00000000  0.00000000  1
  Mg  Mg0  1  0.00000000  0.50000000  0.50000000  1
  Mg  Mg1  1  0.50000000  0.00000000  0.50000000  1
  Mg  Mg2  1  0.50000000  0.50000000  0.00000000  1
  O  O0  1  0.50000000  0.00000000  0.00000000  1
  O  O1  1  0.50000000  0.50000000  0.50000000  1
  O  O2  1  0.00000000  0.00000000  0.50000000  1
  O  O3  1  0.00000000  0.50000000  0.00000000  1
loop_
_geom_bond_atom_site_label_1
_geom_bond_atom_site_label_2
_geom_bond_distance
_geom_bond_site_symmetry_2
Ce0 O2 2.340608 1_555
Ce0 O0 2.340608 1_555
Ce0 O0 2.340608 1_455
Ce0 O3 2.340608 1_545
Ce0 O2 2.340608 1_554
Ce0 O3 2.340608 1_555
Mg0 O2 2.340608 1_555
Mg0 O3 2.340608 1_556
Mg0 O2 2.340608 1_565
Mg0 O1 2.340608 1_555
Mg0 O1 2.340608 1_455
Mg0 O3 2.340608 1_555
Mg1 O1 2.340608 1_545
Mg1 O0 2.340608 1_555
Mg1 O2 2.340608 1_555
Mg1 O0 2.340608 1_556
Mg1 O1 2.340608 1_555
Mg1 O2 2.340608 1_655
Mg2 O0 2.340608 1_555
Mg2 O1 2.340608 1_555
Mg2 O1 2.340608 1_554
Mg2 O3 2.340608 1_655
Mg2 O0 2.340608 1_565
Mg2 O3 2.340608 1_555
