# generated using pymatgen
data_K2ZrS2(O5F)2
_symmetry_space_group_name_H-M   'P 1'
_cell_length_a   7.59694300
_cell_length_b   10.88515100
_cell_length_c   13.97566544
_cell_angle_alpha   71.41697112
_cell_angle_beta   90.00000000
_cell_angle_gamma   90.00000000
_symmetry_Int_Tables_number   1
_chemical_formula_structural   K2ZrS2(O5F)2
_chemical_formula_sum   'K8 Zr4 S8 O40 F8'
_cell_volume   1095.44687604
_cell_formula_units_Z   4
loop_
 _symmetry_equiv_pos_site_id
 _symmetry_equiv_pos_as_xyz
  1  'x, y, z'
loop_
 _atom_site_type_symbol
 _atom_site_label
 _atom_site_symmetry_multiplicity
 _atom_site_fract_x
 _atom_site_fract_y
 _atom_site_fract_z
 _atom_site_occupancy
  K  K0  1  0.75539500  0.97617000  0.43630700  1
  K  K1  1  0.25539500  0.02383000  0.06369300  1
  K  K2  1  0.24460500  0.02383000  0.56369300  1
  K  K3  1  0.74460500  0.97617000  0.93630700  1
  K  K4  1  0.01224100  0.34857200  0.82649200  1
  K  K5  1  0.51224100  0.65142800  0.67350800  1
  K  K6  1  0.98775900  0.65142800  0.17350800  1
  K  K7  1  0.48775900  0.34857200  0.32649200  1
  Zr  Zr0  1  0.03865000  0.72977700  0.82909000  1
  Zr  Zr1  1  0.53865000  0.27022300  0.67091000  1
  Zr  Zr2  1  0.96135000  0.27022300  0.17091000  1
  Zr  Zr3  1  0.46135000  0.72977700  0.32909000  1
  S  S0  1  0.00134300  0.66663400  0.63976900  1
  S  S1  1  0.50134300  0.33336600  0.86023100  1
  S  S2  1  0.99865700  0.33336600  0.36023100  1
  S  S3  1  0.49865700  0.66663400  0.13976900  1
  S  S4  1  0.74081100  0.97150200  0.68282900  1
  S  S5  1  0.24081100  0.02849800  0.81717100  1
  S  S6  1  0.25918900  0.02849800  0.31717100  1
  S  S7  1  0.75918900  0.97150200  0.18282900  1
  O  O0  1  0.88553500  0.62674500  0.73444900  1
  O  O1  1  0.38553500  0.37325500  0.76555100  1
  O  O2  1  0.11446500  0.37325500  0.26555100  1
  O  O3  1  0.61446500  0.62674500  0.23444900  1
  O  O4  1  0.13995800  0.75190100  0.67160800  1
  O  O5  1  0.63995800  0.24809900  0.82839200  1
  O  O6  1  0.86004200  0.24809900  0.32839200  1
  O  O7  1  0.36004200  0.75190100  0.17160800  1
  O  O8  1  0.90233300  0.74954300  0.55391300  1
  O  O9  1  0.40233300  0.25045700  0.94608700  1
  O  O10  1  0.09766700  0.25045700  0.44608700  1
  O  O11  1  0.59766700  0.74954300  0.05391300  1
  O  O12  1  0.08442900  0.55515700  0.62372000  1
  O  O13  1  0.58442900  0.44484300  0.87628000  1
  O  O14  1  0.91557100  0.44484300  0.37628000  1
  O  O15  1  0.41557100  0.55515700  0.12372000  1
  O  O16  1  0.81546300  0.86621000  0.77309200  1
  O  O17  1  0.31546300  0.13379000  0.72690800  1
  O  O18  1  0.18453700  0.13379000  0.22690800  1
  O  O19  1  0.68453700  0.86621000  0.27309200  1
  O  O20  1  0.67562500  0.07357400  0.72786100  1
  O  O21  1  0.17562500  0.92642600  0.77213900  1
  O  O22  1  0.32437500  0.92642600  0.27213900  1
  O  O23  1  0.82437500  0.07357400  0.22786100  1
  O  O24  1  0.59094900  0.92076800  0.64085100  1
  O  O25  1  0.09094900  0.07923200  0.85914900  1
  O  O26  1  0.40905100  0.07923200  0.35914900  1
  O  O27  1  0.90905100  0.92076800  0.14085100  1
  O  O28  1  0.87983700  0.02462400  0.60915700  1
  O  O29  1  0.37983700  0.97537600  0.89084300  1
  O  O30  1  0.12016300  0.97537600  0.39084300  1
  O  O31  1  0.62016300  0.02462400  0.10915700  1
  O  O32  1  0.79179400  0.64058600  0.91318300  1
  O  O33  1  0.29179400  0.35941400  0.58681700  1
  O  O34  1  0.20820600  0.35941400  0.08681700  1
  O  O35  1  0.70820600  0.64058600  0.41318300  1
  O  O36  1  0.82615600  0.26959600  0.65938900  1
  O  O37  1  0.32615600  0.73040400  0.84061100  1
  O  O38  1  0.17384400  0.73040400  0.34061100  1
  O  O39  1  0.67384400  0.26959600  0.15938900  1
  F  F0  1  0.01758800  0.77393000  0.95998400  1
  F  F1  1  0.51758800  0.22607000  0.54001600  1
  F  F2  1  0.98241200  0.22607000  0.04001600  1
  F  F3  1  0.48241200  0.77393000  0.45998400  1
  F  F4  1  0.12077100  0.54487400  0.88782600  1
  F  F5  1  0.62077100  0.45512600  0.61217400  1
  F  F6  1  0.87922900  0.45512600  0.11217400  1
  F  F7  1  0.37922900  0.54487400  0.38782600  1
loop_
_geom_bond_atom_site_label_1
_geom_bond_atom_site_label_2
_geom_bond_distance
_geom_bond_site_symmetry_2
K0 O8 2.729247 1_555
K0 O28 2.796348 1_565
K0 O23 2.813666 1_565
K0 O30 2.843661 1_655
K0 O26 2.928019 1_565
K0 O19 2.943755 1_555
K0 O6 2.970333 1_565
K0 O24 2.999576 1_555
K1 O9 2.729247 1_554
K1 O29 2.796348 1_544
K1 O22 2.813666 1_545
K1 O31 2.843661 1_555
K1 O27 2.928019 1_445
K1 O18 2.943755 1_555
K1 O7 2.970333 1_545
K1 O25 2.999576 1_554
K2 O10 2.729247 1_555
K2 O30 2.796348 1_545
K2 O21 2.813666 1_545
K2 O28 2.843661 1_455
K2 O24 2.928019 1_545
K2 O17 2.943755 1_555
K2 O4 2.970333 1_545
K2 O26 2.999576 1_555
K3 O11 2.729247 1_556
K3 O31 2.796348 1_566
K3 O20 2.813666 1_565
K3 O29 2.843661 1_555
K3 O25 2.928019 1_665
K3 O16 2.943755 1_555
K3 O5 2.970333 1_565
K3 O27 2.999576 1_556
K4 O25 2.882445 1_555
K4 O1 2.948561 1_555
K4 O5 3.029370 1_455
K4 O0 3.044218 1_455
K4 O12 3.053963 1_555
K4 O36 3.077511 1_455
K5 O24 2.882445 1_555
K5 O0 2.948561 1_555
K5 O4 3.029370 1_555
K5 O1 3.044218 1_555
K5 O13 3.053963 1_555
K5 O37 3.077511 1_555
K6 O27 2.882445 1_555
K6 O3 2.948561 1_555
K6 O7 3.029370 1_655
K6 O2 3.044218 1_655
K6 O14 3.053963 1_555
K6 O38 3.077511 1_655
K7 O26 2.882445 1_555
K7 O2 2.948561 1_555
K7 O6 3.029370 1_555
K7 O3 3.044218 1_555
K7 O15 3.053963 1_555
K7 O39 3.077511 1_555
O0 S0 1.532079 1_655
O0 Zr0 2.303425 1_655
O1 S1 1.532079 1_555
O1 Zr1 2.303425 1_555
O2 S2 1.532079 1_455
O2 Zr2 2.303425 1_455
O3 S3 1.532079 1_555
O3 Zr3 2.303425 1_555
O4 S0 1.559356 1_555
O4 Zr0 2.270801 1_555
O5 S1 1.559356 1_555
O5 Zr1 2.270801 1_555
O6 S2 1.559356 1_555
O6 Zr2 2.270801 1_555
O7 S3 1.559356 1_555
O7 Zr3 2.270801 1_555
O8 S0 1.459382 1_655
O9 S1 1.459382 1_555
O10 S2 1.459382 1_455
O11 S3 1.459382 1_555
O12 S0 1.447286 1_555
O13 S1 1.447286 1_555
O14 S2 1.447286 1_555
O15 S3 1.447286 1_555
O16 S4 1.518245 1_555
O16 Zr0 2.225324 1_655
O17 S5 1.518245 1_555
O17 Zr1 2.225324 1_555
O18 S6 1.518245 1_555
O18 Zr2 2.225324 1_455
O19 S7 1.518245 1_555
O19 Zr3 2.225324 1_555
O20 S4 1.523637 1_545
O20 Zr1 2.283073 1_555
O21 S5 1.523637 1_565
O21 Zr0 2.283073 1_555
O22 S6 1.523637 1_565
O22 Zr3 2.283073 1_555
O23 S7 1.523637 1_545
O23 Zr2 2.283073 1_555
O24 S4 1.466909 1_555
O25 S5 1.466909 1_555
O26 S6 1.466909 1_555
O27 S7 1.466909 1_555
O28 S4 1.459627 1_545
O29 S5 1.459627 1_565
O30 S6 1.459627 1_565
O31 S7 1.459627 1_545
O32 Zr0 2.261306 1_655
O33 Zr1 2.261306 1_555
O34 Zr2 2.261306 1_455
O35 Zr3 2.261306 1_555
O36 Zr1 2.190264 1_555
O37 Zr0 2.190264 1_555
O38 Zr3 2.190264 1_555
O39 Zr2 2.190264 1_555
F0 Zr0 2.040442 1_555
F0 K6 2.863278 1_456
F0 K3 2.965169 1_455
F1 Zr1 2.040442 1_555
F1 K7 2.863278 1_555
F1 K2 2.965169 1_555
F2 Zr2 2.040442 1_555
F2 K4 2.863278 1_654
F2 K1 2.965169 1_655
F3 Zr3 2.040442 1_555
F3 K5 2.863278 1_555
F3 K0 2.965169 1_555
F4 Zr0 2.015186 1_555
F4 K4 2.673530 1_555
F5 Zr1 2.015186 1_555
F5 K5 2.673530 1_555
F6 Zr2 2.015186 1_555
F6 K6 2.673530 1_555
F7 Zr3 2.015186 1_555
F7 K7 2.673530 1_555
