# generated using pymatgen
data_Na2Ca2Al6Si9(H8O19)2
_symmetry_space_group_name_H-M   'P 1'
_cell_length_a   6.64435343
_cell_length_b   9.93854105
_cell_length_c   28.80315871
_cell_angle_alpha   87.79040273
_cell_angle_beta   83.37672207
_cell_angle_gamma   70.47171783
_symmetry_Int_Tables_number   1
_chemical_formula_structural   Na2Ca2Al6Si9(H8O19)2
_chemical_formula_sum   'Na4 Ca4 Al12 Si18 H32 O76'
_cell_volume   1780.64708971
_cell_formula_units_Z   2
loop_
 _symmetry_equiv_pos_site_id
 _symmetry_equiv_pos_as_xyz
  1  'x, y, z'
loop_
 _atom_site_type_symbol
 _atom_site_label
 _atom_site_symmetry_multiplicity
 _atom_site_fract_x
 _atom_site_fract_y
 _atom_site_fract_z
 _atom_site_occupancy
  Na  Na0  1  0.17429322  0.43681086  0.97718523  1
  Na  Na1  1  0.58828930  0.56318914  0.02281477  1
  Na  Na2  1  0.36110408  0.06318914  0.47718523  1
  Na  Na3  1  0.90147844  0.93681086  0.52281477  1
  Ca  Ca0  1  0.23297382  0.95658808  0.84612068  1
  Ca  Ca1  1  0.03568258  0.04341192  0.15387932  1
  Ca  Ca2  1  0.93956190  0.54341192  0.34612068  1
  Ca  Ca3  1  0.82909450  0.45658808  0.65387932  1
  Al  Al0  1  0.36102744  0.07597513  0.93908151  1
  Al  Al1  1  0.37608407  0.92402487  0.06091849  1
  Al  Al2  1  0.18700257  0.42402487  0.43908151  1
  Al  Al3  1  0.05010894  0.57597513  0.56091849  1
  Al  Al4  1  0.55424803  0.40886540  0.77448243  1
  Al  Al5  1  0.73759586  0.59113460  0.22551757  1
  Al  Al6  1  0.71311343  0.09113460  0.27448243  1
  Al  Al7  1  0.07873047  0.90886540  0.72551757  1
  Al  Al8  1  0.40971620  0.57813008  0.89544036  1
  Al  Al9  1  0.88328664  0.42186992  0.10455964  1
  Al  Al10  1  0.73784629  0.92186992  0.39544036  1
  Al  Al11  1  0.05515656  0.07813008  0.60455964  1
  Si  Si0  1  0.75631348  0.00000000  0.00000000  1
  Si  Si1  1  0.50631348  0.50000000  0.50000000  1
  Si  Si2  1  0.85694563  0.50834982  0.83726224  1
  Si  Si3  1  0.20255769  0.49165018  0.16273776  1
  Si  Si4  1  0.11529545  0.99165018  0.33726224  1
  Si  Si5  1  0.44420787  0.00834982  0.66273776  1
  Si  Si6  1  0.23820108  0.81084331  0.97129565  1
  Si  Si7  1  0.02034005  0.18915669  0.02870435  1
  Si  Si8  1  0.79904439  0.68915669  0.47129565  1
  Si  Si9  1  0.95949673  0.31084331  0.52870435  1
  Si  Si10  1  0.16207478  0.68402160  0.80594539  1
  Si  Si11  1  0.65204177  0.31597840  0.19405461  1
  Si  Si12  1  0.59609638  0.81597840  0.30594539  1
  Si  Si13  1  0.71802017  0.18402160  0.69405461  1
  Si  Si14  1  0.32034967  0.30675201  0.86066395  1
  Si  Si15  1  0.48776562  0.69324799  0.13933605  1
  Si  Si16  1  0.37710168  0.19324799  0.36066395  1
  Si  Si17  1  0.93101361  0.80675201  0.63933605  1
  H  H0  1  0.79116331  0.06171600  0.90892745  1
  H  H1  1  0.76180676  0.93828400  0.09107255  1
  H  H2  1  0.60287932  0.43828400  0.40892745  1
  H  H3  1  0.45009076  0.56171600  0.59107255  1
  H  H4  1  0.80388363  0.15434566  0.86356280  1
  H  H5  1  0.82179209  0.84565434  0.13643720  1
  H  H6  1  0.70822929  0.34565434  0.36356280  1
  H  H7  1  0.41744643  0.65434566  0.63643720  1
  H  H8  1  0.70526920  0.79231139  0.80681444  1
  H  H9  1  0.30439502  0.20768861  0.19318556  1
  H  H10  1  0.24758059  0.70768861  0.30681444  1
  H  H11  1  0.26208363  0.29231139  0.69318556  1
  H  H12  1  0.61443533  0.93432456  0.77810856  1
  H  H13  1  0.32686846  0.06567544  0.22189144  1
  H  H14  1  0.29875989  0.56567544  0.27810856  1
  H  H15  1  0.14254389  0.43432456  0.72189144  1
  H  H16  1  0.78558370  0.60930950  0.93379462  1
  H  H17  1  0.32868782  0.39069050  0.06620538  1
  H  H18  1  0.14489321  0.89069050  0.43379462  1
  H  H19  1  0.46937832  0.10930950  0.56620538  1
  H  H20  1  0.86709367  0.70308525  0.96626298  1
  H  H21  1  0.53644190  0.29691475  0.03373702  1
  H  H22  1  0.32017892  0.79691475  0.46626298  1
  H  H23  1  0.58335665  0.20308525  0.53373702  1
  H  H24  1  0.05529339  0.24346026  0.80377160  1
  H  H25  1  0.10252526  0.75653974  0.19622840  1
  H  H26  1  0.04875365  0.25653974  0.30377160  1
  H  H27  1  0.60906500  0.74346026  0.69622840  1
  H  H28  1  0.00247333  0.14372811  0.76903388  1
  H  H29  1  0.91523531  0.85627189  0.23096612  1
  H  H30  1  0.89620143  0.35627189  0.26903388  1
  H  H31  1  0.52150721  0.64372811  0.73096612  1
  O  O0  1  0.68311297  0.56527360  0.88317206  1
  O  O1  1  0.13155863  0.43472640  0.11682794  1
  O  O2  1  0.99838657  0.93472640  0.38317206  1
  O  O3  1  0.31628503  0.06527360  0.61682794  1
  O  O4  1  0.76015089  0.45002081  0.79675086  1
  O  O5  1  0.00692256  0.54997919  0.20324914  1
  O  O6  1  0.96017170  0.04997919  0.29675086  1
  O  O7  1  0.30690175  0.95002081  0.70324914  1
  O  O8  1  0.62120316  0.04327388  0.95508501  1
  O  O9  1  0.61956204  0.95672612  0.04491499  1
  O  O10  1  0.41447703  0.45672612  0.45508501  1
  O  O11  1  0.32628816  0.54327388  0.54491499  1
  O  O12  1  0.34764965  0.14807563  0.88262833  1
  O  O13  1  0.37835361  0.85192437  0.11737167  1
  O  O14  1  0.24572528  0.35192437  0.38262833  1
  O  O15  1  0.98027798  0.64807563  0.61737167  1
  O  O16  1  0.10030906  0.84389063  0.78348202  1
  O  O17  1  0.72768171  0.15610937  0.21651798  1
  O  O18  1  0.69419969  0.65610937  0.28348202  1
  O  O19  1  0.63379108  0.34389063  0.71651798  1
  O  O20  1  0.31736209  0.64685745  0.95259519  1
  O  O21  1  0.91681473  0.35314255  0.04740481  1
  O  O22  1  0.71421954  0.85314255  0.45259519  1
  O  O23  1  0.01995728  0.14685745  0.54740481  1
  O  O24  1  0.25761197  0.69903305  0.85502194  1
  O  O25  1  0.81166696  0.30096695  0.14497806  1
  O  O26  1  0.70664502  0.80096695  0.35502194  1
  O  O27  1  0.86263391  0.19903305  0.64497806  1
  O  O28  1  0.47340913  0.28997688  0.81187994  1
  O  O29  1  0.57526594  0.71002312  0.18812006  1
  O  O30  1  0.51338600  0.21002312  0.31187994  1
  O  O31  1  0.03528907  0.78997688  0.68812006  1
  O  O32  1  0.17784365  0.18875291  0.98106812  1
  O  O33  1  0.34766468  0.81124709  0.01893188  1
  O  O34  1  0.11659656  0.31124709  0.48106812  1
  O  O35  1  0.90891177  0.68875291  0.51893188  1
  O  O36  1  0.30160513  0.91697289  0.93132944  1
  O  O37  1  0.14990745  0.08302711  0.06867056  1
  O  O38  1  0.96857801  0.58302711  0.43132944  1
  O  O39  1  0.98293456  0.41697289  0.56867056  1
  O  O40  1  0.33515505  0.56809169  0.77033064  1
  O  O41  1  0.67357738  0.43190831  0.22966936  1
  O  O42  1  0.65324674  0.93190831  0.27033064  1
  O  O43  1  0.85548569  0.06809169  0.72966936  1
  O  O44  1  0.36580565  0.41213336  0.89751287  1
  O  O45  1  0.67545188  0.58786664  0.10248713  1
  O  O46  1  0.52793901  0.08786664  0.39751287  1
  O  O47  1  0.01331852  0.91213336  0.60248713  1
  O  O48  1  0.06470129  0.37582689  0.85133824  1
  O  O49  1  0.29186642  0.62417311  0.14866176  1
  O  O50  1  0.19052818  0.12417311  0.35133824  1
  O  O51  1  0.66603953  0.87582689  0.64866176  1
  O  O52  1  0.93820166  0.64342683  0.81776262  1
  O  O53  1  0.39939111  0.35657317  0.18223738  1
  O  O54  1  0.33162849  0.85657317  0.31776262  1
  O  O55  1  0.50596427  0.14342683  0.68223738  1
  O  O56  1  0.97256079  0.86323833  0.98354979  1
  O  O57  1  0.81934890  0.13676167  0.01645021  1
  O  O58  1  0.58579911  0.63676167  0.48354979  1
  O  O59  1  0.70611057  0.36323833  0.51645021  1
  O  O60  1  0.89078615  0.07887609  0.88249046  1
  O  O61  1  0.85215269  0.92112391  0.11750954  1
  O  O62  1  0.71966223  0.42112391  0.38249046  1
  O  O63  1  0.52327660  0.57887609  0.61750954  1
  O  O64  1  0.57267432  0.87233100  0.80141407  1
  O  O65  1  0.24641939  0.12766900  0.19858593  1
  O  O66  1  0.19500532  0.62766900  0.30141407  1
  O  O67  1  0.12408839  0.37233100  0.69858593  1
  O  O68  1  0.83929141  0.61227687  0.96449626  1
  O  O69  1  0.41606455  0.38772313  0.03550374  1
  O  O70  1  0.20156828  0.88772313  0.46449626  1
  O  O71  1  0.55378768  0.11227687  0.53550374  1
  O  O72  1  0.09770013  0.14466254  0.79269745  1
  O  O73  1  0.03506012  0.85533746  0.20730255  1
  O  O74  1  0.99236267  0.35533746  0.29269745  1
  O  O75  1  0.64039758  0.64466254  0.70730255  1
loop_
_geom_bond_atom_site_label_1
_geom_bond_atom_site_label_2
_geom_bond_distance
_geom_bond_site_symmetry_2
Na0 O68 2.381732 1_455
Na0 O69 2.382329 1_556
Na0 O32 2.455892 1_555
Na0 O44 2.471168 1_555
Na0 O20 2.611616 1_555
Na0 O21 2.780665 1_456
Na1 O69 2.381732 1_555
Na1 O68 2.382329 1_554
Na1 O33 2.455891 1_555
Na1 O45 2.471168 1_555
Na1 O21 2.611615 1_555
Na1 O20 2.780665 1_554
Na2 O70 2.381732 1_545
Na2 O71 2.382329 1_555
Na2 O34 2.455891 1_555
Na2 O46 2.471168 1_555
Na2 O22 2.611615 1_545
Na2 O23 2.780665 1_555
Na3 O71 2.381732 1_565
Na3 O70 2.382329 1_655
Na3 O35 2.455892 1_555
Na3 O47 2.471168 1_655
Na3 O23 2.611616 1_665
Na3 O22 2.780665 1_555
Ca0 O60 2.333497 1_465
Ca0 O64 2.367050 1_555
Ca0 O72 2.375618 1_565
Ca0 O24 2.514684 1_555
Ca0 O36 2.539703 1_555
Ca0 O16 2.543490 1_555
Ca0 O12 2.572290 1_565
Ca1 O61 2.333497 1_445
Ca1 O65 2.367050 1_555
Ca1 O73 2.375618 1_545
Ca1 O25 2.514684 1_455
Ca1 O37 2.539703 1_555
Ca1 O17 2.543490 1_455
Ca1 O13 2.572290 1_545
Ca2 O62 2.333497 1_555
Ca2 O66 2.367050 1_655
Ca2 O74 2.375618 1_555
Ca2 O26 2.514684 1_555
Ca2 O38 2.539703 1_555
Ca2 O18 2.543490 1_555
Ca2 O14 2.572290 1_655
Ca3 O63 2.333497 1_555
Ca3 O67 2.367050 1_655
Ca3 O75 2.375618 1_555
Ca3 O27 2.514684 1_555
Ca3 O39 2.539702 1_555
Ca3 O19 2.543490 1_555
Ca3 O15 2.572290 1_555
Al0 O32 1.747332 1_555
Al0 O12 1.751075 1_555
Al0 O8 1.761579 1_555
Al0 O36 1.779773 1_545
Al1 O33 1.747332 1_555
Al1 O13 1.751075 1_555
Al1 O9 1.761579 1_555
Al1 O37 1.779773 1_565
Al2 O34 1.747332 1_555
Al2 O14 1.751075 1_555
Al2 O10 1.761579 1_555
Al2 O38 1.779773 1_455
Al3 O35 1.747332 1_455
Al3 O15 1.751075 1_455
Al3 O11 1.761579 1_555
Al3 O39 1.779773 1_455
Al4 O28 1.742871 1_555
Al4 O4 1.745603 1_555
Al4 O40 1.767245 1_555
Al4 O19 1.770641 1_555
Al5 O29 1.742871 1_555
Al5 O5 1.745603 1_655
Al5 O41 1.767245 1_555
Al5 O18 1.770641 1_555
Al6 O30 1.742871 1_555
Al6 O6 1.745603 1_555
Al6 O42 1.767245 1_545
Al6 O17 1.770641 1_555
Al7 O31 1.742871 1_555
Al7 O7 1.745603 1_555
Al7 O43 1.767245 1_465
Al7 O16 1.770641 1_555
Al8 O44 1.766519 1_555
Al8 O20 1.768239 1_555
Al8 O0 1.772360 1_555
Al8 O24 1.781070 1_555
Al9 O45 1.766519 1_555
Al9 O21 1.768239 1_555
Al9 O1 1.772360 1_655
Al9 O25 1.781070 1_555
Al10 O46 1.766519 1_565
Al10 O22 1.768239 1_555
Al10 O2 1.772360 1_555
Al10 O26 1.781070 1_555
Al11 O47 1.766519 1_545
Al11 O23 1.768239 1_555
Al11 O3 1.772360 1_555
Al11 O27 1.781070 1_455
H0 O60 0.998127 1_555
H0 O8 1.688087 1_555
H1 O61 0.998127 1_555
H1 O9 1.688087 1_555
H2 O62 0.998126 1_555
H2 O10 1.688087 1_555
H3 O63 0.998127 1_555
H3 O11 1.688087 1_555
H4 O60 0.971983 1_555
H5 O61 0.971983 1_555
H6 O62 0.971983 1_555
H7 O63 0.971983 1_555
H8 O64 0.993226 1_555
H9 O65 0.993226 1_555
H10 O66 0.993226 1_555
H11 O67 0.993225 1_555
H12 O64 0.972957 1_555
H13 O65 0.972957 1_555
H14 O66 0.972957 1_555
H15 O67 0.972957 1_555
H16 O68 0.996017 1_555
H17 O69 0.996017 1_555
H18 O70 0.996017 1_555
H19 O71 0.996017 1_555
H20 O68 0.984070 1_555
H21 O69 0.984070 1_555
H22 O70 0.984070 1_555
H23 O71 0.984070 1_555
H24 O72 0.981696 1_555
H25 O73 0.981696 1_555
H26 O74 0.981696 1_455
H27 O75 0.981696 1_555
H28 O72 0.984316 1_555
H29 O73 0.984317 1_655
H30 O74 0.984317 1_555
H31 O75 0.984316 1_555
O0 Si2 1.634386 1_555
O1 Si3 1.634386 1_555
O2 Si4 1.634386 1_655
O3 Si5 1.634386 1_555
O4 Si2 1.608032 1_555
O5 Si3 1.608032 1_555
O6 Si4 1.608032 1_645
O7 Si5 1.608032 1_565
O8 Si0 1.622159 1_556
O9 Si0 1.622159 1_565
O10 Si1 1.622159 1_555
O11 Si1 1.622159 1_555
O12 Si14 1.636584 1_555
O13 Si15 1.636584 1_555
O14 Si16 1.636584 1_555
O15 Si17 1.636584 1_555
O16 Si10 1.630213 1_555
O17 Si11 1.630213 1_555
O18 Si12 1.630213 1_555
O19 Si13 1.630213 1_555
O20 Si6 1.628559 1_555
O21 Si7 1.628559 1_655
O22 Si8 1.628559 1_555
O23 Si9 1.628559 1_455
O24 Si10 1.646185 1_555
O25 Si11 1.646185 1_555
O26 Si12 1.646185 1_555
O27 Si13 1.646185 1_555
O28 Si14 1.616019 1_555
O29 Si15 1.616019 1_555
O30 Si16 1.616018 1_555
O31 Si17 1.616019 1_455
O32 Si7 1.626090 1_556
O33 Si6 1.626090 1_554
O34 Si9 1.626090 1_455
O35 Si8 1.626090 1_555
O36 Si6 1.645220 1_555
O37 Si7 1.645220 1_555
O38 Si8 1.645220 1_555
O39 Si9 1.645220 1_555
O40 Si10 1.623422 1_555
O41 Si11 1.623422 1_555
O42 Si12 1.623422 1_555
O43 Si13 1.623422 1_555
O44 Si14 1.638832 1_555
O45 Si15 1.638832 1_555
O46 Si16 1.638832 1_555
O47 Si17 1.638832 1_455
O48 Si2 1.636166 1_455
O48 Si14 1.655349 1_555
O49 Si3 1.636166 1_555
O49 Si15 1.655349 1_555
O50 Si4 1.636166 1_545
O50 Si16 1.655349 1_555
O51 Si5 1.636166 1_565
O51 Si17 1.655349 1_555
O52 Si10 1.662857 1_655
O52 Si2 1.663016 1_555
O53 Si11 1.662857 1_555
O53 Si3 1.663016 1_555
O54 Si12 1.662857 1_555
O54 Si4 1.663016 1_555
O55 Si13 1.662857 1_555
O55 Si5 1.663016 1_555
O56 Si0 1.650274 1_566
O56 Si6 1.663431 1_655
O57 Si0 1.650274 1_555
O57 Si7 1.663431 1_655
O58 Si1 1.650274 1_555
O58 Si8 1.663431 1_555
O59 Si1 1.650274 1_555
O59 Si9 1.663431 1_555
