# generated using pymatgen
data_Cs3As2Cl9
_symmetry_space_group_name_H-M   'P 1'
_cell_length_a   7.45191220
_cell_length_b   7.45191572
_cell_length_c   9.03683643
_cell_angle_alpha   89.99999560
_cell_angle_beta   90.00006615
_cell_angle_gamma   120.00001260
_symmetry_Int_Tables_number   1
_chemical_formula_structural   Cs3As2Cl9
_chemical_formula_sum   'Cs3 As2 Cl9'
_cell_volume   434.59293478
_cell_formula_units_Z   1
loop_
 _symmetry_equiv_pos_site_id
 _symmetry_equiv_pos_as_xyz
  1  'x, y, z'
loop_
 _atom_site_type_symbol
 _atom_site_label
 _atom_site_symmetry_multiplicity
 _atom_site_fract_x
 _atom_site_fract_y
 _atom_site_fract_z
 _atom_site_occupancy
  Cs  Cs0  1  -0.00000000  0.99999913  -0.00000000  1
  Cs  Cs1  1  0.33333248  0.66666406  0.32257612  1
  Cs  Cs2  1  0.66666752  0.33333158  0.67742388  1
  As  As0  1  0.33333320  0.66666845  0.81624838  1
  As  As1  1  0.66666680  0.33333525  0.18375162  1
  Cl  Cl0  1  0.50023469  0.50023500  0.00000041  1
  Cl  Cl1  1  0.49976531  -0.00000069  -0.00000041  1
  Cl  Cl2  1  -0.00000000  0.49976603  0.00000000  1
  Cl  Cl3  1  0.81827412  0.63630075  0.32559958  1
  Cl  Cl4  1  0.36369848  0.18197282  0.32559967  1
  Cl  Cl5  1  0.81802676  0.18172622  0.32559907  1
  Cl  Cl6  1  0.18172588  0.81802663  0.67440042  1
  Cl  Cl7  1  0.18197324  0.36369946  0.67440093  1
  Cl  Cl8  1  0.63630152  0.81827433  0.67440033  1
loop_
_geom_bond_atom_site_label_1
_geom_bond_atom_site_label_2
_geom_bond_distance
_geom_bond_site_symmetry_2
As0 Cl6 2.337941 1_555
As0 Cl7 2.337958 1_555
As0 Cl8 2.337958 1_555
As0 Cl1 2.717513 1_566
As0 Cl2 2.717529 1_556
As0 Cl0 2.717538 1_556
As1 Cl3 2.337942 1_555
As1 Cl5 2.337958 1_555
As1 Cl4 2.337958 1_555
As1 Cl0 2.717518 1_555
As1 Cl2 2.717529 1_655
As1 Cl1 2.717543 1_555
Cl0 Cs1 3.622863 1_555
Cl0 Cs2 3.622888 1_554
Cl0 Cs0 3.724203 1_655
Cl0 Cs0 3.727710 1_545
Cl1 Cs2 3.622867 1_554
Cl1 Cs1 3.622884 1_545
Cl1 Cs0 3.724207 1_545
Cl1 Cs0 3.727706 1_645
Cl2 Cs2 3.622867 1_454
Cl2 Cs1 3.622867 1_555
Cl2 Cs0 3.724221 1_545
Cl2 Cs0 3.727695 1_555
Cl3 Cs1 3.730288 1_655
Cl3 Cs1 3.732123 1_555
Cl3 Cs2 3.732474 1_555
Cl3 Cs0 3.763875 1_655
Cl4 Cs1 3.730272 1_555
Cl4 Cs1 3.732144 1_545
Cl4 Cs2 3.732470 1_555
Cl4 Cs0 3.763872 1_545
Cl5 Cs1 3.730301 1_545
Cl5 Cs1 3.732113 1_655
Cl5 Cs2 3.732463 1_555
Cl5 Cs0 3.763880 1_645
Cl6 Cs2 3.730288 1_455
Cl6 Cs2 3.732123 1_565
Cl6 Cs1 3.732475 1_555
Cl6 Cs0 3.763875 1_556
Cl7 Cs2 3.730301 1_555
Cl7 Cs2 3.732113 1_455
Cl7 Cs1 3.732463 1_555
Cl7 Cs0 3.763880 1_546
Cl8 Cs2 3.730272 1_565
Cl8 Cs2 3.732144 1_555
Cl8 Cs1 3.732470 1_555
Cl8 Cs0 3.763872 1_656
