# generated using pymatgen
data_BaCaAgF7
_symmetry_space_group_name_H-M   'P 1'
_cell_length_a   10.61786500
_cell_length_b   5.91133800
_cell_length_c   10.19248393
_cell_angle_alpha   88.10845143
_cell_angle_beta   90.00000000
_cell_angle_gamma   90.00000000
_symmetry_Int_Tables_number   1
_chemical_formula_structural   BaCaAgF7
_chemical_formula_sum   'Ba4 Ca4 Ag4 F28'
_cell_volume   639.39069744
_cell_formula_units_Z   4
loop_
 _symmetry_equiv_pos_site_id
 _symmetry_equiv_pos_as_xyz
  1  'x, y, z'
loop_
 _atom_site_type_symbol
 _atom_site_label
 _atom_site_symmetry_multiplicity
 _atom_site_fract_x
 _atom_site_fract_y
 _atom_site_fract_z
 _atom_site_occupancy
  Ba  Ba0  1  0.33209200  0.72888700  0.50330700  1
  Ba  Ba1  1  0.83209200  0.27111300  0.99669300  1
  Ba  Ba2  1  0.66790800  0.27111300  0.49669300  1
  Ba  Ba3  1  0.16790800  0.72888700  0.00330700  1
  Ca  Ca0  1  0.41023000  0.29359700  0.81874300  1
  Ca  Ca1  1  0.91023000  0.70640300  0.68125700  1
  Ca  Ca2  1  0.08977000  0.29359700  0.31874300  1
  Ca  Ca3  1  0.58977000  0.70640300  0.18125700  1
  Ag  Ag0  1  0.62145700  0.80942900  0.81008700  1
  Ag  Ag1  1  0.37854300  0.19057100  0.18991300  1
  Ag  Ag2  1  0.87854300  0.80942900  0.31008700  1
  Ag  Ag3  1  0.12145700  0.19057100  0.68991300  1
  F  F0  1  0.41657400  0.88069200  0.09876200  1
  F  F1  1  0.04578300  0.65109300  0.37753300  1
  F  F2  1  0.71399600  0.51703000  0.73618600  1
  F  F3  1  0.28600400  0.48297000  0.26381400  1
  F  F4  1  0.46839000  0.06195600  0.36245400  1
  F  F5  1  0.78979700  0.70979800  0.49040100  1
  F  F6  1  0.78221700  0.99887400  0.74266400  1
  F  F7  1  0.96839000  0.93804400  0.13754600  1
  F  F8  1  0.45421700  0.65109300  0.87753300  1
  F  F9  1  0.21399600  0.48297000  0.76381400  1
  F  F10  1  0.08342600  0.88069200  0.59876200  1
  F  F11  1  0.58342600  0.11930800  0.90123800  1
  F  F12  1  0.28221700  0.00112600  0.75733600  1
  F  F13  1  0.96541600  0.58451600  0.87696400  1
  F  F14  1  0.53161000  0.93804400  0.63754600  1
  F  F15  1  0.03161000  0.06195600  0.86245400  1
  F  F16  1  0.21778300  0.00112600  0.25733600  1
  F  F17  1  0.91657400  0.11930800  0.40123800  1
  F  F18  1  0.46541600  0.41548400  0.62303600  1
  F  F19  1  0.95421700  0.34890700  0.62246700  1
  F  F20  1  0.03458400  0.41548400  0.12303600  1
  F  F21  1  0.71778300  0.99887400  0.24266400  1
  F  F22  1  0.53458400  0.58451600  0.37696400  1
  F  F23  1  0.28979700  0.29020200  0.00959900  1
  F  F24  1  0.21020300  0.29020200  0.50959900  1
  F  F25  1  0.71020300  0.70979800  0.99040100  1
  F  F26  1  0.54578300  0.34890700  0.12246700  1
  F  F27  1  0.78600400  0.51703000  0.23618600  1
loop_
_geom_bond_atom_site_label_1
_geom_bond_atom_site_label_2
_geom_bond_distance
_geom_bond_site_symmetry_2
Ba0 F18 2.603110 1_555
Ba0 F22 2.661170 1_555
Ba0 F4 2.800953 1_565
Ba0 F14 2.828473 1_555
Ba0 F24 2.897043 1_555
Ba0 F3 2.923284 1_555
Ba0 F10 2.963222 1_555
Ba0 F12 3.138349 1_565
Ba0 F16 3.175205 1_565
Ba0 F9 3.237425 1_555
Ba0 F1 3.336964 1_555
Ba1 F13 2.603110 1_555
Ba1 F20 2.661170 1_656
Ba1 F7 2.800953 1_546
Ba1 F15 2.828473 1_655
Ba1 F25 2.897043 1_555
Ba1 F27 2.923284 1_556
Ba1 F11 2.963222 1_555
Ba1 F6 3.138349 1_545
Ba1 F21 3.175205 1_546
Ba1 F2 3.237425 1_555
Ba1 F26 3.336964 1_556
Ba2 F22 2.603110 1_555
Ba2 F18 2.661170 1_555
Ba2 F14 2.800953 1_545
Ba2 F4 2.828473 1_555
Ba2 F5 2.897043 1_555
Ba2 F2 2.923284 1_555
Ba2 F17 2.963222 1_555
Ba2 F21 3.138349 1_545
Ba2 F6 3.175205 1_545
Ba2 F27 3.237425 1_555
Ba2 F19 3.336964 1_555
Ba3 F20 2.603110 1_555
Ba3 F13 2.661170 1_454
Ba3 F15 2.800953 1_564
Ba3 F7 2.828473 1_455
Ba3 F23 2.897043 1_555
Ba3 F9 2.923284 1_554
Ba3 F0 2.963222 1_555
Ba3 F16 3.138349 1_565
Ba3 F12 3.175205 1_564
Ba3 F3 3.237425 1_555
Ba3 F8 3.336964 1_554
Ca0 F18 2.178669 1_555
Ca0 F11 2.256790 1_555
Ca0 F8 2.264231 1_555
Ca0 F12 2.302117 1_555
Ca0 F23 2.327485 1_556
Ca0 F9 2.422100 1_555
Ca1 F13 2.178669 1_555
Ca1 F10 2.256790 1_655
Ca1 F19 2.264231 1_555
Ca1 F6 2.302117 1_555
Ca1 F5 2.327485 1_555
Ca1 F2 2.422100 1_555
Ca2 F20 2.178669 1_555
Ca2 F17 2.256790 1_455
Ca2 F1 2.264231 1_555
Ca2 F16 2.302117 1_555
Ca2 F24 2.327485 1_555
Ca2 F3 2.422100 1_555
Ca3 F22 2.178669 1_555
Ca3 F0 2.256790 1_555
Ca3 F26 2.264231 1_555
Ca3 F21 2.302117 1_555
Ca3 F25 2.327485 1_554
Ca3 F27 2.422100 1_555
Ag0 F8 2.111724 1_555
Ag0 F14 2.119576 1_555
Ag0 F11 2.119916 1_565
Ag0 F25 2.130964 1_555
Ag0 F6 2.142235 1_555
Ag0 F2 2.146242 1_555
Ag1 F26 2.111724 1_555
Ag1 F4 2.119576 1_555
Ag1 F0 2.119916 1_545
Ag1 F23 2.130964 1_555
Ag1 F16 2.142235 1_555
Ag1 F3 2.146242 1_555
Ag2 F1 2.111724 1_655
Ag2 F7 2.119576 1_555
Ag2 F17 2.119916 1_565
Ag2 F5 2.130964 1_555
Ag2 F21 2.142235 1_555
Ag2 F27 2.146242 1_555
Ag3 F19 2.111724 1_455
Ag3 F15 2.119576 1_555
Ag3 F10 2.119916 1_545
Ag3 F24 2.130964 1_555
Ag3 F12 2.142235 1_555
Ag3 F9 2.146242 1_555
