# generated using pymatgen
data_SmMgTl
_symmetry_space_group_name_H-M   'P 1'
_cell_length_a   7.63234512
_cell_length_b   7.63234512
_cell_length_c   4.68679215
_cell_angle_alpha   90.00000000
_cell_angle_beta   90.00000000
_cell_angle_gamma   120.00001840
_symmetry_Int_Tables_number   1
_chemical_formula_structural   SmMgTl
_chemical_formula_sum   'Sm3 Mg3 Tl3'
_cell_volume   236.44070497
_cell_formula_units_Z   3
loop_
 _symmetry_equiv_pos_site_id
 _symmetry_equiv_pos_as_xyz
  1  'x, y, z'
loop_
 _atom_site_type_symbol
 _atom_site_label
 _atom_site_symmetry_multiplicity
 _atom_site_fract_x
 _atom_site_fract_y
 _atom_site_fract_z
 _atom_site_occupancy
  Sm  Sm0  1  0.42710958  0.42710958  -0.00000000  1
  Sm  Sm1  1  0.57289053  0.99999996  0.00000000  1
  Sm  Sm2  1  0.99999996  0.57289053  0.00000000  1
  Mg  Mg0  1  0.00000006  0.24329022  0.50000000  1
  Mg  Mg1  1  0.75670979  0.75670979  0.50000000  1
  Mg  Mg2  1  0.24329022  0.00000006  0.50000000  1
  Tl  Tl0  1  0.66666690  0.33333310  0.50000000  1
  Tl  Tl1  1  0.99999987  0.99999987  0.00000000  1
  Tl  Tl2  1  0.33333310  0.66666690  0.50000000  1
loop_
_geom_bond_atom_site_label_1
_geom_bond_atom_site_label_2
_geom_bond_distance
_geom_bond_site_symmetry_2
Sm0 Tl1 3.259848 1_445
Sm0 Tl2 3.264262 1_554
Sm0 Tl0 3.264262 1_555
Sm0 Tl0 3.264262 1_554
Sm0 Tl2 3.264262 1_555
Sm0 Sm2 3.935944 1_555
Sm0 Sm1 3.935944 1_555
Sm0 Sm1 3.935946 1_545
Sm0 Sm2 3.935946 1_455
Sm1 Tl1 3.259846 1_555
Sm1 Tl0 3.264259 1_565
Sm1 Tl0 3.264259 1_564
Sm1 Tl2 3.264259 1_555
Sm1 Tl2 3.264259 1_554
Sm1 Sm2 3.935945 1_455
Sm1 Sm2 3.935945 1_565
Sm2 Tl1 3.259846 1_555
Sm2 Tl2 3.264259 1_655
Sm2 Tl2 3.264259 1_654
Sm2 Tl0 3.264259 1_554
Sm2 Tl0 3.264259 1_555
Mg0 Tl0 2.948427 1_455
Mg0 Tl2 2.948429 1_555
Mg0 Tl1 2.989898 1_445
Mg0 Tl1 2.989898 1_446
Mg0 Mg1 3.216201 1_445
Mg0 Mg2 3.216201 1_555
Mg0 Sm2 3.438003 1_456
Mg0 Sm2 3.438003 1_455
Mg0 Sm1 3.675998 1_445
Mg0 Sm1 3.675998 1_446
Mg0 Sm0 3.675998 1_556
Mg0 Sm0 3.675998 1_555
Mg1 Tl0 2.948432 1_555
Mg1 Tl2 2.948432 1_555
Mg1 Tl1 2.989897 1_556
Mg1 Tl1 2.989897 1_555
Mg1 Mg2 3.216201 1_665
Mg1 Sm0 3.438002 1_556
Mg1 Sm0 3.438002 1_555
Mg1 Sm2 3.675998 1_555
Mg1 Sm2 3.675998 1_556
Mg1 Sm1 3.675998 1_555
Mg1 Sm1 3.675998 1_556
Mg2 Tl2 2.948427 1_545
Mg2 Tl0 2.948429 1_555
Mg2 Tl1 2.989898 1_445
Mg2 Tl1 2.989898 1_446
Mg2 Sm1 3.438003 1_545
Mg2 Sm1 3.438003 1_546
Mg2 Sm2 3.675998 1_446
Mg2 Sm2 3.675998 1_445
Mg2 Sm0 3.675998 1_556
Mg2 Sm0 3.675998 1_555
