# generated using pymatgen
data_Pr2CuSi3Rh2
_symmetry_space_group_name_H-M   'P 1'
_cell_length_a   8.86190286
_cell_length_b   8.86190286
_cell_length_c   4.11366800
_cell_angle_alpha   90.00000000
_cell_angle_beta   90.00000000
_cell_angle_gamma   152.35690122
_symmetry_Int_Tables_number   1
_chemical_formula_structural   Pr2CuSi3Rh2
_chemical_formula_sum   'Pr2 Cu1 Si3 Rh2'
_cell_volume   149.88773853
_cell_formula_units_Z   1
loop_
 _symmetry_equiv_pos_site_id
 _symmetry_equiv_pos_as_xyz
  1  'x, y, z'
loop_
 _atom_site_type_symbol
 _atom_site_label
 _atom_site_symmetry_multiplicity
 _atom_site_fract_x
 _atom_site_fract_y
 _atom_site_fract_z
 _atom_site_occupancy
  Pr  Pr0  1  0.89636100  0.10363900  0.00000000  1
  Pr  Pr1  1  0.10628200  0.89371800  0.50000000  1
  Cu  Cu0  1  0.66781200  0.33218800  0.00000000  1
  Si  Si0  1  0.31863700  0.68136300  0.50000000  1
  Si  Si1  1  0.53515700  0.46484300  0.00000000  1
  Si  Si2  1  0.46363500  0.53636500  0.50000000  1
  Rh  Rh0  1  0.25581200  0.74418800  0.00000000  1
  Rh  Rh1  1  0.75630400  0.24369600  0.50000000  1
loop_
_geom_bond_atom_site_label_1
_geom_bond_atom_site_label_2
_geom_bond_distance
_geom_bond_site_symmetry_2
Pr0 Rh1 3.168740 1_555
Pr0 Rh1 3.168740 1_554
Pr0 Si2 3.170682 1_654
Pr0 Si2 3.170682 1_655
Pr0 Si2 3.170682 1_544
Pr0 Si2 3.170682 1_545
Pr0 Si1 3.191910 1_655
Pr0 Si1 3.191910 1_545
Pr0 Rh0 3.214551 1_655
Pr0 Rh0 3.214551 1_545
Pr0 Si0 3.240686 1_654
Pr0 Si0 3.240686 1_655
Pr0 Si0 3.240686 1_545
Pr0 Si0 3.240686 1_544
Pr1 Si1 3.195481 1_455
Pr1 Si1 3.195481 1_456
Pr1 Si1 3.195481 1_566
Pr1 Si1 3.195481 1_565
Pr1 Si2 3.241809 1_565
Pr1 Si2 3.241809 1_455
Pr1 Rh0 3.294462 1_555
Pr1 Rh0 3.294462 1_556
Pr1 Rh1 3.338962 1_455
Pr1 Rh1 3.338962 1_565
Cu0 Si1 2.283073 1_555
Cu0 Rh1 2.559316 1_555
Cu0 Rh1 2.559316 1_554
Cu0 Rh0 2.603058 1_655
Cu0 Rh0 2.603058 1_545
Cu0 Pr1 3.135934 1_545
Cu0 Pr1 3.135934 1_544
Cu0 Pr1 3.135934 1_654
Cu0 Pr1 3.135934 1_655
Si0 Si2 2.495503 1_555
Si1 Si2 2.397034 1_555
Si1 Si2 2.397034 1_554
Rh0 Si0 2.323721 1_554
Rh0 Si0 2.323721 1_555
Rh1 Si0 2.373389 1_655
Rh1 Si0 2.373389 1_545
