# generated using pymatgen
data_Mg3Al
_symmetry_space_group_name_H-M   'P 1'
_cell_length_a   5.27746895
_cell_length_b   5.27746895
_cell_length_c   5.27746895
_cell_angle_alpha   130.92201290
_cell_angle_beta   130.92201290
_cell_angle_gamma   71.93701348
_symmetry_Int_Tables_number   1
_chemical_formula_structural   Mg3Al
_chemical_formula_sum   'Mg3 Al1'
_cell_volume   82.07632484
_cell_formula_units_Z   1
loop_
 _symmetry_equiv_pos_site_id
 _symmetry_equiv_pos_as_xyz
  1  'x, y, z'
loop_
 _atom_site_type_symbol
 _atom_site_label
 _atom_site_symmetry_multiplicity
 _atom_site_fract_x
 _atom_site_fract_y
 _atom_site_fract_z
 _atom_site_occupancy
  Mg  Mg0  1  0.50000000  0.50000000  -0.00000000  1
  Mg  Mg1  1  0.25000000  0.75000000  0.50000000  1
  Mg  Mg2  1  0.75000000  0.25000000  0.50000000  1
  Al  Al0  1  0.00000000  -0.00000000  -0.00000000  1
loop_
_geom_bond_atom_site_label_1
_geom_bond_atom_site_label_2
_geom_bond_distance
_geom_bond_site_symmetry_2
Mg0 Mg1 3.060214 1_544
Mg0 Mg2 3.060214 1_554
Mg0 Mg2 3.060214 1_454
Mg0 Mg2 3.060214 1_565
Mg0 Mg1 3.060214 1_655
Mg0 Mg1 3.060214 1_555
Mg0 Mg2 3.060214 1_555
Mg0 Mg1 3.060214 1_554
Mg1 Mg2 3.099671 1_454
Mg1 Mg2 3.099671 1_555
Mg1 Mg2 3.099671 1_566
Mg1 Mg2 3.099671 1_465
Al0 Mg1 3.060214 1_544
Al0 Mg1 3.060214 1_444
Al0 Mg2 3.060214 1_455
Al0 Mg2 3.060214 1_454
Al0 Mg1 3.060214 1_545
Al0 Mg2 3.060214 1_444
Al0 Mg1 3.060214 1_555
Al0 Mg2 3.060214 1_555
Al0 Mg0 3.099671 1_545
Al0 Mg0 3.099671 1_444
Al0 Mg0 3.099671 1_455
Al0 Mg0 3.099671 1_556
