# generated using pymatgen
data_Sr2NdCu2RuO9
_symmetry_space_group_name_H-M   'P 1'
_cell_length_a   5.56480928
_cell_length_b   5.56480928
_cell_length_c   6.81819500
_cell_angle_alpha   90.00000000
_cell_angle_beta   90.00000000
_cell_angle_gamma   119.99999148
_symmetry_Int_Tables_number   1
_chemical_formula_structural   Sr2NdCu2RuO9
_chemical_formula_sum   'Sr2 Nd1 Cu2 Ru1 O9'
_cell_volume   182.85239644
_cell_formula_units_Z   1
loop_
 _symmetry_equiv_pos_site_id
 _symmetry_equiv_pos_as_xyz
  1  'x, y, z'
loop_
 _atom_site_type_symbol
 _atom_site_label
 _atom_site_symmetry_multiplicity
 _atom_site_fract_x
 _atom_site_fract_y
 _atom_site_fract_z
 _atom_site_occupancy
  Sr  Sr0  1  0.66666700  0.33333300  0.82611700  1
  Sr  Sr1  1  0.33333300  0.66666700  0.17388300  1
  Nd  Nd0  1  0.00000000  0.00000000  0.50000000  1
  Cu  Cu0  1  0.66666700  0.33333300  0.34108200  1
  Cu  Cu1  1  0.33333300  0.66666700  0.65891800  1
  Ru  Ru0  1  0.00000000  0.00000000  0.00000000  1
  O  O0  1  0.50000000  0.50000000  0.50000000  1
  O  O1  1  0.16134300  0.83865700  0.82925100  1
  O  O2  1  0.83865700  0.16134300  0.17074900  1
  O  O3  1  0.67731300  0.83865700  0.82925100  1
  O  O4  1  0.32268700  0.16134300  0.17074900  1
  O  O5  1  0.00000000  0.50000000  0.50000000  1
  O  O6  1  0.50000000  0.00000000  0.50000000  1
  O  O7  1  0.16134300  0.32268700  0.82925100  1
  O  O8  1  0.83865700  0.67731300  0.17074900  1
loop_
_geom_bond_atom_site_label_1
_geom_bond_atom_site_label_2
_geom_bond_distance
_geom_bond_site_symmetry_2
Nd0 O1 2.730921 1_545
Nd0 O2 2.730921 1_455
Nd0 O7 2.730924 1_555
Nd0 O3 2.730924 1_445
Nd0 O4 2.730924 1_555
Nd0 O8 2.730924 1_445
Nd0 O5 2.782405 1_555
Nd0 O6 2.782405 1_455
Nd0 O6 2.782405 1_555
Nd0 O5 2.782405 1_545
Nd0 O0 2.782405 1_555
Nd0 O0 2.782405 1_445
Cu0 O5 1.937688 1_655
Cu0 O6 1.937688 1_555
Cu0 O0 1.937691 1_555
Cu0 O2 2.024065 1_555
Cu0 O8 2.024065 1_555
Cu0 O4 2.024065 1_555
Cu1 O5 1.937688 1_555
Cu1 O6 1.937688 1_565
Cu1 O0 1.937691 1_555
Cu1 O1 2.024065 1_555
Cu1 O3 2.024065 1_555
Cu1 O7 2.024065 1_555
O0 Sr0 2.743116 1_555
O0 Sr1 2.743116 1_555
O1 Ru0 1.942608 1_566
O1 Sr0 2.782960 1_455
O1 Sr0 2.782960 1_565
O1 Sr1 2.875671 1_556
O2 Ru0 1.942608 1_655
O2 Sr1 2.782960 1_545
O2 Sr1 2.782960 1_655
O2 Sr0 2.875671 1_554
O3 Ru0 1.942612 1_666
O3 Sr0 2.782954 1_565
O3 Sr0 2.782965 1_555
O3 Sr1 2.875671 1_556
O4 Ru0 1.942612 1_555
O4 Sr1 2.782954 1_545
O4 Sr1 2.782965 1_555
O4 Sr0 2.875671 1_554
O5 Sr0 2.743113 1_455
O5 Sr1 2.743113 1_555
O6 Sr0 2.743113 1_555
O6 Sr1 2.743113 1_545
O7 Ru0 1.942612 1_556
O7 Sr0 2.782954 1_455
O7 Sr0 2.782965 1_555
O7 Sr1 2.875671 1_556
O8 Ru0 1.942612 1_665
O8 Sr1 2.782954 1_655
O8 Sr1 2.782965 1_555
O8 Sr0 2.875671 1_554
