# generated using pymatgen
data_V4Ni2O9
_symmetry_space_group_name_H-M   'P 1'
_cell_length_a   5.49007480
_cell_length_b   5.49007480
_cell_length_c   12.60625354
_cell_angle_alpha   86.22471524
_cell_angle_beta   86.22471524
_cell_angle_gamma   55.21121406
_symmetry_Int_Tables_number   1
_chemical_formula_structural   V4Ni2O9
_chemical_formula_sum   'V8 Ni4 O18'
_cell_volume   311.18707722
_cell_formula_units_Z   2
loop_
 _symmetry_equiv_pos_site_id
 _symmetry_equiv_pos_as_xyz
  1  'x, y, z'
loop_
 _atom_site_type_symbol
 _atom_site_label
 _atom_site_symmetry_multiplicity
 _atom_site_fract_x
 _atom_site_fract_y
 _atom_site_fract_z
 _atom_site_occupancy
  V  V0  1  0.13189100  0.13515500  0.78443700  1
  V  V1  1  0.47273400  0.46399600  0.61066700  1
  V  V2  1  0.13515500  0.13189100  0.28443700  1
  V  V3  1  0.46399600  0.47273400  0.11066700  1
  V  V4  1  0.79573800  0.79975600  0.94939400  1
  V  V5  1  0.86389500  0.86715000  0.71541400  1
  V  V6  1  0.79975600  0.79573800  0.44939400  1
  V  V7  1  0.86715000  0.86389500  0.21541400  1
  Ni  Ni0  1  0.20070500  0.19348000  0.54931300  1
  Ni  Ni1  1  0.19348000  0.20070500  0.04931300  1
  Ni  Ni2  1  0.53084800  0.52670200  0.88123300  1
  Ni  Ni3  1  0.52670200  0.53084800  0.38123300  1
  O  O0  1  0.81921200  0.08909000  0.34959200  1
  O  O1  1  0.64482000  0.03228000  0.58260100  1
  O  O2  1  0.69628200  0.30858500  0.74307700  1
  O  O3  1  0.54784400  0.21785000  0.98764600  1
  O  O4  1  0.41937000  0.14017500  0.19328700  1
  O  O5  1  0.14017500  0.41937000  0.69328700  1
  O  O6  1  0.21785000  0.54784400  0.48764600  1
  O  O7  1  0.88074800  0.21462700  0.15085000  1
  O  O8  1  0.97741000  0.36451500  0.90955700  1
  O  O9  1  0.30858500  0.69628200  0.24307700  1
  O  O10  1  0.03228000  0.64482000  0.08260100  1
  O  O11  1  0.08909000  0.81921200  0.84959200  1
  O  O12  1  0.75150900  0.47177900  0.52757500  1
  O  O13  1  0.89145600  0.55039500  0.31536000  1
  O  O14  1  0.55039500  0.89145600  0.81536000  1
  O  O15  1  0.47177900  0.75150900  0.02757500  1
  O  O16  1  0.36451500  0.97741000  0.40955700  1
  O  O17  1  0.21462700  0.88074800  0.65085000  1
loop_
_geom_bond_atom_site_label_1
_geom_bond_atom_site_label_2
_geom_bond_distance
_geom_bond_site_symmetry_2
Ni0 O17 2.041029 1_545
Ni0 O16 2.041839 1_545
Ni0 O12 2.055603 1_455
Ni0 O6 2.097205 1_555
Ni0 O1 2.127858 1_555
Ni0 O5 2.165467 1_555
Ni1 O7 2.041029 1_455
Ni1 O8 2.041839 1_454
Ni1 O15 2.055603 1_545
Ni1 O3 2.097205 1_554
Ni1 O10 2.127858 1_555
Ni1 O4 2.165467 1_555
Ni2 O2 2.029138 1_555
Ni2 O11 2.053953 1_555
Ni2 O3 2.054210 1_555
Ni2 O8 2.124462 1_555
Ni2 O14 2.173871 1_555
Ni2 O15 2.190010 1_556
Ni3 O9 2.029138 1_555
Ni3 O0 2.053953 1_555
Ni3 O6 2.054210 1_555
Ni3 O16 2.124462 1_555
Ni3 O13 2.173871 1_555
Ni3 O12 2.190010 1_555
O0 V2 1.997645 1_655
O0 V6 2.024812 1_545
O0 V7 2.074699 1_545
O1 V5 1.972998 1_545
O1 V6 2.017030 1_545
O1 V1 2.036318 1_555
O2 V1 1.976806 1_555
O2 V5 2.089501 1_545
O2 V0 2.097206 1_655
O3 V4 1.961654 1_545
O3 V3 2.007944 1_556
O4 V2 1.896081 1_555
O4 V7 2.049771 1_545
O4 V3 2.169026 1_555
O5 V0 1.896081 1_555
O5 V5 2.049771 1_455
O5 V1 2.169026 1_555
O6 V6 1.961654 1_455
O6 V1 2.007944 1_555
O7 V3 1.964170 1_555
O7 V7 2.079759 1_545
O7 V2 2.116166 1_655
O8 V0 1.912980 1_655
O8 V4 2.080679 1_555
O9 V3 1.976806 1_555
O9 V7 2.089501 1_455
O9 V2 2.097206 1_565
O10 V7 1.972998 1_455
O10 V4 2.017030 1_454
O10 V3 2.036318 1_555
O11 V0 1.997645 1_565
O11 V4 2.024812 1_455
O11 V5 2.074699 1_455
O12 V1 1.816334 1_555
O12 V6 2.115928 1_555
O13 V2 1.939720 1_655
O13 V7 2.010492 1_555
O13 V6 2.082450 1_555
O14 V0 1.939720 1_565
O14 V5 2.010492 1_555
O14 V4 2.082450 1_555
O15 V3 1.816334 1_555
O15 V4 2.115928 1_554
O16 V2 1.912980 1_565
O16 V6 2.080679 1_555
O17 V1 1.964170 1_555
O17 V5 2.079759 1_455
O17 V0 2.116166 1_565
