# generated using pymatgen
data_RbUC3O8
_symmetry_space_group_name_H-M   'P 1'
_cell_length_a   9.02784900
_cell_length_b   8.11562400
_cell_length_c   12.19863733
_cell_angle_alpha   65.33816814
_cell_angle_beta   90.00000000
_cell_angle_gamma   90.00000000
_symmetry_Int_Tables_number   1
_chemical_formula_structural   RbUC3O8
_chemical_formula_sum   'Rb4 U4 C12 O32'
_cell_volume   812.23054115
_cell_formula_units_Z   4
loop_
 _symmetry_equiv_pos_site_id
 _symmetry_equiv_pos_as_xyz
  1  'x, y, z'
loop_
 _atom_site_type_symbol
 _atom_site_label
 _atom_site_symmetry_multiplicity
 _atom_site_fract_x
 _atom_site_fract_y
 _atom_site_fract_z
 _atom_site_occupancy
  Rb  Rb0  1  0.08543800  0.55921600  0.32177700  1
  Rb  Rb1  1  0.41456200  0.55921600  0.82177700  1
  Rb  Rb2  1  0.91456200  0.44078400  0.67822300  1
  Rb  Rb3  1  0.58543800  0.44078400  0.17822300  1
  U  U0  1  0.31658400  0.12783300  0.60502500  1
  U  U1  1  0.18341600  0.12783300  0.10502500  1
  U  U2  1  0.68341600  0.87216700  0.39497500  1
  U  U3  1  0.81658400  0.87216700  0.89497500  1
  C  C0  1  0.19304600  0.97651000  0.41246700  1
  C  C1  1  0.30695400  0.97651000  0.91246700  1
  C  C2  1  0.80695400  0.02349000  0.58753300  1
  C  C3  1  0.69304600  0.02349000  0.08753300  1
  C  C4  1  0.19861200  0.80367400  0.53351600  1
  C  C5  1  0.30138800  0.80367400  0.03351600  1
  C  C6  1  0.80138800  0.19632600  0.46648400  1
  C  C7  1  0.69861200  0.19632600  0.96648400  1
  C  C8  1  0.51493600  0.48779400  0.56501200  1
  C  C9  1  0.98506400  0.48779400  0.06501200  1
  C  C10  1  0.48506400  0.51220600  0.43498800  1
  C  C11  1  0.01493600  0.51220600  0.93498800  1
  O  O0  1  0.14063800  0.22747000  0.61473600  1
  O  O1  1  0.35936200  0.22747000  0.11473600  1
  O  O2  1  0.85936200  0.77253000  0.38526400  1
  O  O3  1  0.64063800  0.77253000  0.88526400  1
  O  O4  1  0.49866900  0.04066900  0.59969300  1
  O  O5  1  0.00133100  0.04066900  0.09969300  1
  O  O6  1  0.50133100  0.95933100  0.40030700  1
  O  O7  1  0.99866900  0.95933100  0.90030700  1
  O  O8  1  0.21273000  0.12560500  0.42082800  1
  O  O9  1  0.28727000  0.12560500  0.92082800  1
  O  O10  1  0.78727000  0.87439500  0.57917200  1
  O  O11  1  0.71273000  0.87439500  0.07917200  1
  O  O12  1  0.22658500  0.84194600  0.62470600  1
  O  O13  1  0.27341500  0.84194600  0.12470600  1
  O  O14  1  0.77341500  0.15805400  0.37529400  1
  O  O15  1  0.72658500  0.15805400  0.87529400  1
  O  O16  1  0.16824800  0.95855700  0.31596100  1
  O  O17  1  0.33175200  0.95855700  0.81596100  1
  O  O18  1  0.83175200  0.04144300  0.68403900  1
  O  O19  1  0.66824800  0.04144300  0.18403900  1
  O  O20  1  0.17810500  0.65104600  0.53695500  1
  O  O21  1  0.32189500  0.65104600  0.03695500  1
  O  O22  1  0.82189500  0.34895400  0.46304500  1
  O  O23  1  0.67810500  0.34895400  0.96304500  1
  O  O24  1  0.44958700  0.35770900  0.64854100  1
  O  O25  1  0.05041300  0.35770900  0.14854100  1
  O  O26  1  0.55041300  0.64229100  0.35145900  1
  O  O27  1  0.94958700  0.64229100  0.85145900  1
  O  O28  1  0.60213300  0.60071800  0.57818300  1
  O  O29  1  0.89786700  0.60071800  0.07818300  1
  O  O30  1  0.39786700  0.39928200  0.42181700  1
  O  O31  1  0.10213300  0.39928200  0.92181700  1
loop_
_geom_bond_atom_site_label_1
_geom_bond_atom_site_label_2
_geom_bond_distance
_geom_bond_site_symmetry_2
C0 O16 1.265064 1_555
C0 O8 1.268491 1_565
C1 O17 1.265064 1_555
C1 O9 1.268491 1_565
C2 O18 1.265064 1_555
C2 O10 1.268491 1_545
C3 O19 1.265064 1_555
C3 O11 1.268491 1_545
C4 O20 1.235709 1_555
C4 O12 1.298462 1_555
C5 O21 1.235709 1_555
C5 O13 1.298462 1_555
C6 O22 1.235709 1_555
C6 O14 1.298462 1_555
C7 O23 1.235709 1_555
C7 O15 1.298462 1_555
C8 O24 1.266147 1_555
C8 O28 1.268171 1_555
C9 O25 1.266147 1_655
C9 O29 1.268171 1_555
C10 O26 1.266147 1_555
C10 O30 1.268171 1_555
C11 O27 1.266147 1_455
C11 O31 1.268171 1_555
O0 U0 1.808560 1_555
O0 Rb2 2.980136 1_455
O0 Rb0 3.498410 1_555
O1 U1 1.808560 1_555
O1 Rb3 2.980136 1_555
O1 Rb1 3.498410 1_554
O2 U2 1.808560 1_555
O2 Rb0 2.980136 1_655
O2 Rb2 3.498410 1_555
O3 U3 1.808560 1_555
O3 Rb1 2.980136 1_555
O3 Rb3 3.498410 1_556
O4 U0 1.801451 1_555
O5 U1 1.801451 1_555
O6 U2 1.801451 1_555
O7 U3 1.801451 1_555
O8 U0 2.441737 1_555
O8 Rb0 3.408181 1_555
O9 U1 2.441737 1_556
O9 Rb1 3.408181 1_555
O10 U2 2.441737 1_555
O10 Rb2 3.408181 1_555
O11 U3 2.441737 1_554
O11 Rb3 3.408181 1_555
O12 U0 2.374035 1_565
O12 Rb1 3.052984 1_555
O13 U1 2.374035 1_565
O13 Rb0 3.052984 1_555
O14 U2 2.374035 1_545
O14 Rb3 3.052984 1_555
O15 U3 2.374035 1_545
O15 Rb2 3.052984 1_555
O16 U1 2.361580 1_565
O16 Rb0 3.297801 1_555
O17 U0 2.361580 1_565
O17 Rb1 3.297801 1_555
O18 U3 2.361580 1_545
O18 Rb2 3.297801 1_555
O19 U2 2.361580 1_545
O19 Rb3 3.297801 1_555
O20 Rb2 3.014667 1_455
O20 Rb0 3.126943 1_555
O21 Rb3 3.014667 1_555
O21 Rb1 3.126943 1_554
O22 Rb0 3.014667 1_655
O22 Rb2 3.126943 1_555
O23 Rb1 3.014667 1_555
O23 Rb3 3.126943 1_556
O24 U0 2.455688 1_555
O24 Rb1 3.181854 1_555
O25 U1 2.455688 1_555
O25 Rb0 3.181854 1_555
O26 U2 2.455688 1_555
O26 Rb3 3.181854 1_555
O27 U3 2.455688 1_555
O27 Rb2 3.181854 1_555
O28 U2 2.505517 1_555
O28 Rb2 3.131721 1_555
O28 Rb1 3.312943 1_555
O29 U3 2.505517 1_554
O29 Rb3 3.131721 1_555
O29 Rb0 3.312943 1_655
O30 U0 2.505517 1_555
O30 Rb0 3.131721 1_555
O30 Rb3 3.312943 1_555
O31 U1 2.505517 1_556
O31 Rb1 3.131721 1_555
O31 Rb2 3.312943 1_455
