# generated using pymatgen
data_Sb2PH3(CF5)4
_symmetry_space_group_name_H-M   'P 1'
_cell_length_a   14.16403423
_cell_length_b   14.54752679
_cell_length_c   18.67919364
_cell_angle_alpha   90.00000000
_cell_angle_beta   90.00000000
_cell_angle_gamma   90.00000000
_symmetry_Int_Tables_number   1
_chemical_formula_structural   Sb2PH3(CF5)4
_chemical_formula_sum   'Sb16 P8 H24 C32 F160'
_cell_volume   3848.87899550
_cell_formula_units_Z   8
loop_
 _symmetry_equiv_pos_site_id
 _symmetry_equiv_pos_as_xyz
  1  'x, y, z'
loop_
 _atom_site_type_symbol
 _atom_site_label
 _atom_site_symmetry_multiplicity
 _atom_site_fract_x
 _atom_site_fract_y
 _atom_site_fract_z
 _atom_site_occupancy
  Sb  Sb0  1  0.38430847  0.48139453  0.12183516  1
  Sb  Sb1  1  0.88430847  0.01860547  0.87816484  1
  Sb  Sb2  1  0.61569153  0.98139453  0.37816484  1
  Sb  Sb3  1  0.11569153  0.51860547  0.62183516  1
  Sb  Sb4  1  0.61569153  0.51860547  0.87816484  1
  Sb  Sb5  1  0.11569153  0.98139453  0.12183516  1
  Sb  Sb6  1  0.38430847  0.01860547  0.62183516  1
  Sb  Sb7  1  0.88430847  0.48139453  0.37816484  1
  Sb  Sb8  1  0.09890341  0.52311391  0.13019253  1
  Sb  Sb9  1  0.59890341  0.97688609  0.86980747  1
  Sb  Sb10  1  0.90109659  0.02311391  0.36980747  1
  Sb  Sb11  1  0.40109659  0.47688609  0.63019253  1
  Sb  Sb12  1  0.90109659  0.47688609  0.86980747  1
  Sb  Sb13  1  0.40109659  0.02311391  0.13019253  1
  Sb  Sb14  1  0.09890341  0.97688609  0.63019253  1
  Sb  Sb15  1  0.59890341  0.52311391  0.36980747  1
  P  P0  1  0.24690339  0.20905080  0.87440030  1
  P  P1  1  0.74690339  0.29094920  0.12559970  1
  P  P2  1  0.75309661  0.70905080  0.62559970  1
  P  P3  1  0.25309661  0.79094920  0.37440030  1
  P  P4  1  0.75309661  0.79094920  0.12559970  1
  P  P5  1  0.25309661  0.70905080  0.87440030  1
  P  P6  1  0.24690339  0.29094920  0.37440030  1
  P  P7  1  0.74690339  0.20905080  0.62559970  1
  H  H0  1  0.17466449  0.06369184  0.88107229  1
  H  H1  1  0.67466449  0.43630816  0.11892771  1
  H  H2  1  0.82533551  0.56369184  0.61892771  1
  H  H3  1  0.32533551  0.93630816  0.38107229  1
  H  H4  1  0.82533551  0.93630816  0.11892771  1
  H  H5  1  0.32533551  0.56369184  0.88107229  1
  H  H6  1  0.17466449  0.43630816  0.38107229  1
  H  H7  1  0.67466449  0.06369184  0.61892771  1
  H  H8  1  0.28077934  0.06337780  0.82622810  1
  H  H9  1  0.78077934  0.43662220  0.17377190  1
  H  H10  1  0.71922066  0.56337780  0.67377190  1
  H  H11  1  0.21922066  0.93662220  0.32622810  1
  H  H12  1  0.71922066  0.93662220  0.17377190  1
  H  H13  1  0.21922066  0.56337780  0.82622810  1
  H  H14  1  0.28077934  0.43662220  0.32622810  1
  H  H15  1  0.78077934  0.06337780  0.67377190  1
  H  H16  1  0.29120006  0.06612731  0.92270826  1
  H  H17  1  0.79120006  0.43387269  0.07729174  1
  H  H18  1  0.70879994  0.56612731  0.57729174  1
  H  H19  1  0.20879994  0.93387269  0.42270826  1
  H  H20  1  0.70879994  0.93387269  0.07729174  1
  H  H21  1  0.20879994  0.56612731  0.92270826  1
  H  H22  1  0.29120006  0.43387269  0.42270826  1
  H  H23  1  0.79120006  0.06612731  0.57729174  1
  C  C0  1  0.18471703  0.26067796  0.95532534  1
  C  C1  1  0.68471703  0.23932204  0.04467466  1
  C  C2  1  0.81528297  0.76067796  0.54467466  1
  C  C3  1  0.31528297  0.73932204  0.45532534  1
  C  C4  1  0.81528297  0.73932204  0.04467466  1
  C  C5  1  0.31528297  0.76067796  0.95532534  1
  C  C6  1  0.18471703  0.23932204  0.45532534  1
  C  C7  1  0.68471703  0.26067796  0.54467466  1
  C  C8  1  0.37097032  0.25942808  0.87449770  1
  C  C9  1  0.87097032  0.24057192  0.12550230  1
  C  C10  1  0.62902968  0.75942808  0.62550230  1
  C  C11  1  0.12902968  0.74057192  0.37449770  1
  C  C12  1  0.62902968  0.74057192  0.12550230  1
  C  C13  1  0.12902968  0.75942808  0.87449770  1
  C  C14  1  0.37097032  0.24057192  0.37449770  1
  C  C15  1  0.87097032  0.25942808  0.62550230  1
  C  C16  1  0.18610917  0.25732440  0.79159599  1
  C  C17  1  0.68610917  0.24267560  0.20840401  1
  C  C18  1  0.81389083  0.75732440  0.70840401  1
  C  C19  1  0.31389083  0.74267560  0.29159599  1
  C  C20  1  0.81389083  0.74267560  0.20840401  1
  C  C21  1  0.31389083  0.75732440  0.79159599  1
  C  C22  1  0.18610917  0.24267560  0.29159599  1
  C  C23  1  0.68610917  0.25732440  0.70840401  1
  C  C24  1  0.24826096  0.08729227  0.87634018  1
  C  C25  1  0.74826096  0.41270773  0.12365982  1
  C  C26  1  0.75173904  0.58729227  0.62365982  1
  C  C27  1  0.25173904  0.91270773  0.37634018  1
  C  C28  1  0.75173904  0.91270773  0.12365982  1
  C  C29  1  0.25173904  0.58729227  0.87634018  1
  C  C30  1  0.24826096  0.41270773  0.37634018  1
  C  C31  1  0.74826096  0.08729227  0.62365982  1
  F  F0  1  0.51309951  0.44387869  0.11815332  1
  F  F1  1  0.01309951  0.05612131  0.88184668  1
  F  F2  1  0.48690049  0.94387869  0.38184668  1
  F  F3  1  0.98690049  0.55612131  0.61815332  1
  F  F4  1  0.48690049  0.55612131  0.88184668  1
  F  F5  1  0.98690049  0.94387869  0.11815332  1
  F  F6  1  0.51309951  0.05612131  0.61815332  1
  F  F7  1  0.01309951  0.44387869  0.38184668  1
  F  F8  1  0.33741029  0.36446879  0.09441599  1
  F  F9  1  0.83741029  0.13553121  0.90558401  1
  F  F10  1  0.66258971  0.86446879  0.40558401  1
  F  F11  1  0.16258971  0.63553121  0.59441599  1
  F  F12  1  0.66258971  0.63553121  0.90558401  1
  F  F13  1  0.16258971  0.86446879  0.09441599  1
  F  F14  1  0.33741029  0.13553121  0.59441599  1
  F  F15  1  0.83741029  0.36446879  0.40558401  1
  F  F16  1  0.37788986  0.52021402  0.02457397  1
  F  F17  1  0.87788986  0.97978598  0.97542603  1
  F  F18  1  0.62211014  0.02021402  0.47542603  1
  F  F19  1  0.12211014  0.47978598  0.52457397  1
  F  F20  1  0.62211014  0.47978598  0.97542603  1
  F  F21  1  0.12211014  0.02021402  0.02457397  1
  F  F22  1  0.37788986  0.97978598  0.52457397  1
  F  F23  1  0.87788986  0.52021402  0.47542603  1
  F  F24  1  0.41346106  0.60405114  0.14899563  1
  F  F25  1  0.91346106  0.89594886  0.85100437  1
  F  F26  1  0.58653894  0.10405114  0.35100437  1
  F  F27  1  0.08653894  0.39594886  0.64899563  1
  F  F28  1  0.58653894  0.39594886  0.85100437  1
  F  F29  1  0.08653894  0.10405114  0.14899563  1
  F  F30  1  0.41346106  0.89594886  0.64899563  1
  F  F31  1  0.91346106  0.60405114  0.35100437  1
  F  F32  1  0.36797679  0.44926932  0.22002840  1
  F  F33  1  0.86797679  0.05073068  0.77997160  1
  F  F34  1  0.63202321  0.94926932  0.27997160  1
  F  F35  1  0.13202321  0.55073068  0.72002840  1
  F  F36  1  0.63202321  0.55073068  0.77997160  1
  F  F37  1  0.13202321  0.94926932  0.22002840  1
  F  F38  1  0.36797679  0.05073068  0.72002840  1
  F  F39  1  0.86797679  0.44926932  0.27997160  1
  F  F40  1  0.24532923  0.52452695  0.12749819  1
  F  F41  1  0.74532923  0.97547305  0.87250181  1
  F  F42  1  0.75467077  0.02452695  0.37250181  1
  F  F43  1  0.25467077  0.47547305  0.62749819  1
  F  F44  1  0.75467077  0.47547305  0.87250181  1
  F  F45  1  0.25467077  0.02452695  0.12749819  1
  F  F46  1  0.24532923  0.97547305  0.62749819  1
  F  F47  1  0.74532923  0.52452695  0.37250181  1
  F  F48  1  0.96452741  0.52379573  0.13147050  1
  F  F49  1  0.46452741  0.97620427  0.86852950  1
  F  F50  1  0.03547259  0.02379573  0.36852950  1
  F  F51  1  0.53547259  0.47620427  0.63147050  1
  F  F52  1  0.03547259  0.47620427  0.86852950  1
  F  F53  1  0.53547259  0.02379573  0.13147050  1
  F  F54  1  0.96452741  0.97620427  0.63147050  1
  F  F55  1  0.46452741  0.52379573  0.36852950  1
  F  F56  1  0.11417107  0.48995717  0.22811502  1
  F  F57  1  0.61417107  0.01004283  0.77188498  1
  F  F58  1  0.88582893  0.98995717  0.27188498  1
  F  F59  1  0.38582893  0.51004283  0.72811502  1
  F  F60  1  0.88582893  0.51004283  0.77188498  1
  F  F61  1  0.38582893  0.98995717  0.22811502  1
  F  F62  1  0.11417107  0.01004283  0.72811502  1
  F  F63  1  0.61417107  0.48995717  0.27188498  1
  F  F64  1  0.10666717  0.39685133  0.10466325  1
  F  F65  1  0.60666717  0.10314867  0.89533675  1
  F  F66  1  0.89333283  0.89685133  0.39533675  1
  F  F67  1  0.39333283  0.60314867  0.60466325  1
  F  F68  1  0.89333283  0.60314867  0.89533675  1
  F  F69  1  0.39333283  0.89685133  0.10466325  1
  F  F70  1  0.10666717  0.10314867  0.60466325  1
  F  F71  1  0.60666717  0.39685133  0.39533675  1
  F  F72  1  0.10938697  0.55648419  0.03170987  1
  F  F73  1  0.60938697  0.94351581  0.96829013  1
  F  F74  1  0.89061303  0.05648419  0.46829013  1
  F  F75  1  0.39061303  0.44351581  0.53170987  1
  F  F76  1  0.89061303  0.44351581  0.96829013  1
  F  F77  1  0.39061303  0.05648419  0.03170987  1
  F  F78  1  0.10938697  0.94351581  0.53170987  1
  F  F79  1  0.60938697  0.55648419  0.46829013  1
  F  F80  1  0.10919511  0.64891639  0.15603163  1
  F  F81  1  0.60919511  0.85108361  0.84396837  1
  F  F82  1  0.89080489  0.14891639  0.34396837  1
  F  F83  1  0.39080489  0.35108361  0.65603163  1
  F  F84  1  0.89080489  0.35108361  0.84396837  1
  F  F85  1  0.39080489  0.14891639  0.15603163  1
  F  F86  1  0.10919511  0.85108361  0.65603163  1
  F  F87  1  0.60919511  0.64891639  0.34396837  1
  F  F88  1  0.09193485  0.24309868  0.95042885  1
  F  F89  1  0.59193485  0.25690132  0.04957115  1
  F  F90  1  0.90806515  0.74309868  0.54957115  1
  F  F91  1  0.40806515  0.75690132  0.45042885  1
  F  F92  1  0.90806515  0.75690132  0.04957115  1
  F  F93  1  0.40806515  0.74309868  0.95042885  1
  F  F94  1  0.09193485  0.25690132  0.45042885  1
  F  F95  1  0.59193485  0.24309868  0.54957115  1
  F  F96  1  0.22053953  0.22194229  0.01454704  1
  F  F97  1  0.72053953  0.27805771  0.98545296  1
  F  F98  1  0.77946047  0.72194229  0.48545296  1
  F  F99  1  0.27946047  0.77805771  0.51454704  1
  F  F100  1  0.77946047  0.77805771  0.98545296  1
  F  F101  1  0.27946047  0.72194229  0.01454704  1
  F  F102  1  0.22053953  0.27805771  0.51454704  1
  F  F103  1  0.72053953  0.22194229  0.48545296  1
  F  F104  1  0.19963472  0.35203990  0.95608252  1
  F  F105  1  0.69963472  0.14796010  0.04391748  1
  F  F106  1  0.80036528  0.85203990  0.54391748  1
  F  F107  1  0.30036528  0.64796010  0.45608252  1
  F  F108  1  0.80036528  0.64796010  0.04391748  1
  F  F109  1  0.30036528  0.85203990  0.95608252  1
  F  F110  1  0.19963472  0.14796010  0.45608252  1
  F  F111  1  0.69963472  0.35203990  0.54391748  1
  F  F112  1  0.41251739  0.23697801  0.93679587  1
  F  F113  1  0.91251739  0.26302199  0.06320413  1
  F  F114  1  0.58748261  0.73697801  0.56320413  1
  F  F115  1  0.08748261  0.76302199  0.43679587  1
  F  F116  1  0.58748261  0.76302199  0.06320413  1
  F  F117  1  0.08748261  0.73697801  0.93679587  1
  F  F118  1  0.41251739  0.26302199  0.43679587  1
  F  F119  1  0.91251739  0.23697801  0.56320413  1
  F  F120  1  0.36636605  0.35122278  0.86787599  1
  F  F121  1  0.86636605  0.14877722  0.13212401  1
  F  F122  1  0.63363395  0.85122278  0.63212401  1
  F  F123  1  0.13363395  0.64877722  0.36787599  1
  F  F124  1  0.63363395  0.64877722  0.13212401  1
  F  F125  1  0.13363395  0.85122278  0.86787599  1
  F  F126  1  0.36636605  0.14877722  0.36787599  1
  F  F127  1  0.86636605  0.35122278  0.63212401  1
  F  F128  1  0.41902322  0.22319823  0.81945587  1
  F  F129  1  0.91902322  0.27680177  0.18054413  1
  F  F130  1  0.58097678  0.72319823  0.68054413  1
  F  F131  1  0.08097678  0.77680177  0.31945587  1
  F  F132  1  0.58097678  0.77680177  0.18054413  1
  F  F133  1  0.08097678  0.72319823  0.81945587  1
  F  F134  1  0.41902322  0.27680177  0.31945587  1
  F  F135  1  0.91902322  0.22319823  0.68054413  1
  F  F136  1  0.19192310  0.34957881  0.79295488  1
  F  F137  1  0.69192310  0.15042119  0.20704512  1
  F  F138  1  0.80807690  0.84957881  0.70704512  1
  F  F139  1  0.30807690  0.65042119  0.29295488  1
  F  F140  1  0.80807690  0.65042119  0.20704512  1
  F  F141  1  0.30807690  0.84957881  0.79295488  1
  F  F142  1  0.19192310  0.15042119  0.29295488  1
  F  F143  1  0.69192310  0.34957881  0.70704512  1
  F  F144  1  0.23014086  0.22430647  0.73342739  1
  F  F145  1  0.73014086  0.27569353  0.26657261  1
  F  F146  1  0.76985914  0.72430647  0.76657261  1
  F  F147  1  0.26985914  0.77569353  0.23342739  1
  F  F148  1  0.76985914  0.77569353  0.26657261  1
  F  F149  1  0.26985914  0.72430647  0.73342739  1
  F  F150  1  0.23014086  0.27569353  0.23342739  1
  F  F151  1  0.73014086  0.22430647  0.76657261  1
  F  F152  1  0.09538529  0.23091130  0.79208288  1
  F  F153  1  0.59538529  0.26908870  0.20791712  1
  F  F154  1  0.90461471  0.73091130  0.70791712  1
  F  F155  1  0.40461471  0.76908870  0.29208288  1
  F  F156  1  0.90461471  0.76908870  0.20791712  1
  F  F157  1  0.40461471  0.73091130  0.79208288  1
  F  F158  1  0.09538529  0.26908870  0.29208288  1
  F  F159  1  0.59538529  0.23091130  0.70791712  1
loop_
_geom_bond_atom_site_label_1
_geom_bond_atom_site_label_2
_geom_bond_distance
_geom_bond_site_symmetry_2
C0 F96 1.341155 1_556
C0 F88 1.341942 1_555
C0 F104 1.345855 1_555
C0 P0 1.903911 1_555
C1 F97 1.341155 1_554
C1 F89 1.341942 1_555
C1 F105 1.345855 1_555
C1 P1 1.903911 1_555
C2 F98 1.341155 1_555
C2 F90 1.341942 1_555
C2 F106 1.345855 1_555
C2 P2 1.903911 1_555
C3 F99 1.341155 1_555
C3 F91 1.341942 1_555
C3 F107 1.345855 1_555
C3 P3 1.903911 1_555
C4 F100 1.341155 1_554
C4 F92 1.341942 1_555
C4 F108 1.345855 1_555
C4 P4 1.903911 1_555
C5 F101 1.341155 1_556
C5 F93 1.341942 1_555
C5 F109 1.345855 1_555
C5 P5 1.903911 1_555
C6 F102 1.341155 1_555
C6 F94 1.341942 1_555
C6 F110 1.345855 1_555
C6 P6 1.903911 1_555
C7 F103 1.341155 1_555
C7 F95 1.341942 1_555
C7 F111 1.345855 1_555
C7 P7 1.903911 1_555
C8 F128 1.340932 1_555
C8 F120 1.342687 1_555
C8 F112 1.344290 1_555
C8 P0 1.903984 1_555
C9 F129 1.340932 1_555
C9 F121 1.342687 1_555
C9 F113 1.344290 1_555
C9 P1 1.903984 1_555
C10 F130 1.340932 1_555
C10 F122 1.342687 1_555
C10 F114 1.344290 1_555
C10 P2 1.903984 1_555
C11 F131 1.340932 1_555
C11 F123 1.342687 1_555
C11 F115 1.344290 1_555
C11 P3 1.903984 1_555
C12 F132 1.340932 1_555
C12 F124 1.342687 1_555
C12 F116 1.344290 1_555
C12 P4 1.903984 1_555
C13 F133 1.340932 1_555
C13 F125 1.342687 1_555
C13 F117 1.344290 1_555
C13 P5 1.903984 1_555
C14 F134 1.340932 1_555
C14 F126 1.342687 1_555
C14 F118 1.344290 1_555
C14 P6 1.903984 1_555
C15 F135 1.340932 1_555
C15 F127 1.342687 1_555
C15 F119 1.344290 1_555
C15 P7 1.903984 1_555
C16 F152 1.341266 1_555
C16 F144 1.341734 1_555
C16 F136 1.344837 1_555
C16 P0 1.904465 1_555
C17 F153 1.341266 1_555
C17 F145 1.341734 1_555
C17 F137 1.344837 1_555
C17 P1 1.904465 1_555
C18 F154 1.341266 1_555
C18 F146 1.341734 1_555
C18 F138 1.344837 1_555
C18 P2 1.904465 1_555
C19 F155 1.341266 1_555
C19 F147 1.341734 1_555
C19 F139 1.344837 1_555
C19 P3 1.904465 1_555
C20 F156 1.341266 1_555
C20 F148 1.341734 1_555
C20 F140 1.344837 1_555
C20 P4 1.904465 1_555
C21 F157 1.341266 1_555
C21 F149 1.341734 1_555
C21 F141 1.344837 1_555
C21 P5 1.904465 1_555
C22 F158 1.341266 1_555
C22 F150 1.341734 1_555
C22 F142 1.344837 1_555
C22 P6 1.904465 1_555
C23 F159 1.341266 1_555
C23 F151 1.341734 1_555
C23 F143 1.344837 1_555
C23 P7 1.904465 1_555
C24 H8 1.099715 1_555
C24 H0 1.101060 1_555
C24 H16 1.102206 1_555
C24 P0 1.771760 1_555
C25 H9 1.099715 1_555
C25 H1 1.101060 1_555
C25 H17 1.102206 1_555
C25 P1 1.771760 1_555
C26 H10 1.099715 1_555
C26 H2 1.101060 1_555
C26 H18 1.102206 1_555
C26 P2 1.771760 1_555
C27 H11 1.099715 1_555
C27 H3 1.101060 1_555
C27 H19 1.102206 1_555
C27 P3 1.771760 1_555
C28 H12 1.099715 1_555
C28 H4 1.101060 1_555
C28 H20 1.102206 1_555
C28 P4 1.771760 1_555
C29 H13 1.099715 1_555
C29 H5 1.101060 1_555
C29 H21 1.102206 1_555
C29 P5 1.771760 1_555
C30 H14 1.099715 1_555
C30 H6 1.101060 1_555
C30 H22 1.102206 1_555
C30 P6 1.771760 1_555
C31 H15 1.099715 1_555
C31 H7 1.101060 1_555
C31 H23 1.102206 1_555
C31 P7 1.771760 1_555
F0 Sb0 1.905333 1_555
F1 Sb1 1.905333 1_455
F2 Sb2 1.905333 1_555
F3 Sb3 1.905333 1_655
F4 Sb4 1.905333 1_555
F5 Sb5 1.905333 1_655
F6 Sb6 1.905333 1_555
F7 Sb7 1.905333 1_455
F8 Sb0 1.896550 1_555
F9 Sb1 1.896550 1_555
F10 Sb2 1.896550 1_555
F11 Sb3 1.896550 1_555
F12 Sb4 1.896550 1_555
F13 Sb5 1.896550 1_555
F14 Sb6 1.896550 1_555
F15 Sb7 1.896550 1_555
F16 Sb0 1.904679 1_555
F17 Sb1 1.904679 1_565
F18 Sb2 1.904679 1_545
F19 Sb3 1.904679 1_555
F20 Sb4 1.904679 1_555
F21 Sb5 1.904679 1_545
F22 Sb6 1.904679 1_565
F23 Sb7 1.904679 1_555
F24 Sb0 1.900473 1_555
F25 Sb1 1.900473 1_565
F26 Sb2 1.900473 1_545
F27 Sb3 1.900473 1_555
F28 Sb4 1.900473 1_555
F29 Sb5 1.900473 1_545
F30 Sb6 1.900473 1_565
F31 Sb7 1.900473 1_555
F32 Sb0 1.906856 1_555
F33 Sb1 1.906856 1_555
F34 Sb2 1.906856 1_555
F35 Sb3 1.906856 1_555
F36 Sb4 1.906856 1_555
F37 Sb5 1.906856 1_555
F38 Sb6 1.906856 1_555
F39 Sb7 1.906856 1_555
F40 Sb0 2.068798 1_555
F40 Sb8 2.074693 1_555
F41 Sb1 2.068798 1_565
F41 Sb9 2.074693 1_555
F42 Sb2 2.068798 1_545
F42 Sb10 2.074693 1_555
F43 Sb3 2.068798 1_555
F43 Sb11 2.074693 1_555
F44 Sb4 2.068798 1_555
F44 Sb12 2.074693 1_555
F45 Sb5 2.068798 1_545
F45 Sb13 2.074693 1_555
F46 Sb6 2.068798 1_565
F46 Sb14 2.074693 1_555
F47 Sb7 2.068798 1_555
F47 Sb15 2.074693 1_555
F48 Sb8 1.903482 1_655
F49 Sb9 1.903482 1_555
F50 Sb10 1.903482 1_455
F51 Sb11 1.903482 1_555
F52 Sb12 1.903482 1_455
F53 Sb13 1.903482 1_555
F54 Sb14 1.903482 1_655
F55 Sb15 1.903482 1_555
F56 Sb8 1.903964 1_555
F57 Sb9 1.903964 1_545
F58 Sb10 1.903964 1_565
F59 Sb11 1.903964 1_555
F60 Sb12 1.903964 1_555
F61 Sb13 1.903964 1_565
F62 Sb14 1.903964 1_545
F63 Sb15 1.903964 1_555
F64 Sb8 1.900884 1_555
F65 Sb9 1.900884 1_545
F66 Sb10 1.900884 1_565
F67 Sb11 1.900884 1_555
F68 Sb12 1.900884 1_555
F69 Sb13 1.900884 1_565
F70 Sb14 1.900884 1_545
F71 Sb15 1.900884 1_555
F72 Sb8 1.908339 1_555
F73 Sb9 1.908339 1_555
F74 Sb10 1.908339 1_555
F75 Sb11 1.908339 1_555
F76 Sb12 1.908339 1_555
F77 Sb13 1.908339 1_555
F78 Sb14 1.908339 1_555
F79 Sb15 1.908339 1_555
F80 Sb8 1.898295 1_555
F81 Sb9 1.898295 1_555
F82 Sb10 1.898295 1_555
F83 Sb11 1.898295 1_555
F84 Sb12 1.898295 1_555
F85 Sb13 1.898295 1_555
F86 Sb14 1.898295 1_555
F87 Sb15 1.898295 1_555
