# generated using pymatgen
data_Nd9Al5Se21
_symmetry_space_group_name_H-M   'P 1'
_cell_length_a   12.20028865
_cell_length_b   12.20028858
_cell_length_c   12.20028995
_cell_angle_alpha   94.57933791
_cell_angle_beta   94.57933243
_cell_angle_gamma   94.57933429
_symmetry_Int_Tables_number   1
_chemical_formula_structural   Nd9Al5Se21
_chemical_formula_sum   'Nd18 Al10 Se42'
_cell_volume   1797.59640207
_cell_formula_units_Z   2
loop_
 _symmetry_equiv_pos_site_id
 _symmetry_equiv_pos_as_xyz
  1  'x, y, z'
loop_
 _atom_site_type_symbol
 _atom_site_label
 _atom_site_symmetry_multiplicity
 _atom_site_fract_x
 _atom_site_fract_y
 _atom_site_fract_z
 _atom_site_occupancy
  Nd  Nd0  1  0.26159126  0.11688794  0.88680624  1
  Nd  Nd1  1  0.92824496  0.77281187  0.54604266  1
  Nd  Nd2  1  0.60524752  0.44543151  0.23439969  1
  Nd  Nd3  1  0.44543151  0.23439969  0.60524752  1
  Nd  Nd4  1  0.11688794  0.88680624  0.26159126  1
  Nd  Nd5  1  0.77281187  0.54604266  0.92824496  1
  Nd  Nd6  1  0.54604266  0.92824496  0.77281187  1
  Nd  Nd7  1  0.23439969  0.60524752  0.44543151  1
  Nd  Nd8  1  0.88680624  0.26159126  0.11688794  1
  Nd  Nd9  1  0.41525939  0.56845013  0.79051204  1
  Nd  Nd10  1  0.06794520  0.22505539  0.44949770  1
  Nd  Nd11  1  0.75312326  0.90207382  0.12464757  1
  Nd  Nd12  1  0.22505539  0.44949770  0.06794520  1
  Nd  Nd13  1  0.90207382  0.12464757  0.75312326  1
  Nd  Nd14  1  0.56845013  0.79051204  0.41525939  1
  Nd  Nd15  1  0.12464757  0.75312326  0.90207382  1
  Nd  Nd16  1  0.79051204  0.41525939  0.56845013  1
  Nd  Nd17  1  0.44949770  0.06794520  0.22505539  1
  Al  Al0  1  0.95412312  0.61333256  0.27996084  1
  Al  Al1  1  0.61333256  0.27996084  0.95412312  1
  Al  Al2  1  0.27996084  0.95412312  0.61333256  1
  Al  Al3  1  0.45292091  0.77573127  0.11864096  1
  Al  Al4  1  0.11864096  0.45292091  0.77573127  1
  Al  Al5  1  0.77573127  0.11864096  0.45292091  1
  Al  Al6  1  0.14363820  0.14363820  0.14363820  1
  Al  Al7  1  0.82976790  0.82976790  0.82976790  1
  Al  Al8  1  0.32845550  0.32845550  0.32845550  1
  Al  Al9  1  0.64557941  0.64557941  0.64557941  1
  Se  Se0  1  0.82976344  0.49214804  0.16014672  1
  Se  Se1  1  0.49214804  0.16014672  0.82976344  1
  Se  Se2  1  0.16014672  0.82976344  0.49214804  1
  Se  Se3  1  0.65977630  0.99398780  0.32838563  1
  Se  Se4  1  0.32838563  0.65977630  0.99398780  1
  Se  Se5  1  0.99398780  0.32838563  0.65977630  1
  Se  Se6  1  0.99205482  0.55017742  0.45725715  1
  Se  Se7  1  0.64550701  0.21348685  0.12975922  1
  Se  Se8  1  0.30717387  0.89161126  0.79338817  1
  Se  Se9  1  0.89161126  0.79338817  0.30717387  1
  Se  Se10  1  0.55017742  0.45725715  0.99205482  1
  Se  Se11  1  0.21348685  0.12975922  0.64550701  1
  Se  Se12  1  0.12975922  0.64550701  0.21348685  1
  Se  Se13  1  0.79338817  0.30717387  0.89161126  1
  Se  Se14  1  0.45725715  0.99205482  0.55017742  1
  Se  Se15  1  0.52036928  0.93429703  0.03545516  1
  Se  Se16  1  0.18531288  0.61581948  0.70054584  1
  Se  Se17  1  0.83704829  0.28112236  0.36968317  1
  Se  Se18  1  0.61581948  0.70054584  0.18531288  1
  Se  Se19  1  0.28112236  0.36968317  0.83704829  1
  Se  Se20  1  0.93429703  0.03545516  0.52036928  1
  Se  Se21  1  0.36968317  0.83704829  0.28112236  1
  Se  Se22  1  0.03545516  0.52036928  0.93429703  1
  Se  Se23  1  0.70054584  0.18531288  0.61581948  1
  Se  Se24  1  0.69264781  0.59168311  0.44788822  1
  Se  Se25  1  0.33566318  0.24023461  0.10892123  1
  Se  Se26  1  0.00315737  0.90232371  0.76412332  1
  Se  Se27  1  0.90232371  0.76412332  0.00315737  1
  Se  Se28  1  0.59168311  0.44788822  0.69264781  1
  Se  Se29  1  0.24023461  0.10892123  0.33566318  1
  Se  Se30  1  0.10892123  0.33566318  0.24023461  1
  Se  Se31  1  0.76412332  0.00315737  0.90232371  1
  Se  Se32  1  0.44788822  0.69264781  0.59168311  1
  Se  Se33  1  0.62360007  0.71754115  0.85001536  1
  Se  Se34  1  0.27336931  0.37997585  0.51275849  1
  Se  Se35  1  0.96170051  0.05907842  0.20699329  1
  Se  Se36  1  0.37997585  0.51275849  0.27336931  1
  Se  Se37  1  0.05907842  0.20699329  0.96170051  1
  Se  Se38  1  0.71754115  0.85001536  0.62360007  1
  Se  Se39  1  0.20699329  0.96170051  0.05907842  1
  Se  Se40  1  0.85001536  0.62360007  0.71754115  1
  Se  Se41  1  0.51275849  0.27336931  0.37997585  1
loop_
_geom_bond_atom_site_label_1
_geom_bond_atom_site_label_2
_geom_bond_distance
_geom_bond_site_symmetry_2
Nd0 Se37 2.963379 1_555
Nd0 Se1 2.968035 1_555
Nd0 Se11 2.974628 1_555
Nd0 Se8 3.001209 1_545
Nd0 Se39 3.017190 1_546
Nd0 Se25 3.027426 1_556
Nd0 Se19 3.184674 1_555
Nd1 Se9 2.946606 1_555
Nd1 Se2 2.995996 1_655
Nd1 Se38 3.003909 1_555
Nd1 Se26 3.020071 1_655
Nd1 Se6 3.026494 1_555
Nd1 Se40 3.041772 1_555
Nd1 Se20 3.239974 1_565
Nd1 Se24 3.548638 1_555
Nd2 Se0 2.979580 1_555
Nd2 Se36 2.993513 1_555
Nd2 Se10 2.996758 1_554
Nd2 Se41 3.061289 1_555
Nd2 Se24 3.100878 1_555
Nd2 Se7 3.102258 1_555
Nd2 Se18 3.210703 1_555
Nd3 Se1 2.979580 1_555
Nd3 Se41 2.993513 1_555
Nd3 Se14 2.996758 1_545
Nd3 Se34 3.061289 1_555
Nd3 Se28 3.100878 1_555
Nd3 Se11 3.102258 1_555
Nd3 Se23 3.210703 1_555
Nd4 Se39 2.963380 1_555
Nd4 Se2 2.968035 1_555
Nd4 Se12 2.974628 1_555
Nd4 Se9 3.001209 1_455
Nd4 Se35 3.017190 1_465
Nd4 Se29 3.027426 1_565
Nd4 Se21 3.184674 1_555
Nd5 Se13 2.946606 1_555
Nd5 Se0 2.995996 1_556
Nd5 Se40 3.003909 1_555
Nd5 Se27 3.020071 1_556
Nd5 Se10 3.026494 1_555
Nd5 Se33 3.041771 1_555
Nd5 Se22 3.239974 1_655
Nd5 Se28 3.548638 1_555
Nd6 Se8 2.946606 1_555
Nd6 Se1 2.995996 1_565
Nd6 Se33 3.003909 1_555
Nd6 Se31 3.020071 1_565
Nd6 Se14 3.026494 1_555
Nd6 Se38 3.041771 1_555
Nd6 Se15 3.239974 1_556
Nd6 Se32 3.548638 1_555
Nd7 Se2 2.979580 1_555
Nd7 Se34 2.993513 1_555
Nd7 Se6 2.996758 1_455
Nd7 Se36 3.061289 1_555
Nd7 Se32 3.100878 1_555
Nd7 Se12 3.102258 1_555
Nd7 Se16 3.210703 1_555
Nd8 Se35 2.963380 1_555
Nd8 Se0 2.968035 1_555
Nd8 Se7 2.974628 1_555
Nd8 Se13 3.001210 1_554
Nd8 Se37 3.017190 1_654
Nd8 Se30 3.027426 1_655
Nd8 Se17 3.184674 1_555
Nd9 Se19 2.935255 1_555
Nd9 Se4 2.948639 1_555
Nd9 Se28 2.976151 1_555
Nd9 Se32 2.997267 1_555
Nd9 Se33 3.008766 1_555
Nd9 Se16 3.045912 1_555
Nd9 Se10 3.292230 1_555
Nd10 Se20 2.949462 1_455
Nd10 Se29 2.997022 1_555
Nd10 Se5 3.003302 1_455
Nd10 Se34 3.025073 1_555
Nd10 Se30 3.038965 1_555
Nd10 Se17 3.054126 1_455
Nd10 Se11 3.212303 1_555
Nd10 Se35 3.542030 1_455
Nd11 Se27 2.977365 1_555
Nd11 Se3 2.990631 1_555
Nd11 Se15 3.025811 1_555
Nd11 Se18 3.038092 1_555
Nd11 Se31 3.076028 1_564
Nd11 Se35 3.108074 1_565
Nd11 Se9 3.130561 1_555
Nd12 Se22 2.949462 1_554
Nd12 Se30 2.997022 1_555
Nd12 Se4 3.003302 1_554
Nd12 Se36 3.025073 1_555
Nd12 Se25 3.038965 1_555
Nd12 Se19 3.054126 1_554
Nd12 Se12 3.212303 1_555
Nd12 Se37 3.542029 1_554
Nd13 Se31 2.977365 1_555
Nd13 Se5 2.990631 1_555
Nd13 Se20 3.025811 1_555
Nd13 Se23 3.038092 1_555
Nd13 Se26 3.076028 1_645
Nd13 Se37 3.108074 1_655
Nd13 Se13 3.130561 1_555
Nd14 Se21 2.935256 1_555
Nd14 Se3 2.948639 1_555
Nd14 Se32 2.976151 1_555
Nd14 Se24 2.997266 1_555
Nd14 Se38 3.008766 1_555
Nd14 Se18 3.045912 1_555
Nd14 Se14 3.292230 1_555
Nd15 Se26 2.977365 1_555
Nd15 Se4 2.990631 1_555
Nd15 Se22 3.025811 1_555
Nd15 Se16 3.038092 1_555
Nd15 Se27 3.076028 1_456
Nd15 Se39 3.108074 1_556
Nd15 Se8 3.130561 1_555
Nd16 Se17 2.935255 1_555
Nd16 Se5 2.948639 1_555
Nd16 Se24 2.976151 1_555
Nd16 Se28 2.997266 1_555
Nd16 Se40 3.008766 1_555
Nd16 Se23 3.045912 1_555
Nd16 Se6 3.292230 1_555
Nd17 Se15 2.949462 1_545
Nd17 Se25 2.997022 1_555
Nd17 Se3 3.003302 1_545
Nd17 Se41 3.025073 1_555
Nd17 Se29 3.038964 1_555
Nd17 Se21 3.054126 1_545
Nd17 Se7 3.212303 1_555
Nd17 Se39 3.542030 1_545
Al0 Se0 2.359496 1_555
Al0 Se12 2.365896 1_655
Al0 Se6 2.376959 1_555
Al0 Se9 2.389352 1_555
Al1 Se1 2.359496 1_555
Al1 Se7 2.365897 1_556
Al1 Se10 2.376959 1_555
Al1 Se13 2.389352 1_555
Al2 Se2 2.359496 1_555
Al2 Se11 2.365896 1_565
Al2 Se14 2.376959 1_555
Al2 Se8 2.389352 1_555
Al3 Se4 2.359434 1_554
Al3 Se18 2.367479 1_555
Al3 Se15 2.375351 1_555
Al3 Se21 2.393006 1_555
Al4 Se5 2.359434 1_455
Al4 Se16 2.367479 1_555
Al4 Se22 2.375351 1_555
Al4 Se19 2.393006 1_555
Al5 Se3 2.359434 1_545
Al5 Se23 2.367479 1_555
Al5 Se20 2.375351 1_555
Al5 Se17 2.393006 1_555
Al6 Se39 2.573797 1_545
Al6 Se35 2.573797 1_455
Al6 Se37 2.573797 1_554
Al6 Se30 2.618031 1_555
Al6 Se25 2.618031 1_555
Al6 Se29 2.618031 1_555
Al7 Se31 2.446353 1_565
Al7 Se26 2.446353 1_655
Al7 Se27 2.446353 1_556
Al7 Se40 2.804602 1_555
Al7 Se33 2.804602 1_555
Al7 Se38 2.804602 1_555
Al8 Se41 2.446593 1_555
Al8 Se36 2.446593 1_555
Al8 Se34 2.446593 1_555
Al8 Se29 2.816438 1_555
Al8 Se30 2.816439 1_555
Al8 Se25 2.816439 1_555
Al9 Se28 2.570517 1_555
Al9 Se32 2.570517 1_555
Al9 Se24 2.570517 1_555
Al9 Se38 2.618847 1_555
Al9 Se40 2.618847 1_555
Al9 Se33 2.618848 1_555
