# generated using pymatgen
data_Ca2LaRuO6
_symmetry_space_group_name_H-M   'P 1'
_cell_length_a   5.65373469
_cell_length_b   5.90370461
_cell_length_c   8.16792933
_cell_angle_alpha   90.54956723
_cell_angle_beta   89.67398800
_cell_angle_gamma   90.08512136
_symmetry_Int_Tables_number   1
_chemical_formula_structural   Ca2LaRuO6
_chemical_formula_sum   'Ca4 La2 Ru2 O12'
_cell_volume   272.61174482
_cell_formula_units_Z   2
loop_
 _symmetry_equiv_pos_site_id
 _symmetry_equiv_pos_as_xyz
  1  'x, y, z'
loop_
 _atom_site_type_symbol
 _atom_site_label
 _atom_site_symmetry_multiplicity
 _atom_site_fract_x
 _atom_site_fract_y
 _atom_site_fract_z
 _atom_site_occupancy
  Ca  Ca0  1  0.50000000  0.00000000  0.50000000  1
  Ca  Ca1  1  0.00000000  0.50000000  0.00000000  1
  Ca  Ca2  1  0.98676300  0.05273100  0.75348700  1
  Ca  Ca3  1  0.01323700  0.94726900  0.24651300  1
  La  La0  1  0.51409800  0.55932500  0.74791600  1
  La  La1  1  0.48590200  0.44067500  0.25208400  1
  Ru  Ru0  1  0.00000000  0.50000000  0.50000000  1
  Ru  Ru1  1  0.50000000  0.00000000  0.00000000  1
  O  O0  1  0.70632100  0.32505300  0.54312000  1
  O  O1  1  0.29367900  0.67494700  0.45688000  1
  O  O2  1  0.82554300  0.77823600  0.56994300  1
  O  O3  1  0.17445700  0.22176400  0.43005700  1
  O  O4  1  0.38515200  0.95737900  0.77098400  1
  O  O5  1  0.61484800  0.04262100  0.22901600  1
  O  O6  1  0.10464700  0.44573000  0.72924400  1
  O  O7  1  0.89535300  0.55427000  0.27075600  1
  O  O8  1  0.78105600  0.81819600  0.93993400  1
  O  O9  1  0.21894400  0.18180400  0.06006600  1
  O  O10  1  0.66928100  0.28637800  0.94189000  1
  O  O11  1  0.33071900  0.71362200  0.05811000  1
loop_
_geom_bond_atom_site_label_1
_geom_bond_atom_site_label_2
_geom_bond_distance
_geom_bond_site_symmetry_2
Ca0 O0 2.269893 1_555
Ca0 O1 2.269893 1_545
Ca0 O5 2.319012 1_555
Ca0 O4 2.319012 1_545
Ca0 O2 2.336983 1_545
Ca0 O3 2.336983 1_555
Ca1 O10 2.302946 1_454
Ca1 O11 2.302946 1_555
Ca1 O7 2.305554 1_455
Ca1 O6 2.305554 1_554
Ca1 O8 2.309410 1_454
Ca1 O9 2.309410 1_555
Ca2 O4 2.327988 1_645
Ca2 O8 2.367378 1_545
Ca2 O2 2.380976 1_545
Ca2 O6 2.422648 1_655
Ca2 O10 2.725413 1_555
Ca2 O0 2.853538 1_555
Ca2 O9 2.927838 1_656
Ca2 O3 3.019324 1_655
Ca3 O5 2.327988 1_465
Ca3 O9 2.367378 1_565
Ca3 O3 2.380976 1_565
Ca3 O7 2.422648 1_455
Ca3 O11 2.725413 1_555
Ca3 O1 2.853538 1_555
Ca3 O8 2.927838 1_454
Ca3 O2 3.019324 1_455
La0 O6 2.414402 1_555
La0 O0 2.414849 1_555
La0 O10 2.438356 1_555
La0 O4 2.466674 1_555
La0 O2 2.623754 1_555
La0 O8 2.654743 1_555
La0 O1 2.781581 1_555
La0 O11 2.872746 1_556
La1 O7 2.414402 1_555
La1 O1 2.414849 1_555
La1 O11 2.438356 1_555
La1 O5 2.466674 1_555
La1 O3 2.623754 1_555
La1 O9 2.654743 1_555
La1 O0 2.781581 1_555
La1 O10 2.872746 1_554
O0 Ru0 1.985672 1_655
O1 Ru0 1.985672 1_555
O2 Ru0 1.994451 1_655
O3 Ru0 1.994451 1_555
O4 Ru1 1.997081 1_566
O5 Ru1 1.997081 1_555
O6 Ru0 1.995856 1_555
O7 Ru0 1.995856 1_655
O8 Ru1 1.975798 1_566
O9 Ru1 1.975798 1_555
O10 Ru1 2.001279 1_556
O11 Ru1 2.001279 1_565
