# generated using pymatgen
data_Li6Mn3CoO10
_symmetry_space_group_name_H-M   'P 1'
_cell_length_a   5.16296600
_cell_length_b   5.92231300
_cell_length_c   6.52585617
_cell_angle_alpha   104.29725317
_cell_angle_beta   96.21578858
_cell_angle_gamma   108.74095713
_symmetry_Int_Tables_number   1
_chemical_formula_structural   Li6Mn3CoO10
_chemical_formula_sum   'Li6 Mn3 Co1 O10'
_cell_volume   179.23931358
_cell_formula_units_Z   1
loop_
 _symmetry_equiv_pos_site_id
 _symmetry_equiv_pos_as_xyz
  1  'x, y, z'
loop_
 _atom_site_type_symbol
 _atom_site_label
 _atom_site_symmetry_multiplicity
 _atom_site_fract_x
 _atom_site_fract_y
 _atom_site_fract_z
 _atom_site_occupancy
  Li  Li0  1  0.80055100  0.10440300  0.59600900  1
  Li  Li1  1  0.60335700  0.69398900  0.20215500  1
  Li  Li2  1  0.20012100  0.90635400  0.39196800  1
  Li  Li3  1  0.99018500  0.49692400  0.00947700  1
  Li  Li4  1  0.40619600  0.29860200  0.80339100  1
  Li  Li5  1  0.60299500  0.20321700  0.20403300  1
  Mn  Mn0  1  0.00053000  0.00177300  0.00186000  1
  Mn  Mn1  1  0.79712400  0.59239600  0.59279300  1
  Mn  Mn2  1  0.40109400  0.80349500  0.80423900  1
  Co  Co0  1  0.20218300  0.39347800  0.39237800  1
  O  O0  1  0.07608900  0.94158500  0.70864700  1
  O  O1  1  0.89936600  0.55848900  0.32426100  1
  O  O2  1  0.50428600  0.72158500  0.50916400  1
  O  O3  1  0.27214100  0.33662100  0.10282900  1
  O  O4  1  0.70911400  0.11957200  0.90304300  1
  O  O5  1  0.51338700  0.27259200  0.51244700  1
  O  O6  1  0.28073100  0.86016300  0.07791900  1
  O  O7  1  0.92791300  0.06443400  0.28810400  1
  O  O8  1  0.72182100  0.65915100  0.89465800  1
  O  O9  1  0.09081700  0.47117700  0.68062500  1
loop_
_geom_bond_atom_site_label_1
_geom_bond_atom_site_label_2
_geom_bond_distance
_geom_bond_site_symmetry_2
Li0 O4 2.094939 1_555
Li0 O9 2.098972 1_655
Li0 O0 2.121078 1_645
Li0 O5 2.128339 1_555
Li0 O7 2.162662 1_555
Li0 O2 2.179499 1_545
Li1 O2 2.101488 1_555
Li1 O1 2.110630 1_555
Li1 O3 2.140219 1_555
Li1 O8 2.141448 1_554
Li1 O7 2.182215 1_565
Li1 O6 2.356994 1_555
Li2 O1 2.048630 1_455
Li2 O7 2.064857 1_465
Li2 O6 2.104567 1_555
Li2 O5 2.136983 1_565
Li2 O0 2.209959 1_555
Li2 O2 2.346477 1_555
Li3 O3 2.091228 1_655
Li3 O6 2.093851 1_655
Li3 O8 2.095326 1_554
Li3 O4 2.124565 1_554
Li3 O1 2.126310 1_555
Li3 O9 2.242637 1_654
Li4 O5 2.018112 1_555
Li4 O8 2.120244 1_555
Li4 O3 2.126945 1_556
Li4 O0 2.137315 1_545
Li4 O4 2.275717 1_555
Li4 O9 2.351393 1_555
Li5 O1 2.059079 1_555
Li5 O6 2.068539 1_545
Li5 O4 2.081007 1_554
Li5 O5 2.085431 1_555
Li5 O7 2.167970 1_555
Li5 O3 2.204293 1_555
Mn0 O7 1.914768 1_455
Mn0 O3 1.923755 1_555
Mn0 O4 1.962874 1_454
Mn0 O0 1.963344 1_544
Mn0 O6 1.967812 1_545
Mn0 O8 1.970283 1_444
Mn1 O1 1.866684 1_555
Mn1 O5 1.889023 1_555
Mn1 O9 1.964097 1_655
Mn1 O2 1.984934 1_555
Mn1 O0 2.000179 1_655
Mn1 O8 2.016936 1_555
Mn2 O4 1.928149 1_565
Mn2 O6 1.940850 1_556
Mn2 O9 2.000119 1_555
Mn2 O2 2.038147 1_555
Mn2 O8 2.183600 1_555
Mn2 O0 2.186485 1_555
Co0 O7 1.904968 1_455
Co0 O3 1.930272 1_555
Co0 O2 1.962929 1_555
Co0 O9 2.014308 1_555
Co0 O5 2.109906 1_555
Co0 O1 2.154709 1_455
