# generated using pymatgen
data_AlNiF5
_symmetry_space_group_name_H-M   'P 1'
_cell_length_a   5.15981514
_cell_length_b   5.15981514
_cell_length_c   5.15981514
_cell_angle_alpha   140.02620198
_cell_angle_beta   105.90050566
_cell_angle_gamma   87.69000923
_symmetry_Int_Tables_number   1
_chemical_formula_structural   AlNiF5
_chemical_formula_sum   'Al1 Ni1 F5'
_cell_volume   81.61494676
_cell_formula_units_Z   1
loop_
 _symmetry_equiv_pos_site_id
 _symmetry_equiv_pos_as_xyz
  1  'x, y, z'
loop_
 _atom_site_type_symbol
 _atom_site_label
 _atom_site_symmetry_multiplicity
 _atom_site_fract_x
 _atom_site_fract_y
 _atom_site_fract_z
 _atom_site_occupancy
  Al  Al0  1  0.50000000  0.50000000  0.00000000  1
  Ni  Ni0  1  0.00000000  0.00000000  0.00000000  1
  F  F0  1  0.79772600  0.50000000  0.29772600  1
  F  F1  1  0.20227400  0.50000000  0.70227400  1
  F  F2  1  0.25910400  0.25910400  0.00000000  1
  F  F3  1  0.74089600  0.74089600  0.00000000  1
  F  F4  1  0.50000000  0.00000000  0.50000000  1
loop_
_geom_bond_atom_site_label_1
_geom_bond_atom_site_label_2
_geom_bond_distance
_geom_bond_site_symmetry_2
Al0 F4 1.763652 1_565
Al0 F4 1.763652 1_554
Al0 F2 1.792913 1_555
Al0 F3 1.792913 1_555
Al0 F0 1.851160 1_555
Al0 F1 1.851160 1_554
F0 Ni0 2.166150 1_666
F0 Ni0 2.166150 1_655
F1 Ni0 2.166150 1_566
F1 Ni0 2.166150 1_555
F2 Ni0 1.928430 1_555
F3 Ni0 1.928430 1_665
