# generated using pymatgen
data_Li9Mn2Co5O16
_symmetry_space_group_name_H-M   'P 1'
_cell_length_a   2.90389700
_cell_length_b   9.82014052
_cell_length_c   10.13952905
_cell_angle_alpha   79.74260402
_cell_angle_beta   89.23296344
_cell_angle_gamma   88.92527724
_symmetry_Int_Tables_number   1
_chemical_formula_structural   Li9Mn2Co5O16
_chemical_formula_sum   'Li9 Mn2 Co5 O16'
_cell_volume   284.45957786
_cell_formula_units_Z   1
loop_
 _symmetry_equiv_pos_site_id
 _symmetry_equiv_pos_as_xyz
  1  'x, y, z'
loop_
 _atom_site_type_symbol
 _atom_site_label
 _atom_site_symmetry_multiplicity
 _atom_site_fract_x
 _atom_site_fract_y
 _atom_site_fract_z
 _atom_site_occupancy
  Li  Li0  1  0.00139100  0.25192500  0.87706800  1
  Li  Li1  1  0.50313000  0.75042700  0.87622400  1
  Li  Li2  1  0.49687000  0.24957300  0.12377600  1
  Li  Li3  1  0.99860900  0.74807500  0.12293200  1
  Li  Li4  1  0.00326400  0.24157700  0.38642200  1
  Li  Li5  1  0.50584600  0.75531400  0.38017400  1
  Li  Li6  1  0.49415400  0.24468600  0.61982600  1
  Li  Li7  1  0.99673600  0.75842300  0.61357800  1
  Li  Li8  1  0.50000000  0.00000000  0.50000000  1
  Mn  Mn0  1  0.00062000  0.00226200  0.74499900  1
  Mn  Mn1  1  0.99938000  0.99773800  0.25500100  1
  Co  Co0  1  0.50144600  0.50087100  0.75006200  1
  Co  Co1  1  0.50000000  0.00000000  0.00000000  1
  Co  Co2  1  0.00000000  0.50000000  0.00000000  1
  Co  Co3  1  0.49855400  0.49912900  0.24993800  1
  Co  Co4  1  0.00000000  0.50000000  0.50000000  1
  O  O0  1  0.49609900  0.10611600  0.81879600  1
  O  O1  1  0.01918100  0.61593400  0.81388500  1
  O  O2  1  0.99265100  0.10573100  0.06205300  1
  O  O3  1  0.50726900  0.61756700  0.06157500  1
  O  O4  1  0.49485500  0.11162500  0.30135000  1
  O  O5  1  0.01709000  0.61345300  0.31071100  1
  O  O6  1  0.99914000  0.11650500  0.58265100  1
  O  O7  1  0.51390300  0.61683400  0.56150300  1
  O  O8  1  0.49273100  0.38243300  0.93842500  1
  O  O9  1  0.00734900  0.89426900  0.93794700  1
  O  O10  1  0.98081900  0.38406600  0.18611500  1
  O  O11  1  0.50390100  0.89388400  0.18120400  1
  O  O12  1  0.48609700  0.38316600  0.43849700  1
  O  O13  1  0.00086000  0.88349500  0.41734900  1
  O  O14  1  0.98291000  0.38654700  0.68928900  1
  O  O15  1  0.50514500  0.88837500  0.69865000  1
loop_
_geom_bond_atom_site_label_1
_geom_bond_atom_site_label_2
_geom_bond_distance
_geom_bond_site_symmetry_2
Li0 O8 2.097551 1_455
Li0 O8 2.107521 1_555
Li0 O14 2.116459 1_455
Li0 O2 2.149629 1_456
Li0 O0 2.159750 1_555
Li0 O0 2.226137 1_455
Li1 O15 2.051432 1_555
Li1 O3 2.088345 1_556
Li1 O1 2.123580 1_555
Li1 O1 2.141793 1_655
Li1 O9 2.161973 1_555
Li1 O9 2.224368 1_655
Li2 O4 2.051432 1_555
Li2 O8 2.088345 1_554
Li2 O10 2.123580 1_555
Li2 O10 2.141793 1_455
Li2 O2 2.161973 1_555
Li2 O2 2.224368 1_455
Li3 O3 2.097551 1_655
Li3 O3 2.107521 1_555
Li3 O5 2.116459 1_655
Li3 O9 2.149629 1_654
Li3 O11 2.159750 1_555
Li3 O11 2.226137 1_655
Li4 O12 2.128938 1_555
Li4 O6 2.144074 1_455
Li4 O12 2.151601 1_455
Li4 O4 2.168221 1_555
Li4 O4 2.247016 1_455
Li4 O10 2.252824 1_455
Li5 O13 1.990450 1_555
Li5 O13 2.011027 1_655
Li5 O7 2.083213 1_555
Li5 O5 2.210132 1_655
Li5 O5 2.213948 1_555
Li5 O11 2.223555 1_555
Li6 O6 1.990450 1_555
Li6 O6 2.011027 1_455
Li6 O12 2.083213 1_555
Li6 O14 2.210132 1_455
Li6 O14 2.213948 1_555
Li6 O0 2.223555 1_555
Li7 O7 2.128938 1_555
Li7 O13 2.144074 1_655
Li7 O7 2.151601 1_655
Li7 O15 2.168221 1_555
Li7 O15 2.247016 1_655
Li7 O1 2.252824 1_655
Li8 O13 2.091194 1_645
Li8 O6 2.091194 1_455
Li8 O4 2.114887 1_555
Li8 O15 2.114887 1_545
Li8 O13 2.132692 1_545
Li8 O6 2.132692 1_555
Mn0 O6 1.819530 1_455
Mn0 O15 1.930134 1_545
Mn0 O15 1.951274 1_445
Mn0 O0 1.983141 1_455
Mn0 O0 2.006458 1_555
Mn0 O9 2.052778 1_545
Mn1 O13 1.819530 1_655
Mn1 O4 1.930134 1_565
Mn1 O4 1.951274 1_665
Mn1 O11 1.983141 1_655
Mn1 O11 2.006458 1_555
Mn1 O2 2.052778 1_565
Co0 O14 1.938891 1_555
Co0 O1 1.957954 1_555
Co0 O7 2.043959 1_555
Co0 O8 2.051790 1_555
Co0 O14 2.059640 1_455
Co0 O1 2.075112 1_655
Co1 O11 1.944233 1_545
Co1 O0 1.944233 1_554
Co1 O9 1.948068 1_644
Co1 O2 1.948068 1_455
Co1 O9 1.957818 1_544
Co1 O2 1.957818 1_555
Co2 O3 1.985160 1_455
Co2 O8 1.985160 1_554
Co2 O10 2.023582 1_455
Co2 O1 2.023582 1_554
Co2 O3 2.058582 1_555
Co2 O8 2.058582 1_454
Co3 O5 1.938891 1_555
Co3 O10 1.957954 1_555
Co3 O12 2.043959 1_555
Co3 O3 2.051790 1_555
Co3 O5 2.059640 1_655
Co3 O10 2.075112 1_455
Co4 O12 1.966796 1_555
Co4 O7 1.966796 1_455
Co4 O5 2.040938 1_555
Co4 O14 2.040938 1_455
Co4 O12 2.067905 1_455
Co4 O7 2.067905 1_555
