# generated using pymatgen
data_Yb2S3
_symmetry_space_group_name_H-M   'P 1'
_cell_length_a   7.38503643
_cell_length_b   7.38503643
_cell_length_c   15.31441900
_cell_angle_alpha   90.00000000
_cell_angle_beta   90.00000000
_cell_angle_gamma   119.98848277
_symmetry_Int_Tables_number   1
_chemical_formula_structural   Yb2S3
_chemical_formula_sum   'Yb12 S18'
_cell_volume   723.41386995
_cell_formula_units_Z   6
loop_
 _symmetry_equiv_pos_site_id
 _symmetry_equiv_pos_as_xyz
  1  'x, y, z'
loop_
 _atom_site_type_symbol
 _atom_site_label
 _atom_site_symmetry_multiplicity
 _atom_site_fract_x
 _atom_site_fract_y
 _atom_site_fract_z
 _atom_site_occupancy
  Yb  Yb0  1  0.97877000  0.97877000  0.44907100  1
  Yb  Yb1  1  0.02123000  0.02123000  0.94907100  1
  Yb  Yb2  1  0.10302300  0.10302300  0.21415400  1
  Yb  Yb3  1  0.89697700  0.89697700  0.71415400  1
  Yb  Yb4  1  0.62767100  0.34784500  0.54093000  1
  Yb  Yb5  1  0.34784500  0.62767100  0.54093000  1
  Yb  Yb6  1  0.37232900  0.65215500  0.04093000  1
  Yb  Yb7  1  0.65215500  0.37232900  0.04093000  1
  Yb  Yb8  1  0.65846500  0.33688100  0.29533200  1
  Yb  Yb9  1  0.33688100  0.65846500  0.29533200  1
  Yb  Yb10  1  0.34153500  0.66311900  0.79533200  1
  Yb  Yb11  1  0.66311900  0.34153500  0.79533200  1
  S  S0  1  0.60555100  0.60555100  0.41019100  1
  S  S1  1  0.29763900  0.98980000  0.35763000  1
  S  S2  1  0.98980000  0.29763900  0.35763000  1
  S  S3  1  0.39444900  0.39444900  0.91019100  1
  S  S4  1  0.70236100  0.01020000  0.85763000  1
  S  S5  1  0.01020000  0.70236100  0.85763000  1
  S  S6  1  0.80404800  0.80404800  0.10268400  1
  S  S7  1  0.28961100  0.97946600  0.06909000  1
  S  S8  1  0.97946600  0.28961100  0.06909000  1
  S  S9  1  0.19595200  0.19595200  0.60268400  1
  S  S10  1  0.71038900  0.02053400  0.56909000  1
  S  S11  1  0.02053400  0.71038900  0.56909000  1
  S  S12  1  0.46314200  0.46314200  0.17689500  1
  S  S13  1  0.50941000  0.99692900  0.15702100  1
  S  S14  1  0.99692900  0.50941000  0.15702100  1
  S  S15  1  0.53685800  0.53685800  0.67689500  1
  S  S16  1  0.49059000  0.00307100  0.65702100  1
  S  S17  1  0.00307100  0.49059000  0.65702100  1
loop_
_geom_bond_atom_site_label_1
_geom_bond_atom_site_label_2
_geom_bond_distance
_geom_bond_site_symmetry_2
S0 Yb0 2.820286 1_555
S0 Yb9 2.821109 1_555
S0 Yb8 2.821109 1_555
S0 Yb4 2.822817 1_555
S0 Yb5 2.822817 1_555
S1 Yb0 2.705784 1_455
S1 Yb9 2.773178 1_555
S1 Yb8 2.784442 1_565
S1 Yb2 2.965483 1_565
S2 Yb0 2.705784 1_545
S2 Yb8 2.773178 1_555
S2 Yb9 2.784442 1_655
S2 Yb2 2.965483 1_655
S3 Yb1 2.820286 1_555
S3 Yb11 2.821109 1_555
S3 Yb10 2.821109 1_555
S3 Yb6 2.822817 1_556
S3 Yb7 2.822817 1_556
S4 Yb1 2.705784 1_655
S4 Yb11 2.773178 1_555
S4 Yb10 2.784442 1_545
S4 Yb3 2.965483 1_545
S5 Yb1 2.705784 1_565
S5 Yb10 2.773178 1_555
S5 Yb11 2.784442 1_455
S5 Yb3 2.965483 1_455
S6 Yb2 2.791216 1_665
S6 Yb1 2.847386 1_664
S6 Yb7 2.956781 1_555
S6 Yb6 2.956781 1_555
S7 Yb6 2.806799 1_555
S7 Yb7 2.829626 1_565
S7 Yb1 2.830703 1_564
S7 Yb2 2.987251 1_565
S8 Yb7 2.806799 1_555
S8 Yb6 2.829626 1_655
S8 Yb1 2.830703 1_654
S8 Yb2 2.987251 1_655
S9 Yb3 2.791216 1_445
S9 Yb0 2.847386 1_445
S9 Yb5 2.956781 1_555
S9 Yb4 2.956781 1_555
S10 S16 2.062907 1_555
S10 Yb4 2.806799 1_555
S10 Yb5 2.829626 1_545
S10 Yb0 2.830703 1_545
S10 Yb3 2.987251 1_545
S11 S17 2.062907 1_555
S11 Yb5 2.806799 1_555
S11 Yb4 2.829626 1_455
S11 Yb0 2.830703 1_455
S11 Yb3 2.987251 1_455
S12 Yb2 2.720468 1_555
S12 Yb8 2.754008 1_555
S12 Yb9 2.754008 1_555
S12 Yb7 2.769425 1_555
S12 Yb6 2.769425 1_555
S13 S7 2.062907 1_555
S13 Yb6 2.844630 1_555
S13 Yb7 3.006070 1_565
S13 Yb9 3.028887 1_555
S13 Yb8 3.039503 1_565
S14 S8 2.062907 1_555
S14 Yb7 2.844630 1_555
S14 Yb6 3.006070 1_655
S14 Yb8 3.028887 1_555
S14 Yb9 3.039503 1_655
S15 Yb3 2.720468 1_555
S15 Yb10 2.754008 1_555
S15 Yb11 2.754008 1_555
S15 Yb4 2.769425 1_555
S15 Yb5 2.769425 1_555
S16 Yb4 2.844630 1_555
S16 Yb5 3.006070 1_545
S16 Yb11 3.028887 1_555
S16 Yb10 3.039503 1_545
S17 Yb5 2.844630 1_555
S17 Yb4 3.006070 1_455
S17 Yb10 3.028887 1_555
S17 Yb11 3.039503 1_455
