# generated using pymatgen
data_ReH30Ru2(NCl)10
_symmetry_space_group_name_H-M   'P 1'
_cell_length_a   7.25890263
_cell_length_b   7.25890263
_cell_length_c   13.64080940
_cell_angle_alpha   82.48957791
_cell_angle_beta   82.48957791
_cell_angle_gamma   70.51429121
_symmetry_Int_Tables_number   1
_chemical_formula_structural   ReH30Ru2(NCl)10
_chemical_formula_sum   'Re1 H30 Ru2 N10 Cl10'
_cell_volume   668.85314969
_cell_formula_units_Z   1
loop_
 _symmetry_equiv_pos_site_id
 _symmetry_equiv_pos_as_xyz
  1  'x, y, z'
loop_
 _atom_site_type_symbol
 _atom_site_label
 _atom_site_symmetry_multiplicity
 _atom_site_fract_x
 _atom_site_fract_y
 _atom_site_fract_z
 _atom_site_occupancy
  Re  Re0  1  0.00000000  0.00000000  0.50000000  1
  H  H0  1  0.74855400  0.31941100  0.12794300  1
  H  H1  1  0.31941100  0.74855400  0.12794300  1
  H  H2  1  0.25144600  0.68058900  0.87205700  1
  H  H3  1  0.68058900  0.25144600  0.87205700  1
  H  H4  1  0.77183100  0.48232600  0.03498300  1
  H  H5  1  0.48232600  0.77183100  0.03498300  1
  H  H6  1  0.22816900  0.51767400  0.96501700  1
  H  H7  1  0.51767400  0.22816900  0.96501700  1
  H  H8  1  0.95039600  0.38276200  0.10879800  1
  H  H9  1  0.38276200  0.95039600  0.10879800  1
  H  H10  1  0.04960400  0.61723800  0.89120200  1
  H  H11  1  0.61723800  0.04960400  0.89120200  1
  H  H12  1  0.89156600  0.45293600  0.34676900  1
  H  H13  1  0.45293600  0.89156600  0.34676900  1
  H  H14  1  0.10843400  0.54706400  0.65323100  1
  H  H15  1  0.54706400  0.10843400  0.65323100  1
  H  H16  1  0.03798100  0.47578600  0.24542700  1
  H  H17  1  0.47578600  0.03798100  0.24542700  1
  H  H18  1  0.96201900  0.52421400  0.75457300  1
  H  H19  1  0.52421400  0.96201900  0.75457300  1
  H  H20  1  0.94294900  0.65835600  0.31733200  1
  H  H21  1  0.65835600  0.94294900  0.31733200  1
  H  H22  1  0.05705100  0.34164400  0.68266800  1
  H  H23  1  0.34164400  0.05705100  0.68266800  1
  H  H24  1  0.44802500  0.44802500  0.24002600  1
  H  H25  1  0.55197500  0.55197500  0.75997400  1
  H  H26  1  0.59361900  0.39849000  0.33189300  1
  H  H27  1  0.39849000  0.59361900  0.33189300  1
  H  H28  1  0.40638100  0.60151000  0.66810700  1
  H  H29  1  0.60151000  0.40638100  0.66810700  1
  Ru  Ru0  1  0.67457800  0.67457800  0.19798700  1
  Ru  Ru1  1  0.32542200  0.32542200  0.80201300  1
  N  N0  1  0.80017000  0.43592700  0.10768300  1
  N  N1  1  0.43592700  0.80017000  0.10768300  1
  N  N2  1  0.19983000  0.56407300  0.89231700  1
  N  N3  1  0.56407300  0.19983000  0.89231700  1
  N  N4  1  0.91283500  0.54952600  0.28781400  1
  N  N5  1  0.54952600  0.91283500  0.28781400  1
  N  N6  1  0.08716500  0.45047400  0.71218600  1
  N  N7  1  0.45047400  0.08716500  0.71218600  1
  N  N8  1  0.51036200  0.51036200  0.28585600  1
  N  N9  1  0.48963800  0.48963800  0.71414400  1
  Cl  Cl0  1  0.99647000  0.99647000  0.67553600  1
  Cl  Cl1  1  0.00353000  0.00353000  0.32446400  1
  Cl  Cl2  1  0.28415300  0.71584700  0.50000000  1
  Cl  Cl3  1  0.71584700  0.28415300  0.50000000  1
  Cl  Cl4  1  0.20136800  0.20136800  0.47917100  1
  Cl  Cl5  1  0.79863200  0.79863200  0.52082900  1
  Cl  Cl6  1  0.85427200  0.85427200  0.09946500  1
  Cl  Cl7  1  0.14572800  0.14572800  0.90053500  1
  Cl  Cl8  1  0.32833600  0.32833600  0.12867800  1
  Cl  Cl9  1  0.67166400  0.67166400  0.87132200  1
loop_
_geom_bond_atom_site_label_1
_geom_bond_atom_site_label_2
_geom_bond_distance
_geom_bond_site_symmetry_2
H0 N0 1.027298 1_555
H1 N1 1.027298 1_555
H2 N2 1.027298 1_555
H3 N3 1.027298 1_555
H4 N0 1.029072 1_555
H5 N1 1.029072 1_555
H6 N2 1.029072 1_555
H7 N3 1.029072 1_555
H8 N0 1.029731 1_555
H9 N1 1.029731 1_555
H10 N2 1.029731 1_555
H11 N3 1.029731 1_555
H12 N4 1.026898 1_555
H13 N5 1.026898 1_555
H14 N6 1.026898 1_555
H15 N7 1.026898 1_555
H16 N4 1.032111 1_455
H17 N5 1.032111 1_545
H18 N6 1.032111 1_655
H19 N7 1.032111 1_565
H20 N4 1.027305 1_555
H21 N5 1.027305 1_555
H22 N6 1.027305 1_555
H23 N7 1.027305 1_555
H24 N8 1.041552 1_555
H25 N9 1.041552 1_555
H26 N8 1.028369 1_555
H27 N8 1.028369 1_555
H28 N9 1.028369 1_555
H29 N9 1.028369 1_555
N0 Ru0 2.135455 1_555
N1 Ru0 2.135455 1_555
N2 Ru1 2.135455 1_555
N3 Ru1 2.135455 1_555
N4 Ru0 2.128932 1_555
N5 Ru0 2.128932 1_555
N6 Ru1 2.128932 1_555
N7 Ru1 2.128932 1_555
N8 Ru0 2.116478 1_555
N9 Ru1 2.116478 1_555
Cl0 Re0 2.388112 1_665
Cl1 Re0 2.388112 1_555
Cl2 Re0 2.381304 1_565
Cl3 Re0 2.381304 1_655
Cl4 Re0 2.358433 1_555
Cl5 Re0 2.358433 1_665
Cl6 Ru0 2.329704 1_555
Cl7 Ru1 2.329704 1_555
