# generated using pymatgen
data_Ba2AlTlFe2O7
_symmetry_space_group_name_H-M   'P 1'
_cell_length_a   3.85756600
_cell_length_b   3.85756600
_cell_length_c   12.99053900
_cell_angle_alpha   90.00000000
_cell_angle_beta   90.00000000
_cell_angle_gamma   90.00000000
_symmetry_Int_Tables_number   1
_chemical_formula_structural   Ba2AlTlFe2O7
_chemical_formula_sum   'Ba2 Al1 Tl1 Fe2 O7'
_cell_volume   193.30981338
_cell_formula_units_Z   1
loop_
 _symmetry_equiv_pos_site_id
 _symmetry_equiv_pos_as_xyz
  1  'x, y, z'
loop_
 _atom_site_type_symbol
 _atom_site_label
 _atom_site_symmetry_multiplicity
 _atom_site_fract_x
 _atom_site_fract_y
 _atom_site_fract_z
 _atom_site_occupancy
  Ba  Ba0  1  0.50000000  0.50000000  0.20459500  1
  Ba  Ba1  1  0.50000000  0.50000000  0.79540500  1
  Al  Al0  1  0.50000000  0.50000000  0.50000000  1
  Tl  Tl0  1  0.00000000  0.00000000  0.00000000  1
  Fe  Fe0  1  0.00000000  0.00000000  0.38459400  1
  Fe  Fe1  1  0.00000000  0.00000000  0.61540600  1
  O  O0  1  0.00000000  0.00000000  0.16852900  1
  O  O1  1  0.00000000  0.50000000  0.40273100  1
  O  O2  1  0.50000000  0.00000000  0.40273100  1
  O  O3  1  0.50000000  0.00000000  0.59726900  1
  O  O4  1  0.50000000  0.50000000  0.00000000  1
  O  O5  1  0.00000000  0.50000000  0.59726900  1
  O  O6  1  0.00000000  0.00000000  0.83147100  1
loop_
_geom_bond_atom_site_label_1
_geom_bond_atom_site_label_2
_geom_bond_distance
_geom_bond_site_symmetry_2
Ba0 O4 2.657799 1_555
Ba0 O0 2.767655 1_655
Ba0 O0 2.767655 1_555
Ba0 O0 2.767655 1_565
Ba0 O0 2.767655 1_665
Ba0 O2 3.216385 1_565
Ba0 O1 3.216385 1_555
Ba0 O2 3.216385 1_555
Ba0 O1 3.216385 1_655
Ba1 O4 2.657799 1_556
Ba1 O6 2.767655 1_565
Ba1 O6 2.767655 1_665
Ba1 O6 2.767655 1_555
Ba1 O6 2.767655 1_655
Ba1 O3 3.216385 1_565
Ba1 O5 3.216385 1_555
Ba1 O5 3.216385 1_655
Ba1 O3 3.216385 1_555
Al0 O5 2.305825 1_555
Al0 O3 2.305825 1_565
Al0 O5 2.305825 1_655
Al0 O3 2.305825 1_555
Al0 O2 2.305825 1_565
Al0 O1 2.305825 1_555
Al0 O1 2.305825 1_655
Al0 O2 2.305825 1_555
Fe0 O1 1.943120 1_545
Fe0 O1 1.943120 1_555
Fe0 O2 1.943120 1_555
Fe0 O2 1.943120 1_455
Fe1 O5 1.943120 1_555
Fe1 O5 1.943120 1_545
Fe1 O3 1.943120 1_555
Fe1 O3 1.943120 1_455
O0 Tl0 2.189283 1_555
O4 Tl0 2.727711 1_555
O4 Tl0 2.727711 1_565
O4 Tl0 2.727711 1_655
O4 Tl0 2.727711 1_665
O6 Tl0 2.189283 1_556
