# generated using pymatgen
data_Ce2Sb4Ir3
_symmetry_space_group_name_H-M   'P 1'
_cell_length_a   4.56810600
_cell_length_b   10.96669900
_cell_length_c   16.30634900
_cell_angle_alpha   90.00000000
_cell_angle_beta   90.00000000
_cell_angle_gamma   90.00000000
_symmetry_Int_Tables_number   1
_chemical_formula_structural   Ce2Sb4Ir3
_chemical_formula_sum   'Ce8 Sb16 Ir12'
_cell_volume   816.89987521
_cell_formula_units_Z   4
loop_
 _symmetry_equiv_pos_site_id
 _symmetry_equiv_pos_as_xyz
  1  'x, y, z'
loop_
 _atom_site_type_symbol
 _atom_site_label
 _atom_site_symmetry_multiplicity
 _atom_site_fract_x
 _atom_site_fract_y
 _atom_site_fract_z
 _atom_site_occupancy
  Ce  Ce0  1  0.25000000  0.74509100  0.50515800  1
  Ce  Ce1  1  0.25000000  0.75490900  0.00515800  1
  Ce  Ce2  1  0.75000000  0.25490900  0.49484200  1
  Ce  Ce3  1  0.75000000  0.24509100  0.99484200  1
  Ce  Ce4  1  0.25000000  0.58877800  0.75034300  1
  Ce  Ce5  1  0.25000000  0.91122200  0.25034300  1
  Ce  Ce6  1  0.75000000  0.41122200  0.24965700  1
  Ce  Ce7  1  0.75000000  0.08877900  0.74965700  1
  Sb  Sb0  1  0.25000000  0.27430600  0.65031300  1
  Sb  Sb1  1  0.25000000  0.22569400  0.15031300  1
  Sb  Sb2  1  0.75000000  0.72569400  0.34968700  1
  Sb  Sb3  1  0.75000000  0.77430600  0.84968700  1
  Sb  Sb4  1  0.25000000  0.88800800  0.71169400  1
  Sb  Sb5  1  0.25000000  0.61199200  0.21169400  1
  Sb  Sb6  1  0.75000000  0.11199200  0.28830600  1
  Sb  Sb7  1  0.75000000  0.38800800  0.78830600  1
  Sb  Sb8  1  0.25000000  0.06288500  0.89394100  1
  Sb  Sb9  1  0.25000000  0.43711500  0.39394100  1
  Sb  Sb10  1  0.75000000  0.93711500  0.10605900  1
  Sb  Sb11  1  0.75000000  0.56288500  0.60605900  1
  Sb  Sb12  1  0.25000000  0.44626500  0.93201000  1
  Sb  Sb13  1  0.25000000  0.05373500  0.43201000  1
  Sb  Sb14  1  0.75000000  0.55373500  0.06799000  1
  Sb  Sb15  1  0.75000000  0.94626500  0.56799000  1
  Ir  Ir0  1  0.25000000  0.46769600  0.55624200  1
  Ir  Ir1  1  0.25000000  0.03230400  0.05624200  1
  Ir  Ir2  1  0.75000000  0.53230400  0.44375800  1
  Ir  Ir3  1  0.75000000  0.96769600  0.94375800  1
  Ir  Ir4  1  0.25000000  0.05594200  0.59280500  1
  Ir  Ir5  1  0.25000000  0.44405800  0.09280500  1
  Ir  Ir6  1  0.75000000  0.94405800  0.40719500  1
  Ir  Ir7  1  0.75000000  0.55594200  0.90719500  1
  Ir  Ir8  1  0.25000000  0.27432800  0.81663300  1
  Ir  Ir9  1  0.25000000  0.22567200  0.31663300  1
  Ir  Ir10  1  0.75000000  0.72567200  0.18336700  1
  Ir  Ir11  1  0.75000000  0.77432800  0.68336700  1
loop_
_geom_bond_atom_site_label_1
_geom_bond_atom_site_label_2
_geom_bond_distance
_geom_bond_site_symmetry_2
Ce0 Ir0 3.154092 1_555
Ce0 Sb15 3.336766 1_455
Ce0 Sb15 3.336766 1_555
Ce0 Ir2 3.415388 1_555
Ce0 Ir2 3.415388 1_455
Ce0 Sb2 3.418948 1_555
Ce0 Sb2 3.418948 1_455
Ce0 Sb11 3.452071 1_455
Ce0 Sb11 3.452071 1_555
Ce0 Ir6 3.539748 1_555
Ce0 Ir6 3.539748 1_455
Ce0 Sb13 3.588820 1_565
Ce0 Ir4 3.696480 1_565
Ce0 Ir11 3.710011 1_455
Ce0 Ir11 3.710011 1_555
Ce0 Sb4 3.714689 1_555
Ce0 Sb9 3.833577 1_555
Ce1 Ir1 3.154092 1_565
Ce1 Sb14 3.336766 1_455
Ce1 Sb14 3.336766 1_555
Ce1 Ir3 3.415388 1_454
Ce1 Ir3 3.415388 1_554
Ce1 Sb3 3.418948 1_454
Ce1 Sb3 3.418948 1_554
Ce1 Sb10 3.452071 1_455
Ce1 Sb10 3.452071 1_555
Ce1 Ir7 3.539748 1_554
Ce1 Ir7 3.539748 1_454
Ce1 Sb12 3.588820 1_554
Ce1 Ir5 3.696480 1_555
Ce1 Ir10 3.710011 1_455
Ce1 Ir10 3.710011 1_555
Ce1 Sb5 3.714689 1_555
Ce1 Sb8 3.833577 1_564
Ce2 Ir2 3.154092 1_555
Ce2 Sb13 3.336766 1_555
Ce2 Sb13 3.336766 1_655
Ce2 Ir0 3.415388 1_555
Ce2 Ir0 3.415388 1_655
Ce2 Sb0 3.418948 1_655
Ce2 Sb0 3.418948 1_555
Ce2 Sb9 3.452071 1_555
Ce2 Sb9 3.452071 1_655
Ce2 Ir4 3.539748 1_655
Ce2 Ir4 3.539748 1_555
Ce2 Sb15 3.588820 1_545
Ce2 Ir6 3.696480 1_545
Ce2 Ir9 3.710011 1_655
Ce2 Ir9 3.710011 1_555
Ce2 Sb6 3.714689 1_555
Ce2 Sb11 3.833577 1_555
Ce3 Ir3 3.154092 1_545
Ce3 Sb12 3.336766 1_555
Ce3 Sb12 3.336766 1_655
Ce3 Ir1 3.415388 1_556
Ce3 Ir1 3.415388 1_656
Ce3 Sb1 3.418948 1_556
Ce3 Sb1 3.418948 1_656
Ce3 Sb8 3.452071 1_555
Ce3 Sb8 3.452071 1_655
Ce3 Ir5 3.539748 1_556
Ce3 Ir5 3.539748 1_656
Ce3 Sb14 3.588820 1_556
Ce3 Ir7 3.696480 1_555
Ce3 Ir8 3.710011 1_555
Ce3 Ir8 3.710011 1_655
Ce3 Sb7 3.714689 1_555
Ce3 Sb10 3.833577 1_546
Ce4 Sb7 3.232330 1_455
Ce4 Sb7 3.232330 1_555
Ce4 Ir11 3.248131 1_555
Ce4 Ir11 3.248131 1_455
Ce4 Sb11 3.291344 1_455
Ce4 Sb11 3.291344 1_555
Ce4 Sb4 3.341535 1_555
Ce4 Sb12 3.349331 1_555
Ce4 Ir0 3.432340 1_555
Ce4 Ir7 3.447944 1_555
Ce4 Ir7 3.447944 1_455
Ce4 Sb3 3.461331 1_455
Ce4 Sb3 3.461331 1_555
Ce4 Ir8 3.613925 1_555
Ce4 Sb0 3.815001 1_555
Ce5 Sb6 3.232330 1_565
Ce5 Sb6 3.232330 1_465
Ce5 Ir10 3.248131 1_555
Ce5 Ir10 3.248131 1_455
Ce5 Sb10 3.291344 1_555
Ce5 Sb10 3.291344 1_455
Ce5 Sb5 3.341535 1_555
Ce5 Sb13 3.349331 1_565
Ce5 Ir1 3.432340 1_565
Ce5 Ir6 3.447944 1_455
Ce5 Ir6 3.447944 1_555
Ce5 Sb2 3.461331 1_455
Ce5 Sb2 3.461331 1_555
Ce5 Ir9 3.613925 1_565
Ce5 Sb1 3.815001 1_565
Ce6 Sb5 3.232330 1_555
Ce6 Sb5 3.232330 1_655
Ce6 Ir9 3.248131 1_655
Ce6 Ir9 3.248131 1_555
Ce6 Sb9 3.291344 1_555
Ce6 Sb9 3.291344 1_655
Ce6 Sb6 3.341535 1_555
Ce6 Sb14 3.349331 1_555
Ce6 Ir2 3.432340 1_555
Ce6 Ir5 3.447944 1_555
Ce6 Ir5 3.447944 1_655
Ce6 Sb1 3.461331 1_555
Ce6 Sb1 3.461331 1_655
Ce6 Ir10 3.613925 1_555
Ce6 Sb2 3.815001 1_555
Ce7 Sb4 3.232338 1_545
Ce7 Sb4 3.232338 1_645
Ce7 Ir8 3.248124 1_555
Ce7 Ir8 3.248124 1_655
Ce7 Sb8 3.291344 1_555
Ce7 Sb8 3.291344 1_655
Ce7 Sb7 3.341524 1_555
Ce7 Sb15 3.349336 1_545
Ce7 Ir3 3.432345 1_545
Ce7 Ir4 3.447945 1_555
Ce7 Ir4 3.447945 1_655
Ce7 Sb0 3.461325 1_655
Ce7 Sb0 3.461325 1_555
Ce7 Ir11 3.613935 1_545
Ce7 Sb3 3.815011 1_545
Ir0 Sb0 2.617446 1_555
Ir0 Sb11 2.639418 1_455
Ir0 Sb11 2.639418 1_555
Ir0 Sb9 2.667702 1_555
Ir0 Ir2 3.013839 1_555
Ir0 Ir2 3.013839 1_455
Ir1 Sb1 2.617446 1_555
Ir1 Sb10 2.639418 1_545
Ir1 Sb10 2.639418 1_445
Ir1 Sb8 2.667702 1_554
Ir1 Ir3 3.013839 1_544
Ir1 Ir3 3.013839 1_444
Ir2 Sb2 2.617446 1_555
Ir2 Sb9 2.639418 1_655
Ir2 Sb9 2.639418 1_555
Ir2 Sb11 2.667702 1_555
Ir3 Sb3 2.617446 1_555
Ir3 Sb8 2.639418 1_565
Ir3 Sb8 2.639418 1_665
Ir3 Sb10 2.667702 1_556
Ir4 Sb0 2.571791 1_555
Ir4 Sb15 2.612919 1_545
Ir4 Sb15 2.612919 1_445
Ir4 Sb13 2.622091 1_555
Ir4 Sb4 2.673974 1_545
Ir5 Sb1 2.571791 1_555
Ir5 Sb14 2.612919 1_455
Ir5 Sb14 2.612919 1_555
Ir5 Sb12 2.622091 1_554
Ir5 Sb5 2.673974 1_555
Ir6 Sb2 2.571791 1_555
Ir6 Sb13 2.612919 1_665
Ir6 Sb13 2.612919 1_565
Ir6 Sb15 2.622091 1_555
Ir6 Sb6 2.673974 1_565
Ir7 Sb3 2.571791 1_555
Ir7 Sb12 2.612919 1_655
Ir7 Sb12 2.612919 1_555
Ir7 Sb14 2.622091 1_556
Ir7 Sb7 2.673974 1_555
Ir8 Sb8 2.639341 1_555
Ir8 Sb7 2.642822 1_455
Ir8 Sb7 2.642822 1_555
Ir8 Sb12 2.663644 1_555
Ir8 Sb0 2.712072 1_555
Ir9 Sb9 2.639341 1_555
Ir9 Sb6 2.642822 1_455
Ir9 Sb6 2.642822 1_555
Ir9 Sb13 2.663644 1_555
Ir9 Sb1 2.712072 1_555
Ir10 Sb10 2.639341 1_555
Ir10 Sb5 2.642822 1_655
Ir10 Sb5 2.642822 1_555
Ir10 Sb14 2.663644 1_555
Ir10 Sb2 2.712072 1_555
Ir11 Sb11 2.639341 1_555
Ir11 Sb4 2.642822 1_655
Ir11 Sb4 2.642822 1_555
Ir11 Sb15 2.663644 1_555
Ir11 Sb3 2.712072 1_555
