# generated using pymatgen
data_La(Sb3Os)4
_symmetry_space_group_name_H-M   'P 1'
_cell_length_a   8.11137695
_cell_length_b   8.11136872
_cell_length_c   8.11137401
_cell_angle_alpha   109.47122652
_cell_angle_beta   109.47125879
_cell_angle_gamma   109.47122363
_symmetry_Int_Tables_number   1
_chemical_formula_structural   La(Sb3Os)4
_chemical_formula_sum   'La1 Sb12 Os4'
_cell_volume   410.82892355
_cell_formula_units_Z   1
loop_
 _symmetry_equiv_pos_site_id
 _symmetry_equiv_pos_as_xyz
  1  'x, y, z'
loop_
 _atom_site_type_symbol
 _atom_site_label
 _atom_site_symmetry_multiplicity
 _atom_site_fract_x
 _atom_site_fract_y
 _atom_site_fract_z
 _atom_site_occupancy
  La  La0  1  0.00000000  -0.00000000  -0.00000000  1
  Sb  Sb0  1  0.34038957  0.18302886  0.84263929  1
  Sb  Sb1  1  0.65961043  0.81697114  0.15736071  1
  Sb  Sb2  1  0.65961243  0.50225072  0.84263829  1
  Sb  Sb3  1  0.34038757  0.49774928  0.15736171  1
  Sb  Sb4  1  0.18302786  0.84263829  0.34038857  1
  Sb  Sb5  1  0.81697214  0.15736171  0.65961143  1
  Sb  Sb6  1  0.50224972  0.84263829  0.65961043  1
  Sb  Sb7  1  0.49775028  0.15736171  0.34038957  1
  Sb  Sb8  1  0.84263929  0.34038957  0.18302786  1
  Sb  Sb9  1  0.15736071  0.65961043  0.81697214  1
  Sb  Sb10  1  0.84263829  0.65961043  0.50224972  1
  Sb  Sb11  1  0.15736171  0.34038957  0.49775028  1
  Os  Os0  1  0.00000000  -0.00000000  0.50000000  1
  Os  Os1  1  0.50000000  -0.00000000  -0.00000000  1
  Os  Os2  1  0.00000000  0.50000000  -0.00000000  1
  Os  Os3  1  0.50000000  0.50000000  0.50000000  1
loop_
_geom_bond_atom_site_label_1
_geom_bond_atom_site_label_2
_geom_bond_distance
_geom_bond_site_symmetry_2
La0 Sb2 3.512343 1_444
La0 Sb3 3.512343 1_555
La0 Sb11 3.512354 1_555
La0 Sb10 3.512354 1_444
La0 Sb5 3.512355 1_454
La0 Sb4 3.512355 1_545
La0 Sb7 3.512356 1_555
La0 Sb6 3.512356 1_444
La0 Sb9 3.512356 1_544
La0 Sb8 3.512356 1_455
La0 Sb0 3.512360 1_554
La0 Sb1 3.512360 1_445
Sb0 Sb3 2.947754 1_556
Sb0 Sb2 2.989907 1_555
Sb1 Sb2 2.947754 1_554
Sb1 Sb3 2.989907 1_555
Sb4 Sb7 2.947755 1_565
Sb4 Sb6 2.989897 1_555
Sb5 Sb6 2.947755 1_545
Sb5 Sb7 2.989897 1_555
Sb10 Sb9 2.947755 1_655
Sb10 Sb8 2.989897 1_555
Sb11 Sb8 2.947755 1_455
Sb11 Sb9 2.989897 1_555
Os0 Sb1 2.636754 1_445
Os0 Sb0 2.636754 1_555
Os0 Sb10 2.636754 1_445
Os0 Sb11 2.636754 1_555
Os0 Sb5 2.636757 1_455
Os0 Sb4 2.636757 1_545
Os1 Sb0 2.636754 1_554
Os1 Sb1 2.636754 1_545
Os1 Sb8 2.636754 1_555
Os1 Sb9 2.636754 1_544
Os1 Sb6 2.636756 1_544
Os1 Sb7 2.636756 1_555
Os2 Sb5 2.636745 1_454
Os2 Sb4 2.636745 1_555
Os2 Sb3 2.636746 1_555
Os2 Sb2 2.636746 1_454
Os2 Sb9 2.636748 1_554
Os2 Sb8 2.636748 1_455
Os3 Sb2 2.636745 1_555
Os3 Sb3 2.636745 1_555
Os3 Sb6 2.636746 1_555
Os3 Sb7 2.636746 1_555
Os3 Sb11 2.636748 1_555
Os3 Sb10 2.636748 1_555
