# generated using pymatgen
data_MgFe8(O7F)2
_symmetry_space_group_name_H-M   'P 1'
_cell_length_a   7.55558635
_cell_length_b   7.40466630
_cell_length_c   5.63073388
_cell_angle_alpha   109.31112457
_cell_angle_beta   110.32624369
_cell_angle_gamma   82.62855082
_symmetry_Int_Tables_number   1
_chemical_formula_structural   MgFe8(O7F)2
_chemical_formula_sum   'Mg1 Fe8 O14 F2'
_cell_volume   278.75156286
_cell_formula_units_Z   1
loop_
 _symmetry_equiv_pos_site_id
 _symmetry_equiv_pos_as_xyz
  1  'x, y, z'
loop_
 _atom_site_type_symbol
 _atom_site_label
 _atom_site_symmetry_multiplicity
 _atom_site_fract_x
 _atom_site_fract_y
 _atom_site_fract_z
 _atom_site_occupancy
  Mg  Mg0  1  0.37088200  0.87008800  0.24181800  1
  Fe  Fe0  1  0.74549800  0.23809300  0.50161200  1
  Fe  Fe1  1  0.53065600  0.99629300  0.95304200  1
  Fe  Fe2  1  0.23390700  0.27494000  0.53251200  1
  Fe  Fe3  1  0.76121500  0.74812800  0.47844800  1
  Fe  Fe4  1  0.52388700  0.47561800  0.00293000  1
  Fe  Fe5  1  0.96842700  0.02921200  0.00443100  1
  Fe  Fe6  1  0.21458100  0.76016000  0.54176400  1
  Fe  Fe7  1  0.02427100  0.50022500  0.02277400  1
  O  O0  1  0.97730600  0.17354900  0.36319000  1
  O  O1  1  0.91574000  0.24299000  0.85622000  1
  O  O2  1  0.59578100  0.25509700  0.14195300  1
  O  O3  1  0.33531100  0.00645600  0.61822300  1
  O  O4  1  0.51749900  0.33145700  0.65812100  1
  O  O5  1  0.77957500  0.58117600  0.14821200  1
  O  O6  1  0.72939200  0.90004100  0.81257200  1
  O  O7  1  0.25265800  0.42768400  0.88986300  1
  O  O8  1  0.51638900  0.64603400  0.34046100  1
  O  O9  1  0.63749200  0.97421200  0.31922200  1
  O  O10  1  0.16841200  0.49466700  0.38597300  1
  O  O11  1  0.40374900  0.75798600  0.87092200  1
  O  O12  1  0.10914500  0.77430800  0.18025000  1
  O  O13  1  0.00466600  0.84754800  0.66315200  1
  F  F0  1  0.84723200  0.51873300  0.65588700  1
  F  F1  1  0.25299300  0.10123100  0.14978000  1
loop_
_geom_bond_atom_site_label_1
_geom_bond_atom_site_label_2
_geom_bond_distance
_geom_bond_site_symmetry_2
Mg0 O8 1.996699 1_555
Mg0 O12 2.062759 1_555
Mg0 O11 2.067129 1_554
Mg0 O9 2.099649 1_555
Mg0 O3 2.120020 1_565
Fe0 O1 1.955107 1_555
Fe0 O2 1.984252 1_555
Fe0 O9 2.009546 1_545
Fe0 O0 2.095396 1_555
Fe0 O4 2.137352 1_555
Fe1 O6 1.888363 1_555
Fe1 O2 1.891069 1_566
Fe1 O11 1.957922 1_555
Fe1 O3 1.967371 1_565
Fe1 O9 1.990583 1_556
Fe2 O7 1.919869 1_555
Fe2 O0 1.961476 1_455
Fe2 O10 1.992610 1_555
Fe2 O4 2.061076 1_555
Fe2 O3 2.181526 1_555
Fe3 O13 1.875923 1_655
Fe3 O8 1.889129 1_555
Fe3 O5 1.902619 1_555
Fe3 O6 1.925572 1_555
Fe3 O9 2.118744 1_555
Fe4 O4 1.867809 1_554
Fe4 O8 1.917780 1_555
Fe4 O7 1.965120 1_554
Fe4 O5 1.969495 1_555
Fe4 O2 1.973969 1_555
Fe4 O11 2.412511 1_554
Fe5 O0 1.929709 1_555
Fe5 O6 1.935998 1_544
Fe5 O1 1.960075 1_554
Fe5 O13 2.034341 1_644
Fe5 O12 2.379652 1_645
Fe6 O10 1.891746 1_555
Fe6 O13 1.897008 1_555
Fe6 O11 1.910931 1_555
Fe6 O12 1.944804 1_555
Fe6 O3 1.994545 1_565
Fe7 O1 1.965970 1_454
Fe7 O10 1.966455 1_555
Fe7 O12 2.016189 1_555
Fe7 O7 2.054205 1_554
Fe7 O5 2.149216 1_455
F0 Fe7 2.072724 1_656
F0 Fe0 2.101377 1_555
F0 Fe3 2.166538 1_555
F1 Mg0 1.966235 1_545
F1 Fe5 2.088069 1_455
F1 Fe2 2.157426 1_555
