# generated using pymatgen
data_CuH2CN2Cl
_symmetry_space_group_name_H-M   'P 1'
_cell_length_a   3.95441700
_cell_length_b   17.85905200
_cell_length_c   16.06580300
_cell_angle_alpha   90.00000000
_cell_angle_beta   90.00000000
_cell_angle_gamma   90.00000000
_symmetry_Int_Tables_number   1
_chemical_formula_structural   CuH2CN2Cl
_chemical_formula_sum   'Cu12 H24 C12 N24 Cl12'
_cell_volume   1134.60136992
_cell_formula_units_Z   12
loop_
 _symmetry_equiv_pos_site_id
 _symmetry_equiv_pos_as_xyz
  1  'x, y, z'
loop_
 _atom_site_type_symbol
 _atom_site_label
 _atom_site_symmetry_multiplicity
 _atom_site_fract_x
 _atom_site_fract_y
 _atom_site_fract_z
 _atom_site_occupancy
  Cu  Cu0  1  0.64601200  0.70224900  0.81946700  1
  Cu  Cu1  1  0.35398800  0.29775100  0.31946700  1
  Cu  Cu2  1  0.85398800  0.20224900  0.81946700  1
  Cu  Cu3  1  0.14601200  0.79775100  0.31946700  1
  Cu  Cu4  1  0.82065700  0.99568000  0.31315900  1
  Cu  Cu5  1  0.17934300  0.00432000  0.81315900  1
  Cu  Cu6  1  0.67934300  0.49568000  0.31315900  1
  Cu  Cu7  1  0.32065700  0.50432000  0.81315900  1
  Cu  Cu8  1  0.58383600  0.88664000  0.11834900  1
  Cu  Cu9  1  0.41616400  0.11336000  0.61834900  1
  Cu  Cu10  1  0.91616400  0.38664000  0.11834900  1
  Cu  Cu11  1  0.08383600  0.61336000  0.61834900  1
  H  H0  1  0.40391200  0.39140800  0.72901600  1
  H  H1  1  0.59608800  0.60859200  0.22901600  1
  H  H2  1  0.09608800  0.89140800  0.72901600  1
  H  H3  1  0.90391200  0.10859200  0.22901600  1
  H  H4  1  0.96773600  0.96259600  0.46168500  1
  H  H5  1  0.03226400  0.03740400  0.96168500  1
  H  H6  1  0.53226400  0.46259600  0.46168500  1
  H  H7  1  0.46773600  0.53740400  0.96168500  1
  H  H8  1  0.34972600  0.49915100  0.55514100  1
  H  H9  1  0.65027400  0.50084900  0.05514100  1
  H  H10  1  0.15027400  0.99915100  0.55514100  1
  H  H11  1  0.84972600  0.00084900  0.05514100  1
  H  H12  1  0.93591700  0.79764700  0.72996700  1
  H  H13  1  0.06408300  0.20235300  0.22996700  1
  H  H14  1  0.56408300  0.29764700  0.72996700  1
  H  H15  1  0.43591700  0.70235300  0.22996700  1
  H  H16  1  0.94671100  0.79333300  0.46671000  1
  H  H17  1  0.05328900  0.20666700  0.96671000  1
  H  H18  1  0.55328900  0.29333300  0.46671000  1
  H  H19  1  0.44671100  0.70666700  0.96671000  1
  H  H20  1  0.92693500  0.73600400  0.55828100  1
  H  H21  1  0.07306500  0.26399600  0.05828100  1
  H  H22  1  0.57306500  0.23600400  0.55828100  1
  H  H23  1  0.42693500  0.76399600  0.05828100  1
  C  C0  1  0.65405600  0.81004100  0.95775700  1
  C  C1  1  0.34594400  0.18995900  0.45775700  1
  C  C2  1  0.84594400  0.31004100  0.95775700  1
  C  C3  1  0.15405600  0.68995900  0.45775700  1
  C  C4  1  0.89114900  0.85661300  0.83771100  1
  C  C5  1  0.10885100  0.14338700  0.33771100  1
  C  C6  1  0.60885100  0.35661300  0.83771100  1
  C  C7  1  0.39114900  0.64338700  0.33771100  1
  C  C8  1  0.85864400  0.93063200  0.95557600  1
  C  C9  1  0.14135600  0.06936800  0.45557600  1
  C  C10  1  0.64135600  0.43063200  0.95557600  1
  C  C11  1  0.35864400  0.56936800  0.45557600  1
  N  N0  1  0.74064500  0.79817800  0.87703600  1
  N  N1  1  0.25935500  0.20182200  0.37703600  1
  N  N2  1  0.75935500  0.29817800  0.87703600  1
  N  N3  1  0.24064500  0.70182200  0.37703600  1
  N  N4  1  0.98535000  0.84753500  0.75894200  1
  N  N5  1  0.01465000  0.15246500  0.25894200  1
  N  N6  1  0.51465000  0.34753500  0.75894200  1
  N  N7  1  0.48535000  0.65246500  0.25894200  1
  N  N8  1  0.70741300  0.87503600  0.99949200  1
  N  N9  1  0.29258700  0.12496400  0.49949200  1
  N  N10  1  0.79258700  0.37503600  0.99949200  1
  N  N11  1  0.20741300  0.62496400  0.49949200  1
  N  N12  1  0.50866900  0.75408500  0.99894900  1
  N  N13  1  0.49133100  0.24591500  0.49894900  1
  N  N14  1  0.99133100  0.25408500  0.99894900  1
  N  N15  1  0.00866900  0.74591500  0.49894900  1
  N  N16  1  0.95438100  0.92395500  0.87445300  1
  N  N17  1  0.04561900  0.07604500  0.37445300  1
  N  N18  1  0.54561900  0.42395500  0.87445300  1
  N  N19  1  0.45438100  0.57604500  0.37445300  1
  N  N20  1  0.91871200  0.99523400  0.99405300  1
  N  N21  1  0.08128800  0.00476600  0.49405300  1
  N  N22  1  0.58128800  0.49523400  0.99405300  1
  N  N23  1  0.41871200  0.50476600  0.49405300  1
  Cl  Cl0  1  0.64520100  0.68652600  0.67745000  1
  Cl  Cl1  1  0.35479900  0.31347400  0.17745000  1
  Cl  Cl2  1  0.85479900  0.18652600  0.67745000  1
  Cl  Cl3  1  0.14520100  0.81347400  0.17745000  1
  Cl  Cl4  1  0.44020900  0.00289100  0.68915600  1
  Cl  Cl5  1  0.55979100  0.99710900  0.18915600  1
  Cl  Cl6  1  0.05979100  0.50289100  0.68915600  1
  Cl  Cl7  1  0.94020900  0.49710900  0.18915600  1
  Cl  Cl8  1  0.71548900  0.87711100  0.36832000  1
  Cl  Cl9  1  0.28451100  0.12288900  0.86832000  1
  Cl  Cl10  1  0.78451100  0.37711100  0.36832000  1
  Cl  Cl11  1  0.21548900  0.62288900  0.86832000  1
loop_
_geom_bond_atom_site_label_1
_geom_bond_atom_site_label_2
_geom_bond_distance
_geom_bond_site_symmetry_2
Cu0 N0 1.982555 1_555
Cu1 N1 1.982555 1_555
Cu2 N2 1.982555 1_555
Cu3 N3 1.982555 1_555
Cu4 N17 1.954739 1_665
Cu5 N16 1.954739 1_445
Cu6 N19 1.954739 1_555
Cu7 N18 1.954739 1_555
Cu8 N8 1.981935 1_554
Cu9 N9 1.981935 1_555
Cu10 N10 1.981935 1_554
Cu11 N11 1.981935 1_555
H0 N6 1.018251 1_555
H1 N7 1.018251 1_555
H2 N4 1.018251 1_455
H3 N5 1.018251 1_655
H4 N21 1.019427 1_665
H5 N20 1.019427 1_445
H6 N23 1.019427 1_555
H7 N22 1.019427 1_555
H8 N23 1.023560 1_555
H9 N22 1.023560 1_554
H10 N21 1.023560 1_565
H11 N20 1.023560 1_544
H12 N4 1.024063 1_555
H13 N5 1.024063 1_555
H14 N6 1.024063 1_555
H15 N7 1.024063 1_555
H16 N15 1.022465 1_655
H17 N14 1.022465 1_455
H18 N13 1.022465 1_555
H19 N12 1.022465 1_555
H20 N15 1.021966 1_655
H21 N14 1.021966 1_454
H22 N13 1.021966 1_555
H23 N12 1.021966 1_554
C0 N12 1.329335 1_555
C0 N8 1.356995 1_555
C0 N0 1.357919 1_555
C1 N13 1.329335 1_555
C1 N9 1.356995 1_555
C1 N1 1.357919 1_555
C2 N14 1.329335 1_555
C2 N10 1.356995 1_555
C2 N2 1.357919 1_555
C3 N15 1.329335 1_555
C3 N11 1.356995 1_555
C3 N3 1.357919 1_555
C4 N4 1.329100 1_555
C4 N0 1.357370 1_555
C4 N16 1.362852 1_555
C5 N5 1.329100 1_555
C5 N1 1.357370 1_555
C5 N17 1.362852 1_555
C6 N6 1.329100 1_555
C6 N2 1.357370 1_555
C6 N18 1.362852 1_555
C7 N7 1.329100 1_555
C7 N3 1.357370 1_555
C7 N19 1.362852 1_555
C8 N20 1.330279 1_555
C8 N8 1.356934 1_555
C8 N16 1.362407 1_555
C9 N21 1.330279 1_555
C9 N9 1.356934 1_555
C9 N17 1.362407 1_555
C10 N22 1.330279 1_555
C10 N10 1.356934 1_555
C10 N18 1.362407 1_555
C11 N23 1.330279 1_555
C11 N11 1.356934 1_555
C11 N19 1.362407 1_555
Cl0 Cu0 2.298833 1_555
Cl0 Cu11 2.370150 1_655
Cl0 Cu11 2.745321 1_555
Cl1 Cu1 2.298833 1_555
Cl1 Cu10 2.370150 1_455
Cl1 Cu10 2.745321 1_555
Cl2 Cu2 2.298833 1_555
Cl2 Cu9 2.370150 1_555
Cl2 Cu9 2.745321 1_655
Cl3 Cu3 2.298833 1_555
Cl3 Cu8 2.370150 1_555
Cl3 Cu8 2.745321 1_455
Cl4 Cu5 2.243588 1_555
Cl4 Cu9 2.279327 1_555
Cl5 Cu4 2.243588 1_555
Cl5 Cu8 2.279327 1_555
Cl6 Cu7 2.243588 1_555
Cl6 Cu11 2.279327 1_555
Cl7 Cu6 2.243588 1_555
Cl7 Cu10 2.279327 1_555
Cl8 Cu4 2.332863 1_555
Cl8 Cu3 2.350134 1_655
Cl8 Cu3 2.774168 1_555
Cl9 Cu5 2.332863 1_555
Cl9 Cu2 2.350134 1_455
Cl9 Cu2 2.774168 1_555
Cl10 Cu6 2.332863 1_555
Cl10 Cu1 2.350134 1_555
Cl10 Cu1 2.774168 1_655
Cl11 Cu7 2.332863 1_555
Cl11 Cu0 2.350134 1_555
Cl11 Cu0 2.774168 1_455
