# generated using pymatgen
data_Nd3SiAgSe7
_symmetry_space_group_name_H-M   'P 1'
_cell_length_a   10.76643370
_cell_length_b   10.76643370
_cell_length_c   6.07552800
_cell_angle_alpha   90.00000000
_cell_angle_beta   90.00000000
_cell_angle_gamma   119.99999813
_symmetry_Int_Tables_number   1
_chemical_formula_structural   Nd3SiAgSe7
_chemical_formula_sum   'Nd6 Si2 Ag2 Se14'
_cell_volume   609.89968198
_cell_formula_units_Z   2
loop_
 _symmetry_equiv_pos_site_id
 _symmetry_equiv_pos_as_xyz
  1  'x, y, z'
loop_
 _atom_site_type_symbol
 _atom_site_label
 _atom_site_symmetry_multiplicity
 _atom_site_fract_x
 _atom_site_fract_y
 _atom_site_fract_z
 _atom_site_occupancy
  Nd  Nd0  1  0.35736500  0.12640400  0.46650100  1
  Nd  Nd1  1  0.23096100  0.35736500  0.96650100  1
  Nd  Nd2  1  0.12640400  0.76903900  0.96650100  1
  Nd  Nd3  1  0.87359600  0.23096100  0.46650100  1
  Nd  Nd4  1  0.76903900  0.64263500  0.46650100  1
  Nd  Nd5  1  0.64263500  0.87359600  0.96650100  1
  Si  Si0  1  0.33333300  0.66666700  0.37651000  1
  Si  Si1  1  0.66666700  0.33333300  0.87651000  1
  Ag  Ag0  1  0.00000000  0.00000000  0.51667100  1
  Ag  Ag1  1  0.00000000  0.00000000  0.01667100  1
  Se  Se0  1  0.89128500  0.47795900  0.72515200  1
  Se  Se1  1  0.10871500  0.52204100  0.22515200  1
  Se  Se2  1  0.47795900  0.58667400  0.22515200  1
  Se  Se3  1  0.58667400  0.10871500  0.72515200  1
  Se  Se4  1  0.09581300  0.82472500  0.48350300  1
  Se  Se5  1  0.27108800  0.09581300  0.98350300  1
  Se  Se6  1  0.41332600  0.89128500  0.22515200  1
  Se  Se7  1  0.52204100  0.41332600  0.72515200  1
  Se  Se8  1  0.33333300  0.66666700  0.75070900  1
  Se  Se9  1  0.66666700  0.33333300  0.25070900  1
  Se  Se10  1  0.90418700  0.17527500  0.98350300  1
  Se  Se11  1  0.72891200  0.90418700  0.48350300  1
  Se  Se12  1  0.17527500  0.27108800  0.48350300  1
  Se  Se13  1  0.82472500  0.72891200  0.98350300  1
loop_
_geom_bond_atom_site_label_1
_geom_bond_atom_site_label_2
_geom_bond_distance
_geom_bond_site_symmetry_2
Nd0 Se3 3.011819 1_555
Nd0 Se5 3.045733 1_554
Nd0 Se12 3.055236 1_555
Nd0 Se4 3.056738 1_545
Nd0 Se7 3.111049 1_555
Nd0 Se9 3.217565 1_555
Nd0 Se6 3.232062 1_545
Nd0 Se5 3.245249 1_555
Nd1 Se2 3.011819 1_556
Nd1 Se12 3.045733 1_555
Nd1 Se10 3.055236 1_455
Nd1 Se5 3.056738 1_555
Nd1 Se1 3.111049 1_556
Nd1 Se8 3.217567 1_555
Nd1 Se7 3.232062 1_555
Nd1 Se12 3.245249 1_556
Nd2 Se1 3.011819 1_556
Nd2 Se4 3.045733 1_555
Nd2 Se5 3.055236 1_565
Nd2 Se13 3.056738 1_455
Nd2 Se6 3.111049 1_556
Nd2 Se8 3.217557 1_555
Nd2 Se0 3.232062 1_455
Nd2 Se4 3.245249 1_556
Nd3 Se0 3.011819 1_555
Nd3 Se10 3.045733 1_554
Nd3 Se11 3.055236 1_545
Nd3 Se12 3.056738 1_655
Nd3 Se3 3.111049 1_555
Nd3 Se9 3.217557 1_555
Nd3 Se1 3.232062 1_655
Nd3 Se10 3.245249 1_555
Nd4 Se7 3.011819 1_555
Nd4 Se13 3.045733 1_554
Nd4 Se4 3.055236 1_655
Nd4 Se11 3.056738 1_555
Nd4 Se0 3.111049 1_555
Nd4 Se9 3.217567 1_555
Nd4 Se2 3.232062 1_555
Nd4 Se13 3.245249 1_555
Nd5 Se6 3.011819 1_556
Nd5 Se11 3.045733 1_555
Nd5 Se13 3.055236 1_555
Nd5 Se10 3.056738 1_565
Nd5 Se2 3.111049 1_556
Nd5 Se8 3.217565 1_555
Nd5 Se3 3.232062 1_565
Nd5 Se11 3.245249 1_556
Ag0 Se4 2.571474 1_545
Ag0 Se11 2.571474 1_445
Ag0 Se12 2.571474 1_555
Ag1 Se10 2.571474 1_454
Ag1 Se5 2.571474 1_554
Ag1 Se13 2.571474 1_444
Se0 Si1 2.313643 1_555
Se1 Si0 2.313643 1_555
Se2 Si0 2.313651 1_555
Se3 Si1 2.313642 1_555
Se6 Si0 2.313642 1_555
Se7 Si1 2.313651 1_555
Se8 Si0 2.273457 1_555
Se9 Si1 2.273457 1_554
