# generated using pymatgen
data_Ba4Bi(PbO4)3
_symmetry_space_group_name_H-M   'P 1'
_cell_length_a   6.17422237
_cell_length_b   6.17422237
_cell_length_c   10.70465426
_cell_angle_alpha   73.62859579
_cell_angle_beta   73.62859579
_cell_angle_gamma   59.88235400
_symmetry_Int_Tables_number   1
_chemical_formula_structural   Ba4Bi(PbO4)3
_chemical_formula_sum   'Ba4 Bi1 Pb3 O12'
_cell_volume   333.78610608
_cell_formula_units_Z   1
loop_
 _symmetry_equiv_pos_site_id
 _symmetry_equiv_pos_as_xyz
  1  'x, y, z'
loop_
 _atom_site_type_symbol
 _atom_site_label
 _atom_site_symmetry_multiplicity
 _atom_site_fract_x
 _atom_site_fract_y
 _atom_site_fract_z
 _atom_site_occupancy
  Ba  Ba0  1  0.37745700  0.37745700  0.37113800  1
  Ba  Ba1  1  0.87714600  0.87714600  0.87418200  1
  Ba  Ba2  1  0.62254300  0.62254300  0.62886200  1
  Ba  Ba3  1  0.12285400  0.12285400  0.12581800  1
  Bi  Bi0  1  0.00000000  0.00000000  0.50000000  1
  Pb  Pb0  1  0.50000000  0.50000000  0.00000000  1
  Pb  Pb1  1  0.24901100  0.24901100  0.75166500  1
  Pb  Pb2  1  0.75098900  0.75098900  0.24833500  1
  O  O0  1  0.35774100  0.85936900  0.36110700  1
  O  O1  1  0.85608800  0.35742200  0.85661200  1
  O  O2  1  0.14063100  0.64225900  0.63889300  1
  O  O3  1  0.64257800  0.14391200  0.14338800  1
  O  O4  1  0.85936900  0.35774100  0.36110700  1
  O  O5  1  0.35742200  0.85608800  0.85661200  1
  O  O6  1  0.64225900  0.14063100  0.63889300  1
  O  O7  1  0.14391200  0.64257800  0.14338800  1
  O  O8  1  0.15428300  0.15428300  0.59370400  1
  O  O9  1  0.65606900  0.65606900  0.09379700  1
  O  O10  1  0.84571700  0.84571700  0.40629600  1
  O  O11  1  0.34393100  0.34393100  0.90620300  1
loop_
_geom_bond_atom_site_label_1
_geom_bond_atom_site_label_2
_geom_bond_distance
_geom_bond_site_symmetry_2
Ba0 O8 2.770876 1_555
Ba0 O3 2.840038 1_555
Ba0 O7 2.840038 1_555
Ba0 O4 2.888479 1_555
Ba0 O0 2.888479 1_555
Ba0 O10 3.109698 1_545
Ba0 O10 3.109698 1_455
Ba0 O0 3.293992 1_545
Ba0 O4 3.293992 1_455
Ba0 O6 3.302472 1_555
Ba0 O2 3.302472 1_555
Ba0 O9 3.456008 1_555
Ba1 O9 2.739517 1_556
Ba1 O1 2.856210 1_565
Ba1 O5 2.856210 1_655
Ba1 O6 2.911212 1_565
Ba1 O2 2.911212 1_655
Ba1 O11 3.108205 1_565
Ba1 O11 3.108205 1_655
Ba1 O3 3.323241 1_566
Ba1 O7 3.323241 1_656
Ba1 O5 3.334961 1_555
Ba1 O1 3.334961 1_555
Ba1 O8 3.466461 1_665
Ba2 O10 2.770876 1_555
Ba2 O1 2.840038 1_555
Ba2 O5 2.840038 1_555
Ba2 O2 2.888479 1_555
Ba2 O6 2.888479 1_555
Ba2 O8 3.109698 1_655
Ba2 O8 3.109698 1_565
Ba2 O2 3.293992 1_655
Ba2 O6 3.293992 1_565
Ba2 O0 3.302472 1_555
Ba2 O4 3.302472 1_555
Ba2 O11 3.456008 1_555
Ba3 O11 2.739517 1_554
Ba3 O3 2.856210 1_455
Ba3 O7 2.856210 1_545
Ba3 O4 2.911212 1_455
Ba3 O0 2.911212 1_545
Ba3 O9 3.108205 1_455
Ba3 O9 3.108205 1_545
Ba3 O1 3.323241 1_454
Ba3 O5 3.323241 1_544
Ba3 O3 3.334961 1_555
Ba3 O7 3.334961 1_555
Ba3 O10 3.466461 1_445
Bi0 O4 2.189746 1_455
Bi0 O0 2.189746 1_545
Bi0 O2 2.189746 1_545
Bi0 O6 2.189746 1_455
Bi0 O10 2.192912 1_445
Bi0 O8 2.192912 1_555
O0 Pb2 2.229985 1_555
O1 Pb1 2.203056 1_655
O1 Pb0 2.209449 1_556
O2 Pb1 2.229985 1_555
O3 Pb2 2.203056 1_545
O3 Pb0 2.209449 1_555
O4 Pb2 2.229985 1_555
O5 Pb1 2.203056 1_565
O5 Pb0 2.209449 1_556
O6 Pb1 2.229985 1_555
O7 Pb2 2.203056 1_455
O7 Pb0 2.209449 1_555
O8 Pb1 2.236439 1_555
O9 Pb2 2.204836 1_555
O9 Pb0 2.210855 1_555
O10 Pb2 2.236439 1_555
O11 Pb1 2.204836 1_555
O11 Pb0 2.210855 1_556
