# generated using pymatgen
data_BaMoI4O15
_symmetry_space_group_name_H-M   'P 1'
_cell_length_a   5.90795000
_cell_length_b   13.53099700
_cell_length_c   19.96726000
_cell_angle_alpha   63.24448762
_cell_angle_beta   90.00000000
_cell_angle_gamma   90.00000000
_symmetry_Int_Tables_number   1
_chemical_formula_structural   BaMoI4O15
_chemical_formula_sum   'Ba4 Mo4 I16 O60'
_cell_volume   1425.29656102
_cell_formula_units_Z   4
loop_
 _symmetry_equiv_pos_site_id
 _symmetry_equiv_pos_as_xyz
  1  'x, y, z'
loop_
 _atom_site_type_symbol
 _atom_site_label
 _atom_site_symmetry_multiplicity
 _atom_site_fract_x
 _atom_site_fract_y
 _atom_site_fract_z
 _atom_site_occupancy
  Ba  Ba0  1  0.51461400  0.75762200  0.52232400  1
  Ba  Ba1  1  0.98538600  0.75762200  0.02232400  1
  Ba  Ba2  1  0.48538600  0.24237800  0.47767600  1
  Ba  Ba3  1  0.01461400  0.24237800  0.97767600  1
  Mo  Mo0  1  0.90982400  0.74316500  0.24897900  1
  Mo  Mo1  1  0.59017600  0.74316500  0.74897900  1
  Mo  Mo2  1  0.09017600  0.25683500  0.75102100  1
  Mo  Mo3  1  0.40982400  0.25683500  0.25102100  1
  I  I0  1  0.40724500  0.43284800  0.59187300  1
  I  I1  1  0.09275500  0.43284800  0.09187300  1
  I  I2  1  0.59275500  0.56715200  0.40812700  1
  I  I3  1  0.90724500  0.56715200  0.90812700  1
  I  I4  1  0.88769300  0.93778800  0.59128600  1
  I  I5  1  0.61230700  0.93778800  0.09128600  1
  I  I6  1  0.11230700  0.06221200  0.40871400  1
  I  I7  1  0.38769300  0.06221200  0.90871400  1
  I  I8  1  0.01887900  0.60609000  0.68004500  1
  I  I9  1  0.48112100  0.60609000  0.18004500  1
  I  I10  1  0.98112100  0.39391000  0.31995500  1
  I  I11  1  0.51887900  0.39391000  0.81995500  1
  I  I12  1  0.49679800  0.89818800  0.30950500  1
  I  I13  1  0.00320200  0.89818800  0.80950500  1
  I  I14  1  0.50320200  0.10181200  0.69049500  1
  I  I15  1  0.99679800  0.10181200  0.19049500  1
  O  O0  1  0.32459100  0.43423300  0.50256100  1
  O  O1  1  0.17540900  0.43423300  0.00256100  1
  O  O2  1  0.67540900  0.56576700  0.49743900  1
  O  O3  1  0.82459100  0.56576700  0.99743900  1
  O  O4  1  0.15848900  0.33568300  0.64282100  1
  O  O5  1  0.34151100  0.33568300  0.14282100  1
  O  O6  1  0.84151100  0.66431700  0.35717900  1
  O  O7  1  0.65848900  0.66431700  0.85717900  1
  O  O8  1  0.26979900  0.55753400  0.58534800  1
  O  O9  1  0.23020100  0.55753400  0.08534800  1
  O  O10  1  0.73020100  0.44246600  0.41465200  1
  O  O11  1  0.76979900  0.44246600  0.91465200  1
  O  O12  1  0.65522200  0.82621600  0.63720600  1
  O  O13  1  0.84477800  0.82621600  0.13720600  1
  O  O14  1  0.34477800  0.17378400  0.36279400  1
  O  O15  1  0.15522200  0.17378400  0.86279400  1
  O  O16  1  0.80958900  0.94393300  0.49996700  1
  O  O17  1  0.69041100  0.94393300  0.99996700  1
  O  O18  1  0.19041100  0.05606700  0.50003300  1
  O  O19  1  0.30958900  0.05606700  0.00003300  1
  O  O20  1  0.72549500  0.05478200  0.58592100  1
  O  O21  1  0.77450500  0.05478200  0.08592100  1
  O  O22  1  0.27450500  0.94521800  0.41407900  1
  O  O23  1  0.22549500  0.94521800  0.91407900  1
  O  O24  1  0.90136900  0.64318300  0.75264900  1
  O  O25  1  0.59863100  0.64318300  0.25264900  1
  O  O26  1  0.09863100  0.35681700  0.24735100  1
  O  O27  1  0.40136900  0.35681700  0.74735100  1
  O  O28  1  0.10641800  0.74598200  0.60847300  1
  O  O29  1  0.39358200  0.74598200  0.10847300  1
  O  O30  1  0.89358200  0.25401800  0.39152700  1
  O  O31  1  0.60641800  0.25401800  0.89152700  1
  O  O32  1  0.75790900  0.58898600  0.63924700  1
  O  O33  1  0.74209100  0.58898600  0.13924700  1
  O  O34  1  0.24209100  0.41101400  0.36075300  1
  O  O35  1  0.25790900  0.41101400  0.86075300  1
  O  O36  1  0.62993400  0.86080200  0.23812600  1
  O  O37  1  0.87006600  0.86080200  0.73812600  1
  O  O38  1  0.37006600  0.13919800  0.76187400  1
  O  O39  1  0.12993400  0.13919800  0.26187400  1
  O  O40  1  0.43705100  0.76032500  0.38490600  1
  O  O41  1  0.06294900  0.76032500  0.88490600  1
  O  O42  1  0.56294900  0.23967500  0.61509400  1
  O  O43  1  0.93705100  0.23967500  0.11509400  1
  O  O44  1  0.74859500  0.93155200  0.34620500  1
  O  O45  1  0.75140500  0.93155200  0.84620500  1
  O  O46  1  0.25140500  0.06844800  0.65379500  1
  O  O47  1  0.24859500  0.06844800  0.15379500  1
  O  O48  1  0.07768500  0.64414900  0.23828700  1
  O  O49  1  0.42231500  0.64414900  0.73828700  1
  O  O50  1  0.92231500  0.35585100  0.76171300  1
  O  O51  1  0.57768500  0.35585100  0.26171300  1
  O  O52  1  0.10583400  0.83290200  0.25702500  1
  O  O53  1  0.39416600  0.83290200  0.75702500  1
  O  O54  1  0.89416600  0.16709800  0.74297500  1
  O  O55  1  0.60583400  0.16709800  0.24297500  1
  O  O56  1  0.00239600  0.75007600  0.49361300  1
  O  O57  1  0.49760400  0.75007600  0.99361300  1
  O  O58  1  0.99760400  0.24992400  0.50638700  1
  O  O59  1  0.50239600  0.24992400  0.00638700  1
loop_
_geom_bond_atom_site_label_1
_geom_bond_atom_site_label_2
_geom_bond_distance
_geom_bond_site_symmetry_2
Ba0 O40 2.765816 1_555
Ba0 O32 2.815455 1_555
Ba0 O8 2.817435 1_555
Ba0 O22 2.861351 1_555
Ba0 O28 2.925003 1_555
Ba0 O16 2.928877 1_555
Ba0 O56 2.948983 1_655
Ba0 O12 2.954714 1_555
Ba0 O2 3.008304 1_555
Ba0 O56 3.090212 1_555
Ba1 O41 2.765816 1_654
Ba1 O33 2.815455 1_555
Ba1 O9 2.817435 1_655
Ba1 O23 2.861351 1_654
Ba1 O29 2.925003 1_655
Ba1 O17 2.928877 1_554
Ba1 O57 2.948983 1_554
Ba1 O13 2.954714 1_555
Ba1 O3 3.008304 1_554
Ba1 O57 3.090212 1_654
Ba2 O42 2.765816 1_555
Ba2 O34 2.815455 1_555
Ba2 O10 2.817435 1_555
Ba2 O20 2.861351 1_555
Ba2 O30 2.925003 1_555
Ba2 O18 2.928877 1_555
Ba2 O58 2.948983 1_455
Ba2 O14 2.954714 1_555
Ba2 O0 3.008304 1_555
Ba2 O58 3.090212 1_555
Ba3 O43 2.765816 1_456
Ba3 O35 2.815455 1_555
Ba3 O11 2.817435 1_455
Ba3 O21 2.861351 1_456
Ba3 O31 2.925003 1_455
Ba3 O19 2.928877 1_556
Ba3 O59 2.948983 1_556
Ba3 O15 2.954714 1_555
Ba3 O1 3.008304 1_556
Ba3 O59 3.090212 1_456
Mo0 O52 1.736897 1_655
Mo0 O48 1.755458 1_655
Mo0 O6 1.973168 1_555
Mo0 O13 2.033056 1_555
Mo0 O36 2.237042 1_555
Mo0 O25 2.264168 1_555
Mo1 O53 1.736897 1_555
Mo1 O49 1.755458 1_555
Mo1 O7 1.973168 1_555
Mo1 O12 2.033056 1_555
Mo1 O37 2.237042 1_555
Mo1 O24 2.264168 1_555
Mo2 O54 1.736897 1_455
Mo2 O50 1.755458 1_455
Mo2 O4 1.973168 1_555
Mo2 O15 2.033056 1_555
Mo2 O38 2.237042 1_555
Mo2 O27 2.264168 1_555
Mo3 O55 1.736897 1_555
Mo3 O51 1.755458 1_555
Mo3 O5 1.973168 1_555
Mo3 O14 2.033056 1_555
Mo3 O39 2.237042 1_555
Mo3 O26 2.264168 1_555
I0 O8 1.823415 1_555
I0 O0 1.840904 1_555
I0 O4 1.928481 1_555
I0 O42 2.608079 1_555
I1 O9 1.823415 1_555
I1 O1 1.840904 1_555
I1 O5 1.928481 1_555
I1 O43 2.608079 1_455
I2 O10 1.823415 1_555
I2 O2 1.840904 1_555
I2 O6 1.928481 1_555
I2 O40 2.608079 1_555
I3 O11 1.823415 1_555
I3 O3 1.840904 1_555
I3 O7 1.928481 1_555
I3 O41 2.608079 1_655
I4 O20 1.811927 1_565
I4 O16 1.846099 1_555
I4 O12 1.939027 1_555
I4 O18 2.540530 1_665
I4 O37 2.634883 1_555
I5 O21 1.811927 1_565
I5 O17 1.846099 1_554
I5 O13 1.939027 1_555
I5 O19 2.540530 1_565
I5 O36 2.634883 1_555
I6 O22 1.811927 1_545
I6 O18 1.846099 1_555
I6 O14 1.939027 1_555
I6 O16 2.540530 1_445
I6 O39 2.634883 1_555
I7 O23 1.811927 1_545
I7 O19 1.846099 1_556
I7 O15 1.939027 1_555
I7 O17 2.540530 1_545
I7 O38 2.634883 1_555
I8 O32 1.806672 1_455
I8 O28 1.859350 1_555
I8 O24 1.868326 1_455
I9 O33 1.806672 1_555
I9 O29 1.859350 1_555
I9 O25 1.868326 1_555
I10 O34 1.806672 1_655
I10 O30 1.859350 1_555
I10 O26 1.868326 1_655
I11 O35 1.806672 1_555
I11 O31 1.859350 1_555
I11 O27 1.868326 1_555
I12 O44 1.803226 1_555
I12 O40 1.828226 1_555
I12 O36 1.885485 1_555
I13 O45 1.803226 1_455
I13 O41 1.828226 1_555
I13 O37 1.885485 1_455
I14 O46 1.803226 1_555
I14 O42 1.828226 1_555
I14 O38 1.885485 1_555
I15 O47 1.803226 1_655
I15 O43 1.828226 1_555
I15 O39 1.885485 1_655
