# generated using pymatgen
data_La7SmTi3V5O20
_symmetry_space_group_name_H-M   'P 1'
_cell_length_a   11.01515440
_cell_length_b   11.28151764
_cell_length_c   17.93715876
_cell_angle_alpha   108.28302822
_cell_angle_beta   107.92089883
_cell_angle_gamma   89.92616733
_symmetry_Int_Tables_number   1
_chemical_formula_structural   La7SmTi3V5O20
_chemical_formula_sum   'La28 Sm4 Ti12 V20 O80'
_cell_volume   2002.57651072
_cell_formula_units_Z   4
loop_
 _symmetry_equiv_pos_site_id
 _symmetry_equiv_pos_as_xyz
  1  'x, y, z'
loop_
 _atom_site_type_symbol
 _atom_site_label
 _atom_site_symmetry_multiplicity
 _atom_site_fract_x
 _atom_site_fract_y
 _atom_site_fract_z
 _atom_site_occupancy
  La  La0  1  0.30901300  0.05814800  0.12732300  1
  La  La1  1  0.31328400  0.06377600  0.62494000  1
  La  La2  1  0.31374400  0.55916100  0.62913500  1
  La  La3  1  0.81803800  0.06500600  0.62507800  1
  La  La4  1  0.81281600  0.55980900  0.12932400  1
  La  La5  1  0.81765900  0.55962300  0.62927800  1
  La  La6  1  0.19015800  0.43649900  0.37439000  1
  La  La7  1  0.18526700  0.44087700  0.87148100  1
  La  La8  1  0.18090800  0.94201300  0.37120000  1
  La  La9  1  0.18729300  0.93852000  0.87067600  1
  La  La10  1  0.69392100  0.43902200  0.37684200  1
  La  La11  1  0.69214200  0.94048700  0.37460500  1
  La  La12  1  0.68434200  0.94037200  0.87002400  1
  La  La13  1  0.06792300  0.31885900  0.12791000  1
  La  La14  1  0.05935100  0.31354200  0.62459500  1
  La  La15  1  0.06749300  0.81999700  0.63016300  1
  La  La16  1  0.55528900  0.32140600  0.12814900  1
  La  La17  1  0.56285200  0.31812500  0.63028500  1
  La  La18  1  0.56758800  0.81804100  0.12821300  1
  La  La19  1  0.56652900  0.82108500  0.62851700  1
  La  La20  1  0.43670500  0.18676200  0.37637400  1
  La  La21  1  0.43110200  0.18041800  0.87205900  1
  La  La22  1  0.43640000  0.67943800  0.36997200  1
  La  La23  1  0.43905000  0.68198800  0.87143800  1
  La  La24  1  0.93151900  0.17665300  0.37330400  1
  La  La25  1  0.93600400  0.17775900  0.87034500  1
  La  La26  1  0.93812200  0.68450900  0.37206700  1
  La  La27  1  0.93330600  0.67854700  0.86921500  1
  Sm  Sm0  1  0.31147300  0.56211700  0.12617900  1
  Sm  Sm1  1  0.81511900  0.06137200  0.12334200  1
  Sm  Sm2  1  0.68988100  0.43743600  0.87370100  1
  Sm  Sm3  1  0.06081200  0.81504400  0.12476500  1
  Ti  Ti0  1  0.99946100  0.99915300  0.99845700  1
  Ti  Ti1  1  0.00187700  0.50042400  0.00156500  1
  Ti  Ti2  1  0.00268200  0.49827800  0.50123600  1
  Ti  Ti3  1  0.50266900  0.00208400  0.00036000  1
  Ti  Ti4  1  0.49926800  0.00073700  0.49792500  1
  Ti  Ti5  1  0.50273800  0.50002900  0.00127400  1
  Ti  Ti6  1  0.50320700  0.50158700  0.50358000  1
  Ti  Ti7  1  0.25123900  0.74883800  0.99978000  1
  Ti  Ti8  1  0.25086000  0.75116000  0.50035500  1
  Ti  Ti9  1  0.75148500  0.25051500  0.00078400  1
  Ti  Ti10  1  0.75259800  0.74891500  0.99982600  1
  Ti  Ti11  1  0.75241900  0.75152300  0.50122600  1
  V  V0  1  0.00170000  0.99607700  0.49825500  1
  V  V1  1  0.25134000  0.25108500  0.00128200  1
  V  V2  1  0.25200000  0.25055700  0.49913000  1
  V  V3  1  0.74868700  0.25118400  0.49952700  1
  V  V4  1  0.11153700  0.13723300  0.24676900  1
  V  V5  1  0.11814400  0.13838600  0.75064800  1
  V  V6  1  0.12187700  0.64120600  0.24910200  1
  V  V7  1  0.11908600  0.64188500  0.75080400  1
  V  V8  1  0.61507200  0.13675400  0.24697400  1
  V  V9  1  0.62084500  0.14379100  0.75147400  1
  V  V10  1  0.62106800  0.64021400  0.24974600  1
  V  V11  1  0.61907500  0.64392100  0.75115300  1
  V  V12  1  0.37147600  0.36440500  0.25180900  1
  V  V13  1  0.37357500  0.36248100  0.75338400  1
  V  V14  1  0.36235400  0.85752600  0.24872500  1
  V  V15  1  0.37076400  0.85818900  0.75013200  1
  V  V16  1  0.87074600  0.35875800  0.24930000  1
  V  V17  1  0.86513700  0.35925700  0.75337800  1
  V  V18  1  0.86355100  0.85892000  0.24581300  1
  V  V19  1  0.86693200  0.85637700  0.75015600  1
  O  O0  1  0.10728900  0.10895500  0.46442600  1
  O  O1  1  0.11009300  0.10512400  0.97354900  1
  O  O2  1  0.11731300  0.61162400  0.47768800  1
  O  O3  1  0.11502900  0.61233300  0.97736700  1
  O  O4  1  0.60902600  0.10859600  0.47636000  1
  O  O5  1  0.61528800  0.11262700  0.97588800  1
  O  O6  1  0.61563400  0.61313800  0.47752400  1
  O  O7  1  0.61920900  0.61077500  0.97762900  1
  O  O8  1  0.14114800  0.39924600  0.03230300  1
  O  O9  1  0.13586800  0.39249100  0.52373900  1
  O  O10  1  0.13528200  0.88439300  0.02544700  1
  O  O11  1  0.14391300  0.88262400  0.52491100  1
  O  O12  1  0.63756500  0.38607600  0.02475900  1
  O  O13  1  0.63647100  0.39572500  0.52662800  1
  O  O14  1  0.64294900  0.88930600  0.02664700  1
  O  O15  1  0.63788000  0.88704500  0.52159100  1
  O  O16  1  0.36437500  0.10445900  0.47592200  1
  O  O17  1  0.36814300  0.10828100  0.97527300  1
  O  O18  1  0.36597600  0.61597400  0.47524000  1
  O  O19  1  0.36791000  0.61628100  0.97795400  1
  O  O20  1  0.85688400  0.10509600  0.46747400  1
  O  O21  1  0.86350700  0.11318400  0.97776000  1
  O  O22  1  0.86569700  0.61633600  0.47818600  1
  O  O23  1  0.86283000  0.61209700  0.97403500  1
  O  O24  1  0.39155400  0.39916000  0.03044100  1
  O  O25  1  0.39184400  0.39440600  0.52512700  1
  O  O26  1  0.38835700  0.88711100  0.02425400  1
  O  O27  1  0.38933600  0.88235800  0.52271600  1
  O  O28  1  0.88854800  0.38722700  0.02480200  1
  O  O29  1  0.88911800  0.39294800  0.52298800  1
  O  O30  1  0.88996000  0.88734900  0.02738700  1
  O  O31  1  0.88603600  0.88013600  0.52412000  1
  O  O32  1  0.05347400  0.09883000  0.11832400  1
  O  O33  1  0.06527000  0.10524800  0.62425000  1
  O  O34  1  0.05530700  0.60454500  0.12005500  1
  O  O35  1  0.05685300  0.60109900  0.62087300  1
  O  O36  1  0.56811500  0.09793400  0.11947200  1
  O  O37  1  0.55656800  0.09458200  0.62054900  1
  O  O38  1  0.56432700  0.60077600  0.12077100  1
  O  O39  1  0.55732000  0.60289600  0.62187400  1
  O  O40  1  0.43965400  0.40544000  0.38051000  1
  O  O41  1  0.44542400  0.40454900  0.88206800  1
  O  O42  1  0.43644700  0.89715500  0.37828400  1
  O  O43  1  0.44444700  0.90157400  0.88053200  1
  O  O44  1  0.93509300  0.40395800  0.37950600  1
  O  O45  1  0.93711500  0.40203500  0.88252600  1
  O  O46  1  0.94092800  0.89098900  0.37156500  1
  O  O47  1  0.93134100  0.90141900  0.88026200  1
  O  O48  1  0.31671800  0.26493800  0.12669400  1
  O  O49  1  0.32180800  0.27276800  0.62644800  1
  O  O50  1  0.30717100  0.76847000  0.11926300  1
  O  O51  1  0.31096000  0.77011600  0.62031400  1
  O  O52  1  0.81023300  0.26972200  0.11994400  1
  O  O53  1  0.82050200  0.27442900  0.62637900  1
  O  O54  1  0.81557500  0.76932000  0.11872400  1
  O  O55  1  0.80092400  0.77162800  0.62031800  1
  O  O56  1  0.20534100  0.22677600  0.37190700  1
  O  O57  1  0.19611300  0.23547200  0.87591800  1
  O  O58  1  0.18416400  0.72652900  0.37933700  1
  O  O59  1  0.18768200  0.72496000  0.88108200  1
  O  O60  1  0.68468100  0.23061100  0.37278800  1
  O  O61  1  0.69162000  0.23100900  0.88161500  1
  O  O62  1  0.68379100  0.72381200  0.37966000  1
  O  O63  1  0.68550900  0.72953000  0.88128500  1
  O  O64  1  0.45278700  0.03294900  0.25005100  1
  O  O65  1  0.46019400  0.03236500  0.75099000  1
  O  O66  1  0.45507000  0.52771900  0.24103500  1
  O  O67  1  0.46122500  0.53012500  0.75130600  1
  O  O68  1  0.94709700  0.03001000  0.24197600  1
  O  O69  1  0.96148200  0.02592400  0.74969600  1
  O  O70  1  0.96059700  0.52948500  0.24857100  1
  O  O71  1  0.96316000  0.52555000  0.75268400  1
  O  O72  1  0.21104400  0.47035700  0.25065300  1
  O  O73  1  0.20918800  0.46723200  0.74878900  1
  O  O74  1  0.19681200  0.96272100  0.24043200  1
  O  O75  1  0.21470100  0.97436700  0.75292300  1
  O  O76  1  0.70828300  0.46621000  0.24892000  1
  O  O77  1  0.71137100  0.47598500  0.75776800  1
  O  O78  1  0.70543800  0.97066900  0.25004400  1
  O  O79  1  0.71247300  0.97486800  0.75211200  1
loop_
_geom_bond_atom_site_label_1
_geom_bond_atom_site_label_2
_geom_bond_distance
_geom_bond_site_symmetry_2
La0 O48 2.338245 1_555
La0 O64 2.383486 1_555
La0 O10 2.540477 1_545
La0 O26 2.580077 1_545
La0 O32 2.814843 1_555
La1 O49 2.351066 1_555
La1 O65 2.471003 1_555
La1 O11 2.554538 1_545
La1 O27 2.615159 1_545
La1 O37 2.730905 1_555
La1 O33 2.768019 1_555
La2 O67 2.409730 1_555
La2 O51 2.433711 1_555
La2 O9 2.539317 1_555
La2 O25 2.546220 1_555
La2 O39 2.778096 1_555
La2 O35 2.834686 1_555
La3 O53 2.355501 1_555
La3 O69 2.475989 1_555
La3 O31 2.578989 1_545
La3 O15 2.611437 1_545
La3 O33 2.766766 1_655
La3 O37 2.878130 1_555
La4 O70 2.378423 1_555
La4 O54 2.430925 1_555
La4 O12 2.561434 1_555
La4 O28 2.582570 1_555
La4 O38 2.740785 1_555
La4 O34 2.783239 1_655
La5 O71 2.442390 1_555
La5 O55 2.449904 1_555
La5 O13 2.530671 1_555
La5 O29 2.541775 1_555
La5 O35 2.734139 1_655
La5 O39 2.877883 1_555
La6 O56 2.359095 1_555
La6 O72 2.443634 1_555
La6 O2 2.567947 1_555
La6 O18 2.584314 1_555
La6 O40 2.742922 1_555
La6 O44 2.866949 1_455
La7 O57 2.345110 1_555
La7 O73 2.401817 1_555
La7 O3 2.557890 1_555
La7 O19 2.623970 1_555
La7 O45 2.844950 1_455
La7 O41 2.850788 1_555
La8 O0 2.419818 1_565
La8 O58 2.480213 1_555
La8 O74 2.486752 1_555
La8 O16 2.546492 1_565
La8 O46 2.708501 1_455
La8 O42 2.830534 1_555
La9 O75 2.375827 1_555
La9 O59 2.474091 1_555
La9 O1 2.538950 1_565
La9 O17 2.571303 1_565
La9 O43 2.821979 1_555
La10 O60 2.330782 1_555
La10 O76 2.459510 1_555
La10 O22 2.549051 1_555
La10 O6 2.567459 1_555
La10 O44 2.673394 1_555
La10 O40 2.850274 1_555
La11 O20 2.392482 1_565
La11 O78 2.410017 1_555
La11 O62 2.477229 1_555
La11 O4 2.572625 1_565
La11 O46 2.809554 1_555
La11 O42 2.883450 1_555
La12 O79 2.375032 1_555
La12 O63 2.449196 1_555
La12 O5 2.555504 1_565
La12 O21 2.594071 1_565
La12 O47 2.714644 1_555
La12 O43 2.751557 1_555
La13 O72 2.400782 1_555
La13 O32 2.435755 1_555
La13 O8 2.498578 1_555
La13 O28 2.561561 1_455
La13 O48 2.811602 1_555
La13 O52 2.844209 1_455
La14 O33 2.348812 1_555
La14 O73 2.452385 1_555
La14 O29 2.560700 1_455
La14 O9 2.593771 1_555
La14 O53 2.679801 1_455
La14 O49 2.918499 1_555
La15 O35 2.422907 1_555
La15 O75 2.432039 1_555
La15 O31 2.557327 1_455
La15 O11 2.566801 1_555
La15 O51 2.786642 1_555
La15 O55 2.928372 1_455
La16 O76 2.396163 1_555
La16 O24 2.471670 1_555
La16 O36 2.483258 1_555
La16 O12 2.584150 1_555
La16 O48 2.695185 1_555
La17 O37 2.472241 1_555
La17 O77 2.495420 1_555
La17 O25 2.583486 1_555
La17 O13 2.613816 1_555
La17 O49 2.680535 1_555
La17 O53 2.898200 1_555
La18 O78 2.376940 1_555
La18 O38 2.412237 1_555
La18 O14 2.550652 1_555
La18 O26 2.573749 1_555
La18 O54 2.831318 1_555
La18 O50 2.869043 1_555
La19 O39 2.427481 1_555
La19 O79 2.431013 1_555
La19 O27 2.535546 1_555
La19 O15 2.583522 1_555
La19 O55 2.679106 1_555
La19 O51 2.823726 1_555
La19 O37 3.133480 1_565
La20 O64 2.440480 1_555
La20 O40 2.444716 1_555
La20 O4 2.547560 1_555
La20 O56 2.568884 1_555
La20 O16 2.569616 1_555
La20 O60 2.800264 1_555
La21 O65 2.399909 1_555
La21 O41 2.479798 1_555
La21 O17 2.511515 1_555
La21 O5 2.594984 1_555
La21 O57 2.677632 1_555
La22 O42 2.413552 1_555
La22 O66 2.475664 1_555
La22 O18 2.535895 1_555
La22 O6 2.595496 1_555
La22 O62 2.713708 1_555
La22 O58 2.873585 1_555
La23 O67 2.375858 1_555
La23 O43 2.430607 1_555
La23 O19 2.573983 1_555
La23 O7 2.615630 1_555
La23 O63 2.708900 1_555
La23 O59 2.858357 1_555
La24 O0 2.415639 1_655
La24 O20 2.427473 1_555
La24 O68 2.473527 1_555
La24 O44 2.531476 1_555
La24 O60 2.783371 1_555
La25 O69 2.396439 1_555
La25 O45 2.470070 1_555
La25 O1 2.557089 1_655
La25 O21 2.590311 1_555
La25 O61 2.811184 1_555
La25 O57 2.903559 1_655
La26 O46 2.332530 1_555
La26 O70 2.435691 1_555
La26 O22 2.589551 1_555
La26 O2 2.614048 1_655
La26 O58 2.708116 1_655
La26 O62 2.873543 1_555
La27 O71 2.369461 1_555
La27 O47 2.459983 1_555
La27 O23 2.546324 1_555
La27 O3 2.616068 1_655
La27 O59 2.781624 1_655
La27 O63 2.847714 1_555
O0 V2 2.062119 1_555
O0 V0 2.065321 1_545
O1 Ti0 1.946243 1_445
O1 V1 2.096664 1_556
O2 Ti8 2.010878 1_555
O2 Ti2 2.019686 1_555
O3 Ti1 2.004142 1_556
O3 Ti7 2.007635 1_555
O4 Ti4 1.918034 1_555
O4 V3 2.078581 1_555
O5 Ti3 1.992327 1_556
O5 Ti9 2.006946 1_556
O6 Ti6 2.016196 1_555
O6 Ti11 2.020804 1_555
O7 Ti10 2.000661 1_555
O7 Ti5 2.014509 1_556
O7 Sm2 2.550912 1_555
O8 Ti1 1.957073 1_555
O8 V1 2.098474 1_555
O8 Sm0 2.419707 1_555
O9 Ti2 1.916456 1_555
O9 V2 2.072178 1_555
O10 Ti0 2.022709 1_454
O10 Ti7 2.024150 1_554
O10 Sm3 2.496822 1_555
O11 Ti8 1.919990 1_555
O11 V0 2.058783 1_555
O12 Ti5 1.996401 1_555
O12 Ti9 2.003234 1_555
O13 Ti6 1.919328 1_555
O13 V3 2.071335 1_555
O14 Ti10 2.018246 1_554
O14 Ti3 2.037573 1_565
O14 Sm1 2.499163 1_565
O15 Ti11 1.997748 1_555
O15 Ti4 2.023419 1_565
O16 Ti4 1.912376 1_555
O16 V2 2.074479 1_555
O17 Ti3 1.938291 1_556
O17 V1 2.088287 1_556
O18 Ti8 2.013019 1_555
O18 Ti6 2.035278 1_555
O19 Ti7 1.994637 1_555
O19 Ti5 2.014335 1_556
O20 V0 2.059382 1_645
O20 V3 2.071058 1_555
O21 Ti0 1.996990 1_545
O21 Ti9 2.000184 1_556
O22 Ti11 1.992661 1_555
O22 Ti2 2.044024 1_655
O23 Ti10 1.990887 1_555
O23 Ti1 2.024062 1_656
O23 Sm2 2.534873 1_555
O24 Ti5 1.959593 1_555
O24 V1 2.100215 1_555
O24 Sm0 2.460507 1_555
O25 Ti6 1.924839 1_555
O25 V2 2.076890 1_555
O26 Ti7 2.018836 1_554
O26 Ti3 2.033885 1_565
O27 Ti8 1.983706 1_555
O27 Ti4 2.038569 1_565
O28 Ti1 2.005283 1_655
O28 Ti9 2.008129 1_555
O29 Ti2 1.929805 1_655
O29 V3 2.076342 1_555
O30 Ti10 2.008520 1_554
O30 Ti0 2.028503 1_554
O30 Sm3 2.474893 1_655
O30 Sm1 2.499052 1_565
O31 Ti11 1.923494 1_555
O31 V0 2.073187 1_655
O32 Ti0 1.984650 1_444
O32 V4 2.091053 1_555
O32 Sm1 2.692986 1_455
O33 V5 2.067704 1_555
O33 V0 2.096831 1_545
O34 Ti1 1.977112 1_555
O34 V6 2.102930 1_555
O34 Sm3 2.349805 1_555
O35 Ti2 1.989633 1_555
O35 V7 2.111418 1_555
O36 Ti3 1.964268 1_555
O36 V8 2.081822 1_555
O36 Sm1 2.734315 1_555
O37 Ti4 2.010839 1_555
O37 V9 2.117626 1_555
O38 Ti5 1.981151 1_555
O38 V10 2.098975 1_555
O39 Ti6 1.966133 1_555
O39 V11 2.100216 1_555
O40 Ti6 2.021969 1_555
O40 V12 2.090707 1_555
O41 Ti5 1.963859 1_556
O41 V13 2.090198 1_555
O41 Sm2 2.774382 1_555
O42 Ti4 1.991119 1_565
O42 V14 2.109130 1_555
O43 Ti3 1.985263 1_566
O43 V15 2.117473 1_555
O44 Ti2 1.999511 1_655
O44 V16 2.109988 1_555
O45 Ti1 1.969199 1_656
O45 V17 2.096939 1_555
O45 Sm2 2.715254 1_555
O46 V18 2.061764 1_555
O46 V0 2.096007 1_655
O47 Ti0 1.957030 1_555
O47 V19 2.108510 1_555
O48 V12 2.061101 1_555
O48 V1 2.094325 1_555
O49 V13 2.071301 1_555
O49 V2 2.104810 1_555
O50 Ti7 1.977831 1_554
O50 V14 2.107246 1_555
O50 Sm0 2.369472 1_555
O50 Sm3 2.788994 1_555
O51 Ti8 1.987193 1_555
O51 V15 2.109373 1_555
O52 Ti9 1.973002 1_555
O52 V16 2.103469 1_555
O52 Sm1 2.370448 1_555
O53 V17 2.071475 1_555
O53 V3 2.095300 1_555
O54 Ti10 1.965835 1_554
O54 V18 2.076517 1_555
O54 Sm3 2.713551 1_655
O55 Ti11 1.973340 1_555
O55 V19 2.104591 1_555
O56 V4 2.068609 1_555
O56 V2 2.106699 1_555
O57 V5 2.063218 1_555
O57 V1 2.089869 1_556
O58 Ti8 1.992390 1_555
O58 V6 2.111613 1_555
O59 Ti7 1.954254 1_555
O59 V7 2.109763 1_555
O60 V8 2.059108 1_555
O60 V3 2.098098 1_555
O61 Ti9 1.972357 1_556
O61 V9 2.113307 1_555
O61 Sm2 2.376868 1_555
O62 Ti11 1.995610 1_555
O62 V10 2.104524 1_555
O63 Ti10 1.963850 1_555
O63 V11 2.110200 1_555
O64 V8 2.162552 1_555
O64 V14 2.206899 1_545
O65 V9 2.168216 1_555
O65 V15 2.192811 1_545
O66 V12 2.148733 1_555
O66 V10 2.164300 1_555
O66 Sm0 2.321959 1_555
O67 V13 2.140457 1_555
O67 V11 2.163851 1_555
O68 V4 2.143852 1_655
O68 V18 2.168880 1_545
O68 Sm1 2.309560 1_555
O69 V5 2.135837 1_655
O69 V19 2.182586 1_545
O70 V16 2.172120 1_555
O70 V6 2.175435 1_655
O71 V17 2.171095 1_555
O71 V7 2.177802 1_655
O72 V12 2.130649 1_555
O72 V6 2.166201 1_555
O73 V13 2.155432 1_555
O73 V7 2.200221 1_555
O74 V4 2.166053 1_565
O74 V14 2.166524 1_555
O74 Sm3 2.291140 1_555
O75 V5 2.138317 1_565
O75 V15 2.163676 1_555
O76 V16 2.159658 1_555
O76 V10 2.182263 1_555
O77 V17 2.149517 1_555
O77 V11 2.167698 1_555
O77 Sm2 2.332410 1_555
O78 V8 2.128558 1_565
O78 V18 2.155013 1_555
O79 V9 2.156885 1_565
O79 V19 2.164331 1_555
