# generated using pymatgen
data_Na2P2H3(SO2)2
_symmetry_space_group_name_H-M   'P 1'
_cell_length_a   8.68114662
_cell_length_b   8.50140083
_cell_length_c   14.48908295
_cell_angle_alpha   104.82689751
_cell_angle_beta   89.81946902
_cell_angle_gamma   117.56995846
_symmetry_Int_Tables_number   1
_chemical_formula_structural   Na2P2H3(SO2)2
_chemical_formula_sum   'Na8 P8 H12 S8 O16'
_cell_volume   908.00421031
_cell_formula_units_Z   4
loop_
 _symmetry_equiv_pos_site_id
 _symmetry_equiv_pos_as_xyz
  1  'x, y, z'
loop_
 _atom_site_type_symbol
 _atom_site_label
 _atom_site_symmetry_multiplicity
 _atom_site_fract_x
 _atom_site_fract_y
 _atom_site_fract_z
 _atom_site_occupancy
  Na  Na0  1  0.04303700  0.26206800  0.09706800  1
  Na  Na1  1  0.95696300  0.73793200  0.90293200  1
  Na  Na2  1  0.87923600  0.05135100  0.28032800  1
  Na  Na3  1  0.12076400  0.94864900  0.71967200  1
  Na  Na4  1  0.21562300  0.00846100  0.45966300  1
  Na  Na5  1  0.78437700  0.99153900  0.54033700  1
  Na  Na6  1  0.72221800  0.36461100  0.23481300  1
  Na  Na7  1  0.27778200  0.63538900  0.76518700  1
  P  P0  1  0.12134800  0.31965600  0.50466300  1
  P  P1  1  0.87865200  0.68034400  0.49533700  1
  P  P2  1  0.33713000  0.04281200  0.11405300  1
  P  P3  1  0.66287000  0.95718800  0.88594700  1
  P  P4  1  0.10150500  0.53503600  0.37829600  1
  P  P5  1  0.89849500  0.46496400  0.62170400  1
  P  P6  1  0.39329000  0.08836100  0.91599800  1
  P  P7  1  0.60671000  0.91163900  0.08400200  1
  H  H0  1  0.30386500  0.45671800  0.03018500  1
  H  H1  1  0.69613500  0.54328200  0.96981500  1
  H  H2  1  0.47051600  0.17123900  0.39162300  1
  H  H3  1  0.52948400  0.82876100  0.60837700  1
  H  H4  1  0.02435800  0.43964900  0.87285000  1
  H  H5  1  0.97564200  0.56035100  0.12715000  1
  H  H6  1  0.39915500  0.11014700  0.63331900  1
  H  H7  1  0.60084500  0.88985300  0.36668100  1
  H  H8  1  0.99375000  0.82186400  0.26610500  1
  H  H9  1  0.00625000  0.17813600  0.73389500  1
  H  H10  1  0.21823000  0.28662600  0.24627300  1
  H  H11  1  0.78177000  0.71337400  0.75372700  1
  S  S0  1  0.39318300  0.27445600  0.85974200  1
  S  S1  1  0.60681700  0.72554500  0.14025800  1
  S  S2  1  0.30046600  0.36005000  0.60330600  1
  S  S3  1  0.69953400  0.63995000  0.39669400  1
  S  S4  1  0.07571900  0.90076200  0.10522600  1
  S  S5  1  0.92428100  0.09923800  0.89477400  1
  S  S6  1  0.27458400  0.66427700  0.30058100  1
  S  S7  1  0.72541600  0.33572300  0.69941900  1
  O  O0  1  0.05646800  0.68830200  0.45068200  1
  O  O1  1  0.94353200  0.31169800  0.54931800  1
  O  O2  1  0.43331600  0.18243100  0.20790400  1
  O  O3  1  0.56668400  0.81756900  0.79209500  1
  O  O4  1  0.04659000  0.13819900  0.42572200  1
  O  O5  1  0.95341000  0.86180100  0.57427800  1
  O  O6  1  0.38694900  0.15367300  0.03160300  1
  O  O7  1  0.61305100  0.84632700  0.96839700  1
  O  O8  1  0.41023400  0.89496700  0.08011700  1
  O  O9  1  0.58976600  0.10503300  0.91988300  1
  O  O10  1  0.74586300  0.11144600  0.12741600  1
  O  O11  1  0.25413700  0.88855400  0.87258400  1
  O  O12  1  0.06699200  0.63672100  0.66981100  1
  O  O13  1  0.93300800  0.36327900  0.33018900  1
  O  O14  1  0.19569800  0.49477400  0.46107300  1
  O  O15  1  0.80430200  0.50522600  0.53892700  1
loop_
_geom_bond_atom_site_label_1
_geom_bond_atom_site_label_2
_geom_bond_distance
_geom_bond_site_symmetry_2
Na0 O10 2.389895 1_455
Na0 S5 2.862096 1_454
Na1 O11 2.389895 1_655
Na1 S4 2.862096 1_656
Na2 O4 2.307384 1_655
Na2 O13 2.376504 1_555
Na2 O10 2.766459 1_555
Na2 S1 2.910895 1_545
Na3 O5 2.307384 1_455
Na3 O12 2.376504 1_555
Na3 O11 2.766459 1_555
Na3 S0 2.910898 1_565
Na4 O4 2.322052 1_555
Na4 O0 2.381790 1_545
Na4 O5 2.811169 1_445
Na4 S2 2.931927 1_555
Na5 O5 2.322052 1_555
Na5 O1 2.381790 1_565
Na5 O4 2.811169 1_665
Na5 S3 2.931927 1_555
Na6 O2 2.223134 1_555
Na6 O13 2.302490 1_555
Na6 O10 2.405953 1_555
Na6 S3 2.938235 1_555
Na7 O3 2.223134 1_555
Na7 O12 2.302490 1_555
Na7 O11 2.405953 1_555
Na7 S2 2.938235 1_555
P0 S2 1.961394 1_555
P1 S3 1.961394 1_555
P2 S4 2.002657 1_545
P3 S5 2.002657 1_565
P4 S6 1.956295 1_555
P5 S7 1.956295 1_555
P6 S0 1.956700 1_555
P7 S1 1.956692 1_555
H0 Na0 2.478499 1_555
H1 Na1 2.478499 1_555
H2 Na4 2.373437 1_555
H3 Na5 2.373437 1_555
H6 Na3 2.660795 1_545
H6 Na4 2.693278 1_555
H7 Na2 2.660795 1_565
H7 Na5 2.693278 1_555
H8 Na2 2.534801 1_565
H9 Na3 2.534801 1_545
H10 Na0 2.554608 1_555
H11 Na1 2.554608 1_555
O0 P4 1.649293 1_555
O0 P1 1.650904 1_455
O1 P5 1.649293 1_555
O1 P0 1.650904 1_655
O2 P2 1.489580 1_555
O3 P3 1.489590 1_555
O4 P0 1.511312 1_555
O5 P1 1.511312 1_555
O6 P6 1.633617 1_554
O6 P2 1.642591 1_555
O7 P7 1.633617 1_556
O7 P3 1.642591 1_555
O8 P2 1.626157 1_565
O8 P7 1.644749 1_555
O9 P3 1.626157 1_545
O9 P6 1.644749 1_555
O10 P7 1.516192 1_545
O11 P6 1.516192 1_565
O12 P5 1.505330 1_455
O13 P4 1.505330 1_655
O14 P0 1.618964 1_555
O14 P4 1.643056 1_555
O15 P1 1.618964 1_555
O15 P5 1.643056 1_555
