# generated using pymatgen
data_CeGaNi4
_symmetry_space_group_name_H-M   'P 1'
_cell_length_a   4.83066211
_cell_length_b   4.83066211
_cell_length_c   4.05452929
_cell_angle_alpha   90.00000000
_cell_angle_beta   90.00000000
_cell_angle_gamma   117.75575045
_symmetry_Int_Tables_number   1
_chemical_formula_structural   CeGaNi4
_chemical_formula_sum   'Ce1 Ga1 Ni4'
_cell_volume   83.72748233
_cell_formula_units_Z   1
loop_
 _symmetry_equiv_pos_site_id
 _symmetry_equiv_pos_as_xyz
  1  'x, y, z'
loop_
 _atom_site_type_symbol
 _atom_site_label
 _atom_site_symmetry_multiplicity
 _atom_site_fract_x
 _atom_site_fract_y
 _atom_site_fract_z
 _atom_site_occupancy
  Ce  Ce0  1  -0.00000000  0.00000000  0.00000000  1
  Ga  Ga0  1  0.50000000  0.50000000  0.50000000  1
  Ni  Ni0  1  0.67207009  0.32792991  0.00000000  1
  Ni  Ni1  1  0.32792991  0.67207009  -0.00000000  1
  Ni  Ni2  1  0.50000000  0.00000000  0.50000000  1
  Ni  Ni3  1  -0.00000000  0.50000000  0.50000000  1
loop_
_geom_bond_atom_site_label_1
_geom_bond_atom_site_label_2
_geom_bond_distance
_geom_bond_site_symmetry_2
Ce0 Ni0 2.712225 1_455
Ce0 Ni1 2.712225 1_545
Ce0 Ni0 2.873906 1_555
Ce0 Ni0 2.873906 1_445
Ce0 Ni1 2.873906 1_555
Ce0 Ni1 2.873906 1_445
Ce0 Ni2 3.153352 1_555
Ce0 Ni2 3.153352 1_454
Ce0 Ni3 3.153352 1_544
Ce0 Ni3 3.153352 1_555
Ce0 Ni2 3.153352 1_554
Ce0 Ni3 3.153352 1_545
Ce0 Ni2 3.153352 1_455
Ce0 Ni3 3.153352 1_554
Ce0 Ga0 3.216176 1_445
Ce0 Ga0 3.216176 1_554
Ce0 Ga0 3.216176 1_444
Ce0 Ga0 3.216176 1_555
Ga0 Ni3 2.415331 1_555
Ga0 Ni2 2.415331 1_555
Ga0 Ni3 2.415331 1_655
Ga0 Ni2 2.415331 1_565
Ga0 Ni0 2.476924 1_555
Ga0 Ni1 2.476924 1_556
Ga0 Ni1 2.476924 1_555
Ga0 Ni0 2.476924 1_556
Ni0 Ni3 2.466521 1_654
Ni0 Ni2 2.466521 1_554
Ni0 Ni3 2.466521 1_655
Ni0 Ni2 2.466521 1_555
Ni0 Ni1 2.809930 1_545
Ni0 Ni1 2.809930 1_655
Ni0 Ni1 2.846296 1_555
Ni1 Ni2 2.466521 1_565
Ni1 Ni3 2.466521 1_555
Ni1 Ni2 2.466521 1_564
Ni1 Ni3 2.466521 1_554
Ni2 Ni3 2.496795 1_545
Ni2 Ni3 2.496795 1_655
