# generated using pymatgen
data_K3Tb(BO3)2
_symmetry_space_group_name_H-M   'P 1'
_cell_length_a   5.59785100
_cell_length_b   6.87721900
_cell_length_c   9.48885100
_cell_angle_alpha   90.00000000
_cell_angle_beta   90.00000000
_cell_angle_gamma   90.00000000
_symmetry_Int_Tables_number   1
_chemical_formula_structural   K3Tb(BO3)2
_chemical_formula_sum   'K6 Tb2 B4 O12'
_cell_volume   365.29843867
_cell_formula_units_Z   2
loop_
 _symmetry_equiv_pos_site_id
 _symmetry_equiv_pos_as_xyz
  1  'x, y, z'
loop_
 _atom_site_type_symbol
 _atom_site_label
 _atom_site_symmetry_multiplicity
 _atom_site_fract_x
 _atom_site_fract_y
 _atom_site_fract_z
 _atom_site_occupancy
  K  K0  1  0.00000000  0.26708900  0.66784600  1
  K  K1  1  0.00000000  0.73291100  0.33215400  1
  K  K2  1  0.50000000  0.23291100  0.16784600  1
  K  K3  1  0.50000000  0.76708900  0.83215400  1
  K  K4  1  0.50000000  0.00000000  0.50000000  1
  K  K5  1  0.00000000  0.50000000  0.00000000  1
  Tb  Tb0  1  0.00000000  0.00000000  0.00000000  1
  Tb  Tb1  1  0.50000000  0.50000000  0.50000000  1
  B  B0  1  0.00000000  0.26259700  0.33387900  1
  B  B1  1  0.00000000  0.73740300  0.66612100  1
  B  B2  1  0.50000000  0.23740300  0.83387900  1
  B  B3  1  0.50000000  0.76259700  0.16612100  1
  O  O0  1  0.21583900  0.29859800  0.40336700  1
  O  O1  1  0.78416100  0.70140200  0.59663300  1
  O  O2  1  0.21583900  0.70140200  0.59663300  1
  O  O3  1  0.28416100  0.20140200  0.90336700  1
  O  O4  1  0.78416100  0.29859800  0.40336700  1
  O  O5  1  0.71583900  0.79859800  0.09663300  1
  O  O6  1  0.28416100  0.79859800  0.09663300  1
  O  O7  1  0.71583900  0.20140200  0.90336700  1
  O  O8  1  0.00000000  0.19339700  0.19601700  1
  O  O9  1  0.00000000  0.80660300  0.80398300  1
  O  O10  1  0.50000000  0.30660300  0.69601700  1
  O  O11  1  0.50000000  0.69339700  0.30398300  1
loop_
_geom_bond_atom_site_label_1
_geom_bond_atom_site_label_2
_geom_bond_distance
_geom_bond_site_symmetry_2
K0 O3 2.780073 1_555
K0 O7 2.780073 1_455
K0 O0 2.793723 1_555
K0 O4 2.793723 1_455
K0 O10 2.824763 1_455
K0 O10 2.824763 1_555
K1 O5 2.780073 1_455
K1 O6 2.780073 1_555
K1 O2 2.793723 1_555
K1 O1 2.793723 1_455
K1 O11 2.824763 1_555
K1 O11 2.824763 1_455
K2 O4 2.780073 1_555
K2 O0 2.780073 1_555
K2 O3 2.793723 1_554
K2 O7 2.793723 1_554
K2 O8 2.824763 1_655
K2 O8 2.824763 1_555
K3 O1 2.780073 1_555
K3 O2 2.780073 1_555
K3 O6 2.793723 1_556
K3 O5 2.793723 1_556
K3 O9 2.824763 1_555
K3 O9 2.824763 1_655
K4 O1 2.754638 1_545
K4 O0 2.754638 1_555
K4 O2 2.754638 1_545
K4 O4 2.754638 1_555
K4 O11 2.811691 1_545
K4 O10 2.811691 1_555
K5 O6 2.754638 1_555
K5 O3 2.754638 1_554
K5 O5 2.754638 1_455
K5 O7 2.754638 1_454
K5 O9 2.811691 1_554
K5 O8 2.811691 1_555
B0 O8 1.392029 1_555
B0 O0 1.398530 1_555
B0 O4 1.398530 1_455
B1 O9 1.392029 1_555
B1 O2 1.398530 1_555
B1 O1 1.398530 1_455
B2 O10 1.392029 1_555
B2 O7 1.398530 1_555
B2 O3 1.398530 1_555
B3 O11 1.392029 1_555
B3 O6 1.398530 1_555
B3 O5 1.398530 1_555
O0 Tb1 2.299898 1_555
O1 Tb1 2.299898 1_555
O2 Tb1 2.299898 1_555
O3 Tb0 2.299898 1_556
O4 Tb1 2.299898 1_555
O5 Tb0 2.299898 1_665
O6 Tb0 2.299898 1_565
O7 Tb0 2.299898 1_656
O8 Tb0 2.286591 1_555
O9 Tb0 2.286591 1_566
O10 Tb1 2.286591 1_555
O11 Tb1 2.286591 1_555
