# generated using pymatgen
data_NbIr
_symmetry_space_group_name_H-M   'P 1'
_cell_length_a   5.73929646
_cell_length_b   9.71804092
_cell_length_c   27.63403304
_cell_angle_alpha   90.00000000
_cell_angle_beta   90.00000000
_cell_angle_gamma   90.00000000
_symmetry_Int_Tables_number   1
_chemical_formula_structural   NbIr
_chemical_formula_sum   'Nb48 Ir48'
_cell_volume   1541.28039587
_cell_formula_units_Z   48
loop_
 _symmetry_equiv_pos_site_id
 _symmetry_equiv_pos_as_xyz
  1  'x, y, z'
loop_
 _atom_site_type_symbol
 _atom_site_label
 _atom_site_symmetry_multiplicity
 _atom_site_fract_x
 _atom_site_fract_y
 _atom_site_fract_z
 _atom_site_occupancy
  Nb  Nb0_0  1  0.00000000  0.02251845  0.12500000  1
  Nb  Nb0_1  1  0.00000000  0.02251845  0.62500000  1
  Nb  Nb0_2  1  0.00000000  0.52251844  0.12500000  1
  Nb  Nb0_3  1  0.00000000  0.52251844  0.62500000  1
  Nb  Nb0_4  1  0.50000000  0.02251845  0.12500000  1
  Nb  Nb0_5  1  0.50000000  0.02251845  0.62500000  1
  Nb  Nb0_6  1  0.50000000  0.52251844  0.12500000  1
  Nb  Nb0_7  1  0.50000000  0.52251844  0.62500000  1
  Nb  Nb1_0  1  0.00000000  0.47748155  0.37500000  1
  Nb  Nb1_1  1  0.00000000  0.47748155  0.87500000  1
  Nb  Nb1_2  1  0.00000000  0.97748155  0.37500000  1
  Nb  Nb1_3  1  0.00000000  0.97748155  0.87500000  1
  Nb  Nb1_4  1  0.50000000  0.47748155  0.37500000  1
  Nb  Nb1_5  1  0.50000000  0.47748155  0.87500000  1
  Nb  Nb1_6  1  0.50000000  0.97748155  0.37500000  1
  Nb  Nb1_7  1  0.50000000  0.97748155  0.87500000  1
  Nb  Nb2_0  1  0.00000000  0.16516641  0.29251085  1
  Nb  Nb2_1  1  0.00000000  0.16516641  0.79251085  1
  Nb  Nb2_2  1  0.00000000  0.66516641  0.29251085  1
  Nb  Nb2_3  1  0.00000000  0.66516641  0.79251085  1
  Nb  Nb2_4  1  0.50000000  0.16516641  0.29251085  1
  Nb  Nb2_5  1  0.50000000  0.16516641  0.79251085  1
  Nb  Nb2_6  1  0.50000000  0.66516641  0.29251085  1
  Nb  Nb2_7  1  0.50000000  0.66516641  0.79251085  1
  Nb  Nb3_0  1  0.00000000  0.33483359  0.20748915  1
  Nb  Nb3_1  1  0.00000000  0.33483359  0.70748915  1
  Nb  Nb3_2  1  0.00000000  0.83483359  0.20748915  1
  Nb  Nb3_3  1  0.00000000  0.83483359  0.70748915  1
  Nb  Nb3_4  1  0.50000000  0.33483359  0.20748915  1
  Nb  Nb3_5  1  0.50000000  0.33483359  0.70748915  1
  Nb  Nb3_6  1  0.50000000  0.83483359  0.20748915  1
  Nb  Nb3_7  1  0.50000000  0.83483359  0.70748915  1
  Nb  Nb4_0  1  0.00000000  0.16516641  0.45748915  1
  Nb  Nb4_1  1  0.00000000  0.16516641  0.95748915  1
  Nb  Nb4_2  1  0.00000000  0.66516641  0.45748915  1
  Nb  Nb4_3  1  0.00000000  0.66516641  0.95748915  1
  Nb  Nb4_4  1  0.50000000  0.16516641  0.45748915  1
  Nb  Nb4_5  1  0.50000000  0.16516641  0.95748915  1
  Nb  Nb4_6  1  0.50000000  0.66516641  0.45748915  1
  Nb  Nb4_7  1  0.50000000  0.66516641  0.95748915  1
  Nb  Nb5_0  1  0.00000000  0.33483359  0.04251085  1
  Nb  Nb5_1  1  0.00000000  0.33483359  0.54251085  1
  Nb  Nb5_2  1  0.00000000  0.83483359  0.04251085  1
  Nb  Nb5_3  1  0.00000000  0.83483359  0.54251085  1
  Nb  Nb5_4  1  0.50000000  0.33483359  0.04251085  1
  Nb  Nb5_5  1  0.50000000  0.33483359  0.54251085  1
  Nb  Nb5_6  1  0.50000000  0.83483359  0.04251085  1
  Nb  Nb5_7  1  0.50000000  0.83483359  0.54251085  1
  Ir  Ir0_0  1  0.25000000  0.26737682  0.12500000  1
  Ir  Ir0_1  1  0.25000000  0.26737682  0.62500000  1
  Ir  Ir0_2  1  0.25000000  0.76737682  0.12500000  1
  Ir  Ir0_3  1  0.25000000  0.76737682  0.62500000  1
  Ir  Ir0_4  1  0.75000000  0.26737682  0.12500000  1
  Ir  Ir0_5  1  0.75000000  0.26737682  0.62500000  1
  Ir  Ir0_6  1  0.75000000  0.76737682  0.12500000  1
  Ir  Ir0_7  1  0.75000000  0.76737682  0.62500000  1
  Ir  Ir1_0  1  0.25000000  0.23262317  0.37500000  1
  Ir  Ir1_1  1  0.25000000  0.23262317  0.87500000  1
  Ir  Ir1_2  1  0.25000000  0.73262317  0.37500000  1
  Ir  Ir1_3  1  0.25000000  0.73262317  0.87500000  1
  Ir  Ir1_4  1  0.75000000  0.23262317  0.37500000  1
  Ir  Ir1_5  1  0.75000000  0.23262317  0.87500000  1
  Ir  Ir1_6  1  0.75000000  0.73262317  0.37500000  1
  Ir  Ir1_7  1  0.75000000  0.73262317  0.87500000  1
  Ir  Ir2_0  1  0.25000000  0.41408316  0.29127472  1
  Ir  Ir2_1  1  0.25000000  0.41408316  0.79127472  1
  Ir  Ir2_2  1  0.25000000  0.91408316  0.29127472  1
  Ir  Ir2_3  1  0.25000000  0.91408316  0.79127472  1
  Ir  Ir2_4  1  0.75000000  0.41408316  0.29127472  1
  Ir  Ir2_5  1  0.75000000  0.41408316  0.79127472  1
  Ir  Ir2_6  1  0.75000000  0.91408316  0.29127472  1
  Ir  Ir2_7  1  0.75000000  0.91408316  0.79127472  1
  Ir  Ir3_0  1  0.25000000  0.08591685  0.20872529  1
  Ir  Ir3_1  1  0.25000000  0.08591685  0.70872528  1
  Ir  Ir3_2  1  0.25000000  0.58591684  0.20872529  1
  Ir  Ir3_3  1  0.25000000  0.58591684  0.70872528  1
  Ir  Ir3_4  1  0.75000000  0.08591685  0.20872529  1
  Ir  Ir3_5  1  0.75000000  0.08591685  0.70872528  1
  Ir  Ir3_6  1  0.75000000  0.58591684  0.20872529  1
  Ir  Ir3_7  1  0.75000000  0.58591684  0.70872528  1
  Ir  Ir4_0  1  0.25000000  0.41408316  0.45872528  1
  Ir  Ir4_1  1  0.25000000  0.41408316  0.95872528  1
  Ir  Ir4_2  1  0.25000000  0.91408316  0.45872528  1
  Ir  Ir4_3  1  0.25000000  0.91408316  0.95872528  1
  Ir  Ir4_4  1  0.75000000  0.41408316  0.45872528  1
  Ir  Ir4_5  1  0.75000000  0.41408316  0.95872528  1
  Ir  Ir4_6  1  0.75000000  0.91408316  0.45872528  1
  Ir  Ir4_7  1  0.75000000  0.91408316  0.95872528  1
  Ir  Ir5_0  1  0.25000000  0.08591685  0.04127472  1
  Ir  Ir5_1  1  0.25000000  0.08591685  0.54127472  1
  Ir  Ir5_2  1  0.25000000  0.58591684  0.04127472  1
  Ir  Ir5_3  1  0.25000000  0.58591684  0.54127472  1
  Ir  Ir5_4  1  0.75000000  0.08591685  0.04127472  1
  Ir  Ir5_5  1  0.75000000  0.08591685  0.54127472  1
  Ir  Ir5_6  1  0.75000000  0.58591684  0.04127472  1
  Ir  Ir5_7  1  0.75000000  0.58591684  0.54127472  1
loop_
_geom_bond_atom_site_label_1
_geom_bond_atom_site_label_2
_geom_bond_distance
_geom_bond_site_symmetry_2
Nb0_0 Nb0_4 2.869648 1_455
Nb0_0 Nb0_4 2.869648 1_555
Nb0_0 Nb3_2 2.919396 1_545
Nb0_0 Nb5_2 2.919396 1_545
Nb0_1 Nb0_5 2.869648 1_455
Nb0_1 Nb0_5 2.869648 1_555
Nb0_1 Nb3_3 2.919396 1_545
Nb0_1 Nb5_3 2.919396 1_545
Nb0_2 Nb0_6 2.869648 1_455
Nb0_2 Nb0_6 2.869648 1_555
Nb0_2 Nb3_0 2.919396 1_555
Nb0_2 Nb5_0 2.919396 1_555
Nb0_3 Nb0_7 2.869648 1_455
Nb0_3 Nb0_7 2.869648 1_555
Nb0_3 Nb3_1 2.919396 1_555
Nb0_3 Nb5_1 2.919396 1_555
Nb0_4 Nb3_6 2.919396 1_545
Nb0_4 Nb5_6 2.919396 1_545
Nb0_5 Nb3_7 2.919396 1_545
Nb0_5 Nb5_7 2.919396 1_545
Nb0_6 Nb3_4 2.919396 1_555
Nb0_6 Nb5_4 2.919396 1_555
Nb0_7 Nb3_5 2.919396 1_555
Nb0_7 Nb5_5 2.919396 1_555
Nb1_0 Nb1_4 2.869648 1_555
Nb1_0 Nb1_4 2.869648 1_455
Nb1_0 Nb4_2 2.919396 1_555
Nb1_0 Nb2_2 2.919396 1_555
Nb1_1 Nb1_5 2.869648 1_455
Nb1_1 Nb1_5 2.869648 1_555
Nb1_1 Nb4_3 2.919396 1_555
Nb1_1 Nb2_3 2.919396 1_555
Nb1_2 Nb1_6 2.869648 1_455
Nb1_2 Nb1_6 2.869648 1_555
Nb1_2 Nb4_0 2.919396 1_565
Nb1_2 Nb2_0 2.919396 1_565
Nb1_3 Nb1_7 2.869648 1_555
Nb1_3 Nb1_7 2.869648 1_455
Nb1_3 Nb4_1 2.919396 1_565
Nb1_3 Nb2_1 2.919396 1_565
Nb1_4 Nb4_6 2.919396 1_555
Nb1_4 Nb2_6 2.919396 1_555
Nb1_5 Nb4_7 2.919396 1_555
Nb1_5 Nb2_7 2.919396 1_555
Nb1_6 Nb4_4 2.919396 1_565
Nb1_6 Nb2_4 2.919396 1_565
Nb1_7 Nb4_5 2.919396 1_565
Nb1_7 Nb2_5 2.919396 1_565
Nb2_0 Nb2_4 2.869648 1_455
Nb2_0 Nb2_4 2.869648 1_555
Nb2_0 Nb3_0 2.870325 1_555
Nb2_1 Nb2_5 2.869648 1_555
Nb2_1 Nb2_5 2.869648 1_455
Nb2_1 Nb3_1 2.870325 1_555
Nb2_2 Nb2_6 2.869648 1_555
Nb2_2 Nb2_6 2.869648 1_455
Nb2_2 Nb3_2 2.870325 1_555
Nb2_3 Nb2_7 2.869648 1_455
Nb2_3 Nb2_7 2.869648 1_555
Nb2_3 Nb3_3 2.870325 1_555
Nb2_4 Nb3_4 2.870325 1_555
Nb2_5 Nb3_5 2.870325 1_555
Nb2_6 Nb3_6 2.870325 1_555
Nb2_7 Nb3_7 2.870325 1_555
Nb3_0 Nb3_4 2.869648 1_555
Nb3_0 Nb3_4 2.869648 1_455
Nb3_1 Nb3_5 2.869648 1_455
Nb3_1 Nb3_5 2.869648 1_555
Nb3_2 Nb3_6 2.869648 1_455
Nb3_2 Nb3_6 2.869648 1_555
Nb3_3 Nb3_7 2.869648 1_555
Nb3_3 Nb3_7 2.869648 1_455
Nb4_0 Nb4_4 2.869648 1_455
Nb4_0 Nb4_4 2.869648 1_555
Nb4_0 Nb5_1 2.870325 1_555
Nb4_1 Nb4_5 2.869648 1_555
Nb4_1 Nb4_5 2.869648 1_455
Nb4_1 Nb5_0 2.870325 1_556
Nb4_2 Nb4_6 2.869648 1_455
Nb4_2 Nb4_6 2.869648 1_555
Nb4_2 Nb5_3 2.870325 1_555
Nb4_3 Nb4_7 2.869648 1_455
Nb4_3 Nb4_7 2.869648 1_555
Nb4_3 Nb5_2 2.870325 1_556
Nb4_4 Nb5_5 2.870325 1_555
Nb4_5 Nb5_4 2.870325 1_556
Nb4_6 Nb5_7 2.870325 1_555
Nb4_7 Nb5_6 2.870325 1_556
Nb5_0 Nb5_4 2.869648 1_555
Nb5_0 Nb5_4 2.869648 1_455
Nb5_1 Nb5_5 2.869648 1_555
Nb5_1 Nb5_5 2.869648 1_455
Nb5_2 Nb5_6 2.869648 1_455
Nb5_2 Nb5_6 2.869648 1_555
Nb5_3 Nb5_7 2.869648 1_555
Nb5_3 Nb5_7 2.869648 1_455
Ir0_0 Nb3_4 2.772115 1_555
Ir0_0 Nb3_0 2.772115 1_555
Ir0_0 Nb5_0 2.772115 1_555
Ir0_0 Nb5_4 2.772115 1_555
Ir0_0 Nb0_0 2.778660 1_555
Ir0_0 Nb0_4 2.778660 1_555
Ir0_0 Nb0_6 2.864703 1_555
Ir0_0 Nb0_2 2.864703 1_555
Ir0_0 Ir0_4 2.869648 1_455
Ir0_0 Ir0_4 2.869648 1_555
Ir0_0 Ir5_0 2.909083 1_555
Ir0_0 Ir3_0 2.909083 1_555
Ir0_1 Nb3_1 2.772115 1_555
Ir0_1 Nb3_5 2.772115 1_555
Ir0_1 Nb5_1 2.772115 1_555
Ir0_1 Nb5_5 2.772115 1_555
Ir0_1 Nb0_1 2.778660 1_555
Ir0_1 Nb0_5 2.778660 1_555
Ir0_1 Nb0_3 2.864703 1_555
Ir0_1 Nb0_7 2.864703 1_555
Ir0_1 Ir0_5 2.869648 1_455
Ir0_1 Ir0_5 2.869648 1_555
Ir0_1 Ir3_1 2.909083 1_555
Ir0_1 Ir5_1 2.909083 1_555
Ir0_2 Nb3_6 2.772115 1_555
Ir0_2 Nb3_2 2.772115 1_555
Ir0_2 Nb5_6 2.772115 1_555
Ir0_2 Nb5_2 2.772115 1_555
Ir0_2 Nb0_2 2.778660 1_555
Ir0_2 Nb0_6 2.778660 1_555
Ir0_2 Nb0_0 2.864703 1_565
Ir0_2 Nb0_4 2.864703 1_565
Ir0_2 Ir0_6 2.869648 1_455
Ir0_2 Ir0_6 2.869648 1_555
Ir0_2 Ir5_2 2.909083 1_555
Ir0_2 Ir3_2 2.909083 1_555
Ir0_3 Nb3_3 2.772115 1_555
Ir0_3 Nb3_7 2.772115 1_555
Ir0_3 Nb5_3 2.772115 1_555
Ir0_3 Nb5_7 2.772115 1_555
Ir0_3 Nb0_7 2.778660 1_555
Ir0_3 Nb0_3 2.778660 1_555
Ir0_3 Nb0_1 2.864703 1_565
Ir0_3 Nb0_5 2.864703 1_565
Ir0_3 Ir0_7 2.869648 1_455
Ir0_3 Ir0_7 2.869648 1_555
Ir0_3 Ir3_3 2.909083 1_555
Ir0_3 Ir5_3 2.909083 1_555
Ir0_4 Nb3_0 2.772115 1_655
Ir0_4 Nb3_4 2.772115 1_555
Ir0_4 Nb5_0 2.772115 1_655
Ir0_4 Nb5_4 2.772115 1_555
Ir0_4 Nb0_0 2.778660 1_655
Ir0_4 Nb0_4 2.778660 1_555
Ir0_4 Nb0_2 2.864703 1_655
Ir0_4 Nb0_6 2.864703 1_555
Ir0_4 Ir5_4 2.909083 1_555
Ir0_4 Ir3_4 2.909083 1_555
Ir0_5 Nb3_1 2.772115 1_655
Ir0_5 Nb3_5 2.772115 1_555
Ir0_5 Nb5_1 2.772115 1_655
Ir0_5 Nb5_5 2.772115 1_555
Ir0_5 Nb0_1 2.778660 1_655
Ir0_5 Nb0_5 2.778660 1_555
Ir0_5 Nb0_3 2.864703 1_655
Ir0_5 Nb0_7 2.864703 1_555
Ir0_5 Ir3_5 2.909083 1_555
Ir0_5 Ir5_5 2.909083 1_555
Ir0_6 Nb3_2 2.772115 1_655
Ir0_6 Nb3_6 2.772115 1_555
Ir0_6 Nb5_2 2.772115 1_655
Ir0_6 Nb5_6 2.772115 1_555
Ir0_6 Nb0_2 2.778660 1_655
Ir0_6 Nb0_6 2.778660 1_555
Ir0_6 Nb0_0 2.864703 1_665
Ir0_6 Nb0_4 2.864703 1_565
Ir0_6 Ir5_6 2.909083 1_555
Ir0_6 Ir3_6 2.909083 1_555
Ir0_7 Nb3_3 2.772115 1_655
Ir0_7 Nb3_7 2.772115 1_555
Ir0_7 Nb5_3 2.772115 1_655
Ir0_7 Nb5_7 2.772115 1_555
Ir0_7 Nb0_3 2.778660 1_655
Ir0_7 Nb0_7 2.778660 1_555
Ir0_7 Nb0_1 2.864703 1_665
Ir0_7 Nb0_5 2.864703 1_565
Ir0_7 Ir5_7 2.909083 1_555
Ir0_7 Ir3_7 2.909083 1_555
Ir1_0 Nb4_0 2.772115 1_555
Ir1_0 Nb4_4 2.772115 1_555
Ir1_0 Nb2_0 2.772115 1_555
Ir1_0 Nb2_4 2.772115 1_555
Ir1_0 Nb1_0 2.778660 1_555
Ir1_0 Nb1_4 2.778660 1_555
Ir1_0 Nb1_6 2.864703 1_545
Ir1_0 Nb1_2 2.864703 1_545
Ir1_0 Ir1_4 2.869648 1_455
Ir1_0 Ir1_4 2.869648 1_555
Ir1_0 Ir4_0 2.909083 1_555
Ir1_0 Ir2_0 2.909083 1_555
Ir1_1 Nb4_1 2.772115 1_555
Ir1_1 Nb4_5 2.772115 1_555
Ir1_1 Nb2_1 2.772115 1_555
Ir1_1 Nb2_5 2.772115 1_555
Ir1_1 Nb1_5 2.778660 1_555
Ir1_1 Nb1_1 2.778660 1_555
Ir1_1 Nb1_3 2.864703 1_545
Ir1_1 Nb1_7 2.864703 1_545
Ir1_1 Ir1_5 2.869648 1_455
Ir1_1 Ir1_5 2.869648 1_555
Ir1_1 Ir4_1 2.909083 1_555
Ir1_1 Ir2_1 2.909083 1_555
Ir1_2 Nb4_6 2.772115 1_555
Ir1_2 Nb4_2 2.772115 1_555
Ir1_2 Nb2_6 2.772115 1_555
Ir1_2 Nb2_2 2.772115 1_555
Ir1_2 Nb1_2 2.778660 1_555
Ir1_2 Nb1_6 2.778660 1_555
Ir1_2 Nb1_0 2.864703 1_555
Ir1_2 Nb1_4 2.864703 1_555
Ir1_2 Ir1_6 2.869648 1_455
Ir1_2 Ir1_6 2.869648 1_555
Ir1_2 Ir4_2 2.909083 1_555
Ir1_2 Ir2_2 2.909083 1_555
Ir1_3 Nb4_3 2.772115 1_555
Ir1_3 Nb4_7 2.772115 1_555
Ir1_3 Nb2_7 2.772115 1_555
Ir1_3 Nb2_3 2.772115 1_555
Ir1_3 Nb1_3 2.778660 1_555
Ir1_3 Nb1_7 2.778660 1_555
Ir1_3 Nb1_1 2.864703 1_555
Ir1_3 Nb1_5 2.864703 1_555
Ir1_3 Ir1_7 2.869648 1_455
Ir1_3 Ir1_7 2.869648 1_555
Ir1_3 Ir4_3 2.909083 1_555
Ir1_3 Ir2_3 2.909083 1_555
Ir1_4 Nb4_0 2.772115 1_655
Ir1_4 Nb4_4 2.772115 1_555
Ir1_4 Nb2_0 2.772115 1_655
Ir1_4 Nb2_4 2.772115 1_555
Ir1_4 Nb1_0 2.778660 1_655
Ir1_4 Nb1_4 2.778660 1_555
Ir1_4 Nb1_2 2.864703 1_645
Ir1_4 Nb1_6 2.864703 1_545
Ir1_4 Ir4_4 2.909083 1_555
Ir1_4 Ir2_4 2.909083 1_555
Ir1_5 Nb4_1 2.772115 1_655
Ir1_5 Nb4_5 2.772115 1_555
Ir1_5 Nb2_1 2.772115 1_655
Ir1_5 Nb2_5 2.772115 1_555
Ir1_5 Nb1_1 2.778660 1_655
Ir1_5 Nb1_5 2.778660 1_555
Ir1_5 Nb1_3 2.864703 1_645
Ir1_5 Nb1_7 2.864703 1_545
Ir1_5 Ir4_5 2.909083 1_555
Ir1_5 Ir2_5 2.909083 1_555
Ir1_6 Nb4_2 2.772115 1_655
Ir1_6 Nb4_6 2.772115 1_555
Ir1_6 Nb2_2 2.772115 1_655
Ir1_6 Nb2_6 2.772115 1_555
Ir1_6 Nb1_2 2.778660 1_655
Ir1_6 Nb1_6 2.778660 1_555
Ir1_6 Nb1_0 2.864703 1_655
Ir1_6 Nb1_4 2.864703 1_555
Ir1_6 Ir4_6 2.909083 1_555
Ir1_6 Ir2_6 2.909083 1_555
Ir1_7 Nb4_3 2.772115 1_655
Ir1_7 Nb4_7 2.772115 1_555
Ir1_7 Nb2_3 2.772115 1_655
Ir1_7 Nb2_7 2.772115 1_555
Ir1_7 Nb1_3 2.778660 1_655
Ir1_7 Nb1_7 2.778660 1_555
Ir1_7 Nb1_1 2.864703 1_655
Ir1_7 Nb1_5 2.864703 1_555
Ir1_7 Ir4_7 2.909083 1_555
Ir1_7 Ir2_7 2.909083 1_555
Ir2_0 Nb1_0 2.791302 1_555
Ir2_0 Nb1_4 2.791302 1_555
Ir2_0 Nb2_0 2.812715 1_555
Ir2_0 Nb2_4 2.812715 1_555
Ir2_0 Ir3_2 2.827061 1_555
Ir2_0 Nb3_0 2.830657 1_555
Ir2_0 Nb3_4 2.830657 1_555
Ir2_0 Nb2_2 2.830842 1_555
Ir2_0 Nb2_6 2.830842 1_555
Ir2_0 Ir2_4 2.869648 1_455
Ir2_0 Ir2_4 2.869648 1_555
Ir2_1 Nb1_5 2.791302 1_555
Ir2_1 Nb1_1 2.791302 1_555
Ir2_1 Nb2_1 2.812715 1_555
Ir2_1 Nb2_5 2.812715 1_555
Ir2_1 Ir3_3 2.827061 1_555
Ir2_1 Nb3_5 2.830657 1_555
Ir2_1 Nb3_1 2.830657 1_555
Ir2_1 Nb2_3 2.830842 1_555
Ir2_1 Nb2_7 2.830842 1_555
Ir2_1 Ir2_5 2.869648 1_455
Ir2_1 Ir2_5 2.869648 1_555
Ir2_2 Nb1_2 2.791302 1_555
Ir2_2 Nb1_6 2.791302 1_555
Ir2_2 Nb2_2 2.812715 1_555
Ir2_2 Nb2_6 2.812715 1_555
Ir2_2 Ir3_0 2.827061 1_565
Ir2_2 Nb3_2 2.830657 1_555
Ir2_2 Nb3_6 2.830657 1_555
Ir2_2 Nb2_0 2.830842 1_565
Ir2_2 Nb2_4 2.830842 1_565
Ir2_2 Ir2_6 2.869648 1_455
Ir2_2 Ir2_6 2.869648 1_555
Ir2_3 Nb1_3 2.791302 1_555
Ir2_3 Nb1_7 2.791302 1_555
Ir2_3 Nb2_3 2.812715 1_555
Ir2_3 Nb2_7 2.812715 1_555
Ir2_3 Ir3_1 2.827061 1_565
Ir2_3 Nb3_3 2.830657 1_555
Ir2_3 Nb3_7 2.830657 1_555
Ir2_3 Nb2_1 2.830842 1_565
Ir2_3 Nb2_5 2.830842 1_565
Ir2_3 Ir2_7 2.869648 1_455
Ir2_3 Ir2_7 2.869648 1_555
Ir2_4 Nb1_0 2.791302 1_655
Ir2_4 Nb1_4 2.791302 1_555
Ir2_4 Nb2_0 2.812715 1_655
Ir2_4 Nb2_4 2.812715 1_555
Ir2_4 Ir3_6 2.827061 1_555
Ir2_4 Nb3_0 2.830657 1_655
Ir2_4 Nb3_4 2.830657 1_555
Ir2_4 Nb2_2 2.830842 1_655
Ir2_4 Nb2_6 2.830842 1_555
Ir2_5 Nb1_1 2.791302 1_655
Ir2_5 Nb1_5 2.791302 1_555
Ir2_5 Nb2_1 2.812715 1_655
Ir2_5 Nb2_5 2.812715 1_555
Ir2_5 Ir3_7 2.827061 1_555
Ir2_5 Nb3_1 2.830657 1_655
Ir2_5 Nb3_5 2.830657 1_555
Ir2_5 Nb2_3 2.830842 1_655
Ir2_5 Nb2_7 2.830842 1_555
Ir2_6 Nb1_2 2.791302 1_655
Ir2_6 Nb1_6 2.791302 1_555
Ir2_6 Nb2_2 2.812715 1_655
Ir2_6 Nb2_6 2.812715 1_555
Ir2_6 Ir3_4 2.827061 1_565
Ir2_6 Nb3_2 2.830657 1_655
Ir2_6 Nb3_6 2.830657 1_555
Ir2_6 Nb2_0 2.830842 1_665
Ir2_6 Nb2_4 2.830842 1_565
Ir2_7 Nb1_3 2.791302 1_655
Ir2_7 Nb1_7 2.791302 1_555
Ir2_7 Nb2_3 2.812715 1_655
Ir2_7 Nb2_7 2.812715 1_555
Ir2_7 Ir3_5 2.827061 1_565
Ir2_7 Nb3_3 2.830657 1_655
Ir2_7 Nb3_7 2.830657 1_555
Ir2_7 Nb2_1 2.830842 1_665
Ir2_7 Nb2_5 2.830842 1_565
Ir3_0 Nb0_0 2.791302 1_555
Ir3_0 Nb0_4 2.791302 1_555
Ir3_0 Nb3_0 2.812715 1_555
Ir3_0 Nb3_4 2.812715 1_555
Ir3_0 Nb2_0 2.830657 1_555
Ir3_0 Nb2_4 2.830657 1_555
Ir3_0 Nb3_2 2.830842 1_545
Ir3_0 Nb3_6 2.830842 1_545
Ir3_0 Ir3_4 2.869648 1_455
Ir3_0 Ir3_4 2.869648 1_555
Ir3_1 Nb0_1 2.791302 1_555
Ir3_1 Nb0_5 2.791302 1_555
Ir3_1 Nb3_5 2.812715 1_555
Ir3_1 Nb3_1 2.812715 1_555
Ir3_1 Nb2_5 2.830657 1_555
Ir3_1 Nb2_1 2.830657 1_555
Ir3_1 Nb3_7 2.830842 1_545
Ir3_1 Nb3_3 2.830842 1_545
Ir3_1 Ir3_5 2.869648 1_455
Ir3_1 Ir3_5 2.869648 1_555
Ir3_2 Nb0_6 2.791302 1_555
Ir3_2 Nb0_2 2.791302 1_555
Ir3_2 Nb3_6 2.812715 1_555
Ir3_2 Nb3_2 2.812715 1_555
Ir3_2 Nb2_6 2.830657 1_555
Ir3_2 Nb2_2 2.830657 1_555
Ir3_2 Nb3_0 2.830842 1_555
Ir3_2 Nb3_4 2.830842 1_555
Ir3_2 Ir3_6 2.869648 1_455
Ir3_2 Ir3_6 2.869648 1_555
Ir3_3 Nb0_3 2.791302 1_555
Ir3_3 Nb0_7 2.791302 1_555
Ir3_3 Nb3_3 2.812715 1_555
Ir3_3 Nb3_7 2.812715 1_555
Ir3_3 Nb2_3 2.830657 1_555
Ir3_3 Nb2_7 2.830657 1_555
Ir3_3 Nb3_5 2.830842 1_555
Ir3_3 Nb3_1 2.830842 1_555
Ir3_3 Ir3_7 2.869648 1_455
Ir3_3 Ir3_7 2.869648 1_555
Ir3_4 Nb0_0 2.791302 1_655
Ir3_4 Nb0_4 2.791302 1_555
Ir3_4 Nb3_0 2.812715 1_655
Ir3_4 Nb3_4 2.812715 1_555
Ir3_4 Nb2_0 2.830657 1_655
Ir3_4 Nb2_4 2.830657 1_555
Ir3_4 Nb3_2 2.830842 1_645
Ir3_4 Nb3_6 2.830842 1_545
Ir3_5 Nb0_1 2.791302 1_655
Ir3_5 Nb0_5 2.791302 1_555
Ir3_5 Nb3_1 2.812715 1_655
Ir3_5 Nb3_5 2.812715 1_555
Ir3_5 Nb2_1 2.830657 1_655
Ir3_5 Nb2_5 2.830657 1_555
Ir3_5 Nb3_3 2.830842 1_645
Ir3_5 Nb3_7 2.830842 1_545
Ir3_6 Nb0_2 2.791302 1_655
Ir3_6 Nb0_6 2.791302 1_555
Ir3_6 Nb3_2 2.812715 1_655
Ir3_6 Nb3_6 2.812715 1_555
Ir3_6 Nb2_2 2.830657 1_655
Ir3_6 Nb2_6 2.830657 1_555
Ir3_6 Nb3_0 2.830842 1_655
Ir3_6 Nb3_4 2.830842 1_555
Ir3_7 Nb0_3 2.791302 1_655
Ir3_7 Nb0_7 2.791302 1_555
Ir3_7 Nb3_3 2.812715 1_655
Ir3_7 Nb3_7 2.812715 1_555
Ir3_7 Nb2_3 2.830657 1_655
Ir3_7 Nb2_7 2.830657 1_555
Ir3_7 Nb3_1 2.830842 1_655
Ir3_7 Nb3_5 2.830842 1_555
Ir4_0 Nb1_4 2.791302 1_555
Ir4_0 Nb1_0 2.791302 1_555
Ir4_0 Nb4_0 2.812715 1_555
Ir4_0 Nb4_4 2.812715 1_555
Ir4_0 Ir5_3 2.827061 1_555
Ir4_0 Nb5_1 2.830657 1_555
Ir4_0 Nb5_5 2.830657 1_555
Ir4_0 Nb4_2 2.830842 1_555
Ir4_0 Nb4_6 2.830842 1_555
Ir4_0 Ir4_4 2.869648 1_455
Ir4_0 Ir4_4 2.869648 1_555
Ir4_1 Nb1_5 2.791302 1_555
Ir4_1 Nb1_1 2.791302 1_555
Ir4_1 Nb4_1 2.812715 1_555
Ir4_1 Nb4_5 2.812715 1_555
Ir4_1 Ir5_2 2.827061 1_556
Ir4_1 Nb5_0 2.830657 1_556
Ir4_1 Nb5_4 2.830657 1_556
Ir4_1 Nb4_7 2.830842 1_555
Ir4_1 Nb4_3 2.830842 1_555
Ir4_1 Ir4_5 2.869648 1_455
Ir4_1 Ir4_5 2.869648 1_555
Ir4_2 Nb1_2 2.791302 1_555
Ir4_2 Nb1_6 2.791302 1_555
Ir4_2 Nb4_2 2.812715 1_555
Ir4_2 Nb4_6 2.812715 1_555
Ir4_2 Ir5_1 2.827061 1_565
Ir4_2 Nb5_3 2.830657 1_555
Ir4_2 Nb5_7 2.830657 1_555
Ir4_2 Nb4_4 2.830842 1_565
Ir4_2 Nb4_0 2.830842 1_565
Ir4_2 Ir4_6 2.869648 1_455
Ir4_2 Ir4_6 2.869648 1_555
Ir4_3 Nb1_3 2.791302 1_555
Ir4_3 Nb1_7 2.791302 1_555
Ir4_3 Nb4_3 2.812715 1_555
Ir4_3 Nb4_7 2.812715 1_555
Ir4_3 Ir5_0 2.827061 1_566
Ir4_3 Nb5_6 2.830657 1_556
Ir4_3 Nb5_2 2.830657 1_556
Ir4_3 Nb4_1 2.830842 1_565
Ir4_3 Nb4_5 2.830842 1_565
Ir4_3 Ir4_7 2.869648 1_455
Ir4_3 Ir4_7 2.869648 1_555
Ir4_4 Nb1_0 2.791302 1_655
Ir4_4 Nb1_4 2.791302 1_555
Ir4_4 Nb4_0 2.812715 1_655
Ir4_4 Nb4_4 2.812715 1_555
Ir4_4 Ir5_7 2.827061 1_555
Ir4_4 Nb5_1 2.830657 1_655
Ir4_4 Nb5_5 2.830657 1_555
Ir4_4 Nb4_2 2.830842 1_655
Ir4_4 Nb4_6 2.830842 1_555
Ir4_5 Nb1_1 2.791302 1_655
Ir4_5 Nb1_5 2.791302 1_555
Ir4_5 Nb4_1 2.812715 1_655
Ir4_5 Nb4_5 2.812715 1_555
Ir4_5 Ir5_6 2.827061 1_556
Ir4_5 Nb5_0 2.830657 1_656
Ir4_5 Nb5_4 2.830657 1_556
Ir4_5 Nb4_3 2.830842 1_655
Ir4_5 Nb4_7 2.830842 1_555
Ir4_6 Nb1_2 2.791302 1_655
Ir4_6 Nb1_6 2.791302 1_555
Ir4_6 Nb4_2 2.812715 1_655
Ir4_6 Nb4_6 2.812715 1_555
Ir4_6 Ir5_5 2.827061 1_565
Ir4_6 Nb5_3 2.830657 1_655
Ir4_6 Nb5_7 2.830657 1_555
Ir4_6 Nb4_0 2.830842 1_665
Ir4_6 Nb4_4 2.830842 1_565
Ir4_7 Nb1_3 2.791302 1_655
Ir4_7 Nb1_7 2.791302 1_555
Ir4_7 Nb4_3 2.812715 1_655
Ir4_7 Nb4_7 2.812715 1_555
Ir4_7 Ir5_4 2.827061 1_566
Ir4_7 Nb5_2 2.830657 1_656
Ir4_7 Nb5_6 2.830657 1_556
Ir4_7 Nb4_1 2.830842 1_665
Ir4_7 Nb4_5 2.830842 1_565
Ir5_0 Nb0_4 2.791302 1_555
Ir5_0 Nb0_0 2.791302 1_555
Ir5_0 Nb5_0 2.812715 1_555
Ir5_0 Nb5_4 2.812715 1_555
Ir5_0 Nb4_5 2.830657 1_554
Ir5_0 Nb4_1 2.830657 1_554
Ir5_0 Nb5_2 2.830842 1_545
Ir5_0 Nb5_6 2.830842 1_545
Ir5_0 Ir5_4 2.869648 1_455
Ir5_0 Ir5_4 2.869648 1_555
Ir5_1 Nb0_1 2.791302 1_555
Ir5_1 Nb0_5 2.791302 1_555
Ir5_1 Nb5_5 2.812715 1_555
Ir5_1 Nb5_1 2.812715 1_555
Ir5_1 Nb4_0 2.830657 1_555
Ir5_1 Nb4_4 2.830657 1_555
Ir5_1 Nb5_3 2.830842 1_545
Ir5_1 Nb5_7 2.830842 1_545
Ir5_1 Ir5_5 2.869648 1_455
Ir5_1 Ir5_5 2.869648 1_555
Ir5_2 Nb0_2 2.791302 1_555
Ir5_2 Nb0_6 2.791302 1_555
Ir5_2 Nb5_2 2.812715 1_555
Ir5_2 Nb5_6 2.812715 1_555
Ir5_2 Nb4_7 2.830657 1_554
Ir5_2 Nb4_3 2.830657 1_554
Ir5_2 Nb5_0 2.830842 1_555
Ir5_2 Nb5_4 2.830842 1_555
Ir5_2 Ir5_6 2.869648 1_455
Ir5_2 Ir5_6 2.869648 1_555
Ir5_3 Nb0_3 2.791302 1_555
Ir5_3 Nb0_7 2.791302 1_555
Ir5_3 Nb5_7 2.812715 1_555
Ir5_3 Nb5_3 2.812715 1_555
Ir5_3 Nb4_2 2.830657 1_555
Ir5_3 Nb4_6 2.830657 1_555
Ir5_3 Nb5_1 2.830842 1_555
Ir5_3 Nb5_5 2.830842 1_555
Ir5_3 Ir5_7 2.869648 1_455
Ir5_3 Ir5_7 2.869648 1_555
Ir5_4 Nb0_0 2.791302 1_655
Ir5_4 Nb0_4 2.791302 1_555
Ir5_4 Nb5_0 2.812715 1_655
Ir5_4 Nb5_4 2.812715 1_555
Ir5_4 Nb4_1 2.830657 1_654
Ir5_4 Nb4_5 2.830657 1_554
Ir5_4 Nb5_2 2.830842 1_645
Ir5_4 Nb5_6 2.830842 1_545
Ir5_5 Nb0_1 2.791302 1_655
Ir5_5 Nb0_5 2.791302 1_555
Ir5_5 Nb5_1 2.812715 1_655
Ir5_5 Nb5_5 2.812715 1_555
Ir5_5 Nb4_0 2.830657 1_655
Ir5_5 Nb4_4 2.830657 1_555
Ir5_5 Nb5_3 2.830842 1_645
Ir5_5 Nb5_7 2.830842 1_545
Ir5_6 Nb0_2 2.791302 1_655
Ir5_6 Nb0_6 2.791302 1_555
Ir5_6 Nb5_2 2.812715 1_655
Ir5_6 Nb5_6 2.812715 1_555
Ir5_6 Nb4_3 2.830657 1_654
Ir5_6 Nb4_7 2.830657 1_554
Ir5_6 Nb5_0 2.830842 1_655
Ir5_6 Nb5_4 2.830842 1_555
Ir5_7 Nb0_3 2.791302 1_655
Ir5_7 Nb0_7 2.791302 1_555
Ir5_7 Nb5_3 2.812715 1_655
Ir5_7 Nb5_7 2.812715 1_555
Ir5_7 Nb4_2 2.830657 1_655
Ir5_7 Nb4_6 2.830657 1_555
Ir5_7 Nb5_1 2.830842 1_655
Ir5_7 Nb5_5 2.830842 1_555
