# generated using pymatgen
data_KAlN4
_symmetry_space_group_name_H-M   'P 1'
_cell_length_a   5.58253108
_cell_length_b   5.58253108
_cell_length_c   9.69236400
_cell_angle_alpha   90.00000000
_cell_angle_beta   90.00000000
_cell_angle_gamma   121.60540157
_symmetry_Int_Tables_number   1
_chemical_formula_structural   KAlN4
_chemical_formula_sum   'K2 Al2 N8'
_cell_volume   257.25700258
_cell_formula_units_Z   2
loop_
 _symmetry_equiv_pos_site_id
 _symmetry_equiv_pos_as_xyz
  1  'x, y, z'
loop_
 _atom_site_type_symbol
 _atom_site_label
 _atom_site_symmetry_multiplicity
 _atom_site_fract_x
 _atom_site_fract_y
 _atom_site_fract_z
 _atom_site_occupancy
  K  K0  1  0.78018500  0.21981500  0.25000000  1
  K  K1  1  0.21981500  0.78018500  0.75000000  1
  Al  Al0  1  0.54495100  0.54495100  0.50000000  1
  Al  Al1  1  0.45504900  0.45504900  0.00000000  1
  N  N0  1  0.76667000  0.72500400  0.33849700  1
  N  N1  1  0.27499600  0.23333000  0.16150300  1
  N  N2  1  0.23333000  0.27499600  0.83849700  1
  N  N3  1  0.72500400  0.76667000  0.66150300  1
  N  N4  1  0.50331200  0.18341300  0.52384800  1
  N  N5  1  0.81658700  0.49668800  0.97615200  1
  N  N6  1  0.49668800  0.81658700  0.02384800  1
  N  N7  1  0.18341300  0.50331200  0.47615200  1
loop_
_geom_bond_atom_site_label_1
_geom_bond_atom_site_label_2
_geom_bond_distance
_geom_bond_site_symmetry_2
K0 N1 2.855393 1_655
K0 N0 2.855393 1_545
K0 N7 2.939809 1_655
K0 N6 2.939809 1_545
K0 N0 2.986328 1_555
K0 N1 2.986328 1_555
K0 N4 3.024249 1_555
K0 N5 3.024249 1_554
K1 N2 2.855393 1_565
K1 N3 2.855393 1_455
K1 N5 2.939809 1_455
K1 N4 2.939809 1_565
K1 N3 2.986328 1_555
K1 N2 2.986328 1_555
K1 N6 3.024249 1_556
K1 N7 3.024249 1_555
Al0 N3 1.920588 1_555
Al0 N0 1.920588 1_555
Al0 N4 1.920741 1_555
Al0 N7 1.920741 1_555
Al1 N1 1.920588 1_555
Al1 N2 1.920588 1_554
Al1 N6 1.920741 1_555
Al1 N5 1.920741 1_554
