# generated using pymatgen
data_ErScGe
_symmetry_space_group_name_H-M   'P 1'
_cell_length_a   6.08481404
_cell_length_b   8.74864408
_cell_length_c   9.07621044
_cell_angle_alpha   58.75561729
_cell_angle_beta   89.99916447
_cell_angle_gamma   89.98899652
_symmetry_Int_Tables_number   1
_chemical_formula_structural   ErScGe
_chemical_formula_sum   'Er6 Sc6 Ge6'
_cell_volume   413.08534439
_cell_formula_units_Z   6
loop_
 _symmetry_equiv_pos_site_id
 _symmetry_equiv_pos_as_xyz
  1  'x, y, z'
loop_
 _atom_site_type_symbol
 _atom_site_label
 _atom_site_symmetry_multiplicity
 _atom_site_fract_x
 _atom_site_fract_y
 _atom_site_fract_z
 _atom_site_occupancy
  Er  Er0  1  0.74982800  0.25529200  0.72017500  1
  Er  Er1  1  0.75013800  0.74470100  0.97576000  1
  Er  Er2  1  0.75000300  0.99988800  0.28987900  1
  Er  Er3  1  0.25001900  0.73812100  0.26659200  1
  Er  Er4  1  0.25000900  0.26176100  0.00483900  1
  Er  Er5  1  0.25000300  0.00001400  0.73674400  1
  Sc  Sc0  1  0.49867900  0.31330500  0.34591100  1
  Sc  Sc1  1  0.49863000  0.68661200  0.65915300  1
  Sc  Sc2  1  0.00140500  0.68674500  0.65904900  1
  Sc  Sc3  1  0.00131800  0.31333600  0.34586000  1
  Sc  Sc4  1  0.75005500  0.61147100  0.38403500  1
  Sc  Sc5  1  0.74990600  0.38852200  0.99562700  1
  Ge  Ge0  1  0.52422900  0.00009700  0.01404200  1
  Ge  Ge1  1  0.97577400  0.00017200  0.01400500  1
  Ge  Ge2  1  0.74998600  0.99995200  0.60671500  1
  Ge  Ge3  1  0.24992200  0.39872700  0.59455500  1
  Ge  Ge4  1  0.25009600  0.60124100  0.99338000  1
  Ge  Ge5  1  0.25000100  0.00004200  0.39368200  1
loop_
_geom_bond_atom_site_label_1
_geom_bond_atom_site_label_2
_geom_bond_distance
_geom_bond_site_symmetry_2
Er0 Ge0 2.794020 1_556
Er0 Ge1 2.794295 1_556
Er0 Ge2 2.904665 1_545
Er0 Sc4 3.025837 1_555
Er0 Sc5 3.260649 1_555
Er0 Ge3 3.262179 1_555
Er0 Ge3 3.263664 1_655
Er1 Ge1 2.794073 1_566
Er1 Ge0 2.794076 1_566
Er1 Ge2 2.906315 1_555
Er1 Sc5 3.026484 1_555
Er1 Sc4 3.257202 1_556
Er1 Ge4 3.262793 1_655
Er1 Ge4 3.263714 1_555
Er2 Ge1 2.854852 1_565
Er2 Ge0 2.854899 1_565
Er2 Ge2 2.875961 1_555
Er2 Sc4 3.043851 1_555
Er2 Sc5 3.045146 1_564
Er2 Ge5 3.185149 1_565
Er2 Ge5 3.185152 1_665
Er3 Ge0 2.800446 1_565
Er3 Ge1 2.800479 1_465
Er3 Ge3 2.916865 1_555
Er3 Ge5 3.053407 1_565
Er3 Sc4 3.224098 1_455
Er3 Sc4 3.224139 1_555
Er3 Ge4 3.265518 1_554
Er4 Ge0 2.798529 1_555
Er4 Ge1 2.798712 1_455
Er4 Ge4 2.917399 1_554
Er4 Ge5 3.052082 1_555
Er4 Sc5 3.224030 1_554
Er4 Sc5 3.224813 1_454
Er4 Ge3 3.267076 1_554
Er5 Ge1 3.020015 1_456
Er5 Ge0 3.020041 1_556
Er5 Ge3 3.027061 1_555
Er5 Ge4 3.027668 1_545
Er5 Ge5 3.113576 1_555
Er5 Ge2 3.263276 1_545
Er5 Ge2 3.263502 1_445
Sc0 Sc4 3.194019 1_555
Sc0 Sc5 3.272223 1_554
Sc1 Sc5 3.194030 1_555
Sc1 Sc4 3.272641 1_555
Sc2 Sc5 3.195993 1_455
Sc2 Sc4 3.272456 1_455
Sc3 Sc4 3.193215 1_455
Sc3 Sc5 3.272355 1_454
Ge0 Sc5 3.588024 1_554
Ge0 Sc4 3.588730 1_545
Ge1 Sc5 3.587515 1_554
Ge1 Sc4 3.589396 1_545
Ge2 Sc2 2.953402 1_655
Ge2 Sc0 2.953572 1_565
Ge2 Sc1 2.954421 1_555
Ge2 Sc3 2.954448 1_665
Ge3 Sc3 3.113068 1_555
Ge3 Sc0 3.113123 1_555
Ge3 Sc2 3.241478 1_555
Ge3 Sc1 3.242017 1_555
Ge3 Sc4 3.560212 1_455
Ge3 Sc4 3.562158 1_555
Ge4 Sc1 3.113998 1_555
Ge4 Sc2 3.114858 1_555
Ge4 Sc0 3.241694 1_556
Ge4 Sc3 3.242314 1_556
Ge4 Sc5 3.559692 1_555
Ge4 Sc5 3.562278 1_455
Ge5 Sc2 2.958876 1_545
Ge5 Sc3 2.958876 1_555
Ge5 Sc0 2.959316 1_555
Ge5 Sc1 2.959377 1_545
