# generated using pymatgen
data_Na2Al2Si3(HO3)4
_symmetry_space_group_name_H-M   'P 1'
_cell_length_a   7.46116100
_cell_length_b   9.49047185
_cell_length_c   9.99469701
_cell_angle_alpha   117.63907806
_cell_angle_beta   90.28030894
_cell_angle_gamma   95.55656341
_symmetry_Int_Tables_number   1
_chemical_formula_structural   Na2Al2Si3(HO3)4
_chemical_formula_sum   'Na4 Al4 Si6 H8 O24'
_cell_volume   623.02106547
_cell_formula_units_Z   2
loop_
 _symmetry_equiv_pos_site_id
 _symmetry_equiv_pos_as_xyz
  1  'x, y, z'
loop_
 _atom_site_type_symbol
 _atom_site_label
 _atom_site_symmetry_multiplicity
 _atom_site_fract_x
 _atom_site_fract_y
 _atom_site_fract_z
 _atom_site_occupancy
  Na  Na0  1  0.14294400  0.36016200  0.86599000  1
  Na  Na1  1  0.60802400  0.91497300  0.80867000  1
  Na  Na2  1  0.27262300  0.74771600  0.45060500  1
  Na  Na3  1  0.07164800  0.73328000  0.76362700  1
  Al  Al0  1  0.06457900  0.35605900  0.43913600  1
  Al  Al1  1  0.30487500  0.07527900  0.41529500  1
  Al  Al2  1  0.56023700  0.41032400  0.97083500  1
  Al  Al3  1  0.06378300  0.76332600  0.15705900  1
  Si  Si0  1  0.70985500  0.94785900  0.17955900  1
  Si  Si1  1  0.42124500  0.51984400  0.61470200  1
  Si  Si2  1  0.96270700  0.08648600  0.03298000  1
  Si  Si3  1  0.35740200  0.07339400  0.70594100  1
  Si  Si4  1  0.39238300  0.70956600  0.96379100  1
  Si  Si5  1  0.88878600  0.43515100  0.15390300  1
  H  H0  1  0.17378100  0.19592000  0.35370500  1
  H  H1  1  0.57752200  0.44811100  0.41313500  1
  H  H2  1  0.14861500  0.08402600  0.08387500  1
  H  H3  1  0.43305300  0.37547900  0.63043900  1
  H  H4  1  0.77639600  0.58222300  0.95659500  1
  H  H5  1  0.87289600  0.44882800  0.77177900  1
  H  H6  1  0.06558500  0.98737500  0.76987200  1
  H  H7  1  0.79283200  0.59019100  0.48619800  1
  O  O0  1  0.23814600  0.51467100  0.52116900  1
  O  O1  1  0.49324300  0.94517300  0.62040200  1
  O  O2  1  0.42791000  0.67448300  0.78417600  1
  O  O3  1  0.58930100  0.54346300  0.51302400  1
  O  O4  1  0.62593000  0.02102700  0.35087400  1
  O  O5  1  0.42733700  0.22663500  0.87273800  1
  O  O6  1  0.91156100  0.32633800  0.55797600  1
  O  O7  1  0.02672100  0.57370000  0.15197300  1
  O  O8  1  0.54076200  0.86809500  0.05055600  1
  O  O9  1  0.84383700  0.81386400  0.14978700  1
  O  O10  1  0.93528100  0.43914300  0.33156400  1
  O  O11  1  0.50195900  0.13710800  0.34654200  1
  O  O12  1  0.74760600  0.46722700  0.88753400  1
  O  O13  1  0.89736600  0.94491400  0.87003800  1
  O  O14  1  0.92025400  0.60393300  0.45432600  1
  O  O15  1  0.96585300  0.26657800  0.03978800  1
  O  O16  1  0.67393700  0.43392800  0.13948100  1
  O  O17  1  0.18334100  0.95776000  0.72460800  1
  O  O18  1  0.82445000  0.09971900  0.16814100  1
  O  O19  1  0.18258000  0.74384000  0.99342600  1
  O  O20  1  0.27563300  0.15677900  0.60858700  1
  O  O21  1  0.20171500  0.88492400  0.31553000  1
  O  O22  1  0.41907900  0.55877800  0.99291700  1
  O  O23  1  0.98442800  0.45234000  0.71078800  1
loop_
_geom_bond_atom_site_label_1
_geom_bond_atom_site_label_2
_geom_bond_distance
_geom_bond_site_symmetry_2
Na0 O23 2.451891 1_455
Na0 O22 2.531983 1_555
Na0 O5 2.590662 1_555
Na0 O15 2.603580 1_456
Na0 O20 2.666863 1_555
Na0 O7 2.831808 1_556
Na1 O13 2.196367 1_555
Na1 O1 2.210980 1_555
Na1 O2 2.441203 1_555
Na1 O8 2.694626 1_556
Na2 O1 2.350749 1_555
Na2 O21 2.357034 1_555
Na2 O0 2.606538 1_555
Na2 O17 2.669699 1_555
Na2 O14 2.851103 1_455
Na3 O13 2.322398 1_455
Na3 O19 2.392077 1_555
Na3 O17 2.411529 1_555
Na3 O23 2.483044 1_455
Na3 O0 2.753893 1_555
Na3 O2 2.794179 1_555
Na3 O14 2.918194 1_455
Al0 H0 1.656900 1_555
Al0 O6 1.748017 1_455
Al0 O0 1.755630 1_555
Al0 O10 1.905801 1_455
Al1 O21 1.703597 1_545
Al1 O20 1.740259 1_555
Al1 O11 1.787655 1_555
Al1 H0 1.873877 1_555
Al2 O5 1.747434 1_555
Al2 O22 1.773154 1_555
Al2 O16 1.791609 1_556
Al2 O12 1.794861 1_555
Al3 O21 1.719805 1_555
Al3 O9 1.764081 1_455
Al3 O7 1.770980 1_555
Al3 O19 1.805517 1_554
H1 O3 0.984313 1_555
H2 Si2 1.481116 1_455
H3 Si1 1.460422 1_555
H4 O12 0.983813 1_555
H5 O23 1.040979 1_555
H5 O12 1.448316 1_555
H5 Na0 2.588310 1_655
H6 O17 0.994651 1_555
H6 O13 1.740286 1_455
H6 Na3 2.388030 1_555
H7 O14 1.019726 1_555
H7 O3 1.599536 1_555
O0 Si1 1.635412 1_555
O1 Si3 1.587778 1_565
O2 Si1 1.644402 1_555
O2 Si4 1.694414 1_555
O3 Si1 1.680662 1_555
O4 Si0 1.672609 1_545
O5 Si3 1.661807 1_555
O7 Si5 1.596918 1_455
O8 Si4 1.642789 1_554
O8 Si0 1.649466 1_555
O9 Si0 1.613394 1_555
O10 O14 1.489585 1_555
O10 Si5 1.789913 1_555
O13 Si2 1.590707 1_566
O15 Si5 1.637858 1_555
O15 Si2 1.676519 1_555
O16 Si5 1.607227 1_555
O17 Si3 1.685849 1_565
O18 Si0 1.654118 1_545
O18 Si2 1.669165 1_555
O19 Si4 1.630241 1_555
O20 Si3 1.657514 1_555
O22 Si4 1.616620 1_555
