# generated using pymatgen
data_SrYCoO4
_symmetry_space_group_name_H-M   'P 1'
_cell_length_a   3.81686044
_cell_length_b   14.63072070
_cell_length_c   6.83111072
_cell_angle_alpha   79.15460831
_cell_angle_beta   106.20709019
_cell_angle_gamma   97.54565031
_symmetry_Int_Tables_number   1
_chemical_formula_structural   SrYCoO4
_chemical_formula_sum   'Sr4 Y4 Co4 O16'
_cell_volume   358.51166456
_cell_formula_units_Z   4
loop_
 _symmetry_equiv_pos_site_id
 _symmetry_equiv_pos_as_xyz
  1  'x, y, z'
loop_
 _atom_site_type_symbol
 _atom_site_label
 _atom_site_symmetry_multiplicity
 _atom_site_fract_x
 _atom_site_fract_y
 _atom_site_fract_z
 _atom_site_occupancy
  Sr  Sr0  1  0.64625300  0.41160400  0.88073100  1
  Sr  Sr1  1  0.64805100  0.66036700  0.63306100  1
  Sr  Sr2  1  0.64505700  0.91188500  0.37936100  1
  Sr  Sr3  1  0.64421600  0.16195600  0.12785800  1
  Y  Y0  1  0.35439200  0.59368400  0.12480200  1
  Y  Y1  1  0.36275100  0.84200800  0.88597200  1
  Y  Y2  1  0.36197200  0.08723100  0.62779400  1
  Y  Y3  1  0.35646800  0.33907900  0.37348600  1
  Co  Co0  1  0.99841900  0.74920400  0.25121600  1
  Co  Co1  1  0.00016500  0.00126800  0.99791300  1
  Co  Co2  1  0.99630100  0.49906500  0.49371900  1
  Co  Co3  1  0.99826700  0.24951600  0.74600700  1
  O  O0  1  0.83742400  0.44970200  0.22077200  1
  O  O1  1  0.83859500  0.69431300  0.97717100  1
  O  O2  1  0.83236000  0.97170300  0.69745600  1
  O  O3  1  0.83362000  0.21503100  0.45295400  1
  O  O4  1  0.18421900  0.54554000  0.82407900  1
  O  O5  1  0.18687600  0.79880800  0.57688700  1
  O  O6  1  0.18199800  0.04422700  0.31644300  1
  O  O7  1  0.18109300  0.29432400  0.06658900  1
  O  O8  1  0.48315400  0.49526700  0.47090100  1
  O  O9  1  0.48597200  0.74779900  0.22633500  1
  O  O10  1  0.48586400  0.99578400  0.97500200  1
  O  O11  1  0.48257500  0.24668600  0.71769300  1
  O  O12  1  0.99902500  0.62181500  0.37699100  1
  O  O13  1  0.97852300  0.86991300  0.08886200  1
  O  O14  1  0.99537800  0.12699300  0.86345100  1
  O  O15  1  0.00101600  0.37522900  0.62649200  1
loop_
_geom_bond_atom_site_label_1
_geom_bond_atom_site_label_2
_geom_bond_distance
_geom_bond_site_symmetry_2
Co0 O13 1.898913 1_555
Co0 O12 1.899825 1_555
Co0 O9 1.913161 1_555
Co0 O9 1.918401 1_655
Co0 O1 2.078753 1_554
Co0 O5 2.360206 1_655
Co1 O14 1.895053 1_455
Co1 O13 1.903637 1_446
Co1 O10 1.916619 1_545
Co1 O10 1.917347 1_445
Co1 O2 2.082647 1_445
Co1 O6 2.273415 1_556
Co2 O12 1.822657 1_555
Co2 O15 1.867259 1_655
Co2 O8 1.915149 1_555
Co2 O8 1.916388 1_655
Co2 O0 2.031347 1_555
Co2 O4 2.369689 1_655
Co3 O14 1.820912 1_555
Co3 O15 1.866601 1_655
Co3 O11 1.918048 1_655
Co3 O11 1.918989 1_555
Co3 O3 2.061930 1_555
Co3 O7 2.297735 1_656
O0 Sr0 2.381821 1_554
O0 Y3 2.585668 1_655
O0 Y3 2.594431 1_555
O0 Y0 2.805640 1_655
O0 Y0 2.844659 1_555
O1 Sr1 2.385650 1_555
O1 Y0 2.480867 1_656
O1 Y0 2.523350 1_556
O1 Y1 2.848475 1_655
O1 Y1 2.872063 1_555
O2 Sr2 2.383878 1_555
O2 Y2 2.514815 1_565
O2 Y2 2.550811 1_665
O2 Y1 2.819127 1_555
O2 Y1 2.826893 1_655
O3 Sr3 2.379653 1_555
O3 Y3 2.617420 1_555
O3 Y3 2.617999 1_655
O3 Y2 2.763913 1_555
O3 Y2 2.791937 1_655
O4 Y0 2.194905 1_556
O4 Sr1 2.701942 1_455
O4 Sr0 2.703217 1_455
O4 Sr0 2.709421 1_555
O4 Sr1 2.709758 1_555
O5 Y1 2.215325 1_555
O5 Sr2 2.708019 1_555
O5 Sr2 2.708382 1_455
O5 Sr1 2.744733 1_455
O5 Sr1 2.759555 1_555
O6 Y2 2.228416 1_555
O6 Sr2 2.686857 1_545
O6 Sr2 2.696355 1_445
O6 Sr3 2.715602 1_555
O6 Sr3 2.730786 1_455
O7 Y3 2.211343 1_555
O7 Sr3 2.689142 1_555
O7 Sr3 2.693765 1_455
O7 Sr0 2.710501 1_554
O7 Sr0 2.716045 1_454
O8 Y3 2.449684 1_555
O8 Y0 2.482066 1_555
O8 Sr0 2.767892 1_555
O8 Sr1 2.770644 1_555
O9 Y1 2.425027 1_554
O9 Y0 2.431900 1_555
O9 Sr2 2.726168 1_555
O9 Sr1 2.765752 1_555
O10 Y1 2.393795 1_555
O10 Y2 2.446443 1_565
O10 Sr2 2.736577 1_556
O10 Sr3 2.753822 1_566
O11 Y3 2.435296 1_555
O11 Y2 2.476075 1_555
O11 Sr0 2.771211 1_555
O11 Sr3 2.774301 1_556
O12 Y0 2.587433 1_655
O12 Y0 2.612632 1_555
O12 Sr1 2.655259 1_555
O12 Sr1 2.664604 1_655
O13 Y1 2.396487 1_654
O13 Y1 2.398774 1_554
O13 Sr2 2.829992 1_555
O13 Sr2 2.831507 1_655
O14 Y2 2.566183 1_555
O14 Y2 2.590625 1_655
O14 Sr3 2.678655 1_656
O14 Sr3 2.683218 1_556
O15 Y3 2.635887 1_455
O15 Y3 2.636065 1_555
O15 Sr0 2.642110 1_555
O15 Sr0 2.642508 1_455
