# generated using pymatgen
data_GdInAu
_symmetry_space_group_name_H-M   'P 1'
_cell_length_a   7.71690078
_cell_length_b   7.71692124
_cell_length_c   4.06601748
_cell_angle_alpha   90.00000000
_cell_angle_beta   90.00000000
_cell_angle_gamma   119.99991529
_symmetry_Int_Tables_number   1
_chemical_formula_structural   GdInAu
_chemical_formula_sum   'Gd3 In3 Au3'
_cell_volume   209.69459084
_cell_formula_units_Z   3
loop_
 _symmetry_equiv_pos_site_id
 _symmetry_equiv_pos_as_xyz
  1  'x, y, z'
loop_
 _atom_site_type_symbol
 _atom_site_label
 _atom_site_symmetry_multiplicity
 _atom_site_fract_x
 _atom_site_fract_y
 _atom_site_fract_z
 _atom_site_occupancy
  Gd  Gd0  1  -0.00000026  0.40743555  0.50000000  1
  Gd  Gd1  1  0.59256419  0.59256445  0.50000000  1
  Gd  Gd2  1  0.40743570  0.00000000  0.50000000  1
  In  In0  1  0.99999946  0.74313541  -0.00000000  1
  In  In1  1  0.25686405  0.25686459  -0.00000000  1
  In  In2  1  0.74313558  -0.00000000  -0.00000000  1
  Au  Au0  1  0.00000063  -0.00000000  0.50000000  1
  Au  Au1  1  0.33333282  0.66666699  -0.00000000  1
  Au  Au2  1  0.66666683  0.33333301  -0.00000000  1
loop_
_geom_bond_atom_site_label_1
_geom_bond_atom_site_label_2
_geom_bond_distance
_geom_bond_site_symmetry_2
Gd0 In0 3.293050 1_455
Gd0 In0 3.293050 1_456
Gd0 In1 3.422797 1_555
Gd0 In1 3.422797 1_556
Gd0 In2 3.422804 1_455
Gd0 In2 3.422804 1_456
Gd1 In1 3.293050 1_555
Gd1 In1 3.293050 1_556
Gd1 In0 3.422797 1_556
Gd1 In0 3.422797 1_555
Gd1 In2 3.422804 1_566
Gd1 In2 3.422804 1_565
Gd2 In2 3.293044 1_556
Gd2 In2 3.293044 1_555
Gd2 In0 3.422804 1_445
Gd2 In0 3.422804 1_446
Gd2 In1 3.422804 1_555
Gd2 In1 3.422804 1_556
Au0 In1 2.839408 1_555
Au0 In1 2.839408 1_556
Au0 In0 2.839408 1_445
Au0 In0 2.839408 1_446
Au0 In2 2.839410 1_455
Au0 In2 2.839410 1_456
Au0 Gd2 3.144136 1_555
Au0 Gd1 3.144151 1_445
Au0 Gd0 3.144151 1_555
Au1 In0 2.912535 1_455
Au1 In2 2.912545 1_565
Au1 In1 2.912548 1_555
Au1 Gd2 3.099343 1_565
Au1 Gd2 3.099343 1_564
Au1 Gd0 3.099343 1_554
Au1 Gd0 3.099343 1_555
Au1 Gd1 3.099343 1_554
Au1 Gd1 3.099343 1_555
Au2 In2 2.912540 1_555
Au2 In1 2.912543 1_555
Au2 In0 2.912545 1_555
Au2 Gd0 3.099338 1_655
Au2 Gd0 3.099338 1_654
Au2 Gd2 3.099345 1_554
Au2 Gd2 3.099345 1_555
Au2 Gd1 3.099347 1_555
Au2 Gd1 3.099347 1_554
