# generated using pymatgen
data_Ba10Ge3C3O26
_symmetry_space_group_name_H-M   'P 1'
_cell_length_a   7.87748821
_cell_length_b   10.36234821
_cell_length_c   10.34654143
_cell_angle_alpha   119.64878306
_cell_angle_beta   89.97526871
_cell_angle_gamma   90.02179020
_symmetry_Int_Tables_number   1
_chemical_formula_structural   Ba10Ge3C3O26
_chemical_formula_sum   'Ba10 Ge3 C3 O26'
_cell_volume   734.00308228
_cell_formula_units_Z   1
loop_
 _symmetry_equiv_pos_site_id
 _symmetry_equiv_pos_as_xyz
  1  'x, y, z'
loop_
 _atom_site_type_symbol
 _atom_site_label
 _atom_site_symmetry_multiplicity
 _atom_site_fract_x
 _atom_site_fract_y
 _atom_site_fract_z
 _atom_site_occupancy
  Ba  Ba0  1  0.00247300  0.33404100  0.66658900  1
  Ba  Ba1  1  0.49465800  0.66633300  0.33287500  1
  Ba  Ba2  1  0.24788500  0.25216700  0.00856900  1
  Ba  Ba3  1  0.25063700  0.99190200  0.24384700  1
  Ba  Ba4  1  0.24664800  0.75710800  0.74756400  1
  Ba  Ba5  1  0.74579700  0.73938100  0.96976300  1
  Ba  Ba6  1  0.74456100  0.02520400  0.76387500  1
  Ba  Ba7  1  0.74631800  0.23377900  0.26042800  1
  Ba  Ba8  1  0.49341000  0.33427300  0.66477100  1
  Ba  Ba9  1  0.99997000  0.66774100  0.33663800  1
  Ge  Ge0  1  0.24387300  0.36716300  0.39376200  1
  Ge  Ge1  1  0.24285000  0.60677400  0.97407100  1
  Ge  Ge2  1  0.24367400  0.02664500  0.63274700  1
  C  C0  1  0.74504600  0.61779300  0.59153800  1
  C  C1  1  0.74507400  0.40686000  0.02851700  1
  C  C2  1  0.74371300  0.97236900  0.38100700  1
  O  O0  1  0.24579900  0.83116200  0.52229300  1
  O  O1  1  0.24490600  0.47739000  0.30720100  1
  O  O2  1  0.24403400  0.69194300  0.16977500  1
  O  O3  1  0.74308000  0.12314400  0.47613600  1
  O  O4  1  0.74372000  0.52235700  0.64814900  1
  O  O5  1  0.74335400  0.34850700  0.87615100  1
  O  O6  1  0.24928000  0.12386300  0.53136100  1
  O  O7  1  0.24868300  0.46933900  0.59128200  1
  O  O8  1  0.24990500  0.40958000  0.87660900  1
  O  O9  1  0.74761900  0.89462400  0.45763600  1
  O  O10  1  0.74733600  0.54149300  0.43838000  1
  O  O11  1  0.75074600  0.56031300  0.10603200  1
  O  O12  1  0.06275000  0.09070500  0.75080200  1
  O  O13  1  0.06387600  0.24858300  0.34098200  1
  O  O14  1  0.06216100  0.65968400  0.90814300  1
  O  O15  1  0.60759000  0.92679800  0.28192900  1
  O  O16  1  0.60904600  0.71744100  0.64632400  1
  O  O17  1  0.60379700  0.35471100  0.06835300  1
  O  O18  1  0.42619600  0.09084300  0.75036700  1
  O  O19  1  0.42755800  0.25129400  0.34226600  1
  O  O20  1  0.42556900  0.66210000  0.91102600  1
  O  O21  1  0.88332200  0.92942400  0.28558900  1
  O  O22  1  0.88225700  0.71675100  0.64465100  1
  O  O23  1  0.88694000  0.35853400  0.07243300  1
  O  O24  1  0.33908900  0.99845900  0.99966700  1
  O  O25  1  0.79880000  0.00142400  0.99990100  1
loop_
_geom_bond_atom_site_label_1
_geom_bond_atom_site_label_2
_geom_bond_distance
_geom_bond_site_symmetry_2
Ba0 O7 2.722471 1_555
Ba0 O8 2.730088 1_555
Ba0 O6 2.732588 1_555
Ba0 O4 2.893237 1_455
Ba0 O5 2.926622 1_455
Ba0 O3 2.928098 1_455
Ba0 O13 3.068390 1_555
Ba0 O14 3.083837 1_555
Ba0 O12 3.085081 1_555
Ba1 O1 2.693995 1_555
Ba1 O2 2.694867 1_555
Ba1 O0 2.699768 1_555
Ba1 O9 2.865446 1_555
Ba1 O10 2.868455 1_555
Ba1 O11 2.869095 1_555
Ba1 O15 3.123999 1_555
Ba1 O16 3.148507 1_555
Ba1 O17 3.148543 1_555
Ba2 O8 2.593925 1_554
Ba2 O24 2.682941 1_544
Ba2 O18 2.735800 1_554
Ba2 O12 2.761501 1_554
Ba2 O1 2.803539 1_555
Ba2 O17 2.953195 1_555
Ba2 O23 3.002710 1_455
Ba3 O6 2.587416 1_565
Ba3 O24 2.653524 1_554
Ba3 O19 2.737621 1_565
Ba3 O13 2.757919 1_565
Ba3 O2 2.809725 1_555
Ba3 O15 2.963529 1_555
Ba3 O21 3.041754 1_455
Ba4 O7 2.595478 1_555
Ba4 O24 2.671134 1_555
Ba4 O20 2.732516 1_555
Ba4 O14 2.747337 1_555
Ba4 O0 2.791235 1_555
Ba4 O16 2.998051 1_555
Ba4 O22 3.018200 1_455
Ba5 O14 2.603575 1_655
Ba5 O25 2.608907 1_565
Ba5 O20 2.625336 1_555
Ba5 O11 2.832129 1_556
Ba5 O4 2.954125 1_555
Ba5 O15 3.030105 1_556
Ba5 O21 3.060143 1_556
Ba6 O25 2.608303 1_555
Ba6 O12 2.617427 1_655
Ba6 O18 2.620585 1_555
Ba6 O9 2.762097 1_545
Ba6 O5 2.953451 1_555
Ba6 O16 2.991740 1_545
Ba6 O22 3.002525 1_545
Ba7 O25 2.610131 1_554
Ba7 O13 2.617440 1_655
Ba7 O19 2.627097 1_555
Ba7 O10 2.783705 1_555
Ba7 O3 2.971097 1_555
Ba7 O23 3.027634 1_555
Ba7 O17 3.040909 1_555
Ba8 O7 2.703658 1_555
Ba8 O6 2.716460 1_555
Ba8 O8 2.719880 1_555
Ba8 O4 2.836301 1_555
Ba8 O3 2.870410 1_555
Ba8 O5 2.892401 1_555
Ba8 O19 3.050452 1_555
Ba8 O18 3.104274 1_555
Ba8 O20 3.123183 1_555
Ba9 O0 2.662710 1_655
Ba9 O1 2.667277 1_655
Ba9 O2 2.676773 1_655
Ba9 O9 2.852333 1_555
Ba9 O10 2.852871 1_555
Ba9 O11 2.856753 1_555
Ba9 O22 3.109735 1_555
Ba9 O23 3.141026 1_555
Ba9 O21 3.145745 1_555
Ge0 O1 1.766041 1_555
Ge0 O13 1.775966 1_555
Ge0 O7 1.777140 1_555
Ge0 O19 1.785211 1_555
Ge1 O2 1.763807 1_556
Ge1 O8 1.776742 1_555
Ge1 O14 1.778579 1_555
Ge1 O20 1.787317 1_555
Ge2 O0 1.766151 1_545
Ge2 O12 1.777893 1_555
Ge2 O6 1.778386 1_555
Ge2 O18 1.786245 1_555
C0 O4 1.376324 1_555
C0 O10 1.377313 1_555
C0 O16 1.398764 1_555
C0 O22 1.401413 1_555
C1 O5 1.381286 1_554
C1 O11 1.382743 1_555
C1 O17 1.385629 1_555
C1 O23 1.390010 1_555
C2 O3 1.374190 1_565
C2 O9 1.382228 1_555
C2 O15 1.394750 1_555
C2 O21 1.395332 1_555
