# generated using pymatgen
data_SrNdCoRuO6
_symmetry_space_group_name_H-M   'P 1'
_cell_length_a   5.63323800
_cell_length_b   5.54872000
_cell_length_c   9.65993140
_cell_angle_alpha   54.82751706
_cell_angle_beta   90.00000000
_cell_angle_gamma   90.00000000
_symmetry_Int_Tables_number   1
_chemical_formula_structural   SrNdCoRuO6
_chemical_formula_sum   'Sr2 Nd2 Co2 Ru2 O12'
_cell_volume   246.81473574
_cell_formula_units_Z   2
loop_
 _symmetry_equiv_pos_site_id
 _symmetry_equiv_pos_as_xyz
  1  'x, y, z'
loop_
 _atom_site_type_symbol
 _atom_site_label
 _atom_site_symmetry_multiplicity
 _atom_site_fract_x
 _atom_site_fract_y
 _atom_site_fract_z
 _atom_site_occupancy
  Sr  Sr0  1  0.21315900  0.24442800  0.24982400  1
  Sr  Sr1  1  0.78684100  0.24442800  0.74982400  1
  Nd  Nd0  1  0.30365000  0.76201600  0.75105000  1
  Nd  Nd1  1  0.69635000  0.76201600  0.25105000  1
  Co  Co0  1  0.75540200  0.50022400  0.00001700  1
  Co  Co1  1  0.24459800  0.50022400  0.50001700  1
  Ru  Ru0  1  0.75212900  0.00015100  0.49961700  1
  Ru  Ru1  1  0.24787100  0.00015100  0.99961700  1
  O  O0  1  0.76238400  0.33625500  0.25442300  1
  O  O1  1  0.23761600  0.33625500  0.75442300  1
  O  O2  1  0.72660400  0.68880300  0.74584100  1
  O  O3  1  0.27339600  0.68880300  0.24584100  1
  O  O4  1  0.95398000  0.75085700  0.45581100  1
  O  O5  1  0.04602000  0.75085700  0.95581100  1
  O  O6  1  0.53081300  0.24152100  0.53754700  1
  O  O7  1  0.46918700  0.24152100  0.03754700  1
  O  O8  1  0.04307300  0.15228100  0.54587900  1
  O  O9  1  0.95692700  0.15228100  0.04587900  1
  O  O10  1  0.47207500  0.82346500  0.45999100  1
  O  O11  1  0.52792500  0.82346500  0.95999100  1
loop_
_geom_bond_atom_site_label_1
_geom_bond_atom_site_label_2
_geom_bond_distance
_geom_bond_site_symmetry_2
Nd0 O1 2.373146 1_555
Nd0 O8 2.414026 1_565
Nd0 O2 2.422374 1_555
Nd0 O5 2.425155 1_555
Nd0 O11 2.564961 1_555
Nd0 O6 2.578420 1_565
Nd0 O7 2.767929 1_556
Nd0 O10 2.795915 1_555
Nd1 O0 2.373146 1_555
Nd1 O9 2.414026 1_565
Nd1 O3 2.422374 1_555
Nd1 O4 2.425155 1_555
Nd1 O10 2.564961 1_555
Nd1 O7 2.578420 1_565
Nd1 O6 2.767929 1_555
Nd1 O11 2.795915 1_554
Co0 O5 2.027896 1_654
Co0 O2 2.046929 1_554
Co0 O7 2.047442 1_555
Co0 O11 2.051713 1_554
Co0 O9 2.055968 1_555
Co0 O0 2.071928 1_555
Co1 O4 2.027896 1_455
Co1 O3 2.046929 1_555
Co1 O6 2.047442 1_555
Co1 O10 2.051713 1_555
Co1 O8 2.055968 1_555
Co1 O1 2.071928 1_555
O0 Ru0 2.000606 1_555
O0 Sr0 2.595347 1_655
O1 Ru1 2.000606 1_555
O1 Sr1 2.595347 1_455
O2 Ru0 1.982054 1_565
O2 Sr1 2.467198 1_555
O3 Ru1 1.982054 1_564
O3 Sr0 2.467198 1_555
O4 Ru0 2.014891 1_565
O4 Sr0 2.704291 1_665
O4 Sr1 2.766688 1_555
O5 Ru1 2.014891 1_565
O5 Sr1 2.704291 1_465
O5 Sr0 2.766688 1_556
O6 Ru0 2.011873 1_555
O6 Sr1 2.514634 1_555
O7 Ru1 2.011873 1_554
O7 Sr0 2.514634 1_555
O8 Ru0 2.008242 1_455
O8 Sr1 2.717838 1_455
O8 Sr0 2.770142 1_555
O9 Ru1 2.008242 1_654
O9 Sr0 2.717838 1_655
O9 Sr1 2.770142 1_554
O10 Ru0 2.007205 1_565
O10 Sr0 2.498337 1_565
O11 Ru1 2.007205 1_565
O11 Sr1 2.498337 1_565
