# generated using pymatgen
data_ZnPd2
_symmetry_space_group_name_H-M   'P 1'
_cell_length_a   5.78010906
_cell_length_b   5.78010906
_cell_length_c   20.58366238
_cell_angle_alpha   90.00000000
_cell_angle_beta   90.00000000
_cell_angle_gamma   90.00000000
_symmetry_Int_Tables_number   1
_chemical_formula_structural   ZnPd2
_chemical_formula_sum   'Zn16 Pd32'
_cell_volume   687.69317702
_cell_formula_units_Z   16
loop_
 _symmetry_equiv_pos_site_id
 _symmetry_equiv_pos_as_xyz
  1  'x, y, z'
loop_
 _atom_site_type_symbol
 _atom_site_label
 _atom_site_symmetry_multiplicity
 _atom_site_fract_x
 _atom_site_fract_y
 _atom_site_fract_z
 _atom_site_occupancy
  Zn  Zn0_0  1  0.25000000  0.25000000  0.16818664  1
  Zn  Zn0_1  1  0.25000000  0.25000000  0.66818663  1
  Zn  Zn0_2  1  0.25000000  0.75000000  0.16818664  1
  Zn  Zn0_3  1  0.25000000  0.75000000  0.66818663  1
  Zn  Zn0_4  1  0.75000000  0.25000000  0.16818664  1
  Zn  Zn0_5  1  0.75000000  0.25000000  0.66818663  1
  Zn  Zn0_6  1  0.75000000  0.75000000  0.16818664  1
  Zn  Zn0_7  1  0.75000000  0.75000000  0.66818663  1
  Zn  Zn1_0  1  0.25000000  0.25000000  0.33181337  1
  Zn  Zn1_1  1  0.25000000  0.25000000  0.83181337  1
  Zn  Zn1_2  1  0.25000000  0.75000000  0.33181337  1
  Zn  Zn1_3  1  0.25000000  0.75000000  0.83181337  1
  Zn  Zn1_4  1  0.75000000  0.25000000  0.33181337  1
  Zn  Zn1_5  1  0.75000000  0.25000000  0.83181337  1
  Zn  Zn1_6  1  0.75000000  0.75000000  0.33181337  1
  Zn  Zn1_7  1  0.75000000  0.75000000  0.83181337  1
  Pd  Pd0_0  1  0.00000000  0.00000000  0.40758850  1
  Pd  Pd0_1  1  0.00000000  0.00000000  0.90758850  1
  Pd  Pd0_2  1  0.00000000  0.50000000  0.40758850  1
  Pd  Pd0_3  1  0.00000000  0.50000000  0.90758850  1
  Pd  Pd0_4  1  0.50000000  0.00000000  0.40758850  1
  Pd  Pd0_5  1  0.50000000  0.00000000  0.90758850  1
  Pd  Pd0_6  1  0.50000000  0.50000000  0.40758850  1
  Pd  Pd0_7  1  0.50000000  0.50000000  0.90758850  1
  Pd  Pd1_0  1  0.00000000  0.00000000  0.09241149  1
  Pd  Pd1_1  1  0.00000000  0.00000000  0.59241149  1
  Pd  Pd1_2  1  0.00000000  0.50000000  0.09241149  1
  Pd  Pd1_3  1  0.00000000  0.50000000  0.59241149  1
  Pd  Pd1_4  1  0.50000000  0.00000000  0.09241149  1
  Pd  Pd1_5  1  0.50000000  0.00000000  0.59241149  1
  Pd  Pd1_6  1  0.50000000  0.50000000  0.09241149  1
  Pd  Pd1_7  1  0.50000000  0.50000000  0.59241149  1
  Pd  Pd2_0  1  0.00000000  0.00000000  0.25000000  1
  Pd  Pd2_1  1  0.00000000  0.00000000  0.75000000  1
  Pd  Pd2_2  1  0.00000000  0.50000000  0.25000000  1
  Pd  Pd2_3  1  0.00000000  0.50000000  0.75000000  1
  Pd  Pd2_4  1  0.50000000  0.00000000  0.25000000  1
  Pd  Pd2_5  1  0.50000000  0.00000000  0.75000000  1
  Pd  Pd2_6  1  0.50000000  0.50000000  0.25000000  1
  Pd  Pd2_7  1  0.50000000  0.50000000  0.75000000  1
  Pd  Pd3_0  1  0.25000000  0.25000000  0.00000000  1
  Pd  Pd3_1  1  0.25000000  0.25000000  0.50000000  1
  Pd  Pd3_2  1  0.25000000  0.75000000  0.00000000  1
  Pd  Pd3_3  1  0.25000000  0.75000000  0.50000000  1
  Pd  Pd3_4  1  0.75000000  0.25000000  0.00000000  1
  Pd  Pd3_5  1  0.75000000  0.25000000  0.50000000  1
  Pd  Pd3_6  1  0.75000000  0.75000000  0.00000000  1
  Pd  Pd3_7  1  0.75000000  0.75000000  0.50000000  1
loop_
_geom_bond_atom_site_label_1
_geom_bond_atom_site_label_2
_geom_bond_distance
_geom_bond_site_symmetry_2
Pd0_0 Zn1_2 2.570791 1_545
Pd0_0 Zn1_0 2.570791 1_555
Pd0_0 Zn1_4 2.570791 1_455
Pd0_0 Zn1_6 2.570791 1_445
Pd0_0 Pd3_1 2.791854 1_555
Pd0_0 Pd3_7 2.791854 1_445
Pd0_0 Pd3_3 2.791854 1_545
Pd0_0 Pd3_5 2.791854 1_455
Pd0_1 Zn1_1 2.570791 1_555
Pd0_1 Zn1_3 2.570791 1_545
Pd0_1 Zn1_5 2.570791 1_455
Pd0_1 Zn1_7 2.570791 1_445
Pd0_1 Pd3_6 2.791854 1_446
Pd0_1 Pd3_0 2.791854 1_556
Pd0_1 Pd3_4 2.791854 1_456
Pd0_1 Pd3_2 2.791854 1_546
Pd0_2 Zn1_6 2.570791 1_455
Pd0_2 Zn1_0 2.570791 1_555
Pd0_2 Zn1_4 2.570791 1_455
Pd0_2 Zn1_2 2.570791 1_555
Pd0_2 Pd3_1 2.791854 1_555
Pd0_2 Pd3_7 2.791854 1_455
Pd0_2 Pd3_3 2.791854 1_555
Pd0_2 Pd3_5 2.791854 1_455
Pd0_3 Zn1_7 2.570791 1_455
Pd0_3 Zn1_1 2.570791 1_555
Pd0_3 Zn1_5 2.570791 1_455
Pd0_3 Zn1_3 2.570791 1_555
Pd0_3 Pd3_6 2.791854 1_456
Pd0_3 Pd3_0 2.791854 1_556
Pd0_3 Pd3_4 2.791854 1_456
Pd0_3 Pd3_2 2.791854 1_556
Pd0_4 Zn1_2 2.570791 1_545
Pd0_4 Zn1_0 2.570791 1_555
Pd0_4 Zn1_4 2.570791 1_555
Pd0_4 Zn1_6 2.570791 1_545
Pd0_4 Pd3_1 2.791854 1_555
Pd0_4 Pd3_5 2.791854 1_555
Pd0_4 Pd3_3 2.791854 1_545
Pd0_4 Pd3_7 2.791854 1_545
Pd0_5 Zn1_1 2.570791 1_555
Pd0_5 Zn1_3 2.570791 1_545
Pd0_5 Zn1_7 2.570791 1_545
Pd0_5 Zn1_5 2.570791 1_555
Pd0_5 Pd3_6 2.791854 1_546
Pd0_5 Pd3_0 2.791854 1_556
Pd0_5 Pd3_2 2.791854 1_546
Pd0_5 Pd3_4 2.791854 1_556
Pd0_6 Zn1_0 2.570791 1_555
Pd0_6 Zn1_4 2.570791 1_555
Pd0_6 Zn1_2 2.570791 1_555
Pd0_6 Zn1_6 2.570791 1_555
Pd0_6 Pd3_1 2.791854 1_555
Pd0_6 Pd3_5 2.791854 1_555
Pd0_6 Pd3_3 2.791854 1_555
Pd0_6 Pd3_7 2.791854 1_555
Pd0_7 Zn1_1 2.570791 1_555
Pd0_7 Zn1_3 2.570791 1_555
Pd0_7 Zn1_7 2.570791 1_555
Pd0_7 Zn1_5 2.570791 1_555
Pd0_7 Pd3_6 2.791854 1_556
Pd0_7 Pd3_0 2.791854 1_556
Pd0_7 Pd3_4 2.791854 1_556
Pd0_7 Pd3_2 2.791854 1_556
Pd1_0 Zn0_2 2.570791 1_545
Pd1_0 Zn0_6 2.570791 1_445
Pd1_0 Zn0_0 2.570791 1_555
Pd1_0 Zn0_4 2.570791 1_455
Pd1_0 Pd3_6 2.791854 1_445
Pd1_0 Pd3_2 2.791854 1_545
Pd1_0 Pd3_0 2.791854 1_555
Pd1_0 Pd3_4 2.791854 1_455
Pd1_1 Zn0_5 2.570791 1_455
Pd1_1 Zn0_3 2.570791 1_545
Pd1_1 Zn0_7 2.570791 1_445
Pd1_1 Zn0_1 2.570791 1_555
Pd1_1 Pd3_1 2.791854 1_555
Pd1_1 Pd3_7 2.791854 1_445
Pd1_1 Pd3_3 2.791854 1_545
Pd1_1 Pd3_5 2.791854 1_455
Pd1_2 Zn0_2 2.570791 1_555
Pd1_2 Zn0_6 2.570791 1_455
Pd1_2 Zn0_0 2.570791 1_555
Pd1_2 Zn0_4 2.570791 1_455
Pd1_2 Pd3_6 2.791854 1_455
Pd1_2 Pd3_2 2.791854 1_555
Pd1_2 Pd3_0 2.791854 1_555
Pd1_2 Pd3_4 2.791854 1_455
Pd1_3 Zn0_5 2.570791 1_455
Pd1_3 Zn0_3 2.570791 1_555
Pd1_3 Zn0_7 2.570791 1_455
Pd1_3 Zn0_1 2.570791 1_555
Pd1_3 Pd3_1 2.791854 1_555
Pd1_3 Pd3_7 2.791854 1_455
Pd1_3 Pd3_3 2.791854 1_555
Pd1_3 Pd3_5 2.791854 1_455
Pd1_4 Zn0_2 2.570791 1_545
Pd1_4 Zn0_6 2.570791 1_545
Pd1_4 Zn0_0 2.570791 1_555
Pd1_4 Zn0_4 2.570791 1_555
Pd1_4 Pd3_6 2.791854 1_545
Pd1_4 Pd3_4 2.791854 1_555
Pd1_4 Pd3_2 2.791854 1_545
Pd1_4 Pd3_0 2.791854 1_555
Pd1_5 Zn0_7 2.570791 1_545
Pd1_5 Zn0_5 2.570791 1_555
Pd1_5 Zn0_3 2.570791 1_545
Pd1_5 Zn0_1 2.570791 1_555
Pd1_5 Pd3_1 2.791854 1_555
Pd1_5 Pd3_5 2.791854 1_555
Pd1_5 Pd3_3 2.791854 1_545
Pd1_5 Pd3_7 2.791854 1_545
Pd1_6 Zn0_2 2.570791 1_555
Pd1_6 Zn0_6 2.570791 1_555
Pd1_6 Zn0_0 2.570791 1_555
Pd1_6 Zn0_4 2.570791 1_555
Pd1_6 Pd3_4 2.791854 1_555
Pd1_6 Pd3_2 2.791854 1_555
Pd1_6 Pd3_6 2.791854 1_555
Pd1_6 Pd3_0 2.791854 1_555
Pd1_7 Zn0_5 2.570791 1_555
Pd1_7 Zn0_3 2.570791 1_555
Pd1_7 Zn0_7 2.570791 1_555
Pd1_7 Zn0_1 2.570791 1_555
Pd1_7 Pd3_1 2.791854 1_555
Pd1_7 Pd3_5 2.791854 1_555
Pd1_7 Pd3_3 2.791854 1_555
Pd1_7 Pd3_7 2.791854 1_555
Pd2_0 Zn0_6 2.648042 1_445
Pd2_0 Zn0_0 2.648042 1_555
Pd2_0 Zn0_4 2.648042 1_455
Pd2_0 Zn0_2 2.648042 1_545
Pd2_0 Zn1_4 2.648042 1_455
Pd2_0 Zn1_0 2.648042 1_555
Pd2_0 Zn1_6 2.648042 1_445
Pd2_0 Zn1_2 2.648042 1_545
Pd2_1 Zn1_5 2.648042 1_455
Pd2_1 Zn1_7 2.648042 1_445
Pd2_1 Zn1_1 2.648042 1_555
Pd2_1 Zn1_3 2.648042 1_545
Pd2_1 Zn0_5 2.648042 1_455
Pd2_1 Zn0_7 2.648042 1_445
Pd2_1 Zn0_1 2.648042 1_555
Pd2_1 Zn0_3 2.648042 1_545
Pd2_2 Zn0_0 2.648042 1_555
Pd2_2 Zn0_4 2.648042 1_455
Pd2_2 Zn0_2 2.648042 1_555
Pd2_2 Zn0_6 2.648042 1_455
Pd2_2 Zn1_4 2.648042 1_455
Pd2_2 Zn1_0 2.648042 1_555
Pd2_2 Zn1_2 2.648042 1_555
Pd2_2 Zn1_6 2.648042 1_455
Pd2_3 Zn1_7 2.648042 1_455
Pd2_3 Zn1_3 2.648042 1_555
Pd2_3 Zn1_1 2.648042 1_555
Pd2_3 Zn1_5 2.648042 1_455
Pd2_3 Zn0_7 2.648042 1_455
Pd2_3 Zn0_5 2.648042 1_455
Pd2_3 Zn0_3 2.648042 1_555
Pd2_3 Zn0_1 2.648042 1_555
Pd2_4 Zn0_6 2.648042 1_545
Pd2_4 Zn0_0 2.648042 1_555
Pd2_4 Zn0_4 2.648042 1_555
Pd2_4 Zn0_2 2.648042 1_545
Pd2_4 Zn1_0 2.648042 1_555
Pd2_4 Zn1_4 2.648042 1_555
Pd2_4 Zn1_6 2.648042 1_545
Pd2_4 Zn1_2 2.648042 1_545
Pd2_5 Zn1_1 2.648042 1_555
Pd2_5 Zn1_3 2.648042 1_545
Pd2_5 Zn1_7 2.648042 1_545
Pd2_5 Zn1_5 2.648042 1_555
Pd2_5 Zn0_5 2.648042 1_555
Pd2_5 Zn0_1 2.648042 1_555
Pd2_5 Zn0_3 2.648042 1_545
Pd2_5 Zn0_7 2.648042 1_545
Pd2_6 Zn0_6 2.648042 1_555
Pd2_6 Zn0_0 2.648042 1_555
Pd2_6 Zn0_4 2.648042 1_555
Pd2_6 Zn0_2 2.648042 1_555
Pd2_6 Zn1_0 2.648042 1_555
Pd2_6 Zn1_4 2.648042 1_555
Pd2_6 Zn1_2 2.648042 1_555
Pd2_6 Zn1_6 2.648042 1_555
Pd2_7 Zn1_7 2.648042 1_555
Pd2_7 Zn1_3 2.648042 1_555
Pd2_7 Zn1_1 2.648042 1_555
Pd2_7 Zn1_5 2.648042 1_555
Pd2_7 Zn0_5 2.648042 1_555
Pd2_7 Zn0_3 2.648042 1_555
Pd2_7 Zn0_1 2.648042 1_555
Pd2_7 Zn0_7 2.648042 1_555
Pd3_0 Pd3_2 2.890055 1_555
Pd3_0 Pd3_4 2.890055 1_555
Pd3_0 Pd3_2 2.890055 1_545
Pd3_0 Pd3_4 2.890055 1_455
Pd3_1 Pd3_3 2.890055 1_555
Pd3_1 Pd3_5 2.890055 1_455
Pd3_1 Pd3_5 2.890055 1_555
Pd3_1 Pd3_3 2.890055 1_545
Pd3_2 Pd3_6 2.890055 1_455
Pd3_2 Pd3_6 2.890055 1_555
Pd3_3 Pd3_7 2.890055 1_555
Pd3_3 Pd3_7 2.890055 1_455
Pd3_4 Pd3_6 2.890055 1_555
Pd3_4 Pd3_6 2.890055 1_545
Pd3_5 Pd3_7 2.890055 1_545
Pd3_5 Pd3_7 2.890055 1_555
