# generated using pymatgen
data_NdNi3
_symmetry_space_group_name_H-M   'P 1'
_cell_length_a   4.99584886
_cell_length_b   4.99583366
_cell_length_c   8.66134018
_cell_angle_alpha   73.26415218
_cell_angle_beta   73.26416946
_cell_angle_gamma   60.01636636
_symmetry_Int_Tables_number   1
_chemical_formula_structural   NdNi3
_chemical_formula_sum   'Nd3 Ni9'
_cell_volume   176.58679639
_cell_formula_units_Z   3
loop_
 _symmetry_equiv_pos_site_id
 _symmetry_equiv_pos_as_xyz
  1  'x, y, z'
loop_
 _atom_site_type_symbol
 _atom_site_label
 _atom_site_symmetry_multiplicity
 _atom_site_fract_x
 _atom_site_fract_y
 _atom_site_fract_z
 _atom_site_occupancy
  Nd  Nd0  1  0.13869338  0.13869338  0.58435057  1
  Nd  Nd1  1  0.86130662  0.86130662  0.41564943  1
  Nd  Nd2  1  0.00000000  0.00000000  0.00000000  1
  Ni  Ni0  1  0.08101601  0.58024609  0.75945540  1
  Ni  Ni1  1  0.58017852  0.58017852  0.75945776  1
  Ni  Ni2  1  0.58024709  0.08101501  0.75945540  1
  Ni  Ni3  1  0.91898399  0.41975391  0.24054460  1
  Ni  Ni4  1  0.41982148  0.41982148  0.24054224  1
  Ni  Ni5  1  0.41975291  0.91898499  0.24054460  1
  Ni  Ni6  1  0.33285421  0.33285521  0.00134729  1
  Ni  Ni7  1  0.66714579  0.66714479  0.99865271  1
  Ni  Ni8  1  0.50000000  0.50000000  0.50000000  1
loop_
_geom_bond_atom_site_label_1
_geom_bond_atom_site_label_2
_geom_bond_distance
_geom_bond_site_symmetry_2
Nd0 Ni0 2.877806 1_545
Nd0 Ni2 2.877811 1_455
Nd0 Ni1 2.878993 1_545
Nd0 Ni1 2.878994 1_455
Nd0 Ni0 2.879084 1_555
Nd0 Ni2 2.879092 1_555
Nd0 Ni8 2.964386 1_555
Nd0 Ni8 2.966406 1_545
Nd0 Ni8 2.966414 1_455
Nd0 Ni4 3.157033 1_555
Nd0 Ni5 3.158747 1_545
Nd0 Ni3 3.158750 1_455
Nd1 Ni3 2.877806 1_565
Nd1 Ni5 2.877811 1_655
Nd1 Ni4 2.878993 1_565
Nd1 Ni4 2.878994 1_655
Nd1 Ni3 2.879084 1_555
Nd1 Ni5 2.879092 1_555
Nd1 Ni8 2.964386 1_555
Nd1 Ni8 2.966406 1_565
Nd1 Ni8 2.966414 1_655
Nd1 Ni1 3.157033 1_555
Nd1 Ni2 3.158747 1_565
Nd1 Ni0 3.158750 1_655
Nd2 Ni6 2.883873 1_555
Nd2 Ni7 2.883873 1_444
Nd2 Ni7 2.884971 1_454
Nd2 Ni6 2.884971 1_545
Nd2 Ni7 2.884984 1_544
Nd2 Ni6 2.884984 1_455
Nd2 Ni0 3.175570 1_544
Nd2 Ni3 3.175570 1_455
Nd2 Ni5 3.175573 1_545
Nd2 Ni2 3.175573 1_454
Nd2 Ni4 3.178575 1_545
Nd2 Ni1 3.178575 1_454
Nd2 Ni1 3.178577 1_544
Nd2 Ni4 3.178577 1_455
Nd2 Ni3 3.180634 1_445
Nd2 Ni0 3.180634 1_554
Nd2 Ni2 3.180643 1_554
Nd2 Ni5 3.180643 1_445
Ni0 Ni7 2.430962 1_455
Ni0 Ni6 2.443875 1_556
Ni0 Ni1 2.493578 1_555
Ni0 Ni2 2.494696 1_555
Ni0 Ni1 2.502271 1_455
Ni0 Ni2 2.502381 1_465
Ni0 Ni8 2.561883 1_555
Ni1 Ni7 2.427990 1_555
Ni1 Ni6 2.446826 1_556
Ni1 Ni2 2.493573 1_555
Ni1 Ni2 2.502261 1_565
Ni1 Ni8 2.562858 1_555
Ni2 Ni7 2.430958 1_545
Ni2 Ni6 2.443879 1_556
Ni2 Ni8 2.561882 1_555
Ni3 Ni6 2.430962 1_655
Ni3 Ni7 2.443875 1_554
Ni3 Ni4 2.493578 1_555
Ni3 Ni5 2.494696 1_555
Ni3 Ni4 2.502271 1_655
Ni3 Ni5 2.502381 1_645
Ni3 Ni8 2.561883 1_555
Ni4 Ni6 2.427990 1_555
Ni4 Ni7 2.446826 1_554
Ni4 Ni5 2.493573 1_555
Ni4 Ni5 2.502261 1_545
Ni4 Ni8 2.562858 1_555
Ni5 Ni6 2.430958 1_565
Ni5 Ni7 2.443879 1_554
Ni5 Ni8 2.561882 1_555
