# generated using pymatgen
data_Nd2Y
_symmetry_space_group_name_H-M   'P 1'
_cell_length_a   18.18154764
_cell_length_b   18.18154764
_cell_length_c   18.18154774
_cell_angle_alpha   23.44950722
_cell_angle_beta   23.44950722
_cell_angle_gamma   23.44950354
_symmetry_Int_Tables_number   1
_chemical_formula_structural   Nd2Y
_chemical_formula_sum   'Nd16 Y8'
_cell_volume   835.75115572
_cell_formula_units_Z   8
loop_
 _symmetry_equiv_pos_site_id
 _symmetry_equiv_pos_as_xyz
  1  'x, y, z'
loop_
 _atom_site_type_symbol
 _atom_site_label
 _atom_site_symmetry_multiplicity
 _atom_site_fract_x
 _atom_site_fract_y
 _atom_site_fract_z
 _atom_site_occupancy
  Nd  Nd0_0  1  0.38843897  0.38843897  0.38843897  1
  Nd  Nd0_1  1  0.38843897  0.38843897  0.88843897  1
  Nd  Nd0_2  1  0.38843897  0.88843897  0.38843897  1
  Nd  Nd0_3  1  0.38843897  0.88843897  0.88843897  1
  Nd  Nd0_4  1  0.88843897  0.38843897  0.38843897  1
  Nd  Nd0_5  1  0.88843897  0.38843897  0.88843897  1
  Nd  Nd0_6  1  0.88843897  0.88843897  0.38843897  1
  Nd  Nd0_7  1  0.88843897  0.88843897  0.88843897  1
  Nd  Nd1_0  1  0.11156103  0.11156103  0.11156103  1
  Nd  Nd1_1  1  0.11156103  0.11156103  0.61156103  1
  Nd  Nd1_2  1  0.11156103  0.61156103  0.11156103  1
  Nd  Nd1_3  1  0.11156103  0.61156103  0.61156103  1
  Nd  Nd1_4  1  0.61156103  0.11156103  0.11156103  1
  Nd  Nd1_5  1  0.61156103  0.11156103  0.61156103  1
  Nd  Nd1_6  1  0.61156103  0.61156103  0.11156103  1
  Nd  Nd1_7  1  0.61156103  0.61156103  0.61156103  1
  Y  Y0_0  1  0.00000000  0.00000000  0.00000000  1
  Y  Y0_1  1  0.00000000  0.00000000  0.50000000  1
  Y  Y0_2  1  0.00000000  0.50000000  0.00000000  1
  Y  Y0_3  1  0.00000000  0.50000000  0.50000000  1
  Y  Y0_4  1  0.50000000  0.00000000  0.00000000  1
  Y  Y0_5  1  0.50000000  0.00000000  0.50000000  1
  Y  Y0_6  1  0.50000000  0.50000000  0.00000000  1
  Y  Y0_7  1  0.50000000  0.50000000  0.50000000  1
loop_
_geom_bond_atom_site_label_1
_geom_bond_atom_site_label_2
_geom_bond_distance
_geom_bond_site_symmetry_2
Nd0_0 Y0_3 3.617614 1_555
Nd0_0 Y0_5 3.617614 1_555
Nd0_0 Y0_6 3.617614 1_555
Nd0_0 Nd1_5 3.675657 1_555
Nd0_0 Nd1_3 3.675657 1_555
Nd0_0 Nd1_6 3.675657 1_555
Nd0_0 Nd0_6 3.694678 1_455
Nd0_0 Nd0_6 3.694678 1_545
Nd0_0 Nd0_3 3.694678 1_554
Nd0_0 Nd0_5 3.694678 1_455
Nd0_0 Nd0_3 3.694678 1_545
Nd0_0 Nd0_5 3.694678 1_554
Nd0_1 Y0_2 3.617614 1_556
Nd0_1 Y0_4 3.617614 1_556
Nd0_1 Y0_7 3.617614 1_555
Nd0_1 Nd1_4 3.675657 1_556
Nd0_1 Nd1_2 3.675657 1_556
Nd0_1 Nd1_7 3.675657 1_555
Nd0_1 Nd0_7 3.694678 1_455
Nd0_1 Nd0_7 3.694678 1_545
Nd0_1 Nd0_2 3.694678 1_555
Nd0_1 Nd0_4 3.694678 1_555
Nd0_1 Nd0_4 3.694678 1_456
Nd0_1 Nd0_2 3.694678 1_546
Nd0_2 Y0_7 3.617614 1_555
Nd0_2 Y0_1 3.617614 1_565
Nd0_2 Y0_4 3.617614 1_565
Nd0_2 Nd1_1 3.675657 1_565
Nd0_2 Nd1_7 3.675657 1_555
Nd0_2 Nd1_4 3.675657 1_565
Nd0_2 Nd0_4 3.694678 1_555
Nd0_2 Nd0_4 3.694678 1_465
Nd0_2 Nd0_7 3.694678 1_455
Nd0_2 Nd0_7 3.694678 1_554
Nd0_3 Y0_6 3.617614 1_556
Nd0_3 Y0_0 3.617614 1_566
Nd0_3 Y0_5 3.617614 1_565
Nd0_3 Nd1_6 3.675657 1_556
Nd0_3 Nd1_0 3.675657 1_566
Nd0_3 Nd1_5 3.675657 1_565
Nd0_3 Nd0_5 3.694678 1_555
Nd0_3 Nd0_5 3.694678 1_465
Nd0_3 Nd0_6 3.694678 1_555
Nd0_3 Nd0_6 3.694678 1_456
Nd0_4 Y0_7 3.617614 1_555
Nd0_4 Y0_1 3.617614 1_655
Nd0_4 Y0_2 3.617614 1_655
Nd0_4 Nd1_1 3.675657 1_655
Nd0_4 Nd1_7 3.675657 1_555
Nd0_4 Nd1_2 3.675657 1_655
Nd0_4 Nd0_7 3.694678 1_554
Nd0_4 Nd0_7 3.694678 1_545
Nd0_5 Y0_6 3.617614 1_556
Nd0_5 Y0_0 3.617614 1_656
Nd0_5 Y0_3 3.617614 1_655
Nd0_5 Nd1_0 3.675657 1_656
Nd0_5 Nd1_6 3.675657 1_556
Nd0_5 Nd1_3 3.675657 1_655
Nd0_5 Nd0_6 3.694678 1_546
Nd0_5 Nd0_6 3.694678 1_555
Nd0_6 Y0_3 3.617614 1_655
Nd0_6 Y0_5 3.617614 1_565
Nd0_6 Y0_0 3.617614 1_665
Nd0_6 Nd1_3 3.675657 1_655
Nd0_6 Nd1_5 3.675657 1_565
Nd0_6 Nd1_0 3.675657 1_665
Nd0_7 Y0_2 3.617614 1_656
Nd0_7 Y0_4 3.617614 1_566
Nd0_7 Y0_1 3.617614 1_665
Nd0_7 Nd1_2 3.675657 1_656
Nd0_7 Nd1_4 3.675657 1_566
Nd0_7 Nd1_1 3.675657 1_665
Nd1_0 Y0_4 3.617614 1_555
Nd1_0 Y0_2 3.617614 1_555
Nd1_0 Y0_1 3.617614 1_555
Nd1_0 Nd1_6 3.694678 1_455
Nd1_0 Nd1_6 3.694678 1_545
Nd1_0 Nd1_3 3.694678 1_554
Nd1_0 Nd1_5 3.694678 1_455
Nd1_0 Nd1_3 3.694678 1_545
Nd1_0 Nd1_5 3.694678 1_554
Nd1_1 Y0_5 3.617614 1_555
Nd1_1 Y0_3 3.617614 1_555
Nd1_1 Y0_0 3.617614 1_556
Nd1_1 Nd1_7 3.694678 1_455
Nd1_1 Nd1_7 3.694678 1_545
Nd1_1 Nd1_2 3.694678 1_555
Nd1_1 Nd1_4 3.694678 1_456
Nd1_1 Nd1_2 3.694678 1_546
Nd1_1 Nd1_4 3.694678 1_555
Nd1_2 Y0_0 3.617614 1_565
Nd1_2 Y0_6 3.617614 1_555
Nd1_2 Y0_3 3.617614 1_555
Nd1_2 Nd1_4 3.694678 1_555
Nd1_2 Nd1_4 3.694678 1_465
Nd1_2 Nd1_7 3.694678 1_455
Nd1_2 Nd1_7 3.694678 1_554
Nd1_3 Y0_1 3.617614 1_565
Nd1_3 Y0_7 3.617614 1_555
Nd1_3 Y0_2 3.617614 1_556
Nd1_3 Nd1_5 3.694678 1_555
Nd1_3 Nd1_5 3.694678 1_465
Nd1_3 Nd1_6 3.694678 1_555
Nd1_3 Nd1_6 3.694678 1_456
Nd1_4 Y0_0 3.617614 1_655
Nd1_4 Y0_6 3.617614 1_555
Nd1_4 Y0_5 3.617614 1_555
Nd1_4 Nd1_7 3.694678 1_554
Nd1_4 Nd1_7 3.694678 1_545
Nd1_5 Y0_1 3.617614 1_655
Nd1_5 Y0_7 3.617614 1_555
Nd1_5 Y0_4 3.617614 1_556
Nd1_5 Nd1_6 3.694678 1_555
Nd1_5 Nd1_6 3.694678 1_546
Nd1_6 Y0_4 3.617614 1_565
Nd1_6 Y0_2 3.617614 1_655
Nd1_6 Y0_7 3.617614 1_555
Nd1_7 Y0_3 3.617614 1_655
Nd1_7 Y0_5 3.617614 1_565
Nd1_7 Y0_6 3.617614 1_556
Y0_0 Y0_6 3.694678 1_455
Y0_0 Y0_6 3.694678 1_545
Y0_0 Y0_5 3.694678 1_455
Y0_0 Y0_3 3.694678 1_545
Y0_0 Y0_3 3.694678 1_554
Y0_0 Y0_5 3.694678 1_554
Y0_1 Y0_7 3.694678 1_455
Y0_1 Y0_7 3.694678 1_545
Y0_1 Y0_4 3.694678 1_555
Y0_1 Y0_2 3.694678 1_546
Y0_1 Y0_2 3.694678 1_555
Y0_1 Y0_4 3.694678 1_456
Y0_2 Y0_4 3.694678 1_555
Y0_2 Y0_4 3.694678 1_465
Y0_2 Y0_7 3.694678 1_455
Y0_2 Y0_7 3.694678 1_554
Y0_3 Y0_5 3.694678 1_555
Y0_3 Y0_5 3.694678 1_465
Y0_3 Y0_6 3.694678 1_555
Y0_3 Y0_6 3.694678 1_456
Y0_4 Y0_7 3.694678 1_554
Y0_4 Y0_7 3.694678 1_545
Y0_5 Y0_6 3.694678 1_546
Y0_5 Y0_6 3.694678 1_555
