# generated using pymatgen
data_Ca(Mo3S4)2
_symmetry_space_group_name_H-M   'P 1'
_cell_length_a   11.89819041
_cell_length_b   6.27636404
_cell_length_c   12.84103341
_cell_angle_alpha   37.98170144
_cell_angle_beta   150.90246058
_cell_angle_gamma   131.77213378
_symmetry_Int_Tables_number   1
_chemical_formula_structural   Ca(Mo3S4)2
_chemical_formula_sum   'Ca1 Mo6 S8'
_cell_volume   286.16614534
_cell_formula_units_Z   1
loop_
 _symmetry_equiv_pos_site_id
 _symmetry_equiv_pos_as_xyz
  1  'x, y, z'
loop_
 _atom_site_type_symbol
 _atom_site_label
 _atom_site_symmetry_multiplicity
 _atom_site_fract_x
 _atom_site_fract_y
 _atom_site_fract_z
 _atom_site_occupancy
  Ca  Ca0  1  0.00000000  0.00000000  0.00000000  1
  Mo  Mo0  1  0.21124400  0.07465900  0.79859300  1
  Mo  Mo1  1  0.33579600  0.59981300  0.24989200  1
  Mo  Mo2  1  0.35700100  0.37476100  0.98486300  1
  Mo  Mo3  1  0.78875600  0.92534100  0.20140700  1
  Mo  Mo4  1  0.66420400  0.40018700  0.75010800  1
  Mo  Mo5  1  0.64299900  0.62523900  0.01513700  1
  S  S0  1  0.00313100  0.38564900  0.14911400  1
  S  S1  1  0.46774300  0.95407100  0.36252900  1
  S  S2  1  0.03055400  0.63116800  0.37604400  1
  S  S3  1  0.99686900  0.61435100  0.85088600  1
  S  S4  1  0.53225700  0.04592900  0.63747100  1
  S  S5  1  0.96944600  0.36883200  0.62395600  1
  S  S6  1  0.40106400  0.01776500  0.79655300  1
  S  S7  1  0.59893600  0.98223500  0.20344700  1
loop_
_geom_bond_atom_site_label_1
_geom_bond_atom_site_label_2
_geom_bond_distance
_geom_bond_site_symmetry_2
Ca0 S3 2.638832 1_454
Ca0 S0 2.638832 1_545
Ca0 S1 2.733635 1_545
Ca0 S4 2.733635 1_454
Ca0 S5 3.039755 1_454
Ca0 S2 3.039755 1_545
Mo0 S3 2.328178 1_445
Mo0 S7 2.354573 1_546
Mo0 S5 2.447460 1_455
Mo0 S2 2.450646 1_555
Mo0 S6 2.534115 1_555
Mo1 S4 2.353780 1_555
Mo1 S0 2.418737 1_555
Mo1 S1 2.439483 1_555
Mo1 S3 2.483392 1_454
Mo1 S7 2.629355 1_555
Mo2 S5 2.332233 1_455
Mo2 S1 2.347128 1_546
Mo2 S6 2.534120 1_565
Mo2 S7 2.581045 1_546
Mo3 S0 2.328178 1_665
Mo3 S6 2.354573 1_564
Mo3 S2 2.447460 1_655
Mo3 S5 2.450646 1_555
Mo3 S7 2.534115 1_555
Mo4 S1 2.353780 1_555
Mo4 S3 2.418737 1_555
Mo4 S4 2.439483 1_555
Mo4 S0 2.483392 1_656
Mo4 S6 2.629355 1_555
Mo5 S2 2.332233 1_655
Mo5 S4 2.347128 1_564
Mo5 S7 2.534120 1_545
Mo5 S6 2.581045 1_564
