# generated using pymatgen
data_RbNa3H4
_symmetry_space_group_name_H-M   'P 1'
_cell_length_a   5.28588600
_cell_length_b   5.28588600
_cell_length_c   5.28588600
_cell_angle_alpha   90.00000000
_cell_angle_beta   90.00000000
_cell_angle_gamma   90.00000000
_symmetry_Int_Tables_number   1
_chemical_formula_structural   RbNa3H4
_chemical_formula_sum   'Rb1 Na3 H4'
_cell_volume   147.69077777
_cell_formula_units_Z   1
loop_
 _symmetry_equiv_pos_site_id
 _symmetry_equiv_pos_as_xyz
  1  'x, y, z'
loop_
 _atom_site_type_symbol
 _atom_site_label
 _atom_site_symmetry_multiplicity
 _atom_site_fract_x
 _atom_site_fract_y
 _atom_site_fract_z
 _atom_site_occupancy
  Rb  Rb0  1  0.50000000  0.50000000  0.50000000  1
  Na  Na0  1  0.00000000  0.00000000  0.50000000  1
  Na  Na1  1  0.00000000  0.50000000  0.00000000  1
  Na  Na2  1  0.50000000  0.00000000  0.00000000  1
  H  H0  1  0.50000000  0.50000000  0.00000000  1
  H  H1  1  0.50000000  0.00000000  0.50000000  1
  H  H2  1  0.00000000  0.50000000  0.50000000  1
  H  H3  1  0.00000000  0.00000000  0.00000000  1
loop_
_geom_bond_atom_site_label_1
_geom_bond_atom_site_label_2
_geom_bond_distance
_geom_bond_site_symmetry_2
H0 Rb0 2.642943 1_555
H0 Rb0 2.642943 1_554
H0 Na1 2.642943 1_555
H0 Na1 2.642943 1_655
H0 Na2 2.642943 1_555
H0 Na2 2.642943 1_565
H1 Na0 2.642943 1_555
H1 Na0 2.642943 1_655
H1 Rb0 2.642943 1_555
H1 Rb0 2.642943 1_545
H1 Na2 2.642943 1_555
H1 Na2 2.642943 1_556
H2 Na0 2.642943 1_555
H2 Na0 2.642943 1_565
H2 Rb0 2.642943 1_455
H2 Rb0 2.642943 1_555
H2 Na1 2.642943 1_556
H2 Na1 2.642943 1_555
H3 Na0 2.642943 1_555
H3 Na0 2.642943 1_554
H3 Na2 2.642943 1_455
H3 Na1 2.642943 1_555
H3 Na1 2.642943 1_545
H3 Na2 2.642943 1_555
