# generated using pymatgen
data_Sm(Ga4Fe)2
_symmetry_space_group_name_H-M   'P 1'
_cell_length_a   4.00004600
_cell_length_b   12.69757800
_cell_length_c   14.35220000
_cell_angle_alpha   90.00000000
_cell_angle_beta   90.00000000
_cell_angle_gamma   90.00000000
_symmetry_Int_Tables_number   1
_chemical_formula_structural   Sm(Ga4Fe)2
_chemical_formula_sum   'Sm4 Ga32 Fe8'
_cell_volume   728.96109884
_cell_formula_units_Z   4
loop_
 _symmetry_equiv_pos_site_id
 _symmetry_equiv_pos_as_xyz
  1  'x, y, z'
loop_
 _atom_site_type_symbol
 _atom_site_label
 _atom_site_symmetry_multiplicity
 _atom_site_fract_x
 _atom_site_fract_y
 _atom_site_fract_z
 _atom_site_occupancy
  Sm  Sm0  1  0.00000000  0.84261100  0.18074700  1
  Sm  Sm1  1  0.00000000  0.15738900  0.81925300  1
  Sm  Sm2  1  0.00000000  0.65738900  0.68074700  1
  Sm  Sm3  1  0.00000000  0.34261100  0.31925300  1
  Ga  Ga0  1  0.00000000  0.50000000  0.50000000  1
  Ga  Ga1  1  0.00000000  0.00000000  0.00000000  1
  Ga  Ga2  1  0.50000000  0.00000000  0.50000000  1
  Ga  Ga3  1  0.50000000  0.50000000  0.00000000  1
  Ga  Ga4  1  0.50000000  0.73875800  0.32581500  1
  Ga  Ga5  1  0.50000000  0.26124200  0.67418500  1
  Ga  Ga6  1  0.50000000  0.76124200  0.82581500  1
  Ga  Ga7  1  0.50000000  0.23875800  0.17418500  1
  Ga  Ga8  1  0.50000000  0.95070400  0.31804600  1
  Ga  Ga9  1  0.50000000  0.04929600  0.68195400  1
  Ga  Ga10  1  0.50000000  0.54929600  0.81804600  1
  Ga  Ga11  1  0.50000000  0.45070400  0.18195400  1
  Ga  Ga12  1  0.50000000  0.66447100  0.12169100  1
  Ga  Ga13  1  0.50000000  0.33552900  0.87830900  1
  Ga  Ga14  1  0.50000000  0.83552900  0.62169100  1
  Ga  Ga15  1  0.50000000  0.16447100  0.37830900  1
  Ga  Ga16  1  0.00000000  0.83821000  0.45444100  1
  Ga  Ga17  1  0.00000000  0.16179000  0.54555900  1
  Ga  Ga18  1  0.00000000  0.66179000  0.95444100  1
  Ga  Ga19  1  0.00000000  0.33821000  0.04555900  1
  Ga  Ga20  1  0.00000000  0.59900200  0.24579800  1
  Ga  Ga21  1  0.00000000  0.40099800  0.75420200  1
  Ga  Ga22  1  0.00000000  0.90099800  0.74579800  1
  Ga  Ga23  1  0.00000000  0.09900200  0.25420200  1
  Ga  Ga24  1  0.50000000  0.83151200  0.00907500  1
  Ga  Ga25  1  0.50000000  0.16848800  0.99092500  1
  Ga  Ga26  1  0.50000000  0.66848800  0.50907500  1
  Ga  Ga27  1  0.50000000  0.33151200  0.49092500  1
  Ga  Ga28  1  0.50000000  0.52425500  0.36609900  1
  Ga  Ga29  1  0.50000000  0.47574500  0.63390100  1
  Ga  Ga30  1  0.50000000  0.97574500  0.86609900  1
  Ga  Ga31  1  0.50000000  0.02425500  0.13390100  1
  Fe  Fe0  1  0.00000000  0.65188700  0.40293700  1
  Fe  Fe1  1  0.00000000  0.34811300  0.59706300  1
  Fe  Fe2  1  0.00000000  0.84811300  0.90293700  1
  Fe  Fe3  1  0.00000000  0.15188700  0.09706300  1
  Fe  Fe4  1  0.00000000  0.53485800  0.09371900  1
  Fe  Fe5  1  0.00000000  0.46514200  0.90628100  1
  Fe  Fe6  1  0.00000000  0.96514200  0.59371900  1
  Fe  Fe7  1  0.00000000  0.03485800  0.40628100  1
loop_
_geom_bond_atom_site_label_1
_geom_bond_atom_site_label_2
_geom_bond_distance
_geom_bond_site_symmetry_2
Ga0 Ga29 2.790727 1_555
Ga0 Ga29 2.790727 1_455
Ga0 Ga28 2.790727 1_555
Ga0 Ga28 2.790727 1_455
Ga0 Ga26 2.931560 1_555
Ga0 Ga26 2.931560 1_455
Ga0 Ga27 2.931560 1_455
Ga0 Ga27 2.931560 1_555
Ga0 Sm2 3.274642 1_555
Ga0 Sm3 3.274642 1_555
Ga1 Ga31 2.790727 1_455
Ga1 Ga31 2.790727 1_555
Ga1 Ga30 2.790727 1_444
Ga1 Ga30 2.790727 1_544
Ga1 Ga25 2.931560 1_554
Ga1 Ga25 2.931560 1_454
Ga1 Ga24 2.931560 1_545
Ga1 Ga24 2.931560 1_445
Ga1 Sm1 3.274642 1_554
Ga1 Sm0 3.274642 1_545
Ga2 Ga9 2.685409 1_555
Ga2 Ga8 2.685409 1_545
Ga4 Ga8 2.693510 1_555
Ga4 Sm0 3.173945 1_555
Ga4 Sm0 3.173945 1_655
Ga5 Ga9 2.693510 1_555
Ga5 Sm1 3.173945 1_655
Ga5 Sm1 3.173945 1_555
Ga6 Sm2 3.173945 1_555
Ga6 Sm2 3.173945 1_655
Ga7 Sm3 3.173945 1_555
Ga7 Sm3 3.173945 1_655
Ga8 Sm0 3.125210 1_655
Ga8 Sm0 3.125210 1_555
Ga9 Sm1 3.125210 1_655
Ga9 Sm1 3.125210 1_555
Ga10 Ga3 2.685409 1_556
Ga10 Ga6 2.693510 1_555
Ga10 Ga29 2.803043 1_555
Ga10 Ga13 2.848792 1_555
Ga10 Ga21 2.895770 1_655
Ga10 Ga21 2.895770 1_555
Ga10 Sm2 3.125210 1_555
Ga10 Sm2 3.125210 1_655
Ga11 Ga3 2.685409 1_555
Ga11 Ga7 2.693510 1_555
Ga11 Ga28 2.803043 1_555
Ga11 Ga12 2.848792 1_555
Ga11 Ga20 2.895770 1_655
Ga11 Ga20 2.895770 1_555
Ga11 Sm3 3.125210 1_555
Ga11 Sm3 3.125210 1_655
Ga12 Ga24 2.666664 1_555
Ga12 Ga3 2.722448 1_555
Ga12 Ga20 2.804256 1_555
Ga12 Ga20 2.804256 1_655
Ga12 Ga4 3.077738 1_555
Ga12 Ga18 3.124612 1_554
Ga12 Ga18 3.124612 1_654
Ga12 Sm0 3.136063 1_555
Ga12 Sm0 3.136063 1_655
Ga13 Ga25 2.666664 1_555
Ga13 Ga3 2.722448 1_556
Ga13 Ga21 2.804256 1_555
Ga13 Ga21 2.804256 1_655
Ga13 Ga5 3.077738 1_555
Ga13 Ga19 3.124612 1_556
Ga13 Ga19 3.124612 1_656
Ga13 Sm1 3.136063 1_655
Ga13 Sm1 3.136063 1_555
Ga14 Ga26 2.666664 1_555
Ga14 Ga2 2.722448 1_565
Ga14 Ga22 2.804256 1_655
Ga14 Ga22 2.804256 1_555
Ga14 Ga9 2.848792 1_565
Ga14 Ga6 3.077738 1_555
Ga14 Ga16 3.124612 1_655
Ga14 Ga16 3.124612 1_555
Ga14 Sm2 3.136063 1_655
Ga14 Sm2 3.136063 1_555
Ga15 Ga27 2.666664 1_555
Ga15 Ga2 2.722448 1_555
Ga15 Ga23 2.804256 1_555
Ga15 Ga23 2.804256 1_655
Ga15 Ga8 2.848792 1_545
Ga15 Ga7 3.077738 1_555
Ga15 Ga17 3.124612 1_655
Ga15 Ga17 3.124612 1_555
Ga15 Sm3 3.136063 1_555
Ga15 Sm3 3.136063 1_655
Ga16 Ga2 2.940741 1_565
Ga16 Ga2 2.940741 1_465
Ga16 Ga4 3.000452 1_555
Ga16 Ga4 3.000452 1_455
Ga16 Ga26 3.042895 1_455
Ga16 Ga26 3.042895 1_555
Ga17 Ga2 2.940741 1_555
Ga17 Ga2 2.940741 1_455
Ga17 Ga5 3.000452 1_555
Ga17 Ga5 3.000452 1_455
Ga17 Ga27 3.042895 1_555
Ga17 Ga27 3.042895 1_455
Ga18 Ga3 2.940741 1_556
Ga18 Ga3 2.940741 1_456
Ga18 Ga6 3.000452 1_455
Ga18 Ga6 3.000452 1_555
Ga18 Ga24 3.042895 1_556
Ga18 Ga24 3.042895 1_456
Ga19 Ga3 2.940741 1_455
Ga19 Ga3 2.940741 1_555
Ga19 Ga7 3.000452 1_555
Ga19 Ga7 3.000452 1_455
Ga19 Ga25 3.042895 1_554
Ga19 Ga25 3.042895 1_454
Ga20 Ga28 2.807488 1_555
Ga20 Ga28 2.807488 1_455
Ga20 Ga4 2.909989 1_455
Ga20 Ga4 2.909989 1_555
Ga20 Sm0 3.231070 1_555
Ga20 Sm3 3.421987 1_555
Ga21 Ga29 2.807488 1_555
Ga21 Ga29 2.807488 1_455
Ga21 Ga5 2.909989 1_555
Ga21 Ga5 2.909989 1_455
Ga21 Sm1 3.231070 1_555
Ga21 Sm2 3.421987 1_555
Ga22 Ga30 2.807488 1_555
Ga22 Ga30 2.807488 1_455
Ga22 Ga9 2.895770 1_565
Ga22 Ga9 2.895770 1_465
Ga22 Ga6 2.909989 1_455
Ga22 Ga6 2.909989 1_555
Ga22 Sm2 3.231070 1_555
Ga22 Sm1 3.421987 1_565
Ga23 Ga31 2.807488 1_455
Ga23 Ga31 2.807488 1_555
Ga23 Ga8 2.895770 1_545
Ga23 Ga8 2.895770 1_445
Ga23 Ga7 2.909989 1_555
Ga23 Ga7 2.909989 1_455
Ga23 Sm3 3.231070 1_555
Ga23 Sm0 3.421987 1_545
Ga24 Ga30 2.750427 1_554
Ga24 Ga6 2.777408 1_554
Ga24 Ga31 3.033016 1_565
Ga24 Sm0 3.176573 1_555
Ga24 Sm0 3.176573 1_655
Ga25 Ga31 2.750427 1_556
Ga25 Ga7 2.777408 1_556
Ga25 Ga30 3.033016 1_545
Ga25 Sm1 3.176573 1_655
Ga25 Sm1 3.176573 1_555
Ga26 Ga28 2.750427 1_555
Ga26 Ga4 2.777408 1_555
Ga26 Ga29 3.033016 1_555
Ga26 Sm2 3.176573 1_555
Ga26 Sm2 3.176573 1_655
Ga27 Ga29 2.750427 1_555
Ga27 Ga5 2.777408 1_555
Ga27 Ga28 3.033016 1_555
Ga27 Sm3 3.176573 1_655
Ga27 Sm3 3.176573 1_555
Ga28 Ga4 2.784357 1_555
Ga28 Sm3 3.125987 1_555
Ga28 Sm3 3.125987 1_655
Ga29 Ga5 2.784357 1_555
Ga29 Sm2 3.125987 1_555
Ga29 Sm2 3.125987 1_655
Ga30 Ga6 2.784357 1_555
Ga30 Ga9 2.803043 1_565
Ga30 Sm1 3.125987 1_565
Ga30 Sm1 3.125987 1_665
Ga31 Ga7 2.784357 1_555
Ga31 Ga8 2.803043 1_545
Ga31 Sm0 3.125987 1_645
Ga31 Sm0 3.125987 1_545
Fe0 Ga20 2.353139 1_555
Fe0 Ga0 2.379101 1_555
Fe0 Ga16 2.478641 1_555
Fe0 Ga26 2.522897 1_455
Fe0 Ga26 2.522897 1_555
Fe0 Ga4 2.538105 1_555
Fe0 Ga4 2.538105 1_455
Fe0 Ga28 2.627931 1_555
Fe0 Ga28 2.627931 1_455
Fe1 Ga21 2.353139 1_555
Fe1 Ga0 2.379101 1_555
Fe1 Ga17 2.478641 1_555
Fe1 Ga27 2.522897 1_455
Fe1 Ga27 2.522897 1_555
Fe1 Ga5 2.538105 1_555
Fe1 Ga5 2.538105 1_455
Fe1 Ga29 2.627931 1_555
Fe1 Ga29 2.627931 1_455
Fe2 Ga22 2.353139 1_555
Fe2 Ga1 2.379101 1_566
Fe2 Ga18 2.478641 1_555
Fe2 Ga24 2.522897 1_556
Fe2 Ga24 2.522897 1_456
Fe2 Ga6 2.538105 1_555
Fe2 Ga6 2.538105 1_455
Fe2 Ga30 2.627931 1_455
Fe2 Ga30 2.627931 1_555
Fe3 Ga23 2.353139 1_555
Fe3 Ga1 2.379101 1_555
Fe3 Ga19 2.478641 1_555
Fe3 Ga25 2.522897 1_554
Fe3 Ga25 2.522897 1_454
Fe3 Ga7 2.538105 1_455
Fe3 Ga7 2.538105 1_555
Fe3 Ga31 2.627931 1_455
Fe3 Ga31 2.627931 1_555
Fe4 Ga20 2.329680 1_555
Fe4 Ga3 2.450555 1_455
Fe4 Ga3 2.450555 1_555
Fe4 Ga18 2.567772 1_554
Fe4 Ga19 2.590856 1_555
Fe4 Ga11 2.597225 1_555
Fe4 Ga11 2.597225 1_455
Fe4 Ga12 2.621035 1_555
Fe4 Ga12 2.621035 1_455
Fe4 Fe5 2.832052 1_554
Fe5 Ga21 2.329680 1_555
Fe5 Ga3 2.450555 1_556
Fe5 Ga3 2.450555 1_456
Fe5 Ga19 2.567772 1_556
Fe5 Ga18 2.590856 1_555
Fe5 Ga10 2.597225 1_455
Fe5 Ga10 2.597225 1_555
Fe5 Ga13 2.621035 1_555
Fe5 Ga13 2.621035 1_455
Fe6 Ga22 2.329680 1_555
Fe6 Ga2 2.450555 1_565
Fe6 Ga2 2.450555 1_465
Fe6 Ga16 2.567772 1_555
Fe6 Ga17 2.590856 1_565
Fe6 Ga9 2.597225 1_565
Fe6 Ga9 2.597225 1_465
Fe6 Ga14 2.621035 1_455
Fe6 Ga14 2.621035 1_555
Fe6 Fe7 2.832052 1_565
Fe7 Ga23 2.329680 1_555
Fe7 Ga2 2.450555 1_555
Fe7 Ga2 2.450555 1_455
Fe7 Ga17 2.567772 1_555
Fe7 Ga16 2.590856 1_545
Fe7 Ga8 2.597225 1_445
Fe7 Ga8 2.597225 1_545
Fe7 Ga15 2.621035 1_555
Fe7 Ga15 2.621035 1_455
