# generated using pymatgen
data_Y2Fe17C3
_symmetry_space_group_name_H-M   'P 1'
_cell_length_a   8.34147200
_cell_length_b   8.64763200
_cell_length_c   8.64763200
_cell_angle_alpha   120.00000004
_cell_angle_beta   90.00000000
_cell_angle_gamma   90.00000000
_symmetry_Int_Tables_number   1
_chemical_formula_structural   Y2Fe17C3
_chemical_formula_sum   'Y4 Fe34 C6'
_cell_volume   540.21635492
_cell_formula_units_Z   2
loop_
 _symmetry_equiv_pos_site_id
 _symmetry_equiv_pos_as_xyz
  1  'x, y, z'
loop_
 _atom_site_type_symbol
 _atom_site_label
 _atom_site_symmetry_multiplicity
 _atom_site_fract_x
 _atom_site_fract_y
 _atom_site_fract_z
 _atom_site_occupancy
  Y  Y0  1  0.75000000  0.66666700  0.33333300  1
  Y  Y1  1  0.25000000  0.33333300  0.66666700  1
  Y  Y2  1  0.75000000  0.00000000  0.00000000  1
  Y  Y3  1  0.25000000  0.00000000  0.00000000  1
  Fe  Fe0  1  0.75000000  0.62155900  0.67377000  1
  Fe  Fe1  1  0.25000000  0.37844100  0.32623000  1
  Fe  Fe2  1  0.75000000  0.05221100  0.37844100  1
  Fe  Fe3  1  0.25000000  0.94778900  0.32623000  1
  Fe  Fe4  1  0.25000000  0.94778900  0.62155900  1
  Fe  Fe5  1  0.75000000  0.05221100  0.67377000  1
  Fe  Fe6  1  0.75000000  0.32623000  0.94778900  1
  Fe  Fe7  1  0.25000000  0.67377000  0.62155900  1
  Fe  Fe8  1  0.25000000  0.67377000  0.05221100  1
  Fe  Fe9  1  0.75000000  0.32623000  0.37844100  1
  Fe  Fe10  1  0.25000000  0.37844100  0.05221100  1
  Fe  Fe11  1  0.75000000  0.62155900  0.94778900  1
  Fe  Fe12  1  0.39218900  0.66666700  0.33333300  1
  Fe  Fe13  1  0.60781100  0.33333300  0.66666700  1
  Fe  Fe14  1  0.89218900  0.33333300  0.66666700  1
  Fe  Fe15  1  0.10781100  0.66666700  0.33333300  1
  Fe  Fe16  1  0.97986600  0.83167600  0.16832400  1
  Fe  Fe17  1  0.02013400  0.16832400  0.83167600  1
  Fe  Fe18  1  0.97986600  0.33664700  0.16832400  1
  Fe  Fe19  1  0.47986600  0.16832400  0.83167600  1
  Fe  Fe20  1  0.02013400  0.66335300  0.83167600  1
  Fe  Fe21  1  0.52013400  0.83167600  0.16832400  1
  Fe  Fe22  1  0.97986600  0.83167600  0.66335300  1
  Fe  Fe23  1  0.47986600  0.66335300  0.83167600  1
  Fe  Fe24  1  0.02013400  0.16832400  0.33664700  1
  Fe  Fe25  1  0.52013400  0.33664700  0.16832400  1
  Fe  Fe26  1  0.47986600  0.16832400  0.33664700  1
  Fe  Fe27  1  0.52013400  0.83167600  0.66335300  1
  Fe  Fe28  1  0.00000000  0.50000000  0.50000000  1
  Fe  Fe29  1  0.00000000  0.00000000  0.50000000  1
  Fe  Fe30  1  0.50000000  0.50000000  0.50000000  1
  Fe  Fe31  1  0.00000000  0.50000000  0.00000000  1
  Fe  Fe32  1  0.50000000  0.00000000  0.50000000  1
  Fe  Fe33  1  0.50000000  0.50000000  0.00000000  1
  C  C0  1  0.75000000  0.83432600  0.16567400  1
  C  C1  1  0.25000000  0.16567400  0.83432600  1
  C  C2  1  0.75000000  0.33134900  0.16567400  1
  C  C3  1  0.25000000  0.66865100  0.83432600  1
  C  C4  1  0.75000000  0.83432600  0.66865100  1
  C  C5  1  0.25000000  0.16567400  0.33134900  1
loop_
_geom_bond_atom_site_label_1
_geom_bond_atom_site_label_2
_geom_bond_distance
_geom_bond_site_symmetry_2
Fe0 Fe28 2.476337 1_655
Fe0 Fe30 2.476337 1_555
Fe0 Fe13 2.733102 1_555
Fe0 Fe14 2.733102 1_555
Fe1 Fe28 2.476337 1_555
Fe1 Fe30 2.476337 1_555
Fe1 Fe15 2.733102 1_555
Fe1 Fe12 2.733102 1_555
Fe2 Fe29 2.476337 1_655
Fe2 Fe32 2.476337 1_555
Fe3 Fe32 2.476337 1_565
Fe10 Fe33 2.476337 1_555
Fe10 Fe31 2.476337 1_555
Fe10 Fe15 2.733098 1_555
Fe10 Fe12 2.733098 1_555
Fe11 Fe33 2.476337 1_556
Fe11 Fe31 2.476337 1_656
Fe11 Fe14 2.733098 1_555
Fe11 Fe13 2.733098 1_555
Fe12 Fe15 2.372131 1_555
Fe12 Fe33 2.653399 1_555
Fe12 Fe32 2.653399 1_565
Fe12 Fe30 2.653406 1_555
Fe12 Fe21 2.692113 1_555
Fe12 Fe27 2.692126 1_555
Fe12 Fe25 2.692126 1_555
Fe12 Fe8 2.733094 1_555
Fe12 Fe3 2.733094 1_555
Fe12 Fe4 2.733098 1_555
Fe12 Fe7 2.733102 1_555
Fe12 Y0 2.984670 1_555
Fe13 Fe14 2.372131 1_555
Fe13 Fe33 2.653399 1_556
Fe13 Fe32 2.653399 1_555
Fe13 Fe30 2.653406 1_555
Fe13 Fe19 2.692113 1_555
Fe13 Fe26 2.692126 1_555
Fe13 Fe23 2.692126 1_555
Fe13 Fe5 2.733094 1_555
Fe13 Fe6 2.733094 1_555
Fe13 Fe2 2.733098 1_555
Fe13 Fe9 2.733102 1_555
Fe13 Y1 2.984670 1_555
Fe14 Fe29 2.653399 1_655
Fe14 Fe31 2.653399 1_656
Fe14 Fe28 2.653406 1_655
Fe14 Fe17 2.692113 1_655
Fe14 Fe20 2.692126 1_655
Fe14 Fe24 2.692126 1_655
Fe14 Fe5 2.733094 1_555
Fe14 Fe6 2.733094 1_555
Fe14 Fe2 2.733098 1_555
Fe14 Fe9 2.733102 1_555
Fe14 Y1 2.984670 1_655
Fe15 Fe29 2.653399 1_565
Fe15 Fe31 2.653399 1_555
Fe15 Fe28 2.653406 1_555
Fe15 Fe16 2.692113 1_455
Fe15 Fe18 2.692126 1_455
Fe15 Fe22 2.692126 1_455
Fe15 Fe8 2.733094 1_555
Fe15 Fe3 2.733094 1_555
Fe15 Fe4 2.733098 1_555
Fe15 Fe7 2.733102 1_555
Fe15 Y0 2.984670 1_455
Fe16 Fe31 2.489709 1_655
Fe16 Fe29 2.489709 1_665
Fe17 Fe31 2.489709 1_556
Fe17 Fe29 2.489709 1_555
Fe18 Fe28 2.489708 1_655
Fe18 Fe31 2.489716 1_655
Fe19 Fe33 2.489709 1_556
Fe19 Fe32 2.489709 1_555
Fe20 Fe28 2.489708 1_555
Fe20 Fe31 2.489716 1_556
Fe21 Fe32 2.489709 1_565
Fe21 Fe33 2.489709 1_555
Fe22 Fe28 2.489708 1_655
Fe22 Fe29 2.489716 1_665
Fe23 Fe30 2.489708 1_555
Fe23 Fe33 2.489716 1_556
Fe24 Fe28 2.489708 1_555
Fe24 Fe29 2.489716 1_555
Fe25 Fe30 2.489708 1_555
Fe25 Fe33 2.489716 1_555
Fe26 Fe30 2.489708 1_555
Fe26 Fe32 2.489716 1_555
Fe27 Fe30 2.489708 1_555
Fe27 Fe32 2.489716 1_565
Fe28 Fe7 2.476337 1_555
Fe28 Fe9 2.476337 1_455
Fe28 Y1 3.252780 1_555
Fe28 Y0 3.252780 1_455
Fe29 Fe3 2.476337 1_545
Fe29 Fe5 2.476337 1_455
Fe29 Fe4 2.476337 1_545
Fe29 Y1 3.252775 1_555
Fe29 Y0 3.252775 1_445
Fe30 Fe9 2.476337 1_555
Fe30 Fe7 2.476337 1_555
Fe30 Y0 3.252780 1_555
Fe30 Y1 3.252780 1_555
Fe31 Fe8 2.476337 1_555
Fe31 Fe6 2.476337 1_454
Fe31 Y0 3.252775 1_455
Fe31 Y1 3.252775 1_554
Fe32 Fe5 2.476337 1_555
Fe32 Fe4 2.476337 1_545
Fe32 Y0 3.252775 1_545
Fe32 Y1 3.252775 1_555
Fe33 Fe8 2.476337 1_555
Fe33 Fe6 2.476337 1_554
Fe33 Y0 3.252775 1_555
Fe33 Y1 3.252775 1_554
C0 Fe2 1.862454 1_565
C0 Fe11 1.862454 1_554
C0 Fe16 1.917832 1_555
C0 Fe21 1.917832 1_555
C0 Y2 2.481488 1_565
C0 Y0 2.511220 1_555
C1 Fe4 1.862454 1_545
C1 Fe10 1.862454 1_556
C1 Fe17 1.917832 1_555
C1 Fe19 1.917832 1_555
C1 Y3 2.481488 1_556
C1 Y1 2.511220 1_555
C2 Fe6 1.862450 1_554
C2 Fe9 1.862459 1_555
C2 Fe25 1.917831 1_555
C2 Fe18 1.917831 1_555
C2 Y2 2.481496 1_555
C2 Y0 2.511220 1_555
C3 Fe8 1.862450 1_556
C3 Fe7 1.862459 1_555
C3 Fe23 1.917831 1_555
C3 Fe20 1.917831 1_555
C3 Y3 2.481496 1_566
C3 Y1 2.511220 1_555
C4 Fe5 1.862450 1_565
C4 Fe0 1.862459 1_555
C4 Fe27 1.917831 1_555
C4 Fe22 1.917831 1_555
C4 Y2 2.481496 1_566
C4 Y0 2.511220 1_555
C5 Fe3 1.862450 1_545
C5 Fe1 1.862459 1_555
C5 Fe26 1.917831 1_555
C5 Fe24 1.917831 1_555
C5 Y3 2.481496 1_555
C5 Y1 2.511220 1_555
