# generated using pymatgen
data_Li5Fe4(Si3O10)2
_symmetry_space_group_name_H-M   'P 1'
_cell_length_a   5.43148300
_cell_length_b   5.44587638
_cell_length_c   16.92860704
_cell_angle_alpha   90.20326968
_cell_angle_beta   94.82951821
_cell_angle_gamma   119.44582550
_symmetry_Int_Tables_number   1
_chemical_formula_structural   Li5Fe4(Si3O10)2
_chemical_formula_sum   'Li5 Fe4 Si6 O20'
_cell_volume   433.91882780
_cell_formula_units_Z   1
loop_
 _symmetry_equiv_pos_site_id
 _symmetry_equiv_pos_as_xyz
  1  'x, y, z'
loop_
 _atom_site_type_symbol
 _atom_site_label
 _atom_site_symmetry_multiplicity
 _atom_site_fract_x
 _atom_site_fract_y
 _atom_site_fract_z
 _atom_site_occupancy
  Li  Li0  1  0.61663800  0.43401400  0.76955400  1
  Li  Li1  1  0.49982800  0.33285200  0.44255900  1
  Li  Li2  1  0.49123200  0.66671800  0.55292300  1
  Li  Li3  1  0.39113700  0.57935100  0.24710400  1
  Li  Li4  1  0.50170100  0.84662400  0.04752100  1
  Fe  Fe0  1  0.18038900  0.00326700  0.57956800  1
  Fe  Fe1  1  0.19238100  0.17831500  0.08149300  1
  Fe  Fe2  1  0.81466000  0.81182000  0.91242200  1
  Fe  Fe3  1  0.79743100  0.00096000  0.41036100  1
  Si  Si0  1  0.00458800  0.13663300  0.74920500  1
  Si  Si1  1  0.84800000  0.33143300  0.60227800  1
  Si  Si2  1  0.15693900  0.46315600  0.90180700  1
  Si  Si3  1  0.85669900  0.51826400  0.09731600  1
  Si  Si4  1  0.14683000  0.68041200  0.40476400  1
  Si  Si5  1  0.99758700  0.86316800  0.24901400  1
  O  O0  1  0.20923900  0.10215300  0.69132800  1
  O  O1  1  0.18771200  0.13470500  0.19696600  1
  O  O2  1  0.82286300  0.27181200  0.69905900  1
  O  O3  1  0.88120800  0.50767300  0.89092900  1
  O  O4  1  0.84727000  0.05654800  0.55963600  1
  O  O5  1  0.08656400  0.18784600  0.95575900  1
  O  O6  1  0.55937400  0.33827300  0.56742700  1
  O  O7  1  0.56523000  0.22723100  0.06617400  1
  O  O8  1  0.84973800  0.38996700  0.40918700  1
  O  O9  1  0.23269700  0.38621200  0.81548700  1
  O  O10  1  0.81819800  0.57669900  0.18895500  1
  O  O11  1  0.13625500  0.62892400  0.59000000  1
  O  O12  1  0.44860200  0.73857200  0.93827500  1
  O  O13  1  0.42280900  0.64730700  0.43585900  1
  O  O14  1  0.87928800  0.79275400  0.04930300  1
  O  O15  1  0.14852600  0.94714200  0.45461700  1
  O  O16  1  0.15789500  0.51659500  0.09251100  1
  O  O17  1  0.20044900  0.78192700  0.31093300  1
  O  O18  1  0.79595400  0.86504200  0.79664900  1
  O  O19  1  0.76097800  0.88371000  0.29481300  1
loop_
_geom_bond_atom_site_label_1
_geom_bond_atom_site_label_2
_geom_bond_distance
_geom_bond_site_symmetry_2
Li0 O18 2.082851 1_555
Li0 O2 2.156266 1_555
Li0 O9 2.182176 1_555
Li0 O3 2.319043 1_555
Li0 O0 2.339655 1_555
Li1 O8 1.904927 1_555
Li1 O13 1.954020 1_555
Li1 O15 2.054910 1_545
Li1 O6 2.109230 1_555
Li2 O13 1.977984 1_555
Li2 O11 1.992040 1_555
Li2 O6 2.008809 1_555
Li2 O4 2.045572 1_565
Li3 O19 1.969394 1_555
Li3 O17 2.181909 1_555
Li3 O1 2.236462 1_555
Li4 O12 1.893479 1_554
Li4 O7 1.946492 1_565
Li4 O16 2.060771 1_555
Li4 O14 2.207756 1_555
Fe0 O0 1.937494 1_555
Fe0 O11 1.942640 1_545
Fe0 O4 1.971243 1_455
Fe0 O6 1.997360 1_555
Fe0 O15 2.116460 1_545
Fe1 O7 1.948807 1_555
Fe1 O16 1.951001 1_555
Fe1 O1 1.970786 1_555
Fe1 O14 1.980606 1_445
Fe1 O5 2.165102 1_554
Fe2 O3 1.900796 1_555
Fe2 O12 1.916175 1_555
Fe2 O5 1.935504 1_665
Fe2 O18 1.983658 1_555
Fe2 O14 2.324654 1_556
Fe3 O8 1.994636 1_555
Fe3 O19 2.018599 1_545
Fe3 O13 2.082453 1_545
Fe3 O15 2.143413 1_645
Fe3 O4 2.519833 1_555
O0 Si0 1.618047 1_555
O1 Si5 1.640274 1_445
O2 Si1 1.675161 1_555
O2 Si0 1.677672 1_655
O3 Si2 1.626786 1_655
O4 Si1 1.657741 1_555
O5 Si2 1.653248 1_555
O6 Si1 1.645867 1_555
O7 Si3 1.637907 1_555
O8 Si4 1.619581 1_655
O9 Si0 1.655547 1_555
O9 Si2 1.657304 1_555
O10 Si3 1.633446 1_555
O10 Si5 1.656598 1_555
O11 Si1 1.637826 1_455
O12 Si2 1.622638 1_555
O13 Si4 1.640133 1_555
O14 Si3 1.659915 1_555
O15 Si4 1.673064 1_555
O16 Si3 1.649249 1_455
O17 Si5 1.672316 1_455
O17 Si4 1.685044 1_555
O18 Si0 1.621903 1_665
O19 Si5 1.604280 1_555
