# generated using pymatgen
data_Cr12Ga2(CoS8)3
_symmetry_space_group_name_H-M   'P 1'
_cell_length_a   15.62151263
_cell_length_b   15.62151263
_cell_length_c   15.62151263
_cell_angle_alpha   154.08745586
_cell_angle_beta   154.08745586
_cell_angle_gamma   36.97250166
_symmetry_Int_Tables_number   1
_chemical_formula_structural   Cr12Ga2(CoS8)3
_chemical_formula_sum   'Cr12 Ga2 Co3 S24'
_cell_volume   726.97652682
_cell_formula_units_Z   1
loop_
 _symmetry_equiv_pos_site_id
 _symmetry_equiv_pos_as_xyz
  1  'x, y, z'
loop_
 _atom_site_type_symbol
 _atom_site_label
 _atom_site_symmetry_multiplicity
 _atom_site_fract_x
 _atom_site_fract_y
 _atom_site_fract_z
 _atom_site_occupancy
  Cr  Cr0  1  0.37589300  0.11935700  0.74346300  1
  Cr  Cr1  1  0.70935600  0.45918600  0.74983000  1
  Cr  Cr2  1  0.04292400  0.77891600  0.73599200  1
  Cr  Cr3  1  0.04292400  0.30693200  0.26400800  1
  Cr  Cr4  1  0.37589300  0.63243000  0.25653700  1
  Cr  Cr5  1  0.70935600  0.95952700  0.25017000  1
  Cr  Cr6  1  0.88064300  0.62410700  0.25653700  1
  Cr  Cr7  1  0.22108400  0.95707600  0.26400800  1
  Cr  Cr8  1  0.54081400  0.29064400  0.25017000  1
  Cr  Cr9  1  0.36757000  0.62410700  0.74346300  1
  Cr  Cr10  1  0.69306800  0.95707600  0.73599200  1
  Cr  Cr11  1  0.04047300  0.29064400  0.74983000  1
  Ga  Ga0  1  0.91759800  0.41759800  0.50000000  1
  Ga  Ga1  1  0.58240200  0.08240200  0.50000000  1
  Co  Co0  1  0.83231300  0.83231300  0.00000000  1
  Co  Co1  1  0.16768700  0.16768700  0.00000000  1
  Co  Co2  1  0.25000000  0.75000000  0.50000000  1
  S  S0  1  0.45505000  0.72135700  0.26630600  1
  S  S1  1  0.78931400  0.05436600  0.26505200  1
  S  S2  1  0.12330900  0.38572000  0.26241200  1
  S  S3  1  0.45505000  0.18874400  0.73369400  1
  S  S4  1  0.78931400  0.52426100  0.73494800  1
  S  S5  1  0.12330900  0.86089700  0.73758800  1
  S  S6  1  0.27864300  0.54495000  0.73369400  1
  S  S7  1  0.61428000  0.87669100  0.73758800  1
  S  S8  1  0.94563400  0.21068600  0.73494800  1
  S  S9  1  0.81125600  0.54495000  0.26630600  1
  S  S10  1  0.13910300  0.87669100  0.26241200  1
  S  S11  1  0.47573900  0.21068600  0.26505200  1
  S  S12  1  0.96170700  0.19212800  0.23042100  1
  S  S13  1  0.29365900  0.52974200  0.23608400  1
  S  S14  1  0.62820200  0.85852600  0.23032400  1
  S  S15  1  0.96170700  0.73128700  0.76957900  1
  S  S16  1  0.29365900  0.05757500  0.76391600  1
  S  S17  1  0.62820200  0.39787800  0.76967600  1
  S  S18  1  0.14147400  0.37179800  0.76967600  1
  S  S19  1  0.47025800  0.70634100  0.76391600  1
  S  S20  1  0.80787200  0.03829300  0.76957900  1
  S  S21  1  0.60212200  0.37179800  0.23032400  1
  S  S22  1  0.94242500  0.70634100  0.23608400  1
  S  S23  1  0.26871300  0.03829300  0.23042100  1
loop_
_geom_bond_atom_site_label_1
_geom_bond_atom_site_label_2
_geom_bond_distance
_geom_bond_site_symmetry_2
Cr0 S3 2.346475 1_555
Cr0 S10 2.383048 1_545
Cr0 S7 2.383058 1_545
Cr0 S18 2.418066 1_555
Cr0 S21 2.418071 1_556
Cr0 S16 2.440889 1_555
Cr1 S4 2.371503 1_555
Cr1 S8 2.402668 1_555
Cr1 S11 2.402669 1_555
Cr1 S17 2.408679 1_555
Cr1 S19 2.411185 1_555
Cr1 S22 2.411191 1_556
Cr2 S6 2.327257 1_555
Cr2 S9 2.327262 1_455
Cr2 S5 2.381904 1_555
Cr2 S15 2.417990 1_455
Cr2 S20 2.458494 1_465
Cr2 S23 2.458495 1_566
Cr3 S6 2.327262 1_555
Cr3 S9 2.327262 1_455
Cr3 S2 2.381890 1_555
Cr3 S12 2.418004 1_455
Cr3 S23 2.458490 1_555
Cr3 S20 2.458494 1_454
Cr4 S0 2.346504 1_555
Cr4 S10 2.383048 1_555
Cr4 S7 2.383048 1_555
Cr4 S18 2.418070 1_554
Cr4 S21 2.418070 1_555
Cr4 S13 2.440889 1_555
Cr5 S1 2.371503 1_565
Cr5 S11 2.402658 1_565
Cr5 S8 2.402668 1_565
Cr5 S14 2.408694 1_555
Cr5 S19 2.411191 1_554
Cr5 S22 2.411196 1_555
Cr6 S9 2.346475 1_555
Cr6 S5 2.383048 1_655
Cr6 S2 2.383058 1_655
Cr6 S14 2.418066 1_555
Cr6 S17 2.418071 1_554
Cr6 S22 2.440889 1_555
Cr7 S0 2.327257 1_555
Cr7 S3 2.327262 1_565
Cr7 S10 2.381904 1_555
Cr7 S23 2.417990 1_565
Cr7 S12 2.458494 1_465
Cr7 S15 2.458495 1_454
Cr8 S11 2.371503 1_555
Cr8 S1 2.402668 1_555
Cr8 S4 2.402669 1_555
Cr8 S21 2.408679 1_555
Cr8 S13 2.411185 1_555
Cr8 S16 2.411191 1_554
Cr9 S6 2.346504 1_555
Cr9 S5 2.383048 1_555
Cr9 S2 2.383048 1_555
Cr9 S17 2.418070 1_555
Cr9 S14 2.418070 1_556
Cr9 S19 2.440889 1_555
Cr10 S0 2.327262 1_555
Cr10 S3 2.327262 1_565
Cr10 S7 2.381890 1_555
Cr10 S20 2.418004 1_565
Cr10 S15 2.458490 1_555
Cr10 S12 2.458494 1_566
Cr11 S8 2.371503 1_455
Cr11 S4 2.402658 1_455
Cr11 S1 2.402668 1_455
Cr11 S18 2.408694 1_555
Cr11 S13 2.411191 1_556
Cr11 S16 2.411196 1_555
Ga0 S12 2.296561 1_555
Ga0 S15 2.296572 1_555
Ga0 S18 2.325993 1_655
Ga0 S21 2.325993 1_555
Ga1 S20 2.296561 1_555
Ga1 S23 2.296572 1_555
Ga1 S17 2.325993 1_555
Ga1 S14 2.325993 1_545
Co0 S1 2.251786 1_565
Co0 S4 2.251797 1_554
Co0 S10 2.260089 1_655
Co0 S7 2.260095 1_554
Co1 S8 2.251786 1_454
Co1 S11 2.251797 1_555
Co1 S5 2.260089 1_544
Co1 S2 2.260095 1_555
Co2 S19 2.256378 1_555
Co2 S13 2.256378 1_555
Co2 S16 2.256384 1_565
Co2 S22 2.256384 1_455
