# generated using pymatgen
data_Mg6MnSb
_symmetry_space_group_name_H-M   'P 1'
_cell_length_a   5.15791900
_cell_length_b   6.20303000
_cell_length_c   10.78813700
_cell_angle_alpha   90.00000000
_cell_angle_beta   90.00000000
_cell_angle_gamma   90.00000000
_symmetry_Int_Tables_number   1
_chemical_formula_structural   Mg6MnSb
_chemical_formula_sum   'Mg12 Mn2 Sb2'
_cell_volume   345.16349054
_cell_formula_units_Z   2
loop_
 _symmetry_equiv_pos_site_id
 _symmetry_equiv_pos_as_xyz
  1  'x, y, z'
loop_
 _atom_site_type_symbol
 _atom_site_label
 _atom_site_symmetry_multiplicity
 _atom_site_fract_x
 _atom_site_fract_y
 _atom_site_fract_z
 _atom_site_occupancy
  Mg  Mg0  1  0.00000000  0.74874800  0.91626600  1
  Mg  Mg1  1  0.00000000  0.25125200  0.91626600  1
  Mg  Mg2  1  0.50000000  0.25817900  0.58361200  1
  Mg  Mg3  1  0.50000000  0.74182100  0.58361200  1
  Mg  Mg4  1  0.50000000  0.50000000  0.82983000  1
  Mg  Mg5  1  0.50000000  0.00000000  0.83543400  1
  Mg  Mg6  1  0.00000000  0.24874800  0.41626600  1
  Mg  Mg7  1  0.00000000  0.75125200  0.41626600  1
  Mg  Mg8  1  0.50000000  0.75817900  0.08361200  1
  Mg  Mg9  1  0.50000000  0.24182100  0.08361200  1
  Mg  Mg10  1  0.50000000  0.00000000  0.32983000  1
  Mg  Mg11  1  0.50000000  0.50000000  0.33543400  1
  Mn  Mn0  1  0.00000000  0.50000000  0.66728900  1
  Mn  Mn1  1  0.00000000  0.00000000  0.16728900  1
  Sb  Sb0  1  0.00000000  0.00000000  0.66768600  1
  Sb  Sb1  1  0.00000000  0.50000000  0.16768600  1
loop_
_geom_bond_atom_site_label_1
_geom_bond_atom_site_label_2
_geom_bond_distance
_geom_bond_site_symmetry_2
Mg0 Mg1 3.085983 1_555
Mg0 Mn0 3.097645 1_555
Mg0 Sb0 3.101708 1_565
Mg0 Mg1 3.117047 1_565
Mg0 Sb1 3.120526 1_556
Mg0 Mn1 3.124523 1_566
Mg0 Mg5 3.136951 1_565
Mg0 Mg5 3.136951 1_465
Mg0 Mg4 3.146646 1_455
Mg0 Mg4 3.146646 1_555
Mg0 Mg8 3.148611 1_456
Mg0 Mg8 3.148611 1_556
Mg1 Mn0 3.097645 1_555
Mg1 Sb0 3.101708 1_555
Mg1 Sb1 3.120526 1_556
Mg1 Mn1 3.124523 1_556
Mg1 Mg5 3.136951 1_455
Mg1 Mg5 3.136951 1_555
Mg1 Mg4 3.146646 1_555
Mg1 Mg4 3.146646 1_455
Mg1 Mg9 3.148611 1_556
Mg1 Mg9 3.148611 1_456
Mg2 Mg3 3.000046 1_555
Mg2 Mg4 3.050516 1_555
Mg2 Mn0 3.117050 1_655
Mg2 Mn0 3.117050 1_555
Mg2 Mg6 3.148611 1_555
Mg2 Mg6 3.148611 1_655
Mg2 Mg5 3.153598 1_555
Mg2 Sb0 3.168353 1_555
Mg2 Sb0 3.168353 1_655
Mg2 Mg3 3.202984 1_545
Mg3 Mg4 3.050516 1_555
Mg3 Mn0 3.117050 1_655
Mg3 Mn0 3.117050 1_555
Mg3 Mg7 3.148611 1_555
Mg3 Mg7 3.148611 1_655
Mg3 Mg5 3.153598 1_565
Mg3 Sb0 3.168353 1_565
Mg3 Sb0 3.168353 1_665
Mg4 Mg5 3.102104 1_555
Mg4 Mg5 3.102104 1_565
Mg4 Mn0 3.118629 1_555
Mg4 Mn0 3.118629 1_655
Mg4 Mg8 3.171832 1_556
Mg4 Mg9 3.171832 1_556
Mg5 Mg9 3.068945 1_556
Mg5 Mg8 3.068945 1_546
Mg5 Sb0 3.150556 1_655
Mg5 Sb0 3.150556 1_555
Mg6 Mg7 3.085983 1_545
Mg6 Mn1 3.097645 1_555
Mg6 Sb1 3.101708 1_555
Mg6 Mg7 3.117047 1_555
Mg6 Sb0 3.120526 1_555
Mg6 Mn0 3.124523 1_555
Mg7 Mn1 3.097645 1_565
Mg7 Sb1 3.101708 1_555
Mg7 Sb0 3.120526 1_565
Mg7 Mn0 3.124523 1_555
Mg8 Mg9 3.000046 1_565
Mg8 Mn1 3.117050 1_665
Mg8 Mn1 3.117050 1_565
Mg8 Sb1 3.168353 1_655
Mg8 Sb1 3.168353 1_555
Mg8 Mg9 3.202984 1_555
Mg9 Mn1 3.117050 1_555
Mg9 Mn1 3.117050 1_655
Mg9 Sb1 3.168353 1_655
Mg9 Sb1 3.168353 1_555
Mg10 Mg9 3.050516 1_555
Mg10 Mg8 3.050516 1_545
Mg10 Mg11 3.102104 1_545
Mg10 Mg11 3.102104 1_555
Mg10 Mn1 3.118629 1_655
Mg10 Mn1 3.118629 1_555
Mg10 Mg6 3.146646 1_655
Mg10 Mg6 3.146646 1_555
Mg10 Mg7 3.146646 1_545
Mg10 Mg7 3.146646 1_645
Mg10 Mg3 3.171832 1_545
Mg10 Mg2 3.171832 1_555
Mg11 Mg2 3.068945 1_555
Mg11 Mg3 3.068945 1_555
Mg11 Mg7 3.136951 1_555
Mg11 Mg7 3.136951 1_655
Mg11 Mg6 3.136951 1_655
Mg11 Mg6 3.136951 1_555
Mg11 Sb1 3.150556 1_555
Mg11 Sb1 3.150556 1_655
Mg11 Mg8 3.153598 1_555
Mg11 Mg9 3.153598 1_555
Mn0 Sb0 3.101518 1_565
Mn0 Sb0 3.101518 1_555
Mn1 Sb1 3.101518 1_555
Mn1 Sb1 3.101518 1_545
