# generated using pymatgen
data_MgIn2
_symmetry_space_group_name_H-M   'P 1'
_cell_length_a   12.18484017
_cell_length_b   12.18484017
_cell_length_c   16.21991420
_cell_angle_alpha   69.58633175
_cell_angle_beta   69.58633175
_cell_angle_gamma   32.75718622
_symmetry_Int_Tables_number   1
_chemical_formula_structural   MgIn2
_chemical_formula_sum   'Mg16 In32'
_cell_volume   1213.85718596
_cell_formula_units_Z   16
loop_
 _symmetry_equiv_pos_site_id
 _symmetry_equiv_pos_as_xyz
  1  'x, y, z'
loop_
 _atom_site_type_symbol
 _atom_site_label
 _atom_site_symmetry_multiplicity
 _atom_site_fract_x
 _atom_site_fract_y
 _atom_site_fract_z
 _atom_site_occupancy
  Mg  Mg0_0  1  0.01347300  0.01347300  0.34961500  1
  Mg  Mg0_1  1  0.01347300  0.01347300  0.84961500  1
  Mg  Mg0_2  1  0.01347300  0.51347300  0.34961500  1
  Mg  Mg0_3  1  0.01347300  0.51347300  0.84961500  1
  Mg  Mg0_4  1  0.51347300  0.01347300  0.34961500  1
  Mg  Mg0_5  1  0.51347300  0.01347300  0.84961500  1
  Mg  Mg0_6  1  0.51347300  0.51347300  0.34961500  1
  Mg  Mg0_7  1  0.51347300  0.51347300  0.84961500  1
  Mg  Mg1_0  1  0.48652700  0.48652700  0.15038500  1
  Mg  Mg1_1  1  0.48652700  0.48652700  0.65038500  1
  Mg  Mg1_2  1  0.48652700  0.98652700  0.15038500  1
  Mg  Mg1_3  1  0.48652700  0.98652700  0.65038500  1
  Mg  Mg1_4  1  0.98652700  0.48652700  0.15038500  1
  Mg  Mg1_5  1  0.98652700  0.48652700  0.65038500  1
  Mg  Mg1_6  1  0.98652700  0.98652700  0.15038500  1
  Mg  Mg1_7  1  0.98652700  0.98652700  0.65038500  1
  In  In0_0  1  0.15632750  0.15632750  0.31650100  1
  In  In0_1  1  0.15632750  0.15632750  0.81650100  1
  In  In0_2  1  0.15632750  0.65632750  0.31650100  1
  In  In0_3  1  0.15632750  0.65632750  0.81650100  1
  In  In0_4  1  0.65632750  0.15632750  0.31650100  1
  In  In0_5  1  0.65632750  0.15632750  0.81650100  1
  In  In0_6  1  0.65632750  0.65632750  0.31650100  1
  In  In0_7  1  0.65632750  0.65632750  0.81650100  1
  In  In1_0  1  0.32030800  0.32030800  0.48355500  1
  In  In1_1  1  0.32030800  0.32030800  0.98355500  1
  In  In1_2  1  0.32030800  0.82030800  0.48355500  1
  In  In1_3  1  0.32030800  0.82030800  0.98355500  1
  In  In1_4  1  0.82030800  0.32030800  0.48355500  1
  In  In1_5  1  0.82030800  0.32030800  0.98355500  1
  In  In1_6  1  0.82030800  0.82030800  0.48355500  1
  In  In1_7  1  0.82030800  0.82030800  0.98355500  1
  In  In2_0  1  0.17969200  0.17969200  0.01644500  1
  In  In2_1  1  0.17969200  0.17969200  0.51644500  1
  In  In2_2  1  0.17969200  0.67969200  0.01644500  1
  In  In2_3  1  0.17969200  0.67969200  0.51644500  1
  In  In2_4  1  0.67969200  0.17969200  0.01644500  1
  In  In2_5  1  0.67969200  0.17969200  0.51644500  1
  In  In2_6  1  0.67969200  0.67969200  0.01644500  1
  In  In2_7  1  0.67969200  0.67969200  0.51644500  1
  In  In3_0  1  0.34367250  0.34367250  0.18349900  1
  In  In3_1  1  0.34367250  0.34367250  0.68349900  1
  In  In3_2  1  0.34367250  0.84367250  0.18349900  1
  In  In3_3  1  0.34367250  0.84367250  0.68349900  1
  In  In3_4  1  0.84367250  0.34367250  0.18349900  1
  In  In3_5  1  0.84367250  0.34367250  0.68349900  1
  In  In3_6  1  0.84367250  0.84367250  0.18349900  1
  In  In3_7  1  0.84367250  0.84367250  0.68349900  1
loop_
_geom_bond_atom_site_label_1
_geom_bond_atom_site_label_2
_geom_bond_distance
_geom_bond_site_symmetry_2
Mg0_0 Mg0_6 3.435918 1_545
Mg0_0 Mg0_6 3.435918 1_455
Mg0_0 Mg1_6 3.509953 1_445
Mg0_1 Mg0_7 3.435918 1_545
Mg0_1 Mg0_7 3.435918 1_455
Mg0_1 Mg1_7 3.509953 1_445
Mg0_2 Mg0_4 3.435918 1_555
Mg0_2 Mg0_4 3.435918 1_465
Mg0_2 Mg1_4 3.509953 1_455
Mg0_3 Mg0_5 3.435918 1_555
Mg0_3 Mg0_5 3.435918 1_465
Mg0_3 Mg1_5 3.509953 1_455
Mg0_4 Mg1_2 3.509953 1_545
Mg0_5 Mg1_3 3.509953 1_545
Mg0_6 Mg1_0 3.509953 1_555
Mg0_7 Mg1_1 3.509953 1_555
Mg1_0 Mg1_6 3.435918 1_545
Mg1_0 Mg1_6 3.435918 1_455
Mg1_1 Mg1_7 3.435918 1_545
Mg1_1 Mg1_7 3.435918 1_455
Mg1_2 Mg1_4 3.435918 1_555
Mg1_2 Mg1_4 3.435918 1_465
Mg1_3 Mg1_5 3.435918 1_555
Mg1_3 Mg1_5 3.435918 1_465
In0_0 Mg1_2 3.170753 1_545
In0_0 Mg1_4 3.170753 1_455
In0_0 Mg0_0 3.184336 1_555
In0_0 In1_2 3.221164 1_545
In0_0 In1_4 3.221164 1_455
In0_0 Mg0_2 3.239433 1_555
In0_0 Mg0_4 3.239433 1_555
In0_0 In0_6 3.435918 1_545
In0_0 In0_6 3.435918 1_455
In0_0 In3_4 3.471173 1_455
In0_0 In3_2 3.471173 1_545
In0_0 In2_1 3.479094 1_555
In0_1 Mg1_5 3.170753 1_455
In0_1 Mg1_3 3.170753 1_545
In0_1 Mg0_1 3.184336 1_555
In0_1 In1_3 3.221164 1_545
In0_1 In1_5 3.221164 1_455
In0_1 Mg0_5 3.239433 1_555
In0_1 Mg0_3 3.239433 1_555
In0_1 In0_7 3.435918 1_545
In0_1 In0_7 3.435918 1_455
In0_1 In3_3 3.471173 1_545
In0_1 In3_5 3.471173 1_455
In0_1 In2_0 3.479094 1_556
In0_2 Mg1_0 3.170753 1_555
In0_2 Mg1_6 3.170753 1_455
In0_2 Mg0_2 3.184336 1_555
In0_2 In1_0 3.221164 1_555
In0_2 In1_6 3.221164 1_455
In0_2 Mg0_0 3.239433 1_565
In0_2 Mg0_6 3.239433 1_555
In0_2 In0_4 3.435918 1_555
In0_2 In0_4 3.435918 1_465
In0_2 In3_0 3.471173 1_555
In0_2 In3_6 3.471173 1_455
In0_2 In2_3 3.479094 1_555
In0_3 Mg1_7 3.170753 1_455
In0_3 Mg1_1 3.170753 1_555
In0_3 Mg0_3 3.184336 1_555
In0_3 In1_1 3.221164 1_555
In0_3 In1_7 3.221164 1_455
In0_3 Mg0_7 3.239433 1_555
In0_3 Mg0_1 3.239433 1_565
In0_3 In0_5 3.435918 1_555
In0_3 In0_5 3.435918 1_465
In0_3 In3_1 3.471173 1_555
In0_3 In3_7 3.471173 1_455
In0_3 In2_2 3.479094 1_556
In0_4 Mg1_6 3.170753 1_545
In0_4 Mg1_0 3.170753 1_555
In0_4 Mg0_4 3.184336 1_555
In0_4 In1_6 3.221164 1_545
In0_4 In1_0 3.221164 1_555
In0_4 Mg0_0 3.239433 1_655
In0_4 Mg0_6 3.239433 1_555
In0_4 In3_0 3.471173 1_555
In0_4 In3_6 3.471173 1_545
In0_4 In2_5 3.479094 1_555
In0_5 Mg1_7 3.170753 1_545
In0_5 Mg1_1 3.170753 1_555
In0_5 Mg0_5 3.184336 1_555
In0_5 In1_7 3.221164 1_545
In0_5 In1_1 3.221164 1_555
In0_5 Mg0_7 3.239433 1_555
In0_5 Mg0_1 3.239433 1_655
In0_5 In3_1 3.471173 1_555
In0_5 In3_7 3.471173 1_545
In0_5 In2_4 3.479094 1_556
In0_6 Mg1_4 3.170753 1_555
In0_6 Mg1_2 3.170753 1_555
In0_6 Mg0_6 3.184336 1_555
In0_6 In1_4 3.221164 1_555
In0_6 In1_2 3.221164 1_555
In0_6 Mg0_4 3.239433 1_565
In0_6 Mg0_2 3.239433 1_655
In0_6 In3_4 3.471173 1_555
In0_6 In3_2 3.471173 1_555
In0_6 In2_7 3.479094 1_555
In0_7 Mg1_3 3.170753 1_555
In0_7 Mg1_5 3.170753 1_555
In0_7 Mg0_7 3.184336 1_555
In0_7 In1_3 3.221164 1_555
In0_7 In1_5 3.221164 1_555
In0_7 Mg0_5 3.239433 1_565
In0_7 Mg0_3 3.239433 1_655
In0_7 In3_5 3.471173 1_555
In0_7 In3_3 3.471173 1_555
In0_7 In2_6 3.479094 1_556
In1_0 In2_1 3.133425 1_555
In1_0 Mg1_5 3.202612 1_455
In1_0 Mg1_3 3.202612 1_545
In1_0 In2_5 3.281568 1_555
In1_0 In2_3 3.281568 1_555
In1_0 Mg0_4 3.396470 1_555
In1_0 Mg0_2 3.396470 1_555
In1_0 In1_6 3.435918 1_545
In1_0 In1_6 3.435918 1_455
In1_0 In3_1 3.479094 1_555
In1_1 In2_0 3.133425 1_556
In1_1 Mg1_2 3.202612 1_546
In1_1 Mg1_4 3.202612 1_456
In1_1 In2_2 3.281568 1_556
In1_1 In2_4 3.281568 1_556
In1_1 Mg0_3 3.396470 1_555
In1_1 Mg0_5 3.396470 1_555
In1_1 In1_7 3.435918 1_455
In1_1 In1_7 3.435918 1_545
In1_1 In3_0 3.479094 1_556
In1_2 In2_3 3.133425 1_555
In1_2 Mg1_1 3.202612 1_555
In1_2 Mg1_7 3.202612 1_455
In1_2 In2_7 3.281568 1_555
In1_2 In2_1 3.281568 1_565
In1_2 Mg0_6 3.396470 1_555
In1_2 Mg0_0 3.396470 1_565
In1_2 In1_4 3.435918 1_465
In1_2 In1_4 3.435918 1_555
In1_2 In3_3 3.479094 1_555
In1_3 In2_2 3.133425 1_556
In1_3 Mg1_0 3.202612 1_556
In1_3 Mg1_6 3.202612 1_456
In1_3 In2_0 3.281568 1_566
In1_3 In2_6 3.281568 1_556
In1_3 Mg0_1 3.396470 1_565
In1_3 Mg0_7 3.396470 1_555
In1_3 In1_5 3.435918 1_555
In1_3 In1_5 3.435918 1_465
In1_3 In3_2 3.479094 1_556
In1_4 In2_5 3.133425 1_555
In1_4 Mg1_1 3.202612 1_555
In1_4 Mg1_7 3.202612 1_545
In1_4 In2_7 3.281568 1_555
In1_4 In2_1 3.281568 1_655
In1_4 Mg0_0 3.396470 1_655
In1_4 Mg0_6 3.396470 1_555
In1_4 In3_5 3.479094 1_555
In1_5 In2_4 3.133425 1_556
In1_5 Mg1_0 3.202612 1_556
In1_5 Mg1_6 3.202612 1_546
In1_5 In2_6 3.281568 1_556
In1_5 In2_0 3.281568 1_656
In1_5 Mg0_1 3.396470 1_655
In1_5 Mg0_7 3.396470 1_555
In1_5 In3_4 3.479094 1_556
In1_6 In2_7 3.133425 1_555
In1_6 Mg1_3 3.202612 1_555
In1_6 Mg1_5 3.202612 1_555
In1_6 In2_5 3.281568 1_565
In1_6 In2_3 3.281568 1_655
In1_6 Mg0_4 3.396470 1_565
In1_6 Mg0_2 3.396470 1_655
In1_6 In3_7 3.479094 1_555
In1_7 In2_6 3.133425 1_556
In1_7 Mg1_2 3.202612 1_556
In1_7 Mg1_4 3.202612 1_556
In1_7 In2_2 3.281568 1_656
In1_7 In2_4 3.281568 1_566
In1_7 Mg0_3 3.396470 1_655
In1_7 Mg0_5 3.396470 1_565
In1_7 In3_6 3.479094 1_556
In2_0 Mg0_5 3.202612 1_554
In2_0 Mg0_3 3.202612 1_554
In2_0 In3_4 3.221164 1_455
In2_0 In3_2 3.221164 1_545
In2_0 Mg1_2 3.396470 1_545
In2_0 Mg1_4 3.396470 1_455
In2_0 In2_6 3.435918 1_545
In2_0 In2_6 3.435918 1_455
In2_1 Mg0_2 3.202612 1_555
In2_1 Mg0_4 3.202612 1_555
In2_1 In3_3 3.221164 1_545
In2_1 In3_5 3.221164 1_455
In2_1 Mg1_3 3.396470 1_545
In2_1 Mg1_5 3.396470 1_455
In2_1 In2_7 3.435918 1_545
In2_1 In2_7 3.435918 1_455
In2_2 Mg0_7 3.202612 1_554
In2_2 Mg0_1 3.202612 1_564
In2_2 In3_0 3.221164 1_555
In2_2 In3_6 3.221164 1_455
In2_2 Mg1_6 3.396470 1_455
In2_2 Mg1_0 3.396470 1_555
In2_2 In2_4 3.435918 1_555
In2_2 In2_4 3.435918 1_465
In2_3 Mg0_0 3.202612 1_565
In2_3 Mg0_6 3.202612 1_555
In2_3 In3_1 3.221164 1_555
In2_3 In3_7 3.221164 1_455
In2_3 Mg1_7 3.396470 1_455
In2_3 Mg1_1 3.396470 1_555
In2_3 In2_5 3.435918 1_465
In2_3 In2_5 3.435918 1_555
In2_4 Mg0_7 3.202612 1_554
In2_4 Mg0_1 3.202612 1_654
In2_4 In3_0 3.221164 1_555
In2_4 In3_6 3.221164 1_545
In2_4 Mg1_6 3.396470 1_545
In2_4 Mg1_0 3.396470 1_555
In2_5 Mg0_0 3.202612 1_655
In2_5 Mg0_6 3.202612 1_555
In2_5 In3_1 3.221164 1_555
In2_5 In3_7 3.221164 1_545
In2_5 Mg1_7 3.396470 1_545
In2_5 Mg1_1 3.396470 1_555
In2_6 Mg0_5 3.202612 1_564
In2_6 Mg0_3 3.202612 1_654
In2_6 In3_4 3.221164 1_555
In2_6 In3_2 3.221164 1_555
In2_6 Mg1_4 3.396470 1_555
In2_6 Mg1_2 3.396470 1_555
In2_7 Mg0_2 3.202612 1_655
In2_7 Mg0_4 3.202612 1_565
In2_7 In3_3 3.221164 1_555
In2_7 In3_5 3.221164 1_555
In2_7 Mg1_3 3.396470 1_555
In2_7 Mg1_5 3.396470 1_555
In3_0 Mg0_4 3.170753 1_555
In3_0 Mg0_2 3.170753 1_555
In3_0 Mg1_0 3.184336 1_555
In3_0 Mg1_2 3.239433 1_545
In3_0 Mg1_4 3.239433 1_455
In3_0 In3_6 3.435918 1_455
In3_0 In3_6 3.435918 1_545
In3_1 Mg0_3 3.170753 1_555
In3_1 Mg0_5 3.170753 1_555
In3_1 Mg1_1 3.184336 1_555
In3_1 Mg1_5 3.239433 1_455
In3_1 Mg1_3 3.239433 1_545
In3_1 In3_7 3.435918 1_455
In3_1 In3_7 3.435918 1_545
In3_2 Mg0_6 3.170753 1_555
In3_2 Mg0_0 3.170753 1_565
In3_2 Mg1_2 3.184336 1_555
In3_2 Mg1_0 3.239433 1_555
In3_2 Mg1_6 3.239433 1_455
In3_2 In3_4 3.435918 1_555
In3_2 In3_4 3.435918 1_465
In3_3 Mg0_1 3.170753 1_565
In3_3 Mg0_7 3.170753 1_555
In3_3 Mg1_3 3.184336 1_555
In3_3 Mg1_1 3.239433 1_555
In3_3 Mg1_7 3.239433 1_455
In3_3 In3_5 3.435918 1_555
In3_3 In3_5 3.435918 1_465
In3_4 Mg0_0 3.170753 1_655
In3_4 Mg0_6 3.170753 1_555
In3_4 Mg1_4 3.184336 1_555
In3_4 Mg1_0 3.239433 1_555
In3_4 Mg1_6 3.239433 1_545
In3_5 Mg0_1 3.170753 1_655
In3_5 Mg0_7 3.170753 1_555
In3_5 Mg1_5 3.184336 1_555
In3_5 Mg1_1 3.239433 1_555
In3_5 Mg1_7 3.239433 1_545
In3_6 Mg0_2 3.170753 1_655
In3_6 Mg0_4 3.170753 1_565
In3_6 Mg1_6 3.184336 1_555
In3_6 Mg1_4 3.239433 1_555
In3_6 Mg1_2 3.239433 1_555
In3_7 Mg0_5 3.170753 1_565
In3_7 Mg0_3 3.170753 1_655
In3_7 Mg1_7 3.184336 1_555
In3_7 Mg1_5 3.239433 1_555
In3_7 Mg1_3 3.239433 1_555
