# generated using pymatgen
data_LaFeSi2
_symmetry_space_group_name_H-M   'P 1'
_cell_length_a   8.80768221
_cell_length_b   8.80768221
_cell_length_c   4.04161680
_cell_angle_alpha   90.00000000
_cell_angle_beta   90.00000000
_cell_angle_gamma   152.65725530
_symmetry_Int_Tables_number   1
_chemical_formula_structural   LaFeSi2
_chemical_formula_sum   'La2 Fe2 Si4'
_cell_volume   144.00797577
_cell_formula_units_Z   2
loop_
 _symmetry_equiv_pos_site_id
 _symmetry_equiv_pos_as_xyz
  1  'x, y, z'
loop_
 _atom_site_type_symbol
 _atom_site_label
 _atom_site_symmetry_multiplicity
 _atom_site_fract_x
 _atom_site_fract_y
 _atom_site_fract_z
 _atom_site_occupancy
  La  La0  1  0.89142699  0.10857301  0.75000000  1
  La  La1  1  0.10857301  0.89142699  0.25000000  1
  Fe  Fe0  1  0.25018070  0.74981930  0.75000000  1
  Fe  Fe1  1  0.74981930  0.25018070  0.25000000  1
  Si  Si0  1  0.69188530  0.30811470  0.75000000  1
  Si  Si1  1  0.30811470  0.69188530  0.25000000  1
  Si  Si2  1  0.53756781  0.46243219  0.75000000  1
  Si  Si3  1  0.46243219  0.53756781  0.25000000  1
loop_
_geom_bond_atom_site_label_1
_geom_bond_atom_site_label_2
_geom_bond_distance
_geom_bond_site_symmetry_2
La0 Si3 3.145518 1_656
La0 Si3 3.145518 1_545
La0 Si3 3.145518 1_546
La0 Si3 3.145518 1_655
La0 Si1 3.232752 1_655
La0 Si1 3.232752 1_656
La0 Si1 3.232752 1_546
La0 Si1 3.232752 1_545
La0 Si2 3.254303 1_545
La0 Si2 3.254303 1_655
La1 Si2 3.145518 1_565
La1 Si2 3.145518 1_564
La1 Si2 3.145518 1_455
La1 Si2 3.145518 1_454
La1 Si0 3.232752 1_565
La1 Si0 3.232752 1_564
La1 Si0 3.232752 1_455
La1 Si0 3.232752 1_454
La1 Si3 3.254303 1_455
La1 Si3 3.254303 1_565
Fe0 Si1 2.250992 1_556
Fe0 Si1 2.250992 1_555
Fe0 Si0 2.308497 1_565
Fe0 Si0 2.308497 1_455
Fe0 La1 3.155702 1_555
Fe0 La1 3.155702 1_556
Fe0 La0 3.190360 1_565
Fe0 La0 3.190360 1_455
Fe1 Si0 2.250992 1_554
Fe1 Si0 2.250992 1_555
Fe1 Si1 2.308497 1_655
Fe1 Si1 2.308497 1_545
Fe1 La0 3.155702 1_554
Fe1 La0 3.155702 1_555
Fe1 La1 3.190360 1_655
Fe1 La1 3.190360 1_545
Si0 Si2 2.641340 1_555
Si1 Si3 2.641340 1_555
Si2 Si3 2.395323 1_555
Si2 Si3 2.395323 1_556
