# generated using pymatgen
data_NaLi5Fe2P2(CO7)2
_symmetry_space_group_name_H-M   'P 1'
_cell_length_a   6.55380900
_cell_length_b   8.55530000
_cell_length_c   10.18682598
_cell_angle_alpha   84.52535897
_cell_angle_beta   90.00000000
_cell_angle_gamma   90.00000000
_symmetry_Int_Tables_number   1
_chemical_formula_structural   NaLi5Fe2P2(CO7)2
_chemical_formula_sum   'Na2 Li10 Fe4 P4 C4 O28'
_cell_volume   568.56792274
_cell_formula_units_Z   2
loop_
 _symmetry_equiv_pos_site_id
 _symmetry_equiv_pos_as_xyz
  1  'x, y, z'
loop_
 _atom_site_type_symbol
 _atom_site_label
 _atom_site_symmetry_multiplicity
 _atom_site_fract_x
 _atom_site_fract_y
 _atom_site_fract_z
 _atom_site_occupancy
  Na  Na0  1  0.25348700  0.26018800  0.63404300  1
  Na  Na1  1  0.74651300  0.26018800  0.13404300  1
  Li  Li0  1  0.51280800  0.09879000  0.88591000  1
  Li  Li1  1  0.48719200  0.09879000  0.38591000  1
  Li  Li2  1  0.72024700  0.28458200  0.62673700  1
  Li  Li3  1  0.27975300  0.28458200  0.12673700  1
  Li  Li4  1  0.77900900  0.71827700  0.87499300  1
  Li  Li5  1  0.23099800  0.72541400  0.87116400  1
  Li  Li6  1  0.76900200  0.72541400  0.37116400  1
  Li  Li7  1  0.22099100  0.71827700  0.37499300  1
  Li  Li8  1  0.98063600  0.90617800  0.62211700  1
  Li  Li9  1  0.01936400  0.90617800  0.12211700  1
  Fe  Fe0  1  0.00507900  0.33530300  0.89264400  1
  Fe  Fe1  1  0.99492100  0.33530300  0.39264400  1
  Fe  Fe2  1  0.49652400  0.66974200  0.60267100  1
  Fe  Fe3  1  0.50347600  0.66974200  0.10267100  1
  P  P0  1  0.50433800  0.41454200  0.85700500  1
  P  P1  1  0.49566200  0.41454200  0.35700500  1
  P  P2  1  0.99114000  0.59044300  0.63457400  1
  P  P3  1  0.00886000  0.59044300  0.13457400  1
  C  C0  1  0.99383200  0.03237000  0.85398300  1
  C  C1  1  0.00616800  0.03237000  0.35398300  1
  C  C2  1  0.50702600  0.96306300  0.65495800  1
  C  C3  1  0.49297400  0.96306300  0.15495800  1
  O  O0  1  0.53328200  0.10311800  0.68996900  1
  O  O1  1  0.46671800  0.10311800  0.18996900  1
  O  O2  1  0.99178300  0.06565000  0.97516200  1
  O  O3  1  0.00821700  0.06565000  0.47516200  1
  O  O4  1  0.99465700  0.14776900  0.76062600  1
  O  O5  1  0.00534300  0.14776900  0.26062600  1
  O  O6  1  0.31972100  0.30573100  0.90310300  1
  O  O7  1  0.69195000  0.31476700  0.90927200  1
  O  O8  1  0.30805000  0.31476700  0.40927200  1
  O  O9  1  0.68027900  0.30573100  0.40310300  1
  O  O10  1  0.51287500  0.43742600  0.70358500  1
  O  O11  1  0.96843800  0.42746200  0.58370700  1
  O  O12  1  0.48712500  0.43742600  0.20358500  1
  O  O13  1  0.03156200  0.42746200  0.08370700  1
  O  O14  1  0.49353200  0.57613100  0.91120100  1
  O  O15  1  0.99996100  0.57104300  0.78877100  1
  O  O16  1  0.50646800  0.57613100  0.41120100  1
  O  O17  1  0.00003900  0.57104300  0.28877100  1
  O  O18  1  0.81223500  0.70308100  0.58658400  1
  O  O19  1  0.18360900  0.68022000  0.57760900  1
  O  O20  1  0.81639100  0.68022000  0.07760900  1
  O  O21  1  0.18776500  0.70308100  0.08658400  1
  O  O22  1  0.48984100  0.84421300  0.74538500  1
  O  O23  1  0.51015900  0.84421300  0.24538500  1
  O  O24  1  0.49779300  0.93582200  0.53217500  1
  O  O25  1  0.50220700  0.93582200  0.03217500  1
  O  O26  1  0.99534000  0.88867200  0.82205200  1
  O  O27  1  0.00466000  0.88867200  0.32205200  1
loop_
_geom_bond_atom_site_label_1
_geom_bond_atom_site_label_2
_geom_bond_distance
_geom_bond_site_symmetry_2
Na0 O4 2.286622 1_455
Na0 O0 2.312310 1_555
Na0 O8 2.320483 1_555
Na0 O11 2.379266 1_455
Na0 O10 2.428164 1_555
Na1 O5 2.286622 1_655
Na1 O1 2.312310 1_555
Na1 O7 2.320483 1_554
Na1 O13 2.379266 1_655
Na1 O12 2.428164 1_555
Li0 O25 1.942260 1_546
Li0 O0 1.997338 1_555
Li0 O6 2.196744 1_555
Li0 O7 2.221067 1_555
Li1 O24 1.942260 1_545
Li1 O1 1.997338 1_555
Li1 O9 2.196744 1_555
Li1 O8 2.221067 1_555
Li2 O0 2.033649 1_555
Li2 O11 2.056680 1_555
Li2 O10 2.089290 1_555
Li2 O9 2.283098 1_555
Li2 O4 2.481932 1_555
Li3 O1 2.033649 1_555
Li3 O13 2.056680 1_555
Li3 O12 2.089290 1_555
Li3 O6 2.283098 1_554
Li3 O5 2.481932 1_555
Li4 O26 2.067871 1_555
Li4 O20 2.073151 1_556
Li4 O15 2.160131 1_555
Li4 O14 2.242735 1_555
Li4 O22 2.494831 1_555
Li5 O26 2.110247 1_455
Li5 O14 2.158367 1_555
Li5 O21 2.202811 1_556
Li5 O15 2.225514 1_455
Li5 O22 2.303043 1_555
Li6 O27 2.110247 1_655
Li6 O16 2.158367 1_555
Li6 O18 2.202811 1_555
Li6 O17 2.225514 1_655
Li6 O23 2.303043 1_555
Li7 O27 2.067871 1_555
Li7 O19 2.073151 1_555
Li7 O17 2.160131 1_555
Li7 O16 2.242735 1_555
Li7 O23 2.494831 1_555
Li8 O3 1.935299 1_665
Li8 O26 2.030190 1_555
Li8 O18 2.118540 1_555
Li8 O19 2.424745 1_655
Li9 O2 1.935299 1_464
Li9 O27 2.030190 1_555
Li9 O21 2.118540 1_555
Li9 O20 2.424745 1_455
Fe0 O7 2.065274 1_455
Fe0 O6 2.079059 1_555
Fe0 O13 2.175493 1_556
Fe0 O15 2.186587 1_455
Fe0 O4 2.190687 1_455
Fe0 O2 2.380388 1_455
Fe1 O8 2.065274 1_655
Fe1 O9 2.079059 1_555
Fe1 O11 2.175493 1_555
Fe1 O17 2.186587 1_655
Fe1 O5 2.190687 1_655
Fe1 O3 2.380388 1_655
Fe2 O19 2.067503 1_555
Fe2 O18 2.092965 1_555
Fe2 O10 2.151438 1_555
Fe2 O16 2.179000 1_555
Fe2 O22 2.181177 1_555
Fe2 O24 2.320738 1_555
Fe3 O20 2.067503 1_555
Fe3 O21 2.092965 1_555
Fe3 O12 2.151438 1_555
Fe3 O14 2.179000 1_554
Fe3 O23 2.181177 1_555
Fe3 O25 2.320738 1_555
C0 O2 1.293107 1_555
C0 O26 1.301376 1_545
C0 O4 1.303843 1_555
C1 O3 1.293107 1_555
C1 O27 1.301376 1_545
C1 O5 1.303843 1_555
C2 O0 1.293857 1_565
C2 O24 1.295384 1_555
C2 O22 1.310109 1_555
C3 O1 1.293857 1_565
C3 O25 1.295384 1_555
C3 O23 1.310109 1_555
O6 P0 1.570880 1_555
O7 P0 1.561172 1_555
O8 P1 1.561172 1_555
O9 P1 1.570880 1_555
O10 P0 1.557439 1_555
O11 P2 1.540363 1_555
O12 P1 1.557439 1_555
O13 P3 1.540363 1_555
O14 P0 1.538373 1_555
O15 P2 1.564764 1_555
O16 P1 1.538373 1_555
O17 P3 1.564764 1_555
O18 P2 1.566047 1_555
O19 P2 1.559733 1_455
O20 P3 1.559733 1_655
O21 P3 1.566047 1_555
