# generated using pymatgen
data_SmIn3Pt
_symmetry_space_group_name_H-M   'P 1'
_cell_length_a   9.82521714
_cell_length_b   9.82521714
_cell_length_c   9.82521714
_cell_angle_alpha   90.00000000
_cell_angle_beta   90.00000000
_cell_angle_gamma   90.00000000
_symmetry_Int_Tables_number   1
_chemical_formula_structural   SmIn3Pt
_chemical_formula_sum   'Sm8 In24 Pt8'
_cell_volume   948.47627399
_cell_formula_units_Z   8
loop_
 _symmetry_equiv_pos_site_id
 _symmetry_equiv_pos_as_xyz
  1  'x, y, z'
loop_
 _atom_site_type_symbol
 _atom_site_label
 _atom_site_symmetry_multiplicity
 _atom_site_fract_x
 _atom_site_fract_y
 _atom_site_fract_z
 _atom_site_occupancy
  Sm  Sm0  1  -0.00000000  0.00000000  0.00000000  1
  Sm  Sm1  1  0.50000000  0.50000000  0.50000000  1
  Sm  Sm2  1  0.25000000  0.00000000  0.50000000  1
  Sm  Sm3  1  0.75000000  0.00000000  0.50000000  1
  Sm  Sm4  1  0.50000000  0.25000000  0.00000000  1
  Sm  Sm5  1  0.50000000  0.75000000  0.00000000  1
  Sm  Sm6  1  -0.00000000  0.50000000  0.25000000  1
  Sm  Sm7  1  -0.00000000  0.50000000  0.75000000  1
  In  In0  1  -0.00000000  0.15258343  0.31432895  1
  In  In1  1  -0.00000000  0.84741657  0.68567105  1
  In  In2  1  -0.00000000  0.84741657  0.31432895  1
  In  In3  1  -0.00000000  0.15258343  0.68567105  1
  In  In4  1  0.31432895  0.00000000  0.15258343  1
  In  In5  1  0.65258343  0.50000000  0.18567105  1
  In  In6  1  0.68567105  0.00000000  0.84741657  1
  In  In7  1  0.34741657  0.50000000  0.81432895  1
  In  In8  1  0.31432895  0.00000000  0.84741657  1
  In  In9  1  0.34741657  0.50000000  0.18567105  1
  In  In10  1  0.68567105  0.00000000  0.15258343  1
  In  In11  1  0.65258343  0.50000000  0.81432895  1
  In  In12  1  0.15258343  0.31432895  0.00000000  1
  In  In13  1  0.50000000  0.81432895  0.34741657  1
  In  In14  1  0.84741657  0.68567105  0.00000000  1
  In  In15  1  0.50000000  0.18567105  0.65258343  1
  In  In16  1  0.15258343  0.68567105  0.00000000  1
  In  In17  1  0.50000000  0.18567105  0.34741657  1
  In  In18  1  0.84741657  0.31432895  0.00000000  1
  In  In19  1  0.50000000  0.81432895  0.65258343  1
  In  In20  1  0.18567105  0.65258343  0.50000000  1
  In  In21  1  0.81432895  0.34741657  0.50000000  1
  In  In22  1  0.18567105  0.34741657  0.50000000  1
  In  In23  1  0.81432895  0.65258343  0.50000000  1
  Pt  Pt0  1  0.25000000  0.25000000  0.25000000  1
  Pt  Pt1  1  0.75000000  0.75000000  0.75000000  1
  Pt  Pt2  1  0.75000000  0.75000000  0.25000000  1
  Pt  Pt3  1  0.75000000  0.25000000  0.75000000  1
  Pt  Pt4  1  0.25000000  0.25000000  0.75000000  1
  Pt  Pt5  1  0.25000000  0.75000000  0.25000000  1
  Pt  Pt6  1  0.25000000  0.75000000  0.75000000  1
  Pt  Pt7  1  0.75000000  0.25000000  0.25000000  1
loop_
_geom_bond_atom_site_label_1
_geom_bond_atom_site_label_2
_geom_bond_distance
_geom_bond_site_symmetry_2
In0 Pt7 2.710909 1_455
In0 Pt0 2.710909 1_555
In0 In2 2.998331 1_545
In0 In21 3.212522 1_455
In0 In22 3.212522 1_555
In0 Sm3 3.407176 1_455
In0 Sm2 3.407176 1_555
In0 Sm0 3.432988 1_555
In0 Sm6 3.471466 1_555
In1 Pt6 2.710909 1_555
In1 Pt1 2.710909 1_455
In1 In3 2.998331 1_565
In1 In23 3.212522 1_455
In1 In20 3.212522 1_555
In1 Sm2 3.407176 1_565
In1 Sm3 3.407176 1_465
In1 Sm0 3.432988 1_566
In1 Sm7 3.471466 1_555
In2 Pt5 2.710909 1_555
In2 Pt2 2.710909 1_455
In2 In23 3.212522 1_455
In2 In20 3.212522 1_555
In2 Sm3 3.407176 1_465
In2 Sm2 3.407176 1_565
In2 Sm0 3.432988 1_565
In2 Sm6 3.471466 1_555
In3 Pt4 2.710909 1_555
In3 Pt3 2.710909 1_455
In3 Sm2 3.407176 1_555
In3 Sm3 3.407176 1_455
In3 Sm0 3.432988 1_556
In3 Sm7 3.471466 1_555
In4 Pt5 2.710909 1_545
In4 Pt0 2.710909 1_555
In4 In8 2.998331 1_554
In4 Sm4 3.407176 1_555
In4 Sm5 3.407176 1_545
In4 Sm0 3.432988 1_555
In4 Sm2 3.471466 1_555
In5 Pt7 2.710909 1_555
In5 Pt2 2.710909 1_555
In5 In9 2.998331 1_555
In5 Sm4 3.407176 1_555
In5 Sm5 3.407176 1_555
In5 Sm1 3.432988 1_555
In5 Sm6 3.471466 1_655
In6 Pt1 2.710909 1_545
In6 Pt3 2.710909 1_555
In6 Sm5 3.407176 1_546
In6 Sm4 3.407176 1_556
In6 Sm0 3.432988 1_656
In6 Sm3 3.471466 1_555
In7 Pt4 2.710909 1_555
In7 Pt6 2.710909 1_555
In7 Sm4 3.407176 1_556
In7 Sm5 3.407176 1_556
In7 Sm1 3.432988 1_555
In7 Sm7 3.471466 1_555
In8 Pt4 2.710909 1_555
In8 Pt6 2.710909 1_545
In8 Sm5 3.407176 1_546
In8 Sm4 3.407176 1_556
In8 Sm0 3.432988 1_556
In8 Sm2 3.471466 1_555
In9 Pt5 2.710909 1_555
In9 Pt0 2.710909 1_555
In9 Sm4 3.407176 1_555
In9 Sm5 3.407176 1_555
In9 Sm1 3.432988 1_555
In9 Sm6 3.471466 1_555
In10 Pt7 2.710909 1_555
In10 Pt2 2.710909 1_545
In10 In6 2.998331 1_554
In10 In17 3.212522 1_555
In10 In13 3.212522 1_545
In10 Sm4 3.407176 1_555
In10 Sm5 3.407176 1_545
In10 Sm0 3.432988 1_655
In10 Sm3 3.471466 1_555
In11 Pt3 2.710909 1_555
In11 Pt1 2.710909 1_555
In11 In7 2.998331 1_555
In11 In18 3.212522 1_556
In11 In14 3.212522 1_556
In11 Sm5 3.407176 1_556
In11 Sm4 3.407176 1_556
In11 Sm1 3.432988 1_555
In11 Sm7 3.471466 1_655
In12 Pt4 2.710909 1_554
In12 Pt0 2.710909 1_555
In12 In18 2.998331 1_455
In12 In7 3.212522 1_554
In12 In9 3.212522 1_555
In12 Sm7 3.407176 1_554
In12 Sm6 3.407176 1_555
In12 Sm0 3.432988 1_555
In12 Sm4 3.471466 1_555
In13 Pt5 2.710909 1_555
In13 Pt2 2.710909 1_555
In13 In19 2.998331 1_555
In13 In4 3.212522 1_565
In13 Sm3 3.407176 1_565
In13 Sm2 3.407176 1_565
In13 Sm1 3.432988 1_555
In13 Sm5 3.471466 1_555
In14 Pt1 2.710909 1_554
In14 Pt2 2.710909 1_555
In14 In16 2.998331 1_655
In14 In5 3.212522 1_555
In14 Sm6 3.407176 1_655
In14 Sm7 3.407176 1_654
In14 Sm0 3.432988 1_665
In14 Sm5 3.471466 1_555
In15 Pt4 2.710909 1_555
In15 Pt3 2.710909 1_555
In15 In17 2.998331 1_555
In15 In8 3.212522 1_555
In15 In6 3.212522 1_555
In15 Sm3 3.407176 1_555
In15 Sm2 3.407176 1_555
In15 Sm1 3.432988 1_555
In15 Sm4 3.471466 1_556
In16 Pt5 2.710909 1_555
In16 Pt6 2.710909 1_554
In16 In9 3.212522 1_555
In16 In7 3.212522 1_554
In16 Sm6 3.407176 1_555
In16 Sm7 3.407176 1_554
In16 Sm0 3.432988 1_565
In16 Sm5 3.471466 1_555
In17 Pt7 2.710909 1_555
In17 Pt0 2.710909 1_555
In17 In4 3.212522 1_555
In17 Sm3 3.407176 1_555
In17 Sm2 3.407176 1_555
In17 Sm1 3.432988 1_555
In17 Sm4 3.471466 1_555
In18 Pt7 2.710909 1_555
In18 Pt3 2.710909 1_554
In18 In5 3.212522 1_555
In18 Sm6 3.407176 1_655
In18 Sm7 3.407176 1_654
In18 Sm0 3.432988 1_655
In18 Sm4 3.471466 1_555
In19 Pt6 2.710909 1_555
In19 Pt1 2.710909 1_555
In19 In8 3.212522 1_565
In19 In6 3.212522 1_565
In19 Sm2 3.407176 1_565
In19 Sm3 3.407176 1_565
In19 Sm1 3.432988 1_555
In19 Sm5 3.471466 1_556
In20 Pt5 2.710909 1_555
In20 Pt6 2.710909 1_555
In20 In22 2.998331 1_555
In20 Sm7 3.407176 1_555
In20 Sm6 3.407176 1_555
In20 Sm1 3.432988 1_555
In20 Sm2 3.471466 1_565
In21 Pt7 2.710909 1_555
In21 Pt3 2.710909 1_555
In21 In23 2.998331 1_555
In21 In3 3.212522 1_655
In21 Sm6 3.407176 1_655
In21 Sm7 3.407176 1_655
In21 Sm1 3.432988 1_555
In21 Sm3 3.471466 1_555
In22 Pt4 2.710909 1_555
In22 Pt0 2.710909 1_555
In22 In3 3.212522 1_555
In22 Sm7 3.407176 1_555
In22 Sm6 3.407176 1_555
In22 Sm1 3.432988 1_555
In22 Sm2 3.471466 1_555
In23 Pt1 2.710909 1_555
In23 Pt2 2.710909 1_555
In23 Sm6 3.407176 1_655
In23 Sm7 3.407176 1_655
In23 Sm1 3.432988 1_555
In23 Sm3 3.471466 1_565
Pt0 Sm2 3.473739 1_555
Pt0 Sm6 3.473739 1_555
Pt0 Sm4 3.473739 1_555
Pt1 Sm7 3.473739 1_655
Pt1 Sm5 3.473739 1_556
Pt1 Sm3 3.473739 1_565
Pt2 Sm5 3.473739 1_555
Pt2 Sm3 3.473739 1_565
Pt2 Sm6 3.473739 1_655
Pt3 Sm7 3.473739 1_655
Pt3 Sm3 3.473739 1_555
Pt3 Sm4 3.473739 1_556
Pt4 Sm2 3.473739 1_555
Pt4 Sm7 3.473739 1_555
Pt4 Sm4 3.473739 1_556
Pt5 Sm2 3.473739 1_565
Pt5 Sm5 3.473739 1_555
Pt5 Sm6 3.473739 1_555
Pt6 Sm2 3.473739 1_565
Pt6 Sm5 3.473739 1_556
Pt6 Sm7 3.473739 1_555
Pt7 Sm3 3.473739 1_555
Pt7 Sm6 3.473739 1_655
Pt7 Sm4 3.473739 1_555
