# generated using pymatgen
data_SrMg6Cd
_symmetry_space_group_name_H-M   'P 1'
_cell_length_a   5.22378900
_cell_length_b   6.81194900
_cell_length_c   11.76056900
_cell_angle_alpha   90.00000000
_cell_angle_beta   90.00000000
_cell_angle_gamma   90.00000000
_symmetry_Int_Tables_number   1
_chemical_formula_structural   SrMg6Cd
_chemical_formula_sum   'Sr2 Mg12 Cd2'
_cell_volume   418.49025424
_cell_formula_units_Z   2
loop_
 _symmetry_equiv_pos_site_id
 _symmetry_equiv_pos_as_xyz
  1  'x, y, z'
loop_
 _atom_site_type_symbol
 _atom_site_label
 _atom_site_symmetry_multiplicity
 _atom_site_fract_x
 _atom_site_fract_y
 _atom_site_fract_z
 _atom_site_occupancy
  Sr  Sr0  1  0.00000000  0.50000000  0.66965700  1
  Sr  Sr1  1  0.00000000  0.00000000  0.16965700  1
  Mg  Mg0  1  0.00000000  0.25550900  0.91962900  1
  Mg  Mg1  1  0.00000000  0.74449100  0.91962900  1
  Mg  Mg2  1  0.00000000  0.50000000  0.16176700  1
  Mg  Mg3  1  0.50000000  0.26613500  0.07683000  1
  Mg  Mg4  1  0.50000000  0.73386500  0.07683000  1
  Mg  Mg5  1  0.50000000  0.50000000  0.33286900  1
  Mg  Mg6  1  0.00000000  0.75550900  0.41962900  1
  Mg  Mg7  1  0.00000000  0.24449100  0.41962900  1
  Mg  Mg8  1  0.00000000  0.00000000  0.66176700  1
  Mg  Mg9  1  0.50000000  0.76613500  0.57683000  1
  Mg  Mg10  1  0.50000000  0.23386500  0.57683000  1
  Mg  Mg11  1  0.50000000  0.00000000  0.83286900  1
  Cd  Cd0  1  0.50000000  0.50000000  0.84278900  1
  Cd  Cd1  1  0.50000000  0.00000000  0.34278900  1
loop_
_geom_bond_atom_site_label_1
_geom_bond_atom_site_label_2
_geom_bond_distance
_geom_bond_site_symmetry_2
Mg0 Mg3 3.200812 1_556
Mg0 Mg3 3.200812 1_456
Mg0 Mg2 3.298946 1_556
Mg0 Mg11 3.300377 1_555
Mg0 Mg11 3.300377 1_455
Mg0 Mg1 3.330920 1_555
Mg0 Sr0 3.378795 1_555
Mg0 Sr1 3.416982 1_556
Mg0 Mg1 3.481029 1_545
Mg0 Mg8 3.496581 1_555
Mg1 Mg4 3.200812 1_556
Mg1 Mg4 3.200812 1_456
Mg1 Mg2 3.298946 1_556
Mg1 Mg11 3.300377 1_465
Mg1 Mg11 3.300377 1_565
Mg1 Sr0 3.378795 1_555
Mg1 Sr1 3.416982 1_566
Mg1 Mg8 3.496581 1_565
Mg2 Mg3 3.218338 1_455
Mg2 Mg4 3.218338 1_455
Mg2 Mg3 3.218338 1_555
Mg2 Mg4 3.218338 1_555
Mg2 Mg5 3.297146 1_455
Mg2 Mg5 3.297146 1_555
Mg2 Sr1 3.407238 1_555
Mg2 Sr1 3.407238 1_565
Mg2 Mg6 3.496581 1_555
Mg2 Mg7 3.496581 1_555
Mg3 Sr1 3.361606 1_655
Mg3 Sr1 3.361606 1_555
Mg3 Mg5 3.406612 1_555
Mg4 Sr1 3.361606 1_665
Mg4 Sr1 3.361606 1_565
Mg4 Mg5 3.406612 1_555
Mg5 Mg6 3.300377 1_555
Mg5 Mg6 3.300377 1_655
Mg5 Mg7 3.300377 1_655
Mg5 Mg7 3.300377 1_555
Mg5 Mg9 3.393884 1_555
Mg6 Mg9 3.200812 1_455
Mg6 Mg9 3.200812 1_555
Mg6 Mg8 3.298946 1_565
Mg6 Mg7 3.330920 1_565
Mg6 Sr1 3.378795 1_565
Mg6 Sr0 3.416982 1_555
Mg6 Mg7 3.481029 1_555
Mg7 Mg8 3.298946 1_555
Mg7 Sr1 3.378795 1_555
Mg7 Sr0 3.416982 1_555
Mg8 Mg9 3.218338 1_445
Mg8 Mg9 3.218338 1_545
Mg8 Sr0 3.407238 1_555
Mg8 Sr0 3.407238 1_545
Mg9 Sr0 3.361606 1_655
Mg9 Sr0 3.361606 1_555
Mg10 Mg7 3.200812 1_555
Mg10 Mg7 3.200812 1_655
Mg10 Mg8 3.218338 1_555
Mg10 Mg8 3.218338 1_655
Mg10 Sr0 3.361606 1_655
Mg10 Sr0 3.361606 1_555
Mg10 Mg5 3.393884 1_555
Mg10 Mg11 3.406612 1_555
Mg11 Mg8 3.297146 1_555
Mg11 Mg8 3.297146 1_655
Mg11 Mg4 3.393884 1_546
Mg11 Mg3 3.393884 1_556
Mg11 Mg9 3.406612 1_545
Cd0 Mg4 3.180236 1_556
Cd0 Mg3 3.180236 1_556
Cd0 Mg0 3.226824 1_555
Cd0 Mg0 3.226824 1_655
Cd0 Mg1 3.226824 1_555
Cd0 Mg1 3.226824 1_655
Cd0 Sr0 3.311770 1_555
Cd0 Sr0 3.311770 1_655
Cd0 Mg11 3.407972 1_555
Cd0 Mg11 3.407972 1_565
Cd1 Mg9 3.180236 1_545
Cd1 Mg10 3.180236 1_555
Cd1 Mg7 3.226824 1_655
Cd1 Mg7 3.226824 1_555
Cd1 Mg6 3.226824 1_645
Cd1 Mg6 3.226824 1_545
Cd1 Sr1 3.311770 1_655
Cd1 Sr1 3.311770 1_555
Cd1 Mg5 3.407972 1_555
Cd1 Mg5 3.407972 1_545
