# generated using pymatgen
data_Mg5Sc
_symmetry_space_group_name_H-M   'P 1'
_cell_length_a   16.58168034
_cell_length_b   16.58168034
_cell_length_c   10.32338486
_cell_angle_alpha   90.00000000
_cell_angle_beta   90.00000000
_cell_angle_gamma   157.15529151
_symmetry_Int_Tables_number   1
_chemical_formula_structural   Mg5Sc
_chemical_formula_sum   'Mg40 Sc8'
_cell_volume   1101.97988139
_cell_formula_units_Z   8
loop_
 _symmetry_equiv_pos_site_id
 _symmetry_equiv_pos_as_xyz
  1  'x, y, z'
loop_
 _atom_site_type_symbol
 _atom_site_label
 _atom_site_symmetry_multiplicity
 _atom_site_fract_x
 _atom_site_fract_y
 _atom_site_fract_z
 _atom_site_occupancy
  Mg  Mg0_0  1  0.49723418  0.00276582  0.00000000  1
  Mg  Mg0_1  1  0.49723418  0.00276582  0.50000000  1
  Mg  Mg0_2  1  0.49723419  0.50276581  0.00000000  1
  Mg  Mg0_3  1  0.49723419  0.50276581  0.50000000  1
  Mg  Mg0_4  1  0.99723419  0.00276581  0.00000000  1
  Mg  Mg0_5  1  0.99723419  0.00276581  0.50000000  1
  Mg  Mg0_6  1  0.99723419  0.50276582  0.00000000  1
  Mg  Mg0_7  1  0.99723419  0.50276582  0.50000000  1
  Mg  Mg1_0  1  0.16438115  0.33561885  0.00000000  1
  Mg  Mg1_1  1  0.16438115  0.33561885  0.50000000  1
  Mg  Mg1_2  1  0.16438115  0.83561885  0.00000000  1
  Mg  Mg1_3  1  0.16438115  0.83561885  0.50000000  1
  Mg  Mg1_4  1  0.66438115  0.33561885  0.00000000  1
  Mg  Mg1_5  1  0.66438115  0.33561885  0.50000000  1
  Mg  Mg1_6  1  0.66438115  0.83561885  0.00000000  1
  Mg  Mg1_7  1  0.66438115  0.83561885  0.50000000  1
  Mg  Mg2_0  1  0.33253940  0.16746060  0.00000000  1
  Mg  Mg2_1  1  0.33253940  0.16746060  0.50000000  1
  Mg  Mg2_2  1  0.33253940  0.66746060  0.00000000  1
  Mg  Mg2_3  1  0.33253940  0.66746060  0.50000000  1
  Mg  Mg2_4  1  0.83253940  0.16746060  0.00000000  1
  Mg  Mg2_5  1  0.83253940  0.16746060  0.50000000  1
  Mg  Mg2_6  1  0.83253940  0.66746061  0.00000000  1
  Mg  Mg2_7  1  0.83253940  0.66746061  0.50000000  1
  Mg  Mg3_0  1  0.22371158  0.27628842  0.25000000  1
  Mg  Mg3_1  1  0.22371158  0.27628842  0.75000000  1
  Mg  Mg3_2  1  0.22371158  0.77628842  0.25000000  1
  Mg  Mg3_3  1  0.22371158  0.77628842  0.75000000  1
  Mg  Mg3_4  1  0.72371158  0.27628842  0.25000000  1
  Mg  Mg3_5  1  0.72371158  0.27628842  0.75000000  1
  Mg  Mg3_6  1  0.72371158  0.77628842  0.25000000  1
  Mg  Mg3_7  1  0.72371158  0.77628842  0.75000000  1
  Mg  Mg4_0  1  0.05678063  0.44321937  0.25000000  1
  Mg  Mg4_1  1  0.05678063  0.44321937  0.75000000  1
  Mg  Mg4_2  1  0.05678063  0.94321937  0.25000000  1
  Mg  Mg4_3  1  0.05678063  0.94321937  0.75000000  1
  Mg  Mg4_4  1  0.55678063  0.44321937  0.25000000  1
  Mg  Mg4_5  1  0.55678063  0.44321937  0.75000000  1
  Mg  Mg4_6  1  0.55678063  0.94321937  0.25000000  1
  Mg  Mg4_7  1  0.55678063  0.94321937  0.75000000  1
  Sc  Sc0_0  1  0.39201958  0.10798042  0.25000000  1
  Sc  Sc0_1  1  0.39201958  0.10798042  0.75000000  1
  Sc  Sc0_2  1  0.39201958  0.60798042  0.25000000  1
  Sc  Sc0_3  1  0.39201958  0.60798042  0.75000000  1
  Sc  Sc0_4  1  0.89201958  0.10798042  0.25000000  1
  Sc  Sc0_5  1  0.89201958  0.10798042  0.75000000  1
  Sc  Sc0_6  1  0.89201958  0.60798043  0.25000000  1
  Sc  Sc0_7  1  0.89201958  0.60798043  0.75000000  1
loop_
_geom_bond_atom_site_label_1
_geom_bond_atom_site_label_2
_geom_bond_distance
_geom_bond_site_symmetry_2
Mg0_0 Mg3_4 3.152987 1_555
Mg0_0 Mg3_2 3.152987 1_545
Mg0_0 Mg3_3 3.152987 1_544
Mg0_0 Mg3_5 3.152987 1_554
Mg0_0 Mg1_2 3.154293 1_545
Mg0_0 Mg1_4 3.154293 1_555
Mg0_0 Mg2_4 3.222621 1_555
Mg0_0 Mg2_2 3.222621 1_545
Mg0_0 Mg4_6 3.226066 1_545
Mg0_0 Mg4_7 3.226066 1_544
Mg0_0 Mg0_6 3.283832 1_445
Mg0_0 Mg0_6 3.283832 1_555
Mg0_1 Mg3_4 3.152987 1_555
Mg0_1 Mg3_5 3.152987 1_555
Mg0_1 Mg3_3 3.152987 1_545
Mg0_1 Mg3_2 3.152987 1_545
Mg0_1 Mg1_3 3.154293 1_545
Mg0_1 Mg1_5 3.154293 1_555
Mg0_1 Mg2_5 3.222621 1_555
Mg0_1 Mg2_3 3.222621 1_545
Mg0_1 Mg4_6 3.226066 1_545
Mg0_1 Mg4_7 3.226066 1_545
Mg0_1 Mg0_7 3.283832 1_445
Mg0_1 Mg0_7 3.283832 1_555
Mg0_2 Mg3_7 3.152987 1_554
Mg0_2 Mg3_1 3.152987 1_554
Mg0_2 Mg3_6 3.152987 1_555
Mg0_2 Mg3_0 3.152987 1_555
Mg0_2 Mg1_6 3.154293 1_555
Mg0_2 Mg1_0 3.154293 1_555
Mg0_2 Mg2_6 3.222621 1_555
Mg0_2 Mg2_0 3.222621 1_555
Mg0_2 Mg4_4 3.226066 1_555
Mg0_2 Mg4_5 3.226066 1_554
Mg0_2 Mg0_4 3.283832 1_455
Mg0_2 Mg0_4 3.283832 1_565
Mg0_3 Mg3_1 3.152987 1_555
Mg0_3 Mg3_7 3.152987 1_555
Mg0_3 Mg3_6 3.152987 1_555
Mg0_3 Mg3_0 3.152987 1_555
Mg0_3 Mg1_7 3.154293 1_555
Mg0_3 Mg1_1 3.154293 1_555
Mg0_3 Mg2_7 3.222621 1_555
Mg0_3 Mg2_1 3.222621 1_555
Mg0_3 Mg4_4 3.226066 1_555
Mg0_3 Mg4_5 3.226066 1_555
Mg0_3 Mg0_5 3.283832 1_565
Mg0_3 Mg0_5 3.283832 1_455
Mg0_4 Mg3_7 3.152987 1_544
Mg0_4 Mg3_6 3.152987 1_545
Mg0_4 Mg3_0 3.152987 1_655
Mg0_4 Mg3_1 3.152987 1_654
Mg0_4 Mg1_0 3.154293 1_655
Mg0_4 Mg1_6 3.154293 1_545
Mg0_4 Mg2_0 3.222621 1_655
Mg0_4 Mg2_6 3.222621 1_545
Mg0_4 Mg4_2 3.226066 1_645
Mg0_4 Mg4_3 3.226066 1_644
Mg0_5 Mg3_6 3.152987 1_545
Mg0_5 Mg3_7 3.152987 1_545
Mg0_5 Mg3_0 3.152987 1_655
Mg0_5 Mg3_1 3.152987 1_655
Mg0_5 Mg1_1 3.154293 1_655
Mg0_5 Mg1_7 3.154293 1_545
Mg0_5 Mg2_7 3.222621 1_545
Mg0_5 Mg2_1 3.222621 1_655
Mg0_5 Mg4_2 3.226066 1_645
Mg0_5 Mg4_3 3.226066 1_645
Mg0_6 Mg3_4 3.152987 1_555
Mg0_6 Mg3_3 3.152987 1_654
Mg0_6 Mg3_2 3.152987 1_655
Mg0_6 Mg3_5 3.152987 1_554
Mg0_6 Mg1_2 3.154293 1_655
Mg0_6 Mg1_4 3.154293 1_555
Mg0_6 Mg2_4 3.222621 1_555
Mg0_6 Mg2_2 3.222621 1_655
Mg0_6 Mg4_0 3.226066 1_655
Mg0_6 Mg4_1 3.226066 1_654
Mg0_7 Mg3_3 3.152987 1_655
Mg0_7 Mg3_4 3.152987 1_555
Mg0_7 Mg3_2 3.152987 1_655
Mg0_7 Mg3_5 3.152987 1_555
Mg0_7 Mg1_3 3.154293 1_655
Mg0_7 Mg1_5 3.154293 1_555
Mg0_7 Mg2_5 3.222621 1_555
Mg0_7 Mg2_3 3.222621 1_655
Mg0_7 Mg4_0 3.226066 1_655
Mg0_7 Mg4_1 3.226066 1_655
Mg1_0 Mg2_2 3.126271 1_555
Mg1_0 Mg2_4 3.126271 1_455
Mg1_0 Sc0_2 3.144048 1_555
Mg1_0 Sc0_3 3.144048 1_554
Mg1_0 Sc0_5 3.144048 1_454
Mg1_0 Sc0_4 3.144048 1_455
Mg1_0 Mg3_1 3.221858 1_554
Mg1_0 Mg3_0 3.221858 1_555
Mg1_0 Mg1_6 3.283832 1_445
Mg1_0 Mg1_6 3.283832 1_555
Mg1_1 Mg2_3 3.126271 1_555
Mg1_1 Mg2_5 3.126271 1_455
Mg1_1 Sc0_2 3.144048 1_555
Mg1_1 Sc0_3 3.144048 1_555
Mg1_1 Sc0_5 3.144048 1_455
Mg1_1 Sc0_4 3.144048 1_455
Mg1_1 Mg3_1 3.221858 1_555
Mg1_1 Mg3_0 3.221858 1_555
Mg1_1 Mg1_7 3.283832 1_555
Mg1_1 Mg1_7 3.283832 1_445
Mg1_2 Mg2_0 3.126271 1_565
Mg1_2 Mg2_6 3.126271 1_455
Mg1_2 Sc0_6 3.144048 1_455
Mg1_2 Sc0_7 3.144048 1_454
Mg1_2 Sc0_0 3.144048 1_565
Mg1_2 Sc0_1 3.144048 1_564
Mg1_2 Mg3_2 3.221858 1_555
Mg1_2 Mg3_3 3.221858 1_554
Mg1_2 Mg1_4 3.283832 1_455
Mg1_2 Mg1_4 3.283832 1_565
Mg1_3 Mg2_7 3.126271 1_455
Mg1_3 Mg2_1 3.126271 1_565
Mg1_3 Sc0_6 3.144048 1_455
Mg1_3 Sc0_7 3.144048 1_455
Mg1_3 Sc0_0 3.144048 1_565
Mg1_3 Sc0_1 3.144048 1_565
Mg1_3 Mg3_3 3.221858 1_555
Mg1_3 Mg3_2 3.221858 1_555
Mg1_3 Mg1_5 3.283832 1_455
Mg1_3 Mg1_5 3.283832 1_565
Mg1_4 Mg2_0 3.126271 1_555
Mg1_4 Mg2_6 3.126271 1_555
Mg1_4 Sc0_6 3.144048 1_555
Mg1_4 Sc0_1 3.144048 1_554
Mg1_4 Sc0_7 3.144048 1_554
Mg1_4 Sc0_0 3.144048 1_555
Mg1_4 Mg3_5 3.221858 1_554
Mg1_4 Mg3_4 3.221858 1_555
Mg1_5 Mg2_1 3.126271 1_555
Mg1_5 Mg2_7 3.126271 1_555
Mg1_5 Sc0_6 3.144048 1_555
Mg1_5 Sc0_7 3.144048 1_555
Mg1_5 Sc0_1 3.144048 1_555
Mg1_5 Sc0_0 3.144048 1_555
Mg1_5 Mg3_5 3.221858 1_555
Mg1_5 Mg3_4 3.221858 1_555
Mg1_6 Mg2_2 3.126271 1_555
Mg1_6 Mg2_4 3.126271 1_565
Mg1_6 Sc0_2 3.144048 1_555
Mg1_6 Sc0_3 3.144048 1_554
Mg1_6 Sc0_5 3.144048 1_564
Mg1_6 Sc0_4 3.144048 1_565
Mg1_6 Mg3_6 3.221858 1_555
Mg1_6 Mg3_7 3.221858 1_554
Mg1_7 Mg2_3 3.126271 1_555
Mg1_7 Mg2_5 3.126271 1_565
Mg1_7 Sc0_2 3.144048 1_555
Mg1_7 Sc0_3 3.144048 1_555
Mg1_7 Sc0_4 3.144048 1_565
Mg1_7 Sc0_5 3.144048 1_565
Mg1_7 Mg3_7 3.221858 1_555
Mg1_7 Mg3_6 3.221858 1_555
Mg2_0 Mg4_3 3.171399 1_544
Mg2_0 Mg4_2 3.171399 1_545
Mg2_0 Mg4_5 3.171399 1_554
Mg2_0 Mg4_4 3.171399 1_555
Mg2_0 Sc0_1 3.224774 1_554
Mg2_0 Sc0_0 3.224774 1_555
Mg2_0 Mg2_6 3.283832 1_445
Mg2_0 Mg2_6 3.283832 1_555
Mg2_1 Mg4_3 3.171399 1_545
Mg2_1 Mg4_2 3.171399 1_545
Mg2_1 Mg4_5 3.171399 1_555
Mg2_1 Mg4_4 3.171399 1_555
Mg2_1 Sc0_1 3.224774 1_555
Mg2_1 Sc0_0 3.224774 1_555
Mg2_1 Mg2_7 3.283832 1_445
Mg2_1 Mg2_7 3.283832 1_555
Mg2_2 Mg4_6 3.171399 1_555
Mg2_2 Mg4_0 3.171399 1_555
Mg2_2 Mg4_7 3.171399 1_554
Mg2_2 Mg4_1 3.171399 1_554
Mg2_2 Sc0_2 3.224774 1_555
Mg2_2 Sc0_3 3.224774 1_554
Mg2_2 Mg2_4 3.283832 1_565
Mg2_2 Mg2_4 3.283832 1_455
Mg2_3 Mg4_6 3.171399 1_555
Mg2_3 Mg4_0 3.171399 1_555
Mg2_3 Mg4_7 3.171399 1_555
Mg2_3 Mg4_1 3.171399 1_555
Mg2_3 Sc0_2 3.224774 1_555
Mg2_3 Sc0_3 3.224774 1_555
Mg2_3 Mg2_5 3.283832 1_455
Mg2_3 Mg2_5 3.283832 1_565
Mg2_4 Mg4_6 3.171399 1_545
Mg2_4 Mg4_7 3.171399 1_544
Mg2_4 Mg4_0 3.171399 1_655
Mg2_4 Mg4_1 3.171399 1_654
Mg2_4 Sc0_4 3.224774 1_555
Mg2_4 Sc0_5 3.224774 1_554
Mg2_5 Mg4_7 3.171399 1_545
Mg2_5 Mg4_6 3.171399 1_545
Mg2_5 Mg4_0 3.171399 1_655
Mg2_5 Mg4_1 3.171399 1_655
Mg2_5 Sc0_4 3.224774 1_555
Mg2_5 Sc0_5 3.224774 1_555
Mg2_6 Mg4_2 3.171399 1_655
Mg2_6 Mg4_3 3.171399 1_654
Mg2_6 Mg4_5 3.171399 1_554
Mg2_6 Mg4_4 3.171399 1_555
Mg2_6 Sc0_6 3.224774 1_555
Mg2_6 Sc0_7 3.224774 1_554
Mg2_7 Mg4_2 3.171399 1_655
Mg2_7 Mg4_4 3.171399 1_555
Mg2_7 Mg4_3 3.171399 1_655
Mg2_7 Mg4_5 3.171399 1_555
Mg2_7 Sc0_6 3.224774 1_555
Mg2_7 Sc0_7 3.224774 1_555
Mg3_0 Sc0_2 3.122130 1_555
Mg3_0 Sc0_4 3.122130 1_455
Mg3_0 Mg4_4 3.160290 1_555
Mg3_0 Mg4_2 3.160290 1_545
Mg3_0 Mg3_6 3.283832 1_445
Mg3_0 Mg3_6 3.283832 1_555
Mg3_1 Sc0_3 3.122130 1_555
Mg3_1 Sc0_5 3.122130 1_455
Mg3_1 Mg4_5 3.160290 1_555
Mg3_1 Mg4_3 3.160290 1_545
Mg3_1 Mg3_7 3.283832 1_445
Mg3_1 Mg3_7 3.283832 1_555
Mg3_2 Sc0_6 3.122130 1_455
Mg3_2 Sc0_0 3.122130 1_565
Mg3_2 Mg4_0 3.160290 1_555
Mg3_2 Mg4_6 3.160290 1_555
Mg3_2 Mg3_4 3.283832 1_455
Mg3_2 Mg3_4 3.283832 1_565
Mg3_3 Sc0_7 3.122130 1_455
Mg3_3 Sc0_1 3.122130 1_565
Mg3_3 Mg4_1 3.160290 1_555
Mg3_3 Mg4_7 3.160290 1_555
Mg3_3 Mg3_5 3.283832 1_565
Mg3_3 Mg3_5 3.283832 1_455
Mg3_4 Sc0_0 3.122130 1_555
Mg3_4 Sc0_6 3.122130 1_555
Mg3_4 Mg4_0 3.160290 1_655
Mg3_4 Mg4_6 3.160290 1_545
Mg3_5 Sc0_1 3.122130 1_555
Mg3_5 Sc0_7 3.122130 1_555
Mg3_5 Mg4_1 3.160290 1_655
Mg3_5 Mg4_7 3.160290 1_545
Mg3_6 Sc0_2 3.122130 1_555
Mg3_6 Sc0_4 3.122130 1_565
Mg3_6 Mg4_4 3.160290 1_555
Mg3_6 Mg4_2 3.160290 1_655
Mg3_7 Sc0_3 3.122130 1_555
Mg3_7 Sc0_5 3.122130 1_565
Mg3_7 Mg4_5 3.160290 1_555
Mg3_7 Mg4_3 3.160290 1_655
Mg4_0 Sc0_4 3.220768 1_455
Mg4_0 Sc0_2 3.220768 1_555
Mg4_0 Mg4_6 3.283832 1_445
Mg4_0 Mg4_6 3.283832 1_555
Mg4_1 Sc0_5 3.220768 1_455
Mg4_1 Sc0_3 3.220768 1_555
Mg4_1 Mg4_7 3.283832 1_445
Mg4_1 Mg4_7 3.283832 1_555
Mg4_2 Sc0_0 3.220768 1_565
Mg4_2 Sc0_6 3.220768 1_455
Mg4_2 Mg4_4 3.283832 1_565
Mg4_2 Mg4_4 3.283832 1_455
Mg4_3 Sc0_1 3.220768 1_565
Mg4_3 Sc0_7 3.220768 1_455
Mg4_3 Mg4_5 3.283832 1_455
Mg4_3 Mg4_5 3.283832 1_565
Mg4_4 Sc0_6 3.220768 1_555
Mg4_4 Sc0_0 3.220768 1_555
Mg4_5 Sc0_7 3.220768 1_555
Mg4_5 Sc0_1 3.220768 1_555
Mg4_6 Sc0_4 3.220768 1_565
Mg4_6 Sc0_2 3.220768 1_555
Mg4_7 Sc0_5 3.220768 1_565
Mg4_7 Sc0_3 3.220768 1_555
Sc0_0 Sc0_6 3.283832 1_445
Sc0_0 Sc0_6 3.283832 1_555
Sc0_1 Sc0_7 3.283832 1_445
Sc0_1 Sc0_7 3.283832 1_555
Sc0_2 Sc0_4 3.283832 1_565
Sc0_2 Sc0_4 3.283832 1_455
Sc0_3 Sc0_5 3.283832 1_455
Sc0_3 Sc0_5 3.283832 1_565
