# generated using pymatgen
data_Li2CoSn(PO4)2
_symmetry_space_group_name_H-M   'P 1'
_cell_length_a   6.31639787
_cell_length_b   9.68816348
_cell_length_c   12.29653708
_cell_angle_alpha   114.17188793
_cell_angle_beta   89.73483315
_cell_angle_gamma   90.66609927
_symmetry_Int_Tables_number   1
_chemical_formula_structural   Li2CoSn(PO4)2
_chemical_formula_sum   'Li8 Co4 Sn4 P8 O32'
_cell_volume   686.45511034
_cell_formula_units_Z   4
loop_
 _symmetry_equiv_pos_site_id
 _symmetry_equiv_pos_as_xyz
  1  'x, y, z'
loop_
 _atom_site_type_symbol
 _atom_site_label
 _atom_site_symmetry_multiplicity
 _atom_site_fract_x
 _atom_site_fract_y
 _atom_site_fract_z
 _atom_site_occupancy
  Li  Li0  1  0.99464500  0.00239200  0.99500700  1
  Li  Li1  1  0.99955100  0.50131300  0.99999200  1
  Li  Li2  1  0.50002600  0.00163600  0.99980800  1
  Li  Li3  1  0.49840000  0.49925500  0.00214300  1
  Li  Li4  1  0.99963200  0.49977400  0.50001400  1
  Li  Li5  1  0.00003800  0.99986000  0.49996500  1
  Li  Li6  1  0.50102300  0.50009000  0.50063400  1
  Li  Li7  1  0.49994400  0.99981600  0.49981000  1
  Co  Co0  1  0.25090500  0.11293900  0.29264200  1
  Co  Co1  1  0.74834200  0.88620600  0.70695200  1
  Co  Co2  1  0.25164900  0.61400300  0.29329000  1
  Co  Co3  1  0.74960900  0.38328300  0.70854000  1
  Sn  Sn0  1  0.75284300  0.35196600  0.22424800  1
  Sn  Sn1  1  0.75266800  0.85220700  0.22393700  1
  Sn  Sn2  1  0.24666200  0.64747500  0.77570100  1
  Sn  Sn3  1  0.24769600  0.14790300  0.77523600  1
  P  P0  1  0.25129000  0.23312800  0.12051800  1
  P  P1  1  0.24887700  0.73310600  0.12175000  1
  P  P2  1  0.74920500  0.76612400  0.87891900  1
  P  P3  1  0.75073200  0.26659800  0.87941300  1
  P  P4  1  0.74954900  0.67152100  0.42490400  1
  P  P5  1  0.75105900  0.17205900  0.42559000  1
  P  P6  1  0.25008200  0.32943500  0.57486400  1
  P  P7  1  0.24979600  0.82814500  0.57477200  1
  O  O0  1  0.74401800  0.37988900  0.01195700  1
  O  O1  1  0.74082200  0.87978400  0.01150600  1
  O  O2  1  0.25928800  0.62083600  0.98886500  1
  O  O3  1  0.25426300  0.12053800  0.98744100  1
  O  O4  1  0.25186900  0.40021300  0.14004800  1
  O  O5  1  0.24221400  0.90007500  0.14210600  1
  O  O6  1  0.75356500  0.59920500  0.86006500  1
  O  O7  1  0.75546400  0.09987200  0.86072000  1
  O  O8  1  0.75293700  0.32641500  0.41662100  1
  O  O9  1  0.75127400  0.82585700  0.41556200  1
  O  O10  1  0.24786500  0.67373100  0.58357000  1
  O  O11  1  0.24796100  0.17539800  0.58506400  1
  O  O12  1  0.25551200  0.31752300  0.44508900  1
  O  O13  1  0.25523500  0.81949500  0.44569300  1
  O  O14  1  0.74425800  0.68161100  0.55413400  1
  O  O15  1  0.74638300  0.18082900  0.55501900  1
  O  O16  1  0.05438000  0.18789900  0.17852000  1
  O  O17  1  0.05183700  0.68146000  0.17569400  1
  O  O18  1  0.44570600  0.19160700  0.18128300  1
  O  O19  1  0.44275100  0.69749900  0.18643100  1
  O  O20  1  0.55622800  0.80334200  0.81465500  1
  O  O21  1  0.55685800  0.30474000  0.81628100  1
  O  O22  1  0.94644200  0.81498800  0.82326800  1
  O  O23  1  0.94741300  0.31400300  0.82225900  1
  O  O24  1  0.55204900  0.56950600  0.35958100  1
  O  O25  1  0.55314000  0.07111400  0.36023500  1
  O  O26  1  0.95025700  0.57448700  0.36360700  1
  O  O27  1  0.95119600  0.07456600  0.36412100  1
  O  O28  1  0.05008800  0.42782400  0.63556600  1
  O  O29  1  0.04910000  0.92528300  0.63631600  1
  O  O30  1  0.44782000  0.43073900  0.63968600  1
  O  O31  1  0.44758300  0.92944100  0.64039000  1
loop_
_geom_bond_atom_site_label_1
_geom_bond_atom_site_label_2
_geom_bond_distance
_geom_bond_site_symmetry_2
Li0 O3 2.012479 1_655
Li0 O1 2.042697 1_546
Li0 O22 2.168382 1_545
Li0 O16 2.266121 1_656
Li1 O0 2.026340 1_556
Li1 O2 2.033388 1_655
Li1 O17 2.174428 1_656
Li1 O23 2.218731 1_555
Li2 O1 1.977497 1_546
Li2 O3 1.986723 1_555
Li2 O18 2.264695 1_556
Li2 O20 2.329509 1_545
Li3 O2 1.973913 1_554
Li3 O0 1.979029 1_555
Li3 O19 2.321970 1_555
Li3 O21 2.322107 1_554
Li4 O28 2.080231 1_655
Li4 O26 2.106901 1_555
Li4 O8 2.200889 1_555
Li4 O10 2.211287 1_655
Li4 O14 2.290038 1_555
Li4 O12 2.294697 1_655
Li5 O27 2.099843 1_465
Li5 O29 2.105064 1_555
Li5 O9 2.215539 1_455
Li5 O11 2.221559 1_565
Li5 O15 2.276501 1_465
Li5 O13 2.279828 1_555
Li6 O30 2.101960 1_555
Li6 O24 2.123574 1_555
Li6 O14 2.210199 1_555
Li6 O12 2.226305 1_555
Li6 O8 2.248052 1_555
Li6 O10 2.251543 1_555
Li7 O25 2.120337 1_565
Li7 O31 2.125357 1_555
Li7 O13 2.208748 1_555
Li7 O15 2.220501 1_565
Li7 O9 2.247418 1_555
Li7 O11 2.261190 1_565
Co0 O12 2.097552 1_555
Co0 O5 2.134116 1_545
Co0 O27 2.174935 1_455
Co0 O18 2.187968 1_555
Co0 O25 2.192699 1_555
Co0 O16 2.215685 1_555
Co1 O14 2.099909 1_555
Co1 O7 2.157647 1_565
Co1 O20 2.168905 1_555
Co1 O29 2.178059 1_655
Co1 O31 2.183560 1_555
Co1 O22 2.220877 1_555
Co2 O13 2.102349 1_555
Co2 O4 2.155112 1_555
Co2 O19 2.161266 1_555
Co2 O26 2.181106 1_455
Co2 O24 2.184429 1_555
Co2 O17 2.218326 1_555
Co3 O15 2.092447 1_555
Co3 O21 2.146077 1_555
Co3 O6 2.157653 1_555
Co3 O23 2.184312 1_555
Co3 O28 2.208145 1_655
Co3 O30 2.217205 1_555
O0 P3 1.548638 1_554
O0 Sn0 2.733265 1_555
O1 P2 1.550398 1_554
O1 Sn1 2.733899 1_555
O2 P1 1.550022 1_556
O2 Sn2 2.738606 1_555
O3 P0 1.551238 1_556
O3 Sn3 2.729232 1_555
O4 P0 1.536078 1_555
O5 P1 1.533303 1_555
O6 P2 1.537395 1_555
O7 P3 1.536170 1_555
O8 P5 1.543777 1_555
O8 Sn0 2.477204 1_555
O9 P4 1.545739 1_555
O9 Sn1 2.471819 1_555
O10 P7 1.543353 1_555
O10 Sn2 2.477567 1_555
O11 P6 1.547832 1_555
O11 Sn3 2.459558 1_555
O12 P6 1.552348 1_555
O13 P7 1.555029 1_555
O14 P4 1.551845 1_555
O15 P5 1.558825 1_555
O16 P0 1.575658 1_555
O16 Sn0 2.408078 1_455
O17 P1 1.577666 1_555
O17 Sn1 2.432668 1_455
O18 P0 1.579322 1_555
O18 Sn0 2.392398 1_555
O19 P1 1.579471 1_555
O19 Sn1 2.380185 1_555
O20 P2 1.578834 1_555
O20 Sn2 2.383433 1_555
O21 P3 1.578942 1_555
O21 Sn3 2.385158 1_555
O22 P2 1.577397 1_555
O22 Sn2 2.419874 1_655
O23 P3 1.578348 1_555
O23 Sn3 2.412504 1_655
O24 P4 1.583889 1_555
O24 Sn0 2.447460 1_555
O25 P5 1.581876 1_555
O25 Sn1 2.454953 1_545
O26 P4 1.580395 1_555
O26 Sn0 2.463901 1_555
O27 P5 1.579798 1_555
O27 Sn1 2.469968 1_545
O28 P6 1.580545 1_555
O28 Sn2 2.448423 1_555
O29 P7 1.581445 1_555
O29 Sn3 2.466372 1_565
O30 P6 1.580702 1_555
O30 Sn2 2.446845 1_555
O31 P7 1.583425 1_555
O31 Sn3 2.447803 1_565
