# generated using pymatgen
data_ReO3
_symmetry_space_group_name_H-M   'P 1'
_cell_length_a   6.53930759
_cell_length_b   6.53930759
_cell_length_c   6.53930759
_cell_angle_alpha   109.47122063
_cell_angle_beta   109.47122063
_cell_angle_gamma   109.47122063
_symmetry_Int_Tables_number   1
_chemical_formula_structural   ReO3
_chemical_formula_sum   'Re4 O12'
_cell_volume   215.26499208
_cell_formula_units_Z   4
loop_
 _symmetry_equiv_pos_site_id
 _symmetry_equiv_pos_as_xyz
  1  'x, y, z'
loop_
 _atom_site_type_symbol
 _atom_site_label
 _atom_site_symmetry_multiplicity
 _atom_site_fract_x
 _atom_site_fract_y
 _atom_site_fract_z
 _atom_site_occupancy
  Re  Re0  1  0.00000000  0.00000000  0.50000000  1
  Re  Re1  1  0.50000000  0.00000000  0.00000000  1
  Re  Re2  1  0.00000000  0.50000000  0.00000000  1
  Re  Re3  1  0.50000000  0.50000000  0.50000000  1
  O  O0  1  0.26722500  0.03462100  0.76739500  1
  O  O1  1  0.73277500  0.96537900  0.23260500  1
  O  O2  1  0.73277500  0.50017000  0.76739500  1
  O  O3  1  0.26722500  0.49983000  0.23260500  1
  O  O4  1  0.03462100  0.76739500  0.26722500  1
  O  O5  1  0.96537900  0.23260500  0.73277500  1
  O  O6  1  0.50017000  0.76739500  0.73277500  1
  O  O7  1  0.49983000  0.23260500  0.26722500  1
  O  O8  1  0.76739500  0.26722500  0.03462100  1
  O  O9  1  0.23260500  0.73277500  0.96537900  1
  O  O10  1  0.76739500  0.73277500  0.50017000  1
  O  O11  1  0.23260500  0.26722500  0.49983000  1
loop_
_geom_bond_atom_site_label_1
_geom_bond_atom_site_label_2
_geom_bond_distance
_geom_bond_site_symmetry_2
O0 Re0 1.896761 1_555
O0 Re1 1.896769 1_556
O1 Re0 1.896761 1_665
O1 Re1 1.896769 1_565
O2 Re2 1.896764 1_656
O2 Re3 1.896764 1_555
O3 Re3 1.896764 1_555
O3 Re2 1.896764 1_555
O4 Re2 1.896761 1_555
O4 Re0 1.896769 1_565
O5 Re2 1.896761 1_656
O5 Re0 1.896769 1_655
O6 Re3 1.896764 1_555
O6 Re1 1.896764 1_566
O7 Re3 1.896764 1_555
O7 Re1 1.896764 1_555
O8 Re1 1.896761 1_555
O8 Re2 1.896769 1_655
O9 Re1 1.896761 1_566
O9 Re2 1.896769 1_556
O10 Re0 1.896764 1_665
O10 Re3 1.896764 1_555
O11 Re3 1.896764 1_555
O11 Re0 1.896764 1_555
