# generated using pymatgen
data_NaSm(CO3)2
_symmetry_space_group_name_H-M   'P 1'
_cell_length_a   5.14467700
_cell_length_b   6.36894500
_cell_length_c   7.08160900
_cell_angle_alpha   90.00000000
_cell_angle_beta   90.00000000
_cell_angle_gamma   90.00000000
_symmetry_Int_Tables_number   1
_chemical_formula_structural   NaSm(CO3)2
_chemical_formula_sum   'Na2 Sm2 C4 O12'
_cell_volume   232.03716794
_cell_formula_units_Z   2
loop_
 _symmetry_equiv_pos_site_id
 _symmetry_equiv_pos_as_xyz
  1  'x, y, z'
loop_
 _atom_site_type_symbol
 _atom_site_label
 _atom_site_symmetry_multiplicity
 _atom_site_fract_x
 _atom_site_fract_y
 _atom_site_fract_z
 _atom_site_occupancy
  Na  Na0  1  0.00000000  0.48234100  0.02784100  1
  Na  Na1  1  0.00000000  0.51765900  0.52784100  1
  Sm  Sm0  1  0.50000000  0.13063000  0.32838300  1
  Sm  Sm1  1  0.50000000  0.86937000  0.82838300  1
  C  C0  1  0.50000000  0.58020200  0.24295000  1
  C  C1  1  0.50000000  0.41979800  0.74295000  1
  C  C2  1  0.00000000  0.03576800  0.99885700  1
  C  C3  1  0.00000000  0.96423200  0.49885700  1
  O  O0  1  0.00000000  0.14274100  0.41308100  1
  O  O1  1  0.00000000  0.85725900  0.91308100  1
  O  O2  1  0.28709700  0.48246800  0.28029200  1
  O  O3  1  0.71290300  0.51753200  0.78029200  1
  O  O4  1  0.28709700  0.51753200  0.78029200  1
  O  O5  1  0.71290300  0.48246800  0.28029200  1
  O  O6  1  0.22237500  0.12457100  0.03509900  1
  O  O7  1  0.77762500  0.87542900  0.53509900  1
  O  O8  1  0.22237500  0.87542900  0.53509900  1
  O  O9  1  0.77762500  0.12457100  0.03509900  1
  O  O10  1  0.50000000  0.23322600  0.66410500  1
  O  O11  1  0.50000000  0.76677400  0.16410500  1
loop_
_geom_bond_atom_site_label_1
_geom_bond_atom_site_label_2
_geom_bond_distance
_geom_bond_site_symmetry_2
Na0 O3 2.303257 1_454
Na0 O4 2.303257 1_554
Na0 O2 2.318982 1_555
Na0 O5 2.318982 1_455
Na0 O1 2.522340 1_554
Na0 O9 2.550213 1_455
Na0 O6 2.550213 1_555
Na1 O2 2.303257 1_555
Na1 O5 2.303257 1_455
Na1 O4 2.318982 1_555
Na1 O3 2.318982 1_455
Na1 O0 2.522340 1_555
Na1 O7 2.550213 1_455
Na1 O8 2.550213 1_555
C0 O5 1.287287 1_555
C0 O2 1.287287 1_555
C0 O11 1.312910 1_555
C1 O3 1.287287 1_555
C1 O4 1.287287 1_555
C1 O10 1.312910 1_555
C2 O1 1.289010 1_545
C2 O9 1.301767 1_456
C2 O6 1.301767 1_556
C3 O0 1.289010 1_565
C3 O8 1.301767 1_555
C3 O7 1.301767 1_455
O0 Sm0 2.642467 1_555
O0 Sm0 2.642467 1_455
O1 Sm1 2.642467 1_455
O1 Sm1 2.642467 1_555
O2 Sm0 2.517350 1_555
O3 Sm1 2.517350 1_555
O4 Sm1 2.517350 1_555
O5 Sm0 2.517350 1_555
O6 Sm0 2.520935 1_555
O6 Sm1 2.612425 1_544
O7 Sm1 2.520935 1_555
O7 Sm0 2.612425 1_565
O8 Sm1 2.520935 1_555
O8 Sm0 2.612425 1_565
O9 Sm0 2.520935 1_555
O9 Sm1 2.612425 1_544
O10 Sm0 2.465613 1_555
O10 Sm1 2.592997 1_545
O11 Sm1 2.465613 1_554
O11 Sm0 2.592997 1_565
