# generated using pymatgen
data_HC4NCl2O3
_symmetry_space_group_name_H-M   'P 1'
_cell_length_a   5.63141200
_cell_length_b   10.68939000
_cell_length_c   12.85742110
_cell_angle_alpha   71.44892560
_cell_angle_beta   90.00000000
_cell_angle_gamma   90.00000000
_symmetry_Int_Tables_number   1
_chemical_formula_structural   HC4NCl2O3
_chemical_formula_sum   'H4 C16 N4 Cl8 O12'
_cell_volume   733.75479101
_cell_formula_units_Z   4
loop_
 _symmetry_equiv_pos_site_id
 _symmetry_equiv_pos_as_xyz
  1  'x, y, z'
loop_
 _atom_site_type_symbol
 _atom_site_label
 _atom_site_symmetry_multiplicity
 _atom_site_fract_x
 _atom_site_fract_y
 _atom_site_fract_z
 _atom_site_occupancy
  H  H0  1  0.38769900  0.60615700  0.49889500  1
  H  H1  1  0.61230100  0.39384300  0.50110500  1
  H  H2  1  0.88769900  0.39384300  0.00110500  1
  H  H3  1  0.11230100  0.60615700  0.99889500  1
  C  C0  1  0.14634200  0.43231600  0.88198200  1
  C  C1  1  0.85365800  0.56768400  0.11801800  1
  C  C2  1  0.64634200  0.56768400  0.61801800  1
  C  C3  1  0.35365800  0.43231600  0.38198200  1
  C  C4  1  0.15788000  0.27598100  0.77512100  1
  C  C5  1  0.84212000  0.72401900  0.22487900  1
  C  C6  1  0.65788000  0.72401900  0.72487900  1
  C  C7  1  0.34212000  0.27598100  0.27512100  1
  C  C8  1  0.37113100  0.74971500  0.57825900  1
  C  C9  1  0.62886900  0.25028500  0.42174100  1
  C  C10  1  0.87113100  0.25028500  0.92174100  1
  C  C11  1  0.12886900  0.74971500  0.07825900  1
  C  C12  1  0.46535000  0.79548200  0.65724100  1
  C  C13  1  0.53465000  0.20451800  0.34275900  1
  C  C14  1  0.96535000  0.20451800  0.84275900  1
  C  C15  1  0.03465000  0.79548200  0.15724100  1
  N  N0  1  0.45864700  0.63861500  0.56036300  1
  N  N1  1  0.54135300  0.36138500  0.43963700  1
  N  N2  1  0.95864700  0.36138500  0.93963700  1
  N  N3  1  0.04135300  0.63861500  0.06036300  1
  Cl  Cl0  1  0.36412300  0.93401800  0.68111400  1
  Cl  Cl1  1  0.63587700  0.06598200  0.31888600  1
  Cl  Cl2  1  0.86412300  0.06598200  0.81888600  1
  Cl  Cl3  1  0.13587700  0.93401800  0.18111400  1
  Cl  Cl4  1  0.35694800  0.82511600  0.99628400  1
  Cl  Cl5  1  0.64305200  0.17488400  0.00371600  1
  Cl  Cl6  1  0.85694800  0.17488400  0.50371600  1
  Cl  Cl7  1  0.14305200  0.82511600  0.49628400  1
  O  O0  1  0.23148800  0.52906700  0.89939400  1
  O  O1  1  0.76851200  0.47093300  0.10060600  1
  O  O2  1  0.73148800  0.47093300  0.60060600  1
  O  O3  1  0.26851200  0.52906700  0.39939400  1
  O  O4  1  0.23929400  0.38906200  0.80122200  1
  O  O5  1  0.76070600  0.61093800  0.19877800  1
  O  O6  1  0.73929400  0.61093800  0.69877800  1
  O  O7  1  0.26070600  0.38906200  0.30122200  1
  O  O8  1  0.25763300  0.25052000  0.70087800  1
  O  O9  1  0.74236700  0.74948000  0.29912200  1
  O  O10  1  0.75763300  0.74948000  0.79912200  1
  O  O11  1  0.24236700  0.25052000  0.20087800  1
loop_
_geom_bond_atom_site_label_1
_geom_bond_atom_site_label_2
_geom_bond_distance
_geom_bond_site_symmetry_2
H0 N0 1.038793 1_555
H1 N1 1.038793 1_555
H2 N2 1.038793 1_554
H3 N3 1.038793 1_556
C0 O0 1.223497 1_555
C0 O4 1.368015 1_555
C0 N2 1.372584 1_455
C1 O1 1.223497 1_555
C1 O5 1.368015 1_555
C1 N3 1.372584 1_655
C2 O2 1.223497 1_555
C2 O6 1.368015 1_555
C2 N0 1.372584 1_555
C3 O3 1.223497 1_555
C3 O7 1.368015 1_555
C3 N1 1.372584 1_555
C4 O8 1.210850 1_555
C4 O4 1.429005 1_555
C5 O9 1.210850 1_555
C5 O5 1.429005 1_555
C6 O10 1.210850 1_555
C6 O6 1.429005 1_555
C7 O11 1.210850 1_555
C7 O7 1.429005 1_555
C8 N0 1.371161 1_555
C8 Cl7 1.694011 1_555
C9 N1 1.371161 1_555
C9 Cl6 1.694011 1_555
C10 C14 1.366831 1_555
C10 N2 1.371161 1_555
C10 Cl5 1.694011 1_556
C11 C15 1.366831 1_555
C11 N3 1.371161 1_555
C11 Cl4 1.694011 1_554
C12 C8 1.366831 1_555
C12 C6 1.446597 1_555
C12 Cl0 1.703339 1_555
C13 C9 1.366831 1_555
C13 C7 1.446597 1_555
C13 Cl1 1.703339 1_555
C14 C4 1.446597 1_655
C14 Cl2 1.703339 1_555
C15 C5 1.446597 1_455
C15 Cl3 1.703339 1_555
