# generated using pymatgen
data_SrBiNO5
_symmetry_space_group_name_H-M   'P 1'
_cell_length_a   7.90475192
_cell_length_b   7.90475192
_cell_length_c   5.99050429
_cell_angle_alpha   89.85900072
_cell_angle_beta   89.85900072
_cell_angle_gamma   136.70427253
_symmetry_Int_Tables_number   1
_chemical_formula_structural   SrBiNO5
_chemical_formula_sum   'Sr2 Bi2 N2 O10'
_cell_volume   256.68763222
_cell_formula_units_Z   2
loop_
 _symmetry_equiv_pos_site_id
 _symmetry_equiv_pos_as_xyz
  1  'x, y, z'
loop_
 _atom_site_type_symbol
 _atom_site_label
 _atom_site_symmetry_multiplicity
 _atom_site_fract_x
 _atom_site_fract_y
 _atom_site_fract_z
 _atom_site_occupancy
  Sr  Sr0  1  0.15859700  0.84145800  0.99925700  1
  Sr  Sr1  1  0.84145800  0.15859700  0.99925700  1
  Bi  Bi0  1  0.31292800  0.68138700  0.50189100  1
  Bi  Bi1  1  0.68138700  0.31292800  0.50189100  1
  N  N0  1  0.01159100  0.01159100  0.48411700  1
  N  N1  1  0.51760800  0.51760800  0.98742800  1
  O  O0  1  0.99575500  0.49952600  0.73196000  1
  O  O1  1  0.49986700  0.99846100  0.27097400  1
  O  O2  1  0.99846100  0.49986700  0.27097400  1
  O  O3  1  0.49952600  0.99575500  0.73196000  1
  O  O4  1  0.73358400  0.73358400  0.96564000  1
  O  O5  1  0.48813200  0.33736300  0.99788600  1
  O  O6  1  0.33736300  0.48813200  0.99788600  1
  O  O7  1  0.03189800  0.03189800  0.27252000  1
  O  O8  1  0.92669300  0.07715200  0.58617900  1
  O  O9  1  0.07715200  0.92669300  0.58617900  1
loop_
_geom_bond_atom_site_label_1
_geom_bond_atom_site_label_2
_geom_bond_distance
_geom_bond_site_symmetry_2
Bi0 O3 2.223000 1_555
Bi0 O1 2.227271 1_555
Bi0 O0 2.231320 1_455
Bi0 O2 2.232989 1_455
Bi1 O0 2.223000 1_555
Bi1 O2 2.227271 1_555
Bi1 O3 2.231320 1_545
Bi1 O1 2.232989 1_545
N0 O9 1.264343 1_545
N0 O8 1.264343 1_455
N0 O7 1.272307 1_555
N1 O4 1.265481 1_555
N1 O5 1.266686 1_555
N1 O6 1.266686 1_555
O0 Sr0 2.548225 1_655
O0 Sr1 2.549286 1_555
O1 Sr1 2.556498 1_564
O1 Sr0 2.573937 1_554
O2 Sr0 2.556498 1_654
O2 Sr1 2.573937 1_554
O3 Sr1 2.548225 1_565
O3 Sr0 2.549286 1_555
O4 Sr0 2.808695 1_655
O4 Sr1 2.808695 1_565
O5 Sr0 2.699595 1_545
O6 Sr1 2.699595 1_455
O7 Sr1 2.854407 1_454
O7 Sr0 2.854407 1_544
O8 Sr1 2.760953 1_555
O9 Sr0 2.760953 1_555
