# generated using pymatgen
data_InS2
_symmetry_space_group_name_H-M   'P 1'
_cell_length_a   3.65254900
_cell_length_b   3.65254900
_cell_length_c   9.12197700
_cell_angle_alpha   90.00000000
_cell_angle_beta   90.00000000
_cell_angle_gamma   90.00000000
_symmetry_Int_Tables_number   1
_chemical_formula_structural   InS2
_chemical_formula_sum   'In2 S4'
_cell_volume   121.69733686
_cell_formula_units_Z   2
loop_
 _symmetry_equiv_pos_site_id
 _symmetry_equiv_pos_as_xyz
  1  'x, y, z'
loop_
 _atom_site_type_symbol
 _atom_site_label
 _atom_site_symmetry_multiplicity
 _atom_site_fract_x
 _atom_site_fract_y
 _atom_site_fract_z
 _atom_site_occupancy
  In  In0  1  0.00000000  0.50000000  0.70909700  1
  In  In1  1  0.50000000  0.00000000  0.29090300  1
  S  S0  1  0.00000000  0.50000000  0.36382700  1
  S  S1  1  0.50000000  0.00000000  0.63617300  1
  S  S2  1  0.00000000  0.00000000  0.00000000  1
  S  S3  1  0.50000000  0.50000000  0.00000000  1
loop_
_geom_bond_atom_site_label_1
_geom_bond_atom_site_label_2
_geom_bond_distance
_geom_bond_site_symmetry_2
In0 S1 2.667033 1_555
In0 S1 2.667033 1_565
In0 S1 2.667033 1_455
In0 S1 2.667033 1_465
In0 S2 3.221324 1_566
In0 S3 3.221324 1_456
In0 S3 3.221324 1_556
In0 S2 3.221324 1_556
In1 S0 2.667033 1_555
In1 S0 2.667033 1_655
In1 S0 2.667033 1_545
In1 S0 2.667033 1_645
In1 S2 3.221324 1_655
In1 S3 3.221324 1_545
In1 S3 3.221324 1_555
In1 S2 3.221324 1_555
S2 S3 2.582742 1_445
S2 S3 2.582742 1_455
S2 S3 2.582742 1_555
S2 S3 2.582742 1_545
