# generated using pymatgen
data_YbPPd
_symmetry_space_group_name_H-M   'P 1'
_cell_length_a   4.18252000
_cell_length_b   6.90638400
_cell_length_c   7.48110300
_cell_angle_alpha   90.00000000
_cell_angle_beta   90.00000000
_cell_angle_gamma   90.00000000
_symmetry_Int_Tables_number   1
_chemical_formula_structural   YbPPd
_chemical_formula_sum   'Yb4 P4 Pd4'
_cell_volume   216.09980863
_cell_formula_units_Z   4
loop_
 _symmetry_equiv_pos_site_id
 _symmetry_equiv_pos_as_xyz
  1  'x, y, z'
loop_
 _atom_site_type_symbol
 _atom_site_label
 _atom_site_symmetry_multiplicity
 _atom_site_fract_x
 _atom_site_fract_y
 _atom_site_fract_z
 _atom_site_occupancy
  Yb  Yb0  1  0.25000000  0.50920800  0.19352300  1
  Yb  Yb1  1  0.75000000  0.49079200  0.80647700  1
  Yb  Yb2  1  0.75000000  0.99079200  0.69352300  1
  Yb  Yb3  1  0.25000000  0.00920800  0.30647700  1
  P  P0  1  0.25000000  0.78884800  0.89437600  1
  P  P1  1  0.75000000  0.21115200  0.10562400  1
  P  P2  1  0.75000000  0.71115200  0.39437600  1
  P  P3  1  0.25000000  0.28884800  0.60562400  1
  Pd  Pd0  1  0.25000000  0.66886000  0.57107100  1
  Pd  Pd1  1  0.75000000  0.33114000  0.42892900  1
  Pd  Pd2  1  0.75000000  0.83114000  0.07107100  1
  Pd  Pd3  1  0.25000000  0.16886000  0.92892900  1
loop_
_geom_bond_atom_site_label_1
_geom_bond_atom_site_label_2
_geom_bond_distance
_geom_bond_site_symmetry_2
P0 Pd2 2.491191 1_556
P0 Pd2 2.491191 1_456
P0 Pd0 2.556701 1_555
P0 Pd3 2.637208 1_565
P0 Yb2 2.928545 1_455
P0 Yb2 2.928545 1_555
P0 Yb0 2.956069 1_556
P0 Yb1 3.007185 1_455
P0 Yb1 3.007185 1_555
P1 Pd3 2.491191 1_654
P1 Pd3 2.491191 1_554
P1 Pd1 2.556701 1_555
P1 Pd2 2.637208 1_545
P1 Yb3 2.928545 1_555
P1 Yb3 2.928545 1_655
P1 Yb1 2.956069 1_554
P1 Yb0 3.007185 1_555
P1 Yb0 3.007185 1_655
P2 Pd0 2.491191 1_655
P2 Pd0 2.491191 1_555
P2 Pd2 2.556701 1_555
P2 Pd1 2.637208 1_555
P2 Yb0 2.928545 1_555
P2 Yb0 2.928545 1_655
P2 Yb2 2.956069 1_555
P2 Yb3 3.007185 1_565
P2 Yb3 3.007185 1_665
P3 Pd1 2.491191 1_455
P3 Pd1 2.491191 1_555
P3 Pd3 2.556701 1_555
P3 Pd0 2.637208 1_555
P3 Yb1 2.928545 1_555
P3 Yb1 2.928545 1_455
P3 Yb3 2.956069 1_555
P3 Yb2 3.007185 1_545
P3 Yb2 3.007185 1_445
Pd0 Yb1 2.997875 1_455
Pd0 Yb1 2.997875 1_555
Pd0 Yb0 3.032067 1_555
Pd0 Yb3 3.073018 1_565
Pd0 Yb2 3.186849 1_555
Pd0 Yb2 3.186849 1_455
Pd1 Yb0 2.997875 1_555
Pd1 Yb0 2.997875 1_655
Pd1 Yb1 3.032067 1_555
Pd1 Yb2 3.073018 1_545
Pd1 Yb3 3.186849 1_555
Pd1 Yb3 3.186849 1_655
Pd2 Yb3 2.997875 1_565
Pd2 Yb3 2.997875 1_665
Pd2 Yb2 3.032067 1_554
Pd2 Yb1 3.073018 1_554
Pd2 Yb0 3.186849 1_555
Pd2 Yb0 3.186849 1_655
Pd3 Yb2 2.997875 1_445
Pd3 Yb2 2.997875 1_545
Pd3 Yb3 3.032067 1_556
Pd3 Yb0 3.073018 1_556
Pd3 Yb1 3.186849 1_455
Pd3 Yb1 3.186849 1_555
