# generated using pymatgen
data_Ca2La5Sb5O14
_symmetry_space_group_name_H-M   'P 1'
_cell_length_a   7.35879100
_cell_length_b   7.48224700
_cell_length_c   11.44636176
_cell_angle_alpha   87.12383733
_cell_angle_beta   90.00000000
_cell_angle_gamma   90.00000000
_symmetry_Int_Tables_number   1
_chemical_formula_structural   Ca2La5Sb5O14
_chemical_formula_sum   'Ca2 La5 Sb5 O14'
_cell_volume   629.44611837
_cell_formula_units_Z   1
loop_
 _symmetry_equiv_pos_site_id
 _symmetry_equiv_pos_as_xyz
  1  'x, y, z'
loop_
 _atom_site_type_symbol
 _atom_site_label
 _atom_site_symmetry_multiplicity
 _atom_site_fract_x
 _atom_site_fract_y
 _atom_site_fract_z
 _atom_site_occupancy
  Ca  Ca0  1  0.00000000  0.00000000  0.00000000  1
  Ca  Ca1  1  0.00000000  0.00000000  0.50000000  1
  La  La0  1  0.76145900  0.29477000  0.24392500  1
  La  La1  1  0.23854100  0.70523000  0.75607500  1
  La  La2  1  0.23854100  0.29477000  0.24392500  1
  La  La3  1  0.76145900  0.70523000  0.75607500  1
  La  La4  1  0.00000000  0.50000000  0.50000000  1
  Sb  Sb0  1  0.00000000  0.50000000  0.00000000  1
  Sb  Sb1  1  0.73505000  0.75234700  0.25646400  1
  Sb  Sb2  1  0.26495000  0.24765300  0.74353600  1
  Sb  Sb3  1  0.26495000  0.75234700  0.25646400  1
  Sb  Sb4  1  0.73505000  0.24765300  0.74353600  1
  O  O0  1  0.00000000  0.23508400  0.36878900  1
  O  O1  1  0.00000000  0.76491600  0.63121100  1
  O  O2  1  0.77772500  0.56603500  0.12935800  1
  O  O3  1  0.22227500  0.43396500  0.87064200  1
  O  O4  1  0.22227500  0.56603500  0.12935800  1
  O  O5  1  0.77772500  0.43396500  0.87064200  1
  O  O6  1  0.00000000  0.79556400  0.35300500  1
  O  O7  1  0.00000000  0.20443600  0.64699500  1
  O  O8  1  0.00000000  0.23211800  0.11409100  1
  O  O9  1  0.00000000  0.76788200  0.88590900  1
  O  O10  1  0.74424300  0.52385800  0.36133400  1
  O  O11  1  0.25575700  0.47614200  0.63866600  1
  O  O12  1  0.25575700  0.52385800  0.36133400  1
  O  O13  1  0.74424300  0.47614200  0.63866600  1
loop_
_geom_bond_atom_site_label_1
_geom_bond_atom_site_label_2
_geom_bond_distance
_geom_bond_site_symmetry_2
Ca0 O8 2.224727 1_555
Ca0 O9 2.224727 1_544
Ca1 O1 2.254880 1_545
Ca1 O0 2.254880 1_555
Ca1 O6 2.330040 1_545
Ca1 O7 2.330040 1_555
La0 O10 2.234149 1_555
La0 O0 2.293347 1_655
La0 O8 2.362112 1_655
La0 O2 2.363576 1_555
La1 O11 2.234149 1_555
La1 O1 2.293347 1_555
La1 O9 2.362112 1_555
La1 O3 2.363576 1_555
La2 O12 2.234149 1_555
La2 O0 2.293347 1_555
La2 O8 2.362112 1_555
La2 O4 2.363576 1_555
La3 O13 2.234149 1_555
La3 O1 2.293347 1_655
La3 O9 2.362112 1_655
La3 O5 2.363576 1_555
La4 O13 2.462694 1_455
La4 O11 2.462694 1_555
La4 O10 2.462694 1_455
La4 O12 2.462694 1_555
La4 O1 2.546254 1_555
La4 O0 2.546254 1_555
La4 O7 2.710764 1_555
La4 O6 2.710764 1_555
O2 Sb1 2.088593 1_555
O2 Sb0 2.277144 1_655
O3 Sb2 2.088593 1_555
O3 Sb0 2.277144 1_556
O4 Sb3 2.088593 1_555
O4 Sb0 2.277144 1_555
O5 Sb4 2.088593 1_555
O5 Sb0 2.277144 1_656
O6 Sb3 2.272205 1_555
O6 Sb1 2.272205 1_455
O7 Sb2 2.272205 1_555
O7 Sb4 2.272205 1_455
O8 Sb0 2.336711 1_555
O9 Sb0 2.336711 1_556
O10 Sb1 2.040175 1_555
O11 Sb2 2.040175 1_555
O12 Sb3 2.040175 1_555
O13 Sb4 2.040175 1_555
