# generated using pymatgen
data_MnNF3
_symmetry_space_group_name_H-M   'P 1'
_cell_length_a   5.60362800
_cell_length_b   5.65827900
_cell_length_c   8.05470900
_cell_angle_alpha   90.00000000
_cell_angle_beta   90.00000000
_cell_angle_gamma   90.00000000
_symmetry_Int_Tables_number   1
_chemical_formula_structural   MnNF3
_chemical_formula_sum   'Mn4 N4 F12'
_cell_volume   255.38977737
_cell_formula_units_Z   4
loop_
 _symmetry_equiv_pos_site_id
 _symmetry_equiv_pos_as_xyz
  1  'x, y, z'
loop_
 _atom_site_type_symbol
 _atom_site_label
 _atom_site_symmetry_multiplicity
 _atom_site_fract_x
 _atom_site_fract_y
 _atom_site_fract_z
 _atom_site_occupancy
  Mn  Mn0  1  0.50000000  0.50000000  0.00000000  1
  Mn  Mn1  1  0.00000000  0.00000000  0.50000000  1
  Mn  Mn2  1  0.50000000  0.50000000  0.50000000  1
  Mn  Mn3  1  0.00000000  0.00000000  0.00000000  1
  N  N0  1  0.00279100  0.49747700  0.25000000  1
  N  N1  1  0.50279100  0.00252300  0.25000000  1
  N  N2  1  0.99720900  0.50252300  0.75000000  1
  N  N3  1  0.49720900  0.99747700  0.75000000  1
  F  F0  1  0.74922500  0.73324500  0.00423100  1
  F  F1  1  0.24922500  0.76675500  0.49576900  1
  F  F2  1  0.25077500  0.26675500  0.50423100  1
  F  F3  1  0.75077500  0.23324500  0.99576900  1
  F  F4  1  0.25077500  0.26675500  0.99576900  1
  F  F5  1  0.75077500  0.23324500  0.50423100  1
  F  F6  1  0.74922500  0.73324500  0.49576900  1
  F  F7  1  0.24922500  0.76675500  0.00423100  1
  F  F8  1  0.50062600  0.48972900  0.25000000  1
  F  F9  1  0.00062600  0.01027100  0.25000000  1
  F  F10  1  0.49937400  0.51027100  0.75000000  1
  F  F11  1  0.99937400  0.98972900  0.75000000  1
loop_
_geom_bond_atom_site_label_1
_geom_bond_atom_site_label_2
_geom_bond_distance
_geom_bond_site_symmetry_2
F0 Mn0 1.921805 1_555
F0 Mn3 2.062547 1_665
F1 Mn1 1.921805 1_565
F1 Mn2 2.062547 1_555
F2 Mn2 1.921805 1_555
F2 Mn1 2.062547 1_555
F3 Mn3 1.921805 1_656
F3 Mn0 2.062547 1_556
F4 Mn0 1.921805 1_556
F4 Mn3 2.062547 1_556
F5 Mn1 1.921805 1_655
F5 Mn2 2.062547 1_555
F6 Mn2 1.921805 1_555
F6 Mn1 2.062547 1_665
F7 Mn3 1.921805 1_565
F7 Mn0 2.062547 1_555
F8 Mn0 2.014519 1_555
F8 Mn2 2.014519 1_555
F9 Mn1 2.014519 1_555
F9 Mn3 2.014519 1_555
F10 Mn2 2.014519 1_555
F10 Mn0 2.014519 1_556
F11 Mn1 2.014519 1_665
F11 Mn3 2.014519 1_666
