# generated using pymatgen
data_KRb2InF6
_symmetry_space_group_name_H-M   'P 1'
_cell_length_a   6.56373652
_cell_length_b   6.56373652
_cell_length_c   6.56373652
_cell_angle_alpha   120.27323510
_cell_angle_beta   120.27323510
_cell_angle_gamma   89.52739086
_symmetry_Int_Tables_number   1
_chemical_formula_structural   KRb2InF6
_chemical_formula_sum   'K1 Rb2 In1 F6'
_cell_volume   199.12467501
_cell_formula_units_Z   1
loop_
 _symmetry_equiv_pos_site_id
 _symmetry_equiv_pos_as_xyz
  1  'x, y, z'
loop_
 _atom_site_type_symbol
 _atom_site_label
 _atom_site_symmetry_multiplicity
 _atom_site_fract_x
 _atom_site_fract_y
 _atom_site_fract_z
 _atom_site_occupancy
  K  K0  1  0.50000000  0.50000000  0.00000000  1
  Rb  Rb0  1  0.75000000  0.25000000  0.50000000  1
  Rb  Rb1  1  0.25000000  0.75000000  0.50000000  1
  In  In0  1  0.00000000  0.00000000  0.00000000  1
  F  F0  1  0.26315100  0.18592000  0.44907200  1
  F  F1  1  0.73684900  0.81408000  0.55092800  1
  F  F2  1  0.18592000  0.73684900  0.92276900  1
  F  F3  1  0.81408000  0.26315100  0.07723100  1
  F  F4  1  0.22571200  0.22571200  0.00000000  1
  F  F5  1  0.77428800  0.77428800  0.00000000  1
loop_
_geom_bond_atom_site_label_1
_geom_bond_atom_site_label_2
_geom_bond_distance
_geom_bond_site_symmetry_2
F0 In0 2.106119 1_555
F0 K0 2.571333 1_556
F0 Rb1 3.050170 1_545
F0 Rb0 3.050177 1_555
F1 In0 2.106119 1_666
F1 K0 2.571333 1_555
F1 Rb0 3.050170 1_565
F1 Rb1 3.050177 1_555
F2 In0 2.106115 1_566
F2 K0 2.571337 1_556
F2 Rb1 3.050174 1_555
F2 Rb0 3.050174 1_455
F3 In0 2.106115 1_655
F3 K0 2.571337 1_555
F3 Rb1 3.050174 1_655
F3 Rb0 3.050174 1_555
F4 In0 2.103801 1_555
F4 K0 2.556564 1_555
F4 Rb0 3.276136 1_454
F4 Rb0 3.276136 1_555
F4 Rb1 3.276136 1_544
F4 Rb1 3.276136 1_555
F5 In0 2.103801 1_665
F5 K0 2.556564 1_555
F5 Rb0 3.276136 1_565
F5 Rb1 3.276136 1_554
F5 Rb1 3.276136 1_655
F5 Rb0 3.276136 1_554
