# generated using pymatgen
data_BaMg30FeO32
_symmetry_space_group_name_H-M   'P 1'
_cell_length_a   8.66267700
_cell_length_b   8.66267700
_cell_length_c   8.64323500
_cell_angle_alpha   90.00000000
_cell_angle_beta   90.00000000
_cell_angle_gamma   90.00000000
_symmetry_Int_Tables_number   1
_chemical_formula_structural   BaMg30FeO32
_chemical_formula_sum   'Ba1 Mg30 Fe1 O32'
_cell_volume   648.60540583
_cell_formula_units_Z   1
loop_
 _symmetry_equiv_pos_site_id
 _symmetry_equiv_pos_as_xyz
  1  'x, y, z'
loop_
 _atom_site_type_symbol
 _atom_site_label
 _atom_site_symmetry_multiplicity
 _atom_site_fract_x
 _atom_site_fract_y
 _atom_site_fract_z
 _atom_site_occupancy
  Ba  Ba0  1  0.50000000  0.50000000  0.00000000  1
  Mg  Mg0  1  0.50000000  0.00000000  0.00000000  1
  Mg  Mg1  1  0.00000000  0.50000000  0.00000000  1
  Mg  Mg2  1  0.00000000  0.00000000  0.50000000  1
  Mg  Mg3  1  0.50000000  0.00000000  0.50000000  1
  Mg  Mg4  1  0.00000000  0.50000000  0.50000000  1
  Mg  Mg5  1  0.50000000  0.50000000  0.50000000  1
  Mg  Mg6  1  0.24224300  0.24224300  0.00000000  1
  Mg  Mg7  1  0.75775700  0.24224300  0.00000000  1
  Mg  Mg8  1  0.24224300  0.75775700  0.00000000  1
  Mg  Mg9  1  0.75775700  0.75775700  0.00000000  1
  Mg  Mg10  1  0.24949000  0.24949000  0.50000000  1
  Mg  Mg11  1  0.75051000  0.24949000  0.50000000  1
  Mg  Mg12  1  0.24949000  0.75051000  0.50000000  1
  Mg  Mg13  1  0.75051000  0.75051000  0.50000000  1
  Mg  Mg14  1  0.25086700  0.00000000  0.25079600  1
  Mg  Mg15  1  0.74913300  0.00000000  0.25079600  1
  Mg  Mg16  1  0.24244700  0.50000000  0.25721100  1
  Mg  Mg17  1  0.75755300  0.50000000  0.25721100  1
  Mg  Mg18  1  0.25086700  0.00000000  0.74920400  1
  Mg  Mg19  1  0.74913300  0.00000000  0.74920400  1
  Mg  Mg20  1  0.24244700  0.50000000  0.74278900  1
  Mg  Mg21  1  0.75755300  0.50000000  0.74278900  1
  Mg  Mg22  1  0.00000000  0.25086700  0.25079600  1
  Mg  Mg23  1  0.50000000  0.24244700  0.25721100  1
  Mg  Mg24  1  0.00000000  0.74913300  0.25079600  1
  Mg  Mg25  1  0.50000000  0.75755300  0.25721100  1
  Mg  Mg26  1  0.00000000  0.25086700  0.74920400  1
  Mg  Mg27  1  0.50000000  0.24244700  0.74278900  1
  Mg  Mg28  1  0.00000000  0.74913300  0.74920400  1
  Mg  Mg29  1  0.50000000  0.75755300  0.74278900  1
  Fe  Fe0  1  0.00000000  0.00000000  0.00000000  1
  O  O0  1  0.00000000  0.00000000  0.25250400  1
  O  O1  1  0.50000000  0.00000000  0.25627400  1
  O  O2  1  0.00000000  0.50000000  0.25627400  1
  O  O3  1  0.50000000  0.50000000  0.27928400  1
  O  O4  1  0.00000000  0.00000000  0.74749600  1
  O  O5  1  0.50000000  0.00000000  0.74372600  1
  O  O6  1  0.00000000  0.50000000  0.74372600  1
  O  O7  1  0.50000000  0.50000000  0.72071600  1
  O  O8  1  0.25021700  0.25021700  0.24949500  1
  O  O9  1  0.74978300  0.25021700  0.24949500  1
  O  O10  1  0.25021700  0.74978300  0.24949500  1
  O  O11  1  0.74978300  0.74978300  0.24949500  1
  O  O12  1  0.25021700  0.25021700  0.75050500  1
  O  O13  1  0.74978300  0.25021700  0.75050500  1
  O  O14  1  0.25021700  0.74978300  0.75050500  1
  O  O15  1  0.74978300  0.74978300  0.75050500  1
  O  O16  1  0.25050800  0.00000000  0.00000000  1
  O  O17  1  0.74949200  0.00000000  0.00000000  1
  O  O18  1  0.22126900  0.50000000  0.00000000  1
  O  O19  1  0.77873100  0.50000000  0.00000000  1
  O  O20  1  0.24872300  0.00000000  0.50000000  1
  O  O21  1  0.75127700  0.00000000  0.50000000  1
  O  O22  1  0.24429000  0.50000000  0.50000000  1
  O  O23  1  0.75571000  0.50000000  0.50000000  1
  O  O24  1  0.00000000  0.25050800  0.00000000  1
  O  O25  1  0.50000000  0.22126900  0.00000000  1
  O  O26  1  0.00000000  0.74949200  0.00000000  1
  O  O27  1  0.50000000  0.77873100  0.00000000  1
  O  O28  1  0.00000000  0.24872300  0.50000000  1
  O  O29  1  0.50000000  0.24429000  0.50000000  1
  O  O30  1  0.00000000  0.75127700  0.50000000  1
  O  O31  1  0.50000000  0.75571000  0.50000000  1
loop_
_geom_bond_atom_site_label_1
_geom_bond_atom_site_label_2
_geom_bond_distance
_geom_bond_site_symmetry_2
Ba0 O3 2.413917 1_555
Ba0 O7 2.413917 1_554
Ba0 O19 2.414557 1_555
Ba0 O27 2.414557 1_555
Ba0 O25 2.414557 1_555
Ba0 O18 2.414557 1_555
Mg0 O25 1.916782 1_555
Mg0 O27 1.916782 1_545
Mg0 O16 2.161269 1_555
Mg0 O17 2.161269 1_555
Mg0 O5 2.215036 1_554
Mg0 O1 2.215036 1_555
Mg1 O18 1.916782 1_555
Mg1 O19 1.916782 1_455
Mg1 O24 2.161269 1_555
Mg1 O26 2.161269 1_555
Mg1 O2 2.215036 1_555
Mg1 O6 2.215036 1_554
Mg2 O0 2.139166 1_555
Mg2 O4 2.139166 1_555
Mg2 O20 2.154607 1_555
Mg2 O28 2.154607 1_555
Mg2 O30 2.154607 1_545
Mg2 O21 2.154607 1_455
Mg3 O5 2.106581 1_555
Mg3 O1 2.106581 1_555
Mg3 O31 2.116205 1_545
Mg3 O29 2.116205 1_555
Mg3 O21 2.176731 1_555
Mg3 O20 2.176731 1_555
Mg4 O2 2.106581 1_555
Mg4 O6 2.106581 1_555
Mg4 O23 2.116205 1_455
Mg4 O22 2.116205 1_555
Mg4 O30 2.176731 1_555
Mg4 O28 2.176731 1_555
Mg5 O7 1.907700 1_555
Mg5 O3 1.907700 1_555
Mg5 O22 2.215133 1_555
Mg5 O23 2.215133 1_555
Mg5 O29 2.215133 1_555
Mg5 O31 2.215133 1_555
Mg6 O24 2.099694 1_555
Mg6 O16 2.099694 1_555
Mg6 O12 2.158655 1_554
Mg6 O8 2.158655 1_555
Mg6 O25 2.240246 1_555
Mg6 O18 2.240246 1_555
Mg7 O24 2.099694 1_655
Mg7 O17 2.099694 1_555
Mg7 O9 2.158655 1_555
Mg7 O13 2.158655 1_554
Mg7 O19 2.240246 1_555
Mg7 O25 2.240246 1_555
Mg8 O16 2.099694 1_565
Mg8 O26 2.099694 1_555
Mg8 O10 2.158655 1_555
Mg8 O14 2.158655 1_554
Mg8 O27 2.240246 1_555
Mg8 O18 2.240246 1_555
Mg9 O17 2.099694 1_565
Mg9 O26 2.099694 1_655
Mg9 O15 2.158655 1_554
Mg9 O11 2.158655 1_555
Mg9 O19 2.240246 1_555
Mg9 O27 2.240246 1_555
Mg10 O20 2.161261 1_555
Mg10 O28 2.161261 1_555
Mg10 O12 2.165192 1_555
Mg10 O8 2.165192 1_555
Mg10 O22 2.170555 1_555
Mg10 O29 2.170555 1_555
Mg11 O28 2.161261 1_655
Mg11 O21 2.161261 1_555
Mg11 O9 2.165192 1_555
Mg11 O13 2.165192 1_555
Mg11 O23 2.170555 1_555
Mg11 O29 2.170555 1_555
Mg12 O30 2.161261 1_555
Mg12 O20 2.161261 1_565
Mg12 O10 2.165192 1_555
Mg12 O14 2.165192 1_555
Mg12 O31 2.170555 1_555
Mg12 O22 2.170555 1_555
Mg13 O21 2.161261 1_565
Mg13 O30 2.161261 1_655
Mg13 O15 2.165192 1_555
Mg13 O11 2.165192 1_555
Mg13 O31 2.170555 1_555
Mg13 O23 2.170555 1_555
Mg14 O20 2.154009 1_555
Mg14 O1 2.158678 1_555
Mg14 O8 2.167586 1_555
Mg14 O10 2.167586 1_545
Mg14 O16 2.167691 1_555
Mg14 O0 2.173230 1_555
Mg15 O21 2.154009 1_555
Mg15 O1 2.158678 1_555
Mg15 O9 2.167586 1_555
Mg15 O11 2.167586 1_545
Mg15 O17 2.167691 1_555
Mg15 O0 2.173230 1_655
Mg16 O22 2.098543 1_555
Mg16 O2 2.100256 1_555
Mg16 O10 2.165863 1_555
Mg16 O8 2.165863 1_555
Mg16 O18 2.230692 1_555
Mg16 O3 2.239241 1_555
Mg17 O23 2.098543 1_555
Mg17 O2 2.100256 1_655
Mg17 O9 2.165863 1_555
Mg17 O11 2.165863 1_555
Mg17 O19 2.230692 1_555
Mg17 O3 2.239241 1_555
Mg18 O20 2.154009 1_555
Mg18 O5 2.158678 1_555
Mg18 O14 2.167586 1_545
Mg18 O12 2.167586 1_555
Mg18 O16 2.167691 1_556
Mg18 O4 2.173230 1_555
Mg19 O21 2.154009 1_555
Mg19 O5 2.158678 1_555
Mg19 O13 2.167586 1_555
Mg19 O15 2.167586 1_545
Mg19 O17 2.167691 1_556
Mg19 O4 2.173230 1_655
Mg20 O22 2.098543 1_555
Mg20 O6 2.100256 1_555
Mg20 O12 2.165863 1_555
Mg20 O14 2.165863 1_555
Mg20 O18 2.230692 1_556
Mg20 O7 2.239241 1_555
Mg21 O23 2.098543 1_555
Mg21 O6 2.100256 1_655
Mg21 O15 2.165863 1_555
Mg21 O13 2.165863 1_555
Mg21 O19 2.230692 1_556
Mg21 O7 2.239241 1_555
Mg22 O28 2.154009 1_555
Mg22 O2 2.158678 1_555
Mg22 O8 2.167586 1_555
Mg22 O9 2.167586 1_455
Mg22 O24 2.167691 1_555
Mg22 O0 2.173230 1_555
Mg23 O29 2.098543 1_555
Mg23 O1 2.100256 1_555
Mg23 O9 2.165863 1_555
Mg23 O8 2.165863 1_555
Mg23 O25 2.230692 1_555
Mg23 O3 2.239241 1_555
Mg24 O30 2.154009 1_555
Mg24 O2 2.158678 1_555
Mg24 O10 2.167586 1_555
Mg24 O11 2.167586 1_455
Mg24 O26 2.167691 1_555
Mg24 O0 2.173230 1_565
Mg25 O31 2.098543 1_555
Mg25 O1 2.100256 1_565
Mg25 O10 2.165863 1_555
Mg25 O11 2.165863 1_555
Mg25 O27 2.230692 1_555
Mg25 O3 2.239241 1_555
Mg26 O28 2.154009 1_555
Mg26 O6 2.158678 1_555
Mg26 O13 2.167586 1_455
Mg26 O12 2.167586 1_555
Mg26 O24 2.167691 1_556
Mg26 O4 2.173230 1_555
Mg27 O29 2.098543 1_555
Mg27 O5 2.100256 1_555
Mg27 O13 2.165863 1_555
Mg27 O12 2.165863 1_555
Mg27 O25 2.230692 1_556
Mg27 O7 2.239241 1_555
Mg28 O30 2.154009 1_555
Mg28 O6 2.158678 1_555
Mg28 O14 2.167586 1_555
Mg28 O15 2.167586 1_455
Mg28 O26 2.167691 1_556
Mg28 O4 2.173230 1_565
Mg29 O31 2.098543 1_555
Mg29 O5 2.100256 1_565
Mg29 O15 2.165863 1_555
Mg29 O14 2.165863 1_555
Mg29 O27 2.230692 1_556
Mg29 O7 2.239241 1_555
Fe0 O17 2.170070 1_455
Fe0 O26 2.170070 1_545
Fe0 O24 2.170070 1_555
Fe0 O16 2.170070 1_555
Fe0 O4 2.182451 1_554
Fe0 O0 2.182451 1_555
