# generated using pymatgen
data_InAsPd5
_symmetry_space_group_name_H-M   'P 1'
_cell_length_a   4.01646311
_cell_length_b   4.01646311
_cell_length_c   7.03431188
_cell_angle_alpha   90.00000000
_cell_angle_beta   90.00000000
_cell_angle_gamma   90.00000000
_symmetry_Int_Tables_number   1
_chemical_formula_structural   InAsPd5
_chemical_formula_sum   'In1 As1 Pd5'
_cell_volume   113.47734982
_cell_formula_units_Z   1
loop_
 _symmetry_equiv_pos_site_id
 _symmetry_equiv_pos_as_xyz
  1  'x, y, z'
loop_
 _atom_site_type_symbol
 _atom_site_label
 _atom_site_symmetry_multiplicity
 _atom_site_fract_x
 _atom_site_fract_y
 _atom_site_fract_z
 _atom_site_occupancy
  In  In0  1  0.50000000  0.50000000  0.00000000  1
  As  As0  1  -0.00000000  -0.00000000  0.50000000  1
  Pd  Pd0  1  -0.00000000  0.50000000  0.28870565  1
  Pd  Pd1  1  0.00000000  0.50000000  0.71129435  1
  Pd  Pd2  1  0.50000000  -0.00000000  0.28870565  1
  Pd  Pd3  1  0.50000000  -0.00000000  0.71129435  1
  Pd  Pd4  1  -0.00000000  -0.00000000  0.00000000  1
loop_
_geom_bond_atom_site_label_1
_geom_bond_atom_site_label_2
_geom_bond_distance
_geom_bond_site_symmetry_2
In0 Pd4 2.840068 1_565
In0 Pd4 2.840068 1_655
In0 Pd4 2.840068 1_665
In0 Pd4 2.840068 1_555
In0 Pd2 2.856104 1_565
In0 Pd0 2.856104 1_555
In0 Pd0 2.856104 1_655
In0 Pd2 2.856104 1_555
In0 Pd3 2.856104 1_554
In0 Pd1 2.856104 1_554
In0 Pd1 2.856104 1_654
In0 Pd3 2.856104 1_564
As0 Pd0 2.498422 1_545
As0 Pd3 2.498422 1_455
As0 Pd2 2.498422 1_555
As0 Pd2 2.498422 1_455
As0 Pd0 2.498422 1_555
As0 Pd1 2.498422 1_555
As0 Pd1 2.498422 1_545
As0 Pd3 2.498422 1_555
Pd0 Pd4 2.856104 1_555
Pd0 Pd4 2.856104 1_565
Pd1 Pd4 2.856104 1_566
Pd1 Pd4 2.856104 1_556
Pd2 Pd4 2.856104 1_655
Pd2 Pd4 2.856104 1_555
Pd3 Pd4 2.856104 1_656
Pd3 Pd4 2.856104 1_556
