# generated using pymatgen
data_La(PPd)2
_symmetry_space_group_name_H-M   'P 1'
_cell_length_a   5.79131683
_cell_length_b   5.79131683
_cell_length_c   5.79131683
_cell_angle_alpha   137.35021665
_cell_angle_beta   137.35021665
_cell_angle_gamma   61.89964375
_symmetry_Int_Tables_number   1
_chemical_formula_structural   La(PPd)2
_chemical_formula_sum   'La1 P2 Pd2'
_cell_volume   88.11853953
_cell_formula_units_Z   1
loop_
 _symmetry_equiv_pos_site_id
 _symmetry_equiv_pos_as_xyz
  1  'x, y, z'
loop_
 _atom_site_type_symbol
 _atom_site_label
 _atom_site_symmetry_multiplicity
 _atom_site_fract_x
 _atom_site_fract_y
 _atom_site_fract_z
 _atom_site_occupancy
  La  La0  1  -0.00000000  -0.00000000  -0.00000000  1
  P  P0  1  0.38686448  0.38686448  0.00000000  1
  P  P1  1  0.61313552  0.61313552  -0.00000000  1
  Pd  Pd0  1  0.75000000  0.25000000  0.50000000  1
  Pd  Pd1  1  0.25000000  0.75000000  0.50000000  1
loop_
_geom_bond_atom_site_label_1
_geom_bond_atom_site_label_2
_geom_bond_distance
_geom_bond_site_symmetry_2
La0 P0 3.183372 1_444
La0 P0 3.183372 1_455
La0 P0 3.183372 1_545
La0 P1 3.183372 1_444
La0 P1 3.183372 1_455
La0 P1 3.183372 1_545
La0 P0 3.183372 1_556
La0 P1 3.183372 1_556
La0 Pd0 3.256156 1_444
La0 Pd0 3.256156 1_454
La0 Pd1 3.256156 1_444
La0 Pd1 3.256156 1_555
La0 Pd0 3.256156 1_455
La0 Pd1 3.256156 1_545
La0 Pd1 3.256156 1_544
La0 Pd0 3.256156 1_555
P0 P1 2.247658 1_555
P0 Pd1 2.506747 1_544
P0 Pd0 2.506747 1_454
P0 Pd0 2.506747 1_555
P0 Pd1 2.506747 1_555
P1 Pd0 2.506747 1_565
P1 Pd1 2.506747 1_554
P1 Pd1 2.506747 1_655
P1 Pd0 2.506747 1_554
