# generated using pymatgen
data_Li7TaN4
_symmetry_space_group_name_H-M   'P 1'
_cell_length_a   9.74603171
_cell_length_b   9.74603171
_cell_length_c   9.74603171
_cell_angle_alpha   90.00000000
_cell_angle_beta   90.00000000
_cell_angle_gamma   90.00000000
_symmetry_Int_Tables_number   1
_chemical_formula_structural   Li7TaN4
_chemical_formula_sum   'Li56 Ta8 N32'
_cell_volume   925.72812884
_cell_formula_units_Z   8
loop_
 _symmetry_equiv_pos_site_id
 _symmetry_equiv_pos_as_xyz
  1  'x, y, z'
loop_
 _atom_site_type_symbol
 _atom_site_label
 _atom_site_symmetry_multiplicity
 _atom_site_fract_x
 _atom_site_fract_y
 _atom_site_fract_z
 _atom_site_occupancy
  Li  Li0  1  0.86816819  0.35996479  0.38394173  1
  Li  Li1  1  0.36816819  0.14003521  0.61605827  1
  Li  Li2  1  0.13183181  0.85996479  0.11605827  1
  Li  Li3  1  0.14003521  0.61605827  0.36816819  1
  Li  Li4  1  0.11605827  0.13183181  0.85996479  1
  Li  Li5  1  0.61605827  0.36816819  0.14003521  1
  Li  Li6  1  0.35996479  0.38394173  0.86816819  1
  Li  Li7  1  0.38394173  0.86816819  0.35996479  1
  Li  Li8  1  0.85996479  0.11605827  0.13183181  1
  Li  Li9  1  0.64003521  0.88394173  0.63183181  1
  Li  Li10  1  0.88394173  0.63183181  0.64003521  1
  Li  Li11  1  0.63183181  0.64003521  0.88394173  1
  Li  Li12  1  0.13183181  0.64003521  0.61605827  1
  Li  Li13  1  0.63183181  0.85996479  0.38394173  1
  Li  Li14  1  0.86816819  0.14003521  0.88394173  1
  Li  Li15  1  0.85996479  0.38394173  0.63183181  1
  Li  Li16  1  0.88394173  0.86816819  0.14003521  1
  Li  Li17  1  0.38394173  0.63183181  0.85996479  1
  Li  Li18  1  0.64003521  0.61605827  0.13183181  1
  Li  Li19  1  0.61605827  0.13183181  0.64003521  1
  Li  Li20  1  0.14003521  0.88394173  0.86816819  1
  Li  Li21  1  0.35996479  0.11605827  0.36816819  1
  Li  Li22  1  0.11605827  0.36816819  0.35996479  1
  Li  Li23  1  0.86728730  0.62029484  0.09896717  1
  Li  Li24  1  0.36816819  0.35996479  0.11605827  1
  Li  Li25  1  0.12029484  0.09896717  0.63271270  1
  Li  Li26  1  0.37970516  0.90103283  0.13271270  1
  Li  Li27  1  0.09896717  0.63271270  0.12029484  1
  Li  Li28  1  0.13271270  0.37970516  0.90103283  1
  Li  Li29  1  0.63271270  0.12029484  0.09896717  1
  Li  Li30  1  0.40103283  0.36728730  0.62029484  1
  Li  Li31  1  0.36728730  0.62029484  0.40103283  1
  Li  Li32  1  0.90103283  0.13271270  0.37970516  1
  Li  Li33  1  0.59896717  0.86728730  0.87970516  1
  Li  Li34  1  0.86728730  0.87970516  0.59896717  1
  Li  Li35  1  0.87970516  0.59896717  0.86728730  1
  Li  Li36  1  0.37970516  0.59896717  0.63271270  1
  Li  Li37  1  0.87970516  0.90103283  0.36728730  1
  Li  Li38  1  0.62029484  0.09896717  0.86728730  1
  Li  Li39  1  0.90103283  0.36728730  0.87970516  1
  Li  Li40  1  0.36815859  0.36815859  0.36815859  1
  Li  Li41  1  0.13184141  0.63184141  0.86815859  1
  Li  Li42  1  0.86815859  0.13184141  0.63184141  1
  Li  Li43  1  0.63184141  0.86815859  0.13184141  1
  Li  Li44  1  0.63184141  0.63184141  0.63184141  1
  Li  Li45  1  0.86815859  0.36815859  0.13184141  1
  Li  Li46  1  0.13184141  0.86815859  0.36815859  1
  Li  Li47  1  0.36815859  0.13184141  0.86815859  1
  Li  Li48  1  0.12029484  0.40103283  0.13271270  1
  Li  Li49  1  0.13271270  0.12029484  0.40103283  1
  Li  Li50  1  0.40103283  0.13271270  0.12029484  1
  Li  Li51  1  0.09896717  0.86728730  0.62029484  1
  Li  Li52  1  0.63271270  0.37970516  0.59896717  1
  Li  Li53  1  0.59896717  0.63271270  0.37970516  1
  Li  Li54  1  0.36728730  0.87970516  0.90103283  1
  Li  Li55  1  0.62029484  0.40103283  0.36728730  1
  Ta  Ta0  1  0.12755536  0.37244464  0.62755536  1
  Ta  Ta1  1  0.37244464  0.62755536  0.12755536  1
  Ta  Ta2  1  0.62755536  0.12755536  0.37244464  1
  Ta  Ta3  1  0.87244464  0.87244464  0.87244464  1
  Ta  Ta4  1  0.87244464  0.62755536  0.37244464  1
  Ta  Ta5  1  0.62755536  0.37244464  0.87244464  1
  Ta  Ta6  1  0.37244464  0.87244464  0.62755536  1
  Ta  Ta7  1  0.12755536  0.12755536  0.12755536  1
  N  N0  1  0.00979331  0.24471602  0.01373053  1
  N  N1  1  0.50979331  0.25528398  0.98626947  1
  N  N2  1  0.99020669  0.74471602  0.48626947  1
  N  N3  1  0.25528398  0.98626947  0.50979331  1
  N  N4  1  0.48626947  0.99020669  0.74471602  1
  N  N5  1  0.98626947  0.50979331  0.25528398  1
  N  N6  1  0.24471602  0.01373053  0.00979331  1
  N  N7  1  0.01373053  0.00979331  0.24471602  1
  N  N8  1  0.74471602  0.48626947  0.99020669  1
  N  N9  1  0.75528398  0.51373053  0.49020669  1
  N  N10  1  0.51373053  0.49020669  0.75528398  1
  N  N11  1  0.49020669  0.75528398  0.51373053  1
  N  N12  1  0.99020669  0.75528398  0.98626947  1
  N  N13  1  0.49020669  0.74471602  0.01373053  1
  N  N14  1  0.00979331  0.25528398  0.51373053  1
  N  N15  1  0.74471602  0.01373053  0.49020669  1
  N  N16  1  0.51373053  0.00979331  0.25528398  1
  N  N17  1  0.01373053  0.49020669  0.74471602  1
  N  N18  1  0.75528398  0.98626947  0.99020669  1
  N  N19  1  0.98626947  0.99020669  0.75528398  1
  N  N20  1  0.25528398  0.51373053  0.00979331  1
  N  N21  1  0.24471602  0.48626947  0.50979331  1
  N  N22  1  0.48626947  0.50979331  0.24471602  1
  N  N23  1  0.50979331  0.24471602  0.48626947  1
  N  N24  1  0.24276584  0.25723416  0.74276584  1
  N  N25  1  0.25723416  0.74276584  0.24276584  1
  N  N26  1  0.74276584  0.24276584  0.25723416  1
  N  N27  1  0.75723416  0.75723416  0.75723416  1
  N  N28  1  0.75723416  0.74276584  0.25723416  1
  N  N29  1  0.74276584  0.25723416  0.75723416  1
  N  N30  1  0.25723416  0.75723416  0.74276584  1
  N  N31  1  0.24276584  0.24276584  0.24276584  1
loop_
_geom_bond_atom_site_label_1
_geom_bond_atom_site_label_2
_geom_bond_distance
_geom_bond_site_symmetry_2
Li0 N26 2.079269 1_555
Li0 N9 2.128097 1_555
Li0 N14 2.132152 1_655
Li0 N5 2.242632 1_555
Li1 N24 2.079269 1_555
Li1 N3 2.128097 1_545
Li1 N23 2.132152 1_555
Li1 N4 2.242632 1_545
Li2 N25 2.079269 1_555
Li2 N6 2.128097 1_565
Li2 N12 2.132152 1_454
Li2 N7 2.242632 1_565
Li3 N25 2.079269 1_555
Li3 N5 2.128097 1_455
Li3 N21 2.132152 1_555
Li3 N2 2.242632 1_455
Li4 N24 2.079269 1_555
Li4 N0 2.128097 1_556
Li4 N19 2.132152 1_445
Li4 N6 2.242632 1_556
Li5 N26 2.079269 1_555
Li5 N1 2.128097 1_554
Li5 N22 2.132152 1_555
Li5 N8 2.242632 1_554
Li6 N24 2.079269 1_555
Li6 N10 2.128097 1_555
Li6 N20 2.132152 1_556
Li6 N1 2.242632 1_555
Li7 N25 2.079269 1_555
Li7 N11 2.128097 1_555
Li7 N16 2.132152 1_565
Li7 N3 2.242632 1_555
Li8 N26 2.079269 1_555
Li8 N7 2.128097 1_655
Li8 N18 2.132152 1_544
Li8 N0 2.242632 1_655
Li9 N27 2.079269 1_555
Li9 N4 2.128097 1_555
Li9 N15 2.132152 1_565
Li9 N11 2.242632 1_555
Li10 N27 2.079269 1_555
Li10 N2 2.128097 1_555
Li10 N17 2.132152 1_655
Li10 N9 2.242632 1_555
Li11 N27 2.079269 1_555
Li11 N8 2.128097 1_555
Li11 N13 2.132152 1_556
Li11 N10 2.242632 1_555
Li12 N30 2.079269 1_555
Li12 N21 2.128097 1_555
Li12 N2 2.132152 1_455
Li12 N17 2.242632 1_555
Li13 N28 2.079269 1_555
Li13 N15 2.128097 1_565
Li13 N11 2.132152 1_555
Li13 N16 2.242632 1_565
Li14 N29 2.079269 1_555
Li14 N18 2.128097 1_545
Li14 N0 2.132152 1_656
Li14 N19 2.242632 1_545
Li15 N29 2.079269 1_555
Li15 N17 2.128097 1_655
Li15 N9 2.132152 1_555
Li15 N14 2.242632 1_655
Li16 N28 2.079269 1_555
Li16 N12 2.128097 1_554
Li16 N7 2.132152 1_665
Li16 N18 2.242632 1_554
Li17 N30 2.079269 1_555
Li17 N13 2.128097 1_556
Li17 N10 2.132152 1_555
Li17 N20 2.242632 1_556
Li18 N28 2.079269 1_555
Li18 N22 2.128097 1_555
Li18 N8 2.132152 1_554
Li18 N13 2.242632 1_555
Li19 N29 2.079269 1_555
Li19 N23 2.128097 1_555
Li19 N4 2.132152 1_545
Li19 N15 2.242632 1_555
Li20 N30 2.079269 1_555
Li20 N19 2.128097 1_455
Li20 N6 2.132152 1_566
Li20 N12 2.242632 1_455
Li21 N31 2.079269 1_555
Li21 N16 2.128097 1_555
Li21 N3 2.132152 1_545
Li21 N23 2.242632 1_555
Li22 N31 2.079269 1_555
Li22 N14 2.128097 1_555
Li22 N5 2.132152 1_455
Li22 N21 2.242632 1_555
Li23 N8 2.063200 1_554
Li23 N12 2.091018 1_554
Li23 N5 2.196693 1_555
Li23 N28 2.225838 1_555
Li24 N31 2.079269 1_555
Li24 N20 2.128097 1_555
Li24 N1 2.132152 1_554
Li24 N22 2.242632 1_555
Li25 N19 2.063200 1_445
Li25 N3 2.091018 1_545
Li25 N14 2.196693 1_555
Li25 N24 2.225838 1_555
Li26 N16 2.063200 1_565
Li26 N6 2.091018 1_565
Li26 N13 2.196693 1_555
Li26 N25 2.225838 1_555
Li27 N12 2.063200 1_454
Li27 N5 2.091018 1_455
Li27 N20 2.196693 1_555
Li27 N25 2.225838 1_555
Li28 N20 2.063200 1_556
Li28 N0 2.091018 1_556
Li28 N17 2.196693 1_555
Li28 N24 2.225838 1_555
Li29 N18 2.063200 1_544
Li29 N1 2.091018 1_554
Li29 N16 2.196693 1_555
Li29 N26 2.225838 1_555
Li30 N23 2.063200 1_555
Li30 N10 2.091018 1_555
Li30 N21 2.196693 1_555
Li30 N24 2.225838 1_555
Li31 N21 2.063200 1_555
Li31 N11 2.091018 1_555
Li31 N22 2.196693 1_555
Li31 N25 2.225838 1_555
Li32 N14 2.063200 1_655
Li32 N7 2.091018 1_655
Li32 N15 2.196693 1_555
Li32 N26 2.225838 1_555
Li33 N13 2.063200 1_556
Li33 N4 2.091018 1_555
Li33 N18 2.196693 1_555
Li33 N27 2.225838 1_555
Li34 N15 2.063200 1_565
Li34 N2 2.091018 1_555
Li34 N19 2.196693 1_555
Li34 N27 2.225838 1_555
Li35 N17 2.063200 1_655
Li35 N8 2.091018 1_555
Li35 N12 2.196693 1_555
Li35 N27 2.225838 1_555
Li36 N10 2.063200 1_555
Li36 N21 2.091018 1_555
Li36 N11 2.196693 1_555
Li36 N30 2.225838 1_555
Li37 N7 2.063200 1_665
Li37 N15 2.091018 1_565
Li37 N2 2.196693 1_555
Li37 N28 2.225838 1_555
Li38 N4 2.063200 1_545
Li38 N18 2.091018 1_545
Li38 N1 2.196693 1_555
Li38 N29 2.225838 1_555
Li39 N0 2.063200 1_656
Li39 N17 2.091018 1_655
Li39 N8 2.196693 1_555
Li39 N29 2.225838 1_555
Li40 N31 2.116708 1_555
Li40 N21 2.162843 1_555
Li40 N23 2.162843 1_555
Li40 N22 2.162843 1_555
Li41 N30 2.116708 1_555
Li41 N17 2.162843 1_555
Li41 N12 2.162843 1_455
Li41 N20 2.162843 1_556
Li42 N29 2.116708 1_555
Li42 N15 2.162843 1_555
Li42 N19 2.162843 1_545
Li42 N14 2.162843 1_655
Li43 N28 2.116708 1_555
Li43 N13 2.162843 1_555
Li43 N18 2.162843 1_554
Li43 N16 2.162843 1_565
Li44 N27 2.116708 1_555
Li44 N9 2.162843 1_555
Li44 N10 2.162843 1_555
Li44 N11 2.162843 1_555
Li45 N26 2.116708 1_555
Li45 N8 2.162843 1_554
Li45 N0 2.162843 1_655
Li45 N5 2.162843 1_555
Li46 N25 2.116708 1_555
Li46 N2 2.162843 1_455
Li46 N3 2.162843 1_555
Li46 N7 2.162843 1_565
Li47 N24 2.116708 1_555
Li47 N4 2.162843 1_545
Li47 N6 2.162843 1_556
Li47 N1 2.162843 1_555
Li48 N5 2.063200 1_455
Li48 N20 2.091018 1_555
Li48 N0 2.196693 1_555
Li48 N31 2.225838 1_555
Li49 N3 2.063200 1_545
Li49 N14 2.091018 1_555
Li49 N7 2.196693 1_555
Li49 N31 2.225838 1_555
Li50 N1 2.063200 1_554
Li50 N16 2.091018 1_555
Li50 N6 2.196693 1_555
Li50 N31 2.225838 1_555
Li51 N2 2.063200 1_455
Li51 N19 2.091018 1_455
Li51 N3 2.196693 1_555
Li51 N30 2.225838 1_555
Li52 N9 2.063200 1_555
Li52 N23 2.091018 1_555
Li52 N10 2.196693 1_555
Li52 N29 2.225838 1_555
Li53 N11 2.063200 1_555
Li53 N22 2.091018 1_555
Li53 N9 2.196693 1_555
Li53 N28 2.225838 1_555
Li54 N6 2.063200 1_566
Li54 N13 2.091018 1_556
Li54 N4 2.196693 1_555
Li54 N30 2.225838 1_555
Li55 N22 2.063200 1_555
Li55 N9 2.091018 1_555
Li55 N23 2.196693 1_555
Li55 N26 2.225838 1_555
N0 Ta7 1.962576 1_555
N1 Ta5 1.962576 1_555
N2 Ta4 1.962576 1_555
N3 Ta6 1.962576 1_555
N4 Ta6 1.962576 1_555
N5 Ta4 1.962576 1_555
N6 Ta7 1.962576 1_555
N7 Ta7 1.962576 1_555
N8 Ta5 1.962576 1_555
N9 Ta4 1.962576 1_555
N10 Ta5 1.962576 1_555
N11 Ta6 1.962576 1_555
N12 Ta3 1.962576 1_555
N13 Ta1 1.962576 1_555
N14 Ta0 1.962576 1_555
N15 Ta2 1.962576 1_555
N16 Ta2 1.962576 1_555
N17 Ta0 1.962576 1_555
N18 Ta3 1.962576 1_555
N19 Ta3 1.962576 1_555
N20 Ta1 1.962576 1_555
N21 Ta0 1.962576 1_555
N22 Ta1 1.962576 1_555
N23 Ta2 1.962576 1_555
N24 Ta0 1.944825 1_555
N25 Ta1 1.944825 1_555
N26 Ta2 1.944825 1_555
N27 Ta3 1.944825 1_555
N28 Ta4 1.944825 1_555
N29 Ta5 1.944825 1_555
N30 Ta6 1.944825 1_555
N31 Ta7 1.944825 1_555
