# generated using pymatgen
data_KBaGdWO6
_symmetry_space_group_name_H-M   'P 1'
_cell_length_a   8.50308979
_cell_length_b   8.50987155
_cell_length_c   8.51622296
_cell_angle_alpha   90.00000000
_cell_angle_beta   90.00000000
_cell_angle_gamma   90.00000000
_symmetry_Int_Tables_number   1
_chemical_formula_structural   KBaGdWO6
_chemical_formula_sum   'K4 Ba4 Gd4 W4 O24'
_cell_volume   616.23561273
_cell_formula_units_Z   4
loop_
 _symmetry_equiv_pos_site_id
 _symmetry_equiv_pos_as_xyz
  1  'x, y, z'
loop_
 _atom_site_type_symbol
 _atom_site_label
 _atom_site_symmetry_multiplicity
 _atom_site_fract_x
 _atom_site_fract_y
 _atom_site_fract_z
 _atom_site_occupancy
  K  K0  1  0.00000000  0.50000000  0.50000000  1
  K  K1  1  0.50000000  0.00000000  0.50000000  1
  K  K2  1  0.50000000  0.00000000  -0.00000000  1
  K  K3  1  0.00000000  0.50000000  -0.00000000  1
  Ba  Ba0  1  0.50000000  0.50000000  -0.00000000  1
  Ba  Ba1  1  0.00000000  0.00000000  0.50000000  1
  Ba  Ba2  1  0.00000000  0.00000000  -0.00000000  1
  Ba  Ba3  1  0.50000000  0.50000000  0.50000000  1
  Gd  Gd0  1  0.75000000  0.75000000  0.75000000  1
  Gd  Gd1  1  0.25000000  0.25000000  0.75000000  1
  Gd  Gd2  1  0.25000000  0.75000000  0.25000000  1
  Gd  Gd3  1  0.75000000  0.25000000  0.25000000  1
  W  W0  1  0.25000000  0.25000000  0.25000000  1
  W  W1  1  0.75000000  0.75000000  0.25000000  1
  W  W2  1  0.75000000  0.25000000  0.75000000  1
  W  W3  1  0.25000000  0.75000000  0.75000000  1
  O  O0  1  0.01925952  0.23362742  0.25977782  1
  O  O1  1  0.98074048  0.76637258  0.25977782  1
  O  O2  1  0.98074048  0.23362742  0.74022218  1
  O  O3  1  0.01925952  0.76637258  0.74022218  1
  O  O4  1  0.25416424  0.01966897  0.23918750  1
  O  O5  1  0.25416424  0.98033103  0.76081250  1
  O  O6  1  0.74583576  0.98033103  0.23918750  1
  O  O7  1  0.74583576  0.01966897  0.76081250  1
  O  O8  1  0.23959501  0.26008637  0.01991146  1
  O  O9  1  0.76040499  0.26008637  0.98008854  1
  O  O10  1  0.23959501  0.73991363  0.98008854  1
  O  O11  1  0.76040499  0.73991363  0.01991146  1
  O  O12  1  0.48074048  0.26637258  0.24022218  1
  O  O13  1  0.51925952  0.73362742  0.24022218  1
  O  O14  1  0.51925952  0.26637258  0.75977782  1
  O  O15  1  0.48074048  0.73362742  0.75977782  1
  O  O16  1  0.24583576  0.48033103  0.26081250  1
  O  O17  1  0.24583576  0.51966897  0.73918750  1
  O  O18  1  0.75416424  0.51966897  0.26081250  1
  O  O19  1  0.75416424  0.48033103  0.73918750  1
  O  O20  1  0.26040499  0.23991363  0.48008854  1
  O  O21  1  0.73959501  0.23991363  0.51991146  1
  O  O22  1  0.26040499  0.76008637  0.51991146  1
  O  O23  1  0.73959501  0.76008637  0.48008854  1
loop_
_geom_bond_atom_site_label_1
_geom_bond_atom_site_label_2
_geom_bond_distance
_geom_bond_site_symmetry_2
K0 O18 2.923508 1_455
K0 O19 2.923508 1_455
K0 O16 2.923508 1_555
K0 O17 2.923508 1_555
K0 O1 3.057846 1_455
K0 O0 3.057846 1_555
K0 O2 3.057846 1_455
K0 O3 3.057846 1_555
K0 O21 3.135339 1_455
K0 O23 3.135339 1_455
K0 O20 3.135339 1_555
K0 O22 3.135339 1_555
K1 O20 2.889223 1_555
K1 O22 2.889223 1_545
K1 O23 2.889223 1_545
K1 O21 2.889223 1_555
K1 O6 3.054683 1_545
K1 O7 3.054683 1_555
K1 O5 3.054683 1_545
K1 O4 3.054683 1_555
K1 O12 3.171683 1_555
K1 O13 3.171683 1_545
K1 O14 3.171683 1_555
K1 O15 3.171683 1_545
K2 O7 2.923508 1_554
K2 O5 2.923508 1_544
K2 O4 2.923508 1_555
K2 O6 2.923508 1_545
K2 O15 3.057846 1_544
K2 O13 3.057846 1_545
K2 O14 3.057846 1_554
K2 O12 3.057846 1_555
K2 O11 3.135339 1_545
K2 O10 3.135339 1_544
K2 O9 3.135339 1_554
K2 O8 3.135339 1_555
K3 O9 2.889223 1_454
K3 O11 2.889223 1_455
K3 O8 2.889223 1_555
K3 O10 2.889223 1_554
K3 O18 3.054683 1_455
K3 O19 3.054683 1_454
K3 O16 3.054683 1_555
K3 O17 3.054683 1_554
K3 O3 3.171683 1_554
K3 O2 3.171683 1_454
K3 O1 3.171683 1_455
K3 O0 3.171683 1_555
Ba0 O14 2.857404 1_554
Ba0 O15 2.857404 1_554
Ba0 O12 2.857404 1_555
Ba0 O13 2.857404 1_555
Ba0 O8 3.016606 1_555
Ba0 O10 3.016606 1_554
Ba0 O11 3.016606 1_555
Ba0 O9 3.016606 1_554
Ba0 O16 3.103574 1_555
Ba0 O17 3.103574 1_554
Ba0 O19 3.103574 1_554
Ba0 O18 3.103574 1_555
Ba1 O0 2.857404 1_555
Ba1 O1 2.857404 1_445
Ba1 O3 2.857404 1_545
Ba1 O2 2.857404 1_455
Ba1 O23 3.016606 1_445
Ba1 O21 3.016606 1_455
Ba1 O22 3.016606 1_545
Ba1 O20 3.016606 1_555
Ba1 O7 3.103574 1_455
Ba1 O6 3.103574 1_445
Ba1 O4 3.103574 1_555
Ba1 O5 3.103574 1_545
Ba2 O7 2.974556 1_454
Ba2 O6 2.974556 1_445
Ba2 O5 2.974556 1_544
Ba2 O4 2.974556 1_555
Ba2 O2 2.978910 1_454
Ba2 O0 2.978910 1_555
Ba2 O3 2.978910 1_544
Ba2 O1 2.978910 1_445
Ba2 O10 3.012979 1_544
Ba2 O8 3.012979 1_555
Ba2 O9 3.012979 1_454
Ba2 O11 3.012979 1_445
Ba3 O16 2.974556 1_555
Ba3 O17 2.974556 1_555
Ba3 O18 2.974556 1_555
Ba3 O19 2.974556 1_555
Ba3 O12 2.978910 1_555
Ba3 O14 2.978910 1_555
Ba3 O15 2.978910 1_555
Ba3 O13 2.978910 1_555
Ba3 O20 3.012979 1_555
Ba3 O22 3.012979 1_555
Ba3 O23 3.012979 1_555
Ba3 O21 3.012979 1_555
Gd0 O15 2.295284 1_555
Gd0 O3 2.295284 1_655
Gd0 O7 2.296968 1_565
Gd0 O19 2.296968 1_555
Gd0 O23 2.301929 1_555
Gd0 O11 2.301929 1_556
Gd1 O14 2.295284 1_555
Gd1 O2 2.295284 1_455
Gd1 O5 2.296968 1_545
Gd1 O17 2.296968 1_555
Gd1 O20 2.301929 1_555
Gd1 O8 2.301929 1_556
Gd2 O1 2.295284 1_455
Gd2 O13 2.295284 1_555
Gd2 O4 2.296968 1_565
Gd2 O16 2.296968 1_555
Gd2 O22 2.301929 1_555
Gd2 O10 2.301929 1_554
Gd3 O12 2.295284 1_555
Gd3 O0 2.295284 1_655
Gd3 O6 2.296968 1_545
Gd3 O18 2.296968 1_555
Gd3 O21 2.301929 1_555
Gd3 O9 2.301929 1_554
O0 W0 1.968710 1_555
O1 W1 1.968710 1_555
O2 W2 1.968710 1_555
O3 W3 1.968710 1_555
O4 W0 1.962569 1_555
O5 W3 1.962569 1_555
O6 W1 1.962569 1_555
O7 W2 1.962569 1_555
O8 W0 1.963359 1_555
O9 W2 1.963359 1_555
O10 W3 1.963359 1_555
O11 W1 1.963359 1_555
O12 W0 1.968710 1_555
O13 W1 1.968710 1_555
O14 W2 1.968710 1_555
O15 W3 1.968710 1_555
O16 W0 1.962569 1_555
O17 W3 1.962569 1_555
O18 W1 1.962569 1_555
O19 W2 1.962569 1_555
O20 W0 1.963359 1_555
O21 W2 1.963359 1_555
O22 W3 1.963359 1_555
O23 W1 1.963359 1_555
