# generated using pymatgen
data_Ca(SO5)2
_symmetry_space_group_name_H-M   'P 1'
_cell_length_a   6.72206024
_cell_length_b   6.72206024
_cell_length_c   16.89209200
_cell_angle_alpha   90.00000000
_cell_angle_beta   90.00000000
_cell_angle_gamma   120.00000234
_symmetry_Int_Tables_number   1
_chemical_formula_structural   Ca(SO5)2
_chemical_formula_sum   'Ca3 S6 O30'
_cell_volume   661.02648337
_cell_formula_units_Z   3
loop_
 _symmetry_equiv_pos_site_id
 _symmetry_equiv_pos_as_xyz
  1  'x, y, z'
loop_
 _atom_site_type_symbol
 _atom_site_label
 _atom_site_symmetry_multiplicity
 _atom_site_fract_x
 _atom_site_fract_y
 _atom_site_fract_z
 _atom_site_occupancy
  Ca  Ca0  1  0.00000000  0.00000000  0.99955600  1
  Ca  Ca1  1  0.00000000  0.00000000  0.33289000  1
  Ca  Ca2  1  0.00000000  0.00000000  0.66622300  1
  S  S0  1  0.60009400  0.69293200  0.50058500  1
  S  S1  1  0.09283800  0.39990600  0.83391900  1
  S  S2  1  0.39990600  0.30706800  0.50058500  1
  S  S3  1  0.30706800  0.90716200  0.16725200  1
  S  S4  1  0.90716200  0.60009400  0.83391900  1
  S  S5  1  0.69293200  0.09283800  0.16725200  1
  O  O0  1  0.33245200  0.57173000  0.83868000  1
  O  O1  1  0.23927900  0.66754800  0.17201300  1
  O  O2  1  0.66754800  0.42827000  0.83868000  1
  O  O3  1  0.42827000  0.76072100  0.50534600  1
  O  O4  1  0.76072100  0.33245200  0.17201300  1
  O  O5  1  0.57173000  0.23927900  0.50534600  1
  O  O6  1  0.49796400  0.68301700  0.00173800  1
  O  O7  1  0.18505400  0.50203600  0.33507200  1
  O  O8  1  0.50203600  0.31698300  0.00173800  1
  O  O9  1  0.31698300  0.81494600  0.66840500  1
  O  O10  1  0.81494600  0.49796400  0.33507200  1
  O  O11  1  0.68301700  0.18505400  0.66840500  1
  O  O12  1  0.99305600  0.24756900  0.90391900  1
  O  O13  1  0.25451300  0.00694400  0.23725300  1
  O  O14  1  0.00694400  0.75243100  0.90391900  1
  O  O15  1  0.75243100  0.74548700  0.57058600  1
  O  O16  1  0.74548700  0.99305600  0.23725300  1
  O  O17  1  0.24756900  0.25451300  0.57058600  1
  O  O18  1  0.02561100  0.26061400  0.76045600  1
  O  O19  1  0.23500300  0.97438900  0.09378900  1
  O  O20  1  0.97438900  0.73938600  0.76045600  1
  O  O21  1  0.73938600  0.76499700  0.42712300  1
  O  O22  1  0.76499700  0.02561100  0.09378900  1
  O  O23  1  0.26061400  0.23500300  0.42712300  1
  O  O24  1  0.49828900  0.81513400  0.67553300  1
  O  O25  1  0.31684500  0.50171100  0.00886700  1
  O  O26  1  0.50171100  0.18486600  0.67553300  1
  O  O27  1  0.18486600  0.68315500  0.34220000  1
  O  O28  1  0.68315500  0.49828900  0.00886700  1
  O  O29  1  0.81513400  0.31684500  0.34220000  1
loop_
_geom_bond_atom_site_label_1
_geom_bond_atom_site_label_2
_geom_bond_distance
_geom_bond_site_symmetry_2
Ca0 O22 2.308867 1_456
Ca0 O19 2.308867 1_546
Ca0 O12 2.336494 1_455
Ca0 O14 2.336494 1_545
Ca0 O6 2.956267 1_446
Ca0 O8 2.956267 1_556
Ca0 O25 2.958375 1_556
Ca0 O28 2.958375 1_446
Ca1 O23 2.308867 1_555
Ca1 O21 2.308867 1_445
Ca1 O13 2.336494 1_555
Ca1 O16 2.336494 1_445
Ca1 O10 2.956266 1_445
Ca1 O7 2.956266 1_555
Ca1 O29 2.958374 1_455
Ca1 O27 2.958374 1_545
Ca2 O18 2.308867 1_555
Ca2 O20 2.308867 1_445
Ca2 O17 2.336494 1_555
Ca2 O15 2.336494 1_445
Ca2 O11 2.956272 1_455
Ca2 O9 2.956272 1_545
Ca2 O26 2.958374 1_555
Ca2 O24 2.958374 1_445
O0 S1 1.440311 1_555
O1 S3 1.440313 1_555
O2 S4 1.440311 1_555
O3 S0 1.440306 1_555
O4 S5 1.440313 1_555
O5 S2 1.440306 1_555
O10 O29 1.224062 1_555
O11 O26 1.224055 1_555
O12 S1 1.486552 1_655
O13 S3 1.486565 1_545
O14 S4 1.486552 1_455
O15 S0 1.486565 1_555
O16 S5 1.486565 1_565
O17 S2 1.486565 1_555
O18 S1 1.482478 1_555
O19 S3 1.482478 1_555
O20 S4 1.482478 1_555
O21 S0 1.482464 1_555
O22 S5 1.482478 1_555
O23 S2 1.482464 1_555
O24 O9 1.224055 1_555
O25 O6 1.224060 1_555
O27 O7 1.224062 1_555
O28 O8 1.224060 1_555
