# generated using pymatgen
data_CoPdN5Cl5O
_symmetry_space_group_name_H-M   'P 1'
_cell_length_a   7.77399725
_cell_length_b   10.82224060
_cell_length_c   16.10668752
_cell_angle_alpha   90.00000000
_cell_angle_beta   81.54869339
_cell_angle_gamma   90.00000000
_symmetry_Int_Tables_number   1
_chemical_formula_structural   CoPdN5Cl5O
_chemical_formula_sum   'Co4 Pd4 N20 Cl20 O4'
_cell_volume   1340.37419660
_cell_formula_units_Z   4
loop_
 _symmetry_equiv_pos_site_id
 _symmetry_equiv_pos_as_xyz
  1  'x, y, z'
loop_
 _atom_site_type_symbol
 _atom_site_label
 _atom_site_symmetry_multiplicity
 _atom_site_fract_x
 _atom_site_fract_y
 _atom_site_fract_z
 _atom_site_occupancy
  Co  Co0  1  0.42109247  0.20202020  0.32193091  1
  Co  Co1  1  0.57890753  0.79797980  0.67806909  1
  Co  Co2  1  0.57890753  0.70202020  0.17806909  1
  Co  Co3  1  0.42109247  0.29797980  0.82193091  1
  Pd  Pd0  1  -0.00000000  0.00000000  0.50000000  1
  Pd  Pd1  1  -0.00000000  0.50000000  -0.00000000  1
  Pd  Pd2  1  -0.00000000  0.00000000  -0.00000000  1
  Pd  Pd3  1  -0.00000000  0.50000000  0.50000000  1
  N  N0  1  0.62105517  0.23137840  0.26509157  1
  N  N1  1  0.37894483  0.76862160  0.73490843  1
  N  N2  1  0.37894483  0.73137840  0.23490843  1
  N  N3  1  0.62105517  0.26862160  0.76509157  1
  N  N4  1  0.37510495  0.30875182  0.42386467  1
  N  N5  1  0.62489505  0.69124818  0.57613533  1
  N  N6  1  0.62489505  0.80875182  0.07613533  1
  N  N7  1  0.37510495  0.19124818  0.92386467  1
  N  N8  1  0.31338601  0.06829728  0.35043840  1
  N  N9  1  0.68661399  0.93170272  0.64956160  1
  N  N10  1  0.68661399  0.56829728  0.14956160  1
  N  N11  1  0.31338601  0.43170272  0.85043840  1
  N  N12  1  0.27277851  0.29035386  0.24287193  1
  N  N13  1  0.72722149  0.70964614  0.75712807  1
  N  N14  1  0.72722149  0.79035386  0.25712807  1
  N  N15  1  0.27277851  0.20964614  0.74287193  1
  N  N16  1  0.19886854  0.31811029  0.19152199  1
  N  N17  1  0.80113146  0.68188971  0.80847801  1
  N  N18  1  0.80113146  0.81811029  0.30847801  1
  N  N19  1  0.19886854  0.18188971  0.69152199  1
  Cl  Cl0  1  0.07282275  0.02167603  0.13313435  1
  Cl  Cl1  1  0.92717725  0.97832397  0.86686565  1
  Cl  Cl2  1  0.92717725  0.52167603  0.36686565  1
  Cl  Cl3  1  0.07282275  0.47832397  0.63313435  1
  Cl  Cl4  1  0.26074135  0.56698667  0.03909749  1
  Cl  Cl5  1  0.73925865  0.43301333  0.96090251  1
  Cl  Cl6  1  0.73925865  0.06698667  0.46090251  1
  Cl  Cl7  1  0.26074135  0.93301333  0.53909749  1
  Cl  Cl8  1  0.44036298  0.45473631  0.39570172  1
  Cl  Cl9  1  0.55963702  0.54526369  0.60429828  1
  Cl  Cl10  1  0.55963702  0.95473631  0.10429828  1
  Cl  Cl11  1  0.44036298  0.04526369  0.89570172  1
  Cl  Cl12  1  0.13017551  0.30876012  0.46092346  1
  Cl  Cl13  1  0.86982449  0.69123988  0.53907654  1
  Cl  Cl14  1  0.86982449  0.80876012  0.03907654  1
  Cl  Cl15  1  0.13017551  0.19123988  0.96092346  1
  Cl  Cl16  1  0.88658356  0.52110387  0.14105488  1
  Cl  Cl17  1  0.11341644  0.47889613  0.85894512  1
  Cl  Cl18  1  0.11341644  0.02110387  0.35894512  1
  Cl  Cl19  1  0.88658356  0.97889613  0.64105488  1
  O  O0  1  0.74258514  0.21073199  0.21531376  1
  O  O1  1  0.25741486  0.78926801  0.78468624  1
  O  O2  1  0.25741486  0.71073199  0.28468624  1
  O  O3  1  0.74258514  0.28926801  0.71531376  1
loop_
_geom_bond_atom_site_label_1
_geom_bond_atom_site_label_2
_geom_bond_distance
_geom_bond_site_symmetry_2
Co0 N8 1.700954 1_555
Co0 N0 1.713844 1_555
Co0 N4 1.996256 1_555
Co0 N12 2.072756 1_555
Co1 N9 1.700954 1_555
Co1 N1 1.713844 1_555
Co1 N5 1.996256 1_555
Co1 N13 2.072756 1_555
Co2 N10 1.700954 1_555
Co2 N2 1.713844 1_555
Co2 N6 1.996256 1_555
Co2 N14 2.072756 1_555
Co3 N11 1.700954 1_555
Co3 N3 1.713844 1_555
Co3 N7 1.996256 1_555
Co3 N15 2.072756 1_555
N0 O0 1.167340 1_555
N1 O1 1.167340 1_555
N2 O2 1.167340 1_555
N3 O3 1.167340 1_555
N12 N16 1.115397 1_555
N13 N17 1.115397 1_555
N14 N18 1.115397 1_555
N15 N19 1.115397 1_555
Cl0 Pd2 2.308811 1_555
Cl1 Pd2 2.308811 1_666
Cl2 Pd3 2.308811 1_655
Cl3 Pd3 2.308811 1_555
Cl4 Pd1 2.325091 1_555
Cl5 Pd1 2.325091 1_656
Cl6 Pd0 2.325091 1_655
Cl7 Pd0 2.325091 1_565
Cl8 N4 1.700444 1_555
Cl9 N5 1.700444 1_555
Cl10 N6 1.700444 1_555
Cl11 N7 1.700444 1_555
Cl12 N4 1.909905 1_555
Cl12 Pd3 2.348713 1_555
Cl13 N5 1.909905 1_555
Cl13 Pd3 2.348713 1_655
Cl14 N6 1.909905 1_555
Cl14 Pd2 2.348713 1_665
Cl15 N7 1.909905 1_555
Cl15 Pd2 2.348713 1_556
Cl16 N10 1.622863 1_555
Cl16 Pd1 2.324307 1_655
Cl17 N11 1.622863 1_555
Cl17 Pd1 2.324307 1_556
Cl18 N8 1.622863 1_555
Cl18 Pd0 2.324307 1_555
Cl19 N9 1.622863 1_555
Cl19 Pd0 2.324307 1_665
