# generated using pymatgen
data_CuSO9
_symmetry_space_group_name_H-M   'P 1'
_cell_length_a   4.59813233
_cell_length_b   5.93885911
_cell_length_c   12.12024408
_cell_angle_alpha   100.27170008
_cell_angle_beta   89.30530843
_cell_angle_gamma   85.31733067
_symmetry_Int_Tables_number   1
_chemical_formula_structural   CuSO9
_chemical_formula_sum   'Cu2 S2 O18'
_cell_volume   324.46383535
_cell_formula_units_Z   2
loop_
 _symmetry_equiv_pos_site_id
 _symmetry_equiv_pos_as_xyz
  1  'x, y, z'
loop_
 _atom_site_type_symbol
 _atom_site_label
 _atom_site_symmetry_multiplicity
 _atom_site_fract_x
 _atom_site_fract_y
 _atom_site_fract_z
 _atom_site_occupancy
  Cu  Cu0  1  0.00000000  0.00000000  0.00000000  1
  Cu  Cu1  1  0.00000000  0.50000000  0.50000000  1
  S  S0  1  0.33029500  0.03671100  0.27743900  1
  S  S1  1  0.66970500  0.96328900  0.72256100  1
  O  O0  1  0.23270700  0.90339100  0.17525900  1
  O  O1  1  0.76729300  0.09660900  0.82474100  1
  O  O2  1  0.14810900  0.24030000  0.32730900  1
  O  O3  1  0.85189100  0.75970000  0.67269100  1
  O  O4  1  0.27054100  0.81275100  0.39083600  1
  O  O5  1  0.72945900  0.18724900  0.60916400  1
  O  O6  1  0.63495400  0.02588800  0.30107100  1
  O  O7  1  0.36504600  0.97411200  0.69892900  1
  O  O8  1  0.68981200  0.76623600  0.01205300  1
  O  O9  1  0.31018800  0.23376400  0.98794700  1
  O  O10  1  0.74402700  0.23046600  0.08710900  1
  O  O11  1  0.25597300  0.76953400  0.91289100  1
  O  O12  1  0.59243500  0.51775100  0.46269500  1
  O  O13  1  0.40756500  0.48224900  0.53730500  1
  O  O14  1  0.01501300  0.75773300  0.41527100  1
  O  O15  1  0.98498700  0.24226700  0.58472900  1
  O  O16  1  0.45631300  0.31910300  0.07537400  1
  O  O17  1  0.54368700  0.68089700  0.92462600  1
loop_
_geom_bond_atom_site_label_1
_geom_bond_atom_site_label_2
_geom_bond_distance
_geom_bond_site_symmetry_2
Cu0 O10 1.888078 1_455
Cu0 O11 1.888078 1_544
Cu0 O9 2.091306 1_554
Cu0 O8 2.091306 1_445
Cu0 O1 2.525033 1_454
Cu0 O0 2.525033 1_545
Cu1 O13 1.932060 1_555
Cu1 O12 1.932060 1_455
Cu1 O15 1.994576 1_455
Cu1 O14 1.994576 1_555
Cu1 O3 2.422005 1_455
Cu1 O2 2.422005 1_555
O0 S0 1.443531 1_565
O1 S1 1.443531 1_545
O2 S0 1.445930 1_555
O3 S1 1.445930 1_555
O4 S0 2.106180 1_565
O5 S1 2.106180 1_545
O6 S0 1.431845 1_555
O7 S1 1.431845 1_555
O10 O16 1.401812 1_555
O11 O17 1.401812 1_555
O12 O13 1.289734 1_555
O14 O4 1.289860 1_555
O15 O5 1.289860 1_555
O16 O9 1.308619 1_554
O17 O8 1.308619 1_556
