# generated using pymatgen
data_K(Cu2Sb)2
_symmetry_space_group_name_H-M   'P 1'
_cell_length_a   9.47024934
_cell_length_b   9.47024934
_cell_length_c   9.47025027
_cell_angle_alpha   26.01638143
_cell_angle_beta   26.01638143
_cell_angle_gamma   26.01637718
_symmetry_Int_Tables_number   1
_chemical_formula_structural   K(Cu2Sb)2
_chemical_formula_sum   'K1 Cu4 Sb2'
_cell_volume   143.94625887
_cell_formula_units_Z   1
loop_
 _symmetry_equiv_pos_site_id
 _symmetry_equiv_pos_as_xyz
  1  'x, y, z'
loop_
 _atom_site_type_symbol
 _atom_site_label
 _atom_site_symmetry_multiplicity
 _atom_site_fract_x
 _atom_site_fract_y
 _atom_site_fract_z
 _atom_site_occupancy
  K  K0  1  -0.00000000  -0.00000000  0.00000000  1
  Cu  Cu0  1  0.85581879  0.85581879  0.85581879  1
  Cu  Cu1  1  0.14418121  0.14418121  0.14418121  1
  Cu  Cu2  1  0.54613276  0.54613276  0.54613276  1
  Cu  Cu3  1  0.45386724  0.45386724  0.45386724  1
  Sb  Sb0  1  0.75866127  0.75866127  0.75866127  1
  Sb  Sb1  1  0.24133873  0.24133873  0.24133873  1
loop_
_geom_bond_atom_site_label_1
_geom_bond_atom_site_label_2
_geom_bond_distance
_geom_bond_site_symmetry_2
K0 Sb1 3.525374 1_455
K0 Sb1 3.525374 1_545
K0 Sb0 3.525374 1_544
K0 Sb0 3.525374 1_454
K0 Sb1 3.525375 1_554
K0 Sb0 3.525375 1_445
Cu0 Cu2 2.545489 1_655
Cu0 Cu2 2.545489 1_565
Cu0 Cu2 2.545490 1_556
Cu0 Sb0 2.665452 1_555
Cu0 Cu1 2.753320 1_566
Cu0 Cu1 2.753320 1_656
Cu0 Cu1 2.753321 1_665
Cu0 Sb1 2.847529 1_566
Cu0 Sb1 2.847529 1_656
Cu0 Sb1 2.847529 1_665
Cu1 Cu3 2.545489 1_455
Cu1 Cu3 2.545489 1_545
Cu1 Cu3 2.545490 1_554
Cu1 Sb1 2.665452 1_555
Cu1 Sb0 2.847529 1_544
Cu1 Sb0 2.847529 1_454
Cu1 Sb0 2.847529 1_445
Cu2 Cu3 2.531243 1_555
Cu2 Sb1 2.582956 1_565
Cu2 Sb1 2.582956 1_655
Cu2 Sb1 2.582957 1_556
Cu3 Sb0 2.582956 1_455
Cu3 Sb0 2.582956 1_545
Cu3 Sb0 2.582957 1_554
