# generated using pymatgen
data_NdNb2CuClO7
_symmetry_space_group_name_H-M   'P 1'
_cell_length_a   3.90664800
_cell_length_b   3.90664800
_cell_length_c   11.81026300
_cell_angle_alpha   90.00000000
_cell_angle_beta   90.00000000
_cell_angle_gamma   90.00000000
_symmetry_Int_Tables_number   1
_chemical_formula_structural   NdNb2CuClO7
_chemical_formula_sum   'Nd1 Nb2 Cu1 Cl1 O7'
_cell_volume   180.24703630
_cell_formula_units_Z   1
loop_
 _symmetry_equiv_pos_site_id
 _symmetry_equiv_pos_as_xyz
  1  'x, y, z'
loop_
 _atom_site_type_symbol
 _atom_site_label
 _atom_site_symmetry_multiplicity
 _atom_site_fract_x
 _atom_site_fract_y
 _atom_site_fract_z
 _atom_site_occupancy
  Nd  Nd0  1  0.50000000  0.50000000  0.00000000  1
  Nb  Nb0  1  0.00000000  0.00000000  0.19217200  1
  Nb  Nb1  1  0.00000000  0.00000000  0.80782800  1
  Cu  Cu0  1  0.00000000  0.00000000  0.50000000  1
  Cl  Cl0  1  0.50000000  0.50000000  0.50000000  1
  O  O0  1  0.00000000  0.50000000  0.15318000  1
  O  O1  1  0.00000000  0.50000000  0.84682000  1
  O  O2  1  0.50000000  0.00000000  0.15318000  1
  O  O3  1  0.50000000  0.00000000  0.84682000  1
  O  O4  1  0.00000000  0.00000000  0.34506000  1
  O  O5  1  0.00000000  0.00000000  0.65494000  1
  O  O6  1  0.00000000  0.00000000  0.00000000  1
loop_
_geom_bond_atom_site_label_1
_geom_bond_atom_site_label_2
_geom_bond_distance
_geom_bond_site_symmetry_2
Nd0 O1 2.662387 1_654
Nd0 O3 2.662387 1_554
Nd0 O1 2.662387 1_554
Nd0 O3 2.662387 1_564
Nd0 O0 2.662387 1_655
Nd0 O2 2.662387 1_555
Nd0 O2 2.662387 1_565
Nd0 O0 2.662387 1_555
Nd0 O6 2.762417 1_555
Nd0 O6 2.762417 1_655
Nd0 O6 2.762417 1_565
Nd0 O6 2.762417 1_665
Nb0 O4 1.805647 1_555
Nb0 O2 2.006873 1_455
Nb0 O0 2.006873 1_545
Nb0 O2 2.006873 1_555
Nb0 O0 2.006873 1_555
Nb0 O6 2.269602 1_555
Nb1 O5 1.805647 1_555
Nb1 O1 2.006873 1_555
Nb1 O1 2.006873 1_545
Nb1 O3 2.006873 1_455
Nb1 O3 2.006873 1_555
Nb1 O6 2.269602 1_556
Cu0 O4 1.829882 1_555
Cu0 O5 1.829882 1_555
Cl0 Cu0 2.762417 1_665
Cl0 Cu0 2.762417 1_655
Cl0 Cu0 2.762417 1_565
Cl0 Cu0 2.762417 1_555
