# generated using pymatgen
data_Li7Mn2(CoO4)3
_symmetry_space_group_name_H-M   'P 1'
_cell_length_a   2.95986300
_cell_length_b   5.05925663
_cell_length_c   14.59774951
_cell_angle_alpha   81.31665770
_cell_angle_beta   85.17727359
_cell_angle_gamma   88.43191156
_symmetry_Int_Tables_number   1
_chemical_formula_structural   Li7Mn2(CoO4)3
_chemical_formula_sum   'Li7 Mn2 Co3 O12'
_cell_volume   215.30247706
_cell_formula_units_Z   1
loop_
 _symmetry_equiv_pos_site_id
 _symmetry_equiv_pos_as_xyz
  1  'x, y, z'
loop_
 _atom_site_type_symbol
 _atom_site_label
 _atom_site_symmetry_multiplicity
 _atom_site_fract_x
 _atom_site_fract_y
 _atom_site_fract_z
 _atom_site_occupancy
  Li  Li0  1  0.08536700  0.41567400  0.83493400  1
  Li  Li1  1  0.75681700  0.73943500  0.49132000  1
  Li  Li2  1  0.40638900  0.08195800  0.17699900  1
  Li  Li3  1  0.58222900  0.92247600  0.83181300  1
  Li  Li4  1  0.26596500  0.25555100  0.48961600  1
  Li  Li5  1  0.90572100  0.58643800  0.17567000  1
  Li  Li6  1  0.33313200  0.66730600  0.33295400  1
  Mn  Mn0  1  0.99626600  0.00015100  0.00276500  1
  Mn  Mn1  1  0.16948500  0.83160300  0.66436300  1
  Co  Co0  1  0.67013400  0.33254900  0.66360900  1
  Co  Co1  1  0.49541800  0.50041300  0.00252900  1
  Co  Co2  1  0.83308100  0.16698500  0.33332800  1
  O  O0  1  0.56866700  0.21925400  0.92337900  1
  O  O1  1  0.20622300  0.54982700  0.58769900  1
  O  O2  1  0.87198000  0.91254500  0.25913400  1
  O  O3  1  0.07610500  0.71188200  0.92625300  1
  O  O4  1  0.69816200  0.00593800  0.59070600  1
  O  O5  1  0.36074400  0.35702200  0.25972800  1
  O  O6  1  0.64046100  0.65398300  0.74021600  1
  O  O7  1  0.30386200  0.97894200  0.40651800  1
  O  O8  1  0.91949000  0.29208000  0.07634700  1
  O  O9  1  0.13126200  0.11453000  0.74138200  1
  O  O10  1  0.79486400  0.42124600  0.40831000  1
  O  O11  1  0.42817600  0.78221100  0.08042800  1
loop_
_geom_bond_atom_site_label_1
_geom_bond_atom_site_label_2
_geom_bond_distance
_geom_bond_site_symmetry_2
Li0 O0 2.087381 1_455
Li0 O0 2.132167 1_555
Li0 O3 2.149038 1_555
Li0 O9 2.188704 1_555
Li0 O6 2.194410 1_455
Li0 O6 2.299552 1_555
Li1 O4 2.118588 1_565
Li1 O1 2.122812 1_655
Li1 O7 2.129645 1_555
Li1 O10 2.151426 1_555
Li1 O1 2.201819 1_555
Li1 O7 2.222585 1_655
Li2 O5 1.970538 1_555
Li2 O2 1.993540 1_545
Li2 O2 2.029587 1_445
Li2 O8 2.199301 1_555
Li2 O11 2.217229 1_545
Li2 O8 2.272976 1_455
Li3 O6 2.039513 1_555
Li3 O9 2.075195 1_565
Li3 O3 2.139278 1_555
Li3 O0 2.153223 1_565
Li3 O9 2.160087 1_665
Li3 O3 2.232203 1_655
Li4 O7 1.980804 1_545
Li4 O10 1.992397 1_455
Li4 O10 2.005268 1_555
Li4 O1 2.210101 1_555
Li4 O4 2.252826 1_555
Li4 O4 2.394447 1_455
Li5 O5 2.104521 1_655
Li5 O11 2.147525 1_655
Li5 O11 2.179430 1_555
Li5 O2 2.189511 1_555
Li5 O5 2.189613 1_555
Li5 O8 2.227190 1_555
Li6 O5 2.024489 1_555
Li6 O7 2.033378 1_555
Li6 O2 2.077173 1_455
Li6 O10 2.091350 1_555
Li6 O2 2.158703 1_555
Li6 O10 2.167590 1_455
Mn0 O8 1.950992 1_555
Mn0 O3 1.964416 1_644
Mn0 O11 1.981021 1_645
Mn0 O0 1.988845 1_554
Mn0 O11 2.175286 1_545
Mn0 O0 2.197021 1_654
Mn1 O1 1.936313 1_555
Mn1 O4 1.943898 1_465
Mn1 O9 1.944594 1_565
Mn1 O6 1.966583 1_555
Mn1 O4 1.972043 1_565
Mn1 O6 1.992606 1_455
Co0 O1 2.031544 1_555
Co0 O9 2.041690 1_655
Co0 O4 2.092495 1_555
Co0 O1 2.094298 1_655
Co0 O6 2.104198 1_555
Co0 O9 2.112639 1_555
Co1 O8 1.913035 1_555
Co1 O3 1.929966 1_554
Co1 O11 1.949679 1_555
Co1 O0 1.960260 1_554
Co1 O8 2.150470 1_455
Co1 O3 2.181213 1_654
Co2 O2 1.798685 1_545
Co2 O10 1.806099 1_555
Co2 O7 1.964470 1_645
Co2 O5 1.974931 1_555
Co2 O7 1.998370 1_545
Co2 O5 2.001520 1_655
