# generated using pymatgen
data_LiCo3NiO8
_symmetry_space_group_name_H-M   'P 1'
_cell_length_a   5.68543314
_cell_length_b   9.87016092
_cell_length_c   6.01349759
_cell_angle_alpha   106.33247189
_cell_angle_beta   118.18180648
_cell_angle_gamma   89.63934089
_symmetry_Int_Tables_number   1
_chemical_formula_structural   LiCo3NiO8
_chemical_formula_sum   'Li2 Co6 Ni2 O16'
_cell_volume   282.23629547
_cell_formula_units_Z   2
loop_
 _symmetry_equiv_pos_site_id
 _symmetry_equiv_pos_as_xyz
  1  'x, y, z'
loop_
 _atom_site_type_symbol
 _atom_site_label
 _atom_site_symmetry_multiplicity
 _atom_site_fract_x
 _atom_site_fract_y
 _atom_site_fract_z
 _atom_site_occupancy
  Li  Li0  1  0.75500900  0.25202600  0.50272200  1
  Li  Li1  1  0.24497200  0.74799200  0.49651800  1
  Co  Co0  1  0.74584500  0.25144200  0.01047200  1
  Co  Co1  1  0.25422900  0.74861300  0.98962700  1
  Co  Co2  1  0.50022300  0.99982400  0.99940600  1
  Co  Co3  1  0.99972300  0.50012000  0.00054300  1
  Co  Co4  1  0.24232300  0.25028300  0.00333000  1
  Co  Co5  1  0.75766800  0.74962500  0.99647300  1
  Ni  Ni0  1  0.49988300  0.50018400  0.00096200  1
  Ni  Ni1  1  0.00007300  0.99990400  0.99942000  1
  O  O0  1  0.09232200  0.36617900  0.19552400  1
  O  O1  1  0.59956800  0.86335200  0.18389600  1
  O  O2  1  0.90746900  0.63363100  0.80497700  1
  O  O3  1  0.40098800  0.13671800  0.81551400  1
  O  O4  1  0.34606000  0.11403100  0.19057000  1
  O  O5  1  0.87194700  0.62454100  0.19799700  1
  O  O6  1  0.82687500  0.12543300  0.20736200  1
  O  O7  1  0.33933900  0.61744500  0.18575300  1
  O  O8  1  0.58789300  0.36179800  0.19775000  1
  O  O9  1  0.10376000  0.86007500  0.18536700  1
  O  O10  1  0.41195700  0.63796800  0.80322700  1
  O  O11  1  0.89636700  0.14006000  0.81397000  1
  O  O12  1  0.17373300  0.87411300  0.79177400  1
  O  O13  1  0.65994700  0.38316800  0.81554200  1
  O  O14  1  0.65425900  0.88545400  0.80823400  1
  O  O15  1  0.12756900  0.37601900  0.80306900  1
loop_
_geom_bond_atom_site_label_1
_geom_bond_atom_site_label_2
_geom_bond_distance
_geom_bond_site_symmetry_2
Li0 O6 2.076955 1_555
Li0 O15 2.102960 1_655
Li0 O8 2.213311 1_555
Li0 O13 2.255726 1_555
Li0 O11 2.258707 1_555
Li0 O4 2.294374 1_555
Li1 O12 2.072668 1_555
Li1 O5 2.100329 1_455
Li1 O10 2.223060 1_555
Li1 O7 2.241546 1_555
Li1 O9 2.259105 1_555
Li1 O14 2.293194 1_555
Co0 O6 1.861917 1_555
Co0 O8 1.874627 1_555
Co0 O11 1.884139 1_554
Co0 O3 1.900270 1_554
Co0 O13 1.900378 1_554
Co0 O0 1.910502 1_655
Co1 O12 1.861956 1_555
Co1 O10 1.871335 1_555
Co1 O9 1.881132 1_556
Co1 O7 1.900813 1_556
Co1 O1 1.902537 1_556
Co1 O2 1.912953 1_455
Co2 O12 1.874213 1_555
Co2 O6 1.874381 1_566
Co2 O4 1.889668 1_566
Co2 O14 1.889841 1_555
Co2 O1 1.898235 1_556
Co2 O3 1.899548 1_565
Co3 O15 1.850640 1_654
Co3 O5 1.851802 1_555
Co3 O13 1.891506 1_554
Co3 O7 1.892408 1_655
Co3 O2 1.917024 1_554
Co3 O0 1.918250 1_655
Co4 O15 1.871987 1_554
Co4 O0 1.883283 1_555
Co4 O11 1.887758 1_454
Co4 O8 1.890056 1_555
Co4 O3 1.892981 1_554
Co4 O4 1.907516 1_555
Co5 O5 1.871539 1_556
Co5 O2 1.880109 1_555
Co5 O9 1.889419 1_656
Co5 O1 1.889687 1_556
Co5 O10 1.891511 1_555
Co5 O14 1.907713 1_555
Ni0 O13 1.904283 1_554
Ni0 O7 1.904975 1_555
Ni0 O10 1.962841 1_554
Ni0 O8 1.964082 1_555
Ni0 O15 2.057156 1_554
Ni0 O5 2.057304 1_555
Ni1 O4 1.903563 1_566
Ni1 O14 1.904181 1_455
Ni1 O9 1.933322 1_556
Ni1 O11 1.934253 1_465
Ni1 O6 2.084398 1_466
Ni1 O12 2.086302 1_555
