# generated using pymatgen
data_HfUC2
_symmetry_space_group_name_H-M   'P 1'
_cell_length_a   5.95908567
_cell_length_b   5.95908567
_cell_length_c   5.95908631
_cell_angle_alpha   32.65931618
_cell_angle_beta   32.65931618
_cell_angle_gamma   32.65932053
_symmetry_Int_Tables_number   1
_chemical_formula_structural   HfUC2
_chemical_formula_sum   'Hf1 U1 C2'
_cell_volume   54.81014708
_cell_formula_units_Z   1
loop_
 _symmetry_equiv_pos_site_id
 _symmetry_equiv_pos_as_xyz
  1  'x, y, z'
loop_
 _atom_site_type_symbol
 _atom_site_label
 _atom_site_symmetry_multiplicity
 _atom_site_fract_x
 _atom_site_fract_y
 _atom_site_fract_z
 _atom_site_occupancy
  Hf  Hf0  1  -0.00000000  -0.00000000  0.00000000  1
  U  U0  1  0.50000000  0.50000000  0.50000000  1
  C  C0  1  0.25338134  0.25338134  0.25338134  1
  C  C1  1  0.74661866  0.74661866  0.74661866  1
loop_
_geom_bond_atom_site_label_1
_geom_bond_atom_site_label_2
_geom_bond_distance
_geom_bond_site_symmetry_2
C0 Hf0 2.360210 1_655
C0 Hf0 2.360210 1_565
C0 Hf0 2.360211 1_556
C0 U0 2.427518 1_455
C0 U0 2.427518 1_545
C0 U0 2.427519 1_554
C1 Hf0 2.360210 1_656
C1 Hf0 2.360210 1_566
C1 Hf0 2.360211 1_665
C1 U0 2.427518 1_565
C1 U0 2.427518 1_655
C1 U0 2.427519 1_556
