# generated using pymatgen
data_Ba2TmCl7
_symmetry_space_group_name_H-M   'P 1'
_cell_length_a   15.56039835
_cell_length_b   6.83546164
_cell_length_c   10.55422492
_cell_angle_alpha   89.45767214
_cell_angle_beta   90.00000000
_cell_angle_gamma   90.00000000
_symmetry_Int_Tables_number   1
_chemical_formula_structural   Ba2TmCl7
_chemical_formula_sum   'Ba8 Tm4 Cl28'
_cell_volume   1122.52352412
_cell_formula_units_Z   4
loop_
 _symmetry_equiv_pos_site_id
 _symmetry_equiv_pos_as_xyz
  1  'x, y, z'
loop_
 _atom_site_type_symbol
 _atom_site_label
 _atom_site_symmetry_multiplicity
 _atom_site_fract_x
 _atom_site_fract_y
 _atom_site_fract_z
 _atom_site_occupancy
  Ba  Ba0  1  0.27997295  0.23514701  0.54858280  1
  Ba  Ba1  1  0.72002705  0.76485299  0.45141720  1
  Ba  Ba2  1  0.77997295  0.76485299  0.95141720  1
  Ba  Ba3  1  0.22002705  0.23514701  0.04858280  1
  Ba  Ba4  1  0.43935962  0.76506919  0.82354548  1
  Ba  Ba5  1  0.56064038  0.23493081  0.17645452  1
  Ba  Ba6  1  0.93935962  0.23493081  0.67645452  1
  Ba  Ba7  1  0.06064038  0.76506919  0.32354548  1
  Tm  Tm0  1  0.12707614  0.71609024  0.78187519  1
  Tm  Tm1  1  0.87292386  0.28390976  0.21812481  1
  Tm  Tm2  1  0.62707614  0.28390976  0.71812481  1
  Tm  Tm3  1  0.37292386  0.71609024  0.28187519  1
  Cl  Cl0  1  0.07071794  0.37464931  0.87622514  1
  Cl  Cl1  1  0.92928206  0.62535069  0.12377486  1
  Cl  Cl2  1  0.57071794  0.62535069  0.62377486  1
  Cl  Cl3  1  0.42928206  0.37464931  0.37622514  1
  Cl  Cl4  1  0.10524256  0.98508230  0.58716532  1
  Cl  Cl5  1  0.89475744  0.01491770  0.41283468  1
  Cl  Cl6  1  0.60524256  0.01491770  0.91283468  1
  Cl  Cl7  1  0.39475744  0.98508230  0.08716532  1
  Cl  Cl8  1  0.96127968  0.79398142  0.78777951  1
  Cl  Cl9  1  0.03872032  0.20601858  0.21222049  1
  Cl  Cl10  1  0.46127968  0.20601858  0.71222049  1
  Cl  Cl11  1  0.53872032  0.79398142  0.28777951  1
  Cl  Cl12  1  0.36118635  0.79105422  0.52579514  1
  Cl  Cl13  1  0.63881365  0.20894578  0.47420486  1
  Cl  Cl14  1  0.86118635  0.20894578  0.97420486  1
  Cl  Cl15  1  0.13881365  0.79105422  0.02579514  1
  Cl  Cl16  1  0.25673281  0.98661572  0.80107803  1
  Cl  Cl17  1  0.74326719  0.01338428  0.19892197  1
  Cl  Cl18  1  0.75673281  0.01338428  0.69892197  1
  Cl  Cl19  1  0.24326719  0.98661572  0.30107803  1
  Cl  Cl20  1  0.27132468  0.50217404  0.79456930  1
  Cl  Cl21  1  0.72867532  0.49782596  0.20543070  1
  Cl  Cl22  1  0.77132468  0.49782596  0.70543070  1
  Cl  Cl23  1  0.22867532  0.50217404  0.29456930  1
  Cl  Cl24  1  0.10463399  0.50081140  0.57251548  1
  Cl  Cl25  1  0.89536601  0.49918860  0.42748452  1
  Cl  Cl26  1  0.60463399  0.49918860  0.92748452  1
  Cl  Cl27  1  0.39536601  0.50081140  0.07251548  1
loop_
_geom_bond_atom_site_label_1
_geom_bond_atom_site_label_2
_geom_bond_distance
_geom_bond_site_symmetry_2
Ba0 Cl3 3.095697 1_555
Ba0 Cl16 3.167448 1_545
Ba0 Cl19 3.181185 1_545
Ba0 Cl20 3.190549 1_555
Ba0 Cl4 3.235221 1_545
Ba0 Cl24 3.288462 1_555
Ba0 Cl12 3.298996 1_545
Ba0 Cl10 3.312869 1_555
Ba0 Cl23 3.326164 1_555
Ba1 Cl2 3.095697 1_555
Ba1 Cl17 3.167448 1_565
Ba1 Cl18 3.181185 1_565
Ba1 Cl21 3.190549 1_555
Ba1 Cl5 3.235221 1_565
Ba1 Cl25 3.288462 1_555
Ba1 Cl13 3.298996 1_565
Ba1 Cl11 3.312869 1_555
Ba1 Cl22 3.326164 1_555
Ba2 Cl1 3.095697 1_556
Ba2 Cl18 3.167448 1_565
Ba2 Cl17 3.181185 1_566
Ba2 Cl22 3.190549 1_555
Ba2 Cl6 3.235221 1_565
Ba2 Cl26 3.288462 1_555
Ba2 Cl14 3.298996 1_565
Ba2 Cl8 3.312869 1_555
Ba2 Cl21 3.326164 1_556
Ba3 Cl0 3.095697 1_554
Ba3 Cl19 3.167448 1_545
Ba3 Cl16 3.181185 1_544
Ba3 Cl23 3.190549 1_555
Ba3 Cl7 3.235221 1_545
Ba3 Cl27 3.288462 1_555
Ba3 Cl15 3.298996 1_545
Ba3 Cl9 3.312869 1_555
Ba3 Cl20 3.326164 1_554
Ba4 Cl2 3.094117 1_555
Ba4 Cl20 3.189009 1_555
Ba4 Cl16 3.227735 1_555
Ba4 Cl6 3.240038 1_565
Ba4 Cl10 3.242616 1_565
Ba4 Cl27 3.247507 1_556
Ba4 Cl7 3.250198 1_556
Ba4 Cl26 3.329036 1_555
Ba4 Cl12 3.372845 1_555
Ba5 Cl3 3.094117 1_555
Ba5 Cl21 3.189009 1_555
Ba5 Cl17 3.227735 1_555
Ba5 Cl7 3.240038 1_545
Ba5 Cl11 3.242616 1_545
Ba5 Cl26 3.247507 1_554
Ba5 Cl6 3.250198 1_554
Ba5 Cl27 3.329036 1_555
Ba5 Cl13 3.372845 1_555
Ba6 Cl0 3.094117 1_655
Ba6 Cl22 3.189009 1_555
Ba6 Cl18 3.227735 1_555
Ba6 Cl4 3.240038 1_645
Ba6 Cl8 3.242616 1_545
Ba6 Cl25 3.247507 1_555
Ba6 Cl5 3.250198 1_555
Ba6 Cl24 3.329036 1_655
Ba6 Cl14 3.372845 1_555
Ba7 Cl1 3.094117 1_455
Ba7 Cl23 3.189009 1_555
Ba7 Cl19 3.227735 1_555
Ba7 Cl5 3.240038 1_465
Ba7 Cl9 3.242616 1_565
Ba7 Cl24 3.247507 1_555
Ba7 Cl4 3.250198 1_555
Ba7 Cl25 3.329036 1_455
Ba7 Cl15 3.372845 1_555
Cl0 Tm0 2.676523 1_555
Cl1 Tm1 2.676523 1_555
Cl2 Tm2 2.676523 1_555
Cl3 Tm3 2.676523 1_555
Cl4 Tm0 2.765453 1_555
Cl5 Tm1 2.765453 1_555
Cl6 Tm2 2.765453 1_555
Cl7 Tm3 2.765453 1_555
Cl8 Tm0 2.635082 1_655
Cl9 Tm1 2.635082 1_455
Cl10 Tm2 2.635082 1_555
Cl11 Tm3 2.635082 1_555
Cl12 Tm3 2.635974 1_555
Cl13 Tm2 2.635974 1_555
Cl14 Tm1 2.635974 1_556
Cl15 Tm0 2.635974 1_554
Cl16 Tm0 2.745529 1_555
Cl17 Tm1 2.745529 1_555
Cl18 Tm2 2.745529 1_555
Cl19 Tm3 2.745529 1_555
Cl20 Tm0 2.681490 1_555
Cl21 Tm1 2.681490 1_555
Cl22 Tm2 2.681490 1_555
Cl23 Tm3 2.681490 1_555
Cl24 Tm0 2.689120 1_555
Cl25 Tm1 2.689120 1_555
Cl26 Tm2 2.689120 1_555
Cl27 Tm3 2.689120 1_555
