# generated using pymatgen
data_Ba3CaBi2O9
_symmetry_space_group_name_H-M   'P 1'
_cell_length_a   10.69435167
_cell_length_b   10.69435167
_cell_length_c   10.69435167
_cell_angle_alpha   146.47759983
_cell_angle_beta   131.95212519
_cell_angle_gamma   59.85570727
_symmetry_Int_Tables_number   1
_chemical_formula_structural   Ba3CaBi2O9
_chemical_formula_sum   'Ba6 Ca2 Bi4 O18'
_cell_volume   497.80608829
_cell_formula_units_Z   2
loop_
 _symmetry_equiv_pos_site_id
 _symmetry_equiv_pos_as_xyz
  1  'x, y, z'
loop_
 _atom_site_type_symbol
 _atom_site_label
 _atom_site_symmetry_multiplicity
 _atom_site_fract_x
 _atom_site_fract_y
 _atom_site_fract_z
 _atom_site_occupancy
  Ba  Ba0  1  0.75824000  0.50000000  0.25824000  1
  Ba  Ba1  1  0.41685800  0.16957800  0.24727900  1
  Ba  Ba2  1  0.07770100  0.83042200  0.24727900  1
  Ba  Ba3  1  0.24176000  0.50000000  0.74176000  1
  Ba  Ba4  1  0.92229900  0.16957800  0.75272100  1
  Ba  Ba5  1  0.58314200  0.83042200  0.75272100  1
  Ca  Ca0  1  0.16600200  0.66600200  0.50000000  1
  Ca  Ca1  1  0.83399800  0.33399800  0.50000000  1
  Bi  Bi0  1  0.00000000  0.00000000  0.00000000  1
  Bi  Bi1  1  0.66757800  0.66757800  0.00000000  1
  Bi  Bi2  1  0.33242200  0.33242200  0.00000000  1
  Bi  Bi3  1  0.50000000  0.00000000  0.50000000  1
  O  O0  1  0.74469100  0.00000000  0.74469100  1
  O  O1  1  0.42262700  0.66102100  0.76160600  1
  O  O2  1  0.10058500  0.33897900  0.76160600  1
  O  O3  1  0.58106800  0.83403200  0.25296400  1
  O  O4  1  0.25427800  0.49954800  0.24527100  1
  O  O5  1  0.92063900  0.16039500  0.23975600  1
  O  O6  1  0.41893200  0.67189600  0.25296400  1
  O  O7  1  0.07936100  0.31911700  0.23975600  1
  O  O8  1  0.74572200  0.99099300  0.24527100  1
  O  O9  1  0.25530900  0.00000000  0.25530900  1
  O  O10  1  0.89941500  0.66102100  0.23839400  1
  O  O11  1  0.57737300  0.33897900  0.23839400  1
  O  O12  1  0.41893200  0.16596800  0.74703600  1
  O  O13  1  0.07936100  0.83960500  0.76024400  1
  O  O14  1  0.74572200  0.50045200  0.75472900  1
  O  O15  1  0.58106800  0.32810400  0.74703600  1
  O  O16  1  0.25427800  0.00900700  0.75472900  1
  O  O17  1  0.92063900  0.68088300  0.76024400  1
loop_
_geom_bond_atom_site_label_1
_geom_bond_atom_site_label_2
_geom_bond_distance
_geom_bond_site_symmetry_2
Ba0 O10 2.989782 1_555
Ba0 O11 2.989782 1_555
Ba0 O5 3.028633 1_555
Ba0 O13 3.028633 1_655
Ba0 O17 3.028633 1_555
Ba0 O7 3.028633 1_655
Ba0 O0 3.086330 1_554
Ba0 O0 3.086330 1_565
Ba0 O3 3.122397 1_555
Ba0 O15 3.122397 1_554
Ba0 O12 3.122397 1_554
Ba0 O6 3.122397 1_555
Ba1 O8 3.050178 1_545
Ba1 O14 3.050184 1_555
Ba1 O4 3.064345 1_555
Ba1 O16 3.064351 1_554
Ba1 O1 3.090666 1_544
Ba1 O1 3.090673 1_555
Ba1 O13 3.101633 1_544
Ba1 O7 3.101636 1_555
Ba1 O3 3.139491 1_545
Ba1 O15 3.139494 1_555
Ba1 O11 3.141064 1_555
Ba1 O9 3.144188 1_555
Ba2 O16 3.050187 1_565
Ba2 O4 3.050196 1_555
Ba2 O14 3.064351 1_454
Ba2 O8 3.064355 1_455
Ba2 O2 3.090669 1_554
Ba2 O2 3.090669 1_565
Ba2 O17 3.101626 1_454
Ba2 O5 3.101626 1_465
Ba2 O6 3.139491 1_555
Ba2 O12 3.139491 1_565
Ba2 O10 3.141074 1_455
Ba2 O9 3.144179 1_565
Ba3 O1 2.989782 1_555
Ba3 O2 2.989782 1_555
Ba3 O5 3.028633 1_455
Ba3 O7 3.028633 1_555
Ba3 O17 3.028633 1_455
Ba3 O13 3.028633 1_555
Ba3 O9 3.086330 1_555
Ba3 O9 3.086330 1_566
Ba3 O6 3.122397 1_556
Ba3 O3 3.122397 1_556
Ba3 O15 3.122397 1_555
Ba3 O12 3.122397 1_555
Ba4 O8 3.050187 1_545
Ba4 O14 3.050196 1_555
Ba4 O4 3.064351 1_656
Ba4 O16 3.064355 1_655
Ba4 O10 3.090669 1_545
Ba4 O10 3.090669 1_556
Ba4 O13 3.101626 1_645
Ba4 O7 3.101626 1_656
Ba4 O15 3.139491 1_555
Ba4 O3 3.139491 1_545
Ba4 O2 3.141074 1_655
Ba4 O0 3.144179 1_555
Ba5 O16 3.050178 1_565
Ba5 O4 3.050184 1_555
Ba5 O14 3.064345 1_555
Ba5 O8 3.064351 1_556
Ba5 O11 3.090666 1_566
Ba5 O11 3.090673 1_555
Ba5 O5 3.101633 1_566
Ba5 O17 3.101636 1_555
Ba5 O12 3.139491 1_565
Ba5 O6 3.139494 1_555
Ba5 O1 3.141064 1_555
Ba5 O0 3.144188 1_565
Ca0 O4 2.268539 1_555
Ca0 O16 2.268544 1_565
Ca0 O7 2.270700 1_555
Ca0 O13 2.270700 1_555
Ca0 O1 2.279865 1_555
Ca0 O10 2.279865 1_455
Ca1 O14 2.268539 1_555
Ca1 O8 2.268544 1_545
Ca1 O17 2.270700 1_555
Ca1 O5 2.270700 1_555
Ca1 O11 2.279865 1_555
Ca1 O2 2.279865 1_655
Bi0 O13 2.085926 1_544
Bi0 O5 2.085926 1_455
Bi0 O7 2.085926 1_555
Bi0 O17 2.085926 1_444
Bi0 O9 2.223162 1_555
Bi0 O0 2.223162 1_454
Bi1 O10 2.079426 1_555
Bi1 O1 2.079426 1_554
Bi1 O8 2.094515 1_555
Bi1 O14 2.094519 1_554
Bi1 O3 2.237440 1_555
Bi1 O15 2.237440 1_554
Bi2 O2 2.079426 1_554
Bi2 O11 2.079426 1_555
Bi2 O16 2.094515 1_554
Bi2 O4 2.094519 1_555
Bi2 O12 2.237440 1_554
Bi2 O6 2.237440 1_555
Bi3 O9 2.130704 1_555
Bi3 O0 2.130704 1_555
Bi3 O6 2.140097 1_545
Bi3 O12 2.140097 1_555
Bi3 O3 2.140097 1_545
Bi3 O15 2.140097 1_555
