# generated using pymatgen
data_KIn(TeO3)2
_symmetry_space_group_name_H-M   'P 1'
_cell_length_a   5.93776600
_cell_length_b   8.45691100
_cell_length_c   13.61080800
_cell_angle_alpha   90.00000000
_cell_angle_beta   90.00000000
_cell_angle_gamma   90.00000000
_symmetry_Int_Tables_number   1
_chemical_formula_structural   KIn(TeO3)2
_chemical_formula_sum   'K4 In4 Te8 O24'
_cell_volume   683.46888241
_cell_formula_units_Z   4
loop_
 _symmetry_equiv_pos_site_id
 _symmetry_equiv_pos_as_xyz
  1  'x, y, z'
loop_
 _atom_site_type_symbol
 _atom_site_label
 _atom_site_symmetry_multiplicity
 _atom_site_fract_x
 _atom_site_fract_y
 _atom_site_fract_z
 _atom_site_occupancy
  K  K0  1  0.25000000  0.00422500  0.62984100  1
  K  K1  1  0.25000000  0.49577500  0.12984100  1
  K  K2  1  0.75000000  0.99577500  0.37015900  1
  K  K3  1  0.75000000  0.50422500  0.87015900  1
  In  In0  1  0.25000000  0.78900500  0.90645800  1
  In  In1  1  0.25000000  0.71099500  0.40645800  1
  In  In2  1  0.75000000  0.21099500  0.09354200  1
  In  In3  1  0.75000000  0.28900500  0.59354200  1
  Te  Te0  1  0.75000000  0.01028600  0.80286100  1
  Te  Te1  1  0.75000000  0.48971400  0.30286100  1
  Te  Te2  1  0.25000000  0.98971400  0.19713900  1
  Te  Te3  1  0.25000000  0.51028600  0.69713900  1
  Te  Te4  1  0.75000000  0.71292700  0.57384100  1
  Te  Te5  1  0.75000000  0.78707300  0.07384100  1
  Te  Te6  1  0.25000000  0.28707300  0.42615900  1
  Te  Te7  1  0.25000000  0.21292700  0.92615900  1
  O  O0  1  0.99468500  0.86635200  0.79783700  1
  O  O1  1  0.50531500  0.63364800  0.29783700  1
  O  O2  1  0.49468500  0.13364800  0.20216300  1
  O  O3  1  0.00531500  0.36635200  0.70216300  1
  O  O4  1  0.00531500  0.13364800  0.20216300  1
  O  O5  1  0.49468500  0.36635200  0.70216300  1
  O  O6  1  0.50531500  0.86635200  0.79783700  1
  O  O7  1  0.99468500  0.63364800  0.29783700  1
  O  O8  1  0.75000000  0.05299100  0.66473300  1
  O  O9  1  0.75000000  0.44700900  0.16473300  1
  O  O10  1  0.25000000  0.94700900  0.33526700  1
  O  O11  1  0.25000000  0.55299100  0.83526700  1
  O  O12  1  0.99300100  0.80607100  0.50561600  1
  O  O13  1  0.50699900  0.69392900  0.00561600  1
  O  O14  1  0.49300100  0.19392900  0.49438400  1
  O  O15  1  0.00699900  0.30607100  0.99438400  1
  O  O16  1  0.00699900  0.19392900  0.49438400  1
  O  O17  1  0.49300100  0.30607100  0.99438400  1
  O  O18  1  0.50699900  0.80607100  0.50561600  1
  O  O19  1  0.99300100  0.69392900  0.00561600  1
  O  O20  1  0.75000000  0.51135100  0.51255500  1
  O  O21  1  0.75000000  0.98864900  0.01255500  1
  O  O22  1  0.25000000  0.48864900  0.48744500  1
  O  O23  1  0.25000000  0.01135100  0.98744500  1
loop_
_geom_bond_atom_site_label_1
_geom_bond_atom_site_label_2
_geom_bond_distance
_geom_bond_site_symmetry_2
K0 O18 2.827666 1_545
K0 O12 2.827666 1_445
K0 O14 2.838111 1_555
K0 O16 2.838111 1_555
K0 O6 2.980961 1_545
K0 O0 2.980961 1_445
K0 O8 3.034779 1_555
K0 O8 3.034779 1_455
K1 O13 2.827666 1_555
K1 O19 2.827666 1_455
K1 O17 2.838111 1_554
K1 O15 2.838111 1_554
K1 O1 2.980961 1_555
K1 O7 2.980961 1_455
K1 O9 3.034779 1_455
K1 O9 3.034779 1_555
K2 O16 2.827666 1_665
K2 O14 2.827666 1_565
K2 O12 2.838111 1_555
K2 O18 2.838111 1_555
K2 O4 2.980961 1_665
K2 O2 2.980961 1_565
K2 O10 3.034779 1_655
K2 O10 3.034779 1_555
K3 O15 2.827666 1_655
K3 O17 2.827666 1_555
K3 O19 2.838111 1_556
K3 O13 2.838111 1_556
K3 O3 2.980961 1_655
K3 O5 2.980961 1_555
K3 O11 3.034779 1_555
K3 O11 3.034779 1_655
In0 O23 2.179637 1_565
In0 O13 2.190125 1_556
In0 O19 2.190125 1_456
In0 O6 2.216270 1_555
In0 O0 2.216270 1_455
In0 O11 2.218718 1_555
In1 O22 2.179637 1_555
In1 O18 2.190125 1_555
In1 O12 2.190125 1_455
In1 O1 2.216270 1_555
In1 O7 2.216270 1_455
In1 O10 2.218718 1_555
In2 O21 2.179637 1_545
In2 O15 2.190125 1_654
In2 O17 2.190125 1_554
In2 O4 2.216270 1_655
In2 O2 2.216270 1_555
In2 O9 2.218718 1_555
In3 O20 2.179637 1_555
In3 O16 2.190125 1_655
In3 O14 2.190125 1_555
In3 O3 2.216270 1_655
In3 O5 2.216270 1_555
In3 O8 2.218718 1_555
O0 Te0 1.896631 1_565
O1 Te1 1.896631 1_555
O2 Te2 1.896631 1_545
O3 Te3 1.896631 1_555
O4 Te2 1.896631 1_545
O5 Te3 1.896631 1_555
O6 Te0 1.896631 1_565
O7 Te1 1.896631 1_555
O8 Te0 1.914408 1_555
O9 Te1 1.914408 1_555
O10 Te2 1.914408 1_555
O11 Te3 1.914408 1_555
O12 Te4 1.888039 1_555
O13 Te5 1.888039 1_555
O14 Te6 1.888039 1_555
O15 Te7 1.888039 1_555
O16 Te6 1.888039 1_555
O17 Te7 1.888039 1_555
O18 Te4 1.888039 1_555
O19 Te5 1.888039 1_555
O20 Te4 1.897853 1_555
O21 Te5 1.897853 1_555
O22 Te6 1.897853 1_555
O23 Te7 1.897853 1_555
