# generated using pymatgen
data_HfMg14BO16
_symmetry_space_group_name_H-M   'P 1'
_cell_length_a   8.66945601
_cell_length_b   8.71758111
_cell_length_c   4.27773526
_cell_angle_alpha   90.00000000
_cell_angle_beta   90.00000000
_cell_angle_gamma   90.00000000
_symmetry_Int_Tables_number   1
_chemical_formula_structural   HfMg14BO16
_chemical_formula_sum   'Hf1 Mg14 B1 O16'
_cell_volume   323.29705431
_cell_formula_units_Z   1
loop_
 _symmetry_equiv_pos_site_id
 _symmetry_equiv_pos_as_xyz
  1  'x, y, z'
loop_
 _atom_site_type_symbol
 _atom_site_label
 _atom_site_symmetry_multiplicity
 _atom_site_fract_x
 _atom_site_fract_y
 _atom_site_fract_z
 _atom_site_occupancy
  Hf  Hf0  1  0.00000000  0.50000000  -0.00000000  1
  Mg  Mg0  1  0.50000000  -0.00000000  -0.00000000  1
  Mg  Mg1  1  0.50000000  0.50000000  -0.00000000  1
  Mg  Mg2  1  0.00000000  0.23290441  0.50000000  1
  Mg  Mg3  1  0.00000000  0.76709559  0.50000000  1
  Mg  Mg4  1  0.50000000  0.24697868  0.50000000  1
  Mg  Mg5  1  0.50000000  0.75302132  0.50000000  1
  Mg  Mg6  1  0.24839087  -0.00000000  0.50000000  1
  Mg  Mg7  1  0.25775064  0.50000000  0.50000000  1
  Mg  Mg8  1  0.75160913  -0.00000000  0.50000000  1
  Mg  Mg9  1  0.74224936  0.50000000  0.50000000  1
  Mg  Mg10  1  0.25436379  0.23994468  -0.00000000  1
  Mg  Mg11  1  0.25436379  0.76005532  -0.00000000  1
  Mg  Mg12  1  0.74563621  0.23994468  -0.00000000  1
  Mg  Mg13  1  0.74563621  0.76005532  0.00000000  1
  B  B0  1  0.00000000  -0.00000000  -0.00000000  1
  O  O0  1  0.26699339  -0.00000000  -0.00000000  1
  O  O1  1  0.25420947  0.50000000  0.00000000  1
  O  O2  1  0.73300661  -0.00000000  0.00000000  1
  O  O3  1  0.74579053  0.50000000  0.00000000  1
  O  O4  1  0.24734418  0.24979152  0.50000000  1
  O  O5  1  0.24734418  0.75020848  0.50000000  1
  O  O6  1  0.75265582  0.24979152  0.50000000  1
  O  O7  1  0.75265582  0.75020848  0.50000000  1
  O  O8  1  0.00000000  -0.00000000  0.50000000  1
  O  O9  1  0.00000000  0.50000000  0.50000000  1
  O  O10  1  0.50000000  -0.00000000  0.50000000  1
  O  O11  1  0.50000000  0.50000000  0.50000000  1
  O  O12  1  0.00000000  0.26603482  -0.00000000  1
  O  O13  1  0.00000000  0.73396518  -0.00000000  1
  O  O14  1  0.50000000  0.25338227  0.00000000  1
  O  O15  1  0.50000000  0.74661773  -0.00000000  1
loop_
_geom_bond_atom_site_label_1
_geom_bond_atom_site_label_2
_geom_bond_distance
_geom_bond_site_symmetry_2
Hf0 O12 2.039610 1_555
Hf0 O13 2.039610 1_555
Hf0 O9 2.138868 1_554
Hf0 O9 2.138868 1_555
Hf0 O1 2.203858 1_555
Hf0 O3 2.203858 1_455
Mg0 O0 2.020041 1_555
Mg0 O2 2.020041 1_555
Mg0 O10 2.138868 1_555
Mg0 O10 2.138868 1_554
Mg0 O15 2.208880 1_545
Mg0 O14 2.208880 1_555
Mg1 O3 2.130870 1_555
Mg1 O1 2.130870 1_555
Mg1 O11 2.138868 1_554
Mg1 O11 2.138868 1_555
Mg1 O14 2.149910 1_555
Mg1 O15 2.149910 1_555
Mg2 O8 2.030363 1_555
Mg2 O4 2.149387 1_555
Mg2 O6 2.149387 1_455
Mg2 O12 2.158279 1_556
Mg2 O12 2.158279 1_555
Mg2 O9 2.328427 1_555
Mg3 O8 2.030363 1_565
Mg3 O7 2.149387 1_455
Mg3 O5 2.149387 1_555
Mg3 O13 2.158279 1_555
Mg3 O13 2.158279 1_556
Mg3 O9 2.328427 1_555
Mg4 O14 2.139596 1_556
Mg4 O14 2.139596 1_555
Mg4 O10 2.153057 1_555
Mg4 O4 2.190526 1_555
Mg4 O6 2.190526 1_555
Mg4 O11 2.205734 1_555
Mg5 O15 2.139596 1_556
Mg5 O15 2.139596 1_555
Mg5 O10 2.153057 1_565
Mg5 O5 2.190526 1_555
Mg5 O7 2.190526 1_555
Mg5 O11 2.205734 1_555
Mg6 O0 2.144939 1_555
Mg6 O0 2.144939 1_556
Mg6 O8 2.153414 1_555
Mg6 O4 2.177597 1_555
Mg6 O5 2.177597 1_545
Mg6 O10 2.181314 1_555
Mg7 O11 2.100170 1_555
Mg7 O1 2.139088 1_556
Mg7 O1 2.139088 1_555
Mg7 O5 2.183078 1_555
Mg7 O4 2.183078 1_555
Mg7 O9 2.234558 1_555
Mg8 O2 2.144939 1_555
Mg8 O2 2.144939 1_556
Mg8 O8 2.153414 1_655
Mg8 O6 2.177597 1_555
Mg8 O7 2.177597 1_545
Mg8 O10 2.181314 1_555
Mg9 O11 2.100170 1_555
Mg9 O3 2.139088 1_556
Mg9 O3 2.139088 1_555
Mg9 O7 2.183078 1_555
Mg9 O6 2.183078 1_555
Mg9 O9 2.234558 1_655
Mg10 O0 2.094601 1_555
Mg10 O14 2.132752 1_555
Mg10 O4 2.141454 1_554
Mg10 O4 2.141454 1_555
Mg10 O12 2.216894 1_555
Mg10 O1 2.267054 1_555
Mg11 O0 2.094601 1_565
Mg11 O15 2.132752 1_555
Mg11 O5 2.141454 1_554
Mg11 O5 2.141454 1_555
Mg11 O13 2.216894 1_555
Mg11 O1 2.267054 1_555
Mg12 O2 2.094601 1_555
Mg12 O14 2.132752 1_555
Mg12 O6 2.141454 1_555
Mg12 O6 2.141454 1_554
Mg12 O12 2.216894 1_655
Mg12 O3 2.267054 1_555
Mg13 O2 2.094601 1_565
Mg13 O15 2.132752 1_555
Mg13 O7 2.141454 1_555
Mg13 O7 2.141454 1_554
Mg13 O13 2.216894 1_655
Mg13 O3 2.267054 1_555
B0 O8 2.138868 1_554
B0 O8 2.138868 1_555
