# generated using pymatgen
data_AlBi2Se2BrCl4
_symmetry_space_group_name_H-M   'P 1'
_cell_length_a   7.07324600
_cell_length_b   8.34293498
_cell_length_c   11.56065247
_cell_angle_alpha   69.10267177
_cell_angle_beta   73.75288047
_cell_angle_gamma   72.89582041
_symmetry_Int_Tables_number   1
_chemical_formula_structural   AlBi2Se2BrCl4
_chemical_formula_sum   'Al2 Bi4 Se4 Br2 Cl8'
_cell_volume   597.35263735
_cell_formula_units_Z   2
loop_
 _symmetry_equiv_pos_site_id
 _symmetry_equiv_pos_as_xyz
  1  'x, y, z'
loop_
 _atom_site_type_symbol
 _atom_site_label
 _atom_site_symmetry_multiplicity
 _atom_site_fract_x
 _atom_site_fract_y
 _atom_site_fract_z
 _atom_site_occupancy
  Al  Al0  1  0.83235500  0.77095800  0.53955500  1
  Al  Al1  1  0.16764500  0.22904200  0.46044500  1
  Bi  Bi0  1  0.71807500  0.38694200  0.87103100  1
  Bi  Bi1  1  0.28192500  0.61305800  0.12896900  1
  Bi  Bi2  1  0.28199800  0.12192900  0.12134800  1
  Bi  Bi3  1  0.71800200  0.87807100  0.87865200  1
  Se  Se0  1  0.56426000  0.29228900  0.13242800  1
  Se  Se1  1  0.43574000  0.70771100  0.86757200  1
  Se  Se2  1  0.44422000  0.20740300  0.85896500  1
  Se  Se3  1  0.55578000  0.79259700  0.14103500  1
  Br  Br0  1  0.00000000  0.00000000  0.00000000  1
  Br  Br1  1  0.00000000  0.50000000  0.00000000  1
  Cl  Cl0  1  0.05099400  0.65138800  0.66058400  1
  Cl  Cl1  1  0.94900600  0.34861200  0.33941600  1
  Cl  Cl2  1  0.94529300  0.84477200  0.33816500  1
  Cl  Cl3  1  0.05470700  0.15522800  0.66183500  1
  Cl  Cl4  1  0.64941300  0.57964000  0.58811900  1
  Cl  Cl5  1  0.35058700  0.42036000  0.41188100  1
  Cl  Cl6  1  0.33691900  0.99491100  0.40514300  1
  Cl  Cl7  1  0.66308100  0.00508900  0.59485700  1
loop_
_geom_bond_atom_site_label_1
_geom_bond_atom_site_label_2
_geom_bond_distance
_geom_bond_site_symmetry_2
Al0 Cl0 2.156860 1_655
Al0 Cl2 2.159568 1_555
Al0 Cl4 2.169434 1_555
Al0 Cl7 2.178233 1_565
Al1 Cl1 2.156860 1_455
Al1 Cl3 2.159568 1_555
Al1 Cl5 2.169434 1_555
Al1 Cl6 2.178233 1_545
Bi0 Se0 2.811146 1_556
Bi0 Se1 2.824217 1_555
Bi0 Se2 2.832348 1_555
Bi0 Cl4 3.193129 1_555
Bi0 Br1 3.295837 1_656
Bi0 Br0 3.326309 1_656
Bi1 Se1 2.811146 1_554
Bi1 Se0 2.824217 1_555
Bi1 Se3 2.832348 1_555
Bi1 Cl5 3.193129 1_555
Bi1 Br1 3.295837 1_555
Bi1 Br0 3.326309 1_565
Bi2 Se0 2.822178 1_555
Bi2 Se2 2.831390 1_554
Bi2 Se3 2.832302 1_545
Bi2 Cl6 3.166804 1_545
Bi2 Br1 3.256376 1_555
Bi2 Br0 3.280052 1_555
Bi3 Se1 2.822178 1_555
Bi3 Se3 2.831390 1_556
Bi3 Se2 2.832302 1_565
Bi3 Cl7 3.166804 1_565
Bi3 Br1 3.256376 1_656
Bi3 Br0 3.280052 1_666
