# generated using pymatgen
data_Ho2CdS4
_symmetry_space_group_name_H-M   'P 1'
_cell_length_a   8.02636592
_cell_length_b   8.02636592
_cell_length_c   8.02636592
_cell_angle_alpha   120.37883879
_cell_angle_beta   120.15269565
_cell_angle_gamma   89.54040325
_symmetry_Int_Tables_number   1
_chemical_formula_structural   Ho2CdS4
_chemical_formula_sum   'Ho4 Cd2 S8'
_cell_volume   364.14678952
_cell_formula_units_Z   2
loop_
 _symmetry_equiv_pos_site_id
 _symmetry_equiv_pos_as_xyz
  1  'x, y, z'
loop_
 _atom_site_type_symbol
 _atom_site_label
 _atom_site_symmetry_multiplicity
 _atom_site_fract_x
 _atom_site_fract_y
 _atom_site_fract_z
 _atom_site_occupancy
  Ho  Ho0  1  0.37817400  0.62817400  0.75000000  1
  Ho  Ho1  1  0.62182600  0.37182600  0.25000000  1
  Ho  Ho2  1  0.00000000  0.00000000  0.00000000  1
  Ho  Ho3  1  0.50000000  0.00000000  0.50000000  1
  Cd  Cd0  1  0.00000000  0.00000000  0.50000000  1
  Cd  Cd1  1  0.00000000  0.50000000  0.00000000  1
  S  S0  1  0.24456400  0.76094300  0.01637900  1
  S  S1  1  0.24456400  0.22818400  0.48362100  1
  S  S2  1  0.24265900  0.75888200  0.48377700  1
  S  S3  1  0.77510400  0.75888200  0.01622300  1
  S  S4  1  0.75543600  0.23905700  0.98362100  1
  S  S5  1  0.75543600  0.77181600  0.51637900  1
  S  S6  1  0.75734100  0.24111800  0.51622300  1
  S  S7  1  0.22489600  0.24111800  0.98377700  1
loop_
_geom_bond_atom_site_label_1
_geom_bond_atom_site_label_2
_geom_bond_distance
_geom_bond_site_symmetry_2
Ho0 S3 2.600722 1_556
Ho0 S2 2.600729 1_555
Ho0 S0 2.614876 1_556
Ho0 S1 2.614882 1_555
Ho1 S7 2.600722 1_554
Ho1 S6 2.600729 1_555
Ho1 S4 2.614876 1_554
Ho1 S5 2.614882 1_555
Ho2 S0 2.736346 1_545
Ho2 S4 2.736346 1_454
Ho2 S1 2.736346 1_555
Ho2 S5 2.736346 1_444
Ho2 S3 2.750959 1_445
Ho2 S7 2.750959 1_554
Ho3 S5 2.736340 1_545
Ho3 S1 2.736340 1_555
Ho3 S4 2.736346 1_555
Ho3 S0 2.736346 1_545
Ho3 S6 2.750954 1_555
Ho3 S2 2.750954 1_545
Cd0 S7 2.737735 1_555
Cd0 S3 2.737735 1_445
Cd0 S2 2.737735 1_545
Cd0 S6 2.737735 1_455
Cd0 S5 2.790214 1_445
Cd0 S1 2.790214 1_555
Cd1 S2 2.737735 1_555
Cd1 S6 2.737735 1_454
Cd1 S7 2.737741 1_554
Cd1 S3 2.737741 1_455
Cd1 S0 2.790220 1_555
Cd1 S4 2.790220 1_454
