# generated using pymatgen
data_HfMg30VO32
_symmetry_space_group_name_H-M   'P 1'
_cell_length_a   8.59746519
_cell_length_b   8.59746519
_cell_length_c   8.60142629
_cell_angle_alpha   90.00000000
_cell_angle_beta   90.00000000
_cell_angle_gamma   90.00000000
_symmetry_Int_Tables_number   1
_chemical_formula_structural   HfMg30VO32
_chemical_formula_sum   'Hf1 Mg30 V1 O32'
_cell_volume   635.78653240
_cell_formula_units_Z   1
loop_
 _symmetry_equiv_pos_site_id
 _symmetry_equiv_pos_as_xyz
  1  'x, y, z'
loop_
 _atom_site_type_symbol
 _atom_site_label
 _atom_site_symmetry_multiplicity
 _atom_site_fract_x
 _atom_site_fract_y
 _atom_site_fract_z
 _atom_site_occupancy
  Hf  Hf0  1  0.00000000  0.00000000  0.50000000  1
  Mg  Mg0  1  0.00000000  0.50000000  0.00000000  1
  Mg  Mg1  1  0.00000000  0.50000000  0.50000000  1
  Mg  Mg2  1  0.50000000  0.00000000  0.00000000  1
  Mg  Mg3  1  0.50000000  0.00000000  0.50000000  1
  Mg  Mg4  1  0.50000000  0.50000000  0.00000000  1
  Mg  Mg5  1  0.50000000  0.50000000  0.50000000  1
  Mg  Mg6  1  0.00000000  0.25396009  0.24508430  1
  Mg  Mg7  1  0.00000000  0.25396009  0.75491570  1
  Mg  Mg8  1  0.00000000  0.74603991  0.24508430  1
  Mg  Mg9  1  0.00000000  0.74603991  0.75491570  1
  Mg  Mg10  1  0.50000000  0.25043525  0.24878797  1
  Mg  Mg11  1  0.50000000  0.25043525  0.75121203  1
  Mg  Mg12  1  0.50000000  0.74956475  0.24878797  1
  Mg  Mg13  1  0.50000000  0.74956475  0.75121203  1
  Mg  Mg14  1  0.25396009  0.00000000  0.24508430  1
  Mg  Mg15  1  0.25396009  0.00000000  0.75491570  1
  Mg  Mg16  1  0.25043525  0.50000000  0.24878797  1
  Mg  Mg17  1  0.25043525  0.50000000  0.75121203  1
  Mg  Mg18  1  0.74603991  0.00000000  0.24508430  1
  Mg  Mg19  1  0.74603991  0.00000000  0.75491570  1
  Mg  Mg20  1  0.74956475  0.50000000  0.24878797  1
  Mg  Mg21  1  0.74956475  0.50000000  0.75121203  1
  Mg  Mg22  1  0.25086628  0.25086628  0.00000000  1
  Mg  Mg23  1  0.25530686  0.25530686  0.50000000  1
  Mg  Mg24  1  0.25086628  0.74913372  0.00000000  1
  Mg  Mg25  1  0.25530686  0.74469314  0.50000000  1
  Mg  Mg26  1  0.74913372  0.25086628  0.00000000  1
  Mg  Mg27  1  0.74469314  0.25530686  0.50000000  1
  Mg  Mg28  1  0.74913372  0.74913372  0.00000000  1
  Mg  Mg29  1  0.74469314  0.74469314  0.50000000  1
  V  V0  1  0.00000000  0.00000000  0.00000000  1
  O  O0  1  0.25577941  0.00000000  0.00000000  1
  O  O1  1  0.25141061  0.00000000  0.50000000  1
  O  O2  1  0.25012446  0.50000000  0.00000000  1
  O  O3  1  0.24970111  0.50000000  0.50000000  1
  O  O4  1  0.74422059  0.00000000  0.00000000  1
  O  O5  1  0.74858939  0.00000000  0.50000000  1
  O  O6  1  0.74987554  0.50000000  0.00000000  1
  O  O7  1  0.75029889  0.50000000  0.50000000  1
  O  O8  1  0.24920808  0.24920808  0.25057155  1
  O  O9  1  0.24920808  0.24920808  0.74942845  1
  O  O10  1  0.24920808  0.75079192  0.25057155  1
  O  O11  1  0.24920808  0.75079192  0.74942845  1
  O  O12  1  0.75079192  0.24920808  0.25057155  1
  O  O13  1  0.75079192  0.24920808  0.74942845  1
  O  O14  1  0.75079192  0.75079192  0.25057155  1
  O  O15  1  0.75079192  0.75079192  0.74942845  1
  O  O16  1  0.00000000  0.00000000  0.24837645  1
  O  O17  1  0.00000000  0.00000000  0.75162355  1
  O  O18  1  0.00000000  0.50000000  0.25088256  1
  O  O19  1  0.00000000  0.50000000  0.74911744  1
  O  O20  1  0.50000000  0.00000000  0.25088256  1
  O  O21  1  0.50000000  0.00000000  0.74911744  1
  O  O22  1  0.50000000  0.50000000  0.25065318  1
  O  O23  1  0.50000000  0.50000000  0.74934682  1
  O  O24  1  0.00000000  0.25577941  0.00000000  1
  O  O25  1  0.00000000  0.25141061  0.50000000  1
  O  O26  1  0.00000000  0.74422059  0.00000000  1
  O  O27  1  0.00000000  0.74858939  0.50000000  1
  O  O28  1  0.50000000  0.25012446  0.00000000  1
  O  O29  1  0.50000000  0.24970111  0.50000000  1
  O  O30  1  0.50000000  0.74987554  0.00000000  1
  O  O31  1  0.50000000  0.75029889  0.50000000  1
loop_
_geom_bond_atom_site_label_1
_geom_bond_atom_site_label_2
_geom_bond_distance
_geom_bond_site_symmetry_2
Hf0 O1 2.161494 1_555
Hf0 O5 2.161494 1_455
Hf0 O25 2.161494 1_555
Hf0 O27 2.161494 1_545
Hf0 O17 2.164321 1_555
Hf0 O16 2.164321 1_555
Mg0 O26 2.099678 1_555
Mg0 O24 2.099678 1_555
Mg0 O2 2.150436 1_555
Mg0 O6 2.150436 1_455
Mg0 O18 2.157948 1_555
Mg0 O19 2.157948 1_554
Mg1 O25 2.137239 1_555
Mg1 O27 2.137239 1_555
Mg1 O18 2.142765 1_555
Mg1 O19 2.142765 1_555
Mg1 O7 2.146797 1_455
Mg1 O3 2.146797 1_555
Mg2 O4 2.099678 1_555
Mg2 O0 2.099678 1_555
Mg2 O28 2.150436 1_555
Mg2 O30 2.150436 1_545
Mg2 O20 2.157948 1_555
Mg2 O21 2.157948 1_554
Mg3 O1 2.137239 1_555
Mg3 O5 2.137239 1_555
Mg3 O21 2.142765 1_555
Mg3 O20 2.142765 1_555
Mg3 O31 2.146797 1_545
Mg3 O29 2.146797 1_555
Mg4 O2 2.148296 1_555
Mg4 O28 2.148296 1_555
Mg4 O6 2.148296 1_555
Mg4 O30 2.148296 1_555
Mg4 O22 2.155975 1_555
Mg4 O23 2.155975 1_554
Mg5 O23 2.144738 1_555
Mg5 O22 2.144738 1_555
Mg5 O29 2.151936 1_555
Mg5 O3 2.151936 1_555
Mg5 O31 2.151936 1_555
Mg5 O7 2.151936 1_555
Mg6 O24 2.108133 1_555
Mg6 O18 2.115907 1_555
Mg6 O8 2.143467 1_555
Mg6 O12 2.143467 1_455
Mg6 O16 2.183597 1_555
Mg6 O25 2.192748 1_555
Mg7 O24 2.108133 1_556
Mg7 O19 2.115907 1_555
Mg7 O9 2.143467 1_555
Mg7 O13 2.143467 1_455
Mg7 O17 2.183597 1_555
Mg7 O25 2.192748 1_555
Mg8 O26 2.108133 1_555
Mg8 O18 2.115907 1_555
Mg8 O10 2.143467 1_555
Mg8 O14 2.143467 1_455
Mg8 O16 2.183597 1_565
Mg8 O27 2.192748 1_555
Mg9 O26 2.108133 1_556
Mg9 O19 2.115907 1_555
Mg9 O11 2.143467 1_555
Mg9 O15 2.143467 1_455
Mg9 O17 2.183597 1_565
Mg9 O27 2.192748 1_555
Mg10 O28 2.139933 1_555
Mg10 O22 2.145684 1_555
Mg10 O20 2.153184 1_555
Mg10 O12 2.156255 1_555
Mg10 O8 2.156255 1_555
Mg10 O29 2.160791 1_555
Mg11 O28 2.139933 1_556
Mg11 O23 2.145684 1_555
Mg11 O21 2.153184 1_555
Mg11 O13 2.156255 1_555
Mg11 O9 2.156255 1_555
Mg11 O29 2.160791 1_555
Mg12 O30 2.139933 1_555
Mg12 O22 2.145684 1_555
Mg12 O20 2.153184 1_565
Mg12 O14 2.156255 1_555
Mg12 O10 2.156255 1_555
Mg12 O31 2.160791 1_555
Mg13 O30 2.139933 1_556
Mg13 O23 2.145684 1_555
Mg13 O21 2.153184 1_565
Mg13 O15 2.156255 1_555
Mg13 O11 2.156255 1_555
Mg13 O31 2.160791 1_555
Mg14 O0 2.108133 1_555
Mg14 O20 2.115907 1_555
Mg14 O8 2.143467 1_555
Mg14 O10 2.143467 1_545
Mg14 O16 2.183597 1_555
Mg14 O1 2.192748 1_555
Mg15 O0 2.108133 1_556
Mg15 O21 2.115907 1_555
Mg15 O9 2.143467 1_555
Mg15 O11 2.143467 1_545
Mg15 O17 2.183597 1_555
Mg15 O1 2.192748 1_555
Mg16 O2 2.139933 1_555
Mg16 O22 2.145684 1_555
Mg16 O18 2.153184 1_555
Mg16 O10 2.156255 1_555
Mg16 O8 2.156255 1_555
Mg16 O3 2.160791 1_555
Mg17 O2 2.139933 1_556
Mg17 O23 2.145684 1_555
Mg17 O19 2.153184 1_555
Mg17 O11 2.156255 1_555
Mg17 O9 2.156255 1_555
Mg17 O3 2.160791 1_555
Mg18 O4 2.108133 1_555
Mg18 O20 2.115907 1_555
Mg18 O12 2.143467 1_555
Mg18 O14 2.143467 1_545
Mg18 O16 2.183597 1_655
Mg18 O5 2.192748 1_555
Mg19 O4 2.108133 1_556
Mg19 O21 2.115907 1_555
Mg19 O13 2.143467 1_555
Mg19 O15 2.143467 1_545
Mg19 O17 2.183597 1_655
Mg19 O5 2.192748 1_555
Mg20 O6 2.139933 1_555
Mg20 O22 2.145684 1_555
Mg20 O18 2.153184 1_655
Mg20 O14 2.156255 1_555
Mg20 O12 2.156255 1_555
Mg20 O7 2.160791 1_555
Mg21 O6 2.139933 1_556
Mg21 O23 2.145684 1_555
Mg21 O19 2.153184 1_655
Mg21 O15 2.156255 1_555
Mg21 O13 2.156255 1_555
Mg21 O7 2.160791 1_555
Mg22 O2 2.141928 1_555
Mg22 O28 2.141928 1_555
Mg22 O9 2.155367 1_554
Mg22 O8 2.155367 1_555
Mg22 O24 2.157228 1_555
Mg22 O0 2.157228 1_555
Mg23 O3 2.104293 1_555
Mg23 O29 2.104293 1_555
Mg23 O8 2.146722 1_555
Mg23 O9 2.146722 1_555
Mg23 O25 2.195247 1_555
Mg23 O1 2.195247 1_555
Mg24 O30 2.141928 1_555
Mg24 O2 2.141928 1_555
Mg24 O10 2.155367 1_555
Mg24 O11 2.155367 1_554
Mg24 O26 2.157228 1_555
Mg24 O0 2.157228 1_565
Mg25 O31 2.104293 1_555
Mg25 O3 2.104293 1_555
Mg25 O11 2.146722 1_555
Mg25 O10 2.146722 1_555
Mg25 O1 2.195247 1_565
Mg25 O27 2.195247 1_555
Mg26 O28 2.141928 1_555
Mg26 O6 2.141928 1_555
Mg26 O13 2.155367 1_554
Mg26 O12 2.155367 1_555
Mg26 O24 2.157228 1_655
Mg26 O4 2.157228 1_555
Mg27 O29 2.104293 1_555
Mg27 O7 2.104293 1_555
Mg27 O13 2.146722 1_555
Mg27 O12 2.146722 1_555
Mg27 O25 2.195247 1_655
Mg27 O5 2.195247 1_555
Mg28 O30 2.141928 1_555
Mg28 O6 2.141928 1_555
Mg28 O14 2.155367 1_555
Mg28 O15 2.155367 1_554
Mg28 O26 2.157228 1_655
Mg28 O4 2.157228 1_565
Mg29 O31 2.104293 1_555
Mg29 O7 2.104293 1_555
Mg29 O14 2.146722 1_555
Mg29 O15 2.146722 1_555
Mg29 O27 2.195247 1_655
Mg29 O5 2.195247 1_565
O0 V0 2.199055 1_555
O4 V0 2.199055 1_655
O16 V0 2.136392 1_555
O17 V0 2.136392 1_556
O24 V0 2.199055 1_555
O26 V0 2.199055 1_565
