# generated using pymatgen
data_PrCuSb2
_symmetry_space_group_name_H-M   'P 1'
_cell_length_a   4.37120464
_cell_length_b   4.37120464
_cell_length_c   10.24599059
_cell_angle_alpha   90.00000000
_cell_angle_beta   90.00000000
_cell_angle_gamma   90.00000000
_symmetry_Int_Tables_number   1
_chemical_formula_structural   PrCuSb2
_chemical_formula_sum   'Pr2 Cu2 Sb4'
_cell_volume   195.77454803
_cell_formula_units_Z   2
loop_
 _symmetry_equiv_pos_site_id
 _symmetry_equiv_pos_as_xyz
  1  'x, y, z'
loop_
 _atom_site_type_symbol
 _atom_site_label
 _atom_site_symmetry_multiplicity
 _atom_site_fract_x
 _atom_site_fract_y
 _atom_site_fract_z
 _atom_site_occupancy
  Pr  Pr0  1  0.75000000  0.75000000  0.74876364  1
  Pr  Pr1  1  0.25000000  0.25000000  0.25123636  1
  Cu  Cu0  1  0.75000000  0.25000000  -0.00000000  1
  Cu  Cu1  1  0.25000000  0.75000000  -0.00000000  1
  Sb  Sb0  1  0.75000000  0.75000000  0.14660934  1
  Sb  Sb1  1  0.25000000  0.25000000  0.85339066  1
  Sb  Sb2  1  0.75000000  0.25000000  0.50000000  1
  Sb  Sb3  1  0.25000000  0.75000000  0.50000000  1
loop_
_geom_bond_atom_site_label_1
_geom_bond_atom_site_label_2
_geom_bond_distance
_geom_bond_site_symmetry_2
Pr0 Sb1 3.271531 1_565
Pr0 Sb1 3.271531 1_655
Pr0 Sb1 3.271531 1_555
Pr0 Sb1 3.271531 1_665
Pr0 Sb2 3.357587 1_565
Pr0 Sb3 3.357587 1_555
Pr0 Sb3 3.357587 1_655
Pr0 Sb2 3.357587 1_555
Pr1 Sb0 3.271531 1_545
Pr1 Sb0 3.271531 1_445
Pr1 Sb0 3.271531 1_455
Pr1 Sb0 3.271531 1_555
Pr1 Sb2 3.357587 1_555
Pr1 Sb3 3.357587 1_545
Pr1 Sb3 3.357587 1_555
Pr1 Sb2 3.357587 1_455
Cu0 Sb0 2.652044 1_545
Cu0 Sb0 2.652044 1_555
Cu0 Sb1 2.652044 1_554
Cu0 Sb1 2.652044 1_654
Cu0 Pr0 3.376860 1_544
Cu0 Pr0 3.376860 1_554
Cu0 Pr1 3.376860 1_655
Cu0 Pr1 3.376860 1_555
Cu1 Sb0 2.652044 1_455
Cu1 Sb0 2.652044 1_555
Cu1 Sb1 2.652044 1_554
Cu1 Sb1 2.652044 1_564
Cu1 Pr0 3.376860 1_554
Cu1 Pr0 3.376860 1_454
Cu1 Pr1 3.376860 1_565
Cu1 Pr1 3.376860 1_555
Sb2 Sb3 3.090908 1_645
Sb2 Sb3 3.090908 1_545
Sb2 Sb3 3.090908 1_555
Sb2 Sb3 3.090908 1_655
