# generated using pymatgen
data_Pu(Mg4Al3)4
_symmetry_space_group_name_H-M   'P 1'
_cell_length_a   9.30072517
_cell_length_b   9.30072517
_cell_length_c   9.30072573
_cell_angle_alpha   110.37588507
_cell_angle_beta   110.37588507
_cell_angle_gamma   110.37588707
_symmetry_Int_Tables_number   1
_chemical_formula_structural   Pu(Mg4Al3)4
_chemical_formula_sum   'Pu1 Mg16 Al12'
_cell_volume   597.69628763
_cell_formula_units_Z   1
loop_
 _symmetry_equiv_pos_site_id
 _symmetry_equiv_pos_as_xyz
  1  'x, y, z'
loop_
 _atom_site_type_symbol
 _atom_site_label
 _atom_site_symmetry_multiplicity
 _atom_site_fract_x
 _atom_site_fract_y
 _atom_site_fract_z
 _atom_site_occupancy
  Pu  Pu0  1  0.62636300  0.62636300  0.62636300  1
  Mg  Mg0  1  0.34316200  0.00293500  0.00293500  1
  Mg  Mg1  1  0.27973400  0.68296900  0.68296900  1
  Mg  Mg2  1  0.99840500  0.99840500  0.99840500  1
  Mg  Mg3  1  0.72443800  0.39388400  0.39388400  1
  Mg  Mg4  1  0.99841600  0.60912800  0.30930900  1
  Mg  Mg5  1  0.60912800  0.30930900  0.99841600  1
  Mg  Mg6  1  0.39388400  0.72443800  0.39388400  1
  Mg  Mg7  1  0.00293600  0.34316200  0.00293500  1
  Mg  Mg8  1  0.30930900  0.99841600  0.60912800  1
  Mg  Mg9  1  0.68296900  0.68296900  0.27973400  1
  Mg  Mg10  1  0.68296900  0.27973400  0.68296900  1
  Mg  Mg11  1  0.30930900  0.60912800  0.99841600  1
  Mg  Mg12  1  0.00293500  0.00293500  0.34316200  1
  Mg  Mg13  1  0.39388400  0.39388400  0.72443800  1
  Mg  Mg14  1  0.60912800  0.99841600  0.30930900  1
  Mg  Mg15  1  0.99841600  0.30930900  0.60912800  1
  Al  Al0  1  0.83013000  0.19110800  0.19110800  1
  Al  Al1  1  0.19526400  0.37639600  0.37639600  1
  Al  Al2  1  0.99229400  0.81096000  0.63385200  1
  Al  Al3  1  0.37639600  0.37639600  0.19526400  1
  Al  Al4  1  0.63385200  0.99229400  0.81096000  1
  Al  Al5  1  0.81096000  0.99229400  0.63385200  1
  Al  Al6  1  0.19110800  0.19110800  0.83013000  1
  Al  Al7  1  0.19110800  0.83013000  0.19110800  1
  Al  Al8  1  0.81096000  0.63385200  0.99229400  1
  Al  Al9  1  0.63385200  0.81096000  0.99229400  1
  Al  Al10  1  0.37639600  0.19526400  0.37639600  1
  Al  Al11  1  0.99229400  0.63385200  0.81096000  1
loop_
_geom_bond_atom_site_label_1
_geom_bond_atom_site_label_2
_geom_bond_distance
_geom_bond_site_symmetry_2
Mg0 Mg1 3.073791 1_544
Mg0 Mg5 3.080238 1_554
Mg0 Mg14 3.080238 1_545
Mg0 Mg2 3.177380 1_444
Mg0 Mg3 3.442843 1_555
Mg1 Mg13 3.306022 1_555
Mg1 Mg6 3.306022 1_555
Mg2 Mg7 3.177377 1_666
Mg2 Pu0 3.302573 1_555
Mg3 Pu0 3.110261 1_555
Mg3 Mg5 3.154134 1_554
Mg3 Mg4 3.171720 1_555
Mg3 Mg9 3.306022 1_555
Mg4 Mg7 3.080244 1_655
Mg4 Mg6 3.154134 1_655
Mg6 Pu0 3.110261 1_555
Mg6 Mg8 3.171720 1_555
Mg6 Mg9 3.306022 1_555
Mg6 Mg7 3.442840 1_555
Mg10 Mg7 3.073796 1_656
Mg10 Mg13 3.306022 1_555
Mg10 Mg3 3.306022 1_555
Mg11 Mg7 3.080232 1_556
Mg11 Mg6 3.154134 1_556
Mg11 Mg13 3.171720 1_555
Mg12 Mg9 3.073790 1_445
Mg12 Mg15 3.080238 1_455
Mg12 Mg8 3.080238 1_545
Mg12 Mg2 3.177380 1_444
Mg12 Mg13 3.442843 1_555
Mg13 Pu0 3.110261 1_555
Mg13 Mg15 3.154134 1_455
Mg13 Mg8 3.154134 1_545
Mg13 Mg5 3.171720 1_555
Mg14 Mg3 3.154134 1_565
Mg14 Mg6 3.171720 1_555
Mg15 Mg3 3.171720 1_555
Al0 Al1 2.693285 1_655
Al0 Al9 2.802635 1_544
Al0 Al4 2.802636 1_544
Al0 Mg3 2.860975 1_555
Al0 Mg14 3.004295 1_545
Al0 Mg5 3.004295 1_554
Al0 Mg12 3.121801 1_655
Al0 Mg7 3.121806 1_655
Al0 Mg4 3.219007 1_555
Al0 Mg15 3.219008 1_555
Al0 Mg2 3.247114 1_544
Al1 Al10 2.766308 1_555
Al1 Al3 2.766308 1_555
Al1 Mg1 2.845398 1_555
Al1 Mg6 3.029440 1_555
Al1 Mg13 3.029441 1_555
Al1 Mg7 3.146571 1_555
Al1 Mg12 3.146572 1_555
Al1 Pu0 3.184374 1_555
Al1 Mg2 3.240362 1_444
Al2 Al5 2.769393 1_555
Al2 Al6 2.802635 1_665
Al2 Mg9 2.971220 1_555
Al2 Mg4 2.981058 1_555
Al2 Mg8 2.992941 1_655
Al2 Mg0 3.081368 1_666
Al2 Mg3 3.099187 1_555
Al2 Pu0 3.196636 1_555
Al2 Mg2 3.196777 1_555
Al2 Mg1 3.243021 1_655
Al3 Al6 2.693285 1_554
Al3 Mg9 2.845398 1_555
Al3 Mg3 3.029440 1_555
Al3 Mg6 3.029440 1_555
Al3 Mg7 3.146564 1_555
Al3 Mg0 3.146572 1_555
Al3 Pu0 3.184374 1_555
Al3 Mg2 3.240362 1_444
Al4 Al5 2.704852 1_555
Al4 Al9 2.769393 1_555
Al4 Mg1 2.971220 1_555
Al4 Mg8 2.981058 1_555
Al4 Mg5 2.992941 1_565
Al4 Mg7 3.081373 1_666
Al4 Mg6 3.099187 1_555
Al4 Pu0 3.196637 1_555
Al4 Mg2 3.196777 1_555
Al4 Mg10 3.243021 1_565
Al5 Al6 2.802635 1_665
Al5 Mg9 2.971220 1_555
Al5 Mg14 2.981058 1_555
Al5 Mg15 2.992941 1_565
Al5 Mg7 3.081367 1_666
Al5 Mg6 3.099187 1_555
Al5 Pu0 3.196636 1_555
Al5 Mg2 3.196777 1_555
Al5 Mg10 3.243021 1_565
Al6 Mg13 2.860975 1_555
Al6 Mg8 3.004295 1_545
Al6 Mg15 3.004295 1_455
Al6 Mg7 3.121793 1_556
Al6 Mg0 3.121801 1_556
Al6 Mg11 3.219007 1_555
Al6 Mg5 3.219007 1_555
Al6 Mg2 3.247114 1_445
Al7 Al8 2.802635 1_454
Al7 Mg6 2.860975 1_555
Al7 Mg4 3.004295 1_455
Al7 Mg11 3.004295 1_554
Al7 Mg12 3.121801 1_565
Al7 Mg0 3.121801 1_565
Al7 Mg14 3.219007 1_555
Al7 Mg8 3.219008 1_555
Al7 Mg2 3.247114 1_454
Al8 Al9 2.704852 1_555
Al8 Mg10 2.971220 1_555
Al8 Mg5 2.981057 1_555
Al8 Mg4 2.992941 1_556
Al8 Mg12 3.081368 1_666
Al8 Mg13 3.099187 1_555
Al8 Pu0 3.196637 1_555
Al8 Mg2 3.196777 1_555
Al8 Mg9 3.243021 1_556
Al9 Mg1 2.971220 1_555
Al9 Mg11 2.981057 1_555
Al9 Mg14 2.992941 1_556
Al9 Mg12 3.081368 1_666
Al9 Mg13 3.099187 1_555
Al9 Pu0 3.196637 1_555
Al9 Mg2 3.196777 1_555
Al9 Mg9 3.243021 1_556
Al10 Al7 2.693285 1_545
Al10 Al3 2.766308 1_555
Al10 Mg10 2.845398 1_555
Al10 Mg3 3.029440 1_555
Al10 Mg13 3.029441 1_555
Al10 Mg12 3.146572 1_555
Al10 Mg0 3.146572 1_555
Al10 Pu0 3.184374 1_555
Al10 Mg2 3.240362 1_444
Al11 Al2 2.704852 1_555
Al11 Al8 2.769393 1_555
Al11 Al7 2.802636 1_656
Al11 Mg10 2.971220 1_555
Al11 Mg15 2.981058 1_555
Al11 Mg11 2.992941 1_655
Al11 Mg0 3.081368 1_666
Al11 Mg3 3.099187 1_555
Al11 Pu0 3.196637 1_555
Al11 Mg2 3.196777 1_555
Al11 Mg1 3.243021 1_655
