# generated using pymatgen
data_Ta3Ru2
_symmetry_space_group_name_H-M   'P 1'
_cell_length_a   6.40480816
_cell_length_b   6.40480816
_cell_length_c   31.65425680
_cell_angle_alpha   90.00000000
_cell_angle_beta   90.00000000
_cell_angle_gamma   90.00000000
_symmetry_Int_Tables_number   1
_chemical_formula_structural   Ta3Ru2
_chemical_formula_sum   'Ta48 Ru32'
_cell_volume   1298.50723409
_cell_formula_units_Z   16
loop_
 _symmetry_equiv_pos_site_id
 _symmetry_equiv_pos_as_xyz
  1  'x, y, z'
loop_
 _atom_site_type_symbol
 _atom_site_label
 _atom_site_symmetry_multiplicity
 _atom_site_fract_x
 _atom_site_fract_y
 _atom_site_fract_z
 _atom_site_occupancy
  Ta  Ta0_0  1  0.00000000  0.00000000  0.49770442  1
  Ta  Ta0_1  1  0.00000000  0.00000000  0.99770441  1
  Ta  Ta0_2  1  0.00000000  0.50000000  0.49770442  1
  Ta  Ta0_3  1  0.00000000  0.50000000  0.99770441  1
  Ta  Ta0_4  1  0.50000000  0.00000000  0.49770442  1
  Ta  Ta0_5  1  0.50000000  0.00000000  0.99770441  1
  Ta  Ta0_6  1  0.50000000  0.50000000  0.49770442  1
  Ta  Ta0_7  1  0.50000000  0.50000000  0.99770441  1
  Ta  Ta1_0  1  0.00000000  0.00000000  0.10229559  1
  Ta  Ta1_1  1  0.00000000  0.00000000  0.60229559  1
  Ta  Ta1_2  1  0.00000000  0.50000000  0.10229559  1
  Ta  Ta1_3  1  0.00000000  0.50000000  0.60229559  1
  Ta  Ta1_4  1  0.50000000  0.00000000  0.10229559  1
  Ta  Ta1_5  1  0.50000000  0.00000000  0.60229559  1
  Ta  Ta1_6  1  0.50000000  0.50000000  0.10229559  1
  Ta  Ta1_7  1  0.50000000  0.50000000  0.60229559  1
  Ta  Ta2_0  1  0.00000000  0.00000000  0.20262190  1
  Ta  Ta2_1  1  0.00000000  0.00000000  0.70262190  1
  Ta  Ta2_2  1  0.00000000  0.50000000  0.20262190  1
  Ta  Ta2_3  1  0.00000000  0.50000000  0.70262190  1
  Ta  Ta2_4  1  0.50000000  0.00000000  0.20262190  1
  Ta  Ta2_5  1  0.50000000  0.00000000  0.70262190  1
  Ta  Ta2_6  1  0.50000000  0.50000000  0.20262190  1
  Ta  Ta2_7  1  0.50000000  0.50000000  0.70262190  1
  Ta  Ta3_0  1  0.00000000  0.00000000  0.30000000  1
  Ta  Ta3_1  1  0.00000000  0.00000000  0.80000000  1
  Ta  Ta3_2  1  0.00000000  0.50000000  0.30000000  1
  Ta  Ta3_3  1  0.00000000  0.50000000  0.80000000  1
  Ta  Ta3_4  1  0.50000000  0.00000000  0.30000000  1
  Ta  Ta3_5  1  0.50000000  0.00000000  0.80000000  1
  Ta  Ta3_6  1  0.50000000  0.50000000  0.30000000  1
  Ta  Ta3_7  1  0.50000000  0.50000000  0.80000000  1
  Ta  Ta4_0  1  0.00000000  0.00000000  0.39737810  1
  Ta  Ta4_1  1  0.00000000  0.00000000  0.89737810  1
  Ta  Ta4_2  1  0.00000000  0.50000000  0.39737810  1
  Ta  Ta4_3  1  0.00000000  0.50000000  0.89737810  1
  Ta  Ta4_4  1  0.50000000  0.00000000  0.39737810  1
  Ta  Ta4_5  1  0.50000000  0.00000000  0.89737810  1
  Ta  Ta4_6  1  0.50000000  0.50000000  0.39737810  1
  Ta  Ta4_7  1  0.50000000  0.50000000  0.89737810  1
  Ta  Ta5_0  1  0.25000000  0.25000000  0.05000000  1
  Ta  Ta5_1  1  0.25000000  0.25000000  0.55000000  1
  Ta  Ta5_2  1  0.25000000  0.75000000  0.05000000  1
  Ta  Ta5_3  1  0.25000000  0.75000000  0.55000000  1
  Ta  Ta5_4  1  0.75000000  0.25000000  0.05000000  1
  Ta  Ta5_5  1  0.75000000  0.25000000  0.55000000  1
  Ta  Ta5_6  1  0.75000000  0.75000000  0.05000000  1
  Ta  Ta5_7  1  0.75000000  0.75000000  0.55000000  1
  Ru  Ru0_0  1  0.25000000  0.25000000  0.15452467  1
  Ru  Ru0_1  1  0.25000000  0.25000000  0.65452467  1
  Ru  Ru0_2  1  0.25000000  0.75000000  0.15452467  1
  Ru  Ru0_3  1  0.25000000  0.75000000  0.65452467  1
  Ru  Ru0_4  1  0.75000000  0.25000000  0.15452467  1
  Ru  Ru0_5  1  0.75000000  0.25000000  0.65452467  1
  Ru  Ru0_6  1  0.75000000  0.75000000  0.15452467  1
  Ru  Ru0_7  1  0.75000000  0.75000000  0.65452467  1
  Ru  Ru1_0  1  0.25000000  0.25000000  0.25108539  1
  Ru  Ru1_1  1  0.25000000  0.25000000  0.75108540  1
  Ru  Ru1_2  1  0.25000000  0.75000000  0.25108539  1
  Ru  Ru1_3  1  0.25000000  0.75000000  0.75108540  1
  Ru  Ru1_4  1  0.75000000  0.25000000  0.25108539  1
  Ru  Ru1_5  1  0.75000000  0.25000000  0.75108540  1
  Ru  Ru1_6  1  0.75000000  0.75000000  0.25108539  1
  Ru  Ru1_7  1  0.75000000  0.75000000  0.75108540  1
  Ru  Ru2_0  1  0.25000000  0.25000000  0.34891460  1
  Ru  Ru2_1  1  0.25000000  0.25000000  0.84891460  1
  Ru  Ru2_2  1  0.25000000  0.75000000  0.34891460  1
  Ru  Ru2_3  1  0.25000000  0.75000000  0.84891460  1
  Ru  Ru2_4  1  0.75000000  0.25000000  0.34891460  1
  Ru  Ru2_5  1  0.75000000  0.25000000  0.84891460  1
  Ru  Ru2_6  1  0.75000000  0.75000000  0.34891460  1
  Ru  Ru2_7  1  0.75000000  0.75000000  0.84891460  1
  Ru  Ru3_0  1  0.25000000  0.25000000  0.44547533  1
  Ru  Ru3_1  1  0.25000000  0.25000000  0.94547533  1
  Ru  Ru3_2  1  0.25000000  0.75000000  0.44547533  1
  Ru  Ru3_3  1  0.25000000  0.75000000  0.94547533  1
  Ru  Ru3_4  1  0.75000000  0.25000000  0.44547533  1
  Ru  Ru3_5  1  0.75000000  0.25000000  0.94547533  1
  Ru  Ru3_6  1  0.75000000  0.75000000  0.44547533  1
  Ru  Ru3_7  1  0.75000000  0.75000000  0.94547533  1
loop_
_geom_bond_atom_site_label_1
_geom_bond_atom_site_label_2
_geom_bond_distance
_geom_bond_site_symmetry_2
Ta0_0 Ta5_1 2.804991 1_555
Ta0_0 Ta5_5 2.804991 1_455
Ta0_0 Ta5_3 2.804991 1_545
Ta0_0 Ta5_7 2.804991 1_445
Ta0_1 Ta5_0 2.804991 1_556
Ta0_1 Ta5_4 2.804991 1_456
Ta0_1 Ta5_2 2.804991 1_546
Ta0_1 Ta5_6 2.804991 1_446
Ta0_2 Ta5_3 2.804991 1_555
Ta0_2 Ta5_7 2.804991 1_455
Ta0_2 Ta5_1 2.804991 1_555
Ta0_2 Ta5_5 2.804991 1_455
Ta0_3 Ta5_2 2.804991 1_556
Ta0_3 Ta5_0 2.804991 1_556
Ta0_3 Ta5_4 2.804991 1_456
Ta0_3 Ta5_6 2.804991 1_456
Ta0_4 Ta5_5 2.804991 1_555
Ta0_4 Ta5_7 2.804991 1_545
Ta0_4 Ta5_1 2.804991 1_555
Ta0_4 Ta5_3 2.804991 1_545
Ta0_5 Ta5_4 2.804991 1_556
Ta0_5 Ta5_0 2.804991 1_556
Ta0_5 Ta5_6 2.804991 1_546
Ta0_5 Ta5_2 2.804991 1_546
Ta0_6 Ta5_3 2.804991 1_555
Ta0_6 Ta5_7 2.804991 1_555
Ta0_6 Ta5_5 2.804991 1_555
Ta0_6 Ta5_1 2.804991 1_555
Ta0_7 Ta5_2 2.804991 1_556
Ta0_7 Ta5_4 2.804991 1_556
Ta0_7 Ta5_6 2.804991 1_556
Ta0_7 Ta5_0 2.804991 1_556
Ta1_0 Ta5_0 2.804991 1_555
Ta1_0 Ta5_2 2.804991 1_545
Ta1_0 Ta5_4 2.804991 1_455
Ta1_0 Ta5_6 2.804991 1_445
Ta1_1 Ta5_1 2.804991 1_555
Ta1_1 Ta5_3 2.804991 1_545
Ta1_1 Ta5_5 2.804991 1_455
Ta1_1 Ta5_7 2.804991 1_445
Ta1_2 Ta5_2 2.804991 1_555
Ta1_2 Ta5_0 2.804991 1_555
Ta1_2 Ta5_4 2.804991 1_455
Ta1_2 Ta5_6 2.804991 1_455
Ta1_3 Ta5_3 2.804991 1_555
Ta1_3 Ta5_1 2.804991 1_555
Ta1_3 Ta5_7 2.804991 1_455
Ta1_3 Ta5_5 2.804991 1_455
Ta1_4 Ta5_0 2.804991 1_555
Ta1_4 Ta5_4 2.804991 1_555
Ta1_4 Ta5_2 2.804991 1_545
Ta1_4 Ta5_6 2.804991 1_545
Ta1_5 Ta5_5 2.804991 1_555
Ta1_5 Ta5_1 2.804991 1_555
Ta1_5 Ta5_3 2.804991 1_545
Ta1_5 Ta5_7 2.804991 1_545
Ta1_6 Ta5_6 2.804991 1_555
Ta1_6 Ta5_2 2.804991 1_555
Ta1_6 Ta5_0 2.804991 1_555
Ta1_6 Ta5_4 2.804991 1_555
Ta1_7 Ta5_7 2.804991 1_555
Ta1_7 Ta5_5 2.804991 1_555
Ta1_7 Ta5_3 2.804991 1_555
Ta1_7 Ta5_1 2.804991 1_555
Ta5_0 Ta5_4 3.202404 1_555
Ta5_0 Ta5_2 3.202404 1_555
Ta5_0 Ta5_2 3.202404 1_545
Ta5_0 Ta5_4 3.202404 1_455
Ta5_1 Ta5_5 3.202404 1_555
Ta5_1 Ta5_3 3.202404 1_555
Ta5_1 Ta5_5 3.202404 1_455
Ta5_1 Ta5_3 3.202404 1_545
Ta5_2 Ta5_6 3.202404 1_555
Ta5_2 Ta5_6 3.202404 1_455
Ta5_3 Ta5_7 3.202404 1_555
Ta5_3 Ta5_7 3.202404 1_455
Ta5_4 Ta5_6 3.202404 1_555
Ta5_4 Ta5_6 3.202404 1_545
Ta5_5 Ta5_7 3.202404 1_555
Ta5_5 Ta5_7 3.202404 1_545
Ru0_0 Ta2_2 2.728671 1_555
Ru0_0 Ta2_6 2.728671 1_555
Ru0_0 Ta2_0 2.728671 1_555
Ru0_0 Ta2_4 2.728671 1_555
Ru0_0 Ta1_0 2.803749 1_555
Ru0_0 Ta1_4 2.803749 1_555
Ru0_0 Ta1_2 2.803749 1_555
Ru0_0 Ta1_6 2.803749 1_555
Ru0_0 Ta5_0 3.308651 1_555
Ru0_1 Ta2_3 2.728671 1_555
Ru0_1 Ta2_7 2.728671 1_555
Ru0_1 Ta2_1 2.728671 1_555
Ru0_1 Ta2_5 2.728671 1_555
Ru0_1 Ta1_3 2.803749 1_555
Ru0_1 Ta1_1 2.803749 1_555
Ru0_1 Ta1_7 2.803749 1_555
Ru0_1 Ta1_5 2.803749 1_555
Ru0_1 Ta5_1 3.308651 1_555
Ru0_2 Ta2_2 2.728671 1_555
Ru0_2 Ta2_6 2.728671 1_555
Ru0_2 Ta2_0 2.728671 1_565
Ru0_2 Ta2_4 2.728671 1_565
Ru0_2 Ta1_2 2.803749 1_555
Ru0_2 Ta1_6 2.803749 1_555
Ru0_2 Ta1_0 2.803749 1_565
Ru0_2 Ta1_4 2.803749 1_565
Ru0_2 Ta5_2 3.308651 1_555
Ru0_3 Ta2_3 2.728671 1_555
Ru0_3 Ta2_7 2.728671 1_555
Ru0_3 Ta2_5 2.728671 1_565
Ru0_3 Ta2_1 2.728671 1_565
Ru0_3 Ta1_3 2.803749 1_555
Ru0_3 Ta1_7 2.803749 1_555
Ru0_3 Ta1_5 2.803749 1_565
Ru0_3 Ta1_1 2.803749 1_565
Ru0_3 Ta5_3 3.308651 1_555
Ru0_4 Ta2_6 2.728671 1_555
Ru0_4 Ta2_4 2.728671 1_555
Ru0_4 Ta2_2 2.728671 1_655
Ru0_4 Ta2_0 2.728671 1_655
Ru0_4 Ta1_4 2.803749 1_555
Ru0_4 Ta1_6 2.803749 1_555
Ru0_4 Ta1_2 2.803749 1_655
Ru0_4 Ta1_0 2.803749 1_655
Ru0_4 Ta5_4 3.308651 1_555
Ru0_5 Ta2_7 2.728671 1_555
Ru0_5 Ta2_5 2.728671 1_555
Ru0_5 Ta2_3 2.728671 1_655
Ru0_5 Ta2_1 2.728671 1_655
Ru0_5 Ta1_7 2.803749 1_555
Ru0_5 Ta1_5 2.803749 1_555
Ru0_5 Ta1_1 2.803749 1_655
Ru0_5 Ta1_3 2.803749 1_655
Ru0_5 Ta5_5 3.308651 1_555
Ru0_6 Ta2_6 2.728671 1_555
Ru0_6 Ta2_2 2.728671 1_655
Ru0_6 Ta2_4 2.728671 1_565
Ru0_6 Ta2_0 2.728671 1_665
Ru0_6 Ta1_6 2.803749 1_555
Ru0_6 Ta1_2 2.803749 1_655
Ru0_6 Ta1_4 2.803749 1_565
Ru0_6 Ta1_0 2.803749 1_665
Ru0_6 Ta5_6 3.308651 1_555
Ru0_7 Ta2_7 2.728671 1_555
Ru0_7 Ta2_3 2.728671 1_655
Ru0_7 Ta2_5 2.728671 1_565
Ru0_7 Ta2_1 2.728671 1_665
Ru0_7 Ta1_7 2.803749 1_555
Ru0_7 Ta1_5 2.803749 1_565
Ru0_7 Ta1_3 2.803749 1_655
Ru0_7 Ta1_1 2.803749 1_665
Ru0_7 Ta5_7 3.308651 1_555
Ru1_0 Ta2_0 2.735157 1_555
Ru1_0 Ta2_4 2.735157 1_555
Ru1_0 Ta2_2 2.735157 1_555
Ru1_0 Ta2_6 2.735157 1_555
Ru1_0 Ta3_0 2.743192 1_555
Ru1_0 Ta3_2 2.743192 1_555
Ru1_0 Ta3_6 2.743192 1_555
Ru1_0 Ta3_4 2.743192 1_555
Ru1_1 Ta2_5 2.735157 1_555
Ru1_1 Ta2_3 2.735157 1_555
Ru1_1 Ta2_7 2.735157 1_555
Ru1_1 Ta2_1 2.735157 1_555
Ru1_1 Ta3_3 2.743192 1_555
Ru1_1 Ta3_7 2.743192 1_555
Ru1_1 Ta3_1 2.743192 1_555
Ru1_1 Ta3_5 2.743192 1_555
Ru1_2 Ta2_2 2.735157 1_555
Ru1_2 Ta2_6 2.735157 1_555
Ru1_2 Ta2_0 2.735157 1_565
Ru1_2 Ta2_4 2.735157 1_565
Ru1_2 Ta3_2 2.743192 1_555
Ru1_2 Ta3_6 2.743192 1_555
Ru1_2 Ta3_4 2.743192 1_565
Ru1_2 Ta3_0 2.743192 1_565
Ru1_3 Ta2_3 2.735157 1_555
Ru1_3 Ta2_7 2.735157 1_555
Ru1_3 Ta2_5 2.735157 1_565
Ru1_3 Ta2_1 2.735157 1_565
Ru1_3 Ta3_3 2.743192 1_555
Ru1_3 Ta3_7 2.743192 1_555
Ru1_3 Ta3_5 2.743192 1_565
Ru1_3 Ta3_1 2.743192 1_565
Ru1_4 Ta2_6 2.735157 1_555
Ru1_4 Ta2_4 2.735157 1_555
Ru1_4 Ta2_2 2.735157 1_655
Ru1_4 Ta2_0 2.735157 1_655
Ru1_4 Ta3_6 2.743192 1_555
Ru1_4 Ta3_4 2.743192 1_555
Ru1_4 Ta3_2 2.743192 1_655
Ru1_4 Ta3_0 2.743192 1_655
Ru1_5 Ta2_5 2.735157 1_555
Ru1_5 Ta2_7 2.735157 1_555
Ru1_5 Ta2_3 2.735157 1_655
Ru1_5 Ta2_1 2.735157 1_655
Ru1_5 Ta3_7 2.743192 1_555
Ru1_5 Ta3_5 2.743192 1_555
Ru1_5 Ta3_3 2.743192 1_655
Ru1_5 Ta3_1 2.743192 1_655
Ru1_6 Ta2_6 2.735157 1_555
Ru1_6 Ta2_2 2.735157 1_655
Ru1_6 Ta2_4 2.735157 1_565
Ru1_6 Ta2_0 2.735157 1_665
Ru1_6 Ta3_6 2.743192 1_555
Ru1_6 Ta3_4 2.743192 1_565
Ru1_6 Ta3_2 2.743192 1_655
Ru1_6 Ta3_0 2.743192 1_665
Ru1_7 Ta2_7 2.735157 1_555
Ru1_7 Ta2_3 2.735157 1_655
Ru1_7 Ta2_5 2.735157 1_565
Ru1_7 Ta2_1 2.735157 1_665
Ru1_7 Ta3_7 2.743192 1_555
Ru1_7 Ta3_3 2.743192 1_655
Ru1_7 Ta3_5 2.743192 1_565
Ru1_7 Ta3_1 2.743192 1_665
Ru2_0 Ta4_6 2.735157 1_555
Ru2_0 Ta4_0 2.735157 1_555
Ru2_0 Ta4_4 2.735157 1_555
Ru2_0 Ta4_2 2.735157 1_555
Ru2_0 Ta3_0 2.743192 1_555
Ru2_0 Ta3_2 2.743192 1_555
Ru2_0 Ta3_6 2.743192 1_555
Ru2_0 Ta3_4 2.743192 1_555
Ru2_1 Ta4_5 2.735157 1_555
Ru2_1 Ta4_3 2.735157 1_555
Ru2_1 Ta4_7 2.735157 1_555
Ru2_1 Ta4_1 2.735157 1_555
Ru2_1 Ta3_5 2.743192 1_555
Ru2_1 Ta3_3 2.743192 1_555
Ru2_1 Ta3_7 2.743192 1_555
Ru2_1 Ta3_1 2.743192 1_555
Ru2_2 Ta4_6 2.735157 1_555
Ru2_2 Ta4_2 2.735157 1_555
Ru2_2 Ta4_0 2.735157 1_565
Ru2_2 Ta4_4 2.735157 1_565
Ru2_2 Ta3_2 2.743192 1_555
Ru2_2 Ta3_6 2.743192 1_555
Ru2_2 Ta3_4 2.743192 1_565
Ru2_2 Ta3_0 2.743192 1_565
Ru2_3 Ta4_3 2.735157 1_555
Ru2_3 Ta4_7 2.735157 1_555
Ru2_3 Ta4_5 2.735157 1_565
Ru2_3 Ta4_1 2.735157 1_565
Ru2_3 Ta3_7 2.743192 1_555
Ru2_3 Ta3_3 2.743192 1_555
Ru2_3 Ta3_1 2.743192 1_565
Ru2_3 Ta3_5 2.743192 1_565
Ru2_4 Ta4_6 2.735157 1_555
Ru2_4 Ta4_4 2.735157 1_555
Ru2_4 Ta4_0 2.735157 1_655
Ru2_4 Ta4_2 2.735157 1_655
Ru2_4 Ta3_6 2.743192 1_555
Ru2_4 Ta3_4 2.743192 1_555
Ru2_4 Ta3_2 2.743192 1_655
Ru2_4 Ta3_0 2.743192 1_655
Ru2_5 Ta4_5 2.735157 1_555
Ru2_5 Ta4_7 2.735157 1_555
Ru2_5 Ta4_3 2.735157 1_655
Ru2_5 Ta4_1 2.735157 1_655
Ru2_5 Ta3_7 2.743192 1_555
Ru2_5 Ta3_5 2.743192 1_555
Ru2_5 Ta3_3 2.743192 1_655
Ru2_5 Ta3_1 2.743192 1_655
Ru2_6 Ta4_6 2.735157 1_555
Ru2_6 Ta4_4 2.735157 1_565
Ru2_6 Ta4_2 2.735157 1_655
Ru2_6 Ta4_0 2.735157 1_665
Ru2_6 Ta3_6 2.743192 1_555
Ru2_6 Ta3_4 2.743192 1_565
Ru2_6 Ta3_2 2.743192 1_655
Ru2_6 Ta3_0 2.743192 1_665
Ru2_7 Ta4_7 2.735157 1_555
Ru2_7 Ta4_3 2.735157 1_655
Ru2_7 Ta4_5 2.735157 1_565
Ru2_7 Ta4_1 2.735157 1_665
Ru2_7 Ta3_7 2.743192 1_555
Ru2_7 Ta3_5 2.743192 1_565
Ru2_7 Ta3_3 2.743192 1_655
Ru2_7 Ta3_1 2.743192 1_665
Ru3_0 Ta4_4 2.728671 1_555
Ru3_0 Ta4_0 2.728671 1_555
Ru3_0 Ta4_2 2.728671 1_555
Ru3_0 Ta4_6 2.728671 1_555
Ru3_0 Ta0_4 2.803749 1_555
Ru3_0 Ta0_2 2.803749 1_555
Ru3_0 Ta0_6 2.803749 1_555
Ru3_0 Ta0_0 2.803749 1_555
Ru3_0 Ta5_1 3.308651 1_555
Ru3_1 Ta4_1 2.728671 1_555
Ru3_1 Ta4_7 2.728671 1_555
Ru3_1 Ta4_5 2.728671 1_555
Ru3_1 Ta4_3 2.728671 1_555
Ru3_1 Ta0_1 2.803749 1_555
Ru3_1 Ta0_5 2.803749 1_555
Ru3_1 Ta0_3 2.803749 1_555
Ru3_1 Ta0_7 2.803749 1_555
Ru3_1 Ta5_0 3.308651 1_556
Ru3_2 Ta4_2 2.728671 1_555
Ru3_2 Ta4_6 2.728671 1_555
Ru3_2 Ta4_0 2.728671 1_565
Ru3_2 Ta4_4 2.728671 1_565
Ru3_2 Ta0_2 2.803749 1_555
Ru3_2 Ta0_6 2.803749 1_555
Ru3_2 Ta0_4 2.803749 1_565
Ru3_2 Ta0_0 2.803749 1_565
Ru3_2 Ta5_3 3.308651 1_555
Ru3_3 Ta4_7 2.728671 1_555
Ru3_3 Ta4_3 2.728671 1_555
Ru3_3 Ta4_1 2.728671 1_565
Ru3_3 Ta4_5 2.728671 1_565
Ru3_3 Ta0_3 2.803749 1_555
Ru3_3 Ta0_7 2.803749 1_555
Ru3_3 Ta0_5 2.803749 1_565
Ru3_3 Ta0_1 2.803749 1_565
Ru3_3 Ta5_2 3.308651 1_556
Ru3_4 Ta4_4 2.728671 1_555
Ru3_4 Ta4_6 2.728671 1_555
Ru3_4 Ta4_2 2.728671 1_655
Ru3_4 Ta4_0 2.728671 1_655
Ru3_4 Ta0_6 2.803749 1_555
Ru3_4 Ta0_4 2.803749 1_555
Ru3_4 Ta0_2 2.803749 1_655
Ru3_4 Ta0_0 2.803749 1_655
Ru3_4 Ta5_5 3.308651 1_555
Ru3_5 Ta4_7 2.728671 1_555
Ru3_5 Ta4_5 2.728671 1_555
Ru3_5 Ta4_3 2.728671 1_655
Ru3_5 Ta4_1 2.728671 1_655
Ru3_5 Ta0_7 2.803749 1_555
Ru3_5 Ta0_5 2.803749 1_555
Ru3_5 Ta0_1 2.803749 1_655
Ru3_5 Ta0_3 2.803749 1_655
Ru3_5 Ta5_4 3.308651 1_556
Ru3_6 Ta4_6 2.728671 1_555
Ru3_6 Ta4_2 2.728671 1_655
Ru3_6 Ta4_4 2.728671 1_565
Ru3_6 Ta4_0 2.728671 1_665
Ru3_6 Ta0_6 2.803749 1_555
Ru3_6 Ta0_2 2.803749 1_655
Ru3_6 Ta0_4 2.803749 1_565
Ru3_6 Ta0_0 2.803749 1_665
Ru3_6 Ta5_7 3.308651 1_555
Ru3_7 Ta4_7 2.728671 1_555
Ru3_7 Ta4_3 2.728671 1_655
Ru3_7 Ta4_5 2.728671 1_565
Ru3_7 Ta4_1 2.728671 1_665
Ru3_7 Ta0_7 2.803749 1_555
Ru3_7 Ta0_5 2.803749 1_565
Ru3_7 Ta0_3 2.803749 1_655
Ru3_7 Ta0_1 2.803749 1_665
Ru3_7 Ta5_6 3.308651 1_556
