# generated using pymatgen
data_Eu2MgSe4
_symmetry_space_group_name_H-M   'P 1'
_cell_length_a   8.45696033
_cell_length_b   8.45696033
_cell_length_c   8.45696033
_cell_angle_alpha   60.00000000
_cell_angle_beta   60.00000000
_cell_angle_gamma   60.00000000
_symmetry_Int_Tables_number   1
_chemical_formula_structural   Eu2MgSe4
_chemical_formula_sum   'Eu4 Mg2 Se8'
_cell_volume   427.68880540
_cell_formula_units_Z   2
loop_
 _symmetry_equiv_pos_site_id
 _symmetry_equiv_pos_as_xyz
  1  'x, y, z'
loop_
 _atom_site_type_symbol
 _atom_site_label
 _atom_site_symmetry_multiplicity
 _atom_site_fract_x
 _atom_site_fract_y
 _atom_site_fract_z
 _atom_site_occupancy
  Eu  Eu0  1  0.12500000  0.62500000  0.12500000  1
  Eu  Eu1  1  0.12500000  0.12500000  0.62500000  1
  Eu  Eu2  1  0.62500000  0.12500000  0.12500000  1
  Eu  Eu3  1  0.12500000  0.12500000  0.12500000  1
  Mg  Mg0  1  0.50000000  0.50000000  0.50000000  1
  Mg  Mg1  1  0.75000000  0.75000000  0.75000000  1
  Se  Se0  1  0.87736300  0.87736300  0.87736300  1
  Se  Se1  1  0.36791100  0.87736300  0.87736300  1
  Se  Se2  1  0.87736300  0.36791100  0.87736300  1
  Se  Se3  1  0.87736300  0.87736300  0.36791100  1
  Se  Se4  1  0.37263700  0.37263700  0.88208900  1
  Se  Se5  1  0.37263700  0.88208900  0.37263700  1
  Se  Se6  1  0.88208900  0.37263700  0.37263700  1
  Se  Se7  1  0.37263700  0.37263700  0.37263700  1
loop_
_geom_bond_atom_site_label_1
_geom_bond_atom_site_label_2
_geom_bond_distance
_geom_bond_site_symmetry_2
Eu0 Se7 2.961995 1_555
Eu0 Se6 2.961995 1_455
Eu0 Se1 2.961995 1_554
Eu0 Se0 2.961995 1_454
Eu0 Se3 2.961995 1_455
Eu0 Se4 2.961995 1_554
Eu1 Se7 2.961995 1_555
Eu1 Se1 2.961995 1_545
Eu1 Se2 2.961995 1_455
Eu1 Se6 2.961995 1_455
Eu1 Se5 2.961995 1_545
Eu1 Se0 2.961995 1_445
Eu2 Se7 2.961995 1_555
Eu2 Se0 2.961995 1_544
Eu2 Se5 2.961995 1_545
Eu2 Se2 2.961995 1_554
Eu2 Se3 2.961995 1_545
Eu2 Se4 2.961995 1_554
Eu3 Se3 2.961995 1_445
Eu3 Se2 2.961995 1_454
Eu3 Se6 2.961995 1_455
Eu3 Se4 2.961995 1_554
Eu3 Se5 2.961995 1_545
Eu3 Se1 2.961995 1_544
Mg0 Se5 2.638355 1_555
Mg0 Se4 2.638355 1_555
Mg0 Se6 2.638355 1_555
Mg0 Se7 2.638355 1_555
Mg1 Se2 2.638355 1_555
Mg1 Se3 2.638355 1_555
Mg1 Se0 2.638355 1_555
Mg1 Se1 2.638355 1_555
