# generated using pymatgen
data_YbBi2
_symmetry_space_group_name_H-M   'P 1'
_cell_length_a   8.86897864
_cell_length_b   8.86897864
_cell_length_c   4.59221226
_cell_angle_alpha   90.00000000
_cell_angle_beta   90.00000000
_cell_angle_gamma   151.19246790
_symmetry_Int_Tables_number   1
_chemical_formula_structural   YbBi2
_chemical_formula_sum   'Yb2 Bi4'
_cell_volume   174.05962428
_cell_formula_units_Z   2
loop_
 _symmetry_equiv_pos_site_id
 _symmetry_equiv_pos_as_xyz
  1  'x, y, z'
loop_
 _atom_site_type_symbol
 _atom_site_label
 _atom_site_symmetry_multiplicity
 _atom_site_fract_x
 _atom_site_fract_y
 _atom_site_fract_z
 _atom_site_occupancy
  Yb  Yb0  1  0.60349265  0.39650735  0.25000000  1
  Yb  Yb1  1  0.39650735  0.60349265  0.75000000  1
  Bi  Bi0  1  0.92777900  0.07222100  0.25000000  1
  Bi  Bi1  1  0.07222100  0.92777900  0.75000000  1
  Bi  Bi2  1  0.24951978  0.75048022  0.25000000  1
  Bi  Bi3  1  0.75048022  0.24951978  0.75000000  1
loop_
_geom_bond_atom_site_label_1
_geom_bond_atom_site_label_2
_geom_bond_distance
_geom_bond_site_symmetry_2
Bi0 Yb1 3.229245 1_544
Bi0 Yb1 3.229245 1_545
Bi0 Yb1 3.229245 1_655
Bi0 Yb1 3.229245 1_654
Bi0 Bi1 3.380872 1_645
Bi0 Bi1 3.380872 1_644
Bi0 Yb0 3.739065 1_545
Bi0 Yb0 3.739065 1_655
Bi1 Yb0 3.229245 1_565
Bi1 Yb0 3.229245 1_566
Bi1 Yb0 3.229245 1_455
Bi1 Yb0 3.229245 1_456
Bi1 Yb1 3.739065 1_455
Bi1 Yb1 3.739065 1_565
Bi2 Bi3 3.184282 1_565
Bi2 Bi3 3.184282 1_564
Bi2 Bi3 3.184282 1_455
Bi2 Bi3 3.184282 1_454
Bi2 Yb0 3.340864 1_455
Bi2 Yb0 3.340864 1_565
Bi2 Yb1 3.413102 1_555
Bi2 Yb1 3.413102 1_554
Bi3 Yb1 3.340864 1_655
Bi3 Yb1 3.340864 1_545
Bi3 Yb0 3.413102 1_555
Bi3 Yb0 3.413102 1_556
