# generated using pymatgen
data_Sr4CeNd3Nb2(CuO5)4
_symmetry_space_group_name_H-M   'P 1'
_cell_length_a   14.79924348
_cell_length_b   14.79924348
_cell_length_c   5.59015800
_cell_angle_alpha   90.00000000
_cell_angle_beta   90.00000000
_cell_angle_gamma   158.22835104
_symmetry_Int_Tables_number   1
_chemical_formula_structural   Sr4CeNd3Nb2(CuO5)4
_chemical_formula_sum   'Sr4 Ce1 Nd3 Nb2 Cu4 O20'
_cell_volume   454.11906286
_cell_formula_units_Z   1
loop_
 _symmetry_equiv_pos_site_id
 _symmetry_equiv_pos_as_xyz
  1  'x, y, z'
loop_
 _atom_site_type_symbol
 _atom_site_label
 _atom_site_symmetry_multiplicity
 _atom_site_fract_x
 _atom_site_fract_y
 _atom_site_fract_z
 _atom_site_occupancy
  Sr  Sr0  1  0.08107400  0.91892600  0.50000000  1
  Sr  Sr1  1  0.58189500  0.41810500  0.00000000  1
  Sr  Sr2  1  0.41831000  0.58169000  0.00000000  1
  Sr  Sr3  1  0.91830800  0.08169200  0.50000000  1
  Ce  Ce0  1  0.70809100  0.29190900  0.00000000  1
  Nd  Nd0  1  0.20503500  0.79496500  0.50000000  1
  Nd  Nd1  1  0.79422400  0.20577600  0.50000000  1
  Nd  Nd2  1  0.29421900  0.70578100  0.00000000  1
  Nb  Nb0  1  0.49995400  0.50004600  0.50000000  1
  Nb  Nb1  1  0.99995400  0.00004600  0.00000000  1
  Cu  Cu0  1  0.14279100  0.85720900  0.00000000  1
  Cu  Cu1  1  0.64269200  0.35730800  0.50000000  1
  Cu  Cu2  1  0.35755900  0.64244100  0.50000000  1
  Cu  Cu3  1  0.85764700  0.14235300  0.00000000  1
  O  O0  1  0.06836800  0.93163200  0.00000000  1
  O  O1  1  0.56844400  0.43155600  0.50000000  1
  O  O2  1  0.43187100  0.56812900  0.50000000  1
  O  O3  1  0.93178500  0.06821500  0.00000000  1
  O  O4  1  0.40021500  0.10448200  0.75304800  1
  O  O5  1  0.89551800  0.59978500  0.24695200  1
  O  O6  1  0.89551800  0.59978500  0.75304800  1
  O  O7  1  0.40021500  0.10448200  0.24695200  1
  O  O8  1  0.10315200  0.39724800  0.74963700  1
  O  O9  1  0.60275200  0.89684800  0.25036300  1
  O  O10  1  0.60275200  0.89684800  0.74963700  1
  O  O11  1  0.10315200  0.39724800  0.25036300  1
  O  O12  1  0.50463400  0.00763400  0.75610400  1
  O  O13  1  0.99236600  0.49536600  0.24389600  1
  O  O14  1  0.99236600  0.49536600  0.75610400  1
  O  O15  1  0.50463400  0.00763400  0.24389600  1
  O  O16  1  0.24994100  0.24968700  0.74988100  1
  O  O17  1  0.75031300  0.75005900  0.25011900  1
  O  O18  1  0.75031300  0.75005900  0.74988100  1
  O  O19  1  0.24994100  0.24968700  0.25011900  1
loop_
_geom_bond_atom_site_label_1
_geom_bond_atom_site_label_2
_geom_bond_distance
_geom_bond_site_symmetry_2
Ce0 O13 2.257562 1_555
Ce0 O14 2.257562 1_554
Ce0 O12 2.257562 1_554
Ce0 O15 2.257562 1_555
Ce0 O7 2.624170 1_555
Ce0 O4 2.624170 1_554
Ce0 O5 2.624170 1_555
Ce0 O6 2.624170 1_554
Nd0 O13 2.386533 1_455
Nd0 O14 2.386533 1_455
Nd0 O15 2.386533 1_565
Nd0 O12 2.386533 1_565
Nd0 O4 2.598425 1_565
Nd0 O7 2.598425 1_565
Nd0 O6 2.598425 1_455
Nd0 O5 2.598425 1_455
Nd1 O15 2.382036 1_555
Nd1 O12 2.382036 1_555
Nd1 O13 2.382036 1_555
Nd1 O14 2.382036 1_555
Nd1 O9 2.610975 1_545
Nd1 O10 2.610975 1_545
Nd1 O11 2.610975 1_655
Nd1 O8 2.610975 1_655
Nd2 O12 2.382146 1_564
Nd2 O15 2.382146 1_565
Nd2 O13 2.382146 1_455
Nd2 O14 2.382146 1_454
Nd2 O9 2.612045 1_555
Nd2 O11 2.612045 1_555
Nd2 O8 2.612045 1_554
Nd2 O10 2.612045 1_554
Nb0 O19 1.976618 1_555
Nb0 O16 1.976618 1_555
Nb0 O18 1.976618 1_555
Nb0 O17 1.976618 1_555
Nb0 O2 1.978892 1_555
Nb0 O1 1.990722 1_555
Nb1 O19 1.976089 1_655
Nb1 O16 1.976089 1_654
Nb1 O18 1.976089 1_544
Nb1 O17 1.976089 1_545
Nb1 O3 1.981392 1_555
Nb1 O0 1.988513 1_645
Cu0 O7 1.979201 1_565
Cu0 O5 1.979201 1_455
Cu0 O4 1.979201 1_564
Cu0 O6 1.979201 1_454
Cu0 O0 2.163170 1_555
Cu1 O4 1.984935 1_555
Cu1 O6 1.984935 1_555
Cu1 O7 1.984935 1_555
Cu1 O5 1.984935 1_555
Cu1 O1 2.158083 1_555
Cu2 O11 1.978658 1_555
Cu2 O8 1.978658 1_555
Cu2 O10 1.978658 1_555
Cu2 O9 1.978658 1_555
Cu2 O2 2.159943 1_555
Cu3 O10 1.983273 1_544
Cu3 O9 1.983273 1_545
Cu3 O8 1.983273 1_654
Cu3 O11 1.983273 1_655
Cu3 O3 2.154886 1_555
O0 Sr0 2.819372 1_555
O0 Sr0 2.819372 1_554
O0 Sr1 2.822394 1_565
O0 Sr1 2.822394 1_455
O1 Sr0 2.818880 1_655
O1 Sr0 2.818880 1_545
O1 Sr1 2.822290 1_556
O1 Sr1 2.822290 1_555
O2 Sr3 2.822540 1_455
O2 Sr3 2.822540 1_565
O2 Sr2 2.822735 1_556
O2 Sr2 2.822735 1_555
O3 Sr2 2.822184 1_545
O3 Sr2 2.822184 1_655
O3 Sr3 2.822395 1_555
O3 Sr3 2.822395 1_554
O4 Sr1 2.738426 1_556
O4 Sr0 2.785622 1_545
O5 Sr1 2.738426 1_555
O5 Sr0 2.785622 1_655
O6 Sr1 2.738426 1_556
O6 Sr0 2.785622 1_655
O7 Sr1 2.738426 1_555
O7 Sr0 2.785622 1_545
O8 Sr3 2.740802 1_455
O8 Sr2 2.741772 1_556
O9 Sr3 2.740802 1_565
O9 Sr2 2.741772 1_555
O10 Sr3 2.740802 1_565
O10 Sr2 2.741772 1_556
O11 Sr3 2.740802 1_455
O11 Sr2 2.741772 1_555
O16 Sr0 3.071942 1_545
O16 Sr3 3.091397 1_455
O16 Sr1 3.091799 1_556
O16 Sr2 3.092894 1_556
O17 Sr0 3.071942 1_655
O17 Sr3 3.091397 1_565
O17 Sr1 3.091799 1_555
O17 Sr2 3.092894 1_555
O18 Sr0 3.071942 1_655
O18 Sr3 3.091397 1_565
O18 Sr1 3.091799 1_556
O18 Sr2 3.092894 1_556
O19 Sr0 3.071942 1_545
O19 Sr3 3.091397 1_455
O19 Sr1 3.091799 1_555
O19 Sr2 3.092894 1_555
