# generated using pymatgen
data_Al3P3H7O12
_symmetry_space_group_name_H-M   'P 1'
_cell_length_a   8.51977058
_cell_length_b   18.99039765
_cell_length_c   18.99039765
_cell_angle_alpha   119.99999678
_cell_angle_beta   90.00000000
_cell_angle_gamma   90.00000000
_symmetry_Int_Tables_number   1
_chemical_formula_structural   Al3P3H7O12
_chemical_formula_sum   'Al18 P18 H42 O72'
_cell_volume   2660.88842177
_cell_formula_units_Z   6
loop_
 _symmetry_equiv_pos_site_id
 _symmetry_equiv_pos_as_xyz
  1  'x, y, z'
loop_
 _atom_site_type_symbol
 _atom_site_label
 _atom_site_symmetry_multiplicity
 _atom_site_fract_x
 _atom_site_fract_y
 _atom_site_fract_z
 _atom_site_occupancy
  Al  Al0  1  0.69511559  0.48028862  0.82883334  1
  Al  Al1  1  0.69511559  0.34854473  0.51971138  1
  Al  Al2  1  0.19511559  0.51971138  0.17116666  1
  Al  Al3  1  0.69511559  0.17116666  0.65145527  1
  Al  Al4  1  0.19511559  0.65145527  0.48028862  1
  Al  Al5  1  0.19511559  0.82883334  0.34854473  1
  Al  Al6  1  0.69738404  0.65747142  0.17087721  1
  Al  Al7  1  0.69738404  0.51340578  0.34252858  1
  Al  Al8  1  0.19738404  0.34252858  0.82912279  1
  Al  Al9  1  0.69738404  0.82912279  0.48659422  1
  Al  Al10  1  0.19738404  0.48659422  0.65747142  1
  Al  Al11  1  0.19738404  0.17087721  0.51340578  1
  Al  Al12  1  0.72598711  0.59791411  0.59510802  1
  Al  Al13  1  0.72598711  0.99719391  0.40208589  1
  Al  Al14  1  0.22598711  0.40208589  0.40489198  1
  Al  Al15  1  0.72598711  0.40489198  0.00280609  1
  Al  Al16  1  0.22598711  0.00280609  0.59791411  1
  Al  Al17  1  0.22598711  0.59510802  0.99719391  1
  P  P0  1  0.82065601  0.50539893  0.68415773  1
  P  P1  1  0.82065601  0.17875880  0.49460107  1
  P  P2  1  0.32065601  0.49460107  0.31584227  1
  P  P3  1  0.82065601  0.31584227  0.82124120  1
  P  P4  1  0.32065601  0.82124120  0.50539893  1
  P  P5  1  0.32065601  0.68415773  0.17875880  1
  P  P6  1  0.85236070  0.43918458  0.44063030  1
  P  P7  1  0.85236070  0.00144572  0.56081542  1
  P  P8  1  0.35236070  0.56081542  0.55936970  1
  P  P9  1  0.85236070  0.55936970  0.99855428  1
  P  P10  1  0.35236070  0.99855428  0.43918458  1
  P  P11  1  0.35236070  0.44063030  0.00144572  1
  P  P12  1  0.81888996  0.81971400  0.32504552  1
  P  P13  1  0.81888996  0.50533152  0.18028600  1
  P  P14  1  0.31888996  0.18028600  0.67495448  1
  P  P15  1  0.81888996  0.67495448  0.49466848  1
  P  P16  1  0.31888996  0.49466848  0.81971400  1
  P  P17  1  0.31888996  0.32504552  0.50533152  1
  H  H0  1  0.65907521  0.99887710  0.28325612  1
  H  H1  1  0.65907521  0.28437903  0.00112290  1
  H  H2  1  0.15907521  0.00112290  0.71674388  1
  H  H3  1  0.65907521  0.71674388  0.71562097  1
  H  H4  1  0.15907521  0.71562097  0.99887710  1
  H  H5  1  0.15907521  0.28325612  0.28437903  1
  H  H6  1  0.95284919  0.94992100  0.07690334  1
  H  H7  1  0.95284919  0.12698234  0.05007900  1
  H  H8  1  0.45284919  0.05007900  0.92309666  1
  H  H9  1  0.95284919  0.92309666  0.87301766  1
  H  H10  1  0.45284919  0.87301766  0.94992100  1
  H  H11  1  0.45284919  0.07690334  0.12698234  1
  H  H12  1  0.95069003  0.81282501  0.13262575  1
  H  H13  1  0.95069003  0.31980073  0.18717499  1
  H  H14  1  0.45069003  0.18717499  0.86737425  1
  H  H15  1  0.95069003  0.86737425  0.68019927  1
  H  H16  1  0.45069003  0.68019927  0.81282501  1
  H  H17  1  0.45069003  0.13262575  0.31980073  1
  H  H18  1  0.98257274  0.68230727  0.86076903  1
  H  H19  1  0.98257274  0.17846176  0.31769273  1
  H  H20  1  0.48257274  0.31769273  0.13923097  1
  H  H21  1  0.98257274  0.13923097  0.82153824  1
  H  H22  1  0.48257274  0.82153824  0.68230727  1
  H  H23  1  0.48257274  0.86076903  0.17846176  1
  H  H24  1  0.70164292  0.75893783  0.95229675  1
  H  H25  1  0.70164292  0.19335892  0.24106217  1
  H  H26  1  0.20164292  0.24106217  0.04770325  1
  H  H27  1  0.70164292  0.04770325  0.80664108  1
  H  H28  1  0.20164292  0.80664108  0.75893783  1
  H  H29  1  0.20164292  0.95229675  0.19335892  1
  H  H30  1  0.97941780  0.99961378  0.33599168  1
  H  H31  1  0.97941780  0.33637790  0.00038622  1
  H  H32  1  0.47941780  0.00038622  0.66400832  1
  H  H33  1  0.97941780  0.66400832  0.66362210  1
  H  H34  1  0.47941780  0.66362210  0.99961378  1
  H  H35  1  0.47941780  0.33599168  0.33637790  1
  H  H36  1  0.94837106  0.95075831  0.11679657  1
  H  H37  1  0.94837106  0.16603826  0.04924169  1
  H  H38  1  0.44837106  0.04924169  0.88320343  1
  H  H39  1  0.94837106  0.88320343  0.83396174  1
  H  H40  1  0.44837106  0.83396174  0.95075831  1
  H  H41  1  0.44837106  0.11679657  0.16603826  1
  O  O0  1  0.71218510  0.81079888  0.38615304  1
  O  O1  1  0.71218510  0.57535416  0.18920112  1
  O  O2  1  0.21218510  0.18920112  0.61384696  1
  O  O3  1  0.71218510  0.61384696  0.42464584  1
  O  O4  1  0.21218510  0.42464584  0.81079888  1
  O  O5  1  0.21218510  0.38615304  0.57535416  1
  O  O6  1  0.52439721  0.98881177  0.41293961  1
  O  O7  1  0.52439721  0.42412783  0.01118823  1
  O  O8  1  0.02439721  0.01118823  0.58706039  1
  O  O9  1  0.52439721  0.58706039  0.57587217  1
  O  O10  1  0.02439721  0.57587217  0.98881177  1
  O  O11  1  0.02439721  0.41293961  0.42412783  1
  O  O12  1  0.74959609  0.57625554  0.67602795  1
  O  O13  1  0.74959609  0.09977241  0.42374446  1
  O  O14  1  0.24959609  0.42374446  0.32397205  1
  O  O15  1  0.74959609  0.32397205  0.90022759  1
  O  O16  1  0.24959609  0.90022759  0.57625554  1
  O  O17  1  0.24959609  0.67602795  0.09977241  1
  O  O18  1  0.78462830  0.62960191  0.07715836  1
  O  O19  1  0.78462830  0.44755645  0.37039809  1
  O  O20  1  0.28462830  0.37039809  0.92284164  1
  O  O21  1  0.78462830  0.92284164  0.55244355  1
  O  O22  1  0.28462830  0.55244355  0.62960191  1
  O  O23  1  0.28462830  0.07715836  0.44755645  1
  O  O24  1  0.79811841  0.74476927  0.24077802  1
  O  O25  1  0.79811841  0.49600875  0.25523073  1
  O  O26  1  0.29811841  0.25523073  0.75922198  1
  O  O27  1  0.79811841  0.75922198  0.50399125  1
  O  O28  1  0.29811841  0.50399125  0.74476927  1
  O  O29  1  0.29811841  0.24077802  0.49600875  1
  O  O30  1  0.77371571  0.89690719  0.32110469  1
  O  O31  1  0.77371571  0.42419751  0.10309281  1
  O  O32  1  0.27371571  0.10309281  0.67889531  1
  O  O33  1  0.77371571  0.67889531  0.57580249  1
  O  O34  1  0.27371571  0.57580249  0.89690719  1
  O  O35  1  0.27371571  0.32110469  0.42419751  1
  O  O36  1  0.75508504  0.55228522  0.92720010  1
  O  O37  1  0.75508504  0.37491488  0.44771478  1
  O  O38  1  0.25508504  0.44771478  0.07279990  1
  O  O39  1  0.75508504  0.07279990  0.62508512  1
  O  O40  1  0.25508504  0.62508512  0.55228522  1
  O  O41  1  0.25508504  0.92720010  0.37491488  1
  O  O42  1  0.76500795  0.42163061  0.61572819  1
  O  O43  1  0.76500795  0.19409758  0.57836939  1
  O  O44  1  0.26500795  0.57836939  0.38427181  1
  O  O45  1  0.76500795  0.38427181  0.80590242  1
  O  O46  1  0.26500795  0.80590242  0.42163061  1
  O  O47  1  0.26500795  0.61572819  0.19409758  1
  O  O48  1  0.84555550  0.99986639  0.47911148  1
  O  O49  1  0.84555550  0.47924509  0.00013361  1
  O  O50  1  0.34555550  0.00013361  0.52088852  1
  O  O51  1  0.84555550  0.52088852  0.52075491  1
  O  O52  1  0.34555550  0.52075491  0.99986639  1
  O  O53  1  0.34555550  0.47911148  0.47924509  1
  O  O54  1  0.76771275  0.51506859  0.76564887  1
  O  O55  1  0.76771275  0.25058029  0.48493141  1
  O  O56  1  0.26771275  0.48493141  0.23435113  1
  O  O57  1  0.76771275  0.23435113  0.74941971  1
  O  O58  1  0.26771275  0.74941971  0.51506859  1
  O  O59  1  0.26771275  0.76564887  0.25058029  1
  O  O60  1  0.99073204  0.82412012  0.35138111  1
  O  O61  1  0.99073204  0.52726099  0.17587988  1
  O  O62  1  0.49073204  0.17587988  0.64861889  1
  O  O63  1  0.99073204  0.64861889  0.47273901  1
  O  O64  1  0.49073204  0.47273901  0.82412012  1
  O  O65  1  0.49073204  0.35138111  0.52726099  1
  O  O66  1  0.00025354  0.51006493  0.68267893  1
  O  O67  1  0.00025354  0.17261400  0.48993507  1
  O  O68  1  0.50025354  0.48993507  0.31732107  1
  O  O69  1  0.00025354  0.31732107  0.82738600  1
  O  O70  1  0.50025354  0.82738600  0.51006493  1
  O  O71  1  0.50025354  0.68267893  0.17261400  1
loop_
_geom_bond_atom_site_label_1
_geom_bond_atom_site_label_2
_geom_bond_distance
_geom_bond_site_symmetry_2
Al0 O64 1.745813 1_555
Al0 O54 1.746731 1_555
Al0 O36 1.750963 1_555
Al0 O45 1.753557 1_555
Al1 O65 1.745813 1_555
Al1 O55 1.746731 1_555
Al1 O37 1.750963 1_555
Al1 O42 1.753557 1_555
Al2 O61 1.745813 1_455
Al2 O56 1.746731 1_555
Al2 O38 1.750963 1_555
Al2 O47 1.753557 1_555
Al3 O62 1.745813 1_555
Al3 O57 1.746731 1_555
Al3 O39 1.750963 1_555
Al3 O43 1.753556 1_555
Al4 O63 1.745813 1_455
Al4 O58 1.746731 1_555
Al4 O40 1.750963 1_555
Al4 O44 1.753557 1_555
Al5 O60 1.745813 1_455
Al5 O59 1.746731 1_555
Al5 O41 1.750963 1_555
Al5 O46 1.753556 1_555
Al6 O71 1.742181 1_555
Al6 O24 1.745388 1_555
Al6 O18 1.748772 1_555
Al6 O1 1.763942 1_555
Al7 O68 1.742181 1_555
Al7 O25 1.745388 1_555
Al7 O19 1.748771 1_555
Al7 O3 1.763943 1_555
Al8 O69 1.742181 1_555
Al8 O26 1.745388 1_555
Al8 O20 1.748772 1_555
Al8 O4 1.763942 1_555
Al9 O70 1.742181 1_555
Al9 O27 1.745388 1_555
Al9 O21 1.748772 1_555
Al9 O0 1.763943 1_555
Al10 O66 1.742181 1_555
Al10 O28 1.745388 1_555
Al10 O22 1.748771 1_555
Al10 O5 1.763943 1_555
Al11 O67 1.742181 1_555
Al11 O29 1.745388 1_555
Al11 O23 1.748772 1_555
Al11 O2 1.763943 1_555
Al12 O9 1.746550 1_555
Al12 O51 1.762302 1_555
Al12 O12 1.789730 1_555
Al12 O33 1.796832 1_555
Al13 O6 1.746550 1_555
Al13 O48 1.762302 1_555
Al13 O13 1.789730 1_565
Al13 O30 1.796832 1_555
Al14 O11 1.746550 1_555
Al14 O53 1.762302 1_555
Al14 O14 1.789730 1_555
Al14 O35 1.796832 1_555
Al15 O7 1.746550 1_555
Al15 O49 1.762302 1_555
Al15 O15 1.789731 1_554
Al15 O31 1.796832 1_555
Al16 O8 1.746550 1_555
Al16 O50 1.762302 1_555
Al16 O16 1.789730 1_545
Al16 O32 1.796832 1_555
Al17 O10 1.746550 1_555
Al17 O52 1.762302 1_555
Al17 O17 1.789731 1_556
Al17 O34 1.796832 1_555
H10 H40 0.750734 1_555
H11 H41 0.750734 1_555
H36 H6 0.750734 1_555
H37 H7 0.750734 1_555
H38 H8 0.750734 1_555
H39 H9 0.750734 1_555
O0 P12 1.548629 1_555
O1 P13 1.548629 1_555
O2 P14 1.548629 1_555
O3 P15 1.548629 1_555
O4 P16 1.548629 1_555
O5 P17 1.548629 1_555
O6 P10 1.529292 1_555
O7 P11 1.529292 1_555
O8 P7 1.529292 1_455
O9 P8 1.529292 1_555
O10 P9 1.529292 1_455
O11 P6 1.529292 1_455
O12 P0 1.552009 1_555
O13 P1 1.552009 1_555
O14 P2 1.552009 1_555
O15 P3 1.552009 1_555
O16 P4 1.552009 1_555
O17 P5 1.552009 1_555
O18 P9 1.532704 1_554
O19 P6 1.532704 1_555
O20 P11 1.532704 1_556
O21 P7 1.532704 1_565
O22 P8 1.532704 1_555
O23 P10 1.532704 1_545
O24 P12 1.529778 1_555
O25 P13 1.529778 1_555
O26 P14 1.529778 1_555
O27 P15 1.529778 1_555
O28 P16 1.529778 1_555
O29 P17 1.529778 1_555
O30 P12 1.553185 1_555
O31 P13 1.553185 1_555
O32 P14 1.553185 1_555
O33 P15 1.553185 1_555
O34 P16 1.553185 1_555
O35 P17 1.553185 1_555
O36 P9 1.535837 1_555
O37 P6 1.535837 1_555
O38 P11 1.535837 1_555
O39 P7 1.535837 1_555
O40 P8 1.535837 1_555
O41 P10 1.535837 1_555
O42 P0 1.541711 1_555
O43 P1 1.541711 1_555
O44 P2 1.541711 1_555
O45 P3 1.541711 1_555
O46 P4 1.541711 1_555
O47 P5 1.541711 1_555
O48 P7 1.537907 1_565
O49 P9 1.537907 1_554
O50 P10 1.537907 1_545
O51 P6 1.537907 1_555
O52 P11 1.537907 1_556
O53 P8 1.537907 1_555
O54 P0 1.532289 1_555
O55 P1 1.532289 1_555
O56 P2 1.532289 1_555
O57 P3 1.532289 1_555
O58 P4 1.532289 1_555
O59 P5 1.532289 1_555
O60 P12 1.535817 1_555
O61 P13 1.535817 1_555
O62 P14 1.535817 1_555
O63 P15 1.535817 1_555
O64 P16 1.535817 1_555
O65 P17 1.535817 1_555
O66 P0 1.533762 1_455
O67 P1 1.533762 1_455
O68 P2 1.533762 1_555
O69 P3 1.533762 1_455
O70 P4 1.533762 1_555
O71 P5 1.533762 1_555
