# generated using pymatgen
data_LiAl4Zn2O8
_symmetry_space_group_name_H-M   'P 1'
_cell_length_a   6.23640505
_cell_length_b   5.69529958
_cell_length_c   6.23640625
_cell_angle_alpha   62.83097453
_cell_angle_beta   55.25511089
_cell_angle_gamma   62.83096464
_symmetry_Int_Tables_number   1
_chemical_formula_structural   LiAl4Zn2O8
_chemical_formula_sum   'Li1 Al4 Zn2 O8'
_cell_volume   155.97633251
_cell_formula_units_Z   1
loop_
 _symmetry_equiv_pos_site_id
 _symmetry_equiv_pos_as_xyz
  1  'x, y, z'
loop_
 _atom_site_type_symbol
 _atom_site_label
 _atom_site_symmetry_multiplicity
 _atom_site_fract_x
 _atom_site_fract_y
 _atom_site_fract_z
 _atom_site_occupancy
  Li  Li0  1  0.66276900  0.08723100  0.66276900  1
  Al  Al0  1  0.12020800  0.12979200  0.12020800  1
  Al  Al1  1  0.44850500  0.55608400  0.44850500  1
  Al  Al2  1  0.44850500  0.04690500  0.44850500  1
  Al  Al3  1  0.90525100  0.84474900  0.90525100  1
  Zn  Zn0  1  0.96083900  0.52132300  0.49651400  1
  Zn  Zn1  1  0.49651400  0.52132300  0.96083900  1
  O  O0  1  0.25196600  0.24165400  0.25196600  1
  O  O1  1  0.29686700  0.23661300  0.72990700  1
  O  O2  1  0.25196600  0.75441500  0.25196600  1
  O  O3  1  0.72990700  0.23661300  0.29686700  1
  O  O4  1  0.27846000  0.75705900  0.70742100  1
  O  O5  1  0.78811900  0.20694800  0.78811900  1
  O  O6  1  0.70742100  0.75705900  0.27846000  1
  O  O7  1  0.78811900  0.71681300  0.78811900  1
loop_
_geom_bond_atom_site_label_1
_geom_bond_atom_site_label_2
_geom_bond_distance
_geom_bond_site_symmetry_2
Li0 O5 1.832262 1_555
Li0 O7 1.832266 1_545
Li0 O1 1.889330 1_555
Li0 O3 1.889330 1_555
Al0 O2 1.866008 1_545
Al0 O0 1.866012 1_555
Al0 O3 1.926576 1_455
Al0 O1 1.926576 1_554
Al1 O2 1.861252 1_555
Al1 O6 1.915604 1_555
Al1 O4 1.915604 1_555
Al1 O3 2.012027 1_555
Al1 O1 2.012028 1_555
Al2 O0 1.861252 1_555
Al2 O6 1.915604 1_545
Al2 O4 1.915604 1_545
Al2 O3 2.012031 1_555
Al2 O1 2.012031 1_555
Al3 O5 1.782828 1_565
Al3 O7 1.782832 1_555
Al3 O4 1.848456 1_655
Al3 O6 1.848456 1_556
O0 Zn0 2.140227 1_455
O0 Zn1 2.140227 1_554
O2 Zn1 2.140235 1_554
O2 Zn0 2.140235 1_455
O4 Zn1 2.234761 1_555
O5 Zn1 2.056229 1_555
O5 Zn0 2.056229 1_555
O6 Zn0 2.234761 1_555
O7 Zn1 2.056229 1_555
O7 Zn0 2.056229 1_555
