# generated using pymatgen
data_RbTa(BO3)2
_symmetry_space_group_name_H-M   'P 1'
_cell_length_a   3.93750400
_cell_length_b   7.57800200
_cell_length_c   9.87155400
_cell_angle_alpha   90.00000000
_cell_angle_beta   90.00000000
_cell_angle_gamma   90.00000000
_symmetry_Int_Tables_number   1
_chemical_formula_structural   RbTa(BO3)2
_chemical_formula_sum   'Rb2 Ta2 B4 O12'
_cell_volume   294.55150705
_cell_formula_units_Z   2
loop_
 _symmetry_equiv_pos_site_id
 _symmetry_equiv_pos_as_xyz
  1  'x, y, z'
loop_
 _atom_site_type_symbol
 _atom_site_label
 _atom_site_symmetry_multiplicity
 _atom_site_fract_x
 _atom_site_fract_y
 _atom_site_fract_z
 _atom_site_occupancy
  Rb  Rb0  1  0.56558200  0.00000000  0.60836900  1
  Rb  Rb1  1  0.43441800  0.50000000  0.10836900  1
  Ta  Ta0  1  0.90738600  0.00000000  0.00248700  1
  Ta  Ta1  1  0.09261400  0.50000000  0.50248700  1
  B  B0  1  0.98982300  0.66441000  0.78985700  1
  B  B1  1  0.01017700  0.83559000  0.28985700  1
  B  B2  1  0.01017700  0.16441000  0.28985700  1
  B  B3  1  0.98982300  0.33559000  0.78985700  1
  O  O0  1  0.94200900  0.82013500  0.15506500  1
  O  O1  1  0.05799100  0.67986500  0.65506500  1
  O  O2  1  0.05799100  0.32013500  0.65506500  1
  O  O3  1  0.94200900  0.17986500  0.15506500  1
  O  O4  1  0.03196600  0.00000000  0.35580600  1
  O  O5  1  0.96803400  0.50000000  0.85580600  1
  O  O6  1  0.43130600  0.00000000  0.00213300  1
  O  O7  1  0.56869400  0.50000000  0.50213300  1
  O  O8  1  0.93515000  0.81044100  0.86699100  1
  O  O9  1  0.06485000  0.68955900  0.36699100  1
  O  O10  1  0.06485000  0.31044100  0.36699100  1
  O  O11  1  0.93515000  0.18955900  0.86699100  1
loop_
_geom_bond_atom_site_label_1
_geom_bond_atom_site_label_2
_geom_bond_distance
_geom_bond_site_symmetry_2
B0 O8 1.360418 1_555
B0 O1 1.362452 1_655
B0 O5 1.408351 1_555
B1 O9 1.360418 1_555
B1 O0 1.362452 1_455
B1 O4 1.408351 1_565
B2 O10 1.360418 1_555
B2 O3 1.362452 1_455
B2 O4 1.408351 1_555
B3 O11 1.360418 1_555
B3 O2 1.362452 1_655
B3 O5 1.408351 1_555
O0 Ta0 2.035924 1_565
O0 Rb1 3.139597 1_655
O0 Rb1 3.176862 1_555
O1 Ta1 2.035924 1_555
O1 Rb0 3.139597 1_465
O1 Rb0 3.176862 1_565
O2 Ta1 2.035924 1_555
O2 Rb0 3.139597 1_455
O2 Rb0 3.176862 1_555
O3 Ta0 2.035924 1_555
O3 Rb1 3.139597 1_655
O3 Rb1 3.176862 1_555
O4 Rb0 3.096501 1_455
O4 Rb0 3.260472 1_555
O5 Rb1 3.096501 1_656
O5 Rb1 3.260472 1_556
O6 Ta0 1.874570 1_555
O6 Ta0 2.062940 1_455
O7 Ta1 1.874570 1_555
O7 Ta1 2.062940 1_655
O8 Ta0 1.965827 1_566
O8 Rb0 3.270905 1_565
O9 Ta1 1.965827 1_555
O9 Rb1 3.270905 1_555
O10 Ta1 1.965827 1_555
O10 Rb1 3.270905 1_555
O11 Ta0 1.965827 1_556
O11 Rb0 3.270905 1_555
