# generated using pymatgen
data_As2PHCl3F11
_symmetry_space_group_name_H-M   'P 1'
_cell_length_a   24.63702900
_cell_length_b   8.75719100
_cell_length_c   12.20664900
_cell_angle_alpha   90.00000000
_cell_angle_beta   90.00000000
_cell_angle_gamma   90.00000000
_symmetry_Int_Tables_number   1
_chemical_formula_structural   As2PHCl3F11
_chemical_formula_sum   'As16 P8 H8 Cl24 F88'
_cell_volume   2633.59878675
_cell_formula_units_Z   8
loop_
 _symmetry_equiv_pos_site_id
 _symmetry_equiv_pos_as_xyz
  1  'x, y, z'
loop_
 _atom_site_type_symbol
 _atom_site_label
 _atom_site_symmetry_multiplicity
 _atom_site_fract_x
 _atom_site_fract_y
 _atom_site_fract_z
 _atom_site_occupancy
  As  As0  1  0.83646900  0.25000000  0.62270000  1
  As  As1  1  0.33646900  0.25000000  0.87730000  1
  As  As2  1  0.16353100  0.75000000  0.37730000  1
  As  As3  1  0.66353100  0.75000000  0.12270000  1
  As  As4  1  0.82551300  0.25000000  0.92967900  1
  As  As5  1  0.32551300  0.25000000  0.57032100  1
  As  As6  1  0.17448700  0.75000000  0.07032100  1
  As  As7  1  0.67448700  0.75000000  0.42967900  1
  As  As8  1  0.90295600  0.75000000  0.12355000  1
  As  As9  1  0.40295600  0.75000000  0.37645000  1
  As  As10  1  0.09704400  0.25000000  0.87645000  1
  As  As11  1  0.59704400  0.25000000  0.62355000  1
  As  As12  1  0.93529200  0.75000000  0.42947700  1
  As  As13  1  0.43529200  0.75000000  0.07052300  1
  As  As14  1  0.06470800  0.25000000  0.57052300  1
  As  As15  1  0.56470800  0.25000000  0.92947700  1
  P  P0  1  0.74500400  0.25000000  0.31491200  1
  P  P1  1  0.24500400  0.25000000  0.18508800  1
  P  P2  1  0.25499600  0.75000000  0.68508800  1
  P  P3  1  0.75499600  0.75000000  0.81491200  1
  P  P4  1  0.48898100  0.25000000  0.32090200  1
  P  P5  1  0.98898100  0.25000000  0.17909800  1
  P  P6  1  0.51101900  0.75000000  0.67909800  1
  P  P7  1  0.01101900  0.75000000  0.82090200  1
  H  H0  1  0.72605000  0.25000000  0.42404500  1
  H  H1  1  0.22605000  0.25000000  0.07595500  1
  H  H2  1  0.27395000  0.75000000  0.57595500  1
  H  H3  1  0.77395000  0.75000000  0.92404500  1
  H  H4  1  0.45718900  0.25000000  0.41689500  1
  H  H5  1  0.95718900  0.25000000  0.08310500  1
  H  H6  1  0.54281100  0.75000000  0.58310500  1
  H  H7  1  0.04281100  0.75000000  0.91689500  1
  Cl  Cl0  1  0.78849100  0.06707000  0.29061000  1
  Cl  Cl1  1  0.28849100  0.43293000  0.20939000  1
  Cl  Cl2  1  0.21150900  0.56707000  0.70939000  1
  Cl  Cl3  1  0.71150900  0.93293000  0.79061000  1
  Cl  Cl4  1  0.21150900  0.93293000  0.70939000  1
  Cl  Cl5  1  0.71150900  0.56707000  0.79061000  1
  Cl  Cl6  1  0.78849100  0.43293000  0.29061000  1
  Cl  Cl7  1  0.28849100  0.06707000  0.20939000  1
  Cl  Cl8  1  0.68187300  0.25000000  0.21794600  1
  Cl  Cl9  1  0.18187300  0.25000000  0.28205400  1
  Cl  Cl10  1  0.31812700  0.75000000  0.78205400  1
  Cl  Cl11  1  0.81812700  0.75000000  0.71794600  1
  Cl  Cl12  1  0.53440000  0.06722100  0.31986300  1
  Cl  Cl13  1  0.03440000  0.43277900  0.18013700  1
  Cl  Cl14  1  0.46560000  0.56722100  0.68013700  1
  Cl  Cl15  1  0.96560000  0.93277900  0.81986300  1
  Cl  Cl16  1  0.46560000  0.93277900  0.68013700  1
  Cl  Cl17  1  0.96560000  0.56722100  0.81986300  1
  Cl  Cl18  1  0.53440000  0.43277900  0.31986300  1
  Cl  Cl19  1  0.03440000  0.06722100  0.18013700  1
  Cl  Cl20  1  0.44041900  0.25000000  0.19482500  1
  Cl  Cl21  1  0.94041900  0.25000000  0.30517500  1
  Cl  Cl22  1  0.55958100  0.75000000  0.80517500  1
  Cl  Cl23  1  0.05958100  0.75000000  0.69482500  1
  F  F0  1  0.85969300  0.25000000  0.48747400  1
  F  F1  1  0.35969300  0.25000000  0.01252600  1
  F  F2  1  0.14030700  0.75000000  0.51252600  1
  F  F3  1  0.64030700  0.75000000  0.98747400  1
  F  F4  1  0.78693800  0.10997200  0.59743500  1
  F  F5  1  0.28693800  0.39002800  0.90256500  1
  F  F6  1  0.21306200  0.60997200  0.40256500  1
  F  F7  1  0.71306200  0.89002800  0.09743500  1
  F  F8  1  0.21306200  0.89002800  0.40256500  1
  F  F9  1  0.71306200  0.60997200  0.09743500  1
  F  F10  1  0.78693800  0.39002800  0.59743500  1
  F  F11  1  0.28693800  0.10997200  0.90256500  1
  F  F12  1  0.88129100  0.10796900  0.66677900  1
  F  F13  1  0.38129100  0.39203100  0.83322100  1
  F  F14  1  0.11870900  0.60796900  0.33322100  1
  F  F15  1  0.61870900  0.89203100  0.16677900  1
  F  F16  1  0.11870900  0.89203100  0.33322100  1
  F  F17  1  0.61870900  0.60796900  0.16677900  1
  F  F18  1  0.88129100  0.39203100  0.66677900  1
  F  F19  1  0.38129100  0.10796900  0.83322100  1
  F  F20  1  0.80658200  0.25000000  0.77315500  1
  F  F21  1  0.30658200  0.25000000  0.72684500  1
  F  F22  1  0.19341800  0.75000000  0.22684500  1
  F  F23  1  0.69341800  0.75000000  0.27315500  1
  F  F24  1  0.75521500  0.25000000  0.94878400  1
  F  F25  1  0.25521500  0.25000000  0.55121600  1
  F  F26  1  0.24478500  0.75000000  0.05121600  1
  F  F27  1  0.74478500  0.75000000  0.44878400  1
  F  F28  1  0.83977700  0.25000000  0.06974900  1
  F  F29  1  0.33977700  0.25000000  0.43025100  1
  F  F30  1  0.16022300  0.75000000  0.93025100  1
  F  F31  1  0.66022300  0.75000000  0.56974900  1
  F  F32  1  0.82488100  0.05011400  0.91832200  1
  F  F33  1  0.32488100  0.44988600  0.58167800  1
  F  F34  1  0.17511900  0.55011400  0.08167800  1
  F  F35  1  0.67511900  0.94988600  0.41832200  1
  F  F36  1  0.17511900  0.94988600  0.08167800  1
  F  F37  1  0.67511900  0.55011400  0.41832200  1
  F  F38  1  0.82488100  0.44988600  0.91832200  1
  F  F39  1  0.32488100  0.05011400  0.58167800  1
  F  F40  1  0.94079500  0.75000000  0.25912000  1
  F  F41  1  0.44079500  0.75000000  0.24088000  1
  F  F42  1  0.05920500  0.25000000  0.74088000  1
  F  F43  1  0.55920500  0.25000000  0.75912000  1
  F  F44  1  0.84137500  0.75000000  0.19501000  1
  F  F45  1  0.34137500  0.75000000  0.30499000  1
  F  F46  1  0.15862500  0.25000000  0.80499000  1
  F  F47  1  0.65862500  0.25000000  0.69501000  1
  F  F48  1  0.93351500  0.75000000  0.57206600  1
  F  F49  1  0.43351500  0.75000000  0.92793400  1
  F  F50  1  0.06648500  0.25000000  0.42793400  1
  F  F51  1  0.56648500  0.25000000  0.07206600  1
  F  F52  1  0.96856100  0.75000000  0.06348300  1
  F  F53  1  0.46856100  0.75000000  0.43651700  1
  F  F54  1  0.03143900  0.25000000  0.93651700  1
  F  F55  1  0.53143900  0.25000000  0.56348300  1
  F  F56  1  0.87134900  0.75000000  0.99491100  1
  F  F57  1  0.37134900  0.75000000  0.50508900  1
  F  F58  1  0.12865100  0.25000000  0.00508900  1
  F  F59  1  0.62865100  0.25000000  0.49491100  1
  F  F60  1  0.90549800  0.95071700  0.12974300  1
  F  F61  1  0.40549800  0.54928300  0.37025700  1
  F  F62  1  0.09450200  0.45071700  0.87025700  1
  F  F63  1  0.59450200  0.04928300  0.62974300  1
  F  F64  1  0.09450200  0.04928300  0.87025700  1
  F  F65  1  0.59450200  0.45071700  0.62974300  1
  F  F66  1  0.90549800  0.54928300  0.12974300  1
  F  F67  1  0.40549800  0.95071700  0.37025700  1
  F  F68  1  0.89463300  0.25000000  0.89307400  1
  F  F69  1  0.39463300  0.25000000  0.60692600  1
  F  F70  1  0.10536700  0.75000000  0.10692600  1
  F  F71  1  0.60536700  0.75000000  0.39307400  1
  F  F72  1  0.88566400  0.89041700  0.41340400  1
  F  F73  1  0.38566400  0.60958300  0.08659600  1
  F  F74  1  0.11433600  0.39041700  0.58659600  1
  F  F75  1  0.61433600  0.10958300  0.91340400  1
  F  F76  1  0.11433600  0.10958300  0.58659600  1
  F  F77  1  0.61433600  0.39041700  0.91340400  1
  F  F78  1  0.88566400  0.60958300  0.41340400  1
  F  F79  1  0.38566400  0.89041700  0.08659600  1
  F  F80  1  0.98540600  0.89018300  0.41737000  1
  F  F81  1  0.48540600  0.60981700  0.08263000  1
  F  F82  1  0.01459400  0.39018300  0.58263000  1
  F  F83  1  0.51459400  0.10981700  0.91737000  1
  F  F84  1  0.01459400  0.10981700  0.58263000  1
  F  F85  1  0.51459400  0.39018300  0.91737000  1
  F  F86  1  0.98540600  0.60981700  0.41737000  1
  F  F87  1  0.48540600  0.89018300  0.08263000  1
loop_
_geom_bond_atom_site_label_1
_geom_bond_atom_site_label_2
_geom_bond_distance
_geom_bond_site_symmetry_2
As0 F0 1.747010 1_555
As0 F18 1.748131 1_555
As0 F12 1.748131 1_555
As0 F4 1.757250 1_555
As0 F10 1.757250 1_555
As0 F20 1.978661 1_555
As1 F1 1.747010 1_556
As1 F13 1.748131 1_555
As1 F19 1.748131 1_555
As1 F11 1.757250 1_555
As1 F5 1.757250 1_555
As1 F21 1.978661 1_555
As2 F2 1.747010 1_555
As2 F16 1.748131 1_555
As2 F14 1.748131 1_555
As2 F8 1.757250 1_555
As2 F6 1.757250 1_555
As2 F22 1.978661 1_555
As3 F3 1.747010 1_554
As3 F15 1.748131 1_555
As3 F17 1.748131 1_555
As3 F7 1.757250 1_555
As3 F9 1.757250 1_555
As3 F23 1.978661 1_555
As4 F28 1.745527 1_556
As4 F24 1.747564 1_555
As4 F38 1.755990 1_555
As4 F32 1.755990 1_555
As4 F68 1.760557 1_555
As4 F20 1.966737 1_555
As5 F29 1.745527 1_555
As5 F25 1.747564 1_555
As5 F33 1.755990 1_555
As5 F39 1.755990 1_555
As5 F69 1.760557 1_555
As5 F21 1.966737 1_555
As6 F30 1.745527 1_554
As6 F26 1.747564 1_555
As6 F36 1.755990 1_555
As6 F34 1.755990 1_555
As6 F70 1.760557 1_555
As6 F22 1.966737 1_555
As7 F31 1.745527 1_555
As7 F27 1.747564 1_555
As7 F37 1.755990 1_555
As7 F35 1.755990 1_555
As7 F71 1.760557 1_555
As7 F23 1.966737 1_555
As8 F44 1.750057 1_555
As8 F56 1.752731 1_554
As8 F60 1.760456 1_555
As8 F66 1.760456 1_555
As8 F52 1.774844 1_555
As8 F40 1.899373 1_555
As9 F45 1.750057 1_555
As9 F57 1.752731 1_555
As9 F67 1.760456 1_555
As9 F61 1.760456 1_555
As9 F53 1.774844 1_555
As9 F41 1.899373 1_555
As10 F46 1.750057 1_555
As10 F58 1.752731 1_556
As10 F62 1.760456 1_555
As10 F64 1.760456 1_555
As10 F54 1.774844 1_555
As10 F42 1.899373 1_555
As11 F47 1.750057 1_555
As11 F59 1.752731 1_555
As11 F65 1.760456 1_555
As11 F63 1.760456 1_555
As11 F55 1.774844 1_555
As11 F43 1.899373 1_555
As12 F48 1.741084 1_555
As12 F72 1.745141 1_555
As12 F78 1.745141 1_555
As12 F80 1.747355 1_555
As12 F86 1.747355 1_555
As12 F40 2.083903 1_555
As13 F49 1.741084 1_554
As13 F73 1.745141 1_555
As13 F79 1.745141 1_555
As13 F87 1.747355 1_555
As13 F81 1.747355 1_555
As13 F41 2.083903 1_555
As14 F50 1.741084 1_555
As14 F74 1.745141 1_555
As14 F76 1.745141 1_555
As14 F82 1.747355 1_555
As14 F84 1.747355 1_555
As14 F42 2.083903 1_555
As15 F51 1.741084 1_556
As15 F77 1.745141 1_555
As15 F75 1.745141 1_555
As15 F83 1.747355 1_555
As15 F85 1.747355 1_555
As15 F43 2.083903 1_555
H0 P0 1.411623 1_555
H1 P1 1.411623 1_555
H2 P2 1.411623 1_555
H3 P3 1.411623 1_555
H4 P4 1.409433 1_555
H5 P5 1.409433 1_555
H6 P6 1.409433 1_555
H7 P7 1.409433 1_555
Cl0 P0 1.949905 1_555
Cl1 P1 1.949905 1_555
Cl2 P2 1.949905 1_555
Cl3 P3 1.949905 1_555
Cl4 P2 1.949905 1_555
Cl5 P3 1.949905 1_555
Cl6 P0 1.949905 1_555
Cl7 P1 1.949905 1_555
Cl8 P0 1.954514 1_555
Cl9 P1 1.954514 1_555
Cl10 P2 1.954514 1_555
Cl11 P3 1.954514 1_555
Cl12 P4 1.953027 1_555
Cl13 P5 1.953027 1_455
Cl14 P6 1.953027 1_555
Cl15 P7 1.953027 1_655
Cl16 P6 1.953027 1_555
Cl17 P7 1.953027 1_655
Cl18 P4 1.953027 1_555
Cl19 P5 1.953027 1_455
Cl20 P4 1.949328 1_555
Cl21 P5 1.949328 1_555
Cl22 P6 1.949328 1_555
Cl23 P7 1.949328 1_555
