# generated using pymatgen
data_Cs7(InAs2)3
_symmetry_space_group_name_H-M   'P 1'
_cell_length_a   8.89206700
_cell_length_b   9.87481720
_cell_length_c   15.07299393
_cell_angle_alpha   85.36745295
_cell_angle_beta   85.60890373
_cell_angle_gamma   87.32450991
_symmetry_Int_Tables_number   1
_chemical_formula_structural   Cs7(InAs2)3
_chemical_formula_sum   'Cs14 In6 As12'
_cell_volume   1314.23400451
_cell_formula_units_Z   2
loop_
 _symmetry_equiv_pos_site_id
 _symmetry_equiv_pos_as_xyz
  1  'x, y, z'
loop_
 _atom_site_type_symbol
 _atom_site_label
 _atom_site_symmetry_multiplicity
 _atom_site_fract_x
 _atom_site_fract_y
 _atom_site_fract_z
 _atom_site_occupancy
  Cs  Cs0  1  0.81388100  0.81510100  0.12910800  1
  Cs  Cs1  1  0.18611900  0.18489900  0.87089200  1
  Cs  Cs2  1  0.27659300  0.26165100  0.25022800  1
  Cs  Cs3  1  0.72340700  0.73834900  0.74977200  1
  Cs  Cs4  1  0.74476400  0.50234500  0.98120300  1
  Cs  Cs5  1  0.25523600  0.49765500  0.01879700  1
  Cs  Cs6  1  0.68961800  0.08470600  0.88351600  1
  Cs  Cs7  1  0.31038200  0.91529400  0.11648400  1
  Cs  Cs8  1  0.69128600  0.65613100  0.39395700  1
  Cs  Cs9  1  0.30871400  0.34386900  0.60604300  1
  Cs  Cs10  1  0.75665800  0.99157900  0.53226300  1
  Cs  Cs11  1  0.24334200  0.00842100  0.46773700  1
  Cs  Cs12  1  0.82586600  0.37217400  0.63697100  1
  Cs  Cs13  1  0.17413400  0.62782600  0.36302900  1
  In  In0  1  0.91484100  0.27249800  0.37748700  1
  In  In1  1  0.08515900  0.72750200  0.62251300  1
  In  In2  1  0.94255100  0.18290000  0.13190000  1
  In  In3  1  0.05744900  0.81710000  0.86810000  1
  In  In4  1  0.63528500  0.04403200  0.29653200  1
  In  In5  1  0.36471500  0.95596800  0.70346800  1
  As  As0  1  0.63930000  0.40100300  0.22679400  1
  As  As1  1  0.36070000  0.59899700  0.77320600  1
  As  As2  1  0.48646500  0.59986100  0.19178800  1
  As  As3  1  0.51353500  0.40013900  0.80821200  1
  As  As4  1  0.91075500  0.44787900  0.21250500  1
  As  As5  1  0.08924500  0.55212100  0.78749500  1
  As  As6  1  0.58941500  0.30137400  0.38486700  1
  As  As7  1  0.41058500  0.69862600  0.61513300  1
  As  As8  1  0.62098700  0.20793600  0.12508500  1
  As  As9  1  0.37901300  0.79206400  0.87491500  1
  As  As10  1  0.96049900  0.01012400  0.29831200  1
  As  As11  1  0.03950100  0.98987600  0.70168800  1
loop_
_geom_bond_atom_site_label_1
_geom_bond_atom_site_label_2
_geom_bond_distance
_geom_bond_site_symmetry_2
Cs0 In4 3.738141 1_565
Cs0 In2 3.862886 1_565
Cs0 In3 4.342300 1_654
Cs1 In5 3.738141 1_545
Cs1 In3 3.862886 1_545
Cs1 In2 4.342300 1_456
Cs2 In0 3.618613 1_455
Cs2 In2 3.722843 1_455
Cs2 In4 3.838856 1_555
Cs3 In1 3.618613 1_655
Cs3 In3 3.722843 1_655
Cs3 In5 3.838856 1_555
Cs6 In3 4.112298 1_645
Cs6 In5 4.407788 1_545
Cs7 In2 4.112298 1_465
Cs7 In4 4.407788 1_565
Cs8 In4 4.012740 1_565
Cs8 In0 4.211626 1_555
Cs9 In5 4.012740 1_545
Cs9 In1 4.211626 1_555
Cs10 In0 3.732651 1_565
Cs10 In4 3.780986 1_565
Cs10 In1 4.062950 1_655
Cs10 In5 4.185708 1_555
Cs11 In1 3.732651 1_545
Cs11 In5 3.780986 1_545
Cs11 In0 4.062950 1_455
Cs11 In4 4.185708 1_555
Cs12 In0 4.119169 1_555
Cs12 In1 4.269661 1_655
Cs13 In1 4.119169 1_555
Cs13 In0 4.269661 1_455
As0 As2 2.382163 1_555
As0 As4 2.468941 1_555
As0 As6 2.518306 1_555
As0 As8 2.559465 1_555
As0 Cs2 3.547075 1_555
As0 Cs8 3.771186 1_555
As0 Cs4 3.813374 1_554
As1 As3 2.382163 1_555
As1 As5 2.468941 1_555
As1 As7 2.518306 1_555
As1 As9 2.559465 1_555
As1 Cs3 3.547075 1_555
As1 Cs9 3.771186 1_555
As1 Cs5 3.813374 1_556
As2 Cs7 3.562006 1_555
As2 Cs13 3.660256 1_555
As2 Cs5 3.672190 1_555
As2 Cs0 3.703861 1_555
As2 Cs8 3.758944 1_555
As2 Cs2 3.907373 1_555
As2 Cs4 3.930484 1_554
As3 Cs6 3.562006 1_555
As3 Cs12 3.660256 1_555
As3 Cs4 3.672190 1_555
As3 Cs1 3.703861 1_555
As3 Cs9 3.758944 1_555
As3 Cs3 3.907373 1_555
As3 Cs5 3.930484 1_556
As4 In0 2.914957 1_555
As4 In2 2.965571 1_555
As4 Cs2 3.720662 1_655
As4 Cs0 3.822270 1_555
As4 Cs4 3.877361 1_554
As4 Cs8 3.903122 1_555
As4 Cs13 3.955186 1_655
As4 Cs5 4.085179 1_655
As5 In1 2.914957 1_555
As5 In3 2.965571 1_555
As5 Cs3 3.720662 1_455
As5 Cs1 3.822270 1_555
As5 Cs5 3.877361 1_556
As5 Cs9 3.903122 1_555
As5 Cs12 3.955186 1_455
As5 Cs4 4.085179 1_455
As6 In0 2.888951 1_555
As6 In4 2.960326 1_555
As6 Cs2 3.620047 1_555
As6 Cs8 3.674813 1_555
As6 Cs10 3.935657 1_545
As6 Cs9 4.046513 1_555
As7 In1 2.888951 1_555
As7 In5 2.960326 1_555
As7 Cs3 3.620047 1_555
As7 Cs9 3.674813 1_555
As7 Cs11 3.935657 1_565
As7 Cs8 4.046513 1_555
As8 In2 2.867497 1_555
As8 In4 2.944393 1_555
As8 Cs2 3.513256 1_555
As8 Cs4 3.644389 1_554
As8 Cs6 3.926504 1_554
As8 Cs7 4.105648 1_545
As8 Cs0 4.165384 1_545
As9 In3 2.867497 1_555
As9 In5 2.944393 1_555
As9 Cs3 3.513256 1_555
As9 Cs5 3.644389 1_556
As9 Cs7 3.926504 1_556
As9 Cs6 4.105648 1_565
As9 Cs1 4.165384 1_565
As10 In4 2.897502 1_555
As10 In2 2.927911 1_555
As10 In0 2.937488 1_555
As10 Cs0 3.667429 1_545
As10 Cs11 3.717530 1_655
As10 Cs2 3.826709 1_655
As10 Cs10 3.834312 1_545
As10 Cs7 4.111524 1_645
As10 Cs13 4.222702 1_645
As11 In5 2.897502 1_555
As11 In3 2.927911 1_555
As11 In1 2.937488 1_555
As11 Cs1 3.667429 1_565
As11 Cs10 3.717530 1_455
As11 Cs3 3.826709 1_455
As11 Cs11 3.834312 1_565
As11 Cs6 4.111524 1_465
As11 Cs12 4.222702 1_465
