# generated using pymatgen
data_Tl9Pd13
_symmetry_space_group_name_H-M   'P 1'
_cell_length_a   9.07016799
_cell_length_b   9.07016656
_cell_length_c   5.72252112
_cell_angle_alpha   90.00000000
_cell_angle_beta   90.00000000
_cell_angle_gamma   120.00000526
_symmetry_Int_Tables_number   1
_chemical_formula_structural   Tl9Pd13
_chemical_formula_sum   'Tl9 Pd13'
_cell_volume   407.70741107
_cell_formula_units_Z   1
loop_
 _symmetry_equiv_pos_site_id
 _symmetry_equiv_pos_as_xyz
  1  'x, y, z'
loop_
 _atom_site_type_symbol
 _atom_site_label
 _atom_site_symmetry_multiplicity
 _atom_site_fract_x
 _atom_site_fract_y
 _atom_site_fract_z
 _atom_site_occupancy
  Tl  Tl0  1  -0.00000000  -0.00000000  0.50000000  1
  Tl  Tl1  1  0.33333300  0.66666700  0.74881696  1
  Tl  Tl2  1  0.66666700  0.33333300  0.25118304  1
  Tl  Tl3  1  0.19266538  0.80733462  0.24622385  1
  Tl  Tl4  1  0.19266538  0.38532976  0.24622385  1
  Tl  Tl5  1  0.61467124  0.80733462  0.24622385  1
  Tl  Tl6  1  0.38532976  0.19266538  0.75377615  1
  Tl  Tl7  1  0.80733462  0.61467124  0.75377615  1
  Tl  Tl8  1  0.80733462  0.19266538  0.75377615  1
  Pd  Pd0  1  -0.00000000  -0.00000000  -0.00000000  1
  Pd  Pd1  1  0.50000000  -0.00000000  -0.00000000  1
  Pd  Pd2  1  -0.00000000  0.50000000  -0.00000000  1
  Pd  Pd3  1  0.50000000  0.50000000  -0.00000000  1
  Pd  Pd4  1  0.50000000  -0.00000000  0.50000000  1
  Pd  Pd5  1  -0.00000000  0.50000000  0.50000000  1
  Pd  Pd6  1  0.50000000  0.50000000  0.50000000  1
  Pd  Pd7  1  0.15919368  0.84080632  0.75255472  1
  Pd  Pd8  1  0.15919368  0.31838736  0.75255472  1
  Pd  Pd9  1  0.68161264  0.84080632  0.75255472  1
  Pd  Pd10  1  0.31838736  0.15919368  0.24744528  1
  Pd  Pd11  1  0.84080632  0.68161264  0.24744528  1
  Pd  Pd12  1  0.84080632  0.15919368  0.24744528  1
loop_
_geom_bond_atom_site_label_1
_geom_bond_atom_site_label_2
_geom_bond_distance
_geom_bond_site_symmetry_2
Pd0 Tl0 2.861261 1_555
Pd0 Tl0 2.861261 1_554
Pd0 Pd11 2.873977 1_445
Pd0 Pd8 2.873977 1_554
Pd0 Pd10 2.873977 1_555
Pd0 Pd9 2.873977 1_444
Pd0 Pd12 2.873977 1_455
Pd0 Pd7 2.873977 1_544
Pd1 Tl8 2.817516 1_554
Pd1 Tl3 2.817516 1_545
Pd1 Tl6 2.817522 1_554
Pd1 Tl5 2.817528 1_545
Pd1 Pd4 2.861261 1_554
Pd1 Pd4 2.861261 1_555
Pd1 Tl2 2.986932 1_555
Pd1 Tl1 2.986932 1_544
Pd1 Pd7 3.030169 1_544
Pd1 Pd12 3.030169 1_555
Pd1 Pd10 3.030169 1_555
Pd1 Pd9 3.030169 1_544
Pd2 Tl3 2.817515 1_555
Pd2 Tl8 2.817515 1_454
Pd2 Tl4 2.817522 1_555
Pd2 Tl7 2.817528 1_454
Pd2 Pd5 2.861261 1_554
Pd2 Pd5 2.861261 1_555
Pd2 Tl1 2.986933 1_554
Pd2 Tl2 2.986933 1_455
Pd2 Pd7 3.030169 1_554
Pd2 Pd8 3.030169 1_554
Pd3 Tl5 2.817513 1_555
Pd3 Tl7 2.817513 1_554
Pd3 Tl6 2.817514 1_554
Pd3 Tl4 2.817515 1_555
Pd3 Pd6 2.861261 1_554
Pd3 Pd6 2.861261 1_555
Pd3 Tl2 2.986940 1_555
Pd3 Tl1 2.986940 1_554
Pd3 Pd9 3.030169 1_554
Pd3 Pd8 3.030169 1_554
Pd4 Tl3 2.839375 1_545
Pd4 Tl8 2.839375 1_555
Pd4 Tl6 2.839382 1_555
Pd4 Tl5 2.839388 1_545
Pd4 Tl2 2.980440 1_555
Pd4 Tl1 2.980440 1_545
Pd4 Pd7 3.043942 1_545
Pd4 Pd9 3.043942 1_545
Pd5 Tl3 2.839375 1_555
Pd5 Tl8 2.839375 1_455
Pd5 Tl4 2.839382 1_555
Pd5 Tl7 2.839388 1_455
Pd5 Tl1 2.980441 1_555
Pd5 Tl2 2.980441 1_455
Pd5 Pd7 3.043942 1_555
Pd5 Pd8 3.043942 1_555
Pd6 Tl5 2.839373 1_555
Pd6 Tl7 2.839373 1_555
Pd6 Tl6 2.839374 1_555
Pd6 Tl4 2.839374 1_555
Pd6 Tl2 2.980447 1_555
Pd6 Tl1 2.980447 1_555
Pd6 Pd9 3.043942 1_555
Pd6 Pd8 3.043942 1_555
Pd7 Tl1 2.735811 1_555
Pd7 Tl7 2.801122 1_455
Pd7 Tl6 2.801124 1_565
Pd7 Tl3 2.873554 1_556
Pd7 Tl0 2.888495 1_565
Pd7 Tl3 2.944818 1_555
Pd8 Tl1 2.735818 1_555
Pd8 Tl6 2.801117 1_555
Pd8 Tl8 2.801126 1_455
Pd8 Tl4 2.873553 1_556
Pd8 Tl0 2.888495 1_555
Pd8 Tl4 2.944816 1_555
Pd9 Tl1 2.735819 1_555
Pd9 Tl7 2.801108 1_555
Pd9 Tl8 2.801125 1_565
Pd9 Tl5 2.873551 1_556
Pd9 Tl0 2.888495 1_665
Pd9 Tl5 2.944815 1_555
Pd10 Tl2 2.735819 1_555
Pd10 Tl4 2.801117 1_555
Pd10 Tl3 2.801125 1_545
Pd10 Tl6 2.873553 1_554
Pd10 Tl0 2.888495 1_555
Pd10 Tl6 2.944816 1_555
Pd10 Pd3 3.030169 1_555
Pd10 Pd6 3.043942 1_555
Pd10 Pd4 3.043942 1_555
Pd11 Tl2 2.735818 1_555
Pd11 Tl5 2.801109 1_555
Pd11 Tl3 2.801126 1_655
Pd11 Tl7 2.873551 1_554
Pd11 Tl0 2.888495 1_665
Pd11 Tl7 2.944815 1_555
Pd11 Pd3 3.030169 1_555
Pd11 Pd2 3.030169 1_655
Pd11 Pd6 3.043942 1_555
Pd11 Pd5 3.043942 1_655
Pd12 Tl2 2.735811 1_555
Pd12 Tl5 2.801122 1_545
Pd12 Tl4 2.801124 1_655
Pd12 Tl8 2.873554 1_554
Pd12 Tl0 2.888495 1_655
Pd12 Tl8 2.944818 1_555
Pd12 Pd2 3.030169 1_655
Pd12 Pd5 3.043942 1_655
Pd12 Pd4 3.043942 1_555
