# generated using pymatgen
data_Lu10Ni28As19
_symmetry_space_group_name_H-M   'P 1'
_cell_length_a   16.01467665
_cell_length_b   16.01467665
_cell_length_c   3.84314000
_cell_angle_alpha   90.00000000
_cell_angle_beta   90.00000000
_cell_angle_gamma   120.00000269
_symmetry_Int_Tables_number   1
_chemical_formula_structural   Lu10Ni28As19
_chemical_formula_sum   'Lu10 Ni28 As19'
_cell_volume   853.59757778
_cell_formula_units_Z   1
loop_
 _symmetry_equiv_pos_site_id
 _symmetry_equiv_pos_as_xyz
  1  'x, y, z'
loop_
 _atom_site_type_symbol
 _atom_site_label
 _atom_site_symmetry_multiplicity
 _atom_site_fract_x
 _atom_site_fract_y
 _atom_site_fract_z
 _atom_site_occupancy
  Lu  Lu0  1  0.03417700  0.30245300  0.50000000  1
  Lu  Lu1  1  0.69754700  0.73172500  0.50000000  1
  Lu  Lu2  1  0.26827500  0.96582300  0.50000000  1
  Lu  Lu3  1  0.53114500  0.34333300  0.00000000  1
  Lu  Lu4  1  0.65666700  0.18781200  0.00000000  1
  Lu  Lu5  1  0.81218800  0.46885500  0.00000000  1
  Lu  Lu6  1  0.33333300  0.66666700  0.00000000  1
  Lu  Lu7  1  0.15265300  0.13145400  0.50000000  1
  Lu  Lu8  1  0.86854600  0.02119900  0.50000000  1
  Lu  Lu9  1  0.97880100  0.84734700  0.50000000  1
  Ni  Ni0  1  0.42814000  0.10644300  0.00000000  1
  Ni  Ni1  1  0.89355700  0.32169700  0.00000000  1
  Ni  Ni2  1  0.67830300  0.57186000  0.00000000  1
  Ni  Ni3  1  0.15992000  0.53537200  0.50000000  1
  Ni  Ni4  1  0.46462800  0.62454800  0.50000000  1
  Ni  Ni5  1  0.37545200  0.84008000  0.50000000  1
  Ni  Ni6  1  0.31326200  0.27704300  0.00000000  1
  Ni  Ni7  1  0.72295700  0.03621800  0.00000000  1
  Ni  Ni8  1  0.96378200  0.68673800  0.00000000  1
  Ni  Ni9  1  0.37419800  0.19668700  0.50000000  1
  Ni  Ni10  1  0.80331300  0.17751200  0.50000000  1
  Ni  Ni11  1  0.82248800  0.62580200  0.50000000  1
  Ni  Ni12  1  0.01458000  0.14911400  0.00000000  1
  Ni  Ni13  1  0.85088600  0.86546600  0.00000000  1
  Ni  Ni14  1  0.13453400  0.98542000  0.00000000  1
  Ni  Ni15  1  0.20058200  0.44124500  0.00000000  1
  Ni  Ni16  1  0.55875500  0.75933700  0.00000000  1
  Ni  Ni17  1  0.24066300  0.79941800  0.00000000  1
  Ni  Ni18  1  0.49123700  0.03322000  0.50000000  1
  Ni  Ni19  1  0.96678000  0.45801700  0.50000000  1
  Ni  Ni20  1  0.54198300  0.50876300  0.50000000  1
  Ni  Ni21  1  0.25506200  0.35479500  0.50000000  1
  Ni  Ni22  1  0.64520500  0.90026700  0.50000000  1
  Ni  Ni23  1  0.09973300  0.74493800  0.50000000  1
  Ni  Ni24  1  0.66666700  0.33333300  0.50000000  1
  Ni  Ni25  1  0.38797100  0.46877300  0.00000000  1
  Ni  Ni26  1  0.53122700  0.91919900  0.00000000  1
  Ni  Ni27  1  0.08080100  0.61202900  0.00000000  1
  As  As0  1  0.00000000  0.00000000  0.00000000  1
  As  As1  1  0.40363200  0.35855500  0.50000000  1
  As  As2  1  0.64144500  0.04507700  0.50000000  1
  As  As3  1  0.95492300  0.59636800  0.50000000  1
  As  As4  1  0.51979300  0.19478300  0.50000000  1
  As  As5  1  0.80521700  0.32501000  0.50000000  1
  As  As6  1  0.67499000  0.48020700  0.50000000  1
  As  As7  1  0.29920200  0.51607600  0.50000000  1
  As  As8  1  0.48392400  0.78312600  0.50000000  1
  As  As9  1  0.21687400  0.70079800  0.50000000  1
  As  As10  1  0.05619400  0.45141200  0.00000000  1
  As  As11  1  0.54858800  0.60478200  0.00000000  1
  As  As12  1  0.39521800  0.94380600  0.00000000  1
  As  As13  1  0.16376800  0.27630400  0.00000000  1
  As  As14  1  0.72369600  0.88746400  0.00000000  1
  As  As15  1  0.11253600  0.83623200  0.00000000  1
  As  As16  1  0.28356500  0.11518700  0.00000000  1
  As  As17  1  0.88481300  0.16837700  0.00000000  1
  As  As18  1  0.83162300  0.71643500  0.00000000  1
loop_
_geom_bond_atom_site_label_1
_geom_bond_atom_site_label_2
_geom_bond_distance
_geom_bond_site_symmetry_2
Lu0 Ni12 3.008417 1_555
Lu0 Ni12 3.008417 1_556
Lu0 Ni1 3.090772 1_456
Lu0 Ni1 3.090772 1_455
Lu0 Ni15 3.132304 1_555
Lu0 Ni15 3.132304 1_556
Lu0 Ni19 3.171838 1_455
Lu0 Ni21 3.201666 1_555
Lu0 Ni10 3.205499 1_455
Lu0 Ni3 3.233800 1_555
Lu1 Ni13 3.008413 1_556
Lu1 Ni13 3.008413 1_555
Lu1 Ni2 3.090785 1_556
Lu1 Ni2 3.090785 1_555
Lu1 Ni16 3.132296 1_555
Lu1 Ni16 3.132296 1_556
Lu1 Ni20 3.171850 1_555
Lu1 Ni22 3.201651 1_555
Lu1 Ni11 3.205499 1_555
Lu1 Ni4 3.233799 1_555
Lu2 Ni14 3.008405 1_555
Lu2 Ni14 3.008405 1_556
Lu2 Ni0 3.090779 1_565
Lu2 Ni0 3.090779 1_566
Lu2 Ni17 3.132309 1_555
Lu2 Ni17 3.132309 1_556
Lu2 Ni18 3.171854 1_565
Lu2 Ni23 3.201661 1_555
Lu2 Ni9 3.205499 1_565
Lu2 Ni5 3.233814 1_555
Lu3 Ni24 2.962437 1_555
Lu3 Ni24 2.962437 1_554
Lu3 Ni6 3.098081 1_555
Lu3 Ni9 3.102010 1_555
Lu3 Ni9 3.102010 1_554
Lu3 Ni20 3.206487 1_555
Lu3 Ni20 3.206487 1_554
Lu3 Ni2 3.212948 1_555
Lu3 Ni0 3.294747 1_555
Lu4 Ni24 2.962425 1_555
Lu4 Ni24 2.962425 1_554
Lu4 Ni7 3.098096 1_555
Lu4 Ni10 3.102003 1_555
Lu4 Ni10 3.102003 1_554
Lu4 Ni18 3.206487 1_554
Lu4 Ni18 3.206487 1_555
Lu4 Ni0 3.212948 1_555
Lu4 Ni1 3.294747 1_555
Lu5 Ni24 2.962430 1_555
Lu5 Ni24 2.962430 1_554
Lu5 Ni8 3.098084 1_555
Lu5 Ni11 3.102016 1_555
Lu5 Ni11 3.102016 1_554
Lu5 Ni19 3.206487 1_555
Lu5 Ni19 3.206487 1_554
Lu5 Ni1 3.212949 1_555
Lu5 Ni2 3.294747 1_555
Lu6 Ni17 3.142820 1_555
Lu6 Ni15 3.142833 1_555
Lu6 Ni16 3.142835 1_555
Lu6 Ni5 3.160180 1_554
Lu6 Ni5 3.160180 1_555
Lu6 Ni3 3.160184 1_555
Lu6 Ni3 3.160184 1_554
Lu6 Ni4 3.160193 1_555
Lu6 Ni4 3.160193 1_554
Lu7 Ni14 2.927024 1_545
Lu7 Ni14 2.927024 1_546
Lu7 Ni12 3.047485 1_555
Lu7 Ni12 3.047485 1_556
Lu7 Ni21 3.101091 1_555
Lu7 Ni6 3.122067 1_555
Lu7 Ni6 3.122067 1_556
Lu7 Ni9 3.157999 1_555
Lu8 Ni12 2.927024 1_655
Lu8 Ni12 2.927024 1_656
Lu8 Ni13 3.047485 1_545
Lu8 Ni13 3.047485 1_546
Lu8 Ni22 3.101091 1_545
Lu8 Ni7 3.122060 1_555
Lu8 Ni7 3.122060 1_556
Lu8 Ni10 3.158014 1_555
Lu9 Ni13 2.927024 1_556
Lu9 Ni13 2.927024 1_555
Lu9 Ni14 3.047485 1_656
Lu9 Ni14 3.047485 1_655
Lu9 Ni23 3.101091 1_655
Lu9 Ni8 3.122072 1_556
Lu9 Ni8 3.122072 1_555
Lu9 Ni11 3.158002 1_555
As0 Ni13 2.280249 1_445
As0 Ni12 2.280249 1_555
As0 Ni14 2.280249 1_545
As0 Lu7 2.992362 1_554
As0 Lu7 2.992362 1_555
As0 Lu9 2.992362 1_444
As0 Lu9 2.992362 1_445
As0 Lu8 2.992362 1_455
As0 Lu8 2.992362 1_454
As1 Ni20 2.316434 1_555
As1 Ni21 2.349772 1_555
As1 Ni6 2.366807 1_555
As1 Ni6 2.366807 1_556
As1 Ni9 2.391672 1_555
As1 Ni25 2.704373 1_556
As1 Ni25 2.704373 1_555
As1 Lu3 2.901681 1_555
As1 Lu3 2.901681 1_556
As2 Ni18 2.316434 1_555
As2 Ni22 2.349772 1_545
As2 Ni7 2.366812 1_556
As2 Ni7 2.366812 1_555
As2 Ni10 2.391678 1_555
As2 Ni26 2.704366 1_546
As2 Ni26 2.704366 1_545
As2 Lu4 2.901681 1_555
As2 Lu4 2.901681 1_556
As3 Ni19 2.316434 1_555
As3 Ni23 2.349772 1_655
As3 Ni8 2.366803 1_556
As3 Ni8 2.366803 1_555
As3 Ni11 2.391688 1_555
As3 Ni27 2.704361 1_655
As3 Ni27 2.704361 1_656
As3 Lu5 2.901681 1_556
As3 Lu5 2.901681 1_555
As4 Ni24 2.288400 1_555
As4 Ni9 2.347051 1_555
As4 Ni18 2.391740 1_555
As4 Ni0 2.402454 1_555
As4 Ni0 2.402454 1_556
As4 Lu4 2.958790 1_555
As4 Lu4 2.958790 1_556
As4 Lu3 2.992078 1_555
As4 Lu3 2.992078 1_556
As5 Ni24 2.288392 1_555
As5 Ni10 2.347035 1_555
As5 Ni19 2.391740 1_555
As5 Ni1 2.402454 1_555
As5 Ni1 2.402454 1_556
As5 Lu5 2.958790 1_556
As5 Lu5 2.958790 1_555
As5 Lu4 2.992078 1_555
As5 Lu4 2.992078 1_556
As6 Ni24 2.288408 1_555
As6 Ni11 2.347043 1_555
As6 Ni20 2.391740 1_555
As6 Ni2 2.402454 1_555
As6 Ni2 2.402454 1_556
As6 Lu3 2.958790 1_555
As6 Lu3 2.958790 1_556
As6 Lu5 2.992078 1_556
As6 Lu5 2.992078 1_555
As7 Ni21 2.311942 1_555
As7 Ni4 2.331104 1_555
As7 Ni15 2.393800 1_556
As7 Ni15 2.393800 1_555
As7 Ni3 2.400033 1_555
As7 Ni25 2.713705 1_556
As7 Ni25 2.713705 1_555
As7 Lu6 2.913610 1_556
As7 Lu6 2.913610 1_555
As8 Ni22 2.311942 1_555
As8 Ni5 2.331104 1_555
As8 Ni16 2.393800 1_555
As8 Ni16 2.393800 1_556
As8 Ni4 2.400033 1_555
As8 Ni26 2.713716 1_555
As8 Ni26 2.713716 1_556
As8 Lu6 2.913606 1_556
As8 Lu6 2.913606 1_555
As9 Ni23 2.311942 1_555
As9 Ni3 2.331104 1_555
As9 Ni17 2.393800 1_555
As9 Ni17 2.393800 1_556
As9 Ni5 2.400033 1_555
As9 Ni27 2.713714 1_556
As9 Ni27 2.713714 1_555
As9 Lu6 2.913598 1_555
As9 Lu6 2.913598 1_556
As10 Ni1 2.385075 1_455
As10 Ni15 2.397887 1_555
As10 Ni27 2.399586 1_555
As10 Ni19 2.430129 1_454
As10 Ni19 2.430129 1_455
As10 Ni3 2.454829 1_554
As10 Ni3 2.454829 1_555
As10 Lu0 2.943872 1_555
As10 Lu0 2.943872 1_554
As11 Ni2 2.385075 1_555
As11 Ni16 2.397887 1_555
As11 Ni25 2.399580 1_555
As11 Ni20 2.430129 1_555
As11 Ni20 2.430129 1_554
As11 Ni4 2.454829 1_554
As11 Ni4 2.454829 1_555
As11 Lu1 2.943877 1_555
As11 Lu1 2.943877 1_554
As12 Ni0 2.385075 1_565
As12 Ni17 2.397887 1_555
As12 Ni26 2.399570 1_555
As12 Ni18 2.430129 1_565
As12 Ni18 2.430129 1_564
As12 Ni5 2.454829 1_555
As12 Ni5 2.454829 1_554
As12 Lu2 2.943884 1_555
As12 Lu2 2.943884 1_554
As13 Ni12 2.233983 1_555
As13 Ni21 2.360566 1_554
As13 Ni21 2.360566 1_555
As13 Ni6 2.388203 1_555
As13 Ni15 2.401596 1_555
As13 Lu7 2.948275 1_554
As13 Lu7 2.948275 1_555
As13 Lu0 3.007325 1_555
As13 Lu0 3.007325 1_554
As14 Ni13 2.233983 1_555
As14 Ni22 2.360566 1_554
As14 Ni22 2.360566 1_555
As14 Ni7 2.388187 1_565
As14 Ni16 2.401596 1_555
As14 Lu8 2.948275 1_565
As14 Lu8 2.948275 1_564
As14 Lu1 3.007312 1_555
As14 Lu1 3.007312 1_554
As15 Ni14 2.233983 1_555
As15 Ni23 2.360566 1_555
As15 Ni23 2.360566 1_554
As15 Ni8 2.388195 1_455
As15 Ni17 2.401596 1_555
As15 Lu9 2.948275 1_455
As15 Lu9 2.948275 1_454
As15 Lu2 3.007317 1_555
As15 Lu2 3.007317 1_554
As16 Ni14 2.248361 1_545
As16 Ni9 2.368177 1_554
As16 Ni9 2.368177 1_555
As16 Ni0 2.388419 1_555
As16 Ni6 2.390034 1_555
As16 Lu7 2.949886 1_554
As16 Lu7 2.949886 1_555
As16 Lu2 2.981344 1_545
As16 Lu2 2.981344 1_544
As17 Ni12 2.248351 1_655
As17 Ni10 2.368188 1_554
As17 Ni10 2.368188 1_555
As17 Ni1 2.388435 1_555
As17 Ni7 2.390034 1_555
As17 Lu8 2.949874 1_555
As17 Lu8 2.949874 1_554
As17 Lu0 2.981354 1_655
As17 Lu0 2.981354 1_654
As18 Ni13 2.248367 1_555
As18 Ni11 2.368169 1_555
As18 Ni11 2.368169 1_554
As18 Ni2 2.388427 1_555
As18 Ni8 2.390034 1_555
As18 Lu9 2.949879 1_554
As18 Lu9 2.949879 1_555
As18 Lu1 2.981368 1_555
As18 Lu1 2.981368 1_554
