# generated using pymatgen
data_Ba2LaBiO6
_symmetry_space_group_name_H-M   'P 1'
_cell_length_a   8.93391433
_cell_length_b   8.93391433
_cell_length_c   8.93391433
_cell_angle_alpha   90.00000000
_cell_angle_beta   90.00000000
_cell_angle_gamma   90.00000000
_symmetry_Int_Tables_number   1
_chemical_formula_structural   Ba2LaBiO6
_chemical_formula_sum   'Ba8 La4 Bi4 O24'
_cell_volume   713.05881110
_cell_formula_units_Z   4
loop_
 _symmetry_equiv_pos_site_id
 _symmetry_equiv_pos_as_xyz
  1  'x, y, z'
loop_
 _atom_site_type_symbol
 _atom_site_label
 _atom_site_symmetry_multiplicity
 _atom_site_fract_x
 _atom_site_fract_y
 _atom_site_fract_z
 _atom_site_occupancy
  Ba  Ba0  1  0.50000000  0.50000000  0.50000000  1
  Ba  Ba1  1  0.00000000  -0.00000000  -0.00000000  1
  Ba  Ba2  1  0.00000000  -0.00000000  0.50000000  1
  Ba  Ba3  1  0.00000000  0.50000000  -0.00000000  1
  Ba  Ba4  1  0.50000000  -0.00000000  -0.00000000  1
  Ba  Ba5  1  0.50000000  0.50000000  -0.00000000  1
  Ba  Ba6  1  0.50000000  -0.00000000  0.50000000  1
  Ba  Ba7  1  0.00000000  0.50000000  0.50000000  1
  La  La0  1  0.25000000  0.25000000  0.25000000  1
  La  La1  1  0.25000000  0.75000000  0.75000000  1
  La  La2  1  0.75000000  0.25000000  0.75000000  1
  La  La3  1  0.75000000  0.75000000  0.25000000  1
  Bi  Bi0  1  0.75000000  0.75000000  0.75000000  1
  Bi  Bi1  1  0.75000000  0.25000000  0.25000000  1
  Bi  Bi2  1  0.25000000  0.75000000  0.25000000  1
  Bi  Bi3  1  0.25000000  0.25000000  0.75000000  1
  O  O0  1  0.22370784  0.28038455  0.51182528  1
  O  O1  1  0.22370784  0.71961545  0.48817472  1
  O  O2  1  0.77629216  0.28038455  0.48817472  1
  O  O3  1  0.77629216  0.71961545  0.51182528  1
  O  O4  1  0.28038455  0.51182528  0.22370784  1
  O  O5  1  0.71961545  0.48817472  0.22370784  1
  O  O6  1  0.28038455  0.48817472  0.77629216  1
  O  O7  1  0.71961545  0.51182528  0.77629216  1
  O  O8  1  0.51182528  0.22370784  0.28038455  1
  O  O9  1  0.48817472  0.22370784  0.71961545  1
  O  O10  1  0.48817472  0.77629216  0.28038455  1
  O  O11  1  0.51182528  0.77629216  0.71961545  1
  O  O12  1  0.27629216  0.21961545  0.98817472  1
  O  O13  1  0.27629216  0.78038455  0.01182528  1
  O  O14  1  0.72370784  0.21961545  0.01182528  1
  O  O15  1  0.72370784  0.78038455  0.98817472  1
  O  O16  1  0.21961545  0.98817472  0.27629216  1
  O  O17  1  0.78038455  0.01182528  0.27629216  1
  O  O18  1  0.21961545  0.01182528  0.72370784  1
  O  O19  1  0.78038455  0.98817472  0.72370784  1
  O  O20  1  0.98817472  0.27629216  0.21961545  1
  O  O21  1  0.01182528  0.27629216  0.78038455  1
  O  O22  1  0.01182528  0.72370784  0.21961545  1
  O  O23  1  0.98817472  0.72370784  0.78038455  1
loop_
_geom_bond_atom_site_label_1
_geom_bond_atom_site_label_2
_geom_bond_distance
_geom_bond_site_symmetry_2
Ba0 O4 3.154926 1_555
Ba0 O6 3.154926 1_555
Ba0 O8 3.154926 1_555
Ba0 O0 3.154926 1_555
Ba0 O10 3.154926 1_555
Ba0 O2 3.154926 1_555
Ba0 O7 3.154926 1_555
Ba0 O9 3.154926 1_555
Ba0 O3 3.154926 1_555
Ba0 O11 3.154926 1_555
Ba0 O1 3.154926 1_555
Ba0 O5 3.154926 1_555
Ba1 O17 3.154926 1_455
Ba1 O14 3.154926 1_455
Ba1 O21 3.154926 1_554
Ba1 O23 3.154926 1_444
Ba1 O12 3.154926 1_554
Ba1 O13 3.154926 1_545
Ba1 O15 3.154926 1_444
Ba1 O19 3.154926 1_444
Ba1 O16 3.154926 1_545
Ba1 O20 3.154926 1_455
Ba1 O22 3.154926 1_545
Ba1 O18 3.154926 1_554
Ba2 O19 2.802687 1_445
Ba2 O17 2.802687 1_455
Ba2 O16 2.802687 1_545
Ba2 O18 2.802687 1_555
Ba2 O1 3.206274 1_545
Ba2 O3 3.206274 1_445
Ba2 O0 3.206274 1_555
Ba2 O2 3.206274 1_455
Ba3 O23 2.802687 1_454
Ba3 O21 2.802687 1_554
Ba3 O22 2.802687 1_555
Ba3 O20 2.802687 1_455
Ba3 O5 3.206274 1_455
Ba3 O7 3.206274 1_454
Ba3 O6 3.206274 1_554
Ba3 O4 3.206274 1_555
Ba4 O15 2.802687 1_544
Ba4 O13 2.802687 1_545
Ba4 O14 2.802687 1_555
Ba4 O12 2.802687 1_554
Ba4 O11 3.206274 1_544
Ba4 O9 3.206274 1_554
Ba4 O8 3.206274 1_555
Ba4 O10 3.206274 1_545
Ba5 O6 2.802687 1_554
Ba5 O4 2.802687 1_555
Ba5 O5 2.802687 1_555
Ba5 O7 2.802687 1_554
Ba5 O14 3.206274 1_555
Ba5 O12 3.206274 1_554
Ba5 O15 3.206274 1_554
Ba5 O13 3.206274 1_555
Ba6 O8 2.802687 1_555
Ba6 O10 2.802687 1_545
Ba6 O9 2.802687 1_555
Ba6 O11 2.802687 1_545
Ba6 O16 3.206274 1_545
Ba6 O18 3.206274 1_555
Ba6 O19 3.206274 1_545
Ba6 O17 3.206274 1_555
Ba7 O0 2.802687 1_555
Ba7 O2 2.802687 1_455
Ba7 O1 2.802687 1_555
Ba7 O3 2.802687 1_455
Ba7 O20 3.206274 1_455
Ba7 O22 3.206274 1_555
Ba7 O21 3.206274 1_555
Ba7 O23 3.206274 1_455
La0 O16 2.366509 1_545
La0 O12 2.366509 1_554
La0 O20 2.366509 1_455
La0 O8 2.366509 1_555
La0 O0 2.366509 1_555
La0 O4 2.366509 1_555
La1 O23 2.366509 1_455
La1 O1 2.366509 1_555
La1 O6 2.366509 1_555
La1 O18 2.366509 1_565
La1 O13 2.366509 1_556
La1 O11 2.366509 1_555
La2 O19 2.366509 1_545
La2 O2 2.366509 1_555
La2 O9 2.366509 1_555
La2 O21 2.366509 1_655
La2 O7 2.366509 1_555
La2 O14 2.366509 1_556
La3 O15 2.366509 1_554
La3 O10 2.366509 1_555
La3 O5 2.366509 1_555
La3 O3 2.366509 1_555
La3 O22 2.366509 1_655
La3 O17 2.366509 1_565
Bi0 O7 2.157900 1_555
Bi0 O3 2.157900 1_555
Bi0 O11 2.157900 1_555
Bi0 O23 2.157900 1_555
Bi0 O15 2.157900 1_555
Bi0 O19 2.157900 1_555
Bi1 O8 2.157900 1_555
Bi1 O2 2.157900 1_555
Bi1 O17 2.157900 1_555
Bi1 O5 2.157900 1_555
Bi1 O14 2.157900 1_555
Bi1 O20 2.157900 1_555
Bi2 O4 2.157900 1_555
Bi2 O22 2.157900 1_555
Bi2 O13 2.157900 1_555
Bi2 O10 2.157900 1_555
Bi2 O1 2.157900 1_555
Bi2 O16 2.157900 1_555
Bi3 O9 2.157900 1_555
Bi3 O0 2.157900 1_555
Bi3 O18 2.157900 1_555
Bi3 O21 2.157900 1_555
Bi3 O6 2.157900 1_555
Bi3 O12 2.157900 1_555
