# generated using pymatgen
data_Li9Mn2Co5O16
_symmetry_space_group_name_H-M   'P 1'
_cell_length_a   5.13086698
_cell_length_b   7.74561420
_cell_length_c   7.74561404
_cell_angle_alpha   96.38826114
_cell_angle_beta   76.09333391
_cell_angle_gamma   76.09333488
_symmetry_Int_Tables_number   1
_chemical_formula_structural   Li9Mn2Co5O16
_chemical_formula_sum   'Li9 Mn2 Co5 O16'
_cell_volume   285.33777528
_cell_formula_units_Z   1
loop_
 _symmetry_equiv_pos_site_id
 _symmetry_equiv_pos_as_xyz
  1  'x, y, z'
loop_
 _atom_site_type_symbol
 _atom_site_label
 _atom_site_symmetry_multiplicity
 _atom_site_fract_x
 _atom_site_fract_y
 _atom_site_fract_z
 _atom_site_occupancy
  Li  Li0  1  0.01300800  0.11622100  0.36790000  1
  Li  Li1  1  0.98699200  0.63210000  0.88377900  1
  Li  Li2  1  0.50013100  0.99606100  0.49340200  1
  Li  Li3  1  0.49986900  0.50659800  0.00393900  1
  Li  Li4  1  0.00434500  0.87772700  0.62826900  1
  Li  Li5  1  0.99565500  0.37173100  0.12227300  1
  Li  Li6  1  0.49821800  0.75290200  0.75512800  1
  Li  Li7  1  0.50178200  0.24487200  0.24709800  1
  Li  Li8  1  0.50000000  0.87542100  0.12457900  1
  Mn  Mn0  1  0.00000000  0.00004500  0.99995500  1
  Mn  Mn1  1  0.50000000  0.37469500  0.62530500  1
  Co  Co0  1  0.00000000  0.50124700  0.49875300  1
  Co  Co1  1  0.00000000  0.75444400  0.24555600  1
  Co  Co2  1  0.00000000  0.24901900  0.75098100  1
  Co  Co3  1  0.50000000  0.62706400  0.37293600  1
  Co  Co4  1  0.50000000  0.12274400  0.87725600  1
  O  O0  1  0.77701700  0.99958900  0.23819000  1
  O  O1  1  0.77566700  0.49693700  0.74702500  1
  O  O2  1  0.25364700  0.84567000  0.37084000  1
  O  O3  1  0.26919300  0.35999000  0.86241300  1
  O  O4  1  0.73658000  0.73424000  0.48684900  1
  O  O5  1  0.77344000  0.23911300  0.99479500  1
  O  O6  1  0.26891100  0.61192000  0.60504000  1
  O  O7  1  0.24706700  0.11466000  0.09986000  1
  O  O8  1  0.22433300  0.25297500  0.50306300  1
  O  O9  1  0.22298300  0.76181000  0.00041100  1
  O  O10  1  0.73080700  0.13758700  0.64001000  1
  O  O11  1  0.74635300  0.62916000  0.15433000  1
  O  O12  1  0.22656000  0.00520500  0.76088700  1
  O  O13  1  0.26342000  0.51315100  0.26576000  1
  O  O14  1  0.75293300  0.90014000  0.88534000  1
  O  O15  1  0.73108900  0.39496000  0.38808000  1
loop_
_geom_bond_atom_site_label_1
_geom_bond_atom_site_label_2
_geom_bond_distance
_geom_bond_site_symmetry_2
Li0 O0 2.049440 1_445
Li0 O8 2.060255 1_555
Li0 O7 2.131117 1_555
Li0 O2 2.167225 1_545
Li0 O10 2.215041 1_455
Li0 O15 2.256796 1_455
Li1 O9 2.049440 1_656
Li1 O1 2.060255 1_555
Li1 O14 2.131117 1_555
Li1 O11 2.167225 1_556
Li1 O3 2.215041 1_655
Li1 O6 2.256796 1_655
Li2 O4 2.086124 1_555
Li2 O8 2.128467 1_565
Li2 O0 2.146494 1_555
Li2 O12 2.188478 1_565
Li2 O10 2.210137 1_565
Li2 O2 2.212845 1_555
Li3 O13 2.086124 1_555
Li3 O1 2.128467 1_554
Li3 O9 2.146494 1_555
Li3 O5 2.188478 1_554
Li3 O3 2.210137 1_554
Li3 O11 2.212845 1_555
Li4 O2 2.045684 1_555
Li4 O12 2.051454 1_565
Li4 O14 2.059051 1_455
Li4 O10 2.137603 1_465
Li4 O6 2.137904 1_555
Li4 O4 2.347127 1_455
Li5 O11 2.045684 1_555
Li5 O5 2.051454 1_554
Li5 O7 2.059051 1_655
Li5 O3 2.137603 1_654
Li5 O15 2.137904 1_555
Li5 O13 2.347127 1_655
Li6 O9 2.059825 1_556
Li6 O12 2.098863 1_565
Li6 O4 2.112165 1_555
Li6 O1 2.129292 1_555
Li6 O6 2.218264 1_555
Li6 O14 2.262724 1_555
Li7 O0 2.059825 1_545
Li7 O5 2.098863 1_554
Li7 O13 2.112165 1_555
Li7 O8 2.129292 1_555
Li7 O15 2.218264 1_555
Li7 O7 2.262724 1_555
Li8 O14 2.048680 1_554
Li8 O7 2.048680 1_565
Li8 O2 2.089986 1_555
Li8 O11 2.089986 1_555
Li8 O9 2.188497 1_555
Li8 O0 2.188497 1_555
Mn0 O0 1.924215 1_446
Mn0 O9 1.924215 1_546
Mn0 O12 1.945738 1_555
Mn0 O5 1.945739 1_455
Mn0 O14 1.963039 1_445
Mn0 O7 1.963039 1_556
Mn1 O3 1.963224 1_555
Mn1 O10 1.963224 1_555
Mn1 O15 1.978164 1_555
Mn1 O6 1.978164 1_555
Mn1 O8 2.207262 1_555
Mn1 O1 2.207262 1_555
Co0 O1 1.998191 1_455
Co0 O8 1.998191 1_555
Co0 O13 2.004140 1_555
Co0 O4 2.004140 1_455
Co0 O15 2.067314 1_455
Co0 O6 2.067314 1_555
Co1 O9 1.982144 1_555
Co1 O0 1.982144 1_455
Co1 O2 2.007781 1_555
Co1 O11 2.007781 1_455
Co1 O4 2.072871 1_455
Co1 O13 2.072871 1_555
Co2 O5 1.985814 1_455
Co2 O12 1.985814 1_555
Co2 O8 1.995209 1_555
Co2 O1 1.995209 1_455
Co2 O3 2.090469 1_555
Co2 O10 2.090469 1_455
Co3 O11 1.858016 1_555
Co3 O2 1.858016 1_555
Co3 O6 1.934117 1_555
Co3 O15 1.934117 1_555
Co3 O4 1.943526 1_555
Co3 O13 1.943526 1_555
Co4 O7 1.910105 1_556
Co4 O14 1.910105 1_545
Co4 O10 1.964404 1_555
Co4 O3 1.964404 1_555
Co4 O5 2.156124 1_555
Co4 O12 2.156124 1_555
