# generated using pymatgen
data_Rh(CO)3
_symmetry_space_group_name_H-M   'P 1'
_cell_length_a   11.95735000
_cell_length_b   9.34497100
_cell_length_c   17.90969358
_cell_angle_alpha   89.20926042
_cell_angle_beta   90.00000000
_cell_angle_gamma   90.00000000
_symmetry_Int_Tables_number   1
_chemical_formula_structural   Rh(CO)3
_chemical_formula_sum   'Rh16 C48 O48'
_cell_volume   2001.05808068
_cell_formula_units_Z   16
loop_
 _symmetry_equiv_pos_site_id
 _symmetry_equiv_pos_as_xyz
  1  'x, y, z'
loop_
 _atom_site_type_symbol
 _atom_site_label
 _atom_site_symmetry_multiplicity
 _atom_site_fract_x
 _atom_site_fract_y
 _atom_site_fract_z
 _atom_site_occupancy
  Rh  Rh0  1  0.64316700  0.67161000  0.88353000  1
  Rh  Rh1  1  0.14316700  0.32839000  0.61647000  1
  Rh  Rh2  1  0.35683300  0.32839000  0.11647000  1
  Rh  Rh3  1  0.85683300  0.67161000  0.38353000  1
  Rh  Rh4  1  0.74445700  0.77234500  0.75503700  1
  Rh  Rh5  1  0.24445700  0.22765500  0.74496300  1
  Rh  Rh6  1  0.25554300  0.22765500  0.24496300  1
  Rh  Rh7  1  0.75554300  0.77234500  0.25503700  1
  Rh  Rh8  1  0.74005400  0.94262400  0.88029800  1
  Rh  Rh9  1  0.24005400  0.05737600  0.61970200  1
  Rh  Rh10  1  0.25994600  0.05737600  0.11970200  1
  Rh  Rh11  1  0.75994600  0.94262400  0.38029800  1
  Rh  Rh12  1  0.87143400  0.69762500  0.88308400  1
  Rh  Rh13  1  0.37143400  0.30237500  0.61691600  1
  Rh  Rh14  1  0.12856600  0.30237500  0.11691600  1
  Rh  Rh15  1  0.62856600  0.69762500  0.38308400  1
  C  C0  1  0.64297300  0.94764900  0.78133600  1
  C  C1  1  0.14297300  0.05235100  0.71866400  1
  C  C2  1  0.35702700  0.05235100  0.21866400  1
  C  C3  1  0.85702700  0.94764900  0.28133600  1
  C  C4  1  0.83584600  0.84382200  0.96705200  1
  C  C5  1  0.33584600  0.15617800  0.53294800  1
  C  C6  1  0.16415400  0.15617800  0.03294800  1
  C  C7  1  0.66415400  0.84382200  0.46705200  1
  C  C8  1  0.85962900  0.60323000  0.77756800  1
  C  C9  1  0.35962900  0.39677000  0.72243200  1
  C  C10  1  0.14037100  0.39677000  0.22243200  1
  C  C11  1  0.64037100  0.60323000  0.27756800  1
  C  C12  1  0.49211500  0.73147900  0.86066300  1
  C  C13  1  0.99211500  0.26852100  0.63933700  1
  C  C14  1  0.50788500  0.26852100  0.13933700  1
  C  C15  1  0.00788500  0.73147900  0.36066300  1
  C  C16  1  0.63890200  0.47688700  0.84912000  1
  C  C17  1  0.13890200  0.52311300  0.65088000  1
  C  C18  1  0.36109800  0.52311300  0.15088000  1
  C  C19  1  0.86109800  0.47688700  0.34912000  1
  C  C20  1  0.62929300  0.64167800  0.98973400  1
  C  C21  1  0.12929300  0.35832200  0.51026600  1
  C  C22  1  0.37070700  0.35832200  0.01026600  1
  C  C23  1  0.87070700  0.64167800  0.48973400  1
  C  C24  1  0.65657400  0.66580400  0.68698300  1
  C  C25  1  0.15657400  0.33419600  0.81301700  1
  C  C26  1  0.34342600  0.33419600  0.31301700  1
  C  C27  1  0.84342600  0.66580400  0.18698300  1
  C  C28  1  0.82975900  0.86624500  0.67809400  1
  C  C29  1  0.32975900  0.13375500  0.82190600  1
  C  C30  1  0.17024100  0.13375500  0.32190600  1
  C  C31  1  0.67024100  0.86624500  0.17809400  1
  C  C32  1  0.64494100  0.05517800  0.94247700  1
  C  C33  1  0.14494100  0.94482200  0.55752300  1
  C  C34  1  0.35505900  0.94482200  0.05752300  1
  C  C35  1  0.85505900  0.05517800  0.44247700  1
  C  C36  1  0.84009800  0.09529900  0.85506600  1
  C  C37  1  0.34009800  0.90470100  0.64493400  1
  C  C38  1  0.15990200  0.90470100  0.14493400  1
  C  C39  1  0.65990200  0.09529900  0.35506600  1
  C  C40  1  0.88337600  0.52477000  0.93914700  1
  C  C41  1  0.38337600  0.47523000  0.56085300  1
  C  C42  1  0.11662400  0.47523000  0.06085300  1
  C  C43  1  0.61662400  0.52477000  0.43914700  1
  C  C44  1  0.02818300  0.74602400  0.87679500  1
  C  C45  1  0.52818300  0.25397600  0.62320500  1
  C  C46  1  0.97181700  0.25397600  0.12320500  1
  C  C47  1  0.47181700  0.74602400  0.37679500  1
  O  O0  1  0.57055200  0.01616100  0.75453700  1
  O  O1  1  0.07055200  0.98383900  0.74546300  1
  O  O2  1  0.42944800  0.98383900  0.24546300  1
  O  O3  1  0.92944800  0.01616100  0.25453700  1
  O  O4  1  0.85864100  0.86631100  0.02968900  1
  O  O5  1  0.35864100  0.13368900  0.47031100  1
  O  O6  1  0.14135900  0.13368900  0.97031100  1
  O  O7  1  0.64135900  0.86631100  0.52968900  1
  O  O8  1  0.89829600  0.50685800  0.74505900  1
  O  O9  1  0.39829600  0.49314200  0.75494100  1
  O  O10  1  0.10170400  0.49314200  0.25494100  1
  O  O11  1  0.60170400  0.50685800  0.24505900  1
  O  O12  1  0.40035400  0.76247600  0.84834000  1
  O  O13  1  0.90035400  0.23752400  0.65166000  1
  O  O14  1  0.59964600  0.23752400  0.15166000  1
  O  O15  1  0.09964600  0.76247600  0.34834000  1
  O  O16  1  0.63474100  0.36025200  0.82813300  1
  O  O17  1  0.13474100  0.63974800  0.67186700  1
  O  O18  1  0.36525900  0.63974800  0.17186700  1
  O  O19  1  0.86525900  0.36025200  0.32813300  1
  O  O20  1  0.61923300  0.61610100  0.05291000  1
  O  O21  1  0.11923300  0.38389900  0.44709000  1
  O  O22  1  0.38076700  0.38389900  0.94709000  1
  O  O23  1  0.88076700  0.61610100  0.55291000  1
  O  O24  1  0.60777000  0.59573200  0.64526800  1
  O  O25  1  0.10777000  0.40426800  0.85473200  1
  O  O26  1  0.39223000  0.40426800  0.35473200  1
  O  O27  1  0.89223000  0.59573200  0.14526800  1
  O  O28  1  0.87907100  0.92118500  0.63014500  1
  O  O29  1  0.37907100  0.07881500  0.86985500  1
  O  O30  1  0.12092900  0.07881500  0.36985500  1
  O  O31  1  0.62092900  0.92118500  0.13014500  1
  O  O32  1  0.58956600  0.12766700  0.97916400  1
  O  O33  1  0.08956600  0.87233300  0.52083600  1
  O  O34  1  0.41043400  0.87233300  0.02083600  1
  O  O35  1  0.91043400  0.12766700  0.47916400  1
  O  O36  1  0.90088900  0.18642800  0.83804000  1
  O  O37  1  0.40088900  0.81357200  0.66196000  1
  O  O38  1  0.09911100  0.81357200  0.16196000  1
  O  O39  1  0.59911100  0.18642800  0.33804000  1
  O  O40  1  0.88390100  0.41746900  0.97243600  1
  O  O41  1  0.38390100  0.58253100  0.52756400  1
  O  O42  1  0.11609900  0.58253100  0.02756400  1
  O  O43  1  0.61609900  0.41746900  0.47243600  1
  O  O44  1  0.12229900  0.77357200  0.87481400  1
  O  O45  1  0.62229900  0.22642800  0.62518600  1
  O  O46  1  0.87770100  0.22642800  0.12518600  1
  O  O47  1  0.37770100  0.77357200  0.37481400  1
loop_
_geom_bond_atom_site_label_1
_geom_bond_atom_site_label_2
_geom_bond_distance
_geom_bond_site_symmetry_2
C0 O0 1.175451 1_565
C0 Rh4 2.097478 1_555
C0 Rh8 2.118671 1_555
C1 O1 1.175451 1_545
C1 Rh5 2.097478 1_555
C1 Rh9 2.118671 1_555
C2 O2 1.175451 1_545
C2 Rh6 2.097478 1_555
C2 Rh10 2.118671 1_555
C3 O3 1.175451 1_565
C3 Rh7 2.097478 1_555
C3 Rh11 2.118671 1_555
C4 O4 1.176190 1_556
C4 Rh12 2.089462 1_555
C4 Rh8 2.130487 1_555
C5 O5 1.176190 1_555
C5 Rh13 2.089462 1_555
C5 Rh9 2.130487 1_555
C6 O6 1.176190 1_554
C6 Rh14 2.089462 1_555
C6 Rh10 2.130487 1_555
C7 O7 1.176190 1_555
C7 Rh15 2.089462 1_555
C7 Rh11 2.130487 1_555
C8 O8 1.174011 1_555
C8 Rh12 2.101252 1_555
C8 Rh4 2.130578 1_555
C9 O9 1.174011 1_555
C9 Rh13 2.101252 1_555
C9 Rh5 2.130578 1_555
C10 O10 1.174011 1_555
C10 Rh14 2.101252 1_555
C10 Rh6 2.130578 1_555
C11 O11 1.174011 1_555
C11 Rh15 2.101252 1_555
C11 Rh7 2.130578 1_555
C12 O12 1.155309 1_555
C12 Rh0 1.933055 1_555
C13 O13 1.155309 1_555
C13 Rh1 1.933055 1_655
C14 O14 1.155309 1_555
C14 Rh2 1.933055 1_555
C15 O15 1.155309 1_555
C15 Rh3 1.933055 1_455
C16 O16 1.158902 1_555
C16 Rh0 1.929918 1_555
C17 O17 1.158902 1_555
C17 Rh1 1.929918 1_555
C18 O18 1.158902 1_555
C18 Rh2 1.929918 1_555
C19 O19 1.158902 1_555
C19 Rh3 1.929918 1_555
C20 O20 1.159458 1_556
C20 Rh0 1.925874 1_555
C21 O21 1.159458 1_555
C21 Rh1 1.925874 1_555
C22 O22 1.159458 1_554
C22 Rh2 1.925874 1_555
C23 O23 1.159458 1_555
C23 Rh3 1.925874 1_555
C24 O24 1.158018 1_555
C24 Rh4 1.901204 1_555
C25 O25 1.158018 1_555
C25 Rh5 1.901204 1_555
C26 O26 1.158018 1_555
C26 Rh6 1.901204 1_555
C27 O27 1.158018 1_555
C27 Rh7 1.901204 1_555
C28 O28 1.156095 1_555
C28 Rh4 1.917275 1_555
C29 O29 1.156095 1_555
C29 Rh5 1.917275 1_555
C30 O30 1.156095 1_555
C30 Rh6 1.917275 1_555
C31 O31 1.156095 1_555
C31 Rh7 1.917275 1_555
C32 O32 1.158150 1_555
C32 Rh8 1.916302 1_545
C33 O33 1.158150 1_555
C33 Rh9 1.916302 1_565
C34 O34 1.158150 1_555
C34 Rh10 1.916302 1_565
C35 O35 1.158150 1_555
C35 Rh11 1.916302 1_545
C36 O36 1.157332 1_555
C36 Rh8 1.911296 1_545
C37 O37 1.157332 1_555
C37 Rh9 1.911296 1_565
C38 O38 1.157332 1_555
C38 Rh10 1.911296 1_565
C39 O39 1.157332 1_555
C39 Rh11 1.911296 1_545
C40 O40 1.159502 1_555
C40 Rh12 1.895536 1_555
C41 O41 1.159502 1_555
C41 Rh13 1.895536 1_555
C42 O42 1.159502 1_555
C42 Rh14 1.895536 1_555
C43 O43 1.159502 1_555
C43 Rh15 1.895536 1_555
C44 O44 1.154883 1_555
C44 Rh12 1.931024 1_455
C45 O45 1.154883 1_555
C45 Rh13 1.931024 1_555
C46 O46 1.154883 1_555
C46 Rh14 1.931024 1_655
C47 O47 1.154883 1_555
C47 Rh15 1.931024 1_555
