# generated using pymatgen
data_CsP(OF)2
_symmetry_space_group_name_H-M   'P 1'
_cell_length_a   6.86536641
_cell_length_b   7.96751217
_cell_length_c   8.23991468
_cell_angle_alpha   90.00000000
_cell_angle_beta   90.00000000
_cell_angle_gamma   90.00000000
_symmetry_Int_Tables_number   1
_chemical_formula_structural   CsP(OF)2
_chemical_formula_sum   'Cs4 P4 O8 F8'
_cell_volume   450.72243009
_cell_formula_units_Z   4
loop_
 _symmetry_equiv_pos_site_id
 _symmetry_equiv_pos_as_xyz
  1  'x, y, z'
loop_
 _atom_site_type_symbol
 _atom_site_label
 _atom_site_symmetry_multiplicity
 _atom_site_fract_x
 _atom_site_fract_y
 _atom_site_fract_z
 _atom_site_occupancy
  Cs  Cs0  1  0.25000000  0.35720168  0.63325081  1
  Cs  Cs1  1  0.25000000  0.14279832  0.13325081  1
  Cs  Cs2  1  0.75000000  0.64279832  0.36674919  1
  Cs  Cs3  1  0.75000000  0.85720168  0.86674919  1
  P  P0  1  0.25000000  0.81995532  0.61869968  1
  P  P1  1  0.25000000  0.68004468  0.11869968  1
  P  P2  1  0.75000000  0.18004468  0.38130032  1
  P  P3  1  0.75000000  0.31995532  0.88130032  1
  O  O0  1  0.06194335  0.73134113  0.61838899  1
  O  O1  1  0.43805665  0.76865887  0.11838899  1
  O  O2  1  0.56194335  0.26865887  0.38161101  1
  O  O3  1  0.93805665  0.23134113  0.88161101  1
  O  O4  1  0.93805665  0.26865887  0.38161101  1
  O  O5  1  0.56194335  0.23134113  0.88161101  1
  O  O6  1  0.43805665  0.73134113  0.61838899  1
  O  O7  1  0.06194335  0.76865887  0.11838899  1
  F  F0  1  0.25000000  0.95028611  0.76372213  1
  F  F1  1  0.25000000  0.54971389  0.26372213  1
  F  F2  1  0.75000000  0.04971389  0.23627787  1
  F  F3  1  0.75000000  0.45028611  0.73627787  1
  F  F4  1  0.25000000  0.95419658  0.47772449  1
  F  F5  1  0.25000000  0.54580342  0.97772449  1
  F  F6  1  0.75000000  0.04580342  0.52227551  1
  F  F7  1  0.75000000  0.45419658  0.02227551  1
loop_
_geom_bond_atom_site_label_1
_geom_bond_atom_site_label_2
_geom_bond_distance
_geom_bond_site_symmetry_2
Cs0 O4 3.063253 1_455
Cs0 O2 3.063253 1_555
Cs0 O3 3.127315 1_455
Cs0 O5 3.127315 1_555
Cs0 F5 3.211662 1_555
Cs0 O6 3.250847 1_555
Cs0 O0 3.250847 1_555
Cs0 F1 3.409399 1_555
Cs0 F0 3.415703 1_545
Cs0 F4 3.457237 1_545
Cs0 F3 3.613039 1_555
Cs0 F3 3.613039 1_455
Cs1 O3 3.063253 1_454
Cs1 O5 3.063253 1_554
Cs1 O4 3.127315 1_455
Cs1 O2 3.127315 1_555
Cs1 F4 3.211662 1_545
Cs1 O7 3.250847 1_545
Cs1 O1 3.250847 1_545
Cs1 F0 3.409399 1_544
Cs1 F1 3.415703 1_555
Cs1 F5 3.457237 1_554
Cs1 F2 3.613039 1_455
Cs1 F2 3.613039 1_555
Cs2 O0 3.063253 1_655
Cs2 O6 3.063253 1_555
Cs2 O1 3.127315 1_555
Cs2 O7 3.127315 1_655
Cs2 F7 3.211662 1_555
Cs2 O4 3.250847 1_555
Cs2 O2 3.250847 1_555
Cs2 F3 3.409399 1_555
Cs2 F2 3.415703 1_565
Cs2 F6 3.457237 1_565
Cs2 F1 3.613039 1_555
Cs2 F1 3.613039 1_655
Cs3 O1 3.063253 1_556
Cs3 O7 3.063253 1_656
Cs3 O6 3.127315 1_555
Cs3 O0 3.127315 1_655
Cs3 F6 3.211662 1_565
Cs3 O5 3.250847 1_565
Cs3 O3 3.250847 1_565
Cs3 F2 3.409399 1_566
Cs3 F3 3.415703 1_555
Cs3 F7 3.457237 1_556
Cs3 F0 3.613039 1_655
Cs3 F0 3.613039 1_555
O0 P0 1.471521 1_555
O1 P1 1.471521 1_555
O2 P2 1.471521 1_555
O3 P3 1.471521 1_555
O4 P2 1.471521 1_555
O5 P3 1.471521 1_555
O6 P0 1.471521 1_555
O7 P1 1.471521 1_555
F0 P0 1.583117 1_555
F1 P1 1.583117 1_555
F2 P2 1.583117 1_555
F3 P3 1.583117 1_555
F4 P0 1.579034 1_555
F5 P1 1.579034 1_556
F6 P2 1.579034 1_555
F7 P3 1.579034 1_554
