# generated using pymatgen
data_Ca10P6SO24
_symmetry_space_group_name_H-M   'P 1'
_cell_length_a   9.68032443
_cell_length_b   9.68032443
_cell_length_c   6.78165600
_cell_angle_alpha   90.00000000
_cell_angle_beta   90.00000000
_cell_angle_gamma   120.00000295
_symmetry_Int_Tables_number   1
_chemical_formula_structural   Ca10P6SO24
_chemical_formula_sum   'Ca10 P6 S1 O24'
_cell_volume   550.35916195
_cell_formula_units_Z   1
loop_
 _symmetry_equiv_pos_site_id
 _symmetry_equiv_pos_as_xyz
  1  'x, y, z'
loop_
 _atom_site_type_symbol
 _atom_site_label
 _atom_site_symmetry_multiplicity
 _atom_site_fract_x
 _atom_site_fract_y
 _atom_site_fract_z
 _atom_site_occupancy
  Ca  Ca0  1  0.33333300  0.66666700  0.52527100  1
  Ca  Ca1  1  0.66666700  0.33333300  0.98183300  1
  Ca  Ca2  1  0.66666700  0.33333300  0.47472900  1
  Ca  Ca3  1  0.33333300  0.66666700  0.01816700  1
  Ca  Ca4  1  0.99246500  0.24900200  0.76276800  1
  Ca  Ca5  1  0.25653600  0.00753500  0.76276800  1
  Ca  Ca6  1  0.75099800  0.74346400  0.76276800  1
  Ca  Ca7  1  0.00753500  0.75099800  0.23723200  1
  Ca  Ca8  1  0.74346400  0.99246500  0.23723200  1
  Ca  Ca9  1  0.24900200  0.25653600  0.23723200  1
  P  P0  1  0.62517400  0.03057400  0.74661900  1
  P  P1  1  0.40539900  0.37482600  0.74661900  1
  P  P2  1  0.96942600  0.59460100  0.74661900  1
  P  P3  1  0.37482600  0.96942600  0.25338100  1
  P  P4  1  0.59460100  0.62517400  0.25338100  1
  P  P5  1  0.03057400  0.40539900  0.25338100  1
  S  S0  1  0.00000000  0.00000000  0.00000000  1
  O  O0  1  0.24350900  0.92946000  0.42124700  1
  O  O1  1  0.68595100  0.75649100  0.42124700  1
  O  O2  1  0.07054000  0.31404900  0.42124700  1
  O  O3  1  0.71686000  0.10231900  0.94260200  1
  O  O4  1  0.38546000  0.28314000  0.94260200  1
  O  O5  1  0.89768100  0.61454000  0.94260200  1
  O  O6  1  0.75649100  0.07054000  0.57875300  1
  O  O7  1  0.31404900  0.24350900  0.57875300  1
  O  O8  1  0.92946000  0.68595100  0.57875300  1
  O  O9  1  0.28314000  0.89768100  0.05739800  1
  O  O10  1  0.61454000  0.71686000  0.05739800  1
  O  O11  1  0.10231900  0.38546000  0.05739800  1
  O  O12  1  0.53446600  0.12363200  0.70485600  1
  O  O13  1  0.58916600  0.46553400  0.70485600  1
  O  O14  1  0.87636800  0.41083400  0.70485600  1
  O  O15  1  0.46553400  0.87636800  0.29514400  1
  O  O16  1  0.41083400  0.53446600  0.29514400  1
  O  O17  1  0.12363200  0.58916600  0.29514400  1
  O  O18  1  0.50689800  0.84938100  0.76159500  1
  O  O19  1  0.34248300  0.49310200  0.76159500  1
  O  O20  1  0.15061900  0.65751700  0.76159500  1
  O  O21  1  0.49310200  0.15061900  0.23840500  1
  O  O22  1  0.65751700  0.50689800  0.23840500  1
  O  O23  1  0.84938100  0.34248300  0.23840500  1
loop_
_geom_bond_atom_site_label_1
_geom_bond_atom_site_label_2
_geom_bond_distance
_geom_bond_site_symmetry_2
Ca0 O20 2.355448 1_555
Ca0 O18 2.355451 1_555
Ca0 O19 2.355455 1_555
Ca0 O17 2.365648 1_555
Ca0 O15 2.365649 1_555
Ca0 O16 2.365655 1_555
Ca1 O23 2.450945 1_556
Ca1 O21 2.450948 1_556
Ca1 O22 2.450952 1_556
Ca1 O5 2.528723 1_555
Ca1 O4 2.528723 1_555
Ca1 O3 2.528723 1_555
Ca1 O14 2.586298 1_555
Ca1 O12 2.586299 1_555
Ca1 O13 2.586304 1_555
Ca2 O23 2.355448 1_555
Ca2 O21 2.355451 1_555
Ca2 O22 2.355455 1_555
Ca2 O14 2.365648 1_555
Ca2 O12 2.365649 1_555
Ca2 O13 2.365655 1_555
Ca3 O20 2.450945 1_554
Ca3 O18 2.450948 1_554
Ca3 O19 2.450952 1_554
Ca3 O11 2.528723 1_555
Ca3 O10 2.528723 1_555
Ca3 O9 2.528723 1_555
Ca3 O17 2.586298 1_555
Ca3 O15 2.586299 1_555
Ca3 O16 2.586304 1_555
Ca4 O11 2.337388 1_656
Ca4 O14 2.373206 1_555
Ca4 O6 2.411135 1_555
Ca4 O2 2.419923 1_655
Ca4 O3 2.614039 1_555
Ca4 S0 2.929093 1_656
Ca4 O19 3.009611 1_655
Ca5 O9 2.337388 1_546
Ca5 O12 2.373215 1_555
Ca5 O7 2.411132 1_555
Ca5 O0 2.419924 1_545
Ca5 O4 2.614038 1_555
Ca5 S0 2.929085 1_556
Ca5 O20 3.009613 1_545
Ca6 O10 2.337388 1_556
Ca6 O13 2.373214 1_555
Ca6 O8 2.411140 1_555
Ca6 O1 2.419921 1_555
Ca6 O5 2.614053 1_555
Ca6 S0 2.929089 1_666
Ca6 O18 3.009604 1_555
Ca7 O5 2.337388 1_454
Ca7 O17 2.373206 1_555
Ca7 O0 2.411135 1_555
Ca7 O8 2.419923 1_455
Ca7 O9 2.614039 1_555
Ca7 S0 2.929093 1_565
Ca7 O22 3.009611 1_455
Ca8 O3 2.337388 1_564
Ca8 O15 2.373215 1_555
Ca8 O1 2.411132 1_555
Ca8 O6 2.419924 1_565
Ca8 O10 2.614038 1_555
Ca8 S0 2.929085 1_665
Ca8 O23 3.009613 1_565
Ca9 O4 2.337388 1_554
Ca9 O16 2.373214 1_555
Ca9 O2 2.411140 1_555
Ca9 O7 2.419921 1_555
Ca9 O11 2.614053 1_555
Ca9 S0 2.929089 1_555
Ca9 O21 3.009604 1_555
O0 P3 1.603053 1_555
O1 P4 1.603051 1_555
O2 P5 1.603046 1_555
O3 P0 1.555686 1_555
O4 P1 1.555689 1_555
O5 P2 1.555679 1_555
O6 P0 1.603053 1_555
O7 P1 1.603051 1_555
O8 P2 1.603046 1_555
O9 P3 1.555686 1_555
O10 P4 1.555689 1_555
O11 P5 1.555679 1_555
O12 P0 1.566444 1_555
O13 P1 1.566452 1_555
O14 P2 1.566452 1_555
O15 P3 1.566444 1_555
O16 P4 1.566452 1_555
O17 P5 1.566452 1_555
O18 P0 1.545806 1_565
O19 P1 1.545798 1_555
O20 P2 1.545807 1_455
O21 P3 1.545806 1_545
O22 P4 1.545798 1_555
O23 P5 1.545807 1_655
