# generated using pymatgen
data_In2AgSe3I
_symmetry_space_group_name_H-M   'P 1'
_cell_length_a   8.26931427
_cell_length_b   8.26931427
_cell_length_c   8.26931464
_cell_angle_alpha   60.46654342
_cell_angle_beta   60.46654342
_cell_angle_gamma   60.46655033
_symmetry_Int_Tables_number   1
_chemical_formula_structural   In2AgSe3I
_chemical_formula_sum   'In4 Ag2 Se6 I2'
_cell_volume   404.06355518
_cell_formula_units_Z   2
loop_
 _symmetry_equiv_pos_site_id
 _symmetry_equiv_pos_as_xyz
  1  'x, y, z'
loop_
 _atom_site_type_symbol
 _atom_site_label
 _atom_site_symmetry_multiplicity
 _atom_site_fract_x
 _atom_site_fract_y
 _atom_site_fract_z
 _atom_site_occupancy
  In  In0  1  0.00000000  0.00000000  0.00000000  1
  In  In1  1  0.00000000  0.50000000  0.00000000  1
  In  In2  1  0.50000000  0.00000000  0.00000000  1
  In  In3  1  0.00000000  0.00000000  0.50000000  1
  Ag  Ag0  1  0.58486100  0.58486100  0.58486100  1
  Ag  Ag1  1  0.41513900  0.41513900  0.41513900  1
  Se  Se0  1  0.24165300  0.79061800  0.24165300  1
  Se  Se1  1  0.79061800  0.24165300  0.24165300  1
  Se  Se2  1  0.24165300  0.24165300  0.79061800  1
  Se  Se3  1  0.75834700  0.20938200  0.75834700  1
  Se  Se4  1  0.20938200  0.75834700  0.75834700  1
  Se  Se5  1  0.75834700  0.75834700  0.20938200  1
  I  I0  1  0.26427300  0.26427300  0.26427300  1
  I  I1  1  0.73572700  0.73572700  0.73572700  1
loop_
_geom_bond_atom_site_label_1
_geom_bond_atom_site_label_2
_geom_bond_distance
_geom_bond_site_symmetry_2
In0 Se2 2.845879 1_554
In0 Se5 2.845879 1_445
In0 Se1 2.845880 1_455
In0 Se0 2.845880 1_545
In0 Se4 2.845880 1_544
In0 Se3 2.845880 1_454
In1 Se1 2.753550 1_455
In1 Se4 2.753550 1_554
In1 Se2 2.753550 1_554
In1 Se5 2.753550 1_455
In2 Se0 2.753550 1_545
In2 Se3 2.753550 1_554
In2 Se2 2.753550 1_554
In2 Se5 2.753550 1_545
In3 Se0 2.753550 1_545
In3 Se4 2.753550 1_545
In3 Se3 2.753550 1_455
In3 Se1 2.753550 1_455
Ag0 Se5 2.646338 1_555
Ag0 Se4 2.646338 1_555
Ag0 Se3 2.646338 1_555
Ag0 I1 3.045062 1_555
Ag1 Se2 2.646338 1_555
Ag1 Se0 2.646338 1_555
Ag1 Se1 2.646338 1_555
Ag1 I0 3.045062 1_555
I0 In3 3.108089 1_555
I0 In1 3.108089 1_555
I0 In2 3.108089 1_555
I1 In3 3.108089 1_665
I1 In1 3.108089 1_656
I1 In2 3.108089 1_566
