# generated using pymatgen
data_GdCrTeO6
_symmetry_space_group_name_H-M   'P 1'
_cell_length_a   5.45550259
_cell_length_b   5.45550259
_cell_length_c   8.64898700
_cell_angle_alpha   90.00000000
_cell_angle_beta   90.00000000
_cell_angle_gamma   120.00000712
_symmetry_Int_Tables_number   1
_chemical_formula_structural   GdCrTeO6
_chemical_formula_sum   'Gd2 Cr2 Te2 O12'
_cell_volume   222.92838868
_cell_formula_units_Z   2
loop_
 _symmetry_equiv_pos_site_id
 _symmetry_equiv_pos_as_xyz
  1  'x, y, z'
loop_
 _atom_site_type_symbol
 _atom_site_label
 _atom_site_symmetry_multiplicity
 _atom_site_fract_x
 _atom_site_fract_y
 _atom_site_fract_z
 _atom_site_occupancy
  Gd  Gd0  1  0.33333300  0.66666700  0.75000000  1
  Gd  Gd1  1  0.66666700  0.33333300  0.25000000  1
  Cr  Cr0  1  0.00000000  0.00000000  0.00000000  1
  Cr  Cr1  1  0.00000000  0.00000000  0.50000000  1
  Te  Te0  1  0.66666700  0.33333300  0.75000000  1
  Te  Te1  1  0.33333300  0.66666700  0.25000000  1
  O  O0  1  0.95249500  0.30639100  0.87696100  1
  O  O1  1  0.04750500  0.69360900  0.12303900  1
  O  O2  1  0.35389600  0.04750500  0.87696100  1
  O  O3  1  0.35389600  0.30639100  0.62303900  1
  O  O4  1  0.64610400  0.95249500  0.12303900  1
  O  O5  1  0.64610400  0.69360900  0.37696100  1
  O  O6  1  0.69360900  0.64610400  0.87696100  1
  O  O7  1  0.69360900  0.04750500  0.62303900  1
  O  O8  1  0.30639100  0.35389600  0.12303900  1
  O  O9  1  0.30639100  0.95249500  0.37696100  1
  O  O10  1  0.95249500  0.64610400  0.62303900  1
  O  O11  1  0.04750500  0.35389600  0.37696100  1
loop_
_geom_bond_atom_site_label_1
_geom_bond_atom_site_label_2
_geom_bond_distance
_geom_bond_site_symmetry_2
Gd0 O2 2.302603 1_565
Gd0 O10 2.302603 1_455
Gd0 O0 2.302605 1_455
Gd0 O7 2.302605 1_565
Gd0 O6 2.302608 1_555
Gd0 O3 2.302608 1_555
Gd1 O11 2.302603 1_655
Gd1 O4 2.302603 1_545
Gd1 O1 2.302605 1_655
Gd1 O9 2.302605 1_545
Gd1 O5 2.302608 1_555
Gd1 O8 2.302608 1_555
Cr0 O8 2.103990 1_555
Cr0 O6 2.103990 1_444
Cr0 O2 2.103990 1_554
Cr0 O4 2.103990 1_445
Cr0 O1 2.103990 1_545
Cr0 O0 2.103990 1_454
Cr1 O5 2.103990 1_445
Cr1 O3 2.103990 1_555
Cr1 O10 2.103990 1_445
Cr1 O11 2.103990 1_555
Cr1 O7 2.103990 1_455
Cr1 O9 2.103990 1_545
O0 Te0 1.971830 1_555
O1 Te1 1.971830 1_555
O2 Te0 1.971832 1_555
O3 Te0 1.971835 1_555
O4 Te1 1.971832 1_555
O5 Te1 1.971835 1_555
O6 Te0 1.971835 1_555
O7 Te0 1.971830 1_555
O8 Te1 1.971835 1_555
O9 Te1 1.971830 1_555
O10 Te0 1.971832 1_555
O11 Te1 1.971832 1_555
