# generated using pymatgen
data_LaMg6Cd
_symmetry_space_group_name_H-M   'P 1'
_cell_length_a   5.17603700
_cell_length_b   6.61832800
_cell_length_c   11.81975200
_cell_angle_alpha   90.00000000
_cell_angle_beta   90.00000000
_cell_angle_gamma   90.00000000
_symmetry_Int_Tables_number   1
_chemical_formula_structural   LaMg6Cd
_chemical_formula_sum   'La2 Mg12 Cd2'
_cell_volume   404.90582370
_cell_formula_units_Z   2
loop_
 _symmetry_equiv_pos_site_id
 _symmetry_equiv_pos_as_xyz
  1  'x, y, z'
loop_
 _atom_site_type_symbol
 _atom_site_label
 _atom_site_symmetry_multiplicity
 _atom_site_fract_x
 _atom_site_fract_y
 _atom_site_fract_z
 _atom_site_occupancy
  La  La0  1  0.00000000  0.00000000  0.16915200  1
  La  La1  1  0.00000000  0.50000000  0.66915200  1
  Mg  Mg0  1  0.00000000  0.24550800  0.41885100  1
  Mg  Mg1  1  0.00000000  0.75449200  0.41885100  1
  Mg  Mg2  1  0.50000000  0.74150900  0.08018700  1
  Mg  Mg3  1  0.50000000  0.25849100  0.08018700  1
  Mg  Mg4  1  0.50000000  0.00000000  0.33860800  1
  Mg  Mg5  1  0.50000000  0.50000000  0.33226500  1
  Mg  Mg6  1  0.00000000  0.74550800  0.91885100  1
  Mg  Mg7  1  0.00000000  0.25449200  0.91885100  1
  Mg  Mg8  1  0.50000000  0.24150900  0.58018700  1
  Mg  Mg9  1  0.50000000  0.75849100  0.58018700  1
  Mg  Mg10  1  0.50000000  0.50000000  0.83860800  1
  Mg  Mg11  1  0.50000000  0.00000000  0.83226500  1
  Cd  Cd0  1  0.00000000  0.50000000  0.16189600  1
  Cd  Cd1  1  0.00000000  0.00000000  0.66189600  1
loop_
_geom_bond_atom_site_label_1
_geom_bond_atom_site_label_2
_geom_bond_distance
_geom_bond_site_symmetry_2
La0 Mg4 3.272546 1_455
La0 Mg4 3.272546 1_555
La0 Mg3 3.275721 1_455
La0 Mg3 3.275721 1_555
La0 Mg2 3.275721 1_545
La0 Mg2 3.275721 1_445
La0 Mg0 3.369093 1_555
La0 Mg1 3.369093 1_545
La0 Mg7 3.404351 1_554
La0 Mg6 3.404351 1_544
La1 Mg10 3.272546 1_455
La1 Mg10 3.272546 1_555
La1 Mg9 3.275721 1_455
La1 Mg9 3.275721 1_555
La1 Mg8 3.275721 1_455
La1 Mg8 3.275721 1_555
La1 Mg6 3.369093 1_555
La1 Mg7 3.369093 1_555
La1 Mg1 3.404351 1_555
La1 Mg0 3.404351 1_555
Mg0 Mg4 3.199617 1_555
Mg0 Mg4 3.199617 1_455
Mg0 Mg8 3.214810 1_455
Mg0 Mg8 3.214810 1_555
Mg0 Mg1 3.249705 1_545
Mg0 Mg5 3.253021 1_455
Mg0 Mg5 3.253021 1_555
Mg0 Mg1 3.368623 1_555
Mg1 Mg4 3.199617 1_565
Mg1 Mg4 3.199617 1_465
Mg1 Mg9 3.214810 1_555
Mg1 Mg9 3.214810 1_455
Mg1 Mg5 3.253021 1_555
Mg1 Mg5 3.253021 1_455
Mg2 Mg3 3.196772 1_555
Mg2 Mg6 3.214810 1_654
Mg2 Mg6 3.214810 1_554
Mg2 Mg5 3.381162 1_555
Mg2 Mg3 3.421556 1_565
Mg2 Mg4 3.500937 1_565
Mg3 Mg7 3.214810 1_654
Mg3 Mg7 3.214810 1_554
Mg3 Mg5 3.381162 1_555
Mg3 Mg4 3.500937 1_555
Mg4 Mg8 3.272334 1_555
Mg4 Mg9 3.272334 1_545
Mg4 Mg5 3.310013 1_555
Mg4 Mg5 3.310013 1_545
Mg5 Mg9 3.393209 1_555
Mg5 Mg8 3.393209 1_555
Mg6 Mg7 3.249705 1_555
Mg6 Mg7 3.368623 1_565
Mg8 Mg9 3.196772 1_545
Mg8 Mg9 3.421556 1_555
Mg10 Mg6 3.199617 1_555
Mg10 Mg7 3.199617 1_555
Mg10 Mg6 3.199617 1_655
Mg10 Mg7 3.199617 1_655
Mg10 Mg2 3.272334 1_556
Mg10 Mg3 3.272334 1_556
Mg10 Mg11 3.310013 1_555
Mg10 Mg11 3.310013 1_565
Mg10 Mg9 3.500937 1_555
Mg10 Mg8 3.500937 1_555
Mg11 Mg6 3.253021 1_545
Mg11 Mg7 3.253021 1_555
Mg11 Mg7 3.253021 1_655
Mg11 Mg6 3.253021 1_645
Mg11 Mg8 3.381162 1_555
Mg11 Mg9 3.381162 1_545
Mg11 Mg3 3.393209 1_556
Mg11 Mg2 3.393209 1_546
Cd0 Mg2 3.191459 1_455
Cd0 Mg2 3.191459 1_555
Cd0 Mg3 3.191459 1_555
Cd0 Mg3 3.191459 1_455
Cd0 Mg5 3.279162 1_455
Cd0 Mg5 3.279162 1_555
Cd0 Mg6 3.300414 1_554
Cd0 Mg7 3.300414 1_554
Cd0 La0 3.310275 1_555
Cd0 La0 3.310275 1_565
Cd0 Mg1 3.472917 1_555
Cd0 Mg0 3.472917 1_555
Cd1 Mg8 3.191459 1_455
Cd1 Mg8 3.191459 1_555
Cd1 Mg9 3.191459 1_545
Cd1 Mg9 3.191459 1_445
Cd1 Mg11 3.279162 1_555
Cd1 Mg11 3.279162 1_455
Cd1 Mg0 3.300414 1_555
Cd1 Mg1 3.300414 1_545
Cd1 La1 3.310275 1_555
Cd1 La1 3.310275 1_545
Cd1 Mg7 3.472917 1_555
Cd1 Mg6 3.472917 1_545
