# generated using pymatgen
data_KMo4AsO15
_symmetry_space_group_name_H-M   'P 1'
_cell_length_a   8.24997200
_cell_length_b   12.29504600
_cell_length_c   13.01779300
_cell_angle_alpha   90.00000000
_cell_angle_beta   90.00000000
_cell_angle_gamma   90.00000000
_symmetry_Int_Tables_number   1
_chemical_formula_structural   KMo4AsO15
_chemical_formula_sum   'K4 Mo16 As4 O60'
_cell_volume   1320.44401944
_cell_formula_units_Z   4
loop_
 _symmetry_equiv_pos_site_id
 _symmetry_equiv_pos_as_xyz
  1  'x, y, z'
loop_
 _atom_site_type_symbol
 _atom_site_label
 _atom_site_symmetry_multiplicity
 _atom_site_fract_x
 _atom_site_fract_y
 _atom_site_fract_z
 _atom_site_occupancy
  K  K0  1  0.06418400  0.25563200  0.89763200  1
  K  K1  1  0.43581600  0.74436800  0.39763200  1
  K  K2  1  0.56418400  0.24436800  0.10236800  1
  K  K3  1  0.93581600  0.75563200  0.60236800  1
  Mo  Mo0  1  0.01097800  0.91642900  0.88228100  1
  Mo  Mo1  1  0.48902200  0.08357100  0.38228100  1
  Mo  Mo2  1  0.51097800  0.58357100  0.11771900  1
  Mo  Mo3  1  0.98902200  0.41642900  0.61771900  1
  Mo  Mo4  1  0.21590100  0.14133100  0.59388700  1
  Mo  Mo5  1  0.28409900  0.85866900  0.09388700  1
  Mo  Mo6  1  0.71590100  0.35866900  0.40611300  1
  Mo  Mo7  1  0.78409900  0.64133100  0.90611300  1
  Mo  Mo8  1  0.80552400  0.13641600  0.57029700  1
  Mo  Mo9  1  0.69447600  0.86358400  0.07029700  1
  Mo  Mo10  1  0.30552400  0.36358400  0.42970300  1
  Mo  Mo11  1  0.19447600  0.63641600  0.92970300  1
  Mo  Mo12  1  0.53782800  0.21421900  0.81623200  1
  Mo  Mo13  1  0.96217200  0.78578100  0.31623200  1
  Mo  Mo14  1  0.03782800  0.28578100  0.18376800  1
  Mo  Mo15  1  0.46217200  0.71421900  0.68376800  1
  As  As0  1  0.43664300  0.93919300  0.84754700  1
  As  As1  1  0.06335700  0.06080700  0.34754700  1
  As  As2  1  0.93664300  0.56080700  0.15245300  1
  As  As3  1  0.56335700  0.43919300  0.65245300  1
  O  O0  1  0.23419100  0.00233700  0.58940600  1
  O  O1  1  0.26580900  0.99766300  0.08940600  1
  O  O2  1  0.73419100  0.49766300  0.41059400  1
  O  O3  1  0.76580900  0.50233700  0.91059400  1
  O  O4  1  0.55662500  0.05238900  0.83441100  1
  O  O5  1  0.94337500  0.94761100  0.33441100  1
  O  O6  1  0.05662500  0.44761100  0.16558900  1
  O  O7  1  0.44337500  0.55238900  0.66558900  1
  O  O8  1  0.67023700  0.18038300  0.66828800  1
  O  O9  1  0.82976300  0.81961700  0.16828800  1
  O  O10  1  0.17023700  0.31961700  0.33171200  1
  O  O11  1  0.32976300  0.68038300  0.83171200  1
  O  O12  1  0.33653200  0.17661800  0.70194900  1
  O  O13  1  0.16346800  0.82338200  0.20194900  1
  O  O14  1  0.83653200  0.32338200  0.29805100  1
  O  O15  1  0.66346800  0.67661800  0.79805100  1
  O  O16  1  0.50247400  0.36032500  0.75377500  1
  O  O17  1  0.99752600  0.63967500  0.25377500  1
  O  O18  1  0.00247400  0.13967500  0.24622500  1
  O  O19  1  0.49752600  0.86032500  0.74622500  1
  O  O20  1  0.23699300  0.97448800  0.84022100  1
  O  O21  1  0.26300700  0.02551200  0.34022100  1
  O  O22  1  0.73699300  0.52551200  0.15977900  1
  O  O23  1  0.76300700  0.47448800  0.65977900  1
  O  O24  1  0.71874600  0.24294100  0.87680500  1
  O  O25  1  0.78125400  0.75705900  0.37680500  1
  O  O26  1  0.21874600  0.25705900  0.12319500  1
  O  O27  1  0.28125400  0.74294100  0.62319500  1
  O  O28  1  0.39640900  0.23306300  0.91330600  1
  O  O29  1  0.10359100  0.76693700  0.41330600  1
  O  O30  1  0.89640900  0.26693700  0.08669400  1
  O  O31  1  0.60359100  0.73306300  0.58669400  1
  O  O32  1  0.79218500  0.99739400  0.57455400  1
  O  O33  1  0.70781500  0.00260600  0.07455400  1
  O  O34  1  0.29218500  0.50260600  0.42544600  1
  O  O35  1  0.20781500  0.49739400  0.92544600  1
  O  O36  1  0.00292600  0.16711700  0.64972400  1
  O  O37  1  0.49707400  0.83288300  0.14972400  1
  O  O38  1  0.50292600  0.33288300  0.35027600  1
  O  O39  1  0.99707400  0.66711700  0.85027600  1
  O  O40  1  0.14795500  0.81921600  0.97665300  1
  O  O41  1  0.35204500  0.18078400  0.47665300  1
  O  O42  1  0.64795500  0.68078400  0.02334700  1
  O  O43  1  0.85204500  0.31921600  0.52334700  1
  O  O44  1  0.82352500  0.83643000  0.94593400  1
  O  O45  1  0.67647500  0.16357000  0.44593400  1
  O  O46  1  0.32352500  0.66357000  0.05406600  1
  O  O47  1  0.17647500  0.33643000  0.55406600  1
  O  O48  1  0.47702300  0.87467800  0.96243000  1
  O  O49  1  0.02297700  0.12532200  0.46243000  1
  O  O50  1  0.97702300  0.62532200  0.03757000  1
  O  O51  1  0.52297700  0.37467800  0.53757000  1
  O  O52  1  0.95623200  0.89593200  0.75599500  1
  O  O53  1  0.54376800  0.10406800  0.25599500  1
  O  O54  1  0.45623200  0.60406800  0.24400500  1
  O  O55  1  0.04376800  0.39593200  0.74400500  1
  O  O56  1  0.95156600  0.04568000  0.91636200  1
  O  O57  1  0.54843400  0.95432000  0.41636200  1
  O  O58  1  0.45156600  0.45432000  0.08363800  1
  O  O59  1  0.04843400  0.54568000  0.58363800  1
loop_
_geom_bond_atom_site_label_1
_geom_bond_atom_site_label_2
_geom_bond_distance
_geom_bond_site_symmetry_2
K0 O55 2.646415 1_555
K0 O56 2.754294 1_455
K0 O28 2.762404 1_555
K0 O30 2.827104 1_456
K0 O24 2.866971 1_455
K0 O26 3.201299 1_556
K0 O35 3.220375 1_555
K1 O54 2.646415 1_555
K1 O57 2.754294 1_555
K1 O29 2.762404 1_555
K1 O31 2.827104 1_555
K1 O25 2.866971 1_555
K1 O27 3.201299 1_555
K1 O34 3.220375 1_555
K2 O53 2.646415 1_555
K2 O58 2.754294 1_555
K2 O30 2.762404 1_555
K2 O28 2.827104 1_554
K2 O26 2.866971 1_555
K2 O24 3.201299 1_554
K2 O33 3.220375 1_555
K3 O52 2.646415 1_555
K3 O59 2.754294 1_655
K3 O31 2.762404 1_555
K3 O29 2.827104 1_655
K3 O27 2.866971 1_655
K3 O25 3.201299 1_555
K3 O32 3.220375 1_555
Mo0 O56 1.721182 1_465
Mo0 O52 1.723404 1_455
Mo0 O44 2.011386 1_455
Mo0 O40 2.053015 1_555
Mo0 O20 2.070302 1_555
Mo1 O57 1.721182 1_545
Mo1 O53 1.723404 1_555
Mo1 O45 2.011386 1_555
Mo1 O41 2.053015 1_555
Mo1 O21 2.070302 1_555
Mo2 O58 1.721182 1_555
Mo2 O54 1.723404 1_555
Mo2 O46 2.011386 1_555
Mo2 O42 2.053015 1_555
Mo2 O22 2.070302 1_555
Mo3 O59 1.721182 1_655
Mo3 O55 1.723404 1_655
Mo3 O47 2.011386 1_655
Mo3 O43 2.053015 1_555
Mo3 O23 2.070302 1_555
Mo4 O0 1.716578 1_555
Mo4 O12 1.776948 1_555
Mo4 O36 1.927704 1_555
Mo4 O41 1.955993 1_555
Mo4 O49 2.345308 1_555
Mo4 O47 2.475585 1_555
Mo5 O1 1.716578 1_555
Mo5 O13 1.776948 1_555
Mo5 O37 1.927704 1_555
Mo5 O40 1.955993 1_554
Mo5 O48 2.345308 1_554
Mo5 O46 2.475585 1_555
Mo6 O2 1.716578 1_555
Mo6 O14 1.776948 1_555
Mo6 O38 1.927704 1_555
Mo6 O43 1.955993 1_555
Mo6 O51 2.345308 1_555
Mo6 O45 2.475585 1_555
Mo7 O3 1.716578 1_555
Mo7 O15 1.776948 1_555
Mo7 O39 1.927704 1_555
Mo7 O42 1.955993 1_556
Mo7 O50 2.345308 1_556
Mo7 O44 2.475585 1_555
Mo8 O32 1.713717 1_545
Mo8 O8 1.779089 1_555
Mo8 O36 1.965649 1_655
Mo8 O45 1.966185 1_555
Mo8 O49 2.282263 1_655
Mo8 O43 2.360563 1_555
Mo9 O33 1.713717 1_565
Mo9 O9 1.779089 1_555
Mo9 O37 1.965649 1_555
Mo9 O44 1.966185 1_554
Mo9 O48 2.282263 1_554
Mo9 O42 2.360563 1_555
Mo10 O34 1.713717 1_555
Mo10 O10 1.779089 1_555
Mo10 O38 1.965649 1_555
Mo10 O47 1.966185 1_555
Mo10 O51 2.282263 1_555
Mo10 O41 2.360563 1_555
Mo11 O35 1.713717 1_555
Mo11 O11 1.779089 1_555
Mo11 O39 1.965649 1_455
Mo11 O46 1.966185 1_556
Mo11 O50 2.282263 1_456
Mo11 O40 2.360563 1_555
Mo12 O24 1.724599 1_555
Mo12 O28 1.735450 1_555
Mo12 O16 1.993265 1_555
Mo12 O4 2.009723 1_555
Mo12 O8 2.252876 1_555
Mo12 O12 2.277036 1_555
Mo13 O25 1.724599 1_555
Mo13 O29 1.735450 1_655
Mo13 O17 1.993265 1_555
Mo13 O5 2.009723 1_555
Mo13 O9 2.252876 1_555
Mo13 O13 2.277036 1_655
Mo14 O26 1.724599 1_555
Mo14 O30 1.735450 1_455
Mo14 O18 1.993265 1_555
Mo14 O6 2.009723 1_555
Mo14 O10 2.252876 1_555
Mo14 O14 2.277036 1_455
Mo15 O27 1.724599 1_555
Mo15 O31 1.735450 1_555
Mo15 O19 1.993265 1_555
Mo15 O7 2.009723 1_555
Mo15 O11 2.252876 1_555
Mo15 O15 2.277036 1_555
As0 O20 1.705981 1_555
As0 O19 1.712399 1_555
As0 O4 1.716394 1_565
As0 O48 1.725328 1_555
As1 O21 1.705981 1_555
As1 O18 1.712399 1_555
As1 O5 1.716394 1_445
As1 O49 1.725328 1_555
As2 O22 1.705981 1_555
As2 O17 1.712399 1_555
As2 O6 1.716394 1_655
As2 O50 1.725328 1_555
As3 O23 1.705981 1_555
As3 O16 1.712399 1_555
As3 O7 1.716394 1_555
As3 O51 1.725328 1_555
