# generated using pymatgen
data_MgH4S2O9
_symmetry_space_group_name_H-M   'P 1'
_cell_length_a   8.88696700
_cell_length_b   5.16601500
_cell_length_c   16.83906559
_cell_angle_alpha   90.00000000
_cell_angle_beta   109.86446701
_cell_angle_gamma   90.00000000
_symmetry_Int_Tables_number   1
_chemical_formula_structural   MgH4S2O9
_chemical_formula_sum   'Mg4 H16 S8 O36'
_cell_volume   727.08565261
_cell_formula_units_Z   4
loop_
 _symmetry_equiv_pos_site_id
 _symmetry_equiv_pos_as_xyz
  1  'x, y, z'
loop_
 _atom_site_type_symbol
 _atom_site_label
 _atom_site_symmetry_multiplicity
 _atom_site_fract_x
 _atom_site_fract_y
 _atom_site_fract_z
 _atom_site_occupancy
  Mg  Mg0  1  0.75812700  0.74767200  0.50985200  1
  Mg  Mg1  1  0.75812700  0.75232800  0.00985200  1
  Mg  Mg2  1  0.24187300  0.25232800  0.49014800  1
  Mg  Mg3  1  0.24187300  0.24767200  0.99014800  1
  H  H0  1  0.42642600  0.71771700  0.21603600  1
  H  H1  1  0.42642600  0.78228300  0.71603600  1
  H  H2  1  0.57357400  0.28228300  0.78396400  1
  H  H3  1  0.57357400  0.21771700  0.28396400  1
  H  H4  1  0.14822700  0.41897100  0.22410500  1
  H  H5  1  0.14822700  0.08102900  0.72410500  1
  H  H6  1  0.85177300  0.58102900  0.77589500  1
  H  H7  1  0.85177300  0.91897100  0.27589500  1
  H  H8  1  0.28491800  0.70148600  0.31402700  1
  H  H9  1  0.28491800  0.79851400  0.81402700  1
  H  H10  1  0.71508200  0.29851400  0.68597300  1
  H  H11  1  0.71508200  0.20148600  0.18597300  1
  H  H12  1  0.17560100  0.84052500  0.23254100  1
  H  H13  1  0.17560100  0.65947500  0.73254100  1
  H  H14  1  0.82439900  0.15947500  0.76745900  1
  H  H15  1  0.82439900  0.34052500  0.26745900  1
  S  S0  1  0.53165100  0.24306500  0.40309500  1
  S  S1  1  0.53165100  0.25693500  0.90309500  1
  S  S2  1  0.46834900  0.75693500  0.59690500  1
  S  S3  1  0.46834900  0.74306500  0.09690500  1
  S  S4  1  0.00645700  0.75356600  0.39425800  1
  S  S5  1  0.00645700  0.74643400  0.89425800  1
  S  S6  1  0.99354300  0.24643400  0.60574200  1
  S  S7  1  0.99354300  0.25356600  0.10574200  1
  O  O0  1  0.66379700  0.42505300  0.43602900  1
  O  O1  1  0.66379700  0.07494700  0.93602900  1
  O  O2  1  0.33620300  0.57494700  0.56397100  1
  O  O3  1  0.33620300  0.92505300  0.06397100  1
  O  O4  1  0.57585400  0.97521300  0.42884000  1
  O  O5  1  0.57585400  0.52478700  0.92884000  1
  O  O6  1  0.42414600  0.02478700  0.57116000  1
  O  O7  1  0.42414600  0.47521300  0.07116000  1
  O  O8  1  0.38453300  0.32571500  0.41648100  1
  O  O9  1  0.38453300  0.17428500  0.91648100  1
  O  O10  1  0.61546700  0.67428500  0.58351900  1
  O  O11  1  0.61546700  0.82571500  0.08351900  1
  O  O12  1  0.48030900  0.25056300  0.30317500  1
  O  O13  1  0.48030900  0.24943700  0.80317500  1
  O  O14  1  0.51969100  0.74943700  0.69682500  1
  O  O15  1  0.51969100  0.75056300  0.19682500  1
  O  O16  1  0.88893100  0.82506900  0.43302400  1
  O  O17  1  0.88893100  0.67493100  0.93302400  1
  O  O18  1  0.11106900  0.17493100  0.56697600  1
  O  O19  1  0.11106900  0.32506900  0.06697600  1
  O  O20  1  0.86224400  0.05846600  0.58891300  1
  O  O21  1  0.86224400  0.44153400  0.08891300  1
  O  O22  1  0.13775600  0.94153400  0.41108700  1
  O  O23  1  0.13775600  0.55846600  0.91108700  1
  O  O24  1  0.93695800  0.51333800  0.58997200  1
  O  O25  1  0.93695800  0.98666200  0.08997200  1
  O  O26  1  0.06304200  0.48666200  0.41002800  1
  O  O27  1  0.06304200  0.01333800  0.91002800  1
  O  O28  1  0.08400900  0.25256800  0.20469800  1
  O  O29  1  0.08400900  0.24743200  0.70469800  1
  O  O30  1  0.91599100  0.74743200  0.79530200  1
  O  O31  1  0.91599100  0.75256800  0.29530200  1
  O  O32  1  0.24848100  0.80749100  0.75238000  1
  O  O33  1  0.24848100  0.69250900  0.25238000  1
  O  O34  1  0.75151900  0.19250900  0.24762000  1
  O  O35  1  0.75151900  0.30749100  0.74762000  1
loop_
_geom_bond_atom_site_label_1
_geom_bond_atom_site_label_2
_geom_bond_distance
_geom_bond_site_symmetry_2
Mg0 O16 2.051066 1_555
Mg0 O0 2.077886 1_555
Mg0 O24 2.086695 1_555
Mg0 O10 2.087746 1_555
Mg0 O4 2.089234 1_555
Mg0 O20 2.090272 1_565
Mg1 O17 2.051066 1_554
Mg1 O1 2.077886 1_564
Mg1 O25 2.086695 1_555
Mg1 O11 2.087746 1_555
Mg1 O5 2.089234 1_554
Mg1 O21 2.090272 1_555
Mg2 O18 2.051066 1_555
Mg2 O2 2.077886 1_555
Mg2 O26 2.086695 1_555
Mg2 O8 2.087746 1_555
Mg2 O6 2.089234 1_555
Mg2 O22 2.090272 1_545
Mg3 O19 2.051066 1_556
Mg3 O3 2.077886 1_546
Mg3 O27 2.086695 1_555
Mg3 O9 2.087746 1_555
Mg3 O7 2.089234 1_556
Mg3 O23 2.090272 1_555
H0 O15 1.001319 1_555
H1 O14 1.001319 1_555
H2 O13 1.001319 1_555
H3 O12 1.001319 1_555
H4 O28 1.022122 1_555
H4 O33 1.651987 1_555
H5 O29 1.022122 1_555
H5 O32 1.651987 1_545
H6 O30 1.022122 1_555
H6 O35 1.651987 1_555
H7 O31 1.022122 1_555
H7 O34 1.651987 1_565
H8 O33 0.977840 1_555
H9 O32 0.977840 1_555
H10 O35 0.977840 1_555
H11 O34 0.977840 1_555
H12 O33 0.984248 1_555
H13 O32 0.984248 1_555
H14 O35 0.984248 1_555
H15 O34 0.984248 1_555
O0 S0 1.458766 1_555
O1 S1 1.458766 1_555
O2 S2 1.458766 1_555
O3 S3 1.458766 1_555
O4 S0 1.463292 1_565
O5 S1 1.463292 1_555
O6 S2 1.463292 1_545
O7 S3 1.463292 1_555
O8 S0 1.463821 1_555
O9 S1 1.463821 1_555
O10 S2 1.463821 1_555
O11 S3 1.463821 1_555
O12 S0 1.587124 1_555
O13 S1 1.587124 1_555
O14 S2 1.587124 1_555
O15 S3 1.587124 1_555
O16 S4 1.454920 1_655
O17 S5 1.454920 1_655
O18 S6 1.454920 1_455
O19 S7 1.454920 1_455
O20 S6 1.469713 1_555
O21 S7 1.469713 1_555
O22 S4 1.469713 1_555
O23 S5 1.469713 1_555
O24 S6 1.460759 1_555
O25 S7 1.460759 1_565
O26 S4 1.460759 1_555
O27 S5 1.460759 1_545
O28 S7 1.585119 1_455
O29 S6 1.585119 1_455
O30 S5 1.585119 1_655
O31 S4 1.585119 1_655
