# generated using pymatgen
data_NaMg14C
_symmetry_space_group_name_H-M   'P 1'
_cell_length_a   6.32115155
_cell_length_b   6.32115104
_cell_length_c   10.02875160
_cell_angle_alpha   90.00000000
_cell_angle_beta   90.00000000
_cell_angle_gamma   120.00000261
_symmetry_Int_Tables_number   1
_chemical_formula_structural   NaMg14C
_chemical_formula_sum   'Na1 Mg14 C1'
_cell_volume   347.03227339
_cell_formula_units_Z   1
loop_
 _symmetry_equiv_pos_site_id
 _symmetry_equiv_pos_as_xyz
  1  'x, y, z'
loop_
 _atom_site_type_symbol
 _atom_site_label
 _atom_site_symmetry_multiplicity
 _atom_site_fract_x
 _atom_site_fract_y
 _atom_site_fract_z
 _atom_site_occupancy
  Na  Na0  1  0.16666700  0.33333300  0.12500000  1
  Mg  Mg0  1  0.17500403  0.83750151  0.12500000  1
  Mg  Mg1  1  0.15623985  0.82811942  0.62500000  1
  Mg  Mg2  1  0.66249849  0.32499597  0.12500000  1
  Mg  Mg3  1  0.67188058  0.34376015  0.62500000  1
  Mg  Mg4  1  0.66249849  0.83750151  0.12500000  1
  Mg  Mg5  1  0.67188058  0.82811942  0.62500000  1
  Mg  Mg6  1  0.32645413  0.17354587  0.39726287  1
  Mg  Mg7  1  0.32645413  0.17354587  0.85273713  1
  Mg  Mg8  1  0.32645413  0.65290926  0.39726287  1
  Mg  Mg9  1  0.32645413  0.65290926  0.85273713  1
  Mg  Mg10  1  0.84709074  0.17354587  0.39726287  1
  Mg  Mg11  1  0.84709074  0.17354587  0.85273713  1
  Mg  Mg12  1  0.83333300  0.66666700  0.36976437  1
  Mg  Mg13  1  0.83333300  0.66666700  0.88023563  1
  C  C0  1  0.16666700  0.33333300  0.62500000  1
loop_
_geom_bond_atom_site_label_1
_geom_bond_atom_site_label_2
_geom_bond_distance
_geom_bond_site_symmetry_2
Mg0 Mg2 3.081526 1_565
Mg0 Mg4 3.081526 1_555
Mg0 Mg13 3.086076 1_454
Mg0 Mg12 3.086076 1_455
Mg0 Na0 3.160905 1_555
Mg0 Na0 3.160905 1_565
Mg0 Mg2 3.239625 1_455
Mg0 Mg4 3.239625 1_455
Mg0 Mg8 3.294003 1_555
Mg0 Mg9 3.294003 1_554
Mg0 Mg6 3.294009 1_565
Mg0 Mg7 3.294009 1_564
Mg1 Mg9 2.965169 1_555
Mg1 Mg8 2.965169 1_555
Mg1 Mg7 2.965176 1_565
Mg1 Mg6 2.965176 1_565
Mg1 Mg3 3.061708 1_455
Mg1 Mg5 3.061708 1_455
Mg1 Mg12 3.110745 1_455
Mg1 Mg13 3.110745 1_455
Mg1 Mg3 3.259443 1_565
Mg1 Mg5 3.259443 1_555
Mg2 Mg4 3.081526 1_545
Mg2 Na0 3.160905 1_655
Mg2 Na0 3.160905 1_555
Mg2 Mg4 3.239625 1_555
Mg2 Mg6 3.294009 1_555
Mg2 Mg7 3.294009 1_554
Mg3 Mg6 2.965176 1_555
Mg3 Mg7 2.965176 1_555
Mg3 Mg5 3.061708 1_555
Mg3 Mg5 3.259443 1_545
Mg4 Na0 3.160905 1_555
Mg4 Na0 3.160905 1_665
Mg4 Mg8 3.294009 1_555
Mg4 Mg9 3.294009 1_554
Mg5 Mg9 2.965176 1_555
Mg5 Mg8 2.965176 1_555
Mg6 Na0 3.242827 1_555
Mg7 Na0 3.242827 1_556
Mg8 Na0 3.242833 1_555
Mg9 Na0 3.242833 1_556
Mg10 Mg3 2.965169 1_555
Mg10 Mg5 2.965176 1_545
Mg10 Mg12 3.173478 1_545
Mg10 Mg12 3.173478 1_555
Mg10 Na0 3.242833 1_655
Mg10 Mg2 3.294003 1_555
Mg10 Mg4 3.294009 1_545
Mg11 Mg3 2.965169 1_555
Mg11 Mg5 2.965176 1_545
Mg11 Mg13 3.173478 1_545
Mg11 Mg13 3.173478 1_555
Mg11 Na0 3.242833 1_656
Mg11 Mg2 3.294003 1_556
Mg11 Mg4 3.294009 1_546
Mg12 Mg4 3.086069 1_555
Mg12 Mg2 3.086076 1_555
Mg12 Mg5 3.110739 1_555
Mg12 Mg3 3.110745 1_555
Mg12 Mg6 3.173478 1_665
Mg12 Mg6 3.173478 1_555
Mg12 Mg8 3.173478 1_655
Mg12 Mg8 3.173478 1_555
Mg13 Mg4 3.086069 1_556
Mg13 Mg2 3.086076 1_556
Mg13 Mg5 3.110739 1_555
Mg13 Mg3 3.110745 1_555
Mg13 Mg7 3.173478 1_665
Mg13 Mg7 3.173478 1_555
Mg13 Mg9 3.173478 1_655
Mg13 Mg9 3.173478 1_555
C0 Mg7 2.876946 1_555
C0 Mg6 2.876946 1_555
C0 Mg8 2.876953 1_555
C0 Mg9 2.876953 1_555
C0 Mg11 2.876953 1_455
C0 Mg10 2.876953 1_455
