# generated using pymatgen
data_CsFe2P5O16
_symmetry_space_group_name_H-M   'P 1'
_cell_length_a   9.54632700
_cell_length_b   7.64499300
_cell_length_c   10.46660103
_cell_angle_alpha   68.39181496
_cell_angle_beta   90.00000000
_cell_angle_gamma   90.00000000
_symmetry_Int_Tables_number   1
_chemical_formula_structural   CsFe2P5O16
_chemical_formula_sum   'Cs2 Fe4 P10 O32'
_cell_volume   710.18755577
_cell_formula_units_Z   2
loop_
 _symmetry_equiv_pos_site_id
 _symmetry_equiv_pos_as_xyz
  1  'x, y, z'
loop_
 _atom_site_type_symbol
 _atom_site_label
 _atom_site_symmetry_multiplicity
 _atom_site_fract_x
 _atom_site_fract_y
 _atom_site_fract_z
 _atom_site_occupancy
  Cs  Cs0  1  0.19845300  0.99164600  0.25888400  1
  Cs  Cs1  1  0.80154700  0.99164600  0.75888400  1
  Fe  Fe0  1  0.85763200  0.37949000  0.96469700  1
  Fe  Fe1  1  0.14236800  0.37949000  0.46469700  1
  Fe  Fe2  1  0.63245100  0.93354700  0.35947300  1
  Fe  Fe3  1  0.36754900  0.93354700  0.85947300  1
  P  P0  1  0.58223900  0.12691800  0.02497900  1
  P  P1  1  0.41776100  0.12691800  0.52497900  1
  P  P2  1  0.54134200  0.51983700  0.98730500  1
  P  P3  1  0.45865800  0.51983700  0.48730500  1
  P  P4  1  0.29616200  0.57495200  0.12388900  1
  P  P5  1  0.70383800  0.57495200  0.62388900  1
  P  P6  1  0.14021900  0.61400600  0.87295900  1
  P  P7  1  0.85978100  0.61400600  0.37295900  1
  P  P8  1  0.12488800  0.28242500  0.79928000  1
  P  P9  1  0.87511200  0.28242500  0.29928000  1
  O  O0  1  0.52732100  0.01848400  0.94020300  1
  O  O1  1  0.47267900  0.01848400  0.44020300  1
  O  O2  1  0.54239600  0.04565600  0.17637100  1
  O  O3  1  0.45760400  0.04565600  0.67637100  1
  O  O4  1  0.73952700  0.15849800  0.00219100  1
  O  O5  1  0.26047300  0.15849800  0.50219100  1
  O  O6  1  0.50390400  0.33268100  0.95976500  1
  O  O7  1  0.49609600  0.33268100  0.45976500  1
  O  O8  1  0.48171000  0.68871800  0.87465600  1
  O  O9  1  0.51829000  0.68871800  0.37465600  1
  O  O10  1  0.69611100  0.51984500  0.01726300  1
  O  O11  1  0.30388900  0.51984500  0.51726300  1
  O  O12  1  0.45194900  0.49011200  0.12635800  1
  O  O13  1  0.54805100  0.49011200  0.62635800  1
  O  O14  1  0.29951800  0.78711900  0.06104400  1
  O  O15  1  0.70048200  0.78711900  0.56104400  1
  O  O16  1  0.99320400  0.23614300  0.40580300  1
  O  O17  1  0.00679600  0.23614300  0.90580300  1
  O  O18  1  0.74975800  0.15275700  0.34789200  1
  O  O19  1  0.25024200  0.15275700  0.84789200  1
  O  O20  1  0.92859600  0.30322700  0.15691600  1
  O  O21  1  0.07140400  0.30322700  0.65691600  1
  O  O22  1  0.81819700  0.49245500  0.28477900  1
  O  O23  1  0.18180300  0.49245500  0.78477900  1
  O  O24  1  0.79838400  0.80745900  0.30641000  1
  O  O25  1  0.20161600  0.80745900  0.80641000  1
  O  O26  1  0.01674300  0.60873200  0.39713800  1
  O  O27  1  0.98325700  0.60873200  0.89713800  1
  O  O28  1  0.78505200  0.49829900  0.51880700  1
  O  O29  1  0.21494800  0.49829900  0.01880700  1
  O  O30  1  0.76547900  0.48159300  0.76324000  1
  O  O31  1  0.23452100  0.48159300  0.26324000  1
loop_
_geom_bond_atom_site_label_1
_geom_bond_atom_site_label_2
_geom_bond_distance
_geom_bond_site_symmetry_2
Cs0 O14 3.169894 1_555
Cs0 O26 3.248479 1_555
Cs0 O1 3.283847 1_565
Cs0 O5 3.294738 1_565
Cs0 O2 3.381475 1_565
Cs0 O20 3.402534 1_465
Cs0 O16 3.437237 1_465
Cs1 O15 3.169894 1_555
Cs1 O27 3.248479 1_555
Cs1 O0 3.283847 1_565
Cs1 O4 3.294738 1_566
Cs1 O3 3.381475 1_565
Cs1 O21 3.402534 1_665
Cs1 O17 3.437237 1_665
Fe0 O4 1.947107 1_556
Fe0 O20 1.995644 1_556
Fe0 O27 2.024090 1_555
Fe0 O17 2.026367 1_655
Fe0 O10 2.065533 1_556
Fe0 O30 2.148732 1_555
Fe1 O5 1.947107 1_555
Fe1 O21 1.995644 1_555
Fe1 O26 2.024090 1_555
Fe1 O16 2.026367 1_455
Fe1 O11 2.065533 1_555
Fe1 O31 2.148732 1_555
Fe2 O1 1.966232 1_565
Fe2 O18 1.981830 1_565
Fe2 O2 1.984110 1_565
Fe2 O24 2.034984 1_555
Fe2 O15 2.094412 1_555
Fe2 O9 2.120662 1_555
Fe3 O0 1.966232 1_565
Fe3 O19 1.981830 1_565
Fe3 O3 1.984110 1_565
Fe3 O25 2.034984 1_555
Fe3 O14 2.094412 1_556
Fe3 O8 2.120662 1_555
O0 P0 1.513652 1_556
O1 P1 1.513652 1_555
O2 P0 1.521979 1_555
O3 P1 1.521979 1_555
O4 P0 1.525561 1_555
O5 P1 1.525561 1_555
O6 P2 1.600558 1_555
O6 P0 1.645849 1_556
O7 P3 1.600558 1_555
O7 P1 1.645849 1_555
O8 P2 1.503323 1_555
O9 P3 1.503323 1_555
O10 P2 1.510386 1_554
O11 P3 1.510386 1_555
O12 P4 1.618874 1_555
O12 P2 1.629270 1_554
O13 P5 1.618874 1_555
O13 P3 1.629270 1_555
O14 P4 1.509578 1_555
O15 P5 1.509578 1_555
O16 P9 1.532523 1_555
O17 P8 1.532523 1_555
O18 P9 1.517271 1_555
O19 P8 1.517271 1_555
O20 P9 1.527007 1_555
O21 P8 1.527007 1_555
O22 P7 1.582595 1_555
O22 P9 1.648318 1_555
O23 P6 1.582595 1_555
O23 P8 1.648318 1_555
O24 P7 1.502420 1_555
O25 P6 1.502420 1_555
O26 P7 1.517692 1_455
O27 P6 1.517692 1_655
O28 P7 1.620852 1_555
O28 P5 1.621379 1_555
O29 P6 1.620852 1_554
O29 P4 1.621379 1_555
O30 P5 1.488718 1_555
O31 P4 1.488718 1_555
