# generated using pymatgen
data_LiLa2Co2Sb2(PbO6)2
_symmetry_space_group_name_H-M   'P 1'
_cell_length_a   5.96763469
_cell_length_b   6.07431641
_cell_length_c   7.87265927
_cell_angle_alpha   89.79436405
_cell_angle_beta   90.04754828
_cell_angle_gamma   93.28414393
_symmetry_Int_Tables_number   1
_chemical_formula_structural   LiLa2Co2Sb2(PbO6)2
_chemical_formula_sum   'Li1 La2 Co2 Sb2 Pb2 O12'
_cell_volume   284.90783323
_cell_formula_units_Z   1
loop_
 _symmetry_equiv_pos_site_id
 _symmetry_equiv_pos_as_xyz
  1  'x, y, z'
loop_
 _atom_site_type_symbol
 _atom_site_label
 _atom_site_symmetry_multiplicity
 _atom_site_fract_x
 _atom_site_fract_y
 _atom_site_fract_z
 _atom_site_occupancy
  Li  Li0  1  0.20511900  0.65314900  0.28224600  1
  La  La0  1  0.50090500  0.43320800  0.74803100  1
  La  La1  1  0.00966500  0.08499700  0.25635800  1
  Co  Co0  1  0.94941200  0.53641700  0.52566500  1
  Co  Co1  1  0.50028900  0.94262000  0.99736800  1
  Sb  Sb0  1  0.00190800  0.51698300  0.98697000  1
  Sb  Sb1  1  0.49328200  0.98810600  0.50083600  1
  Pb  Pb0  1  0.55312900  0.43059400  0.24023500  1
  Pb  Pb1  1  0.99503800  0.98093200  0.74799600  1
  O  O0  1  0.58799900  0.02492900  0.24452600  1
  O  O1  1  0.11138100  0.54315100  0.75077000  1
  O  O2  1  0.42610500  0.02263100  0.75327400  1
  O  O3  1  0.94892400  0.47417400  0.24654500  1
  O  O4  1  0.18605300  0.84223400  0.45592700  1
  O  O5  1  0.72889900  0.69981000  0.94140200  1
  O  O6  1  0.77705800  0.18876700  0.53310300  1
  O  O7  1  0.25002200  0.30591500  0.02836300  1
  O  O8  1  0.32073700  0.26657500  0.46627400  1
  O  O9  1  0.78201300  0.25409200  0.95636300  1
  O  O10  1  0.63828700  0.70426900  0.53165600  1
  O  O11  1  0.18853500  0.79394700  0.06442400  1
loop_
_geom_bond_atom_site_label_1
_geom_bond_atom_site_label_2
_geom_bond_distance
_geom_bond_site_symmetry_2
Li0 O4 1.796730 1_555
Li0 O3 1.846457 1_455
Li0 O11 1.918544 1_555
Li0 Pb0 2.564381 1_555
La0 O1 2.455195 1_555
La0 O10 2.472326 1_555
La0 O2 2.508507 1_555
La0 O5 2.559896 1_555
La0 O9 2.622917 1_555
La0 O8 2.643538 1_555
La0 O7 2.751485 1_556
La0 O6 2.843691 1_555
La1 O3 2.413007 1_455
La1 O4 2.430937 1_545
La1 O0 2.523584 1_455
La1 O11 2.605047 1_545
La1 O7 2.616557 1_555
La1 O8 2.677142 1_555
La1 O6 2.680694 1_455
La1 O9 2.935251 1_454
Co0 O1 2.017346 1_655
Co0 O10 2.169431 1_555
Co0 O3 2.231014 1_555
Co0 O6 2.295891 1_555
Co0 O4 2.332356 1_655
Co1 O2 2.035078 1_565
Co1 O0 2.070109 1_566
Co1 O11 2.088342 1_556
Co1 O5 2.113501 1_555
Co1 O9 2.478384 1_565
Co1 O7 2.746272 1_566
O0 Sb1 2.103657 1_545
O0 Pb0 2.484866 1_555
O1 Sb0 1.974305 1_555
O1 Pb1 2.786587 1_455
O2 Sb1 2.041625 1_545
O2 Pb1 2.570725 1_445
O3 Sb0 2.081228 1_654
O3 Pb0 2.362130 1_555
O4 Sb1 2.021542 1_555
O4 Pb1 2.724800 1_455
O5 Sb0 2.054225 1_655
O5 Pb1 2.726061 1_555
O6 Sb1 2.045250 1_545
O6 Pb1 2.513411 1_545
O7 Sb0 2.038626 1_554
O7 Pb0 2.544553 1_555
O8 Sb1 2.047262 1_545
O8 Pb0 2.432221 1_555
O9 Sb0 2.022930 1_655
O9 Pb1 2.706443 1_545
O10 Sb1 1.986918 1_555
O11 Sb0 2.057695 1_554
