# generated using pymatgen
data_Ba2MnZn2(AsO)2
_symmetry_space_group_name_H-M   'P 1'
_cell_length_a   4.28932005
_cell_length_b   39.52235147
_cell_length_c   4.28931993
_cell_angle_alpha   90.00000675
_cell_angle_beta   90.00000199
_cell_angle_gamma   90.00000643
_symmetry_Int_Tables_number   1
_chemical_formula_structural   Ba2MnZn2(AsO)2
_chemical_formula_sum   'Ba8 Mn4 Zn8 As8 O8'
_cell_volume   727.14273392
_cell_formula_units_Z   4
loop_
 _symmetry_equiv_pos_site_id
 _symmetry_equiv_pos_as_xyz
  1  'x, y, z'
loop_
 _atom_site_type_symbol
 _atom_site_label
 _atom_site_symmetry_multiplicity
 _atom_site_fract_x
 _atom_site_fract_y
 _atom_site_fract_z
 _atom_site_occupancy
  Ba  Ba0  1  0.50000000  0.04533000  0.50000000  1
  Ba  Ba1  1  0.00000000  0.29533000  0.00000000  1
  Ba  Ba2  1  0.50000000  0.54533000  0.50000000  1
  Ba  Ba3  1  0.00000000  0.79533000  0.00000000  1
  Ba  Ba4  1  0.00000000  0.20467000  0.00000000  1
  Ba  Ba5  1  0.50000000  0.45467000  0.50000000  1
  Ba  Ba6  1  0.00000000  0.70467000  0.00000000  1
  Ba  Ba7  1  0.50000000  0.95467000  0.50000000  1
  Mn  Mn0  1  0.00000000  0.50000000  0.00000000  1
  Mn  Mn1  1  0.50000000  0.75000000  0.50000000  1
  Mn  Mn2  1  0.00000000  0.00000000  0.00000000  1
  Mn  Mn3  1  0.50000000  0.25000000  0.50000000  1
  Zn  Zn0  1  0.00000000  0.12500000  0.50000000  1
  Zn  Zn1  1  0.50000000  0.37500000  0.00000000  1
  Zn  Zn2  1  0.00000000  0.62500000  0.50000000  1
  Zn  Zn3  1  0.50000000  0.87500000  0.00000000  1
  Zn  Zn4  1  0.50000000  0.12500000  0.00000000  1
  Zn  Zn5  1  0.00000000  0.37500000  0.50000000  1
  Zn  Zn6  1  0.50000000  0.62500000  0.00000000  1
  Zn  Zn7  1  0.00000000  0.87500000  0.50000000  1
  As  As0  1  0.00000000  0.08732800  0.00000000  1
  As  As1  1  0.50000000  0.33732800  0.50000000  1
  As  As2  1  0.00000000  0.58732800  0.00000000  1
  As  As3  1  0.50000000  0.83732800  0.50000000  1
  As  As4  1  0.50000000  0.16267200  0.50000000  1
  As  As5  1  0.00000000  0.41267200  0.00000000  1
  As  As6  1  0.50000000  0.66267200  0.50000000  1
  As  As7  1  0.00000000  0.91267200  0.00000000  1
  O  O0  1  0.50000000  0.00000000  0.00000000  1
  O  O1  1  0.00000000  0.25000000  0.50000000  1
  O  O2  1  0.50000000  0.50000000  0.00000000  1
  O  O3  1  0.00000000  0.75000000  0.50000000  1
  O  O4  1  0.00000000  0.00000000  0.50000000  1
  O  O5  1  0.50000000  0.25000000  0.00000000  1
  O  O6  1  0.00000000  0.50000000  0.50000000  1
  O  O7  1  0.50000000  0.75000000  0.00000000  1
loop_
_geom_bond_atom_site_label_1
_geom_bond_atom_site_label_2
_geom_bond_distance
_geom_bond_site_symmetry_2
Ba0 O0 2.794496 1_555
Ba0 O4 2.794496 1_555
Ba0 O0 2.794497 1_556
Ba0 O4 2.794497 1_655
Ba1 O1 2.794496 1_554
Ba1 O5 2.794496 1_455
Ba1 O1 2.794497 1_555
Ba1 O5 2.794497 1_555
Ba2 O2 2.794496 1_555
Ba2 O6 2.794496 1_555
Ba2 O2 2.794497 1_556
Ba2 O6 2.794497 1_655
Ba3 O3 2.794496 1_554
Ba3 O7 2.794496 1_455
Ba3 O3 2.794497 1_555
Ba3 O7 2.794497 1_555
Ba4 O1 2.794496 1_555
Ba4 O5 2.794496 1_555
Ba4 O1 2.794497 1_554
Ba4 O5 2.794497 1_455
Ba5 O2 2.794496 1_556
Ba5 O6 2.794496 1_655
Ba5 O2 2.794497 1_555
Ba5 O6 2.794497 1_555
Ba6 O3 2.794496 1_555
Ba6 O7 2.794496 1_555
Ba6 O3 2.794497 1_554
Ba6 O7 2.794497 1_455
Ba7 O0 2.794496 1_566
Ba7 O4 2.794496 1_665
Ba7 O0 2.794497 1_565
Ba7 O4 2.794497 1_565
Mn0 O6 2.144660 1_554
Mn0 O6 2.144660 1_555
Mn0 O2 2.144660 1_555
Mn0 O2 2.144660 1_455
Mn1 O7 2.144660 1_556
Mn1 O7 2.144660 1_555
Mn1 O3 2.144660 1_555
Mn1 O3 2.144660 1_655
Mn2 O4 2.144660 1_554
Mn2 O4 2.144660 1_555
Mn2 O0 2.144660 1_555
Mn2 O0 2.144660 1_455
Mn3 O5 2.144660 1_556
Mn3 O5 2.144660 1_555
Mn3 O1 2.144660 1_555
Mn3 O1 2.144660 1_655
As0 Zn0 2.610814 1_555
As0 Zn4 2.610814 1_555
As0 Zn0 2.610814 1_554
As0 Zn4 2.610814 1_455
As0 Ba0 3.457494 1_454
As0 Ba0 3.457494 1_554
As0 Ba0 3.457494 1_455
As0 Ba0 3.457495 1_555
As1 Zn1 2.610814 1_556
As1 Zn5 2.610814 1_655
As1 Zn1 2.610814 1_555
As1 Zn5 2.610814 1_555
As1 Ba1 3.457494 1_555
As1 Ba1 3.457494 1_655
As1 Ba1 3.457494 1_556
As1 Ba1 3.457495 1_656
As2 Zn2 2.610814 1_555
As2 Zn6 2.610814 1_555
As2 Zn2 2.610814 1_554
As2 Zn6 2.610814 1_455
As2 Ba2 3.457494 1_454
As2 Ba2 3.457494 1_554
As2 Ba2 3.457494 1_455
As2 Ba2 3.457495 1_555
As3 Zn3 2.610814 1_556
As3 Zn7 2.610814 1_655
As3 Zn3 2.610814 1_555
As3 Zn7 2.610814 1_555
As3 Ba3 3.457494 1_555
As3 Ba3 3.457494 1_655
As3 Ba3 3.457494 1_556
As3 Ba3 3.457495 1_656
As4 Zn4 2.610814 1_555
As4 Zn0 2.610814 1_555
As4 Zn4 2.610814 1_556
As4 Zn0 2.610814 1_655
As4 Ba4 3.457494 1_656
As4 Ba4 3.457494 1_556
As4 Ba4 3.457494 1_655
As4 Ba4 3.457495 1_555
As5 Zn5 2.610814 1_554
As5 Zn1 2.610814 1_455
As5 Zn5 2.610814 1_555
As5 Zn1 2.610814 1_555
As5 Ba5 3.457494 1_555
As5 Ba5 3.457494 1_455
As5 Ba5 3.457494 1_554
As5 Ba5 3.457495 1_454
As6 Zn6 2.610814 1_555
As6 Zn2 2.610814 1_555
As6 Zn6 2.610814 1_556
As6 Zn2 2.610814 1_655
As6 Ba6 3.457494 1_656
As6 Ba6 3.457494 1_556
As6 Ba6 3.457494 1_655
As6 Ba6 3.457495 1_555
As7 Zn7 2.610814 1_554
As7 Zn3 2.610814 1_455
As7 Zn7 2.610814 1_555
As7 Zn3 2.610814 1_555
As7 Ba7 3.457494 1_555
As7 Ba7 3.457494 1_455
As7 Ba7 3.457494 1_554
As7 Ba7 3.457495 1_454
