# generated using pymatgen
data_Ca3Mn2(IrO6)2
_symmetry_space_group_name_H-M   'P 1'
_cell_length_a   5.37089100
_cell_length_b   5.50616146
_cell_length_c   7.70823131
_cell_angle_alpha   90.06036165
_cell_angle_beta   90.07059926
_cell_angle_gamma   90.99572500
_symmetry_Int_Tables_number   1
_chemical_formula_structural   Ca3Mn2(IrO6)2
_chemical_formula_sum   'Ca3 Mn2 Ir2 O12'
_cell_volume   227.92074345
_cell_formula_units_Z   1
loop_
 _symmetry_equiv_pos_site_id
 _symmetry_equiv_pos_as_xyz
  1  'x, y, z'
loop_
 _atom_site_type_symbol
 _atom_site_label
 _atom_site_symmetry_multiplicity
 _atom_site_fract_x
 _atom_site_fract_y
 _atom_site_fract_z
 _atom_site_occupancy
  Ca  Ca0  1  0.00936200  0.94790300  0.24944000  1
  Ca  Ca1  1  0.48278100  0.44483500  0.25085000  1
  Ca  Ca2  1  0.98796800  0.05213000  0.75089000  1
  Mn  Mn0  1  0.99676100  0.49948000  0.99263400  1
  Mn  Mn1  1  0.50129100  0.98952900  0.50697700  1
  Ir  Ir0  1  0.99742200  0.50010800  0.50681300  1
  Ir  Ir1  1  0.50131000  0.99382800  0.99356900  1
  O  O0  1  0.09193900  0.48247900  0.74453000  1
  O  O1  1  0.20755400  0.19794800  0.04308300  1
  O  O2  1  0.19706000  0.20844400  0.45625700  1
  O  O3  1  0.29324500  0.71051800  0.05446400  1
  O  O4  1  0.28552800  0.70831300  0.44429000  1
  O  O5  1  0.40944400  0.96684700  0.75472000  1
  O  O6  1  0.58296300  0.02370100  0.24536600  1
  O  O7  1  0.70882900  0.29367100  0.54729500  1
  O  O8  1  0.70103700  0.28920600  0.95341500  1
  O  O9  1  0.80528800  0.81060400  0.96488800  1
  O  O10  1  0.81645000  0.80332500  0.53543200  1
  O  O11  1  0.90867300  0.51581900  0.25494500  1
loop_
_geom_bond_atom_site_label_1
_geom_bond_atom_site_label_2
_geom_bond_distance
_geom_bond_site_symmetry_2
Ca0 O6 2.335165 1_465
Ca0 O1 2.348754 1_565
Ca0 O2 2.357267 1_565
Ca0 O11 2.431057 1_455
Ca0 O4 2.502587 1_555
Ca0 O3 2.522444 1_555
Ca0 O9 2.558441 1_454
Ca0 O10 2.558847 1_455
Ca1 O11 2.314038 1_555
Ca1 O4 2.345876 1_555
Ca1 O3 2.349578 1_555
Ca1 O6 2.389874 1_555
Ca1 O2 2.548908 1_555
Ca1 O1 2.552974 1_555
Ca1 O8 2.720715 1_554
Ca1 O7 2.724076 1_555
Ca2 O5 2.320029 1_645
Ca2 O9 2.327125 1_545
Ca2 O10 2.330502 1_545
Ca2 O0 2.425577 1_655
Ca2 O7 2.558762 1_555
Ca2 O8 2.566621 1_555
Ca2 O1 2.658028 1_656
Ca2 O2 2.671449 1_655
Mn0 O8 1.971995 1_555
Mn0 O0 1.982728 1_655
Mn0 O3 2.011405 1_656
Mn0 O9 2.024716 1_555
Mn0 O1 2.062795 1_656
Mn0 O11 2.079346 1_556
Mn1 O5 1.976469 1_555
Mn1 O4 1.977039 1_555
Mn1 O10 2.006077 1_555
Mn1 O7 2.019084 1_565
Mn1 O6 2.072302 1_565
Mn1 O2 2.084130 1_565
Ir0 O0 1.903818 1_655
Ir0 O7 1.931997 1_555
Ir0 O10 1.958827 1_555
Ir0 O4 1.970349 1_655
Ir0 O2 1.984989 1_655
Ir0 O11 2.000862 1_555
Ir1 O5 1.910449 1_555
Ir1 O9 1.946749 1_555
Ir1 O8 1.957786 1_565
Ir1 O3 1.960821 1_556
Ir1 O1 1.990052 1_566
Ir1 O6 1.995303 1_566
