# generated using pymatgen
data_Hf2BeZn
_symmetry_space_group_name_H-M   'P 1'
_cell_length_a   10.73617528
_cell_length_b   10.73617528
_cell_length_c   10.73617528
_cell_angle_alpha   124.03993376
_cell_angle_beta   118.97477373
_cell_angle_gamma   87.46698335
_symmetry_Int_Tables_number   1
_chemical_formula_structural   Hf2BeZn
_chemical_formula_sum   'Hf2 Be1 Zn1'
_cell_volume   852.00131618
_cell_formula_units_Z   1
loop_
 _symmetry_equiv_pos_site_id
 _symmetry_equiv_pos_as_xyz
  1  'x, y, z'
loop_
 _atom_site_type_symbol
 _atom_site_label
 _atom_site_symmetry_multiplicity
 _atom_site_fract_x
 _atom_site_fract_y
 _atom_site_fract_z
 _atom_site_occupancy
  Hf  Hf0  1  -0.00000000  0.23977499  0.23977499  1
  Hf  Hf1  1  0.00000000  0.76022501  0.76022501  1
  Be  Be0  1  0.00000000  -0.00000000  0.00000000  1
  Zn  Zn0  1  0.00000000  0.50000000  0.50000000  1
loop_
_geom_bond_atom_site_label_1
_geom_bond_atom_site_label_2
_geom_bond_distance
_geom_bond_site_symmetry_2
Hf0 Zn0 2.621520 1_555
Hf1 Zn0 2.621520 1_555
Be0 Hf0 2.415505 1_555
Be0 Hf1 2.415505 1_544
