# generated using pymatgen
data_Cs2TaAgS4
_symmetry_space_group_name_H-M   'P 1'
_cell_length_a   14.56813652
_cell_length_b   12.97493419
_cell_length_c   7.87891624
_cell_angle_alpha   84.89420710
_cell_angle_beta   62.51154926
_cell_angle_gamma   32.59424364
_symmetry_Int_Tables_number   1
_chemical_formula_structural   Cs2TaAgS4
_chemical_formula_sum   'Cs4 Ta2 Ag2 S8'
_cell_volume   554.10718850
_cell_formula_units_Z   2
loop_
 _symmetry_equiv_pos_site_id
 _symmetry_equiv_pos_as_xyz
  1  'x, y, z'
loop_
 _atom_site_type_symbol
 _atom_site_label
 _atom_site_symmetry_multiplicity
 _atom_site_fract_x
 _atom_site_fract_y
 _atom_site_fract_z
 _atom_site_occupancy
  Cs  Cs0  1  0.67813600  0.67813600  0.32186400  1
  Cs  Cs1  1  0.32186400  0.32186400  0.67813600  1
  Cs  Cs2  1  0.57186400  0.57186400  0.92813600  1
  Cs  Cs3  1  0.92813600  0.92813600  0.57186400  1
  Ta  Ta0  1  0.50000000  0.50000000  0.50000000  1
  Ta  Ta1  1  0.75000000  0.75000000  0.75000000  1
  Ag  Ag0  1  0.00000000  0.00000000  0.00000000  1
  Ag  Ag1  1  0.25000000  0.25000000  0.25000000  1
  S  S0  1  0.24609900  0.86004700  0.56669300  1
  S  S1  1  0.32716200  0.56669300  0.86004700  1
  S  S2  1  0.56669300  0.32716200  0.24609900  1
  S  S3  1  0.86004700  0.24609900  0.32716200  1
  S  S4  1  0.38995300  0.00390100  0.92283800  1
  S  S5  1  0.92283800  0.68330700  0.38995300  1
  S  S6  1  0.68330700  0.92283800  0.00390100  1
  S  S7  1  0.00390100  0.38995300  0.68330700  1
loop_
_geom_bond_atom_site_label_1
_geom_bond_atom_site_label_2
_geom_bond_distance
_geom_bond_site_symmetry_2
Cs0 S4 3.636202 1_565
Cs0 S7 3.636209 1_654
Cs0 S0 3.671072 1_555
Cs0 S3 3.671074 1_555
Cs0 S5 3.895553 1_555
Cs0 S6 3.895557 1_555
Cs0 S4 3.985979 1_654
Cs0 S7 3.985980 1_565
Cs1 S5 3.636206 1_545
Cs1 S6 3.636208 1_456
Cs1 S2 3.671082 1_555
Cs1 S1 3.671086 1_555
Cs1 S4 3.895563 1_555
Cs1 S7 3.895567 1_555
Cs1 S5 3.985978 1_456
Cs1 S6 3.985984 1_545
Cs2 S3 3.636202 1_555
Cs2 S0 3.636209 1_556
Cs2 S7 3.671072 1_655
Cs2 S4 3.671074 1_565
Cs2 S1 3.895553 1_555
Cs2 S2 3.895557 1_556
Cs2 S3 3.985979 1_466
Cs2 S0 3.985980 1_645
Cs3 S1 3.636206 1_565
Cs3 S2 3.636208 1_655
Cs3 S6 3.671082 1_556
Cs3 S5 3.671086 1_555
Cs3 S3 3.895563 1_565
Cs3 S0 3.895567 1_655
Cs3 S1 3.985978 1_654
Cs3 S2 3.985984 1_566
Ag0 S2 2.576976 1_455
Ag0 S1 2.576978 1_544
Ag0 S0 2.576981 1_544
Ag0 S3 2.576987 1_455
Ag1 S6 2.576976 1_545
Ag1 S5 2.576978 1_455
Ag1 S7 2.576981 1_555
Ag1 S4 2.576987 1_554
S0 Ta0 2.303870 1_555
S1 Ta0 2.303867 1_555
S2 Ta0 2.303861 1_555
S3 Ta0 2.303873 1_555
S4 Ta1 2.303873 1_545
S5 Ta1 2.303867 1_555
S6 Ta1 2.303861 1_554
S7 Ta1 2.303870 1_455
