# generated using pymatgen
data_Mg14ZrC
_symmetry_space_group_name_H-M   'P 1'
_cell_length_a   6.50596161
_cell_length_b   5.82058414
_cell_length_c   10.18022934
_cell_angle_alpha   90.00000000
_cell_angle_beta   90.00000000
_cell_angle_gamma   116.57231897
_symmetry_Int_Tables_number   1
_chemical_formula_structural   Mg14ZrC
_chemical_formula_sum   'Mg14 Zr1 C1'
_cell_volume   344.78874015
_cell_formula_units_Z   1
loop_
 _symmetry_equiv_pos_site_id
 _symmetry_equiv_pos_as_xyz
  1  'x, y, z'
loop_
 _atom_site_type_symbol
 _atom_site_label
 _atom_site_symmetry_multiplicity
 _atom_site_fract_x
 _atom_site_fract_y
 _atom_site_fract_z
 _atom_site_occupancy
  Mg  Mg0  1  0.15442975  0.32721437  0.62500000  1
  Mg  Mg1  1  0.13328214  0.81664057  0.62500000  1
  Mg  Mg2  1  0.57704242  0.27315404  0.12500000  1
  Mg  Mg3  1  0.64925318  0.32745600  0.62500000  1
  Mg  Mg4  1  0.57704242  0.80388738  0.12500000  1
  Mg  Mg5  1  0.64925318  0.82179619  0.62500000  1
  Mg  Mg6  1  0.33770114  0.17354514  0.37425184  1
  Mg  Mg7  1  0.33770114  0.17354514  0.87574816  1
  Mg  Mg8  1  0.33770114  0.66415700  0.37425184  1
  Mg  Mg9  1  0.33770114  0.66415700  0.87574816  1
  Mg  Mg10  1  0.83510071  0.16755085  0.37690742  1
  Mg  Mg11  1  0.83510071  0.16755085  0.87309258  1
  Mg  Mg12  1  0.94079964  0.72040032  0.27071533  1
  Mg  Mg13  1  0.94079964  0.72040032  0.97928467  1
  Zr  Zr0  1  0.09889603  0.29944752  0.12500000  1
  C  C0  1  0.25819563  0.87909731  0.12500000  1
loop_
_geom_bond_atom_site_label_1
_geom_bond_atom_site_label_2
_geom_bond_distance
_geom_bond_site_symmetry_2
Mg0 Mg1 2.912892 1_545
Mg0 Mg1 2.912892 1_555
Mg0 Mg6 3.113203 1_555
Mg0 Mg7 3.113203 1_555
Mg0 Mg8 3.113209 1_555
Mg0 Mg9 3.113209 1_555
Mg0 Mg10 3.135500 1_455
Mg0 Mg11 3.135500 1_455
Mg0 Mg5 3.218673 1_555
Mg0 Mg3 3.218673 1_555
Mg0 Mg5 3.287288 1_445
Mg0 Mg3 3.287289 1_455
Mg1 Mg3 3.162611 1_455
Mg1 Mg5 3.162611 1_455
Mg1 Mg8 3.182555 1_555
Mg1 Mg9 3.182555 1_555
Mg1 Mg6 3.182560 1_565
Mg1 Mg7 3.182560 1_565
Mg1 Mg3 3.343572 1_565
Mg1 Mg5 3.343572 1_555
Mg2 Mg7 2.896853 1_554
Mg2 Mg6 2.896853 1_555
Mg2 Zr0 3.182208 1_555
Mg2 Zr0 3.329514 1_655
Mg3 Mg5 2.877349 1_555
Mg3 Mg5 2.943235 1_545
Mg3 Mg7 3.130919 1_555
Mg3 Mg6 3.130919 1_555
Mg4 Mg8 2.896852 1_555
Mg4 Mg9 2.896852 1_554
Mg4 Zr0 3.182207 1_555
Mg4 Zr0 3.329514 1_665
Mg5 Mg8 3.130919 1_555
Mg5 Mg9 3.130919 1_555
Mg6 Mg8 2.855648 1_555
Mg6 Mg8 2.964937 1_545
Mg6 Zr0 3.226160 1_555
Mg7 Mg9 2.855648 1_555
Mg7 Mg9 2.964937 1_545
Mg7 Zr0 3.226160 1_556
Mg8 Zr0 3.226165 1_555
Mg9 Zr0 3.226165 1_556
Mg10 Zr0 2.988750 1_655
Mg10 Mg3 3.116716 1_555
Mg10 Mg5 3.116721 1_545
Mg10 Mg12 3.164926 1_555
Mg10 Mg12 3.164926 1_545
Mg10 Mg8 3.251932 1_545
Mg10 Mg6 3.251932 1_555
Mg10 Mg8 3.254553 1_655
Mg10 Mg6 3.254554 1_655
Mg10 Mg2 3.270533 1_555
Mg10 Mg4 3.270538 1_545
Mg11 Zr0 2.988750 1_656
Mg11 Mg3 3.116716 1_555
Mg11 Mg5 3.116721 1_545
Mg11 Mg13 3.164926 1_555
Mg11 Mg13 3.164926 1_545
Mg11 Mg9 3.251932 1_545
Mg11 Mg7 3.251932 1_555
Mg11 Mg9 3.254553 1_655
Mg11 Mg7 3.254554 1_655
Mg11 Mg2 3.270533 1_556
Mg11 Mg4 3.270538 1_546
Mg12 Mg6 2.939782 1_665
Mg12 Mg8 2.939782 1_655
Mg12 Zr0 3.393603 1_665
Mg12 Zr0 3.393613 1_655
Mg13 Mg7 2.939782 1_665
Mg13 Mg9 2.939782 1_655
Mg13 Zr0 3.393603 1_666
Mg13 Zr0 3.393613 1_656
C0 Mg2 2.303743 1_565
C0 Mg4 2.303743 1_555
C0 Mg12 2.368830 1_455
C0 Mg13 2.368830 1_454
C0 Mg8 2.974949 1_555
C0 Mg9 2.974949 1_554
C0 Mg7 2.974955 1_564
C0 Mg6 2.974955 1_565
C0 Zr0 3.054339 1_555
C0 Zr0 3.054339 1_565
