# generated using pymatgen
data_LiHfMg14
_symmetry_space_group_name_H-M   'P 1'
_cell_length_a   6.39360879
_cell_length_b   6.39360827
_cell_length_c   10.14143001
_cell_angle_alpha   90.00000000
_cell_angle_beta   90.00000000
_cell_angle_gamma   120.00000275
_symmetry_Int_Tables_number   1
_chemical_formula_structural   LiHfMg14
_chemical_formula_sum   'Li1 Hf1 Mg14'
_cell_volume   359.02269337
_cell_formula_units_Z   1
loop_
 _symmetry_equiv_pos_site_id
 _symmetry_equiv_pos_as_xyz
  1  'x, y, z'
loop_
 _atom_site_type_symbol
 _atom_site_label
 _atom_site_symmetry_multiplicity
 _atom_site_fract_x
 _atom_site_fract_y
 _atom_site_fract_z
 _atom_site_occupancy
  Li  Li0  1  0.16666700  0.33333300  0.12500000  1
  Hf  Hf0  1  0.16666700  0.33333300  0.62500000  1
  Mg  Mg0  1  0.16777992  0.83388946  0.12500000  1
  Mg  Mg1  1  0.17113653  0.83556776  0.62500000  1
  Mg  Mg2  1  0.66611054  0.33222008  0.12500000  1
  Mg  Mg3  1  0.66443224  0.32886347  0.62500000  1
  Mg  Mg4  1  0.66611054  0.83388946  0.12500000  1
  Mg  Mg5  1  0.66443224  0.83556776  0.62500000  1
  Mg  Mg6  1  0.33094118  0.16905882  0.37516942  1
  Mg  Mg7  1  0.33094118  0.16905882  0.87483058  1
  Mg  Mg8  1  0.33094118  0.66188336  0.37516942  1
  Mg  Mg9  1  0.33094118  0.66188336  0.87483058  1
  Mg  Mg10  1  0.83811664  0.16905882  0.37516942  1
  Mg  Mg11  1  0.83811664  0.16905882  0.87483058  1
  Mg  Mg12  1  0.83333300  0.66666700  0.37620771  1
  Mg  Mg13  1  0.83333300  0.66666700  0.87379229  1
loop_
_geom_bond_atom_site_label_1
_geom_bond_atom_site_label_2
_geom_bond_distance
_geom_bond_site_symmetry_2
Li0 Mg6 3.121886 1_555
Li0 Mg7 3.121886 1_554
Li0 Mg9 3.121893 1_554
Li0 Mg8 3.121893 1_555
Li0 Mg10 3.121893 1_455
Li0 Mg11 3.121893 1_454
Li0 Mg4 3.196810 1_555
Li0 Mg4 3.196810 1_445
Li0 Mg0 3.196810 1_555
Li0 Mg0 3.196810 1_545
Li0 Mg2 3.196810 1_455
Li0 Mg2 3.196810 1_555
Hf0 Mg6 3.119094 1_555
Hf0 Mg7 3.119094 1_555
Hf0 Mg9 3.119101 1_555
Hf0 Mg8 3.119101 1_555
Hf0 Mg11 3.119101 1_455
Hf0 Mg10 3.119101 1_455
Hf0 Mg1 3.196900 1_555
Hf0 Mg5 3.196900 1_555
Hf0 Mg5 3.196900 1_445
Hf0 Mg1 3.196900 1_545
Hf0 Mg3 3.196900 1_455
Hf0 Mg3 3.196900 1_555
Mg0 Mg8 3.143511 1_555
Mg0 Mg9 3.143511 1_554
Mg0 Mg7 3.143517 1_564
Mg0 Mg6 3.143517 1_565
Mg0 Mg12 3.149541 1_455
Mg0 Mg13 3.149541 1_454
Mg0 Mg2 3.186131 1_565
Mg0 Mg4 3.186131 1_555
Mg0 Mg2 3.207477 1_455
Mg0 Mg4 3.207478 1_455
Mg1 Mg9 3.135443 1_555
Mg1 Mg8 3.135443 1_555
Mg1 Mg6 3.135449 1_565
Mg1 Mg7 3.135449 1_565
Mg1 Mg12 3.140793 1_455
Mg1 Mg13 3.140793 1_455
Mg1 Mg3 3.153940 1_565
Mg1 Mg5 3.153940 1_555
Mg1 Mg3 3.239669 1_455
Mg1 Mg5 3.239669 1_455
Mg2 Mg7 3.143517 1_554
Mg2 Mg6 3.143517 1_555
Mg2 Mg4 3.186131 1_545
Mg2 Mg4 3.207477 1_555
Mg3 Mg7 3.135449 1_555
Mg3 Mg6 3.135449 1_555
Mg3 Mg5 3.153940 1_545
Mg3 Mg5 3.239669 1_555
Mg4 Mg9 3.143517 1_554
Mg4 Mg8 3.143517 1_555
Mg5 Mg9 3.135449 1_555
Mg5 Mg8 3.135449 1_555
Mg6 Mg8 3.150927 1_555
Mg6 Mg8 3.242681 1_545
Mg7 Mg9 3.150927 1_555
Mg7 Mg9 3.242681 1_545
Mg10 Mg3 3.135443 1_555
Mg10 Mg5 3.135449 1_545
Mg10 Mg2 3.143511 1_555
Mg10 Mg4 3.143517 1_545
Mg10 Mg8 3.150927 1_655
Mg10 Mg6 3.150927 1_655
Mg10 Mg12 3.196931 1_545
Mg10 Mg12 3.196931 1_555
Mg10 Mg8 3.242681 1_545
Mg10 Mg6 3.242681 1_555
Mg11 Mg3 3.135443 1_555
Mg11 Mg5 3.135449 1_545
Mg11 Mg2 3.143511 1_556
Mg11 Mg4 3.143517 1_546
Mg11 Mg9 3.150927 1_655
Mg11 Mg7 3.150927 1_655
Mg11 Mg13 3.196931 1_545
Mg11 Mg13 3.196931 1_555
Mg11 Mg9 3.242681 1_545
Mg11 Mg7 3.242681 1_555
Mg12 Mg5 3.140786 1_555
Mg12 Mg3 3.140793 1_555
Mg12 Mg4 3.149535 1_555
Mg12 Mg2 3.149541 1_555
Mg12 Mg6 3.196931 1_665
Mg12 Mg6 3.196931 1_555
Mg12 Mg8 3.196931 1_555
Mg12 Mg8 3.196931 1_655
Mg13 Mg5 3.140786 1_555
Mg13 Mg3 3.140793 1_555
Mg13 Mg4 3.149535 1_556
Mg13 Mg2 3.149541 1_556
Mg13 Mg7 3.196931 1_665
Mg13 Mg7 3.196931 1_555
Mg13 Mg9 3.196931 1_555
Mg13 Mg9 3.196931 1_655
