# generated using pymatgen
data_Na5CuSO2
_symmetry_space_group_name_H-M   'P 1'
_cell_length_a   4.57735100
_cell_length_b   4.57735100
_cell_length_c   8.20725100
_cell_angle_alpha   90.00000000
_cell_angle_beta   90.00000000
_cell_angle_gamma   90.00000000
_symmetry_Int_Tables_number   1
_chemical_formula_structural   Na5CuSO2
_chemical_formula_sum   'Na5 Cu1 S1 O2'
_cell_volume   171.95948984
_cell_formula_units_Z   1
loop_
 _symmetry_equiv_pos_site_id
 _symmetry_equiv_pos_as_xyz
  1  'x, y, z'
loop_
 _atom_site_type_symbol
 _atom_site_label
 _atom_site_symmetry_multiplicity
 _atom_site_fract_x
 _atom_site_fract_y
 _atom_site_fract_z
 _atom_site_occupancy
  Na  Na0  1  0.00000000  0.00000000  0.50000000  1
  Na  Na1  1  0.00000000  0.50000000  0.73924600  1
  Na  Na2  1  0.50000000  0.00000000  0.26075400  1
  Na  Na3  1  0.00000000  0.50000000  0.26075400  1
  Na  Na4  1  0.50000000  0.00000000  0.73924600  1
  Cu  Cu0  1  0.00000000  0.00000000  0.00000000  1
  S  S0  1  0.50000000  0.50000000  0.50000000  1
  O  O0  1  0.00000000  0.00000000  0.22057300  1
  O  O1  1  0.00000000  0.00000000  0.77942700  1
loop_
_geom_bond_atom_site_label_1
_geom_bond_atom_site_label_2
_geom_bond_distance
_geom_bond_site_symmetry_2
Na0 O0 2.293328 1_555
Na0 O1 2.293328 1_555
Na0 S0 3.236676 1_455
Na0 S0 3.236676 1_555
Na0 S0 3.236676 1_445
Na0 S0 3.236676 1_545
Na1 O1 2.312312 1_555
Na1 O1 2.312312 1_565
Na1 S0 3.015555 1_455
Na1 S0 3.015555 1_555
Na2 O0 2.312312 1_655
Na2 O0 2.312312 1_555
Na2 S0 3.015555 1_545
Na2 S0 3.015555 1_555
Na3 O0 2.312312 1_565
Na3 O0 2.312312 1_555
Na3 S0 3.015555 1_555
Na3 S0 3.015555 1_455
Na4 O1 2.312312 1_555
Na4 O1 2.312312 1_655
Na4 S0 3.015555 1_545
Na4 S0 3.015555 1_555
Cu0 O0 1.810298 1_555
Cu0 O1 1.810298 1_554
