# generated using pymatgen
data_ZnPd5Se
_symmetry_space_group_name_H-M   'P 1'
_cell_length_a   3.95826222
_cell_length_b   3.95826222
_cell_length_c   7.00950019
_cell_angle_alpha   90.00000000
_cell_angle_beta   90.00000000
_cell_angle_gamma   90.00000000
_symmetry_Int_Tables_number   1
_chemical_formula_structural   ZnPd5Se
_chemical_formula_sum   'Zn1 Pd5 Se1'
_cell_volume   109.82372607
_cell_formula_units_Z   1
loop_
 _symmetry_equiv_pos_site_id
 _symmetry_equiv_pos_as_xyz
  1  'x, y, z'
loop_
 _atom_site_type_symbol
 _atom_site_label
 _atom_site_symmetry_multiplicity
 _atom_site_fract_x
 _atom_site_fract_y
 _atom_site_fract_z
 _atom_site_occupancy
  Zn  Zn0  1  0.50000000  0.50000000  0.00000000  1
  Pd  Pd0  1  0.00000000  0.50000000  0.27163234  1
  Pd  Pd1  1  -0.00000000  0.50000000  0.72836766  1
  Pd  Pd2  1  0.50000000  -0.00000000  0.27163234  1
  Pd  Pd3  1  0.50000000  -0.00000000  0.72836766  1
  Pd  Pd4  1  -0.00000000  -0.00000000  0.00000000  1
  Se  Se0  1  -0.00000000  -0.00000000  0.50000000  1
loop_
_geom_bond_atom_site_label_1
_geom_bond_atom_site_label_2
_geom_bond_distance
_geom_bond_site_symmetry_2
Pd0 Se0 2.545454 1_565
Pd0 Se0 2.545454 1_555
Pd0 Pd4 2.746307 1_565
Pd0 Zn0 2.746307 1_555
Pd0 Pd4 2.746307 1_555
Pd0 Zn0 2.746307 1_455
Pd1 Se0 2.545454 1_565
Pd1 Se0 2.545454 1_555
Pd1 Zn0 2.746307 1_556
Pd1 Pd4 2.746307 1_556
Pd1 Pd4 2.746307 1_566
Pd1 Zn0 2.746307 1_456
Pd2 Se0 2.545454 1_655
Pd2 Se0 2.545454 1_555
Pd2 Pd4 2.746307 1_655
Pd2 Zn0 2.746307 1_545
Pd2 Zn0 2.746307 1_555
Pd2 Pd4 2.746307 1_555
Pd3 Se0 2.545454 1_655
Pd3 Se0 2.545454 1_555
Pd3 Zn0 2.746307 1_546
Pd3 Zn0 2.746307 1_556
Pd3 Pd4 2.746307 1_556
Pd3 Pd4 2.746307 1_656
Pd4 Zn0 2.798914 1_445
Pd4 Zn0 2.798914 1_545
Pd4 Zn0 2.798914 1_555
Pd4 Zn0 2.798914 1_455
