# generated using pymatgen
data_RbMnP2O7
_symmetry_space_group_name_H-M   'P 1'
_cell_length_a   9.87673500
_cell_length_b   7.48973900
_cell_length_c   8.81000143
_cell_angle_alpha   74.61222806
_cell_angle_beta   90.00000000
_cell_angle_gamma   90.00000000
_symmetry_Int_Tables_number   1
_chemical_formula_structural   RbMnP2O7
_chemical_formula_sum   'Rb4 Mn4 P8 O28'
_cell_volume   628.34996656
_cell_formula_units_Z   4
loop_
 _symmetry_equiv_pos_site_id
 _symmetry_equiv_pos_as_xyz
  1  'x, y, z'
loop_
 _atom_site_type_symbol
 _atom_site_label
 _atom_site_symmetry_multiplicity
 _atom_site_fract_x
 _atom_site_fract_y
 _atom_site_fract_z
 _atom_site_occupancy
  Rb  Rb0  1  0.31194300  0.81865900  0.04380700  1
  Rb  Rb1  1  0.81194300  0.18134100  0.45619300  1
  Rb  Rb2  1  0.68805700  0.18134100  0.95619300  1
  Rb  Rb3  1  0.18805700  0.81865900  0.54380700  1
  Mn  Mn0  1  0.60137300  0.76384800  0.75647700  1
  Mn  Mn1  1  0.10137300  0.23615200  0.74352300  1
  Mn  Mn2  1  0.39862700  0.23615200  0.24352300  1
  Mn  Mn3  1  0.89862700  0.76384800  0.25647700  1
  P  P0  1  0.63124800  0.56553800  0.18951600  1
  P  P1  1  0.13124800  0.43446200  0.31048400  1
  P  P2  1  0.36875200  0.43446200  0.81048400  1
  P  P3  1  0.86875200  0.56553800  0.68951600  1
  P  P4  1  0.90538100  0.86757000  0.83166500  1
  P  P5  1  0.40538100  0.13243000  0.66833500  1
  P  P6  1  0.09461900  0.13243000  0.16833500  1
  P  P7  1  0.59461900  0.86757000  0.33166500  1
  O  O0  1  0.94973700  0.66909400  0.80507200  1
  O  O1  1  0.44973700  0.33090600  0.69492800  1
  O  O2  1  0.05026300  0.33090600  0.19492800  1
  O  O3  1  0.55026300  0.66909400  0.30507200  1
  O  O4  1  0.73675200  0.91412800  0.25525900  1
  O  O5  1  0.23675200  0.08587200  0.24474100  1
  O  O6  1  0.26324800  0.08587200  0.74474100  1
  O  O7  1  0.76324800  0.91412800  0.75525900  1
  O  O8  1  0.57631400  0.36590000  0.23648900  1
  O  O9  1  0.07631400  0.63410000  0.26351100  1
  O  O10  1  0.42368600  0.63410000  0.76351100  1
  O  O11  1  0.92368600  0.36590000  0.73648900  1
  O  O12  1  0.59046300  0.85485000  0.50355200  1
  O  O13  1  0.09046300  0.14515000  0.99644800  1
  O  O14  1  0.40953700  0.14515000  0.49644800  1
  O  O15  1  0.90953700  0.85485000  0.00355200  1
  O  O16  1  0.60439800  0.67318300  0.02179000  1
  O  O17  1  0.10439800  0.32681700  0.47821000  1
  O  O18  1  0.39560200  0.32681700  0.97821000  1
  O  O19  1  0.89560200  0.67318300  0.52179000  1
  O  O20  1  0.49687100  0.00930300  0.22677400  1
  O  O21  1  0.99687100  0.99069700  0.27322600  1
  O  O22  1  0.50312900  0.99069700  0.77322600  1
  O  O23  1  0.00312900  0.00930300  0.72677400  1
  O  O24  1  0.78163700  0.55477400  0.24402600  1
  O  O25  1  0.28163700  0.44522600  0.25597400  1
  O  O26  1  0.21836300  0.44522600  0.75597400  1
  O  O27  1  0.71836300  0.55477400  0.74402600  1
loop_
_geom_bond_atom_site_label_1
_geom_bond_atom_site_label_2
_geom_bond_distance
_geom_bond_site_symmetry_2
Mn0 O7 1.953647 1_555
Mn0 O27 1.972409 1_555
Mn0 O22 1.995771 1_555
Mn0 O10 1.999036 1_555
Mn0 O12 2.152986 1_555
Mn0 O16 2.254582 1_556
Mn1 O6 1.953647 1_555
Mn1 O26 1.972409 1_555
Mn1 O23 1.995771 1_555
Mn1 O11 1.999036 1_455
Mn1 O13 2.152986 1_555
Mn1 O17 2.254582 1_555
Mn2 O5 1.953647 1_555
Mn2 O25 1.972409 1_555
Mn2 O20 1.995771 1_555
Mn2 O8 1.999036 1_555
Mn2 O14 2.152986 1_555
Mn2 O18 2.254582 1_554
Mn3 O4 1.953647 1_555
Mn3 O24 1.972409 1_555
Mn3 O21 1.995771 1_555
Mn3 O9 1.999036 1_655
Mn3 O15 2.152986 1_555
Mn3 O19 2.254582 1_555
O0 P4 1.625246 1_555
O0 P3 1.642200 1_555
O0 Rb3 3.274905 1_655
O1 P5 1.625246 1_555
O1 P2 1.642200 1_555
O1 Rb2 3.274905 1_555
O2 P6 1.625246 1_555
O2 P1 1.642200 1_555
O2 Rb1 3.274905 1_455
O3 P7 1.625246 1_555
O3 P0 1.642200 1_555
O3 Rb0 3.274905 1_555
O4 P7 1.555899 1_555
O4 Rb2 2.894877 1_564
O4 Rb1 3.093679 1_565
O5 P6 1.555899 1_555
O5 Rb3 2.894877 1_545
O5 Rb0 3.093679 1_545
O6 P5 1.555899 1_555
O6 Rb0 2.894877 1_546
O6 Rb3 3.093679 1_545
O7 P4 1.555899 1_555
O7 Rb1 2.894877 1_565
O7 Rb2 3.093679 1_565
O8 P0 1.540449 1_555
O8 Rb1 3.106994 1_555
O8 Rb2 3.322395 1_554
O9 P1 1.540449 1_555
O9 Rb0 3.106994 1_555
O9 Rb3 3.322395 1_555
O10 P2 1.540449 1_555
O10 Rb3 3.106994 1_555
O10 Rb0 3.322395 1_556
O11 P3 1.540449 1_555
O11 Rb2 3.106994 1_555
O11 Rb1 3.322395 1_555
O12 P7 1.492440 1_555
O12 Rb1 3.224504 1_565
O13 P6 1.492440 1_556
O13 Rb0 3.224504 1_546
O14 P5 1.492440 1_555
O14 Rb3 3.224504 1_545
O15 P4 1.492440 1_554
O15 Rb2 3.224504 1_564
O16 P0 1.507179 1_555
O16 Rb0 3.111334 1_555
O17 P1 1.507179 1_555
O17 Rb1 3.111334 1_455
O18 P2 1.507179 1_555
O18 Rb2 3.111334 1_555
O19 P3 1.507179 1_555
O19 Rb3 3.111334 1_655
O20 P7 1.546699 1_545
O20 Rb0 3.032277 1_545
O20 Rb2 3.046051 1_554
O21 P6 1.546699 1_665
O21 Rb1 3.032277 1_565
O21 Rb3 3.046051 1_655
O22 P5 1.546699 1_565
O22 Rb2 3.032277 1_565
O22 Rb0 3.046051 1_556
O23 P4 1.546699 1_445
O23 Rb3 3.032277 1_545
O23 Rb1 3.046051 1_455
O24 P0 1.556550 1_555
O24 Rb1 2.937979 1_555
O25 P1 1.556550 1_555
O25 Rb0 2.937979 1_555
O26 P2 1.556550 1_555
O26 Rb3 2.937979 1_555
O27 P3 1.556550 1_555
O27 Rb2 2.937979 1_555
