# generated using pymatgen
data_Tb2HfAl9
_symmetry_space_group_name_H-M   'P 1'
_cell_length_a   4.21761500
_cell_length_b   4.21761500
_cell_length_c   12.61050100
_cell_angle_alpha   90.00000000
_cell_angle_beta   90.00000000
_cell_angle_gamma   90.00000000
_symmetry_Int_Tables_number   1
_chemical_formula_structural   Tb2HfAl9
_chemical_formula_sum   'Tb2 Hf1 Al9'
_cell_volume   224.31907592
_cell_formula_units_Z   1
loop_
 _symmetry_equiv_pos_site_id
 _symmetry_equiv_pos_as_xyz
  1  'x, y, z'
loop_
 _atom_site_type_symbol
 _atom_site_label
 _atom_site_symmetry_multiplicity
 _atom_site_fract_x
 _atom_site_fract_y
 _atom_site_fract_z
 _atom_site_occupancy
  Tb  Tb0  1  0.00000000  0.00000000  0.32857100  1
  Tb  Tb1  1  0.00000000  0.00000000  0.67142900  1
  Hf  Hf0  1  0.00000000  0.00000000  0.00000000  1
  Al  Al0  1  0.50000000  0.50000000  0.00000000  1
  Al  Al1  1  0.50000000  0.50000000  0.33220800  1
  Al  Al2  1  0.50000000  0.50000000  0.66779200  1
  Al  Al3  1  0.50000000  0.00000000  0.15792700  1
  Al  Al4  1  0.50000000  0.00000000  0.50000000  1
  Al  Al5  1  0.50000000  0.00000000  0.84207300  1
  Al  Al6  1  0.00000000  0.50000000  0.15792700  1
  Al  Al7  1  0.00000000  0.50000000  0.50000000  1
  Al  Al8  1  0.00000000  0.50000000  0.84207300  1
loop_
_geom_bond_atom_site_label_1
_geom_bond_atom_site_label_2
_geom_bond_distance
_geom_bond_site_symmetry_2
Al0 Al6 2.900568 1_655
Al0 Al3 2.900568 1_565
Al0 Al6 2.900568 1_555
Al0 Al3 2.900568 1_555
Al0 Al8 2.900568 1_554
Al0 Al5 2.900568 1_564
Al0 Al8 2.900568 1_654
Al0 Al5 2.900568 1_554
Al0 Hf0 2.982304 1_655
Al0 Hf0 2.982304 1_665
Al0 Hf0 2.982304 1_565
Al0 Hf0 2.982304 1_555
Al1 Tb0 2.982657 1_665
Al1 Tb0 2.982657 1_565
Al1 Tb0 2.982657 1_655
Al1 Tb0 2.982657 1_555
Al1 Al7 2.987353 1_655
Al1 Al4 2.987353 1_565
Al1 Al4 2.987353 1_555
Al1 Al7 2.987353 1_555
Al1 Al6 3.045860 1_655
Al1 Al3 3.045860 1_565
Al1 Al6 3.045860 1_555
Al1 Al3 3.045860 1_555
Al2 Tb1 2.982657 1_565
Al2 Tb1 2.982657 1_555
Al2 Tb1 2.982657 1_655
Al2 Tb1 2.982657 1_665
Al2 Al4 2.987353 1_555
Al2 Al7 2.987353 1_555
Al2 Al7 2.987353 1_655
Al2 Al4 2.987353 1_565
Al2 Al5 3.045860 1_565
Al2 Al8 3.045860 1_655
Al2 Al8 3.045860 1_555
Al2 Al5 3.045860 1_555
Al3 Hf0 2.900568 1_655
Al3 Hf0 2.900568 1_555
Al3 Al6 2.982304 1_555
Al3 Al6 2.982304 1_545
Al3 Al6 2.982304 1_645
Al3 Al6 2.982304 1_655
Al3 Tb0 3.012934 1_655
Al3 Tb0 3.012934 1_555
Al4 Al7 2.982304 1_655
Al4 Al7 2.982304 1_555
Al4 Al7 2.982304 1_545
Al4 Al7 2.982304 1_645
Al4 Tb0 3.020012 1_655
Al4 Tb0 3.020012 1_555
Al4 Tb1 3.020012 1_555
Al4 Tb1 3.020012 1_655
Al5 Hf0 2.900568 1_556
Al5 Hf0 2.900568 1_656
Al5 Al8 2.982304 1_545
Al5 Al8 2.982304 1_645
Al5 Al8 2.982304 1_655
Al5 Al8 2.982304 1_555
Al5 Tb1 3.012934 1_555
Al5 Tb1 3.012934 1_655
Al6 Hf0 2.900568 1_555
Al6 Hf0 2.900568 1_565
Al6 Tb0 3.012934 1_565
Al6 Tb0 3.012934 1_555
Al7 Tb0 3.020012 1_565
Al7 Tb0 3.020012 1_555
Al7 Tb1 3.020012 1_555
Al7 Tb1 3.020012 1_565
Al8 Hf0 2.900568 1_556
Al8 Hf0 2.900568 1_566
Al8 Tb1 3.012934 1_565
Al8 Tb1 3.012934 1_555
