# generated using pymatgen
data_Ca8Ti2Mn6O21
_symmetry_space_group_name_H-M   'P 1'
_cell_length_a   11.03161871
_cell_length_b   15.54874247
_cell_length_c   11.03848297
_cell_angle_alpha   90.09695125
_cell_angle_beta   91.65688279
_cell_angle_gamma   90.66095639
_symmetry_Int_Tables_number   1
_chemical_formula_structural   Ca8Ti2Mn6O21
_chemical_formula_sum   'Ca32 Ti8 Mn24 O84'
_cell_volume   1892.48523583
_cell_formula_units_Z   4
loop_
 _symmetry_equiv_pos_site_id
 _symmetry_equiv_pos_as_xyz
  1  'x, y, z'
loop_
 _atom_site_type_symbol
 _atom_site_label
 _atom_site_symmetry_multiplicity
 _atom_site_fract_x
 _atom_site_fract_y
 _atom_site_fract_z
 _atom_site_occupancy
  Ca  Ca0  1  0.97612278  0.11848686  0.52980260  1
  Ca  Ca1  1  0.97948327  0.11727233  0.01881504  1
  Ca  Ca2  1  0.99575616  0.62347423  0.51475608  1
  Ca  Ca3  1  0.01681906  0.62027564  0.99796748  1
  Ca  Ca4  1  0.53899763  0.12043334  0.48004972  1
  Ca  Ca5  1  0.54441409  0.12419660  0.98390084  1
  Ca  Ca6  1  0.53443027  0.62815245  0.51248109  1
  Ca  Ca7  1  0.53259227  0.62189733  0.97392298  1
  Ca  Ca8  1  0.51115466  0.38354152  0.98726770  1
  Ca  Ca9  1  0.49269018  0.37744127  0.52244758  1
  Ca  Ca10  1  0.51954029  0.85713841  0.97329184  1
  Ca  Ca11  1  0.49939993  0.86078230  0.49881910  1
  Ca  Ca12  1  0.96537580  0.39243129  0.00781250  1
  Ca  Ca13  1  0.96150108  0.38956035  0.50129482  1
  Ca  Ca14  1  0.95494051  0.87274252  0.99875610  1
  Ca  Ca15  1  0.96734543  0.86687035  0.51392746  1
  Ca  Ca16  1  0.24446570  0.39339333  0.22606302  1
  Ca  Ca17  1  0.23910163  0.40637025  0.77009230  1
  Ca  Ca18  1  0.23750014  0.88297454  0.28022669  1
  Ca  Ca19  1  0.23291807  0.85591485  0.73715384  1
  Ca  Ca20  1  0.75713149  0.38236902  0.25014562  1
  Ca  Ca21  1  0.73230805  0.38805303  0.75739516  1
  Ca  Ca22  1  0.74113470  0.85921546  0.24979927  1
  Ca  Ca23  1  0.72489793  0.86410971  0.74037866  1
  Ca  Ca24  1  0.22530319  0.12136900  0.22378318  1
  Ca  Ca25  1  0.22333144  0.12132187  0.72877754  1
  Ca  Ca26  1  0.23556467  0.62056656  0.26991127  1
  Ca  Ca27  1  0.26507438  0.62636307  0.73688201  1
  Ca  Ca28  1  0.76803717  0.12074097  0.24963396  1
  Ca  Ca29  1  0.77105397  0.12387105  0.75153667  1
  Ca  Ca30  1  0.78284644  0.62182249  0.26090831  1
  Ca  Ca31  1  0.77267240  0.62411875  0.75724731  1
  Ti  Ti0  1  0.98774408  0.99329537  0.26233849  1
  Ti  Ti1  1  0.99289754  0.99180496  0.76225008  1
  Ti  Ti2  1  0.23761835  0.98380418  0.01074111  1
  Ti  Ti3  1  0.23773645  0.00154836  0.51150260  1
  Ti  Ti4  1  0.26473481  0.23794667  0.94246789  1
  Ti  Ti5  1  0.25530403  0.24265439  0.43805462  1
  Ti  Ti6  1  0.98695897  0.25316934  0.27150523  1
  Ti  Ti7  1  0.99100105  0.25941027  0.77810611  1
  Mn  Mn0  1  0.00658512  0.50126568  0.25153604  1
  Mn  Mn1  1  0.99715708  0.50049272  0.75710554  1
  Mn  Mn2  1  0.50082912  0.98916260  0.21779600  1
  Mn  Mn3  1  0.50043681  0.99816655  0.72025773  1
  Mn  Mn4  1  0.50844680  0.48867332  0.24696603  1
  Mn  Mn5  1  0.49768717  0.50057817  0.75114439  1
  Mn  Mn6  1  0.25813401  0.52091996  0.01037684  1
  Mn  Mn7  1  0.23431870  0.49114747  0.51226306  1
  Mn  Mn8  1  0.74206391  0.99734932  0.98932043  1
  Mn  Mn9  1  0.74385768  0.99591450  0.48919587  1
  Mn  Mn10  1  0.75032181  0.50335546  0.00464149  1
  Mn  Mn11  1  0.74386383  0.49969638  0.50389666  1
  Mn  Mn12  1  0.26358139  0.74951169  0.98413341  1
  Mn  Mn13  1  0.25027882  0.74170319  0.49573185  1
  Mn  Mn14  1  0.74850629  0.25007003  0.00736057  1
  Mn  Mn15  1  0.74512496  0.24965572  0.50455326  1
  Mn  Mn16  1  0.75364703  0.74528667  0.00129433  1
  Mn  Mn17  1  0.75325891  0.74568239  0.50311305  1
  Mn  Mn18  1  0.00179409  0.75162308  0.26419212  1
  Mn  Mn19  1  0.00176956  0.74750210  0.75232907  1
  Mn  Mn20  1  0.50806968  0.25784444  0.25857839  1
  Mn  Mn21  1  0.51001138  0.24685536  0.75446903  1
  Mn  Mn22  1  0.50215287  0.75127867  0.26240381  1
  Mn  Mn23  1  0.50017661  0.74414867  0.74514666  1
  O  O0  1  0.10834692  0.77105708  0.59826491  1
  O  O1  1  0.56941039  0.25495353  0.09360794  1
  O  O2  1  0.56597272  0.24742071  0.58871556  1
  O  O3  1  0.59032864  0.76144608  0.11526573  1
  O  O4  1  0.60828930  0.76130769  0.60209593  1
  O  O5  1  0.38387622  0.18760178  0.36306267  1
  O  O6  1  0.38942886  0.18193974  0.86379952  1
  O  O7  1  0.39575904  0.70602381  0.38428880  1
  O  O8  1  0.40711840  0.72853552  0.89383517  1
  O  O9  1  0.92676604  0.23921519  0.41845742  1
  O  O10  1  0.92716241  0.24248749  0.92350307  1
  O  O11  1  0.89409613  0.73125715  0.40633316  1
  O  O12  1  0.90440600  0.73332037  0.89942492  1
  O  O13  1  0.16791064  0.25578000  0.29231927  1
  O  O14  1  0.17509258  0.25848888  0.79974519  1
  O  O15  1  0.16488938  0.75031298  0.33598392  1
  O  O16  1  0.15022634  0.73582522  0.84621132  1
  O  O17  1  0.65735718  0.22408829  0.35237736  1
  O  O18  1  0.66217989  0.22954592  0.85484269  1
  O  O19  1  0.65242739  0.72612681  0.35608119  1
  O  O20  1  0.64684621  0.73056236  0.85431430  1
  O  O21  1  0.35244953  0.75494247  0.63953176  1
  O  O22  1  0.85197225  0.26081872  0.16104632  1
  O  O23  1  0.86465462  0.26911432  0.66046455  1
  O  O24  1  0.87030737  0.77359565  0.14327192  1
  O  O25  1  0.85646301  0.77330079  0.64831813  1
  O  O26  1  0.36268349  0.51667915  0.16385246  1
  O  O27  1  0.35654925  0.48711792  0.64068413  1
  O  O28  1  0.35595215  0.03311092  0.11815999  1
  O  O29  1  0.36586741  0.04995955  0.60831386  1
  O  O30  1  0.85949334  0.48689152  0.14288898  1
  O  O31  1  0.85366751  0.47799923  0.64133214  1
  O  O32  1  0.85941575  0.97720693  0.15762261  1
  O  O33  1  0.86496885  0.98098359  0.65620728  1
  O  O34  1  0.17549791  0.01597465  0.35419854  1
  O  O35  1  0.18390360  0.00871765  0.85600271  1
  O  O36  1  0.16373366  0.49318970  0.35376066  1
  O  O37  1  0.15456637  0.52668806  0.86718517  1
  O  O38  1  0.62938740  0.02365089  0.33096533  1
  O  O39  1  0.62987190  0.03545300  0.83508977  1
  O  O40  1  0.62577882  0.52657059  0.36404662  1
  O  O41  1  0.64291509  0.51733346  0.85819091  1
  O  O42  1  0.39604165  0.51106038  0.90355169  1
  O  O43  1  0.89921643  0.01421866  0.40021145  1
  O  O44  1  0.90096572  0.00808757  0.90247015  1
  O  O45  1  0.89876873  0.51571377  0.38834225  1
  O  O46  1  0.89149237  0.51831080  0.89879384  1
  O  O47  1  0.11231148  0.48006336  0.10753349  1
  O  O48  1  0.09912744  0.47013348  0.62372459  1
  O  O49  1  0.10708940  0.97193917  0.10715989  1
  O  O50  1  0.11109248  0.98915898  0.61296663  1
  O  O51  1  0.61254887  0.48254182  0.11113394  1
  O  O52  1  0.60367133  0.48353310  0.61537604  1
  O  O53  1  0.59223289  0.98581646  0.07083565  1
  O  O54  1  0.59811385  0.98352956  0.57344041  1
  O  O55  1  0.99457868  0.37213722  0.27628203  1
  O  O56  1  0.01210788  0.37778539  0.80416743  1
  O  O57  1  0.01597469  0.87698234  0.29927846  1
  O  O58  1  0.02068956  0.87587670  0.79184466  1
  O  O59  1  0.45430701  0.37988214  0.30750565  1
  O  O60  1  0.49224079  0.37463405  0.77561334  1
  O  O61  1  0.45261486  0.87349762  0.28108318  1
  O  O62  1  0.49621989  0.87114705  0.76366465  1
  O  O63  1  0.48868752  0.62258960  0.71790625  1
  O  O64  1  0.00351644  0.12407018  0.22852698  1
  O  O65  1  0.00457828  0.12769015  0.74264003  1
  O  O66  1  0.01009669  0.63111532  0.22170433  1
  O  O67  1  0.98864965  0.62577462  0.71961093  1
  O  O68  1  0.18358733  0.15931833  0.02910820  1
  O  O69  1  0.18029874  0.16363588  0.52992523  1
  O  O70  1  0.22439931  0.64924716  0.06626286  1
  O  O71  1  0.21739944  0.61302172  0.51933077  1
  O  O72  1  0.75723053  0.12235221  0.03640473  1
  O  O73  1  0.75521714  0.12325911  0.53768752  1
  O  O74  1  0.74078079  0.62504216  0.04485818  1
  O  O75  1  0.75174491  0.62386590  0.54365967  1
  O  O76  1  0.27374181  0.35002267  0.50281359  1
  O  O77  1  0.29947309  0.33930892  0.01676351  1
  O  O78  1  0.28911449  0.89270757  0.49053623  1
  O  O79  1  0.29638757  0.87502248  0.99429820  1
  O  O80  1  0.74529842  0.37493736  0.46284203  1
  O  O81  1  0.74964756  0.37711491  0.97331316  1
  O  O82  1  0.75200318  0.87112985  0.45969627  1
  O  O83  1  0.74448249  0.87193044  0.95906544  1
loop_
_geom_bond_atom_site_label_1
_geom_bond_atom_site_label_2
_geom_bond_distance
_geom_bond_site_symmetry_2
Ca0 O43 2.298856 1_555
Ca0 O9 2.307288 1_555
Ca0 O69 2.351473 1_655
Ca0 O65 2.365140 1_655
Ca0 O73 2.442991 1_555
Ca0 O50 2.664508 1_645
Ca0 O33 2.840792 1_545
Ca0 O23 3.038949 1_555
Ca1 O44 2.275108 1_554
Ca1 O10 2.286562 1_554
Ca1 O64 2.324493 1_655
Ca1 O68 2.336879 1_655
Ca1 O72 2.467234 1_555
Ca1 O49 2.835586 1_645
Ca2 O67 2.265146 1_555
Ca2 O11 2.339066 1_555
Ca2 O45 2.400783 1_555
Ca2 O71 2.451419 1_655
Ca2 O75 2.719902 1_555
Ca2 O0 2.742097 1_655
Ca3 O46 2.340832 1_455
Ca3 O12 2.406105 1_455
Ca3 O70 2.427000 1_556
Ca3 O66 2.478482 1_556
Ca3 O37 2.584857 1_555
Ca3 O47 2.704377 1_556
Ca3 O16 2.879540 1_555
Ca4 O2 2.320298 1_555
Ca4 O5 2.367425 1_555
Ca4 O73 2.450689 1_555
Ca4 O54 2.453548 1_545
Ca4 O38 2.467429 1_555
Ca4 O17 2.520741 1_555
Ca4 O29 2.639398 1_555
Ca5 O6 2.322768 1_555
Ca5 O39 2.367051 1_555
Ca5 O1 2.373921 1_556
Ca5 O72 2.402370 1_556
Ca5 O53 2.415079 1_546
Ca5 O18 2.542896 1_555
Ca5 O28 2.939719 1_556
Ca6 O63 2.338776 1_555
Ca6 O7 2.394148 1_555
Ca6 O75 2.413741 1_555
Ca6 O4 2.415884 1_555
Ca6 O40 2.513629 1_555
Ca6 O52 2.632115 1_555
Ca6 O19 2.662466 1_555
Ca7 O8 2.331074 1_555
Ca7 O42 2.389665 1_555
Ca7 O74 2.404875 1_556
Ca7 O41 2.425919 1_555
Ca7 O20 2.498244 1_555
Ca7 O3 2.728953 1_556
Ca7 O51 2.782986 1_556
Ca7 O63 2.853463 1_555
Ca8 O51 2.314062 1_556
Ca8 O60 2.343345 1_555
Ca8 O1 2.404659 1_556
Ca8 O77 2.457602 1_556
Ca8 O42 2.528699 1_555
Ca8 O81 2.642939 1_555
Ca8 O41 2.920703 1_555
Ca9 O52 2.268783 1_555
Ca9 O2 2.298749 1_555
Ca9 O59 2.398478 1_555
Ca9 O76 2.451188 1_555
Ca9 O27 2.651804 1_555
Ca9 O60 2.795127 1_555
Ca9 O80 2.882436 1_555
Ca10 O3 2.289896 1_556
Ca10 O62 2.331661 1_555
Ca10 O53 2.389837 1_556
Ca10 O8 2.485912 1_555
Ca10 O79 2.497963 1_555
Ca10 O83 2.498955 1_555
Ca10 O20 2.780691 1_555
Ca11 O4 2.259320 1_555
Ca11 O54 2.324185 1_555
Ca11 O78 2.377109 1_555
Ca11 O61 2.452423 1_555
Ca11 O21 2.800273 1_555
Ca11 O7 2.922058 1_555
Ca11 O62 2.928904 1_555
Ca12 O56 2.332129 1_654
Ca12 O47 2.352979 1_655
Ca12 O81 2.408225 1_554
Ca12 O30 2.424381 1_555
Ca12 O46 2.435455 1_554
Ca12 O10 2.535096 1_554
Ca12 O22 2.947701 1_555
Ca12 O55 2.989309 1_555
Ca13 O48 2.352172 1_655
Ca13 O31 2.415039 1_555
Ca13 O80 2.418474 1_555
Ca13 O45 2.422969 1_555
Ca13 O9 2.529730 1_555
Ca13 O55 2.535393 1_555
Ca13 O23 2.794511 1_555
Ca14 O83 2.350075 1_555
Ca14 O58 2.416697 1_655
Ca14 O24 2.419558 1_556
Ca14 O44 2.431617 1_565
Ca14 O12 2.478159 1_555
Ca14 O49 2.538878 1_656
Ca14 O32 2.638330 1_556
Ca15 O0 2.340947 1_655
Ca15 O25 2.425863 1_555
Ca15 O82 2.434671 1_555
Ca15 O57 2.449364 1_655
Ca15 O11 2.531108 1_555
Ca15 O33 2.651360 1_555
Ca15 O50 2.673653 1_655
Ca15 O43 2.717439 1_565
Ca16 O36 2.298911 1_555
Ca16 O47 2.365231 1_555
Ca16 O13 2.413675 1_555
Ca16 O26 2.417759 1_555
Ca16 O59 2.470337 1_555
Ca16 O77 2.549393 1_555
Ca17 O27 2.317566 1_555
Ca17 O37 2.368429 1_555
Ca17 O14 2.423077 1_555
Ca17 O48 2.423676 1_555
Ca17 O56 2.576614 1_555
Ca17 O42 2.756229 1_555
Ca17 O60 2.840338 1_555
Ca17 O77 2.977521 1_556
Ca18 O15 2.295634 1_555
Ca18 O34 2.338877 1_565
Ca18 O78 2.378412 1_555
Ca18 O61 2.379077 1_555
Ca18 O57 2.459578 1_555
Ca18 O49 2.743849 1_555
Ca19 O21 2.342879 1_555
Ca19 O16 2.408270 1_555
Ca19 O0 2.410257 1_555
Ca19 O58 2.457639 1_555
Ca19 O35 2.778210 1_565
Ca19 O50 2.818676 1_555
Ca19 O78 2.866551 1_555
Ca19 O79 2.917690 1_555
Ca19 O62 2.917779 1_555
Ca20 O30 2.315083 1_555
Ca20 O80 2.358191 1_555
Ca20 O22 2.394308 1_555
Ca20 O51 2.692295 1_555
Ca20 O17 2.925839 1_555
Ca21 O31 2.334894 1_555
Ca21 O81 2.392050 1_555
Ca21 O41 2.520466 1_555
Ca21 O52 2.569675 1_555
Ca21 O23 2.615806 1_555
Ca21 O60 2.667550 1_555
Ca21 O18 2.800511 1_555
Ca22 O24 2.306728 1_555
Ca22 O82 2.323553 1_555
Ca22 O32 2.476199 1_555
Ca22 O19 2.577625 1_555
Ca22 O3 2.659919 1_555
Ca23 O25 2.293584 1_555
Ca23 O83 2.420115 1_555
Ca23 O4 2.523993 1_555
Ca23 O62 2.546718 1_555
Ca23 O33 2.564618 1_555
Ca23 O20 2.581699 1_555
Ca23 O54 2.953329 1_555
Ca24 O34 2.256710 1_555
Ca24 O68 2.265207 1_555
Ca24 O13 2.322467 1_555
Ca24 O28 2.336072 1_555
Ca24 O64 2.449583 1_555
Ca24 O5 2.506378 1_555
Ca24 O49 2.929026 1_545
Ca25 O35 2.291945 1_555
Ca25 O69 2.329853 1_555
Ca25 O14 2.343124 1_555
Ca25 O29 2.372345 1_555
Ca25 O65 2.425609 1_555
Ca25 O6 2.502929 1_555
Ca25 O50 2.689069 1_545
Ca26 O70 2.292609 1_555
Ca26 O15 2.296494 1_555
Ca26 O36 2.328000 1_555
Ca26 O26 2.467221 1_555
Ca26 O7 2.508736 1_555
Ca26 O66 2.535701 1_555
Ca26 O71 2.768855 1_555
Ca27 O71 2.451385 1_555
Ca27 O37 2.454039 1_555
Ca27 O16 2.467720 1_555
Ca27 O21 2.470536 1_555
Ca27 O63 2.483077 1_555
Ca27 O27 2.634026 1_555
Ca27 O8 2.785163 1_555
Ca27 O42 2.933184 1_555
Ca27 O67 3.049767 1_455
Ca28 O38 2.335630 1_555
Ca28 O17 2.340601 1_555
Ca28 O72 2.353490 1_555
Ca28 O22 2.563292 1_555
Ca28 O64 2.614773 1_655
Ca28 O32 2.670581 1_545
Ca28 O43 2.743300 1_555
Ca29 O39 2.281303 1_555
Ca29 O18 2.358204 1_555
Ca29 O73 2.361978 1_555
Ca29 O65 2.580861 1_655
Ca29 O23 2.681581 1_555
Ca29 O33 2.687929 1_545
Ca29 O44 2.828838 1_555
Ca30 O74 2.417101 1_555
Ca30 O19 2.437078 1_555
Ca30 O45 2.507714 1_555
Ca30 O66 2.558805 1_655
Ca30 O40 2.559789 1_555
Ca30 O11 2.609035 1_555
Ca30 O30 2.628520 1_555
Ca30 O24 2.866429 1_555
Ca31 O75 2.362299 1_555
Ca31 O67 2.430186 1_555
Ca31 O20 2.438653 1_555
Ca31 O41 2.468015 1_555
Ca31 O46 2.608841 1_555
Ca31 O12 2.694471 1_555
Ca31 O31 2.774982 1_555
Ca31 O25 2.775783 1_555
Mn0 O45 1.963288 1_455
Mn0 O30 1.999871 1_455
Mn0 O47 2.027327 1_555
Mn0 O55 2.030067 1_455
Mn0 O36 2.046173 1_555
Mn0 O66 2.046332 1_555
Mn1 O48 1.939494 1_655
Mn1 O56 1.985696 1_655
Mn1 O67 1.994848 1_555
Mn1 O46 1.998270 1_555
Mn1 O31 2.032212 1_555
Mn1 O37 2.125499 1_655
Mn2 O38 1.933172 1_565
Mn2 O53 1.935601 1_555
Mn2 O61 2.002250 1_555
Mn2 O28 2.038873 1_565
Mn3 O39 1.963528 1_565
Mn3 O54 1.986139 1_555
Mn3 O62 2.033400 1_555
Mn3 O29 2.074639 1_565
Mn4 O26 1.883934 1_555
Mn4 O40 1.891021 1_555
Mn4 O59 1.915275 1_555
Mn4 O51 1.917734 1_555
Mn5 O63 1.936013 1_555
Mn5 O52 1.946890 1_555
Mn5 O27 1.958711 1_555
Mn5 O41 1.977549 1_555
Mn5 O60 1.977728 1_555
Mn5 O42 2.055863 1_555
Mn6 O37 1.926178 1_554
Mn6 O42 1.958822 1_554
Mn6 O26 2.023316 1_555
Mn6 O47 2.054268 1_555
Mn6 O70 2.127587 1_555
Mn7 O36 1.894861 1_555
Mn7 O71 1.907988 1_555
Mn7 O27 1.929596 1_555
Mn7 O48 1.985195 1_555
Mn7 O76 2.244748 1_555
Mn8 O53 1.911420 1_556
Mn8 O83 1.978553 1_555
Mn8 O72 2.014919 1_566
Mn8 O44 2.027501 1_565
Mn8 O39 2.163264 1_565
Mn8 O32 2.257807 1_556
Mn9 O54 1.888589 1_555
Mn9 O82 1.970339 1_555
Mn9 O43 2.017468 1_565
Mn9 O73 2.051737 1_565
Mn9 O38 2.172303 1_565
Mn9 O33 2.259156 1_555
Mn10 O30 1.935697 1_555
Mn10 O74 1.947448 1_555
Mn10 O51 1.972256 1_555
Mn10 O46 1.985528 1_554
Mn10 O41 1.990198 1_554
Mn10 O81 1.992427 1_554
Mn11 O31 1.946153 1_555
Mn11 O75 1.979593 1_555
Mn11 O80 1.991676 1_555
Mn11 O52 2.017771 1_555
Mn11 O40 2.037919 1_555
Mn11 O45 2.174056 1_555
Mn12 O70 1.857705 1_556
Mn12 O8 1.925950 1_555
Mn12 O16 1.951804 1_555
Mn12 O79 1.983096 1_555
Mn13 O21 1.929367 1_555
Mn13 O15 1.980504 1_555
Mn13 O0 2.014463 1_555
Mn13 O71 2.047741 1_555
Mn13 O7 2.128172 1_555
Mn13 O78 2.382912 1_555
Mn14 O18 1.934322 1_554
Mn14 O81 2.011412 1_554
Mn14 O72 2.015052 1_555
Mn14 O22 2.022709 1_555
Mn14 O10 2.205799 1_554
Mn14 O1 2.219819 1_555
Mn15 O17 1.952433 1_555
Mn15 O80 2.002397 1_555
Mn15 O73 2.003430 1_555
Mn15 O23 2.156383 1_555
Mn15 O2 2.207920 1_555
Mn15 O9 2.249856 1_555
Mn16 O74 1.935937 1_555
Mn16 O20 1.988672 1_554
Mn16 O83 2.027324 1_554
Mn16 O24 2.043068 1_555
Mn16 O12 2.044410 1_554
Mn16 O3 2.243284 1_555
Mn17 O11 1.925788 1_555
Mn17 O75 1.946988 1_555
Mn17 O19 1.962149 1_555
Mn17 O4 1.979788 1_555
Mn17 O25 1.982570 1_555
Mn17 O82 2.009459 1_555
Mn18 O66 1.934616 1_555
Mn18 O15 1.945254 1_555
Mn18 O24 1.975689 1_455
Mn18 O57 1.990145 1_555
Mn18 O11 2.018526 1_455
Mn19 O16 1.923120 1_555
Mn19 O67 1.929268 1_455
Mn19 O12 1.983763 1_455
Mn19 O25 1.989614 1_455
Mn19 O58 2.049457 1_555
Mn19 O0 2.125186 1_555
Mn20 O1 1.961565 1_555
Mn20 O17 1.995728 1_555
Mn20 O59 2.070047 1_555
Mn20 O5 2.112167 1_555
Mn21 O2 1.947850 1_555
Mn21 O18 2.005451 1_555
Mn21 O60 2.012545 1_555
Mn21 O6 2.076231 1_555
Mn22 O3 1.922973 1_555
Mn22 O7 1.938642 1_555
Mn22 O19 1.971704 1_555
Mn22 O61 1.995406 1_555
Mn23 O63 1.915534 1_555
Mn23 O8 1.974764 1_555
Mn23 O21 1.985006 1_555
Mn23 O62 1.985983 1_555
Mn23 O20 2.002671 1_555
Mn23 O4 2.022386 1_555
O5 Ti5 1.877028 1_555
O6 Ti4 1.870510 1_555
O9 Ti6 1.783105 1_555
O10 Ti7 1.789864 1_555
O13 Ti5 1.864133 1_555
O13 Ti6 2.002695 1_455
O14 Ti4 1.865705 1_555
O14 Ti7 2.038174 1_455
O22 Ti6 1.902078 1_555
O23 Ti7 1.884842 1_555
O28 Ti2 1.892663 1_545
O29 Ti3 1.895246 1_555
O32 Ti0 1.816324 1_555
O33 Ti1 1.813418 1_555
O34 Ti3 1.863527 1_555
O34 Ti0 2.302827 1_445
O35 Ti2 1.835135 1_546
O35 Ti1 2.332431 1_445
O43 Ti0 1.862097 1_545
O44 Ti1 1.893072 1_545
O49 Ti2 1.823022 1_555
O49 Ti0 2.217285 1_455
O50 Ti3 1.824388 1_565
O50 Ti1 2.131317 1_455
O55 Ti6 1.851334 1_555
O56 Ti7 1.873278 1_455
O57 Ti0 1.882061 1_455
O58 Ti1 1.859789 1_455
O64 Ti6 2.073174 1_455
O64 Ti0 2.074219 1_445
O65 Ti7 2.092390 1_455
O65 Ti1 2.127075 1_445
O68 Ti4 1.799699 1_554
O69 Ti5 1.803303 1_555
O69 Ti3 2.614785 1_555
O76 Ti5 1.821846 1_555
O77 Ti4 1.807459 1_554
O78 Ti3 1.807540 1_565
O79 Ti2 1.828996 1_556
