# generated using pymatgen
data_Li9Mn7O16
_symmetry_space_group_name_H-M   'P 1'
_cell_length_a   5.34161800
_cell_length_b   5.74368500
_cell_length_c   9.90417321
_cell_angle_alpha   98.33694608
_cell_angle_beta   99.05048001
_cell_angle_gamma   90.00157612
_symmetry_Int_Tables_number   1
_chemical_formula_structural   Li9Mn7O16
_chemical_formula_sum   'Li9 Mn7 O16'
_cell_volume   296.83038431
_cell_formula_units_Z   1
loop_
 _symmetry_equiv_pos_site_id
 _symmetry_equiv_pos_as_xyz
  1  'x, y, z'
loop_
 _atom_site_type_symbol
 _atom_site_label
 _atom_site_symmetry_multiplicity
 _atom_site_fract_x
 _atom_site_fract_y
 _atom_site_fract_z
 _atom_site_occupancy
  Li  Li0  1  0.12657500  0.19168100  0.74990400  1
  Li  Li1  1  0.37797600  0.06098900  0.24420800  1
  Li  Li2  1  0.62202400  0.93901100  0.75579200  1
  Li  Li3  1  0.63306500  0.44017400  0.76096700  1
  Li  Li4  1  0.87343500  0.31673500  0.25006900  1
  Li  Li5  1  0.12656500  0.68326500  0.74993100  1
  Li  Li6  1  0.36693500  0.55982600  0.23903300  1
  Li  Li7  1  0.87342500  0.80831900  0.25009600  1
  Li  Li8  1  0.00000000  0.50000000  0.00000000  1
  Mn  Mn0  1  0.00000000  0.00000000  0.00000000  1
  Mn  Mn1  1  0.50001000  0.74869800  0.00000400  1
  Mn  Mn2  1  0.24934600  0.87422800  0.49730100  1
  Mn  Mn3  1  0.74982400  0.62563400  0.50281100  1
  Mn  Mn4  1  0.25017600  0.37436600  0.49718900  1
  Mn  Mn5  1  0.49999000  0.25130200  0.99999600  1
  Mn  Mn6  1  0.75065400  0.12577200  0.50269900  1
  O  O0  1  0.78656100  0.21512100  0.89694500  1
  O  O1  1  0.08613100  0.09497200  0.37944100  1
  O  O2  1  0.33163600  0.97086800  0.88349900  1
  O  O3  1  0.34032200  0.47104700  0.88417200  1
  O  O4  1  0.58977900  0.34607600  0.38412000  1
  O  O5  1  0.78652100  0.73336600  0.89693000  1
  O  O6  1  0.08646400  0.59441300  0.37834300  1
  O  O7  1  0.58946700  0.84595400  0.38395900  1
  O  O8  1  0.41053300  0.15404600  0.61604100  1
  O  O9  1  0.66836400  0.02913200  0.11650100  1
  O  O10  1  0.91386900  0.90502800  0.62055900  1
  O  O11  1  0.91353600  0.40558700  0.62165700  1
  O  O12  1  0.21347900  0.26663400  0.10307000  1
  O  O13  1  0.41022100  0.65392400  0.61588000  1
  O  O14  1  0.65967800  0.52895300  0.11582800  1
  O  O15  1  0.21343900  0.78487900  0.10305500  1
loop_
_geom_bond_atom_site_label_1
_geom_bond_atom_site_label_2
_geom_bond_distance
_geom_bond_site_symmetry_2
Li0 O11 2.101355 1_455
Li0 O3 2.133111 1_555
Li0 O10 2.138493 1_445
Li0 O2 2.142383 1_545
Li0 O8 2.157481 1_555
Li0 O0 2.492582 1_455
Li1 O15 2.052401 1_545
Li1 O12 2.052717 1_555
Li1 O9 2.142304 1_555
Li1 O7 2.172867 1_545
Li1 O4 2.174883 1_555
Li1 O1 2.200764 1_555
Li2 O0 2.052401 1_565
Li2 O5 2.052717 1_555
Li2 O2 2.142304 1_555
Li2 O8 2.172867 1_565
Li2 O13 2.174883 1_555
Li2 O10 2.200764 1_555
Li3 O0 2.077110 1_555
Li3 O5 2.077538 1_555
Li3 O3 2.122085 1_555
Li3 O11 2.181409 1_555
Li3 O8 2.225569 1_555
Li3 O13 2.227693 1_555
Li4 O6 2.100020 1_655
Li4 O14 2.132978 1_555
Li4 O1 2.137843 1_655
Li4 O9 2.142198 1_555
Li4 O4 2.157518 1_555
Li4 O12 2.492435 1_655
Li5 O11 2.100020 1_455
Li5 O3 2.132978 1_555
Li5 O10 2.137843 1_455
Li5 O2 2.142198 1_555
Li5 O13 2.157518 1_555
Li5 O5 2.492435 1_455
Li6 O15 2.077110 1_555
Li6 O12 2.077538 1_555
Li6 O14 2.122085 1_555
Li6 O6 2.181409 1_555
Li6 O7 2.225569 1_555
Li6 O4 2.227693 1_555
Li7 O6 2.101355 1_655
Li7 O14 2.133111 1_555
Li7 O1 2.138493 1_665
Li7 O9 2.142383 1_565
Li7 O7 2.157481 1_555
Li7 O15 2.492582 1_655
Li8 O15 2.041677 1_555
Li8 O0 2.041677 1_454
Li8 O5 2.041980 1_454
Li8 O12 2.041980 1_555
Li8 O14 2.291095 1_455
Li8 O3 2.291095 1_554
Mn0 O15 1.966720 1_545
Mn0 O0 1.966720 1_454
Mn0 O12 1.966752 1_555
Mn0 O5 1.966752 1_444
Mn0 O2 2.254898 1_544
Mn0 O9 2.254898 1_455
Mn1 O3 1.936085 1_554
Mn1 O14 1.936097 1_555
Mn1 O5 1.964080 1_554
Mn1 O15 1.964211 1_555
Mn1 O9 1.966968 1_565
Mn1 O2 1.967047 1_554
Mn2 O13 1.957639 1_555
Mn2 O1 1.959412 1_565
Mn2 O8 1.959759 1_565
Mn2 O6 1.963776 1_555
Mn2 O7 2.275092 1_555
Mn2 O10 2.314829 1_455
Mn3 O4 1.956367 1_555
Mn3 O7 1.958446 1_555
Mn3 O10 1.959287 1_555
Mn3 O11 1.963479 1_555
Mn3 O13 2.271022 1_555
Mn3 O6 2.327807 1_655
Mn4 O13 1.956367 1_555
Mn4 O8 1.958446 1_555
Mn4 O1 1.959287 1_555
Mn4 O6 1.963479 1_555
Mn4 O4 2.271022 1_555
Mn4 O11 2.327807 1_455
Mn5 O14 1.936085 1_556
Mn5 O3 1.936097 1_555
Mn5 O12 1.964080 1_556
Mn5 O0 1.964211 1_555
Mn5 O2 1.966968 1_545
Mn5 O9 1.967047 1_556
Mn6 O4 1.957639 1_555
Mn6 O10 1.959412 1_545
Mn6 O7 1.959759 1_545
Mn6 O11 1.963776 1_555
Mn6 O8 2.275092 1_555
Mn6 O1 2.314829 1_655
