# generated using pymatgen
data_Ca(CuO2)2
_symmetry_space_group_name_H-M   'P 1'
_cell_length_a   6.21667074
_cell_length_b   6.21667074
_cell_length_c   15.25646200
_cell_angle_alpha   90.00000000
_cell_angle_beta   90.00000000
_cell_angle_gamma   120.00000786
_symmetry_Int_Tables_number   1
_chemical_formula_structural   Ca(CuO2)2
_chemical_formula_sum   'Ca6 Cu12 O24'
_cell_volume   510.62275062
_cell_formula_units_Z   6
loop_
 _symmetry_equiv_pos_site_id
 _symmetry_equiv_pos_as_xyz
  1  'x, y, z'
loop_
 _atom_site_type_symbol
 _atom_site_label
 _atom_site_symmetry_multiplicity
 _atom_site_fract_x
 _atom_site_fract_y
 _atom_site_fract_z
 _atom_site_occupancy
  Ca  Ca0  1  0.33333300  0.66666700  0.05071700  1
  Ca  Ca1  1  0.66666700  0.33333300  0.38880600  1
  Ca  Ca2  1  0.00000000  0.00000000  0.33610000  1
  Ca  Ca3  1  0.00000000  0.00000000  0.74730300  1
  Ca  Ca4  1  0.66666700  0.33333300  0.99152200  1
  Ca  Ca5  1  0.66666700  0.33333300  0.62237200  1
  Cu  Cu0  1  0.83087500  0.16912500  0.16600500  1
  Cu  Cu1  1  0.33825100  0.16912500  0.16600500  1
  Cu  Cu2  1  0.16396800  0.83603200  0.50846400  1
  Cu  Cu3  1  0.83087500  0.66174900  0.16600500  1
  Cu  Cu4  1  0.67206400  0.83603200  0.50846400  1
  Cu  Cu5  1  0.33333300  0.66666700  0.66316500  1
  Cu  Cu6  1  0.33333300  0.66666700  0.27513400  1
  Cu  Cu7  1  0.49574200  0.50425800  0.82960600  1
  Cu  Cu8  1  0.16396800  0.32793600  0.50846400  1
  Cu  Cu9  1  0.00851700  0.50425800  0.82960600  1
  Cu  Cu10  1  0.49574200  0.99148300  0.82960600  1
  Cu  Cu11  1  0.00000000  0.00000000  0.95326300  1
  O  O0  1  0.52340300  0.47659700  0.10324300  1
  O  O1  1  0.66666700  0.33333300  0.24586800  1
  O  O2  1  0.95319500  0.47659700  0.10324300  1
  O  O3  1  0.52340300  0.04680500  0.10324300  1
  O  O4  1  0.85362700  0.14637300  0.44881200  1
  O  O5  1  0.15398200  0.30796500  0.22731800  1
  O  O6  1  0.00000000  0.00000000  0.59407200  1
  O  O7  1  0.69203500  0.84601800  0.22731800  1
  O  O8  1  0.00000000  0.00000000  0.07668000  1
  O  O9  1  0.29274600  0.14637300  0.44881200  1
  O  O10  1  0.85362700  0.70725400  0.44881200  1
  O  O11  1  0.15398200  0.84601800  0.22731800  1
  O  O12  1  0.19993000  0.80007000  0.74876500  1
  O  O13  1  0.46987200  0.93974400  0.57089600  1
  O  O14  1  0.06025600  0.53012800  0.57089600  1
  O  O15  1  0.33333300  0.66666700  0.89805800  1
  O  O16  1  0.33333300  0.66666700  0.39678600  1
  O  O17  1  0.60014100  0.80007000  0.74876500  1
  O  O18  1  0.19993000  0.39985900  0.74876500  1
  O  O19  1  0.46987200  0.53012800  0.57089600  1
  O  O20  1  0.83581300  0.67162600  0.89410300  1
  O  O21  1  0.32837400  0.16418700  0.89410300  1
  O  O22  1  0.66666700  0.33333300  0.77023400  1
  O  O23  1  0.83581300  0.16418700  0.89410300  1
loop_
_geom_bond_atom_site_label_1
_geom_bond_atom_site_label_2
_geom_bond_distance
_geom_bond_site_symmetry_2
Ca0 O3 2.197883 1_565
Ca0 O2 2.197883 1_455
Ca0 O0 2.197893 1_555
Ca0 O15 2.329036 1_554
Ca1 O1 2.180728 1_555
Ca1 O4 2.211495 1_555
Ca1 O10 2.211499 1_555
Ca1 O9 2.211499 1_555
Ca2 O9 2.332599 1_555
Ca2 O10 2.332599 1_445
Ca2 O4 2.332599 1_455
Ca2 O11 2.345928 1_545
Ca2 O5 2.345932 1_555
Ca2 O7 2.345932 1_445
Ca3 O18 2.152874 1_555
Ca3 O17 2.152874 1_445
Ca3 O12 2.152880 1_545
Ca3 O6 2.337763 1_555
Ca4 O2 2.298880 1_556
Ca4 O3 2.298880 1_556
Ca4 O0 2.298880 1_556
Ca4 O23 2.350768 1_555
Ca4 O20 2.350772 1_555
Ca4 O21 2.350772 1_555
Ca5 O22 2.255851 1_555
Ca5 O14 2.259852 1_655
Ca5 O13 2.259852 1_545
Ca5 O19 2.259857 1_555
Cu0 O3 1.922300 1_555
Cu0 O2 1.922300 1_555
Cu0 O5 1.980140 1_655
Cu0 O7 1.980140 1_545
Cu0 O1 2.147284 1_555
Cu0 O8 2.274526 1_655
Cu1 O0 1.922300 1_555
Cu1 O3 1.922300 1_555
Cu1 O11 1.980140 1_545
Cu1 O5 1.980150 1_555
Cu1 O1 2.147284 1_555
Cu1 O8 2.274530 1_555
Cu2 O9 1.909653 1_565
Cu2 O10 1.909653 1_455
Cu2 O13 1.926993 1_555
Cu2 O14 1.926993 1_555
Cu2 O6 2.196125 1_565
Cu2 O16 2.495733 1_555
Cu3 O0 1.922300 1_555
Cu3 O2 1.922300 1_555
Cu3 O11 1.980140 1_655
Cu3 O7 1.980150 1_555
Cu3 O1 2.147284 1_555
Cu3 O8 2.274530 1_665
Cu4 O4 1.909653 1_565
Cu4 O10 1.909654 1_555
Cu4 O19 1.926993 1_555
Cu4 O13 1.926993 1_555
Cu4 O6 2.196125 1_665
Cu4 O16 2.495737 1_555
Cu5 O12 1.941350 1_555
Cu5 O17 1.941358 1_555
Cu5 O18 1.941358 1_555
Cu5 O13 2.035454 1_555
Cu5 O14 2.035454 1_555
Cu5 O19 2.035458 1_555
Cu6 O16 1.855979 1_555
Cu6 O7 2.064370 1_555
Cu6 O5 2.064370 1_555
Cu6 O11 2.064370 1_555
Cu7 O18 2.032399 1_555
Cu7 O17 2.032399 1_555
Cu7 O15 2.036854 1_555
Cu7 O22 2.051278 1_555
Cu7 O20 2.078609 1_555
Cu7 O21 2.078609 1_555
Cu8 O4 1.909653 1_455
Cu8 O9 1.909654 1_555
Cu8 O19 1.926993 1_555
Cu8 O14 1.926993 1_555
Cu8 O6 2.196125 1_555
Cu8 O16 2.495737 1_555
Cu9 O12 2.032399 1_555
Cu9 O18 2.032399 1_555
Cu9 O15 2.036845 1_555
Cu9 O22 2.051278 1_455
Cu9 O23 2.078609 1_455
Cu9 O20 2.078614 1_455
Cu10 O12 2.032399 1_555
Cu10 O17 2.032399 1_555
Cu10 O15 2.036845 1_555
Cu10 O22 2.051278 1_565
Cu10 O23 2.078609 1_565
Cu10 O21 2.078614 1_565
Cu11 O8 1.882907 1_556
Cu11 O21 1.984969 1_555
Cu11 O20 1.984969 1_445
Cu11 O23 1.984969 1_455
