# generated using pymatgen
data_BiPPb2
_symmetry_space_group_name_H-M   'P 1'
_cell_length_a   5.12358200
_cell_length_b   8.07250900
_cell_length_c   12.22231800
_cell_angle_alpha   90.00000000
_cell_angle_beta   90.00000000
_cell_angle_gamma   90.00000000
_symmetry_Int_Tables_number   1
_chemical_formula_structural   BiPPb2
_chemical_formula_sum   'Bi4 P4 Pb8'
_cell_volume   505.51705014
_cell_formula_units_Z   4
loop_
 _symmetry_equiv_pos_site_id
 _symmetry_equiv_pos_as_xyz
  1  'x, y, z'
loop_
 _atom_site_type_symbol
 _atom_site_label
 _atom_site_symmetry_multiplicity
 _atom_site_fract_x
 _atom_site_fract_y
 _atom_site_fract_z
 _atom_site_occupancy
  Bi  Bi0  1  0.69454100  0.25000000  0.35128200  1
  Bi  Bi1  1  0.19454100  0.25000000  0.14871800  1
  Bi  Bi2  1  0.30545900  0.75000000  0.64871800  1
  Bi  Bi3  1  0.80545900  0.75000000  0.85128200  1
  P  P0  1  0.15536600  0.75000000  0.03773000  1
  P  P1  1  0.65536600  0.75000000  0.46227000  1
  P  P2  1  0.84463400  0.25000000  0.96227000  1
  P  P3  1  0.34463400  0.25000000  0.53773000  1
  Pb  Pb0  1  0.73457100  0.51961500  0.10852700  1
  Pb  Pb1  1  0.23457100  0.98038500  0.39147300  1
  Pb  Pb2  1  0.26542900  0.01961500  0.89147300  1
  Pb  Pb3  1  0.76542900  0.48038500  0.60852700  1
  Pb  Pb4  1  0.26542900  0.48038500  0.89147300  1
  Pb  Pb5  1  0.76542900  0.01961500  0.60852700  1
  Pb  Pb6  1  0.73457100  0.98038500  0.10852700  1
  Pb  Pb7  1  0.23457100  0.51961500  0.39147300  1
loop_
_geom_bond_atom_site_label_1
_geom_bond_atom_site_label_2
_geom_bond_distance
_geom_bond_site_symmetry_2
Bi0 P3 2.899500 1_555
Bi0 Pb1 3.245355 1_545
Bi0 Pb7 3.245355 1_555
Bi0 Pb1 3.554433 1_645
Bi0 Pb7 3.554433 1_655
Bi1 P2 2.899500 1_454
Bi1 Pb6 3.245355 1_445
Bi1 Pb0 3.245355 1_455
Bi1 Pb6 3.554433 1_545
Bi1 Pb0 3.554433 1_555
Bi2 P1 2.899500 1_555
Bi2 Pb5 3.245355 1_565
Bi2 Pb3 3.245355 1_555
Bi2 Pb3 3.554433 1_455
Bi2 Pb5 3.554433 1_465
Bi3 P0 2.899500 1_656
Bi3 Pb2 3.245355 1_665
Bi3 Pb4 3.245355 1_655
Bi3 Pb4 3.554433 1_555
Bi3 Pb2 3.554433 1_565
P0 Pb2 2.872374 1_564
P0 Pb4 2.872374 1_554
P0 Pb0 2.975868 1_455
P0 Pb6 2.975868 1_455
P1 Pb5 2.872374 1_565
P1 Pb3 2.872374 1_555
P1 Pb7 2.975868 1_555
P1 Pb1 2.975868 1_555
P2 Pb0 2.872374 1_556
P2 Pb6 2.872374 1_546
P2 Pb4 2.975868 1_655
P2 Pb2 2.975868 1_655
P3 Pb7 2.872374 1_555
P3 Pb1 2.872374 1_545
P3 Pb5 2.975868 1_555
P3 Pb3 2.975868 1_555
