# generated using pymatgen
data_Ba3Al2O6
_symmetry_space_group_name_H-M   'P 1'
_cell_length_a   16.72049751
_cell_length_b   16.72049751
_cell_length_c   16.72049751
_cell_angle_alpha   90.00000000
_cell_angle_beta   90.00000000
_cell_angle_gamma   90.00000000
_symmetry_Int_Tables_number   1
_chemical_formula_structural   Ba3Al2O6
_chemical_formula_sum   'Ba72 Al48 O144'
_cell_volume   4674.63370971
_cell_formula_units_Z   24
loop_
 _symmetry_equiv_pos_site_id
 _symmetry_equiv_pos_as_xyz
  1  'x, y, z'
loop_
 _atom_site_type_symbol
 _atom_site_label
 _atom_site_symmetry_multiplicity
 _atom_site_fract_x
 _atom_site_fract_y
 _atom_site_fract_z
 _atom_site_occupancy
  Ba  Ba0  1  0.49563599  0.99563599  0.50436401  1
  Ba  Ba1  1  0.99563599  0.50436401  0.49563599  1
  Ba  Ba2  1  0.50436401  0.49563599  0.99563599  1
  Ba  Ba3  1  0.00436401  0.00436401  0.00436401  1
  Ba  Ba4  1  0.24781268  0.74781268  0.75218732  1
  Ba  Ba5  1  0.74781268  0.75218732  0.24781268  1
  Ba  Ba6  1  0.75218732  0.24781268  0.74781268  1
  Ba  Ba7  1  0.25218732  0.25218732  0.25218732  1
  Ba  Ba8  1  0.62562973  0.12562973  0.37437027  1
  Ba  Ba9  1  0.12562973  0.37437027  0.62562973  1
  Ba  Ba10  1  0.37437027  0.62562973  0.12562973  1
  Ba  Ba11  1  0.87437027  0.87437027  0.87437027  1
  Ba  Ba12  1  0.37167969  0.87167969  0.62832031  1
  Ba  Ba13  1  0.87167969  0.62832031  0.37167969  1
  Ba  Ba14  1  0.62832031  0.37167969  0.87167969  1
  Ba  Ba15  1  0.12832031  0.12832031  0.12832031  1
  Ba  Ba16  1  0.87683287  0.37683287  0.12316713  1
  Ba  Ba17  1  0.37683287  0.12316713  0.87683287  1
  Ba  Ba18  1  0.12316713  0.87683287  0.37683287  1
  Ba  Ba19  1  0.62316713  0.62316713  0.62316713  1
  Ba  Ba20  1  0.10765929  0.60765929  0.89234071  1
  Ba  Ba21  1  0.60765929  0.89234071  0.10765929  1
  Ba  Ba22  1  0.89234071  0.10765929  0.60765929  1
  Ba  Ba23  1  0.39234071  0.39234071  0.39234071  1
  Ba  Ba24  1  0.85194660  0.13394603  0.36535068  1
  Ba  Ba25  1  0.63464932  0.35194660  0.36605397  1
  Ba  Ba26  1  0.63394603  0.13464932  0.14805340  1
  Ba  Ba27  1  0.35194660  0.36605397  0.63464932  1
  Ba  Ba28  1  0.13464932  0.14805340  0.63394603  1
  Ba  Ba29  1  0.13394603  0.36535068  0.85194660  1
  Ba  Ba30  1  0.14805340  0.63394603  0.13464932  1
  Ba  Ba31  1  0.36535068  0.85194660  0.13394603  1
  Ba  Ba32  1  0.36605397  0.63464932  0.35194660  1
  Ba  Ba33  1  0.64805340  0.86605397  0.86535068  1
  Ba  Ba34  1  0.86535068  0.64805340  0.86605397  1
  Ba  Ba35  1  0.86605397  0.86535068  0.64805340  1
  Ba  Ba36  1  0.10484188  0.88703957  0.60445633  1
  Ba  Ba37  1  0.39554367  0.60484188  0.61296043  1
  Ba  Ba38  1  0.38703957  0.89554367  0.89515812  1
  Ba  Ba39  1  0.60484188  0.61296043  0.39554367  1
  Ba  Ba40  1  0.89554367  0.89515812  0.38703957  1
  Ba  Ba41  1  0.88703957  0.60445633  0.10484188  1
  Ba  Ba42  1  0.89515812  0.38703957  0.89554367  1
  Ba  Ba43  1  0.60445633  0.10484188  0.88703957  1
  Ba  Ba44  1  0.61296043  0.39554367  0.60484188  1
  Ba  Ba45  1  0.39515812  0.11296043  0.10445633  1
  Ba  Ba46  1  0.10445633  0.39515812  0.11296043  1
  Ba  Ba47  1  0.11296043  0.10445633  0.39515812  1
  Ba  Ba48  1  0.65176623  0.36592607  0.13446476  1
  Ba  Ba49  1  0.86553524  0.15176623  0.13407393  1
  Ba  Ba50  1  0.86592607  0.36553524  0.34823377  1
  Ba  Ba51  1  0.15176623  0.13407393  0.86553524  1
  Ba  Ba52  1  0.36553524  0.34823377  0.86592607  1
  Ba  Ba53  1  0.36592607  0.13446476  0.65176623  1
  Ba  Ba54  1  0.34823377  0.86592607  0.36553524  1
  Ba  Ba55  1  0.13446476  0.65176623  0.36592607  1
  Ba  Ba56  1  0.13407393  0.86553524  0.15176623  1
  Ba  Ba57  1  0.84823377  0.63407393  0.63446476  1
  Ba  Ba58  1  0.63446476  0.84823377  0.63407393  1
  Ba  Ba59  1  0.63407393  0.63446476  0.84823377  1
  Ba  Ba60  1  0.38232824  0.62945477  0.88035557  1
  Ba  Ba61  1  0.11964443  0.88232824  0.87054523  1
  Ba  Ba62  1  0.12945477  0.61964443  0.61767176  1
  Ba  Ba63  1  0.88232824  0.87054523  0.11964443  1
  Ba  Ba64  1  0.61964443  0.61767176  0.12945477  1
  Ba  Ba65  1  0.62945477  0.88035557  0.38232824  1
  Ba  Ba66  1  0.61767176  0.12945477  0.61964443  1
  Ba  Ba67  1  0.88035557  0.38232824  0.62945477  1
  Ba  Ba68  1  0.87054523  0.11964443  0.88232824  1
  Ba  Ba69  1  0.11767176  0.37054523  0.38035557  1
  Ba  Ba70  1  0.38035557  0.11767176  0.37054523  1
  Ba  Ba71  1  0.37054523  0.38035557  0.11767176  1
  Al  Al0  1  0.76937964  0.99799356  0.22857645  1
  Al  Al1  1  0.77142355  0.26937964  0.50200644  1
  Al  Al2  1  0.49799356  0.27142355  0.23062036  1
  Al  Al3  1  0.26937964  0.50200644  0.77142355  1
  Al  Al4  1  0.27142355  0.23062036  0.49799356  1
  Al  Al5  1  0.99799356  0.22857645  0.76937964  1
  Al  Al6  1  0.23062036  0.49799356  0.27142355  1
  Al  Al7  1  0.22857645  0.76937964  0.99799356  1
  Al  Al8  1  0.50200644  0.77142355  0.26937964  1
  Al  Al9  1  0.73062036  0.00200644  0.72857645  1
  Al  Al10  1  0.72857645  0.73062036  0.00200644  1
  Al  Al11  1  0.00200644  0.72857645  0.73062036  1
  Al  Al12  1  0.73256182  0.50405341  0.26949425  1
  Al  Al13  1  0.73050575  0.23256182  0.99594659  1
  Al  Al14  1  0.00405341  0.23050575  0.26743818  1
  Al  Al15  1  0.23256182  0.99594659  0.73050575  1
  Al  Al16  1  0.23050575  0.26743818  0.00405341  1
  Al  Al17  1  0.50405341  0.26949425  0.73256182  1
  Al  Al18  1  0.26743818  0.00405341  0.23050575  1
  Al  Al19  1  0.26949425  0.73256182  0.50405341  1
  Al  Al20  1  0.99594659  0.73050575  0.23256182  1
  Al  Al21  1  0.76743818  0.49594659  0.76949425  1
  Al  Al22  1  0.76949425  0.76743818  0.49594659  1
  Al  Al23  1  0.49594659  0.76949425  0.76743818  1
  Al  Al24  1  0.51956089  0.25602853  0.01610178  1
  Al  Al25  1  0.98389822  0.01956089  0.24397147  1
  Al  Al26  1  0.75602853  0.48389822  0.48043911  1
  Al  Al27  1  0.01956089  0.24397147  0.98389822  1
  Al  Al28  1  0.48389822  0.48043911  0.75602853  1
  Al  Al29  1  0.25602853  0.01610178  0.51956089  1
  Al  Al30  1  0.48043911  0.75602853  0.48389822  1
  Al  Al31  1  0.01610178  0.51956089  0.25602853  1
  Al  Al32  1  0.24397147  0.98389822  0.01956089  1
  Al  Al33  1  0.98043911  0.74397147  0.51610178  1
  Al  Al34  1  0.51610178  0.98043911  0.74397147  1
  Al  Al35  1  0.74397147  0.51610178  0.98043911  1
  Al  Al36  1  0.98242121  0.25055473  0.48206428  1
  Al  Al37  1  0.51793572  0.48242121  0.24944527  1
  Al  Al38  1  0.75055473  0.01793572  0.01757879  1
  Al  Al39  1  0.48242121  0.24944527  0.51793572  1
  Al  Al40  1  0.01793572  0.01757879  0.75055473  1
  Al  Al41  1  0.25055473  0.48206428  0.98242121  1
  Al  Al42  1  0.01757879  0.75055473  0.01793572  1
  Al  Al43  1  0.48206428  0.98242121  0.25055473  1
  Al  Al44  1  0.24944527  0.51793572  0.48242121  1
  Al  Al45  1  0.51757879  0.74944527  0.98206428  1
  Al  Al46  1  0.98206428  0.51757879  0.74944527  1
  Al  Al47  1  0.74944527  0.98206428  0.51757879  1
  O  O0  1  0.76299757  0.37731116  0.49718499  1
  O  O1  1  0.50281501  0.26299757  0.12268884  1
  O  O2  1  0.87731116  0.00281501  0.23700243  1
  O  O3  1  0.26299757  0.12268884  0.50281501  1
  O  O4  1  0.00281501  0.23700243  0.87731116  1
  O  O5  1  0.37731116  0.49718499  0.76299757  1
  O  O6  1  0.23700243  0.87731116  0.00281501  1
  O  O7  1  0.49718499  0.76299757  0.37731116  1
  O  O8  1  0.12268884  0.50281501  0.26299757  1
  O  O9  1  0.73700243  0.62268884  0.99718499  1
  O  O10  1  0.99718499  0.73700243  0.62268884  1
  O  O11  1  0.62268884  0.99718499  0.73700243  1
  O  O12  1  0.74078569  0.12467669  0.99981344  1
  O  O13  1  0.00018656  0.24078569  0.37532331  1
  O  O14  1  0.62467669  0.50018656  0.25921431  1
  O  O15  1  0.24078569  0.37532331  0.00018656  1
  O  O16  1  0.50018656  0.25921431  0.62467669  1
  O  O17  1  0.12467669  0.99981344  0.74078569  1
  O  O18  1  0.25921431  0.62467669  0.50018656  1
  O  O19  1  0.99981344  0.74078569  0.12467669  1
  O  O20  1  0.37532331  0.00018656  0.24078569  1
  O  O21  1  0.75921431  0.87532331  0.49981344  1
  O  O22  1  0.49981344  0.75921431  0.87532331  1
  O  O23  1  0.87532331  0.49981344  0.75921431  1
  O  O24  1  0.98564489  0.33782155  0.01541603  1
  O  O25  1  0.98458397  0.48564489  0.16217845  1
  O  O26  1  0.83782155  0.48458397  0.01435511  1
  O  O27  1  0.48564489  0.16217845  0.98458397  1
  O  O28  1  0.48458397  0.01435511  0.83782155  1
  O  O29  1  0.33782155  0.01541603  0.98564489  1
  O  O30  1  0.01435511  0.83782155  0.48458397  1
  O  O31  1  0.01541603  0.98564489  0.33782155  1
  O  O32  1  0.16217845  0.98458397  0.48564489  1
  O  O33  1  0.51435511  0.66217845  0.51541603  1
  O  O34  1  0.51541603  0.51435511  0.66217845  1
  O  O35  1  0.66217845  0.51541603  0.51435511  1
  O  O36  1  0.97386824  0.66686226  0.97159423  1
  O  O37  1  0.02840577  0.47386824  0.83313774  1
  O  O38  1  0.16686226  0.52840577  0.02613176  1
  O  O39  1  0.47386824  0.83313774  0.02840577  1
  O  O40  1  0.52840577  0.02613176  0.16686226  1
  O  O41  1  0.66686226  0.97159423  0.97386824  1
  O  O42  1  0.02613176  0.16686226  0.52840577  1
  O  O43  1  0.97159423  0.97386824  0.66686226  1
  O  O44  1  0.83313774  0.02840577  0.47386824  1
  O  O45  1  0.52613176  0.33313774  0.47159423  1
  O  O46  1  0.47159423  0.52613176  0.33313774  1
  O  O47  1  0.33313774  0.47159423  0.52613176  1
  O  O48  1  0.76508642  0.41031937  0.23452839  1
  O  O49  1  0.76547161  0.26508642  0.08968063  1
  O  O50  1  0.91031937  0.26547161  0.23491358  1
  O  O51  1  0.26508642  0.08968063  0.76547161  1
  O  O52  1  0.26547161  0.23491358  0.91031937  1
  O  O53  1  0.41031937  0.23452839  0.76508642  1
  O  O54  1  0.23491358  0.91031937  0.26547161  1
  O  O55  1  0.23452839  0.76508642  0.41031937  1
  O  O56  1  0.08968063  0.76547161  0.26508642  1
  O  O57  1  0.73491358  0.58968063  0.73452839  1
  O  O58  1  0.73452839  0.73491358  0.58968063  1
  O  O59  1  0.58968063  0.73452839  0.73491358  1
  O  O60  1  0.23489045  0.59196780  0.73002190  1
  O  O61  1  0.26997810  0.73489045  0.90803220  1
  O  O62  1  0.09196780  0.76997810  0.76510955  1
  O  O63  1  0.73489045  0.90803220  0.26997810  1
  O  O64  1  0.76997810  0.76510955  0.09196780  1
  O  O65  1  0.59196780  0.73002190  0.23489045  1
  O  O66  1  0.76510955  0.09196780  0.76997810  1
  O  O67  1  0.73002190  0.23489045  0.59196780  1
  O  O68  1  0.90803220  0.26997810  0.73489045  1
  O  O69  1  0.26510955  0.40803220  0.23002190  1
  O  O70  1  0.23002190  0.26510955  0.40803220  1
  O  O71  1  0.40803220  0.23002190  0.26510955  1
  O  O72  1  0.49786225  0.87432288  0.74327625  1
  O  O73  1  0.25672375  0.99786225  0.62567712  1
  O  O74  1  0.37432288  0.75672375  0.50213775  1
  O  O75  1  0.99786225  0.62567712  0.25672375  1
  O  O76  1  0.75672375  0.50213775  0.37432288  1
  O  O77  1  0.87432288  0.74327625  0.49786225  1
  O  O78  1  0.50213775  0.37432288  0.75672375  1
  O  O79  1  0.74327625  0.49786225  0.87432288  1
  O  O80  1  0.62567712  0.25672375  0.99786225  1
  O  O81  1  0.00213775  0.12567712  0.24327625  1
  O  O82  1  0.24327625  0.00213775  0.12567712  1
  O  O83  1  0.12567712  0.24327625  0.00213775  1
  O  O84  1  0.99978262  0.62342375  0.75431660  1
  O  O85  1  0.24568340  0.49978262  0.87657625  1
  O  O86  1  0.12342375  0.74568340  0.00021738  1
  O  O87  1  0.49978262  0.87657625  0.24568340  1
  O  O88  1  0.74568340  0.00021738  0.12342375  1
  O  O89  1  0.62342375  0.75431660  0.99978262  1
  O  O90  1  0.00021738  0.12342375  0.74568340  1
  O  O91  1  0.75431660  0.99978262  0.62342375  1
  O  O92  1  0.87657625  0.24568340  0.49978262  1
  O  O93  1  0.50021738  0.37657625  0.25431660  1
  O  O94  1  0.25431660  0.50021738  0.37657625  1
  O  O95  1  0.37657625  0.25431660  0.50021738  1
  O  O96  1  0.73580273  0.09092591  0.26481875  1
  O  O97  1  0.73518125  0.23580273  0.40907409  1
  O  O98  1  0.59092591  0.23518125  0.26419727  1
  O  O99  1  0.23580273  0.40907409  0.73518125  1
  O  O100  1  0.23518125  0.26419727  0.59092591  1
  O  O101  1  0.09092591  0.26481875  0.73580273  1
  O  O102  1  0.26419727  0.59092591  0.23518125  1
  O  O103  1  0.26481875  0.73580273  0.09092591  1
  O  O104  1  0.40907409  0.73518125  0.23580273  1
  O  O105  1  0.76419727  0.90907409  0.76481875  1
  O  O106  1  0.76481875  0.76419727  0.90907409  1
  O  O107  1  0.90907409  0.76481875  0.76419727  1
  O  O108  1  0.26885577  0.90655937  0.77268827  1
  O  O109  1  0.22731173  0.76885577  0.59344063  1
  O  O110  1  0.40655937  0.72731173  0.73114423  1
  O  O111  1  0.76885577  0.59344063  0.22731173  1
  O  O112  1  0.72731173  0.73114423  0.40655937  1
  O  O113  1  0.90655937  0.77268827  0.26885577  1
  O  O114  1  0.73114423  0.40655937  0.72731173  1
  O  O115  1  0.77268827  0.26885577  0.90655937  1
  O  O116  1  0.59344063  0.22731173  0.76885577  1
  O  O117  1  0.23114423  0.09344063  0.27268827  1
  O  O118  1  0.27268827  0.23114423  0.09344063  1
  O  O119  1  0.09344063  0.27268827  0.23114423  1
  O  O120  1  0.52115144  0.84308444  0.52715367  1
  O  O121  1  0.47284633  0.02115144  0.65691556  1
  O  O122  1  0.34308444  0.97284633  0.47884856  1
  O  O123  1  0.02115144  0.65691556  0.47284633  1
  O  O124  1  0.97284633  0.47884856  0.34308444  1
  O  O125  1  0.84308444  0.52715367  0.52115144  1
  O  O126  1  0.47884856  0.34308444  0.97284633  1
  O  O127  1  0.52715367  0.52115144  0.84308444  1
  O  O128  1  0.65691556  0.47284633  0.02115144  1
  O  O129  1  0.97884856  0.15691556  0.02715367  1
  O  O130  1  0.02715367  0.97884856  0.15691556  1
  O  O131  1  0.15691556  0.02715367  0.97884856  1
  O  O132  1  0.51376805  0.15238789  0.49217852  1
  O  O133  1  0.50782148  0.01376805  0.34761211  1
  O  O134  1  0.65238789  0.00782148  0.48623195  1
  O  O135  1  0.01376805  0.34761211  0.50782148  1
  O  O136  1  0.00782148  0.48623195  0.65238789  1
  O  O137  1  0.15238789  0.49217852  0.51376805  1
  O  O138  1  0.48623195  0.65238789  0.00782148  1
  O  O139  1  0.49217852  0.51376805  0.15238789  1
  O  O140  1  0.34761211  0.50782148  0.01376805  1
  O  O141  1  0.98623195  0.84761211  0.99217852  1
  O  O142  1  0.99217852  0.98623195  0.84761211  1
  O  O143  1  0.84761211  0.99217852  0.98623195  1
loop_
_geom_bond_atom_site_label_1
_geom_bond_atom_site_label_2
_geom_bond_distance
_geom_bond_site_symmetry_2
Ba0 O121 2.614093 1_565
Ba0 O120 2.614093 1_555
Ba0 O122 2.614093 1_555
Ba0 O134 2.646302 1_565
Ba0 O132 2.646302 1_565
Ba0 O133 2.646302 1_565
Ba1 O123 2.614093 1_655
Ba1 O125 2.614093 1_555
Ba1 O124 2.614093 1_555
Ba1 O137 2.646302 1_655
Ba1 O136 2.646302 1_655
Ba1 O135 2.646302 1_655
Ba2 O127 2.614093 1_555
Ba2 O128 2.614093 1_556
Ba2 O126 2.614093 1_555
Ba2 O138 2.646302 1_556
Ba2 O139 2.646302 1_556
Ba2 O140 2.646302 1_556
Ba3 O130 2.614093 1_545
Ba3 O129 2.614093 1_455
Ba3 O131 2.614093 1_554
Ba3 O142 2.646302 1_444
Ba3 O143 2.646302 1_444
Ba3 O141 2.646302 1_444
Ba4 O61 2.640882 1_555
Ba4 O60 2.640882 1_555
Ba4 O62 2.640882 1_555
Ba4 O110 2.699395 1_555
Ba4 O108 2.699395 1_555
Ba4 O109 2.699395 1_555
Ba5 O63 2.640882 1_555
Ba5 O65 2.640882 1_555
Ba5 O64 2.640882 1_555
Ba5 O113 2.699395 1_555
Ba5 O111 2.699395 1_555
Ba5 O112 2.699395 1_555
Ba6 O67 2.640882 1_555
Ba6 O68 2.640882 1_555
Ba6 O66 2.640882 1_555
Ba6 O114 2.699395 1_555
Ba6 O115 2.699395 1_555
Ba6 O116 2.699395 1_555
Ba7 O70 2.640882 1_555
Ba7 O71 2.640882 1_555
Ba7 O69 2.640882 1_555
Ba7 O119 2.699395 1_555
Ba7 O117 2.699395 1_555
Ba7 O118 2.699395 1_555
Ba8 O96 2.661869 1_555
Ba8 O98 2.661869 1_555
Ba8 O97 2.661869 1_555
Ba8 O132 2.752938 1_555
Ba8 O133 2.752938 1_555
Ba8 O134 2.752938 1_555
Ba9 O101 2.661869 1_555
Ba9 O99 2.661869 1_555
Ba9 O100 2.661869 1_555
Ba9 O137 2.752938 1_555
Ba9 O135 2.752938 1_555
Ba9 O136 2.752938 1_555
Ba10 O103 2.661869 1_555
Ba10 O102 2.661869 1_555
Ba10 O104 2.661869 1_555
Ba10 O140 2.752938 1_555
Ba10 O139 2.752938 1_555
Ba10 O138 2.752938 1_555
Ba11 O106 2.661869 1_555
Ba11 O107 2.661869 1_555
Ba11 O105 2.661869 1_555
Ba11 O141 2.752938 1_555
Ba11 O143 2.752938 1_555
Ba11 O142 2.752938 1_555
Ba12 O74 2.854454 1_555
Ba12 O73 2.854454 1_555
Ba12 O72 2.854454 1_555
Ba12 O110 3.020421 1_555
Ba12 O108 3.020421 1_555
Ba12 O109 3.020421 1_555
Ba12 O121 3.055516 1_565
Ba12 O122 3.055516 1_555
Ba12 O120 3.055516 1_555
Ba13 O76 2.854454 1_555
Ba13 O75 2.854454 1_555
Ba13 O77 2.854454 1_555
Ba13 O113 3.020421 1_555
Ba13 O112 3.020421 1_555
Ba13 O111 3.020421 1_555
Ba13 O123 3.055516 1_655
Ba13 O125 3.055516 1_555
Ba13 O124 3.055516 1_555
Ba14 O78 2.854454 1_555
Ba14 O79 2.854454 1_555
Ba14 O80 2.854454 1_555
Ba14 O114 3.020421 1_555
Ba14 O116 3.020421 1_555
Ba14 O115 3.020421 1_555
Ba14 O128 3.055516 1_556
Ba14 O127 3.055516 1_555
Ba14 O126 3.055516 1_555
Ba15 O83 2.854454 1_555
Ba15 O81 2.854454 1_555
Ba15 O82 2.854454 1_555
Ba15 O119 3.020421 1_555
Ba15 O118 3.020421 1_555
Ba15 O117 3.020421 1_555
Ba15 O130 3.055516 1_545
Ba15 O129 3.055516 1_455
Ba15 O131 3.055516 1_554
Ba16 O26 2.642274 1_555
Ba16 O24 2.642274 1_555
Ba16 O25 2.642274 1_555
Ba16 O50 2.696615 1_555
Ba16 O48 2.696615 1_555
Ba16 O49 2.696615 1_555
Ba17 O28 2.642274 1_555
Ba17 O29 2.642274 1_555
Ba17 O27 2.642274 1_555
Ba17 O52 2.696615 1_555
Ba17 O53 2.696615 1_555
Ba17 O51 2.696615 1_555
Ba18 O30 2.642274 1_555
Ba18 O32 2.642274 1_555
Ba18 O31 2.642274 1_555
Ba18 O54 2.696615 1_555
Ba18 O55 2.696615 1_555
Ba18 O56 2.696615 1_555
Ba19 O33 2.642274 1_555
Ba19 O34 2.642274 1_555
Ba19 O35 2.642274 1_555
Ba19 O57 2.696615 1_555
Ba19 O59 2.696615 1_555
Ba19 O58 2.696615 1_555
Ba20 O38 2.782150 1_556
Ba20 O36 2.782150 1_455
Ba20 O37 2.782150 1_555
Ba20 O85 2.940933 1_555
Ba20 O86 2.940933 1_556
Ba20 O84 2.940933 1_455
Ba21 O40 2.782150 1_565
Ba21 O41 2.782150 1_554
Ba21 O39 2.782150 1_555
Ba21 O87 2.940933 1_555
Ba21 O88 2.940933 1_565
Ba21 O89 2.940933 1_554
Ba22 O42 2.782150 1_655
Ba22 O43 2.782150 1_545
Ba22 O44 2.782150 1_555
Ba22 O92 2.940933 1_555
Ba22 O90 2.940933 1_655
Ba22 O91 2.940933 1_545
Ba23 O46 2.782150 1_555
Ba23 O47 2.782150 1_555
Ba23 O45 2.782150 1_555
Ba23 O93 2.940933 1_555
Ba23 O94 2.940933 1_555
Ba23 O95 2.940933 1_555
Ba24 O44 2.550552 1_555
Ba24 O96 2.667263 1_555
Ba24 O97 2.691983 1_555
Ba24 O92 2.951715 1_555
Ba24 O13 3.059863 1_655
Ba24 O2 3.097220 1_555
Ba24 O81 3.239116 1_655
Ba24 O50 3.247403 1_555
Ba25 O45 2.550552 1_555
Ba25 O97 2.667263 1_555
Ba25 O98 2.691983 1_555
Ba25 O93 2.951715 1_555
Ba25 O14 3.059863 1_555
Ba25 O0 3.097220 1_555
Ba25 O76 3.239116 1_555
Ba25 O48 3.247403 1_555
Ba26 O40 2.550552 1_555
Ba26 O98 2.667263 1_555
Ba26 O96 2.691983 1_555
Ba26 O88 2.951715 1_555
Ba26 O12 3.059863 1_554
Ba26 O1 3.097220 1_555
Ba26 O80 3.239116 1_554
Ba26 O49 3.247403 1_555
Ba27 O47 2.550552 1_555
Ba27 O99 2.667263 1_555
Ba27 O100 2.691983 1_555
Ba27 O95 2.951715 1_555
Ba27 O16 3.059863 1_555
Ba27 O5 3.097220 1_555
Ba27 O78 3.239116 1_555
Ba27 O53 3.247403 1_555
Ba28 O42 2.550552 1_555
Ba28 O100 2.667263 1_555
Ba28 O101 2.691983 1_555
Ba28 O90 2.951715 1_555
Ba28 O17 3.059863 1_545
Ba28 O3 3.097220 1_555
Ba28 O73 3.239116 1_545
Ba28 O51 3.247403 1_555
Ba29 O37 2.550552 1_555
Ba29 O101 2.667263 1_555
Ba29 O99 2.691983 1_555
Ba29 O85 2.951715 1_555
Ba29 O15 3.059863 1_556
Ba29 O4 3.097220 1_555
Ba29 O83 3.239116 1_556
Ba29 O52 3.247403 1_555
Ba30 O38 2.550552 1_555
Ba30 O102 2.667263 1_555
Ba30 O103 2.691983 1_555
Ba30 O86 2.951715 1_555
Ba30 O19 3.059863 1_455
Ba30 O8 3.097220 1_555
Ba30 O75 3.239116 1_455
Ba30 O56 3.247403 1_555
Ba31 O39 2.550552 1_555
Ba31 O103 2.667263 1_555
Ba31 O104 2.691983 1_555
Ba31 O87 2.951715 1_555
Ba31 O20 3.059863 1_565
Ba31 O6 3.097220 1_555
Ba31 O82 3.239116 1_565
Ba31 O54 3.247403 1_555
Ba32 O46 2.550552 1_555
Ba32 O104 2.667263 1_555
Ba32 O102 2.691983 1_555
Ba32 O94 2.951715 1_555
Ba32 O18 3.059863 1_555
Ba32 O7 3.097220 1_555
Ba32 O74 3.239116 1_555
Ba32 O55 3.247403 1_555
Ba33 O41 2.550552 1_555
Ba33 O105 2.667263 1_555
Ba33 O106 2.691983 1_555
Ba33 O89 2.951715 1_555
Ba33 O22 3.059863 1_555
Ba33 O11 3.097220 1_555
Ba33 O72 3.239116 1_555
Ba33 O59 3.247403 1_555
Ba34 O36 2.550552 1_555
Ba34 O106 2.667263 1_555
Ba34 O107 2.691983 1_555
Ba34 O84 2.951715 1_555
Ba34 O23 3.059863 1_555
Ba34 O9 3.097220 1_555
Ba34 O79 3.239116 1_555
Ba34 O57 3.247403 1_555
Ba35 O43 2.550552 1_555
Ba35 O107 2.667263 1_555
Ba35 O105 2.691983 1_555
Ba35 O91 2.951715 1_555
Ba35 O21 3.059863 1_555
Ba35 O10 3.097220 1_555
Ba35 O77 3.239116 1_555
Ba35 O58 3.247403 1_555
Ba36 O30 2.642667 1_555
Ba36 O32 2.743311 1_555
Ba36 O109 2.851696 1_555
Ba36 O43 2.856645 1_455
Ba36 O17 2.976862 1_555
Ba36 O10 3.102703 1_455
Ba36 O73 3.163671 1_555
Ba36 O62 3.330637 1_555
Ba37 O34 2.642667 1_555
Ba37 O33 2.743311 1_555
Ba37 O110 2.851696 1_555
Ba37 O47 2.856645 1_555
Ba37 O18 2.976862 1_555
Ba37 O5 3.102703 1_555
Ba37 O74 3.163671 1_555
Ba37 O60 3.330637 1_555
Ba38 O29 2.642667 1_565
Ba38 O28 2.743311 1_565
Ba38 O108 2.851696 1_555
Ba38 O39 2.856645 1_556
Ba38 O22 2.976862 1_555
Ba38 O6 3.102703 1_556
Ba38 O72 3.163671 1_555
Ba38 O61 3.330637 1_555
Ba39 O33 2.642667 1_555
Ba39 O35 2.743311 1_555
Ba39 O112 2.851696 1_555
Ba39 O46 2.856645 1_555
Ba39 O14 2.976862 1_555
Ba39 O7 3.102703 1_555
Ba39 O76 3.163671 1_555
Ba39 O65 3.330637 1_555
Ba40 O31 2.642667 1_655
Ba40 O30 2.743311 1_655
Ba40 O113 2.851696 1_555
Ba40 O44 2.856645 1_565
Ba40 O21 2.976862 1_555
Ba40 O2 3.102703 1_565
Ba40 O77 3.163671 1_555
Ba40 O63 3.330637 1_555
Ba41 O26 2.642667 1_555
Ba41 O25 2.743311 1_555
Ba41 O111 2.851696 1_555
Ba41 O36 2.856645 1_554
Ba41 O19 2.976862 1_555
Ba41 O9 3.102703 1_554
Ba41 O75 3.163671 1_555
Ba41 O64 3.330637 1_555
Ba42 O24 2.642667 1_556
Ba42 O26 2.743311 1_556
Ba42 O115 2.851696 1_555
Ba42 O37 2.856645 1_655
Ba42 O23 2.976862 1_555
Ba42 O4 3.102703 1_655
Ba42 O79 3.163671 1_555
Ba42 O68 3.330637 1_555
Ba43 O28 2.642667 1_555
Ba43 O27 2.743311 1_555
Ba43 O116 2.851696 1_555
Ba43 O41 2.856645 1_545
Ba43 O12 2.976862 1_555
Ba43 O11 3.102703 1_545
Ba43 O80 3.163671 1_555
Ba43 O66 3.330637 1_555
Ba44 O35 2.642667 1_555
Ba44 O34 2.743311 1_555
Ba44 O114 2.851696 1_555
Ba44 O45 2.856645 1_555
Ba44 O16 2.976862 1_555
Ba44 O0 3.102703 1_555
Ba44 O78 3.163671 1_555
Ba44 O67 3.330637 1_555
Ba45 O27 2.642667 1_554
Ba45 O29 2.743311 1_554
Ba45 O118 2.851696 1_555
Ba45 O40 2.856645 1_555
Ba45 O20 2.976862 1_555
Ba45 O1 3.102703 1_555
Ba45 O82 3.163671 1_555
Ba45 O71 3.330637 1_555
Ba46 O25 2.642667 1_455
Ba46 O24 2.743311 1_455
Ba46 O119 2.851696 1_555
Ba46 O38 2.856645 1_555
Ba46 O15 2.976862 1_555
Ba46 O8 3.102703 1_555
Ba46 O83 3.163671 1_555
Ba46 O69 3.330637 1_555
Ba47 O32 2.642667 1_545
Ba47 O31 2.743311 1_545
Ba47 O117 2.851696 1_555
Ba47 O42 2.856645 1_555
Ba47 O13 2.976862 1_555
Ba47 O3 3.102703 1_555
Ba47 O81 3.163671 1_555
Ba47 O70 3.330637 1_555
Ba48 O128 2.606380 1_555
Ba48 O48 2.634471 1_555
Ba48 O49 2.649192 1_555
Ba48 O80 2.956552 1_554
Ba48 O1 3.033718 1_555
Ba48 O14 3.097680 1_555
Ba48 O93 3.235533 1_555
Ba48 O98 3.243357 1_555
Ba49 O129 2.606380 1_555
Ba49 O49 2.634471 1_555
Ba49 O50 2.649192 1_555
Ba49 O81 2.956552 1_655
Ba49 O2 3.033718 1_555
Ba49 O12 3.097680 1_554
Ba49 O88 3.235533 1_555
Ba49 O96 3.243357 1_555
Ba50 O124 2.606380 1_555
Ba50 O50 2.634471 1_555
Ba50 O48 2.649192 1_555
Ba50 O76 2.956552 1_555
Ba50 O0 3.033718 1_555
Ba50 O13 3.097680 1_655
Ba50 O92 3.235533 1_555
Ba50 O97 3.243357 1_555
Ba51 O131 2.606380 1_555
Ba51 O51 2.634471 1_555
Ba51 O52 2.649192 1_555
Ba51 O83 2.956552 1_556
Ba51 O4 3.033718 1_555
Ba51 O17 3.097680 1_545
Ba51 O90 3.235533 1_555
Ba51 O101 3.243357 1_555
Ba52 O126 2.606380 1_555
Ba52 O52 2.634471 1_555
Ba52 O53 2.649192 1_555
Ba52 O78 2.956552 1_555
Ba52 O5 3.033718 1_555
Ba52 O15 3.097680 1_556
Ba52 O85 3.235533 1_555
Ba52 O99 3.243357 1_555
Ba53 O121 2.606380 1_555
Ba53 O53 2.634471 1_555
Ba53 O51 2.649192 1_555
Ba53 O73 2.956552 1_545
Ba53 O3 3.033718 1_555
Ba53 O16 3.097680 1_555
Ba53 O95 3.235533 1_555
Ba53 O100 3.243357 1_555
Ba54 O122 2.606380 1_555
Ba54 O54 2.634471 1_555
Ba54 O55 2.649192 1_555
Ba54 O74 2.956552 1_555
Ba54 O7 3.033718 1_555
Ba54 O20 3.097680 1_565
Ba54 O87 3.235533 1_555
Ba54 O104 3.243357 1_555
Ba55 O123 2.606380 1_555
Ba55 O55 2.634471 1_555
Ba55 O56 2.649192 1_555
Ba55 O75 2.956552 1_455
Ba55 O8 3.033718 1_555
Ba55 O18 3.097680 1_555
Ba55 O94 3.235533 1_555
Ba55 O102 3.243357 1_555
Ba56 O130 2.606380 1_555
Ba56 O56 2.634471 1_555
Ba56 O54 2.649192 1_555
Ba56 O82 2.956552 1_565
Ba56 O6 3.033718 1_555
Ba56 O19 3.097680 1_455
Ba56 O86 3.235533 1_555
Ba56 O103 3.243357 1_555
Ba57 O125 2.606380 1_555
Ba57 O57 2.634471 1_555
Ba57 O58 2.649192 1_555
Ba57 O77 2.956552 1_555
Ba57 O10 3.033718 1_555
Ba57 O23 3.097680 1_555
Ba57 O84 3.235533 1_555
Ba57 O107 3.243357 1_555
Ba58 O120 2.606380 1_555
Ba58 O58 2.634471 1_555
Ba58 O59 2.649192 1_555
Ba58 O72 2.956552 1_555
Ba58 O11 3.033718 1_555
Ba58 O21 3.097680 1_555
Ba58 O91 3.235533 1_555
Ba58 O105 3.243357 1_555
Ba59 O127 2.606380 1_555
Ba59 O59 2.634471 1_555
Ba59 O57 2.649192 1_555
Ba59 O79 2.956552 1_555
Ba59 O9 3.033718 1_555
Ba59 O22 3.097680 1_555
Ba59 O89 3.235533 1_555
Ba59 O106 3.243357 1_555
Ba60 O61 2.617451 1_555
Ba60 O138 2.776281 1_556
Ba60 O22 2.928028 1_555
Ba60 O5 2.957844 1_555
Ba60 O110 3.010951 1_555
Ba60 O140 3.073970 1_556
Ba60 O127 3.087328 1_555
Ba60 O85 3.150426 1_555
Ba61 O62 2.617451 1_555
Ba61 O142 2.776281 1_455
Ba61 O17 2.928028 1_555
Ba61 O6 2.957844 1_556
Ba61 O108 3.010951 1_555
Ba61 O141 3.073970 1_455
Ba61 O131 3.087328 1_565
Ba61 O86 3.150426 1_556
Ba62 O60 2.617451 1_555
Ba62 O137 2.776281 1_555
Ba62 O18 2.928028 1_555
Ba62 O10 2.957844 1_455
Ba62 O109 3.010951 1_555
Ba62 O136 3.073970 1_555
Ba62 O123 3.087328 1_555
Ba62 O84 3.150426 1_455
Ba63 O64 2.617451 1_555
Ba63 O141 2.776281 1_554
Ba63 O19 2.928028 1_555
Ba63 O2 2.957844 1_565
Ba63 O113 3.010951 1_555
Ba63 O143 3.073970 1_554
Ba63 O130 3.087328 1_655
Ba63 O88 3.150426 1_565
Ba64 O65 2.617451 1_555
Ba64 O139 2.776281 1_555
Ba64 O14 2.928028 1_555
Ba64 O9 2.957844 1_554
Ba64 O111 3.010951 1_555
Ba64 O138 3.073970 1_555
Ba64 O128 3.087328 1_555
Ba64 O89 3.150426 1_554
Ba65 O63 2.617451 1_555
Ba65 O134 2.776281 1_565
Ba65 O21 2.928028 1_555
Ba65 O7 2.957844 1_555
Ba65 O112 3.010951 1_555
Ba65 O133 3.073970 1_565
Ba65 O120 3.087328 1_555
Ba65 O87 3.150426 1_555
Ba66 O67 2.617451 1_555
Ba66 O132 2.776281 1_555
Ba66 O16 2.928028 1_555
Ba66 O11 2.957844 1_545
Ba66 O116 3.010951 1_555
Ba66 O134 3.073970 1_555
Ba66 O121 3.087328 1_555
Ba66 O91 3.150426 1_545
Ba67 O68 2.617451 1_555
Ba67 O136 2.776281 1_655
Ba67 O23 2.928028 1_555
Ba67 O0 2.957844 1_555
Ba67 O114 3.010951 1_555
Ba67 O135 3.073970 1_655
Ba67 O125 3.087328 1_555
Ba67 O92 3.150426 1_555
Ba68 O66 2.617451 1_555
Ba68 O143 2.776281 1_545
Ba68 O12 2.928028 1_555
Ba68 O4 2.957844 1_655
Ba68 O115 3.010951 1_555
Ba68 O142 3.073970 1_545
Ba68 O129 3.087328 1_556
Ba68 O90 3.150426 1_655
Ba69 O70 2.617451 1_555
Ba69 O135 2.776281 1_555
Ba69 O13 2.928028 1_555
Ba69 O8 2.957844 1_555
Ba69 O119 3.010951 1_555
Ba69 O137 3.073970 1_555
Ba69 O124 3.087328 1_455
Ba69 O94 3.150426 1_555
Ba70 O71 2.617451 1_555
Ba70 O133 2.776281 1_555
Ba70 O20 2.928028 1_555
Ba70 O3 2.957844 1_555
Ba70 O117 3.010951 1_555
Ba70 O132 3.073970 1_555
Ba70 O122 3.087328 1_545
Ba70 O95 3.150426 1_555
Ba71 O69 2.617451 1_555
Ba71 O140 2.776281 1_555
Ba71 O15 2.928028 1_555
Ba71 O1 2.957844 1_555
Ba71 O118 3.010951 1_555
Ba71 O139 3.073970 1_555
Ba71 O126 3.087328 1_554
Ba71 O93 3.150426 1_555
Al0 O63 1.753393 1_555
Al0 O96 1.759814 1_565
Al0 O88 1.802680 1_565
Al0 O2 1.811954 1_565
Al1 O67 1.753393 1_555
Al1 O97 1.759814 1_555
Al1 O92 1.802680 1_555
Al1 O0 1.811954 1_555
Al2 O71 1.753393 1_555
Al2 O98 1.759814 1_555
Al2 O93 1.802680 1_555
Al2 O1 1.811954 1_555
Al3 O60 1.753393 1_555
Al3 O99 1.759814 1_555
Al3 O85 1.802680 1_555
Al3 O5 1.811954 1_555
Al4 O70 1.753393 1_555
Al4 O100 1.759814 1_555
Al4 O95 1.802680 1_555
Al4 O3 1.811954 1_555
Al5 O68 1.753393 1_555
Al5 O101 1.759814 1_655
Al5 O90 1.802680 1_655
Al5 O4 1.811954 1_655
Al6 O69 1.753393 1_555
Al6 O102 1.759814 1_555
Al6 O94 1.802680 1_555
Al6 O8 1.811954 1_555
Al7 O61 1.753393 1_555
Al7 O103 1.759814 1_556
Al7 O86 1.802680 1_556
Al7 O6 1.811954 1_556
Al8 O65 1.753393 1_555
Al8 O104 1.759814 1_555
Al8 O87 1.802680 1_555
Al8 O7 1.811954 1_555
Al9 O66 1.753393 1_555
Al9 O105 1.759814 1_545
Al9 O91 1.802680 1_545
Al9 O11 1.811954 1_545
Al10 O64 1.753393 1_555
Al10 O106 1.759814 1_554
Al10 O89 1.802680 1_554
Al10 O9 1.811954 1_554
Al11 O62 1.753393 1_555
Al11 O107 1.759814 1_455
Al11 O84 1.802680 1_455
Al11 O10 1.811954 1_455
Al12 O48 1.758956 1_555
Al12 O111 1.760557 1_555
Al12 O76 1.799028 1_555
Al12 O14 1.813217 1_555
Al13 O49 1.758956 1_556
Al13 O115 1.760557 1_555
Al13 O80 1.799028 1_555
Al13 O12 1.813217 1_555
Al14 O50 1.758956 1_455
Al14 O119 1.760557 1_555
Al14 O81 1.799028 1_555
Al14 O13 1.813217 1_555
Al15 O51 1.758956 1_565
Al15 O108 1.760557 1_555
Al15 O73 1.799028 1_555
Al15 O17 1.813217 1_555
Al16 O52 1.758956 1_554
Al16 O118 1.760557 1_555
Al16 O83 1.799028 1_555
Al16 O15 1.813217 1_555
Al17 O53 1.758956 1_555
Al17 O116 1.760557 1_555
Al17 O78 1.799028 1_555
Al17 O16 1.813217 1_555
Al18 O54 1.758956 1_545
Al18 O117 1.760557 1_555
Al18 O82 1.799028 1_555
Al18 O20 1.813217 1_555
Al19 O55 1.758956 1_555
Al19 O109 1.760557 1_555
Al19 O74 1.799028 1_555
Al19 O18 1.813217 1_555
Al20 O56 1.758956 1_655
Al20 O113 1.760557 1_555
Al20 O75 1.799028 1_555
Al20 O19 1.813217 1_555
Al21 O57 1.758956 1_555
Al21 O114 1.760557 1_555
Al21 O79 1.799028 1_555
Al21 O23 1.813217 1_555
Al22 O58 1.758956 1_555
Al22 O112 1.760557 1_555
Al22 O77 1.799028 1_555
Al22 O21 1.813217 1_555
Al23 O59 1.758956 1_555
Al23 O110 1.760557 1_555
Al23 O72 1.799028 1_555
Al23 O22 1.813217 1_555
Al24 O27 1.749791 1_554
Al24 O126 1.762190 1_554
Al24 O80 1.800373 1_554
Al24 O1 1.807809 1_555
Al25 O31 1.749791 1_645
Al25 O130 1.762190 1_645
Al25 O81 1.800373 1_655
Al25 O2 1.807809 1_555
Al26 O35 1.749791 1_555
Al26 O125 1.762190 1_555
Al26 O76 1.800373 1_555
Al26 O0 1.807809 1_555
Al27 O24 1.749791 1_456
Al27 O129 1.762190 1_456
Al27 O83 1.800373 1_556
Al27 O4 1.807809 1_555
Al28 O34 1.749791 1_555
Al28 O127 1.762190 1_555
Al28 O78 1.800373 1_555
Al28 O5 1.807809 1_555
Al29 O32 1.749791 1_545
Al29 O122 1.762190 1_545
Al29 O73 1.800373 1_545
Al29 O3 1.807809 1_555
Al30 O33 1.749791 1_555
Al30 O120 1.762190 1_555
Al30 O74 1.800373 1_555
Al30 O7 1.807809 1_555
Al31 O25 1.749791 1_455
Al31 O124 1.762190 1_455
Al31 O75 1.800373 1_455
Al31 O8 1.807809 1_555
Al32 O29 1.749791 1_564
Al32 O131 1.762190 1_564
Al32 O82 1.800373 1_565
Al32 O6 1.807809 1_555
Al33 O30 1.749791 1_655
Al33 O123 1.762190 1_655
Al33 O77 1.800373 1_555
Al33 O10 1.807809 1_555
Al34 O28 1.749791 1_565
Al34 O121 1.762190 1_565
Al34 O72 1.800373 1_555
Al34 O11 1.807809 1_555
Al35 O26 1.749791 1_556
Al35 O128 1.762190 1_556
Al35 O79 1.800373 1_555
Al35 O9 1.807809 1_555
Al36 O42 1.758642 1_655
Al36 O135 1.758929 1_655
Al36 O92 1.796253 1_555
Al36 O13 1.816671 1_655
Al37 O46 1.758642 1_555
Al37 O139 1.758929 1_555
Al37 O93 1.796253 1_555
Al37 O14 1.816671 1_555
Al38 O41 1.758642 1_544
Al38 O143 1.758929 1_544
Al38 O88 1.796253 1_555
Al38 O12 1.816671 1_554
Al39 O45 1.758642 1_555
Al39 O132 1.758929 1_555
Al39 O95 1.796253 1_555
Al39 O16 1.816671 1_555
Al40 O43 1.758642 1_445
Al40 O142 1.758929 1_445
Al40 O90 1.796253 1_555
Al40 O17 1.816671 1_545
Al41 O38 1.758642 1_556
Al41 O140 1.758929 1_556
Al41 O85 1.796253 1_555
Al41 O15 1.816671 1_556
Al42 O36 1.758642 1_454
Al42 O141 1.758929 1_454
Al42 O86 1.796253 1_555
Al42 O19 1.816671 1_455
Al43 O40 1.758642 1_565
Al43 O133 1.758929 1_565
Al43 O87 1.796253 1_555
Al43 O20 1.816671 1_565
Al44 O47 1.758642 1_555
Al44 O137 1.758929 1_555
Al44 O94 1.796253 1_555
Al44 O18 1.816671 1_555
Al45 O39 1.758642 1_556
Al45 O138 1.758929 1_556
Al45 O89 1.796253 1_555
Al45 O22 1.816671 1_555
Al46 O37 1.758642 1_655
Al46 O136 1.758929 1_655
Al46 O84 1.796253 1_555
Al46 O23 1.816671 1_555
Al47 O44 1.758642 1_565
Al47 O134 1.758929 1_565
Al47 O91 1.796253 1_555
Al47 O21 1.816671 1_555
