# generated using pymatgen
data_EuMg2
_symmetry_space_group_name_H-M   'P 1'
_cell_length_a   6.31314516
_cell_length_b   6.31314516
_cell_length_c   10.20866907
_cell_angle_alpha   89.99999702
_cell_angle_beta   89.99999702
_cell_angle_gamma   120.00021131
_symmetry_Int_Tables_number   1
_chemical_formula_structural   EuMg2
_chemical_formula_sum   'Eu4 Mg8'
_cell_volume   352.36306886
_cell_formula_units_Z   4
loop_
 _symmetry_equiv_pos_site_id
 _symmetry_equiv_pos_as_xyz
  1  'x, y, z'
loop_
 _atom_site_type_symbol
 _atom_site_label
 _atom_site_symmetry_multiplicity
 _atom_site_fract_x
 _atom_site_fract_y
 _atom_site_fract_z
 _atom_site_occupancy
  Eu  Eu0  1  0.33333300  0.66666700  0.43905953  1
  Eu  Eu1  1  0.66666700  0.33333300  0.56091973  1
  Eu  Eu2  1  0.66666700  0.33333400  0.93915909  1
  Eu  Eu3  1  0.33333300  0.66666600  0.06086135  1
  Mg  Mg0  1  0.00000000  0.00000000  0.49999432  1
  Mg  Mg1  1  -0.00000000  -0.00000000  0.00000554  1
  Mg  Mg2  1  0.83272661  0.16727339  0.24994798  1
  Mg  Mg3  1  0.83272661  0.66545422  0.24994798  1
  Mg  Mg4  1  0.33454578  0.16727339  0.24994798  1
  Mg  Mg5  1  0.16727286  0.83272714  0.75005183  1
  Mg  Mg6  1  0.16727286  0.33454571  0.75005183  1
  Mg  Mg7  1  0.66545529  0.83272814  0.75005183  1
loop_
_geom_bond_atom_site_label_1
_geom_bond_atom_site_label_2
_geom_bond_distance
_geom_bond_site_symmetry_2
Eu0 Mg6 3.657411 1_555
Eu0 Mg5 3.657412 1_555
Eu0 Mg7 3.657414 1_555
Eu0 Mg0 3.697592 1_555
Eu0 Mg0 3.697592 1_665
Eu0 Mg0 3.697598 1_565
Eu0 Mg2 3.700143 1_565
Eu0 Mg2 3.700143 1_455
Eu0 Mg4 3.700152 1_565
Eu0 Mg3 3.700152 1_555
Eu0 Mg3 3.700152 1_455
Eu0 Mg4 3.700152 1_555
Eu0 Eu1 3.851337 1_455
Eu0 Eu1 3.851337 1_565
Eu0 Eu1 3.851358 1_555
Eu0 Eu3 3.860900 1_555
Eu1 Mg2 3.657227 1_555
Eu1 Mg3 3.657229 1_555
Eu1 Mg4 3.657229 1_555
Eu1 Mg0 3.697576 1_665
Eu1 Mg0 3.697576 1_555
Eu1 Mg0 3.697582 1_655
Eu1 Mg5 3.700252 1_545
Eu1 Mg5 3.700253 1_655
Eu1 Mg7 3.700256 1_545
Eu1 Mg6 3.700259 1_655
Eu1 Mg6 3.700264 1_555
Eu1 Mg7 3.700267 1_555
Eu1 Eu2 3.861320 1_555
Eu2 Mg3 3.655606 1_556
Eu2 Mg4 3.655609 1_556
Eu2 Mg2 3.655609 1_556
Eu2 Mg1 3.697435 1_666
Eu2 Mg1 3.697440 1_556
Eu2 Mg1 3.697452 1_656
Eu2 Mg5 3.700117 1_655
Eu2 Mg5 3.700123 1_545
Eu2 Mg7 3.700129 1_555
Eu2 Mg6 3.700129 1_655
Eu2 Mg6 3.700129 1_555
Eu2 Mg7 3.700129 1_545
Eu2 Eu3 3.850816 1_656
Eu2 Eu3 3.850827 1_546
Eu2 Eu3 3.850827 1_556
Eu3 Mg6 3.655789 1_554
Eu3 Mg7 3.655795 1_554
Eu3 Mg5 3.655795 1_554
Eu3 Mg1 3.697451 1_555
Eu3 Mg1 3.697456 1_665
Eu3 Mg1 3.697468 1_565
Eu3 Mg2 3.700008 1_455
Eu3 Mg2 3.700013 1_565
Eu3 Mg4 3.700014 1_555
Eu3 Mg3 3.700016 1_555
Eu3 Mg3 3.700022 1_455
Eu3 Mg4 3.700024 1_565
Mg0 Mg4 3.140299 1_555
Mg0 Mg3 3.140300 1_445
Mg0 Mg2 3.140306 1_455
Mg0 Mg7 3.140389 1_445
Mg0 Mg6 3.140392 1_555
Mg0 Mg5 3.140395 1_545
Mg1 Mg3 3.139437 1_445
Mg1 Mg4 3.139437 1_555
Mg1 Mg2 3.139444 1_455
Mg1 Mg7 3.139528 1_444
Mg1 Mg6 3.139530 1_554
Mg1 Mg5 3.139534 1_544
Mg2 Mg3 3.145088 1_555
Mg2 Mg4 3.145088 1_555
Mg2 Mg4 3.168057 1_655
Mg2 Mg3 3.168057 1_545
Mg3 Mg4 3.145078 1_555
Mg3 Mg4 3.168047 1_665
Mg5 Mg6 3.145092 1_555
Mg5 Mg7 3.145095 1_555
Mg5 Mg7 3.168050 1_455
Mg5 Mg6 3.168053 1_565
Mg6 Mg7 3.145088 1_555
Mg6 Mg7 3.168037 1_445
