# generated using pymatgen
data_Cs2W3SeO12
_symmetry_space_group_name_H-M   'P 1'
_cell_length_a   7.36012800
_cell_length_b   7.36012815
_cell_length_c   13.16243100
_cell_angle_alpha   90.00000000
_cell_angle_beta   90.00000000
_cell_angle_gamma   119.99999931
_symmetry_Int_Tables_number   1
_chemical_formula_structural   Cs2W3SeO12
_chemical_formula_sum   'Cs4 W6 Se2 O24'
_cell_volume   617.50074476
_cell_formula_units_Z   2
loop_
 _symmetry_equiv_pos_site_id
 _symmetry_equiv_pos_as_xyz
  1  'x, y, z'
loop_
 _atom_site_type_symbol
 _atom_site_label
 _atom_site_symmetry_multiplicity
 _atom_site_fract_x
 _atom_site_fract_y
 _atom_site_fract_z
 _atom_site_occupancy
  Cs  Cs0  1  0.66666700  0.33333300  0.22129800  1
  Cs  Cs1  1  0.33333300  0.66666700  0.09463100  1
  Cs  Cs2  1  0.33333300  0.66666700  0.72129800  1
  Cs  Cs3  1  0.66666700  0.33333300  0.59463100  1
  W  W0  1  0.81239200  0.66158500  0.89457200  1
  W  W1  1  0.15080700  0.81239200  0.39457200  1
  W  W2  1  0.18760800  0.33841500  0.39457200  1
  W  W3  1  0.66158500  0.84919300  0.39457200  1
  W  W4  1  0.84919300  0.18760800  0.89457200  1
  W  W5  1  0.33841500  0.15080700  0.89457200  1
  Se  Se0  1  0.00000000  0.00000000  0.67686800  1
  Se  Se1  1  0.00000000  0.00000000  0.17686800  1
  O  O0  1  0.87716500  0.12652800  0.73168800  1
  O  O1  1  0.75063700  0.87716500  0.23168800  1
  O  O2  1  0.12652800  0.24936300  0.23168800  1
  O  O3  1  0.87347200  0.75063700  0.73168800  1
  O  O4  1  0.24936300  0.12283500  0.73168800  1
  O  O5  1  0.12283500  0.87347200  0.23168800  1
  O  O6  1  0.91034700  0.45903300  0.85501100  1
  O  O7  1  0.45131400  0.91034700  0.35501100  1
  O  O8  1  0.45903300  0.54868600  0.35501100  1
  O  O9  1  0.54096700  0.45131400  0.85501100  1
  O  O10  1  0.54868600  0.08965300  0.85501100  1
  O  O11  1  0.08965300  0.54096700  0.35501100  1
  O  O12  1  0.87228600  0.75234600  0.40201900  1
  O  O13  1  0.11994000  0.87228600  0.90201900  1
  O  O14  1  0.75234600  0.88006000  0.90201900  1
  O  O15  1  0.24765400  0.11994000  0.40201900  1
  O  O16  1  0.88006000  0.12771400  0.40201900  1
  O  O17  1  0.12771400  0.24765400  0.90201900  1
  O  O18  1  0.19113000  0.79666700  0.52471100  1
  O  O19  1  0.39446300  0.19113000  0.02471100  1
  O  O20  1  0.79666700  0.60553700  0.02471100  1
  O  O21  1  0.20333300  0.39446300  0.52471100  1
  O  O22  1  0.60553700  0.80887000  0.52471100  1
  O  O23  1  0.80887000  0.20333300  0.02471100  1
loop_
_geom_bond_atom_site_label_1
_geom_bond_atom_site_label_2
_geom_bond_distance
_geom_bond_site_symmetry_2
Cs0 O23 3.115743 1_555
Cs0 O19 3.115746 1_555
Cs0 O20 3.115747 1_555
Cs0 O11 3.219864 1_655
Cs0 O7 3.219864 1_545
Cs0 O8 3.219869 1_555
Cs1 O5 3.213993 1_555
Cs1 O1 3.213998 1_555
Cs1 O2 3.213999 1_555
Cs2 O18 3.115743 1_555
Cs2 O22 3.115746 1_555
Cs2 O21 3.115747 1_555
Cs2 O6 3.219864 1_455
Cs2 O10 3.219864 1_565
Cs2 O9 3.219869 1_555
Cs3 O0 3.213993 1_555
Cs3 O4 3.213998 1_555
Cs3 O3 3.213999 1_555
O0 Se0 1.745624 1_655
O0 W4 2.221162 1_555
O1 Se1 1.745624 1_665
O1 W3 2.221162 1_555
O2 Se1 1.745624 1_555
O2 W2 2.221162 1_555
O3 Se0 1.745624 1_665
O3 W0 2.221162 1_555
O4 Se0 1.745624 1_555
O4 W5 2.221162 1_555
O5 Se1 1.745624 1_565
O5 W1 2.221162 1_555
O6 W4 1.888242 1_555
O6 W0 2.021944 1_555
O7 W3 1.888242 1_555
O7 W1 2.021944 1_555
O8 W2 1.888242 1_555
O8 W3 2.021944 1_555
O9 W0 1.888242 1_555
O9 W5 2.021944 1_555
O10 W5 1.888242 1_555
O10 W4 2.021944 1_555
O11 W1 1.888242 1_555
O11 W2 2.021944 1_555
O12 W1 1.871163 1_655
O12 W3 2.007000 1_555
O13 W5 1.871163 1_565
O13 W0 2.007000 1_455
O14 W0 1.871163 1_555
O14 W4 2.007000 1_565
O15 W2 1.871163 1_555
O15 W1 2.007000 1_545
O16 W3 1.871163 1_545
O16 W2 2.007000 1_655
O17 W4 1.871163 1_455
O17 W5 2.007000 1_555
O18 W1 1.752143 1_555
O19 W5 1.752143 1_554
O20 W0 1.752143 1_554
O21 W2 1.752143 1_555
O22 W3 1.752143 1_555
O23 W4 1.752143 1_554
