# generated using pymatgen
data_TbGa2Ag
_symmetry_space_group_name_H-M   'P 1'
_cell_length_a   4.32964245
_cell_length_b   6.94081747
_cell_length_c   10.17898763
_cell_angle_alpha   90.00000000
_cell_angle_beta   90.00000000
_cell_angle_gamma   90.00000000
_symmetry_Int_Tables_number   1
_chemical_formula_structural   TbGa2Ag
_chemical_formula_sum   'Tb4 Ga8 Ag4'
_cell_volume   305.89138300
_cell_formula_units_Z   4
loop_
 _symmetry_equiv_pos_site_id
 _symmetry_equiv_pos_as_xyz
  1  'x, y, z'
loop_
 _atom_site_type_symbol
 _atom_site_label
 _atom_site_symmetry_multiplicity
 _atom_site_fract_x
 _atom_site_fract_y
 _atom_site_fract_z
 _atom_site_occupancy
  Tb  Tb0  1  0.25000000  0.78018933  0.82690351  1
  Tb  Tb1  1  0.75000000  0.21981067  0.17309649  1
  Tb  Tb2  1  0.75000000  0.71981067  0.32690351  1
  Tb  Tb3  1  0.25000000  0.28018933  0.67309649  1
  Ga  Ga0  1  0.25000000  0.92696548  0.15299180  1
  Ga  Ga1  1  0.75000000  0.07303452  0.84700820  1
  Ga  Ga2  1  0.75000000  0.57303452  0.65299180  1
  Ga  Ga3  1  0.25000000  0.42696548  0.34700820  1
  Ga  Ga4  1  0.25000000  0.70320098  0.53654883  1
  Ga  Ga5  1  0.75000000  0.29679902  0.46345117  1
  Ga  Ga6  1  0.75000000  0.79679902  0.03654883  1
  Ga  Ga7  1  0.25000000  0.20320098  0.96345117  1
  Ag  Ag0  1  0.25000000  0.54479154  0.09643662  1
  Ag  Ag1  1  0.75000000  0.45520846  0.90356338  1
  Ag  Ag2  1  0.75000000  0.95520846  0.59643662  1
  Ag  Ag3  1  0.25000000  0.04479154  0.40356338  1
loop_
_geom_bond_atom_site_label_1
_geom_bond_atom_site_label_2
_geom_bond_distance
_geom_bond_site_symmetry_2
Ga0 Ga6 2.628224 1_555
Ga0 Ga6 2.628224 1_455
Ga0 Ga7 2.719993 1_564
Ga0 Tb1 2.976530 1_465
Ga0 Tb1 2.976530 1_565
Ga0 Tb2 3.144448 1_555
Ga0 Tb2 3.144448 1_455
Ga0 Tb0 3.472068 1_554
Ga1 Ga7 2.628224 1_555
Ga1 Ga7 2.628224 1_655
Ga1 Ga6 2.719993 1_546
Ga1 Tb0 2.976530 1_545
Ga1 Tb0 2.976530 1_645
Ga1 Tb3 3.144448 1_655
Ga1 Tb3 3.144448 1_555
Ga1 Tb1 3.472068 1_556
Ga2 Ga4 2.628224 1_655
Ga2 Ga4 2.628224 1_555
Ga2 Ga5 2.719993 1_555
Ga2 Tb3 2.976530 1_555
Ga2 Tb3 2.976530 1_655
Ga2 Tb0 3.144448 1_655
Ga2 Tb0 3.144448 1_555
Ga2 Tb2 3.472068 1_555
Ga3 Ga5 2.628224 1_555
Ga3 Ga5 2.628224 1_455
Ga3 Ga4 2.719993 1_555
Ga3 Tb2 2.976530 1_455
Ga3 Tb2 2.976530 1_555
Ga3 Tb1 3.144448 1_455
Ga3 Tb1 3.144448 1_555
Ga3 Tb3 3.472068 1_555
Ga4 Tb0 3.003435 1_555
Ga4 Tb2 3.041973 1_455
Ga4 Tb2 3.041973 1_555
Ga4 Tb3 3.248421 1_555
Ga5 Tb1 3.003435 1_555
Ga5 Tb3 3.041973 1_655
Ga5 Tb3 3.041973 1_555
Ga5 Tb2 3.248421 1_555
Ga6 Tb2 3.003435 1_555
Ga6 Tb0 3.041973 1_554
Ga6 Tb0 3.041973 1_654
Ga6 Tb1 3.248421 1_565
Ga7 Tb3 3.003435 1_555
Ga7 Tb1 3.041973 1_456
Ga7 Tb1 3.041973 1_556
Ga7 Tb0 3.248421 1_545
Ag0 Ga3 2.678469 1_555
Ag0 Ga0 2.714348 1_555
Ag0 Ga7 2.730135 1_554
Ag0 Ga6 2.849130 1_555
Ag0 Ga6 2.849130 1_455
Ag0 Ag1 2.987880 1_554
Ag0 Ag1 2.987880 1_454
Ag0 Tb0 3.193223 1_554
Ag0 Tb1 3.222302 1_455
Ag0 Tb1 3.222302 1_555
Ag0 Tb2 3.415475 1_455
Ag0 Tb2 3.415475 1_555
Ag1 Ga2 2.678469 1_555
Ag1 Ga1 2.714348 1_555
Ag1 Ga6 2.730135 1_556
Ag1 Ga7 2.849130 1_655
Ag1 Ga7 2.849130 1_555
Ag1 Tb1 3.193223 1_556
Ag1 Tb0 3.222302 1_655
Ag1 Tb0 3.222302 1_555
Ag1 Tb3 3.415475 1_655
Ag1 Tb3 3.415475 1_555
Ag2 Ga1 2.678469 1_565
Ag2 Ga2 2.714348 1_555
Ag2 Ga5 2.730135 1_565
Ag2 Ga4 2.849130 1_555
Ag2 Ga4 2.849130 1_655
Ag2 Ag3 2.987880 1_665
Ag2 Ag3 2.987880 1_565
Ag2 Tb2 3.193223 1_555
Ag2 Tb3 3.222302 1_565
Ag2 Tb3 3.222302 1_665
Ag2 Tb0 3.415475 1_655
Ag2 Tb0 3.415475 1_555
Ag3 Ga0 2.678469 1_545
Ag3 Ga3 2.714348 1_555
Ag3 Ga4 2.730135 1_545
Ag3 Ga5 2.849130 1_555
Ag3 Ga5 2.849130 1_455
Ag3 Tb3 3.193223 1_555
Ag3 Tb2 3.222302 1_445
Ag3 Tb2 3.222302 1_545
Ag3 Tb1 3.415475 1_555
Ag3 Tb1 3.415475 1_455
