# generated using pymatgen
data_Sm6Mg(GeS7)2
_symmetry_space_group_name_H-M   'P 1'
_cell_length_a   10.09723250
_cell_length_b   10.09723250
_cell_length_c   5.80787200
_cell_angle_alpha   90.00000000
_cell_angle_beta   90.00000000
_cell_angle_gamma   120.00000329
_symmetry_Int_Tables_number   1
_chemical_formula_structural   Sm6Mg(GeS7)2
_chemical_formula_sum   'Sm6 Mg1 Ge2 S14'
_cell_volume   512.80513673
_cell_formula_units_Z   1
loop_
 _symmetry_equiv_pos_site_id
 _symmetry_equiv_pos_as_xyz
  1  'x, y, z'
loop_
 _atom_site_type_symbol
 _atom_site_label
 _atom_site_symmetry_multiplicity
 _atom_site_fract_x
 _atom_site_fract_y
 _atom_site_fract_z
 _atom_site_occupancy
  Sm  Sm0  1  0.22605400  0.35937800  0.25161900  1
  Sm  Sm1  1  0.13332300  0.77394600  0.25161900  1
  Sm  Sm2  1  0.64062200  0.86667700  0.25161900  1
  Sm  Sm3  1  0.77597800  0.64323800  0.75441800  1
  Sm  Sm4  1  0.86726000  0.22402200  0.75441800  1
  Sm  Sm5  1  0.35676200  0.13274000  0.75441800  1
  Mg  Mg0  1  0.00000000  0.00000000  0.46831900  1
  Ge  Ge0  1  0.33333300  0.66666700  0.83356400  1
  Ge  Ge1  1  0.66666700  0.33333300  0.33688000  1
  S  S0  1  0.41853600  0.89917400  0.98977900  1
  S  S1  1  0.48063800  0.58146400  0.98977900  1
  S  S2  1  0.10082600  0.51936200  0.98977900  1
  S  S3  1  0.58062600  0.10092200  0.49372400  1
  S  S4  1  0.52029600  0.41937400  0.49372400  1
  S  S5  1  0.89907800  0.47970400  0.49372400  1
  S  S6  1  0.33333300  0.66666700  0.45531600  1
  S  S7  1  0.66666700  0.33333300  0.95801100  1
  S  S8  1  0.90674900  0.15728700  0.23298100  1
  S  S9  1  0.25053800  0.09325100  0.23298100  1
  S  S10  1  0.84271300  0.74946200  0.23298100  1
  S  S11  1  0.09484400  0.84571600  0.71168100  1
  S  S12  1  0.75087200  0.90515600  0.71168100  1
  S  S13  1  0.15428400  0.24912800  0.71168100  1
loop_
_geom_bond_atom_site_label_1
_geom_bond_atom_site_label_2
_geom_bond_distance
_geom_bond_site_symmetry_2
Mg0 S10 2.602381 1_445
Mg0 S9 2.602381 1_555
Mg0 S8 2.602381 1_455
Mg0 S13 2.614118 1_555
Mg0 S12 2.614118 1_445
Mg0 S11 2.614118 1_545
Ge0 S6 2.196816 1_555
Ge0 S0 2.248364 1_555
Ge0 S2 2.248365 1_555
Ge0 S1 2.248372 1_555
Ge1 S7 2.200423 1_554
Ge1 S3 2.247852 1_555
Ge1 S5 2.247853 1_555
Ge1 S4 2.247861 1_555
S0 Sm2 2.860894 1_556
S0 Sm1 2.926367 1_556
S0 Sm5 3.048038 1_565
S1 Sm0 2.860899 1_556
S1 Sm2 2.926366 1_556
S1 Sm3 3.048038 1_555
S2 Sm1 2.860902 1_556
S2 Sm0 2.926359 1_556
S2 Sm4 3.048038 1_455
S3 Sm5 2.869023 1_555
S3 Sm4 2.935377 1_555
S3 Sm2 3.061254 1_545
S4 Sm3 2.869023 1_555
S4 Sm5 2.935377 1_555
S4 Sm0 3.061263 1_555
S5 Sm4 2.869023 1_555
S5 Sm3 2.935378 1_555
S5 Sm1 3.061260 1_655
S6 Sm2 2.973071 1_555
S6 Sm0 2.973071 1_555
S6 Sm1 2.973072 1_555
S7 Sm4 2.992381 1_555
S7 Sm5 2.992388 1_555
S7 Sm3 2.992389 1_555
S8 Sm2 2.820971 1_545
S8 Sm0 2.826913 1_655
S8 Sm4 2.933764 1_554
S8 Sm4 3.170673 1_555
S9 Sm0 2.820976 1_555
S9 Sm1 2.826912 1_545
S9 Sm5 2.933764 1_554
S9 Sm5 3.170673 1_555
S10 Sm1 2.820966 1_655
S10 Sm2 2.826921 1_555
S10 Sm3 2.933764 1_554
S10 Sm3 3.170673 1_555
S11 Sm5 2.791138 1_565
S11 Sm3 2.832877 1_455
S11 Sm1 2.845551 1_555
S11 Sm1 3.285040 1_556
S12 Sm3 2.791138 1_555
S12 Sm4 2.832877 1_565
S12 Sm2 2.845554 1_555
S12 Sm2 3.285043 1_556
S13 Sm4 2.791138 1_455
S13 Sm5 2.832877 1_555
S13 Sm0 2.845553 1_555
S13 Sm0 3.285042 1_556
