# generated using pymatgen
data_Mg14TiC
_symmetry_space_group_name_H-M   'P 1'
_cell_length_a   6.28823802
_cell_length_b   6.28823753
_cell_length_c   9.75890918
_cell_angle_alpha   90.00000000
_cell_angle_beta   90.00000000
_cell_angle_gamma   120.00000260
_symmetry_Int_Tables_number   1
_chemical_formula_structural   Mg14TiC
_chemical_formula_sum   'Mg14 Ti1 C1'
_cell_volume   334.18719625
_cell_formula_units_Z   1
loop_
 _symmetry_equiv_pos_site_id
 _symmetry_equiv_pos_as_xyz
  1  'x, y, z'
loop_
 _atom_site_type_symbol
 _atom_site_label
 _atom_site_symmetry_multiplicity
 _atom_site_fract_x
 _atom_site_fract_y
 _atom_site_fract_z
 _atom_site_occupancy
  Mg  Mg0  1  0.17705166  0.83852533  0.12500000  1
  Mg  Mg1  1  0.15946228  0.82973064  0.62500000  1
  Mg  Mg2  1  0.66147467  0.32294834  0.12500000  1
  Mg  Mg3  1  0.67026936  0.34053772  0.62500000  1
  Mg  Mg4  1  0.66147467  0.83852533  0.12500000  1
  Mg  Mg5  1  0.67026936  0.82973064  0.62500000  1
  Mg  Mg6  1  0.32257356  0.17742644  0.38982305  1
  Mg  Mg7  1  0.32257356  0.17742644  0.86017695  1
  Mg  Mg8  1  0.32257356  0.64514812  0.38982305  1
  Mg  Mg9  1  0.32257356  0.64514812  0.86017695  1
  Mg  Mg10  1  0.85485188  0.17742644  0.38982305  1
  Mg  Mg11  1  0.85485188  0.17742644  0.86017695  1
  Mg  Mg12  1  0.83333300  0.66666700  0.36725775  1
  Mg  Mg13  1  0.83333300  0.66666700  0.88274225  1
  Ti  Ti0  1  0.16666700  0.33333300  0.12500000  1
  C  C0  1  0.16666700  0.33333300  0.62500000  1
loop_
_geom_bond_atom_site_label_1
_geom_bond_atom_site_label_2
_geom_bond_distance
_geom_bond_site_symmetry_2
Mg0 Mg13 3.015459 1_454
Mg0 Mg12 3.015459 1_455
Mg0 Mg2 3.046167 1_565
Mg0 Mg4 3.046167 1_555
Mg0 Ti0 3.144627 1_555
Mg0 Ti0 3.144627 1_565
Mg0 Mg9 3.179277 1_554
Mg0 Mg8 3.179277 1_555
Mg0 Mg7 3.179283 1_564
Mg0 Mg6 3.179283 1_565
Mg0 Mg2 3.242071 1_455
Mg0 Mg4 3.242071 1_455
Mg1 Mg8 2.976089 1_555
Mg1 Mg9 2.976089 1_555
Mg1 Mg6 2.976096 1_565
Mg1 Mg7 2.976096 1_565
Mg1 Mg3 3.076161 1_455
Mg1 Mg5 3.076162 1_455
Mg1 Mg12 3.079110 1_455
Mg1 Mg13 3.079110 1_455
Mg1 Mg3 3.212076 1_565
Mg1 Mg5 3.212077 1_555
Mg2 Mg4 3.046167 1_545
Mg2 Ti0 3.144628 1_655
Mg2 Ti0 3.144628 1_555
Mg2 Mg7 3.179283 1_554
Mg2 Mg6 3.179283 1_555
Mg2 Mg4 3.242071 1_555
Mg3 Mg6 2.976096 1_555
Mg3 Mg7 2.976096 1_555
Mg3 Mg5 3.076161 1_555
Mg3 Mg5 3.212076 1_545
Mg4 Ti0 3.144627 1_555
Mg4 Ti0 3.144627 1_665
Mg4 Mg9 3.179283 1_554
Mg4 Mg8 3.179283 1_555
Mg5 Mg9 2.976095 1_555
Mg5 Mg8 2.976095 1_555
Mg6 Ti0 3.092323 1_555
Mg7 Ti0 3.092323 1_556
Mg8 Ti0 3.092329 1_555
Mg9 Ti0 3.092329 1_556
Mg10 Mg3 2.976089 1_555
Mg10 Mg5 2.976095 1_545
Mg10 Ti0 3.092329 1_655
Mg10 Mg12 3.153999 1_545
Mg10 Mg12 3.153999 1_555
Mg10 Mg2 3.179277 1_555
Mg10 Mg4 3.179283 1_545
Mg11 Mg3 2.976089 1_555
Mg11 Mg5 2.976095 1_545
Mg11 Ti0 3.092329 1_656
Mg11 Mg13 3.153999 1_545
Mg11 Mg13 3.153999 1_555
Mg11 Mg2 3.179277 1_556
Mg11 Mg4 3.179283 1_546
Mg12 Mg4 3.015452 1_555
Mg12 Mg2 3.015459 1_555
Mg12 Mg5 3.079104 1_555
Mg12 Mg3 3.079110 1_555
Mg12 Mg6 3.153999 1_665
Mg12 Mg6 3.153999 1_555
Mg12 Mg8 3.153999 1_655
Mg12 Mg8 3.153999 1_555
Mg13 Mg4 3.015452 1_556
Mg13 Mg2 3.015459 1_556
Mg13 Mg5 3.079104 1_555
Mg13 Mg3 3.079110 1_555
Mg13 Mg7 3.153999 1_665
Mg13 Mg7 3.153999 1_555
Mg13 Mg9 3.153999 1_555
Mg13 Mg9 3.153999 1_655
C0 Mg6 2.854955 1_555
C0 Mg7 2.854955 1_555
C0 Mg8 2.854962 1_555
C0 Mg9 2.854962 1_555
C0 Mg10 2.854962 1_455
C0 Mg11 2.854962 1_455
