# generated using pymatgen
data_Mg9Si5
_symmetry_space_group_name_H-M   'P 1'
_cell_length_a   6.93146900
_cell_length_b   7.90949246
_cell_length_c   11.38170845
_cell_angle_alpha   97.31372963
_cell_angle_beta   86.92727001
_cell_angle_gamma   115.63944606
_symmetry_Int_Tables_number   1
_chemical_formula_structural   Mg9Si5
_chemical_formula_sum   'Mg18 Si10'
_cell_volume   557.97583283
_cell_formula_units_Z   2
loop_
 _symmetry_equiv_pos_site_id
 _symmetry_equiv_pos_as_xyz
  1  'x, y, z'
loop_
 _atom_site_type_symbol
 _atom_site_label
 _atom_site_symmetry_multiplicity
 _atom_site_fract_x
 _atom_site_fract_y
 _atom_site_fract_z
 _atom_site_occupancy
  Mg  Mg0  1  0.61949300  0.88310800  0.70077200  1
  Mg  Mg1  1  0.28257300  0.89508400  0.51154800  1
  Mg  Mg2  1  0.78003800  0.22342200  0.57753600  1
  Mg  Mg3  1  0.05535400  0.41651500  0.37922900  1
  Mg  Mg4  1  0.29213300  0.27144900  0.57282700  1
  Mg  Mg5  1  0.52782100  0.64976800  0.45665700  1
  Mg  Mg6  1  0.32998500  0.99713700  0.14313100  1
  Mg  Mg7  1  0.74331300  0.10017200  0.95295300  1
  Mg  Mg8  1  0.13062700  0.50554400  0.06351300  1
  Mg  Mg9  1  0.24493400  0.84064300  0.87757000  1
  Mg  Mg10  1  0.62903300  0.79458600  0.09310600  1
  Mg  Mg11  1  0.68682300  0.46032700  0.00447200  1
  Mg  Mg12  1  0.68819500  0.01296800  0.33701300  1
  Mg  Mg13  1  0.84319500  0.63052300  0.62540900  1
  Mg  Mg14  1  0.90921800  0.71889700  0.28019300  1
  Mg  Mg15  1  0.94814800  0.41541900  0.80777700  1
  Mg  Mg16  1  0.41992300  0.41406900  0.21936000  1
  Mg  Mg17  1  0.41528100  0.50591100  0.82095100  1
  Si  Si0  1  0.00523900  0.13242700  0.16686000  1
  Si  Si1  1  0.91384700  0.94710200  0.50495300  1
  Si  Si2  1  0.07423600  0.08437900  0.79061600  1
  Si  Si3  1  0.24167100  0.20433200  0.98848500  1
  Si  Si4  1  0.31514500  0.72358600  0.27600700  1
  Si  Si5  1  0.49360600  0.17638600  0.76305800  1
  Si  Si6  1  0.74350300  0.28783500  0.18808600  1
  Si  Si7  1  0.81919700  0.77918500  0.86397300  1
  Si  Si8  1  0.21320000  0.57897400  0.62885800  1
  Si  Si9  1  0.63421600  0.35027800  0.40482500  1
loop_
_geom_bond_atom_site_label_1
_geom_bond_atom_site_label_2
_geom_bond_distance
_geom_bond_site_symmetry_2
Mg0 Si7 2.773297 1_555
Mg0 Si5 2.812751 1_565
Mg0 Si8 2.875880 1_555
Mg0 Si1 2.879649 1_555
Mg0 Si2 3.017258 1_665
Mg0 Mg7 3.107543 1_565
Mg1 Si1 2.765059 1_455
Mg1 Si8 2.829481 1_555
Mg1 Si4 2.890025 1_555
Mg2 Si9 2.735945 1_555
Mg2 Si1 2.744408 1_545
Mg2 Si5 2.765903 1_555
Mg2 Si8 3.118840 1_655
Mg3 Si4 2.690091 1_555
Mg3 Si9 2.739473 1_455
Mg3 Si6 2.911657 1_455
Mg3 Si0 3.007295 1_555
Mg3 Si8 3.017899 1_555
Mg4 Si8 2.709574 1_555
Mg4 Si1 2.818623 1_445
Mg4 Si9 2.864508 1_555
Mg4 Si5 2.975034 1_555
Mg4 Si2 3.035361 1_555
Mg5 Si1 2.715740 1_555
Mg5 Si9 2.759086 1_555
Mg5 Si8 2.770407 1_555
Mg5 Si4 2.849047 1_555
Mg6 Si4 2.757357 1_555
Mg6 Si3 2.806526 1_564
Mg6 Si6 2.813958 1_565
Mg6 Si0 2.868906 1_565
Mg6 Mg7 3.364698 1_564
Mg7 Si7 2.862162 1_545
Mg7 Si6 2.890093 1_556
Mg7 Si2 2.902719 1_655
Mg7 Si0 3.033734 1_656
Mg7 Si5 3.109058 1_555
Mg7 Si3 3.221322 1_655
Mg7 Mg9 3.258217 1_545
Mg7 Mg8 3.310101 1_656
Mg8 Si4 2.796460 1_555
Mg8 Si3 2.827748 1_554
Mg8 Si6 2.896684 1_455
Mg8 Si0 3.066408 1_555
Mg9 Si7 2.785128 1_455
Mg9 Si5 2.898417 1_565
Mg9 Si2 2.946393 1_565
Mg9 Si3 2.999607 1_565
Mg9 Si8 3.244421 1_555
Mg10 Si4 2.852602 1_555
Mg10 Mg7 2.864153 1_564
Mg10 Si7 2.871077 1_554
Mg10 Si0 2.877198 1_665
Mg11 Si6 2.767850 1_555
Mg11 Si3 2.865864 1_554
Mg11 Si7 2.937087 1_554
Mg11 Mg7 3.021144 1_554
Mg12 Si4 2.659549 1_545
Mg12 Si1 2.765983 1_545
Mg12 Si0 2.772244 1_655
Mg12 Si6 2.809621 1_555
Mg12 Si9 2.856973 1_555
Mg13 Si8 2.768605 1_655
Mg13 Si7 2.844452 1_555
Mg13 Si1 2.851353 1_555
Mg13 Si9 3.083681 1_555
Mg14 Si4 2.795739 1_655
Mg14 Si1 2.930224 1_555
Mg14 Si6 3.142104 1_555
Mg14 Si9 3.178026 1_555
Mg15 Si8 2.721869 1_655
Mg15 Si5 2.920960 1_555
Mg15 Mg7 2.949086 1_555
Mg15 Si2 3.080530 1_655
Mg16 Si0 2.808092 1_555
Mg16 Si6 2.813550 1_555
Mg16 Si4 2.832504 1_555
Mg16 Si9 2.858797 1_555
Mg16 Si3 2.940755 1_554
Mg17 Si7 2.718570 1_555
Mg17 Si5 2.875950 1_555
Mg17 Si8 2.902861 1_555
Mg17 Si3 3.033453 1_555
Mg17 Si2 3.130053 1_555
Si0 Si3 2.502324 1_554
Si0 Si6 2.582242 1_455
Si2 Si3 2.470275 1_555
Si2 Si7 2.512203 1_445
Si2 Si5 2.684664 1_555
Si6 Si9 2.591603 1_555
