# generated using pymatgen
data_Co3P4H48(NO15)2
_symmetry_space_group_name_H-M   'P 1'
_cell_length_a   6.19672752
_cell_length_b   7.04126300
_cell_length_c   17.78336569
_cell_angle_alpha   101.41846615
_cell_angle_beta   90.87874117
_cell_angle_gamma   90.00000000
_symmetry_Int_Tables_number   1
_chemical_formula_structural   Co3P4H48(NO15)2
_chemical_formula_sum   'Co3 P4 H48 N2 O30'
_cell_volume   760.48691717
_cell_formula_units_Z   1
loop_
 _symmetry_equiv_pos_site_id
 _symmetry_equiv_pos_as_xyz
  1  'x, y, z'
loop_
 _atom_site_type_symbol
 _atom_site_label
 _atom_site_symmetry_multiplicity
 _atom_site_fract_x
 _atom_site_fract_y
 _atom_site_fract_z
 _atom_site_occupancy
  Co  Co0  1  0.24926200  0.83347000  0.66694100  1
  Co  Co1  1  0.75073800  0.16653000  0.33305900  1
  Co  Co2  1  0.00000000  0.50000000  0.00000000  1
  P  P0  1  0.65214900  0.95106100  0.90212300  1
  P  P1  1  0.34785100  0.04893900  0.09787700  1
  P  P2  1  0.62982600  0.29560700  0.59121400  1
  P  P3  1  0.37017400  0.70439300  0.40878600  1
  H  H0  1  0.67836100  0.99122200  0.98244500  1
  H  H1  1  0.32163900  0.00877800  0.01755500  1
  H  H2  1  0.42007600  0.27967500  0.55935100  1
  H  H3  1  0.57992400  0.72032500  0.44064900  1
  H  H4  1  0.63024200  0.91360400  0.59464800  1
  H  H5  1  0.63024200  0.68104500  0.59464800  1
  H  H6  1  0.36975800  0.08639600  0.40535200  1
  H  H7  1  0.36975800  0.31895500  0.40535200  1
  H  H8  1  0.20265900  0.96157500  0.53355100  1
  H  H9  1  0.20265900  0.57197600  0.53355100  1
  H  H10  1  0.79734100  0.03842500  0.46644900  1
  H  H11  1  0.79734100  0.42802400  0.46644900  1
  H  H12  1  0.00533500  0.04640900  0.58504300  1
  H  H13  1  0.00533500  0.53863400  0.58504300  1
  H  H14  1  0.99466500  0.95359100  0.41495700  1
  H  H15  1  0.99466500  0.46136600  0.41495700  1
  H  H16  1  0.80809200  0.84490200  0.68980500  1
  H  H17  1  0.19190800  0.15509800  0.31019500  1
  H  H18  1  0.92079100  0.88743400  0.77486800  1
  H  H19  1  0.07920900  0.11256600  0.22513200  1
  H  H20  1  0.44291300  0.53499100  0.71514900  1
  H  H21  1  0.44291300  0.18015700  0.71514900  1
  H  H22  1  0.55708700  0.46500900  0.28485100  1
  H  H23  1  0.55708700  0.81984300  0.28485100  1
  H  H24  1  0.41729400  0.69455000  0.79193300  1
  H  H25  1  0.41729400  0.09738300  0.79193300  1
  H  H26  1  0.58270600  0.30545000  0.20806700  1
  H  H27  1  0.58270600  0.90261700  0.20806700  1
  H  H28  1  0.96019200  0.86350200  0.08940600  1
  H  H29  1  0.96019200  0.22590400  0.08940600  1
  H  H30  1  0.03980800  0.13649800  0.91059400  1
  H  H31  1  0.03980800  0.77409600  0.91059400  1
  H  H32  1  0.71641300  0.78810100  0.08240100  1
  H  H33  1  0.71641300  0.29430000  0.08240100  1
  H  H34  1  0.28358700  0.21189900  0.91759900  1
  H  H35  1  0.28358700  0.70570000  0.91759900  1
  H  H36  1  0.65477100  0.56974300  0.90754800  1
  H  H37  1  0.65477100  0.33780500  0.90754800  1
  H  H38  1  0.34522900  0.43025700  0.09245200  1
  H  H39  1  0.34522900  0.66219500  0.09245200  1
  H  H40  1  0.84676200  0.36547500  0.73095000  1
  H  H41  1  0.15323800  0.63452500  0.26905000  1
  H  H42  1  0.08219400  0.25995700  0.75643900  1
  H  H43  1  0.08219400  0.49648200  0.75643900  1
  H  H44  1  0.91780600  0.74004300  0.24356100  1
  H  H45  1  0.91780600  0.50351800  0.24356100  1
  H  H46  1  0.93968200  0.41171800  0.82343600  1
  H  H47  1  0.06031800  0.58828200  0.17656400  1
  N  N0  1  0.98644000  0.38327500  0.76655100  1
  N  N1  1  0.01356000  0.61672500  0.23344900  1
  O  O0  1  0.52620500  0.75798700  0.88059300  1
  O  O1  1  0.52620500  0.12260500  0.88059300  1
  O  O2  1  0.47379500  0.24201300  0.11940700  1
  O  O3  1  0.47379500  0.87739500  0.11940700  1
  O  O4  1  0.88350000  0.93514500  0.87028900  1
  O  O5  1  0.11650000  0.06485500  0.12971100  1
  O  O6  1  0.60375800  0.33983800  0.67967600  1
  O  O7  1  0.39624200  0.66016200  0.32032400  1
  O  O8  1  0.74202800  0.46411000  0.56294600  1
  O  O9  1  0.74202800  0.09883600  0.56294600  1
  O  O10  1  0.25797200  0.53589000  0.43705400  1
  O  O11  1  0.25797200  0.90116400  0.43705400  1
  O  O12  1  0.58053500  0.81160900  0.62321700  1
  O  O13  1  0.41946500  0.18839100  0.37678300  1
  O  O14  1  0.15947500  0.00723900  0.58807700  1
  O  O15  1  0.15947500  0.58083800  0.58807700  1
  O  O16  1  0.84052500  0.99276100  0.41192300  1
  O  O17  1  0.84052500  0.41916200  0.41192300  1
  O  O18  1  0.94794400  0.85912000  0.71823900  1
  O  O19  1  0.05205600  0.14088000  0.28176100  1
  O  O20  1  0.34604800  0.64195800  0.74101100  1
  O  O21  1  0.34604800  0.09905300  0.74101100  1
  O  O22  1  0.65395200  0.35804200  0.25898900  1
  O  O23  1  0.65395200  0.90094700  0.25898900  1
  O  O24  1  0.86767300  0.74809600  0.06970400  1
  O  O25  1  0.86767300  0.32160800  0.06970400  1
  O  O26  1  0.13232700  0.25190400  0.93029600  1
  O  O27  1  0.13232700  0.67839200  0.93029600  1
  O  O28  1  0.74371200  0.45918000  0.91835900  1
  O  O29  1  0.25628800  0.54082000  0.08164100  1
loop_
_geom_bond_atom_site_label_1
_geom_bond_atom_site_label_2
_geom_bond_distance
_geom_bond_site_symmetry_2
Co0 O18 2.082838 1_455
Co0 O15 2.104530 1_555
Co0 O14 2.104535 1_565
Co0 O20 2.142952 1_555
Co0 O21 2.142957 1_565
Co0 O12 2.200883 1_555
Co1 O19 2.082838 1_655
Co1 O17 2.104530 1_555
Co1 O16 2.104535 1_545
Co1 O22 2.142952 1_555
Co1 O23 2.142957 1_545
Co1 O13 2.200883 1_555
Co2 O27 2.105803 1_554
Co2 O25 2.105803 1_455
Co2 O24 2.105803 1_455
Co2 O26 2.105803 1_554
Co2 O29 2.115832 1_555
Co2 O28 2.115832 1_454
H0 P0 1.406987 1_555
H1 P1 1.406987 1_555
H2 P2 1.405447 1_555
H3 P3 1.405447 1_555
H4 O12 1.008978 1_555
H4 O9 1.673891 1_565
H5 O12 1.008978 1_555
H5 O8 1.673897 1_555
H6 O13 1.008978 1_555
H6 O11 1.673891 1_545
H7 O13 1.008978 1_555
H7 O10 1.673897 1_555
H8 O14 0.999869 1_565
H8 O11 1.724019 1_555
H9 O15 0.999869 1_555
H9 O10 1.724019 1_555
H10 O16 0.999869 1_545
H10 O9 1.724019 1_555
H11 O17 0.999869 1_555
H11 O8 1.724019 1_555
H12 O14 0.997812 1_555
H12 O9 1.729368 1_455
H13 O15 0.997812 1_555
H13 O8 1.729368 1_455
H14 O16 0.997812 1_555
H14 O11 1.729368 1_655
H15 O17 0.997812 1_555
H15 O10 1.729368 1_655
H16 O18 0.991595 1_555
H17 O19 0.991595 1_555
H18 O18 1.003951 1_555
H18 O4 1.682873 1_555
H19 O19 1.003951 1_555
H19 O5 1.682873 1_555
H20 O20 1.005193 1_555
H21 O21 1.005188 1_555
H22 O22 1.005193 1_555
H23 O23 1.005188 1_555
H24 O20 1.003521 1_555
H24 O0 1.682085 1_555
H25 O21 1.003521 1_555
H25 O1 1.682085 1_555
H26 O22 1.003521 1_555
H26 O2 1.682085 1_555
H27 O23 1.003521 1_555
H27 O3 1.682085 1_555
H28 O24 0.996434 1_555
H28 O5 1.743091 1_665
H29 O25 0.996434 1_555
H29 O5 1.743096 1_655
H30 O26 0.996434 1_555
H30 O4 1.743091 1_445
H31 O27 0.996434 1_555
H31 O4 1.743096 1_455
H32 O24 0.995089 1_555
H32 O3 1.719082 1_555
H33 O25 0.995089 1_555
H33 O2 1.719080 1_555
H34 O26 0.995089 1_555
H34 O1 1.719082 1_555
H35 O27 0.995089 1_555
H35 O0 1.719080 1_555
H36 O28 1.001399 1_555
H36 O0 1.691518 1_555
H37 O28 1.001405 1_555
H37 O1 1.691524 1_555
H38 O29 1.001399 1_555
H38 O2 1.691518 1_555
H39 O29 1.001405 1_555
H39 O3 1.691524 1_555
H40 N0 1.057107 1_555
H41 N1 1.057107 1_555
H42 N0 1.039150 1_455
H43 N0 1.039156 1_455
H44 N1 1.039150 1_655
H45 N1 1.039156 1_655
H46 N0 1.037393 1_555
H47 N1 1.037393 1_555
O0 P0 1.545516 1_555
O1 P0 1.545516 1_545
O2 P1 1.545516 1_555
O3 P1 1.545516 1_565
O4 P0 1.545343 1_555
O5 P1 1.545343 1_555
O6 P2 1.552965 1_555
O7 P3 1.552965 1_555
O8 P2 1.546198 1_555
O9 P2 1.546198 1_555
O10 P3 1.546198 1_555
O11 P3 1.546198 1_555
