# generated using pymatgen
data_CaMnO2
_symmetry_space_group_name_H-M   'P 1'
_cell_length_a   3.21286000
_cell_length_b   5.72564200
_cell_length_c   11.40294800
_cell_angle_alpha   90.00000000
_cell_angle_beta   90.00000000
_cell_angle_gamma   90.00000000
_symmetry_Int_Tables_number   1
_chemical_formula_structural   CaMnO2
_chemical_formula_sum   'Ca4 Mn4 O8'
_cell_volume   209.76505266
_cell_formula_units_Z   4
loop_
 _symmetry_equiv_pos_site_id
 _symmetry_equiv_pos_as_xyz
  1  'x, y, z'
loop_
 _atom_site_type_symbol
 _atom_site_label
 _atom_site_symmetry_multiplicity
 _atom_site_fract_x
 _atom_site_fract_y
 _atom_site_fract_z
 _atom_site_occupancy
  Ca  Ca0  1  0.25000000  0.99547600  0.13544100  1
  Ca  Ca1  1  0.75000000  0.00452400  0.86455900  1
  Ca  Ca2  1  0.75000000  0.49547600  0.36455900  1
  Ca  Ca3  1  0.25000000  0.50452400  0.63544100  1
  Mn  Mn0  1  0.25000000  0.49095700  0.11181300  1
  Mn  Mn1  1  0.75000000  0.50904300  0.88818700  1
  Mn  Mn2  1  0.75000000  0.99095700  0.38818700  1
  Mn  Mn3  1  0.25000000  0.00904300  0.61181300  1
  O  O0  1  0.75000000  0.27373200  0.19471300  1
  O  O1  1  0.25000000  0.72626800  0.80528700  1
  O  O2  1  0.25000000  0.77373200  0.30528700  1
  O  O3  1  0.75000000  0.22626800  0.69471300  1
  O  O4  1  0.75000000  0.73476400  0.04842700  1
  O  O5  1  0.25000000  0.26523600  0.95157300  1
  O  O6  1  0.75000000  0.76523600  0.54842700  1
  O  O7  1  0.25000000  0.23476400  0.45157300  1
loop_
_geom_bond_atom_site_label_1
_geom_bond_atom_site_label_2
_geom_bond_distance
_geom_bond_site_symmetry_2
Ca0 O2 2.315801 1_555
Ca0 O0 2.361291 1_465
Ca0 O0 2.361291 1_565
Ca0 O4 2.406947 1_455
Ca0 O4 2.406947 1_555
Ca0 O5 2.604135 1_564
Ca1 O3 2.315801 1_555
Ca1 O1 2.361291 1_645
Ca1 O1 2.361291 1_545
Ca1 O5 2.406947 1_555
Ca1 O5 2.406947 1_655
Ca1 O4 2.604135 1_546
Ca2 O0 2.315801 1_555
Ca2 O2 2.361291 1_555
Ca2 O2 2.361291 1_655
Ca2 O7 2.406947 1_655
Ca2 O7 2.406947 1_555
Ca2 O6 2.604135 1_555
Ca3 O1 2.315801 1_555
Ca3 O3 2.361291 1_555
Ca3 O3 2.361291 1_455
Ca3 O6 2.406947 1_555
Ca3 O6 2.406947 1_455
Ca3 O7 2.604135 1_555
Mn0 O5 2.238076 1_554
Mn0 O0 2.240790 1_455
Mn0 O0 2.240790 1_555
Mn0 O4 2.247603 1_555
Mn0 O4 2.247603 1_455
Mn0 O2 2.736528 1_555
Mn1 O4 2.238076 1_556
Mn1 O1 2.240790 1_555
Mn1 O1 2.240790 1_655
Mn1 O5 2.247603 1_655
Mn1 O5 2.247603 1_555
Mn1 O3 2.736528 1_555
Mn2 O6 2.238076 1_555
Mn2 O2 2.240790 1_655
Mn2 O2 2.240790 1_555
Mn2 O7 2.247603 1_665
Mn2 O7 2.247603 1_565
Mn2 O0 2.736528 1_565
Mn3 O7 2.238076 1_555
Mn3 O3 2.240790 1_555
Mn3 O3 2.240790 1_455
Mn3 O6 2.247603 1_445
Mn3 O6 2.247603 1_545
Mn3 O1 2.736528 1_545
