# generated using pymatgen
data_CdCu2GeTe4
_symmetry_space_group_name_H-M   'P 1'
_cell_length_a   7.52622365
_cell_length_b   7.52622365
_cell_length_c   7.52622365
_cell_angle_alpha   131.20672642
_cell_angle_beta   131.20672642
_cell_angle_gamma   71.48483931
_symmetry_Int_Tables_number   1
_chemical_formula_structural   CdCu2GeTe4
_chemical_formula_sum   'Cd1 Cu2 Ge1 Te4'
_cell_volume   236.13921913
_cell_formula_units_Z   1
loop_
 _symmetry_equiv_pos_site_id
 _symmetry_equiv_pos_as_xyz
  1  'x, y, z'
loop_
 _atom_site_type_symbol
 _atom_site_label
 _atom_site_symmetry_multiplicity
 _atom_site_fract_x
 _atom_site_fract_y
 _atom_site_fract_z
 _atom_site_occupancy
  Cd  Cd0  1  0.00000000  0.00000000  0.00000000  1
  Cu  Cu0  1  0.75000000  0.25000000  0.50000000  1
  Cu  Cu1  1  0.25000000  0.75000000  0.50000000  1
  Ge  Ge0  1  0.50000000  0.50000000  0.00000000  1
  Te  Te0  1  0.87474800  0.40144000  0.00000000  1
  Te  Te1  1  0.40144000  0.87474800  0.00000000  1
  Te  Te2  1  0.12525200  0.12525200  0.52669100  1
  Te  Te3  1  0.59856000  0.59856000  0.47330900  1
loop_
_geom_bond_atom_site_label_1
_geom_bond_atom_site_label_2
_geom_bond_distance
_geom_bond_site_symmetry_2
Cd0 Te2 2.864984 1_555
Cd0 Te1 2.864991 1_545
Cd0 Te0 2.864991 1_455
Cd0 Te3 2.864991 1_444
Cu0 Te3 2.591336 1_555
Cu0 Te1 2.591339 1_545
Cu0 Te0 2.591339 1_556
Cu0 Te2 2.591342 1_655
Cu1 Te3 2.591336 1_555
Cu1 Te0 2.591339 1_455
Cu1 Te1 2.591339 1_556
Cu1 Te2 2.591342 1_565
Ge0 Te2 2.678872 1_554
Ge0 Te1 2.678873 1_555
Ge0 Te0 2.678873 1_555
Ge0 Te3 2.678880 1_555
