# generated using pymatgen
data_KNdTiO4
_symmetry_space_group_name_H-M   'P 1'
_cell_length_a   5.44195200
_cell_length_b   5.47994900
_cell_length_c   13.41183900
_cell_angle_alpha   90.00000000
_cell_angle_beta   90.00000000
_cell_angle_gamma   90.00000000
_symmetry_Int_Tables_number   1
_chemical_formula_structural   KNdTiO4
_chemical_formula_sum   'K4 Nd4 Ti4 O16'
_cell_volume   399.96275839
_cell_formula_units_Z   4
loop_
 _symmetry_equiv_pos_site_id
 _symmetry_equiv_pos_as_xyz
  1  'x, y, z'
loop_
 _atom_site_type_symbol
 _atom_site_label
 _atom_site_symmetry_multiplicity
 _atom_site_fract_x
 _atom_site_fract_y
 _atom_site_fract_z
 _atom_site_occupancy
  K  K0  1  0.25000000  0.49163900  0.59279400  1
  K  K1  1  0.75000000  0.50836100  0.40720600  1
  K  K2  1  0.25000000  0.99163900  0.40720600  1
  K  K3  1  0.75000000  0.00836100  0.59279400  1
  Nd  Nd0  1  0.25000000  0.98541900  0.10435200  1
  Nd  Nd1  1  0.75000000  0.01458100  0.89564800  1
  Nd  Nd2  1  0.25000000  0.48541900  0.89564800  1
  Nd  Nd3  1  0.75000000  0.51458100  0.10435200  1
  Ti  Ti0  1  0.25000000  0.49716600  0.25410400  1
  Ti  Ti1  1  0.75000000  0.50283400  0.74589600  1
  Ti  Ti2  1  0.25000000  0.99716600  0.74589600  1
  Ti  Ti3  1  0.75000000  0.00283400  0.25410400  1
  O  O0  1  0.25000000  0.54149000  0.06681300  1
  O  O1  1  0.75000000  0.45851000  0.93318700  1
  O  O2  1  0.25000000  0.04149000  0.93318700  1
  O  O3  1  0.75000000  0.95851000  0.06681300  1
  O  O4  1  0.00000000  0.75000000  0.22947500  1
  O  O5  1  0.00000000  0.25000000  0.77052500  1
  O  O6  1  0.50000000  0.25000000  0.77052500  1
  O  O7  1  0.50000000  0.75000000  0.22947500  1
  O  O8  1  0.25000000  0.98676200  0.61448000  1
  O  O9  1  0.75000000  0.01323800  0.38552000  1
  O  O10  1  0.25000000  0.48676200  0.38552000  1
  O  O11  1  0.75000000  0.51323800  0.61448000  1
  O  O12  1  0.00000000  0.75000000  0.78312200  1
  O  O13  1  0.00000000  0.25000000  0.21687800  1
  O  O14  1  0.50000000  0.25000000  0.21687800  1
  O  O15  1  0.50000000  0.75000000  0.78312200  1
loop_
_geom_bond_atom_site_label_1
_geom_bond_atom_site_label_2
_geom_bond_distance
_geom_bond_site_symmetry_2
K0 O8 2.728793 1_555
K0 O11 2.739035 1_455
K0 O11 2.739035 1_555
K0 O10 2.780054 1_555
K0 O8 2.781946 1_545
K0 O5 3.047356 1_555
K0 O6 3.047356 1_555
K0 O15 3.220473 1_555
K0 O12 3.220473 1_555
K1 O9 2.728793 1_555
K1 O10 2.739035 1_655
K1 O10 2.739035 1_555
K1 O11 2.780054 1_555
K1 O9 2.781946 1_565
K1 O7 3.047356 1_555
K1 O4 3.047356 1_655
K1 O14 3.220473 1_555
K1 O13 3.220473 1_655
K2 O10 2.728793 1_565
K2 O9 2.739035 1_565
K2 O9 2.739035 1_465
K2 O8 2.780054 1_555
K2 O10 2.781946 1_555
K2 O4 3.047356 1_555
K2 O7 3.047356 1_555
K2 O13 3.220473 1_565
K2 O14 3.220473 1_565
K3 O11 2.728793 1_545
K3 O8 2.739035 1_645
K3 O8 2.739035 1_545
K3 O9 2.780054 1_555
K3 O11 2.781946 1_555
K3 O5 3.047356 1_655
K3 O6 3.047356 1_555
K3 O15 3.220473 1_545
K3 O12 3.220473 1_645
Nd0 O2 2.316110 1_564
Nd0 O0 2.484260 1_555
Nd0 O13 2.496144 1_565
Nd0 O14 2.496144 1_565
Nd0 O4 2.516220 1_555
Nd0 O7 2.516220 1_555
Nd0 O3 2.771089 1_455
Nd0 O3 2.771089 1_555
Nd0 O0 3.088552 1_565
Nd1 O3 2.316110 1_546
Nd1 O1 2.484260 1_555
Nd1 O12 2.496144 1_645
Nd1 O15 2.496144 1_545
Nd1 O5 2.516220 1_655
Nd1 O6 2.516220 1_555
Nd1 O2 2.771089 1_555
Nd1 O2 2.771089 1_655
Nd1 O1 3.088552 1_545
Nd2 O0 2.316110 1_556
Nd2 O2 2.484260 1_555
Nd2 O15 2.496144 1_555
Nd2 O12 2.496144 1_555
Nd2 O5 2.516220 1_555
Nd2 O6 2.516220 1_555
Nd2 O1 2.771089 1_455
Nd2 O1 2.771089 1_555
Nd2 O2 3.088552 1_565
Nd3 O1 2.316110 1_554
Nd3 O3 2.484260 1_555
Nd3 O13 2.496144 1_655
Nd3 O14 2.496144 1_555
Nd3 O7 2.516220 1_555
Nd3 O4 2.516220 1_655
Nd3 O0 2.771089 1_555
Nd3 O0 2.771089 1_655
Nd3 O3 3.088552 1_545
O0 Ti0 2.523633 1_555
O1 Ti1 2.523633 1_555
O2 Ti2 2.523633 1_545
O3 Ti3 2.523633 1_565
O4 Ti0 1.969695 1_555
O4 Ti3 1.969695 1_465
O5 Ti2 1.969695 1_545
O5 Ti1 1.969695 1_455
O6 Ti2 1.969695 1_545
O6 Ti1 1.969695 1_555
O7 Ti0 1.969695 1_555
O7 Ti3 1.969695 1_565
O8 Ti2 1.763452 1_555
O9 Ti3 1.763452 1_555
O10 Ti0 1.763452 1_555
O11 Ti1 1.763452 1_555
O12 Ti2 1.983621 1_555
O12 Ti1 1.983621 1_455
O13 Ti3 1.983621 1_455
O13 Ti0 1.983621 1_555
O14 Ti3 1.983621 1_555
O14 Ti0 1.983621 1_555
O15 Ti1 1.983621 1_555
O15 Ti2 1.983621 1_555
