# generated using pymatgen
data_Sr2TbHfO6
_symmetry_space_group_name_H-M   'P 1'
_cell_length_a   8.49821985
_cell_length_b   8.49821985
_cell_length_c   8.49821985
_cell_angle_alpha   90.00000000
_cell_angle_beta   90.00000000
_cell_angle_gamma   90.00000000
_symmetry_Int_Tables_number   1
_chemical_formula_structural   Sr2TbHfO6
_chemical_formula_sum   'Sr8 Tb4 Hf4 O24'
_cell_volume   613.73923329
_cell_formula_units_Z   4
loop_
 _symmetry_equiv_pos_site_id
 _symmetry_equiv_pos_as_xyz
  1  'x, y, z'
loop_
 _atom_site_type_symbol
 _atom_site_label
 _atom_site_symmetry_multiplicity
 _atom_site_fract_x
 _atom_site_fract_y
 _atom_site_fract_z
 _atom_site_occupancy
  Sr  Sr0  1  0.50000000  0.50000000  0.50000000  1
  Sr  Sr1  1  -0.00000000  0.00000000  0.00000000  1
  Sr  Sr2  1  -0.00000000  0.00000000  0.50000000  1
  Sr  Sr3  1  -0.00000000  0.50000000  0.00000000  1
  Sr  Sr4  1  0.50000000  0.00000000  0.00000000  1
  Sr  Sr5  1  0.50000000  0.50000000  0.00000000  1
  Sr  Sr6  1  0.50000000  0.00000000  0.50000000  1
  Sr  Sr7  1  -0.00000000  0.50000000  0.50000000  1
  Tb  Tb0  1  0.25000000  0.25000000  0.25000000  1
  Tb  Tb1  1  0.25000000  0.75000000  0.75000000  1
  Tb  Tb2  1  0.75000000  0.25000000  0.75000000  1
  Tb  Tb3  1  0.75000000  0.75000000  0.25000000  1
  Hf  Hf0  1  0.75000000  0.75000000  0.75000000  1
  Hf  Hf1  1  0.75000000  0.25000000  0.25000000  1
  Hf  Hf2  1  0.25000000  0.75000000  0.25000000  1
  Hf  Hf3  1  0.25000000  0.25000000  0.75000000  1
  O  O0  1  0.21485491  0.29211634  0.51048725  1
  O  O1  1  0.21485491  0.70788366  0.48951275  1
  O  O2  1  0.78514509  0.29211634  0.48951275  1
  O  O3  1  0.78514509  0.70788366  0.51048725  1
  O  O4  1  0.29211634  0.51048725  0.21485491  1
  O  O5  1  0.70788366  0.48951275  0.21485491  1
  O  O6  1  0.29211634  0.48951275  0.78514509  1
  O  O7  1  0.70788366  0.51048725  0.78514509  1
  O  O8  1  0.51048725  0.21485491  0.29211634  1
  O  O9  1  0.48951275  0.21485491  0.70788366  1
  O  O10  1  0.48951275  0.78514509  0.29211634  1
  O  O11  1  0.51048725  0.78514509  0.70788366  1
  O  O12  1  0.28514509  0.20788366  0.98951275  1
  O  O13  1  0.28514509  0.79211634  0.01048725  1
  O  O14  1  0.71485491  0.20788366  0.01048725  1
  O  O15  1  0.71485491  0.79211634  0.98951275  1
  O  O16  1  0.20788366  0.98951275  0.28514509  1
  O  O17  1  0.79211634  0.01048725  0.28514509  1
  O  O18  1  0.20788366  0.01048725  0.71485491  1
  O  O19  1  0.79211634  0.98951275  0.71485491  1
  O  O20  1  0.98951275  0.28514509  0.20788366  1
  O  O21  1  0.01048725  0.28514509  0.79211634  1
  O  O22  1  0.01048725  0.71485491  0.20788366  1
  O  O23  1  0.98951275  0.71485491  0.79211634  1
loop_
_geom_bond_atom_site_label_1
_geom_bond_atom_site_label_2
_geom_bond_distance
_geom_bond_site_symmetry_2
Hf0 O3 2.088131 1_555
Hf0 O7 2.088131 1_555
Hf0 O11 2.088131 1_555
Hf0 O15 2.088131 1_555
Hf0 O19 2.088131 1_555
Hf0 O23 2.088131 1_555
Hf1 O8 2.088131 1_555
Hf1 O5 2.088131 1_555
Hf1 O14 2.088131 1_555
Hf1 O2 2.088131 1_555
Hf1 O17 2.088131 1_555
Hf1 O20 2.088131 1_555
Hf2 O13 2.088131 1_555
Hf2 O4 2.088131 1_555
Hf2 O1 2.088131 1_555
Hf2 O10 2.088131 1_555
Hf2 O22 2.088131 1_555
Hf2 O16 2.088131 1_555
Hf3 O0 2.088131 1_555
Hf3 O21 2.088131 1_555
Hf3 O6 2.088131 1_555
Hf3 O18 2.088131 1_555
Hf3 O9 2.088131 1_555
Hf3 O12 2.088131 1_555
O0 Tb0 2.262228 1_555
O0 Sr7 2.542207 1_555
O0 Sr0 3.000164 1_555
O0 Sr2 3.082928 1_555
O1 Tb1 2.262228 1_555
O1 Sr7 2.542207 1_555
O1 Sr0 3.000164 1_555
O1 Sr2 3.082928 1_565
O2 Tb2 2.262228 1_555
O2 Sr7 2.542207 1_655
O2 Sr0 3.000164 1_555
O2 Sr2 3.082928 1_655
O3 Tb3 2.262228 1_555
O3 Sr7 2.542207 1_655
O3 Sr0 3.000164 1_555
O3 Sr2 3.082928 1_665
O4 Tb0 2.262228 1_555
O4 Sr5 2.542207 1_555
O4 Sr0 3.000164 1_555
O4 Sr3 3.082928 1_555
O5 Tb3 2.262228 1_555
O5 Sr5 2.542207 1_555
O5 Sr0 3.000164 1_555
O5 Sr3 3.082928 1_655
O6 Tb1 2.262228 1_555
O6 Sr5 2.542207 1_556
O6 Sr0 3.000164 1_555
O6 Sr3 3.082928 1_556
O7 Tb2 2.262228 1_555
O7 Sr5 2.542207 1_556
O7 Sr0 3.000164 1_555
O7 Sr3 3.082928 1_656
O8 Tb0 2.262228 1_555
O8 Sr6 2.542207 1_555
O8 Sr0 3.000164 1_555
O8 Sr4 3.082928 1_555
O9 Tb2 2.262228 1_555
O9 Sr6 2.542207 1_555
O9 Sr0 3.000164 1_555
O9 Sr4 3.082928 1_556
O10 Tb3 2.262228 1_555
O10 Sr6 2.542207 1_565
O10 Sr0 3.000164 1_555
O10 Sr4 3.082928 1_565
O11 Tb1 2.262228 1_555
O11 Sr6 2.542207 1_565
O11 Sr0 3.000164 1_555
O11 Sr4 3.082928 1_566
O12 Tb0 2.262228 1_556
O12 Sr4 2.542207 1_556
O12 Sr1 3.000164 1_556
O12 Sr5 3.082928 1_556
O13 Tb1 2.262228 1_554
O13 Sr4 2.542207 1_565
O13 Sr1 3.000164 1_565
O13 Sr5 3.082928 1_555
O14 Tb2 2.262228 1_554
O14 Sr4 2.542207 1_555
O14 Sr1 3.000164 1_655
O14 Sr5 3.082928 1_555
O15 Tb3 2.262228 1_556
O15 Sr4 2.542207 1_566
O15 Sr1 3.000164 1_666
O15 Sr5 3.082928 1_556
O16 Tb0 2.262228 1_565
O16 Sr2 2.542207 1_565
O16 Sr1 3.000164 1_565
O16 Sr6 3.082928 1_565
O17 Tb3 2.262228 1_545
O17 Sr2 2.542207 1_655
O17 Sr1 3.000164 1_655
O17 Sr6 3.082928 1_555
O18 Tb1 2.262228 1_545
O18 Sr2 2.542207 1_555
O18 Sr1 3.000164 1_556
O18 Sr6 3.082928 1_555
O19 Tb2 2.262228 1_565
O19 Sr2 2.542207 1_665
O19 Sr1 3.000164 1_666
O19 Sr6 3.082928 1_565
O20 Tb0 2.262228 1_655
O20 Sr3 2.542207 1_655
O20 Sr1 3.000164 1_655
O20 Sr7 3.082928 1_655
O21 Tb2 2.262228 1_455
O21 Sr3 2.542207 1_556
O21 Sr1 3.000164 1_556
O21 Sr7 3.082928 1_555
O22 Tb3 2.262228 1_455
O22 Sr3 2.542207 1_555
O22 Sr1 3.000164 1_565
O22 Sr7 3.082928 1_555
O23 Tb1 2.262228 1_655
O23 Sr3 2.542207 1_656
O23 Sr1 3.000164 1_666
O23 Sr7 3.082928 1_655
