# generated using pymatgen
data_KAs(OF2)2
_symmetry_space_group_name_H-M   'P 1'
_cell_length_a   8.13316264
_cell_length_b   8.13316264
_cell_length_c   6.65416022
_cell_angle_alpha   89.00174762
_cell_angle_beta   89.00174762
_cell_angle_gamma   142.07436020
_symmetry_Int_Tables_number   1
_chemical_formula_structural   KAs(OF2)2
_chemical_formula_sum   'K2 As2 O4 F8'
_cell_volume   270.15106769
_cell_formula_units_Z   2
loop_
 _symmetry_equiv_pos_site_id
 _symmetry_equiv_pos_as_xyz
  1  'x, y, z'
loop_
 _atom_site_type_symbol
 _atom_site_label
 _atom_site_symmetry_multiplicity
 _atom_site_fract_x
 _atom_site_fract_y
 _atom_site_fract_z
 _atom_site_occupancy
  K  K0  1  0.61682900  0.38317100  0.75000000  1
  K  K1  1  0.38317100  0.61682900  0.25000000  1
  As  As0  1  0.87201000  0.12799000  0.75000000  1
  As  As1  1  0.12799000  0.87201000  0.25000000  1
  O  O0  1  0.81552800  0.06848600  0.48640800  1
  O  O1  1  0.93151400  0.18447200  0.01359200  1
  O  O2  1  0.18447200  0.93151400  0.51359200  1
  O  O3  1  0.06848600  0.81552800  0.98640800  1
  F  F0  1  0.19657900  0.28662200  0.72669500  1
  F  F1  1  0.71337800  0.80342100  0.77330500  1
  F  F2  1  0.80342100  0.71337800  0.27330500  1
  F  F3  1  0.28662200  0.19657900  0.22669500  1
  F  F4  1  0.01761000  0.43983200  0.68452700  1
  F  F5  1  0.56016800  0.98239000  0.81547300  1
  F  F6  1  0.98239000  0.56016800  0.31547300  1
  F  F7  1  0.43983200  0.01761000  0.18452700  1
loop_
_geom_bond_atom_site_label_1
_geom_bond_atom_site_label_2
_geom_bond_distance
_geom_bond_site_symmetry_2
K0 O2 2.889529 1_545
K0 O3 2.889529 1_655
K0 O3 3.270842 1_545
K0 O2 3.270842 1_655
K1 O1 2.889529 1_455
K1 O0 2.889529 1_565
K1 O0 3.270842 1_455
K1 O1 3.270842 1_565
As0 O0 1.796835 1_555
As0 O1 1.796835 1_556
As0 F5 1.797225 1_545
As0 F4 1.797225 1_655
As0 F1 1.806309 1_545
As0 F0 1.806309 1_655
As1 O3 1.796835 1_554
As1 O2 1.796835 1_555
As1 F6 1.797225 1_455
As1 F7 1.797225 1_565
As1 F2 1.806309 1_455
As1 F3 1.806309 1_565
F0 K0 2.848085 1_555
F1 K0 2.848085 1_555
F2 K1 2.848085 1_555
F3 K1 2.848085 1_555
F4 K0 2.932746 1_455
F5 K0 2.932746 1_565
F6 K1 2.932746 1_655
F7 K1 2.932746 1_545
