# generated using pymatgen
data_Li(CoO2)3
_symmetry_space_group_name_H-M   'P 1'
_cell_length_a   4.89338795
_cell_length_b   10.11720469
_cell_length_c   4.89363575
_cell_angle_alpha   85.54755916
_cell_angle_beta   119.16614489
_cell_angle_gamma   85.58050131
_symmetry_Int_Tables_number   1
_chemical_formula_structural   Li(CoO2)3
_chemical_formula_sum   'Li2 Co6 O12'
_cell_volume   209.07046900
_cell_formula_units_Z   2
loop_
 _symmetry_equiv_pos_site_id
 _symmetry_equiv_pos_as_xyz
  1  'x, y, z'
loop_
 _atom_site_type_symbol
 _atom_site_label
 _atom_site_symmetry_multiplicity
 _atom_site_fract_x
 _atom_site_fract_y
 _atom_site_fract_z
 _atom_site_occupancy
  Li  Li0  1  0.33027900  0.99899500  0.66478800  1
  Li  Li1  1  0.83527500  0.50100500  0.16966100  1
  Co  Co0  1  0.08323100  0.75000000  0.41676500  1
  Co  Co1  1  0.75074700  0.75000600  0.74924700  1
  Co  Co2  1  0.41612500  0.74999700  0.08388500  1
  Co  Co3  1  0.58340300  0.25000000  0.91659600  1
  Co  Co4  1  0.24915100  0.24999900  0.25082200  1
  Co  Co5  1  0.91761400  0.24999800  0.58240900  1
  O  O0  1  0.98122200  0.14557700  0.31453600  1
  O  O1  1  0.45274100  0.65334300  0.78249300  1
  O  O2  1  0.18553700  0.35442000  0.51869700  1
  O  O3  1  0.71757100  0.84666200  0.04720100  1
  O  O4  1  0.89123900  0.34659500  0.89351500  1
  O  O5  1  0.38730600  0.84722900  0.39657400  1
  O  O6  1  0.27558800  0.15332300  0.93972400  1
  O  O7  1  0.78177700  0.65331700  0.44232300  1
  O  O8  1  0.60637700  0.15341300  0.60882100  1
  O  O9  1  0.10333600  0.65277600  0.11275700  1
  O  O10  1  0.56038300  0.34665800  0.22435200  1
  O  O11  1  0.05776600  0.84668800  0.71817100  1
loop_
_geom_bond_atom_site_label_1
_geom_bond_atom_site_label_2
_geom_bond_distance
_geom_bond_site_symmetry_2
Li0 O0 2.101435 1_465
Li0 O5 2.182226 1_555
Li0 O11 2.194235 1_555
Li0 O6 2.220904 1_565
Li0 O8 2.227241 1_565
Li0 O3 2.261469 1_556
Li1 O2 2.101435 1_655
Li1 O9 2.180821 1_655
Li1 O7 2.195686 1_555
Li1 O10 2.220197 1_555
Li1 O4 2.228042 1_554
Li1 O1 2.261475 1_554
Co0 O7 1.879273 1_455
Co0 O11 1.879453 1_555
Co0 O5 1.882871 1_555
Co0 O9 1.882931 1_555
Co0 O3 1.931418 1_455
Co0 O1 1.931430 1_555
Co1 O1 1.880352 1_555
Co1 O3 1.880490 1_556
Co1 O9 1.893187 1_656
Co1 O5 1.893188 1_555
Co1 O11 1.913916 1_655
Co1 O7 1.914007 1_555
Co2 O3 1.902036 1_555
Co2 O1 1.902150 1_554
Co2 O7 1.907831 1_555
Co2 O11 1.907838 1_554
Co2 O9 1.936853 1_555
Co2 O5 1.936935 1_555
Co3 O4 1.900662 1_555
Co3 O8 1.900687 1_555
Co3 O10 1.901109 1_556
Co3 O6 1.901141 1_555
Co3 O0 2.089645 1_556
Co3 O2 2.089647 1_555
Co4 O0 1.868961 1_455
Co4 O2 1.869082 1_555
Co4 O8 1.888329 1_555
Co4 O4 1.888354 1_454
Co4 O10 1.922165 1_555
Co4 O6 1.922175 1_554
Co5 O2 1.868932 1_655
Co5 O0 1.869060 1_555
Co5 O10 1.888744 1_555
Co5 O6 1.888803 1_655
Co5 O4 1.921631 1_555
Co5 O8 1.921646 1_555
