# generated using pymatgen
data_Li4MnCo2O7
_symmetry_space_group_name_H-M   'P 1'
_cell_length_a   2.91245400
_cell_length_b   10.78412676
_cell_length_c   8.32744206
_cell_angle_alpha   78.00133105
_cell_angle_beta   90.00000000
_cell_angle_gamma   82.23939675
_symmetry_Int_Tables_number   1
_chemical_formula_structural   Li4MnCo2O7
_chemical_formula_sum   'Li8 Mn2 Co4 O14'
_cell_volume   253.38675110
_cell_formula_units_Z   2
loop_
 _symmetry_equiv_pos_site_id
 _symmetry_equiv_pos_as_xyz
  1  'x, y, z'
loop_
 _atom_site_type_symbol
 _atom_site_label
 _atom_site_symmetry_multiplicity
 _atom_site_fract_x
 _atom_site_fract_y
 _atom_site_fract_z
 _atom_site_occupancy
  Li  Li0  1  0.43388900  0.13222100  0.21422700  1
  Li  Li1  1  0.28108600  0.43782600  0.64647800  1
  Li  Li2  1  0.14192900  0.71614100  0.08327100  1
  Li  Li3  1  0.00741500  0.98517100  0.48717400  1
  Li  Li4  1  0.85585900  0.28828200  0.93126200  1
  Li  Li5  1  0.70879800  0.58240400  0.35685400  1
  Li  Li6  1  0.57552600  0.84894800  0.78488100  1
  Li  Li7  1  0.57050100  0.85899800  0.28726500  1
  Mn  Mn0  1  0.00043100  0.99913800  0.01290700  1
  Mn  Mn1  1  0.85836800  0.28326400  0.42626000  1
  Co  Co0  1  0.71050500  0.57899200  0.84523000  1
  Co  Co1  1  0.42986000  0.14027900  0.71651100  1
  Co  Co2  1  0.28345100  0.43309600  0.13152700  1
  Co  Co3  1  0.13775900  0.72448100  0.54825900  1
  O  O0  1  0.43509000  0.12982000  0.96895000  1
  O  O1  1  0.29610200  0.40779600  0.39999800  1
  O  O2  1  0.14682100  0.70635800  0.82507600  1
  O  O3  1  0.99978900  0.00042300  0.23059100  1
  O  O4  1  0.86574100  0.26851800  0.66615800  1
  O  O5  1  0.72006000  0.55987800  0.10328400  1
  O  O6  1  0.57359300  0.85281300  0.54102200  1
  O  O7  1  0.42071700  0.15856600  0.45583700  1
  O  O8  1  0.28484700  0.43030800  0.89903300  1
  O  O9  1  0.14549900  0.70900300  0.33500000  1
  O  O10  1  0.99096900  0.01806000  0.76213900  1
  O  O11  1  0.85063000  0.29873800  0.19175000  1
  O  O12  1  0.71335400  0.57329300  0.62067700  1
  O  O13  1  0.56140800  0.87718400  0.02837800  1
loop_
_geom_bond_atom_site_label_1
_geom_bond_atom_site_label_2
_geom_bond_distance
_geom_bond_site_symmetry_2
Li0 O3 2.010463 1_455
Li0 O3 2.010467 1_555
Li0 O0 2.048066 1_554
Li0 O7 2.089266 1_555
Li0 O11 2.276348 1_555
Li0 O11 2.276350 1_455
Li1 O12 2.032618 1_455
Li1 O12 2.032624 1_555
Li1 O8 2.087761 1_555
Li1 O1 2.142963 1_555
Li1 O4 2.301290 1_455
Li1 O4 2.301294 1_555
Li2 O9 2.081592 1_555
Li2 O2 2.174440 1_554
Li2 O5 2.195355 1_555
Li2 O5 2.195357 1_455
Li2 O13 2.227247 1_455
Li2 O13 2.227249 1_555
Li3 O6 2.013894 1_555
Li3 O6 2.013898 1_455
Li3 O3 2.108516 1_465
Li3 O7 2.327794 1_565
Li3 O7 2.327796 1_465
Li3 O10 2.388336 1_465
Li4 O8 2.079618 1_555
Li4 O8 2.079622 1_655
Li4 O11 2.195360 1_556
Li4 O0 2.205246 1_555
Li4 O0 2.205246 1_655
Li4 O4 2.261394 1_555
Li5 O9 1.969862 1_555
Li5 O9 1.969864 1_655
Li5 O5 2.174861 1_555
Li5 O12 2.178625 1_555
Li5 O1 2.334398 1_555
Li5 O1 2.334398 1_655
Li6 O6 2.022460 1_555
Li6 O2 2.083282 1_555
Li6 O2 2.083282 1_655
Li6 O13 2.111716 1_556
Li6 O10 2.297429 1_565
Li6 O10 2.297433 1_465
Li7 O3 2.080315 1_465
Li7 O3 2.080317 1_565
Li7 O6 2.100275 1_555
Li7 O13 2.123612 1_555
Li7 O9 2.140110 1_555
Li7 O9 2.140112 1_655
Mn0 O3 1.815681 1_465
Mn0 O13 1.940328 1_455
Mn0 O13 1.940328 1_555
Mn0 O0 1.997496 1_464
Mn0 O0 1.997496 1_564
Mn0 O10 2.055364 1_464
Mn1 O11 1.924978 1_555
Mn1 O1 1.953712 1_555
Mn1 O1 1.953712 1_655
Mn1 O7 1.954214 1_555
Mn1 O7 1.954214 1_655
Mn1 O4 1.970709 1_555
Co0 O12 1.883670 1_555
Co0 O2 1.976132 1_655
Co0 O2 1.976136 1_555
Co0 O5 2.115524 1_556
Co0 O8 2.132309 1_655
Co0 O8 2.132309 1_555
Co1 O10 1.939654 1_555
Co1 O10 1.939656 1_455
Co1 O4 1.983173 1_455
Co1 O4 1.983175 1_555
Co1 O0 2.081593 1_555
Co1 O7 2.138302 1_555
Co2 O8 1.942549 1_554
Co2 O5 1.969125 1_555
Co2 O5 1.969125 1_455
Co2 O11 2.032513 1_455
Co2 O11 2.032513 1_555
Co2 O1 2.194930 1_555
Co3 O9 1.817809 1_555
Co3 O6 1.992471 1_455
Co3 O6 1.992471 1_555
Co3 O12 2.164552 1_455
Co3 O12 2.164556 1_555
Co3 O2 2.272449 1_555
