# generated using pymatgen
data_H19C6N7O4
_symmetry_space_group_name_H-M   'P 1'
_cell_length_a   7.66733900
_cell_length_b   10.08638289
_cell_length_c   11.07282147
_cell_angle_alpha   65.44602446
_cell_angle_beta   79.70565889
_cell_angle_gamma   71.13743879
_symmetry_Int_Tables_number   1
_chemical_formula_structural   H19C6N7O4
_chemical_formula_sum   'H38 C12 N14 O8'
_cell_volume   736.07916090
_cell_formula_units_Z   2
loop_
 _symmetry_equiv_pos_site_id
 _symmetry_equiv_pos_as_xyz
  1  'x, y, z'
loop_
 _atom_site_type_symbol
 _atom_site_label
 _atom_site_symmetry_multiplicity
 _atom_site_fract_x
 _atom_site_fract_y
 _atom_site_fract_z
 _atom_site_occupancy
  H  H0  1  0.02297300  0.60266400  0.57340100  1
  H  H1  1  0.97702700  0.39733600  0.42659900  1
  H  H2  1  0.85732600  0.52148800  0.68776400  1
  H  H3  1  0.14267400  0.47851200  0.31223600  1
  H  H4  1  0.81700500  0.73251400  0.88646000  1
  H  H5  1  0.18299500  0.26748600  0.11354000  1
  H  H6  1  0.74687800  0.59102300  0.86658800  1
  H  H7  1  0.25312200  0.40897700  0.13341200  1
  H  H8  1  0.26738400  0.73874900  0.17556100  1
  H  H9  1  0.73261600  0.26125100  0.82443900  1
  H  H10  1  0.64849700  0.39931800  0.04648000  1
  H  H11  1  0.35150300  0.60068200  0.95352000  1
  H  H12  1  0.65921500  0.38354600  0.37221900  1
  H  H13  1  0.34078500  0.61645400  0.62778100  1
  H  H14  1  0.43903300  0.51564900  0.36557000  1
  H  H15  1  0.56096700  0.48435100  0.63443000  1
  H  H16  1  0.20438800  0.93870000  0.92632900  1
  H  H17  1  0.79561200  0.06130000  0.07367100  1
  H  H18  1  0.29792100  0.94500900  0.76525700  1
  H  H19  1  0.70207900  0.05499100  0.23474300  1
  H  H20  1  0.44742600  0.91195600  0.88817700  1
  H  H21  1  0.55257400  0.08804400  0.11182300  1
  H  H22  1  0.29762200  0.33899400  0.63906400  1
  H  H23  1  0.70237800  0.66100600  0.36093600  1
  H  H24  1  0.23317000  0.20634800  0.60073600  1
  H  H25  1  0.76683000  0.79365200  0.39926400  1
  H  H26  1  0.46723400  0.17212800  0.63199300  1
  H  H27  1  0.53276600  0.82787200  0.36800700  1
  H  H28  1  0.21985000  0.32830400  0.84174700  1
  H  H29  1  0.78015000  0.67169600  0.15825300  1
  H  H30  1  0.20598500  0.93311700  0.15026500  1
  H  H31  1  0.79401500  0.06688300  0.84973500  1
  H  H32  1  0.08573200  0.85816100  0.49449100  1
  H  H33  1  0.91426800  0.14183900  0.50550900  1
  H  H34  1  0.08204300  0.00351000  0.33523000  1
  H  H35  1  0.91795700  0.99649000  0.66477000  1
  H  H36  1  0.77805800  0.31723700  0.19177800  1
  H  H37  1  0.22194200  0.68276300  0.80822200  1
  C  C0  1  0.93323700  0.68137000  0.72351400  1
  C  C1  1  0.06676300  0.31863000  0.27648600  1
  C  C2  1  0.17915200  0.78002300  0.34475400  1
  C  C3  1  0.82084800  0.21997700  0.65524600  1
  C  C4  1  0.52298900  0.46776400  0.19839400  1
  C  C5  1  0.47701100  0.53223600  0.80160600  1
  C  C6  1  0.30960100  0.97345000  0.84831500  1
  C  C7  1  0.69039900  0.02655000  0.15168500  1
  C  C8  1  0.32242900  0.21813200  0.66083700  1
  C  C9  1  0.67757100  0.78186800  0.33916300  1
  C  C10  1  0.23196300  0.20528200  0.88845800  1
  C  C11  1  0.76803700  0.79471800  0.11154200  1
  N  N0  1  0.93968300  0.59179900  0.65844200  1
  N  N1  1  0.06031700  0.40820100  0.34155800  1
  N  N2  1  0.82179900  0.66769100  0.83448700  1
  N  N3  1  0.17820100  0.33230900  0.16551300  1
  N  N4  1  0.21647000  0.82278200  0.21207100  1
  N  N5  1  0.78353000  0.17721800  0.78792900  1
  N  N6  1  0.11172000  0.89057100  0.39368200  1
  N  N7  1  0.88828000  0.10942900  0.60631800  1
  N  N8  1  0.66059700  0.38557400  0.14204600  1
  N  N9  1  0.33940300  0.61442600  0.85795400  1
  N  N10  1  0.54422200  0.45406700  0.32227900  1
  N  N11  1  0.45577800  0.54593300  0.67772100  1
  N  N12  1  0.28172900  0.13669900  0.80155800  1
  N  N13  1  0.71827100  0.86330100  0.19844200  1
  O  O0  1  0.03203400  0.77373100  0.68213200  1
  O  O1  1  0.96796600  0.22626900  0.31786800  1
  O  O2  1  0.20684700  0.64044200  0.42140000  1
  O  O3  1  0.79315300  0.35955800  0.57860000  1
  O  O4  1  0.37581700  0.55536500  0.13813800  1
  O  O5  1  0.62418300  0.44463500  0.86186200  1
  O  O6  1  0.20080600  0.14113500  0.01075100  1
  O  O7  1  0.79919400  0.85886500  0.98924900  1
loop_
_geom_bond_atom_site_label_1
_geom_bond_atom_site_label_2
_geom_bond_distance
_geom_bond_site_symmetry_2
H0 N0 1.025227 1_455
H1 N1 1.025227 1_655
H2 N0 1.015881 1_555
H3 N1 1.015881 1_555
H4 N2 1.024524 1_555
H5 N3 1.024524 1_555
H6 N2 1.019871 1_555
H7 N3 1.019871 1_555
H8 N4 1.024042 1_555
H9 N5 1.024042 1_555
H10 N8 1.025883 1_555
H11 N9 1.025883 1_555
H12 N10 1.015360 1_555
H13 N11 1.015360 1_555
H14 N10 1.025391 1_555
H15 N11 1.025391 1_555
H30 N4 1.020861 1_555
H31 N5 1.020861 1_555
H32 N6 1.025629 1_555
H33 N7 1.025629 1_555
H34 N6 1.020103 1_545
H35 N7 1.020103 1_565
H36 N8 1.024624 1_555
H37 N9 1.024624 1_555
C0 O0 1.276365 1_655
C0 N2 1.348731 1_555
C0 N0 1.355448 1_555
C1 O1 1.276365 1_455
C1 N3 1.348731 1_555
C1 N1 1.355448 1_555
C2 O2 1.274962 1_555
C2 N4 1.352511 1_555
C2 N6 1.353996 1_555
C3 O3 1.274962 1_555
C3 N5 1.352511 1_555
C3 N7 1.353996 1_555
C4 O4 1.278140 1_555
C4 N8 1.348620 1_555
C4 N10 1.354650 1_555
C5 O5 1.278140 1_555
C5 N9 1.348620 1_555
C5 N11 1.354650 1_555
C6 H18 1.096107 1_555
C6 H16 1.096339 1_555
C6 H20 1.100736 1_555
C6 N12 1.458935 1_565
C7 H19 1.096107 1_555
C7 H17 1.096339 1_555
C7 H21 1.100736 1_555
C7 N13 1.458935 1_545
C8 H22 1.096636 1_555
C8 H24 1.098404 1_555
C8 H26 1.101511 1_555
C8 N12 1.458841 1_555
C9 H23 1.096636 1_555
C9 H25 1.098404 1_555
C9 H27 1.101511 1_555
C9 N13 1.458841 1_555
C10 H28 1.106844 1_555
C10 O6 1.251208 1_556
C10 N12 1.342128 1_555
C11 H29 1.106844 1_555
C11 O7 1.251208 1_554
C11 N13 1.342128 1_555
