# generated using pymatgen
data_MnOF
_symmetry_space_group_name_H-M   'P 1'
_cell_length_a   3.83698201
_cell_length_b   6.25723103
_cell_length_c   3.18681803
_cell_angle_alpha   90.01323204
_cell_angle_beta   90.00768415
_cell_angle_gamma   90.00067098
_symmetry_Int_Tables_number   1
_chemical_formula_structural   MnOF
_chemical_formula_sum   'Mn2 O2 F2'
_cell_volume   76.51193826
_cell_formula_units_Z   2
loop_
 _symmetry_equiv_pos_site_id
 _symmetry_equiv_pos_as_xyz
  1  'x, y, z'
loop_
 _atom_site_type_symbol
 _atom_site_label
 _atom_site_symmetry_multiplicity
 _atom_site_fract_x
 _atom_site_fract_y
 _atom_site_fract_z
 _atom_site_occupancy
  Mn  Mn0  1  0.24999400  0.15085700  0.75667700  1
  Mn  Mn1  1  0.74999800  0.84911600  0.25647500  1
  O  O0  1  0.24999400  0.92451000  0.19221300  1
  O  O1  1  0.74999500  0.07549800  0.69246000  1
  F  F0  1  0.25002100  0.34865100  0.30139700  1
  F  F1  1  0.74999900  0.65136900  0.80077900  1
loop_
_geom_bond_atom_site_label_1
_geom_bond_atom_site_label_2
_geom_bond_distance
_geom_bond_site_symmetry_2
Mn0 O0 1.983255 1_546
Mn0 O1 1.986115 1_455
Mn0 O1 1.986186 1_555
Mn0 O0 2.289232 1_545
Mn1 O1 1.983955 1_565
Mn1 O0 1.986233 1_555
Mn1 O0 1.986246 1_655
Mn1 O1 2.288758 1_564
F0 Mn0 1.907271 1_555
F0 Mn0 2.131712 1_554
F1 Mn1 1.907654 1_556
F1 Mn1 2.130928 1_555
