# generated using pymatgen
data_Ba4Pr2(Cu2O5)3
_symmetry_space_group_name_H-M   'P 1'
_cell_length_a   5.62694148
_cell_length_b   5.62694148
_cell_length_c   12.34754964
_cell_angle_alpha   76.72324893
_cell_angle_beta   76.72324893
_cell_angle_gamma   89.54782157
_symmetry_Int_Tables_number   1
_chemical_formula_structural   Ba4Pr2(Cu2O5)3
_chemical_formula_sum   'Ba4 Pr2 Cu6 O15'
_cell_volume   369.91916912
_cell_formula_units_Z   1
loop_
 _symmetry_equiv_pos_site_id
 _symmetry_equiv_pos_as_xyz
  1  'x, y, z'
loop_
 _atom_site_type_symbol
 _atom_site_label
 _atom_site_symmetry_multiplicity
 _atom_site_fract_x
 _atom_site_fract_y
 _atom_site_fract_z
 _atom_site_occupancy
  Ba  Ba0  1  0.09567200  0.57972600  0.82460200  1
  Ba  Ba1  1  0.57972600  0.09567200  0.82460200  1
  Ba  Ba2  1  0.40432800  0.92027400  0.17539800  1
  Ba  Ba3  1  0.92027400  0.40432800  0.17539800  1
  Pr  Pr0  1  0.25000000  0.75000000  0.50000000  1
  Pr  Pr1  1  0.75000000  0.25000000  0.50000000  1
  Cu  Cu0  1  0.48954700  0.48954700  0.00000000  1
  Cu  Cu1  1  0.01045300  0.01045300  0.00000000  1
  Cu  Cu2  1  0.17062100  0.17062100  0.65491800  1
  Cu  Cu3  1  0.67446100  0.67446100  0.65491800  1
  Cu  Cu4  1  0.32937900  0.32937900  0.34508200  1
  Cu  Cu5  1  0.82553900  0.82553900  0.34508200  1
  O  O0  1  0.06474300  0.06474300  0.83761900  1
  O  O1  1  0.59763800  0.59763800  0.83761900  1
  O  O2  1  0.43525700  0.43525700  0.16238100  1
  O  O3  1  0.90236200  0.90236200  0.16238100  1
  O  O4  1  0.93530600  0.93530600  0.62938800  1
  O  O5  1  0.43308400  0.43308400  0.63383200  1
  O  O6  1  0.43517000  0.93517000  0.62966100  1
  O  O7  1  0.93517000  0.43517000  0.62966100  1
  O  O8  1  0.06691600  0.06691600  0.36616800  1
  O  O9  1  0.56469400  0.56469400  0.37061200  1
  O  O10  1  0.56483000  0.06483000  0.37033900  1
  O  O11  1  0.06483000  0.56483000  0.37033900  1
  O  O12  1  0.25000000  0.25000000  0.00000000  1
  O  O13  1  0.25000000  0.75000000  0.00000000  1
  O  O14  1  0.75000000  0.25000000  0.00000000  1
loop_
_geom_bond_atom_site_label_1
_geom_bond_atom_site_label_2
_geom_bond_distance
_geom_bond_site_symmetry_2
Ba0 O1 2.772288 1_455
Ba0 O0 2.772288 1_565
Ba0 O12 2.807070 1_556
Ba0 O14 2.862266 1_456
Ba0 O13 2.862266 1_556
Ba0 O0 2.869570 1_555
Ba0 O1 2.869570 1_555
Ba0 O5 2.940748 1_555
Ba0 O7 3.029936 1_455
Ba0 O6 3.029942 1_555
Ba0 O4 3.063177 1_455
Ba1 O1 2.772288 1_545
Ba1 O0 2.772288 1_655
Ba1 O12 2.807070 1_556
Ba1 O13 2.862266 1_546
Ba1 O14 2.862266 1_556
Ba1 O0 2.869570 1_555
Ba1 O1 2.869570 1_555
Ba1 O5 2.940748 1_555
Ba1 O6 3.029936 1_545
Ba1 O7 3.029942 1_555
Ba1 O4 3.063177 1_545
Ba2 O2 2.772288 1_555
Ba2 O3 2.772288 1_555
Ba2 O12 2.807070 1_565
Ba2 O14 2.862266 1_565
Ba2 O13 2.862266 1_555
Ba2 O2 2.869570 1_565
Ba2 O3 2.869570 1_455
Ba2 O8 2.940748 1_565
Ba2 O10 3.029936 1_565
Ba2 O11 3.029942 1_555
Ba2 O9 3.063177 1_555
Ba3 O2 2.772288 1_555
Ba3 O3 2.772288 1_555
Ba3 O12 2.807070 1_655
Ba3 O13 2.862266 1_655
Ba3 O14 2.862266 1_555
Ba3 O2 2.869570 1_655
Ba3 O3 2.869570 1_545
Ba3 O8 2.940748 1_655
Ba3 O11 3.029936 1_655
Ba3 O10 3.029942 1_555
Ba3 O9 3.063177 1_555
Cu0 O2 1.909323 1_555
Cu0 O1 1.909323 1_554
Cu0 O12 1.913750 1_555
Cu0 O14 1.983317 1_555
Cu0 O13 1.983317 1_555
Cu1 O0 1.909323 1_554
Cu1 O3 1.909323 1_445
Cu1 O12 1.913750 1_555
Cu1 O13 1.983317 1_545
Cu1 O14 1.983317 1_455
Cu2 O7 2.003469 1_455
Cu2 O6 2.003469 1_545
Cu2 O4 2.004240 1_445
Cu2 O5 2.027620 1_555
Cu2 O0 2.137753 1_555
Cu3 O6 2.003469 1_555
Cu3 O7 2.003469 1_555
Cu3 O4 2.004240 1_555
Cu3 O5 2.027620 1_555
Cu3 O1 2.137753 1_555
Cu4 O10 2.003469 1_555
Cu4 O11 2.003469 1_555
Cu4 O9 2.004240 1_555
Cu4 O8 2.027620 1_555
Cu4 O2 2.137753 1_555
Cu5 O11 2.003469 1_655
Cu5 O10 2.003469 1_565
Cu5 O9 2.004240 1_555
Cu5 O8 2.027620 1_665
Cu5 O3 2.137753 1_555
O4 Pr0 2.492359 1_655
O4 Pr1 2.492359 1_565
O5 Pr0 2.524189 1_555
O5 Pr1 2.524189 1_555
O6 Pr1 2.506783 1_565
O6 Pr0 2.506789 1_555
O7 Pr0 2.506783 1_655
O7 Pr1 2.506789 1_555
O8 Pr1 2.524189 1_455
O8 Pr0 2.524189 1_545
O9 Pr0 2.492359 1_555
O9 Pr1 2.492359 1_555
O10 Pr0 2.506783 1_545
O10 Pr1 2.506789 1_555
O11 Pr1 2.506783 1_455
O11 Pr0 2.506789 1_555
