# generated using pymatgen
data_KEuNb2O6
_symmetry_space_group_name_H-M   'P 1'
_cell_length_a   5.70820660
_cell_length_b   5.78459424
_cell_length_c   8.10883523
_cell_angle_alpha   90.00000000
_cell_angle_beta   90.00000000
_cell_angle_gamma   90.00000000
_symmetry_Int_Tables_number   1
_chemical_formula_structural   KEuNb2O6
_chemical_formula_sum   'K2 Eu2 Nb4 O12'
_cell_volume   267.75097434
_cell_formula_units_Z   2
loop_
 _symmetry_equiv_pos_site_id
 _symmetry_equiv_pos_as_xyz
  1  'x, y, z'
loop_
 _atom_site_type_symbol
 _atom_site_label
 _atom_site_symmetry_multiplicity
 _atom_site_fract_x
 _atom_site_fract_y
 _atom_site_fract_z
 _atom_site_occupancy
  K  K0  1  0.50244686  0.73012791  0.50000000  1
  K  K1  1  0.00244686  0.26987209  -0.00000000  1
  Eu  Eu0  1  0.49051174  0.79122193  -0.00000000  1
  Eu  Eu1  1  0.99051174  0.20877807  0.50000000  1
  Nb  Nb0  1  0.99860419  0.74721583  0.24829429  1
  Nb  Nb1  1  0.49860419  0.25278417  0.25170571  1
  Nb  Nb2  1  0.99860419  0.74721583  0.75170571  1
  Nb  Nb3  1  0.49860419  0.25278417  0.74829429  1
  O  O0  1  0.44456668  0.25257244  0.50000000  1
  O  O1  1  0.94456668  0.74742756  -0.00000000  1
  O  O2  1  0.53318502  0.24145202  -0.00000000  1
  O  O3  1  0.03318502  0.75854798  0.50000000  1
  O  O4  1  0.23192658  0.01840436  0.23148674  1
  O  O5  1  0.73192658  0.98159564  0.26851326  1
  O  O6  1  0.78411408  0.46675588  0.72063916  1
  O  O7  1  0.28411408  0.53324412  0.77936084  1
  O  O8  1  0.78411408  0.46675588  0.27936084  1
  O  O9  1  0.28411408  0.53324412  0.22063916  1
  O  O10  1  0.23192658  0.01840436  0.76851326  1
  O  O11  1  0.73192658  0.98159564  0.73148674  1
loop_
_geom_bond_atom_site_label_1
_geom_bond_atom_site_label_2
_geom_bond_distance
_geom_bond_site_symmetry_2
K0 O3 2.683684 1_555
K0 O11 2.712069 1_555
K0 O5 2.712069 1_555
K0 O0 2.782152 1_555
K0 O9 2.825218 1_555
K0 O7 2.825218 1_555
K0 O6 2.847296 1_555
K0 O8 2.847296 1_555
K0 O3 3.034020 1_655
K0 O0 3.040136 1_565
K0 O4 3.147386 1_565
K0 O10 3.147386 1_565
K1 O2 2.683684 1_455
K1 O4 2.712069 1_555
K1 O10 2.712069 1_554
K1 O1 2.782152 1_455
K1 O8 2.825218 1_455
K1 O6 2.825218 1_454
K1 O7 2.847296 1_554
K1 O9 2.847296 1_555
K1 O2 3.034020 1_555
K1 O1 3.040136 1_445
K1 O11 3.147386 1_444
K1 O5 3.147386 1_445
Eu0 O1 2.604191 1_555
Eu0 O7 2.610744 1_554
Eu0 O9 2.610744 1_555
Eu0 O2 2.615765 1_565
Eu0 O4 2.725659 1_565
Eu0 O10 2.725659 1_564
Eu0 O5 2.802230 1_555
Eu0 O11 2.802230 1_554
Eu1 O0 2.604191 1_655
Eu1 O6 2.610744 1_555
Eu1 O8 2.610744 1_555
Eu1 O3 2.615765 1_645
Eu1 O5 2.725659 1_545
Eu1 O11 2.725659 1_545
Eu1 O10 2.802230 1_655
Eu1 O4 2.802230 1_655
Nb0 O1 2.036869 1_555
Nb0 O5 2.045067 1_555
Nb0 O8 2.048051 1_555
Nb0 O3 2.051611 1_655
Nb0 O9 2.058730 1_655
Nb0 O4 2.062347 1_665
Nb1 O0 2.036869 1_555
Nb1 O4 2.045067 1_555
Nb1 O9 2.048051 1_555
Nb1 O2 2.051611 1_555
Nb1 O8 2.058730 1_555
Nb1 O5 2.062347 1_545
Nb2 O1 2.036869 1_556
Nb2 O11 2.045067 1_555
Nb2 O6 2.048051 1_555
Nb2 O3 2.051611 1_655
Nb2 O7 2.058730 1_655
Nb2 O10 2.062347 1_665
Nb3 O0 2.036869 1_555
Nb3 O10 2.045067 1_555
Nb3 O7 2.048051 1_555
Nb3 O2 2.051611 1_556
Nb3 O6 2.058730 1_555
Nb3 O11 2.062347 1_545
