# generated using pymatgen
data_TiMn2VAs4
_symmetry_space_group_name_H-M   'P 1'
_cell_length_a   3.60697700
_cell_length_b   5.80905600
_cell_length_c   6.39980867
_cell_angle_alpha   89.78354925
_cell_angle_beta   90.00000000
_cell_angle_gamma   90.00000000
_symmetry_Int_Tables_number   1
_chemical_formula_structural   TiMn2VAs4
_chemical_formula_sum   'Ti1 Mn2 V1 As4'
_cell_volume   134.09507496
_cell_formula_units_Z   1
loop_
 _symmetry_equiv_pos_site_id
 _symmetry_equiv_pos_as_xyz
  1  'x, y, z'
loop_
 _atom_site_type_symbol
 _atom_site_label
 _atom_site_symmetry_multiplicity
 _atom_site_fract_x
 _atom_site_fract_y
 _atom_site_fract_z
 _atom_site_occupancy
  Ti  Ti0  1  0.00000000  0.50000000  0.00000000  1
  Mn  Mn0  1  0.50000000  0.50000000  0.50000000  1
  Mn  Mn1  1  0.00000000  0.00000000  0.00000000  1
  V  V0  1  0.50000000  0.00000000  0.50000000  1
  As  As0  1  0.50000000  0.75869800  0.82661200  1
  As  As1  1  0.00000000  0.75187500  0.33338500  1
  As  As2  1  0.00000000  0.24812500  0.66661500  1
  As  As3  1  0.50000000  0.24130200  0.17338800  1
loop_
_geom_bond_atom_site_label_1
_geom_bond_atom_site_label_2
_geom_bond_distance
_geom_bond_site_symmetry_2
As0 V0 2.512348 1_565
As0 Mn1 2.541754 1_566
As0 Mn1 2.541754 1_666
As0 Mn0 2.579007 1_555
As0 Ti0 2.594162 1_656
As0 Ti0 2.594162 1_556
As1 V0 2.545337 1_565
As1 V0 2.545337 1_465
As1 Mn0 2.553157 1_555
As1 Mn0 2.553157 1_455
As1 Mn1 2.570324 1_565
As1 Ti0 2.591652 1_555
As2 V0 2.545337 1_555
As2 V0 2.545337 1_455
As2 Mn0 2.553157 1_555
As2 Mn0 2.553157 1_455
As2 Mn1 2.570324 1_556
As2 Ti0 2.591652 1_556
As3 V0 2.512348 1_555
As3 Mn1 2.541754 1_655
As3 Mn1 2.541754 1_555
As3 Mn0 2.579007 1_555
As3 Ti0 2.594162 1_655
As3 Ti0 2.594162 1_555
