# generated using pymatgen
data_LiCuSO4F
_symmetry_space_group_name_H-M   'P 1'
_cell_length_a   7.20905246
_cell_length_b   7.20905246
_cell_length_c   10.18917685
_cell_angle_alpha   66.38268386
_cell_angle_beta   66.38268386
_cell_angle_gamma   50.58993886
_symmetry_Int_Tables_number   1
_chemical_formula_structural   LiCuSO4F
_chemical_formula_sum   'Li4 Cu4 S4 O16 F4'
_cell_volume   366.77242672
_cell_formula_units_Z   4
loop_
 _symmetry_equiv_pos_site_id
 _symmetry_equiv_pos_as_xyz
  1  'x, y, z'
loop_
 _atom_site_type_symbol
 _atom_site_label
 _atom_site_symmetry_multiplicity
 _atom_site_fract_x
 _atom_site_fract_y
 _atom_site_fract_z
 _atom_site_occupancy
  Li  Li0  1  0.21518900  0.69614600  0.49398300  1
  Li  Li1  1  0.30385400  0.78481100  0.00601700  1
  Li  Li2  1  0.78481100  0.30385400  0.50601700  1
  Li  Li3  1  0.69614600  0.21518900  0.99398300  1
  Cu  Cu0  1  0.74459200  0.54052100  0.16687500  1
  Cu  Cu1  1  0.45947900  0.25540800  0.33312500  1
  Cu  Cu2  1  0.25540800  0.45947900  0.83312500  1
  Cu  Cu3  1  0.54052100  0.74459200  0.66687500  1
  S  S0  1  0.91942800  0.73860800  0.29283100  1
  S  S1  1  0.26139200  0.08057200  0.20716900  1
  S  S2  1  0.08057200  0.26139200  0.70716900  1
  S  S3  1  0.73860800  0.91942800  0.79283100  1
  O  O0  1  0.83773500  0.58589300  0.30268800  1
  O  O1  1  0.41410700  0.16226500  0.19731200  1
  O  O2  1  0.16226500  0.41410700  0.69731200  1
  O  O3  1  0.58589300  0.83773500  0.80268800  1
  O  O4  1  0.14173200  0.57560000  0.35919800  1
  O  O5  1  0.42440000  0.85826800  0.14080200  1
  O  O6  1  0.85826800  0.42440000  0.64080200  1
  O  O7  1  0.57560000  0.14173200  0.85919800  1
  O  O8  1  0.08436100  0.27120400  0.10719200  1
  O  O9  1  0.72879600  0.91563900  0.39280800  1
  O  O10  1  0.91563900  0.72879600  0.89280800  1
  O  O11  1  0.27120400  0.08436100  0.60719200  1
  O  O12  1  0.96671700  0.86183800  0.14232400  1
  O  O13  1  0.13816200  0.03328300  0.35767600  1
  O  O14  1  0.03328300  0.13816200  0.85767600  1
  O  O15  1  0.86183800  0.96671700  0.64232400  1
  F  F0  1  0.61856900  0.43355500  0.10044800  1
  F  F1  1  0.56644500  0.38143100  0.39955200  1
  F  F2  1  0.38143100  0.56644500  0.89955200  1
  F  F3  1  0.43355500  0.61856900  0.60044800  1
loop_
_geom_bond_atom_site_label_1
_geom_bond_atom_site_label_2
_geom_bond_distance
_geom_bond_site_symmetry_2
Li0 O13 2.084217 1_565
Li0 O4 2.246115 1_555
Li0 O15 2.355089 1_455
Li0 O2 2.355474 1_555
Li1 O12 2.084217 1_455
Li1 O5 2.246115 1_555
Li1 O14 2.355089 1_564
Li1 O3 2.355474 1_554
Li2 O15 2.084217 1_545
Li2 O6 2.246115 1_555
Li2 O13 2.355089 1_655
Li2 O0 2.355474 1_555
Li3 O14 2.084217 1_655
Li3 O7 2.246115 1_555
Li3 O12 2.355089 1_546
Li3 O1 2.355474 1_556
Cu0 F0 1.917955 1_555
Cu0 O8 1.962942 1_655
Cu0 O0 1.964408 1_555
Cu0 O5 1.983913 1_555
Cu0 F1 2.416055 1_555
Cu1 F1 1.917955 1_555
Cu1 O9 1.962942 1_545
Cu1 O1 1.964408 1_555
Cu1 O4 1.983913 1_555
Cu1 F0 2.416055 1_555
Cu2 F2 1.917955 1_555
Cu2 O10 1.962942 1_455
Cu2 O2 1.964408 1_555
Cu2 O7 1.983913 1_555
Cu2 F3 2.416055 1_555
Cu3 F3 1.917955 1_555
Cu3 O11 1.962942 1_565
Cu3 O3 1.964408 1_555
Cu3 O6 1.983913 1_555
Cu3 F2 2.416055 1_555
O0 S0 1.502079 1_555
O1 S1 1.502079 1_555
O2 S2 1.502079 1_555
O3 S3 1.502079 1_555
O4 S0 1.498971 1_455
O5 S1 1.498971 1_565
O6 S2 1.498971 1_655
O7 S3 1.498971 1_545
O8 S1 1.499368 1_555
O9 S0 1.499368 1_555
O10 S3 1.499368 1_555
O11 S2 1.499368 1_555
O12 S0 1.459875 1_555
O13 S1 1.459875 1_555
O14 S2 1.459875 1_555
O15 S3 1.459875 1_555
F0 Li3 1.931842 1_554
F0 Li1 2.233281 1_555
F1 Li2 1.931842 1_555
F1 Li0 2.233281 1_555
F2 Li1 1.931842 1_556
F2 Li3 2.233281 1_555
F3 Li0 1.931842 1_555
F3 Li2 2.233281 1_555
