# generated using pymatgen
data_VNi3
_symmetry_space_group_name_H-M   'P 1'
_cell_length_a   16.66194977
_cell_length_b   16.66194977
_cell_length_c   16.66194904
_cell_angle_alpha   17.35007101
_cell_angle_beta   17.35007101
_cell_angle_gamma   17.35007337
_symmetry_Int_Tables_number   1
_chemical_formula_structural   VNi3
_chemical_formula_sum   'V8 Ni24'
_cell_volume   358.96780343
_cell_formula_units_Z   8
loop_
 _symmetry_equiv_pos_site_id
 _symmetry_equiv_pos_as_xyz
  1  'x, y, z'
loop_
 _atom_site_type_symbol
 _atom_site_label
 _atom_site_symmetry_multiplicity
 _atom_site_fract_x
 _atom_site_fract_y
 _atom_site_fract_z
 _atom_site_occupancy
  V  V0_0  1  0.00000000  0.00000000  0.00000000  1
  V  V0_1  1  0.00000000  0.00000000  0.50000000  1
  V  V0_2  1  0.00000000  0.50000000  0.00000000  1
  V  V0_3  1  0.00000000  0.50000000  0.50000000  1
  V  V0_4  1  0.50000000  0.00000000  0.00000000  1
  V  V0_5  1  0.50000000  0.00000000  0.50000000  1
  V  V0_6  1  0.50000000  0.50000000  0.00000000  1
  V  V0_7  1  0.50000000  0.50000000  0.50000000  1
  Ni  Ni0_0  1  0.12497200  0.12497200  0.12497200  1
  Ni  Ni0_1  1  0.12497200  0.12497200  0.62497200  1
  Ni  Ni0_2  1  0.12497200  0.62497200  0.12497200  1
  Ni  Ni0_3  1  0.12497200  0.62497200  0.62497200  1
  Ni  Ni0_4  1  0.62497200  0.12497200  0.12497200  1
  Ni  Ni0_5  1  0.62497200  0.12497200  0.62497200  1
  Ni  Ni0_6  1  0.62497200  0.62497200  0.12497200  1
  Ni  Ni0_7  1  0.62497200  0.62497200  0.62497200  1
  Ni  Ni1_0  1  0.25000000  0.25000000  0.25000000  1
  Ni  Ni1_1  1  0.25000000  0.25000000  0.75000000  1
  Ni  Ni1_2  1  0.25000000  0.75000000  0.25000000  1
  Ni  Ni1_3  1  0.25000000  0.75000000  0.75000000  1
  Ni  Ni1_4  1  0.75000000  0.25000000  0.25000000  1
  Ni  Ni1_5  1  0.75000000  0.25000000  0.75000000  1
  Ni  Ni1_6  1  0.75000000  0.75000000  0.25000000  1
  Ni  Ni1_7  1  0.75000000  0.75000000  0.75000000  1
  Ni  Ni2_0  1  0.37502800  0.37502800  0.37502800  1
  Ni  Ni2_1  1  0.37502800  0.37502800  0.87502800  1
  Ni  Ni2_2  1  0.37502800  0.87502800  0.37502800  1
  Ni  Ni2_3  1  0.37502800  0.87502800  0.87502800  1
  Ni  Ni2_4  1  0.87502800  0.37502800  0.37502800  1
  Ni  Ni2_5  1  0.87502800  0.37502800  0.87502800  1
  Ni  Ni2_6  1  0.87502800  0.87502800  0.37502800  1
  Ni  Ni2_7  1  0.87502800  0.87502800  0.87502800  1
loop_
_geom_bond_atom_site_label_1
_geom_bond_atom_site_label_2
_geom_bond_distance
_geom_bond_site_symmetry_2
V0_0 V0_5 2.513124 1_455
V0_0 V0_3 2.513124 1_545
V0_0 V0_5 2.513124 1_554
V0_0 V0_3 2.513124 1_554
V0_0 V0_6 2.513124 1_545
V0_0 V0_6 2.513124 1_455
V0_1 V0_4 2.513124 1_555
V0_1 V0_2 2.513124 1_555
V0_1 V0_4 2.513124 1_456
V0_1 V0_2 2.513124 1_546
V0_1 V0_7 2.513124 1_455
V0_1 V0_7 2.513124 1_545
V0_2 V0_7 2.513124 1_455
V0_2 V0_7 2.513124 1_554
V0_2 V0_4 2.513124 1_555
V0_2 V0_4 2.513124 1_465
V0_3 V0_6 2.513124 1_555
V0_3 V0_6 2.513124 1_456
V0_3 V0_5 2.513124 1_555
V0_3 V0_5 2.513124 1_465
V0_4 V0_7 2.513124 1_545
V0_4 V0_7 2.513124 1_554
V0_5 V0_6 2.513124 1_555
V0_5 V0_6 2.513124 1_546
Ni0_0 Ni1_1 2.511146 1_554
Ni0_0 Ni1_4 2.511146 1_455
Ni0_0 Ni1_2 2.511146 1_545
Ni0_0 Ni0_3 2.513124 1_545
Ni0_0 Ni0_5 2.513124 1_455
Ni0_0 Ni0_5 2.513124 1_554
Ni0_0 Ni0_3 2.513124 1_554
Ni0_0 Ni0_6 2.513124 1_545
Ni0_0 Ni0_6 2.513124 1_455
Ni0_0 V0_1 2.513396 1_555
Ni0_0 V0_4 2.513396 1_555
Ni0_0 V0_2 2.513396 1_555
Ni0_1 Ni1_0 2.511146 1_555
Ni0_1 Ni1_3 2.511146 1_545
Ni0_1 Ni1_5 2.511146 1_455
Ni0_1 Ni0_2 2.513124 1_555
Ni0_1 Ni0_4 2.513124 1_555
Ni0_1 Ni0_4 2.513124 1_456
Ni0_1 Ni0_2 2.513124 1_546
Ni0_1 Ni0_7 2.513124 1_455
Ni0_1 Ni0_7 2.513124 1_545
Ni0_1 V0_0 2.513396 1_556
Ni0_1 V0_5 2.513396 1_555
Ni0_1 V0_3 2.513396 1_555
Ni0_2 Ni1_3 2.511146 1_554
Ni0_2 Ni1_0 2.511146 1_555
Ni0_2 Ni1_6 2.511146 1_455
Ni0_2 Ni0_7 2.513124 1_455
Ni0_2 Ni0_7 2.513124 1_554
Ni0_2 Ni0_4 2.513124 1_555
Ni0_2 Ni0_4 2.513124 1_465
Ni0_2 V0_3 2.513396 1_555
Ni0_2 V0_6 2.513396 1_555
Ni0_2 V0_0 2.513396 1_565
Ni0_3 Ni1_2 2.511146 1_555
Ni0_3 Ni1_7 2.511146 1_455
Ni0_3 Ni1_1 2.511146 1_555
Ni0_3 Ni0_6 2.513124 1_555
Ni0_3 Ni0_6 2.513124 1_456
Ni0_3 Ni0_5 2.513124 1_465
Ni0_3 Ni0_5 2.513124 1_555
Ni0_3 V0_2 2.513396 1_556
Ni0_3 V0_7 2.513396 1_555
Ni0_3 V0_1 2.513396 1_565
Ni0_4 Ni1_5 2.511146 1_554
Ni0_4 Ni1_6 2.511146 1_545
Ni0_4 Ni1_0 2.511146 1_555
Ni0_4 Ni0_7 2.513124 1_545
Ni0_4 Ni0_7 2.513124 1_554
Ni0_4 V0_5 2.513396 1_555
Ni0_4 V0_0 2.513396 1_655
Ni0_4 V0_6 2.513396 1_555
Ni0_5 Ni1_4 2.511146 1_555
Ni0_5 Ni1_7 2.511146 1_545
Ni0_5 Ni1_1 2.511146 1_555
Ni0_5 Ni0_6 2.513124 1_555
Ni0_5 Ni0_6 2.513124 1_546
Ni0_5 V0_4 2.513396 1_556
Ni0_5 V0_1 2.513396 1_655
Ni0_5 V0_7 2.513396 1_555
Ni0_6 Ni1_7 2.511146 1_554
Ni0_6 Ni1_4 2.511146 1_555
Ni0_6 Ni1_2 2.511146 1_555
Ni0_6 V0_7 2.513396 1_555
Ni0_6 V0_2 2.513396 1_655
Ni0_6 V0_4 2.513396 1_565
Ni0_7 Ni1_6 2.511146 1_555
Ni0_7 Ni1_5 2.511146 1_555
Ni0_7 Ni1_3 2.511146 1_555
Ni0_7 V0_6 2.513396 1_556
Ni0_7 V0_3 2.513396 1_655
Ni0_7 V0_5 2.513396 1_565
Ni1_0 Ni2_1 2.511146 1_554
Ni1_0 Ni2_2 2.511146 1_545
Ni1_0 Ni2_4 2.511146 1_455
Ni1_0 Ni1_5 2.513124 1_554
Ni1_0 Ni1_3 2.513124 1_554
Ni1_0 Ni1_5 2.513124 1_455
Ni1_0 Ni1_3 2.513124 1_545
Ni1_0 Ni1_6 2.513124 1_545
Ni1_0 Ni1_6 2.513124 1_455
Ni1_1 Ni2_0 2.511146 1_555
Ni1_1 Ni2_3 2.511146 1_545
Ni1_1 Ni2_5 2.511146 1_455
Ni1_1 Ni1_4 2.513124 1_555
Ni1_1 Ni1_4 2.513124 1_456
Ni1_1 Ni1_2 2.513124 1_555
Ni1_1 Ni1_2 2.513124 1_546
Ni1_1 Ni1_7 2.513124 1_455
Ni1_1 Ni1_7 2.513124 1_545
Ni1_2 Ni2_3 2.511146 1_554
Ni1_2 Ni2_6 2.511146 1_455
Ni1_2 Ni2_0 2.511146 1_555
Ni1_2 Ni1_7 2.513124 1_455
Ni1_2 Ni1_7 2.513124 1_554
Ni1_2 Ni1_4 2.513124 1_555
Ni1_2 Ni1_4 2.513124 1_465
Ni1_3 Ni2_2 2.511146 1_555
Ni1_3 Ni2_7 2.511146 1_455
Ni1_3 Ni2_1 2.511146 1_555
Ni1_3 Ni1_6 2.513124 1_456
Ni1_3 Ni1_6 2.513124 1_555
Ni1_3 Ni1_5 2.513124 1_555
Ni1_3 Ni1_5 2.513124 1_465
Ni1_4 Ni2_5 2.511146 1_554
Ni1_4 Ni2_6 2.511146 1_545
Ni1_4 Ni2_0 2.511146 1_555
Ni1_4 Ni1_7 2.513124 1_545
Ni1_4 Ni1_7 2.513124 1_554
Ni1_5 Ni2_4 2.511146 1_555
Ni1_5 Ni2_7 2.511146 1_545
Ni1_5 Ni2_1 2.511146 1_555
Ni1_5 Ni1_6 2.513124 1_546
Ni1_5 Ni1_6 2.513124 1_555
Ni1_6 Ni2_7 2.511146 1_554
Ni1_6 Ni2_4 2.511146 1_555
Ni1_6 Ni2_2 2.511146 1_555
Ni1_7 Ni2_6 2.511146 1_555
Ni1_7 Ni2_5 2.511146 1_555
Ni1_7 Ni2_3 2.511146 1_555
Ni2_0 Ni2_3 2.513124 1_554
Ni2_0 Ni2_5 2.513124 1_554
Ni2_0 Ni2_3 2.513124 1_545
Ni2_0 Ni2_5 2.513124 1_455
Ni2_0 Ni2_6 2.513124 1_455
Ni2_0 Ni2_6 2.513124 1_545
Ni2_0 V0_6 2.513396 1_555
Ni2_0 V0_3 2.513396 1_555
Ni2_0 V0_5 2.513396 1_555
Ni2_1 Ni2_2 2.513124 1_555
Ni2_1 Ni2_4 2.513124 1_555
Ni2_1 Ni2_2 2.513124 1_546
Ni2_1 Ni2_4 2.513124 1_456
Ni2_1 Ni2_7 2.513124 1_455
Ni2_1 Ni2_7 2.513124 1_545
Ni2_1 V0_7 2.513396 1_555
Ni2_1 V0_2 2.513396 1_556
Ni2_1 V0_4 2.513396 1_556
Ni2_2 Ni2_7 2.513124 1_554
Ni2_2 Ni2_7 2.513124 1_455
Ni2_2 Ni2_4 2.513124 1_555
Ni2_2 Ni2_4 2.513124 1_465
Ni2_2 V0_4 2.513396 1_565
Ni2_2 V0_1 2.513396 1_565
Ni2_2 V0_7 2.513396 1_555
Ni2_3 Ni2_6 2.513124 1_456
Ni2_3 Ni2_6 2.513124 1_555
Ni2_3 Ni2_5 2.513124 1_555
Ni2_3 Ni2_5 2.513124 1_465
Ni2_3 V0_5 2.513396 1_565
Ni2_3 V0_0 2.513396 1_566
Ni2_3 V0_6 2.513396 1_556
Ni2_4 Ni2_7 2.513124 1_545
Ni2_4 Ni2_7 2.513124 1_554
Ni2_4 V0_2 2.513396 1_655
Ni2_4 V0_7 2.513396 1_555
Ni2_4 V0_1 2.513396 1_655
Ni2_5 Ni2_6 2.513124 1_546
Ni2_5 Ni2_6 2.513124 1_555
Ni2_5 V0_3 2.513396 1_655
Ni2_5 V0_6 2.513396 1_556
Ni2_5 V0_0 2.513396 1_656
Ni2_6 V0_0 2.513396 1_665
Ni2_6 V0_5 2.513396 1_565
Ni2_6 V0_3 2.513396 1_655
Ni2_7 V0_1 2.513396 1_665
Ni2_7 V0_4 2.513396 1_566
Ni2_7 V0_2 2.513396 1_656
