# generated using pymatgen
data_La5Al15Cu2Au3
_symmetry_space_group_name_H-M   'P 1'
_cell_length_a   4.36974886
_cell_length_b   4.36974886
_cell_length_c   27.16488134
_cell_angle_alpha   85.38671103
_cell_angle_beta   85.38671103
_cell_angle_gamma   90.00000000
_symmetry_Int_Tables_number   1
_chemical_formula_structural   La5Al15Cu2Au3
_chemical_formula_sum   'La5 Al15 Cu2 Au3'
_cell_volume   515.33896737
_cell_formula_units_Z   1
loop_
 _symmetry_equiv_pos_site_id
 _symmetry_equiv_pos_as_xyz
  1  'x, y, z'
loop_
 _atom_site_type_symbol
 _atom_site_label
 _atom_site_symmetry_multiplicity
 _atom_site_fract_x
 _atom_site_fract_y
 _atom_site_fract_z
 _atom_site_occupancy
  La  La0  1  0.00120689  0.00120689  0.99758622  1
  La  La1  1  0.40158672  0.40158672  0.19682656  1
  La  La2  1  0.80265965  0.80265965  0.39468071  1
  La  La3  1  0.20236718  0.20236718  0.59526564  1
  La  La4  1  0.60238865  0.60238865  0.79522270  1
  Al  Al0  1  0.92003920  0.92003920  0.15992160  1
  Al  Al1  1  0.32187836  0.32187836  0.35624329  1
  Al  Al2  1  0.72089310  0.72089310  0.55821381  1
  Al  Al3  1  0.12073573  0.12073573  0.75852853  1
  Al  Al4  1  0.51900750  0.51900750  0.96198500  1
  Al  Al5  1  0.45098922  0.95098922  0.09802157  1
  Al  Al6  1  0.85164924  0.35164924  0.29670153  1
  Al  Al7  1  0.25003413  0.75003413  0.49993173  1
  Al  Al8  1  0.64985733  0.14985733  0.70028534  1
  Al  Al9  1  0.04925692  0.54925692  0.90148616  1
  Al  Al10  1  0.95098922  0.45098922  0.09802157  1
  Al  Al11  1  0.35164924  0.85164924  0.29670153  1
  Al  Al12  1  0.75003413  0.25003413  0.49993173  1
  Al  Al13  1  0.14985733  0.64985733  0.70028534  1
  Al  Al14  1  0.54925692  0.04925692  0.90148616  1
  Cu  Cu0  1  0.47396752  0.47396752  0.05206495  1
  Cu  Cu1  1  0.87455623  0.87455623  0.25088754  1
  Au  Au0  1  0.27514332  0.27514332  0.44971336  1
  Au  Au1  1  0.67464521  0.67464521  0.65070959  1
  Au  Au2  1  0.07435108  0.07435108  0.85129784  1
loop_
_geom_bond_atom_site_label_1
_geom_bond_atom_site_label_2
_geom_bond_distance
_geom_bond_site_symmetry_2
Al0 Cu1 2.455042 1_555
Al0 Al5 2.750375 1_555
Al0 Al10 2.750375 1_555
Al0 Al10 2.750375 1_565
Al0 Al5 2.750375 1_655
Al0 La1 3.246443 1_555
Al0 La1 3.246443 1_565
Al0 La1 3.246443 1_655
Al0 La1 3.246443 1_665
Al1 Au0 2.522624 1_555
Al1 La2 3.259370 1_555
Al1 La2 3.259370 1_455
Al1 La2 3.259370 1_545
Al1 La2 3.259370 1_445
Al2 Au1 2.496330 1_555
Al2 La3 3.247661 1_665
Al2 La3 3.247661 1_565
Al2 La3 3.247661 1_655
Al2 La3 3.247662 1_555
Al3 Au2 2.503712 1_555
Al3 La4 3.244702 1_445
Al3 La4 3.244702 1_455
Al3 La4 3.244702 1_545
Al3 La4 3.244702 1_555
Al4 Cu0 2.431130 1_556
Al4 La0 3.235821 1_555
Al4 La0 3.235821 1_565
Al4 La0 3.235821 1_655
Al4 La0 3.235821 1_665
Al5 Cu0 2.512375 1_565
Al5 Cu0 2.512375 1_555
Al5 La1 3.447385 1_565
Al5 La1 3.447385 1_555
Al5 La0 3.481533 1_664
Al5 La0 3.481533 1_564
Al6 Cu1 2.510477 1_555
Al6 Cu1 2.510477 1_545
Al6 La2 3.430175 1_555
Al6 La2 3.430175 1_545
Al6 La1 3.469771 1_655
Al6 La1 3.469771 1_555
Al7 Au0 2.571104 1_555
Al7 Au0 2.571104 1_565
Al7 La3 3.375445 1_555
Al7 La3 3.375445 1_565
Al7 La2 3.583650 1_455
Al7 La2 3.583650 1_555
Al8 Au1 2.562004 1_545
Al8 Au1 2.562004 1_555
Al8 La4 3.367294 1_555
Al8 La4 3.367294 1_545
Al8 La3 3.578703 1_555
Al8 La3 3.578703 1_655
Al9 Au2 2.570676 1_565
Al9 Au2 2.570676 1_555
Al9 La0 3.391233 1_565
Al9 La0 3.391233 1_555
Al9 La4 3.605347 1_555
Al9 La4 3.605347 1_455
Al10 Cu0 2.512375 1_655
Al10 Cu0 2.512375 1_555
Al10 La1 3.447385 1_655
Al10 La1 3.447385 1_555
Al10 La0 3.481533 1_664
Al10 La0 3.481533 1_654
Al11 Cu1 2.510477 1_555
Al11 Cu1 2.510477 1_455
Al11 La2 3.430175 1_455
Al11 La2 3.430175 1_555
Al11 La1 3.469771 1_565
Al11 La1 3.469771 1_555
Al12 Au0 2.571104 1_555
Al12 Au0 2.571104 1_655
Al12 La3 3.375445 1_555
Al12 La3 3.375445 1_655
Al12 La2 3.583650 1_545
Al12 La2 3.583650 1_555
Al13 Au1 2.562004 1_455
Al13 Au1 2.562004 1_555
Al13 La4 3.367294 1_555
Al13 La4 3.367294 1_455
Al13 La3 3.578703 1_565
Al13 La3 3.578703 1_555
Al14 Au2 2.570676 1_655
Al14 Au2 2.570676 1_555
Al14 La0 3.391233 1_655
Al14 La0 3.391233 1_555
Al14 La4 3.605347 1_555
Al14 La4 3.605347 1_545
Cu0 La0 3.421863 1_554
Cu0 La0 3.421863 1_654
Cu0 La0 3.421863 1_564
Cu0 La0 3.421863 1_664
Cu1 La1 3.417034 1_555
Cu1 La1 3.417034 1_565
Cu1 La1 3.417034 1_655
Cu1 La1 3.417034 1_665
Au0 La2 3.428313 1_445
Au0 La2 3.428313 1_455
Au0 La2 3.428313 1_545
Au0 La2 3.428313 1_555
Au1 La3 3.433136 1_665
Au1 La3 3.433136 1_565
Au1 La3 3.433136 1_655
Au1 La3 3.433137 1_555
Au2 La4 3.440595 1_555
Au2 La4 3.440595 1_455
Au2 La4 3.440595 1_545
Au2 La4 3.440595 1_445
