# generated using pymatgen
data_Mg9Si5
_symmetry_space_group_name_H-M   'P 1'
_cell_length_a   5.00690800
_cell_length_b   7.93874080
_cell_length_c   14.50292713
_cell_angle_alpha   83.90009271
_cell_angle_beta   83.61608744
_cell_angle_gamma   76.56427778
_symmetry_Int_Tables_number   1
_chemical_formula_structural   Mg9Si5
_chemical_formula_sum   'Mg18 Si10'
_cell_volume   555.28396940
_cell_formula_units_Z   2
loop_
 _symmetry_equiv_pos_site_id
 _symmetry_equiv_pos_as_xyz
  1  'x, y, z'
loop_
 _atom_site_type_symbol
 _atom_site_label
 _atom_site_symmetry_multiplicity
 _atom_site_fract_x
 _atom_site_fract_y
 _atom_site_fract_z
 _atom_site_occupancy
  Mg  Mg0  1  0.91818600  0.95668400  0.32209500  1
  Mg  Mg1  1  0.51304200  0.90834400  0.50997900  1
  Mg  Mg2  1  0.48954200  0.74400400  0.31473300  1
  Mg  Mg3  1  0.95421600  0.14659500  0.49010700  1
  Mg  Mg4  1  0.08469900  0.49357300  0.36096100  1
  Mg  Mg5  1  0.57558100  0.52114200  0.50362000  1
  Mg  Mg6  1  0.40912600  0.90727000  0.79760100  1
  Mg  Mg7  1  0.14072000  0.48118900  0.98865300  1
  Mg  Mg8  1  0.71034900  0.13061200  0.87849800  1
  Mg  Mg9  1  0.16327500  0.07427300  0.98785500  1
  Mg  Mg10  1  0.70812300  0.52325100  0.84102000  1
  Mg  Mg11  1  0.56913200  0.72108700  0.01565600  1
  Mg  Mg12  1  0.10140400  0.51803200  0.64208500  1
  Mg  Mg13  1  0.02770200  0.25798800  0.18261000  1
  Mg  Mg14  1  0.70338300  0.29097300  0.68506500  1
  Mg  Mg15  1  0.62997600  0.02454400  0.13683200  1
  Mg  Mg16  1  0.96807700  0.88358700  0.67415600  1
  Mg  Mg17  1  0.45437300  0.47286800  0.18031300  1
  Si  Si0  1  0.21101800  0.25984600  0.80276000  1
  Si  Si1  1  0.28242900  0.16377000  0.63079600  1
  Si  Si2  1  0.06941200  0.75776700  0.47555300  1
  Si  Si3  1  0.92534400  0.64140900  0.17618200  1
  Si  Si4  1  0.96126300  0.79396600  0.88441900  1
  Si  Si5  1  0.38473500  0.12347500  0.32343600  1
  Si  Si6  1  0.67440900  0.32920800  0.02181200  1
  Si  Si7  1  0.18165200  0.87395400  0.15353900  1
  Si  Si8  1  0.64256600  0.34150900  0.34755000  1
  Si  Si9  1  0.54611500  0.65865200  0.67243400  1
loop_
_geom_bond_atom_site_label_1
_geom_bond_atom_site_label_2
_geom_bond_distance
_geom_bond_site_symmetry_2
Mg0 Si2 2.663166 1_655
Mg0 Si5 2.690351 1_565
Mg0 Si7 2.714560 1_655
Mg0 Si5 2.943357 1_665
Mg0 Si8 3.088866 1_565
Mg1 Si2 2.776400 1_655
Mg1 Si1 2.780718 1_565
Mg1 Si2 2.866950 1_555
Mg1 Si9 2.906793 1_555
Mg1 Si5 3.089252 1_565
Mg2 Si3 2.830045 1_555
Mg2 Si7 2.907886 1_555
Mg2 Si5 2.949244 1_565
Mg2 Si2 2.955178 1_555
Mg2 Si8 3.105433 1_555
Mg3 Si1 2.791286 1_655
Mg3 Si8 2.831822 1_555
Mg3 Si2 3.031438 1_645
Mg3 Si5 3.045461 1_655
Mg4 Si8 2.767522 1_555
Mg4 Si8 2.789846 1_455
Mg4 Si2 2.793687 1_555
Mg4 Si3 2.927020 1_455
Mg4 Si5 3.048333 1_555
Mg5 Si8 2.750337 1_555
Mg5 Si9 2.760523 1_555
Mg5 Si2 2.823453 1_555
Mg6 Si4 2.737080 1_455
Mg6 Si9 2.741665 1_555
Mg6 Si0 2.749862 1_565
Mg6 Si1 3.015839 1_565
Mg6 Si4 3.068340 1_555
Mg7 Si6 2.737062 1_556
Mg7 Si4 2.779506 1_455
Mg7 Si6 2.841525 1_456
Mg7 Si3 3.102124 1_456
Mg8 Si4 2.672661 1_545
Mg8 Si6 2.705461 1_556
Mg8 Si0 2.772878 1_555
Mg8 Si0 2.981027 1_655
Mg9 Si7 2.735041 1_546
Mg9 Si6 2.823384 1_456
Mg9 Si0 2.934977 1_555
Mg9 Si4 3.212185 1_445
Mg10 Si9 2.696052 1_555
Mg10 Si4 2.889998 1_555
Mg10 Si6 2.905247 1_556
Mg10 Si0 2.917147 1_655
Mg11 Si4 2.697221 1_554
Mg11 Si7 2.791840 1_555
Mg11 Si3 3.014503 1_555
Mg11 Si6 3.025505 1_555
Mg12 Si9 2.749522 1_455
Mg12 Si1 2.763722 1_555
Mg12 Si9 2.806299 1_555
Mg12 Si2 2.906626 1_555
Mg12 Si0 2.946021 1_555
Mg13 Si5 2.822873 1_555
Mg13 Si8 2.932142 1_455
Mg13 Si3 2.960056 1_455
Mg13 Si6 3.009897 1_455
Mg13 Si7 3.029126 1_545
Mg14 Si1 2.758338 1_555
Mg14 Si9 2.832660 1_555
Mg14 Si0 2.882650 1_555
Mg14 Si1 2.888890 1_655
Mg15 Si7 2.755218 1_545
Mg15 Si7 2.769537 1_645
Mg15 Si6 2.827025 1_555
Mg15 Si5 2.951819 1_555
Mg15 Si3 3.081007 1_545
Mg16 Si1 2.988268 1_665
Mg16 Si9 3.026114 1_655
Mg16 Si4 3.055067 1_555
Mg16 Si9 3.070403 1_555
Mg16 Si2 3.098765 1_655
Mg17 Si3 2.679787 1_455
Mg17 Si6 2.684900 1_555
Mg17 Si8 2.715160 1_555
Mg17 Si3 2.961806 1_555
Mg17 Si7 3.160474 1_555
Si0 Si1 2.647408 1_555
Si3 Si7 2.457898 1_655
Si5 Si8 2.460149 1_555
