# generated using pymatgen
data_GaGe3
_symmetry_space_group_name_H-M   'P 1'
_cell_length_a   4.27846600
_cell_length_b   4.27846600
_cell_length_c   4.27846600
_cell_angle_alpha   90.00000000
_cell_angle_beta   90.00000000
_cell_angle_gamma   90.00000000
_symmetry_Int_Tables_number   1
_chemical_formula_structural   GaGe3
_chemical_formula_sum   'Ga1 Ge3'
_cell_volume   78.31848093
_cell_formula_units_Z   1
loop_
 _symmetry_equiv_pos_site_id
 _symmetry_equiv_pos_as_xyz
  1  'x, y, z'
loop_
 _atom_site_type_symbol
 _atom_site_label
 _atom_site_symmetry_multiplicity
 _atom_site_fract_x
 _atom_site_fract_y
 _atom_site_fract_z
 _atom_site_occupancy
  Ga  Ga0  1  0.00000000  0.00000000  0.00000000  1
  Ge  Ge0  1  0.00000000  0.50000000  0.50000000  1
  Ge  Ge1  1  0.50000000  0.00000000  0.50000000  1
  Ge  Ge2  1  0.50000000  0.50000000  0.00000000  1
loop_
_geom_bond_atom_site_label_1
_geom_bond_atom_site_label_2
_geom_bond_distance
_geom_bond_site_symmetry_2
Ga0 Ge2 3.025332 1_545
Ga0 Ge1 3.025332 1_555
Ga0 Ge1 3.025332 1_554
Ga0 Ge1 3.025332 1_455
Ga0 Ge0 3.025332 1_544
Ga0 Ge0 3.025332 1_555
Ga0 Ge0 3.025332 1_545
Ga0 Ge2 3.025332 1_455
Ga0 Ge1 3.025332 1_454
Ga0 Ge2 3.025332 1_555
Ga0 Ge2 3.025332 1_445
Ga0 Ge0 3.025332 1_554
Ge0 Ge1 3.025332 1_555
Ge0 Ge1 3.025332 1_455
Ge0 Ge1 3.025332 1_465
Ge0 Ge2 3.025332 1_456
Ge0 Ge2 3.025332 1_455
Ge0 Ge2 3.025332 1_555
Ge0 Ge2 3.025332 1_556
Ge0 Ge1 3.025332 1_565
Ge1 Ge2 3.025332 1_545
Ge1 Ge2 3.025332 1_555
Ge1 Ge2 3.025332 1_556
Ge1 Ge2 3.025332 1_546
