# generated using pymatgen
data_BiC3S3(NO)9
_symmetry_space_group_name_H-M   'P 1'
_cell_length_a   16.29949000
_cell_length_b   7.60056700
_cell_length_c   16.80371031
_cell_angle_alpha   87.55437942
_cell_angle_beta   90.00000000
_cell_angle_gamma   90.00000000
_symmetry_Int_Tables_number   1
_chemical_formula_structural   BiC3S3(NO)9
_chemical_formula_sum   'Bi4 C12 S12 N36 O36'
_cell_volume   2079.83769481
_cell_formula_units_Z   4
loop_
 _symmetry_equiv_pos_site_id
 _symmetry_equiv_pos_as_xyz
  1  'x, y, z'
loop_
 _atom_site_type_symbol
 _atom_site_label
 _atom_site_symmetry_multiplicity
 _atom_site_fract_x
 _atom_site_fract_y
 _atom_site_fract_z
 _atom_site_occupancy
  Bi  Bi0  1  0.65274100  0.70684300  0.72405500  1
  Bi  Bi1  1  0.15274100  0.29315700  0.77594500  1
  Bi  Bi2  1  0.34725900  0.29315700  0.27594500  1
  Bi  Bi3  1  0.84725900  0.70684300  0.22405500  1
  C  C0  1  0.72908400  0.11428800  0.52228200  1
  C  C1  1  0.22908400  0.88571200  0.97771800  1
  C  C2  1  0.27091600  0.88571200  0.47771800  1
  C  C3  1  0.77091600  0.11428800  0.02228200  1
  C  C4  1  0.84270000  0.80451700  0.86736300  1
  C  C5  1  0.34270000  0.19548300  0.63263700  1
  C  C6  1  0.15730000  0.19548300  0.13263700  1
  C  C7  1  0.65730000  0.80451700  0.36736300  1
  C  C8  1  0.89636200  0.54524400  0.64841900  1
  C  C9  1  0.39636200  0.45475600  0.85158100  1
  C  C10  1  0.10363800  0.45475600  0.35158100  1
  C  C11  1  0.60363800  0.54524400  0.14841900  1
  S  S0  1  0.74026800  0.08907400  0.67710400  1
  S  S1  1  0.24026800  0.91092600  0.82289600  1
  S  S2  1  0.25973200  0.91092600  0.32289600  1
  S  S3  1  0.75973200  0.08907400  0.17710400  1
  S  S4  1  0.86831200  0.00657100  0.72885400  1
  S  S5  1  0.36831200  0.99342900  0.77114600  1
  S  S6  1  0.13168800  0.99342900  0.27114600  1
  S  S7  1  0.63168800  0.00657100  0.22885400  1
  S  S8  1  0.80026100  0.65589700  0.52911000  1
  S  S9  1  0.30026100  0.34410300  0.97089000  1
  S  S10  1  0.19973900  0.34410300  0.47089000  1
  S  S11  1  0.69973900  0.65589700  0.02911000  1
  N  N0  1  0.77318500  0.08212200  0.58566900  1
  N  N1  1  0.27318500  0.91787800  0.91433100  1
  N  N2  1  0.22681500  0.91787800  0.41433100  1
  N  N3  1  0.72681500  0.08212200  0.08566900  1
  N  N4  1  0.69737300  0.13841700  0.45902500  1
  N  N5  1  0.19737300  0.86158300  0.04097500  1
  N  N6  1  0.30262700  0.86158300  0.54097500  1
  N  N7  1  0.80262700  0.13841700  0.95902500  1
  N  N8  1  0.82661900  0.70911300  0.92301400  1
  N  N9  1  0.32661900  0.29088700  0.57698600  1
  N  N10  1  0.17338100  0.29088700  0.07698600  1
  N  N11  1  0.67338100  0.70911300  0.42301400  1
  N  N12  1  0.86624100  0.90349000  0.80885100  1
  N  N13  1  0.36624100  0.09651000  0.69114900  1
  N  N14  1  0.13375900  0.09651000  0.19114900  1
  N  N15  1  0.63375900  0.90349000  0.30885100  1
  N  N16  1  0.87837400  0.62976100  0.58290500  1
  N  N17  1  0.37837400  0.37023900  0.91709500  1
  N  N18  1  0.12162600  0.37023900  0.41709500  1
  N  N19  1  0.62162600  0.62976100  0.08290500  1
  N  N20  1  0.91080700  0.46723600  0.70949100  1
  N  N21  1  0.41080700  0.53276400  0.79050900  1
  N  N22  1  0.08919300  0.53276400  0.29050900  1
  N  N23  1  0.58919300  0.46723600  0.20949100  1
  N  N24  1  0.51697400  0.69384200  0.58750000  1
  N  N25  1  0.01697400  0.30615800  0.91250000  1
  N  N26  1  0.48302600  0.30615800  0.41250000  1
  N  N27  1  0.98302600  0.69384200  0.08750000  1
  N  N28  1  0.56687700  0.86609800  0.85003200  1
  N  N29  1  0.06687700  0.13390200  0.64996800  1
  N  N30  1  0.43312300  0.13390200  0.14996800  1
  N  N31  1  0.93312300  0.86609800  0.35003200  1
  N  N32  1  0.64610300  0.38999200  0.82110200  1
  N  N33  1  0.14610300  0.61000800  0.67889800  1
  N  N34  1  0.35389700  0.61000800  0.17889800  1
  N  N35  1  0.85389700  0.38999200  0.32110200  1
  O  O0  1  0.60321300  0.69098400  0.60279300  1
  O  O1  1  0.10321300  0.30901600  0.89720700  1
  O  O2  1  0.39678700  0.30901600  0.39720700  1
  O  O3  1  0.89678700  0.69098400  0.10279300  1
  O  O4  1  0.49855300  0.69810700  0.51747100  1
  O  O5  1  0.99855300  0.30189300  0.98252900  1
  O  O6  1  0.50144700  0.30189300  0.48252900  1
  O  O7  1  0.00144700  0.69810700  0.01747100  1
  O  O8  1  0.47251700  0.69229300  0.64637000  1
  O  O9  1  0.97251700  0.30770700  0.85363000  1
  O  O10  1  0.52748300  0.30770700  0.35363000  1
  O  O11  1  0.02748300  0.69229300  0.14637000  1
  O  O12  1  0.55326600  0.88907100  0.77153500  1
  O  O13  1  0.05326600  0.11092900  0.72846500  1
  O  O14  1  0.44673400  0.11092900  0.22846500  1
  O  O15  1  0.94673400  0.88907100  0.27153500  1
  O  O16  1  0.63341300  0.78557000  0.86841400  1
  O  O17  1  0.13341300  0.21443000  0.63158600  1
  O  O18  1  0.36658700  0.21443000  0.13158600  1
  O  O19  1  0.86658700  0.78557000  0.36841400  1
  O  O20  1  0.51716100  0.91895500  0.89723200  1
  O  O21  1  0.01716100  0.08104500  0.60276800  1
  O  O22  1  0.48283900  0.08104500  0.10276800  1
  O  O23  1  0.98283900  0.91895500  0.39723200  1
  O  O24  1  0.58545600  0.47167500  0.77875600  1
  O  O25  1  0.08545600  0.52832500  0.72124400  1
  O  O26  1  0.41454400  0.52832500  0.22124400  1
  O  O27  1  0.91454400  0.47167500  0.27875600  1
  O  O28  1  0.71832200  0.44395900  0.80650800  1
  O  O29  1  0.21832200  0.55604100  0.69349200  1
  O  O30  1  0.28167800  0.55604100  0.19349200  1
  O  O31  1  0.78167800  0.44395900  0.30650800  1
  O  O32  1  0.62740000  0.27224800  0.86906600  1
  O  O33  1  0.12740000  0.72775200  0.63093400  1
  O  O34  1  0.37260000  0.72775200  0.13093400  1
  O  O35  1  0.87260000  0.27224800  0.36906600  1
loop_
_geom_bond_atom_site_label_1
_geom_bond_atom_site_label_2
_geom_bond_distance
_geom_bond_site_symmetry_2
Bi0 O0 2.199822 1_555
Bi0 O24 2.258825 1_555
Bi0 O12 2.297410 1_555
Bi0 O16 2.542738 1_555
Bi0 O28 2.611187 1_555
Bi1 O1 2.199822 1_555
Bi1 O25 2.258825 1_555
Bi1 O13 2.297410 1_555
Bi1 O17 2.542738 1_555
Bi1 O29 2.611187 1_555
Bi2 O2 2.199822 1_555
Bi2 O26 2.258825 1_555
Bi2 O14 2.297410 1_555
Bi2 O18 2.542738 1_555
Bi2 O30 2.611187 1_555
Bi3 O3 2.199822 1_555
Bi3 O27 2.258825 1_555
Bi3 O15 2.297410 1_555
Bi3 O19 2.542738 1_555
Bi3 O31 2.611187 1_555
C0 N4 1.189127 1_555
C0 N0 1.299527 1_555
C1 N5 1.189127 1_556
C1 N1 1.299527 1_555
C2 N6 1.189127 1_555
C2 N2 1.299527 1_555
C3 N7 1.189127 1_554
C3 N3 1.299527 1_555
C4 N8 1.187910 1_555
C4 N12 1.271499 1_555
C5 N9 1.187910 1_555
C5 N13 1.271499 1_555
C6 N10 1.187910 1_555
C6 N14 1.271499 1_555
C7 N11 1.187910 1_555
C7 N15 1.271499 1_555
C8 N20 1.186678 1_555
C8 N16 1.284598 1_555
C9 N21 1.186678 1_555
C9 N17 1.284598 1_555
C10 N22 1.186678 1_555
C10 N18 1.284598 1_555
C11 N23 1.186678 1_555
C11 N19 1.284598 1_555
N0 S0 1.630416 1_555
N1 S1 1.630416 1_555
N2 S2 1.630416 1_555
N3 S3 1.630416 1_555
N12 S4 1.527118 1_565
N13 S5 1.527118 1_545
N14 S6 1.527118 1_545
N15 S7 1.527118 1_565
N16 S8 1.569177 1_555
N17 S9 1.569177 1_555
N18 S10 1.569177 1_555
N19 S11 1.569177 1_555
N24 O4 1.213541 1_555
N24 O8 1.225893 1_555
N24 O0 1.428947 1_555
N25 O5 1.213541 1_455
N25 O9 1.225893 1_455
N25 O1 1.428947 1_555
N26 O6 1.213541 1_555
N26 O10 1.225893 1_555
N26 O2 1.428947 1_555
N27 O7 1.213541 1_655
N27 O11 1.225893 1_655
N27 O3 1.428947 1_555
N28 O20 1.214213 1_555
N28 O16 1.276729 1_555
N28 O12 1.341611 1_555
N29 O21 1.214213 1_555
N29 O17 1.276729 1_555
N29 O13 1.341611 1_555
N30 O22 1.214213 1_555
N30 O18 1.276729 1_555
N30 O14 1.341611 1_555
N31 O23 1.214213 1_555
N31 O19 1.276729 1_555
N31 O15 1.341611 1_555
N32 O32 1.217314 1_555
N32 O28 1.267061 1_555
N32 O24 1.353230 1_555
N33 O33 1.217314 1_555
N33 O29 1.267061 1_555
N33 O25 1.353230 1_555
N34 O34 1.217314 1_555
N34 O30 1.267061 1_555
N34 O26 1.353230 1_555
N35 O35 1.217314 1_555
N35 O31 1.267061 1_555
N35 O27 1.353230 1_555
