# generated using pymatgen
data_LiHfMg6O7
_symmetry_space_group_name_H-M   'P 1'
_cell_length_a   8.75456782
_cell_length_b   4.29397156
_cell_length_c   4.29397156
_cell_angle_alpha   90.00000000
_cell_angle_beta   90.00000000
_cell_angle_gamma   90.00000000
_symmetry_Int_Tables_number   1
_chemical_formula_structural   LiHfMg6O7
_chemical_formula_sum   'Li1 Hf1 Mg6 O7'
_cell_volume   161.41840022
_cell_formula_units_Z   1
loop_
 _symmetry_equiv_pos_site_id
 _symmetry_equiv_pos_as_xyz
  1  'x, y, z'
loop_
 _atom_site_type_symbol
 _atom_site_label
 _atom_site_symmetry_multiplicity
 _atom_site_fract_x
 _atom_site_fract_y
 _atom_site_fract_z
 _atom_site_occupancy
  Li  Li0  1  0.99541262  0.00000000  -0.00000000  1
  Hf  Hf0  1  0.49644750  0.00000000  -0.00000000  1
  Mg  Mg0  1  0.00171709  0.50000000  0.50000000  1
  Mg  Mg1  1  0.49757450  0.50000000  0.50000000  1
  Mg  Mg2  1  0.23128539  0.00000000  0.50000000  1
  Mg  Mg3  1  0.77034959  0.00000000  0.50000000  1
  Mg  Mg4  1  0.23128539  0.50000000  0.00000000  1
  Mg  Mg5  1  0.77034959  0.50000000  -0.00000000  1
  O  O0  1  0.74428116  0.00000000  -0.00000000  1
  O  O1  1  0.25337453  0.50000000  0.50000000  1
  O  O2  1  0.74634813  0.50000000  0.50000000  1
  O  O3  1  0.00042416  0.00000000  0.50000000  1
  O  O4  1  0.50536309  0.00000000  0.50000000  1
  O  O5  1  0.00042416  0.50000000  -0.00000000  1
  O  O6  1  0.50536309  0.50000000  -0.00000000  1
loop_
_geom_bond_atom_site_label_1
_geom_bond_atom_site_label_2
_geom_bond_distance
_geom_bond_site_symmetry_2
Li0 O3 2.147434 1_654
Li0 O5 2.147434 1_655
Li0 O3 2.147434 1_655
Li0 O5 2.147434 1_645
Li0 O0 2.198547 1_555
Hf0 O6 2.148404 1_545
Hf0 O6 2.148404 1_555
Hf0 O4 2.148404 1_555
Hf0 O4 2.148404 1_554
Hf0 O0 2.169677 1_555
Mg0 O3 2.147016 1_565
Mg0 O5 2.147016 1_556
Mg0 O5 2.147016 1_555
Mg0 O3 2.147016 1_555
Mg0 O1 2.203152 1_555
Mg0 O2 2.235645 1_455
Mg1 O1 2.137865 1_555
Mg1 O4 2.148068 1_555
Mg1 O4 2.148068 1_565
Mg1 O6 2.148068 1_556
Mg1 O6 2.148068 1_555
Mg1 O2 2.177906 1_555
Mg2 O3 2.021090 1_555
Mg2 O1 2.155677 1_555
Mg2 O1 2.155677 1_545
Mg2 O4 2.399432 1_555
Mg3 O3 2.014203 1_655
Mg3 O2 2.157243 1_545
Mg3 O2 2.157243 1_555
Mg3 O0 2.159081 1_555
Mg3 O0 2.159081 1_556
Mg3 O4 2.319842 1_555
Mg4 O5 2.021090 1_555
Mg4 O1 2.155677 1_555
Mg4 O1 2.155677 1_554
Mg4 O6 2.399432 1_555
Mg5 O5 2.014203 1_655
Mg5 O2 2.157243 1_554
Mg5 O2 2.157243 1_555
Mg5 O0 2.159081 1_555
Mg5 O0 2.159081 1_565
Mg5 O6 2.319842 1_555
