# generated using pymatgen
data_La7Ir3
_symmetry_space_group_name_H-M   'P 1'
_cell_length_a   6.47986600
_cell_length_b   10.28367948
_cell_length_c   10.28367948
_cell_angle_alpha   119.97375936
_cell_angle_beta   90.00000000
_cell_angle_gamma   90.00000000
_symmetry_Int_Tables_number   1
_chemical_formula_structural   La7Ir3
_chemical_formula_sum   'La14 Ir6'
_cell_volume   593.61996084
_cell_formula_units_Z   2
loop_
 _symmetry_equiv_pos_site_id
 _symmetry_equiv_pos_as_xyz
  1  'x, y, z'
loop_
 _atom_site_type_symbol
 _atom_site_label
 _atom_site_symmetry_multiplicity
 _atom_site_fract_x
 _atom_site_fract_y
 _atom_site_fract_z
 _atom_site_occupancy
  La  La0  1  0.46736000  0.33329900  0.66670100  1
  La  La1  1  0.96736000  0.66670100  0.33329900  1
  La  La2  1  0.24995700  0.12551900  0.87448100  1
  La  La3  1  0.24996500  0.74887800  0.87446500  1
  La  La4  1  0.24996500  0.12553500  0.25112200  1
  La  La5  1  0.74995700  0.87448100  0.12551900  1
  La  La6  1  0.74996500  0.25112200  0.12553500  1
  La  La7  1  0.74996500  0.87446500  0.74887800  1
  La  La8  1  0.44004000  0.54014800  0.45985200  1
  La  La9  1  0.43989500  0.91974500  0.45993300  1
  La  La10  1  0.43989500  0.54006700  0.08025500  1
  La  La11  1  0.94004000  0.45985200  0.54014800  1
  La  La12  1  0.93989500  0.08025500  0.54006700  1
  La  La13  1  0.93989500  0.45993300  0.91974500  1
  Ir  Ir0  1  0.18796800  0.81114700  0.18885300  1
  Ir  Ir1  1  0.18797700  0.37769100  0.18885900  1
  Ir  Ir2  1  0.18797700  0.81114100  0.62230900  1
  Ir  Ir3  1  0.68796800  0.18885300  0.81114700  1
  Ir  Ir4  1  0.68797700  0.62230900  0.81114100  1
  Ir  Ir5  1  0.68797700  0.18885900  0.37769100  1
loop_
_geom_bond_atom_site_label_1
_geom_bond_atom_site_label_2
_geom_bond_distance
_geom_bond_site_symmetry_2
Ir0 La9 2.927899 1_555
Ir0 La10 2.927899 1_555
Ir0 La1 2.943011 1_455
Ir0 La3 2.992572 1_554
Ir0 La4 2.992572 1_565
Ir0 La5 3.054168 1_455
Ir1 La10 2.926403 1_555
Ir1 La8 2.927978 1_555
Ir1 La1 2.944850 1_455
Ir1 La4 2.992400 1_555
Ir1 La2 2.993506 1_554
Ir1 La6 3.054014 1_455
Ir2 La9 2.926403 1_555
Ir2 La8 2.927978 1_555
Ir2 La1 2.944850 1_455
Ir2 La3 2.992400 1_555
Ir2 La2 2.993506 1_565
Ir2 La7 3.054014 1_455
Ir3 La12 2.927899 1_555
Ir3 La13 2.927899 1_555
Ir3 La0 2.943011 1_555
Ir3 La7 2.992572 1_545
Ir3 La6 2.992572 1_556
Ir3 La2 3.054168 1_555
Ir4 La13 2.926403 1_555
Ir4 La11 2.927978 1_555
Ir4 La0 2.944850 1_555
Ir4 La7 2.992400 1_555
Ir4 La5 2.993506 1_556
Ir4 La3 3.054014 1_555
Ir5 La12 2.926403 1_555
Ir5 La11 2.927978 1_555
Ir5 La0 2.944850 1_555
Ir5 La6 2.992400 1_555
Ir5 La5 2.993506 1_545
Ir5 La4 3.054014 1_555
