# generated using pymatgen
data_TmAsS
_symmetry_space_group_name_H-M   'P 1'
_cell_length_a   3.77069479
_cell_length_b   3.79198906
_cell_length_c   16.73250495
_cell_angle_alpha   90.00000000
_cell_angle_beta   90.00000000
_cell_angle_gamma   90.00000000
_symmetry_Int_Tables_number   1
_chemical_formula_structural   TmAsS
_chemical_formula_sum   'Tm4 As4 S4'
_cell_volume   239.24860751
_cell_formula_units_Z   4
loop_
 _symmetry_equiv_pos_site_id
 _symmetry_equiv_pos_as_xyz
  1  'x, y, z'
loop_
 _atom_site_type_symbol
 _atom_site_label
 _atom_site_symmetry_multiplicity
 _atom_site_fract_x
 _atom_site_fract_y
 _atom_site_fract_z
 _atom_site_occupancy
  Tm  Tm0  1  0.25000000  0.23736912  0.85412938  1
  Tm  Tm1  1  0.25000000  0.26263088  0.35412938  1
  Tm  Tm2  1  0.75000000  0.76263088  0.14587062  1
  Tm  Tm3  1  0.75000000  0.73736912  0.64587062  1
  As  As0  1  0.75000000  0.22584226  0.50088987  1
  As  As1  1  0.75000000  0.27415774  0.00088987  1
  As  As2  1  0.25000000  0.77415774  0.49911013  1
  As  As3  1  0.25000000  0.72584226  -0.00088987  1
  S  S0  1  0.25000000  0.23987128  0.68737549  1
  S  S1  1  0.25000000  0.26012872  0.18737549  1
  S  S2  1  0.75000000  0.76012872  0.31262451  1
  S  S3  1  0.75000000  0.73987128  0.81262451  1
loop_
_geom_bond_atom_site_label_1
_geom_bond_atom_site_label_2
_geom_bond_distance
_geom_bond_site_symmetry_2
As0 As2 2.547361 1_645
As0 As2 2.547361 1_545
As0 As2 2.806870 1_555
As0 As2 2.806870 1_655
As0 Tm3 3.052197 1_545
As0 Tm1 3.099083 1_655
As0 Tm1 3.099083 1_555
As0 Tm3 3.106026 1_555
As1 As3 2.547361 1_555
As1 As3 2.547361 1_655
As1 As3 2.806870 1_545
As1 As3 2.806870 1_645
As1 Tm2 3.052197 1_555
As1 Tm0 3.099083 1_554
As1 Tm0 3.099083 1_654
As1 Tm2 3.106026 1_545
As2 Tm1 3.052197 1_565
As2 Tm3 3.099083 1_555
As2 Tm3 3.099083 1_455
As2 Tm1 3.106026 1_555
As3 Tm0 3.052197 1_554
As3 Tm2 3.099083 1_455
As3 Tm2 3.099083 1_555
As3 Tm0 3.106026 1_564
S0 Tm3 2.756038 1_555
S0 Tm3 2.756038 1_455
S0 Tm3 2.769062 1_445
S0 Tm3 2.769062 1_545
S0 Tm0 2.790226 1_555
S1 Tm2 2.756038 1_545
S1 Tm2 2.756038 1_445
S1 Tm2 2.769062 1_555
S1 Tm2 2.769062 1_455
S1 Tm1 2.790226 1_555
S2 Tm1 2.756038 1_655
S2 Tm1 2.756038 1_555
S2 Tm1 2.769062 1_665
S2 Tm1 2.769062 1_565
S2 Tm2 2.790226 1_555
S3 Tm0 2.756038 1_665
S3 Tm0 2.756038 1_565
S3 Tm0 2.769062 1_555
S3 Tm0 2.769062 1_655
S3 Tm3 2.790226 1_555
