# generated using pymatgen
data_Mn2FeWO6
_symmetry_space_group_name_H-M   'P 1'
_cell_length_a   5.35229780
_cell_length_b   5.35229780
_cell_length_c   5.66465611
_cell_angle_alpha   61.80790210
_cell_angle_beta   61.80790210
_cell_angle_gamma   60.00000248
_symmetry_Int_Tables_number   1
_chemical_formula_structural   Mn2FeWO6
_chemical_formula_sum   'Mn2 Fe1 W1 O6'
_cell_volume   117.78266208
_cell_formula_units_Z   1
loop_
 _symmetry_equiv_pos_site_id
 _symmetry_equiv_pos_as_xyz
  1  'x, y, z'
loop_
 _atom_site_type_symbol
 _atom_site_label
 _atom_site_symmetry_multiplicity
 _atom_site_fract_x
 _atom_site_fract_y
 _atom_site_fract_z
 _atom_site_occupancy
  Mn  Mn0  1  0.21811400  0.21811400  0.34565800  1
  Mn  Mn1  1  0.71999600  0.71999600  0.84001200  1
  Fe  Fe0  1  0.50011200  0.50011200  0.49966400  1
  W  W0  1  0.00636800  0.00636800  0.98089600  1
  O  O0  1  0.79104500  0.12683100  0.71266100  1
  O  O1  1  0.12683100  0.36946300  0.71266100  1
  O  O2  1  0.36946300  0.79104500  0.71266100  1
  O  O3  1  0.88921100  0.65124000  0.19578100  1
  O  O4  1  0.65124000  0.26376800  0.19578100  1
  O  O5  1  0.26376800  0.88921100  0.19578100  1
loop_
_geom_bond_atom_site_label_1
_geom_bond_atom_site_label_2
_geom_bond_distance
_geom_bond_site_symmetry_2
Mn0 O4 2.159967 1_555
Mn0 O5 2.159967 1_545
Mn0 O3 2.159967 1_455
Mn0 O0 2.335092 1_455
Mn0 O2 2.335092 1_545
Mn0 O1 2.335092 1_555
Mn1 O0 2.119235 1_565
Mn1 O2 2.119236 1_555
Mn1 O1 2.119236 1_655
Mn1 O4 2.389085 1_556
Mn1 O5 2.389085 1_556
Mn1 O3 2.389085 1_556
Fe0 O1 2.063646 1_555
Fe0 O2 2.063646 1_555
Fe0 O0 2.063647 1_555
Fe0 O3 2.221774 1_555
Fe0 O4 2.221774 1_555
Fe0 O5 2.221774 1_555
O0 W0 2.009606 1_655
O1 W0 2.009605 1_555
O2 W0 2.009606 1_565
O3 W0 1.942249 1_664
O4 W0 1.942249 1_654
O5 W0 1.942249 1_564
