# generated using pymatgen
data_Gd(AlC)3
_symmetry_space_group_name_H-M   'P 1'
_cell_length_a   3.43043159
_cell_length_b   3.43043159
_cell_length_c   17.38033064
_cell_angle_alpha   90.00000000
_cell_angle_beta   90.00000000
_cell_angle_gamma   119.99998783
_symmetry_Int_Tables_number   1
_chemical_formula_structural   Gd(AlC)3
_chemical_formula_sum   'Gd2 Al6 C6'
_cell_volume   177.12760273
_cell_formula_units_Z   2
loop_
 _symmetry_equiv_pos_site_id
 _symmetry_equiv_pos_as_xyz
  1  'x, y, z'
loop_
 _atom_site_type_symbol
 _atom_site_label
 _atom_site_symmetry_multiplicity
 _atom_site_fract_x
 _atom_site_fract_y
 _atom_site_fract_z
 _atom_site_occupancy
  Gd  Gd0  1  0.00000000  -0.00000000  0.50000000  1
  Gd  Gd1  1  0.00000000  -0.00000000  -0.00000000  1
  Al  Al0  1  0.33333300  0.66666700  0.36498170  1
  Al  Al1  1  0.66666700  0.33333300  0.63501830  1
  Al  Al2  1  0.66666700  0.33333300  0.86498170  1
  Al  Al3  1  0.33333300  0.66666700  0.13501830  1
  Al  Al4  1  0.33333300  0.66666700  0.75000000  1
  Al  Al5  1  0.66666700  0.33333300  0.25000000  1
  C  C0  1  0.33333300  0.66666700  0.90501095  1
  C  C1  1  0.66666700  0.33333300  0.09498905  1
  C  C2  1  0.66666700  0.33333300  0.40501095  1
  C  C3  1  0.33333300  0.66666700  0.59498905  1
  C  C4  1  0.33333300  0.66666700  0.25000000  1
  C  C5  1  0.66666700  0.33333300  0.75000000  1
loop_
_geom_bond_atom_site_label_1
_geom_bond_atom_site_label_2
_geom_bond_distance
_geom_bond_site_symmetry_2
Al0 C4 1.998420 1_555
Al0 C2 2.099200 1_455
Al0 C2 2.099200 1_565
Al0 C2 2.099206 1_555
Al1 C5 1.998420 1_555
Al1 C3 2.099200 1_545
Al1 C3 2.099200 1_655
Al1 C3 2.099206 1_555
Al2 C5 1.998420 1_555
Al2 C0 2.099200 1_545
Al2 C0 2.099200 1_655
Al2 C0 2.099206 1_555
Al3 C4 1.998420 1_555
Al3 C1 2.099200 1_455
Al3 C1 2.099200 1_565
Al3 C1 2.099206 1_555
Al4 C5 1.980559 1_455
Al4 C5 1.980559 1_565
Al4 C5 1.980564 1_555
Al5 C4 1.980559 1_545
Al5 C4 1.980559 1_655
Al5 C4 1.980564 1_555
C0 Gd1 2.578414 1_566
C0 Gd1 2.578417 1_556
C0 Gd1 2.578417 1_666
C1 Gd1 2.578414 1_655
C1 Gd1 2.578417 1_665
C1 Gd1 2.578417 1_555
C2 Gd0 2.578414 1_655
C2 Gd0 2.578417 1_665
C2 Gd0 2.578417 1_555
C3 Gd0 2.578414 1_565
C3 Gd0 2.578417 1_665
C3 Gd0 2.578417 1_555
