# generated using pymatgen
data_Li9Mn2Co5O16
_symmetry_space_group_name_H-M   'P 1'
_cell_length_a   5.90662100
_cell_length_b   7.63790331
_cell_length_c   7.71739961
_cell_angle_alpha   65.51302606
_cell_angle_beta   68.68616516
_cell_angle_gamma   69.17137105
_symmetry_Int_Tables_number   1
_chemical_formula_structural   Li9Mn2Co5O16
_chemical_formula_sum   'Li9 Mn2 Co5 O16'
_cell_volume   286.42559649
_cell_formula_units_Z   1
loop_
 _symmetry_equiv_pos_site_id
 _symmetry_equiv_pos_as_xyz
  1  'x, y, z'
loop_
 _atom_site_type_symbol
 _atom_site_label
 _atom_site_symmetry_multiplicity
 _atom_site_fract_x
 _atom_site_fract_y
 _atom_site_fract_z
 _atom_site_occupancy
  Li  Li0  1  0.37480500  0.62256900  0.12631100  1
  Li  Li1  1  0.24344800  0.25516900  0.24813500  1
  Li  Li2  1  0.62600900  0.37625800  0.87471800  1
  Li  Li3  1  0.50428900  0.99501000  0.00099200  1
  Li  Li4  1  0.87225300  0.12513900  0.62554000  1
  Li  Li5  1  0.75093000  0.74620400  0.76040700  1
  Li  Li6  1  0.12807200  0.87664700  0.37234900  1
  Li  Li7  1  0.00038500  0.50436100  0.49138900  1
  Li  Li8  1  0.87291400  0.62539100  0.12477300  1
  Mn  Mn0  1  0.00342600  0.99570000  0.00373600  1
  Mn  Mn1  1  0.50056400  0.49995400  0.49594300  1
  Co  Co0  1  0.75049500  0.25361600  0.24686500  1
  Co  Co1  1  0.63707500  0.86823400  0.37061100  1
  Co  Co2  1  0.37154300  0.12524400  0.62379700  1
  Co  Co3  1  0.24101700  0.74571900  0.75863700  1
  Co  Co4  1  0.11427900  0.37946700  0.88142400  1
  O  O0  1  0.99266100  0.77050200  0.23621000  1
  O  O1  1  0.83649500  0.37797600  0.37860300  1
  O  O2  1  0.25168400  0.50236200  0.98040200  1
  O  O3  1  0.12451200  0.12307100  0.11517600  1
  O  O4  1  0.48841300  0.26163000  0.72911000  1
  O  O5  1  0.35029600  0.88303800  0.88140100  1
  O  O6  1  0.73231200  0.01344500  0.48371900  1
  O  O7  1  0.61549600  0.62235400  0.61653700  1
  O  O8  1  0.76249200  0.47967500  0.01209100  1
  O  O9  1  0.66164000  0.11754300  0.12210300  1
  O  O10  1  0.01285000  0.23674300  0.76737100  1
  O  O11  1  0.89214800  0.88079600  0.87699100  1
  O  O12  1  0.26222500  0.99604000  0.51320500  1
  O  O13  1  0.14864500  0.61622400  0.62235700  1
  O  O14  1  0.50244000  0.74283900  0.27485400  1
  O  O15  1  0.37418800  0.38108400  0.38423500  1
loop_
_geom_bond_atom_site_label_1
_geom_bond_atom_site_label_2
_geom_bond_distance
_geom_bond_site_symmetry_2
Li0 O15 2.078489 1_555
Li0 O5 2.104326 1_554
Li0 O2 2.137039 1_554
Li0 O0 2.163308 1_455
Li0 O14 2.172571 1_555
Li0 O8 2.182828 1_555
Li1 O3 2.109664 1_555
Li1 O15 2.140008 1_555
Li1 O2 2.143504 1_554
Li1 O12 2.183288 1_545
Li1 O1 2.256455 1_455
Li1 O9 2.325281 1_555
Li2 O8 2.041096 1_556
Li2 O2 2.075398 1_555
Li2 O7 2.099820 1_555
Li2 O9 2.112562 1_556
Li2 O10 2.160306 1_655
Li2 O4 2.162242 1_555
Li3 O5 2.056294 1_554
Li3 O3 2.117160 1_565
Li3 O9 2.142082 1_565
Li3 O11 2.145284 1_554
Li3 O14 2.190974 1_555
Li3 O4 2.241311 1_564
Li4 O11 2.066425 1_545
Li4 O1 2.087443 1_555
Li4 O6 2.131218 1_555
Li4 O10 2.133545 1_655
Li4 O4 2.135048 1_555
Li4 O12 2.161332 1_645
Li5 O11 2.117578 1_555
Li5 O8 2.154362 1_556
Li5 O7 2.195909 1_555
Li5 O5 2.237834 1_555
Li5 O13 2.244561 1_655
Li5 O6 2.266268 1_565
Li6 O0 2.044246 1_455
Li6 O14 2.078724 1_555
Li6 O3 2.094653 1_565
Li6 O13 2.123912 1_555
Li6 O12 2.145441 1_555
Li6 O6 2.200404 1_465
Li7 O15 2.070036 1_555
Li7 O13 2.099965 1_555
Li7 O7 2.140488 1_455
Li7 O1 2.144794 1_455
Li7 O0 2.166395 1_455
Li7 O10 2.262268 1_555
Li8 O8 2.037440 1_555
Li8 O0 2.063528 1_555
Li8 O1 2.090152 1_555
Li8 O11 2.093408 1_554
Li8 O14 2.134835 1_555
Li8 O2 2.165749 1_654
Mn0 O0 1.902122 1_455
Mn0 O11 1.936030 1_454
Mn0 O9 1.950416 1_465
Mn0 O3 1.957841 1_565
Mn0 O5 1.960368 1_554
Mn0 O10 1.983719 1_564
Mn1 O1 1.924494 1_555
Mn1 O15 1.929593 1_555
Mn1 O14 1.931270 1_555
Mn1 O7 1.957774 1_555
Mn1 O4 1.959676 1_555
Mn1 O13 1.998117 1_555
Co0 O8 1.915557 1_555
Co0 O1 1.926903 1_555
Co0 O9 1.966591 1_555
Co0 O6 1.983820 1_555
Co0 O3 2.132820 1_655
Co0 O15 2.148464 1_555
Co1 O14 1.910862 1_555
Co1 O6 1.977807 1_565
Co1 O0 1.996894 1_555
Co1 O7 2.045701 1_555
Co1 O9 2.071703 1_565
Co1 O12 2.156011 1_555
Co2 O12 1.916039 1_545
Co2 O4 1.960431 1_555
Co2 O10 2.057733 1_555
Co2 O6 2.057972 1_555
Co2 O15 2.059759 1_555
Co2 O5 2.079736 1_545
Co3 O2 1.935449 1_555
Co3 O13 2.011296 1_555
Co3 O11 2.011461 1_455
Co3 O5 2.040589 1_555
Co3 O12 2.062663 1_555
Co3 O7 2.143379 1_555
Co4 O2 1.926149 1_555
Co4 O8 1.976326 1_456
Co4 O10 1.991280 1_555
Co4 O3 2.039487 1_556
Co4 O13 2.068204 1_555
Co4 O4 2.156275 1_555
