# generated using pymatgen
data_Bi2Se3
_symmetry_space_group_name_H-M   'P 1'
_cell_length_a   9.87224500
_cell_length_b   9.87224500
_cell_length_c   13.68539400
_cell_angle_alpha   90.00000000
_cell_angle_beta   90.00000000
_cell_angle_gamma   90.00000000
_symmetry_Int_Tables_number   1
_chemical_formula_structural   Bi2Se3
_chemical_formula_sum   'Bi16 Se24'
_cell_volume   1333.79521376
_cell_formula_units_Z   8
loop_
 _symmetry_equiv_pos_site_id
 _symmetry_equiv_pos_as_xyz
  1  'x, y, z'
loop_
 _atom_site_type_symbol
 _atom_site_label
 _atom_site_symmetry_multiplicity
 _atom_site_fract_x
 _atom_site_fract_y
 _atom_site_fract_z
 _atom_site_occupancy
  Bi  Bi0  1  0.00000000  0.00000000  0.24390500  1
  Bi  Bi1  1  0.50000000  0.50000000  0.74390500  1
  Bi  Bi2  1  0.50000000  0.50000000  0.25609500  1
  Bi  Bi3  1  0.00000000  0.00000000  0.75609500  1
  Bi  Bi4  1  0.00000000  0.50000000  0.27720200  1
  Bi  Bi5  1  0.00000000  0.50000000  0.77720200  1
  Bi  Bi6  1  0.50000000  0.00000000  0.22279800  1
  Bi  Bi7  1  0.50000000  0.00000000  0.72279800  1
  Bi  Bi8  1  0.26308400  0.73691600  0.00000000  1
  Bi  Bi9  1  0.73691600  0.73691600  0.00000000  1
  Bi  Bi10  1  0.26308400  0.26308400  0.00000000  1
  Bi  Bi11  1  0.73691600  0.26308400  0.00000000  1
  Bi  Bi12  1  0.23691600  0.76308400  0.50000000  1
  Bi  Bi13  1  0.76308400  0.76308400  0.50000000  1
  Bi  Bi14  1  0.23691600  0.23691600  0.50000000  1
  Bi  Bi15  1  0.76308400  0.23691600  0.50000000  1
  Se  Se0  1  0.73426900  0.50000000  0.86308100  1
  Se  Se1  1  0.26573100  0.50000000  0.86308100  1
  Se  Se2  1  0.00000000  0.23426900  0.36308100  1
  Se  Se3  1  0.00000000  0.76573100  0.36308100  1
  Se  Se4  1  0.76573100  0.00000000  0.63691900  1
  Se  Se5  1  0.23426900  0.00000000  0.63691900  1
  Se  Se6  1  0.50000000  0.26573100  0.13691900  1
  Se  Se7  1  0.50000000  0.73426900  0.13691900  1
  Se  Se8  1  0.27986600  0.50000000  0.39865700  1
  Se  Se9  1  0.72013400  0.50000000  0.39865700  1
  Se  Se10  1  0.00000000  0.77986600  0.89865700  1
  Se  Se11  1  0.00000000  0.22013400  0.89865700  1
  Se  Se12  1  0.22013400  0.00000000  0.10134300  1
  Se  Se13  1  0.77986600  0.00000000  0.10134300  1
  Se  Se14  1  0.50000000  0.72013400  0.60134300  1
  Se  Se15  1  0.50000000  0.27986600  0.60134300  1
  Se  Se16  1  0.79619000  0.50000000  0.12879100  1
  Se  Se17  1  0.20381000  0.50000000  0.12879100  1
  Se  Se18  1  0.00000000  0.29619000  0.62879100  1
  Se  Se19  1  0.00000000  0.70381000  0.62879100  1
  Se  Se20  1  0.70381000  0.00000000  0.37120900  1
  Se  Se21  1  0.29619000  0.00000000  0.37120900  1
  Se  Se22  1  0.50000000  0.20381000  0.87120900  1
  Se  Se23  1  0.50000000  0.79619000  0.87120900  1
loop_
_geom_bond_atom_site_label_1
_geom_bond_atom_site_label_2
_geom_bond_distance
_geom_bond_site_symmetry_2
Bi0 Se3 2.830005 1_545
Bi0 Se2 2.830005 1_555
Bi0 Se12 2.920503 1_555
Bi0 Se13 2.920503 1_455
Bi1 Se0 2.830005 1_555
Bi1 Se1 2.830005 1_555
Bi1 Se15 2.920503 1_555
Bi1 Se14 2.920503 1_555
Bi2 Se7 2.830005 1_555
Bi2 Se6 2.830005 1_555
Bi2 Se8 2.920503 1_555
Bi2 Se9 2.920503 1_555
Bi3 Se4 2.830005 1_455
Bi3 Se5 2.830005 1_555
Bi3 Se11 2.920503 1_555
Bi3 Se10 2.920503 1_545
Bi4 Se17 2.858953 1_555
Bi4 Se16 2.858953 1_455
Bi4 Se2 2.874600 1_555
Bi4 Se3 2.874600 1_555
Bi4 Se9 3.224348 1_455
Bi4 Se8 3.224348 1_555
Bi5 Se18 2.858953 1_555
Bi5 Se19 2.858953 1_555
Bi5 Se0 2.874600 1_455
Bi5 Se1 2.874600 1_555
Bi5 Se10 3.224348 1_555
Bi5 Se11 3.224348 1_555
Bi6 Se21 2.858953 1_555
Bi6 Se20 2.858953 1_555
Bi6 Se6 2.874600 1_555
Bi6 Se7 2.874600 1_545
Bi6 Se13 3.224348 1_555
Bi6 Se12 3.224348 1_555
Bi7 Se22 2.858953 1_555
Bi7 Se23 2.858953 1_545
Bi7 Se4 2.874600 1_555
Bi7 Se5 2.874600 1_555
Bi7 Se14 3.224348 1_545
Bi7 Se15 3.224348 1_555
Bi8 Se10 2.974716 1_554
Bi8 Se12 2.974716 1_565
Bi8 Se17 2.986544 1_555
Bi8 Se23 2.986544 1_554
Bi8 Se1 2.997031 1_554
Bi8 Se7 2.997031 1_555
Bi9 Se10 2.974716 1_654
Bi9 Se13 2.974716 1_565
Bi9 Se23 2.986544 1_554
Bi9 Se16 2.986544 1_555
Bi9 Se7 2.997031 1_555
Bi9 Se0 2.997031 1_554
Bi10 Se11 2.974716 1_554
Bi10 Se12 2.974716 1_555
Bi10 Se17 2.986544 1_555
Bi10 Se22 2.986544 1_554
Bi10 Se6 2.997031 1_555
Bi10 Se1 2.997031 1_554
Bi11 Se11 2.974716 1_654
Bi11 Se13 2.974716 1_555
Bi11 Se22 2.986544 1_554
Bi11 Se16 2.986544 1_555
Bi11 Se6 2.997031 1_555
Bi11 Se0 2.997031 1_554
Bi12 Se14 2.974716 1_555
Bi12 Se8 2.974716 1_555
Bi12 Se19 2.986544 1_555
Bi12 Se21 2.986544 1_565
Bi12 Se3 2.997031 1_555
Bi12 Se5 2.997031 1_565
Bi13 Se14 2.974716 1_555
Bi13 Se9 2.974716 1_555
Bi13 Se20 2.986544 1_565
Bi13 Se19 2.986544 1_655
Bi13 Se3 2.997031 1_655
Bi13 Se4 2.997031 1_565
Bi14 Se15 2.974716 1_555
Bi14 Se8 2.974716 1_555
Bi14 Se21 2.986544 1_555
Bi14 Se18 2.986544 1_555
Bi14 Se5 2.997031 1_555
Bi14 Se2 2.997031 1_555
Bi15 Se15 2.974716 1_555
Bi15 Se9 2.974716 1_555
Bi15 Se20 2.986544 1_555
Bi15 Se18 2.986544 1_655
Bi15 Se4 2.997031 1_555
Bi15 Se2 2.997031 1_655
