# generated using pymatgen
data_MgCuO2
_symmetry_space_group_name_H-M   'P 1'
_cell_length_a   2.87889788
_cell_length_b   8.08172080
_cell_length_c   7.56488087
_cell_angle_alpha   96.10389379
_cell_angle_beta   89.71189804
_cell_angle_gamma   69.11621563
_symmetry_Int_Tables_number   1
_chemical_formula_structural   MgCuO2
_chemical_formula_sum   'Mg4 Cu4 O8'
_cell_volume   163.33815918
_cell_formula_units_Z   4
loop_
 _symmetry_equiv_pos_site_id
 _symmetry_equiv_pos_as_xyz
  1  'x, y, z'
loop_
 _atom_site_type_symbol
 _atom_site_label
 _atom_site_symmetry_multiplicity
 _atom_site_fract_x
 _atom_site_fract_y
 _atom_site_fract_z
 _atom_site_occupancy
  Mg  Mg0  1  0.19670800  0.03603200  0.18845100  1
  Mg  Mg1  1  0.79664700  0.94506100  0.84020200  1
  Mg  Mg2  1  0.06078200  0.67552600  0.08049700  1
  Mg  Mg3  1  0.93504100  0.30582000  0.94803400  1
  Cu  Cu0  1  0.56426800  0.17571100  0.57008900  1
  Cu  Cu1  1  0.33738400  0.39725900  0.30458000  1
  Cu  Cu2  1  0.66076900  0.58339800  0.72498000  1
  Cu  Cu3  1  0.43430200  0.79909600  0.45496100  1
  O  O0  1  0.01873100  0.72208800  0.61405800  1
  O  O1  1  0.27257600  0.47104900  0.84877300  1
  O  O2  1  0.72403900  0.51169200  0.18200600  1
  O  O3  1  0.98026600  0.25491300  0.41329100  1
  O  O4  1  0.14102300  0.10067900  0.72037100  1
  O  O5  1  0.57915100  0.15784500  0.05427000  1
  O  O6  1  0.85194600  0.87918100  0.30702700  1
  O  O7  1  0.41464200  0.82398400  0.97402600  1
loop_
_geom_bond_atom_site_label_1
_geom_bond_atom_site_label_2
_geom_bond_distance
_geom_bond_site_symmetry_2
Mg0 O5 2.035486 1_455
Mg0 O5 2.045919 1_555
Mg0 O6 2.126947 1_545
Mg0 O6 2.127557 1_445
Mg0 O7 2.143292 1_544
Mg0 O3 2.230261 1_455
Mg1 O7 2.033548 1_655
Mg1 O7 2.039241 1_555
Mg1 O4 2.123384 1_665
Mg1 O4 2.129153 1_565
Mg1 O5 2.145145 1_566
Mg1 O0 2.257139 1_655
Mg2 O7 2.043988 1_454
Mg2 O7 2.048101 1_554
Mg2 O2 2.099173 1_455
Mg2 O2 2.101734 1_555
Mg2 O6 2.165964 1_455
Mg2 O1 2.197803 1_554
Mg3 O5 2.037872 1_656
Mg3 O5 2.048279 1_556
Mg3 O1 2.096719 1_555
Mg3 O1 2.102910 1_655
Mg3 O4 2.178984 1_655
Mg3 O2 2.216390 1_556
Cu0 O4 1.950464 1_555
Cu0 O4 1.965938 1_655
Cu0 O3 1.986121 1_555
Cu0 O3 2.014364 1_455
Cu1 O2 1.964714 1_555
Cu1 O2 1.966617 1_455
Cu1 O3 2.023033 1_455
Cu1 O3 2.030689 1_555
Cu1 O5 2.461957 1_555
Cu2 O1 1.960641 1_555
Cu2 O1 1.964926 1_655
Cu2 O0 2.009292 1_655
Cu2 O0 2.028653 1_555
Cu2 O7 2.461170 1_555
Cu3 O6 1.952501 1_555
Cu3 O6 1.970120 1_455
Cu3 O0 1.985663 1_555
Cu3 O0 2.024801 1_655
