# generated using pymatgen
data_LaMg2
_symmetry_space_group_name_H-M   'P 1'
_cell_length_a   6.21607289
_cell_length_b   6.21607289
_cell_length_c   10.12909244
_cell_angle_alpha   90.00000000
_cell_angle_beta   90.00000000
_cell_angle_gamma   119.99999691
_symmetry_Int_Tables_number   1
_chemical_formula_structural   LaMg2
_chemical_formula_sum   'La4 Mg8'
_cell_volume   338.94823481
_cell_formula_units_Z   4
loop_
 _symmetry_equiv_pos_site_id
 _symmetry_equiv_pos_as_xyz
  1  'x, y, z'
loop_
 _atom_site_type_symbol
 _atom_site_label
 _atom_site_symmetry_multiplicity
 _atom_site_fract_x
 _atom_site_fract_y
 _atom_site_fract_z
 _atom_site_occupancy
  La  La0  1  0.33333300  0.66666700  0.42841103  1
  La  La1  1  0.66666700  0.33333300  0.57158897  1
  La  La2  1  0.66666700  0.33333300  0.92841103  1
  La  La3  1  0.33333300  0.66666700  0.07158897  1
  Mg  Mg0  1  0.00000000  -0.00000000  0.50000000  1
  Mg  Mg1  1  0.00000000  -0.00000000  -0.00000000  1
  Mg  Mg2  1  0.83002859  0.16997141  0.25000000  1
  Mg  Mg3  1  0.83002859  0.66005519  0.25000000  1
  Mg  Mg4  1  0.33994481  0.16997141  0.25000000  1
  Mg  Mg5  1  0.16997141  0.83002859  0.75000000  1
  Mg  Mg6  1  0.16997141  0.33994481  0.75000000  1
  Mg  Mg7  1  0.66005519  0.83002859  0.75000000  1
loop_
_geom_bond_atom_site_label_1
_geom_bond_atom_site_label_2
_geom_bond_distance
_geom_bond_site_symmetry_2
La0 Mg3 3.595394 1_455
La0 Mg4 3.595394 1_565
La0 Mg2 3.595402 1_455
La0 Mg2 3.595402 1_565
La0 Mg3 3.595411 1_555
La0 Mg4 3.595411 1_555
La0 La3 3.614284 1_555
La0 Mg0 3.661372 1_565
La0 Mg0 3.661377 1_665
La0 Mg0 3.661377 1_555
La0 Mg7 3.701917 1_555
La0 Mg6 3.701917 1_555
La0 Mg5 3.701919 1_555
La0 La1 3.870800 1_455
La0 La1 3.870800 1_565
La0 La1 3.870810 1_555
La1 Mg6 3.595394 1_655
La1 Mg7 3.595394 1_545
La1 Mg5 3.595402 1_655
La1 Mg5 3.595402 1_545
La1 Mg7 3.595411 1_555
La1 Mg6 3.595411 1_555
La1 La2 3.614284 1_555
La1 Mg0 3.661372 1_655
La1 Mg0 3.661377 1_555
La1 Mg0 3.661377 1_665
La1 Mg3 3.701917 1_555
La1 Mg4 3.701917 1_555
La1 Mg2 3.701919 1_555
La2 Mg6 3.595394 1_655
La2 Mg7 3.595394 1_545
La2 Mg5 3.595402 1_655
La2 Mg5 3.595402 1_545
La2 Mg7 3.595411 1_555
La2 Mg6 3.595411 1_555
La2 Mg1 3.661372 1_656
La2 Mg1 3.661377 1_556
La2 Mg1 3.661377 1_666
La2 Mg3 3.701917 1_556
La2 Mg4 3.701917 1_556
La2 Mg2 3.701919 1_556
La2 La3 3.870800 1_546
La2 La3 3.870800 1_656
La2 La3 3.870810 1_556
La3 Mg3 3.595394 1_455
La3 Mg4 3.595394 1_565
La3 Mg2 3.595402 1_455
La3 Mg2 3.595402 1_565
La3 Mg3 3.595411 1_555
La3 Mg4 3.595411 1_555
La3 Mg1 3.661372 1_565
La3 Mg1 3.661377 1_665
La3 Mg1 3.661377 1_555
La3 Mg6 3.701917 1_554
La3 Mg7 3.701917 1_554
La3 Mg5 3.701919 1_554
Mg0 Mg5 3.124313 1_545
Mg0 Mg2 3.124313 1_455
Mg0 Mg6 3.124319 1_555
Mg0 Mg7 3.124319 1_445
Mg0 Mg4 3.124319 1_555
Mg0 Mg3 3.124319 1_445
Mg1 Mg5 3.124313 1_544
Mg1 Mg2 3.124313 1_455
Mg1 Mg4 3.124319 1_555
Mg1 Mg7 3.124319 1_444
Mg1 Mg6 3.124319 1_554
Mg1 Mg3 3.124319 1_445
Mg2 Mg4 3.046396 1_555
Mg2 Mg3 3.046396 1_555
Mg2 Mg4 3.169676 1_655
Mg2 Mg3 3.169676 1_545
Mg3 Mg4 3.046397 1_555
Mg3 Mg4 3.169677 1_665
Mg5 Mg7 3.046396 1_555
Mg5 Mg6 3.046396 1_555
Mg5 Mg6 3.169676 1_565
Mg5 Mg7 3.169676 1_455
Mg6 Mg7 3.046397 1_555
Mg6 Mg7 3.169677 1_445
