# generated using pymatgen
data_Li7Co5O12
_symmetry_space_group_name_H-M   'P 1'
_cell_length_a   4.95937685
_cell_length_b   9.62676828
_cell_length_c   8.53231889
_cell_angle_alpha   89.90470011
_cell_angle_beta   90.23239243
_cell_angle_gamma   99.20377265
_symmetry_Int_Tables_number   1
_chemical_formula_structural   Li7Co5O12
_chemical_formula_sum   'Li14 Co10 O24'
_cell_volume   402.10861760
_cell_formula_units_Z   2
loop_
 _symmetry_equiv_pos_site_id
 _symmetry_equiv_pos_as_xyz
  1  'x, y, z'
loop_
 _atom_site_type_symbol
 _atom_site_label
 _atom_site_symmetry_multiplicity
 _atom_site_fract_x
 _atom_site_fract_y
 _atom_site_fract_z
 _atom_site_occupancy
  Li  Li0  1  0.49954200  0.50004400  0.33101600  1
  Li  Li1  1  0.49999800  0.99994200  0.83322100  1
  Li  Li2  1  0.25105300  0.24208200  0.83205600  1
  Li  Li3  1  0.25125800  0.74333000  0.33141000  1
  Li  Li4  1  0.74948200  0.75761900  0.83378100  1
  Li  Li5  1  0.74880800  0.25678400  0.33223600  1
  Li  Li6  1  0.25220100  0.75737600  0.99629200  1
  Li  Li7  1  0.25920000  0.25682800  0.49775800  1
  Li  Li8  1  0.25817300  0.25738600  0.16896300  1
  Li  Li9  1  0.25404100  0.75796500  0.67179500  1
  Li  Li10  1  0.74597100  0.24247000  0.99635400  1
  Li  Li11  1  0.74120100  0.74328600  0.49800600  1
  Li  Li12  1  0.74112200  0.74267000  0.16875900  1
  Li  Li13  1  0.74727500  0.24238500  0.67216700  1
  Co  Co0  1  0.00000200  0.00002400  0.33323900  1
  Co  Co1  1  0.00236100  0.49959300  0.49974200  1
  Co  Co2  1  0.99982200  0.00003500  0.99865000  1
  Co  Co3  1  0.99757100  0.50038800  0.17229500  1
  Co  Co4  1  0.00017300  0.99999500  0.66789800  1
  Co  Co5  1  0.00287800  0.49985200  0.83481800  1
  Co  Co6  1  0.49704600  0.50034200  0.00205700  1
  Co  Co7  1  0.50007300  0.00001400  0.50429000  1
  Co  Co8  1  0.50236200  0.49951300  0.66105200  1
  Co  Co9  1  0.49993500  0.00006100  0.16231300  1
  O  O0  1  0.38282100  0.61202500  0.82834700  1
  O  O1  1  0.39217700  0.11285100  0.33299200  1
  O  O2  1  0.61784100  0.38903600  0.83208000  1
  O  O3  1  0.60787800  0.88723100  0.33356800  1
  O  O4  1  0.89203300  0.61304100  0.33243400  1
  O  O5  1  0.89184900  0.11463100  0.83290400  1
  O  O6  1  0.10756200  0.38717200  0.33156500  1
  O  O7  1  0.10820600  0.88535500  0.83362900  1
  O  O8  1  0.36304200  0.11101900  0.01608700  1
  O  O9  1  0.36395000  0.61026700  0.51441500  1
  O  O10  1  0.34638100  0.61151000  0.15370100  1
  O  O11  1  0.36344200  0.11033300  0.65008200  1
  O  O12  1  0.63629700  0.88932800  0.01646900  1
  O  O13  1  0.64081600  0.38937800  0.51506300  1
  O  O14  1  0.64767100  0.38879500  0.15445200  1
  O  O15  1  0.63720200  0.88940600  0.65048200  1
  O  O16  1  0.85697800  0.61091600  0.00814000  1
  O  O17  1  0.86394600  0.10788900  0.49913700  1
  O  O18  1  0.86571100  0.61080300  0.66421600  1
  O  O19  1  0.86457600  0.10712200  0.16734900  1
  O  O20  1  0.13132000  0.38887800  0.00517400  1
  O  O21  1  0.13558900  0.89220100  0.49922800  1
  O  O22  1  0.14529700  0.38793200  0.66081800  1
  O  O23  1  0.13586500  0.89289500  0.16749900  1
loop_
_geom_bond_atom_site_label_1
_geom_bond_atom_site_label_2
_geom_bond_distance
_geom_bond_site_symmetry_2
Li0 O14 2.054804 1_555
Li0 O10 2.064782 1_555
Li0 O9 2.066175 1_555
Li0 O6 2.069806 1_555
Li0 O4 2.072405 1_555
Li0 O13 2.077533 1_555
Li1 O11 2.060542 1_565
Li1 O12 2.061943 1_556
Li1 O15 2.066916 1_555
Li1 O8 2.070192 1_566
Li1 O7 2.075249 1_555
Li1 O5 2.075870 1_565
Li2 O5 1.994945 1_455
Li2 O2 2.118266 1_555
Li2 O11 2.137702 1_555
Li2 O8 2.139263 1_556
Li2 O22 2.145623 1_555
Li2 O20 2.194075 1_556
Li3 O4 2.008082 1_455
Li3 O3 2.064814 1_555
Li3 O10 2.082233 1_555
Li3 O9 2.146312 1_555
Li3 O23 2.146373 1_555
Li3 O21 2.170191 1_555
Li4 O7 1.994325 1_655
Li4 O0 2.111273 1_555
Li4 O15 2.139612 1_555
Li4 O12 2.143314 1_556
Li4 O18 2.167308 1_555
Li4 O16 2.172411 1_556
Li5 O6 2.006686 1_655
Li5 O1 2.065006 1_555
Li5 O14 2.087810 1_555
Li5 O13 2.140482 1_555
Li5 O17 2.158006 1_555
Li5 O19 2.159309 1_555
Li6 O10 2.047499 1_556
Li6 O7 2.054708 1_555
Li6 O23 2.103035 1_556
Li6 O12 2.120331 1_556
Li6 O0 2.176029 1_555
Li6 O16 2.226447 1_456
Li7 O22 2.021870 1_555
Li7 O11 2.041317 1_555
Li7 O6 2.106680 1_555
Li7 O13 2.111332 1_555
Li7 O1 2.153784 1_555
Li7 O17 2.235938 1_455
Li8 O20 2.047652 1_555
Li8 O8 2.050208 1_555
Li8 O6 2.087217 1_555
Li8 O14 2.136989 1_555
Li8 O1 2.148996 1_555
Li8 O19 2.235974 1_455
Li9 O7 2.056979 1_555
Li9 O9 2.093359 1_555
Li9 O21 2.100589 1_555
Li9 O0 2.107091 1_555
Li9 O15 2.116119 1_555
Li9 O18 2.201524 1_455
Li10 O14 2.067099 1_556
Li10 O5 2.069204 1_555
Li10 O19 2.098623 1_556
Li10 O8 2.114088 1_556
Li10 O2 2.152251 1_555
Li10 O20 2.186773 1_656
Li11 O15 2.044718 1_555
Li11 O18 2.063462 1_555
Li11 O9 2.096402 1_555
Li11 O4 2.107586 1_555
Li11 O3 2.145935 1_555
Li11 O21 2.232437 1_655
Li12 O16 2.015521 1_555
Li12 O12 2.043325 1_555
Li12 O4 2.086192 1_555
Li12 O10 2.156624 1_555
Li12 O3 2.158472 1_555
Li12 O23 2.240205 1_655
Li13 O5 2.043534 1_555
Li13 O13 2.074837 1_555
Li13 O17 2.108020 1_555
Li13 O11 2.121065 1_555
Li13 O2 2.137811 1_555
Li13 O22 2.232797 1_655
Co0 O19 1.930398 1_455
Co0 O21 1.935474 1_545
Co0 O23 1.937079 1_545
Co0 O17 1.942665 1_455
Co0 O3 2.070123 1_445
Co0 O1 2.070459 1_555
Co1 O6 1.922079 1_555
Co1 O4 1.926035 1_455
Co1 O13 1.936670 1_455
Co1 O9 1.937531 1_555
Co1 O22 1.943648 1_555
Co1 O18 1.954387 1_455
Co2 O5 1.918686 1_555
Co2 O7 1.921295 1_645
Co2 O8 1.947097 1_656
Co2 O12 1.948404 1_546
Co2 O23 1.950470 1_646
Co2 O19 1.954088 1_556
Co3 O4 1.873312 1_555
Co3 O6 1.873877 1_655
Co3 O10 1.889895 1_655
Co3 O14 1.894871 1_555
Co3 O16 1.950515 1_555
Co3 O20 1.966256 1_655
Co4 O7 1.918964 1_555
Co4 O5 1.920826 1_465
Co4 O15 1.944528 1_455
Co4 O11 1.945923 1_565
Co4 O17 1.954549 1_465
Co4 O21 1.958249 1_555
Co5 O20 1.965919 1_556
Co5 O18 1.985367 1_455
Co5 O0 2.017277 1_555
Co5 O16 2.028572 1_456
Co5 O22 2.030048 1_555
Co5 O2 2.032986 1_455
Co6 O14 1.909440 1_555
Co6 O10 1.909445 1_555
Co6 O16 1.927110 1_555
Co6 O20 1.954379 1_555
Co6 O2 1.956516 1_554
Co6 O0 1.963754 1_554
Co7 O15 1.836448 1_545
Co7 O11 1.837350 1_555
Co7 O17 1.933368 1_555
Co7 O21 1.935436 1_545
Co7 O1 1.943393 1_555
Co7 O3 1.945195 1_545
Co8 O13 1.841575 1_555
Co8 O9 1.842848 1_555
Co8 O22 1.918627 1_555
Co8 O2 1.942024 1_555
Co8 O18 1.943661 1_555
Co8 O0 1.944111 1_555
Co9 O8 1.838257 1_555
Co9 O12 1.839579 1_545
Co9 O23 1.931568 1_545
Co9 O19 1.933304 1_555
Co9 O3 1.943162 1_545
Co9 O1 1.944874 1_555
