# generated using pymatgen
data_BaSr4Ti5O15
_symmetry_space_group_name_H-M   'P 1'
_cell_length_a   3.95680000
_cell_length_b   3.95680000
_cell_length_c   19.77739800
_cell_angle_alpha   90.00000000
_cell_angle_beta   90.00000000
_cell_angle_gamma   90.00000000
_symmetry_Int_Tables_number   1
_chemical_formula_structural   BaSr4Ti5O15
_chemical_formula_sum   'Ba1 Sr4 Ti5 O15'
_cell_volume   309.64020862
_cell_formula_units_Z   1
loop_
 _symmetry_equiv_pos_site_id
 _symmetry_equiv_pos_as_xyz
  1  'x, y, z'
loop_
 _atom_site_type_symbol
 _atom_site_label
 _atom_site_symmetry_multiplicity
 _atom_site_fract_x
 _atom_site_fract_y
 _atom_site_fract_z
 _atom_site_occupancy
  Ba  Ba0  1  0.00000000  0.00000000  0.00000000  1
  Sr  Sr0  1  0.00000000  0.00000000  0.20069600  1
  Sr  Sr1  1  0.00000000  0.00000000  0.39998900  1
  Sr  Sr2  1  0.00000000  0.00000000  0.60001100  1
  Sr  Sr3  1  0.00000000  0.00000000  0.79930400  1
  Ti  Ti0  1  0.50000000  0.50000000  0.10256500  1
  Ti  Ti1  1  0.50000000  0.50000000  0.30037500  1
  Ti  Ti2  1  0.50000000  0.50000000  0.50000000  1
  Ti  Ti3  1  0.50000000  0.50000000  0.69962500  1
  Ti  Ti4  1  0.50000000  0.50000000  0.89743500  1
  O  O0  1  0.50000000  0.50000000  0.00000000  1
  O  O1  1  0.50000000  0.50000000  0.20105800  1
  O  O2  1  0.50000000  0.50000000  0.40009800  1
  O  O3  1  0.50000000  0.50000000  0.59990200  1
  O  O4  1  0.50000000  0.50000000  0.79894200  1
  O  O5  1  0.50000000  0.00000000  0.10383000  1
  O  O6  1  0.50000000  0.00000000  0.30009300  1
  O  O7  1  0.50000000  0.00000000  0.50000000  1
  O  O8  1  0.50000000  0.00000000  0.69990700  1
  O  O9  1  0.50000000  0.00000000  0.89617000  1
  O  O10  1  0.00000000  0.50000000  0.10383000  1
  O  O11  1  0.00000000  0.50000000  0.30009300  1
  O  O12  1  0.00000000  0.50000000  0.50000000  1
  O  O13  1  0.00000000  0.50000000  0.69990700  1
  O  O14  1  0.00000000  0.50000000  0.89617000  1
loop_
_geom_bond_atom_site_label_1
_geom_bond_atom_site_label_2
_geom_bond_distance
_geom_bond_site_symmetry_2
Ba0 O0 2.797880 1_545
Ba0 O0 2.797880 1_445
Ba0 O0 2.797880 1_455
Ba0 O0 2.797880 1_555
Ba0 O14 2.851469 1_544
Ba0 O9 2.851469 1_554
Ba0 O9 2.851469 1_454
Ba0 O14 2.851469 1_554
Ba0 O10 2.851469 1_555
Ba0 O5 2.851469 1_555
Ba0 O5 2.851469 1_455
Ba0 O10 2.851469 1_545
O0 Ti0 2.028469 1_555
O0 Ti4 2.028469 1_554
O1 Ti0 1.947935 1_555
O1 Ti1 1.964232 1_555
O1 Sr0 2.797889 1_655
O1 Sr0 2.797889 1_555
O1 Sr0 2.797889 1_565
O1 Sr0 2.797889 1_665
O2 Ti1 1.972261 1_555
O2 Ti2 1.975802 1_555
O2 Sr1 2.797881 1_565
O2 Sr1 2.797881 1_555
O2 Sr1 2.797881 1_655
O2 Sr1 2.797881 1_665
O3 Ti3 1.972261 1_555
O3 Ti2 1.975802 1_555
O3 Sr2 2.797881 1_665
O3 Sr2 2.797881 1_555
O3 Sr2 2.797881 1_565
O3 Sr2 2.797881 1_655
O4 Ti4 1.947935 1_555
O4 Ti3 1.964232 1_555
O4 Sr3 2.797889 1_555
O4 Sr3 2.797889 1_565
O4 Sr3 2.797889 1_655
O4 Sr3 2.797889 1_665
O5 Ti0 1.978558 1_555
O5 Ti0 1.978558 1_545
O5 Sr0 2.753941 1_655
O5 Sr0 2.753941 1_555
O6 Ti1 1.978408 1_555
O6 Ti1 1.978408 1_545
O6 Sr0 2.788995 1_655
O6 Sr0 2.788995 1_555
O6 Sr1 2.795960 1_555
O6 Sr1 2.795960 1_655
O7 Ti2 1.978400 1_545
O7 Ti2 1.978400 1_555
O7 Sr2 2.797567 1_555
O7 Sr2 2.797567 1_655
O7 Sr1 2.797567 1_555
O7 Sr1 2.797567 1_655
O8 Ti3 1.978408 1_545
O8 Ti3 1.978408 1_555
O8 Sr3 2.788995 1_555
O8 Sr3 2.788995 1_655
O8 Sr2 2.795960 1_555
O8 Sr2 2.795960 1_655
O9 Ti4 1.978558 1_555
O9 Ti4 1.978558 1_545
O9 Sr3 2.753941 1_555
O9 Sr3 2.753941 1_655
O10 Ti0 1.978558 1_555
O10 Ti0 1.978558 1_455
O10 Sr0 2.753941 1_565
O10 Sr0 2.753941 1_555
O11 Ti1 1.978408 1_555
O11 Ti1 1.978408 1_455
O11 Sr0 2.788995 1_565
O11 Sr0 2.788995 1_555
O11 Sr1 2.795960 1_565
O11 Sr1 2.795960 1_555
O12 Ti2 1.978400 1_455
O12 Ti2 1.978400 1_555
O12 Sr2 2.797567 1_555
O12 Sr2 2.797567 1_565
O12 Sr1 2.797567 1_555
O12 Sr1 2.797567 1_565
O13 Ti3 1.978408 1_455
O13 Ti3 1.978408 1_555
O13 Sr3 2.788995 1_555
O13 Sr3 2.788995 1_565
O13 Sr2 2.795960 1_565
O13 Sr2 2.795960 1_555
O14 Ti4 1.978558 1_455
O14 Ti4 1.978558 1_555
O14 Sr3 2.753941 1_555
O14 Sr3 2.753941 1_565
