# generated using pymatgen
data_YbAlAu
_symmetry_space_group_name_H-M   'P 1'
_cell_length_a   4.48866200
_cell_length_b   7.17360400
_cell_length_c   7.92197500
_cell_angle_alpha   90.00000000
_cell_angle_beta   90.00000000
_cell_angle_gamma   90.00000000
_symmetry_Int_Tables_number   1
_chemical_formula_structural   YbAlAu
_chemical_formula_sum   'Yb4 Al4 Au4'
_cell_volume   255.08667350
_cell_formula_units_Z   4
loop_
 _symmetry_equiv_pos_site_id
 _symmetry_equiv_pos_as_xyz
  1  'x, y, z'
loop_
 _atom_site_type_symbol
 _atom_site_label
 _atom_site_symmetry_multiplicity
 _atom_site_fract_x
 _atom_site_fract_y
 _atom_site_fract_z
 _atom_site_occupancy
  Yb  Yb0  1  0.75000000  0.47257800  0.82443500  1
  Yb  Yb1  1  0.25000000  0.02742200  0.32443500  1
  Yb  Yb2  1  0.75000000  0.97257800  0.67556500  1
  Yb  Yb3  1  0.25000000  0.52742200  0.17556500  1
  Al  Al0  1  0.25000000  0.64134600  0.55883200  1
  Al  Al1  1  0.25000000  0.14134600  0.94116800  1
  Al  Al2  1  0.75000000  0.35865400  0.44116800  1
  Al  Al3  1  0.75000000  0.85865400  0.05883200  1
  Au  Au0  1  0.25000000  0.77900000  0.87178800  1
  Au  Au1  1  0.25000000  0.27900000  0.62821200  1
  Au  Au2  1  0.75000000  0.72100000  0.37178800  1
  Au  Au3  1  0.75000000  0.22100000  0.12821200  1
loop_
_geom_bond_atom_site_label_1
_geom_bond_atom_site_label_2
_geom_bond_distance
_geom_bond_site_symmetry_2
Al0 Au1 2.656800 1_555
Al0 Au0 2.668649 1_555
Al0 Au2 2.749388 1_555
Al0 Au2 2.749388 1_455
Al0 Yb3 3.144295 1_555
Al0 Yb0 3.306054 1_455
Al0 Yb0 3.306054 1_555
Al0 Yb1 3.334437 1_565
Al0 Yb2 3.396789 1_455
Al0 Yb2 3.396789 1_555
Al1 Au0 2.656800 1_545
Al1 Au1 2.668649 1_555
Al1 Au3 2.749388 1_456
Al1 Au3 2.749388 1_556
Al1 Yb1 3.144295 1_556
Al1 Yb2 3.306054 1_445
Al1 Yb2 3.306054 1_545
Al1 Yb3 3.334437 1_556
Al1 Yb0 3.396789 1_455
Al1 Yb0 3.396789 1_555
Al2 Au2 2.656800 1_555
Al2 Au3 2.668649 1_555
Al2 Au1 2.749388 1_555
Al2 Au1 2.749388 1_655
Al2 Yb0 3.144295 1_555
Al2 Yb3 3.306054 1_655
Al2 Yb3 3.306054 1_555
Al2 Yb2 3.334437 1_545
Al2 Yb1 3.396789 1_655
Al2 Yb1 3.396789 1_555
Al3 Au3 2.656800 1_565
Al3 Au2 2.668649 1_555
Al3 Au0 2.749388 1_654
Al3 Au0 2.749388 1_554
Al3 Yb2 3.144295 1_554
Al3 Yb1 3.306054 1_565
Al3 Yb1 3.306054 1_665
Al3 Yb0 3.334437 1_554
Al3 Yb3 3.396789 1_655
Al3 Yb3 3.396789 1_555
Au0 Yb3 3.008044 1_556
Au0 Yb2 3.062967 1_455
Au0 Yb2 3.062967 1_555
Au0 Yb0 3.163796 1_555
Au0 Yb0 3.163796 1_455
Au1 Yb1 3.008044 1_555
Au1 Yb0 3.062967 1_455
Au1 Yb0 3.062967 1_555
Au1 Yb2 3.163796 1_445
Au1 Yb2 3.163796 1_545
Au2 Yb2 3.008044 1_555
Au2 Yb3 3.062967 1_555
Au2 Yb3 3.062967 1_655
Au2 Yb1 3.163796 1_565
Au2 Yb1 3.163796 1_665
Au3 Yb0 3.008044 1_554
Au3 Yb1 3.062967 1_655
Au3 Yb1 3.062967 1_555
Au3 Yb3 3.163796 1_655
Au3 Yb3 3.163796 1_555
