# generated using pymatgen
data_CaMn6(OF2)4
_symmetry_space_group_name_H-M   'P 1'
_cell_length_a   5.47596419
_cell_length_b   8.41485180
_cell_length_c   5.68295985
_cell_angle_alpha   90.52335159
_cell_angle_beta   100.30411267
_cell_angle_gamma   82.58860042
_symmetry_Int_Tables_number   1
_chemical_formula_structural   CaMn6(OF2)4
_chemical_formula_sum   'Ca1 Mn6 O4 F8'
_cell_volume   255.46562614
_cell_formula_units_Z   1
loop_
 _symmetry_equiv_pos_site_id
 _symmetry_equiv_pos_as_xyz
  1  'x, y, z'
loop_
 _atom_site_type_symbol
 _atom_site_label
 _atom_site_symmetry_multiplicity
 _atom_site_fract_x
 _atom_site_fract_y
 _atom_site_fract_z
 _atom_site_occupancy
  Ca  Ca0  1  0.06523800  0.11687500  0.76988600  1
  Mn  Mn0  1  0.48820600  0.00767700  0.46379300  1
  Mn  Mn1  1  0.57662400  0.65422400  0.09830500  1
  Mn  Mn2  1  0.51341900  0.33544100  0.82113100  1
  Mn  Mn3  1  0.95220300  0.67642700  0.64860000  1
  Mn  Mn4  1  0.02353800  0.34622000  0.30966300  1
  Mn  Mn5  1  0.92605500  0.89156300  0.19101600  1
  O  O0  1  0.80761500  0.75482500  0.90729300  1
  O  O1  1  0.69750300  0.78871200  0.39789800  1
  O  O2  1  0.70856500  0.41937300  0.08894800  1
  O  O3  1  0.31158100  0.22906900  0.55389700  1
  F  F0  1  0.80124600  0.38896400  0.63277300  1
  F  F1  1  0.82294900  0.10495700  0.37842600  1
  F  F2  1  0.70137400  0.09229000  0.87760300  1
  F  F3  1  0.27691200  0.57822000  0.84763100  1
  F  F4  1  0.25978300  0.95072000  0.10912000  1
  F  F5  1  0.10983400  0.58017600  0.38140300  1
  F  F6  1  0.25069600  0.28206100  0.03419800  1
  F  F7  1  0.19276600  0.88553800  0.58216700  1
loop_
_geom_bond_atom_site_label_1
_geom_bond_atom_site_label_2
_geom_bond_distance
_geom_bond_site_symmetry_2
Ca0 F2 2.220949 1_455
Ca0 F6 2.236081 1_556
Ca0 O3 2.271510 1_555
Ca0 F7 2.300677 1_545
Ca0 F1 2.386163 1_455
Ca0 F4 2.395130 1_546
Ca0 F0 2.591311 1_455
Mn0 O3 2.088841 1_555
Mn0 O1 2.108302 1_545
Mn1 O2 2.018369 1_555
Mn1 O0 2.068619 1_554
Mn1 O1 2.091061 1_555
Mn2 O2 1.884264 1_556
Mn2 O3 1.989750 1_555
Mn3 O0 1.867447 1_555
Mn3 O1 1.960004 1_555
Mn4 O2 1.973156 1_455
Mn4 O3 2.055930 1_555
Mn5 O0 2.031971 1_554
Mn5 O1 2.126527 1_555
F0 Mn2 2.151364 1_555
F0 Mn4 2.378531 1_655
F0 Mn3 2.651051 1_555
F1 Mn5 2.143872 1_545
F1 Mn0 2.231143 1_555
F1 Mn4 2.494849 1_655
F2 Mn2 2.167786 1_555
F2 Mn5 2.504795 1_546
F2 Mn0 2.569369 1_555
F3 Mn3 2.010574 1_455
F3 Mn1 2.133015 1_556
F3 Mn2 2.292419 1_555
F4 Mn5 2.085019 1_455
F4 Mn0 2.256545 1_565
F5 Mn3 1.993215 1_455
F5 Mn4 2.102795 1_555
F6 Mn2 2.130146 1_554
F6 Mn4 2.190292 1_555
F7 Mn0 2.226469 1_565
F7 Mn3 2.400467 1_455
F7 Mn5 2.428665 1_455
