# generated using pymatgen
data_CaO
_symmetry_space_group_name_H-M   'P 1'
_cell_length_a   5.62137729
_cell_length_b   5.62137729
_cell_length_c   5.62137729
_cell_angle_alpha   60.00000000
_cell_angle_beta   60.00000000
_cell_angle_gamma   60.00000000
_symmetry_Int_Tables_number   1
_chemical_formula_structural   CaO
_chemical_formula_sum   'Ca4 O4'
_cell_volume   125.60681580
_cell_formula_units_Z   4
loop_
 _symmetry_equiv_pos_site_id
 _symmetry_equiv_pos_as_xyz
  1  'x, y, z'
loop_
 _atom_site_type_symbol
 _atom_site_label
 _atom_site_symmetry_multiplicity
 _atom_site_fract_x
 _atom_site_fract_y
 _atom_site_fract_z
 _atom_site_occupancy
  Ca  Ca0  1  0.00000000  0.50000000  0.00000000  1
  Ca  Ca1  1  0.00000000  0.00000000  0.50000000  1
  Ca  Ca2  1  0.50000000  0.00000000  0.00000000  1
  Ca  Ca3  1  0.00000000  0.00000000  0.00000000  1
  O  O0  1  0.50000000  0.00000000  0.50000000  1
  O  O1  1  0.50000000  0.50000000  0.00000000  1
  O  O2  1  0.00000000  0.50000000  0.50000000  1
  O  O3  1  0.50000000  0.50000000  0.50000000  1
loop_
_geom_bond_atom_site_label_1
_geom_bond_atom_site_label_2
_geom_bond_distance
_geom_bond_site_symmetry_2
Ca0 O3 2.810689 1_455
Ca0 O3 2.810689 1_554
Ca0 O2 2.810689 1_555
Ca0 O1 2.810689 1_455
Ca0 O1 2.810689 1_555
Ca0 O2 2.810689 1_554
Ca1 O3 2.810689 1_455
Ca1 O0 2.810689 1_555
Ca1 O0 2.810689 1_455
Ca1 O2 2.810689 1_545
Ca1 O2 2.810689 1_555
Ca1 O3 2.810689 1_545
Ca2 O1 2.810689 1_545
Ca2 O0 2.810689 1_555
Ca2 O0 2.810689 1_554
Ca2 O3 2.810689 1_554
Ca2 O1 2.810689 1_555
Ca2 O3 2.810689 1_545
Ca3 O1 2.810689 1_545
Ca3 O0 2.810689 1_455
Ca3 O0 2.810689 1_554
Ca3 O2 2.810689 1_545
Ca3 O1 2.810689 1_455
Ca3 O2 2.810689 1_554
