# generated using pymatgen
data_SrVZnP2O9
_symmetry_space_group_name_H-M   'P 1'
_cell_length_a   9.14686800
_cell_length_b   9.26147500
_cell_length_c   17.72525100
_cell_angle_alpha   90.00000000
_cell_angle_beta   90.00000000
_cell_angle_gamma   90.00000000
_symmetry_Int_Tables_number   1
_chemical_formula_structural   SrVZnP2O9
_chemical_formula_sum   'Sr8 V8 Zn8 P16 O72'
_cell_volume   1501.56786111
_cell_formula_units_Z   8
loop_
 _symmetry_equiv_pos_site_id
 _symmetry_equiv_pos_as_xyz
  1  'x, y, z'
loop_
 _atom_site_type_symbol
 _atom_site_label
 _atom_site_symmetry_multiplicity
 _atom_site_fract_x
 _atom_site_fract_y
 _atom_site_fract_z
 _atom_site_occupancy
  Sr  Sr0  1  0.06775200  0.36198900  0.10016600  1
  Sr  Sr1  1  0.56775200  0.63801100  0.39983400  1
  Sr  Sr2  1  0.43224800  0.86198900  0.89983400  1
  Sr  Sr3  1  0.93224800  0.13801100  0.60016600  1
  Sr  Sr4  1  0.93224800  0.63801100  0.89983400  1
  Sr  Sr5  1  0.43224800  0.36198900  0.60016600  1
  Sr  Sr6  1  0.56775200  0.13801100  0.10016600  1
  Sr  Sr7  1  0.06775200  0.86198900  0.39983400  1
  V  V0  1  0.75481100  0.49438300  0.21106500  1
  V  V1  1  0.25481100  0.50561700  0.28893500  1
  V  V2  1  0.74518900  0.99438300  0.78893500  1
  V  V3  1  0.24518900  0.00561700  0.71106500  1
  V  V4  1  0.24518900  0.50561700  0.78893500  1
  V  V5  1  0.74518900  0.49438300  0.71106500  1
  V  V6  1  0.25481100  0.00561700  0.21106500  1
  V  V7  1  0.75481100  0.99438300  0.28893500  1
  Zn  Zn0  1  0.07191500  0.30550200  0.43623800  1
  Zn  Zn1  1  0.57191500  0.69449800  0.06376200  1
  Zn  Zn2  1  0.42808500  0.80550200  0.56376200  1
  Zn  Zn3  1  0.92808500  0.19449800  0.93623800  1
  Zn  Zn4  1  0.92808500  0.69449800  0.56376200  1
  Zn  Zn5  1  0.42808500  0.30550200  0.93623800  1
  Zn  Zn6  1  0.57191500  0.19449800  0.43623800  1
  Zn  Zn7  1  0.07191500  0.80550200  0.06376200  1
  P  P0  1  0.23405700  0.07021100  0.01191800  1
  P  P1  1  0.73405700  0.92978900  0.48808200  1
  P  P2  1  0.26594300  0.57021100  0.98808200  1
  P  P3  1  0.76594300  0.42978900  0.51191800  1
  P  P4  1  0.76594300  0.92978900  0.98808200  1
  P  P5  1  0.26594300  0.07021100  0.51191800  1
  P  P6  1  0.73405700  0.42978900  0.01191800  1
  P  P7  1  0.23405700  0.57021100  0.48808200  1
  P  P8  1  0.50434600  0.25575900  0.27193800  1
  P  P9  1  0.00434600  0.74424100  0.22806200  1
  P  P10  1  0.99565400  0.75575900  0.72806200  1
  P  P11  1  0.49565400  0.24424100  0.77193800  1
  P  P12  1  0.49565400  0.74424100  0.72806200  1
  P  P13  1  0.99565400  0.25575900  0.77193800  1
  P  P14  1  0.00434600  0.24424100  0.27193800  1
  P  P15  1  0.50434600  0.75575900  0.22806200  1
  O  O0  1  0.41558800  0.36013900  0.32172400  1
  O  O1  1  0.91558800  0.63986100  0.17827600  1
  O  O2  1  0.08441200  0.86013900  0.67827600  1
  O  O3  1  0.58441200  0.13986100  0.82172400  1
  O  O4  1  0.58441200  0.63986100  0.67827600  1
  O  O5  1  0.08441200  0.36013900  0.82172400  1
  O  O6  1  0.91558800  0.13986100  0.32172400  1
  O  O7  1  0.41558800  0.86013900  0.17827600  1
  O  O8  1  0.60195100  0.33415400  0.21363600  1
  O  O9  1  0.10195100  0.66584600  0.28636400  1
  O  O10  1  0.89804900  0.83415400  0.78636400  1
  O  O11  1  0.39804900  0.16584600  0.71363600  1
  O  O12  1  0.39804900  0.66584600  0.78636400  1
  O  O13  1  0.89804900  0.33415400  0.71363600  1
  O  O14  1  0.10195100  0.16584600  0.21363600  1
  O  O15  1  0.60195100  0.83415400  0.28636400  1
  O  O16  1  0.19027700  0.91542300  0.98912700  1
  O  O17  1  0.69027700  0.08457700  0.51087300  1
  O  O18  1  0.30972300  0.41542300  0.01087300  1
  O  O19  1  0.80972300  0.58457700  0.48912700  1
  O  O20  1  0.80972300  0.08457700  0.01087300  1
  O  O21  1  0.30972300  0.91542300  0.48912700  1
  O  O22  1  0.69027700  0.58457700  0.98912700  1
  O  O23  1  0.19027700  0.41542300  0.51087300  1
  O  O24  1  0.59864700  0.15820400  0.32795800  1
  O  O25  1  0.09864700  0.84179600  0.17204200  1
  O  O26  1  0.90135300  0.65820400  0.67204200  1
  O  O27  1  0.73649200  0.54383500  0.30013400  1
  O  O28  1  0.40135300  0.34179600  0.82795800  1
  O  O29  1  0.90135300  0.15820400  0.82795800  1
  O  O30  1  0.09864700  0.34179600  0.32795800  1
  O  O31  1  0.59864700  0.65820400  0.17204200  1
  O  O32  1  0.37740500  0.10494300  0.96689800  1
  O  O33  1  0.87740500  0.89505700  0.53310200  1
  O  O34  1  0.12259500  0.60494300  0.03310200  1
  O  O35  1  0.62259500  0.39505700  0.46689800  1
  O  O36  1  0.62259500  0.89505700  0.03310200  1
  O  O37  1  0.12259500  0.10494300  0.46689800  1
  O  O38  1  0.87740500  0.39505700  0.96689800  1
  O  O39  1  0.37740500  0.60494300  0.53310200  1
  O  O40  1  0.22762100  0.08080100  0.59689700  1
  O  O41  1  0.72762100  0.91919900  0.90310300  1
  O  O42  1  0.27237900  0.58080100  0.40310300  1
  O  O43  1  0.77237900  0.41919900  0.09689700  1
  O  O44  1  0.77237900  0.91919900  0.40310300  1
  O  O45  1  0.27237900  0.08080100  0.09689700  1
  O  O46  1  0.72762100  0.41919900  0.59689700  1
  O  O47  1  0.22762100  0.58080100  0.90310300  1
  O  O48  1  0.91227900  0.84656200  0.27771400  1
  O  O49  1  0.41227900  0.15343800  0.22228600  1
  O  O50  1  0.58772100  0.34656200  0.72228600  1
  O  O51  1  0.08772100  0.65343800  0.77771400  1
  O  O52  1  0.08772100  0.15343800  0.72228600  1
  O  O53  1  0.58772100  0.84656200  0.77771400  1
  O  O54  1  0.41227900  0.65343800  0.27771400  1
  O  O55  1  0.91227900  0.34656200  0.22228600  1
  O  O56  1  0.11199900  0.68042100  0.50571200  1
  O  O57  1  0.61199900  0.31957900  0.99428800  1
  O  O58  1  0.38800100  0.18042100  0.49428800  1
  O  O59  1  0.88800100  0.81957900  0.00571200  1
  O  O60  1  0.88800100  0.31957900  0.49428800  1
  O  O61  1  0.38800100  0.68042100  0.00571200  1
  O  O62  1  0.61199900  0.81957900  0.50571200  1
  O  O63  1  0.11199900  0.18042100  0.99428800  1
  O  O64  1  0.73649200  0.04383500  0.19986600  1
  O  O65  1  0.23649200  0.95616500  0.30013400  1
  O  O66  1  0.76350800  0.54383500  0.80013400  1
  O  O67  1  0.26350800  0.45616500  0.69986600  1
  O  O68  1  0.26350800  0.95616500  0.80013400  1
  O  O69  1  0.76350800  0.04383500  0.69986600  1
  O  O70  1  0.23649200  0.45616500  0.19986600  1
  O  O71  1  0.40135300  0.84179600  0.67204200  1
loop_
_geom_bond_atom_site_label_1
_geom_bond_atom_site_label_2
_geom_bond_distance
_geom_bond_site_symmetry_2
O0 P8 1.540259 1_555
O0 V1 2.077449 1_555
O0 Sr1 3.236818 1_555
O1 P9 1.540259 1_655
O1 V0 2.077449 1_555
O1 Sr0 3.236818 1_655
O2 P10 1.540259 1_455
O2 V3 2.077449 1_565
O2 Sr3 3.236818 1_465
O3 P11 1.540259 1_555
O3 V2 2.077449 1_545
O3 Sr2 3.236818 1_545
O4 P12 1.540259 1_555
O4 V5 2.077449 1_555
O4 Sr5 3.236818 1_555
O5 P13 1.540259 1_455
O5 V4 2.077449 1_555
O5 Sr4 3.236818 1_455
O6 P14 1.540259 1_655
O6 V7 2.077449 1_545
O6 Sr7 3.236818 1_645
O7 P15 1.540259 1_555
O7 V6 2.077449 1_565
O7 Sr6 3.236818 1_565
O8 P8 1.546661 1_555
O8 V0 2.039397 1_555
O8 Sr6 2.728196 1_555
O9 P9 1.546661 1_555
O9 V1 2.039397 1_555
O9 Sr7 2.728196 1_555
O10 P10 1.546661 1_555
O10 V2 2.039397 1_555
O10 Sr4 2.728196 1_555
O11 P11 1.546661 1_555
O11 V3 2.039397 1_555
O11 Sr5 2.728196 1_555
O12 P12 1.546661 1_555
O12 V4 2.039397 1_555
O12 Sr2 2.728196 1_555
O13 P13 1.546661 1_555
O13 V5 2.039397 1_555
O13 Sr3 2.728196 1_555
O14 P14 1.546661 1_555
O14 V6 2.039397 1_555
O14 Sr0 2.728196 1_555
O15 P15 1.546661 1_555
O15 V7 2.039397 1_555
O15 Sr1 2.728196 1_555
O16 P0 1.542292 1_566
O16 Zn7 1.989630 1_556
O16 Sr2 2.765604 1_555
O17 P1 1.542292 1_545
O17 Zn6 1.989630 1_555
O17 Sr3 2.765604 1_555
O18 P2 1.542292 1_554
O18 Zn5 1.989630 1_554
O18 Sr0 2.765604 1_555
O19 P3 1.542292 1_555
O19 Zn4 1.989630 1_555
O19 Sr1 2.765604 1_555
O20 P4 1.542292 1_544
O20 Zn3 1.989630 1_554
O20 Sr6 2.765604 1_555
O21 P5 1.542292 1_565
O21 Zn2 1.989630 1_555
O21 Sr7 2.765604 1_555
O22 P6 1.542292 1_556
O22 Zn1 1.989630 1_556
O22 Sr4 2.765604 1_555
O23 P7 1.542292 1_555
O23 Zn0 1.989630 1_555
O23 Sr5 2.765604 1_555
O24 P8 1.595717 1_555
O24 Zn6 1.963784 1_555
O24 V7 2.195624 1_545
O25 P9 1.595717 1_555
O25 Zn7 1.963784 1_555
O25 V6 2.195624 1_565
O26 P10 1.595717 1_555
O26 Zn4 1.963784 1_555
O26 V5 2.195624 1_555
O27 V0 1.652379 1_555
O27 Sr1 2.503195 1_555
O28 P11 1.595717 1_555
O28 Zn5 1.963784 1_555
O28 V4 2.195624 1_555
O29 P13 1.595717 1_555
O29 Zn3 1.963784 1_555
O29 V2 2.195624 1_545
O30 P14 1.595717 1_555
O30 Zn0 1.963784 1_555
O30 V1 2.195624 1_555
O31 P15 1.595717 1_555
O31 Zn1 1.963784 1_555
O31 V0 2.195624 1_555
O32 P0 1.568269 1_556
O32 Zn5 1.990085 1_555
O32 Sr2 2.593785 1_545
O32 Sr6 2.950454 1_556
O33 P1 1.568269 1_555
O33 Zn4 1.990085 1_555
O33 Sr3 2.593785 1_565
O33 Sr7 2.950454 1_655
O34 P2 1.568269 1_554
O34 Zn7 1.990085 1_555
O34 Sr0 2.593785 1_555
O34 Sr4 2.950454 1_454
O35 P3 1.568269 1_555
O35 Zn6 1.990085 1_555
O35 Sr1 2.593785 1_555
O35 Sr5 2.950454 1_555
O36 P4 1.568269 1_554
O36 Zn1 1.990085 1_555
O36 Sr6 2.593785 1_565
O36 Sr2 2.950454 1_554
O37 P5 1.568269 1_555
O37 Zn0 1.990085 1_555
O37 Sr7 2.593785 1_545
O37 Sr3 2.950454 1_455
O38 P6 1.568269 1_556
O38 Zn3 1.990085 1_555
O38 Sr4 2.593785 1_555
O38 Sr0 2.950454 1_656
O39 P7 1.568269 1_555
O39 Zn2 1.990085 1_555
O39 Sr5 2.593785 1_555
O39 Sr1 2.950454 1_555
O40 P5 1.549629 1_555
O40 V3 2.146127 1_555
O40 Sr3 2.753813 1_455
O40 Sr5 3.207576 1_555
O41 P4 1.549629 1_555
O41 V2 2.146127 1_555
O41 Sr2 2.753813 1_555
O41 Sr4 3.207576 1_555
O42 P7 1.549629 1_555
O42 V1 2.146127 1_555
O42 Sr1 2.753813 1_555
O42 Sr7 3.207576 1_555
O43 P6 1.549629 1_555
O43 V0 2.146127 1_555
O43 Sr0 2.753813 1_655
O43 Sr6 3.207576 1_555
O44 P1 1.549629 1_555
O44 V7 2.146127 1_555
O44 Sr7 2.753813 1_655
O44 Sr1 3.207576 1_555
O45 P0 1.549629 1_555
O45 V6 2.146127 1_555
O45 Sr6 2.753813 1_555
O45 Sr0 3.207576 1_555
O46 P3 1.549629 1_555
O46 V5 2.146127 1_555
O46 Sr5 2.753813 1_555
O46 Sr3 3.207576 1_555
O47 P2 1.549629 1_555
O47 V4 2.146127 1_555
O47 Sr4 2.753813 1_455
O47 Sr2 3.207576 1_555
O48 P9 1.543298 1_655
O48 V7 1.997100 1_555
O48 Sr7 2.593893 1_655
O49 P8 1.543298 1_555
O49 V6 1.997100 1_555
O49 Sr6 2.593893 1_555
O50 P11 1.543298 1_555
O50 V5 1.997100 1_555
O50 Sr5 2.593893 1_555
O51 P10 1.543298 1_455
O51 V4 1.997100 1_555
O51 Sr4 2.593893 1_455
O52 P13 1.543298 1_455
O52 V3 1.997100 1_555
O52 Sr3 2.593893 1_455
O53 P12 1.543298 1_555
O53 V2 1.997100 1_555
O53 Sr2 2.593893 1_555
O54 P15 1.543298 1_555
O54 V1 1.997100 1_555
O54 Sr1 2.593893 1_555
O55 P14 1.543298 1_655
O55 V0 1.997100 1_555
O55 Sr0 2.593893 1_655
O56 P7 1.544653 1_555
O56 Zn4 1.976274 1_455
O56 Sr7 2.552174 1_555
O57 P6 1.544653 1_556
O57 Zn5 1.976274 1_555
O57 Sr6 2.552174 1_556
O58 P5 1.544653 1_555
O58 Zn6 1.976274 1_555
O58 Sr5 2.552174 1_555
O59 P4 1.544653 1_554
O59 Zn7 1.976274 1_655
O59 Sr4 2.552174 1_554
O60 P3 1.544653 1_555
O60 Zn0 1.976274 1_655
O60 Sr3 2.552174 1_555
O61 P2 1.544653 1_554
O61 Zn1 1.976274 1_555
O61 Sr2 2.552174 1_554
O62 P1 1.544653 1_555
O62 Zn2 1.976274 1_555
O62 Sr1 2.552174 1_555
O63 P0 1.544653 1_556
O63 Zn3 1.976274 1_455
O63 Sr0 2.552174 1_556
O64 V7 1.652379 1_545
O64 Sr6 2.503195 1_555
O65 V6 1.652379 1_565
O65 Sr7 2.503195 1_555
O66 V5 1.652379 1_555
O66 Sr4 2.503195 1_555
O67 V4 1.652379 1_555
O67 Sr5 2.503195 1_555
O68 V3 1.652379 1_565
O68 Sr2 2.503195 1_555
O69 V2 1.652379 1_545
O69 Sr3 2.503195 1_555
O70 V1 1.652379 1_555
O70 Sr0 2.503195 1_555
O71 P12 1.595717 1_555
O71 Zn2 1.963784 1_555
O71 V3 2.195624 1_565
