# generated using pymatgen
data_BaSiO3
_symmetry_space_group_name_H-M   'P 1'
_cell_length_a   5.51827359
_cell_length_b   5.51827359
_cell_length_c   13.28025100
_cell_angle_alpha   90.00000000
_cell_angle_beta   90.00000000
_cell_angle_gamma   119.99999513
_symmetry_Int_Tables_number   1
_chemical_formula_structural   BaSiO3
_chemical_formula_sum   'Ba6 Si6 O18'
_cell_volume   350.22197599
_cell_formula_units_Z   6
loop_
 _symmetry_equiv_pos_site_id
 _symmetry_equiv_pos_as_xyz
  1  'x, y, z'
loop_
 _atom_site_type_symbol
 _atom_site_label
 _atom_site_symmetry_multiplicity
 _atom_site_fract_x
 _atom_site_fract_y
 _atom_site_fract_z
 _atom_site_occupancy
  Ba  Ba0  1  0.33333300  0.66666700  0.40481900  1
  Ba  Ba1  1  0.66666700  0.33333300  0.90481900  1
  Ba  Ba2  1  0.66666700  0.33333300  0.59518100  1
  Ba  Ba3  1  0.33333300  0.66666700  0.09518100  1
  Ba  Ba4  1  0.00000000  0.00000000  0.75000000  1
  Ba  Ba5  1  0.00000000  0.00000000  0.25000000  1
  Si  Si0  1  0.33333300  0.66666700  0.65623600  1
  Si  Si1  1  0.66666700  0.33333300  0.15623600  1
  Si  Si2  1  0.66666700  0.33333300  0.34376400  1
  Si  Si3  1  0.33333300  0.66666700  0.84376400  1
  Si  Si4  1  0.00000000  0.00000000  0.50000000  1
  Si  Si5  1  0.00000000  0.00000000  0.00000000  1
  O  O0  1  0.83340800  0.16659200  0.41994100  1
  O  O1  1  0.83340800  0.66681700  0.41994100  1
  O  O2  1  0.33318300  0.16659200  0.41994100  1
  O  O3  1  0.66681700  0.83340800  0.91994100  1
  O  O4  1  0.16659200  0.33318300  0.58005900  1
  O  O5  1  0.16659200  0.83340800  0.91994100  1
  O  O6  1  0.16659200  0.33318300  0.91994100  1
  O  O7  1  0.83340800  0.16659200  0.08005900  1
  O  O8  1  0.33318300  0.16659200  0.08005900  1
  O  O9  1  0.66681700  0.83340800  0.58005900  1
  O  O10  1  0.16659200  0.83340800  0.58005900  1
  O  O11  1  0.83340800  0.66681700  0.08005900  1
  O  O12  1  0.52481800  0.04963600  0.25000000  1
  O  O13  1  0.47518200  0.52481800  0.75000000  1
  O  O14  1  0.04963600  0.52481800  0.75000000  1
  O  O15  1  0.95036400  0.47518200  0.25000000  1
  O  O16  1  0.52481800  0.47518200  0.25000000  1
  O  O17  1  0.47518200  0.95036400  0.75000000  1
loop_
_geom_bond_atom_site_label_1
_geom_bond_atom_site_label_2
_geom_bond_distance
_geom_bond_site_symmetry_2
Ba0 O12 2.752616 1_565
Ba0 O15 2.752616 1_455
Ba0 O16 2.752619 1_555
Ba0 O1 2.766436 1_455
Ba0 O2 2.766436 1_565
Ba0 O1 2.766436 1_555
Ba0 O2 2.766436 1_555
Ba0 O0 2.766436 1_455
Ba0 O0 2.766436 1_565
Ba0 O10 2.820617 1_555
Ba0 O4 2.820623 1_555
Ba0 O9 2.820623 1_555
Ba1 O17 2.752616 1_545
Ba1 O14 2.752616 1_655
Ba1 O13 2.752619 1_555
Ba1 O3 2.766436 1_545
Ba1 O6 2.766436 1_655
Ba1 O6 2.766436 1_555
Ba1 O3 2.766436 1_555
Ba1 O5 2.766436 1_545
Ba1 O5 2.766436 1_655
Ba1 O7 2.820617 1_556
Ba1 O8 2.820623 1_556
Ba1 O11 2.820623 1_556
Ba2 O17 2.752616 1_545
Ba2 O14 2.752616 1_655
Ba2 O13 2.752619 1_555
Ba2 O9 2.766436 1_545
Ba2 O4 2.766436 1_655
Ba2 O4 2.766436 1_555
Ba2 O9 2.766436 1_555
Ba2 O10 2.766436 1_545
Ba2 O10 2.766436 1_655
Ba2 O0 2.820617 1_555
Ba2 O2 2.820623 1_555
Ba2 O1 2.820623 1_555
Ba3 O12 2.752616 1_565
Ba3 O15 2.752616 1_455
Ba3 O16 2.752619 1_555
Ba3 O11 2.766436 1_455
Ba3 O8 2.766436 1_565
Ba3 O8 2.766436 1_555
Ba3 O11 2.766436 1_555
Ba3 O7 2.766436 1_565
Ba3 O7 2.766436 1_455
Ba3 O5 2.820617 1_554
Ba3 O6 2.820623 1_554
Ba3 O3 2.820623 1_554
Ba4 O3 2.762017 1_445
Ba4 O4 2.762017 1_555
Ba4 O9 2.762017 1_445
Ba4 O6 2.762017 1_555
Ba4 O5 2.762020 1_545
Ba4 O10 2.762020 1_545
Ba4 O17 2.769315 1_545
Ba4 O14 2.769315 1_545
Ba4 O17 2.769315 1_445
Ba4 O14 2.769315 1_555
Ba4 O13 2.769315 1_555
Ba4 O13 2.769315 1_445
Ba5 O2 2.762017 1_555
Ba5 O8 2.762017 1_555
Ba5 O11 2.762017 1_445
Ba5 O1 2.762017 1_445
Ba5 O7 2.762020 1_455
Ba5 O0 2.762020 1_455
Ba5 O15 2.769315 1_455
Ba5 O12 2.769315 1_455
Ba5 O12 2.769315 1_555
Ba5 O15 2.769315 1_445
Ba5 O16 2.769315 1_555
Ba5 O16 2.769315 1_445
O0 Si2 1.887673 1_555
O0 Si4 1.914612 1_655
O1 Si2 1.887682 1_555
O1 Si4 1.914609 1_665
O2 Si2 1.887682 1_555
O2 Si4 1.914609 1_555
O3 Si3 1.887682 1_555
O3 Si5 1.914609 1_666
O4 Si0 1.887682 1_555
O4 Si4 1.914609 1_555
O5 Si3 1.887673 1_555
O5 Si5 1.914612 1_566
O6 Si3 1.887682 1_555
O6 Si5 1.914609 1_556
O7 Si1 1.887673 1_555
O7 Si5 1.914612 1_655
O8 Si1 1.887682 1_555
O8 Si5 1.914609 1_555
O9 Si0 1.887682 1_555
O9 Si4 1.914609 1_665
O10 Si0 1.887673 1_555
O10 Si4 1.914612 1_565
O11 Si1 1.887682 1_555
O11 Si5 1.914609 1_665
O12 Si1 1.840837 1_555
O12 Si2 1.840837 1_555
O13 Si3 1.840840 1_555
O13 Si0 1.840840 1_555
O14 Si3 1.840837 1_555
O14 Si0 1.840837 1_555
O15 Si1 1.840837 1_555
O15 Si2 1.840837 1_555
O16 Si1 1.840840 1_555
O16 Si2 1.840840 1_555
O17 Si3 1.840837 1_555
O17 Si0 1.840837 1_555
