# generated using pymatgen
data_Cs2Mo3P5O19
_symmetry_space_group_name_H-M   'P 1'
_cell_length_a   6.59654284
_cell_length_b   9.97118380
_cell_length_c   14.78462100
_cell_angle_alpha   90.00000000
_cell_angle_beta   90.00000000
_cell_angle_gamma   105.80913294
_symmetry_Int_Tables_number   1
_chemical_formula_structural   Cs2Mo3P5O19
_chemical_formula_sum   'Cs4 Mo6 P10 O38'
_cell_volume   935.67964992
_cell_formula_units_Z   2
loop_
 _symmetry_equiv_pos_site_id
 _symmetry_equiv_pos_as_xyz
  1  'x, y, z'
loop_
 _atom_site_type_symbol
 _atom_site_label
 _atom_site_symmetry_multiplicity
 _atom_site_fract_x
 _atom_site_fract_y
 _atom_site_fract_z
 _atom_site_occupancy
  Cs  Cs0  1  0.00000000  0.50000000  0.50000000  1
  Cs  Cs1  1  0.00000000  0.50000000  0.00000000  1
  Cs  Cs2  1  0.04457500  0.86272800  0.25000000  1
  Cs  Cs3  1  0.95542500  0.13727200  0.75000000  1
  Mo  Mo0  1  0.37876800  0.53405800  0.25000000  1
  Mo  Mo1  1  0.62123200  0.46594200  0.75000000  1
  Mo  Mo2  1  0.71790900  0.14462700  0.37403000  1
  Mo  Mo3  1  0.28209100  0.85537300  0.87403000  1
  Mo  Mo4  1  0.28209100  0.85537300  0.62597000  1
  Mo  Mo5  1  0.71790900  0.14462700  0.12597000  1
  P  P0  1  0.83731400  0.44556700  0.25000000  1
  P  P1  1  0.16268600  0.55443300  0.75000000  1
  P  P2  1  0.26793200  0.23691300  0.39771900  1
  P  P3  1  0.73206800  0.76308700  0.89771900  1
  P  P4  1  0.73206800  0.76308700  0.60228100  1
  P  P5  1  0.26793200  0.23691300  0.10228100  1
  P  P6  1  0.49038200  0.21040900  0.56596800  1
  P  P7  1  0.50961800  0.78959100  0.06596800  1
  P  P8  1  0.50961800  0.78959100  0.43403200  1
  P  P9  1  0.49038200  0.21040900  0.93403200  1
  O  O0  1  0.69999100  0.54738500  0.25000000  1
  O  O1  1  0.30000900  0.45261500  0.75000000  1
  O  O2  1  0.79640300  0.35439000  0.33727000  1
  O  O3  1  0.20359700  0.64561000  0.83727000  1
  O  O4  1  0.20359700  0.64561000  0.66273000  1
  O  O5  1  0.79640300  0.35439000  0.16273000  1
  O  O6  1  0.06311100  0.54257600  0.25000000  1
  O  O7  1  0.93688900  0.45742400  0.75000000  1
  O  O8  1  0.30454200  0.37673000  0.35192000  1
  O  O9  1  0.69545800  0.62327000  0.85192000  1
  O  O10  1  0.69545800  0.62327000  0.64808000  1
  O  O11  1  0.30454200  0.37673000  0.14808000  1
  O  O12  1  0.39549100  0.13934500  0.36271800  1
  O  O13  1  0.60450900  0.86065500  0.86271800  1
  O  O14  1  0.60450900  0.86065500  0.63728200  1
  O  O15  1  0.39549100  0.13934500  0.13728200  1
  O  O16  1  0.03473300  0.15539900  0.40305100  1
  O  O17  1  0.96526700  0.84460100  0.90305100  1
  O  O18  1  0.96526700  0.84460100  0.59694900  1
  O  O19  1  0.03473300  0.15539900  0.09694900  1
  O  O20  1  0.34360500  0.27841700  0.50221000  1
  O  O21  1  0.65639500  0.72158300  0.00221000  1
  O  O22  1  0.65639500  0.72158300  0.49779000  1
  O  O23  1  0.34360500  0.27841700  0.99779000  1
  O  O24  1  0.68192200  0.20154400  0.50787000  1
  O  O25  1  0.31807800  0.79845600  0.00787000  1
  O  O26  1  0.31807800  0.79845600  0.49213000  1
  O  O27  1  0.68192200  0.20154400  0.99213000  1
  O  O28  1  0.56072300  0.30903000  0.64414100  1
  O  O29  1  0.43927700  0.69097000  0.14414100  1
  O  O30  1  0.43927700  0.69097000  0.35585900  1
  O  O31  1  0.56072300  0.30903000  0.85585900  1
  O  O32  1  0.35300200  0.06760100  0.59417600  1
  O  O33  1  0.64699800  0.93239900  0.09417600  1
  O  O34  1  0.64699800  0.93239900  0.40582400  1
  O  O35  1  0.35300200  0.06760100  0.90582400  1
  O  O36  1  0.73582400  0.10627900  0.25000000  1
  O  O37  1  0.26417600  0.89372100  0.75000000  1
loop_
_geom_bond_atom_site_label_1
_geom_bond_atom_site_label_2
_geom_bond_distance
_geom_bond_site_symmetry_2
Cs0 O2 2.938990 1_455
Cs0 O4 2.938990 1_555
Cs0 O24 3.141675 1_455
Cs0 O26 3.141675 1_555
Cs0 O8 3.418343 1_555
Cs0 O10 3.418343 1_455
Cs0 O20 3.570557 1_555
Cs0 O22 3.570557 1_455
Cs1 O5 2.938990 1_455
Cs1 O3 2.938990 1_554
Cs1 O27 3.141675 1_454
Cs1 O25 3.141675 1_555
Cs1 O11 3.418343 1_555
Cs1 O9 3.418343 1_454
Cs1 O23 3.570557 1_554
Cs1 O21 3.570557 1_455
Cs2 O6 3.227751 1_555
Cs2 O0 3.340567 1_455
Cs2 O12 3.502065 1_565
Cs2 O15 3.502065 1_565
Cs2 O36 3.569402 1_465
Cs2 O33 3.696083 1_455
Cs2 O34 3.696083 1_455
Cs2 O19 3.707297 1_565
Cs2 O16 3.707297 1_565
Cs2 O30 3.819858 1_555
Cs2 O29 3.819858 1_555
Cs3 O7 3.227751 1_555
Cs3 O1 3.340567 1_655
Cs3 O14 3.502065 1_545
Cs3 O13 3.502065 1_545
Cs3 O37 3.569402 1_645
Cs3 O35 3.696083 1_655
Cs3 O32 3.696083 1_655
Cs3 O18 3.707297 1_545
Cs3 O17 3.707297 1_545
Cs3 O28 3.819858 1_555
Cs3 O31 3.819858 1_555
Mo0 O0 2.086680 1_555
Mo0 O6 2.106969 1_555
Mo0 O11 2.133725 1_555
Mo0 O8 2.133725 1_555
Mo0 O29 2.171752 1_555
Mo0 O30 2.171752 1_555
Mo1 O1 2.086680 1_555
Mo1 O7 2.106969 1_555
Mo1 O9 2.133725 1_555
Mo1 O10 2.133725 1_555
Mo1 O28 2.171752 1_555
Mo1 O31 2.171752 1_555
Mo2 O36 1.883451 1_555
Mo2 O2 2.085214 1_555
Mo2 O24 2.089832 1_555
Mo2 O34 2.092503 1_545
Mo2 O16 2.107412 1_655
Mo2 O12 2.119711 1_555
Mo3 O37 1.883451 1_555
Mo3 O3 2.085214 1_555
Mo3 O25 2.089832 1_556
Mo3 O35 2.092503 1_565
Mo3 O17 2.107412 1_455
Mo3 O13 2.119711 1_555
Mo4 O37 1.883451 1_555
Mo4 O4 2.085214 1_555
Mo4 O26 2.089832 1_555
Mo4 O32 2.092503 1_565
Mo4 O18 2.107412 1_455
Mo4 O14 2.119711 1_555
Mo5 O36 1.883451 1_555
Mo5 O5 2.085214 1_555
Mo5 O27 2.089832 1_554
Mo5 O33 2.092503 1_545
Mo5 O19 2.107412 1_655
Mo5 O15 2.119711 1_555
O0 P0 1.533753 1_555
O1 P1 1.533753 1_555
O2 P0 1.558987 1_555
O3 P1 1.558987 1_555
O4 P1 1.558987 1_555
O5 P0 1.558987 1_555
O6 P0 1.539215 1_455
O7 P1 1.539215 1_655
O8 P2 1.508972 1_555
O9 P3 1.508972 1_555
O10 P4 1.508972 1_555
O11 P5 1.508972 1_555
O12 P2 1.538938 1_555
O13 P3 1.538938 1_555
O14 P4 1.538938 1_555
O15 P5 1.538938 1_555
O16 P2 1.533614 1_555
O17 P3 1.533614 1_555
O18 P4 1.533614 1_555
O19 P5 1.533614 1_555
O20 P6 1.625918 1_555
O20 P2 1.641487 1_555
O21 P7 1.625918 1_555
O21 P3 1.641487 1_554
O22 P8 1.625918 1_555
O22 P4 1.641487 1_555
O23 P9 1.625918 1_555
O23 P5 1.641487 1_556
O24 P6 1.550133 1_555
O25 P7 1.550133 1_555
O26 P8 1.550133 1_555
O27 P9 1.550133 1_555
O28 P6 1.506478 1_555
O29 P7 1.506478 1_555
O30 P8 1.506478 1_555
O31 P9 1.506478 1_555
O32 P6 1.523069 1_555
O33 P7 1.523069 1_555
O34 P8 1.523069 1_555
O35 P9 1.523069 1_555
