# generated using pymatgen
data_Li4Mn9O18
_symmetry_space_group_name_H-M   'P 1'
_cell_length_a   2.91447800
_cell_length_b   9.03723600
_cell_length_c   24.97171200
_cell_angle_alpha   90.00000000
_cell_angle_beta   90.00000000
_cell_angle_gamma   90.00000000
_symmetry_Int_Tables_number   1
_chemical_formula_structural   Li4Mn9O18
_chemical_formula_sum   'Li8 Mn18 O36'
_cell_volume   657.72556487
_cell_formula_units_Z   2
loop_
 _symmetry_equiv_pos_site_id
 _symmetry_equiv_pos_as_xyz
  1  'x, y, z'
loop_
 _atom_site_type_symbol
 _atom_site_label
 _atom_site_symmetry_multiplicity
 _atom_site_fract_x
 _atom_site_fract_y
 _atom_site_fract_z
 _atom_site_occupancy
  Li  Li0  1  0.00000000  0.16250200  0.00092900  1
  Li  Li1  1  0.00000000  0.20400400  0.20516600  1
  Li  Li2  1  0.00000000  0.29599600  0.70516600  1
  Li  Li3  1  0.00000000  0.33749800  0.50092900  1
  Li  Li4  1  0.00000000  0.66250200  0.49907100  1
  Li  Li5  1  0.00000000  0.70400400  0.29483400  1
  Li  Li6  1  0.00000000  0.79599600  0.79483400  1
  Li  Li7  1  0.00000000  0.83749800  0.99907100  1
  Mn  Mn0  1  0.00000000  0.00000000  0.50000000  1
  Mn  Mn1  1  0.00000000  0.00796100  0.10541100  1
  Mn  Mn2  1  0.00000000  0.03193000  0.30987300  1
  Mn  Mn3  1  0.50000000  0.13608300  0.58752700  1
  Mn  Mn4  1  0.50000000  0.14703300  0.80653100  1
  Mn  Mn5  1  0.50000000  0.35296700  0.30653100  1
  Mn  Mn6  1  0.50000000  0.36391700  0.08752700  1
  Mn  Mn7  1  0.00000000  0.46807000  0.80987300  1
  Mn  Mn8  1  0.00000000  0.49203900  0.60541100  1
  Mn  Mn9  1  0.00000000  0.50000000  0.00000000  1
  Mn  Mn10  1  0.00000000  0.50796100  0.39458900  1
  Mn  Mn11  1  0.00000000  0.53193000  0.19012700  1
  Mn  Mn12  1  0.50000000  0.63608300  0.91247300  1
  Mn  Mn13  1  0.50000000  0.64703300  0.69346900  1
  Mn  Mn14  1  0.50000000  0.85296700  0.19346900  1
  Mn  Mn15  1  0.50000000  0.86391700  0.41247300  1
  Mn  Mn16  1  0.00000000  0.96807000  0.69012700  1
  Mn  Mn17  1  0.00000000  0.99203900  0.89458900  1
  O  O0  1  0.00000000  0.00572600  0.42277600  1
  O  O1  1  0.00000000  0.99427400  0.57722400  1
  O  O2  1  0.50000000  0.02751100  0.94396300  1
  O  O3  1  0.50000000  0.04722700  0.16004000  1
  O  O4  1  0.50000000  0.09444800  0.66373500  1
  O  O5  1  0.00000000  0.10304200  0.75859200  1
  O  O6  1  0.50000000  0.15368800  0.50970200  1
  O  O7  1  0.50000000  0.15122300  0.27942800  1
  O  O8  1  0.00000000  0.19516700  0.85447800  1
  O  O9  1  0.00000000  0.22520400  0.09052500  1
  O  O10  1  0.00000000  0.27479600  0.59052500  1
  O  O11  1  0.00000000  0.30483300  0.35447800  1
  O  O12  1  0.50000000  0.34877700  0.77942800  1
  O  O13  1  0.50000000  0.34631200  0.00970200  1
  O  O14  1  0.00000000  0.39695800  0.25859200  1
  O  O15  1  0.50000000  0.40555200  0.16373500  1
  O  O16  1  0.50000000  0.45277300  0.66004000  1
  O  O17  1  0.50000000  0.47248900  0.44396300  1
  O  O18  1  0.00000000  0.50572600  0.07722400  1
  O  O19  1  0.00000000  0.49427400  0.92277600  1
  O  O20  1  0.50000000  0.52751100  0.55603700  1
  O  O21  1  0.50000000  0.54722700  0.33996000  1
  O  O22  1  0.50000000  0.59444800  0.83626500  1
  O  O23  1  0.00000000  0.60304200  0.74140800  1
  O  O24  1  0.50000000  0.65368800  0.99029800  1
  O  O25  1  0.50000000  0.65122300  0.22057200  1
  O  O26  1  0.00000000  0.69516700  0.64552200  1
  O  O27  1  0.00000000  0.72520400  0.40947500  1
  O  O28  1  0.00000000  0.77479600  0.90947500  1
  O  O29  1  0.00000000  0.80483300  0.14552200  1
  O  O30  1  0.50000000  0.84877700  0.72057200  1
  O  O31  1  0.50000000  0.84631200  0.49029800  1
  O  O32  1  0.00000000  0.89695800  0.24140800  1
  O  O33  1  0.50000000  0.90555200  0.33626500  1
  O  O34  1  0.50000000  0.95277300  0.83996000  1
  O  O35  1  0.50000000  0.97248900  0.05603700  1
loop_
_geom_bond_atom_site_label_1
_geom_bond_atom_site_label_2
_geom_bond_distance
_geom_bond_site_symmetry_2
Li0 O13 2.220565 1_555
Li0 O13 2.220565 1_455
Li0 O9 2.308008 1_555
Li0 O2 2.373906 1_454
Li0 O2 2.373906 1_554
Li1 O14 2.195601 1_555
Li1 O3 2.323962 1_455
Li1 O3 2.323962 1_555
Li1 O7 2.406253 1_455
Li1 O7 2.406253 1_555
Li1 O15 2.551780 1_455
Li1 O15 2.551780 1_555
Li2 O5 2.195601 1_555
Li2 O16 2.323962 1_455
Li2 O16 2.323962 1_555
Li2 O12 2.406253 1_455
Li2 O12 2.406253 1_555
Li2 O4 2.551780 1_455
Li2 O4 2.551780 1_555
Li3 O6 2.220565 1_555
Li3 O6 2.220565 1_455
Li3 O10 2.308008 1_555
Li3 O17 2.373906 1_455
Li3 O17 2.373906 1_555
Li4 O31 2.220565 1_555
Li4 O31 2.220565 1_455
Li4 O27 2.308008 1_555
Li4 O20 2.373906 1_555
Li4 O20 2.373906 1_455
Li5 O32 2.195601 1_555
Li5 O21 2.323962 1_455
Li5 O21 2.323962 1_555
Li5 O25 2.406253 1_555
Li5 O25 2.406253 1_455
Li5 O33 2.551780 1_455
Li5 O33 2.551780 1_555
Li6 O23 2.195601 1_555
Li6 O34 2.323962 1_555
Li6 O34 2.323962 1_455
Li6 O30 2.406253 1_455
Li6 O30 2.406253 1_555
Li6 O22 2.551780 1_455
Li6 O22 2.551780 1_555
Li7 O24 2.220565 1_455
Li7 O24 2.220565 1_555
Li7 O28 2.308008 1_555
Li7 O35 2.373906 1_456
Li7 O35 2.373906 1_556
Mn0 O1 1.929110 1_545
Mn0 O0 1.929110 1_555
Mn0 O6 2.027641 1_455
Mn0 O6 2.027641 1_555
Mn0 O31 2.027641 1_545
Mn0 O31 2.027641 1_445
Mn1 O35 1.935584 1_545
Mn1 O35 1.935584 1_445
Mn1 O9 1.998158 1_555
Mn1 O3 2.027426 1_555
Mn1 O3 2.027426 1_455
Mn1 O29 2.091204 1_545
Mn2 O33 1.965275 1_445
Mn2 O33 1.965275 1_545
Mn2 O7 1.965655 1_455
Mn2 O7 1.965655 1_555
Mn2 O32 2.100210 1_545
Mn3 O10 1.923699 1_655
Mn3 O10 1.923699 1_555
Mn3 O4 1.939885 1_555
Mn3 O6 1.949925 1_555
Mn3 O1 1.957585 1_545
Mn3 O1 1.957585 1_645
Mn4 O5 1.927353 1_555
Mn4 O5 1.927353 1_655
Mn4 O8 1.935547 1_555
Mn4 O8 1.935547 1_655
Mn4 O34 1.943938 1_545
Mn4 O12 1.944777 1_555
Mn5 O14 1.927353 1_655
Mn5 O14 1.927353 1_555
Mn5 O11 1.935547 1_555
Mn5 O11 1.935547 1_655
Mn5 O21 1.943938 1_555
Mn5 O7 1.944777 1_555
Mn6 O9 1.923699 1_555
Mn6 O9 1.923699 1_655
Mn6 O15 1.939885 1_555
Mn6 O13 1.949925 1_555
Mn6 O18 1.957585 1_655
Mn6 O18 1.957585 1_555
Mn7 O22 1.965275 1_455
Mn7 O22 1.965275 1_555
Mn7 O12 1.965655 1_455
Mn7 O12 1.965655 1_555
Mn7 O23 2.100210 1_555
Mn8 O20 1.935584 1_455
Mn8 O20 1.935584 1_555
Mn8 O10 1.998158 1_555
Mn8 O16 2.027426 1_455
Mn8 O16 2.027426 1_555
Mn8 O26 2.091204 1_555
Mn9 O19 1.929110 1_554
Mn9 O18 1.929110 1_555
Mn9 O13 2.027641 1_555
Mn9 O13 2.027641 1_455
Mn9 O24 2.027641 1_554
Mn9 O24 2.027641 1_454
Mn10 O17 1.935584 1_455
Mn10 O17 1.935584 1_555
Mn10 O27 1.998158 1_555
Mn10 O21 2.027426 1_455
Mn10 O21 2.027426 1_555
Mn10 O11 2.091204 1_555
Mn11 O15 1.965275 1_555
Mn11 O15 1.965275 1_455
Mn11 O25 1.965655 1_555
Mn11 O25 1.965655 1_455
Mn11 O14 2.100210 1_555
Mn12 O28 1.923699 1_655
Mn12 O28 1.923699 1_555
Mn12 O22 1.939885 1_555
Mn12 O24 1.949925 1_555
Mn12 O19 1.957585 1_555
Mn12 O19 1.957585 1_655
Mn13 O23 1.927353 1_655
Mn13 O23 1.927353 1_555
Mn13 O26 1.935547 1_555
Mn13 O26 1.935547 1_655
Mn13 O16 1.943938 1_555
Mn13 O30 1.944777 1_555
Mn14 O32 1.927353 1_655
Mn14 O32 1.927353 1_555
Mn14 O29 1.935547 1_555
Mn14 O29 1.935547 1_655
Mn14 O3 1.943938 1_565
Mn14 O25 1.944777 1_555
Mn15 O27 1.923699 1_555
Mn15 O27 1.923699 1_655
Mn15 O33 1.939885 1_555
Mn15 O31 1.949925 1_555
Mn15 O0 1.957585 1_665
Mn15 O0 1.957585 1_565
Mn16 O4 1.965275 1_565
Mn16 O4 1.965275 1_465
Mn16 O30 1.965655 1_455
Mn16 O30 1.965655 1_555
Mn16 O5 2.100210 1_565
Mn17 O2 1.935584 1_465
Mn17 O2 1.935584 1_565
Mn17 O28 1.998158 1_555
Mn17 O34 2.027426 1_555
Mn17 O34 2.027426 1_455
Mn17 O8 2.091204 1_565
