# generated using pymatgen
data_K2B2Se3O10
_symmetry_space_group_name_H-M   'P 1'
_cell_length_a   4.79700500
_cell_length_b   14.58849700
_cell_length_c   16.11141300
_cell_angle_alpha   90.00000000
_cell_angle_beta   90.00000000
_cell_angle_gamma   90.00000000
_symmetry_Int_Tables_number   1
_chemical_formula_structural   K2B2Se3O10
_chemical_formula_sum   'K8 B8 Se12 O40'
_cell_volume   1127.49429234
_cell_formula_units_Z   4
loop_
 _symmetry_equiv_pos_site_id
 _symmetry_equiv_pos_as_xyz
  1  'x, y, z'
loop_
 _atom_site_type_symbol
 _atom_site_label
 _atom_site_symmetry_multiplicity
 _atom_site_fract_x
 _atom_site_fract_y
 _atom_site_fract_z
 _atom_site_occupancy
  K  K0  1  0.23538700  0.13409200  0.45230000  1
  K  K1  1  0.26461300  0.63409200  0.04770000  1
  K  K2  1  0.76461300  0.86590800  0.95230000  1
  K  K3  1  0.73538700  0.36590800  0.54770000  1
  K  K4  1  0.76461300  0.86590800  0.54770000  1
  K  K5  1  0.73538700  0.36590800  0.95230000  1
  K  K6  1  0.23538700  0.13409200  0.04770000  1
  K  K7  1  0.26461300  0.63409200  0.45230000  1
  B  B0  1  0.73853800  0.99032200  0.33070700  1
  B  B1  1  0.76146200  0.49032200  0.16929300  1
  B  B2  1  0.26146200  0.00967800  0.83070700  1
  B  B3  1  0.23853800  0.50967800  0.66929300  1
  B  B4  1  0.26146200  0.00967800  0.66929300  1
  B  B5  1  0.23853800  0.50967800  0.83070700  1
  B  B6  1  0.73853800  0.99032200  0.16929300  1
  B  B7  1  0.76146200  0.49032200  0.33070700  1
  Se  Se0  1  0.23922700  0.88683400  0.35889700  1
  Se  Se1  1  0.26077300  0.38683400  0.14110300  1
  Se  Se2  1  0.76077300  0.11316600  0.85889700  1
  Se  Se3  1  0.73922700  0.61316600  0.64110300  1
  Se  Se4  1  0.76077300  0.11316600  0.64110300  1
  Se  Se5  1  0.73922700  0.61316600  0.85889700  1
  Se  Se6  1  0.23922700  0.88683400  0.14110300  1
  Se  Se7  1  0.26077300  0.38683400  0.35889700  1
  Se  Se8  1  0.76116900  0.16700100  0.25000000  1
  Se  Se9  1  0.73883100  0.66700100  0.25000000  1
  Se  Se10  1  0.23883100  0.83299900  0.75000000  1
  Se  Se11  1  0.26116900  0.33299900  0.75000000  1
  O  O0  1  0.30104300  0.82518000  0.44427800  1
  O  O1  1  0.19895700  0.32518000  0.05572200  1
  O  O2  1  0.69895700  0.17482000  0.94427800  1
  O  O3  1  0.80104300  0.67482000  0.55572200  1
  O  O4  1  0.69895700  0.17482000  0.55572200  1
  O  O5  1  0.80104300  0.67482000  0.94427800  1
  O  O6  1  0.30104300  0.82518000  0.05572200  1
  O  O7  1  0.19895700  0.32518000  0.44427800  1
  O  O8  1  0.92878200  0.94279000  0.39190400  1
  O  O9  1  0.57121800  0.44279000  0.10809600  1
  O  O10  1  0.07121800  0.05721000  0.89190400  1
  O  O11  1  0.42878200  0.55721000  0.60809600  1
  O  O12  1  0.07121800  0.05721000  0.60809600  1
  O  O13  1  0.42878200  0.55721000  0.89190400  1
  O  O14  1  0.92878200  0.94279000  0.10809600  1
  O  O15  1  0.57121800  0.44279000  0.39190400  1
  O  O16  1  0.45583300  0.98557500  0.37116000  1
  O  O17  1  0.04416700  0.48557500  0.12884000  1
  O  O18  1  0.54416700  0.01442500  0.87116000  1
  O  O19  1  0.95583300  0.51442500  0.62884000  1
  O  O20  1  0.54416700  0.01442500  0.62884000  1
  O  O21  1  0.95583300  0.51442500  0.87116000  1
  O  O22  1  0.45583300  0.98557500  0.12884000  1
  O  O23  1  0.04416700  0.48557500  0.37116000  1
  O  O24  1  0.81505500  0.09020300  0.33514200  1
  O  O25  1  0.68494500  0.59020300  0.16485800  1
  O  O26  1  0.18494500  0.90979700  0.83514200  1
  O  O27  1  0.31505500  0.40979700  0.66485800  1
  O  O28  1  0.18494500  0.90979700  0.66485800  1
  O  O29  1  0.31505500  0.40979700  0.83514200  1
  O  O30  1  0.81505500  0.09020300  0.16485800  1
  O  O31  1  0.68494500  0.59020300  0.33514200  1
  O  O32  1  0.42151800  0.19029100  0.25000000  1
  O  O33  1  0.07848200  0.69029100  0.25000000  1
  O  O34  1  0.57848200  0.80970900  0.75000000  1
  O  O35  1  0.92151800  0.30970900  0.75000000  1
  O  O36  1  0.75572800  0.94933900  0.25000000  1
  O  O37  1  0.74427200  0.44933900  0.25000000  1
  O  O38  1  0.24427200  0.05066100  0.75000000  1
  O  O39  1  0.25572800  0.55066100  0.75000000  1
loop_
_geom_bond_atom_site_label_1
_geom_bond_atom_site_label_2
_geom_bond_distance
_geom_bond_site_symmetry_2
K0 O16 2.742549 1_545
K0 O7 2.796148 1_555
K0 O24 2.835228 1_455
K0 O4 2.841575 1_555
K0 O12 2.859848 1_555
K0 O4 3.122683 1_455
K1 O17 2.742549 1_555
K1 O6 2.796148 1_555
K1 O25 2.835228 1_555
K1 O5 2.841575 1_454
K1 O13 2.859848 1_554
K1 O5 3.122683 1_554
K2 O18 2.742549 1_565
K2 O5 2.796148 1_555
K2 O26 2.835228 1_655
K2 O6 2.841575 1_556
K2 O14 2.859848 1_556
K2 O6 3.122683 1_656
K3 O19 2.742549 1_555
K3 O4 2.796148 1_555
K3 O27 2.835228 1_555
K3 O7 2.841575 1_655
K3 O15 2.859848 1_555
K3 O7 3.122683 1_555
K4 O20 2.742549 1_565
K4 O3 2.796148 1_555
K4 O28 2.835228 1_655
K4 O0 2.841575 1_555
K4 O8 2.859848 1_555
K4 O0 3.122683 1_655
K5 O21 2.742549 1_555
K5 O2 2.796148 1_555
K5 O29 2.835228 1_555
K5 O1 2.841575 1_656
K5 O9 2.859848 1_556
K5 O1 3.122683 1_556
K6 O22 2.742549 1_545
K6 O1 2.796148 1_555
K6 O30 2.835228 1_455
K6 O2 2.841575 1_554
K6 O10 2.859848 1_554
K6 O2 3.122683 1_454
K7 O23 2.742549 1_555
K7 O0 2.796148 1_555
K7 O31 2.835228 1_555
K7 O3 2.841575 1_455
K7 O11 2.859848 1_555
K7 O3 3.122683 1_555
B0 O36 1.433545 1_555
B0 O24 1.504332 1_565
B0 O16 1.506217 1_555
B0 O8 1.511890 1_555
B1 O37 1.433545 1_555
B1 O25 1.504332 1_555
B1 O17 1.506217 1_655
B1 O9 1.511890 1_555
B2 O38 1.433545 1_555
B2 O26 1.504332 1_545
B2 O18 1.506217 1_555
B2 O10 1.511890 1_555
B3 O39 1.433545 1_555
B3 O27 1.504332 1_555
B3 O19 1.506217 1_455
B3 O11 1.511890 1_555
B4 O38 1.433545 1_555
B4 O28 1.504332 1_545
B4 O20 1.506217 1_555
B4 O12 1.511890 1_555
B5 O39 1.433545 1_555
B5 O29 1.504332 1_555
B5 O21 1.506217 1_455
B5 O13 1.511890 1_555
B6 O36 1.433545 1_555
B6 O30 1.504332 1_565
B6 O22 1.506217 1_555
B6 O14 1.511890 1_555
B7 O37 1.433545 1_555
B7 O31 1.504332 1_555
B7 O23 1.506217 1_655
B7 O15 1.511890 1_555
O0 Se0 1.670096 1_555
O1 Se1 1.670096 1_555
O2 Se2 1.670096 1_555
O3 Se3 1.670096 1_555
O4 Se4 1.670096 1_555
O5 Se5 1.670096 1_555
O6 Se6 1.670096 1_555
O7 Se7 1.670096 1_555
O8 Se0 1.779580 1_655
O9 Se1 1.779580 1_555
O10 Se2 1.779580 1_455
O11 Se3 1.779580 1_555
O12 Se4 1.779580 1_455
O13 Se5 1.779580 1_555
O14 Se6 1.779580 1_655
O15 Se7 1.779580 1_555
O16 Se0 1.787085 1_555
O17 Se1 1.787085 1_555
O18 Se2 1.787085 1_555
O19 Se3 1.787085 1_555
O20 Se4 1.787085 1_555
O21 Se5 1.787085 1_555
O22 Se6 1.787085 1_555
O23 Se7 1.787085 1_555
O24 Se8 1.789905 1_555
O25 Se9 1.789905 1_555
O26 Se10 1.789905 1_555
O27 Se11 1.789905 1_555
O28 Se10 1.789905 1_555
O29 Se11 1.789905 1_555
O30 Se8 1.789905 1_555
O31 Se9 1.789905 1_555
O32 Se8 1.664357 1_555
O33 Se9 1.664357 1_455
O34 Se10 1.664357 1_555
O35 Se11 1.664357 1_655
