# generated using pymatgen
data_Li9Mn2Co5O16
_symmetry_space_group_name_H-M   'P 1'
_cell_length_a   2.88789900
_cell_length_b   5.19886100
_cell_length_c   19.43169686
_cell_angle_alpha   83.28172757
_cell_angle_beta   90.00000000
_cell_angle_gamma   90.00000000
_symmetry_Int_Tables_number   1
_chemical_formula_structural   Li9Mn2Co5O16
_chemical_formula_sum   'Li9 Mn2 Co5 O16'
_cell_volume   289.74004093
_cell_formula_units_Z   1
loop_
 _symmetry_equiv_pos_site_id
 _symmetry_equiv_pos_as_xyz
  1  'x, y, z'
loop_
 _atom_site_type_symbol
 _atom_site_label
 _atom_site_symmetry_multiplicity
 _atom_site_fract_x
 _atom_site_fract_y
 _atom_site_fract_z
 _atom_site_occupancy
  Li  Li0  1  0.50000000  0.86824900  0.87538800  1
  Li  Li1  1  0.50000000  0.61616400  0.61780600  1
  Li  Li2  1  0.50000000  0.38396100  0.37867800  1
  Li  Li3  1  0.50000000  0.13642200  0.12827700  1
  Li  Li4  1  0.00000000  0.38224100  0.87425800  1
  Li  Li5  1  0.00000000  0.11915700  0.62094400  1
  Li  Li6  1  0.00000000  0.87394800  0.37609000  1
  Li  Li7  1  0.00000000  0.62218000  0.12739900  1
  Li  Li8  1  0.50000000  0.99851500  0.49943800  1
  Mn  Mn0  1  0.00000000  0.00276200  0.00048200  1
  Mn  Mn1  1  0.00000000  0.74804700  0.74705200  1
  Co  Co0  1  0.00000000  0.49917400  0.49967400  1
  Co  Co1  1  0.00000000  0.25038600  0.25268000  1
  Co  Co2  1  0.50000000  0.50091200  0.00036500  1
  Co  Co3  1  0.50000000  0.24642500  0.74950200  1
  Co  Co4  1  0.50000000  0.75051100  0.25096800  1
  O  O0  1  0.50000000  0.17638000  0.94356100  1
  O  O1  1  0.50000000  0.91294100  0.68896500  1
  O  O2  1  0.50000000  0.66846300  0.44509200  1
  O  O3  1  0.50000000  0.43696700  0.19368800  1
  O  O4  1  0.00000000  0.66914100  0.93955100  1
  O  O5  1  0.00000000  0.40369300  0.69318200  1
  O  O6  1  0.00000000  0.24026200  0.44717800  1
  O  O7  1  0.00000000  0.93841400  0.19387800  1
  O  O8  1  0.50000000  0.58611300  0.80560000  1
  O  O9  1  0.50000000  0.33102100  0.55504500  1
  O  O10  1  0.50000000  0.06206900  0.31144300  1
  O  O11  1  0.50000000  0.82472300  0.05651800  1
  O  O12  1  0.00000000  0.08714000  0.80616000  1
  O  O13  1  0.00000000  0.76123900  0.55311700  1
  O  O14  1  0.00000000  0.56795900  0.30791800  1
  O  O15  1  0.00000000  0.33442000  0.06010400  1
loop_
_geom_bond_atom_site_label_1
_geom_bond_atom_site_label_2
_geom_bond_distance
_geom_bond_site_symmetry_2
Li0 O4 2.099768 1_555
Li0 O4 2.099768 1_655
Li0 O8 2.110893 1_555
Li0 O0 2.194897 1_565
Li0 O12 2.198052 1_665
Li0 O12 2.198052 1_565
Li1 O13 2.003026 1_655
Li1 O13 2.003026 1_555
Li1 O9 2.026789 1_555
Li1 O1 2.188992 1_555
Li1 O5 2.252087 1_555
Li1 O5 2.252087 1_655
Li2 O6 2.045040 1_655
Li2 O6 2.045040 1_555
Li2 O2 2.073595 1_555
Li2 O14 2.140766 1_655
Li2 O14 2.140766 1_555
Li2 O10 2.240308 1_555
Li3 O7 2.112490 1_545
Li3 O7 2.112490 1_645
Li3 O3 2.126409 1_555
Li3 O15 2.140188 1_555
Li3 O15 2.140188 1_655
Li3 O11 2.258095 1_545
Li4 O4 2.068150 1_555
Li4 O12 2.140036 1_555
Li4 O8 2.158115 1_555
Li4 O8 2.158115 1_455
Li4 O0 2.169498 1_455
Li4 O0 2.169498 1_555
Li5 O9 2.146610 1_555
Li5 O9 2.146610 1_455
Li5 O5 2.155099 1_555
Li5 O1 2.156355 1_545
Li5 O1 2.156355 1_445
Li5 O13 2.402785 1_545
Li6 O10 2.081366 1_565
Li6 O10 2.081366 1_465
Li6 O2 2.165387 1_555
Li6 O2 2.165387 1_455
Li6 O14 2.185980 1_555
Li6 O6 2.480014 1_565
Li7 O3 2.093127 1_455
Li7 O3 2.093127 1_555
Li7 O15 2.098994 1_555
Li7 O11 2.179795 1_455
Li7 O11 2.179795 1_555
Li7 O7 2.206487 1_555
Li8 O13 2.096097 1_655
Li8 O13 2.096097 1_555
Li8 O6 2.096946 1_565
Li8 O6 2.096946 1_665
Li8 O2 2.117422 1_555
Li8 O9 2.143091 1_565
Mn0 O0 1.972184 1_554
Mn0 O0 1.972184 1_454
Mn0 O11 1.972703 1_545
Mn0 O11 1.972703 1_445
Mn0 O15 2.186931 1_555
Mn0 O4 2.211479 1_544
Mn1 O8 1.965699 1_555
Mn1 O8 1.965699 1_455
Mn1 O1 1.966601 1_455
Mn1 O1 1.966601 1_555
Mn1 O5 2.176975 1_555
Mn1 O12 2.213769 1_565
Co0 O6 1.781485 1_555
Co0 O13 1.807137 1_555
Co0 O2 1.940643 1_555
Co0 O2 1.940643 1_455
Co0 O9 1.945975 1_455
Co0 O9 1.945975 1_555
Co1 O3 2.019846 1_455
Co1 O3 2.019846 1_555
Co1 O10 2.021333 1_555
Co1 O10 2.021333 1_455
Co1 O14 2.071863 1_555
Co1 O7 2.090395 1_545
Co2 O15 1.986613 1_555
Co2 O15 1.986613 1_655
Co2 O4 2.001138 1_654
Co2 O4 2.001138 1_554
Co2 O11 2.110542 1_555
Co2 O0 2.121495 1_554
Co3 O5 1.934379 1_555
Co3 O5 1.934379 1_655
Co3 O12 1.941530 1_655
Co3 O12 1.941530 1_555
Co3 O8 2.181150 1_555
Co3 O1 2.206081 1_545
Co4 O14 1.991134 1_555
Co4 O14 1.991134 1_655
Co4 O7 2.004095 1_655
Co4 O7 2.004095 1_555
Co4 O3 2.078586 1_555
Co4 O10 2.109471 1_565
