# generated using pymatgen
data_PrErCo17
_symmetry_space_group_name_H-M   'P 1'
_cell_length_a   6.29295020
_cell_length_b   6.29295020
_cell_length_c   6.29295074
_cell_angle_alpha   83.27142097
_cell_angle_beta   83.27142097
_cell_angle_gamma   83.27142630
_symmetry_Int_Tables_number   1
_chemical_formula_structural   PrErCo17
_chemical_formula_sum   'Pr1 Er1 Co17'
_cell_volume   244.43194023
_cell_formula_units_Z   1
loop_
 _symmetry_equiv_pos_site_id
 _symmetry_equiv_pos_as_xyz
  1  'x, y, z'
loop_
 _atom_site_type_symbol
 _atom_site_label
 _atom_site_symmetry_multiplicity
 _atom_site_fract_x
 _atom_site_fract_y
 _atom_site_fract_z
 _atom_site_occupancy
  Pr  Pr0  1  0.65337900  0.65337900  0.65337900  1
  Er  Er0  1  0.34263600  0.34263600  0.34263600  1
  Co  Co0  1  0.28582700  0.00182100  0.71365000  1
  Co  Co1  1  0.00182100  0.71365000  0.28582700  1
  Co  Co2  1  0.71365000  0.28582700  0.00182100  1
  Co  Co3  1  0.00182100  0.28582700  0.71365000  1
  Co  Co4  1  0.28582700  0.71365000  0.00182100  1
  Co  Co5  1  0.71365000  0.00182100  0.28582700  1
  Co  Co6  1  0.65358400  0.15053700  0.65358400  1
  Co  Co7  1  0.15053700  0.65358400  0.65358400  1
  Co  Co8  1  0.65358400  0.65358400  0.15053700  1
  Co  Co9  1  0.34340600  0.85109200  0.34340600  1
  Co  Co10  1  0.85109200  0.34340600  0.34340600  1
  Co  Co11  1  0.34340600  0.34340600  0.85109200  1
  Co  Co12  1  0.00238800  0.49867000  0.00238800  1
  Co  Co13  1  0.49867000  0.00238800  0.00238800  1
  Co  Co14  1  0.00238800  0.00238800  0.49867000  1
  Co  Co15  1  0.09776200  0.09776200  0.09776200  1
  Co  Co16  1  0.90457200  0.90457200  0.90457200  1
loop_
_geom_bond_atom_site_label_1
_geom_bond_atom_site_label_2
_geom_bond_distance
_geom_bond_site_symmetry_2
Er0 Pr0 3.762983 1_555
Co0 Co14 2.361047 1_555
Co0 Co3 2.374851 1_555
Co0 Co13 2.380864 1_556
Co0 Co4 2.409678 1_546
Co0 Co11 2.488309 1_555
Co0 Co7 2.525240 1_545
Co0 Co6 2.567924 1_555
Co0 Co9 2.588256 1_545
Co0 Co16 2.659055 1_445
Co0 Co15 2.666868 1_556
Co0 Er0 2.998252 1_555
Co0 Pr0 3.017061 1_545
Co1 Co12 2.361047 1_555
Co1 Co4 2.374851 1_555
Co1 Co14 2.380864 1_565
Co1 Co5 2.409678 1_465
Co1 Co9 2.488309 1_555
Co1 Co8 2.525240 1_455
Co1 Co7 2.567925 1_555
Co1 Co10 2.588256 1_455
Co1 Co16 2.659055 1_454
Co1 Co15 2.666867 1_565
Co1 Er0 2.998252 1_555
Co1 Pr0 3.017061 1_455
Co2 Co5 2.374851 1_555
Co2 Co3 2.409678 1_654
Co2 Co6 2.525240 1_554
Co2 Co8 2.567924 1_555
Co2 Er0 2.998252 1_555
Co2 Pr0 3.017061 1_554
Co3 Co6 2.525240 1_455
Co3 Co7 2.567924 1_555
Co3 Er0 2.998252 1_555
Co3 Pr0 3.017061 1_455
Co4 Co9 2.488309 1_555
Co4 Co7 2.525240 1_554
Co4 Co8 2.567924 1_555
Co4 Er0 2.998252 1_555
Co4 Pr0 3.017061 1_554
Co5 Co8 2.525240 1_545
Co5 Co6 2.567925 1_555
Co5 Co9 2.588256 1_545
Co5 Er0 2.998252 1_555
Co5 Pr0 3.017061 1_545
Co6 Er0 2.984624 1_555
Co6 Pr0 3.128893 1_545
Co6 Pr0 3.164058 1_555
Co7 Co9 2.461262 1_555
Co7 Er0 2.984624 1_555
Co7 Pr0 3.128893 1_455
Co7 Pr0 3.164058 1_555
Co8 Co9 2.461262 1_555
Co8 Er0 2.984623 1_555
Co8 Pr0 3.128894 1_554
Co8 Pr0 3.164058 1_555
Co9 Pr0 2.985340 1_555
Co9 Er0 3.092135 1_565
Co9 Er0 3.200832 1_555
Co10 Co14 2.390474 1_655
Co10 Co12 2.390474 1_655
Co10 Co6 2.461262 1_555
Co10 Co8 2.461262 1_555
Co10 Co5 2.488309 1_555
Co10 Co2 2.488309 1_555
Co10 Co15 2.573733 1_655
Co10 Co3 2.588256 1_655
Co10 Pr0 2.985340 1_555
Co10 Er0 3.092135 1_655
Co10 Er0 3.200832 1_555
Co11 Co12 2.390474 1_556
Co11 Co13 2.390474 1_556
Co11 Co7 2.461262 1_555
Co11 Co6 2.461262 1_555
Co11 Co3 2.488309 1_555
Co11 Co15 2.573733 1_556
Co11 Co4 2.588256 1_556
Co11 Co2 2.588256 1_556
Co11 Pr0 2.985339 1_555
Co11 Er0 3.092135 1_556
Co11 Er0 3.200832 1_555
Co12 Co4 2.361047 1_555
Co12 Co2 2.380864 1_455
Co12 Co3 2.380864 1_554
Co12 Co8 2.422725 1_455
Co12 Co7 2.422725 1_554
Co12 Co15 2.541691 1_555
Co12 Co16 2.575706 1_454
Co12 Er0 3.197233 1_555
Co12 Pr0 3.274677 1_454
Co13 Co2 2.361047 1_555
Co13 Co5 2.361047 1_555
Co13 Co4 2.380864 1_545
Co13 Co9 2.390474 1_545
Co13 Co8 2.422725 1_545
Co13 Co6 2.422725 1_554
Co13 Co15 2.541691 1_555
Co13 Co16 2.575706 1_544
Co13 Er0 3.197233 1_555
Co13 Pr0 3.274677 1_544
Co14 Co3 2.361047 1_555
Co14 Co5 2.380864 1_455
Co14 Co9 2.390474 1_545
Co14 Co7 2.422725 1_545
Co14 Co6 2.422725 1_455
Co14 Co15 2.541692 1_555
Co14 Co16 2.575707 1_445
Co14 Er0 3.197233 1_555
Co14 Pr0 3.274677 1_445
Co15 Co16 2.339460 1_444
Co15 Co9 2.573733 1_545
Co15 Co5 2.666867 1_455
Co15 Co2 2.666867 1_455
Co15 Co4 2.666867 1_545
Co15 Co3 2.666868 1_554
Co15 Er0 2.965334 1_555
Co16 Co8 2.612278 1_556
Co16 Co7 2.612278 1_655
Co16 Co6 2.612278 1_565
Co16 Co3 2.659055 1_665
Co16 Co4 2.659055 1_656
Co16 Co2 2.659055 1_566
Co16 Co5 2.659055 1_566
Co16 Pr0 3.041855 1_555
