# generated using pymatgen
data_Y2Mg
_symmetry_space_group_name_H-M   'P 1'
_cell_length_a   13.15850242
_cell_length_b   13.15850242
_cell_length_c   16.13671839
_cell_angle_alpha   75.56341340
_cell_angle_beta   75.56341340
_cell_angle_gamma   31.59570746
_symmetry_Int_Tables_number   1
_chemical_formula_structural   Y2Mg
_chemical_formula_sum   'Y32 Mg16'
_cell_volume   1413.85671201
_cell_formula_units_Z   16
loop_
 _symmetry_equiv_pos_site_id
 _symmetry_equiv_pos_as_xyz
  1  'x, y, z'
loop_
 _atom_site_type_symbol
 _atom_site_label
 _atom_site_symmetry_multiplicity
 _atom_site_fract_x
 _atom_site_fract_y
 _atom_site_fract_z
 _atom_site_occupancy
  Y  Y0_0  1  0.41180150  0.41180150  0.06210250  1
  Y  Y0_1  1  0.41180150  0.41180150  0.56210250  1
  Y  Y0_2  1  0.41180150  0.91180150  0.06210250  1
  Y  Y0_3  1  0.41180150  0.91180150  0.56210250  1
  Y  Y0_4  1  0.91180150  0.41180150  0.06210250  1
  Y  Y0_5  1  0.91180150  0.41180150  0.56210250  1
  Y  Y0_6  1  0.91180150  0.91180150  0.06210250  1
  Y  Y0_7  1  0.91180150  0.91180150  0.56210250  1
  Y  Y1_0  1  0.06981950  0.06981950  0.23026550  1
  Y  Y1_1  1  0.06981950  0.06981950  0.73026550  1
  Y  Y1_2  1  0.06981950  0.56981950  0.23026550  1
  Y  Y1_3  1  0.06981950  0.56981950  0.73026550  1
  Y  Y1_4  1  0.56981950  0.06981950  0.23026550  1
  Y  Y1_5  1  0.56981950  0.06981950  0.73026550  1
  Y  Y1_6  1  0.56981950  0.56981950  0.23026550  1
  Y  Y1_7  1  0.56981950  0.56981950  0.73026550  1
  Y  Y2_0  1  0.43018050  0.43018050  0.26973450  1
  Y  Y2_1  1  0.43018050  0.43018050  0.76973450  1
  Y  Y2_2  1  0.43018050  0.93018050  0.26973450  1
  Y  Y2_3  1  0.43018050  0.93018050  0.76973450  1
  Y  Y2_4  1  0.93018050  0.43018050  0.26973450  1
  Y  Y2_5  1  0.93018050  0.43018050  0.76973450  1
  Y  Y2_6  1  0.93018050  0.93018050  0.26973450  1
  Y  Y2_7  1  0.93018050  0.93018050  0.76973450  1
  Y  Y3_0  1  0.08819850  0.08819850  0.43789750  1
  Y  Y3_1  1  0.08819850  0.08819850  0.93789750  1
  Y  Y3_2  1  0.08819850  0.58819850  0.43789750  1
  Y  Y3_3  1  0.08819850  0.58819850  0.93789750  1
  Y  Y3_4  1  0.58819850  0.08819850  0.43789750  1
  Y  Y3_5  1  0.58819850  0.08819850  0.93789750  1
  Y  Y3_6  1  0.58819850  0.58819850  0.43789750  1
  Y  Y3_7  1  0.58819850  0.58819850  0.93789750  1
  Mg  Mg0_0  1  0.26408700  0.26408700  0.10183350  1
  Mg  Mg0_1  1  0.26408700  0.26408700  0.60183350  1
  Mg  Mg0_2  1  0.26408700  0.76408700  0.10183350  1
  Mg  Mg0_3  1  0.26408700  0.76408700  0.60183350  1
  Mg  Mg0_4  1  0.76408700  0.26408700  0.10183350  1
  Mg  Mg0_5  1  0.76408700  0.26408700  0.60183350  1
  Mg  Mg0_6  1  0.76408700  0.76408700  0.10183350  1
  Mg  Mg0_7  1  0.76408700  0.76408700  0.60183350  1
  Mg  Mg1_0  1  0.23591300  0.23591300  0.39816650  1
  Mg  Mg1_1  1  0.23591300  0.23591300  0.89816650  1
  Mg  Mg1_2  1  0.23591300  0.73591300  0.39816650  1
  Mg  Mg1_3  1  0.23591300  0.73591300  0.89816650  1
  Mg  Mg1_4  1  0.73591300  0.23591300  0.39816650  1
  Mg  Mg1_5  1  0.73591300  0.23591300  0.89816650  1
  Mg  Mg1_6  1  0.73591300  0.73591300  0.39816650  1
  Mg  Mg1_7  1  0.73591300  0.73591300  0.89816650  1
loop_
_geom_bond_atom_site_label_1
_geom_bond_atom_site_label_2
_geom_bond_distance
_geom_bond_site_symmetry_2
Y0_0 Y2_0 3.500071 1_555
Y0_0 Y3_5 3.554577 1_554
Y0_0 Y3_3 3.554577 1_554
Y0_0 Y1_4 3.566794 1_555
Y0_0 Y1_2 3.566794 1_555
Y0_0 Y0_6 3.582326 1_545
Y0_0 Y0_6 3.582326 1_455
Y0_1 Y2_1 3.500071 1_555
Y0_1 Y3_4 3.554577 1_555
Y0_1 Y3_2 3.554577 1_555
Y0_1 Y1_5 3.566794 1_555
Y0_1 Y1_3 3.566794 1_555
Y0_1 Y0_7 3.582326 1_545
Y0_1 Y0_7 3.582326 1_455
Y0_2 Y2_2 3.500071 1_555
Y0_2 Y3_1 3.554577 1_564
Y0_2 Y3_7 3.554577 1_554
Y0_2 Y1_6 3.566794 1_555
Y0_2 Y1_0 3.566794 1_565
Y0_2 Y0_4 3.582326 1_555
Y0_2 Y0_4 3.582326 1_465
Y0_3 Y2_3 3.500071 1_555
Y0_3 Y3_6 3.554577 1_555
Y0_3 Y3_0 3.554577 1_565
Y0_3 Y1_7 3.566794 1_555
Y0_3 Y1_1 3.566794 1_565
Y0_3 Y0_5 3.582326 1_555
Y0_3 Y0_5 3.582326 1_465
Y0_4 Y2_4 3.500071 1_555
Y0_4 Y3_1 3.554577 1_654
Y0_4 Y3_7 3.554577 1_554
Y0_4 Y1_6 3.566794 1_555
Y0_4 Y1_0 3.566794 1_655
Y0_5 Y2_5 3.500071 1_555
Y0_5 Y3_6 3.554577 1_555
Y0_5 Y3_0 3.554577 1_655
Y0_5 Y1_7 3.566794 1_555
Y0_5 Y1_1 3.566794 1_655
Y0_6 Y2_6 3.500071 1_555
Y0_6 Y3_5 3.554577 1_564
Y0_6 Y3_3 3.554577 1_654
Y0_6 Y1_2 3.566794 1_655
Y0_6 Y1_4 3.566794 1_565
Y0_7 Y2_7 3.500071 1_555
Y0_7 Y3_4 3.554577 1_565
Y0_7 Y3_2 3.554577 1_655
Y0_7 Y1_3 3.566794 1_655
Y0_7 Y1_5 3.566794 1_565
Y1_0 Y2_6 3.426723 1_445
Y1_0 Y3_0 3.500071 1_555
Y1_0 Y2_2 3.513746 1_545
Y1_0 Y2_4 3.513746 1_455
Y1_0 Y1_6 3.582326 1_455
Y1_0 Y1_6 3.582326 1_545
Y1_1 Y2_7 3.426723 1_445
Y1_1 Y3_1 3.500071 1_555
Y1_1 Y2_3 3.513746 1_545
Y1_1 Y2_5 3.513746 1_455
Y1_1 Y1_7 3.582326 1_545
Y1_1 Y1_7 3.582326 1_455
Y1_2 Y2_4 3.426723 1_455
Y1_2 Y3_2 3.500071 1_555
Y1_2 Y2_6 3.513746 1_455
Y1_2 Y2_0 3.513746 1_555
Y1_2 Y1_4 3.582326 1_465
Y1_2 Y1_4 3.582326 1_555
Y1_3 Y2_5 3.426723 1_455
Y1_3 Y3_3 3.500071 1_555
Y1_3 Y2_7 3.513746 1_455
Y1_3 Y2_1 3.513746 1_555
Y1_3 Y1_5 3.582326 1_555
Y1_3 Y1_5 3.582326 1_465
Y1_4 Y2_2 3.426723 1_545
Y1_4 Y3_4 3.500071 1_555
Y1_4 Y2_6 3.513746 1_545
Y1_4 Y2_0 3.513746 1_555
Y1_5 Y2_3 3.426723 1_545
Y1_5 Y3_5 3.500071 1_555
Y1_5 Y2_1 3.513746 1_555
Y1_5 Y2_7 3.513746 1_545
Y1_6 Y2_0 3.426723 1_555
Y1_6 Y3_6 3.500071 1_555
Y1_6 Y2_2 3.513746 1_555
Y1_6 Y2_4 3.513746 1_555
Y1_7 Y2_1 3.426723 1_555
Y1_7 Y3_7 3.500071 1_555
Y1_7 Y2_3 3.513746 1_555
Y1_7 Y2_5 3.513746 1_555
Y2_0 Y3_4 3.566794 1_555
Y2_0 Y3_2 3.566794 1_555
Y2_0 Y2_6 3.582326 1_455
Y2_0 Y2_6 3.582326 1_545
Y2_1 Y3_5 3.566794 1_555
Y2_1 Y3_3 3.566794 1_555
Y2_1 Y2_7 3.582326 1_455
Y2_1 Y2_7 3.582326 1_545
Y2_2 Y3_6 3.566794 1_555
Y2_2 Y3_0 3.566794 1_565
Y2_2 Y2_4 3.582326 1_555
Y2_2 Y2_4 3.582326 1_465
Y2_3 Y3_1 3.566794 1_565
Y2_3 Y3_7 3.566794 1_555
Y2_3 Y2_5 3.582326 1_555
Y2_3 Y2_5 3.582326 1_465
Y2_4 Y3_6 3.566794 1_555
Y2_4 Y3_0 3.566794 1_655
Y2_5 Y3_1 3.566794 1_655
Y2_5 Y3_7 3.566794 1_555
Y2_6 Y3_4 3.566794 1_565
Y2_6 Y3_2 3.566794 1_655
Y2_7 Y3_5 3.566794 1_565
Y2_7 Y3_3 3.566794 1_655
Y3_0 Y3_6 3.582326 1_455
Y3_0 Y3_6 3.582326 1_545
Y3_1 Y3_7 3.582326 1_545
Y3_1 Y3_7 3.582326 1_455
Y3_2 Y3_4 3.582326 1_465
Y3_2 Y3_4 3.582326 1_555
Y3_3 Y3_5 3.582326 1_555
Y3_3 Y3_5 3.582326 1_465
Mg0_0 Y1_4 3.318261 1_555
Mg0_0 Y1_2 3.318261 1_555
Mg0_0 Y3_3 3.340030 1_554
Mg0_0 Y3_5 3.340030 1_554
Mg0_0 Y0_4 3.344970 1_455
Mg0_0 Y0_2 3.344970 1_545
Mg0_0 Y2_4 3.475697 1_455
Mg0_0 Y2_2 3.475697 1_545
Mg0_0 Y0_0 3.627697 1_555
Mg0_1 Y1_3 3.318261 1_555
Mg0_1 Y1_5 3.318261 1_555
Mg0_1 Y3_2 3.340030 1_555
Mg0_1 Y3_4 3.340030 1_555
Mg0_1 Y0_5 3.344970 1_455
Mg0_1 Y0_3 3.344970 1_545
Mg0_1 Y2_5 3.475697 1_455
Mg0_1 Y2_3 3.475697 1_545
Mg0_1 Y0_1 3.627697 1_555
Mg0_2 Y1_6 3.318261 1_555
Mg0_2 Y1_0 3.318261 1_565
Mg0_2 Y3_7 3.340030 1_554
Mg0_2 Y3_1 3.340030 1_564
Mg0_2 Y0_0 3.344970 1_555
Mg0_2 Y0_6 3.344970 1_455
Mg0_2 Y2_0 3.475697 1_555
Mg0_2 Y2_6 3.475697 1_455
Mg0_2 Y0_2 3.627697 1_555
Mg0_3 Y1_1 3.318261 1_565
Mg0_3 Y1_7 3.318261 1_555
Mg0_3 Y3_0 3.340030 1_565
Mg0_3 Y3_6 3.340030 1_555
Mg0_3 Y0_1 3.344970 1_555
Mg0_3 Y0_7 3.344970 1_455
Mg0_3 Y2_1 3.475697 1_555
Mg0_3 Y2_7 3.475697 1_455
Mg0_3 Y0_3 3.627697 1_555
Mg0_4 Y1_6 3.318261 1_555
Mg0_4 Y1_0 3.318261 1_655
Mg0_4 Y3_7 3.340030 1_554
Mg0_4 Y3_1 3.340030 1_654
Mg0_4 Y0_0 3.344970 1_555
Mg0_4 Y0_6 3.344970 1_545
Mg0_4 Y2_0 3.475697 1_555
Mg0_4 Y2_6 3.475697 1_545
Mg0_4 Y0_4 3.627697 1_555
Mg0_5 Y1_1 3.318261 1_655
Mg0_5 Y1_7 3.318261 1_555
Mg0_5 Y3_0 3.340030 1_655
Mg0_5 Y3_6 3.340030 1_555
Mg0_5 Y0_1 3.344970 1_555
Mg0_5 Y0_7 3.344970 1_545
Mg0_5 Y2_1 3.475697 1_555
Mg0_5 Y2_7 3.475697 1_545
Mg0_5 Y0_5 3.627697 1_555
Mg0_6 Y1_2 3.318261 1_655
Mg0_6 Y1_4 3.318261 1_565
Mg0_6 Y3_3 3.340030 1_654
Mg0_6 Y3_5 3.340030 1_564
Mg0_6 Y0_4 3.344970 1_555
Mg0_6 Y0_2 3.344970 1_555
Mg0_6 Y2_4 3.475697 1_555
Mg0_6 Y2_2 3.475697 1_555
Mg0_6 Y0_6 3.627697 1_555
Mg0_7 Y1_5 3.318261 1_565
Mg0_7 Y1_3 3.318261 1_655
Mg0_7 Y3_2 3.340030 1_655
Mg0_7 Y3_4 3.340030 1_565
Mg0_7 Y0_5 3.344970 1_555
Mg0_7 Y0_3 3.344970 1_555
Mg0_7 Y2_5 3.475697 1_555
Mg0_7 Y2_3 3.475697 1_555
Mg0_7 Y0_7 3.627697 1_555
Mg1_0 Y2_4 3.318261 1_455
Mg1_0 Y2_2 3.318261 1_545
Mg1_0 Y0_5 3.340030 1_455
Mg1_0 Y0_3 3.340030 1_545
Mg1_0 Y3_2 3.344970 1_555
Mg1_0 Y3_4 3.344970 1_555
Mg1_0 Y1_4 3.475697 1_555
Mg1_0 Y1_2 3.475697 1_555
Mg1_0 Y3_0 3.627697 1_555
Mg1_1 Y2_5 3.318261 1_455
Mg1_1 Y2_3 3.318261 1_545
Mg1_1 Y0_4 3.340030 1_456
Mg1_1 Y0_2 3.340030 1_546
Mg1_1 Y3_3 3.344970 1_555
Mg1_1 Y3_5 3.344970 1_555
Mg1_1 Y1_3 3.475697 1_555
Mg1_1 Y1_5 3.475697 1_555
Mg1_1 Y3_1 3.627697 1_555
Mg1_2 Y2_0 3.318261 1_555
Mg1_2 Y2_6 3.318261 1_455
Mg1_2 Y0_1 3.340030 1_555
Mg1_2 Y0_7 3.340030 1_455
Mg1_2 Y3_0 3.344970 1_565
Mg1_2 Y3_6 3.344970 1_555
Mg1_2 Y1_6 3.475697 1_555
Mg1_2 Y1_0 3.475697 1_565
Mg1_2 Y3_2 3.627697 1_555
Mg1_3 Y2_1 3.318261 1_555
Mg1_3 Y2_7 3.318261 1_455
Mg1_3 Y0_0 3.340030 1_556
Mg1_3 Y0_6 3.340030 1_456
Mg1_3 Y3_7 3.344970 1_555
Mg1_3 Y3_1 3.344970 1_565
Mg1_3 Y1_1 3.475697 1_565
Mg1_3 Y1_7 3.475697 1_555
Mg1_3 Y3_3 3.627697 1_555
Mg1_4 Y2_0 3.318261 1_555
Mg1_4 Y2_6 3.318261 1_545
Mg1_4 Y0_1 3.340030 1_555
Mg1_4 Y0_7 3.340030 1_545
Mg1_4 Y3_0 3.344970 1_655
Mg1_4 Y3_6 3.344970 1_555
Mg1_4 Y1_6 3.475697 1_555
Mg1_4 Y1_0 3.475697 1_655
Mg1_4 Y3_4 3.627697 1_555
Mg1_5 Y2_1 3.318261 1_555
Mg1_5 Y2_7 3.318261 1_545
Mg1_5 Y0_0 3.340030 1_556
Mg1_5 Y0_6 3.340030 1_546
Mg1_5 Y3_7 3.344970 1_555
Mg1_5 Y3_1 3.344970 1_655
Mg1_5 Y1_1 3.475697 1_655
Mg1_5 Y1_7 3.475697 1_555
Mg1_5 Y3_5 3.627697 1_555
Mg1_6 Y2_4 3.318261 1_555
Mg1_6 Y2_2 3.318261 1_555
Mg1_6 Y0_5 3.340030 1_555
Mg1_6 Y0_3 3.340030 1_555
Mg1_6 Y3_2 3.344970 1_655
Mg1_6 Y3_4 3.344970 1_565
Mg1_6 Y1_2 3.475697 1_655
Mg1_6 Y1_4 3.475697 1_565
Mg1_6 Y3_6 3.627697 1_555
Mg1_7 Y2_5 3.318261 1_555
Mg1_7 Y2_3 3.318261 1_555
Mg1_7 Y0_4 3.340030 1_556
Mg1_7 Y0_2 3.340030 1_556
Mg1_7 Y3_3 3.344970 1_655
Mg1_7 Y3_5 3.344970 1_565
Mg1_7 Y1_5 3.475697 1_565
Mg1_7 Y1_3 3.475697 1_655
Mg1_7 Y3_7 3.627697 1_555
