# generated using pymatgen
data_SbOF6
_symmetry_space_group_name_H-M   'P 1'
_cell_length_a   8.37734606
_cell_length_b   8.37734606
_cell_length_c   8.37734606
_cell_angle_alpha   109.47122063
_cell_angle_beta   109.47122063
_cell_angle_gamma   109.47122063
_symmetry_Int_Tables_number   1
_chemical_formula_structural   SbOF6
_chemical_formula_sum   'Sb4 O4 F24'
_cell_volume   452.58220788
_cell_formula_units_Z   4
loop_
 _symmetry_equiv_pos_site_id
 _symmetry_equiv_pos_as_xyz
  1  'x, y, z'
loop_
 _atom_site_type_symbol
 _atom_site_label
 _atom_site_symmetry_multiplicity
 _atom_site_fract_x
 _atom_site_fract_y
 _atom_site_fract_z
 _atom_site_occupancy
  Sb  Sb0  1  0.50000000  0.00000000  0.00000000  1
  Sb  Sb1  1  0.00000000  0.50000000  0.00000000  1
  Sb  Sb2  1  0.00000000  0.00000000  0.50000000  1
  Sb  Sb3  1  0.50000000  0.50000000  0.50000000  1
  O  O0  1  0.50000000  0.00000000  0.50000000  1
  O  O1  1  0.50000000  0.50000000  0.00000000  1
  O  O2  1  0.00000000  0.50000000  0.50000000  1
  O  O3  1  0.00000000  0.00000000  0.00000000  1
  F  F0  1  0.70585600  0.01489600  0.94020500  1
  F  F1  1  0.92530900  0.48510400  0.19096000  1
  F  F2  1  0.79414400  0.73434900  0.30904000  1
  F  F3  1  0.57469100  0.76565100  0.55979500  1
  F  F4  1  0.01489600  0.94020500  0.70585600  1
  F  F5  1  0.48510400  0.19096000  0.92530900  1
  F  F6  1  0.73434900  0.30904000  0.79414400  1
  F  F7  1  0.76565100  0.55979500  0.57469100  1
  F  F8  1  0.94020500  0.70585600  0.01489600  1
  F  F9  1  0.19096000  0.92530900  0.48510400  1
  F  F10  1  0.30904000  0.79414400  0.73434900  1
  F  F11  1  0.55979500  0.57469100  0.76565100  1
  F  F12  1  0.29414400  0.98510400  0.05979500  1
  F  F13  1  0.07469100  0.51489600  0.80904000  1
  F  F14  1  0.20585600  0.26565100  0.69096000  1
  F  F15  1  0.42530900  0.23434900  0.44020500  1
  F  F16  1  0.98510400  0.05979500  0.29414400  1
  F  F17  1  0.51489600  0.80904000  0.07469100  1
  F  F18  1  0.26565100  0.69096000  0.20585600  1
  F  F19  1  0.23434900  0.44020500  0.42530900  1
  F  F20  1  0.05979500  0.29414400  0.98510400  1
  F  F21  1  0.80904000  0.07469100  0.51489600  1
  F  F22  1  0.69096000  0.20585600  0.26565100  1
  F  F23  1  0.44020500  0.42530900  0.23434900  1
loop_
_geom_bond_atom_site_label_1
_geom_bond_atom_site_label_2
_geom_bond_distance
_geom_bond_site_symmetry_2
F0 Sb0 1.927329 1_556
F1 Sb1 1.927329 1_655
F2 Sb2 1.927329 1_665
F3 Sb3 1.927329 1_555
F4 Sb2 1.927329 1_565
F5 Sb0 1.927329 1_556
F6 Sb1 1.927329 1_656
F7 Sb3 1.927329 1_555
F8 Sb1 1.927329 1_655
F9 Sb2 1.927329 1_565
F10 Sb0 1.927329 1_566
F11 Sb3 1.927329 1_555
F12 Sb0 1.927329 1_565
F13 Sb1 1.927329 1_556
F14 Sb2 1.927329 1_555
F15 Sb3 1.927329 1_555
F16 Sb2 1.927329 1_655
F17 Sb0 1.927329 1_565
F18 Sb1 1.927329 1_555
F19 Sb3 1.927329 1_555
F20 Sb1 1.927329 1_556
F21 Sb2 1.927329 1_655
F22 Sb0 1.927329 1_555
F23 Sb3 1.927329 1_555
