# generated using pymatgen
data_Ca(FeO2)2
_symmetry_space_group_name_H-M   'P 1'
_cell_length_a   6.37838636
_cell_length_b   6.37838636
_cell_length_c   6.37838687
_cell_angle_alpha   58.38037602
_cell_angle_beta   58.38037602
_cell_angle_gamma   58.38037910
_symmetry_Int_Tables_number   1
_chemical_formula_structural   Ca(FeO2)2
_chemical_formula_sum   'Ca2 Fe4 O8'
_cell_volume   176.68917926
_cell_formula_units_Z   2
loop_
 _symmetry_equiv_pos_site_id
 _symmetry_equiv_pos_as_xyz
  1  'x, y, z'
loop_
 _atom_site_type_symbol
 _atom_site_label
 _atom_site_symmetry_multiplicity
 _atom_site_fract_x
 _atom_site_fract_y
 _atom_site_fract_z
 _atom_site_occupancy
  Ca  Ca0  1  0.00345400  0.00345400  0.00345400  1
  Ca  Ca1  1  0.62438900  0.62438900  0.62438900  1
  Fe  Fe0  1  0.24175600  0.24175600  0.24175600  1
  Fe  Fe1  1  0.62879600  0.62879600  0.11379600  1
  Fe  Fe2  1  0.11379600  0.62879600  0.62879600  1
  Fe  Fe3  1  0.62879600  0.11379600  0.62879600  1
  O  O0  1  0.36703100  0.86078300  0.36703100  1
  O  O1  1  0.86078300  0.36703100  0.36703100  1
  O  O2  1  0.36703100  0.36703100  0.86078300  1
  O  O3  1  0.37770000  0.37770000  0.37770000  1
  O  O4  1  0.86136700  0.86136700  0.86136700  1
  O  O5  1  0.87447500  0.87447500  0.42614500  1
  O  O6  1  0.42614500  0.87447500  0.87447500  1
  O  O7  1  0.87447500  0.42614500  0.87447500  1
loop_
_geom_bond_atom_site_label_1
_geom_bond_atom_site_label_2
_geom_bond_distance
_geom_bond_site_symmetry_2
Ca0 O7 2.163499 1_454
Ca0 O6 2.163499 1_544
Ca0 O5 2.163499 1_445
Ca0 O4 2.246724 1_444
Ca1 O5 2.264065 1_555
Ca1 O7 2.264065 1_555
Ca1 O6 2.264065 1_555
Ca1 O2 2.301650 1_555
Ca1 O1 2.301650 1_555
Ca1 O0 2.301650 1_555
Fe0 O0 1.944063 1_545
Fe0 O1 1.944063 1_455
Fe0 O2 1.944063 1_554
Fe0 O3 2.149589 1_555
Fe1 O6 1.973161 1_554
Fe1 O7 1.973161 1_554
Fe1 O4 2.071730 1_554
Fe1 O0 2.161937 1_555
Fe1 O1 2.161937 1_555
Fe1 O3 2.235975 1_555
Fe2 O7 1.973161 1_455
Fe2 O5 1.973161 1_455
Fe2 O4 2.071730 1_455
Fe2 O0 2.161936 1_555
Fe2 O2 2.161937 1_555
Fe2 O3 2.235975 1_555
Fe3 O6 1.973161 1_545
Fe3 O5 1.973161 1_545
Fe3 O4 2.071730 1_545
Fe3 O1 2.161936 1_555
Fe3 O2 2.161937 1_555
Fe3 O3 2.235975 1_555
