# generated using pymatgen
data_KRbMg6O7
_symmetry_space_group_name_H-M   'P 1'
_cell_length_a   4.30352400
_cell_length_b   4.30352400
_cell_length_c   11.50141400
_cell_angle_alpha   90.00000000
_cell_angle_beta   90.00000000
_cell_angle_gamma   90.00000000
_symmetry_Int_Tables_number   1
_chemical_formula_structural   KRbMg6O7
_chemical_formula_sum   'K1 Rb1 Mg6 O7'
_cell_volume   213.00985414
_cell_formula_units_Z   1
loop_
 _symmetry_equiv_pos_site_id
 _symmetry_equiv_pos_as_xyz
  1  'x, y, z'
loop_
 _atom_site_type_symbol
 _atom_site_label
 _atom_site_symmetry_multiplicity
 _atom_site_fract_x
 _atom_site_fract_y
 _atom_site_fract_z
 _atom_site_occupancy
  K  K0  1  0.00000000  0.00000000  0.00700900  1
  Rb  Rb0  1  0.50000000  0.50000000  0.97968500  1
  Mg  Mg0  1  0.00000000  0.00000000  0.50300000  1
  Mg  Mg1  1  0.50000000  0.50000000  0.48423100  1
  Mg  Mg2  1  0.00000000  0.50000000  0.26909800  1
  Mg  Mg3  1  0.00000000  0.50000000  0.67493200  1
  Mg  Mg4  1  0.50000000  0.00000000  0.26909800  1
  Mg  Mg5  1  0.50000000  0.00000000  0.67493200  1
  O  O0  1  0.00000000  0.00000000  0.68565300  1
  O  O1  1  0.50000000  0.50000000  0.31116900  1
  O  O2  1  0.50000000  0.50000000  0.68593700  1
  O  O3  1  0.00000000  0.50000000  0.10825000  1
  O  O4  1  0.00000000  0.50000000  0.49437900  1
  O  O5  1  0.50000000  0.00000000  0.10825000  1
  O  O6  1  0.50000000  0.00000000  0.49437900  1
loop_
_geom_bond_atom_site_label_1
_geom_bond_atom_site_label_2
_geom_bond_distance
_geom_bond_site_symmetry_2
K0 O5 2.446618 1_455
K0 O3 2.446618 1_555
K0 O3 2.446618 1_545
K0 O5 2.446618 1_555
Mg0 O0 2.100768 1_555
Mg0 O6 2.154045 1_455
Mg0 O4 2.154045 1_545
Mg0 O6 2.154045 1_555
Mg0 O4 2.154045 1_555
Mg1 O1 1.990458 1_555
Mg1 O6 2.154925 1_565
Mg1 O4 2.154925 1_555
Mg1 O4 2.154925 1_655
Mg1 O6 2.154925 1_555
Mg1 O2 2.319904 1_555
Mg2 O3 1.849979 1_555
Mg2 O1 2.205497 1_555
Mg2 O1 2.205497 1_455
Mg2 O4 2.591050 1_555
Mg3 O4 2.076615 1_555
Mg3 O0 2.155292 1_555
Mg3 O0 2.155292 1_565
Mg3 O2 2.155481 1_455
Mg3 O2 2.155481 1_555
Mg4 O5 1.849979 1_555
Mg4 O1 2.205497 1_555
Mg4 O1 2.205497 1_545
Mg4 O6 2.591050 1_555
Mg5 O6 2.076615 1_555
Mg5 O0 2.155292 1_555
Mg5 O0 2.155292 1_655
Mg5 O2 2.155481 1_545
Mg5 O2 2.155481 1_555
O2 Rb0 3.378517 1_555
O3 Rb0 2.610857 1_454
O3 Rb0 2.610857 1_554
O5 Rb0 2.610857 1_544
O5 Rb0 2.610857 1_554
