# generated using pymatgen
data_Mg2Co2O5
_symmetry_space_group_name_H-M   'P 1'
_cell_length_a   3.51367200
_cell_length_b   5.07844900
_cell_length_c   10.70967000
_cell_angle_alpha   90.00000000
_cell_angle_beta   90.00000000
_cell_angle_gamma   90.00000000
_symmetry_Int_Tables_number   1
_chemical_formula_structural   Mg2Co2O5
_chemical_formula_sum   'Mg4 Co4 O10'
_cell_volume   191.10339490
_cell_formula_units_Z   2
loop_
 _symmetry_equiv_pos_site_id
 _symmetry_equiv_pos_as_xyz
  1  'x, y, z'
loop_
 _atom_site_type_symbol
 _atom_site_label
 _atom_site_symmetry_multiplicity
 _atom_site_fract_x
 _atom_site_fract_y
 _atom_site_fract_z
 _atom_site_occupancy
  Mg  Mg0  1  0.00000000  0.73521200  0.40397700  1
  Mg  Mg1  1  0.00000000  0.26478800  0.59602300  1
  Mg  Mg2  1  0.00000000  0.23521200  0.09602300  1
  Mg  Mg3  1  0.00000000  0.76478800  0.90397700  1
  Co  Co0  1  0.50000000  0.71956500  0.13711600  1
  Co  Co1  1  0.50000000  0.28043500  0.86288400  1
  Co  Co2  1  0.50000000  0.78043500  0.63711600  1
  Co  Co3  1  0.50000000  0.21956500  0.36288400  1
  O  O0  1  0.50000000  0.00000000  0.00000000  1
  O  O1  1  0.50000000  0.65150700  0.80701300  1
  O  O2  1  0.50000000  0.15150700  0.69298700  1
  O  O3  1  0.50000000  0.84849300  0.30701300  1
  O  O4  1  0.00000000  0.82817600  0.59125200  1
  O  O5  1  0.00000000  0.17182400  0.40874800  1
  O  O6  1  0.50000000  0.34849300  0.19298700  1
  O  O7  1  0.00000000  0.67182400  0.09125200  1
  O  O8  1  0.50000000  0.50000000  0.50000000  1
  O  O9  1  0.00000000  0.32817600  0.90874800  1
loop_
_geom_bond_atom_site_label_1
_geom_bond_atom_site_label_2
_geom_bond_distance
_geom_bond_site_symmetry_2
Mg0 O4 2.060470 1_555
Mg0 O3 2.120334 1_455
Mg0 O3 2.120334 1_555
Mg0 O5 2.217900 1_565
Mg0 O8 2.360273 1_455
Mg0 O8 2.360273 1_555
Mg1 O5 2.060470 1_555
Mg1 O2 2.120334 1_455
Mg1 O2 2.120334 1_555
Mg1 O4 2.217900 1_545
Mg1 O8 2.360273 1_555
Mg1 O8 2.360273 1_455
Mg2 O9 2.060470 1_554
Mg2 O6 2.120334 1_455
Mg2 O6 2.120334 1_555
Mg2 O7 2.217900 1_555
Mg2 O0 2.360273 1_455
Mg2 O0 2.360273 1_555
Mg3 O7 2.060470 1_556
Mg3 O1 2.120334 1_455
Mg3 O1 2.120334 1_555
Mg3 O9 2.217900 1_555
Mg3 O0 2.360273 1_566
Mg3 O0 2.360273 1_466
Co0 O7 1.840250 1_555
Co0 O7 1.840250 1_655
Co0 O3 1.933761 1_555
Co0 O6 1.977186 1_555
Co0 O0 2.045647 1_565
Co1 O9 1.840250 1_555
Co1 O9 1.840250 1_655
Co1 O2 1.933761 1_555
Co1 O1 1.977186 1_555
Co1 O0 2.045647 1_556
Co2 O4 1.840250 1_555
Co2 O4 1.840250 1_655
Co2 O1 1.933761 1_555
Co2 O2 1.977186 1_565
Co2 O8 2.045647 1_555
Co3 O5 1.840250 1_655
Co3 O5 1.840250 1_555
Co3 O6 1.933761 1_555
Co3 O3 1.977186 1_545
Co3 O8 2.045647 1_555
