# generated using pymatgen
data_ZnS
_symmetry_space_group_name_H-M   'P 1'
_cell_length_a   12.77784696
_cell_length_b   13.69528134
_cell_length_c   13.89854332
_cell_angle_alpha   88.83378806
_cell_angle_beta   82.41365792
_cell_angle_gamma   84.80112806
_symmetry_Int_Tables_number   1
_chemical_formula_structural   ZnS
_chemical_formula_sum   'Zn50 S50'
_cell_volume   2400.89877000
_cell_formula_units_Z   50
loop_
 _symmetry_equiv_pos_site_id
 _symmetry_equiv_pos_as_xyz
  1  'x, y, z'
loop_
 _atom_site_type_symbol
 _atom_site_label
 _atom_site_symmetry_multiplicity
 _atom_site_fract_x
 _atom_site_fract_y
 _atom_site_fract_z
 _atom_site_occupancy
  Zn  Zn0  1  0.40222439  0.63440743  0.78271279  1
  Zn  Zn1  1  0.41845270  0.27684281  0.77164906  1
  Zn  Zn2  1  0.54923487  0.38510644  0.83628916  1
  Zn  Zn3  1  0.33450865  0.07286339  0.59933363  1
  Zn  Zn4  1  0.90220576  0.81024122  0.23252163  1
  Zn  Zn5  1  0.83752458  0.57850729  0.36380747  1
  Zn  Zn6  1  0.91773030  0.24499281  0.88708128  1
  Zn  Zn7  1  0.64464994  0.69600636  0.81366805  1
  Zn  Zn8  1  0.06869754  0.37455830  0.00456988  1
  Zn  Zn9  1  0.23673386  0.21495432  0.78832031  1
  Zn  Zn10  1  0.52156080  0.28030695  0.38458794  1
  Zn  Zn11  1  0.91460276  0.70834261  0.83350228  1
  Zn  Zn12  1  0.37029369  0.85373137  0.76620336  1
  Zn  Zn13  1  0.21343127  0.07840688  0.32919542  1
  Zn  Zn14  1  0.07936964  0.72133615  0.44328871  1
  Zn  Zn15  1  0.60972097  0.31595117  0.07852198  1
  Zn  Zn16  1  0.37426997  0.36032393  0.55063433  1
  Zn  Zn17  1  0.74568616  0.03838853  0.33265464  1
  Zn  Zn18  1  0.53520887  0.07357439  0.04910060  1
  Zn  Zn19  1  0.07997953  0.99595393  0.75187142  1
  Zn  Zn20  1  0.35101086  0.83952507  0.39995678  1
  Zn  Zn21  1  0.48442362  0.01470782  0.34914253  1
  Zn  Zn22  1  0.97435250  0.20188469  0.72095807  1
  Zn  Zn23  1  0.60652748  0.99622890  0.58925997  1
  Zn  Zn24  1  0.33152468  0.30073937  0.36755646  1
  Zn  Zn25  1  0.38736569  0.93503511  0.97094502  1
  Zn  Zn26  1  0.07300561  0.64350183  0.92390766  1
  Zn  Zn27  1  0.59781180  0.50775397  0.60539247  1
  Zn  Zn28  1  0.75666686  0.26151846  0.64210387  1
  Zn  Zn29  1  0.70692761  0.97436503  0.88819248  1
  Zn  Zn30  1  0.50063694  0.61817296  0.24064702  1
  Zn  Zn31  1  0.06689858  0.45730267  0.70337549  1
  Zn  Zn32  1  0.56372784  0.19295374  0.84883636  1
  Zn  Zn33  1  0.98232939  0.16350327  0.13189757  1
  Zn  Zn34  1  0.36273420  0.94636146  0.15614526  1
  Zn  Zn35  1  0.84002801  0.89118898  0.68143780  1
  Zn  Zn36  1  0.77031313  0.36564072  0.23804950  1
  Zn  Zn37  1  0.85491434  0.50130441  0.72150804  1
  Zn  Zn38  1  0.12513467  0.50748146  0.46966094  1
  Zn  Zn39  1  0.68924834  0.53358132  0.00532364  1
  Zn  Zn40  1  0.32976916  0.63033602  0.38843762  1
  Zn  Zn41  1  0.95379985  0.38682573  0.59150890  1
  Zn  Zn42  1  0.26280495  0.37406781  0.87690381  1
  Zn  Zn43  1  0.75419046  0.79523517  0.43584220  1
  Zn  Zn44  1  0.25860542  0.21873651  0.12444886  1
  Zn  Zn45  1  0.53027290  0.62379974  0.40769325  1
  Zn  Zn46  1  0.02679199  0.32085970  0.35862794  1
  Zn  Zn47  1  0.21978950  0.65918036  0.20993966  1
  Zn  Zn48  1  0.40515844  0.78020380  0.05612927  1
  Zn  Zn49  1  0.09476196  0.78877793  0.80839076  1
  S  S0  1  0.56127616  0.65234160  0.68602550  1
  S  S1  1  0.89865674  0.12088757  0.28343037  1
  S  S2  1  0.47314552  0.87587579  0.26405277  1
  S  S3  1  0.00089819  0.80005081  0.08978564  1
  S  S4  1  0.23262492  0.36728773  0.04988796  1
  S  S5  1  0.18600362  0.24605984  0.30219244  1
  S  S6  1  0.63380543  0.27678537  0.22994278  1
  S  S7  1  0.38800850  0.63270893  0.12104389  1
  S  S8  1  0.40943822  0.12364042  0.16853924  1
  S  S9  1  0.06738142  0.63957067  0.59423829  1
  S  S10  1  0.44683886  0.93809070  0.63168353  1
  S  S11  1  0.67006123  0.12613729  0.69627507  1
  S  S12  1  0.52224725  0.43630239  0.48475584  1
  S  S13  1  0.27069525  0.98716762  0.86306394  1
  S  S14  1  0.26176307  0.73354351  0.73913567  1
  S  S15  1  0.76934187  0.92095629  0.53954820  1
  S  S16  1  0.17049839  0.98551277  0.20610779  1
  S  S17  1  0.86879272  0.26291111  0.33867145  1
  S  S18  1  0.52375534  0.02953228  0.89208674  1
  S  S19  1  0.92966407  0.71892395  0.36974808  1
  S  S20  1  0.91994506  0.29644977  0.04771796  1
  S  S21  1  0.76052015  0.82018367  0.82787527  1
  S  S22  1  0.80232660  0.05784565  0.75413103  1
  S  S23  1  0.82171723  0.51880197  0.20518492  1
  S  S24  1  0.55272285  0.44287784  0.99149842  1
  S  S25  1  0.15490134  0.12899411  0.68261467  1
  S  S26  1  0.59342854  0.10654769  0.42210799  1
  S  S27  1  0.95941400  0.46103004  0.43515632  1
  S  S28  1  0.69919424  0.40847971  0.70922993  1
  S  S29  1  0.69009064  0.63828743  0.46169111  1
  S  S30  1  0.69811047  0.20092982  0.96154964  1
  S  S31  1  0.78931142  0.58112083  0.86899028  1
  S  S32  1  0.73916754  0.88443095  0.28283990  1
  S  S33  1  0.38694178  0.71337794  0.50651190  1
  S  S34  1  0.19962182  0.78545602  0.33069235  1
  S  S35  1  0.14983418  0.09167894  0.09548939  1
  S  S36  1  0.69764794  0.60655828  0.15144378  1
  S  S37  1  0.19010201  0.38791528  0.57387490  1
  S  S38  1  0.92398872  0.22606233  0.56962193  1
  S  S39  1  0.08849471  0.66263537  0.09147192  1
  S  S40  1  0.23640226  0.51940236  0.32688918  1
  S  S41  1  0.11828266  0.94152848  0.90336077  1
  S  S42  1  0.30997235  0.01534104  0.44290049  1
  S  S43  1  0.72294463  0.06425283  0.03325984  1
  S  S44  1  0.90602835  0.65952793  0.65062682  1
  S  S45  1  0.42678333  0.21094680  0.61989976  1
  S  S46  1  0.09827530  0.47638603  0.86460978  1
  S  S47  1  0.02308870  0.87352449  0.67588830  1
  S  S48  1  0.39275270  0.46085531  0.78417641  1
  S  S49  1  0.46982671  0.76100216  0.88937570  1
loop_
_geom_bond_atom_site_label_1
_geom_bond_atom_site_label_2
_geom_bond_distance
_geom_bond_site_symmetry_2
S0 Zn27 2.275873 1_555
S0 Zn7 2.301619 1_555
S0 Zn0 2.313541 1_555
S1 S17 2.089793 1_555
S1 Zn33 2.321168 1_555
S1 Zn17 2.362389 1_555
S2 Zn21 2.284876 1_565
S2 Zn34 2.329048 1_555
S2 Zn20 2.361223 1_555
S3 S39 2.102015 1_555
S3 Zn4 2.205483 1_455
S4 Zn8 2.258793 1_555
S4 Zn44 2.281602 1_555
S4 Zn42 2.385423 1_554
S5 Zn46 2.244337 1_555
S5 Zn13 2.321501 1_555
S5 Zn24 2.360020 1_555
S5 Zn44 2.544211 1_555
S6 Zn15 2.215085 1_555
S6 Zn36 2.231183 1_555
S6 Zn10 2.420080 1_555
S7 Zn48 2.212733 1_555
S7 Zn30 2.332451 1_555
S7 Zn47 2.335377 1_555
S8 Zn18 2.225028 1_555
S8 Zn44 2.368691 1_555
S8 Zn34 2.566552 1_545
S9 Zn14 2.351497 1_555
S9 Zn38 2.522529 1_555
S9 Zn31 2.894500 1_555
S10 Zn23 2.258942 1_555
S10 Zn3 2.307736 1_565
S10 Zn12 2.328295 1_555
S11 S22 2.102242 1_555
S11 Zn28 2.307410 1_555
S11 Zn32 2.504481 1_555
S11 Zn23 2.593237 1_545
S12 Zn16 2.314516 1_555
S12 Zn27 2.316583 1_555
S12 Zn10 2.574911 1_555
S12 Zn45 2.767344 1_555
S13 S41 2.101304 1_555
S13 Zn25 2.309574 1_555
S13 Zn12 2.449043 1_555
S14 Zn0 2.289844 1_555
S14 Zn49 2.290648 1_555
S14 Zn12 2.313154 1_555
S15 Zn23 2.264733 1_555
S15 Zn35 2.289512 1_555
S15 Zn43 2.305356 1_555
S16 S35 2.119927 1_565
S16 Zn13 2.304121 1_565
S16 Zn34 2.475781 1_555
S17 Zn46 2.286891 1_655
S17 Zn36 2.362708 1_555
S18 Zn18 2.302480 1_556
S18 Zn29 2.387396 1_545
S18 Zn32 2.388024 1_555
S18 Zn25 2.400002 1_545
S19 Zn14 2.287820 1_655
S19 Zn4 2.307555 1_555
S19 Zn5 2.352340 1_555
S19 Zn43 2.456422 1_555
S20 Zn8 2.271151 1_655
S20 Zn33 2.283828 1_555
S20 Zn6 2.359310 1_554
S21 Zn29 2.299745 1_555
S21 Zn7 2.381270 1_555
S21 Zn35 2.381722 1_555
S21 Zn11 2.391195 1_555
S22 Zn29 2.414732 1_545
S22 Zn35 2.495662 1_545
S23 S36 2.108661 1_555
S23 Zn36 2.274073 1_555
S23 Zn5 2.406376 1_555
S24 Zn15 2.220941 1_556
S24 Zn39 2.261469 1_556
S24 Zn2 2.320057 1_555
S25 Zn19 2.272490 1_545
S25 Zn9 2.310154 1_555
S25 Zn22 2.425397 1_455
S25 Zn3 2.492550 1_555
S26 Zn17 2.298172 1_555
S26 Zn21 2.300611 1_555
S26 Zn10 2.541264 1_555
S26 Zn23 2.760752 1_545
S27 Zn46 2.258205 1_655
S27 Zn41 2.375355 1_555
S27 Zn38 2.375585 1_655
S27 Zn5 2.426183 1_555
S28 Zn28 2.255713 1_555
S28 Zn27 2.388315 1_555
S28 Zn2 2.467255 1_555
S28 Zn37 2.482196 1_555
S29 Zn5 2.271392 1_555
S29 Zn45 2.292825 1_555
S29 Zn43 2.372753 1_555
S29 Zn27 2.861818 1_555
S30 S43 2.120781 1_556
S30 Zn15 2.386853 1_556
S30 Zn32 2.483089 1_555
S31 Zn39 2.260538 1_556
S31 Zn37 2.360225 1_555
S31 Zn11 2.470649 1_555
S31 Zn7 2.506498 1_555
S32 Zn17 2.244662 1_565
S32 Zn4 2.263211 1_555
S32 Zn43 2.451663 1_555
S33 Zn40 2.250172 1_555
S33 Zn20 2.306588 1_555
S33 Zn45 2.396425 1_555
S34 Zn14 2.266016 1_555
S34 Zn47 2.407695 1_555
S34 Zn20 2.448956 1_555
S34 Zn40 2.750561 1_555
S35 Zn33 2.271008 1_455
S35 Zn44 2.395024 1_555
S36 Zn39 2.300955 1_555
S36 Zn30 2.647822 1_555
S37 Zn16 2.329831 1_555
S37 Zn38 2.333031 1_555
S37 Zn31 2.381440 1_555
S38 Zn28 2.254951 1_555
S38 Zn22 2.288735 1_555
S38 Zn41 2.301080 1_555
S39 Zn26 2.384859 1_554
S39 Zn47 2.497932 1_555
S40 Zn40 2.261439 1_555
S40 Zn38 2.295548 1_555
S40 Zn47 2.498484 1_555
S41 Zn19 2.317384 1_555
S41 Zn49 2.557337 1_555
S42 Zn13 2.243050 1_555
S42 Zn3 2.395930 1_555
S42 Zn21 2.428388 1_555
S42 Zn20 2.485154 1_545
S43 Zn18 2.371811 1_555
S43 Zn29 2.424491 1_544
S44 S9 2.102299 1_655
S44 Zn37 2.468260 1_555
S44 Zn11 2.659917 1_555
S45 Zn1 2.296702 1_555
S45 Zn16 2.324604 1_555
S45 Zn3 2.358647 1_555
S46 Zn31 2.351772 1_555
S46 Zn8 2.379616 1_556
S46 Zn26 2.427801 1_555
S46 Zn42 2.442090 1_555
S47 Zn19 2.225019 1_555
S47 Zn35 2.320891 1_455
S47 Zn49 2.396445 1_555
S48 Zn42 2.358186 1_555
S48 Zn2 2.361083 1_555
S48 Zn0 2.390391 1_555
S48 Zn1 2.518305 1_555
S49 Zn48 2.367095 1_556
S49 Zn7 2.438607 1_555
S49 Zn12 2.520840 1_555
S49 Zn0 2.581453 1_555
S49 Zn25 2.723177 1_555
