# generated using pymatgen
data_Sr2CuTeO2
_symmetry_space_group_name_H-M   'P 1'
_cell_length_a   4.02247700
_cell_length_b   4.02247700
_cell_length_c   7.40052500
_cell_angle_alpha   90.00000000
_cell_angle_beta   90.00000000
_cell_angle_gamma   90.00000000
_symmetry_Int_Tables_number   1
_chemical_formula_structural   Sr2CuTeO2
_chemical_formula_sum   'Sr2 Cu1 Te1 O2'
_cell_volume   119.74287166
_cell_formula_units_Z   1
loop_
 _symmetry_equiv_pos_site_id
 _symmetry_equiv_pos_as_xyz
  1  'x, y, z'
loop_
 _atom_site_type_symbol
 _atom_site_label
 _atom_site_symmetry_multiplicity
 _atom_site_fract_x
 _atom_site_fract_y
 _atom_site_fract_z
 _atom_site_occupancy
  Sr  Sr0  1  0.50000000  0.50000000  0.72038500  1
  Sr  Sr1  1  0.50000000  0.50000000  0.27961500  1
  Cu  Cu0  1  0.00000000  0.00000000  0.50000000  1
  Te  Te0  1  0.00000000  0.00000000  0.00000000  1
  O  O0  1  0.00000000  0.50000000  0.50000000  1
  O  O1  1  0.50000000  0.00000000  0.50000000  1
loop_
_geom_bond_atom_site_label_1
_geom_bond_atom_site_label_2
_geom_bond_distance
_geom_bond_site_symmetry_2
Sr0 Te0 3.517407 1_666
Sr0 Te0 3.517407 1_656
Sr0 Te0 3.517407 1_556
Sr0 Te0 3.517407 1_566
Sr1 Te0 3.517407 1_665
Sr1 Te0 3.517407 1_555
Sr1 Te0 3.517407 1_565
Sr1 Te0 3.517407 1_655
Cu0 O1 2.011239 1_455
Cu0 O1 2.011239 1_555
Cu0 O0 2.011239 1_555
Cu0 O0 2.011239 1_545
O0 Sr1 2.589426 1_455
O0 Sr1 2.589426 1_555
O0 Sr0 2.589426 1_555
O0 Sr0 2.589426 1_455
O1 Sr1 2.589426 1_555
O1 Sr0 2.589426 1_545
O1 Sr1 2.589426 1_545
O1 Sr0 2.589426 1_555
