# generated using pymatgen
data_ZrCuSn
_symmetry_space_group_name_H-M   'P 1'
_cell_length_a   4.32630118
_cell_length_b   6.69380110
_cell_length_c   7.71846262
_cell_angle_alpha   89.99977880
_cell_angle_beta   90.00001638
_cell_angle_gamma   90.00000335
_symmetry_Int_Tables_number   1
_chemical_formula_structural   ZrCuSn
_chemical_formula_sum   'Zr4 Cu4 Sn4'
_cell_volume   223.52204329
_cell_formula_units_Z   4
loop_
 _symmetry_equiv_pos_site_id
 _symmetry_equiv_pos_as_xyz
  1  'x, y, z'
loop_
 _atom_site_type_symbol
 _atom_site_label
 _atom_site_symmetry_multiplicity
 _atom_site_fract_x
 _atom_site_fract_y
 _atom_site_fract_z
 _atom_site_occupancy
  Zr  Zr0  1  0.25000005  0.49987832  0.71195450  1
  Zr  Zr1  1  0.25000000  -0.00012013  0.78804720  1
  Zr  Zr2  1  0.74999997  0.50012001  0.28804639  1
  Zr  Zr3  1  0.74999980  0.00012133  0.21195490  1
  Cu  Cu0  1  0.24999881  0.19333706  0.41280523  1
  Cu  Cu1  1  0.25000093  0.69333886  0.08719394  1
  Cu  Cu2  1  0.74999950  0.80666233  0.58719708  1
  Cu  Cu3  1  0.75000102  0.30666359  0.91280334  1
  Sn  Sn0  1  0.24999967  0.78113117  0.41268454  1
  Sn  Sn1  1  0.25000042  0.28113178  0.08731556  1
  Sn  Sn2  1  0.74999937  0.21886733  0.58731585  1
  Sn  Sn3  1  0.75000047  0.71886834  0.91268346  1
loop_
_geom_bond_atom_site_label_1
_geom_bond_atom_site_label_2
_geom_bond_distance
_geom_bond_site_symmetry_2
Zr0 Zr1 3.398029 1_555
Zr0 Zr1 3.398054 1_565
Zr2 Zr3 3.398033 1_555
Zr2 Zr3 3.398046 1_565
Cu0 Sn2 2.553958 1_455
Cu0 Sn2 2.553962 1_555
Cu0 Sn1 2.580098 1_555
Cu0 Sn0 2.759224 1_545
Cu0 Zr3 2.958928 1_455
Cu0 Zr3 2.958935 1_555
Cu0 Zr0 3.088979 1_555
Cu0 Zr2 3.134245 1_455
Cu0 Zr2 3.134252 1_555
Cu0 Zr1 3.172602 1_555
Cu1 Sn3 2.553957 1_554
Cu1 Sn3 2.553960 1_454
Cu1 Sn0 2.580106 1_555
Cu1 Sn1 2.759232 1_555
Cu1 Zr2 2.958941 1_555
Cu1 Zr2 2.958948 1_455
Cu1 Zr1 3.088952 1_564
Cu1 Zr3 3.134253 1_565
Cu1 Zr3 3.134260 1_465
Cu1 Zr0 3.172603 1_554
Cu2 Sn0 2.553967 1_555
Cu2 Sn0 2.553969 1_655
Cu2 Sn3 2.580072 1_555
Cu2 Sn2 2.759218 1_565
Cu2 Zr1 2.958935 1_565
Cu2 Zr1 2.958937 1_665
Cu2 Zr2 3.088992 1_555
Cu2 Zr0 3.134248 1_555
Cu2 Zr0 3.134251 1_655
Cu2 Zr3 3.172609 1_565
Cu3 Sn1 2.553964 1_656
Cu3 Sn1 2.553969 1_556
Cu3 Sn2 2.580089 1_555
Cu3 Sn3 2.759217 1_555
Cu3 Zr0 2.958915 1_655
Cu3 Zr0 2.958920 1_555
Cu3 Zr3 3.088985 1_556
Cu3 Zr1 3.134248 1_655
Cu3 Zr1 3.134253 1_555
Cu3 Zr2 3.172617 1_556
Sn0 Zr0 2.979932 1_555
Sn0 Zr2 3.023737 1_455
Sn0 Zr2 3.023739 1_555
Sn0 Zr3 3.037828 1_465
Sn0 Zr3 3.037829 1_565
Sn0 Zr1 3.246227 1_565
Sn1 Zr1 2.979930 1_554
Sn1 Zr3 3.023731 1_555
Sn1 Zr3 3.023735 1_455
Sn1 Zr2 3.037831 1_555
Sn1 Zr2 3.037835 1_455
Sn1 Zr0 3.246199 1_554
Sn2 Zr2 2.979929 1_555
Sn2 Zr0 3.023737 1_555
Sn2 Zr0 3.023740 1_655
Sn2 Zr1 3.037825 1_555
Sn2 Zr1 3.037828 1_655
Sn2 Zr3 3.246207 1_555
Sn3 Zr3 2.979953 1_566
Sn3 Zr1 3.023729 1_665
Sn3 Zr1 3.023732 1_565
Sn3 Zr0 3.037830 1_655
Sn3 Zr0 3.037832 1_555
Sn3 Zr2 3.246218 1_556
