# generated using pymatgen
data_CsMgPO4
_symmetry_space_group_name_H-M   'P 1'
_cell_length_a   5.59356800
_cell_length_b   9.06120200
_cell_length_c   9.89958600
_cell_angle_alpha   90.00000000
_cell_angle_beta   90.00000000
_cell_angle_gamma   90.00000000
_symmetry_Int_Tables_number   1
_chemical_formula_structural   CsMgPO4
_chemical_formula_sum   'Cs4 Mg4 P4 O16'
_cell_volume   501.75506717
_cell_formula_units_Z   4
loop_
 _symmetry_equiv_pos_site_id
 _symmetry_equiv_pos_as_xyz
  1  'x, y, z'
loop_
 _atom_site_type_symbol
 _atom_site_label
 _atom_site_symmetry_multiplicity
 _atom_site_fract_x
 _atom_site_fract_y
 _atom_site_fract_z
 _atom_site_occupancy
  Cs  Cs0  1  0.25000000  0.99812500  0.19548700  1
  Cs  Cs1  1  0.75000000  0.00187500  0.80451300  1
  Cs  Cs2  1  0.25000000  0.49812500  0.30451300  1
  Cs  Cs3  1  0.75000000  0.50187500  0.69548700  1
  Mg  Mg0  1  0.25000000  0.32322000  0.91872900  1
  Mg  Mg1  1  0.75000000  0.67678000  0.08127100  1
  Mg  Mg2  1  0.75000000  0.17678000  0.41872900  1
  Mg  Mg3  1  0.25000000  0.82322000  0.58127100  1
  P  P0  1  0.25000000  0.70545300  0.91503600  1
  P  P1  1  0.25000000  0.20545300  0.58496400  1
  P  P2  1  0.75000000  0.29454700  0.08496400  1
  P  P3  1  0.75000000  0.79454700  0.41503600  1
  O  O0  1  0.25000000  0.53543600  0.91481600  1
  O  O1  1  0.75000000  0.46456400  0.08518400  1
  O  O2  1  0.25000000  0.03543600  0.58518400  1
  O  O3  1  0.75000000  0.96456400  0.41481600  1
  O  O4  1  0.97552300  0.23521700  0.01044800  1
  O  O5  1  0.47552300  0.76478300  0.98955200  1
  O  O6  1  0.52447700  0.73521700  0.48955200  1
  O  O7  1  0.02447700  0.26478300  0.51044800  1
  O  O8  1  0.02447700  0.76478300  0.98955200  1
  O  O9  1  0.52447700  0.23521700  0.01044800  1
  O  O10  1  0.47552300  0.26478300  0.51044800  1
  O  O11  1  0.97552300  0.73521700  0.48955200  1
  O  O12  1  0.75000000  0.73619000  0.26847500  1
  O  O13  1  0.25000000  0.26381000  0.73152500  1
  O  O14  1  0.75000000  0.23619000  0.23152500  1
  O  O15  1  0.25000000  0.76381000  0.76847500  1
loop_
_geom_bond_atom_site_label_1
_geom_bond_atom_site_label_2
_geom_bond_distance
_geom_bond_site_symmetry_2
Cs0 O5 3.196564 1_554
Cs0 O8 3.196564 1_554
Cs0 O4 3.213728 1_465
Cs0 O9 3.213728 1_565
Cs1 O9 3.196564 1_556
Cs1 O4 3.196564 1_556
Cs1 O5 3.213728 1_545
Cs1 O8 3.213728 1_645
Cs2 O10 3.196564 1_555
Cs2 O7 3.196564 1_555
Cs2 O11 3.213728 1_455
Cs2 O6 3.213728 1_555
Cs3 O11 3.196564 1_555
Cs3 O6 3.196564 1_555
Cs3 O10 3.213728 1_555
Cs3 O7 3.213728 1_655
Mg0 O0 1.923322 1_555
Mg0 O13 1.929845 1_555
Mg0 O4 1.953832 1_456
Mg0 O9 1.953832 1_556
Mg1 O1 1.923322 1_555
Mg1 O12 1.929845 1_555
Mg1 O5 1.953832 1_554
Mg1 O8 1.953832 1_654
Mg2 O3 1.923322 1_545
Mg2 O14 1.929845 1_555
Mg2 O10 1.953832 1_555
Mg2 O7 1.953832 1_655
Mg3 O2 1.923322 1_565
Mg3 O15 1.929845 1_555
Mg3 O11 1.953832 1_455
Mg3 O6 1.953832 1_555
O0 P0 1.540560 1_555
O1 P2 1.540560 1_555
O2 P1 1.540560 1_555
O3 P3 1.540560 1_555
O4 P2 1.557084 1_555
O5 P0 1.557084 1_555
O6 P3 1.557084 1_555
O7 P1 1.557084 1_555
O8 P0 1.557084 1_555
O9 P2 1.557084 1_555
O10 P1 1.557084 1_555
O11 P3 1.557084 1_555
O12 P3 1.544249 1_555
O13 P1 1.544249 1_555
O14 P2 1.544249 1_555
O15 P0 1.544249 1_555
