# generated using pymatgen
data_Mn20Si12C
_symmetry_space_group_name_H-M   'P 1'
_cell_length_a   11.91602500
_cell_length_b   4.80186900
_cell_length_c   6.86676969
_cell_angle_alpha   89.94056624
_cell_angle_beta   90.00000000
_cell_angle_gamma   90.00000000
_symmetry_Int_Tables_number   1
_chemical_formula_structural   Mn20Si12C
_chemical_formula_sum   'Mn20 Si12 C1'
_cell_volume   392.91079565
_cell_formula_units_Z   1
loop_
 _symmetry_equiv_pos_site_id
 _symmetry_equiv_pos_as_xyz
  1  'x, y, z'
loop_
 _atom_site_type_symbol
 _atom_site_label
 _atom_site_symmetry_multiplicity
 _atom_site_fract_x
 _atom_site_fract_y
 _atom_site_fract_z
 _atom_site_occupancy
  Mn  Mn0  1  0.33160500  0.50000000  0.00000000  1
  Mn  Mn1  1  0.83507400  0.50000000  0.50000000  1
  Mn  Mn2  1  0.16492600  0.50000000  0.50000000  1
  Mn  Mn3  1  0.66839500  0.50000000  0.00000000  1
  Mn  Mn4  1  0.16743000  0.00000000  0.50000000  1
  Mn  Mn5  1  0.66551300  0.00000000  0.00000000  1
  Mn  Mn6  1  0.33448700  0.00000000  0.00000000  1
  Mn  Mn7  1  0.83257000  0.00000000  0.50000000  1
  Mn  Mn8  1  0.50000000  0.25199300  0.74437600  1
  Mn  Mn9  1  0.00000000  0.25823800  0.23809200  1
  Mn  Mn10  1  0.37658400  0.25148200  0.37749000  1
  Mn  Mn11  1  0.88141500  0.25950400  0.88072100  1
  Mn  Mn12  1  0.11858500  0.25950400  0.88072100  1
  Mn  Mn13  1  0.62341600  0.25148200  0.37749000  1
  Mn  Mn14  1  0.50000000  0.74800700  0.25562400  1
  Mn  Mn15  1  0.00000000  0.74176200  0.76190800  1
  Mn  Mn16  1  0.11858500  0.74049600  0.11927900  1
  Mn  Mn17  1  0.62341600  0.74851800  0.62251000  1
  Mn  Mn18  1  0.37658400  0.74851800  0.62251000  1
  Mn  Mn19  1  0.88141500  0.74049600  0.11927900  1
  Si  Si0  1  0.50000000  0.25002200  0.10344100  1
  Si  Si1  1  0.00000000  0.23871300  0.59686400  1
  Si  Si2  1  0.20023000  0.23805300  0.19996300  1
  Si  Si3  1  0.69988000  0.24896800  0.69986400  1
  Si  Si4  1  0.30012000  0.24896800  0.69986400  1
  Si  Si5  1  0.79977000  0.23805300  0.19996300  1
  Si  Si6  1  0.50000000  0.74997800  0.89655900  1
  Si  Si7  1  0.00000000  0.76128700  0.40313600  1
  Si  Si8  1  0.30012000  0.75103200  0.30013600  1
  Si  Si9  1  0.79977000  0.76194700  0.80003700  1
  Si  Si10  1  0.20023000  0.76194700  0.80003700  1
  Si  Si11  1  0.69988000  0.75103200  0.30013600  1
  C  C0  1  0.00000000  0.50000000  0.00000000  1
loop_
_geom_bond_atom_site_label_1
_geom_bond_atom_site_label_2
_geom_bond_distance
_geom_bond_site_symmetry_2
Mn0 Si8 2.417960 1_555
Mn0 Si4 2.417960 1_554
Mn0 Si10 2.432007 1_554
Mn0 Si2 2.432007 1_555
Mn0 Si6 2.443373 1_554
Mn0 Si0 2.443373 1_555
Mn1 Si7 2.424279 1_655
Mn1 Si1 2.424279 1_655
Mn1 Si3 2.434828 1_555
Mn1 Si11 2.434828 1_555
Mn1 Si9 2.451382 1_555
Mn1 Si5 2.451382 1_555
Mn2 Si7 2.424279 1_555
Mn2 Si1 2.424279 1_555
Mn2 Si4 2.434828 1_555
Mn2 Si8 2.434828 1_555
Mn2 Si10 2.451382 1_555
Mn2 Si2 2.451382 1_555
Mn3 Si11 2.417960 1_555
Mn3 Si3 2.417960 1_554
Mn3 Si9 2.432007 1_554
Mn3 Si5 2.432007 1_555
Mn3 Si6 2.443373 1_554
Mn3 Si0 2.443373 1_555
Mn4 Si2 2.387326 1_555
Mn4 Si10 2.387326 1_545
Mn4 Si1 2.395486 1_555
Mn4 Si7 2.395486 1_545
Mn4 Si4 2.411677 1_555
Mn4 Si8 2.411677 1_545
Mn5 Si5 2.398901 1_555
Mn5 Si9 2.398901 1_544
Mn5 Si0 2.416087 1_555
Mn5 Si6 2.416087 1_544
Mn5 Si11 2.416489 1_545
Mn5 Si3 2.416489 1_554
Mn6 Si2 2.398901 1_555
Mn6 Si10 2.398901 1_544
Mn6 Si0 2.416087 1_555
Mn6 Si6 2.416087 1_544
Mn6 Si8 2.416489 1_545
Mn6 Si4 2.416489 1_554
Mn7 Si5 2.387326 1_555
Mn7 Si9 2.387326 1_545
Mn7 Si1 2.395486 1_655
Mn7 Si7 2.395486 1_645
Mn7 Si3 2.411677 1_555
Mn7 Si11 2.411677 1_545
Mn8 Si4 2.401353 1_555
Mn8 Si3 2.401353 1_555
Mn8 Si0 2.465625 1_556
Mn8 Si6 2.610620 1_555
Mn8 Si6 2.626376 1_545
Mn9 Si5 2.402235 1_455
Mn9 Si2 2.402235 1_555
Mn9 Si1 2.465291 1_555
Mn9 Si7 2.640681 1_545
Mn9 Si7 2.669288 1_555
Mn10 Si0 2.388328 1_555
Mn10 Si4 2.393868 1_555
Mn10 Si2 2.430312 1_555
Mn10 Si8 2.619886 1_555
Mn10 Si8 2.624852 1_545
Mn11 Si5 2.400462 1_556
Mn11 Si1 2.409651 1_655
Mn11 Si3 2.494863 1_555
Mn11 Si9 2.639034 1_545
Mn11 Si9 2.659256 1_555
Mn12 Si2 2.400462 1_556
Mn12 Si1 2.409651 1_555
Mn12 Si4 2.494863 1_555
Mn12 Si10 2.639034 1_545
Mn12 Si10 2.659256 1_555
Mn13 Si0 2.388328 1_555
Mn13 Si3 2.393868 1_555
Mn13 Si5 2.430312 1_555
Mn13 Si11 2.619886 1_555
Mn13 Si11 2.624852 1_545
Mn14 Si8 2.401353 1_555
Mn14 Si11 2.401353 1_555
Mn14 Si6 2.465625 1_554
Mn14 Si0 2.610620 1_555
Mn14 Si0 2.626376 1_565
Mn15 Si9 2.402235 1_455
Mn15 Si10 2.402235 1_555
Mn15 Si7 2.465291 1_555
Mn15 Si1 2.640681 1_565
Mn15 Si1 2.669288 1_555
Mn16 Si10 2.400462 1_554
Mn16 Si7 2.409651 1_555
Mn16 Si8 2.494863 1_555
Mn16 Si2 2.639034 1_565
Mn16 Si2 2.659256 1_555
Mn17 Si6 2.388328 1_555
Mn17 Si11 2.393868 1_555
Mn17 Si9 2.430312 1_555
Mn17 Si3 2.619886 1_555
Mn17 Si3 2.624852 1_565
Mn18 Si6 2.388328 1_555
Mn18 Si8 2.393868 1_555
Mn18 Si10 2.430312 1_555
Mn18 Si4 2.619886 1_555
Mn18 Si4 2.624852 1_565
Mn19 Si9 2.400462 1_554
Mn19 Si7 2.409651 1_655
Mn19 Si11 2.494863 1_555
Mn19 Si5 2.639034 1_565
Mn19 Si5 2.659256 1_555
C0 Mn16 2.000800 1_555
C0 Mn19 2.000800 1_455
C0 Mn12 2.000800 1_554
C0 Mn11 2.000800 1_454
C0 Mn9 2.004182 1_555
C0 Mn15 2.004182 1_554
