# generated using pymatgen
data_V9Ga4Fe3
_symmetry_space_group_name_H-M   'P 1'
_cell_length_a   4.65955362
_cell_length_b   4.69796567
_cell_length_c   9.47990974
_cell_angle_alpha   89.98878503
_cell_angle_beta   90.00000000
_cell_angle_gamma   90.00000000
_symmetry_Int_Tables_number   1
_chemical_formula_structural   V9Ga4Fe3
_chemical_formula_sum   'V9 Ga4 Fe3'
_cell_volume   207.51922979
_cell_formula_units_Z   1
loop_
 _symmetry_equiv_pos_site_id
 _symmetry_equiv_pos_as_xyz
  1  'x, y, z'
loop_
 _atom_site_type_symbol
 _atom_site_label
 _atom_site_symmetry_multiplicity
 _atom_site_fract_x
 _atom_site_fract_y
 _atom_site_fract_z
 _atom_site_occupancy
  V  V0  1  0.50000000  0.74776964  0.50111226  1
  V  V1  1  0.75077064  0.00333701  0.24765303  1
  V  V2  1  0.75255478  0.99860582  0.75059563  1
  V  V3  1  0.00000000  0.49880495  0.12343871  1
  V  V4  1  0.00000000  0.49821230  0.62374855  1
  V  V5  1  0.50000000  0.25937220  0.00140285  1
  V  V6  1  0.50000000  0.24848168  0.50095233  1
  V  V7  1  0.24922936  0.00333701  0.24765303  1
  V  V8  1  0.24744522  0.99860582  0.75059563  1
  Ga  Ga0  1  0.50000000  0.50232600  0.25068280  1
  Ga  Ga1  1  0.50000000  0.50136555  0.75086312  1
  Ga  Ga2  1  0.00000000  0.99540044  0.99952567  1
  Ga  Ga3  1  0.00000000  0.99789385  0.49944447  1
  Fe  Fe0  1  0.00000000  0.49696264  0.37320877  1
  Fe  Fe1  1  0.00000000  0.49789034  0.87680364  1
  Fe  Fe2  1  0.50000000  0.75163176  0.00231951  1
loop_
_geom_bond_atom_site_label_1
_geom_bond_atom_site_label_2
_geom_bond_distance
_geom_bond_site_symmetry_2
V0 V6 2.345638 1_555
V0 V6 2.352328 1_565
V0 V4 2.855428 1_555
V0 V4 2.855428 1_655
V0 V2 2.892785 1_555
V0 V8 2.892785 1_555
V0 V1 2.929006 1_565
V0 V7 2.929006 1_565
V1 V7 2.322595 1_655
V1 V7 2.336958 1_555
V1 V3 2.855221 1_655
V1 V5 2.874133 1_555
V1 V3 2.890416 1_645
V1 V6 2.908405 1_555
V2 V8 2.305969 1_655
V2 V8 2.353585 1_555
V2 V4 2.878074 1_665
V2 V4 2.881474 1_655
V2 V6 2.891814 1_565
V2 V5 2.922312 1_566
V3 V5 2.834086 1_555
V3 V5 2.834086 1_455
V3 V7 2.855221 1_555
V3 V7 2.890416 1_565
V4 V6 2.856567 1_555
V4 V6 2.856567 1_455
V4 V8 2.878074 1_545
V4 V8 2.881474 1_555
V5 V7 2.874133 1_555
V5 V8 2.922312 1_544
V6 V8 2.891814 1_545
V6 V7 2.908405 1_555
Ga0 V7 2.619470 1_555
Ga0 V1 2.619470 1_555
Ga0 V3 2.623587 1_655
Ga0 V3 2.623587 1_555
Ga0 V5 2.624559 1_555
Ga0 V7 2.627965 1_565
Ga0 V1 2.627965 1_565
Ga0 V0 2.639467 1_555
Ga0 V6 2.655180 1_555
Ga1 V8 2.615688 1_555
Ga1 V2 2.615688 1_555
Ga1 V4 2.623013 1_555
Ga1 V4 2.623013 1_655
Ga1 V5 2.632965 1_556
Ga1 V0 2.635254 1_555
Ga1 V8 2.638872 1_545
Ga1 V2 2.638872 1_545
Ga1 V6 2.650533 1_555
Ga2 V3 2.611828 1_556
Ga2 V1 2.623547 1_466
Ga2 V7 2.623547 1_566
Ga2 V8 2.626481 1_555
Ga2 V2 2.626481 1_455
Ga2 V5 2.639339 1_566
Ga2 V5 2.639339 1_466
Ga2 V3 2.640850 1_566
Ga3 V0 2.609388 1_555
Ga3 V0 2.609388 1_455
Ga3 V6 2.610363 1_565
Ga3 V6 2.610363 1_465
Ga3 V4 2.626446 1_555
Ga3 V4 2.629533 1_565
Ga3 V8 2.645378 1_555
Ga3 V2 2.645378 1_455
Ga3 V7 2.654585 1_565
Ga3 V1 2.654585 1_465
Fe0 V3 2.367812 1_555
Fe0 V4 2.375103 1_555
Fe0 Ga0 2.603391 1_455
Fe0 Ga0 2.603391 1_555
Fe0 Ga3 2.632145 1_545
Fe0 Ga3 2.640358 1_555
Fe0 V1 2.853828 1_455
Fe0 V7 2.853828 1_555
Fe0 V6 2.873419 1_455
Fe0 V6 2.873419 1_555
Fe0 V0 2.878708 1_555
Fe0 V0 2.878708 1_455
Fe0 V1 2.902330 1_465
Fe0 V7 2.902330 1_565
Fe1 V3 2.338083 1_556
Fe1 V4 2.398940 1_555
Fe1 Ga2 2.611025 1_555
Fe1 Ga1 2.617924 1_555
Fe1 Ga1 2.617924 1_455
Fe1 Ga2 2.631582 1_545
Fe1 V8 2.874697 1_545
Fe1 V2 2.874697 1_445
Fe1 V8 2.879803 1_555
Fe1 V2 2.879803 1_455
Fe2 V5 2.312637 1_555
Fe2 V5 2.385361 1_565
Fe2 Ga2 2.596165 1_654
Fe2 Ga2 2.596165 1_554
Fe2 Ga0 2.629485 1_555
Fe2 Ga1 2.658175 1_554
Fe2 V3 2.855957 1_655
Fe2 V3 2.855957 1_555
Fe2 V7 2.858985 1_565
Fe2 V1 2.858985 1_565
Fe2 V8 2.902502 1_554
Fe2 V2 2.902502 1_554
