# generated using pymatgen
data_MgNi9O13
_symmetry_space_group_name_H-M   'P 1'
_cell_length_a   2.95748309
_cell_length_b   5.10642119
_cell_length_c   16.96300716
_cell_angle_alpha   98.52100819
_cell_angle_beta   89.99358321
_cell_angle_gamma   106.81468279
_symmetry_Int_Tables_number   1
_chemical_formula_structural   MgNi9O13
_chemical_formula_sum   'Mg1 Ni9 O13'
_cell_volume   242.27086145
_cell_formula_units_Z   1
loop_
 _symmetry_equiv_pos_site_id
 _symmetry_equiv_pos_as_xyz
  1  'x, y, z'
loop_
 _atom_site_type_symbol
 _atom_site_label
 _atom_site_symmetry_multiplicity
 _atom_site_fract_x
 _atom_site_fract_y
 _atom_site_fract_z
 _atom_site_occupancy
  Mg  Mg0  1  0.44363400  0.88591800  0.77196900  1
  Ni  Ni0  1  0.50161700  0.00269600  0.48223300  1
  Ni  Ni1  1  0.65802700  0.31631100  0.06469800  1
  Ni  Ni2  1  0.36515500  0.73083800  0.98205800  1
  Ni  Ni3  1  0.75148200  0.50232200  0.39911200  1
  Ni  Ni4  1  0.25652900  0.51256600  0.56032300  1
  Ni  Ni5  1  0.94668500  0.89282700  0.13715900  1
  Ni  Ni6  1  0.08460500  0.16933200  0.90091600  1
  Ni  Ni7  1  0.99886200  0.99801200  0.32801200  1
  Ni  Ni8  1  0.02037700  0.04012400  0.64339200  1
  O  O0  1  0.01049100  0.01994700  0.03298500  1
  O  O1  1  0.88049400  0.76026800  0.23200400  1
  O  O2  1  0.07467100  0.14833500  0.77397800  1
  O  O3  1  0.30697500  0.61576800  0.08986700  1
  O  O4  1  0.71573200  0.43307700  0.95351800  1
  O  O5  1  0.57396600  0.14588100  0.16344700  1
  O  O6  1  0.44720400  0.89325200  0.88613700  1
  O  O7  1  0.61131600  0.22293600  0.30188300  1
  O  O8  1  0.39176500  0.78239600  0.65783100  1
  O  O9  1  0.38744600  0.77417600  0.37267500  1
  O  O10  1  0.62461400  0.24897400  0.58992000  1
  O  O11  1  0.12306200  0.24587300  0.43640500  1
  O  O12  1  0.86695600  0.73317200  0.51031500  1
loop_
_geom_bond_atom_site_label_1
_geom_bond_atom_site_label_2
_geom_bond_distance
_geom_bond_site_symmetry_2
Mg0 O8 1.923902 1_555
Mg0 O6 1.931409 1_555
Mg0 O2 1.954331 1_665
Mg0 O2 1.954469 1_565
Ni0 O9 2.014697 1_545
Ni0 O10 2.026178 1_555
Ni0 O12 2.084064 1_545
Ni0 O12 2.084165 1_445
Ni0 O11 2.118859 1_655
Ni0 O11 2.119040 1_555
Ni1 O5 1.982887 1_555
Ni1 O4 2.053227 1_554
Ni1 O3 2.076746 1_655
Ni1 O3 2.079294 1_555
Ni1 O0 2.080714 1_555
Ni1 O0 2.082682 1_655
Ni2 O6 1.917700 1_555
Ni2 O3 1.994777 1_556
Ni2 O4 2.077285 1_555
Ni2 O4 2.080310 1_455
Ni2 O0 2.131609 1_566
Ni2 O0 2.135576 1_666
Ni3 O7 1.971823 1_555
Ni3 O12 2.042737 1_555
Ni3 O9 2.082458 1_555
Ni3 O9 2.083149 1_655
Ni3 O11 2.097855 1_655
Ni3 O11 2.099137 1_555
Ni4 O8 1.949417 1_555
Ni4 O10 2.072919 1_555
Ni4 O10 2.073931 1_455
Ni4 O12 2.085758 1_455
Ni4 O12 2.086635 1_555
Ni4 O11 2.295602 1_555
Ni5 O1 1.825084 1_555
Ni5 O5 1.933117 1_565
Ni5 O5 1.937209 1_665
Ni5 O0 1.961790 1_665
Ni5 O3 2.077548 1_655
Ni5 O3 2.083257 1_555
Ni6 O6 1.990416 1_445
Ni6 O6 1.992537 1_545
Ni6 O4 2.069753 1_555
Ni6 O4 2.072167 1_455
Ni6 O2 2.139771 1_555
Ni6 O0 2.461386 1_556
Ni7 O1 1.848518 1_555
Ni7 O7 1.934403 1_565
Ni7 O7 1.934832 1_665
Ni7 O11 2.039392 1_665
Ni7 O9 2.052012 1_555
Ni7 O9 2.053767 1_655
Ni8 O8 1.981963 1_445
Ni8 O8 1.982512 1_545
Ni8 O10 2.082602 1_555
Ni8 O10 2.083070 1_455
Ni8 O2 2.196347 1_555
Ni8 O12 2.509722 1_445
