# generated using pymatgen
data_YErFe14B
_symmetry_space_group_name_H-M   'P 1'
_cell_length_a   8.72355500
_cell_length_b   8.72355500
_cell_length_c   11.90714900
_cell_angle_alpha   90.00000000
_cell_angle_beta   90.00000000
_cell_angle_gamma   90.00000000
_symmetry_Int_Tables_number   1
_chemical_formula_structural   YErFe14B
_chemical_formula_sum   'Y4 Er4 Fe56 B4'
_cell_volume   906.13894272
_cell_formula_units_Z   4
loop_
 _symmetry_equiv_pos_site_id
 _symmetry_equiv_pos_as_xyz
  1  'x, y, z'
loop_
 _atom_site_type_symbol
 _atom_site_label
 _atom_site_symmetry_multiplicity
 _atom_site_fract_x
 _atom_site_fract_y
 _atom_site_fract_z
 _atom_site_occupancy
  Y  Y0  1  0.23242800  0.76757200  0.50000000  1
  Y  Y1  1  0.76757200  0.23242800  0.50000000  1
  Y  Y2  1  0.26757200  0.26757200  0.00000000  1
  Y  Y3  1  0.73242800  0.73242800  0.00000000  1
  Er  Er0  1  0.64378400  0.64378400  0.50000000  1
  Er  Er1  1  0.35621600  0.35621600  0.50000000  1
  Er  Er2  1  0.85621600  0.14378400  0.00000000  1
  Er  Er3  1  0.14378400  0.85621600  0.00000000  1
  Fe  Fe0  1  0.93308400  0.72518800  0.37317900  1
  Fe  Fe1  1  0.06691600  0.27481200  0.37317900  1
  Fe  Fe2  1  0.56691600  0.22518800  0.87317900  1
  Fe  Fe3  1  0.43308400  0.77481200  0.87317900  1
  Fe  Fe4  1  0.06691600  0.27481200  0.62682100  1
  Fe  Fe5  1  0.93308400  0.72518800  0.62682100  1
  Fe  Fe6  1  0.43308400  0.77481200  0.12682100  1
  Fe  Fe7  1  0.56691600  0.22518800  0.12682100  1
  Fe  Fe8  1  0.72518800  0.93308400  0.37317900  1
  Fe  Fe9  1  0.27481200  0.06691600  0.37317900  1
  Fe  Fe10  1  0.22518800  0.56691600  0.87317900  1
  Fe  Fe11  1  0.77481200  0.43308400  0.87317900  1
  Fe  Fe12  1  0.27481200  0.06691600  0.62682100  1
  Fe  Fe13  1  0.72518800  0.93308400  0.62682100  1
  Fe  Fe14  1  0.77481200  0.43308400  0.12682100  1
  Fe  Fe15  1  0.22518800  0.56691600  0.12682100  1
  Fe  Fe16  1  0.14102900  0.53635100  0.32537700  1
  Fe  Fe17  1  0.85897100  0.46364900  0.32537700  1
  Fe  Fe18  1  0.35897100  0.03635100  0.82537700  1
  Fe  Fe19  1  0.64102900  0.96364900  0.82537700  1
  Fe  Fe20  1  0.85897100  0.46364900  0.67462300  1
  Fe  Fe21  1  0.14102900  0.53635100  0.67462300  1
  Fe  Fe22  1  0.64102900  0.96364900  0.17462300  1
  Fe  Fe23  1  0.35897100  0.03635100  0.17462300  1
  Fe  Fe24  1  0.53635100  0.14102900  0.32537700  1
  Fe  Fe25  1  0.46364900  0.85897100  0.32537700  1
  Fe  Fe26  1  0.03635100  0.35897100  0.82537700  1
  Fe  Fe27  1  0.96364900  0.64102900  0.82537700  1
  Fe  Fe28  1  0.46364900  0.85897100  0.67462300  1
  Fe  Fe29  1  0.53635100  0.14102900  0.67462300  1
  Fe  Fe30  1  0.96364900  0.64102900  0.17462300  1
  Fe  Fe31  1  0.03635100  0.35897100  0.17462300  1
  Fe  Fe32  1  0.18270600  0.81729400  0.25351300  1
  Fe  Fe33  1  0.81729400  0.18270600  0.25351300  1
  Fe  Fe34  1  0.31729400  0.31729400  0.75351300  1
  Fe  Fe35  1  0.68270600  0.68270600  0.75351300  1
  Fe  Fe36  1  0.81729400  0.18270600  0.74648700  1
  Fe  Fe37  1  0.18270600  0.81729400  0.74648700  1
  Fe  Fe38  1  0.68270600  0.68270600  0.24648700  1
  Fe  Fe39  1  0.31729400  0.31729400  0.24648700  1
  Fe  Fe40  1  0.40294500  0.59705500  0.30124300  1
  Fe  Fe41  1  0.59705500  0.40294500  0.30124300  1
  Fe  Fe42  1  0.09705500  0.09705500  0.80124300  1
  Fe  Fe43  1  0.90294500  0.90294500  0.80124300  1
  Fe  Fe44  1  0.59705500  0.40294500  0.69875700  1
  Fe  Fe45  1  0.40294500  0.59705500  0.69875700  1
  Fe  Fe46  1  0.90294500  0.90294500  0.19875700  1
  Fe  Fe47  1  0.09705500  0.09705500  0.19875700  1
  Fe  Fe48  1  0.50000000  0.50000000  0.11756300  1
  Fe  Fe49  1  0.00000000  0.00000000  0.61756300  1
  Fe  Fe50  1  0.50000000  0.50000000  0.88243700  1
  Fe  Fe51  1  0.00000000  0.00000000  0.38243700  1
  Fe  Fe52  1  0.00000000  0.50000000  0.50000000  1
  Fe  Fe53  1  0.50000000  0.00000000  0.00000000  1
  Fe  Fe54  1  0.50000000  0.00000000  0.50000000  1
  Fe  Fe55  1  0.00000000  0.50000000  0.00000000  1
  B  B0  1  0.87657700  0.87657700  0.50000000  1
  B  B1  1  0.12342300  0.12342300  0.50000000  1
  B  B2  1  0.62342300  0.37657700  0.00000000  1
  B  B3  1  0.37657700  0.62342300  0.00000000  1
loop_
_geom_bond_atom_site_label_1
_geom_bond_atom_site_label_2
_geom_bond_distance
_geom_bond_site_symmetry_2
Er0 Fe13 3.025525 1_555
Er0 Fe8 3.025525 1_555
Er0 Fe5 3.025525 1_555
Er0 Fe0 3.025525 1_555
Er0 Fe35 3.056570 1_555
Er0 Fe38 3.056570 1_555
Er0 Fe44 3.190798 1_555
Er0 Fe41 3.190798 1_555
Er0 Fe45 3.190798 1_555
Er0 Fe40 3.190798 1_555
Er0 Fe17 3.211938 1_555
Er0 Fe28 3.211938 1_555
Er0 Fe25 3.211938 1_555
Er0 Fe20 3.211938 1_555
Er0 Fe54 3.351068 1_565
Er0 Fe52 3.351068 1_655
Er1 Fe12 3.025525 1_555
Er1 Fe4 3.025525 1_555
Er1 Fe1 3.025525 1_555
Er1 Fe9 3.025525 1_555
Er1 Fe34 3.056570 1_555
Er1 Fe39 3.056570 1_555
Er1 Fe44 3.190798 1_555
Er1 Fe41 3.190798 1_555
Er1 Fe45 3.190798 1_555
Er1 Fe40 3.190798 1_555
Er1 Fe21 3.211938 1_555
Er1 Fe16 3.211938 1_555
Er1 Fe24 3.211938 1_555
Er1 Fe29 3.211938 1_555
Er1 Fe54 3.351068 1_555
Er1 Fe52 3.351068 1_555
Er2 Fe2 3.025525 1_554
Er2 Fe11 3.025525 1_554
Er2 Fe14 3.025525 1_555
Er2 Fe7 3.025525 1_555
Er2 Fe36 3.056570 1_554
Er2 Fe33 3.056570 1_555
Er2 Fe46 3.190798 1_545
Er2 Fe43 3.190798 1_544
Er2 Fe47 3.190798 1_655
Er2 Fe42 3.190798 1_654
Er2 Fe26 3.211938 1_654
Er2 Fe31 3.211938 1_655
Er2 Fe19 3.211938 1_544
Er2 Fe22 3.211938 1_545
Er2 Fe53 3.351068 1_555
Er2 Fe55 3.351068 1_655
Er3 Fe10 3.025525 1_554
Er3 Fe15 3.025525 1_555
Er3 Fe3 3.025525 1_554
Er3 Fe6 3.025525 1_555
Er3 Fe32 3.056570 1_555
Er3 Fe37 3.056570 1_554
Er3 Fe46 3.190798 1_455
Er3 Fe43 3.190798 1_454
Er3 Fe47 3.190798 1_565
Er3 Fe42 3.190798 1_564
Er3 Fe18 3.211938 1_564
Er3 Fe27 3.211938 1_454
Er3 Fe23 3.211938 1_565
Er3 Fe30 3.211938 1_455
Er3 Fe53 3.351068 1_565
Er3 Fe55 3.351068 1_555
Fe0 Fe17 2.438738 1_555
Fe0 Fe30 2.489921 1_555
Fe0 Fe16 2.515618 1_655
Fe0 Fe52 2.545607 1_655
Fe0 Fe46 2.605206 1_555
Fe0 Fe38 2.680243 1_555
Fe0 Fe32 2.723562 1_655
Fe0 Y0 3.039104 1_655
Fe1 Fe16 2.438738 1_555
Fe1 Fe31 2.489921 1_555
Fe1 Fe17 2.515618 1_455
Fe1 Fe52 2.545607 1_555
Fe1 Fe47 2.605206 1_555
Fe1 Fe39 2.680243 1_555
Fe1 Fe33 2.723562 1_455
Fe1 Y1 3.039104 1_455
Fe2 Fe29 2.489921 1_555
Fe2 Fe53 2.545607 1_556
Fe2 Fe44 2.605206 1_555
Fe2 Fe36 2.680243 1_555
Fe2 Fe34 2.723562 1_555
Fe2 Y2 3.039104 1_556
Fe3 Fe53 2.545607 1_566
Fe3 Fe45 2.605206 1_555
Fe3 Fe37 2.680243 1_555
Fe3 Fe35 2.723562 1_555
Fe3 Y3 3.039104 1_556
Fe4 Fe52 2.545607 1_555
Fe4 Fe42 2.605206 1_555
Fe4 Y1 3.039104 1_455
Fe5 Fe52 2.545607 1_655
Fe5 Y0 3.039104 1_655
Fe6 Y3 3.039104 1_555
Fe7 Y2 3.039104 1_555
Fe8 Y1 3.039104 1_565
Fe9 Y0 3.039104 1_545
Fe10 Fe27 2.438738 1_455
Fe10 Fe21 2.489921 1_555
Fe10 Fe26 2.515618 1_555
Fe10 Fe55 2.545607 1_556
Fe10 Fe45 2.605206 1_555
Fe10 Fe37 2.680243 1_555
Fe10 Fe34 2.723562 1_555
Fe10 Y2 3.039104 1_556
Fe11 Fe26 2.438738 1_655
Fe11 Fe20 2.489921 1_555
Fe11 Fe27 2.515618 1_555
Fe11 Fe55 2.545607 1_656
Fe11 Fe44 2.605206 1_555
Fe11 Fe36 2.680243 1_555
Fe11 Fe35 2.723562 1_555
Fe11 Y3 3.039104 1_556
Fe12 Fe29 2.438738 1_555
Fe12 Fe18 2.489921 1_555
Fe12 Fe28 2.515618 1_545
Fe12 Fe54 2.545607 1_555
Fe12 Fe42 2.605206 1_555
Fe12 Fe34 2.680243 1_555
Fe12 Fe37 2.723562 1_545
Fe12 Y0 3.039104 1_545
Fe13 Fe28 2.438738 1_555
Fe13 Fe19 2.489921 1_555
Fe13 Fe29 2.515618 1_565
Fe13 Fe54 2.545607 1_565
Fe13 Fe43 2.605206 1_555
Fe13 Fe35 2.680243 1_555
Fe13 Fe36 2.723562 1_565
Fe13 Y1 3.039104 1_565
Fe14 Fe31 2.438738 1_655
Fe14 Fe17 2.489921 1_555
Fe14 Fe30 2.515618 1_555
Fe14 Fe55 2.545607 1_655
Fe14 Fe41 2.605206 1_555
Fe14 Fe33 2.680243 1_555
Fe14 Fe38 2.723562 1_555
Fe14 Y3 3.039104 1_555
Fe15 Fe30 2.438738 1_455
Fe15 Fe16 2.489921 1_555
Fe15 Fe31 2.515618 1_555
Fe15 Fe55 2.545607 1_555
Fe15 Fe40 2.605206 1_555
Fe15 Fe32 2.680243 1_555
Fe15 Fe39 2.723562 1_555
Fe15 Y2 3.039104 1_555
Fe16 Fe40 2.362942 1_555
Fe16 Fe52 2.436691 1_555
Fe16 Fe30 2.539778 1_455
Fe16 Fe31 2.539778 1_555
Fe16 Fe17 2.540971 1_455
Fe16 Fe32 2.621245 1_555
Fe16 Fe39 2.626505 1_555
Fe16 Y0 3.004601 1_555
Fe17 Fe41 2.362942 1_555
Fe17 Fe52 2.436691 1_655
Fe17 Fe31 2.539778 1_655
Fe17 Fe30 2.539778 1_555
Fe17 Fe33 2.621245 1_555
Fe17 Fe38 2.626505 1_555
Fe17 Y1 3.004601 1_555
Fe18 Fe42 2.362942 1_555
Fe18 Fe53 2.436691 1_556
Fe18 Fe3 2.438738 1_545
Fe18 Fe2 2.515618 1_555
Fe18 Fe29 2.539778 1_555
Fe18 Fe28 2.539778 1_545
Fe18 Fe19 2.540971 1_545
Fe18 Fe34 2.621245 1_555
Fe18 Fe37 2.626505 1_545
Fe18 Y2 3.004601 1_556
Fe19 Fe43 2.362942 1_555
Fe19 Fe53 2.436691 1_566
Fe19 Fe2 2.438738 1_565
Fe19 Fe3 2.515618 1_555
Fe19 Fe28 2.539778 1_555
Fe19 Fe29 2.539778 1_565
Fe19 Fe35 2.621245 1_555
Fe19 Fe36 2.626505 1_565
Fe19 Y3 3.004601 1_556
Fe20 Fe44 2.362942 1_555
Fe20 Fe52 2.436691 1_655
Fe20 Fe5 2.438738 1_555
Fe20 Fe4 2.515618 1_655
Fe20 Fe26 2.539778 1_655
Fe20 Fe27 2.539778 1_555
Fe20 Fe21 2.540971 1_655
Fe20 Fe36 2.621245 1_555
Fe20 Fe35 2.626505 1_555
Fe20 Y1 3.004601 1_555
Fe21 Fe45 2.362942 1_555
Fe21 Fe52 2.436691 1_555
Fe21 Fe4 2.438738 1_555
Fe21 Fe5 2.515618 1_455
Fe21 Fe27 2.539778 1_455
Fe21 Fe26 2.539778 1_555
Fe21 Fe37 2.621245 1_555
Fe21 Fe34 2.626505 1_555
Fe21 Y0 3.004601 1_555
Fe22 Fe46 2.362942 1_555
Fe22 Fe53 2.436691 1_565
Fe22 Fe7 2.438738 1_565
Fe22 Fe8 2.489921 1_555
Fe22 Fe6 2.515618 1_555
Fe22 Fe25 2.539778 1_555
Fe22 Fe24 2.539778 1_565
Fe22 Fe23 2.540971 1_565
Fe22 Fe38 2.621245 1_555
Fe22 Fe33 2.626505 1_565
Fe22 Y3 3.004601 1_555
Fe23 Fe47 2.362942 1_555
Fe23 Fe53 2.436691 1_555
Fe23 Fe6 2.438738 1_545
Fe23 Fe9 2.489921 1_555
Fe23 Fe7 2.515618 1_555
Fe23 Fe25 2.539778 1_545
Fe23 Fe24 2.539778 1_555
Fe23 Fe39 2.621245 1_555
Fe23 Fe32 2.626505 1_545
Fe23 Y2 3.004601 1_555
Fe24 Fe41 2.362942 1_555
Fe24 Fe54 2.436691 1_555
Fe24 Fe9 2.438738 1_555
Fe24 Fe7 2.489921 1_555
Fe24 Fe8 2.515618 1_545
Fe24 Fe25 2.540971 1_545
Fe24 Fe33 2.621245 1_555
Fe24 Fe39 2.626505 1_555
Fe24 Y1 3.004601 1_555
Fe25 Fe40 2.362942 1_555
Fe25 Fe54 2.436691 1_565
Fe25 Fe8 2.438738 1_555
Fe25 Fe6 2.489921 1_555
Fe25 Fe9 2.515618 1_565
Fe25 Fe32 2.621245 1_555
Fe25 Fe38 2.626505 1_555
Fe25 Y0 3.004601 1_555
Fe26 Fe42 2.362942 1_555
Fe26 Fe55 2.436691 1_556
Fe26 Fe4 2.489921 1_555
Fe26 Fe27 2.540971 1_455
Fe26 Fe34 2.621245 1_555
Fe26 Fe36 2.626505 1_455
Fe26 Y2 3.004601 1_556
Fe27 Fe43 2.362942 1_555
Fe27 Fe55 2.436691 1_656
Fe27 Fe5 2.489921 1_555
Fe27 Fe35 2.621245 1_555
Fe27 Fe37 2.626505 1_655
Fe27 Y3 3.004601 1_556
Fe28 Fe45 2.362942 1_555
Fe28 Fe54 2.436691 1_565
Fe28 Fe3 2.489921 1_555
Fe28 Fe29 2.540971 1_565
Fe28 Fe37 2.621245 1_555
Fe28 Fe35 2.626505 1_555
Fe28 Y0 3.004601 1_555
Fe29 Fe44 2.362942 1_555
Fe29 Fe54 2.436691 1_555
Fe29 Fe36 2.621245 1_555
Fe29 Fe34 2.626505 1_555
Fe29 Y1 3.004601 1_555
Fe30 Fe46 2.362942 1_555
Fe30 Fe55 2.436691 1_655
Fe30 Fe31 2.540971 1_655
Fe30 Fe38 2.621245 1_555
Fe30 Fe32 2.626505 1_655
Fe30 Y3 3.004601 1_555
Fe31 Fe47 2.362942 1_555
Fe31 Fe55 2.436691 1_555
Fe31 Fe39 2.621245 1_555
Fe31 Fe33 2.626505 1_455
Fe31 Y2 3.004601 1_555
Fe32 Fe46 2.634285 1_455
Fe32 Fe47 2.634285 1_565
Fe32 Fe6 2.680243 1_555
Fe32 Fe9 2.723562 1_565
Fe32 Fe51 2.727137 1_565
Fe32 Fe40 2.775884 1_555
Fe32 Y0 2.998376 1_555
Fe33 Fe46 2.634285 1_545
Fe33 Fe47 2.634285 1_655
Fe33 Fe7 2.680243 1_555
Fe33 Fe8 2.723562 1_545
Fe33 Fe51 2.727137 1_655
Fe33 Fe41 2.775884 1_555
Fe33 Y1 2.998376 1_555
Fe34 Fe44 2.634285 1_555
Fe34 Fe45 2.634285 1_555
Fe34 Fe4 2.680243 1_555
Fe34 Fe50 2.727137 1_555
Fe34 Fe42 2.775884 1_555
Fe34 Y2 2.998376 1_556
Fe35 Fe44 2.634285 1_555
Fe35 Fe45 2.634285 1_555
Fe35 Fe5 2.680243 1_555
Fe35 Fe50 2.727137 1_555
Fe35 Fe43 2.775884 1_555
Fe35 Y3 2.998376 1_556
Fe36 Fe43 2.634285 1_545
Fe36 Fe42 2.634285 1_655
Fe36 Fe4 2.723562 1_655
Fe36 Fe49 2.727137 1_655
Fe36 Fe44 2.775884 1_555
Fe36 Y1 2.998376 1_555
Fe37 Fe43 2.634285 1_455
Fe37 Fe42 2.634285 1_565
Fe37 Fe5 2.723562 1_455
Fe37 Fe49 2.727137 1_565
Fe37 Fe45 2.775884 1_555
Fe37 Y0 2.998376 1_555
Fe38 Fe40 2.634285 1_555
Fe38 Fe41 2.634285 1_555
Fe38 Fe8 2.680243 1_555
Fe38 Fe6 2.723562 1_555
Fe38 Fe48 2.727137 1_555
Fe38 Fe46 2.775884 1_555
Fe38 Y3 2.998376 1_555
Fe39 Fe40 2.634285 1_555
Fe39 Fe41 2.634285 1_555
Fe39 Fe9 2.680243 1_555
Fe39 Fe7 2.723562 1_555
Fe39 Fe48 2.727137 1_555
Fe39 Fe47 2.775884 1_555
Fe39 Y2 2.998376 1_555
Fe40 Fe41 2.394729 1_555
Fe40 Fe48 2.493413 1_555
Fe40 Fe6 2.605206 1_555
Fe40 Y0 3.166438 1_555
Fe41 Fe48 2.493413 1_555
Fe41 Fe7 2.605206 1_555
Fe41 Y1 3.166438 1_555
Fe42 Fe43 2.394729 1_445
Fe42 Fe49 2.493413 1_555
Fe42 Y2 3.166438 1_556
Fe43 Fe49 2.493413 1_665
Fe43 Fe5 2.605206 1_555
Fe43 Y3 3.166438 1_556
Fe44 Fe45 2.394729 1_555
Fe44 Fe50 2.493413 1_555
Fe44 Y1 3.166438 1_555
Fe45 Fe50 2.493413 1_555
Fe45 Y0 3.166438 1_555
Fe46 Fe47 2.394729 1_665
Fe46 Fe51 2.493413 1_665
Fe46 Fe8 2.605206 1_555
Fe46 Y3 3.166438 1_555
Fe47 Fe51 2.493413 1_555
Fe47 Fe9 2.605206 1_555
Fe47 Y2 3.166438 1_555
Fe48 Y3 3.190903 1_555
Fe48 Y2 3.190903 1_555
Fe49 Y1 3.190903 1_455
Fe49 Y0 3.190903 1_545
Fe50 Y3 3.190903 1_556
Fe50 Y2 3.190903 1_556
Fe51 Y1 3.190903 1_455
Fe51 Y0 3.190903 1_545
Fe52 Y0 3.091852 1_555
Fe52 Y1 3.091852 1_455
Fe53 Fe7 2.545607 1_555
Fe53 Fe6 2.545607 1_545
Fe53 Y2 3.091852 1_555
Fe53 Y3 3.091852 1_545
Fe54 Fe9 2.545607 1_555
Fe54 Fe8 2.545607 1_545
Fe54 Y1 3.091852 1_555
Fe54 Y0 3.091852 1_545
Fe55 Y3 3.091852 1_455
Fe55 Y2 3.091852 1_555
B0 Fe13 2.065778 1_555
B0 Fe5 2.065778 1_555
B0 Fe8 2.065778 1_555
B0 Fe0 2.065778 1_555
B0 Fe51 2.068348 1_665
B0 Fe49 2.068348 1_665
B0 Er0 2.871960 1_555
B0 Y0 3.246663 1_655
B0 Y1 3.246663 1_565
B1 Fe12 2.065778 1_555
B1 Fe4 2.065778 1_555
B1 Fe1 2.065778 1_555
B1 Fe9 2.065778 1_555
B1 Fe49 2.068348 1_555
B1 Fe51 2.068348 1_555
B1 Er1 2.871960 1_555
B1 Y1 3.246663 1_455
B1 Y0 3.246663 1_545
B2 Fe11 2.065778 1_554
B2 Fe7 2.065778 1_555
B2 Fe2 2.065778 1_554
B2 Fe14 2.065778 1_555
B2 Fe50 2.068348 1_554
B2 Fe48 2.068348 1_555
B2 Er2 2.871960 1_555
B2 Y3 3.246663 1_555
B2 Y2 3.246663 1_555
B3 Fe15 2.065778 1_555
B3 Fe3 2.065778 1_554
B3 Fe10 2.065778 1_554
B3 Fe6 2.065778 1_555
B3 Fe50 2.068348 1_554
B3 Fe48 2.068348 1_555
B3 Er3 2.871960 1_555
B3 Y3 3.246663 1_555
B3 Y2 3.246663 1_555
