# generated using pymatgen
data_Li4Ti3(CoO4)3
_symmetry_space_group_name_H-M   'P 1'
_cell_length_a   6.61566333
_cell_length_b   8.40519136
_cell_length_c   8.64619105
_cell_angle_alpha   88.66931712
_cell_angle_beta   91.43236271
_cell_angle_gamma   108.56025920
_symmetry_Int_Tables_number   1
_chemical_formula_structural   Li4Ti3(CoO4)3
_chemical_formula_sum   'Li8 Ti6 Co6 O24'
_cell_volume   455.57222299
_cell_formula_units_Z   2
loop_
 _symmetry_equiv_pos_site_id
 _symmetry_equiv_pos_as_xyz
  1  'x, y, z'
loop_
 _atom_site_type_symbol
 _atom_site_label
 _atom_site_symmetry_multiplicity
 _atom_site_fract_x
 _atom_site_fract_y
 _atom_site_fract_z
 _atom_site_occupancy
  Li  Li0  1  0.33319300  0.58332600  0.74994400  1
  Li  Li1  1  0.33331700  0.08334400  0.25001600  1
  Li  Li2  1  0.32902400  0.33208200  0.99952200  1
  Li  Li3  1  0.33748100  0.83436400  0.50042600  1
  Li  Li4  1  0.98934600  0.76028600  0.23139500  1
  Li  Li5  1  0.99170200  0.27613700  0.73357000  1
  Li  Li6  1  0.67745900  0.40645900  0.26861800  1
  Li  Li7  1  0.67494900  0.89046400  0.76644700  1
  Ti  Ti0  1  0.33787400  0.82700600  0.99313300  1
  Ti  Ti1  1  0.32881300  0.33959100  0.50689000  1
  Ti  Ti2  1  0.67609400  0.15944600  0.99308200  1
  Ti  Ti3  1  0.68733600  0.65896800  0.48759900  1
  Ti  Ti4  1  0.97929800  0.50771700  0.01240500  1
  Ti  Ti5  1  0.99052100  0.00722500  0.50694500  1
  Co  Co0  1  0.33335300  0.08331900  0.75001200  1
  Co  Co1  1  0.66851000  0.91542400  0.24956500  1
  Co  Co2  1  0.99821000  0.25128700  0.25042700  1
  Co  Co3  1  0.33338700  0.58333600  0.25000700  1
  Co  Co4  1  0.66536500  0.41995400  0.75010900  1
  Co  Co5  1  0.00132400  0.74672800  0.74988200  1
  O  O0  1  0.99461800  0.51805600  0.77303600  1
  O  O1  1  0.97526200  0.99718600  0.27436500  1
  O  O2  1  0.67202900  0.64861400  0.72695700  1
  O  O3  1  0.69145200  0.16952200  0.22563600  1
  O  O4  1  0.99355800  0.27354800  0.00595700  1
  O  O5  1  0.99115300  0.75898800  0.50731200  1
  O  O6  1  0.67553300  0.40769900  0.99270100  1
  O  O7  1  0.67310500  0.89313300  0.49401400  1
  O  O8  1  0.33131700  0.33327500  0.73121100  1
  O  O9  1  0.36361500  0.84173300  0.23377500  1
  O  O10  1  0.30306600  0.32496000  0.26622700  1
  O  O11  1  0.33532800  0.83337700  0.76879000  1
  O  O12  1  0.36634800  0.08210300  0.99498000  1
  O  O13  1  0.35364800  0.57303300  0.49321100  1
  O  O14  1  0.31303000  0.59365500  0.00679100  1
  O  O15  1  0.30030000  0.08458300  0.50501100  1
  O  O16  1  0.65458500  0.92857800  0.00276800  1
  O  O17  1  0.63864900  0.41777300  0.50343600  1
  O  O18  1  0.02802500  0.74891300  0.99656000  1
  O  O19  1  0.01205800  0.23808400  0.49725300  1
  O  O20  1  0.66921200  0.66748600  0.27095100  1
  O  O21  1  0.67213200  0.19269500  0.76986100  1
  O  O22  1  0.99755500  0.49922100  0.22905000  1
  O  O23  1  0.99452300  0.97398800  0.73015400  1
loop_
_geom_bond_atom_site_label_1
_geom_bond_atom_site_label_2
_geom_bond_distance
_geom_bond_site_symmetry_2
Li0 O11 2.107344 1_555
Li0 O8 2.107782 1_555
Li0 O0 2.143122 1_455
Li0 O2 2.144676 1_555
Li0 O13 2.232607 1_555
Li0 O14 2.233426 1_556
Li1 O10 2.111237 1_555
Li1 O9 2.111344 1_545
Li1 O15 2.221546 1_555
Li1 O12 2.221912 1_554
Li1 O1 2.259568 1_445
Li1 O3 2.260097 1_555
Li2 O4 2.116690 1_456
Li2 O6 2.177147 1_555
Li2 O12 2.193586 1_555
Li2 O14 2.236897 1_556
Li2 O10 2.314621 1_556
Li2 O8 2.320065 1_555
Li3 O7 2.117500 1_555
Li3 O5 2.176112 1_455
Li3 O15 2.195213 1_565
Li3 O13 2.235254 1_555
Li3 O9 2.314219 1_555
Li3 O11 2.320532 1_555
Li4 O20 2.045249 1_555
Li4 O18 2.061023 1_654
Li4 O1 2.065369 1_555
Li4 O22 2.212759 1_555
Li4 O9 2.349228 1_655
Li4 O5 2.385151 1_555
Li5 O21 2.034468 1_555
Li5 O0 2.063577 1_555
Li5 O19 2.089689 1_655
Li5 O8 2.143361 1_655
Li5 O4 2.354466 1_556
Li5 O23 2.546483 1_545
Li6 O22 2.045022 1_555
Li6 O17 2.060966 1_555
Li6 O3 2.065481 1_555
Li6 O20 2.212522 1_555
Li6 O10 2.349996 1_555
Li6 O6 2.385145 1_554
Li7 O23 2.034503 1_555
Li7 O2 2.063036 1_555
Li7 O16 2.089831 1_556
Li7 O11 2.143443 1_555
Li7 O7 2.354857 1_555
Li7 O21 2.547163 1_565
Co0 O11 2.107477 1_545
Co0 O8 2.107735 1_555
Co0 O12 2.123946 1_555
Co0 O15 2.124266 1_555
Co0 O21 2.138743 1_555
Co0 O23 2.139018 1_445
Co1 O9 1.914606 1_555
Co1 O1 1.932318 1_555
Co1 O20 2.089342 1_555
Co1 O3 2.098076 1_565
Co1 O7 2.117818 1_555
Co1 O16 2.135355 1_555
Co2 O10 1.914368 1_655
Co2 O3 1.932348 1_555
Co2 O22 2.089205 1_555
Co2 O1 2.098098 1_545
Co2 O4 2.117988 1_555
Co2 O19 2.135605 1_655
Co3 O13 2.105238 1_555
Co3 O14 2.105379 1_555
Co3 O20 2.110570 1_555
Co3 O22 2.110621 1_455
Co3 O10 2.118047 1_555
Co3 O9 2.118369 1_555
Co4 O2 1.914279 1_555
Co4 O21 1.928411 1_555
Co4 O0 2.075207 1_555
Co4 O6 2.098083 1_555
Co4 O8 2.098539 1_555
Co4 O17 2.135706 1_555
Co5 O0 1.914299 1_455
Co5 O23 1.928481 1_455
Co5 O2 2.075468 1_455
Co5 O5 2.097895 1_455
Co5 O11 2.098267 1_555
Co5 O18 2.135744 1_555
O0 Ti4 2.073094 1_556
O1 Ti5 2.013322 1_565
O2 Ti3 2.072994 1_555
O3 Ti2 2.013120 1_554
O4 Ti4 2.002379 1_555
O4 Ti2 2.013494 1_554
O5 Ti3 1.920818 1_555
O5 Ti5 2.087743 1_565
O6 Ti4 1.920499 1_556
O6 Ti2 2.087724 1_555
O7 Ti3 2.002262 1_555
O7 Ti5 2.013219 1_565
O8 Ti1 1.938817 1_555
O9 Ti0 2.086672 1_554
O10 Ti1 2.086809 1_555
O11 Ti0 1.939008 1_555
O12 Ti2 1.942972 1_555
O12 Ti0 2.092221 1_545
O13 Ti1 1.917259 1_555
O13 Ti3 2.094295 1_555
O14 Ti0 1.916477 1_554
O14 Ti4 2.094571 1_455
O15 Ti5 1.943187 1_455
O15 Ti1 2.091423 1_555
O16 Ti2 1.900007 1_564
O16 Ti0 1.995423 1_554
O17 Ti1 1.943949 1_555
O17 Ti3 1.950903 1_555
O18 Ti0 1.944021 1_555
O18 Ti4 1.950871 1_456
O19 Ti5 1.899887 1_455
O19 Ti1 1.995638 1_555
O20 Ti3 1.875184 1_555
O21 Ti2 1.944432 1_555
O22 Ti4 1.875196 1_555
O23 Ti5 1.944326 1_565
