# generated using pymatgen
data_Dy7Rh3
_symmetry_space_group_name_H-M   'P 1'
_cell_length_a   6.15950720
_cell_length_b   9.75667203
_cell_length_c   9.75667254
_cell_angle_alpha   119.99832606
_cell_angle_beta   90.00000000
_cell_angle_gamma   90.00000000
_symmetry_Int_Tables_number   1
_chemical_formula_structural   Dy7Rh3
_chemical_formula_sum   'Dy14 Rh6'
_cell_volume   507.79375977
_cell_formula_units_Z   2
loop_
 _symmetry_equiv_pos_site_id
 _symmetry_equiv_pos_as_xyz
  1  'x, y, z'
loop_
 _atom_site_type_symbol
 _atom_site_label
 _atom_site_symmetry_multiplicity
 _atom_site_fract_x
 _atom_site_fract_y
 _atom_site_fract_z
 _atom_site_occupancy
  Dy  Dy0  1  0.46791749  0.33332968  0.66667032  1
  Dy  Dy1  1  0.96791749  0.66667032  0.33332968  1
  Dy  Dy2  1  0.25919126  0.12367595  0.87632405  1
  Dy  Dy3  1  0.25916040  0.75264916  0.87632015  1
  Dy  Dy4  1  0.25916040  0.12367985  0.24735084  1
  Dy  Dy5  1  0.75919126  0.87632405  0.12367595  1
  Dy  Dy6  1  0.75916040  0.24735084  0.12367985  1
  Dy  Dy7  1  0.75916040  0.87632015  0.75264916  1
  Dy  Dy8  1  0.44969375  0.54124549  0.45875451  1
  Dy  Dy9  1  0.44978535  0.91753241  0.45875151  1
  Dy  Dy10  1  0.44978535  0.54124849  0.08246759  1
  Dy  Dy11  1  0.94969375  0.45875451  0.54124549  1
  Dy  Dy12  1  0.94978535  0.08246759  0.54124849  1
  Dy  Dy13  1  0.94978535  0.45875151  0.91753241  1
  Rh  Rh0  1  0.18779376  0.81053049  0.18947051  1
  Rh  Rh1  1  0.18775613  0.37894221  0.18942797  1
  Rh  Rh2  1  0.18775613  0.81057203  0.62105779  1
  Rh  Rh3  1  0.68779376  0.18946951  0.81052949  1
  Rh  Rh4  1  0.68775613  0.62105779  0.81057203  1
  Rh  Rh5  1  0.68775613  0.18942797  0.37894221  1
loop_
_geom_bond_atom_site_label_1
_geom_bond_atom_site_label_2
_geom_bond_distance
_geom_bond_site_symmetry_2
Dy0 Rh3 2.782861 1_555
Dy0 Rh4 2.782867 1_555
Dy0 Rh5 2.782867 1_555
Dy1 Rh0 2.782861 1_655
Dy1 Rh1 2.782867 1_655
Dy1 Rh2 2.782867 1_655
Dy2 Rh2 2.849682 1_545
Dy2 Rh1 2.849682 1_556
Dy2 Rh3 2.864559 1_555
Dy3 Rh0 2.849862 1_556
Dy3 Rh2 2.850064 1_555
Dy3 Rh4 2.864543 1_555
Dy4 Rh0 2.849855 1_545
Dy4 Rh1 2.850064 1_555
Dy4 Rh5 2.864543 1_555
Dy5 Rh5 2.849682 1_565
Dy5 Rh4 2.849682 1_554
Dy5 Rh0 2.864559 1_655
Dy6 Rh3 2.849862 1_554
Dy6 Rh5 2.850064 1_555
Dy6 Rh1 2.864543 1_655
Dy7 Rh3 2.849855 1_565
Dy7 Rh4 2.850064 1_555
Dy7 Rh2 2.864543 1_655
Dy8 Rh2 2.802631 1_555
Dy8 Rh1 2.802631 1_555
Dy9 Rh0 2.802496 1_555
Dy9 Rh2 2.802524 1_555
Dy10 Rh0 2.802503 1_555
Dy10 Rh1 2.802524 1_555
Dy11 Rh5 2.802631 1_555
Dy11 Rh4 2.802631 1_555
Dy12 Rh3 2.802496 1_555
Dy12 Rh5 2.802524 1_555
Dy13 Rh3 2.802503 1_555
Dy13 Rh4 2.802524 1_555
