# generated using pymatgen
data_CaAl9Co2
_symmetry_space_group_name_H-M   'P 1'
_cell_length_a   7.82078903
_cell_length_b   7.82078740
_cell_length_c   3.84492519
_cell_angle_alpha   90.00000000
_cell_angle_beta   90.00000000
_cell_angle_gamma   119.99999442
_symmetry_Int_Tables_number   1
_chemical_formula_structural   CaAl9Co2
_chemical_formula_sum   'Ca1 Al9 Co2'
_cell_volume   203.66650048
_cell_formula_units_Z   1
loop_
 _symmetry_equiv_pos_site_id
 _symmetry_equiv_pos_as_xyz
  1  'x, y, z'
loop_
 _atom_site_type_symbol
 _atom_site_label
 _atom_site_symmetry_multiplicity
 _atom_site_fract_x
 _atom_site_fract_y
 _atom_site_fract_z
 _atom_site_occupancy
  Ca  Ca0  1  -0.00000000  -0.00000000  0.00000000  1
  Al  Al0  1  0.50000000  -0.00000000  0.00000000  1
  Al  Al1  1  0.50000000  0.50000000  0.00000000  1
  Al  Al2  1  -0.00000000  0.50000000  0.00000000  1
  Al  Al3  1  0.21341441  0.42682582  0.50000000  1
  Al  Al4  1  0.78658559  0.21341441  0.50000000  1
  Al  Al5  1  0.42682582  0.21341441  0.50000000  1
  Al  Al6  1  0.57317418  0.78658559  0.50000000  1
  Al  Al7  1  0.21341441  0.78658559  0.50000000  1
  Al  Al8  1  0.78658559  0.57317418  0.50000000  1
  Co  Co0  1  0.33333300  0.66666700  0.00000000  1
  Co  Co1  1  0.66666700  0.33333300  0.00000000  1
loop_
_geom_bond_atom_site_label_1
_geom_bond_atom_site_label_2
_geom_bond_distance
_geom_bond_site_symmetry_2
Al0 Co0 2.257665 1_545
Al0 Co1 2.257665 1_555
Al0 Al4 2.786443 1_554
Al0 Al4 2.786443 1_555
Al0 Al7 2.786443 1_545
Al0 Al7 2.786443 1_544
Al0 Al5 2.786455 1_554
Al0 Al5 2.786455 1_555
Al0 Al6 2.786455 1_544
Al0 Al6 2.786455 1_545
Al1 Co0 2.257672 1_555
Al1 Co1 2.257672 1_555
Al1 Al6 2.786438 1_555
Al1 Al6 2.786438 1_554
Al1 Al5 2.786438 1_555
Al1 Al5 2.786438 1_554
Al1 Al8 2.786439 1_554
Al1 Al8 2.786439 1_555
Al1 Al3 2.786439 1_555
Al1 Al3 2.786439 1_554
Al2 Co0 2.257665 1_555
Al2 Co1 2.257665 1_455
Al2 Al4 2.786443 1_455
Al2 Al7 2.786443 1_555
Al2 Al4 2.786443 1_454
Al2 Al7 2.786443 1_554
Al2 Al3 2.786455 1_555
Al2 Al3 2.786455 1_554
Al2 Al8 2.786455 1_455
Al2 Al8 2.786455 1_454
Al3 Co0 2.516880 1_555
Al3 Co0 2.516880 1_556
Al3 Al7 2.813605 1_555
Al3 Al6 2.813605 1_555
Al3 Al5 2.890871 1_555
Al3 Al4 2.890913 1_455
Al3 Ca0 3.471760 1_555
Al3 Ca0 3.471760 1_556
Al4 Co1 2.516862 1_555
Al4 Co1 2.516862 1_556
Al4 Al8 2.813605 1_555
Al4 Al5 2.813605 1_555
Al4 Al6 2.890912 1_545
Al4 Ca0 3.471777 1_655
Al4 Ca0 3.471777 1_656
Al5 Co1 2.516880 1_555
Al5 Co1 2.516880 1_556
Al5 Al8 2.813605 1_555
Al5 Al7 2.890912 1_545
Al5 Ca0 3.471760 1_555
Al5 Ca0 3.471760 1_556
Al6 Co0 2.516880 1_555
Al6 Co0 2.516880 1_556
Al6 Al7 2.813605 1_555
Al6 Al8 2.890871 1_555
Al6 Ca0 3.471760 1_666
Al6 Ca0 3.471760 1_665
Al7 Co0 2.516862 1_555
Al7 Co0 2.516862 1_556
Al7 Al8 2.890913 1_455
Al7 Ca0 3.471777 1_565
Al7 Ca0 3.471777 1_566
Al8 Co1 2.516880 1_555
Al8 Co1 2.516880 1_556
Al8 Ca0 3.471760 1_665
Al8 Ca0 3.471760 1_666
