# generated using pymatgen
data_Li7Mn4CoO12
_symmetry_space_group_name_H-M   'P 1'
_cell_length_a   3.01634200
_cell_length_b   5.09895644
_cell_length_c   14.97431522
_cell_angle_alpha   95.93663555
_cell_angle_beta   93.39600473
_cell_angle_gamma   102.87001111
_symmetry_Int_Tables_number   1
_chemical_formula_structural   Li7Mn4CoO12
_chemical_formula_sum   'Li7 Mn4 Co1 O12'
_cell_volume   222.51261988
_cell_formula_units_Z   1
loop_
 _symmetry_equiv_pos_site_id
 _symmetry_equiv_pos_as_xyz
  1  'x, y, z'
loop_
 _atom_site_type_symbol
 _atom_site_label
 _atom_site_symmetry_multiplicity
 _atom_site_fract_x
 _atom_site_fract_y
 _atom_site_fract_z
 _atom_site_occupancy
  Li  Li0  1  0.32943100  0.57518100  0.08643300  1
  Li  Li1  1  0.02529200  0.74762700  0.25400400  1
  Li  Li2  1  0.62173800  0.90073400  0.40669900  1
  Li  Li3  1  0.35389300  0.09922300  0.58336700  1
  Li  Li4  1  0.99798300  0.24831700  0.75076700  1
  Li  Li5  1  0.66912200  0.41960300  0.91798900  1
  Li  Li6  1  0.33965900  0.34449900  0.33160900  1
  Mn  Mn0  1  0.01658600  0.00550600  0.00406200  1
  Mn  Mn1  1  0.98680700  0.49836900  0.49270800  1
  Mn  Mn2  1  0.64955800  0.65963100  0.66524400  1
  Mn  Mn3  1  0.33491200  0.83406300  0.83441600  1
  Co  Co0  1  0.68206100  0.17013100  0.17533700  1
  O  O0  1  0.69248700  0.27471900  0.05085800  1
  O  O1  1  0.33767700  0.42576600  0.20454000  1
  O  O2  1  0.00941000  0.63101900  0.38364700  1
  O  O3  1  0.61041500  0.75158800  0.53990900  1
  O  O4  1  0.34956700  0.94258000  0.71088900  1
  O  O5  1  0.02896500  0.11430200  0.88048000  1
  O  O6  1  0.99989800  0.89760300  0.12393200  1
  O  O7  1  0.65834100  0.04299400  0.27889700  1
  O  O8  1  0.38484600  0.25443400  0.46211700  1
  O  O9  1  0.96688100  0.38755400  0.61885900  1
  O  O10  1  0.63878200  0.55310100  0.78764200  1
  O  O11  1  0.31568800  0.72145500  0.95559500  1
loop_
_geom_bond_atom_site_label_1
_geom_bond_atom_site_label_2
_geom_bond_distance
_geom_bond_site_symmetry_2
Li0 O1 1.997710 1_555
Li0 O0 2.116099 1_555
Li0 O6 2.146913 1_455
Li0 O11 2.168624 1_554
Li0 O0 2.172738 1_455
Li0 O6 2.302477 1_555
Li1 O7 2.075488 1_465
Li1 O2 2.088449 1_555
Li1 O7 2.138168 1_565
Li1 O1 2.156383 1_555
Li1 O6 2.168152 1_455
Li1 O1 2.365165 1_455
Li2 O2 2.010950 1_655
Li2 O2 2.028937 1_555
Li2 O7 2.115964 1_565
Li2 O8 2.187827 1_565
Li2 O3 2.206524 1_555
Li3 O8 2.053288 1_555
Li3 O9 2.091321 1_555
Li3 O9 2.117324 1_455
Li3 O3 2.143885 1_545
Li3 O4 2.144370 1_545
Li3 O3 2.532258 1_445
Li4 O5 2.128370 1_655
Li4 O4 2.128493 1_645
Li4 O10 2.130129 1_555
Li4 O9 2.170758 1_555
Li4 O10 2.194071 1_655
Li4 O4 2.218779 1_545
Li5 O11 2.108399 1_555
Li5 O5 2.135657 1_655
Li5 O10 2.136094 1_555
Li5 O5 2.195201 1_555
Li5 O0 2.195440 1_556
Li5 O11 2.200673 1_655
Li6 O1 1.988753 1_555
Li6 O8 2.056846 1_555
Li6 O2 2.058805 1_555
Li6 O7 2.099458 1_555
Li6 O2 2.255216 1_655
Li6 O7 2.315005 1_455
Mn0 O6 1.931275 1_445
Mn0 O0 1.952187 1_455
Mn0 O11 1.969945 1_544
Mn0 O5 1.986205 1_554
Mn0 O0 2.217408 1_555
Mn0 O11 2.308853 1_444
Mn1 O2 1.830393 1_655
Mn1 O8 1.952167 1_655
Mn1 O8 1.957363 1_555
Mn1 O3 2.003728 1_555
Mn1 O9 2.027416 1_555
Mn1 O3 2.068006 1_655
Mn2 O9 1.947869 1_555
Mn2 O4 1.954060 1_555
Mn2 O10 1.964816 1_555
Mn2 O3 1.984096 1_555
Mn2 O9 2.237394 1_455
Mn2 O4 2.296725 1_655
Mn3 O5 1.956586 1_565
Mn3 O10 1.958703 1_555
Mn3 O11 1.959306 1_555
Mn3 O4 1.984978 1_555
Mn3 O5 2.278764 1_665
Mn3 O10 2.286941 1_455
Co0 O7 1.740861 1_555
Co0 O1 1.873079 1_555
Co0 O6 1.975422 1_545
Co0 O0 1.991215 1_555
Co0 O1 2.105313 1_655
Co0 O6 2.252715 1_445
