# generated using pymatgen
data_CrCdO4
_symmetry_space_group_name_H-M   'P 1'
_cell_length_a   7.13383203
_cell_length_b   7.13383203
_cell_length_c   7.09630393
_cell_angle_alpha   81.49521515
_cell_angle_beta   81.49521515
_cell_angle_gamma   85.96291527
_symmetry_Int_Tables_number   1
_chemical_formula_structural   CrCdO4
_chemical_formula_sum   'Cr4 Cd4 O16'
_cell_volume   352.80800671
_cell_formula_units_Z   4
loop_
 _symmetry_equiv_pos_site_id
 _symmetry_equiv_pos_as_xyz
  1  'x, y, z'
loop_
 _atom_site_type_symbol
 _atom_site_label
 _atom_site_symmetry_multiplicity
 _atom_site_fract_x
 _atom_site_fract_y
 _atom_site_fract_z
 _atom_site_occupancy
  Cr  Cr0  1  0.72627567  0.72627567  0.41783041  1
  Cr  Cr1  1  0.27372433  0.27372433  0.58216959  1
  Cr  Cr2  1  0.74486522  0.25513478  -0.00000000  1
  Cr  Cr3  1  0.25513478  0.74486522  -0.00000000  1
  Cd  Cd0  1  0.21089688  0.21089688  0.12612544  1
  Cd  Cd1  1  0.78910312  0.78910312  0.87387456  1
  Cd  Cd2  1  0.81323335  0.18676665  0.50000000  1
  Cd  Cd3  1  0.18676665  0.81323335  0.50000000  1
  O  O0  1  0.22017891  0.49698808  0.52049486  1
  O  O1  1  0.50301192  0.77982109  0.47950514  1
  O  O2  1  0.77982109  0.50301192  0.47950514  1
  O  O3  1  0.49698808  0.22017891  0.52049486  1
  O  O4  1  0.11402053  0.79691551  0.82789617  1
  O  O5  1  0.20308449  0.88597947  0.17210383  1
  O  O6  1  0.88597947  0.20308449  0.17210383  1
  O  O7  1  0.79691551  0.11402053  0.82789617  1
  O  O8  1  0.85456326  0.85456326  0.53887655  1
  O  O9  1  0.14543674  0.14543674  0.46112345  1
  O  O10  1  0.21480995  0.21480995  0.81194928  1
  O  O11  1  0.78519005  0.78519005  0.18805072  1
  O  O12  1  0.47242722  0.77486247  0.90016876  1
  O  O13  1  0.22513753  0.52757278  0.09983124  1
  O  O14  1  0.52757278  0.22513753  0.09983124  1
  O  O15  1  0.77486247  0.47242722  0.90016876  1
loop_
_geom_bond_atom_site_label_1
_geom_bond_atom_site_label_2
_geom_bond_distance
_geom_bond_site_symmetry_2
Cr0 O11 1.622207 1_555
Cr0 O1 1.622294 1_555
Cr0 O2 1.622294 1_555
Cr0 O8 1.730879 1_555
Cr1 O10 1.622207 1_555
Cr1 O3 1.622294 1_555
Cr1 O0 1.622294 1_555
Cr1 O9 1.730879 1_555
Cr2 O15 1.620992 1_554
Cr2 O14 1.620992 1_555
Cr2 O7 1.679213 1_554
Cr2 O6 1.679213 1_555
Cr3 O12 1.620992 1_554
Cr3 O13 1.620992 1_555
Cr3 O4 1.679213 1_554
Cr3 O5 1.679213 1_555
Cd0 O10 2.221593 1_554
Cd0 O14 2.247388 1_555
Cd0 O13 2.247388 1_555
Cd0 O6 2.295946 1_455
Cd0 O5 2.295946 1_545
Cd0 O9 2.336972 1_555
Cd1 O11 2.221593 1_556
Cd1 O15 2.247388 1_555
Cd1 O12 2.247388 1_555
Cd1 O4 2.295946 1_655
Cd1 O7 2.295946 1_565
Cd1 O8 2.336972 1_555
Cd2 O2 2.237224 1_555
Cd2 O3 2.237224 1_555
Cd2 O6 2.295282 1_555
Cd2 O7 2.295282 1_555
Cd2 O8 2.347696 1_545
Cd2 O9 2.347696 1_655
Cd3 O1 2.237224 1_555
Cd3 O0 2.237224 1_555
Cd3 O5 2.295282 1_555
Cd3 O4 2.295282 1_555
Cd3 O8 2.347696 1_455
Cd3 O9 2.347696 1_565
