# generated using pymatgen
data_Mg16Al12Cd
_symmetry_space_group_name_H-M   'P 1'
_cell_length_a   9.09101051
_cell_length_b   9.09101051
_cell_length_c   9.11539428
_cell_angle_alpha   70.70234651
_cell_angle_beta   70.70234651
_cell_angle_gamma   109.17949725
_symmetry_Int_Tables_number   1
_chemical_formula_structural   Mg16Al12Cd
_chemical_formula_sum   'Mg16 Al12 Cd1'
_cell_volume   584.46014600
_cell_formula_units_Z   1
loop_
 _symmetry_equiv_pos_site_id
 _symmetry_equiv_pos_as_xyz
  1  'x, y, z'
loop_
 _atom_site_type_symbol
 _atom_site_label
 _atom_site_symmetry_multiplicity
 _atom_site_fract_x
 _atom_site_fract_y
 _atom_site_fract_z
 _atom_site_occupancy
  Mg  Mg0  1  0.99910700  0.99910700  0.65773600  1
  Mg  Mg1  1  0.68743600  0.68743600  0.70973100  1
  Mg  Mg2  1  0.99782500  0.99782500  0.00185700  1
  Mg  Mg3  1  0.65268200  0.65268200  0.33847800  1
  Mg  Mg4  1  0.32011600  0.59977300  0.99983800  1
  Mg  Mg5  1  0.40116000  0.71501100  0.59992500  1
  Mg  Mg6  1  0.99836800  0.31462500  0.39919600  1
  Mg  Mg7  1  0.99768900  0.34617100  0.00415400  1
  Mg  Mg8  1  0.28954800  0.68180900  0.31558300  1
  Mg  Mg9  1  0.60104400  0.00197300  0.68282800  1
  Mg  Mg10  1  0.00197300  0.60104400  0.68282800  1
  Mg  Mg11  1  0.68180900  0.28954800  0.31558300  1
  Mg  Mg12  1  0.34617100  0.99768900  0.00415400  1
  Mg  Mg13  1  0.31462500  0.99836800  0.39919600  1
  Mg  Mg14  1  0.71501100  0.40116000  0.59992500  1
  Mg  Mg15  1  0.59977300  0.32011600  0.99983800  1
  Al  Al0  1  0.36711900  0.36711900  0.82025500  1
  Al  Al1  1  0.18204200  0.18204200  0.18050800  1
  Al  Al2  1  0.63716500  0.82033800  0.99451900  1
  Al  Al3  1  0.81407100  0.00038500  0.36633800  1
  Al  Al4  1  0.17963700  0.36664400  0.63826400  1
  Al  Al5  1  0.81914600  0.18809400  0.81392000  1
  Al  Al6  1  0.63265400  0.00253200  0.18321000  1
  Al  Al7  1  0.00253200  0.63265400  0.18321000  1
  Al  Al8  1  0.18809400  0.81914600  0.81392000  1
  Al  Al9  1  0.36664400  0.17963700  0.63826400  1
  Al  Al10  1  0.00038500  0.81407100  0.36633800  1
  Al  Al11  1  0.82033800  0.63716500  0.99451900  1
  Cd  Cd0  1  0.38583400  0.38583400  0.29588900  1
loop_
_geom_bond_atom_site_label_1
_geom_bond_atom_site_label_2
_geom_bond_distance
_geom_bond_site_symmetry_2
Mg0 Mg1 3.038228 1_555
Mg0 Mg6 3.055619 1_565
Mg0 Mg13 3.055619 1_655
Mg0 Mg2 3.129115 1_556
Mg1 Mg4 3.130662 1_555
Mg1 Mg15 3.130662 1_555
Mg1 Mg14 3.134082 1_555
Mg1 Mg5 3.134082 1_555
Mg1 Mg9 3.161158 1_565
Mg1 Mg10 3.161158 1_655
Mg2 Mg3 3.147970 1_555
Mg2 Mg7 3.174201 1_565
Mg3 Mg5 3.061252 1_555
Mg4 Mg7 3.054876 1_456
Mg4 Mg8 3.153312 1_556
Mg4 Mg5 3.181593 1_555
Mg4 Mg9 3.200780 1_565
Mg4 Mg6 3.204742 1_456
Mg5 Mg9 3.126443 1_565
Mg5 Mg8 3.145256 1_555
Mg6 Mg8 3.147994 1_655
Mg6 Mg9 3.167802 1_555
Mg10 Mg7 3.054344 1_456
Mg10 Mg14 3.126443 1_455
Mg10 Mg8 3.148005 1_555
Mg10 Mg5 3.164438 1_555
Mg10 Mg13 3.167802 1_555
Mg10 Mg15 3.200780 1_455
Mg11 Mg7 3.040555 1_555
Mg11 Mg14 3.145256 1_555
Mg11 Mg13 3.147994 1_545
Mg11 Mg9 3.148005 1_555
Mg11 Mg15 3.153312 1_554
Mg11 Mg6 3.169910 1_555
Mg12 Mg8 3.040555 1_555
Mg12 Mg9 3.054344 1_564
Mg12 Mg15 3.054876 1_564
Mg12 Mg2 3.174201 1_455
Mg13 Mg5 3.125728 1_555
Mg13 Mg8 3.169910 1_555
Mg13 Mg15 3.204742 1_564
Mg14 Mg3 3.061252 1_555
Mg14 Mg6 3.125728 1_555
Mg14 Mg9 3.164438 1_555
Mg14 Mg15 3.181593 1_555
Al0 Al1 2.698456 1_556
Al0 Al9 2.743307 1_555
Al0 Al4 2.743307 1_555
Al0 Mg1 2.919709 1_555
Al0 Mg14 2.979901 1_555
Al0 Mg5 2.979901 1_555
Al0 Mg4 3.123404 1_555
Al0 Mg15 3.123404 1_555
Al0 Mg12 3.126250 1_546
Al0 Mg7 3.126250 1_456
Al0 Mg2 3.245042 1_446
Al1 Al3 2.750096 1_455
Al1 Al10 2.750096 1_545
Al1 Cd0 2.879491 1_555
Al1 Mg13 2.987498 1_545
Al1 Mg6 2.987498 1_455
Al1 Mg12 3.075354 1_545
Al1 Mg7 3.075354 1_455
Al1 Mg2 3.166007 1_445
Al1 Mg4 3.174495 1_554
Al1 Mg15 3.174495 1_554
Al2 Al5 2.748176 1_565
Al2 Al6 2.753989 1_566
Al2 Mg4 2.894232 1_555
Al2 Mg9 2.962914 1_565
Al2 Mg8 2.995656 1_556
Al2 Mg0 3.066712 1_555
Al2 Mg3 3.073809 1_556
Al2 Mg1 3.171646 1_555
Al2 Mg2 3.177807 1_556
Al3 Al6 2.706702 1_555
Al3 Mg9 2.902879 1_555
Al3 Mg1 2.966067 1_545
Al3 Mg6 2.968200 1_555
Al3 Mg7 3.101292 1_555
Al3 Mg3 3.152532 1_545
Al3 Mg5 3.165825 1_545
Al3 Mg11 3.195463 1_555
Al3 Mg2 3.199644 1_545
Al4 Al5 2.693949 1_455
Al4 Al9 2.771217 1_555
Al4 Mg8 2.909540 1_555
Al4 Mg5 2.969909 1_555
Al4 Cd0 2.973684 1_555
Al4 Mg7 3.104116 1_456
Al4 Mg0 3.114735 1_445
Al4 Mg10 3.116810 1_555
Al4 Mg6 3.198570 1_455
Al4 Mg2 3.217402 1_446
Al5 Al6 2.765321 1_556
Al5 Mg14 2.895042 1_555
Al5 Mg9 2.986681 1_555
Al5 Mg15 2.995519 1_555
Al5 Mg0 3.095052 1_545
Al5 Mg7 3.111509 1_556
Al5 Mg10 3.147436 1_655
Al5 Mg6 3.176847 1_555
Al5 Mg2 3.208148 1_546
Al6 Mg13 2.890195 1_545
Al6 Mg8 2.982935 1_545
Al6 Mg15 2.987741 1_554
Al6 Mg7 3.110342 1_555
Al6 Mg3 3.118879 1_545
Al6 Mg11 3.183573 1_555
Al6 Mg5 3.198353 1_545
Al6 Mg2 3.204422 1_545
Al7 Al8 2.765321 1_554
Al7 Mg6 2.890195 1_455
Al7 Mg11 2.982935 1_455
Al7 Mg4 2.987741 1_554
Al7 Mg12 3.110342 1_555
Al7 Mg3 3.118879 1_455
Al7 Mg8 3.183573 1_555
Al7 Mg14 3.198353 1_455
Al7 Mg2 3.204422 1_455
Al8 Al9 2.693949 1_565
Al8 Mg5 2.895042 1_555
Al8 Mg10 2.986681 1_555
Al8 Mg4 2.995519 1_555
Al8 Mg0 3.095052 1_455
Al8 Mg12 3.111509 1_556
Al8 Mg9 3.147436 1_565
Al8 Mg13 3.176847 1_555
Al8 Mg2 3.208148 1_456
Al9 Mg11 2.909540 1_555
Al9 Mg14 2.969909 1_555
Al9 Cd0 2.973684 1_555
Al9 Mg12 3.104116 1_546
Al9 Mg0 3.114735 1_445
Al9 Mg9 3.116810 1_555
Al9 Mg13 3.198570 1_545
Al9 Mg2 3.217402 1_446
Al10 Al7 2.706702 1_555
Al10 Al3 2.760947 1_465
Al10 Mg10 2.902879 1_555
Al10 Mg1 2.966067 1_455
Al10 Mg13 2.968200 1_555
Al10 Mg12 3.101292 1_555
Al10 Mg3 3.152532 1_455
Al10 Mg14 3.165825 1_455
Al10 Mg8 3.195463 1_555
Al10 Mg2 3.199644 1_455
Al11 Al2 2.714401 1_555
Al11 Al8 2.748176 1_655
Al11 Al7 2.753989 1_656
Al11 Mg15 2.894232 1_555
Al11 Mg10 2.962914 1_655
Al11 Mg11 2.995656 1_556
Al11 Mg0 3.066712 1_555
Al11 Mg3 3.073809 1_556
Al11 Mg1 3.171646 1_555
Al11 Mg2 3.177807 1_556
Cd0 Mg3 3.049422 1_555
Cd0 Mg6 3.101602 1_455
Cd0 Mg13 3.101602 1_545
Cd0 Mg15 3.127661 1_554
Cd0 Mg4 3.127661 1_554
Cd0 Mg8 3.130707 1_555
Cd0 Mg11 3.130707 1_555
Cd0 Mg0 3.485618 1_445
