# generated using pymatgen
data_PuU4C5
_symmetry_space_group_name_H-M   'P 1'
_cell_length_a   14.34588413
_cell_length_b   14.34588413
_cell_length_c   14.34588363
_cell_angle_alpha   14.34473620
_cell_angle_beta   14.34473620
_cell_angle_gamma   14.34473751
_symmetry_Int_Tables_number   1
_chemical_formula_structural   PuU4C5
_chemical_formula_sum   'Pu1 U4 C5'
_cell_volume   157.76904591
_cell_formula_units_Z   1
loop_
 _symmetry_equiv_pos_site_id
 _symmetry_equiv_pos_as_xyz
  1  'x, y, z'
loop_
 _atom_site_type_symbol
 _atom_site_label
 _atom_site_symmetry_multiplicity
 _atom_site_fract_x
 _atom_site_fract_y
 _atom_site_fract_z
 _atom_site_occupancy
  Pu  Pu0  1  0.00000000  0.00000000  0.00000000  1
  U  U0  1  0.60145900  0.60145900  0.60145900  1
  U  U1  1  0.20037300  0.20037300  0.20037300  1
  U  U2  1  0.79962700  0.79962700  0.79962700  1
  U  U3  1  0.39854100  0.39854100  0.39854100  1
  C  C0  1  0.70060900  0.70060900  0.70060900  1
  C  C1  1  0.50000000  0.50000000  0.50000000  1
  C  C2  1  0.09918800  0.09918800  0.09918800  1
  C  C3  1  0.29939100  0.29939100  0.29939100  1
  C  C4  1  0.90081200  0.90081200  0.90081200  1
loop_
_geom_bond_atom_site_label_1
_geom_bond_atom_site_label_2
_geom_bond_distance
_geom_bond_site_symmetry_2
C0 U3 2.459797 1_556
C0 U3 2.459798 1_655
C0 U3 2.459798 1_565
C0 Pu0 2.523333 1_665
C0 Pu0 2.523334 1_656
C0 Pu0 2.523334 1_566
C1 U1 2.517589 1_556
C1 U2 2.517589 1_554
C1 U1 2.517589 1_565
C1 U1 2.517589 1_655
C1 U2 2.517589 1_455
C1 U2 2.517589 1_545
C2 U2 2.519193 1_445
C2 U2 2.519193 1_544
C2 U2 2.519193 1_454
C2 U3 2.524261 1_554
C2 U3 2.524261 1_455
C2 U3 2.524261 1_545
C3 U0 2.459797 1_554
C3 U0 2.459798 1_545
C3 U0 2.459798 1_455
C3 Pu0 2.523333 1_556
C3 Pu0 2.523334 1_565
C3 Pu0 2.523334 1_655
C4 U1 2.519193 1_665
C4 U1 2.519193 1_566
C4 U1 2.519193 1_656
C4 U0 2.524261 1_556
C4 U0 2.524261 1_655
C4 U0 2.524261 1_565
