# generated using pymatgen
data_SnO
_symmetry_space_group_name_H-M   'P 1'
_cell_length_a   12.06359624
_cell_length_b   12.24474111
_cell_length_c   12.21537064
_cell_angle_alpha   83.43846574
_cell_angle_beta   94.26192711
_cell_angle_gamma   88.40044737
_symmetry_Int_Tables_number   1
_chemical_formula_structural   SnO
_chemical_formula_sum   'Sn40 O40'
_cell_volume   1786.41724133
_cell_formula_units_Z   40
loop_
 _symmetry_equiv_pos_site_id
 _symmetry_equiv_pos_as_xyz
  1  'x, y, z'
loop_
 _atom_site_type_symbol
 _atom_site_label
 _atom_site_symmetry_multiplicity
 _atom_site_fract_x
 _atom_site_fract_y
 _atom_site_fract_z
 _atom_site_occupancy
  Sn  Sn0  1  0.83460374  0.06066546  0.77305221  1
  Sn  Sn1  1  0.71802205  0.49313242  0.14505588  1
  Sn  Sn2  1  0.60086124  0.55416815  0.49640698  1
  Sn  Sn3  1  0.69638067  0.80528680  0.25951814  1
  Sn  Sn4  1  0.93161440  0.98939178  0.47423934  1
  Sn  Sn5  1  0.35163036  0.23613384  0.43645115  1
  Sn  Sn6  1  0.88436837  0.57078103  0.58174755  1
  Sn  Sn7  1  0.24421958  0.80177147  0.14950248  1
  Sn  Sn8  1  0.15922628  0.89877600  0.39394827  1
  Sn  Sn9  1  0.67396120  0.31026175  0.89671693  1
  Sn  Sn10  1  0.65394256  0.03307601  0.99388276  1
  Sn  Sn11  1  0.41769768  0.81669298  0.45591844  1
  Sn  Sn12  1  0.91076718  0.95858055  0.19186816  1
  Sn  Sn13  1  0.00371146  0.23453548  0.67093986  1
  Sn  Sn14  1  0.75064589  0.20489648  0.22084386  1
  Sn  Sn15  1  0.39938569  0.11354378  0.16730438  1
  Sn  Sn16  1  0.53881328  0.07133381  0.68895801  1
  Sn  Sn17  1  0.96022081  0.22575517  0.02162802  1
  Sn  Sn18  1  0.35438491  0.04882933  0.91234521  1
  Sn  Sn19  1  0.06292224  0.96110474  0.93612227  1
  Sn  Sn20  1  0.41931116  0.43160715  0.02029381  1
  Sn  Sn21  1  0.04779038  0.43936565  0.15169381  1
  Sn  Sn22  1  0.27648125  0.47226085  0.31700945  1
  Sn  Sn23  1  0.51044729  0.67959259  0.09225333  1
  Sn  Sn24  1  0.51519577  0.66313170  0.81075322  1
  Sn  Sn25  1  0.93902877  0.81616555  0.67984434  1
  Sn  Sn26  1  0.73598286  0.34518346  0.63438844  1
  Sn  Sn27  1  0.40999079  0.32010650  0.76066821  1
  Sn  Sn28  1  0.15306341  0.61643361  0.58804779  1
  Sn  Sn29  1  0.20132558  0.58505472  0.96843788  1
  Sn  Sn30  1  0.54607255  0.09082146  0.42175314  1
  Sn  Sn31  1  0.96836353  0.72004084  0.06468453  1
  Sn  Sn32  1  0.19886546  0.37886950  0.58330534  1
  Sn  Sn33  1  0.88087842  0.49249733  0.88035957  1
  Sn  Sn34  1  0.03117117  0.25096477  0.39156161  1
  Sn  Sn35  1  0.23563886  0.05469207  0.60406100  1
  Sn  Sn36  1  0.21151658  0.26324475  0.98899562  1
  Sn  Sn37  1  0.98895700  0.66419418  0.33476009  1
  Sn  Sn38  1  0.65966844  0.81797262  0.62525094  1
  Sn  Sn39  1  0.26180474  0.81245065  0.78675781  1
  O  O0  1  0.02529317  0.34927116  0.52715410  1
  O  O1  1  0.98027112  0.12965856  0.53543278  1
  O  O2  1  0.59748297  0.68418326  0.95613475  1
  O  O3  1  0.48817026  0.05121485  0.03924709  1
  O  O4  1  0.81017253  0.48644101  0.71607002  1
  O  O5  1  0.80158458  0.72556304  0.58417995  1
  O  O6  1  0.53335150  0.49448185  0.12561717  1
  O  O7  1  0.37435791  0.59929424  0.97599836  1
  O  O8  1  0.12663842  0.73487702  0.45111813  1
  O  O9  1  0.26252447  0.08298784  0.04911664  1
  O  O10  1  0.30768772  0.21778578  0.86515174  1
  O  O11  1  0.08573762  0.75111520  0.19946280  1
  O  O12  1  0.74046849  0.94070818  0.13650183  1
  O  O13  1  0.53178128  0.19383544  0.79139289  1
  O  O14  1  0.61478100  0.12845321  0.27698172  1
  O  O15  1  0.25925317  0.69253994  0.68208912  1
  O  O16  1  0.29411556  0.92832631  0.50563330  1
  O  O17  1  0.87709042  0.80265628  0.28234685  1
  O  O18  1  0.12010279  0.40273668  0.31450727  1
  O  O19  1  0.74565397  0.44570284  0.97698075  1
  O  O20  1  0.25816385  0.43024415  0.93289755  1
  O  O21  1  0.68363829  0.66178531  0.17521180  1
  O  O22  1  0.63107147  0.13940588  0.55748066  1
  O  O23  1  0.55967834  0.91951104  0.46651633  1
  O  O24  1  0.42688581  0.81163089  0.80089510  1
  O  O25  1  0.94472892  0.58166007  0.16950748  1
  O  O26  1  0.50744035  0.37731823  0.90312259  1
  O  O27  1  0.78969237  0.91027142  0.68581147  1
  O  O28  1  0.29072746  0.85689949  0.30021464  1
  O  O29  1  0.94180152  0.08361146  0.93361228  1
  O  O30  1  0.57705899  0.41618788  0.59676001  1
  O  O31  1  0.35957475  0.28769575  0.09835098  1
  O  O32  1  0.19604695  0.16115946  0.45021642  1
  O  O33  1  0.37890215  0.14842292  0.60320952  1
  O  O34  1  0.76272550  0.49139674  0.49334629  1
  O  O35  1  0.20108511  0.52534787  0.13975482  1
  O  O36  1  0.86558815  0.05134576  0.31915679  1
  O  O37  1  0.69501309  0.19033292  0.04451106  1
  O  O38  1  0.93321234  0.33012712  0.87866631  1
  O  O39  1  0.98179502  0.95232099  0.78139479  1
loop_
_geom_bond_atom_site_label_1
_geom_bond_atom_site_label_2
_geom_bond_distance
_geom_bond_site_symmetry_2
O0 Sn13 2.156601 1_555
O0 Sn34 2.160029 1_555
O0 Sn32 2.207255 1_555
O1 Sn4 2.034131 1_545
O1 Sn13 2.214843 1_655
O1 Sn34 2.299274 1_655
O2 Sn24 2.015570 1_555
O2 Sn23 2.027733 1_556
O3 Sn10 2.126896 1_554
O3 Sn18 2.156324 1_554
O3 Sn15 2.157038 1_555
O4 Sn6 2.107727 1_555
O4 Sn33 2.131584 1_555
O4 Sn26 2.266364 1_555
O5 Sn6 2.121761 1_555
O5 Sn38 2.147632 1_555
O5 Sn25 2.335924 1_555
O6 Sn20 2.040354 1_555
O6 Sn1 2.222191 1_555
O6 Sn23 2.262134 1_555
O7 Sn29 2.095586 1_555
O7 Sn20 2.107879 1_556
O7 Sn23 2.396121 1_556
O8 Sn28 2.084057 1_555
O8 Sn8 2.105811 1_555
O8 Sn37 2.353411 1_455
O9 Sn18 2.145524 1_554
O9 Sn15 2.180335 1_555
O9 Sn36 2.297012 1_554
O10 Sn36 2.088458 1_555
O10 Sn18 2.131626 1_555
O10 Sn27 2.162588 1_555
O11 Sn7 2.136707 1_555
O11 Sn31 2.164944 1_455
O11 Sn37 2.276290 1_455
O12 Sn12 2.139703 1_555
O12 Sn10 2.148794 1_564
O12 Sn3 2.211138 1_555
O13 Sn16 2.064104 1_555
O13 Sn27 2.085354 1_555
O13 Sn9 2.618634 1_555
O14 Sn30 2.019821 1_555
O14 Sn14 2.034401 1_555
O15 Sn28 1.980325 1_555
O15 Sn39 2.053588 1_555
O16 Sn8 2.110885 1_555
O16 Sn11 2.161111 1_555
O16 Sn35 2.197210 1_565
O17 Sn37 2.145078 1_555
O17 Sn12 2.158613 1_555
O17 Sn3 2.175986 1_555
O18 Sn22 2.090818 1_555
O18 Sn21 2.105709 1_555
O18 Sn34 2.313489 1_555
O19 Sn33 2.136878 1_555
O19 Sn9 2.187549 1_555
O19 Sn1 2.242106 1_556
O20 Sn29 2.100415 1_555
O20 Sn20 2.148631 1_556
O20 Sn36 2.183811 1_555
O21 Sn3 2.139353 1_555
O21 Sn1 2.172826 1_555
O21 Sn23 2.247007 1_555
O22 Sn30 2.039844 1_555
O22 Sn16 2.127054 1_555
O23 Sn30 2.105084 1_565
O23 Sn11 2.158736 1_555
O23 Sn38 2.403798 1_555
O24 Sn39 1.985763 1_555
O24 Sn24 2.068459 1_555
O25 Sn31 2.043856 1_555
O25 Sn21 2.152872 1_655
O25 Sn37 2.391044 1_555
O26 Sn20 2.006227 1_556
O26 Sn9 2.159100 1_555
O26 Sn27 2.218414 1_555
O27 Sn38 2.098213 1_555
O27 Sn25 2.121664 1_555
O27 Sn0 2.288855 1_565
O28 Sn7 2.076386 1_555
O28 Sn8 2.109329 1_555
O28 Sn11 2.348819 1_555
O29 Sn19 2.060718 1_645
O29 Sn17 2.156026 1_556
O29 Sn0 2.316728 1_555
O30 Sn2 2.011404 1_555
O30 Sn26 2.080251 1_555
O31 Sn20 2.079110 1_555
O31 Sn36 2.197926 1_554
O31 Sn15 2.227025 1_555
O32 Sn5 2.121706 1_555
O32 Sn35 2.175140 1_555
O32 Sn34 2.272595 1_555
O33 Sn35 2.101177 1_555
O33 Sn5 2.189022 1_555
O33 Sn16 2.254252 1_555
O34 Sn2 2.082956 1_555
O34 Sn6 2.085271 1_555
O34 Sn26 2.384879 1_555
O35 Sn29 2.136648 1_554
O35 Sn21 2.159460 1_555
O35 Sn22 2.300144 1_555
O36 Sn4 2.052364 1_545
O36 Sn12 2.121312 1_545
O36 Sn14 2.447643 1_555
O37 Sn10 2.148406 1_554
O37 Sn9 2.187565 1_554
O37 Sn14 2.236384 1_555
O38 Sn17 2.042364 1_556
O38 Sn33 2.071989 1_555
O39 Sn19 2.078244 1_655
O39 Sn0 2.175784 1_565
O39 Sn25 2.238305 1_555
