# generated using pymatgen
data_Ca(YbS2)2
_symmetry_space_group_name_H-M   'P 1'
_cell_length_a   4.12781700
_cell_length_b   14.26014000
_cell_length_c   11.53640000
_cell_angle_alpha   90.00000000
_cell_angle_beta   90.00000000
_cell_angle_gamma   90.00000000
_symmetry_Int_Tables_number   1
_chemical_formula_structural   Ca(YbS2)2
_chemical_formula_sum   'Ca4 Yb8 S16'
_cell_volume   679.06997785
_cell_formula_units_Z   4
loop_
 _symmetry_equiv_pos_site_id
 _symmetry_equiv_pos_as_xyz
  1  'x, y, z'
loop_
 _atom_site_type_symbol
 _atom_site_label
 _atom_site_symmetry_multiplicity
 _atom_site_fract_x
 _atom_site_fract_y
 _atom_site_fract_z
 _atom_site_occupancy
  Ca  Ca0  1  0.75000000  0.08937700  0.88313000  1
  Ca  Ca1  1  0.75000000  0.58937700  0.61687000  1
  Ca  Ca2  1  0.25000000  0.91062300  0.11687000  1
  Ca  Ca3  1  0.25000000  0.41062300  0.38313000  1
  Yb  Yb0  1  0.75000000  0.39668400  0.04667000  1
  Yb  Yb1  1  0.75000000  0.89668400  0.45333000  1
  Yb  Yb2  1  0.25000000  0.60331600  0.95333000  1
  Yb  Yb3  1  0.25000000  0.10331600  0.54667000  1
  Yb  Yb4  1  0.75000000  0.35858000  0.70812700  1
  Yb  Yb5  1  0.75000000  0.85858000  0.79187300  1
  Yb  Yb6  1  0.25000000  0.64142000  0.29187300  1
  Yb  Yb7  1  0.25000000  0.14142000  0.20812700  1
  S  S0  1  0.75000000  0.27383700  0.29645900  1
  S  S1  1  0.75000000  0.77383700  0.20354100  1
  S  S2  1  0.25000000  0.72616300  0.70354100  1
  S  S3  1  0.25000000  0.22616300  0.79645900  1
  S  S4  1  0.75000000  0.23812500  0.47640600  1
  S  S5  1  0.75000000  0.73812500  0.02359400  1
  S  S6  1  0.25000000  0.76187500  0.52359400  1
  S  S7  1  0.25000000  0.26187500  0.97640600  1
  S  S8  1  0.75000000  0.04730700  0.11223000  1
  S  S9  1  0.75000000  0.54730700  0.38777000  1
  S  S10  1  0.25000000  0.95269300  0.88777000  1
  S  S11  1  0.25000000  0.45269300  0.61223000  1
  S  S12  1  0.75000000  0.50833800  0.85648700  1
  S  S13  1  0.75000000  0.00833800  0.64351300  1
  S  S14  1  0.25000000  0.49166200  0.14351300  1
  S  S15  1  0.25000000  0.99166200  0.35648700  1
loop_
_geom_bond_atom_site_label_1
_geom_bond_atom_site_label_2
_geom_bond_distance
_geom_bond_site_symmetry_2
Ca0 S8 2.710222 1_556
Ca0 S10 2.839314 1_545
Ca0 S10 2.839314 1_645
Ca0 S13 2.996152 1_555
Ca0 S3 3.010690 1_555
Ca0 S3 3.010690 1_655
Ca0 S7 3.386515 1_555
Ca0 S7 3.386515 1_655
Ca1 S9 2.710222 1_555
Ca1 S11 2.839314 1_555
Ca1 S11 2.839314 1_655
Ca1 S12 2.996152 1_555
Ca1 S2 3.010690 1_555
Ca1 S2 3.010690 1_655
Ca1 S6 3.386515 1_655
Ca1 S6 3.386515 1_555
Ca2 S10 2.710222 1_554
Ca2 S8 2.839314 1_565
Ca2 S8 2.839314 1_465
Ca2 S15 2.996152 1_555
Ca2 S1 3.010690 1_555
Ca2 S1 3.010690 1_455
Ca2 S5 3.386515 1_555
Ca2 S5 3.386515 1_455
Ca3 S11 2.710222 1_555
Ca3 S9 2.839314 1_455
Ca3 S9 2.839314 1_555
Ca3 S14 2.996152 1_555
Ca3 S0 3.010690 1_455
Ca3 S0 3.010690 1_555
Ca3 S4 3.386515 1_455
Ca3 S4 3.386515 1_555
S0 S4 2.137492 1_555
S0 Yb7 2.977208 1_555
S0 Yb7 2.977208 1_655
S0 Yb0 3.372366 1_555
S1 S5 2.137492 1_555
S1 Yb6 2.977208 1_655
S1 Yb6 2.977208 1_555
S1 Yb1 3.372366 1_555
S2 S6 2.137492 1_555
S2 Yb5 2.977208 1_555
S2 Yb5 2.977208 1_455
S2 Yb2 3.372366 1_555
S3 S7 2.137492 1_555
S3 Yb4 2.977208 1_555
S3 Yb4 2.977208 1_455
S3 Yb3 3.372366 1_555
S4 Yb3 2.934686 1_555
S4 Yb3 2.934686 1_655
S4 Yb4 3.177522 1_555
S5 Yb2 2.934686 1_654
S5 Yb2 2.934686 1_554
S5 Yb5 3.177522 1_554
S6 Yb1 2.934686 1_555
S6 Yb1 2.934686 1_455
S6 Yb6 3.177522 1_555
S7 Yb0 2.934686 1_456
S7 Yb0 2.934686 1_556
S7 Yb7 3.177522 1_556
S8 Yb7 2.699031 1_555
S8 Yb7 2.699031 1_655
S9 Yb6 2.699031 1_655
S9 Yb6 2.699031 1_555
S10 Yb5 2.699031 1_455
S10 Yb5 2.699031 1_555
S11 Yb4 2.699031 1_555
S11 Yb4 2.699031 1_455
S12 Yb2 2.709667 1_555
S12 Yb2 2.709667 1_655
S12 Yb0 2.710878 1_556
S12 Yb4 2.736792 1_555
S13 Yb3 2.709667 1_655
S13 Yb3 2.709667 1_555
S13 Yb1 2.710878 1_545
S13 Yb5 2.736792 1_545
S14 Yb0 2.709667 1_555
S14 Yb0 2.709667 1_455
S14 Yb2 2.710878 1_554
S14 Yb6 2.736792 1_555
S15 Yb1 2.709667 1_455
S15 Yb1 2.709667 1_555
S15 Yb3 2.710878 1_565
S15 Yb7 2.736792 1_565
