# generated using pymatgen
data_Cs3Bi2(PS4)3
_symmetry_space_group_name_H-M   'P 1'
_cell_length_a   6.97409700
_cell_length_b   18.54482100
_cell_length_c   19.28165875
_cell_angle_alpha   81.53546859
_cell_angle_beta   90.00000000
_cell_angle_gamma   90.00000000
_symmetry_Int_Tables_number   1
_chemical_formula_structural   Cs3Bi2(PS4)3
_chemical_formula_sum   'Cs12 Bi8 P12 S48'
_cell_volume   2466.59799158
_cell_formula_units_Z   4
loop_
 _symmetry_equiv_pos_site_id
 _symmetry_equiv_pos_as_xyz
  1  'x, y, z'
loop_
 _atom_site_type_symbol
 _atom_site_label
 _atom_site_symmetry_multiplicity
 _atom_site_fract_x
 _atom_site_fract_y
 _atom_site_fract_z
 _atom_site_occupancy
  Cs  Cs0  1  0.73261900  0.89201200  0.98825900  1
  Cs  Cs1  1  0.23261900  0.10798800  0.51174100  1
  Cs  Cs2  1  0.26738100  0.10798800  0.01174100  1
  Cs  Cs3  1  0.76738100  0.89201200  0.48825900  1
  Cs  Cs4  1  0.75211300  0.62354900  0.30837800  1
  Cs  Cs5  1  0.25211300  0.37645100  0.19162200  1
  Cs  Cs6  1  0.24788700  0.37645100  0.69162200  1
  Cs  Cs7  1  0.74788700  0.62354900  0.80837800  1
  Cs  Cs8  1  0.27667500  0.76381100  0.63182000  1
  Cs  Cs9  1  0.77667500  0.23618900  0.86818000  1
  Cs  Cs10  1  0.72332500  0.23618900  0.36818000  1
  Cs  Cs11  1  0.22332500  0.76381100  0.13182000  1
  Bi  Bi0  1  0.19041800  0.92836200  0.79097800  1
  Bi  Bi1  1  0.69041800  0.07163800  0.70902200  1
  Bi  Bi2  1  0.80958200  0.07163800  0.20902200  1
  Bi  Bi3  1  0.30958200  0.92836200  0.29097800  1
  Bi  Bi4  1  0.32125400  0.59780000  0.50592100  1
  Bi  Bi5  1  0.82125400  0.40220000  0.99407900  1
  Bi  Bi6  1  0.67874600  0.40220000  0.49407900  1
  Bi  Bi7  1  0.17874600  0.59780000  0.00592100  1
  P  P0  1  0.79065400  0.88257400  0.69665800  1
  P  P1  1  0.29065400  0.11742600  0.80334200  1
  P  P2  1  0.20934600  0.11742600  0.30334200  1
  P  P3  1  0.70934600  0.88257400  0.19665800  1
  P  P4  1  0.24718000  0.77705500  0.41825000  1
  P  P5  1  0.74718000  0.22294500  0.08175000  1
  P  P6  1  0.75282000  0.22294500  0.58175000  1
  P  P7  1  0.25282000  0.77705500  0.91825000  1
  P  P8  1  0.74945800  0.53822200  0.60423100  1
  P  P9  1  0.24945800  0.46177800  0.89576900  1
  P  P10  1  0.25054200  0.46177800  0.39576900  1
  P  P11  1  0.75054200  0.53822200  0.10423100  1
  S  S0  1  0.82565700  0.88416800  0.80458500  1
  S  S1  1  0.32565700  0.11583200  0.69541500  1
  S  S2  1  0.17434300  0.11583200  0.19541500  1
  S  S3  1  0.67434300  0.88416800  0.30458500  1
  S  S4  1  0.77953100  0.78338300  0.66779200  1
  S  S5  1  0.27953100  0.21661700  0.83220800  1
  S  S6  1  0.22046900  0.21661700  0.33220800  1
  S  S7  1  0.72046900  0.78338300  0.16779200  1
  S  S8  1  0.23400100  0.88522900  0.93547400  1
  S  S9  1  0.73400100  0.11477100  0.56452600  1
  S  S10  1  0.76599900  0.11477100  0.06452600  1
  S  S11  1  0.26599900  0.88522900  0.43547400  1
  S  S12  1  0.02346900  0.94257200  0.65315500  1
  S  S13  1  0.52346900  0.05742800  0.84684500  1
  S  S14  1  0.97653100  0.05742800  0.34684500  1
  S  S15  1  0.47653100  0.94257200  0.15315500  1
  S  S16  1  0.50327900  0.72673000  0.44998000  1
  S  S17  1  0.00327900  0.27327000  0.05002000  1
  S  S18  1  0.49672100  0.27327000  0.55002000  1
  S  S19  1  0.99672100  0.72673000  0.94998000  1
  S  S20  1  0.19450600  0.78306700  0.31220200  1
  S  S21  1  0.69450600  0.21693300  0.18779800  1
  S  S22  1  0.80549400  0.21693300  0.68779800  1
  S  S23  1  0.30549400  0.78306700  0.81220200  1
  S  S24  1  0.50981400  0.58054400  0.64489500  1
  S  S25  1  0.00981400  0.41945600  0.85510500  1
  S  S26  1  0.49018600  0.41945600  0.35510500  1
  S  S27  1  0.99018600  0.58054400  0.14489500  1
  S  S28  1  0.25382500  0.57517100  0.37081400  1
  S  S29  1  0.75382500  0.42482900  0.12918600  1
  S  S30  1  0.74617500  0.42482900  0.62918600  1
  S  S31  1  0.24617500  0.57517100  0.87081400  1
  S  S32  1  0.03686000  0.72121400  0.47533400  1
  S  S33  1  0.53686000  0.27878600  0.02466600  1
  S  S34  1  0.96314000  0.27878600  0.52466600  1
  S  S35  1  0.46314000  0.72121400  0.97533400  1
  S  S36  1  0.71454000  0.55894900  0.49407000  1
  S  S37  1  0.21454000  0.44105100  0.00593000  1
  S  S38  1  0.28546000  0.44105100  0.50593000  1
  S  S39  1  0.78546000  0.55894900  0.99407000  1
  S  S40  1  0.99941200  0.57610600  0.63553000  1
  S  S41  1  0.49941200  0.42389400  0.86447000  1
  S  S42  1  0.00058800  0.42389400  0.36447000  1
  S  S43  1  0.50058800  0.57610600  0.13553000  1
  S  S44  1  0.54071300  0.93872900  0.66621700  1
  S  S45  1  0.04071300  0.06127100  0.83378300  1
  S  S46  1  0.45928700  0.06127100  0.33378300  1
  S  S47  1  0.95928700  0.93872900  0.16621700  1
loop_
_geom_bond_atom_site_label_1
_geom_bond_atom_site_label_2
_geom_bond_distance
_geom_bond_site_symmetry_2
Cs0 S0 3.624409 1_555
Cs0 S8 3.630672 1_555
Cs0 S8 3.649139 1_655
Cs0 S35 3.722778 1_555
Cs0 S7 3.741089 1_556
Cs0 S19 3.741426 1_555
Cs0 S15 3.880146 1_556
Cs0 S47 3.987315 1_556
Cs0 S13 4.063283 1_565
Cs1 S1 3.624409 1_555
Cs1 S9 3.630672 1_455
Cs1 S9 3.649139 1_555
Cs1 S34 3.722778 1_455
Cs1 S6 3.741089 1_555
Cs1 S18 3.741426 1_555
Cs1 S14 3.880146 1_455
Cs1 S46 3.987315 1_555
Cs1 S12 4.063283 1_545
Cs2 S2 3.624409 1_555
Cs2 S10 3.630672 1_555
Cs2 S10 3.649139 1_455
Cs2 S33 3.722778 1_555
Cs2 S5 3.741089 1_554
Cs2 S17 3.741426 1_555
Cs2 S13 3.880146 1_554
Cs2 S45 3.987315 1_554
Cs2 S15 4.063283 1_545
Cs3 S3 3.624409 1_555
Cs3 S11 3.630672 1_655
Cs3 S11 3.649139 1_555
Cs3 S32 3.722778 1_655
Cs3 S4 3.741089 1_555
Cs3 S16 3.741426 1_555
Cs3 S12 3.880146 1_655
Cs3 S44 3.987315 1_555
Cs3 S14 4.063283 1_565
Cs4 S36 3.613961 1_555
Cs4 S7 3.717149 1_555
Cs4 S28 3.743343 1_555
Cs4 S27 3.750918 1_555
Cs4 S28 3.765522 1_655
Cs4 S16 3.957986 1_555
Cs4 S43 3.977680 1_555
Cs4 S42 4.086899 1_655
Cs5 S37 3.613961 1_555
Cs5 S6 3.717149 1_555
Cs5 S29 3.743343 1_455
Cs5 S26 3.750918 1_555
Cs5 S29 3.765522 1_555
Cs5 S17 3.957986 1_555
Cs5 S42 3.977680 1_555
Cs5 S43 4.086899 1_555
Cs6 S38 3.613961 1_555
Cs6 S5 3.717149 1_555
Cs6 S30 3.743343 1_555
Cs6 S25 3.750918 1_555
Cs6 S30 3.765522 1_455
Cs6 S18 3.957986 1_555
Cs6 S41 3.977680 1_555
Cs6 S40 4.086899 1_455
Cs7 S39 3.613961 1_555
Cs7 S4 3.717149 1_555
Cs7 S31 3.743343 1_655
Cs7 S24 3.750918 1_555
Cs7 S31 3.765522 1_555
Cs7 S19 3.957986 1_555
Cs7 S40 3.977680 1_555
Cs7 S41 4.086899 1_555
Cs8 S23 3.553940 1_555
Cs8 S4 3.564818 1_455
Cs8 S4 3.603574 1_555
Cs8 S32 3.636910 1_555
Cs8 S24 3.742435 1_555
Cs8 S12 3.831302 1_555
Cs8 S44 3.871237 1_555
Cs8 S40 3.973399 1_455
Cs8 S16 3.996685 1_555
Cs8 S11 4.110823 1_555
Cs9 S22 3.553940 1_555
Cs9 S5 3.564818 1_555
Cs9 S5 3.603574 1_655
Cs9 S33 3.636910 1_556
Cs9 S25 3.742435 1_655
Cs9 S13 3.831302 1_555
Cs9 S45 3.871237 1_655
Cs9 S41 3.973399 1_555
Cs9 S17 3.996685 1_656
Cs9 S10 4.110823 1_556
Cs10 S21 3.553940 1_555
Cs10 S6 3.564818 1_655
Cs10 S6 3.603574 1_555
Cs10 S34 3.636910 1_555
Cs10 S26 3.742435 1_555
Cs10 S14 3.831302 1_555
Cs10 S46 3.871237 1_555
Cs10 S42 3.973399 1_655
Cs10 S18 3.996685 1_555
Cs10 S9 4.110823 1_555
Cs11 S20 3.553940 1_555
Cs11 S7 3.564818 1_555
Cs11 S7 3.603574 1_455
Cs11 S35 3.636910 1_554
Cs11 S27 3.742435 1_455
Cs11 S15 3.831302 1_555
Cs11 S47 3.871237 1_455
Cs11 S43 3.973399 1_555
Cs11 S19 3.996685 1_454
Cs11 S8 4.110823 1_554
Bi0 S0 2.673676 1_455
Bi0 S23 2.783363 1_555
Bi0 S8 2.799751 1_555
Bi0 S12 2.877671 1_555
Bi0 S45 2.906072 1_565
Bi1 S1 2.673676 1_555
Bi1 S22 2.783363 1_555
Bi1 S9 2.799751 1_555
Bi1 S13 2.877671 1_555
Bi1 S44 2.906072 1_545
Bi2 S2 2.673676 1_655
Bi2 S21 2.783363 1_555
Bi2 S10 2.799751 1_555
Bi2 S14 2.877671 1_555
Bi2 S47 2.906072 1_545
Bi3 S3 2.673676 1_555
Bi3 S20 2.783363 1_555
Bi3 S11 2.799751 1_555
Bi3 S15 2.877671 1_555
Bi3 S46 2.906072 1_565
Bi4 S28 2.739629 1_555
Bi4 S16 2.780745 1_555
Bi4 S36 2.853562 1_555
Bi4 S38 2.917556 1_555
Bi4 S24 2.959696 1_555
Bi4 S32 3.020331 1_555
Bi5 S29 2.739629 1_556
Bi5 S17 2.780745 1_656
Bi5 S37 2.853562 1_656
Bi5 S39 2.917556 1_555
Bi5 S25 2.959696 1_655
Bi5 S33 3.020331 1_556
Bi6 S30 2.739629 1_555
Bi6 S18 2.780745 1_555
Bi6 S38 2.853562 1_555
Bi6 S36 2.917556 1_555
Bi6 S26 2.959696 1_555
Bi6 S34 3.020331 1_555
Bi7 S31 2.739629 1_554
Bi7 S19 2.780745 1_454
Bi7 S39 2.853562 1_454
Bi7 S37 2.917556 1_555
Bi7 S27 2.959696 1_455
Bi7 S35 3.020331 1_554
P0 S4 2.000224 1_555
P0 S44 2.070626 1_555
P0 S12 2.074405 1_655
P0 S0 2.099806 1_555
P1 S5 2.000224 1_555
P1 S45 2.070626 1_555
P1 S13 2.074405 1_555
P1 S1 2.099806 1_555
P2 S6 2.000224 1_555
P2 S46 2.070626 1_555
P2 S14 2.074405 1_455
P2 S2 2.099806 1_555
P3 S7 2.000224 1_555
P3 S47 2.070626 1_555
P3 S15 2.074405 1_555
P3 S3 2.099806 1_555
P4 S32 2.024795 1_555
P4 S20 2.064315 1_555
P4 S16 2.065723 1_555
P4 S11 2.085177 1_555
P5 S33 2.024795 1_555
P5 S21 2.064315 1_555
P5 S17 2.065723 1_655
P5 S10 2.085177 1_555
P6 S34 2.024795 1_555
P6 S22 2.064315 1_555
P6 S18 2.065723 1_555
P6 S9 2.085177 1_555
P7 S35 2.024795 1_555
P7 S23 2.064315 1_555
P7 S19 2.065723 1_455
P7 S8 2.085177 1_555
P8 S40 2.005334 1_555
P8 S24 2.050651 1_555
P8 S30 2.087142 1_555
P8 S36 2.116231 1_555
P9 S41 2.005334 1_555
P9 S25 2.050651 1_555
P9 S31 2.087142 1_555
P9 S37 2.116231 1_556
P10 S42 2.005334 1_555
P10 S26 2.050651 1_555
P10 S28 2.087142 1_555
P10 S38 2.116231 1_555
P11 S43 2.005334 1_555
P11 S27 2.050651 1_555
P11 S29 2.087142 1_555
P11 S39 2.116231 1_554
