# generated using pymatgen
data_Pr2NiGe6
_symmetry_space_group_name_H-M   'P 1'
_cell_length_a   4.10697500
_cell_length_b   4.16590800
_cell_length_c   11.20419451
_cell_angle_alpha   90.00000000
_cell_angle_beta   100.56078191
_cell_angle_gamma   90.00000000
_symmetry_Int_Tables_number   1
_chemical_formula_structural   Pr2NiGe6
_chemical_formula_sum   'Pr2 Ni1 Ge6'
_cell_volume   188.44857349
_cell_formula_units_Z   1
loop_
 _symmetry_equiv_pos_site_id
 _symmetry_equiv_pos_as_xyz
  1  'x, y, z'
loop_
 _atom_site_type_symbol
 _atom_site_label
 _atom_site_symmetry_multiplicity
 _atom_site_fract_x
 _atom_site_fract_y
 _atom_site_fract_z
 _atom_site_occupancy
  Pr  Pr0  1  0.77843700  0.50000000  0.55687500  1
  Pr  Pr1  1  0.11267900  0.50000000  0.22535800  1
  Ni  Ni0  1  0.55382100  0.00000000  0.10764200  1
  Ge  Ge0  1  0.49963400  0.50000000  0.99926800  1
  Ge  Ge1  1  0.38661600  0.50000000  0.77323200  1
  Ge  Ge2  1  0.99920800  0.00000000  0.99841600  1
  Ge  Ge3  1  0.88500000  0.00000000  0.77000000  1
  Ge  Ge4  1  0.66056700  0.00000000  0.32113300  1
  Ge  Ge5  1  0.23103800  0.00000000  0.46207500  1
loop_
_geom_bond_atom_site_label_1
_geom_bond_atom_site_label_2
_geom_bond_distance
_geom_bond_site_symmetry_2
Ni0 Pr1 3.199470 1_645
Ni0 Pr1 3.199470 1_655
Ni0 Pr1 3.199470 1_545
Ni0 Pr1 3.199470 1_555
Ge0 Ni0 2.400741 1_556
Ge0 Ni0 2.400741 1_566
Ge0 Ge1 2.489653 1_555
Ge0 Ge2 2.924995 1_465
Ge0 Ge2 2.924995 1_455
Ge0 Ge2 2.924995 1_555
Ge0 Ge2 2.924995 1_565
Ge0 Pr1 3.227715 1_656
Ge0 Pr1 3.227715 1_556
Ge1 Ge3 2.925197 1_455
Ge1 Ge3 2.925197 1_465
Ge1 Ge3 2.925197 1_555
Ge1 Ge3 2.925197 1_565
Ge1 Pr0 3.145743 1_555
Ge1 Pr0 3.145746 1_455
Ge2 Ni0 2.379950 1_656
Ge2 Ni0 2.379950 1_556
Ge2 Ge3 2.515867 1_555
Ge2 Pr1 3.253745 1_656
Ge2 Pr1 3.253745 1_646
Ge3 Pr0 3.138343 1_545
Ge3 Pr0 3.138343 1_555
Ge4 Ni0 2.351477 1_555
Ge4 Ge5 2.574244 1_655
Ge4 Ge5 2.574244 1_555
Ge4 Pr1 3.109393 1_645
Ge4 Pr1 3.109393 1_655
Ge4 Pr1 3.109396 1_545
Ge4 Pr1 3.109396 1_555
Ge4 Pr0 3.328785 1_555
Ge4 Pr0 3.328785 1_545
Ge5 Pr0 3.105765 1_545
Ge5 Pr0 3.105765 1_555
Ge5 Pr0 3.105770 1_445
Ge5 Pr0 3.105770 1_455
Ge5 Pr1 3.337169 1_555
Ge5 Pr1 3.337169 1_545
