# generated using pymatgen
data_K2Dy4Cu4S9
_symmetry_space_group_name_H-M   'P 1'
_cell_length_a   7.16485080
_cell_length_b   7.16485080
_cell_length_c   15.92345374
_cell_angle_alpha   71.06043075
_cell_angle_beta   71.06043075
_cell_angle_gamma   32.00781116
_symmetry_Int_Tables_number   1
_chemical_formula_structural   K2Dy4Cu4S9
_chemical_formula_sum   'K2 Dy4 Cu4 S9'
_cell_volume   407.82122175
_cell_formula_units_Z   1
loop_
 _symmetry_equiv_pos_site_id
 _symmetry_equiv_pos_as_xyz
  1  'x, y, z'
loop_
 _atom_site_type_symbol
 _atom_site_label
 _atom_site_symmetry_multiplicity
 _atom_site_fract_x
 _atom_site_fract_y
 _atom_site_fract_z
 _atom_site_occupancy
  K  K0  1  0.96546500  0.98018000  0.26935100  1
  K  K1  1  0.01982000  0.03453500  0.73064900  1
  Dy  Dy0  1  0.34282800  0.34971500  0.55651400  1
  Dy  Dy1  1  0.65028500  0.65717200  0.44348600  1
  Dy  Dy2  1  0.23384500  0.23650100  0.89749200  1
  Dy  Dy3  1  0.77165200  0.76739900  0.10622000  1
  Cu  Cu0  1  0.74903500  0.76228000  0.73058700  1
  Cu  Cu1  1  0.23772000  0.25096500  0.26941300  1
  Cu  Cu2  1  0.43760000  0.42770000  0.96254100  1
  Cu  Cu3  1  0.57211100  0.57339400  0.04075200  1
  S  S0  1  0.86715800  0.86307900  0.92611200  1
  S  S1  1  0.13948400  0.13890500  0.07784200  1
  S  S2  1  0.64744200  0.65804700  0.27977500  1
  S  S3  1  0.60937500  0.61364000  0.87547600  1
  S  S4  1  0.29581500  0.30734000  0.39825000  1
  S  S5  1  0.69266000  0.70418500  0.60175000  1
  S  S6  1  0.34195300  0.35255800  0.72022500  1
  S  S7  1  0.39579900  0.39088500  0.12832700  1
  S  S8  1  0.99528800  0.00471200  0.50000000  1
loop_
_geom_bond_atom_site_label_1
_geom_bond_atom_site_label_2
_geom_bond_distance
_geom_bond_site_symmetry_2
K0 S1 3.135701 1_665
K0 S2 3.212074 1_565
K0 S2 3.222044 1_655
K0 S4 3.222487 1_565
K0 S4 3.230203 1_655
K0 S7 3.413483 1_565
K0 S7 3.458069 1_655
K1 S0 3.159070 1_445
K1 S6 3.212074 1_455
K1 S6 3.222044 1_545
K1 S5 3.222487 1_455
K1 S5 3.230203 1_545
K1 S3 3.506791 1_455
K1 S3 3.529971 1_545
Dy0 S6 2.611463 1_555
Dy0 S5 2.746197 1_545
Dy0 S5 2.759346 1_455
Dy0 S4 2.788863 1_555
Dy0 S8 2.808758 1_555
Dy0 S8 2.815798 1_465
Dy1 S2 2.611463 1_555
Dy1 S4 2.746197 1_655
Dy1 S4 2.759346 1_565
Dy1 S5 2.788863 1_555
Dy1 S8 2.808758 1_555
Dy1 S8 2.815798 1_465
Dy2 S3 2.705054 1_545
Dy2 S3 2.709692 1_455
Dy2 S6 2.721852 1_555
Dy2 S1 2.726008 1_556
Dy2 S0 2.795002 1_455
Dy2 S0 2.813745 1_545
Dy3 S2 2.687705 1_555
Dy3 S7 2.708316 1_565
Dy3 S7 2.710220 1_655
Dy3 S0 2.721887 1_554
Dy3 S1 2.801483 1_655
Dy3 S1 2.811699 1_565
Cu0 S6 2.315175 1_565
Cu0 S6 2.324058 1_655
Cu0 S5 2.433630 1_555
Cu0 S3 2.484364 1_555
Cu1 S2 2.315175 1_455
Cu1 S2 2.324058 1_545
Cu1 S4 2.433630 1_555
Cu1 S7 2.479287 1_555
Cu2 S0 2.328721 1_545
Cu2 S0 2.348148 1_455
Cu2 S3 2.384489 1_555
Cu2 S7 2.509382 1_556
Cu3 S1 2.332161 1_565
Cu3 S1 2.338384 1_655
Cu3 S7 2.392623 1_555
Cu3 S3 2.502487 1_554
