# generated using pymatgen
data_Li3Mn2O5
_symmetry_space_group_name_H-M   'P 1'
_cell_length_a   5.09499101
_cell_length_b   5.23980300
_cell_length_c   7.63892959
_cell_angle_alpha   110.02299441
_cell_angle_beta   102.82489254
_cell_angle_gamma   97.52952959
_symmetry_Int_Tables_number   1
_chemical_formula_structural   Li3Mn2O5
_chemical_formula_sum   'Li6 Mn4 O10'
_cell_volume   181.99415760
_cell_formula_units_Z   2
loop_
 _symmetry_equiv_pos_site_id
 _symmetry_equiv_pos_as_xyz
  1  'x, y, z'
loop_
 _atom_site_type_symbol
 _atom_site_label
 _atom_site_symmetry_multiplicity
 _atom_site_fract_x
 _atom_site_fract_y
 _atom_site_fract_z
 _atom_site_occupancy
  Li  Li0  1  0.50000800  0.59999200  0.69999600  1
  Li  Li1  1  0.00000800  0.60000500  0.20000300  1
  Li  Li2  1  0.49960600  0.19243800  0.90533200  1
  Li  Li3  1  0.50040100  0.00756200  0.49466700  1
  Li  Li4  1  0.51708900  0.80293200  0.10549000  1
  Li  Li5  1  0.48292400  0.39707900  0.29450900  1
  Mn  Mn0  1  0.99972700  0.20022200  0.39849200  1
  Mn  Mn1  1  0.99843500  0.79844800  0.59714500  1
  Mn  Mn2  1  0.00026200  0.99977300  0.00150300  1
  Mn  Mn3  1  0.00149100  0.40152000  0.80284700  1
  O  O0  1  0.23186200  0.81843600  0.85127200  1
  O  O1  1  0.76814500  0.38156700  0.54873600  1
  O  O2  1  0.21895700  0.36367200  0.03339600  1
  O  O3  1  0.78104900  0.83633200  0.36660900  1
  O  O4  1  0.23396400  0.21357400  0.64228200  1
  O  O5  1  0.76604400  0.98644200  0.75772200  1
  O  O6  1  0.21422600  0.57294200  0.45302100  1
  O  O7  1  0.78579300  0.62705300  0.94697800  1
  O  O8  1  0.22872800  0.01947600  0.24618100  1
  O  O9  1  0.77128100  0.18053400  0.15381900  1
loop_
_geom_bond_atom_site_label_1
_geom_bond_atom_site_label_2
_geom_bond_distance
_geom_bond_site_symmetry_2
Li0 O6 2.059808 1_555
Li0 O7 2.059836 1_555
Li0 O4 2.129670 1_555
Li0 O5 2.129761 1_555
Li0 O1 2.171711 1_555
Li0 O0 2.171851 1_555
Li1 O6 2.058823 1_555
Li1 O7 2.058827 1_454
Li1 O2 2.076234 1_555
Li1 O3 2.076254 1_455
Li1 O9 2.220065 1_455
Li1 O8 2.220066 1_565
Li2 O2 2.040302 1_556
Li2 O0 2.089730 1_545
Li2 O9 2.111917 1_556
Li2 O5 2.123534 1_545
Li2 O4 2.205936 1_555
Li2 O7 2.416840 1_555
Li3 O3 2.040268 1_545
Li3 O1 2.089724 1_555
Li3 O8 2.111929 1_555
Li3 O4 2.123583 1_555
Li3 O5 2.205932 1_545
Li3 O6 2.416834 1_545
Li4 O3 2.079993 1_555
Li4 O9 2.084292 1_565
Li4 O7 2.119479 1_554
Li4 O0 2.185354 1_554
Li4 O8 2.214454 1_565
Li4 O2 2.398433 1_555
Li5 O2 2.079960 1_555
Li5 O8 2.084308 1_555
Li5 O6 2.119427 1_555
Li5 O1 2.185410 1_555
Li5 O9 2.214436 1_555
Li5 O3 2.398376 1_555
Mn0 O9 1.931168 1_555
Mn0 O8 1.936404 1_655
Mn0 O1 1.939203 1_555
Mn0 O4 1.949241 1_655
Mn0 O6 1.965570 1_655
Mn0 O3 1.985196 1_545
Mn1 O3 1.948980 1_555
Mn1 O6 1.950406 1_655
Mn1 O0 1.999269 1_655
Mn1 O5 1.999973 1_555
Mn1 O1 2.206233 1_555
Mn1 O4 2.215619 1_665
Mn2 O8 1.931210 1_565
Mn2 O9 1.936372 1_465
Mn2 O0 1.939206 1_554
Mn2 O5 1.949188 1_454
Mn2 O7 1.965520 1_454
Mn2 O2 1.985246 1_565
Mn3 O2 1.949124 1_556
Mn3 O7 1.950136 1_455
Mn3 O1 1.999081 1_455
Mn3 O4 2.000161 1_555
Mn3 O0 2.206506 1_555
Mn3 O5 2.215273 1_445
