# generated using pymatgen
data_YAgAu2
_symmetry_space_group_name_H-M   'P 1'
_cell_length_a   11.74457210
_cell_length_b   11.74457210
_cell_length_c   11.74457210
_cell_angle_alpha   125.21583093
_cell_angle_beta   118.36201545
_cell_angle_gamma   87.03654384
_symmetry_Int_Tables_number   1
_chemical_formula_structural   YAgAu2
_chemical_formula_sum   'Y1 Ag1 Au2'
_cell_volume   1107.59423267
_cell_formula_units_Z   1
loop_
 _symmetry_equiv_pos_site_id
 _symmetry_equiv_pos_as_xyz
  1  'x, y, z'
loop_
 _atom_site_type_symbol
 _atom_site_label
 _atom_site_symmetry_multiplicity
 _atom_site_fract_x
 _atom_site_fract_y
 _atom_site_fract_z
 _atom_site_occupancy
  Y  Y0  1  0.00000000  0.00000000  0.00000000  1
  Ag  Ag0  1  0.00000000  0.50000000  0.50000000  1
  Au  Au0  1  0.00000000  0.25046700  0.25046700  1
  Au  Au1  1  0.00000000  0.74953300  0.74953300  1
loop_
_geom_bond_atom_site_label_1
_geom_bond_atom_site_label_2
_geom_bond_distance
_geom_bond_site_symmetry_2
Ag0 Au0 2.696658 1_555
Ag0 Au1 2.696658 1_555
Au0 Y0 2.706751 1_555
Au1 Y0 2.706751 1_566
