# generated using pymatgen
data_CuH2CN2Cl
_symmetry_space_group_name_H-M   'P 1'
_cell_length_a   10.54017400
_cell_length_b   4.08889400
_cell_length_c   13.42334700
_cell_angle_alpha   90.00000000
_cell_angle_beta   90.00000000
_cell_angle_gamma   90.00000000
_symmetry_Int_Tables_number   1
_chemical_formula_structural   CuH2CN2Cl
_chemical_formula_sum   'Cu4 H8 C4 N8 Cl4'
_cell_volume   578.51476758
_cell_formula_units_Z   4
loop_
 _symmetry_equiv_pos_site_id
 _symmetry_equiv_pos_as_xyz
  1  'x, y, z'
loop_
 _atom_site_type_symbol
 _atom_site_label
 _atom_site_symmetry_multiplicity
 _atom_site_fract_x
 _atom_site_fract_y
 _atom_site_fract_z
 _atom_site_occupancy
  Cu  Cu0  1  0.99962700  0.25000000  0.59202400  1
  Cu  Cu1  1  0.49962700  0.25000000  0.90797600  1
  Cu  Cu2  1  0.00037300  0.75000000  0.40797600  1
  Cu  Cu3  1  0.50037300  0.75000000  0.09202400  1
  H  H0  1  0.64705000  0.25000000  0.26229900  1
  H  H1  1  0.14705000  0.25000000  0.23770100  1
  H  H2  1  0.35295000  0.75000000  0.73770100  1
  H  H3  1  0.85295000  0.75000000  0.76229900  1
  H  H4  1  0.68861100  0.25000000  0.39140700  1
  H  H5  1  0.18861100  0.25000000  0.10859300  1
  H  H6  1  0.31138900  0.75000000  0.60859300  1
  H  H7  1  0.81138900  0.75000000  0.89140700  1
  C  C0  1  0.39351900  0.25000000  0.37931800  1
  C  C1  1  0.89351900  0.25000000  0.12068200  1
  C  C2  1  0.60648100  0.75000000  0.62068200  1
  C  C3  1  0.10648100  0.75000000  0.87931800  1
  N  N0  1  0.50302700  0.25000000  0.35958400  1
  N  N1  1  0.00302700  0.25000000  0.14041600  1
  N  N2  1  0.49697300  0.75000000  0.64041600  1
  N  N3  1  0.99697300  0.75000000  0.85958400  1
  N  N4  1  0.62403400  0.25000000  0.33584300  1
  N  N5  1  0.12403400  0.25000000  0.16415700  1
  N  N6  1  0.37596600  0.75000000  0.66415700  1
  N  N7  1  0.87596600  0.75000000  0.83584300  1
  Cl  Cl0  1  0.06824600  0.25000000  0.40098200  1
  Cl  Cl1  1  0.56824600  0.25000000  0.09901800  1
  Cl  Cl2  1  0.93175400  0.75000000  0.59901800  1
  Cl  Cl3  1  0.43175400  0.75000000  0.90098200  1
loop_
_geom_bond_atom_site_label_1
_geom_bond_atom_site_label_2
_geom_bond_distance
_geom_bond_site_symmetry_2
H0 N4 1.016577 1_555
H1 N5 1.016577 1_555
H2 N6 1.016577 1_555
H3 N7 1.016577 1_555
H4 N4 1.009746 1_555
H5 N5 1.009746 1_555
H6 N6 1.009746 1_555
H7 N7 1.009746 1_555
C0 N0 1.184240 1_555
C1 N1 1.184240 1_655
C2 N2 1.184240 1_555
C3 N3 1.184240 1_455
N0 N4 1.314646 1_555
N1 N5 1.314646 1_555
N2 N6 1.314646 1_555
N3 N7 1.314646 1_555
Cl0 Cu2 2.168033 1_545
Cl0 Cu2 2.168033 1_555
Cl0 Cu0 2.664463 1_455
Cl1 Cu3 2.168033 1_545
Cl1 Cu3 2.168033 1_555
Cl1 Cu1 2.664463 1_554
Cl2 Cu0 2.168033 1_565
Cl2 Cu0 2.168033 1_555
Cl2 Cu2 2.664463 1_655
Cl3 Cu1 2.168033 1_555
Cl3 Cu1 2.168033 1_565
Cl3 Cu3 2.664463 1_556
