# generated using pymatgen
data_Sr2Ca49Mo12N56O3
_symmetry_space_group_name_H-M   'P 1'
_cell_length_a   10.63369400
_cell_length_b   12.44386663
_cell_length_c   16.01338568
_cell_angle_alpha   102.52825243
_cell_angle_beta   95.36279047
_cell_angle_gamma   110.07797057
_symmetry_Int_Tables_number   1
_chemical_formula_structural   Sr2Ca49Mo12N56O3
_chemical_formula_sum   'Sr2 Ca49 Mo12 N56 O3'
_cell_volume   1909.92948134
_cell_formula_units_Z   1
loop_
 _symmetry_equiv_pos_site_id
 _symmetry_equiv_pos_as_xyz
  1  'x, y, z'
loop_
 _atom_site_type_symbol
 _atom_site_label
 _atom_site_symmetry_multiplicity
 _atom_site_fract_x
 _atom_site_fract_y
 _atom_site_fract_z
 _atom_site_occupancy
  Sr  Sr0  1  0.56853700  0.13997700  0.65941300  1
  Sr  Sr1  1  0.43146300  0.86002300  0.34058700  1
  Ca  Ca0  1  0.51196100  0.44992300  0.19996100  1
  Ca  Ca1  1  0.48803900  0.55007700  0.80003900  1
  Ca  Ca2  1  0.59029600  0.19804900  0.25521100  1
  Ca  Ca3  1  0.40970400  0.80195100  0.74478900  1
  Ca  Ca4  1  0.18106200  0.52117700  0.67093200  1
  Ca  Ca5  1  0.81893800  0.47882300  0.32906800  1
  Ca  Ca6  1  0.25469600  0.27257200  0.70644100  1
  Ca  Ca7  1  0.74530400  0.72742800  0.29355900  1
  Ca  Ca8  1  0.13718100  0.59443200  0.25481300  1
  Ca  Ca9  1  0.86281900  0.40556800  0.74518700  1
  Ca  Ca10  1  0.43824600  0.67507500  0.15378500  1
  Ca  Ca11  1  0.56175400  0.32492500  0.84621500  1
  Ca  Ca12  1  0.21363400  0.36418500  0.28431800  1
  Ca  Ca13  1  0.78636600  0.63581500  0.71568200  1
  Ca  Ca14  1  0.06285200  0.82446300  0.21801200  1
  Ca  Ca15  1  0.93714800  0.17553700  0.78198800  1
  Ca  Ca16  1  0.23596700  0.30661700  0.49479600  1
  Ca  Ca17  1  0.76403300  0.69338300  0.50520400  1
  Ca  Ca18  1  0.89868100  0.30727900  0.16913900  1
  Ca  Ca19  1  0.10131900  0.69272100  0.83086100  1
  Ca  Ca20  1  0.65761200  0.01207800  0.06528300  1
  Ca  Ca21  1  0.34238800  0.98792200  0.93471700  1
  Ca  Ca22  1  0.53121400  0.38202800  0.41495100  1
  Ca  Ca23  1  0.46878600  0.61797200  0.58504900  1
  Ca  Ca24  1  0.98137300  0.07033600  0.17995000  1
  Ca  Ca25  1  0.01862700  0.92966400  0.82005000  1
  Ca  Ca26  1  0.14190500  0.64152900  0.05234700  1
  Ca  Ca27  1  0.85809500  0.35847100  0.94765300  1
  Ca  Ca28  1  0.35772500  0.92348500  0.14507000  1
  Ca  Ca29  1  0.64227500  0.07651500  0.85493000  1
  Ca  Ca30  1  0.04082400  0.89342800  0.02144600  1
  Ca  Ca31  1  0.95917600  0.10657200  0.97855400  1
  Ca  Ca32  1  0.15008200  0.54306500  0.45922200  1
  Ca  Ca33  1  0.84991800  0.45693500  0.54077800  1
  Ca  Ca34  1  0.28180300  0.17052000  0.09704600  1
  Ca  Ca35  1  0.71819700  0.82948000  0.90295400  1
  Ca  Ca36  1  0.80616200  0.54395600  0.12492400  1
  Ca  Ca37  1  0.19383800  0.45604400  0.87507600  1
  Ca  Ca38  1  0.09569600  0.73071700  0.62732500  1
  Ca  Ca39  1  0.90430400  0.26928300  0.37267500  1
  Ca  Ca40  1  0.30738200  0.03624700  0.47437400  1
  Ca  Ca41  1  0.69261800  0.96375400  0.52562600  1
  Ca  Ca42  1  0.26200800  0.21961600  0.90402900  1
  Ca  Ca43  1  0.73799200  0.78038400  0.09597100  1
  Ca  Ca44  1  0.61996300  0.16267000  0.45417000  1
  Ca  Ca45  1  0.38003700  0.83733000  0.54583000  1
  Ca  Ca46  1  0.96724400  0.02411300  0.40196700  1
  Ca  Ca47  1  0.03275600  0.97588700  0.59803300  1
  Ca  Ca48  1  0.50000000  0.50000000  0.00000000  1
  Mo  Mo0  1  0.27160500  0.01407000  0.73744400  1
  Mo  Mo1  1  0.72839500  0.98593000  0.26255600  1
  Mo  Mo2  1  0.47135800  0.60233000  0.38400200  1
  Mo  Mo3  1  0.52864200  0.39767000  0.61599800  1
  Mo  Mo4  1  0.27980400  0.12039900  0.28366400  1
  Mo  Mo5  1  0.72019600  0.87960100  0.71633600  1
  Mo  Mo6  1  0.59055500  0.24343400  0.06942900  1
  Mo  Mo7  1  0.40944500  0.75656600  0.93057100  1
  Mo  Mo8  1  0.02189800  0.74178200  0.40688400  1
  Mo  Mo9  1  0.97810200  0.25821800  0.59311600  1
  Mo  Mo10  1  0.12678000  0.38178800  0.05541600  1
  Mo  Mo11  1  0.87322000  0.61821200  0.94458400  1
  N  N0  1  0.72964800  0.02305700  0.38303400  1
  N  N1  1  0.27035200  0.97694300  0.61696600  1
  N  N2  1  0.71848600  0.32465200  0.39505800  1
  N  N3  1  0.28151400  0.67534800  0.60494200  1
  N  N4  1  0.20982900  0.79704100  0.41139000  1
  N  N5  1  0.79017100  0.20295900  0.58861000  1
  N  N6  1  0.79402100  0.12721400  0.22512500  1
  N  N7  1  0.20597900  0.87278600  0.77487600  1
  N  N8  1  0.05307600  0.29303100  0.93615300  1
  N  N9  1  0.94692400  0.70696900  0.06384700  1
  N  N10  1  0.71693000  0.19979500  0.00572500  1
  N  N11  1  0.28307000  0.80020500  0.99427500  1
  N  N12  1  0.02852300  0.42224300  0.31134800  1
  N  N13  1  0.97147700  0.57775700  0.68865200  1
  N  N14  1  0.40127100  0.05927000  0.32831700  1
  N  N15  1  0.59872900  0.94073000  0.67168300  1
  N  N16  1  0.35611900  0.48322900  0.43058300  1
  N  N17  1  0.64388100  0.51677100  0.56941700  1
  N  N18  1  0.45272900  0.24958300  0.53142300  1
  N  N19  1  0.54727100  0.75041700  0.46857700  1
  N  N20  1  0.63049900  0.61404800  0.15284200  1
  N  N21  1  0.36950100  0.38595200  0.84715800  1
  N  N22  1  0.15775000  0.15331700  0.35595200  1
  N  N23  1  0.84225000  0.84668300  0.64404800  1
  N  N24  1  0.48605600  0.10291000  0.09712100  1
  N  N25  1  0.51394400  0.89709000  0.90287900  1
  N  N26  1  0.05806800  0.14669600  0.55286700  1
  N  N27  1  0.94193200  0.85330400  0.44713300  1
  N  N28  1  0.28598200  0.50230000  0.04914200  1
  N  N29  1  0.71401800  0.49770000  0.95085800  1
  N  N30  1  0.69007200  0.35686500  0.17709700  1
  N  N31  1  0.30992800  0.64313500  0.82290300  1
  N  N32  1  0.15221100  0.04415700  0.95791400  1
  N  N33  1  0.84778900  0.95584300  0.04208600  1
  N  N34  1  0.37891300  0.44122300  0.64155400  1
  N  N35  1  0.62108700  0.55877700  0.35844600  1
  N  N36  1  0.14211900  0.08756000  0.75347100  1
  N  N37  1  0.85788100  0.91244000  0.24652900  1
  N  N38  1  0.44064400  0.11297900  0.80754400  1
  N  N39  1  0.55935600  0.88702100  0.19245600  1
  N  N40  1  0.46204100  0.29728200  0.02339100  1
  N  N41  1  0.53795900  0.70271800  0.97660900  1
  N  N42  1  0.37489600  0.59958300  0.27881000  1
  N  N43  1  0.62510400  0.40041700  0.72119000  1
  N  N44  1  0.03931700  0.37236200  0.52801700  1
  N  N45  1  0.96068300  0.62763800  0.47198300  1
  N  N46  1  0.17805500  0.01021500  0.17393800  1
  N  N47  1  0.82194500  0.98978500  0.82606200  1
  N  N48  1  0.05966700  0.33399000  0.71363000  1
  N  N49  1  0.94033300  0.66601000  0.28637000  1
  N  N50  1  0.11365800  0.26894700  0.12321200  1
  N  N51  1  0.88634200  0.73105300  0.87678800  1
  N  N52  1  0.38315300  0.26262200  0.25841800  1
  N  N53  1  0.61684700  0.73737800  0.74158200  1
  N  N54  1  0.00960700  0.45851000  0.09435500  1
  N  N55  1  0.99039300  0.54149000  0.90564500  1
  O  O0  1  0.23751600  0.75686400  0.19296800  1
  O  O1  1  0.76248400  0.24313600  0.80703200  1
  O  O2  1  0.50000000  0.00000000  0.50000000  1
loop_
_geom_bond_atom_site_label_1
_geom_bond_atom_site_label_2
_geom_bond_distance
_geom_bond_site_symmetry_2
Ca0 N20 2.325543 1_555
Ca0 N35 2.549725 1_555
Ca0 N30 2.552198 1_555
Ca0 N52 2.679377 1_555
Ca0 N42 2.893864 1_555
Ca0 N40 2.929416 1_555
Ca1 N21 2.325543 1_555
Ca1 N34 2.549725 1_555
Ca1 N31 2.552198 1_555
Ca1 N53 2.679377 1_555
Ca1 N43 2.893864 1_555
Ca1 N41 2.929416 1_555
Ca2 N2 2.404043 1_555
Ca2 N24 2.512617 1_555
Ca2 N30 2.544990 1_555
Ca2 N52 2.592038 1_555
Ca2 N6 2.650302 1_555
Ca2 N14 2.706783 1_555
Ca3 N3 2.404043 1_555
Ca3 N25 2.512617 1_555
Ca3 N31 2.544990 1_555
Ca3 N53 2.592038 1_555
Ca3 N7 2.650305 1_555
Ca3 N15 2.706783 1_555
Ca4 N3 2.371020 1_555
Ca4 N48 2.520133 1_555
Ca4 N31 2.539632 1_555
Ca4 N44 2.557103 1_555
Ca4 N13 2.579163 1_455
Ca4 N34 2.656447 1_555
Ca5 N2 2.371020 1_555
Ca5 N49 2.520133 1_555
Ca5 N30 2.539632 1_555
Ca5 N45 2.557103 1_555
Ca5 N12 2.579163 1_655
Ca5 N35 2.656447 1_555
Ca6 N21 2.341468 1_555
Ca6 N48 2.448075 1_555
Ca6 N36 2.515771 1_555
Ca6 N34 2.555013 1_555
Ca6 N26 2.827039 1_555
Ca7 N20 2.341468 1_555
Ca7 N49 2.448075 1_555
Ca7 N37 2.515771 1_555
Ca7 N35 2.555013 1_555
Ca7 N27 2.827039 1_555
Ca8 O0 2.406238 1_555
Ca8 N12 2.466382 1_555
Ca8 N42 2.497596 1_555
Ca8 N49 2.590921 1_455
Ca8 N54 2.681584 1_555
Ca8 N4 2.966178 1_555
Ca9 O1 2.406238 1_555
Ca9 N13 2.466382 1_555
Ca9 N43 2.497596 1_555
Ca9 N48 2.590921 1_655
Ca9 N55 2.681584 1_555
Ca9 N5 2.966178 1_555
Ca10 N28 2.364674 1_555
Ca10 N39 2.410044 1_555
Ca10 N20 2.413107 1_555
Ca10 N42 2.445026 1_555
Ca10 O0 2.729566 1_555
Ca11 N29 2.364674 1_555
Ca11 N38 2.410044 1_555
Ca11 N21 2.413107 1_555
Ca11 N43 2.445026 1_555
Ca11 O1 2.729566 1_555
Ca12 N12 2.363043 1_555
Ca12 N16 2.503260 1_555
Ca12 N50 2.546801 1_555
Ca12 N52 2.548581 1_555
Ca12 N42 2.867128 1_555
Ca12 N22 2.986149 1_555
Ca13 N13 2.363043 1_555
Ca13 N17 2.503260 1_555
Ca13 N51 2.546801 1_555
Ca13 N53 2.548581 1_555
Ca13 N43 2.867128 1_555
Ca13 N23 2.986149 1_555
Ca14 O0 2.320276 1_555
Ca14 N49 2.494528 1_455
Ca14 N46 2.503381 1_565
Ca14 N9 2.525775 1_455
Ca14 N37 2.786612 1_455
Ca15 O1 2.320276 1_555
Ca15 N48 2.494528 1_655
Ca15 N47 2.503381 1_545
Ca15 N8 2.525775 1_655
Ca15 N36 2.786612 1_655
Ca16 N22 2.449302 1_555
Ca16 N34 2.552543 1_555
Ca16 N44 2.553201 1_555
Ca16 N16 2.611102 1_555
Ca16 N26 2.636382 1_555
Ca16 N18 2.685469 1_555
Ca17 N23 2.449302 1_555
Ca17 N35 2.552543 1_555
Ca17 N45 2.553201 1_555
Ca17 N17 2.611102 1_555
Ca17 N27 2.636382 1_555
Ca17 N19 2.685469 1_555
Ca18 N12 2.404477 1_655
Ca18 N54 2.466712 1_655
Ca18 N30 2.505252 1_555
Ca18 N6 2.531591 1_555
Ca18 N50 2.627727 1_655
Ca18 N10 2.851885 1_555
Ca19 N13 2.404477 1_455
Ca19 N55 2.466712 1_455
Ca19 N31 2.505252 1_555
Ca19 N7 2.531581 1_555
Ca19 N51 2.627727 1_455
Ca19 N11 2.851885 1_555
Ca20 N33 2.390940 1_545
Ca20 N24 2.491000 1_555
Ca20 N10 2.613682 1_555
Ca20 N6 2.645083 1_555
Ca20 N25 2.699392 1_544
Ca20 N39 2.883898 1_545
Ca21 N32 2.390940 1_565
Ca21 N25 2.491000 1_555
Ca21 N11 2.613682 1_555
Ca21 N7 2.645070 1_555
Ca21 N24 2.699392 1_566
Ca21 N38 2.883898 1_565
Ca22 N2 2.360722 1_555
Ca22 N35 2.480209 1_555
Ca22 N17 2.575378 1_555
Ca22 N16 2.583706 1_555
Ca22 N52 2.647648 1_555
Ca22 N18 2.751663 1_555
Ca23 N3 2.360722 1_555
Ca23 N34 2.480209 1_555
Ca23 N16 2.575378 1_555
Ca23 N17 2.583706 1_555
Ca23 N53 2.647648 1_555
Ca23 N19 2.751663 1_555
Ca24 N33 2.362446 1_545
Ca24 N6 2.451269 1_555
Ca24 N46 2.454358 1_655
Ca24 N37 2.474001 1_545
Ca24 N50 2.781830 1_655
Ca24 N22 2.991124 1_655
Ca25 N32 2.362446 1_565
Ca25 N7 2.451264 1_555
Ca25 N47 2.454358 1_455
Ca25 N36 2.474001 1_565
Ca25 N51 2.781830 1_455
Ca25 N23 2.991124 1_455
Ca26 O0 2.309172 1_555
Ca26 N11 2.457515 1_554
Ca26 N9 2.482228 1_455
Ca26 N54 2.502039 1_555
Ca26 N55 2.512144 1_454
Ca26 N28 2.673987 1_555
Ca27 O1 2.309172 1_555
Ca27 N10 2.457515 1_556
Ca27 N8 2.482228 1_655
Ca27 N55 2.502039 1_555
Ca27 N54 2.512144 1_656
Ca27 N29 2.673987 1_555
Ca28 O0 2.361096 1_555
Ca28 N39 2.427347 1_555
Ca28 N11 2.452133 1_554
Ca28 N24 2.506901 1_565
Ca28 N46 2.528459 1_565
Ca28 N14 2.955997 1_565
Ca29 O1 2.361096 1_555
Ca29 N38 2.427347 1_555
Ca29 N10 2.452133 1_556
Ca29 N25 2.506901 1_545
Ca29 N47 2.528459 1_545
Ca29 N15 2.955997 1_545
Ca30 N32 2.341747 1_564
Ca30 N33 2.456833 1_455
Ca30 N9 2.461949 1_455
Ca30 N46 2.557861 1_565
Ca30 N51 2.669519 1_454
Ca31 N33 2.341747 1_546
Ca31 N32 2.456833 1_655
Ca31 N8 2.461949 1_655
Ca31 N47 2.557861 1_545
Ca31 N50 2.669519 1_656
Ca32 N12 2.467291 1_555
Ca32 N3 2.500483 1_555
Ca32 N45 2.577693 1_455
Ca32 N44 2.579361 1_555
Ca32 N16 2.593199 1_555
Ca33 N13 2.467291 1_555
Ca33 N2 2.500483 1_555
Ca33 N44 2.577693 1_655
Ca33 N45 2.579361 1_555
Ca33 N17 2.593199 1_555
Ca34 N32 2.398720 1_554
Ca34 N50 2.508725 1_555
Ca34 N52 2.549341 1_555
Ca34 N46 2.553626 1_555
Ca34 N24 2.584543 1_555
Ca34 N40 2.589721 1_555
Ca35 N33 2.398720 1_556
Ca35 N51 2.508725 1_555
Ca35 N53 2.549341 1_555
Ca35 N47 2.553626 1_555
Ca35 N25 2.584543 1_555
Ca35 N41 2.589721 1_555
Ca36 N20 2.356993 1_555
Ca36 N9 2.522215 1_555
Ca36 N30 2.589495 1_555
Ca36 N49 2.673074 1_555
Ca36 N29 2.732597 1_554
Ca36 N54 2.757147 1_655
Ca37 N21 2.356993 1_555
Ca37 N8 2.522215 1_555
Ca37 N31 2.589495 1_555
Ca37 N48 2.673074 1_555
Ca37 N28 2.732597 1_556
Ca37 N55 2.757147 1_455
Ca38 N3 2.338268 1_555
Ca38 N13 2.378945 1_455
Ca38 N7 2.515916 1_555
Ca38 N45 2.564792 1_455
Ca38 N1 3.039066 1_555
Ca39 N2 2.338268 1_555
Ca39 N12 2.378945 1_655
Ca39 N6 2.515904 1_555
Ca39 N44 2.564792 1_655
Ca39 N0 3.039066 1_555
Ca40 O2 2.263768 1_555
Ca40 N18 2.477435 1_555
Ca40 N1 2.571592 1_545
Ca40 N14 2.660819 1_555
Ca40 N4 2.708436 1_545
Ca41 O2 2.263761 1_565
Ca41 N19 2.477445 1_555
Ca41 N0 2.571586 1_565
Ca41 N15 2.660821 1_555
Ca41 N5 2.708425 1_565
Ca42 N21 2.410018 1_555
Ca42 N32 2.475947 1_555
Ca42 N40 2.477719 1_556
Ca42 N36 2.531118 1_555
Ca42 N8 2.727377 1_555
Ca42 N38 3.024267 1_555
Ca43 N20 2.410018 1_555
Ca43 N33 2.475947 1_555
Ca43 N41 2.477719 1_554
Ca43 N37 2.531118 1_555
Ca43 N9 2.727377 1_555
Ca43 N39 3.024267 1_555
Ca44 O2 2.304343 1_555
Ca44 N2 2.370615 1_555
Ca44 N5 2.518396 1_555
Ca44 N0 2.541131 1_555
Ca44 N18 2.648356 1_555
Ca44 N14 2.658876 1_555
Ca45 O2 2.304343 1_565
Ca45 N3 2.370615 1_555
Ca45 N4 2.518396 1_555
Ca45 N1 2.541131 1_555
Ca45 N19 2.648356 1_555
Ca45 N15 2.658876 1_555
Ca46 N27 2.328935 1_545
Ca46 N22 2.405927 1_655
Ca46 N26 2.460042 1_655
Ca46 N0 2.511514 1_555
Ca46 N37 2.515509 1_545
Ca47 N26 2.328935 1_565
Ca47 N23 2.405927 1_455
Ca47 N27 2.460042 1_455
Ca47 N1 2.511514 1_555
Ca47 N36 2.515509 1_565
Ca48 N28 2.483760 1_555
Ca48 N29 2.483760 1_554
Ca48 N41 2.530968 1_554
Ca48 N40 2.530968 1_555
Ca48 N21 2.536954 1_554
Ca48 N20 2.536954 1_555
Mo0 N38 1.873612 1_555
Mo0 N1 1.881474 1_545
Mo0 N36 1.904431 1_555
Mo0 N7 1.905328 1_545
Mo1 N39 1.873612 1_555
Mo1 N0 1.881474 1_565
Mo1 N37 1.904431 1_555
Mo1 N6 1.905319 1_565
Mo2 N42 1.875838 1_555
Mo2 N19 1.890292 1_555
Mo2 N35 1.901120 1_555
Mo2 N16 1.912616 1_555
Mo3 N43 1.875838 1_555
Mo3 N18 1.890292 1_555
Mo3 N34 1.901120 1_555
Mo3 N17 1.912616 1_555
Mo4 N14 1.869814 1_555
Mo4 N52 1.887178 1_555
Mo4 N22 1.905893 1_555
Mo4 N46 1.928427 1_555
Mo5 N15 1.869814 1_555
Mo5 N53 1.887178 1_555
Mo5 N23 1.905893 1_555
Mo5 N47 1.928427 1_555
Mo6 N40 1.874770 1_555
Mo6 N24 1.893046 1_555
Mo6 N10 1.912688 1_555
Mo6 N30 1.913746 1_555
Mo7 N41 1.874770 1_555
Mo7 N25 1.893046 1_555
Mo7 N11 1.912688 1_555
Mo7 N31 1.913746 1_555
Mo8 N4 1.865388 1_555
Mo8 N27 1.894464 1_455
Mo8 N45 1.913730 1_455
Mo8 N49 1.924002 1_455
Mo9 N5 1.865388 1_555
Mo9 N26 1.894464 1_655
Mo9 N44 1.913730 1_655
Mo9 N48 1.924002 1_655
Mo10 N28 1.865206 1_555
Mo10 N54 1.885861 1_555
Mo10 N8 1.921520 1_554
Mo10 N50 1.930016 1_555
Mo11 N29 1.865206 1_555
Mo11 N55 1.885861 1_555
Mo11 N9 1.921520 1_556
Mo11 N51 1.930016 1_555
N0 Sr1 3.035465 1_545
N1 Sr0 3.035465 1_565
N4 Sr1 2.659129 1_555
N5 Sr0 2.659129 1_555
N14 Sr1 2.652400 1_545
N15 Sr0 2.652400 1_565
N18 Sr0 3.077609 1_555
N19 Sr1 3.077609 1_555
N38 Sr0 2.867787 1_555
N39 Sr1 2.867787 1_555
N42 Sr1 3.000520 1_555
N43 Sr0 3.000520 1_555
O0 Sr1 2.728308 1_555
O1 Sr0 2.728308 1_555
O2 Sr0 2.633106 1_555
O2 Sr1 2.633106 1_545
