# generated using pymatgen
data_Yb(Ga2Cu)4
_symmetry_space_group_name_H-M   'P 1'
_cell_length_a   10.18707419
_cell_length_b   10.18707419
_cell_length_c   10.18707419
_cell_angle_alpha   129.68595507
_cell_angle_beta   129.68595507
_cell_angle_gamma   73.90931848
_symmetry_Int_Tables_number   1
_chemical_formula_structural   Yb(Ga2Cu)4
_chemical_formula_sum   'Yb3 Ga24 Cu12'
_cell_volume   610.65924248
_cell_formula_units_Z   3
loop_
 _symmetry_equiv_pos_site_id
 _symmetry_equiv_pos_as_xyz
  1  'x, y, z'
loop_
 _atom_site_type_symbol
 _atom_site_label
 _atom_site_symmetry_multiplicity
 _atom_site_fract_x
 _atom_site_fract_y
 _atom_site_fract_z
 _atom_site_occupancy
  Yb  Yb0  1  0.00000000  0.00000000  0.00000000  1
  Yb  Yb1  1  0.33800923  0.33800923  0.00000000  1
  Yb  Yb2  1  0.66199077  0.66199077  0.00000000  1
  Ga  Ga0  1  0.35657887  0.00910995  0.65253108  1
  Ga  Ga1  1  0.35657887  0.70404779  0.34746892  1
  Ga  Ga2  1  0.00910995  0.35657887  0.65253108  1
  Ga  Ga3  1  0.70404779  0.35657887  0.34746892  1
  Ga  Ga4  1  0.64342113  0.99089005  0.34746892  1
  Ga  Ga5  1  0.64342113  0.29595221  0.65253108  1
  Ga  Ga6  1  0.99089005  0.64342113  0.34746892  1
  Ga  Ga7  1  0.29595221  0.64342113  0.65253108  1
  Ga  Ga8  1  0.05749903  0.84036416  0.21713487  1
  Ga  Ga9  1  0.62322929  0.84036416  0.78286513  1
  Ga  Ga10  1  0.84036416  0.62322929  0.78286513  1
  Ga  Ga11  1  0.84036416  0.05749903  0.21713487  1
  Ga  Ga12  1  0.94250097  0.15963584  0.78286513  1
  Ga  Ga13  1  0.37677071  0.15963584  0.21713487  1
  Ga  Ga14  1  0.15963584  0.37677071  0.21713487  1
  Ga  Ga15  1  0.15963584  0.94250097  0.78286513  1
  Ga  Ga16  1  0.00000000  0.00000000  0.50000000  1
  Ga  Ga17  1  0.50000000  0.50000000  0.50000000  1
  Ga  Ga18  1  0.00000000  0.50000000  0.00000000  1
  Ga  Ga19  1  0.50000000  0.00000000  0.00000000  1
  Ga  Ga20  1  0.00000000  0.34943499  0.34943499  1
  Ga  Ga21  1  0.00000000  0.65056501  0.65056501  1
  Ga  Ga22  1  0.34943499  0.00000000  0.34943499  1
  Ga  Ga23  1  0.65056501  0.00000000  0.65056501  1
  Cu  Cu0  1  0.29226336  0.50000000  0.79226336  1
  Cu  Cu1  1  0.70773664  0.50000000  0.20773664  1
  Cu  Cu2  1  0.50000000  0.70773664  0.20773664  1
  Cu  Cu3  1  0.50000000  0.29226336  0.79226336  1
  Cu  Cu4  1  0.17297068  0.17297068  0.49964866  1
  Cu  Cu5  1  0.67332202  0.67332202  0.50035134  1
  Cu  Cu6  1  0.17297068  0.67332202  0.00000000  1
  Cu  Cu7  1  0.67332202  0.17297068  0.00000000  1
  Cu  Cu8  1  0.82702932  0.82702932  0.50035134  1
  Cu  Cu9  1  0.32667798  0.32667798  0.49964866  1
  Cu  Cu10  1  0.82702932  0.32667798  0.00000000  1
  Cu  Cu11  1  0.32667798  0.82702932  0.00000000  1
loop_
_geom_bond_atom_site_label_1
_geom_bond_atom_site_label_2
_geom_bond_distance
_geom_bond_site_symmetry_2
Ga0 Ga1 2.642162 1_545
Ga0 Ga8 2.795893 1_545
Ga0 Ga9 2.795893 1_545
Ga0 Ga16 2.900354 1_555
Ga0 Ga19 2.900354 1_556
Ga0 Ga22 2.983012 1_555
Ga0 Ga23 2.983012 1_555
Ga0 Yb1 3.024598 1_556
Ga1 Ga9 2.795893 1_555
Ga1 Ga8 2.795893 1_555
Ga1 Ga17 2.900354 1_555
Ga1 Ga18 2.900354 1_555
Ga1 Ga23 2.983012 1_565
Ga1 Ga22 2.983012 1_565
Ga1 Yb1 3.024598 1_555
Ga2 Ga3 2.642162 1_455
Ga2 Ga20 2.983012 1_555
Ga2 Ga21 2.983012 1_555
Ga2 Yb1 3.024598 1_556
Ga3 Yb1 3.024598 1_555
Ga4 Ga5 2.642162 1_565
Ga4 Yb2 3.024598 1_555
Ga5 Yb2 3.024598 1_556
Ga6 Ga7 2.642162 1_655
Ga6 Yb2 3.024598 1_555
Ga7 Yb2 3.024598 1_556
Ga8 Yb0 3.208094 1_565
Ga8 Yb2 3.459874 1_455
Ga9 Yb0 3.208094 1_666
Ga9 Yb2 3.459874 1_556
Ga10 Ga17 2.633237 1_555
Ga10 Ga18 2.633237 1_656
Ga10 Ga9 2.659596 1_555
Ga10 Ga8 2.659596 1_656
Ga10 Ga3 2.795893 1_555
Ga10 Ga2 2.795893 1_655
Ga10 Ga21 2.840446 1_655
Ga10 Yb0 3.208094 1_666
Ga10 Yb2 3.459874 1_556
Ga11 Ga16 2.633237 1_655
Ga11 Ga19 2.633237 1_555
Ga11 Ga8 2.659596 1_645
Ga11 Ga9 2.659596 1_544
Ga11 Ga2 2.795893 1_655
Ga11 Ga3 2.795893 1_555
Ga11 Ga20 2.840446 1_655
Ga11 Yb0 3.208094 1_655
Ga11 Yb2 3.459874 1_545
Ga12 Ga16 2.633237 1_655
Ga12 Ga18 2.633237 1_656
Ga12 Ga15 2.659596 1_645
Ga12 Ga14 2.659596 1_656
Ga12 Ga4 2.795893 1_545
Ga12 Ga5 2.795893 1_555
Ga12 Ga23 2.840446 1_555
Ga12 Yb0 3.208094 1_656
Ga12 Yb1 3.459874 1_656
Ga13 Ga17 2.633237 1_555
Ga13 Ga19 2.633237 1_555
Ga13 Ga14 2.659596 1_555
Ga13 Ga15 2.659596 1_544
Ga13 Ga5 2.795893 1_555
Ga13 Ga4 2.795893 1_545
Ga13 Ga22 2.840446 1_555
Ga13 Yb0 3.208094 1_555
Ga13 Yb1 3.459874 1_555
Ga14 Ga17 2.633237 1_555
Ga14 Ga18 2.633237 1_555
Ga14 Ga7 2.795893 1_555
Ga14 Ga6 2.795893 1_455
Ga14 Ga20 2.840446 1_555
Ga14 Yb0 3.208094 1_555
Ga14 Yb1 3.459874 1_555
Ga15 Ga16 2.633237 1_565
Ga15 Ga19 2.633237 1_566
Ga15 Ga6 2.795893 1_455
Ga15 Ga7 2.795893 1_555
Ga15 Ga21 2.840446 1_555
Ga15 Yb0 3.208094 1_566
Ga15 Yb1 3.459874 1_566
Ga16 Ga8 2.633237 1_545
Ga16 Ga2 2.900354 1_555
Ga16 Ga6 2.900354 1_445
Ga16 Ga4 2.900354 1_445
Ga16 Yb1 3.380819 1_556
Ga16 Yb2 3.380819 1_445
Ga17 Ga9 2.633237 1_555
Ga17 Ga3 2.900354 1_555
Ga17 Ga5 2.900354 1_555
Ga17 Ga7 2.900354 1_555
Ga17 Yb1 3.380819 1_555
Ga17 Yb2 3.380819 1_556
Ga18 Ga8 2.633237 1_555
Ga18 Ga5 2.900354 1_454
Ga18 Ga2 2.900354 1_554
Ga18 Ga6 2.900354 1_455
Ga18 Yb1 3.380819 1_555
Ga18 Yb2 3.380819 1_455
Ga19 Ga9 2.633237 1_544
Ga19 Ga3 2.900354 1_555
Ga19 Ga7 2.900354 1_544
Ga19 Ga4 2.900354 1_545
Ga19 Yb1 3.380819 1_555
Ga19 Yb2 3.380819 1_545
Ga20 Ga21 2.608105 1_555
Ga20 Ga6 2.983012 1_455
Ga20 Ga7 2.983012 1_555
Ga20 Ga3 2.983012 1_455
Ga20 Yb0 3.026477 1_555
Ga21 Ga6 2.983012 1_455
Ga21 Ga3 2.983012 1_455
Ga21 Ga7 2.983012 1_555
Ga21 Yb0 3.026477 1_566
Ga22 Ga23 2.608105 1_555
Ga22 Ga8 2.840446 1_545
Ga22 Ga4 2.983012 1_545
Ga22 Ga5 2.983012 1_555
Ga22 Yb0 3.026477 1_555
Ga23 Ga9 2.840446 1_545
Ga23 Ga4 2.983012 1_545
Ga23 Ga5 2.983012 1_555
Ga23 Yb0 3.026477 1_656
Cu0 Cu11 2.528982 1_556
Cu0 Cu9 2.528982 1_555
Cu0 Cu4 2.528982 1_555
Cu0 Cu6 2.528982 1_556
Cu0 Cu2 2.544481 1_556
Cu0 Cu3 2.544481 1_555
Cu0 Ga2 2.630059 1_555
Cu0 Ga7 2.630059 1_555
Cu0 Ga21 2.847470 1_555
Cu0 Ga20 2.847470 1_555
Cu0 Yb2 3.192664 1_556
Cu0 Yb1 3.192664 1_556
Cu1 Cu5 2.528982 1_555
Cu1 Cu10 2.528982 1_555
Cu1 Cu8 2.528982 1_555
Cu1 Cu7 2.528982 1_555
Cu1 Cu3 2.544481 1_554
Cu1 Cu2 2.544481 1_555
Cu1 Ga6 2.630059 1_555
Cu1 Ga3 2.630059 1_555
Cu1 Ga21 2.847470 1_655
Cu1 Ga20 2.847470 1_655
Cu1 Yb2 3.192664 1_555
Cu1 Yb1 3.192664 1_555
Cu2 Cu5 2.528982 1_555
Cu2 Cu8 2.528982 1_555
Cu2 Cu6 2.528982 1_555
Cu2 Ga4 2.630059 1_555
Cu2 Ga1 2.630059 1_555
Cu2 Ga23 2.847470 1_565
Cu2 Ga22 2.847470 1_565
Cu2 Yb2 3.192664 1_555
Cu2 Yb1 3.192664 1_555
Cu3 Cu9 2.528982 1_555
Cu3 Cu4 2.528982 1_555
Cu3 Cu7 2.528982 1_556
Cu3 Ga0 2.630059 1_555
Cu3 Ga5 2.630059 1_555
Cu3 Ga23 2.847470 1_555
Cu3 Ga22 2.847470 1_555
Cu3 Yb2 3.192664 1_556
Cu3 Yb1 3.192664 1_556
Cu4 Cu9 2.502542 1_555
Cu4 Ga8 2.564858 1_545
Cu4 Ga11 2.564858 1_455
Cu4 Ga0 2.565086 1_555
Cu4 Ga2 2.565086 1_555
Cu4 Ga22 2.644196 1_555
Cu4 Ga20 2.644196 1_555
Cu4 Ga16 2.819034 1_555
Cu4 Yb0 3.305942 1_555
Cu4 Yb1 3.363228 1_556
Cu5 Cu8 2.502542 1_555
Cu5 Ga9 2.564858 1_555
Cu5 Ga10 2.564858 1_555
Cu5 Ga1 2.565086 1_555
Cu5 Ga3 2.565086 1_555
Cu5 Ga21 2.644196 1_655
Cu5 Ga23 2.644196 1_565
Cu5 Ga17 2.819034 1_555
Cu5 Yb0 3.305942 1_666
Cu5 Yb1 3.363228 1_555
Cu6 Ga10 2.564858 1_454
Cu6 Ga8 2.564858 1_555
Cu6 Ga2 2.565086 1_554
Cu6 Ga1 2.565086 1_555
Cu6 Ga22 2.644196 1_565
Cu6 Ga21 2.644196 1_554
Cu6 Ga18 2.819034 1_555
Cu6 Yb0 3.305942 1_565
Cu6 Yb1 3.363228 1_555
Cu7 Ga9 2.564858 1_544
Cu7 Ga11 2.564858 1_555
Cu7 Ga0 2.565086 1_554
Cu7 Ga3 2.565086 1_555
Cu7 Ga20 2.644196 1_655
Cu7 Ga23 2.644196 1_554
Cu7 Ga19 2.819034 1_555
Cu7 Yb0 3.305942 1_655
Cu7 Yb1 3.363228 1_555
Cu8 Ga15 2.564858 1_655
Cu8 Ga12 2.564858 1_565
Cu8 Ga4 2.565086 1_555
Cu8 Ga6 2.565086 1_555
Cu8 Ga21 2.644196 1_655
Cu8 Ga23 2.644196 1_565
Cu8 Ga16 2.819034 1_665
Cu8 Yb0 3.305942 1_666
Cu8 Yb2 3.363228 1_555
Cu9 Ga13 2.564858 1_555
Cu9 Ga14 2.564858 1_555
Cu9 Ga7 2.565086 1_555
Cu9 Ga5 2.565086 1_555
Cu9 Ga20 2.644196 1_555
Cu9 Ga22 2.644196 1_555
Cu9 Ga17 2.819034 1_555
Cu9 Yb0 3.305942 1_555
Cu9 Yb2 3.363228 1_556
Cu10 Cu7 2.502542 1_555
Cu10 Cu3 2.528982 1_554
Cu10 Ga14 2.564858 1_655
Cu10 Ga12 2.564858 1_554
Cu10 Ga6 2.565086 1_555
Cu10 Ga5 2.565086 1_554
Cu10 Ga20 2.644196 1_655
Cu10 Ga23 2.644196 1_554
Cu10 Ga18 2.819034 1_655
Cu10 Yb0 3.305942 1_655
Cu10 Yb2 3.363228 1_555
Cu11 Cu6 2.502542 1_555
Cu11 Cu2 2.528982 1_555
Cu11 Ga13 2.564858 1_565
Cu11 Ga15 2.564858 1_554
Cu11 Ga4 2.565086 1_555
Cu11 Ga7 2.565086 1_554
Cu11 Ga22 2.644196 1_565
Cu11 Ga21 2.644196 1_554
Cu11 Ga19 2.819034 1_565
Cu11 Yb0 3.305942 1_565
Cu11 Yb2 3.363228 1_555
