# generated using pymatgen
data_Mg6AlVO8
_symmetry_space_group_name_H-M   'P 1'
_cell_length_a   8.88682990
_cell_length_b   4.24115022
_cell_length_c   4.24115022
_cell_angle_alpha   90.00000000
_cell_angle_beta   90.00000000
_cell_angle_gamma   90.00000000
_symmetry_Int_Tables_number   1
_chemical_formula_structural   Mg6AlVO8
_chemical_formula_sum   'Mg6 Al1 V1 O8'
_cell_volume   159.85056591
_cell_formula_units_Z   1
loop_
 _symmetry_equiv_pos_site_id
 _symmetry_equiv_pos_as_xyz
  1  'x, y, z'
loop_
 _atom_site_type_symbol
 _atom_site_label
 _atom_site_symmetry_multiplicity
 _atom_site_fract_x
 _atom_site_fract_y
 _atom_site_fract_z
 _atom_site_occupancy
  Mg  Mg0  1  0.00000000  0.50000000  0.50000000  1
  Mg  Mg1  1  0.50000000  0.50000000  0.50000000  1
  Mg  Mg2  1  0.25122664  0.00000000  0.50000000  1
  Mg  Mg3  1  0.74877336  0.00000000  0.50000000  1
  Mg  Mg4  1  0.25122664  0.50000000  0.00000000  1
  Mg  Mg5  1  0.74877336  0.50000000  0.00000000  1
  Al  Al0  1  0.00000000  0.00000000  0.00000000  1
  V  V0  1  0.50000000  0.00000000  0.00000000  1
  O  O0  1  0.20448110  0.00000000  0.00000000  1
  O  O1  1  0.79551890  0.00000000  0.00000000  1
  O  O2  1  0.24710154  0.50000000  0.50000000  1
  O  O3  1  0.75289846  0.50000000  0.50000000  1
  O  O4  1  0.00000000  0.00000000  0.50000000  1
  O  O5  1  0.50000000  0.00000000  0.50000000  1
  O  O6  1  0.00000000  0.50000000  0.00000000  1
  O  O7  1  0.50000000  0.50000000  0.00000000  1
loop_
_geom_bond_atom_site_label_1
_geom_bond_atom_site_label_2
_geom_bond_distance
_geom_bond_site_symmetry_2
Mg0 O4 2.120575 1_555
Mg0 O4 2.120575 1_565
Mg0 O6 2.120575 1_556
Mg0 O6 2.120575 1_555
Mg0 O3 2.195949 1_455
Mg0 O2 2.195949 1_555
Mg1 O7 2.120575 1_555
Mg1 O7 2.120575 1_556
Mg1 O5 2.120575 1_555
Mg1 O5 2.120575 1_565
Mg1 O2 2.247466 1_555
Mg1 O3 2.247466 1_555
Mg2 O2 2.120892 1_555
Mg2 O2 2.120892 1_545
Mg2 O0 2.160882 1_555
Mg2 O0 2.160882 1_556
Mg2 O5 2.210807 1_555
Mg2 O4 2.232608 1_555
Mg3 O3 2.120892 1_545
Mg3 O3 2.120892 1_555
Mg3 O1 2.160882 1_556
Mg3 O1 2.160882 1_555
Mg3 O5 2.210807 1_555
Mg3 O4 2.232608 1_655
Mg4 O2 2.120892 1_554
Mg4 O2 2.120892 1_555
Mg4 O0 2.160882 1_555
Mg4 O0 2.160882 1_565
Mg4 O7 2.210807 1_555
Mg4 O6 2.232608 1_555
Mg5 O3 2.120892 1_555
Mg5 O3 2.120892 1_554
Mg5 O1 2.160882 1_565
Mg5 O1 2.160882 1_555
Mg5 O7 2.210807 1_555
Mg5 O6 2.232608 1_655
Al0 O0 1.817189 1_555
Al0 O1 1.817189 1_455
Al0 O4 2.120575 1_555
Al0 O4 2.120575 1_554
Al0 O6 2.120575 1_545
Al0 O6 2.120575 1_555
O0 V0 2.626226 1_555
O1 V0 2.626226 1_555
O5 V0 2.120575 1_556
O5 V0 2.120575 1_555
O7 V0 2.120575 1_555
O7 V0 2.120575 1_565
