# generated using pymatgen
data_LaYMg6
_symmetry_space_group_name_H-M   'P 1'
_cell_length_a   5.02471900
_cell_length_b   8.42134100
_cell_length_c   10.06444900
_cell_angle_alpha   90.00000000
_cell_angle_beta   90.00000000
_cell_angle_gamma   90.00000000
_symmetry_Int_Tables_number   1
_chemical_formula_structural   LaYMg6
_chemical_formula_sum   'La2 Y2 Mg12'
_cell_volume   425.87587248
_cell_formula_units_Z   2
loop_
 _symmetry_equiv_pos_site_id
 _symmetry_equiv_pos_as_xyz
  1  'x, y, z'
loop_
 _atom_site_type_symbol
 _atom_site_label
 _atom_site_symmetry_multiplicity
 _atom_site_fract_x
 _atom_site_fract_y
 _atom_site_fract_z
 _atom_site_occupancy
  La  La0  1  0.50000000  0.50000000  0.87641900  1
  La  La1  1  0.50000000  0.00000000  0.37641900  1
  Y  Y0  1  0.50000000  0.50000000  0.36939400  1
  Y  Y1  1  0.50000000  0.00000000  0.86939400  1
  Mg  Mg0  1  0.50000000  0.24381300  0.12181100  1
  Mg  Mg1  1  0.50000000  0.75618700  0.12181100  1
  Mg  Mg2  1  0.00000000  0.23810700  0.88018100  1
  Mg  Mg3  1  0.00000000  0.76189300  0.88018100  1
  Mg  Mg4  1  0.00000000  0.50000000  0.12596500  1
  Mg  Mg5  1  0.00000000  0.50000000  0.62424200  1
  Mg  Mg6  1  0.50000000  0.74381300  0.62181100  1
  Mg  Mg7  1  0.50000000  0.25618700  0.62181100  1
  Mg  Mg8  1  0.00000000  0.73810700  0.38018100  1
  Mg  Mg9  1  0.00000000  0.26189300  0.38018100  1
  Mg  Mg10  1  0.00000000  0.00000000  0.62596500  1
  Mg  Mg11  1  0.00000000  0.00000000  0.12424200  1
loop_
_geom_bond_atom_site_label_1
_geom_bond_atom_site_label_2
_geom_bond_distance
_geom_bond_site_symmetry_2
La0 Mg0 3.279349 1_556
La0 Mg1 3.279349 1_556
La0 Mg6 3.283613 1_555
La0 Mg7 3.283613 1_555
La0 Mg2 3.343287 1_555
La0 Mg2 3.343287 1_655
La0 Mg3 3.343287 1_555
La0 Mg3 3.343287 1_655
La0 Mg4 3.552436 1_656
La0 Mg4 3.552436 1_556
La0 Mg5 3.571206 1_655
La0 Mg5 3.571206 1_555
La1 Mg7 3.279349 1_555
La1 Mg6 3.279349 1_545
La1 Mg1 3.283613 1_545
La1 Mg0 3.283613 1_555
La1 Mg9 3.343287 1_555
La1 Mg9 3.343287 1_655
La1 Mg8 3.343287 1_645
La1 Mg8 3.343287 1_545
La1 Mg10 3.552436 1_655
La1 Mg10 3.552436 1_555
La1 Mg11 3.571206 1_555
La1 Mg11 3.571206 1_655
Mg0 Mg11 3.244736 1_555
Mg0 Mg11 3.244736 1_655
Mg0 Y1 3.266434 1_554
Mg0 Y0 3.295988 1_555
Mg0 Mg4 3.311833 1_555
Mg0 Mg4 3.311833 1_655
Mg1 Mg11 3.244736 1_565
Mg1 Mg11 3.244736 1_665
Mg1 Y1 3.266434 1_564
Mg1 Y0 3.295988 1_555
Mg1 Mg4 3.311833 1_655
Mg1 Mg4 3.311833 1_555
Mg2 Y1 3.216284 1_555
Mg2 Y1 3.216284 1_455
Mg2 Mg4 3.314104 1_556
Mg2 Mg5 3.391072 1_555
Mg3 Y1 3.216284 1_565
Mg3 Y1 3.216284 1_465
Mg3 Mg4 3.314104 1_556
Mg3 Mg5 3.391072 1_555
Mg4 Mg8 3.250676 1_555
Mg4 Mg9 3.250676 1_555
Mg4 Y0 3.509180 1_455
Mg4 Y0 3.509180 1_555
Mg5 Mg9 3.170860 1_555
Mg5 Mg8 3.170860 1_555
Mg5 Mg6 3.244736 1_555
Mg5 Mg6 3.244736 1_455
Mg5 Mg7 3.244736 1_455
Mg5 Mg7 3.244736 1_555
Mg5 Y0 3.590360 1_455
Mg5 Y0 3.590360 1_555
Mg6 Y0 3.266434 1_555
Mg6 Y1 3.295988 1_565
Mg7 Y0 3.266434 1_555
Mg7 Y1 3.295988 1_555
Mg8 Y0 3.216284 1_555
Mg8 Y0 3.216284 1_455
Mg9 Y0 3.216284 1_455
Mg9 Y0 3.216284 1_555
Mg10 Mg2 3.250676 1_555
Mg10 Mg3 3.250676 1_545
Mg10 Mg7 3.311833 1_555
Mg10 Mg7 3.311833 1_455
Mg10 Mg6 3.311833 1_445
Mg10 Mg6 3.311833 1_545
Mg10 Mg9 3.314104 1_555
Mg10 Mg8 3.314104 1_545
Mg10 Y1 3.509180 1_455
Mg10 Y1 3.509180 1_555
Mg11 Mg3 3.170860 1_544
Mg11 Mg2 3.170860 1_554
Mg11 Mg9 3.391072 1_555
Mg11 Mg8 3.391072 1_545
Mg11 Y1 3.590360 1_554
Mg11 Y1 3.590360 1_454
