# generated using pymatgen
data_YbSiPd2
_symmetry_space_group_name_H-M   'P 1'
_cell_length_a   5.44193141
_cell_length_b   6.94529283
_cell_length_c   7.18101297
_cell_angle_alpha   90.00000000
_cell_angle_beta   90.00000000
_cell_angle_gamma   90.00000000
_symmetry_Int_Tables_number   1
_chemical_formula_structural   YbSiPd2
_chemical_formula_sum   'Yb4 Si4 Pd8'
_cell_volume   271.41218138
_cell_formula_units_Z   4
loop_
 _symmetry_equiv_pos_site_id
 _symmetry_equiv_pos_as_xyz
  1  'x, y, z'
loop_
 _atom_site_type_symbol
 _atom_site_label
 _atom_site_symmetry_multiplicity
 _atom_site_fract_x
 _atom_site_fract_y
 _atom_site_fract_z
 _atom_site_occupancy
  Yb  Yb0  1  0.35905105  0.75000000  0.02628208  1
  Yb  Yb1  1  0.14094895  0.75000000  0.52628208  1
  Yb  Yb2  1  0.64094895  0.25000000  0.97371792  1
  Yb  Yb3  1  0.85905105  0.25000000  0.47371792  1
  Si  Si0  1  0.63918368  0.75000000  0.37797802  1
  Si  Si1  1  0.86081632  0.75000000  0.87797802  1
  Si  Si2  1  0.36081632  0.25000000  0.62202198  1
  Si  Si3  1  0.13918368  0.25000000  0.12202198  1
  Pd  Pd0  1  0.90658256  0.55149176  0.17953008  1
  Pd  Pd1  1  0.59341744  0.94850824  0.67953008  1
  Pd  Pd2  1  0.09341744  0.05149176  0.82046992  1
  Pd  Pd3  1  0.40658256  0.44850824  0.32046992  1
  Pd  Pd4  1  0.09341744  0.44850824  0.82046992  1
  Pd  Pd5  1  0.40658256  0.05149176  0.32046992  1
  Pd  Pd6  1  0.90658256  0.94850824  0.17953008  1
  Pd  Pd7  1  0.59341744  0.55149176  0.67953008  1
loop_
_geom_bond_atom_site_label_1
_geom_bond_atom_site_label_2
_geom_bond_distance
_geom_bond_site_symmetry_2
Si0 Yb1 2.913012 1_555
Si0 Yb1 2.930903 1_655
Si0 Yb0 2.949967 1_555
Si1 Yb0 2.913012 1_656
Si1 Yb0 2.930903 1_556
Si1 Yb1 2.949967 1_655
Si2 Yb3 2.913012 1_555
Si2 Yb3 2.930903 1_455
Si2 Yb2 2.949967 1_555
Si3 Yb2 2.913012 1_454
Si3 Yb2 2.930903 1_554
Si3 Yb3 2.949967 1_455
Pd0 Si0 2.459493 1_555
Pd0 Si3 2.481413 1_655
Pd0 Si1 2.579149 1_554
Pd0 Yb2 2.942545 1_554
Pd0 Yb3 2.985710 1_555
Pd0 Yb0 3.028991 1_655
Pd0 Yb1 3.118929 1_655
Pd1 Si1 2.459493 1_555
Pd1 Si2 2.481413 1_565
Pd1 Si0 2.579149 1_555
Pd1 Yb3 2.942545 1_565
Pd1 Yb2 2.985710 1_565
Pd1 Yb1 3.028991 1_555
Pd1 Yb0 3.118929 1_556
Pd2 Si2 2.459493 1_555
Pd2 Si1 2.481413 1_445
Pd2 Si3 2.579149 1_556
Pd2 Yb0 2.942545 1_546
Pd2 Yb1 2.985710 1_545
Pd2 Yb2 3.028991 1_455
Pd2 Yb3 3.118929 1_455
Pd3 Si3 2.459493 1_555
Pd3 Si0 2.481413 1_555
Pd3 Si2 2.579149 1_555
Pd3 Yb1 2.942545 1_555
Pd3 Yb0 2.985710 1_555
Pd3 Yb3 3.028991 1_555
Pd3 Yb2 3.118929 1_554
Pd4 Si2 2.459493 1_555
Pd4 Si1 2.481413 1_455
Pd4 Si3 2.579149 1_556
Pd4 Yb0 2.942545 1_556
Pd4 Yb1 2.985710 1_555
Pd4 Yb2 3.028991 1_455
Pd4 Yb3 3.118929 1_455
Pd5 Si3 2.459493 1_555
Pd5 Si0 2.481413 1_545
Pd5 Si2 2.579149 1_555
Pd5 Yb1 2.942545 1_545
Pd5 Yb0 2.985710 1_545
Pd5 Yb3 3.028991 1_555
Pd5 Yb2 3.118929 1_554
Pd6 Si0 2.459493 1_555
Pd6 Si3 2.481413 1_665
Pd6 Si1 2.579149 1_554
Pd6 Yb2 2.942545 1_564
Pd6 Yb3 2.985710 1_565
Pd6 Yb0 3.028991 1_655
Pd6 Yb1 3.118929 1_655
Pd7 Si1 2.459493 1_555
Pd7 Si2 2.481413 1_555
Pd7 Si0 2.579149 1_555
Pd7 Yb3 2.942545 1_555
Pd7 Yb2 2.985710 1_555
Pd7 Yb1 3.028991 1_555
Pd7 Yb0 3.118929 1_556
