# generated using pymatgen
data_SrCa7Mn8O23
_symmetry_space_group_name_H-M   'P 1'
_cell_length_a   10.90436052
_cell_length_b   15.28870460
_cell_length_c   10.75567876
_cell_angle_alpha   90.09142074
_cell_angle_beta   90.25156135
_cell_angle_gamma   90.04605192
_symmetry_Int_Tables_number   1
_chemical_formula_structural   SrCa7Mn8O23
_chemical_formula_sum   'Sr4 Ca28 Mn32 O92'
_cell_volume   1793.09719989
_cell_formula_units_Z   4
loop_
 _symmetry_equiv_pos_site_id
 _symmetry_equiv_pos_as_xyz
  1  'x, y, z'
loop_
 _atom_site_type_symbol
 _atom_site_label
 _atom_site_symmetry_multiplicity
 _atom_site_fract_x
 _atom_site_fract_y
 _atom_site_fract_z
 _atom_site_occupancy
  Sr  Sr0  1  0.01445160  0.12318545  0.50106656  1
  Sr  Sr1  1  0.49337326  0.38045902  0.99717711  1
  Sr  Sr2  1  0.23725559  0.38376036  0.25254785  1
  Sr  Sr3  1  0.24955823  0.11916415  0.25796113  1
  Ca  Ca0  1  0.01847989  0.11704683  0.98833647  1
  Ca  Ca1  1  0.02264309  0.62573749  0.49507237  1
  Ca  Ca2  1  0.02240157  0.62646121  0.99493557  1
  Ca  Ca3  1  0.52692088  0.12963138  0.50846463  1
  Ca  Ca4  1  0.53348233  0.12143403  0.97503009  1
  Ca  Ca5  1  0.52405344  0.62501312  0.49620372  1
  Ca  Ca6  1  0.52211147  0.62586832  0.99496626  1
  Ca  Ca7  1  0.47822105  0.38188503  0.51213371  1
  Ca  Ca8  1  0.47885845  0.87077475  0.99715011  1
  Ca  Ca9  1  0.47980185  0.86592311  0.51480827  1
  Ca  Ca10  1  0.96864034  0.38356126  0.99910931  1
  Ca  Ca11  1  0.97539984  0.37749171  0.50341413  1
  Ca  Ca12  1  0.97638930  0.87284063  0.00505471  1
  Ca  Ca13  1  0.97342362  0.87258459  0.50474158  1
  Ca  Ca14  1  0.22404087  0.37983656  0.74008267  1
  Ca  Ca15  1  0.22418753  0.87185489  0.24351896  1
  Ca  Ca16  1  0.22723986  0.87282307  0.74847458  1
  Ca  Ca17  1  0.73802677  0.38261114  0.24698989  1
  Ca  Ca18  1  0.72762110  0.37795821  0.74522199  1
  Ca  Ca19  1  0.73503393  0.86747739  0.24577620  1
  Ca  Ca20  1  0.72787188  0.87310735  0.74588656  1
  Ca  Ca21  1  0.27384976  0.12026934  0.74521917  1
  Ca  Ca22  1  0.27244392  0.62664992  0.25506613  1
  Ca  Ca23  1  0.27283544  0.62595990  0.75540224  1
  Ca  Ca24  1  0.77877139  0.12073205  0.25397286  1
  Ca  Ca25  1  0.77443947  0.12371531  0.75581378  1
  Ca  Ca26  1  0.77250899  0.62523440  0.25475839  1
  Ca  Ca27  1  0.77235117  0.62540397  0.75487210  1
  Mn  Mn0  1  0.99787076  0.99624032  0.24824501  1
  Mn  Mn1  1  0.99681005  0.99651166  0.75285252  1
  Mn  Mn2  1  0.99996537  0.50210027  0.24910000  1
  Mn  Mn3  1  0.99949157  0.50112789  0.74920940  1
  Mn  Mn4  1  0.51132286  0.98464445  0.23953632  1
  Mn  Mn5  1  0.50093327  0.99809653  0.74849138  1
  Mn  Mn6  1  0.50154711  0.50527763  0.25114909  1
  Mn  Mn7  1  0.49996641  0.50281096  0.74806437  1
  Mn  Mn8  1  0.25167319  0.00036525  0.99854178  1
  Mn  Mn9  1  0.23967184  0.99305242  0.50880180  1
  Mn  Mn10  1  0.24912713  0.50345655  0.00008979  1
  Mn  Mn11  1  0.24971478  0.50265231  0.50261474  1
  Mn  Mn12  1  0.75223344  0.99874092  0.99686651  1
  Mn  Mn13  1  0.74658568  0.99891471  0.50021805  1
  Mn  Mn14  1  0.75018986  0.50344095  0.00037859  1
  Mn  Mn15  1  0.75059219  0.50094184  0.50021560  1
  Mn  Mn16  1  0.25628358  0.24635680  0.96899130  1
  Mn  Mn17  1  0.24997265  0.25062373  0.50141867  1
  Mn  Mn18  1  0.24961771  0.75025939  0.00036380  1
  Mn  Mn19  1  0.25029149  0.74980083  0.49990614  1
  Mn  Mn20  1  0.75233287  0.24863378  0.99977232  1
  Mn  Mn21  1  0.75108257  0.24973853  0.50570965  1
  Mn  Mn22  1  0.74979469  0.75007643  0.99931809  1
  Mn  Mn23  1  0.75018332  0.74878949  0.50045354  1
  Mn  Mn24  1  0.99155498  0.25156749  0.25783979  1
  Mn  Mn25  1  0.99619373  0.25076514  0.74939383  1
  Mn  Mn26  1  0.99989460  0.74883115  0.24939090  1
  Mn  Mn27  1  0.00006586  0.74962017  0.74972187  1
  Mn  Mn28  1  0.52057047  0.25797050  0.26724899  1
  Mn  Mn29  1  0.50311047  0.25099988  0.74539258  1
  Mn  Mn30  1  0.49928298  0.74878103  0.25122234  1
  Mn  Mn31  1  0.50040904  0.74870667  0.75118661  1
  O  O0  1  0.10397738  0.26947790  0.60399059  1
  O  O1  1  0.10426561  0.77072408  0.10405954  1
  O  O2  1  0.10523505  0.77206915  0.60298129  1
  O  O3  1  0.59244179  0.25313151  0.10996672  1
  O  O4  1  0.59795401  0.26728364  0.59925164  1
  O  O5  1  0.60556825  0.77333614  0.10581510  1
  O  O6  1  0.60750643  0.76774237  0.60610145  1
  O  O7  1  0.39632896  0.22144216  0.37365121  1
  O  O8  1  0.40711620  0.23093313  0.89772226  1
  O  O9  1  0.39613683  0.72726638  0.39753425  1
  O  O10  1  0.39643847  0.73035554  0.89660259  1
  O  O11  1  0.88577884  0.23318095  0.39985014  1
  O  O12  1  0.89683026  0.23159467  0.90161592  1
  O  O13  1  0.89551579  0.72997334  0.39688954  1
  O  O14  1  0.89552325  0.72929962  0.89632715  1
  O  O15  1  0.14451125  0.23983151  0.34879219  1
  O  O16  1  0.13671275  0.22835616  0.85171409  1
  O  O17  1  0.14615342  0.73035145  0.35224114  1
  O  O18  1  0.14616187  0.73017441  0.85264863  1
  O  O19  1  0.65107009  0.21992072  0.35846945  1
  O  O20  1  0.64742331  0.22947336  0.85350838  1
  O  O21  1  0.64697143  0.72894423  0.35341815  1
  O  O22  1  0.64564394  0.72901050  0.85471294  1
  O  O23  1  0.35197688  0.26719932  0.64843329  1
  O  O24  1  0.35581570  0.77214269  0.14662311  1
  O  O25  1  0.35499969  0.77068290  0.64670655  1
  O  O26  1  0.85964953  0.27376482  0.14151157  1
  O  O27  1  0.85050596  0.27124534  0.64769608  1
  O  O28  1  0.85555998  0.76951572  0.14527310  1
  O  O29  1  0.85523446  0.77122887  0.64581053  1
  O  O30  1  0.36022303  0.48823939  0.14087648  1
  O  O31  1  0.35447796  0.48190022  0.64633830  1
  O  O32  1  0.35890731  0.99079606  0.15764392  1
  O  O33  1  0.35745208  0.97825982  0.64144317  1
  O  O34  1  0.85643862  0.48112143  0.14420237  1
  O  O35  1  0.85472077  0.47938488  0.64590276  1
  O  O36  1  0.85268281  0.97932607  0.14687997  1
  O  O37  1  0.85115117  0.97899191  0.64607249  1
  O  O38  1  0.14051620  0.00938197  0.35977251  1
  O  O39  1  0.14673019  0.02172834  0.85670411  1
  O  O40  1  0.14580400  0.52059707  0.35371532  1
  O  O41  1  0.14695948  0.51828311  0.85190726  1
  O  O42  1  0.62286654  0.03025307  0.35489504  1
  O  O43  1  0.64750995  0.02048096  0.85056111  1
  O  O44  1  0.64655686  0.52066470  0.35446522  1
  O  O45  1  0.64445498  0.51995350  0.85511255  1
  O  O46  1  0.39520473  0.02036215  0.89463511  1
  O  O47  1  0.39471343  0.52080685  0.39612463  1
  O  O48  1  0.39402888  0.51949598  0.89327805  1
  O  O49  1  0.88480545  0.01823195  0.38851213  1
  O  O50  1  0.89403827  0.01712223  0.89702321  1
  O  O51  1  0.89613229  0.51937545  0.39653884  1
  O  O52  1  0.89633073  0.51905228  0.89772640  1
  O  O53  1  0.10247882  0.48163891  0.10279034  1
  O  O54  1  0.10435290  0.47939443  0.60432103  1
  O  O55  1  0.10601211  0.98109908  0.10541190  1
  O  O56  1  0.09845513  0.97725130  0.61304817  1
  O  O57  1  0.61295814  0.48499184  0.11147521  1
  O  O58  1  0.60599360  0.48272283  0.60302688  1
  O  O59  1  0.60528806  0.98494105  0.09385248  1
  O  O60  1  0.59971179  0.98084199  0.59898366  1
  O  O61  1  0.00780293  0.37644575  0.28177728  1
  O  O62  1  0.00949504  0.37603881  0.78836473  1
  O  O63  1  0.00769667  0.87331623  0.28855773  1
  O  O64  1  0.00981341  0.87349522  0.79224067  1
  O  O65  1  0.49891935  0.37905292  0.28117279  1
  O  O66  1  0.51019713  0.37572330  0.77483212  1
  O  O67  1  0.50870836  0.87153772  0.30040042  1
  O  O68  1  0.51167621  0.87430083  0.78641817  1
  O  O69  1  0.49044199  0.12455417  0.71686122  1
  O  O70  1  0.49032250  0.62837486  0.21000927  1
  O  O71  1  0.48948923  0.62560757  0.71064289  1
  O  O72  1  0.99957290  0.12721100  0.21075615  1
  O  O73  1  0.98749131  0.12417092  0.72264624  1
  O  O74  1  0.98844420  0.62536181  0.21003796  1
  O  O75  1  0.98874476  0.62523383  0.71031911  1
  O  O76  1  0.24027163  0.13562746  0.03762628  1
  O  O77  1  0.25669924  0.12025356  0.52439666  1
  O  O78  1  0.23765422  0.62614869  0.03860205  1
  O  O79  1  0.23826769  0.62607522  0.54056196  1
  O  O80  1  0.74355128  0.12423592  0.03903835  1
  O  O81  1  0.74274918  0.12420405  0.54288582  1
  O  O82  1  0.73995165  0.62648888  0.03925697  1
  O  O83  1  0.74053930  0.62519885  0.53993029  1
  O  O84  1  0.26551373  0.37538331  0.47287582  1
  O  O85  1  0.25063412  0.36620585  0.98928827  1
  O  O86  1  0.26805753  0.87505350  0.45807312  1
  O  O87  1  0.26293799  0.87671661  0.96468428  1
  O  O88  1  0.75522091  0.37545679  0.46143810  1
  O  O89  1  0.75023097  0.37511858  0.96419914  1
  O  O90  1  0.75653097  0.87510750  0.45946977  1
  O  O91  1  0.75960155  0.87444729  0.96042975  1
loop_
_geom_bond_atom_site_label_1
_geom_bond_atom_site_label_2
_geom_bond_distance
_geom_bond_site_symmetry_2
Ca0 O50 2.262746 1_455
Ca0 O12 2.386362 1_455
Ca0 O72 2.406829 1_456
Ca0 O39 2.469420 1_555
Ca0 O76 2.489586 1_556
Ca0 O16 2.595888 1_555
Ca0 O55 2.611071 1_546
Ca1 O75 2.346074 1_455
Ca1 O13 2.360631 1_455
Ca1 O51 2.376682 1_455
Ca1 O79 2.399511 1_555
Ca1 O40 2.590897 1_555
Ca1 O17 2.598960 1_555
Ca1 O2 2.672570 1_555
Ca1 O54 2.680100 1_555
Ca2 O74 2.344706 1_456
Ca2 O14 2.346694 1_455
Ca2 O52 2.378643 1_455
Ca2 O78 2.391707 1_556
Ca2 O18 2.588440 1_555
Ca2 O41 2.638291 1_555
Ca2 O53 2.648213 1_556
Ca2 O1 2.649237 1_556
Ca3 O69 2.279621 1_555
Ca3 O81 2.382337 1_555
Ca3 O4 2.442677 1_555
Ca3 O7 2.468243 1_555
Ca3 O42 2.478113 1_555
Ca3 O19 2.522742 1_555
Ca3 O60 2.599190 1_545
Ca3 O77 2.955701 1_555
Ca4 O46 2.321556 1_555
Ca4 O8 2.321812 1_555
Ca4 O80 2.389322 1_556
Ca4 O43 2.394077 1_555
Ca4 O20 2.449142 1_555
Ca4 O3 2.560123 1_556
Ca4 O59 2.569726 1_546
Ca4 O69 2.814618 1_555
Ca5 O71 2.338668 1_555
Ca5 O9 2.347688 1_555
Ca5 O47 2.379837 1_555
Ca5 O83 2.405006 1_555
Ca5 O44 2.582091 1_555
Ca5 O21 2.588887 1_555
Ca5 O58 2.617833 1_555
Ca5 O6 2.639351 1_555
Ca6 O70 2.340527 1_556
Ca6 O10 2.354857 1_555
Ca6 O48 2.401872 1_555
Ca6 O82 2.420661 1_556
Ca6 O22 2.568817 1_555
Ca6 O45 2.584163 1_555
Ca6 O57 2.681745 1_556
Ca6 O5 2.703966 1_556
Ca7 O58 2.292054 1_555
Ca7 O84 2.357723 1_555
Ca7 O4 2.377113 1_555
Ca7 O65 2.495670 1_555
Ca7 O31 2.501165 1_555
Ca7 O47 2.626551 1_555
Ca7 O23 2.672198 1_555
Ca8 O68 2.296904 1_555
Ca8 O5 2.342861 1_556
Ca8 O87 2.380538 1_555
Ca8 O59 2.450877 1_556
Ca8 O10 2.562636 1_555
Ca8 O24 2.584989 1_556
Ca8 O46 2.698293 1_565
Ca8 O32 2.841015 1_556
Ca9 O6 2.269923 1_555
Ca9 O67 2.330623 1_555
Ca9 O60 2.365818 1_555
Ca9 O86 2.389867 1_555
Ca9 O25 2.450548 1_555
Ca9 O33 2.568469 1_555
Ca9 O9 2.625929 1_555
Ca10 O62 2.314680 1_655
Ca10 O53 2.366177 1_656
Ca10 O89 2.412723 1_555
Ca10 O52 2.470648 1_555
Ca10 O34 2.483820 1_556
Ca10 O26 2.568502 1_556
Ca10 O12 2.663247 1_555
Ca11 O54 2.357988 1_655
Ca11 O61 2.411462 1_655
Ca11 O0 2.420574 1_655
Ca11 O88 2.441207 1_555
Ca11 O35 2.553544 1_555
Ca11 O51 2.603126 1_555
Ca11 O27 2.631464 1_555
Ca11 O11 2.653830 1_555
Ca12 O64 2.319411 1_654
Ca12 O1 2.347662 1_655
Ca12 O91 2.410253 1_554
Ca12 O55 2.424784 1_655
Ca12 O28 2.554927 1_555
Ca12 O36 2.609733 1_555
Ca12 O14 2.634552 1_554
Ca12 O50 2.650399 1_564
Ca13 O2 2.353585 1_655
Ca13 O63 2.356709 1_655
Ca13 O56 2.398571 1_655
Ca13 O90 2.412937 1_555
Ca13 O29 2.527022 1_555
Ca13 O37 2.597768 1_555
Ca13 O13 2.607977 1_555
Ca13 O49 2.730713 1_565
Ca14 O31 2.342782 1_555
Ca14 O62 2.399331 1_555
Ca14 O23 2.427750 1_555
Ca14 O54 2.479097 1_555
Ca14 O41 2.576234 1_555
Ca14 O0 2.583635 1_555
Ca14 O85 2.703144 1_555
Ca14 O16 2.779811 1_555
Ca15 O24 2.341341 1_555
Ca15 O86 2.355103 1_555
Ca15 O63 2.412081 1_555
Ca15 O1 2.514494 1_555
Ca15 O32 2.516136 1_555
Ca15 O55 2.578996 1_555
Ca15 O17 2.604932 1_555
Ca15 O38 2.611817 1_565
Ca16 O87 2.356801 1_555
Ca16 O25 2.364096 1_555
Ca16 O64 2.419229 1_555
Ca16 O33 2.440579 1_555
Ca16 O2 2.561703 1_555
Ca16 O56 2.576024 1_555
Ca16 O18 2.608995 1_555
Ca16 O39 2.704127 1_565
Ca17 O34 2.274312 1_555
Ca17 O88 2.316089 1_555
Ca17 O26 2.413701 1_555
Ca17 O57 2.535294 1_555
Ca17 O44 2.606094 1_555
Ca17 O65 2.635236 1_555
Ca17 O19 2.922206 1_555
Ca17 O3 2.928485 1_555
Ca18 O35 2.341245 1_555
Ca18 O27 2.359672 1_555
Ca18 O89 2.367511 1_555
Ca18 O66 2.393773 1_555
Ca18 O58 2.580113 1_555
Ca18 O45 2.633765 1_555
Ca18 O20 2.699815 1_555
Ca18 O4 2.701006 1_555
Ca19 O28 2.269227 1_555
Ca19 O90 2.312068 1_555
Ca19 O36 2.390749 1_555
Ca19 O5 2.510360 1_555
Ca19 O67 2.540197 1_555
Ca19 O21 2.600526 1_555
Ca19 O59 2.808920 1_555
Ca20 O91 2.331905 1_555
Ca20 O29 2.350475 1_555
Ca20 O37 2.365375 1_555
Ca20 O68 2.399404 1_555
Ca20 O6 2.559231 1_555
Ca20 O22 2.653631 1_555
Ca20 O43 2.667556 1_565
Ca20 O60 2.674916 1_555
Ca21 O39 2.376132 1_555
Ca21 O77 2.381628 1_555
Ca21 O69 2.383602 1_555
Ca21 O16 2.508376 1_555
Ca21 O46 2.580564 1_555
Ca21 O33 2.606754 1_545
Ca21 O23 2.620649 1_555
Ca21 O8 2.762436 1_555
Ca22 O17 2.348065 1_555
Ca22 O78 2.357277 1_555
Ca22 O40 2.382539 1_555
Ca22 O70 2.426963 1_555
Ca22 O9 2.550423 1_555
Ca22 O47 2.586807 1_555
Ca22 O30 2.628282 1_555
Ca22 O24 2.673800 1_555
Ca23 O79 2.339665 1_555
Ca23 O18 2.356165 1_555
Ca23 O41 2.384502 1_555
Ca23 O71 2.413102 1_555
Ca23 O48 2.566893 1_555
Ca23 O10 2.577081 1_555
Ca23 O31 2.650216 1_555
Ca23 O25 2.660732 1_555
Ca24 O80 2.342491 1_555
Ca24 O19 2.348116 1_555
Ca24 O49 2.425305 1_555
Ca24 O42 2.449322 1_555
Ca24 O72 2.456111 1_555
Ca24 O36 2.579384 1_545
Ca24 O11 2.598279 1_555
Ca24 O26 2.780300 1_555
Ca25 O81 2.314633 1_555
Ca25 O43 2.336514 1_555
Ca25 O73 2.351978 1_555
Ca25 O20 2.376503 1_555
Ca25 O50 2.580177 1_555
Ca25 O12 2.632590 1_555
Ca25 O37 2.644236 1_545
Ca25 O27 2.672376 1_555
Ca26 O82 2.343464 1_555
Ca26 O21 2.350515 1_555
Ca26 O44 2.367954 1_555
Ca26 O74 2.405330 1_555
Ca26 O13 2.582838 1_555
Ca26 O51 2.599106 1_555
Ca26 O28 2.662177 1_555
Ca26 O34 2.666558 1_555
Ca27 O83 2.336215 1_555
Ca27 O22 2.362702 1_555
Ca27 O45 2.392013 1_555
Ca27 O75 2.409864 1_555
Ca27 O14 2.571531 1_555
Ca27 O52 2.612580 1_555
Ca27 O35 2.677375 1_555
Ca27 O29 2.679143 1_555
Mn0 O63 1.932344 1_655
Mn0 O36 1.935269 1_555
Mn0 O55 1.954343 1_655
Mn0 O38 1.970048 1_665
Mn0 O49 1.981050 1_565
Mn0 O72 2.043283 1_565
Mn1 O56 1.894739 1_655
Mn1 O64 1.933725 1_655
Mn1 O50 1.942670 1_565
Mn1 O37 1.973790 1_555
Mn1 O73 1.981726 1_565
Mn1 O39 2.012562 1_665
Mn2 O74 1.935489 1_555
Mn2 O34 1.951353 1_555
Mn2 O61 1.955401 1_655
Mn2 O53 1.959152 1_655
Mn2 O40 1.964076 1_655
Mn2 O51 1.970126 1_555
Mn3 O75 1.947141 1_555
Mn3 O35 1.954425 1_555
Mn3 O62 1.961945 1_655
Mn3 O41 1.964053 1_655
Mn3 O54 1.964945 1_655
Mn3 O52 1.976632 1_555
Mn4 O67 1.850238 1_555
Mn4 O42 1.867552 1_565
Mn4 O59 1.875971 1_555
Mn4 O32 1.880041 1_555
Mn5 O68 1.940297 1_555
Mn5 O60 1.957021 1_555
Mn5 O33 1.961589 1_555
Mn5 O43 1.964563 1_565
Mn5 O69 1.966945 1_565
Mn5 O46 1.982597 1_565
Mn6 O70 1.937844 1_555
Mn6 O44 1.942586 1_555
Mn6 O65 1.957360 1_555
Mn6 O30 1.957482 1_555
Mn6 O57 1.960638 1_555
Mn6 O47 1.964726 1_555
Mn7 O71 1.924069 1_555
Mn7 O31 1.949105 1_555
Mn7 O48 1.963162 1_555
Mn7 O45 1.964478 1_555
Mn7 O66 1.967856 1_555
Mn7 O58 1.969628 1_555
Mn8 O87 1.928727 1_545
Mn8 O39 1.931419 1_555
Mn8 O46 1.951345 1_555
Mn8 O55 1.986759 1_546
Mn8 O32 2.073788 1_546
Mn8 O76 2.113488 1_556
Mn9 O86 1.909803 1_555
Mn9 O56 1.924108 1_555
Mn9 O33 1.929081 1_555
Mn9 O38 1.946073 1_565
Mn9 O77 1.960288 1_565
Mn10 O78 1.924637 1_555
Mn10 O30 1.949392 1_555
Mn10 O41 1.954154 1_554
Mn10 O48 1.973008 1_554
Mn10 O53 1.975957 1_555
Mn10 O85 2.101495 1_554
Mn11 O79 1.934222 1_555
Mn11 O31 1.944726 1_555
Mn11 O54 1.962431 1_555
Mn11 O47 1.976123 1_555
Mn11 O40 1.977361 1_555
Mn11 O84 1.979162 1_555
Mn12 O50 1.907370 1_565
Mn12 O59 1.927439 1_556
Mn12 O91 1.941465 1_555
Mn12 O43 1.969078 1_565
Mn12 O36 1.969206 1_556
Mn12 O80 1.973281 1_566
Mn13 O90 1.945465 1_555
Mn13 O60 1.945504 1_555
Mn13 O49 1.954156 1_565
Mn13 O37 1.959662 1_555
Mn13 O81 1.969527 1_565
Mn13 O42 2.116034 1_565
Mn14 O82 1.929932 1_555
Mn14 O57 1.939788 1_555
Mn14 O45 1.954530 1_554
Mn14 O52 1.957331 1_554
Mn14 O34 1.959155 1_555
Mn14 O89 1.999494 1_554
Mn15 O83 1.949771 1_555
Mn15 O58 1.949907 1_555
Mn15 O44 1.954949 1_555
Mn15 O35 1.959562 1_555
Mn15 O88 1.963402 1_555
Mn15 O51 1.964018 1_555
Mn16 O16 1.830503 1_555
Mn16 O8 1.832884 1_555
Mn16 O85 1.846059 1_555
Mn16 O76 1.856349 1_556
Mn17 O84 1.939844 1_555
Mn17 O23 1.945395 1_555
Mn17 O0 1.962083 1_555
Mn17 O15 2.006691 1_555
Mn17 O77 2.010204 1_555
Mn17 O7 2.157072 1_555
Mn18 O78 1.946589 1_555
Mn18 O1 1.967020 1_555
Mn18 O18 1.968072 1_554
Mn18 O87 1.977038 1_554
Mn18 O24 1.977208 1_555
Mn18 O10 1.979054 1_554
Mn19 O79 1.946617 1_555
Mn19 O2 1.965193 1_555
Mn19 O9 1.968586 1_555
Mn19 O25 1.969924 1_555
Mn19 O17 1.970413 1_555
Mn19 O86 1.977356 1_555
Mn20 O12 1.918206 1_555
Mn20 O80 1.951234 1_556
Mn20 O26 1.955221 1_556
Mn20 O20 1.962531 1_555
Mn20 O89 1.972007 1_555
Mn20 O3 2.113615 1_556
Mn21 O11 1.879399 1_555
Mn21 O27 1.897103 1_555
Mn21 O81 1.963208 1_555
Mn21 O19 1.971524 1_555
Mn21 O4 1.971534 1_555
Mn21 O88 1.981438 1_555
Mn22 O82 1.941367 1_556
Mn22 O22 1.948046 1_555
Mn22 O91 1.950532 1_555
Mn22 O28 1.965938 1_556
Mn22 O14 1.966798 1_555
Mn22 O5 1.981742 1_556
Mn23 O83 1.940191 1_555
Mn23 O6 1.952150 1_555
Mn23 O21 1.960112 1_555
Mn23 O13 1.962193 1_555
Mn23 O29 1.963694 1_555
Mn23 O90 1.982815 1_555
Mn24 O26 1.932826 1_555
Mn24 O61 1.933989 1_655
Mn24 O15 1.938491 1_655
Mn24 O11 1.938743 1_555
Mn24 O72 1.968867 1_555
Mn25 O16 1.914059 1_655
Mn25 O27 1.950612 1_555
Mn25 O73 1.958435 1_555
Mn25 O62 1.965059 1_655
Mn25 O0 1.981427 1_655
Mn25 O12 1.989235 1_555
Mn26 O74 1.937708 1_555
Mn26 O63 1.950333 1_655
Mn26 O28 1.953876 1_555
Mn26 O17 1.957897 1_655
Mn26 O1 1.966566 1_655
Mn26 O13 1.977926 1_555
Mn27 O64 1.950318 1_555
Mn27 O75 1.951391 1_455
Mn27 O18 1.959128 1_555
Mn27 O29 1.959322 1_455
Mn27 O14 1.974652 1_455
Mn27 O2 1.985184 1_555
Mn28 O19 1.821238 1_555
Mn28 O7 1.863185 1_555
Mn28 O3 1.868899 1_555
Mn28 O65 1.872221 1_555
Mn29 O4 1.901939 1_555
Mn29 O66 1.933900 1_555
Mn29 O69 1.961578 1_555
Mn29 O23 1.962459 1_555
Mn29 O8 1.972398 1_555
Mn29 O20 1.980626 1_555
Mn30 O70 1.895128 1_555
Mn30 O67 1.951598 1_555
Mn30 O24 1.956376 1_555
Mn30 O9 1.966297 1_555
Mn30 O21 1.969780 1_555
Mn30 O5 1.986755 1_555
Mn31 O71 1.934664 1_555
Mn31 O22 1.955758 1_555
Mn31 O10 1.956213 1_555
Mn31 O68 1.960265 1_555
Mn31 O25 1.968817 1_555
Mn31 O6 1.974982 1_555
O0 Sr0 2.675831 1_555
O3 Sr1 2.535277 1_554
O7 Sr3 2.554837 1_555
O8 Sr1 2.689780 1_555
O11 Sr0 2.445022 1_655
O15 Sr3 2.382744 1_555
O15 Sr2 2.636166 1_555
O15 Sr0 2.810663 1_555
O30 Sr2 2.410177 1_555
O30 Sr1 2.688427 1_554
O32 Sr3 2.538897 1_565
O38 Sr3 2.333269 1_555
O38 Sr0 2.690768 1_555
O40 Sr2 2.561402 1_555
O48 Sr1 2.634684 1_555
O49 Sr0 2.452346 1_655
O53 Sr2 2.642753 1_555
O56 Sr0 2.696278 1_565
O57 Sr1 2.396283 1_554
O61 Sr2 2.525488 1_555
O65 Sr2 2.869467 1_555
O66 Sr1 2.400282 1_555
O72 Sr3 2.773481 1_655
O73 Sr0 2.402609 1_655
O76 Sr3 2.385296 1_555
O77 Sr0 2.652772 1_555
O77 Sr3 2.866432 1_555
O84 Sr2 2.392031 1_555
O85 Sr1 2.656668 1_555
O85 Sr2 2.848187 1_556
O89 Sr1 2.826012 1_555
