# generated using pymatgen
data_Zr3NbAl12
_symmetry_space_group_name_H-M   'P 1'
_cell_length_a   3.98149400
_cell_length_b   3.98149400
_cell_length_c   17.19284700
_cell_angle_alpha   90.00000000
_cell_angle_beta   90.00000000
_cell_angle_gamma   90.00000000
_symmetry_Int_Tables_number   1
_chemical_formula_structural   Zr3NbAl12
_chemical_formula_sum   'Zr3 Nb1 Al12'
_cell_volume   272.54607346
_cell_formula_units_Z   1
loop_
 _symmetry_equiv_pos_site_id
 _symmetry_equiv_pos_as_xyz
  1  'x, y, z'
loop_
 _atom_site_type_symbol
 _atom_site_label
 _atom_site_symmetry_multiplicity
 _atom_site_fract_x
 _atom_site_fract_y
 _atom_site_fract_z
 _atom_site_occupancy
  Zr  Zr0  1  0.00000000  0.00000000  0.88109100  1
  Zr  Zr1  1  0.00000000  0.00000000  0.12310000  1
  Zr  Zr2  1  0.50000000  0.50000000  0.61648000  1
  Nb  Nb0  1  0.50000000  0.50000000  0.38139500  1
  Al  Al0  1  0.50000000  0.00000000  0.00122700  1
  Al  Al1  1  0.00000000  0.50000000  0.49661900  1
  Al  Al2  1  0.00000000  0.50000000  0.00122700  1
  Al  Al3  1  0.50000000  0.00000000  0.49661900  1
  Al  Al4  1  0.50000000  0.50000000  0.12423300  1
  Al  Al5  1  0.00000000  0.00000000  0.62368500  1
  Al  Al6  1  0.00000000  0.00000000  0.37397100  1
  Al  Al7  1  0.50000000  0.50000000  0.87468200  1
  Al  Al8  1  0.00000000  0.50000000  0.25379100  1
  Al  Al9  1  0.50000000  0.00000000  0.74904500  1
  Al  Al10  1  0.50000000  0.00000000  0.25379100  1
  Al  Al11  1  0.00000000  0.50000000  0.74904500  1
loop_
_geom_bond_atom_site_label_1
_geom_bond_atom_site_label_2
_geom_bond_distance
_geom_bond_site_symmetry_2
Al0 Al2 2.815341 1_655
Al0 Al2 2.815341 1_645
Al0 Al2 2.815341 1_555
Al0 Al2 2.815341 1_545
Al0 Zr0 2.868672 1_654
Al0 Zr0 2.868672 1_554
Al0 Zr1 2.890249 1_655
Al0 Zr1 2.890249 1_555
Al0 Al4 2.904402 1_545
Al0 Al4 2.904402 1_555
Al0 Al7 2.949001 1_544
Al0 Al7 2.949001 1_554
Al1 Nb0 2.808478 1_555
Al1 Nb0 2.808478 1_455
Al1 Al3 2.815341 1_455
Al1 Al3 2.815341 1_565
Al1 Al3 2.815341 1_555
Al1 Al3 2.815341 1_465
Al1 Zr2 2.865270 1_455
Al1 Zr2 2.865270 1_555
Al1 Al6 2.899923 1_565
Al1 Al6 2.899923 1_555
Al1 Al5 2.955616 1_565
Al1 Al5 2.955616 1_555
Al2 Zr0 2.868672 1_564
Al2 Zr0 2.868672 1_554
Al2 Zr1 2.890249 1_565
Al2 Zr1 2.890249 1_555
Al2 Al4 2.904402 1_555
Al2 Al4 2.904402 1_455
Al2 Al7 2.949001 1_454
Al2 Al7 2.949001 1_554
Al3 Nb0 2.808478 1_555
Al3 Nb0 2.808478 1_545
Al3 Zr2 2.865270 1_545
Al3 Zr2 2.865270 1_555
Al3 Al6 2.899923 1_655
Al3 Al6 2.899923 1_555
Al3 Al5 2.955616 1_655
Al3 Al5 2.955616 1_555
Al4 Zr1 2.815409 1_565
Al4 Zr1 2.815409 1_655
Al4 Zr1 2.815409 1_665
Al4 Zr1 2.815409 1_555
Al4 Al8 2.987424 1_655
Al4 Al8 2.987424 1_555
Al5 Zr2 2.818065 1_555
Al5 Zr2 2.818065 1_445
Al5 Zr2 2.818065 1_545
Al5 Zr2 2.818065 1_455
Al5 Al9 2.934003 1_555
Al5 Al9 2.934003 1_455
Al6 Nb0 2.818233 1_555
Al6 Nb0 2.818233 1_445
Al6 Nb0 2.818233 1_545
Al6 Nb0 2.818233 1_455
Al6 Al8 2.869217 1_545
Al6 Al8 2.869217 1_555
Al7 Zr0 2.817497 1_665
Al7 Zr0 2.817497 1_565
Al7 Zr0 2.817497 1_555
Al7 Zr0 2.817497 1_655
Al7 Al9 2.937503 1_555
Al7 Al9 2.937503 1_565
Al8 Nb0 2.962459 1_455
Al8 Nb0 2.962459 1_555
Al8 Zr1 3.001976 1_555
Al8 Zr1 3.001976 1_565
Al9 Zr0 3.019453 1_555
Al9 Zr0 3.019453 1_655
Al9 Zr2 3.026167 1_555
Al9 Zr2 3.026167 1_545
Al10 Al8 2.815341 1_645
Al10 Al8 2.815341 1_655
Al10 Al8 2.815341 1_545
Al10 Al8 2.815341 1_555
Al10 Al6 2.869217 1_655
Al10 Al6 2.869217 1_555
Al10 Nb0 2.962459 1_555
Al10 Nb0 2.962459 1_545
Al10 Al4 2.987424 1_555
Al10 Al4 2.987424 1_545
Al10 Zr1 3.001976 1_655
Al10 Zr1 3.001976 1_555
Al11 Al9 2.815341 1_555
Al11 Al9 2.815341 1_565
Al11 Al9 2.815341 1_465
Al11 Al9 2.815341 1_455
Al11 Al5 2.934003 1_565
Al11 Al5 2.934003 1_555
Al11 Al7 2.937503 1_555
Al11 Al7 2.937503 1_455
Al11 Zr0 3.019453 1_565
Al11 Zr0 3.019453 1_555
Al11 Zr2 3.026167 1_555
Al11 Zr2 3.026167 1_455
