# generated using pymatgen
data_Sc5Sn3
_symmetry_space_group_name_H-M   'P 1'
_cell_length_a   8.43376050
_cell_length_b   8.43376059
_cell_length_c   6.10509602
_cell_angle_alpha   90.00000000
_cell_angle_beta   90.00000000
_cell_angle_gamma   120.00000771
_symmetry_Int_Tables_number   1
_chemical_formula_structural   Sc5Sn3
_chemical_formula_sum   'Sc10 Sn6'
_cell_volume   376.06734955
_cell_formula_units_Z   2
loop_
 _symmetry_equiv_pos_site_id
 _symmetry_equiv_pos_as_xyz
  1  'x, y, z'
loop_
 _atom_site_type_symbol
 _atom_site_label
 _atom_site_symmetry_multiplicity
 _atom_site_fract_x
 _atom_site_fract_y
 _atom_site_fract_z
 _atom_site_occupancy
  Sc  Sc0  1  0.33333300  0.66666700  0.50000000  1
  Sc  Sc1  1  0.66666700  0.33333300  0.00000000  1
  Sc  Sc2  1  0.66666700  0.33333300  0.50000000  1
  Sc  Sc3  1  0.33333300  0.66666700  0.00000000  1
  Sc  Sc4  1  0.76332690  1.00000000  0.75000000  1
  Sc  Sc5  1  0.76332690  0.76332690  0.25000000  1
  Sc  Sc6  1  0.23667310  0.00000000  0.25000000  1
  Sc  Sc7  1  0.23667310  0.23667310  0.75000000  1
  Sc  Sc8  1  1.00000000  0.76332690  0.75000000  1
  Sc  Sc9  1  0.00000000  0.23667310  0.25000000  1
  Sn  Sn0  1  0.39421174  0.00000000  0.75000000  1
  Sn  Sn1  1  0.39421174  0.39421174  0.25000000  1
  Sn  Sn2  1  1.00000000  0.60578826  0.25000000  1
  Sn  Sn3  1  0.00000000  0.39421174  0.75000000  1
  Sn  Sn4  1  0.60578826  0.60578826  0.75000000  1
  Sn  Sn5  1  0.60578826  1.00000000  0.25000000  1
loop_
_geom_bond_atom_site_label_1
_geom_bond_atom_site_label_2
_geom_bond_distance
_geom_bond_site_symmetry_2
Sc0 Sn2 3.008797 1_455
Sc0 Sn0 3.008797 1_565
Sc0 Sn3 3.008799 1_555
Sc0 Sn5 3.008799 1_555
Sc0 Sn4 3.008804 1_555
Sc0 Sn1 3.008804 1_555
Sc1 Sn3 3.008797 1_654
Sc1 Sn5 3.008797 1_545
Sc1 Sn2 3.008799 1_555
Sc1 Sn0 3.008799 1_554
Sc1 Sn1 3.008804 1_555
Sc1 Sn4 3.008804 1_554
Sc2 Sn3 3.008797 1_655
Sc2 Sn5 3.008797 1_545
Sc2 Sn2 3.008799 1_555
Sc2 Sn0 3.008799 1_555
Sc2 Sn1 3.008804 1_555
Sc2 Sn4 3.008804 1_555
Sc3 Sn2 3.008797 1_455
Sc3 Sn0 3.008797 1_564
Sc3 Sn3 3.008799 1_554
Sc3 Sn5 3.008799 1_555
Sc3 Sn4 3.008804 1_554
Sc3 Sn1 3.008804 1_555
Sc4 Sn3 2.898537 1_665
Sc4 Sn4 2.898537 1_555
Sc4 Sn0 3.113029 1_565
Sc4 Sn5 3.329165 1_556
Sc4 Sn5 3.329165 1_555
Sc5 Sn2 2.898537 1_555
Sc5 Sn5 2.898537 1_555
Sc5 Sn1 3.113029 1_555
Sc5 Sn4 3.329165 1_554
Sc5 Sn4 3.329165 1_555
Sc6 Sn2 2.898537 1_445
Sc6 Sn1 2.898537 1_555
Sc6 Sn5 3.113029 1_545
Sc6 Sn0 3.329165 1_555
Sc6 Sn0 3.329165 1_554
Sc7 Sn3 2.898537 1_555
Sc7 Sn0 2.898537 1_555
Sc7 Sn4 3.113029 1_555
Sc7 Sn1 3.329165 1_556
Sc7 Sn1 3.329165 1_555
Sc8 Sn0 2.898537 1_665
Sc8 Sn4 2.898537 1_555
Sc8 Sn3 3.113029 1_655
Sc8 Sn2 3.329165 1_556
Sc8 Sn2 3.329165 1_555
Sc9 Sn5 2.898537 1_445
Sc9 Sn1 2.898537 1_555
Sc9 Sn2 3.113029 1_455
Sc9 Sn3 3.329165 1_555
Sc9 Sn3 3.329165 1_554
