# generated using pymatgen
data_Tb6GaCo2
_symmetry_space_group_name_H-M   'P 1'
_cell_length_a   8.32852642
_cell_length_b   8.32852642
_cell_length_c   8.32852642
_cell_angle_alpha   112.10848616
_cell_angle_beta   109.21106491
_cell_angle_gamma   107.13292327
_symmetry_Int_Tables_number   1
_chemical_formula_structural   Tb6GaCo2
_chemical_formula_sum   'Tb12 Ga2 Co4'
_cell_volume   443.86645255
_cell_formula_units_Z   2
loop_
 _symmetry_equiv_pos_site_id
 _symmetry_equiv_pos_as_xyz
  1  'x, y, z'
loop_
 _atom_site_type_symbol
 _atom_site_label
 _atom_site_symmetry_multiplicity
 _atom_site_fract_x
 _atom_site_fract_y
 _atom_site_fract_z
 _atom_site_occupancy
  Tb  Tb0  1  0.03783600  0.73614900  0.30168700  1
  Tb  Tb1  1  0.96216400  0.26385100  0.69831300  1
  Tb  Tb2  1  0.56553700  0.26385100  0.30168700  1
  Tb  Tb3  1  0.43446300  0.73614900  0.69831300  1
  Tb  Tb4  1  0.67426400  0.86337700  0.18911300  1
  Tb  Tb5  1  0.32573600  0.51484900  0.18911300  1
  Tb  Tb6  1  0.32573600  0.13662300  0.81088700  1
  Tb  Tb7  1  0.67426400  0.48515100  0.81088700  1
  Tb  Tb8  1  0.18079000  0.21800000  0.39879000  1
  Tb  Tb9  1  0.81921000  0.21800000  0.03721000  1
  Tb  Tb10  1  0.18079000  0.78200000  0.96279000  1
  Tb  Tb11  1  0.81921000  0.78200000  0.60121000  1
  Ga  Ga0  1  0.00000000  0.50000000  0.50000000  1
  Ga  Ga1  1  0.50000000  0.00000000  0.50000000  1
  Co  Co0  1  0.65917400  0.50000000  0.15917400  1
  Co  Co1  1  0.34082600  0.50000000  0.84082600  1
  Co  Co2  1  0.88593400  0.88593400  0.00000000  1
  Co  Co3  1  0.11406600  0.11406600  0.00000000  1
loop_
_geom_bond_atom_site_label_1
_geom_bond_atom_site_label_2
_geom_bond_distance
_geom_bond_site_symmetry_2
Tb0 Tb4 3.455522 1_455
Tb0 Tb7 3.455522 1_454
Tb0 Tb10 3.504980 1_554
Tb0 Tb8 3.504980 1_565
Tb0 Tb9 3.516541 1_455
Tb0 Tb11 3.516541 1_455
Tb0 Tb5 3.578821 1_555
Tb0 Tb6 3.578821 1_565
Tb0 Tb3 3.826576 1_555
Tb1 Tb6 3.455522 1_655
Tb1 Tb5 3.455522 1_656
Tb1 Tb9 3.504980 1_556
Tb1 Tb11 3.504980 1_545
Tb1 Tb10 3.516541 1_655
Tb1 Tb8 3.516541 1_655
Tb1 Tb7 3.578821 1_555
Tb1 Tb4 3.578821 1_545
Tb1 Tb2 3.826576 1_555
Tb2 Tb5 3.455516 1_555
Tb2 Tb6 3.455521 1_554
Tb2 Tb8 3.504972 1_555
Tb2 Tb9 3.516548 1_555
Tb2 Tb7 3.578819 1_555
Tb2 Tb4 3.578827 1_545
Tb3 Tb7 3.455516 1_555
Tb3 Tb4 3.455521 1_556
Tb3 Tb9 3.504977 1_566
Tb3 Tb8 3.516541 1_555
Tb3 Tb5 3.578819 1_555
Tb3 Tb6 3.578827 1_565
Tb4 Tb8 3.673952 1_665
Tb4 Tb9 3.673952 1_565
Tb5 Tb9 3.673952 1_455
Tb5 Tb8 3.673952 1_555
Tb6 Tb8 3.633552 1_555
Tb6 Tb9 3.633552 1_556
Tb7 Tb8 3.633552 1_555
Tb7 Tb9 3.633552 1_556
Tb8 Tb9 3.488454 1_455
Tb10 Tb11 3.488454 1_455
Tb10 Tb2 3.504977 1_566
Tb10 Tb3 3.516548 1_555
Tb10 Tb5 3.633552 1_556
Tb10 Tb4 3.633552 1_556
Tb10 Tb7 3.673952 1_455
Tb10 Tb6 3.673952 1_565
Tb11 Tb3 3.504972 1_555
Tb11 Tb2 3.516541 1_555
Tb11 Tb4 3.633552 1_555
Tb11 Tb5 3.633552 1_555
Tb11 Tb7 3.673952 1_555
Tb11 Tb6 3.673952 1_665
Ga0 Tb0 3.019602 1_555
Ga0 Tb1 3.019602 1_455
Ga0 Tb3 3.019609 1_555
Ga0 Tb2 3.019609 1_455
Ga0 Tb9 3.149995 1_455
Ga0 Tb11 3.149995 1_455
Ga0 Tb10 3.149995 1_555
Ga0 Tb8 3.149995 1_555
Ga1 Tb2 3.236272 1_555
Ga1 Tb3 3.236272 1_545
Ga1 Tb1 3.236273 1_555
Ga1 Tb0 3.236273 1_545
Ga1 Tb7 3.366559 1_555
Ga1 Tb5 3.366559 1_545
Ga1 Tb6 3.366559 1_555
Ga1 Tb4 3.366559 1_545
Ga1 Tb9 3.687278 1_556
Ga1 Tb10 3.687278 1_544
Ga1 Tb11 3.687278 1_545
Ga1 Tb8 3.687278 1_555
Co0 Tb0 2.710680 1_655
Co0 Tb2 2.710682 1_555
Co0 Tb4 2.902464 1_555
Co0 Tb6 2.902464 1_554
Co0 Tb7 2.902464 1_554
Co0 Tb5 2.902464 1_555
Co0 Tb11 3.043693 1_555
Co0 Tb9 3.043693 1_555
Co0 Co1 3.071360 1_554
Co0 Ga0 3.288223 1_655
Co1 Tb1 2.710680 1_455
Co1 Tb3 2.710682 1_555
Co1 Tb6 2.902464 1_555
Co1 Tb5 2.902464 1_556
Co1 Tb4 2.902464 1_556
Co1 Tb7 2.902464 1_555
Co1 Tb10 3.043693 1_555
Co1 Tb8 3.043693 1_555
Co1 Ga0 3.288223 1_555
Co2 Co3 2.256786 1_665
Co2 Tb7 2.734725 1_554
Co2 Tb4 2.734725 1_555
Co2 Tb9 2.902966 1_565
Co2 Tb10 2.902966 1_654
Co2 Tb11 2.902966 1_554
Co2 Tb8 2.902966 1_665
Co2 Tb3 3.266070 1_554
Co2 Tb0 3.266076 1_655
Co3 Tb5 2.734725 1_555
Co3 Tb6 2.734725 1_554
Co3 Tb9 2.902966 1_455
Co3 Tb11 2.902966 1_444
Co3 Tb10 2.902966 1_544
Co3 Tb8 2.902966 1_555
Co3 Tb2 3.266070 1_555
Co3 Tb1 3.266076 1_454
