# generated using pymatgen
data_K3P11
_symmetry_space_group_name_H-M   'P 1'
_cell_length_a   10.62268762
_cell_length_b   10.61147584
_cell_length_c   13.80465904
_cell_angle_alpha   90.00000000
_cell_angle_beta   90.00000000
_cell_angle_gamma   90.00000000
_symmetry_Int_Tables_number   1
_chemical_formula_structural   K3P11
_chemical_formula_sum   'K12 P44'
_cell_volume   1556.09420203
_cell_formula_units_Z   4
loop_
 _symmetry_equiv_pos_site_id
 _symmetry_equiv_pos_as_xyz
  1  'x, y, z'
loop_
 _atom_site_type_symbol
 _atom_site_label
 _atom_site_symmetry_multiplicity
 _atom_site_fract_x
 _atom_site_fract_y
 _atom_site_fract_z
 _atom_site_occupancy
  K  K0  1  0.42733873  0.23246431  0.99102496  1
  K  K1  1  0.92733873  0.26753569  0.50897504  1
  K  K2  1  0.57266127  0.73246431  0.50897504  1
  K  K3  1  0.07266127  0.76753569  0.99102496  1
  K  K4  1  0.57266127  0.76753569  0.00897504  1
  K  K5  1  0.07266127  0.73246431  0.49102496  1
  K  K6  1  0.42733873  0.26753569  0.49102496  1
  K  K7  1  0.92733873  0.23246431  0.00897504  1
  K  K8  1  0.25000000  0.50000000  0.21625271  1
  K  K9  1  0.75000000  0.00000000  0.28374729  1
  K  K10  1  0.75000000  0.50000000  0.78374729  1
  K  K11  1  0.25000000  0.00000000  0.71625271  1
  P  P0  1  0.00993031  0.50996443  0.65253318  1
  P  P1  1  0.50993031  0.99003557  0.84746682  1
  P  P2  1  0.99006969  0.00996443  0.84746682  1
  P  P3  1  0.49006969  0.49003557  0.65253318  1
  P  P4  1  0.99006969  0.49003557  0.34746682  1
  P  P5  1  0.49006969  0.00996443  0.15253318  1
  P  P6  1  0.00993031  0.99003557  0.15253318  1
  P  P7  1  0.50993031  0.50996443  0.34746682  1
  P  P8  1  0.18646178  0.41758217  0.62266982  1
  P  P9  1  0.68646178  0.08241783  0.87733018  1
  P  P10  1  0.81353822  0.91758217  0.87733018  1
  P  P11  1  0.31353822  0.58241783  0.62266982  1
  P  P12  1  0.25000000  0.00000000  0.47471513  1
  P  P13  1  0.75000000  0.50000000  0.02528487  1
  P  P14  1  0.75000000  0.00000000  0.52528487  1
  P  P15  1  0.25000000  0.50000000  0.97471513  1
  P  P16  1  0.74489950  0.32182110  0.23863360  1
  P  P17  1  0.24489950  0.17817890  0.26136640  1
  P  P18  1  0.25510050  0.82182110  0.26136640  1
  P  P19  1  0.75510050  0.67817890  0.23863360  1
  P  P20  1  0.25510050  0.67817890  0.76136640  1
  P  P21  1  0.75510050  0.82182110  0.73863360  1
  P  P22  1  0.74489950  0.17817890  0.73863360  1
  P  P23  1  0.24489950  0.32182110  0.76136640  1
  P  P24  1  0.93362223  0.41127980  0.21060406  1
  P  P25  1  0.43362223  0.08872020  0.28939594  1
  P  P26  1  0.06637777  0.91127980  0.28939594  1
  P  P27  1  0.56637777  0.58872020  0.21060406  1
  P  P28  1  0.06637777  0.58872020  0.78939594  1
  P  P29  1  0.56637777  0.91127980  0.71060406  1
  P  P30  1  0.93362223  0.08872020  0.71060406  1
  P  P31  1  0.43362223  0.41127980  0.78939594  1
  P  P32  1  0.62145139  0.41827498  0.12925534  1
  P  P33  1  0.12145139  0.08172502  0.37074466  1
  P  P34  1  0.37854861  0.91827498  0.37074466  1
  P  P35  1  0.87854861  0.58172502  0.12925534  1
  P  P36  1  0.37854861  0.58172502  0.87074466  1
  P  P37  1  0.87854861  0.91827498  0.62925534  1
  P  P38  1  0.62145139  0.08172502  0.62925534  1
  P  P39  1  0.12145139  0.41827498  0.87074466  1
  P  P40  1  0.68646178  0.41758217  0.37733018  1
  P  P41  1  0.18646178  0.08241783  0.12266982  1
  P  P42  1  0.31353822  0.91758217  0.12266982  1
  P  P43  1  0.81353822  0.58241783  0.37733018  1
loop_
_geom_bond_atom_site_label_1
_geom_bond_atom_site_label_2
_geom_bond_distance
_geom_bond_site_symmetry_2
K0 P5 3.315054 1_556
K0 P1 3.363784 1_545
K0 P31 3.369328 1_555
K0 P15 3.414539 1_555
K0 P32 3.432325 1_556
K0 P41 3.519237 1_556
K0 P9 3.546160 1_555
K1 P4 3.315054 1_555
K1 P0 3.363784 1_655
K1 P30 3.369328 1_555
K1 P14 3.414539 1_555
K1 P33 3.432325 1_655
K1 P40 3.519237 1_555
K1 P8 3.546160 1_655
K2 P7 3.315054 1_555
K2 P3 3.363784 1_555
K2 P29 3.369328 1_555
K2 P14 3.414539 1_565
K2 P34 3.432325 1_555
K2 P43 3.519237 1_555
K2 P11 3.546160 1_555
K3 P6 3.315054 1_556
K3 P2 3.363784 1_465
K3 P28 3.369328 1_555
K3 P15 3.414539 1_555
K3 P35 3.432325 1_456
K3 P42 3.519237 1_556
K3 P10 3.546160 1_455
K4 P1 3.315054 1_554
K4 P5 3.363784 1_565
K4 P27 3.369328 1_555
K4 P13 3.414539 1_555
K4 P36 3.432325 1_554
K4 P10 3.519237 1_554
K4 P42 3.546160 1_555
K5 P0 3.315054 1_555
K5 P4 3.363784 1_455
K5 P26 3.369328 1_555
K5 P12 3.414539 1_565
K5 P37 3.432325 1_455
K5 P11 3.519237 1_555
K5 P43 3.546160 1_455
K6 P3 3.315054 1_555
K6 P7 3.363784 1_555
K6 P25 3.369328 1_555
K6 P12 3.414539 1_555
K6 P38 3.432325 1_555
K6 P8 3.519237 1_555
K6 P40 3.546160 1_555
K7 P2 3.315054 1_554
K7 P6 3.363784 1_645
K7 P24 3.369328 1_555
K7 P13 3.414539 1_555
K7 P39 3.432325 1_654
K7 P9 3.519237 1_554
K7 P41 3.546160 1_655
K8 P7 3.303971 1_555
K8 P4 3.303971 1_455
K8 P15 3.334344 1_554
K8 P18 3.471742 1_555
K8 P17 3.471742 1_555
K8 P27 3.491027 1_555
K8 P24 3.491027 1_455
K9 P5 3.303971 1_555
K9 P6 3.303971 1_645
K9 P14 3.334344 1_555
K9 P16 3.471742 1_555
K9 P19 3.471742 1_545
K9 P26 3.491027 1_645
K9 P25 3.491027 1_555
K10 P3 3.303971 1_555
K10 P0 3.303971 1_655
K10 P13 3.334344 1_556
K10 P21 3.471742 1_555
K10 P22 3.471742 1_555
K10 P28 3.491027 1_655
K10 P31 3.491027 1_555
K11 P2 3.303971 1_455
K11 P1 3.303971 1_545
K11 P12 3.334344 1_555
K11 P23 3.471742 1_555
K11 P20 3.471742 1_545
K11 P29 3.491027 1_545
K11 P30 3.491027 1_455
P0 P28 2.151183 1_555
P0 P8 2.155803 1_555
P1 P29 2.151183 1_555
P1 P9 2.155803 1_565
P2 P30 2.151183 1_555
P3 P31 2.151183 1_555
P4 P43 2.155803 1_555
P10 P2 2.155803 1_565
P10 P9 2.209465 1_565
P10 P21 2.254742 1_555
P11 P3 2.155803 1_555
P11 P8 2.209465 1_555
P11 P20 2.254742 1_555
P12 P34 2.162585 1_545
P12 P33 2.162585 1_555
P13 P32 2.162585 1_555
P13 P35 2.162585 1_555
P14 P38 2.162585 1_555
P14 P37 2.162585 1_545
P15 P36 2.162585 1_555
P15 P39 2.162585 1_555
P16 P32 2.246579 1_555
P16 P24 2.251636 1_555
P16 P40 2.254742 1_555
P17 P33 2.246579 1_555
P17 P25 2.251636 1_555
P17 P41 2.254742 1_555
P18 P34 2.246579 1_555
P18 P26 2.251636 1_555
P18 P42 2.254742 1_555
P19 P35 2.246579 1_555
P19 P27 2.251636 1_555
P19 P43 2.254742 1_555
P20 P36 2.246579 1_555
P20 P28 2.251636 1_555
P21 P37 2.246579 1_555
P21 P29 2.251636 1_555
P22 P38 2.246579 1_555
P22 P30 2.251636 1_555
P22 P9 2.254742 1_555
P23 P39 2.246579 1_555
P23 P31 2.251636 1_555
P23 P8 2.254742 1_555
P24 P4 2.151183 1_555
P24 P35 2.207867 1_555
P25 P5 2.151183 1_555
P25 P34 2.207867 1_545
P26 P6 2.151183 1_555
P26 P33 2.207867 1_565
P27 P7 2.151183 1_555
P27 P32 2.207867 1_555
P28 P39 2.207867 1_555
P29 P38 2.207867 1_565
P30 P37 2.207867 1_545
P31 P36 2.207867 1_555
P40 P7 2.155803 1_555
P40 P43 2.209465 1_555
P41 P6 2.155803 1_545
P41 P42 2.209465 1_545
P42 P5 2.155803 1_565
