# generated using pymatgen
data_LiSbS2
_symmetry_space_group_name_H-M   'P 1'
_cell_length_a   8.63905127
_cell_length_b   8.63905183
_cell_length_c   8.63905191
_cell_angle_alpha   107.79685879
_cell_angle_beta   107.79685807
_cell_angle_gamma   107.79685958
_symmetry_Int_Tables_number   1
_chemical_formula_structural   LiSbS2
_chemical_formula_sum   'Li6 Sb6 S12'
_cell_volume   524.85298164
_cell_formula_units_Z   6
loop_
 _symmetry_equiv_pos_site_id
 _symmetry_equiv_pos_as_xyz
  1  'x, y, z'
loop_
 _atom_site_type_symbol
 _atom_site_label
 _atom_site_symmetry_multiplicity
 _atom_site_fract_x
 _atom_site_fract_y
 _atom_site_fract_z
 _atom_site_occupancy
  Li  Li0  1  0.25209843  0.08546373  0.68919954  1
  Li  Li1  1  0.74790157  0.91453627  0.31080046  1
  Li  Li2  1  0.91453627  0.31080046  0.74790157  1
  Li  Li3  1  0.31080046  0.74790157  0.91453627  1
  Li  Li4  1  0.08546373  0.68919954  0.25209843  1
  Li  Li5  1  0.68919954  0.25209843  0.08546373  1
  Sb  Sb0  1  0.44120890  0.14719654  0.37277459  1
  Sb  Sb1  1  0.14719654  0.37277459  0.44120890  1
  Sb  Sb2  1  0.37277459  0.44120890  0.14719654  1
  Sb  Sb3  1  0.55879110  0.85280346  0.62722541  1
  Sb  Sb4  1  0.85280346  0.62722541  0.55879110  1
  Sb  Sb5  1  0.62722541  0.55879110  0.85280346  1
  S  S0  1  0.74190937  0.58823298  0.15757042  1
  S  S1  1  0.15757042  0.74190937  0.58823298  1
  S  S2  1  0.41176702  0.84242958  0.25809063  1
  S  S3  1  0.58823298  0.15757042  0.74190937  1
  S  S4  1  0.25809063  0.41176702  0.84242958  1
  S  S5  1  0.84242958  0.25809063  0.41176702  1
  S  S6  1  0.63807047  0.86394731  0.94486806  1
  S  S7  1  0.94486806  0.63807047  0.86394731  1
  S  S8  1  0.86394731  0.94486806  0.63807047  1
  S  S9  1  0.36192953  0.13605269  0.05513194  1
  S  S10  1  0.05513194  0.36192953  0.13605269  1
  S  S11  1  0.13605269  0.05513194  0.36192953  1
loop_
_geom_bond_atom_site_label_1
_geom_bond_atom_site_label_2
_geom_bond_distance
_geom_bond_site_symmetry_2
Li0 S11 2.592536 1_555
Li0 S1 2.595591 1_545
Li0 S3 2.634474 1_555
Li0 S4 2.699876 1_555
Li0 S9 2.855437 1_556
Li0 S8 3.031772 1_445
Li1 S8 2.592536 1_555
Li1 S5 2.595591 1_565
Li1 S2 2.634474 1_555
Li1 S0 2.699876 1_555
Li1 S6 2.855437 1_554
Li1 S11 3.031772 1_665
Li2 S7 2.592536 1_555
Li2 S4 2.595591 1_655
Li2 S5 2.634475 1_555
Li2 S3 2.699876 1_555
Li2 S8 2.855437 1_545
Li2 S10 3.031773 1_656
Li3 S6 2.592536 1_555
Li3 S2 2.595591 1_556
Li3 S4 2.634475 1_555
Li3 S1 2.699876 1_555
Li3 S7 2.855437 1_455
Li3 S9 3.031773 1_566
Li4 S10 2.592536 1_555
Li4 S0 2.595591 1_455
Li4 S1 2.634475 1_555
Li4 S2 2.699876 1_555
Li4 S11 2.855437 1_565
Li4 S7 3.031773 1_454
Li5 S9 2.592536 1_555
Li5 S3 2.595591 1_554
Li5 S0 2.634475 1_555
Li5 S5 2.699876 1_555
Li5 S10 2.855437 1_655
Li5 S6 3.031773 1_544
S0 Sb5 2.412563 1_554
S0 Sb2 3.011741 1_555
S1 Sb4 2.412562 1_455
S1 Sb1 3.011741 1_555
S2 Sb0 2.412563 1_565
S2 Sb3 3.011741 1_555
S3 Sb3 2.412563 1_545
S3 Sb0 3.011741 1_555
S4 Sb2 2.412563 1_556
S4 Sb5 3.011741 1_555
S5 Sb1 2.412562 1_655
S5 Sb4 3.011741 1_555
S6 Sb5 2.472444 1_555
S6 Sb3 2.580297 1_555
S7 Sb4 2.472444 1_555
S7 Sb5 2.580296 1_555
S8 Sb3 2.472444 1_555
S8 Sb4 2.580297 1_555
S9 Sb2 2.472444 1_555
S9 Sb0 2.580297 1_555
S10 Sb1 2.472444 1_555
S10 Sb2 2.580296 1_555
S11 Sb0 2.472444 1_555
S11 Sb1 2.580297 1_555
