# generated using pymatgen
data_Na2Al2Si3(HO3)4
_symmetry_space_group_name_H-M   'P 1'
_cell_length_a   13.24043121
_cell_length_b   10.00562006
_cell_length_c   9.86491434
_cell_angle_alpha   83.56642389
_cell_angle_beta   48.67081770
_cell_angle_gamma   47.76275841
_symmetry_Int_Tables_number   1
_chemical_formula_structural   Na2Al2Si3(HO3)4
_chemical_formula_sum   'Na4 Al4 Si6 H8 O24'
_cell_volume   582.94298829
_cell_formula_units_Z   2
loop_
 _symmetry_equiv_pos_site_id
 _symmetry_equiv_pos_as_xyz
  1  'x, y, z'
loop_
 _atom_site_type_symbol
 _atom_site_label
 _atom_site_symmetry_multiplicity
 _atom_site_fract_x
 _atom_site_fract_y
 _atom_site_fract_z
 _atom_site_occupancy
  Na  Na0  1  0.82035800  0.61664000  0.11899700  1
  Na  Na1  1  0.44400500  0.11899700  0.61664000  1
  Na  Na2  1  0.13100300  0.80599500  0.42964200  1
  Na  Na3  1  0.63336000  0.42964200  0.80599500  1
  Al  Al0  1  0.57942000  0.73448400  0.99736000  1
  Al  Al1  1  0.68873600  0.99736000  0.73448400  1
  Al  Al2  1  0.25264000  0.56126400  0.67058000  1
  Al  Al3  1  0.51551600  0.67058000  0.56126400  1
  Si  Si0  1  0.24945400  0.25054600  0.25054600  1
  Si  Si1  1  0.99945400  0.00054600  0.00054600  1
  Si  Si2  1  0.56985700  0.50925900  0.23849000  1
  Si  Si3  1  0.68239400  0.23849000  0.50925900  1
  Si  Si4  1  0.01151000  0.56760600  0.68014300  1
  Si  Si5  1  0.74074100  0.68014300  0.56760600  1
  H  H0  1  0.11814300  0.09190100  0.48520400  1
  H  H1  1  0.30475200  0.48520400  0.09190100  1
  H  H2  1  0.76479600  0.94524800  0.13185700  1
  H  H3  1  0.15809900  0.13185700  0.94524800  1
  H  H4  1  0.98026200  0.13894800  0.72485400  1
  H  H5  1  0.15593600  0.72485400  0.13894800  1
  H  H6  1  0.52514600  0.09406400  0.26973800  1
  H  H7  1  0.11105200  0.26973800  0.09406400  1
  O  O0  1  0.33658800  0.02599200  0.21008400  1
  O  O1  1  0.42733600  0.21008400  0.02599200  1
  O  O2  1  0.03991600  0.82266400  0.91341200  1
  O  O3  1  0.22400800  0.91341200  0.82266400  1
  O  O4  1  0.53116100  0.60819300  0.11258900  1
  O  O5  1  0.74805700  0.11258900  0.60819300  1
  O  O6  1  0.13741100  0.50194300  0.71883900  1
  O  O7  1  0.64180700  0.71883900  0.50194300  1
  O  O8  1  0.81410700  0.61747100  0.88387100  1
  O  O9  1  0.68455100  0.88387100  0.61747100  1
  O  O10  1  0.36612900  0.56544900  0.43589300  1
  O  O11  1  0.63252900  0.43589300  0.56544900  1
  O  O12  1  0.57933600  0.61609400  0.33628800  1
  O  O13  1  0.46828200  0.33628800  0.61609400  1
  O  O14  1  0.91371200  0.78171800  0.67066400  1
  O  O15  1  0.63390600  0.67066400  0.78171800  1
  O  O16  1  0.81368400  0.23262200  0.04714900  1
  O  O17  1  0.90654500  0.04714900  0.23262200  1
  O  O18  1  0.20285100  0.34345500  0.43631600  1
  O  O19  1  0.01737800  0.43631600  0.34345500  1
  O  O20  1  0.00321900  0.11619900  0.60856500  1
  O  O21  1  0.27201600  0.60856500  0.11619900  1
  O  O22  1  0.64143500  0.97798400  0.24678100  1
  O  O23  1  0.13380100  0.24678100  0.97798400  1
loop_
_geom_bond_atom_site_label_1
_geom_bond_atom_site_label_2
_geom_bond_distance
_geom_bond_site_symmetry_2
Na0 O8 2.373878 1_554
Na0 O23 2.394696 1_654
Na0 O12 2.401004 1_555
Na0 O22 2.415589 1_555
Na0 O7 2.593424 1_555
Na0 O6 2.678427 1_654
Na1 O9 2.373878 1_545
Na1 O22 2.394692 1_545
Na1 O13 2.401004 1_555
Na1 O23 2.415584 1_555
Na1 O6 2.593424 1_555
Na1 O7 2.678427 1_545
Na2 O10 2.373878 1_555
Na2 O21 2.394700 1_555
Na2 O14 2.401004 1_455
Na2 O20 2.415580 1_565
Na2 O5 2.593424 1_465
Na2 O4 2.678427 1_555
Na3 O11 2.373878 1_555
Na3 O20 2.394692 1_655
Na3 O15 2.401004 1_555
Na3 O21 2.415589 1_556
Na3 O4 2.593424 1_556
Na3 O5 2.678427 1_555
Al0 O8 1.757206 1_555
Al0 O0 1.761018 1_566
Al0 O4 1.761089 1_556
Al0 O15 1.764008 1_555
Al1 O9 1.757206 1_555
Al1 O1 1.761018 1_566
Al1 O5 1.761089 1_565
Al1 O14 1.764008 1_555
Al2 O10 1.757206 1_555
Al2 O2 1.761018 1_555
Al2 O6 1.761089 1_555
Al2 O13 1.764008 1_555
Al3 O11 1.757206 1_555
Al3 O3 1.761018 1_555
Al3 O7 1.761089 1_555
Al3 O12 1.764008 1_555
H0 O20 0.989281 1_555
H1 O21 0.989274 1_555
H2 O22 0.989274 1_555
H3 O23 0.989283 1_555
H4 O20 0.982435 1_655
H5 O21 0.982427 1_555
H6 O22 0.982434 1_545
H7 O23 0.982426 1_554
O0 Si0 1.626764 1_555
O1 Si0 1.626764 1_555
O2 Si1 1.626764 1_466
O3 Si1 1.626764 1_466
O4 Si2 1.633419 1_555
O5 Si3 1.633419 1_555
O6 Si4 1.633419 1_555
O7 Si5 1.633419 1_555
O8 Si4 1.628851 1_655
O9 Si5 1.628851 1_555
O10 Si2 1.628851 1_555
O11 Si3 1.628851 1_555
O12 Si2 1.631131 1_555
O13 Si3 1.631131 1_555
O14 Si4 1.631131 1_655
O15 Si5 1.631131 1_555
O16 Si1 1.649382 1_555
O16 Si2 1.660016 1_555
O17 Si1 1.649382 1_555
O17 Si3 1.660016 1_555
O18 Si0 1.649382 1_555
O18 Si4 1.660016 1_555
O19 Si0 1.649382 1_555
O19 Si5 1.660016 1_455
