# generated using pymatgen
data_PuNp
_symmetry_space_group_name_H-M   'P 1'
_cell_length_a   5.79824621
_cell_length_b   5.79824621
_cell_length_c   10.03515479
_cell_angle_alpha   90.00000000
_cell_angle_beta   90.00000000
_cell_angle_gamma   97.03050537
_symmetry_Int_Tables_number   1
_chemical_formula_structural   PuNp
_chemical_formula_sum   'Pu8 Np8'
_cell_volume   334.84177701
_cell_formula_units_Z   8
loop_
 _symmetry_equiv_pos_site_id
 _symmetry_equiv_pos_as_xyz
  1  'x, y, z'
loop_
 _atom_site_type_symbol
 _atom_site_label
 _atom_site_symmetry_multiplicity
 _atom_site_fract_x
 _atom_site_fract_y
 _atom_site_fract_z
 _atom_site_occupancy
  Pu  Pu0_0  1  0.25000000  0.25000000  0.25000000  1
  Pu  Pu0_1  1  0.25000000  0.25000000  0.75000000  1
  Pu  Pu0_2  1  0.25000000  0.75000000  0.25000000  1
  Pu  Pu0_3  1  0.25000000  0.75000000  0.75000000  1
  Pu  Pu0_4  1  0.75000000  0.25000000  0.25000000  1
  Pu  Pu0_5  1  0.75000000  0.25000000  0.75000000  1
  Pu  Pu0_6  1  0.75000000  0.75000000  0.25000000  1
  Pu  Pu0_7  1  0.75000000  0.75000000  0.75000000  1
  Np  Np0_0  1  0.00000000  0.00000000  0.00000000  1
  Np  Np0_1  1  0.00000000  1.00000000  0.50000000  1
  Np  Np0_2  1  1.00000000  0.50000000  0.00000000  1
  Np  Np0_3  1  1.00000000  0.50000000  0.50000000  1
  Np  Np0_4  1  0.50000000  0.00000000  0.00000000  1
  Np  Np0_5  1  0.50000000  1.00000000  0.50000000  1
  Np  Np0_6  1  0.50000000  0.50000000  0.00000000  1
  Np  Np0_7  1  0.50000000  0.50000000  0.50000000  1
loop_
_geom_bond_atom_site_label_1
_geom_bond_atom_site_label_2
_geom_bond_distance
_geom_bond_site_symmetry_2
Pu0_0 Pu0_4 2.899123 1_555
Pu0_0 Pu0_4 2.899123 1_455
Pu0_0 Pu0_2 2.899123 1_545
Pu0_0 Pu0_2 2.899123 1_555
Pu0_1 Pu0_5 2.899123 1_555
Pu0_1 Pu0_3 2.899123 1_545
Pu0_1 Pu0_3 2.899123 1_555
Pu0_1 Pu0_5 2.899123 1_455
Pu0_2 Pu0_6 2.899123 1_555
Pu0_2 Pu0_6 2.899123 1_455
Pu0_3 Pu0_7 2.899123 1_555
Pu0_3 Pu0_7 2.899123 1_455
Pu0_4 Pu0_6 2.899123 1_555
Pu0_4 Pu0_6 2.899123 1_545
Pu0_5 Pu0_7 2.899123 1_545
Pu0_5 Pu0_7 2.899123 1_555
Np0_0 Np0_4 2.899123 1_555
Np0_0 Np0_2 2.899123 1_445
Np0_0 Np0_4 2.899123 1_455
Np0_0 Np0_2 2.899123 1_455
Np0_0 Pu0_1 3.159447 1_554
Np0_0 Pu0_7 3.159447 1_444
Np0_0 Pu0_0 3.159447 1_555
Np0_0 Pu0_6 3.159447 1_445
Np0_0 Pu0_5 3.318260 1_454
Np0_0 Pu0_3 3.318260 1_544
Np0_0 Pu0_2 3.318260 1_545
Np0_0 Pu0_4 3.318260 1_455
Np0_1 Np0_3 2.899123 1_455
Np0_1 Np0_5 2.899123 1_555
Np0_1 Np0_5 2.899123 1_455
Np0_1 Np0_3 2.899123 1_465
Np0_1 Pu0_6 3.159447 1_455
Np0_1 Pu0_0 3.159447 1_565
Np0_1 Pu0_1 3.159447 1_565
Np0_1 Pu0_7 3.159447 1_455
Np0_1 Pu0_3 3.318260 1_555
Np0_1 Pu0_2 3.318260 1_555
Np0_1 Pu0_4 3.318260 1_465
Np0_1 Pu0_5 3.318260 1_465
Np0_2 Np0_6 2.899123 1_555
Np0_2 Np0_6 2.899123 1_655
Np0_2 Pu0_4 3.159447 1_555
Np0_2 Pu0_5 3.159447 1_554
Np0_2 Pu0_2 3.159447 1_655
Np0_2 Pu0_3 3.159447 1_654
Np0_2 Pu0_7 3.318260 1_554
Np0_2 Pu0_1 3.318260 1_654
Np0_2 Pu0_0 3.318260 1_655
Np0_2 Pu0_6 3.318260 1_555
Np0_3 Np0_7 2.899123 1_555
Np0_3 Np0_7 2.899123 1_655
Np0_3 Pu0_4 3.159447 1_555
Np0_3 Pu0_2 3.159447 1_655
Np0_3 Pu0_3 3.159447 1_655
Np0_3 Pu0_5 3.159447 1_555
Np0_3 Pu0_6 3.318260 1_555
Np0_3 Pu0_0 3.318260 1_655
Np0_3 Pu0_7 3.318260 1_555
Np0_3 Pu0_1 3.318260 1_655
Np0_4 Np0_6 2.899123 1_545
Np0_4 Np0_6 2.899123 1_555
Np0_4 Pu0_4 3.159447 1_555
Np0_4 Pu0_5 3.159447 1_554
Np0_4 Pu0_3 3.159447 1_544
Np0_4 Pu0_2 3.159447 1_545
Np0_4 Pu0_1 3.318260 1_554
Np0_4 Pu0_7 3.318260 1_544
Np0_4 Pu0_0 3.318260 1_555
Np0_4 Pu0_6 3.318260 1_545
Np0_5 Np0_7 2.899123 1_555
Np0_5 Np0_7 2.899123 1_565
Np0_5 Pu0_3 3.159447 1_555
Np0_5 Pu0_2 3.159447 1_555
Np0_5 Pu0_5 3.159447 1_565
Np0_5 Pu0_4 3.159447 1_565
Np0_5 Pu0_6 3.318260 1_555
Np0_5 Pu0_0 3.318260 1_565
Np0_5 Pu0_7 3.318260 1_555
Np0_5 Pu0_1 3.318260 1_565
Np0_6 Pu0_7 3.159447 1_554
Np0_6 Pu0_1 3.159447 1_554
Np0_6 Pu0_0 3.159447 1_555
Np0_6 Pu0_6 3.159447 1_555
Np0_6 Pu0_4 3.318260 1_555
Np0_6 Pu0_2 3.318260 1_555
Np0_6 Pu0_3 3.318260 1_554
Np0_6 Pu0_5 3.318260 1_554
Np0_7 Pu0_6 3.159447 1_555
Np0_7 Pu0_0 3.159447 1_555
Np0_7 Pu0_1 3.159447 1_555
Np0_7 Pu0_7 3.159447 1_555
Np0_7 Pu0_4 3.318260 1_555
Np0_7 Pu0_5 3.318260 1_555
Np0_7 Pu0_2 3.318260 1_555
Np0_7 Pu0_3 3.318260 1_555
