# generated using pymatgen
data_BW4N9
_symmetry_space_group_name_H-M   'P 1'
_cell_length_a   8.57007000
_cell_length_b   8.57007257
_cell_length_c   4.85355300
_cell_angle_alpha   90.00000000
_cell_angle_beta   90.00000000
_cell_angle_gamma   119.99992722
_symmetry_Int_Tables_number   1
_chemical_formula_structural   BW4N9
_chemical_formula_sum   'B2 W8 N18'
_cell_volume   308.71632470
_cell_formula_units_Z   2
loop_
 _symmetry_equiv_pos_site_id
 _symmetry_equiv_pos_as_xyz
  1  'x, y, z'
loop_
 _atom_site_type_symbol
 _atom_site_label
 _atom_site_symmetry_multiplicity
 _atom_site_fract_x
 _atom_site_fract_y
 _atom_site_fract_z
 _atom_site_occupancy
  B  B0  1  0.00000100  0.00000100  0.48165500  1
  B  B1  1  0.99999900  0.99999900  0.98165500  1
  W  W0  1  0.31820600  0.35356200  0.67172600  1
  W  W1  1  0.03535600  0.68179500  0.67172500  1
  W  W2  1  0.64643800  0.96464400  0.67172700  1
  W  W3  1  0.68179400  0.64643800  0.17172600  1
  W  W4  1  0.96464400  0.31820500  0.17172500  1
  W  W5  1  0.35356200  0.03535600  0.17172700  1
  W  W6  1  0.66666600  0.33333200  0.66728400  1
  W  W7  1  0.33333400  0.66666800  0.16728400  1
  N  N0  1  0.10471700  0.19944500  0.48192800  1
  N  N1  1  0.09472800  0.89528300  0.48192700  1
  N  N2  1  0.80055500  0.90527200  0.48192800  1
  N  N3  1  0.89528300  0.80055500  0.98192800  1
  N  N4  1  0.90527200  0.10471700  0.98192700  1
  N  N5  1  0.19944500  0.09472800  0.98192800  1
  N  N6  1  0.77988200  0.21801700  0.47967000  1
  N  N7  1  0.43813500  0.22011900  0.47967100  1
  N  N8  1  0.78198400  0.56186500  0.47967200  1
  N  N9  1  0.22011800  0.78198300  0.97967000  1
  N  N10  1  0.56186500  0.77988100  0.97967100  1
  N  N11  1  0.21801600  0.43813500  0.97967200  1
  N  N12  1  0.54672100  0.10800100  0.93513000  1
  N  N13  1  0.56127900  0.45327800  0.93512900  1
  N  N14  1  0.89199900  0.43872100  0.93512900  1
  N  N15  1  0.45327900  0.89199900  0.43513000  1
  N  N16  1  0.43872100  0.54672200  0.43512900  1
  N  N17  1  0.10800100  0.56127900  0.43512900  1
loop_
_geom_bond_atom_site_label_1
_geom_bond_atom_site_label_2
_geom_bond_distance
_geom_bond_site_symmetry_2
B0 N0 1.480874 1_555
B0 N1 1.480880 1_545
B0 N2 1.480888 1_445
B1 N3 1.480874 1_555
B1 N4 1.480880 1_565
B1 N5 1.480888 1_665
N0 W0 1.877245 1_555
N0 W4 2.442436 1_455
N1 W1 1.877238 1_555
N1 W5 2.442435 1_565
N2 W2 1.877246 1_555
N2 W3 2.442441 1_555
N3 W3 1.877245 1_556
N3 W1 2.442436 1_655
N4 W4 1.877238 1_556
N4 W2 2.442435 1_545
N5 W5 1.877246 1_556
N5 W0 2.442441 1_555
N6 W6 1.925132 1_555
N6 W4 2.029486 1_555
N6 W2 2.099665 1_545
N7 W6 1.925131 1_555
N7 W5 2.029488 1_555
N7 W0 2.099652 1_555
N8 W6 1.925142 1_555
N8 W3 2.029494 1_555
N8 W1 2.099649 1_655
N9 W7 1.925132 1_556
N9 W1 2.029486 1_555
N9 W5 2.099665 1_566
N10 W7 1.925131 1_556
N10 W2 2.029488 1_555
N10 W3 2.099652 1_556
N11 W7 1.925142 1_556
N11 W0 2.029494 1_555
N11 W4 2.099649 1_456
N12 W5 1.848237 1_556
N12 W6 2.119146 1_555
N12 W2 2.219020 1_545
N13 W3 1.848244 1_556
N13 W6 2.119153 1_555
N13 W0 2.219015 1_555
N14 W4 1.848246 1_556
N14 W6 2.119153 1_555
N14 W1 2.219024 1_655
N15 W2 1.848237 1_555
N15 W7 2.119146 1_555
N15 W5 2.219020 1_565
N16 W0 1.848244 1_555
N16 W7 2.119153 1_555
N16 W3 2.219015 1_555
N17 W1 1.848246 1_555
N17 W7 2.119153 1_555
N17 W4 2.219024 1_455
