# generated using pymatgen
data_BaPm3
_symmetry_space_group_name_H-M   'P 1'
_cell_length_a   6.48574418
_cell_length_b   6.48574418
_cell_length_c   6.48574418
_cell_angle_alpha   130.62718503
_cell_angle_beta   130.62718503
_cell_angle_gamma   72.40607711
_symmetry_Int_Tables_number   1
_chemical_formula_structural   BaPm3
_chemical_formula_sum   'Ba1 Pm3'
_cell_volume   153.60413724
_cell_formula_units_Z   1
loop_
 _symmetry_equiv_pos_site_id
 _symmetry_equiv_pos_as_xyz
  1  'x, y, z'
loop_
 _atom_site_type_symbol
 _atom_site_label
 _atom_site_symmetry_multiplicity
 _atom_site_fract_x
 _atom_site_fract_y
 _atom_site_fract_z
 _atom_site_occupancy
  Ba  Ba0  1  0.00000000  0.00000000  0.00000000  1
  Pm  Pm0  1  0.75000000  0.25000000  0.50000000  1
  Pm  Pm1  1  0.25000000  0.75000000  0.50000000  1
  Pm  Pm2  1  0.50000000  0.50000000  0.00000000  1
loop_
_geom_bond_atom_site_label_1
_geom_bond_atom_site_label_2
_geom_bond_distance
_geom_bond_site_symmetry_2
Ba0 Pm0 3.766293 1_455
Ba0 Pm1 3.766293 1_555
Ba0 Pm0 3.766293 1_444
Ba0 Pm0 3.766293 1_454
Ba0 Pm0 3.766293 1_555
Ba0 Pm1 3.766293 1_544
Ba0 Pm1 3.766293 1_545
Ba0 Pm1 3.766293 1_444
Ba0 Pm2 3.830795 1_556
Ba0 Pm2 3.830795 1_444
Ba0 Pm2 3.830795 1_455
Ba0 Pm2 3.830795 1_545
Pm0 Pm2 3.766293 1_555
Pm0 Pm2 3.766293 1_545
Pm0 Pm2 3.766293 1_556
Pm0 Pm2 3.766293 1_656
Pm0 Pm1 3.830795 1_645
Pm0 Pm1 3.830795 1_544
Pm0 Pm1 3.830795 1_555
Pm0 Pm1 3.830795 1_656
Pm1 Pm2 3.766293 1_555
Pm1 Pm2 3.766293 1_566
Pm1 Pm2 3.766293 1_455
Pm1 Pm2 3.766293 1_556
