# generated using pymatgen
data_Zr5V5Si6
_symmetry_space_group_name_H-M   'P 1'
_cell_length_a   5.13044192
_cell_length_b   7.72536795
_cell_length_c   7.56236512
_cell_angle_alpha   120.71561376
_cell_angle_beta   89.92819060
_cell_angle_gamma   90.14059119
_symmetry_Int_Tables_number   1
_chemical_formula_structural   Zr5V5Si6
_chemical_formula_sum   'Zr5 V5 Si6'
_cell_volume   257.68185204
_cell_formula_units_Z   1
loop_
 _symmetry_equiv_pos_site_id
 _symmetry_equiv_pos_as_xyz
  1  'x, y, z'
loop_
 _atom_site_type_symbol
 _atom_site_label
 _atom_site_symmetry_multiplicity
 _atom_site_fract_x
 _atom_site_fract_y
 _atom_site_fract_z
 _atom_site_occupancy
  Zr  Zr0  1  0.75062500  0.75371700  0.75506500  1
  Zr  Zr1  1  0.75062500  0.99865200  0.24493500  1
  Zr  Zr2  1  0.25021300  0.74153100  0.00000000  1
  Zr  Zr3  1  0.24960000  0.24135900  0.23950500  1
  Zr  Zr4  1  0.24960000  0.00185400  0.76049500  1
  V  V0  1  0.50044000  0.33291000  0.66502100  1
  V  V1  1  0.50044000  0.66788900  0.33497900  1
  V  V2  1  0.99930500  0.66763400  0.33505400  1
  V  V3  1  0.99930500  0.33258100  0.66494600  1
  V  V4  1  0.75025700  0.26705500  0.00000000  1
  Si  Si0  1  0.75014500  0.58805500  0.00000000  1
  Si  Si1  1  0.75040900  0.39893600  0.38986300  1
  Si  Si2  1  0.75040900  0.00907300  0.61013700  1
  Si  Si3  1  0.24975300  0.40083800  0.00000000  1
  Si  Si4  1  0.24943800  0.59662100  0.59532700  1
  Si  Si5  1  0.24943800  0.00129400  0.40467300  1
loop_
_geom_bond_atom_site_label_1
_geom_bond_atom_site_label_2
_geom_bond_distance
_geom_bond_site_symmetry_2
Si0 V4 2.479845 1_555
Si0 V0 2.615064 1_554
Si0 V1 2.615064 1_555
Si0 V3 2.616315 1_554
Si0 V2 2.616317 1_555
Si0 Zr0 2.736876 1_554
Si0 Zr1 2.736876 1_555
Si0 Zr2 2.823651 1_655
Si0 Zr2 2.828300 1_555
Si1 V4 2.581058 1_555
Si1 V2 2.641192 1_555
Si1 V1 2.651305 1_555
Si1 Zr1 2.702138 1_545
Si1 V0 2.703542 1_555
Si1 V3 2.705581 1_555
Si1 Zr0 2.721549 1_555
Si1 Zr3 2.815650 1_655
Si1 Zr3 2.820362 1_555
Si2 V4 2.581058 1_556
Si2 V3 2.641199 1_555
Si2 V0 2.651305 1_555
Si2 Zr0 2.702138 1_545
Si2 V1 2.703542 1_545
Si2 V2 2.705585 1_545
Si2 Zr1 2.721549 1_545
Si2 Zr4 2.815650 1_655
Si2 Zr4 2.820362 1_555
Si3 Zr2 2.631974 1_555
Si3 V1 2.642712 1_555
Si3 V0 2.642712 1_554
Si3 V2 2.643694 1_455
Si3 V3 2.643696 1_454
Si3 Zr3 2.660455 1_555
Si3 Zr4 2.660455 1_554
Si3 V4 2.760846 1_455
Si3 V4 2.770347 1_555
Si4 V2 2.633399 1_455
Si4 V1 2.633498 1_555
Si4 Zr2 2.668113 1_556
Si4 V3 2.677194 1_455
Si4 V0 2.682908 1_555
Si4 Zr3 2.688650 1_555
Si4 Zr4 2.714052 1_565
Si4 Zr0 2.826859 1_455
Si4 Zr0 2.835242 1_555
Si5 V3 2.633404 1_455
Si5 V0 2.633498 1_555
Si5 Zr2 2.668114 1_545
Si5 V2 2.677201 1_445
Si5 V1 2.682908 1_545
Si5 Zr4 2.688650 1_555
Si5 Zr3 2.714052 1_555
Si5 Zr1 2.826859 1_445
Si5 Zr1 2.835242 1_545
