# generated using pymatgen
data_PrInCu
_symmetry_space_group_name_H-M   'P 1'
_cell_length_a   7.64597066
_cell_length_b   7.64597270
_cell_length_c   4.07112958
_cell_angle_alpha   90.00000000
_cell_angle_beta   90.00000000
_cell_angle_gamma   120.00002450
_symmetry_Int_Tables_number   1
_chemical_formula_structural   PrInCu
_chemical_formula_sum   'Pr3 In3 Cu3'
_cell_volume   206.11557992
_cell_formula_units_Z   3
loop_
 _symmetry_equiv_pos_site_id
 _symmetry_equiv_pos_as_xyz
  1  'x, y, z'
loop_
 _atom_site_type_symbol
 _atom_site_label
 _atom_site_symmetry_multiplicity
 _atom_site_fract_x
 _atom_site_fract_y
 _atom_site_fract_z
 _atom_site_occupancy
  Pr  Pr0  1  0.41558451  0.41558451  0.50000000  1
  Pr  Pr1  1  0.58441549  0.00000000  0.50000000  1
  Pr  Pr2  1  0.00000000  0.58441549  0.50000000  1
  In  In0  1  0.75525379  0.75525379  -0.00000000  1
  In  In1  1  0.24474621  -0.00000000  -0.00000000  1
  In  In2  1  -0.00000000  0.24474621  0.00000000  1
  Cu  Cu0  1  0.66666700  0.33333300  -0.00000000  1
  Cu  Cu1  1  0.33333300  0.66666700  0.00000000  1
  Cu  Cu2  1  0.00000000  -0.00000000  0.50000000  1
loop_
_geom_bond_atom_site_label_1
_geom_bond_atom_site_label_2
_geom_bond_distance
_geom_bond_site_symmetry_2
In0 Pr0 3.299766 1_554
In0 Pr0 3.299766 1_555
In0 Pr2 3.434525 1_654
In0 Pr2 3.434525 1_655
In0 Pr1 3.434526 1_565
In0 Pr1 3.434526 1_564
In1 Pr1 3.299767 1_555
In1 Pr1 3.299767 1_554
In1 Pr2 3.434525 1_545
In1 Pr2 3.434525 1_544
In1 Pr0 3.434525 1_555
In1 Pr0 3.434525 1_554
In2 Pr2 3.299767 1_554
In2 Pr2 3.299767 1_555
In2 Pr1 3.434524 1_455
In2 Pr1 3.434524 1_454
In2 Pr0 3.434524 1_555
In2 Pr0 3.434524 1_554
Cu0 In2 2.946304 1_655
Cu0 In1 2.946307 1_555
Cu0 In0 2.946311 1_555
Cu0 Pr1 3.071130 1_555
Cu0 Pr1 3.071130 1_554
Cu0 Pr2 3.071131 1_655
Cu0 Pr2 3.071131 1_654
Cu0 Pr0 3.071136 1_554
Cu0 Pr0 3.071136 1_555
Cu1 In1 2.946304 1_565
Cu1 In2 2.946308 1_555
Cu1 In0 2.946310 1_555
Cu1 Pr2 3.071130 1_555
Cu1 Pr2 3.071130 1_554
Cu1 Pr1 3.071131 1_565
Cu1 Pr1 3.071131 1_564
Cu1 Pr0 3.071136 1_554
Cu1 Pr0 3.071136 1_555
Cu2 In0 2.765026 1_445
Cu2 In0 2.765026 1_446
Cu2 In1 2.765026 1_555
Cu2 In1 2.765026 1_556
Cu2 In2 2.765027 1_556
Cu2 In2 2.765027 1_555
Cu2 Pr0 3.177546 1_555
Cu2 Pr1 3.177547 1_455
Cu2 Pr2 3.177548 1_545
