# generated using pymatgen
data_Li2Al
_symmetry_space_group_name_H-M   'P 1'
_cell_length_a   6.81569761
_cell_length_b   6.81569761
_cell_length_c   6.81569761
_cell_angle_alpha   60.00000000
_cell_angle_beta   60.00000000
_cell_angle_gamma   60.00000000
_symmetry_Int_Tables_number   1
_chemical_formula_structural   Li2Al
_chemical_formula_sum   'Li8 Al4'
_cell_volume   223.88033314
_cell_formula_units_Z   4
loop_
 _symmetry_equiv_pos_site_id
 _symmetry_equiv_pos_as_xyz
  1  'x, y, z'
loop_
 _atom_site_type_symbol
 _atom_site_label
 _atom_site_symmetry_multiplicity
 _atom_site_fract_x
 _atom_site_fract_y
 _atom_site_fract_z
 _atom_site_occupancy
  Li  Li0  1  0.60344700  0.60344700  0.60344700  1
  Li  Li1  1  0.18965800  0.60344700  0.60344700  1
  Li  Li2  1  0.60344700  0.18965800  0.60344700  1
  Li  Li3  1  0.56034200  0.14655300  0.14655300  1
  Li  Li4  1  0.14655300  0.14655300  0.14655300  1
  Li  Li5  1  0.60344700  0.60344700  0.18965800  1
  Li  Li6  1  0.14655300  0.56034200  0.14655300  1
  Li  Li7  1  0.14655300  0.14655300  0.56034200  1
  Al  Al0  1  0.87500000  0.87500000  0.87500000  1
  Al  Al1  1  0.37500000  0.87500000  0.87500000  1
  Al  Al2  1  0.87500000  0.37500000  0.87500000  1
  Al  Al3  1  0.87500000  0.87500000  0.37500000  1
loop_
_geom_bond_atom_site_label_1
_geom_bond_atom_site_label_2
_geom_bond_distance
_geom_bond_site_symmetry_2
Al0 Li3 2.633895 1_566
Al0 Li6 2.633895 1_656
Al0 Li7 2.633895 1_665
Al0 Li1 2.633895 1_655
Al0 Li5 2.633895 1_556
Al0 Li2 2.633895 1_565
Al1 Li7 2.633891 1_565
Al1 Li5 2.633891 1_556
Al1 Li2 2.633891 1_565
Al1 Li6 2.633891 1_556
Al1 Li4 2.633896 1_566
Al1 Li0 2.633896 1_555
Al2 Li3 2.633891 1_556
Al2 Li5 2.633891 1_556
Al2 Li7 2.633891 1_655
Al2 Li1 2.633891 1_655
Al2 Li4 2.633896 1_656
Al2 Li0 2.633896 1_555
Al3 Li3 2.633891 1_565
Al3 Li6 2.633891 1_655
Al3 Li1 2.633891 1_655
Al3 Li2 2.633891 1_565
Al3 Li4 2.633896 1_665
Al3 Li0 2.633896 1_555
