# generated using pymatgen
data_BaTi2Fe4O11
_symmetry_space_group_name_H-M   'P 1'
_cell_length_a   5.93164051
_cell_length_b   5.93164051
_cell_length_c   13.61170017
_cell_angle_alpha   89.90341582
_cell_angle_beta   89.90341582
_cell_angle_gamma   119.91800939
_symmetry_Int_Tables_number   1
_chemical_formula_structural   BaTi2Fe4O11
_chemical_formula_sum   'Ba2 Ti4 Fe8 O22'
_cell_volume   415.09586458
_cell_formula_units_Z   2
loop_
 _symmetry_equiv_pos_site_id
 _symmetry_equiv_pos_as_xyz
  1  'x, y, z'
loop_
 _atom_site_type_symbol
 _atom_site_label
 _atom_site_symmetry_multiplicity
 _atom_site_fract_x
 _atom_site_fract_y
 _atom_site_fract_z
 _atom_site_occupancy
  Ba  Ba0  1  0.66687200  0.33312800  0.75000000  1
  Ba  Ba1  1  0.33312800  0.66687200  0.25000000  1
  Ti  Ti0  1  0.50000000  0.50000000  0.00000000  1
  Ti  Ti1  1  0.00000000  0.50000000  0.00000000  1
  Ti  Ti2  1  0.50000000  0.50000000  0.50000000  1
  Ti  Ti3  1  0.50000000  0.00000000  0.50000000  1
  Fe  Fe0  1  0.66646800  0.33353200  0.25000000  1
  Fe  Fe1  1  0.33353200  0.66646800  0.75000000  1
  Fe  Fe2  1  0.00167100  0.00332200  0.85397700  1
  Fe  Fe3  1  0.99832900  0.99667800  0.14602300  1
  Fe  Fe4  1  0.00332200  0.00167100  0.35397700  1
  Fe  Fe5  1  0.99667800  0.99832900  0.64602300  1
  Fe  Fe6  1  0.50000000  0.00000000  0.00000000  1
  Fe  Fe7  1  0.00000000  0.50000000  0.50000000  1
  O  O0  1  0.65645700  0.32809600  0.41920400  1
  O  O1  1  0.34354300  0.67190400  0.58079600  1
  O  O2  1  0.32809600  0.65645700  0.91920400  1
  O  O3  1  0.67190400  0.34354300  0.08079600  1
  O  O4  1  0.15005900  0.84994100  0.75000000  1
  O  O5  1  0.70041500  0.85003200  0.75148300  1
  O  O6  1  0.14996800  0.29958500  0.74851700  1
  O  O7  1  0.84994100  0.15005900  0.25000000  1
  O  O8  1  0.29958500  0.14996800  0.24851700  1
  O  O9  1  0.85003200  0.70041500  0.25148300  1
  O  O10  1  0.83330300  0.18259900  0.92221500  1
  O  O11  1  0.34920200  0.18244500  0.92220300  1
  O  O12  1  0.82546300  0.65081700  0.92241000  1
  O  O13  1  0.16669700  0.81740100  0.07778500  1
  O  O14  1  0.65079800  0.81755500  0.07779700  1
  O  O15  1  0.17453700  0.34918300  0.07759000  1
  O  O16  1  0.18259900  0.83330300  0.42221500  1
  O  O17  1  0.65081700  0.82546300  0.42241000  1
  O  O18  1  0.18244500  0.34920200  0.42220300  1
  O  O19  1  0.81740100  0.16669700  0.57778500  1
  O  O20  1  0.34918300  0.17453700  0.57759000  1
  O  O21  1  0.81755500  0.65079800  0.57779700  1
loop_
_geom_bond_atom_site_label_1
_geom_bond_atom_site_label_2
_geom_bond_distance
_geom_bond_site_symmetry_2
Ba0 O21 2.853372 1_555
Ba0 O11 2.853372 1_555
Ba0 O19 2.854266 1_555
Ba0 O10 2.854266 1_555
Ba0 O12 2.863121 1_555
Ba0 O20 2.863121 1_555
Ba0 O6 2.969837 1_655
Ba0 O5 2.969837 1_545
Ba0 O6 2.971967 1_555
Ba0 O5 2.971967 1_555
Ba0 O4 2.974511 1_655
Ba0 O4 2.974511 1_545
Ba1 O18 2.853372 1_555
Ba1 O14 2.853372 1_555
Ba1 O16 2.854266 1_555
Ba1 O13 2.854266 1_555
Ba1 O17 2.863121 1_555
Ba1 O15 2.863121 1_555
Ba1 O8 2.969837 1_565
Ba1 O9 2.969837 1_455
Ba1 O8 2.971967 1_555
Ba1 O9 2.971967 1_555
Ba1 O7 2.974511 1_565
Ba1 O7 2.974511 1_455
Fe0 O7 1.884205 1_555
Fe0 O8 1.886385 1_555
Fe0 O9 1.886385 1_555
Fe0 O0 2.303576 1_555
Fe0 O3 2.303576 1_555
Fe1 O4 1.884205 1_555
Fe1 O6 1.886385 1_555
Fe1 O5 1.886385 1_555
Fe1 O2 2.303576 1_555
Fe1 O1 2.303576 1_555
Fe2 O10 2.012600 1_455
Fe2 O11 2.016375 1_555
Fe2 O12 2.035250 1_445
Fe2 O5 2.087627 1_445
Fe2 O6 2.089940 1_555
Fe2 O4 2.098689 1_545
Fe3 O13 2.012600 1_655
Fe3 O14 2.016375 1_555
Fe3 O15 2.035250 1_665
Fe3 O8 2.087627 1_665
Fe3 O9 2.089940 1_555
Fe3 O7 2.098689 1_565
Fe4 O16 2.012600 1_545
Fe4 O18 2.016375 1_555
Fe4 O17 2.035250 1_445
Fe4 O9 2.087627 1_445
Fe4 O8 2.089940 1_555
Fe4 O7 2.098689 1_455
Fe5 O19 2.012600 1_565
Fe5 O21 2.016375 1_555
Fe5 O20 2.035250 1_665
Fe5 O6 2.087627 1_665
Fe5 O5 2.089940 1_555
Fe5 O4 2.098689 1_655
Fe6 O13 2.013916 1_545
Fe6 O10 2.013916 1_554
Fe6 O14 2.014337 1_545
Fe6 O11 2.014337 1_554
Fe6 O3 2.083357 1_555
Fe6 O2 2.083357 1_544
Fe7 O16 2.013916 1_555
Fe7 O19 2.013916 1_455
Fe7 O18 2.014337 1_555
Fe7 O21 2.014337 1_455
Fe7 O1 2.083357 1_555
Fe7 O0 2.083357 1_455
O0 Ti3 2.011458 1_555
O0 Ti2 2.013652 1_555
O1 Ti3 2.011458 1_565
O1 Ti2 2.013652 1_555
O2 Ti1 2.011458 1_556
O2 Ti0 2.013652 1_556
O3 Ti1 2.011458 1_655
O3 Ti0 2.013652 1_555
O10 Ti1 1.948483 1_656
O11 Ti0 1.949034 1_556
O12 Ti0 1.977332 1_556
O12 Ti1 1.977853 1_656
O13 Ti1 1.948483 1_555
O14 Ti0 1.949034 1_555
O15 Ti0 1.977332 1_555
O15 Ti1 1.977853 1_555
O16 Ti3 1.948483 1_565
O17 Ti2 1.977332 1_555
O17 Ti3 1.977853 1_565
O18 Ti2 1.949034 1_555
O19 Ti3 1.948483 1_555
O20 Ti2 1.977332 1_555
O20 Ti3 1.977853 1_555
O21 Ti2 1.949034 1_555
