# generated using pymatgen
data_Mg3Si4
_symmetry_space_group_name_H-M   'P 1'
_cell_length_a   5.34119100
_cell_length_b   6.42744872
_cell_length_c   8.31534687
_cell_angle_alpha   99.27083246
_cell_angle_beta   92.64572426
_cell_angle_gamma   100.60259489
_symmetry_Int_Tables_number   1
_chemical_formula_structural   Mg3Si4
_chemical_formula_sum   'Mg6 Si8'
_cell_volume   276.08210751
_cell_formula_units_Z   2
loop_
 _symmetry_equiv_pos_site_id
 _symmetry_equiv_pos_as_xyz
  1  'x, y, z'
loop_
 _atom_site_type_symbol
 _atom_site_label
 _atom_site_symmetry_multiplicity
 _atom_site_fract_x
 _atom_site_fract_y
 _atom_site_fract_z
 _atom_site_occupancy
  Mg  Mg0  1  0.11303500  0.85805300  0.47028900  1
  Mg  Mg1  1  0.40530000  0.58213600  0.78048900  1
  Mg  Mg2  1  0.90835200  0.31807000  0.81241400  1
  Mg  Mg3  1  0.47989800  0.28025400  0.06359500  1
  Mg  Mg4  1  0.55681700  0.56199600  0.40803900  1
  Mg  Mg5  1  0.64759000  0.09049200  0.40013100  1
  Si  Si0  1  0.01680000  0.44938200  0.51046600  1
  Si  Si1  1  0.41824300  0.14033400  0.73318400  1
  Si  Si2  1  0.53848900  0.73373800  0.12519400  1
  Si  Si3  1  0.09556200  0.69512000  0.03989300  1
  Si  Si4  1  0.07526300  0.92218200  0.83765800  1
  Si  Si5  1  0.88000600  0.03604800  0.08578000  1
  Si  Si6  1  0.69403400  0.88596300  0.66331200  1
  Si  Si7  1  0.17714700  0.19285400  0.31628600  1
loop_
_geom_bond_atom_site_label_1
_geom_bond_atom_site_label_2
_geom_bond_distance
_geom_bond_site_symmetry_2
Mg0 Si7 2.654266 1_565
Mg0 Si0 2.660299 1_555
Mg0 Si6 2.829036 1_455
Mg0 Si1 2.834226 1_565
Mg0 Si4 3.037137 1_555
Mg1 Si6 2.604770 1_555
Mg1 Si1 2.817450 1_555
Mg1 Si3 2.860760 1_556
Mg1 Si2 2.885866 1_556
Mg1 Si0 2.894209 1_555
Mg1 Si4 3.044796 1_555
Mg2 Si1 2.662630 1_555
Mg2 Si3 2.812061 1_656
Mg2 Si0 2.826506 1_655
Mg2 Si6 2.854952 1_545
Mg2 Si4 2.881524 1_645
Mg2 Si5 3.119981 1_556
Mg2 Si1 3.197529 1_655
Mg3 Si1 2.734457 1_554
Mg3 Si7 2.775833 1_555
Mg3 Si2 2.832761 1_555
Mg3 Si5 2.890678 1_555
Mg3 Si4 3.146270 1_544
Mg4 Si6 2.692483 1_555
Mg4 Si2 2.759494 1_555
Mg4 Si7 2.797713 1_555
Mg4 Si0 2.818748 1_655
Mg4 Si0 3.037413 1_555
Mg5 Si0 2.743865 1_655
Mg5 Si6 2.752421 1_545
Mg5 Si7 2.797708 1_555
Mg5 Si2 2.918975 1_545
Mg5 Si7 2.926469 1_655
Mg5 Si5 2.942932 1_555
Mg5 Si1 3.073244 1_555
Si0 Si7 2.418428 1_555
Si1 Si4 2.381356 1_545
Si1 Si6 2.416557 1_545
Si2 Si3 2.394536 1_555
Si2 Si5 2.483229 1_565
Si3 Si4 2.408695 1_554
Si3 Si5 2.640547 1_465
Si4 Si6 2.397172 1_455
Si4 Si5 2.423460 1_466
Si5 Si7 2.390944 1_655
