# generated using pymatgen
data_Sr4VN4
_symmetry_space_group_name_H-M   'P 1'
_cell_length_a   6.15021583
_cell_length_b   6.40283834
_cell_length_c   9.41086063
_cell_angle_alpha   78.29641296
_cell_angle_beta   77.96278050
_cell_angle_gamma   75.99387224
_symmetry_Int_Tables_number   1
_chemical_formula_structural   Sr4VN4
_chemical_formula_sum   'Sr8 V2 N8'
_cell_volume   347.10166499
_cell_formula_units_Z   2
loop_
 _symmetry_equiv_pos_site_id
 _symmetry_equiv_pos_as_xyz
  1  'x, y, z'
loop_
 _atom_site_type_symbol
 _atom_site_label
 _atom_site_symmetry_multiplicity
 _atom_site_fract_x
 _atom_site_fract_y
 _atom_site_fract_z
 _atom_site_occupancy
  Sr  Sr0  1  0.76123400  0.58517900  0.13069700  1
  Sr  Sr1  1  0.23876600  0.41482100  0.86930300  1
  Sr  Sr2  1  0.71138700  0.16003400  0.99127900  1
  Sr  Sr3  1  0.28861300  0.83996600  0.00872100  1
  Sr  Sr4  1  0.76642600  0.40286000  0.61443700  1
  Sr  Sr5  1  0.23357400  0.59714000  0.38556300  1
  Sr  Sr6  1  0.24330200  0.94596200  0.62466800  1
  Sr  Sr7  1  0.75669800  0.05403800  0.37533200  1
  V  V0  1  0.75672100  0.80846900  0.76970600  1
  V  V1  1  0.24327900  0.19153100  0.23029400  1
  N  N0  1  0.90512100  0.76739400  0.58341300  1
  N  N1  1  0.09487900  0.23260600  0.41658700  1
  N  N2  1  0.97065200  0.81347800  0.88306900  1
  N  N3  1  0.02934800  0.18652200  0.11693100  1
  N  N4  1  0.62789000  0.57415200  0.84722500  1
  N  N5  1  0.37211000  0.42584800  0.15277500  1
  N  N6  1  0.46871900  0.93843200  0.21854900  1
  N  N7  1  0.53128100  0.06156800  0.78145100  1
loop_
_geom_bond_atom_site_label_1
_geom_bond_atom_site_label_2
_geom_bond_distance
_geom_bond_site_symmetry_2
N0 V0 1.838281 1_555
N0 Sr7 2.552036 1_565
N0 Sr4 2.616112 1_555
N0 Sr5 2.631450 1_655
N0 Sr6 2.729811 1_655
N1 V1 1.838281 1_555
N1 Sr6 2.552036 1_545
N1 Sr5 2.616112 1_555
N1 Sr4 2.631450 1_455
N1 Sr7 2.729811 1_455
N2 V0 1.868175 1_555
N2 Sr3 2.541168 1_656
N2 Sr2 2.651430 1_565
N2 Sr1 2.694246 1_655
N2 Sr0 2.739300 1_556
N2 Sr6 2.756048 1_655
N3 V1 1.868175 1_555
N3 Sr2 2.541168 1_454
N3 Sr3 2.651430 1_545
N3 Sr0 2.694246 1_455
N3 Sr1 2.739300 1_554
N3 Sr7 2.756048 1_455
N4 V0 1.816912 1_555
N4 Sr4 2.544022 1_555
N4 Sr2 2.702798 1_555
N4 Sr3 2.751031 1_556
N4 Sr1 2.774836 1_555
N4 Sr0 2.968366 1_556
N5 V1 1.816912 1_555
N5 Sr5 2.544022 1_555
N5 Sr3 2.702798 1_555
N5 Sr2 2.751031 1_554
N5 Sr0 2.774836 1_555
N5 Sr1 2.968366 1_554
N6 V1 1.865994 1_565
N6 Sr0 2.684123 1_555
N6 Sr2 2.697707 1_564
N6 Sr3 2.697996 1_555
N6 Sr7 2.833629 1_565
N6 Sr5 2.919821 1_555
N7 V0 1.865994 1_545
N7 Sr1 2.684123 1_555
N7 Sr3 2.697707 1_546
N7 Sr2 2.697996 1_555
N7 Sr6 2.833629 1_545
N7 Sr4 2.919821 1_555
