# generated using pymatgen
data_LiCu2C2O7
_symmetry_space_group_name_H-M   'P 1'
_cell_length_a   5.67575500
_cell_length_b   9.95993300
_cell_length_c   10.09609467
_cell_angle_alpha   68.70512748
_cell_angle_beta   90.00000000
_cell_angle_gamma   90.00000000
_symmetry_Int_Tables_number   1
_chemical_formula_structural   LiCu2C2O7
_chemical_formula_sum   'Li4 Cu8 C8 O28'
_cell_volume   531.76607710
_cell_formula_units_Z   4
loop_
 _symmetry_equiv_pos_site_id
 _symmetry_equiv_pos_as_xyz
  1  'x, y, z'
loop_
 _atom_site_type_symbol
 _atom_site_label
 _atom_site_symmetry_multiplicity
 _atom_site_fract_x
 _atom_site_fract_y
 _atom_site_fract_z
 _atom_site_occupancy
  Li  Li0  1  0.43383300  0.25089700  0.48379300  1
  Li  Li1  1  0.93383300  0.24910300  0.51620700  1
  Li  Li2  1  0.06616700  0.75089700  0.48379300  1
  Li  Li3  1  0.56616700  0.74910300  0.51620700  1
  Cu  Cu0  1  0.36620500  0.21389800  0.02698400  1
  Cu  Cu1  1  0.13379500  0.71389800  0.02698400  1
  Cu  Cu2  1  0.66168300  0.46869100  0.12079200  1
  Cu  Cu3  1  0.83831700  0.96869100  0.12079200  1
  Cu  Cu4  1  0.16168300  0.03130900  0.87920800  1
  Cu  Cu5  1  0.33831700  0.53130900  0.87920800  1
  Cu  Cu6  1  0.86620500  0.28610200  0.97301600  1
  Cu  Cu7  1  0.63379500  0.78610200  0.97301600  1
  C  C0  1  0.12668100  0.31439800  0.21930300  1
  C  C1  1  0.75216200  0.04597000  0.35925200  1
  C  C2  1  0.37331900  0.81439800  0.21930300  1
  C  C3  1  0.74783800  0.54597000  0.35925200  1
  C  C4  1  0.25216200  0.45403000  0.64074800  1
  C  C5  1  0.62668100  0.18560200  0.78069700  1
  C  C6  1  0.24783800  0.95403000  0.64074800  1
  C  C7  1  0.87331900  0.68560200  0.78069700  1
  O  O0  1  0.07482300  0.11446000  0.01815700  1
  O  O1  1  0.42517700  0.61446000  0.01815700  1
  O  O2  1  0.74026700  0.08511400  0.21770400  1
  O  O3  1  0.95530500  0.36024500  0.12146300  1
  O  O4  1  0.28915300  0.23277600  0.19874700  1
  O  O5  1  0.75973300  0.58511400  0.21770400  1
  O  O6  1  0.54469500  0.86024500  0.12146300  1
  O  O7  1  0.13533700  0.35046900  0.32489500  1
  O  O8  1  0.70374700  0.14586500  0.40436900  1
  O  O9  1  0.21084700  0.73277600  0.19874700  1
  O  O10  1  0.18879400  0.08156400  0.56552900  1
  O  O11  1  0.68879400  0.41843600  0.43447100  1
  O  O12  1  0.36466300  0.85046900  0.32489500  1
  O  O13  1  0.79625300  0.64586500  0.40436900  1
  O  O14  1  0.20374700  0.35413500  0.59563100  1
  O  O15  1  0.63533700  0.14953100  0.67510500  1
  O  O16  1  0.31120600  0.58156400  0.56552900  1
  O  O17  1  0.81120600  0.91843600  0.43447100  1
  O  O18  1  0.78915300  0.26722400  0.80125300  1
  O  O19  1  0.29625300  0.85413500  0.59563100  1
  O  O20  1  0.86466300  0.64953100  0.67510500  1
  O  O21  1  0.45530500  0.13975500  0.87853700  1
  O  O22  1  0.24026700  0.41488600  0.78229600  1
  O  O23  1  0.71084700  0.76722400  0.80125300  1
  O  O24  1  0.04469500  0.63975500  0.87853700  1
  O  O25  1  0.25973300  0.91488600  0.78229600  1
  O  O26  1  0.57482300  0.38554000  0.98184300  1
  O  O27  1  0.92517700  0.88554000  0.98184300  1
loop_
_geom_bond_atom_site_label_1
_geom_bond_atom_site_label_2
_geom_bond_distance
_geom_bond_site_symmetry_2
Li0 O10 2.109218 1_555
Li0 O11 2.126734 1_555
Li0 O15 2.154445 1_555
Li0 O8 2.166461 1_555
Li0 O14 2.209277 1_555
Li0 O7 2.296048 1_555
Li1 O11 2.109218 1_555
Li1 O10 2.126734 1_655
Li1 O7 2.154445 1_655
Li1 O14 2.166461 1_655
Li1 O8 2.209277 1_555
Li1 O15 2.296048 1_555
Li2 O16 2.109218 1_555
Li2 O17 2.126734 1_455
Li2 O20 2.154445 1_455
Li2 O13 2.166461 1_455
Li2 O19 2.209277 1_555
Li2 O12 2.296048 1_555
Li3 O17 2.109218 1_555
Li3 O16 2.126734 1_555
Li3 O12 2.154445 1_555
Li3 O19 2.166461 1_555
Li3 O13 2.209277 1_555
Li3 O20 2.296048 1_555
Cu0 O4 1.862971 1_555
Cu0 O0 1.946286 1_555
Cu0 O21 1.962434 1_554
Cu0 O26 1.991569 1_554
Cu1 O9 1.862971 1_555
Cu1 O1 1.946286 1_555
Cu1 O24 1.962434 1_554
Cu1 O27 1.991569 1_454
Cu2 O5 1.853562 1_555
Cu2 O26 1.934102 1_554
Cu2 O1 1.972509 1_555
Cu2 O3 1.984613 1_555
Cu3 O2 1.853562 1_565
Cu3 O27 1.934102 1_554
Cu3 O0 1.972509 1_665
Cu3 O6 1.984613 1_555
Cu4 O25 1.853562 1_545
Cu4 O0 1.934102 1_556
Cu4 O27 1.972509 1_445
Cu4 O21 1.984613 1_555
Cu5 O22 1.853562 1_555
Cu5 O1 1.934102 1_556
Cu5 O26 1.972509 1_555
Cu5 O24 1.984613 1_555
Cu6 O18 1.862971 1_555
Cu6 O26 1.946286 1_555
Cu6 O3 1.962434 1_556
Cu6 O0 1.991569 1_656
Cu7 O23 1.862971 1_555
Cu7 O27 1.946286 1_555
Cu7 O6 1.962434 1_556
Cu7 O1 1.991569 1_556
C0 O7 1.243451 1_555
C0 O4 1.294938 1_555
C0 O3 1.342671 1_455
C1 O17 1.265644 1_545
C1 O8 1.265739 1_555
C1 O2 1.339459 1_555
C2 O12 1.243451 1_555
C2 O9 1.294938 1_555
C2 O6 1.342671 1_555
C3 O11 1.265644 1_555
C3 O13 1.265739 1_555
C3 O5 1.339459 1_555
C4 O16 1.265644 1_555
C4 O14 1.265739 1_555
C4 O22 1.339459 1_555
C5 O15 1.243451 1_555
C5 O18 1.294938 1_555
C5 O21 1.342671 1_555
C6 O10 1.265644 1_565
C6 O19 1.265739 1_555
C6 O25 1.339459 1_555
C7 O20 1.243451 1_555
C7 O23 1.294938 1_555
C7 O24 1.342671 1_655
