# generated using pymatgen
data_Eu2In3Ni
_symmetry_space_group_name_H-M   'P 1'
_cell_length_a   3.84887201
_cell_length_b   4.82663987
_cell_length_c   8.55373160
_cell_angle_alpha   90.00027972
_cell_angle_beta   89.99998317
_cell_angle_gamma   89.99212858
_symmetry_Int_Tables_number   1
_chemical_formula_structural   Eu2In3Ni
_chemical_formula_sum   'Eu2 In3 Ni1'
_cell_volume   158.90368903
_cell_formula_units_Z   1
loop_
 _symmetry_equiv_pos_site_id
 _symmetry_equiv_pos_as_xyz
  1  'x, y, z'
loop_
 _atom_site_type_symbol
 _atom_site_label
 _atom_site_symmetry_multiplicity
 _atom_site_fract_x
 _atom_site_fract_y
 _atom_site_fract_z
 _atom_site_occupancy
  Eu  Eu0  1  0.00000000  0.99995300  0.02228200  1
  Eu  Eu1  1  0.00000000  0.49998700  0.48468800  1
  In  In0  1  0.50000000  0.50000400  0.83564200  1
  In  In1  1  0.50000000  0.49994900  0.18424400  1
  In  In2  1  0.50000000  0.99996900  0.64447600  1
  Ni  Ni0  1  0.50000000  0.99993900  0.32866800  1
loop_
_geom_bond_atom_site_label_1
_geom_bond_atom_site_label_2
_geom_bond_distance
_geom_bond_site_symmetry_2
Eu0 Ni0 3.251422 1_455
Eu0 Ni0 3.251423 1_555
Eu0 In1 3.383111 1_465
Eu0 In1 3.383149 1_555
Eu0 In1 3.383489 1_565
Eu0 In1 3.383525 1_455
Eu0 In0 3.474734 1_554
Eu0 In0 3.475087 1_464
Eu0 In0 3.475102 1_454
Eu0 In0 3.475454 1_564
Eu0 In2 3.761252 1_554
Eu0 In2 3.761253 1_454
Eu1 In1 3.210596 1_555
Eu1 In1 3.210597 1_455
Eu1 Ni0 3.362475 1_455
Eu1 Ni0 3.362798 1_545
Eu1 Ni0 3.362854 1_555
Eu1 Ni0 3.363178 1_445
Eu1 In2 3.375490 1_455
Eu1 In2 3.375625 1_545
Eu1 In2 3.375869 1_555
Eu1 In2 3.376002 1_445
Eu1 In0 3.565845 1_455
Eu1 In0 3.565846 1_555
In0 In2 2.914989 1_555
In0 In2 2.915255 1_545
In0 In1 2.981848 1_556
In1 Ni0 2.711084 1_555
In1 Ni0 2.711181 1_545
In2 Ni0 2.701337 1_555
