# generated using pymatgen
data_Zr4Pt2N
_symmetry_space_group_name_H-M   'P 1'
_cell_length_a   8.84953364
_cell_length_b   8.84956699
_cell_length_c   8.84954779
_cell_angle_alpha   60.00178284
_cell_angle_beta   60.00144656
_cell_angle_gamma   60.00132922
_symmetry_Int_Tables_number   1
_chemical_formula_structural   Zr4Pt2N
_chemical_formula_sum   'Zr16 Pt8 N4'
_cell_volume   490.07601579
_cell_formula_units_Z   4
loop_
 _symmetry_equiv_pos_site_id
 _symmetry_equiv_pos_as_xyz
  1  'x, y, z'
loop_
 _atom_site_type_symbol
 _atom_site_label
 _atom_site_symmetry_multiplicity
 _atom_site_fract_x
 _atom_site_fract_y
 _atom_site_fract_z
 _atom_site_occupancy
  Zr  Zr0  1  0.12500551  0.62499871  0.62499778  1
  Zr  Zr1  1  0.62499834  0.12500540  0.62499815  1
  Zr  Zr2  1  0.62499823  0.62499855  0.12500526  1
  Zr  Zr3  1  0.62499831  0.62499882  0.62499812  1
  Zr  Zr4  1  0.81751412  0.81752423  0.18249536  1
  Zr  Zr5  1  0.18247990  0.18245662  0.81750956  1
  Zr  Zr6  1  0.81751521  0.18249721  0.81752726  1
  Zr  Zr7  1  0.18248249  0.81750834  0.18245685  1
  Zr  Zr8  1  0.18250071  0.81752261  0.81752710  1
  Zr  Zr9  1  0.81751020  0.18247343  0.18246445  1
  Zr  Zr10  1  0.43248575  0.43247258  0.06750588  1
  Zr  Zr11  1  0.06752350  0.06754598  0.43248759  1
  Zr  Zr12  1  0.43248254  0.06750586  0.43247033  1
  Zr  Zr13  1  0.06751800  0.43249137  0.06754640  1
  Zr  Zr14  1  0.06750046  0.43247479  0.43247184  1
  Zr  Zr15  1  0.43249123  0.06752737  0.06753752  1
  Pt  Pt0  1  0.78315611  0.40561838  0.40561383  1
  Pt  Pt1  1  0.40561092  0.78317113  0.40561414  1
  Pt  Pt2  1  0.40561303  0.40560746  0.78316511  1
  Pt  Pt3  1  0.40562543  0.40561646  0.40560971  1
  Pt  Pt4  1  0.46683836  0.84438015  0.84438513  1
  Pt  Pt5  1  0.84438625  0.46682386  0.84438980  1
  Pt  Pt6  1  0.84438841  0.84439424  0.46683137  1
  Pt  Pt7  1  0.84437630  0.84438537  0.84439156  1
  N  N0  1  0.62500149  0.12499981  0.12499946  1
  N  N1  1  0.12499980  0.62500147  0.12499954  1
  N  N2  1  0.12499967  0.12499983  0.62500133  1
  N  N3  1  0.12499970  0.12499995  0.12499958  1
loop_
_geom_bond_atom_site_label_1
_geom_bond_atom_site_label_2
_geom_bond_distance
_geom_bond_site_symmetry_2
Pt0 Zr14 2.774416 1_655
Pt0 Zr13 2.774598 1_655
Pt0 Zr11 2.774642 1_655
Pt0 Zr3 2.798561 1_555
Pt0 Zr2 2.798602 1_555
Pt0 Zr1 2.798640 1_555
Pt0 Zr4 3.254139 1_555
Pt0 Zr6 3.254192 1_555
Pt0 Zr9 3.254305 1_555
Pt1 Zr12 2.774408 1_565
Pt1 Zr15 2.774641 1_565
Pt1 Zr11 2.774741 1_565
Pt1 Zr3 2.798587 1_555
Pt1 Zr0 2.798657 1_555
Pt1 Zr2 2.798670 1_555
Pt1 Zr4 3.254081 1_555
Pt1 Zr8 3.254152 1_555
Pt1 Zr7 3.254316 1_555
Pt2 Zr10 2.774507 1_556
Pt2 Zr15 2.774718 1_556
Pt2 Zr13 2.774806 1_556
Pt2 Zr1 2.798593 1_555
Pt2 Zr0 2.798637 1_555
Pt2 Zr3 2.798641 1_555
Pt2 Zr6 3.254097 1_555
Pt2 Zr8 3.254205 1_555
Pt2 Zr5 3.254276 1_555
Pt3 Zr10 2.774829 1_555
Pt3 Zr12 2.774890 1_555
Pt3 Zr14 2.774994 1_555
Pt3 Zr2 2.798554 1_555
Pt3 Zr1 2.798592 1_555
Pt3 Zr0 2.798642 1_555
Pt3 Zr9 3.254114 1_555
Pt3 Zr7 3.254192 1_555
Pt3 Zr5 3.254261 1_555
Pt4 Zr8 2.774363 1_555
Pt4 Zr7 2.774598 1_556
Pt4 Zr5 2.774630 1_565
Pt4 Zr3 2.798582 1_555
Pt4 Zr2 2.798693 1_556
Pt4 Zr1 2.798738 1_565
Pt4 Zr10 3.254135 1_556
Pt4 Zr12 3.254193 1_565
Pt4 Zr15 3.254377 1_566
Pt5 Zr6 2.774367 1_555
Pt5 Zr9 2.774609 1_556
Pt5 Zr5 2.774746 1_655
Pt5 Zr3 2.798640 1_555
Pt5 Zr2 2.798727 1_556
Pt5 Zr0 2.798766 1_655
Pt5 Zr10 3.254055 1_556
Pt5 Zr14 3.254183 1_655
Pt5 Zr13 3.254358 1_656
Pt6 Zr4 2.774499 1_555
Pt6 Zr9 2.774693 1_565
Pt6 Zr7 2.774776 1_655
Pt6 Zr1 2.798656 1_565
Pt6 Zr0 2.798699 1_655
Pt6 Zr3 2.798704 1_555
Pt6 Zr12 3.254122 1_565
Pt6 Zr14 3.254230 1_655
Pt6 Zr11 3.254301 1_665
Pt7 Zr4 2.774804 1_556
Pt7 Zr6 2.774873 1_565
Pt7 Zr8 2.774964 1_655
Pt7 Zr2 2.798623 1_556
Pt7 Zr1 2.798661 1_565
Pt7 Zr0 2.798711 1_655
Pt7 Zr15 3.254115 1_566
Pt7 Zr13 3.254203 1_656
Pt7 Zr11 3.254287 1_665
N0 Zr15 2.326143 1_555
N0 Zr9 2.326156 1_555
N0 Zr6 2.326392 1_554
N0 Zr12 2.326396 1_555
N0 Zr10 2.326400 1_555
N0 Zr4 2.326410 1_545
N1 Zr13 2.326149 1_555
N1 Zr7 2.326153 1_555
N1 Zr8 2.326419 1_554
N1 Zr14 2.326431 1_555
N1 Zr4 2.326485 1_455
N1 Zr10 2.326501 1_555
N2 Zr5 2.326142 1_555
N2 Zr11 2.326146 1_555
N2 Zr14 2.326455 1_555
N2 Zr8 2.326461 1_545
N2 Zr6 2.326486 1_455
N2 Zr12 2.326488 1_555
N3 Zr9 2.326550 1_455
N3 Zr11 2.326565 1_555
N3 Zr5 2.326567 1_554
N3 Zr15 2.326575 1_555
N3 Zr7 2.326577 1_545
N3 Zr13 2.326587 1_555
