# generated using pymatgen
data_Na3LiTi2F12
_symmetry_space_group_name_H-M   'P 1'
_cell_length_a   5.24058000
_cell_length_b   5.24058000
_cell_length_c   18.46334100
_cell_angle_alpha   90.00000000
_cell_angle_beta   90.00000000
_cell_angle_gamma   90.00000000
_symmetry_Int_Tables_number   1
_chemical_formula_structural   Na3LiTi2F12
_chemical_formula_sum   'Na6 Li2 Ti4 F24'
_cell_volume   507.07126562
_cell_formula_units_Z   2
loop_
 _symmetry_equiv_pos_site_id
 _symmetry_equiv_pos_as_xyz
  1  'x, y, z'
loop_
 _atom_site_type_symbol
 _atom_site_label
 _atom_site_symmetry_multiplicity
 _atom_site_fract_x
 _atom_site_fract_y
 _atom_site_fract_z
 _atom_site_occupancy
  Na  Na0  1  0.00000000  0.50000000  0.31081000  1
  Na  Na1  1  0.50000000  0.00000000  0.68919000  1
  Na  Na2  1  0.50000000  0.00000000  0.18919000  1
  Na  Na3  1  0.00000000  0.50000000  0.81081000  1
  Na  Na4  1  0.00000000  0.00000000  0.50000000  1
  Na  Na5  1  0.50000000  0.50000000  0.00000000  1
  Li  Li0  1  0.00000000  0.00000000  0.00000000  1
  Li  Li1  1  0.50000000  0.50000000  0.50000000  1
  Ti  Ti0  1  0.00000000  0.50000000  0.12442300  1
  Ti  Ti1  1  0.50000000  0.00000000  0.87557700  1
  Ti  Ti2  1  0.50000000  0.00000000  0.37557700  1
  Ti  Ti3  1  0.00000000  0.50000000  0.62442300  1
  F  F0  1  0.20950000  0.20860200  0.38356100  1
  F  F1  1  0.79050000  0.79139800  0.38356100  1
  F  F2  1  0.20860200  0.79050000  0.61643900  1
  F  F3  1  0.29050000  0.70860200  0.11643900  1
  F  F4  1  0.79139800  0.20950000  0.61643900  1
  F  F5  1  0.70950000  0.29139800  0.11643900  1
  F  F6  1  0.29139800  0.29050000  0.88356100  1
  F  F7  1  0.70860200  0.70950000  0.88356100  1
  F  F8  1  0.14733200  0.29886400  0.19751900  1
  F  F9  1  0.85266800  0.70113600  0.19751900  1
  F  F10  1  0.29886400  0.85266800  0.80248100  1
  F  F11  1  0.35266800  0.79886400  0.30248100  1
  F  F12  1  0.70113600  0.14733200  0.80248100  1
  F  F13  1  0.64733200  0.20113600  0.30248100  1
  F  F14  1  0.20113600  0.35266800  0.69751900  1
  F  F15  1  0.79886400  0.64733200  0.69751900  1
  F  F16  1  0.15025700  0.28598900  0.05103900  1
  F  F17  1  0.84974300  0.71401100  0.05103900  1
  F  F18  1  0.28598900  0.84974300  0.94896100  1
  F  F19  1  0.34974300  0.78598900  0.44896100  1
  F  F20  1  0.71401100  0.15025700  0.94896100  1
  F  F21  1  0.65025700  0.21401100  0.44896100  1
  F  F22  1  0.21401100  0.34974300  0.55103900  1
  F  F23  1  0.78598900  0.65025700  0.55103900  1
loop_
_geom_bond_atom_site_label_1
_geom_bond_atom_site_label_2
_geom_bond_distance
_geom_bond_site_symmetry_2
F0 Ti2 1.880019 1_555
F0 Na0 2.311204 1_555
F0 Na4 2.649968 1_555
F1 Ti2 1.880019 1_565
F1 Na0 2.311204 1_655
F1 Na4 2.649968 1_665
F2 Ti3 1.880019 1_555
F2 Na1 2.311204 1_565
F2 Na4 2.649968 1_565
F3 Ti0 1.880019 1_555
F3 Na2 2.311204 1_565
F3 Na5 2.649968 1_555
F4 Ti3 1.880019 1_655
F4 Na1 2.311204 1_555
F4 Na4 2.649968 1_655
F5 Ti0 1.880019 1_655
F5 Na2 2.311204 1_555
F5 Na5 2.649968 1_555
F6 Ti1 1.880019 1_555
F6 Na3 2.311204 1_555
F6 Na5 2.649968 1_556
F7 Ti1 1.880019 1_565
F7 Na3 2.311204 1_655
F7 Na5 2.649968 1_556
F8 Ti0 1.878462 1_555
F8 Na2 2.427444 1_555
F8 Na0 2.466281 1_555
F9 Ti0 1.878462 1_655
F9 Na2 2.427444 1_565
F9 Na0 2.466281 1_655
F10 Ti1 1.878462 1_565
F10 Na3 2.427444 1_555
F10 Na1 2.466281 1_565
F11 Ti2 1.878462 1_565
F11 Na0 2.427444 1_555
F11 Na2 2.466281 1_565
F12 Ti1 1.878462 1_555
F12 Na3 2.427444 1_655
F12 Na1 2.466281 1_555
F13 Ti2 1.878462 1_555
F13 Na0 2.427444 1_655
F13 Na2 2.466281 1_555
F14 Ti3 1.878462 1_555
F14 Na1 2.427444 1_555
F14 Na3 2.466281 1_555
F15 Ti3 1.878462 1_655
F15 Na1 2.427444 1_565
F15 Na3 2.466281 1_655
F16 Ti0 1.927096 1_555
F16 Li0 1.937607 1_555
F16 Na5 2.346325 1_555
F17 Ti0 1.927096 1_655
F17 Li0 1.937607 1_665
F17 Na5 2.346325 1_555
F18 Ti1 1.927096 1_565
F18 Li0 1.937607 1_566
F18 Na5 2.346325 1_556
F19 Ti2 1.927096 1_565
F19 Li1 1.937607 1_555
F19 Na4 2.346325 1_565
F20 Ti1 1.927096 1_555
F20 Li0 1.937607 1_656
F20 Na5 2.346325 1_556
F21 Ti2 1.927096 1_555
F21 Li1 1.937607 1_555
F21 Na4 2.346325 1_655
F22 Ti3 1.927096 1_555
F22 Li1 1.937607 1_555
F22 Na4 2.346325 1_555
F23 Ti3 1.927096 1_655
F23 Li1 1.937607 1_555
F23 Na4 2.346325 1_665
