# generated using pymatgen
data_Li4NbCo3O8
_symmetry_space_group_name_H-M   'P 1'
_cell_length_a   6.03729816
_cell_length_b   10.44978358
_cell_length_c   6.04178720
_cell_angle_alpha   107.28528096
_cell_angle_beta   59.54645741
_cell_angle_gamma   107.33917379
_symmetry_Int_Tables_number   1
_chemical_formula_structural   Li4NbCo3O8
_chemical_formula_sum   'Li8 Nb2 Co6 O16'
_cell_volume   308.66797318
_cell_formula_units_Z   2
loop_
 _symmetry_equiv_pos_site_id
 _symmetry_equiv_pos_as_xyz
  1  'x, y, z'
loop_
 _atom_site_type_symbol
 _atom_site_label
 _atom_site_symmetry_multiplicity
 _atom_site_fract_x
 _atom_site_fract_y
 _atom_site_fract_z
 _atom_site_occupancy
  Li  Li0  1  0.25554600  0.75073100  0.24830800  1
  Li  Li1  1  0.74447900  0.24927400  0.75166500  1
  Li  Li2  1  0.50001900  0.99999500  0.49997800  1
  Li  Li3  1  0.99993700  0.49999700  0.00004400  1
  Li  Li4  1  0.24996600  0.25321400  0.75397800  1
  Li  Li5  1  0.75003600  0.74676000  0.24597600  1
  Li  Li6  1  0.00000600  0.00000200  0.50000200  1
  Li  Li7  1  0.50001800  0.49999300  0.00000500  1
  Nb  Nb0  1  0.00006300  0.00005700  0.99999800  1
  Nb  Nb1  1  0.49990300  0.49999100  0.50006800  1
  Co  Co0  1  0.75129900  0.75065900  0.74693100  1
  Co  Co1  1  0.24873600  0.24934200  0.25304000  1
  Co  Co2  1  0.99995800  0.50000200  0.49999100  1
  Co  Co3  1  0.50001700  0.99999500  0.00000400  1
  Co  Co4  1  0.25174000  0.75022900  0.74897100  1
  Co  Co5  1  0.74826400  0.24977900  0.25102000  1
  O  O0  1  0.89856400  0.62107800  0.82807500  1
  O  O1  1  0.39375700  0.12172900  0.32617400  1
  O  O2  1  0.60625400  0.87827700  0.67381400  1
  O  O3  1  0.10144800  0.37890600  0.17193300  1
  O  O4  1  0.13786800  0.88776800  0.11878900  1
  O  O5  1  0.61419200  0.38213400  0.62451900  1
  O  O6  1  0.38071100  0.61991800  0.85770800  1
  O  O7  1  0.87884600  0.12004200  0.35761400  1
  O  O8  1  0.64898500  0.87742500  0.12752600  1
  O  O9  1  0.13742600  0.38157600  0.62552700  1
  O  O10  1  0.86216300  0.11223800  0.88117700  1
  O  O11  1  0.38577400  0.61786100  0.37549900  1
  O  O12  1  0.12115700  0.87995400  0.64240500  1
  O  O13  1  0.61924700  0.38009600  0.14235300  1
  O  O14  1  0.35111800  0.12258300  0.87239500  1
  O  O15  1  0.86250200  0.61840200  0.37451500  1
loop_
_geom_bond_atom_site_label_1
_geom_bond_atom_site_label_2
_geom_bond_distance
_geom_bond_site_symmetry_2
Li0 O8 2.206811 1_555
Li0 O6 2.213554 1_554
Li0 O12 2.221530 1_555
Li0 O15 2.227325 1_455
Li0 O4 2.236879 1_555
Li0 O11 2.243591 1_555
Li1 O14 2.206467 1_555
Li1 O13 2.213963 1_556
Li1 O7 2.221371 1_555
Li1 O9 2.226802 1_655
Li1 O10 2.236866 1_555
Li1 O5 2.243566 1_555
Li2 O14 2.105961 1_565
Li2 O8 2.106050 1_555
Li2 O7 2.116901 1_565
Li2 O12 2.117037 1_555
Li2 O2 2.257252 1_555
Li2 O1 2.257346 1_565
Li3 O15 2.093710 1_555
Li3 O9 2.093979 1_654
Li3 O13 2.124163 1_555
Li3 O6 2.124604 1_654
Li3 O0 2.223145 1_554
Li3 O3 2.223420 1_655
Li4 O14 2.066002 1_555
Li4 O5 2.092609 1_555
Li4 O9 2.135301 1_555
Li4 O10 2.243982 1_455
Li4 O3 2.311179 1_556
Li4 O1 2.376590 1_555
Li5 O8 2.066035 1_555
Li5 O11 2.092670 1_555
Li5 O15 2.135336 1_555
Li5 O4 2.244249 1_655
Li5 O0 2.310904 1_554
Li5 O2 2.376862 1_555
Li6 O10 2.098983 1_455
Li6 O4 2.099144 1_545
Li6 O7 2.162110 1_455
Li6 O12 2.162205 1_545
Li6 O2 2.198353 1_445
Li6 O1 2.198367 1_555
Li7 O5 2.097392 1_554
Li7 O11 2.097444 1_555
Li7 O13 2.152439 1_555
Li7 O6 2.152779 1_554
Li7 O0 2.214120 1_554
Li7 O3 2.214225 1_555
Nb0 O14 2.009592 1_555
Nb0 O8 2.010151 1_446
Nb0 O7 2.027363 1_456
Nb0 O12 2.027767 1_545
Nb0 O10 2.066492 1_455
Nb0 O4 2.066825 1_546
Nb1 O6 2.027192 1_555
Nb1 O13 2.027373 1_555
Nb1 O11 2.034883 1_555
Nb1 O5 2.034940 1_555
Nb1 O9 2.038773 1_555
Nb1 O15 2.039280 1_555
Co0 O2 2.044184 1_555
Co0 O0 2.101979 1_555
Co0 O12 2.118888 1_655
Co0 O6 2.126907 1_555
Co0 O15 2.144152 1_555
Co0 O8 2.159089 1_556
Co1 O1 2.044098 1_555
Co1 O3 2.101789 1_555
Co1 O7 2.119034 1_455
Co1 O13 2.126654 1_555
Co1 O9 2.144332 1_555
Co1 O14 2.159254 1_554
Co2 O3 1.909420 1_655
Co2 O0 1.909437 1_555
Co2 O5 2.138206 1_555
Co2 O11 2.138402 1_655
Co2 O15 2.145065 1_555
Co2 O9 2.145596 1_655
Co3 O1 1.904844 1_565
Co3 O2 1.904846 1_554
Co3 O4 2.012951 1_555
Co3 O10 2.012994 1_564
Co3 O8 2.240188 1_555
Co3 O14 2.240404 1_564
Co4 O0 2.057014 1_455
Co4 O2 2.060682 1_555
Co4 O12 2.131649 1_555
Co4 O6 2.138765 1_555
Co4 O11 2.149678 1_555
Co4 O4 2.157357 1_556
Co5 O3 2.056954 1_655
Co5 O1 2.060661 1_555
Co5 O7 2.131864 1_555
Co5 O13 2.138727 1_555
Co5 O5 2.149735 1_555
Co5 O10 2.157467 1_554
