# generated using pymatgen
data_Li7Mn4CoO12
_symmetry_space_group_name_H-M   'P 1'
_cell_length_a   2.87701900
_cell_length_b   8.67859900
_cell_length_c   9.75492089
_cell_angle_alpha   64.22510718
_cell_angle_beta   90.00000000
_cell_angle_gamma   90.00000000
_symmetry_Int_Tables_number   1
_chemical_formula_structural   Li7Mn4CoO12
_chemical_formula_sum   'Li7 Mn4 Co1 O12'
_cell_volume   219.33319066
_cell_formula_units_Z   1
loop_
 _symmetry_equiv_pos_site_id
 _symmetry_equiv_pos_as_xyz
  1  'x, y, z'
loop_
 _atom_site_type_symbol
 _atom_site_label
 _atom_site_symmetry_multiplicity
 _atom_site_fract_x
 _atom_site_fract_y
 _atom_site_fract_z
 _atom_site_occupancy
  Li  Li0  1  0.50000000  0.83383400  0.83318900  1
  Li  Li1  1  0.50000000  0.49883500  0.50940400  1
  Li  Li2  1  0.50000000  0.16932000  0.15587100  1
  Li  Li3  1  0.00000000  0.47733200  0.99662200  1
  Li  Li4  1  0.00000000  0.18412200  0.66806600  1
  Li  Li5  1  0.00000000  0.83477600  0.33516500  1
  Li  Li6  1  0.50000000  0.33508100  0.83147900  1
  Mn  Mn0  1  0.00000000  0.02022300  0.99504500  1
  Mn  Mn1  1  0.00000000  0.65125600  0.67013900  1
  Mn  Mn2  1  0.00000000  0.32723600  0.33560200  1
  Mn  Mn3  1  0.50000000  0.67329300  0.16343500  1
  Co  Co0  1  0.50000000  0.98968000  0.50473000  1
  O  O0  1  0.50000000  0.07559200  0.84694400  1
  O  O1  1  0.50000000  0.73734900  0.51875000  1
  O  O2  1  0.50000000  0.40335500  0.18043600  1
  O  O3  1  0.00000000  0.76525800  0.00992800  1
  O  O4  1  0.00000000  0.44187700  0.66618600  1
  O  O5  1  0.00000000  0.06358300  0.35813900  1
  O  O6  1  0.50000000  0.59463400  0.81863700  1
  O  O7  1  0.50000000  0.25534700  0.48945900  1
  O  O8  1  0.50000000  0.93534400  0.14677900  1
  O  O9  1  0.00000000  0.22927700  0.99939200  1
  O  O10  1  0.00000000  0.90382300  0.65260000  1
  O  O11  1  0.00000000  0.59957300  0.31400400  1
loop_
_geom_bond_atom_site_label_1
_geom_bond_atom_site_label_2
_geom_bond_distance
_geom_bond_site_symmetry_2
Li0 O3 2.122167 1_556
Li0 O3 2.122167 1_656
Li0 O6 2.141466 1_555
Li0 O10 2.147330 1_655
Li0 O10 2.147330 1_555
Li0 O0 2.159849 1_565
Li1 O4 1.998808 1_555
Li1 O4 1.998808 1_655
Li1 O1 2.111208 1_555
Li1 O7 2.204710 1_555
Li1 O11 2.240010 1_655
Li1 O11 2.240010 1_555
Li2 O9 1.994826 1_654
Li2 O9 1.994826 1_554
Li2 O8 2.070691 1_545
Li2 O2 2.146172 1_555
Li2 O5 2.286897 1_655
Li2 O5 2.286897 1_555
Li3 O6 2.140795 1_555
Li3 O6 2.140795 1_455
Li3 O9 2.141158 1_555
Li3 O2 2.166912 1_556
Li3 O2 2.166912 1_456
Li3 O3 2.557908 1_556
Li4 O7 2.133163 1_455
Li4 O7 2.133163 1_555
Li4 O0 2.138209 1_455
Li4 O0 2.138209 1_555
Li4 O4 2.229039 1_555
Li4 O10 2.501898 1_545
Li5 O5 2.092928 1_565
Li5 O11 2.139085 1_555
Li5 O1 2.162064 1_555
Li5 O1 2.162064 1_455
Li5 O8 2.193922 1_455
Li5 O8 2.193922 1_555
Li6 O4 2.056345 1_555
Li6 O4 2.056345 1_655
Li6 O9 2.070605 1_555
Li6 O9 2.070605 1_655
Li6 O0 2.190618 1_555
Li6 O6 2.200976 1_555
Mn0 O9 1.833133 1_555
Mn0 O0 1.945165 1_455
Mn0 O0 1.945165 1_555
Mn0 O8 1.963303 1_546
Mn0 O8 1.963303 1_446
Mn0 O3 2.153580 1_546
Mn1 O4 1.834213 1_555
Mn1 O6 1.946824 1_555
Mn1 O6 1.946824 1_455
Mn1 O1 1.961853 1_455
Mn1 O1 1.961853 1_555
Mn1 O10 2.123128 1_555
Mn2 O7 1.974031 1_455
Mn2 O7 1.974031 1_555
Mn2 O2 1.981715 1_455
Mn2 O2 1.981715 1_555
Mn2 O5 2.201461 1_555
Mn2 O11 2.279798 1_555
Mn3 O11 1.954158 1_655
Mn3 O11 1.954158 1_555
Mn3 O3 1.977189 1_555
Mn3 O3 1.977189 1_655
Mn3 O8 2.208436 1_555
Mn3 O2 2.275475 1_555
Co0 O5 1.930777 1_565
Co0 O5 1.930777 1_665
Co0 O10 1.941771 1_555
Co0 O10 1.941771 1_655
Co0 O1 2.133966 1_555
Co0 O7 2.244853 1_565
