# generated using pymatgen
data_Nb6GePt
_symmetry_space_group_name_H-M   'P 1'
_cell_length_a   5.19348900
_cell_length_b   5.19348900
_cell_length_c   5.19348900
_cell_angle_alpha   90.00000000
_cell_angle_beta   90.00000000
_cell_angle_gamma   90.00000000
_symmetry_Int_Tables_number   1
_chemical_formula_structural   Nb6GePt
_chemical_formula_sum   'Nb6 Ge1 Pt1'
_cell_volume   140.08048874
_cell_formula_units_Z   1
loop_
 _symmetry_equiv_pos_site_id
 _symmetry_equiv_pos_as_xyz
  1  'x, y, z'
loop_
 _atom_site_type_symbol
 _atom_site_label
 _atom_site_symmetry_multiplicity
 _atom_site_fract_x
 _atom_site_fract_y
 _atom_site_fract_z
 _atom_site_occupancy
  Nb  Nb0  1  0.00000000  0.50000000  0.74988800  1
  Nb  Nb1  1  0.50000000  0.25011200  0.00000000  1
  Nb  Nb2  1  0.74988800  0.00000000  0.50000000  1
  Nb  Nb3  1  0.00000000  0.50000000  0.25011200  1
  Nb  Nb4  1  0.50000000  0.74988800  0.00000000  1
  Nb  Nb5  1  0.25011200  0.00000000  0.50000000  1
  Ge  Ge0  1  0.00000000  0.00000000  0.00000000  1
  Pt  Pt0  1  0.50000000  0.50000000  0.50000000  1
loop_
_geom_bond_atom_site_label_1
_geom_bond_atom_site_label_2
_geom_bond_distance
_geom_bond_site_symmetry_2
Nb0 Nb3 2.595581 1_555
Nb0 Nb3 2.597908 1_556
Nb0 Pt0 2.902989 1_455
Nb0 Pt0 2.902989 1_555
Nb1 Nb4 2.595581 1_555
Nb1 Nb4 2.597908 1_545
Nb1 Pt0 2.902989 1_555
Nb1 Pt0 2.902989 1_554
Nb2 Nb5 2.595581 1_555
Nb2 Nb5 2.597908 1_655
Nb2 Pt0 2.902989 1_555
Nb2 Pt0 2.902989 1_545
Nb3 Pt0 2.902989 1_455
Nb3 Pt0 2.902989 1_555
Nb4 Pt0 2.902989 1_555
Nb4 Pt0 2.902989 1_554
Nb5 Pt0 2.902989 1_555
Nb5 Pt0 2.902989 1_545
Ge0 Nb5 2.903509 1_555
Ge0 Nb2 2.903509 1_455
Ge0 Nb5 2.903509 1_554
Ge0 Nb0 2.903509 1_554
Ge0 Nb3 2.903509 1_555
Ge0 Nb1 2.903509 1_455
Ge0 Nb3 2.903509 1_545
Ge0 Nb2 2.903509 1_454
Ge0 Nb4 2.903509 1_545
Ge0 Nb0 2.903509 1_544
Ge0 Nb1 2.903509 1_555
Ge0 Nb4 2.903509 1_445
