# generated using pymatgen
data_NaMg6BO7
_symmetry_space_group_name_H-M   'P 1'
_cell_length_a   8.03827791
_cell_length_b   4.40668289
_cell_length_c   4.40668289
_cell_angle_alpha   90.00000000
_cell_angle_beta   90.00000000
_cell_angle_gamma   90.00000000
_symmetry_Int_Tables_number   1
_chemical_formula_structural   NaMg6BO7
_chemical_formula_sum   'Na1 Mg6 B1 O7'
_cell_volume   156.09414589
_cell_formula_units_Z   1
loop_
 _symmetry_equiv_pos_site_id
 _symmetry_equiv_pos_as_xyz
  1  'x, y, z'
loop_
 _atom_site_type_symbol
 _atom_site_label
 _atom_site_symmetry_multiplicity
 _atom_site_fract_x
 _atom_site_fract_y
 _atom_site_fract_z
 _atom_site_occupancy
  Na  Na0  1  0.99916620  0.00000000  -0.00000000  1
  Mg  Mg0  1  0.00484331  0.50000000  0.50000000  1
  Mg  Mg1  1  0.50431702  0.50000000  0.50000000  1
  Mg  Mg2  1  0.26064432  0.00000000  0.50000000  1
  Mg  Mg3  1  0.74935536  0.00000000  0.50000000  1
  Mg  Mg4  1  0.26064432  0.50000000  0.00000000  1
  Mg  Mg5  1  0.74935536  0.50000000  0.00000000  1
  B  B0  1  0.50842360  0.00000000  -0.00000000  1
  O  O0  1  0.68616031  0.00000000  -0.00000000  1
  O  O1  1  0.25515635  0.50000000  0.50000000  1
  O  O2  1  0.75384257  0.50000000  0.50000000  1
  O  O3  1  0.00565374  0.00000000  0.50000000  1
  O  O4  1  0.50339190  0.00000000  0.50000000  1
  O  O5  1  0.00565374  0.50000000  -0.00000000  1
  O  O6  1  0.50339190  0.50000000  0.00000000  1
loop_
_geom_bond_atom_site_label_1
_geom_bond_atom_site_label_2
_geom_bond_distance
_geom_bond_site_symmetry_2
Na0 O5 2.203958 1_645
Na0 O3 2.203958 1_654
Na0 O5 2.203958 1_655
Na0 O3 2.203958 1_655
Na0 O0 2.516028 1_555
Mg0 O1 2.012086 1_555
Mg0 O2 2.017614 1_455
Mg0 O5 2.203351 1_555
Mg0 O3 2.203351 1_555
Mg0 O3 2.203351 1_565
Mg0 O5 2.203351 1_556
Mg1 O1 2.002823 1_555
Mg1 O2 2.005756 1_555
Mg1 O6 2.203354 1_556
Mg1 O6 2.203354 1_555
Mg1 O4 2.203354 1_555
Mg1 O4 2.203354 1_565
Mg2 O4 1.951273 1_555
Mg2 O3 2.049685 1_555
Mg2 O1 2.203783 1_545
Mg2 O1 2.203783 1_555
Mg3 O4 1.977123 1_555
Mg3 O3 2.060198 1_655
Mg3 O2 2.203637 1_555
Mg3 O2 2.203637 1_545
Mg3 O0 2.261141 1_555
Mg3 O0 2.261141 1_556
Mg4 O6 1.951273 1_555
Mg4 O5 2.049685 1_555
Mg4 O1 2.203783 1_554
Mg4 O1 2.203783 1_555
Mg5 O6 1.977123 1_555
Mg5 O5 2.060198 1_655
Mg5 O2 2.203637 1_555
Mg5 O2 2.203637 1_554
Mg5 O0 2.261141 1_565
Mg5 O0 2.261141 1_555
B0 O0 1.428697 1_555
B0 O6 2.203713 1_555
B0 O4 2.203713 1_555
B0 O4 2.203713 1_554
B0 O6 2.203713 1_545
