# generated using pymatgen
data_DyF3
_symmetry_space_group_name_H-M   'P 1'
_cell_length_a   6.73659023
_cell_length_b   6.73659023
_cell_length_c   6.93529330
_cell_angle_alpha   90.00000000
_cell_angle_beta   90.00000000
_cell_angle_gamma   119.99999540
_symmetry_Int_Tables_number   1
_chemical_formula_structural   DyF3
_chemical_formula_sum   'Dy6 F18'
_cell_volume   272.56855182
_cell_formula_units_Z   6
loop_
 _symmetry_equiv_pos_site_id
 _symmetry_equiv_pos_as_xyz
  1  'x, y, z'
loop_
 _atom_site_type_symbol
 _atom_site_label
 _atom_site_symmetry_multiplicity
 _atom_site_fract_x
 _atom_site_fract_y
 _atom_site_fract_z
 _atom_site_occupancy
  Dy  Dy0  1  0.65452996  0.65452996  0.75000000  1
  Dy  Dy1  1  0.34547004  0.34547004  0.25000000  1
  Dy  Dy2  1  -0.00000000  0.34547004  0.75000000  1
  Dy  Dy3  1  0.00000000  0.65452996  0.25000000  1
  Dy  Dy4  1  0.34547004  -0.00000000  0.75000000  1
  Dy  Dy5  1  0.65452996  0.00000000  0.25000000  1
  F  F0  1  -0.00000000  0.00000000  0.75000000  1
  F  F1  1  -0.00000000  0.00000000  0.25000000  1
  F  F2  1  0.66666700  0.33333300  0.81825604  1
  F  F3  1  0.33333300  0.66666700  0.18174396  1
  F  F4  1  0.33333300  0.66666700  0.68174396  1
  F  F5  1  0.66666700  0.33333300  0.31825604  1
  F  F6  1  0.62649579  0.93324790  0.92096461  1
  F  F7  1  0.37350421  0.06675210  0.07903539  1
  F  F8  1  0.30675311  0.37350421  0.92096461  1
  F  F9  1  0.69324689  0.06675210  0.57903539  1
  F  F10  1  0.69324689  0.62649579  0.07903539  1
  F  F11  1  0.30675311  0.93324790  0.42096461  1
  F  F12  1  0.06675210  0.69324689  0.92096461  1
  F  F13  1  0.93324790  0.62649579  0.57903539  1
  F  F14  1  0.93324790  0.30675311  0.07903539  1
  F  F15  1  0.06675210  0.37350421  0.42096461  1
  F  F16  1  0.37350421  0.30675311  0.57903539  1
  F  F17  1  0.62649579  0.69324689  0.42096461  1
loop_
_geom_bond_atom_site_label_1
_geom_bond_atom_site_label_2
_geom_bond_distance
_geom_bond_site_symmetry_2
Dy0 F2 2.256013 1_555
Dy0 F4 2.256013 1_555
Dy0 F13 2.306845 1_555
Dy0 F6 2.306845 1_555
Dy0 F17 2.315227 1_555
Dy0 F10 2.315227 1_556
Dy0 F0 2.327290 1_665
Dy0 F16 2.458335 1_555
Dy0 F8 2.458335 1_555
Dy1 F5 2.256013 1_555
Dy1 F3 2.256013 1_555
Dy1 F15 2.306845 1_555
Dy1 F7 2.306845 1_555
Dy1 F8 2.315227 1_554
Dy1 F16 2.315227 1_555
Dy1 F1 2.327290 1_555
Dy1 F17 2.458335 1_555
Dy1 F10 2.458335 1_555
Dy2 F2 2.256007 1_455
Dy2 F4 2.256010 1_555
Dy2 F9 2.306849 1_455
Dy2 F8 2.306851 1_555
Dy2 F14 2.315228 1_456
Dy2 F15 2.315228 1_555
Dy2 F0 2.327290 1_555
Dy2 F12 2.458333 1_555
Dy2 F13 2.458338 1_455
Dy3 F3 2.256007 1_555
Dy3 F5 2.256010 1_455
Dy3 F11 2.306849 1_555
Dy3 F10 2.306851 1_455
Dy3 F12 2.315228 1_554
Dy3 F13 2.315228 1_455
Dy3 F1 2.327290 1_565
Dy3 F14 2.458333 1_455
Dy3 F15 2.458338 1_555
Dy4 F4 2.256007 1_545
Dy4 F2 2.256010 1_555
Dy4 F12 2.306849 1_545
Dy4 F16 2.306851 1_555
Dy4 F11 2.315228 1_545
Dy4 F7 2.315228 1_556
Dy4 F0 2.327290 1_555
Dy4 F9 2.458333 1_555
Dy4 F6 2.458338 1_545
Dy5 F5 2.256007 1_555
Dy5 F3 2.256010 1_545
Dy5 F14 2.306849 1_555
Dy5 F17 2.306851 1_545
Dy5 F9 2.315228 1_555
Dy5 F6 2.315228 1_544
Dy5 F1 2.327290 1_655
Dy5 F11 2.458333 1_545
Dy5 F7 2.458338 1_555
