# generated using pymatgen
data_YMg6Ga
_symmetry_space_group_name_H-M   'P 1'
_cell_length_a   6.56561119
_cell_length_b   6.56561119
_cell_length_c   4.98412400
_cell_angle_alpha   90.00000000
_cell_angle_beta   90.00000000
_cell_angle_gamma   119.76323023
_symmetry_Int_Tables_number   1
_chemical_formula_structural   YMg6Ga
_chemical_formula_sum   'Y1 Mg6 Ga1'
_cell_volume   186.50952531
_cell_formula_units_Z   1
loop_
 _symmetry_equiv_pos_site_id
 _symmetry_equiv_pos_as_xyz
  1  'x, y, z'
loop_
 _atom_site_type_symbol
 _atom_site_label
 _atom_site_symmetry_multiplicity
 _atom_site_fract_x
 _atom_site_fract_y
 _atom_site_fract_z
 _atom_site_occupancy
  Y  Y0  1  0.32495200  0.67504800  0.50000000  1
  Mg  Mg0  1  0.83792300  0.67502800  0.50000000  1
  Mg  Mg1  1  0.32497200  0.16207700  0.50000000  1
  Mg  Mg2  1  0.83578600  0.16421400  0.50000000  1
  Mg  Mg3  1  0.67714800  0.83828400  0.00000000  1
  Mg  Mg4  1  0.16171600  0.32285200  0.00000000  1
  Mg  Mg5  1  0.66745200  0.33254800  0.00000000  1
  Ga  Ga0  1  0.17005000  0.82995000  0.00000000  1
loop_
_geom_bond_atom_site_label_1
_geom_bond_atom_site_label_2
_geom_bond_distance
_geom_bond_site_symmetry_2
Mg0 Mg3 3.097887 1_555
Mg0 Mg3 3.097887 1_556
Mg0 Mg5 3.165526 1_556
Mg0 Mg5 3.165526 1_555
Mg0 Y0 3.197578 1_655
Mg0 Mg1 3.209212 1_665
Mg0 Mg2 3.218793 1_565
Mg0 Mg2 3.346863 1_555
Mg0 Y0 3.368033 1_555
Mg0 Mg1 3.379882 1_555
Mg1 Mg4 3.097887 1_556
Mg1 Mg4 3.097887 1_555
Mg1 Mg5 3.165526 1_556
Mg1 Mg5 3.165526 1_555
Mg1 Y0 3.197578 1_545
Mg1 Mg2 3.218793 1_455
Mg1 Mg2 3.346863 1_555
Mg1 Y0 3.368033 1_555
Mg2 Mg4 3.108316 1_656
Mg2 Mg4 3.108316 1_655
Mg2 Mg3 3.108316 1_546
Mg2 Mg3 3.108316 1_545
Mg2 Mg5 3.141039 1_556
Mg2 Mg5 3.141039 1_555
Mg2 Y0 3.296844 1_545
Mg2 Y0 3.296844 1_655
Mg3 Mg4 3.192864 1_665
Mg3 Y0 3.200874 1_554
Mg3 Y0 3.200874 1_555
Mg3 Mg5 3.277213 1_565
Mg3 Mg5 3.289328 1_555
Mg3 Mg4 3.396230 1_555
Mg4 Y0 3.200874 1_555
Mg4 Y0 3.200874 1_554
Mg4 Mg5 3.277213 1_455
Mg4 Mg5 3.289328 1_555
Ga0 Y0 3.050572 1_555
Ga0 Y0 3.050572 1_554
Ga0 Mg1 3.130165 1_565
Ga0 Mg1 3.130165 1_564
Ga0 Mg0 3.130165 1_454
Ga0 Mg0 3.130165 1_455
Ga0 Mg3 3.263711 1_455
Ga0 Mg4 3.263711 1_565
Ga0 Mg5 3.294679 1_565
Ga0 Mg5 3.294679 1_455
Ga0 Mg4 3.302587 1_555
Ga0 Mg3 3.302587 1_555
