# generated using pymatgen
data_Cs3Li2I5
_symmetry_space_group_name_H-M   'P 1'
_cell_length_a   15.46522460
_cell_length_b   15.46522460
_cell_length_c   12.28411275
_cell_angle_alpha   79.12851332
_cell_angle_beta   79.12851332
_cell_angle_gamma   17.93231130
_symmetry_Int_Tables_number   1
_chemical_formula_structural   Cs3Li2I5
_chemical_formula_sum   'Cs6 Li4 I10'
_cell_volume   887.95648056
_cell_formula_units_Z   2
loop_
 _symmetry_equiv_pos_site_id
 _symmetry_equiv_pos_as_xyz
  1  'x, y, z'
loop_
 _atom_site_type_symbol
 _atom_site_label
 _atom_site_symmetry_multiplicity
 _atom_site_fract_x
 _atom_site_fract_y
 _atom_site_fract_z
 _atom_site_occupancy
  Cs  Cs0  1  0.74516929  0.74516929  0.26014079  1
  Cs  Cs1  1  0.06705213  0.06705213  0.34508774  1
  Cs  Cs2  1  0.94416409  0.94416409  0.15360896  1
  Cs  Cs3  1  0.05583591  0.05583591  0.84639104  1
  Cs  Cs4  1  0.93294787  0.93294787  0.65491226  1
  Cs  Cs5  1  0.25483071  0.25483071  0.73985921  1
  Li  Li0  1  0.35612660  0.35612660  0.96777561  1
  Li  Li1  1  0.64387340  0.64387340  0.03222439  1
  Li  Li2  1  0.35793941  0.35793941  0.41376885  1
  Li  Li3  1  0.64206059  0.64206059  0.58623115  1
  I  I0  1  0.65726863  0.65726863  0.80168350  1
  I  I1  1  0.34273137  0.34273137  0.19831650  1
  I  I2  1  0.55150888  0.55150888  0.59600920  1
  I  I3  1  0.44743692  0.44743692  0.89578528  1
  I  I4  1  0.17844173  0.17844173  0.09851530  1
  I  I5  1  0.17830016  0.17830016  0.48679651  1
  I  I6  1  0.82155827  0.82155827  0.90148470  1
  I  I7  1  0.82169984  0.82169984  0.51320349  1
  I  I8  1  0.55256308  0.55256308  0.10421472  1
  I  I9  1  0.44849112  0.44849112  0.40399080  1
loop_
_geom_bond_atom_site_label_1
_geom_bond_atom_site_label_2
_geom_bond_distance
_geom_bond_site_symmetry_2
Cs0 I1 3.795610 1_565
Cs0 I1 3.795610 1_655
Cs0 I4 3.931071 1_565
Cs0 I4 3.931071 1_655
Cs0 I5 3.945024 1_565
Cs0 I5 3.945024 1_655
Cs0 I7 4.231623 1_555
Cs1 I2 3.869988 1_455
Cs1 I2 3.869988 1_545
Cs1 I8 3.906498 1_545
Cs1 I8 3.906498 1_455
Cs1 I4 4.101206 1_555
Cs1 I5 4.103936 1_555
Cs1 I9 4.295737 1_545
Cs1 I9 4.295737 1_455
Cs2 I1 3.881368 1_655
Cs2 I1 3.881368 1_565
Cs2 I9 3.929657 1_565
Cs2 I9 3.929657 1_655
Cs2 I3 3.966007 1_564
Cs2 I3 3.966007 1_654
Cs2 I8 4.047047 1_655
Cs2 I8 4.047047 1_565
Cs3 I0 3.881368 1_455
Cs3 I0 3.881368 1_545
Cs3 I2 3.929657 1_455
Cs3 I2 3.929657 1_545
Cs3 I8 3.966007 1_456
Cs3 I8 3.966007 1_546
Cs3 I3 4.047047 1_455
Cs3 I3 4.047047 1_545
Cs4 I9 3.869988 1_655
Cs4 I9 3.869988 1_565
Cs4 I3 3.906498 1_655
Cs4 I3 3.906498 1_565
Cs4 I6 4.101206 1_555
Cs4 I7 4.103936 1_555
Cs4 I2 4.295737 1_655
Cs4 I2 4.295737 1_565
Cs5 I0 3.795610 1_545
Cs5 I0 3.795610 1_455
Cs5 I6 3.931071 1_545
Cs5 I6 3.931071 1_455
Cs5 I7 3.945024 1_455
Cs5 I7 3.945024 1_545
Cs5 I5 4.231623 1_555
I0 Li3 2.773124 1_555
I0 Li1 2.782994 1_556
I1 Li2 2.773124 1_555
I1 Li0 2.782994 1_554
I2 Li3 2.746178 1_555
I3 Li0 2.760919 1_555
I4 Li1 2.813613 1_545
I4 Li1 2.813613 1_455
I5 Li3 2.830342 1_455
I5 Li3 2.830342 1_545
I6 Li0 2.813613 1_655
I6 Li0 2.813613 1_565
I7 Li2 2.830342 1_565
I7 Li2 2.830342 1_655
I8 Li1 2.760919 1_555
I9 Li2 2.746178 1_555
