# generated using pymatgen
data_Mg14NbSb
_symmetry_space_group_name_H-M   'P 1'
_cell_length_a   6.33507752
_cell_length_b   6.33507701
_cell_length_c   10.19110662
_cell_angle_alpha   90.00000000
_cell_angle_beta   90.00000000
_cell_angle_gamma   120.00000266
_symmetry_Int_Tables_number   1
_chemical_formula_structural   Mg14NbSb
_chemical_formula_sum   'Mg14 Nb1 Sb1'
_cell_volume   354.20590538
_cell_formula_units_Z   1
loop_
 _symmetry_equiv_pos_site_id
 _symmetry_equiv_pos_as_xyz
  1  'x, y, z'
loop_
 _atom_site_type_symbol
 _atom_site_label
 _atom_site_symmetry_multiplicity
 _atom_site_fract_x
 _atom_site_fract_y
 _atom_site_fract_z
 _atom_site_occupancy
  Mg  Mg0  1  0.16816459  0.83408180  0.12500000  1
  Mg  Mg1  1  0.16544161  0.83272031  0.62500000  1
  Mg  Mg2  1  0.66591820  0.33183541  0.12500000  1
  Mg  Mg3  1  0.66727969  0.33455839  0.62500000  1
  Mg  Mg4  1  0.66591820  0.83408180  0.12500000  1
  Mg  Mg5  1  0.66727969  0.83272031  0.62500000  1
  Mg  Mg6  1  0.32962370  0.17037630  0.36899341  1
  Mg  Mg7  1  0.32962370  0.17037630  0.88100659  1
  Mg  Mg8  1  0.32962370  0.65924839  0.36899341  1
  Mg  Mg9  1  0.32962370  0.65924839  0.88100659  1
  Mg  Mg10  1  0.84075161  0.17037630  0.36899341  1
  Mg  Mg11  1  0.84075161  0.17037630  0.88100659  1
  Mg  Mg12  1  0.83333300  0.66666700  0.37205958  1
  Mg  Mg13  1  0.83333300  0.66666700  0.87794042  1
  Nb  Nb0  1  0.16666700  0.33333300  0.12500000  1
  Sb  Sb0  1  0.16666700  0.33333300  0.62500000  1
loop_
_geom_bond_atom_site_label_1
_geom_bond_atom_site_label_2
_geom_bond_distance
_geom_bond_site_symmetry_2
Mg0 Mg9 3.096590 1_554
Mg0 Mg8 3.096590 1_555
Mg0 Mg7 3.096596 1_564
Mg0 Mg6 3.096596 1_565
Mg0 Mg13 3.116719 1_454
Mg0 Mg12 3.116719 1_455
Mg0 Mg2 3.153307 1_565
Mg0 Mg4 3.153308 1_555
Mg0 Nb0 3.167549 1_565
Mg0 Nb0 3.167549 1_555
Mg0 Mg2 3.181770 1_455
Mg0 Mg4 3.181770 1_455
Mg1 Mg3 3.155894 1_455
Mg1 Mg5 3.155894 1_455
Mg1 Mg12 3.156685 1_455
Mg1 Mg13 3.156685 1_455
Mg1 Sb0 3.167546 1_565
Mg1 Sb0 3.167546 1_555
Mg1 Mg3 3.179183 1_565
Mg1 Mg5 3.179183 1_555
Mg1 Mg8 3.199905 1_555
Mg1 Mg9 3.199905 1_555
Mg1 Mg6 3.199912 1_565
Mg1 Mg7 3.199912 1_565
Mg2 Mg7 3.096596 1_554
Mg2 Mg6 3.096596 1_555
Mg2 Mg4 3.153307 1_545
Mg2 Nb0 3.167549 1_555
Mg2 Nb0 3.167549 1_655
Mg2 Mg4 3.181770 1_555
Mg3 Mg5 3.155894 1_555
Mg3 Sb0 3.167546 1_555
Mg3 Sb0 3.167546 1_655
Mg3 Mg5 3.179183 1_545
Mg3 Mg6 3.199912 1_555
Mg3 Mg7 3.199912 1_555
Mg4 Mg9 3.096596 1_554
Mg4 Mg8 3.096596 1_555
Mg4 Nb0 3.167549 1_555
Mg4 Nb0 3.167549 1_665
Mg5 Sb0 3.167546 1_665
Mg5 Sb0 3.167546 1_555
Mg5 Mg8 3.199912 1_555
Mg5 Mg9 3.199912 1_555
Mg6 Nb0 3.062710 1_555
Mg6 Mg8 3.097042 1_555
Mg6 Sb0 3.162915 1_555
Mg6 Mg8 3.238035 1_545
Mg7 Nb0 3.062710 1_556
Mg7 Mg9 3.097042 1_555
Mg7 Sb0 3.162915 1_555
Mg7 Mg9 3.238035 1_545
Mg8 Nb0 3.062716 1_555
Mg8 Sb0 3.162921 1_555
Mg9 Nb0 3.062716 1_556
Mg9 Sb0 3.162921 1_555
Mg10 Nb0 3.062716 1_655
Mg10 Mg2 3.096590 1_555
Mg10 Mg4 3.096596 1_545
Mg10 Mg8 3.097042 1_655
Mg10 Mg6 3.097043 1_655
Mg10 Sb0 3.162921 1_655
Mg10 Mg12 3.167954 1_545
Mg10 Mg12 3.167954 1_555
Mg10 Mg3 3.199905 1_555
Mg10 Mg5 3.199911 1_545
Mg10 Mg8 3.238035 1_545
Mg10 Mg6 3.238035 1_555
Mg11 Nb0 3.062716 1_656
Mg11 Mg2 3.096590 1_556
Mg11 Mg4 3.096596 1_546
Mg11 Mg9 3.097042 1_655
Mg11 Mg7 3.097043 1_655
Mg11 Sb0 3.162921 1_655
Mg11 Mg13 3.167954 1_545
Mg11 Mg13 3.167954 1_555
Mg11 Mg3 3.199905 1_555
Mg11 Mg5 3.199911 1_545
Mg11 Mg9 3.238035 1_545
Mg11 Mg7 3.238035 1_555
Mg12 Mg4 3.116712 1_555
Mg12 Mg2 3.116719 1_555
Mg12 Mg5 3.156679 1_555
Mg12 Mg3 3.156685 1_555
Mg12 Mg6 3.167954 1_665
Mg12 Mg6 3.167954 1_555
Mg12 Mg8 3.167954 1_555
Mg12 Mg8 3.167954 1_655
Mg13 Mg4 3.116712 1_556
Mg13 Mg2 3.116719 1_556
Mg13 Mg5 3.156679 1_555
Mg13 Mg3 3.156685 1_555
Mg13 Mg7 3.167954 1_665
Mg13 Mg7 3.167954 1_555
Mg13 Mg9 3.167954 1_555
Mg13 Mg9 3.167954 1_655
