# generated using pymatgen
data_LiV2Zn2(SiO5)2
_symmetry_space_group_name_H-M   'P 1'
_cell_length_a   5.46908059
_cell_length_b   7.25891057
_cell_length_c   8.08800079
_cell_angle_alpha   90.51216999
_cell_angle_beta   40.77778615
_cell_angle_gamma   106.68019650
_symmetry_Int_Tables_number   1
_chemical_formula_structural   LiV2Zn2(SiO5)2
_chemical_formula_sum   'Li1 V2 Zn2 Si2 O10'
_cell_volume   189.41458985
_cell_formula_units_Z   1
loop_
 _symmetry_equiv_pos_site_id
 _symmetry_equiv_pos_as_xyz
  1  'x, y, z'
loop_
 _atom_site_type_symbol
 _atom_site_label
 _atom_site_symmetry_multiplicity
 _atom_site_fract_x
 _atom_site_fract_y
 _atom_site_fract_z
 _atom_site_occupancy
  Li  Li0  1  0.00078400  0.49938000  0.99957700  1
  V  V0  1  0.50192300  0.49918700  0.49985700  1
  V  V1  1  0.50132000  0.99916900  0.50022900  1
  Zn  Zn0  1  0.33893200  0.17908000  0.26420900  1
  Zn  Zn1  1  0.66314400  0.81885400  0.73649200  1
  Si  Si0  1  0.54750200  0.25326000  0.83004300  1
  Si  Si1  1  0.45549100  0.74527200  0.17023200  1
  O  O0  1  0.70215100  0.10564900  0.63946300  1
  O  O1  1  0.48889000  0.41978900  0.74243500  1
  O  O2  1  0.30029500  0.89260800  0.36111400  1
  O  O3  1  0.51463300  0.57884800  0.25749800  1
  O  O4  1  0.14141700  0.64617400  0.16916900  1
  O  O5  1  0.88946600  0.89195200  0.85298000  1
  O  O6  1  0.86154500  0.35222000  0.83113100  1
  O  O7  1  0.11324400  0.10665600  0.14734700  1
  O  O8  1  0.46735700  0.73144900  0.60627600  1
  O  O9  1  0.53525900  0.26690800  0.39401500  1
loop_
_geom_bond_atom_site_label_1
_geom_bond_atom_site_label_2
_geom_bond_distance
_geom_bond_site_symmetry_2
Li0 O3 2.052445 1_456
Li0 O1 2.059349 1_555
Li0 O6 2.157629 1_455
Li0 O4 2.170165 1_556
Li0 O8 2.191536 1_555
Li0 O9 2.199075 1_456
O0 Si0 1.660020 1_555
O0 V1 2.107683 1_545
O0 Zn1 2.125100 1_545
O0 Zn0 2.139959 1_655
O1 Si0 1.627215 1_555
O1 V0 1.992842 1_555
O2 Si1 1.659744 1_555
O2 V1 2.107788 1_555
O2 Zn0 2.123493 1_565
O2 Zn1 2.140642 1_455
O3 Si1 1.627113 1_555
O3 V0 1.993093 1_555
O4 Si1 1.667618 1_555
O4 V0 2.065392 1_455
O4 Zn1 2.204952 1_554
O5 Si1 1.650947 1_556
O5 V1 2.007186 1_655
O5 Zn1 2.020269 1_555
O6 Si0 1.667486 1_555
O6 V0 2.068198 1_655
O6 Zn0 2.207301 1_556
O7 Si0 1.651127 1_554
O7 V1 2.007390 1_445
O7 Zn0 2.019589 1_555
O8 V0 1.878738 1_555
O8 Zn1 1.991055 1_555
O8 V1 2.031771 1_555
O9 V0 1.877035 1_555
O9 Zn0 1.990954 1_555
O9 V1 2.032454 1_545
