# generated using pymatgen
data_LiAu3
_symmetry_space_group_name_H-M   'P 1'
_cell_length_a   5.60583159
_cell_length_b   5.60583159
_cell_length_c   4.81232373
_cell_angle_alpha   90.00000000
_cell_angle_beta   90.00000000
_cell_angle_gamma   120.00000598
_symmetry_Int_Tables_number   1
_chemical_formula_structural   LiAu3
_chemical_formula_sum   'Li2 Au6'
_cell_volume   130.96810187
_cell_formula_units_Z   2
loop_
 _symmetry_equiv_pos_site_id
 _symmetry_equiv_pos_as_xyz
  1  'x, y, z'
loop_
 _atom_site_type_symbol
 _atom_site_label
 _atom_site_symmetry_multiplicity
 _atom_site_fract_x
 _atom_site_fract_y
 _atom_site_fract_z
 _atom_site_occupancy
  Li  Li0  1  0.66666700  0.33333300  0.25000000  1
  Li  Li1  1  0.33333300  0.66666700  0.75000000  1
  Au  Au0  1  0.83146172  0.16853828  0.75000000  1
  Au  Au1  1  0.66292144  0.83146172  0.25000000  1
  Au  Au2  1  0.16853828  0.33707856  0.25000000  1
  Au  Au3  1  0.16853828  0.83146172  0.25000000  1
  Au  Au4  1  0.83146172  0.66292144  0.75000000  1
  Au  Au5  1  0.33707856  0.16853828  0.75000000  1
loop_
_geom_bond_atom_site_label_1
_geom_bond_atom_site_label_2
_geom_bond_distance
_geom_bond_site_symmetry_2
Au0 Au4 2.771429 1_555
Au0 Au5 2.771429 1_555
Au0 Li1 2.802974 1_655
Au0 Li1 2.802974 1_545
Au0 Au4 2.834403 1_545
Au0 Au5 2.834403 1_655
Au0 Li0 2.889619 1_556
Au0 Li0 2.889619 1_555
Au0 Au2 2.909904 1_655
Au0 Au1 2.909904 1_545
Au0 Au2 2.909904 1_656
Au0 Au1 2.909904 1_546
Au1 Au2 2.771428 1_555
Au1 Au3 2.771429 1_555
Au1 Li0 2.802966 1_565
Au1 Li0 2.802983 1_555
Au1 Au2 2.834403 1_665
Au1 Au3 2.834403 1_655
Au1 Li1 2.889616 1_555
Au1 Li1 2.889616 1_554
Au1 Au4 2.909915 1_554
Au1 Au4 2.909915 1_555
Au2 Au3 2.771429 1_555
Au2 Li0 2.802966 1_455
Au2 Li0 2.802983 1_555
Au2 Au3 2.834403 1_545
Au2 Li1 2.889616 1_555
Au2 Li1 2.889616 1_554
Au2 Au5 2.909915 1_554
Au2 Au5 2.909915 1_555
Au3 Li0 2.802974 1_565
Au3 Li0 2.802974 1_455
Au3 Li1 2.889619 1_554
Au3 Li1 2.889619 1_555
Au3 Au4 2.909904 1_454
Au3 Au4 2.909904 1_455
Au3 Au5 2.909904 1_565
Au3 Au5 2.909904 1_564
Au4 Au5 2.771428 1_555
Au4 Li1 2.802966 1_655
Au4 Li1 2.802983 1_555
Au4 Au5 2.834403 1_665
Au4 Li0 2.889616 1_556
Au4 Li0 2.889616 1_555
Au5 Li1 2.802966 1_545
Au5 Li1 2.802983 1_555
Au5 Li0 2.889616 1_556
Au5 Li0 2.889616 1_555
