# generated using pymatgen
data_CeMg14B
_symmetry_space_group_name_H-M   'P 1'
_cell_length_a   6.41051474
_cell_length_b   6.40841991
_cell_length_c   10.17347970
_cell_angle_alpha   89.98542774
_cell_angle_beta   90.02121868
_cell_angle_gamma   120.01991255
_symmetry_Int_Tables_number   1
_chemical_formula_structural   CeMg14B
_chemical_formula_sum   'Ce1 Mg14 B1'
_cell_volume   361.87352493
_cell_formula_units_Z   1
loop_
 _symmetry_equiv_pos_site_id
 _symmetry_equiv_pos_as_xyz
  1  'x, y, z'
loop_
 _atom_site_type_symbol
 _atom_site_label
 _atom_site_symmetry_multiplicity
 _atom_site_fract_x
 _atom_site_fract_y
 _atom_site_fract_z
 _atom_site_occupancy
  Ce  Ce0  1  0.16614767  0.33311724  0.12501474  1
  Mg  Mg0  1  0.18693996  0.84347479  0.12468852  1
  Mg  Mg1  1  0.15376571  0.82690707  0.62527402  1
  Mg  Mg2  1  0.65634117  0.31317033  0.12504343  1
  Mg  Mg3  1  0.67282645  0.34594660  0.62497441  1
  Mg  Mg4  1  0.65630023  0.84315606  0.12520719  1
  Mg  Mg5  1  0.67278152  0.82694167  0.62478132  1
  Mg  Mg6  1  0.32626553  0.17390638  0.39674574  1
  Mg  Mg7  1  0.32645095  0.17359706  0.85374793  1
  Mg  Mg8  1  0.32638769  0.65245835  0.39653707  1
  Mg  Mg9  1  0.32634380  0.65263139  0.85353933  1
  Mg  Mg10  1  0.84744984  0.17364240  0.39629356  1
  Mg  Mg11  1  0.84802070  0.17400344  0.85324863  1
  Mg  Mg12  1  0.83378862  0.66679304  0.35857276  1
  Mg  Mg13  1  0.83318779  0.66667834  0.89140317  1
  B  B0  1  0.16700237  0.33357584  0.62492819  1
loop_
_geom_bond_atom_site_label_1
_geom_bond_atom_site_label_2
_geom_bond_distance
_geom_bond_site_symmetry_2
Ce0 Mg4 3.205100 1_445
Ce0 Mg0 3.205980 1_555
Ce0 Mg2 3.206081 1_455
Ce0 Mg4 3.206242 1_555
Ce0 Mg0 3.206599 1_545
Ce0 Mg2 3.208255 1_555
Ce0 Mg10 3.278520 1_455
Ce0 Mg11 3.280152 1_454
Ce0 Mg9 3.281802 1_554
Ce0 Mg8 3.281922 1_555
Ce0 Mg7 3.282047 1_554
Ce0 Mg6 3.283460 1_555
Mg0 Mg2 3.008651 1_565
Mg0 Mg4 3.009866 1_555
Mg0 Mg13 3.079848 1_454
Mg0 Mg12 3.083273 1_455
Mg0 Mg7 3.313446 1_564
Mg0 Mg9 3.316773 1_554
Mg0 Mg8 3.322310 1_555
Mg0 Mg6 3.324302 1_565
Mg0 Mg2 3.398892 1_455
Mg0 Mg4 3.400658 1_455
Mg1 Mg9 3.016155 1_555
Mg1 Mg7 3.017292 1_565
Mg1 Mg6 3.018577 1_565
Mg1 Mg8 3.021687 1_555
Mg1 Mg3 3.081706 1_455
Mg1 Mg5 3.083469 1_455
Mg1 Mg13 3.240256 1_455
Mg1 Mg12 3.242458 1_455
Mg1 Mg3 3.325835 1_565
Mg1 Mg5 3.327053 1_555
Mg2 Mg4 3.011918 1_545
Mg2 Mg7 3.315754 1_554
Mg2 Mg6 3.320821 1_555
Mg2 Mg4 3.396503 1_555
Mg3 Mg6 3.014788 1_555
Mg3 Mg7 3.019231 1_555
Mg3 Mg5 3.082563 1_555
Mg3 Mg5 3.325859 1_545
Mg4 Mg8 3.316989 1_555
Mg4 Mg9 3.319138 1_554
Mg5 Mg8 3.014317 1_555
Mg5 Mg9 3.019326 1_555
Mg6 Mg8 3.066370 1_555
Mg6 Mg8 3.342051 1_545
Mg7 Mg9 3.070197 1_555
Mg7 Mg9 3.338224 1_545
Mg10 Mg5 3.017211 1_545
Mg10 Mg3 3.020749 1_555
Mg10 Mg8 3.068423 1_655
Mg10 Mg6 3.068611 1_655
Mg10 Mg12 3.227821 1_555
Mg10 Mg12 3.228172 1_545
Mg10 Mg4 3.316124 1_545
Mg10 Mg2 3.317813 1_555
Mg10 Mg8 3.339117 1_545
Mg10 Mg6 3.341911 1_555
Mg11 Mg3 3.017245 1_555
Mg11 Mg5 3.018567 1_545
Mg11 Mg9 3.065851 1_655
Mg11 Mg7 3.068290 1_655
Mg11 Mg13 3.227966 1_545
Mg11 Mg13 3.229411 1_555
Mg11 Mg2 3.324350 1_556
Mg11 Mg4 3.324598 1_546
Mg11 Mg9 3.341691 1_545
Mg11 Mg7 3.342234 1_555
Mg12 Mg4 3.080882 1_555
Mg12 Mg2 3.081441 1_555
Mg12 Mg6 3.226869 1_665
Mg12 Mg8 3.227807 1_655
Mg12 Mg6 3.229625 1_555
Mg12 Mg8 3.231038 1_555
Mg12 Mg3 3.242537 1_555
Mg12 Mg5 3.242949 1_555
Mg13 Mg2 3.081664 1_556
Mg13 Mg4 3.083692 1_556
Mg13 Mg7 3.226884 1_555
Mg13 Mg9 3.227967 1_555
Mg13 Mg7 3.228073 1_665
Mg13 Mg9 3.230559 1_655
Mg13 Mg3 3.242653 1_555
Mg13 Mg5 3.243905 1_555
B0 Mg6 2.920028 1_555
B0 Mg8 2.920430 1_555
B0 Mg11 2.921050 1_455
B0 Mg9 2.923018 1_555
B0 Mg10 2.924721 1_455
B0 Mg7 2.925833 1_555
