# generated using pymatgen
data_Mn4VN4
_symmetry_space_group_name_H-M   'P 1'
_cell_length_a   4.96246035
_cell_length_b   4.96093768
_cell_length_c   7.69229523
_cell_angle_alpha   72.22577636
_cell_angle_beta   84.60372648
_cell_angle_gamma   70.00191014
_symmetry_Int_Tables_number   1
_chemical_formula_structural   Mn4VN4
_chemical_formula_sum   'Mn8 V2 N8'
_cell_volume   169.44838324
_cell_formula_units_Z   2
loop_
 _symmetry_equiv_pos_site_id
 _symmetry_equiv_pos_as_xyz
  1  'x, y, z'
loop_
 _atom_site_type_symbol
 _atom_site_label
 _atom_site_symmetry_multiplicity
 _atom_site_fract_x
 _atom_site_fract_y
 _atom_site_fract_z
 _atom_site_occupancy
  Mn  Mn0  1  0.73669600  0.62687100  0.21554900  1
  Mn  Mn1  1  0.26330400  0.37312900  0.78445100  1
  Mn  Mn2  1  0.74114100  0.25960700  0.99960200  1
  Mn  Mn3  1  0.25885900  0.74039300  0.00039800  1
  Mn  Mn4  1  0.75442100  0.45063000  0.60121500  1
  Mn  Mn5  1  0.24557900  0.54937000  0.39878500  1
  Mn  Mn6  1  0.25011000  0.95335900  0.60525800  1
  Mn  Mn7  1  0.74989000  0.04664100  0.39474200  1
  V  V0  1  0.74328900  0.85091000  0.78149800  1
  V  V1  1  0.25671100  0.14909000  0.21850200  1
  N  N0  1  0.00183800  0.70465100  0.59689400  1
  N  N1  1  0.99816200  0.29534900  0.40310600  1
  N  N2  1  0.85297900  0.84883600  0.00641100  1
  N  N3  1  0.14702100  0.15116400  0.99358900  1
  N  N4  1  0.50147600  0.59592200  0.81177900  1
  N  N5  1  0.49852400  0.40407800  0.18822100  1
  N  N6  1  0.49840000  0.79942900  0.39782600  1
  N  N7  1  0.50160000  0.20057100  0.60217400  1
loop_
_geom_bond_atom_site_label_1
_geom_bond_atom_site_label_2
_geom_bond_distance
_geom_bond_site_symmetry_2
Mn0 N2 1.819908 1_555
Mn0 N5 1.935152 1_555
Mn0 N6 1.955949 1_555
Mn0 N1 1.978327 1_555
Mn1 N3 1.819908 1_555
Mn1 N4 1.935152 1_555
Mn1 N7 1.955949 1_555
Mn1 N0 1.978327 1_555
Mn2 N3 1.898668 1_655
Mn2 N2 1.905301 1_546
Mn2 N4 1.944184 1_555
Mn2 N5 1.945379 1_556
Mn3 N2 1.898668 1_455
Mn3 N3 1.905301 1_564
Mn3 N5 1.944184 1_555
Mn3 N4 1.945379 1_554
Mn4 N1 2.027678 1_555
Mn4 N0 2.030193 1_655
Mn4 N7 2.042112 1_555
Mn4 N6 2.067228 1_555
Mn4 N4 2.104798 1_555
Mn5 N0 2.027678 1_555
Mn5 N1 2.030193 1_455
Mn5 N6 2.042112 1_555
Mn5 N7 2.067228 1_555
Mn5 N5 2.104798 1_555
Mn6 N7 2.021310 1_565
Mn6 N0 2.036539 1_555
Mn6 N1 2.040535 1_465
Mn6 N4 2.089016 1_555
Mn6 N6 2.092343 1_555
Mn7 N6 2.021310 1_545
Mn7 N1 2.036539 1_555
Mn7 N0 2.040535 1_645
Mn7 N5 2.089016 1_555
Mn7 N7 2.092343 1_555
N0 V0 1.959277 1_455
N1 V1 1.959277 1_655
N2 V0 1.857975 1_554
N3 V1 1.857975 1_556
N4 V0 1.974888 1_555
N5 V1 1.974888 1_555
N6 V1 1.943595 1_565
N7 V0 1.943595 1_545
