# generated using pymatgen
data_Mg2Sb
_symmetry_space_group_name_H-M   'P 1'
_cell_length_a   5.43886598
_cell_length_b   5.43886598
_cell_length_c   5.43404200
_cell_angle_alpha   90.00000000
_cell_angle_beta   90.00000000
_cell_angle_gamma   115.75847654
_symmetry_Int_Tables_number   1
_chemical_formula_structural   Mg2Sb
_chemical_formula_sum   'Mg4 Sb2'
_cell_volume   144.77314953
_cell_formula_units_Z   2
loop_
 _symmetry_equiv_pos_site_id
 _symmetry_equiv_pos_as_xyz
  1  'x, y, z'
loop_
 _atom_site_type_symbol
 _atom_site_label
 _atom_site_symmetry_multiplicity
 _atom_site_fract_x
 _atom_site_fract_y
 _atom_site_fract_z
 _atom_site_occupancy
  Mg  Mg0  1  0.02392500  0.34793600  0.75000000  1
  Mg  Mg1  1  0.34793600  0.02392500  0.75000000  1
  Mg  Mg2  1  0.65206400  0.97607500  0.25000000  1
  Mg  Mg3  1  0.97607500  0.65206400  0.25000000  1
  Sb  Sb0  1  0.70515900  0.70515900  0.75000000  1
  Sb  Sb1  1  0.29484100  0.29484100  0.25000000  1
loop_
_geom_bond_atom_site_label_1
_geom_bond_atom_site_label_2
_geom_bond_distance
_geom_bond_site_symmetry_2
Mg0 Sb0 3.115817 1_455
Mg0 Sb0 3.155891 1_445
Mg0 Sb1 3.163314 1_555
Mg0 Sb1 3.163314 1_556
Mg0 Sb0 3.353521 1_555
Mg1 Sb0 3.115817 1_545
Mg1 Sb0 3.155891 1_445
Mg1 Sb1 3.163314 1_556
Mg1 Sb1 3.163314 1_555
Mg1 Sb0 3.353521 1_555
Mg2 Sb1 3.115817 1_565
Mg2 Sb1 3.155891 1_665
Mg2 Sb0 3.163314 1_555
Mg2 Sb0 3.163314 1_554
Mg2 Sb1 3.353521 1_555
Mg3 Sb1 3.115817 1_655
Mg3 Sb1 3.155891 1_665
Mg3 Sb0 3.163314 1_555
Mg3 Sb0 3.163314 1_554
Mg3 Sb1 3.353521 1_555
