# generated using pymatgen
data_Ba2Cd(BO2)6
_symmetry_space_group_name_H-M   'P 1'
_cell_length_a   7.25779804
_cell_length_b   7.25779804
_cell_length_c   7.25779872
_cell_angle_alpha   59.75730972
_cell_angle_beta   59.75730972
_cell_angle_gamma   59.75730721
_symmetry_Int_Tables_number   1
_chemical_formula_structural   Ba2Cd(BO2)6
_chemical_formula_sum   'Ba2 Cd1 B6 O12'
_cell_volume   268.84364290
_cell_formula_units_Z   1
loop_
 _symmetry_equiv_pos_site_id
 _symmetry_equiv_pos_as_xyz
  1  'x, y, z'
loop_
 _atom_site_type_symbol
 _atom_site_label
 _atom_site_symmetry_multiplicity
 _atom_site_fract_x
 _atom_site_fract_y
 _atom_site_fract_z
 _atom_site_occupancy
  Ba  Ba0  1  0.79146600  0.79146600  0.79146600  1
  Ba  Ba1  1  0.20853400  0.20853400  0.20853400  1
  Cd  Cd0  1  0.00000000  0.00000000  0.00000000  1
  B  B0  1  0.36753400  0.63289100  0.75637800  1
  B  B1  1  0.63289100  0.75637800  0.36753400  1
  B  B2  1  0.75637800  0.36753400  0.63289100  1
  B  B3  1  0.63246600  0.36710900  0.24362200  1
  B  B4  1  0.36710900  0.24362200  0.63246600  1
  B  B5  1  0.24362200  0.63246600  0.36710900  1
  O  O0  1  0.16338300  0.66389800  0.91426600  1
  O  O1  1  0.66389800  0.91426600  0.16338300  1
  O  O2  1  0.91426600  0.16338300  0.66389800  1
  O  O3  1  0.83661700  0.33610200  0.08573400  1
  O  O4  1  0.33610200  0.08573400  0.83661700  1
  O  O5  1  0.08573400  0.83661700  0.33610200  1
  O  O6  1  0.54241000  0.42226900  0.79785200  1
  O  O7  1  0.42226900  0.79785200  0.54241000  1
  O  O8  1  0.79785200  0.54241000  0.42226900  1
  O  O9  1  0.45759000  0.57773100  0.20214800  1
  O  O10  1  0.57773100  0.20214800  0.45759000  1
  O  O11  1  0.20214800  0.45759000  0.57773100  1
loop_
_geom_bond_atom_site_label_1
_geom_bond_atom_site_label_2
_geom_bond_distance
_geom_bond_site_symmetry_2
Ba0 O2 2.830627 1_565
Ba0 O0 2.830627 1_655
Ba0 O1 2.830628 1_556
Ba0 O4 2.845212 1_565
Ba0 O3 2.845212 1_556
Ba0 O5 2.845212 1_655
Ba0 O11 3.002637 1_655
Ba0 O10 3.002637 1_565
Ba0 O9 3.002637 1_556
Ba1 O5 2.830627 1_545
Ba1 O3 2.830627 1_455
Ba1 O4 2.830628 1_554
Ba1 O1 2.845212 1_545
Ba1 O0 2.845212 1_554
Ba1 O2 2.845212 1_455
Ba1 O8 3.002637 1_455
Ba1 O7 3.002637 1_545
Ba1 O6 3.002637 1_554
Cd0 O3 2.369752 1_455
Cd0 O0 2.369752 1_544
Cd0 O4 2.369752 1_554
Cd0 O1 2.369752 1_445
Cd0 O5 2.369752 1_545
Cd0 O2 2.369752 1_454
B0 O0 1.331435 1_555
B0 O7 1.409832 1_555
B0 O6 1.416058 1_555
B1 O1 1.331435 1_555
B1 O8 1.409832 1_555
B1 O7 1.416058 1_555
B2 O2 1.331435 1_555
B2 O6 1.409832 1_555
B2 O8 1.416058 1_555
B3 O3 1.331435 1_555
B3 O10 1.409832 1_555
B3 O9 1.416058 1_555
B4 O4 1.331435 1_555
B4 O11 1.409832 1_555
B4 O10 1.416058 1_555
B5 O5 1.331435 1_555
B5 O9 1.409832 1_555
B5 O11 1.416058 1_555
