# generated using pymatgen
data_Ho5(In2Pt)2
_symmetry_space_group_name_H-M   'P 1'
_cell_length_a   3.60929981
_cell_length_b   8.03796694
_cell_length_c   18.09545145
_cell_angle_alpha   90.00000000
_cell_angle_beta   90.00000000
_cell_angle_gamma   90.00000000
_symmetry_Int_Tables_number   1
_chemical_formula_structural   Ho5(In2Pt)2
_chemical_formula_sum   'Ho10 In8 Pt4'
_cell_volume   524.97496919
_cell_formula_units_Z   2
loop_
 _symmetry_equiv_pos_site_id
 _symmetry_equiv_pos_as_xyz
  1  'x, y, z'
loop_
 _atom_site_type_symbol
 _atom_site_label
 _atom_site_symmetry_multiplicity
 _atom_site_fract_x
 _atom_site_fract_y
 _atom_site_fract_z
 _atom_site_occupancy
  Ho  Ho0  1  -0.00000000  0.11527821  0.41547096  1
  Ho  Ho1  1  0.00000000  0.88472179  0.58452904  1
  Ho  Ho2  1  -0.00000000  0.38472179  0.91547096  1
  Ho  Ho3  1  -0.00000000  0.61527821  0.08452904  1
  Ho  Ho4  1  0.00000000  0.24317838  0.22041026  1
  Ho  Ho5  1  0.00000000  0.75682162  0.77958974  1
  Ho  Ho6  1  -0.00000000  0.25682162  0.72041026  1
  Ho  Ho7  1  -0.00000000  0.74317838  0.27958974  1
  Ho  Ho8  1  -0.00000000  -0.00000000  0.00000000  1
  Ho  Ho9  1  -0.00000000  0.50000000  0.50000000  1
  In  In0  1  0.50000000  0.42398076  0.35134055  1
  In  In1  1  0.50000000  0.57601924  0.64865945  1
  In  In2  1  0.50000000  0.07601924  0.85134055  1
  In  In3  1  0.50000000  0.92398076  0.14865945  1
  In  In4  1  0.50000000  0.28992803  0.06765888  1
  In  In5  1  0.50000000  0.71007197  0.93234112  1
  In  In6  1  0.50000000  0.21007197  0.56765888  1
  In  In7  1  0.50000000  0.78992803  0.43234112  1
  Pt  Pt0  1  0.50000000  0.02661255  0.30384386  1
  Pt  Pt1  1  0.50000000  0.97338745  0.69615614  1
  Pt  Pt2  1  0.50000000  0.47338745  0.80384386  1
  Pt  Pt3  1  0.50000000  0.52661255  0.19615614  1
loop_
_geom_bond_atom_site_label_1
_geom_bond_atom_site_label_2
_geom_bond_distance
_geom_bond_site_symmetry_2
Ho0 Pt0 2.800868 1_455
Ho0 Pt0 2.800868 1_555
Ho0 In7 3.192019 1_545
Ho0 In7 3.192019 1_445
Ho0 In0 3.280320 1_455
Ho0 In0 3.280320 1_555
Ho0 In6 3.379548 1_455
Ho0 In6 3.379548 1_555
Ho1 Pt1 2.800868 1_455
Ho1 Pt1 2.800868 1_555
Ho1 In6 3.192019 1_465
Ho1 In6 3.192019 1_565
Ho1 In1 3.280320 1_555
Ho1 In1 3.280320 1_455
Ho1 In7 3.379548 1_455
Ho1 In7 3.379548 1_555
Ho2 Pt2 2.800868 1_555
Ho2 Pt2 2.800868 1_455
Ho2 In5 3.192019 1_455
Ho2 In5 3.192019 1_555
Ho2 In2 3.280320 1_455
Ho2 In2 3.280320 1_555
Ho2 In4 3.379548 1_456
Ho2 In4 3.379548 1_556
Ho3 Pt3 2.800868 1_455
Ho3 Pt3 2.800868 1_555
Ho3 In4 3.192019 1_555
Ho3 In4 3.192019 1_455
Ho3 In3 3.280320 1_455
Ho3 In3 3.280320 1_555
Ho3 In5 3.379548 1_454
Ho3 In5 3.379548 1_554
Ho4 Pt0 2.926836 1_455
Ho4 Pt0 2.926836 1_555
Ho4 Pt3 2.939343 1_555
Ho4 Pt3 2.939343 1_455
Ho4 In0 3.313926 1_555
Ho4 In0 3.313926 1_455
Ho4 In4 3.322385 1_555
Ho4 In4 3.322385 1_455
Ho4 In3 3.394897 1_445
Ho4 In3 3.394897 1_545
Ho5 Pt1 2.926836 1_555
Ho5 Pt1 2.926836 1_455
Ho5 Pt2 2.939343 1_455
Ho5 Pt2 2.939343 1_555
Ho5 In1 3.313926 1_455
Ho5 In1 3.313926 1_555
Ho5 In5 3.322385 1_555
Ho5 In5 3.322385 1_455
Ho5 In2 3.394897 1_465
Ho5 In2 3.394897 1_565
Ho6 Pt2 2.926836 1_555
Ho6 Pt2 2.926836 1_455
Ho6 Pt1 2.939343 1_545
Ho6 Pt1 2.939343 1_445
Ho6 In2 3.313926 1_455
Ho6 In2 3.313926 1_555
Ho6 In6 3.322385 1_555
Ho6 In6 3.322385 1_455
Ho6 In1 3.394897 1_555
Ho6 In1 3.394897 1_455
Ho7 Pt3 2.926836 1_455
Ho7 Pt3 2.926836 1_555
Ho7 Pt0 2.939343 1_565
Ho7 Pt0 2.939343 1_465
Ho7 In3 3.313926 1_555
Ho7 In3 3.313926 1_455
Ho7 In7 3.322385 1_455
Ho7 In7 3.322385 1_555
Ho7 In0 3.394897 1_455
Ho7 In0 3.394897 1_555
Ho8 In4 3.191650 1_555
Ho8 In5 3.191650 1_444
Ho8 In5 3.191650 1_544
Ho8 In4 3.191650 1_455
Ho8 In3 3.296446 1_545
Ho8 In3 3.296446 1_445
Ho8 In2 3.296446 1_554
Ho8 In2 3.296446 1_454
Ho9 In6 3.191650 1_555
Ho9 In7 3.191650 1_455
Ho9 In7 3.191650 1_555
Ho9 In6 3.191650 1_455
Ho9 In1 3.296446 1_455
Ho9 In0 3.296446 1_555
Ho9 In1 3.296446 1_555
Ho9 In0 3.296446 1_455
In0 Pt3 2.926798 1_555
In0 In7 3.286435 1_555
In0 Pt0 3.307649 1_555
In1 Pt2 2.926798 1_555
In1 In6 3.286435 1_555
In1 Pt1 3.307649 1_555
In2 Pt1 2.926798 1_545
In2 In5 3.286435 1_545
In2 Pt2 3.307649 1_555
In3 Pt0 2.926798 1_565
In3 In4 3.286435 1_565
In3 Pt3 3.307649 1_555
In4 Pt3 3.004329 1_555
In5 Pt2 3.004329 1_555
In6 Pt1 3.004329 1_545
In7 Pt0 3.004329 1_565
