# generated using pymatgen
data_CeVO4
_symmetry_space_group_name_H-M   'P 1'
_cell_length_a   7.25672600
_cell_length_b   6.73294600
_cell_length_c   8.34824562
_cell_angle_alpha   54.96156723
_cell_angle_beta   90.00000000
_cell_angle_gamma   90.00000000
_symmetry_Int_Tables_number   1
_chemical_formula_structural   CeVO4
_chemical_formula_sum   'Ce4 V4 O16'
_cell_volume   333.96539436
_cell_formula_units_Z   4
loop_
 _symmetry_equiv_pos_site_id
 _symmetry_equiv_pos_as_xyz
  1  'x, y, z'
loop_
 _atom_site_type_symbol
 _atom_site_label
 _atom_site_symmetry_multiplicity
 _atom_site_fract_x
 _atom_site_fract_y
 _atom_site_fract_z
 _atom_site_occupancy
  Ce  Ce0  1  0.34670100  0.81445200  0.78336400  1
  Ce  Ce1  1  0.15329900  0.81445200  0.28336400  1
  Ce  Ce2  1  0.65329900  0.18554800  0.21663600  1
  Ce  Ce3  1  0.84670100  0.18554800  0.71663600  1
  V  V0  1  0.33660900  0.30973600  0.80074500  1
  V  V1  1  0.16339100  0.30973600  0.30074500  1
  V  V2  1  0.66339100  0.69026400  0.19925500  1
  V  V3  1  0.83660900  0.69026400  0.69925500  1
  O  O0  1  0.50766700  0.17073800  0.74630000  1
  O  O1  1  0.99233300  0.17073800  0.24630000  1
  O  O2  1  0.49233300  0.82926200  0.25370000  1
  O  O3  1  0.00766700  0.82926200  0.75370000  1
  O  O4  1  0.15441900  0.10387500  0.88867600  1
  O  O5  1  0.34558100  0.10387500  0.38867600  1
  O  O6  1  0.84558100  0.89612500  0.11132400  1
  O  O7  1  0.65441900  0.89612500  0.61132400  1
  O  O8  1  0.39554200  0.34686000  0.98394300  1
  O  O9  1  0.10445800  0.34686000  0.48394300  1
  O  O10  1  0.60445800  0.65314000  0.01605700  1
  O  O11  1  0.89554200  0.65314000  0.51605700  1
  O  O12  1  0.28019200  0.61199900  0.61825300  1
  O  O13  1  0.21980800  0.61199900  0.11825300  1
  O  O14  1  0.71980800  0.38800100  0.38174700  1
  O  O15  1  0.78019200  0.38800100  0.88174700  1
loop_
_geom_bond_atom_site_label_1
_geom_bond_atom_site_label_2
_geom_bond_distance
_geom_bond_site_symmetry_2
Ce0 O10 2.455457 1_556
Ce0 O3 2.468983 1_555
Ce0 O13 2.479166 1_556
Ce0 O12 2.479593 1_555
Ce0 O0 2.522375 1_565
Ce0 O7 2.538638 1_555
Ce0 O8 2.605351 1_555
Ce0 O5 2.698412 1_565
Ce0 O4 2.912803 1_565
Ce1 O11 2.455457 1_455
Ce1 O2 2.468983 1_555
Ce1 O12 2.479166 1_555
Ce1 O13 2.479593 1_555
Ce1 O1 2.522375 1_465
Ce1 O6 2.538638 1_455
Ce1 O9 2.605351 1_555
Ce1 O4 2.698412 1_564
Ce1 O5 2.912803 1_565
Ce2 O8 2.455457 1_554
Ce2 O1 2.468983 1_555
Ce2 O15 2.479166 1_554
Ce2 O14 2.479593 1_555
Ce2 O2 2.522375 1_545
Ce2 O5 2.538638 1_555
Ce2 O10 2.605351 1_555
Ce2 O7 2.698412 1_545
Ce2 O6 2.912803 1_545
Ce3 O9 2.455457 1_655
Ce3 O0 2.468983 1_555
Ce3 O14 2.479166 1_555
Ce3 O15 2.479593 1_555
Ce3 O3 2.522375 1_645
Ce3 O4 2.538638 1_655
Ce3 O11 2.605351 1_555
Ce3 O6 2.698412 1_546
Ce3 O7 2.912803 1_545
O0 V0 1.764013 1_555
O1 V1 1.764013 1_655
O2 V2 1.764013 1_555
O3 V3 1.764013 1_455
O4 V0 1.743460 1_555
O5 V1 1.743460 1_555
O6 V2 1.743460 1_555
O7 V3 1.743460 1_555
O8 V0 1.738772 1_555
O9 V1 1.738772 1_555
O10 V2 1.738772 1_555
O11 V3 1.738772 1_555
O12 V0 1.752201 1_555
O13 V1 1.752201 1_555
O14 V2 1.752201 1_555
O15 V3 1.752201 1_555
