# generated using pymatgen
data_Sr5Ca3FeCo7O20
_symmetry_space_group_name_H-M   'P 1'
_cell_length_a   10.80013392
_cell_length_b   11.20970805
_cell_length_c   17.55641811
_cell_angle_alpha   108.71900564
_cell_angle_beta   108.16629227
_cell_angle_gamma   89.38652774
_symmetry_Int_Tables_number   1
_chemical_formula_structural   Sr5Ca3FeCo7O20
_chemical_formula_sum   'Sr20 Ca12 Fe4 Co28 O80'
_cell_volume   1903.26981863
_cell_formula_units_Z   4
loop_
 _symmetry_equiv_pos_site_id
 _symmetry_equiv_pos_as_xyz
  1  'x, y, z'
loop_
 _atom_site_type_symbol
 _atom_site_label
 _atom_site_symmetry_multiplicity
 _atom_site_fract_x
 _atom_site_fract_y
 _atom_site_fract_z
 _atom_site_occupancy
  Sr  Sr0  1  0.30750821  0.05947921  0.60891379  1
  Sr  Sr1  1  0.30557725  0.56602589  0.60925106  1
  Sr  Sr2  1  0.80701020  0.06036514  0.61068922  1
  Sr  Sr3  1  0.81231651  0.56062676  0.61236819  1
  Sr  Sr4  1  0.19435677  0.43772701  0.38354249  1
  Sr  Sr5  1  0.19979634  0.43771015  0.89406824  1
  Sr  Sr6  1  0.69486502  0.43499901  0.38348038  1
  Sr  Sr7  1  0.69377420  0.93501225  0.38345765  1
  Sr  Sr8  1  0.70149977  0.93967084  0.89186959  1
  Sr  Sr9  1  0.05756039  0.29567324  0.61039858  1
  Sr  Sr10  1  0.05910280  0.80253028  0.61095181  1
  Sr  Sr11  1  0.56081999  0.29575752  0.61140638  1
  Sr  Sr12  1  0.55634746  0.80092197  0.61149003  1
  Sr  Sr13  1  0.44285687  0.19882257  0.38311990  1
  Sr  Sr14  1  0.44673390  0.20674789  0.89257393  1
  Sr  Sr15  1  0.44075424  0.69713211  0.38328873  1
  Sr  Sr16  1  0.45259168  0.70459240  0.89428330  1
  Sr  Sr17  1  0.94644252  0.19864022  0.38343403  1
  Sr  Sr18  1  0.94347260  0.19965221  0.89146109  1
  Sr  Sr19  1  0.94674538  0.70111187  0.38361772  1
  Ca  Ca0  1  0.30380897  0.06374459  0.10916154  1
  Ca  Ca1  1  0.30419800  0.56678183  0.10882138  1
  Ca  Ca2  1  0.80269512  0.06798305  0.10883154  1
  Ca  Ca3  1  0.80299717  0.56974010  0.10890486  1
  Ca  Ca4  1  0.19182531  0.93198480  0.38817606  1
  Ca  Ca5  1  0.19164486  0.93471003  0.89438265  1
  Ca  Ca6  1  0.69823040  0.43569470  0.89630269  1
  Ca  Ca7  1  0.04836470  0.29007234  0.11011576  1
  Ca  Ca8  1  0.06050690  0.79451298  0.11062536  1
  Ca  Ca9  1  0.54852189  0.29356425  0.10954432  1
  Ca  Ca10  1  0.55613054  0.79306730  0.10973601  1
  Ca  Ca11  1  0.95407239  0.71258617  0.89693813  1
  Fe  Fe0  1  0.10686992  0.59727935  0.75525297  1
  Fe  Fe1  1  0.61611005  0.59135993  0.75527800  1
  Fe  Fe2  1  0.36208245  0.41121161  0.75155516  1
  Fe  Fe3  1  0.35898649  0.91235712  0.75591852  1
  Co  Co0  1  0.01126256  0.00470750  0.01074199  1
  Co  Co1  1  0.00188826  0.99846724  0.49633682  1
  Co  Co2  1  0.00716406  0.50415759  0.00576109  1
  Co  Co3  1  0.00361100  0.50053671  0.49868903  1
  Co  Co4  1  0.50563279  0.00211531  0.00356908  1
  Co  Co5  1  0.49892191  0.99631363  0.49332710  1
  Co  Co6  1  0.51094396  0.50450510  0.00828432  1
  Co  Co7  1  0.50545102  0.50383495  0.50400435  1
  Co  Co8  1  0.25663699  0.25279983  0.00868301  1
  Co  Co9  1  0.25270104  0.24761891  0.49914582  1
  Co  Co10  1  0.26045653  0.75296383  0.00490422  1
  Co  Co11  1  0.25240227  0.75124163  0.49950167  1
  Co  Co12  1  0.75643914  0.25550575  0.00927341  1
  Co  Co13  1  0.75073924  0.24524733  0.49258312  1
  Co  Co14  1  0.76201373  0.75157625  0.00480024  1
  Co  Co15  1  0.75351549  0.74877019  0.49757248  1
  Co  Co16  1  0.10695177  0.08729003  0.24655138  1
  Co  Co17  1  0.11028247  0.09298396  0.75335037  1
  Co  Co18  1  0.10435400  0.59198527  0.24161411  1
  Co  Co19  1  0.60506553  0.08772396  0.24355396  1
  Co  Co20  1  0.61115951  0.09841679  0.75245765  1
  Co  Co21  1  0.60620749  0.59033873  0.24392039  1
  Co  Co22  1  0.35405330  0.40392481  0.24214258  1
  Co  Co23  1  0.35561414  0.90327922  0.24643296  1
  Co  Co24  1  0.85642016  0.40567397  0.24435851  1
  Co  Co25  1  0.86028941  0.41040090  0.75835453  1
  Co  Co26  1  0.86047024  0.90383840  0.24314580  1
  Co  Co27  1  0.86358237  0.90365558  0.75081187  1
  O  O0  1  0.11951232  0.11373649  0.48757241  1
  O  O1  1  0.11846309  0.11366147  0.99474999  1
  O  O2  1  0.12181822  0.62070597  0.49014452  1
  O  O3  1  0.12200615  0.61853361  0.99457398  1
  O  O4  1  0.62127869  0.11734734  0.49146696  1
  O  O5  1  0.61945523  0.12237902  0.99934882  1
  O  O6  1  0.61964525  0.61136349  0.49174464  1
  O  O7  1  0.63068367  0.61572507  0.99150416  1
  O  O8  1  0.13738231  0.37094452  0.01584515  1
  O  O9  1  0.13669880  0.37083465  0.50335974  1
  O  O10  1  0.14226923  0.88252461  0.01557841  1
  O  O11  1  0.12864270  0.87658522  0.50032324  1
  O  O12  1  0.63162933  0.38535564  0.01612606  1
  O  O13  1  0.63672230  0.36689396  0.50326930  1
  O  O14  1  0.64886189  0.87558981  0.01835020  1
  O  O15  1  0.63162712  0.86620818  0.50204769  1
  O  O16  1  0.36721863  0.12413308  0.48886812  1
  O  O17  1  0.36239063  0.12262509  0.99175765  1
  O  O18  1  0.37152672  0.62257954  0.48969258  1
  O  O19  1  0.38578938  0.61991243  0.99907432  1
  O  O20  1  0.87163626  0.12533772  0.49322688  1
  O  O21  1  0.87428926  0.12165520  0.99699134  1
  O  O22  1  0.86910670  0.62593468  0.49168087  1
  O  O23  1  0.87575888  0.62958750  0.99170572  1
  O  O24  1  0.38764123  0.38914557  0.02064550  1
  O  O25  1  0.38933373  0.38507188  0.50438478  1
  O  O26  1  0.39614091  0.89047524  0.01635089  1
  O  O27  1  0.37662414  0.88049210  0.50013879  1
  O  O28  1  0.88757752  0.39394985  0.01505647  1
  O  O29  1  0.88382111  0.37968557  0.50389101  1
  O  O30  1  0.89855464  0.88919288  0.01558167  1
  O  O31  1  0.88074948  0.88346101  0.50281382  1
  O  O32  1  0.09453483  0.10237009  0.14334101  1
  O  O33  1  0.08235698  0.08865577  0.64447414  1
  O  O34  1  0.09039358  0.60324493  0.13743968  1
  O  O35  1  0.07826830  0.59622842  0.64355711  1
  O  O36  1  0.58696666  0.10511783  0.14145310  1
  O  O37  1  0.57988513  0.09058743  0.64278729  1
  O  O38  1  0.59662142  0.60811530  0.14273127  1
  O  O39  1  0.58674765  0.59043768  0.64219177  1
  O  O40  1  0.43334125  0.40604288  0.35000369  1
  O  O41  1  0.44788240  0.40689776  0.86124877  1
  O  O42  1  0.43807608  0.90846348  0.35507769  1
  O  O43  1  0.45120257  0.90906407  0.86684754  1
  O  O44  1  0.93374899  0.40929587  0.35320160  1
  O  O45  1  0.94276244  0.40540862  0.86463644  1
  O  O46  1  0.93923417  0.90984288  0.35205125  1
  O  O47  1  0.94775500  0.89621588  0.85646958  1
  O  O48  1  0.33783887  0.28278780  0.14003818  1
  O  O49  1  0.33021119  0.29733661  0.63931377  1
  O  O50  1  0.34056919  0.78750495  0.14316578  1
  O  O51  1  0.32981495  0.80226029  0.64343894  1
  O  O52  1  0.84295026  0.28659514  0.14306297  1
  O  O53  1  0.83404159  0.30660342  0.65006111  1
  O  O54  1  0.84811292  0.78611871  0.14070156  1
  O  O55  1  0.82940090  0.80064896  0.63970085  1
  O  O56  1  0.18394809  0.19837956  0.35389882  1
  O  O57  1  0.18948619  0.20686603  0.85832587  1
  O  O58  1  0.18104485  0.70255843  0.34787001  1
  O  O59  1  0.19760925  0.71478635  0.86372190  1
  O  O60  1  0.68519338  0.19270899  0.35444001  1
  O  O61  1  0.68787676  0.21089149  0.85941767  1
  O  O62  1  0.68420285  0.69384518  0.35382473  1
  O  O63  1  0.70350161  0.70972940  0.86306682  1
  O  O64  1  0.42499644  0.05756212  0.23981701  1
  O  O65  1  0.43270352  0.06528030  0.75284583  1
  O  O66  1  0.42535152  0.55885092  0.23792088  1
  O  O67  1  0.43529078  0.56758954  0.75186079  1
  O  O68  1  0.92514653  0.06026788  0.23828388  1
  O  O69  1  0.93314273  0.06188190  0.75217572  1
  O  O70  1  0.92482130  0.56011838  0.23825667  1
  O  O71  1  0.93241891  0.57280719  0.76215456  1
  O  O72  1  0.17354487  0.43151566  0.23799219  1
  O  O73  1  0.18494082  0.44078796  0.75335411  1
  O  O74  1  0.17527046  0.92802964  0.24775826  1
  O  O75  1  0.18320507  0.93576445  0.76075084  1
  O  O76  1  0.67402788  0.42953546  0.23844905  1
  O  O77  1  0.67960763  0.43297433  0.76059404  1
  O  O78  1  0.67830417  0.92907023  0.23851401  1
  O  O79  1  0.68738398  0.94100341  0.75276262  1
loop_
_geom_bond_atom_site_label_1
_geom_bond_atom_site_label_2
_geom_bond_distance
_geom_bond_site_symmetry_2
Ca0 O64 2.282016 1_555
Ca0 O48 2.344938 1_555
Ca0 O10 2.452785 1_545
Ca0 O32 2.512766 1_555
Ca0 O26 2.522359 1_545
Ca0 O1 2.558333 1_554
Ca0 O17 2.603801 1_554
Ca0 O36 2.944361 1_555
Ca1 O66 2.265993 1_555
Ca1 O50 2.356967 1_555
Ca1 O24 2.454922 1_555
Ca1 O34 2.514545 1_555
Ca1 O3 2.548119 1_554
Ca1 O19 2.578787 1_554
Ca1 O8 2.584668 1_555
Ca2 O68 2.274038 1_555
Ca2 O52 2.338830 1_555
Ca2 O14 2.483357 1_545
Ca2 O5 2.517414 1_554
Ca2 O21 2.555418 1_554
Ca2 O36 2.566703 1_555
Ca2 O30 2.583649 1_545
Ca3 O70 2.278381 1_555
Ca3 O54 2.327855 1_555
Ca3 O38 2.479221 1_555
Ca3 O7 2.499389 1_554
Ca3 O28 2.499652 1_555
Ca3 O12 2.528215 1_555
Ca3 O23 2.684558 1_554
Ca3 O34 2.993483 1_655
Ca4 O74 2.401350 1_555
Ca4 O58 2.432160 1_555
Ca4 O0 2.517895 1_565
Ca4 O11 2.521810 1_555
Ca4 O27 2.537268 1_555
Ca4 O46 2.596254 1_455
Ca4 O16 2.628319 1_565
Ca4 O42 2.886285 1_555
Ca5 O75 2.323154 1_555
Ca5 O59 2.353289 1_555
Ca5 O47 2.512800 1_455
Ca5 O1 2.513831 1_565
Ca5 O17 2.562504 1_565
Ca5 O10 2.582067 1_556
Ca5 O26 2.723619 1_556
Ca5 O43 2.985488 1_555
Ca6 O77 2.317899 1_555
Ca6 O61 2.386547 1_555
Ca6 O7 2.441766 1_555
Ca6 O41 2.578186 1_555
Ca6 O28 2.587438 1_556
Ca6 O23 2.637369 1_555
Ca6 O12 2.641097 1_556
Ca6 O45 2.859070 1_555
Ca7 O72 2.291401 1_555
Ca7 O32 2.366438 1_555
Ca7 O52 2.464623 1_455
Ca7 O21 2.526714 1_454
Ca7 O8 2.541499 1_555
Ca7 O28 2.559996 1_455
Ca7 O1 2.634252 1_554
Ca7 O48 3.009108 1_555
Ca8 O74 2.332133 1_555
Ca8 O34 2.336895 1_555
Ca8 O30 2.499434 1_455
Ca8 O54 2.518205 1_455
Ca8 O10 2.555735 1_555
Ca8 O3 2.592263 1_554
Ca8 O23 2.600389 1_454
Ca8 O50 2.903040 1_555
Ca9 O76 2.280255 1_555
Ca9 O36 2.354640 1_555
Ca9 O24 2.438323 1_555
Ca9 O48 2.507122 1_555
Ca9 O5 2.553796 1_554
Ca9 O12 2.564208 1_555
Ca9 O17 2.633650 1_554
Ca10 O78 2.268794 1_555
Ca10 O38 2.327808 1_555
Ca10 O26 2.491608 1_555
Ca10 O19 2.520697 1_554
Ca10 O14 2.531258 1_555
Ca10 O50 2.578170 1_555
Ca10 O7 2.695968 1_554
Ca10 O54 3.032950 1_555
Ca11 O71 2.322115 1_555
Ca11 O47 2.377407 1_555
Ca11 O23 2.497409 1_555
Ca11 O3 2.553387 1_655
Ca11 O63 2.581535 1_555
Ca11 O30 2.593078 1_556
Ca11 O10 2.644782 1_656
Ca11 O59 2.868073 1_655
Fe0 O35 1.883755 1_555
Fe0 O59 1.890986 1_555
Fe0 O73 1.933306 1_555
Fe0 O71 1.953075 1_455
Fe1 O63 1.879891 1_555
Fe1 O39 1.907026 1_555
Fe1 O77 1.916149 1_555
Fe1 O67 1.953493 1_555
Fe2 O41 1.875066 1_555
Fe2 O49 1.898148 1_555
Fe2 O67 1.928472 1_555
Fe2 O73 1.946393 1_555
Fe3 O51 1.891583 1_555
Fe3 O43 1.903153 1_555
Fe3 O65 1.921119 1_565
Fe3 O75 1.937958 1_555
Co0 O30 1.826071 1_445
Co0 O1 1.834129 1_554
Co0 O10 1.960422 1_545
Co0 O21 1.975906 1_454
Co0 O32 2.122859 1_555
Co0 O47 2.455720 1_444
Co1 O0 1.895190 1_565
Co1 O31 1.899895 1_455
Co1 O11 1.925413 1_555
Co1 O20 1.990879 1_465
Co1 O46 2.278579 1_455
Co1 O33 2.337332 1_565
Co2 O28 1.875084 1_455
Co2 O3 1.889011 1_554
Co2 O23 2.003378 1_454
Co2 O8 2.051482 1_555
Co2 O34 2.112730 1_555
Co2 O45 2.242628 1_454
Co3 O29 1.925609 1_455
Co3 O2 1.937233 1_555
Co3 O22 2.014231 1_455
Co3 O9 2.035906 1_555
Co3 O35 2.293063 1_555
Co3 O44 2.297285 1_455
Co4 O26 1.841811 1_545
Co4 O5 1.868285 1_554
Co4 O17 2.048464 1_554
Co4 O14 2.100187 1_545
Co4 O43 2.172889 1_544
Co4 O36 2.206030 1_555
Co5 O27 1.918182 1_555
Co5 O4 1.918819 1_565
Co5 O16 2.010292 1_565
Co5 O15 2.041174 1_555
Co5 O42 2.185835 1_555
Co5 O37 2.361338 1_565
Co6 O12 1.862958 1_555
Co6 O19 1.867445 1_554
Co6 O7 1.954832 1_554
Co6 O24 1.972289 1_555
Co6 O38 2.162904 1_555
Co6 O41 2.330562 1_554
Co7 O6 1.839611 1_555
Co7 O25 1.841686 1_555
Co7 O18 1.968208 1_555
Co7 O13 2.078148 1_555
Co7 O39 2.185748 1_555
Co7 O40 2.433345 1_555
Co8 O8 1.840160 1_555
Co8 O17 1.849260 1_554
Co8 O24 2.009211 1_555
Co8 O1 2.072870 1_554
Co8 O48 2.109020 1_555
Co8 O57 2.387701 1_554
Co9 O16 1.849472 1_555
Co9 O9 1.854179 1_555
Co9 O0 2.007745 1_555
Co9 O25 2.105514 1_555
Co9 O49 2.216374 1_555
Co9 O56 2.298540 1_555
Co10 O10 1.925738 1_555
Co10 O19 2.003095 1_554
Co10 O26 2.056654 1_555
Co10 O3 2.059931 1_554
Co10 O50 2.210206 1_555
Co10 O59 2.250309 1_554
Co11 O18 1.924583 1_555
Co11 O11 1.928670 1_555
Co11 O2 1.975497 1_555
Co11 O27 1.980179 1_555
Co11 O51 2.275331 1_555
Co11 O58 2.403294 1_555
Co12 O21 1.959684 1_554
Co12 O12 1.974055 1_555
Co12 O5 2.041018 1_554
Co12 O28 2.069049 1_555
Co12 O52 2.150511 1_555
Co12 O61 2.380934 1_554
Co13 O13 1.831639 1_555
Co13 O20 1.864055 1_555
Co13 O4 2.004667 1_555
Co13 O29 2.013148 1_555
Co13 O60 2.179821 1_555
Co13 O53 2.483551 1_555
Co14 O23 1.835828 1_554
Co14 O14 1.848019 1_555
Co14 O7 1.999252 1_554
Co14 O30 2.068197 1_555
Co14 O54 2.176835 1_555
Co14 O63 2.255617 1_554
Co15 O22 1.848645 1_555
Co15 O15 1.852872 1_555
Co15 O31 2.013151 1_555
Co15 O6 2.080297 1_555
Co15 O55 2.244961 1_555
Co15 O62 2.267824 1_555
Co16 O56 1.825557 1_555
Co16 O32 1.836986 1_555
Co16 O74 1.928305 1_545
Co16 O68 1.942946 1_455
Co17 O57 1.813354 1_555
Co17 O33 1.824382 1_555
Co17 O69 1.940908 1_455
Co17 O75 1.948486 1_545
Co18 O58 1.810184 1_555
Co18 O34 1.832883 1_555
Co18 O72 1.930189 1_555
Co18 O70 1.954677 1_455
Co19 O36 1.815050 1_555
Co19 O60 1.850553 1_555
Co19 O78 1.925858 1_545
Co19 O64 1.954746 1_555
Co20 O37 1.820900 1_555
Co20 O61 1.826185 1_555
Co20 O79 1.940005 1_545
Co20 O65 1.969223 1_555
Co21 O38 1.821685 1_555
Co21 O62 1.830122 1_555
Co21 O76 1.923387 1_555
Co21 O66 1.952832 1_555
Co22 O40 1.811137 1_555
Co22 O48 1.826177 1_555
Co22 O66 1.939415 1_555
Co22 O72 1.953088 1_555
Co23 O42 1.818096 1_555
Co23 O50 1.818860 1_555
Co23 O64 1.943454 1_565
Co23 O74 1.970720 1_555
Co24 O52 1.812397 1_555
Co24 O44 1.818368 1_555
Co24 O70 1.936572 1_555
Co24 O76 1.960040 1_555
Co25 O53 1.816594 1_555
Co25 O45 1.818738 1_555
Co25 O71 1.961027 1_555
Co25 O77 1.975948 1_555
Co26 O46 1.813368 1_555
Co26 O54 1.823374 1_555
Co26 O68 1.931204 1_565
Co26 O78 1.964798 1_555
Co27 O47 1.822213 1_555
Co27 O55 1.840973 1_555
Co27 O69 1.923781 1_565
Co27 O79 1.952461 1_555
O0 Sr17 2.586534 1_455
O0 Sr0 2.671841 1_555
O0 Sr9 2.702728 1_555
O1 Sr18 2.595236 1_455
O2 Sr19 2.593404 1_455
O2 Sr4 2.596060 1_555
O2 Sr1 2.626013 1_555
O2 Sr10 2.683838 1_555
O3 Sr5 2.553478 1_555
O4 Sr7 2.605812 1_545
O4 Sr13 2.637706 1_555
O4 Sr11 2.643187 1_555
O4 Sr2 2.650570 1_555
O5 Sr14 2.609205 1_555
O5 Sr8 2.657751 1_545
O6 Sr6 2.588008 1_555
O6 Sr15 2.669098 1_555
O6 Sr3 2.671734 1_555
O6 Sr12 2.720289 1_555
O7 Sr16 2.570692 1_555
O8 Sr18 2.717463 1_454
O8 Sr5 2.742608 1_554
O9 Sr1 2.632594 1_555
O9 Sr9 2.646708 1_555
O9 Sr17 2.675770 1_455
O9 Sr4 2.685933 1_555
O11 Sr0 2.617100 1_565
O11 Sr19 2.629175 1_455
O11 Sr10 2.642591 1_555
O12 Sr14 2.701566 1_554
O13 Sr11 2.620747 1_555
O13 Sr3 2.671094 1_555
O13 Sr13 2.676315 1_555
O13 Sr6 2.695239 1_555
O14 Sr16 2.727653 1_554
O14 Sr8 2.754945 1_554
O15 Sr12 2.603427 1_555
O15 Sr15 2.656326 1_555
O15 Sr2 2.670907 1_565
O15 Sr7 2.700614 1_555
O16 Sr13 2.602532 1_555
O16 Sr0 2.687174 1_555
O16 Sr11 2.706679 1_555
O17 Sr14 2.610094 1_555
O18 Sr15 2.575547 1_555
O18 Sr4 2.609766 1_555
O18 Sr1 2.666665 1_555
O18 Sr12 2.689533 1_555
O19 Sr16 2.601829 1_555
O19 Sr5 2.639540 1_555
O20 Sr9 2.625820 1_655
O20 Sr17 2.654308 1_555
O20 Sr7 2.663848 1_545
O20 Sr2 2.672603 1_555
O21 Sr8 2.562731 1_545
O21 Sr18 2.583077 1_555
O22 Sr6 2.641667 1_555
O22 Sr19 2.654416 1_555
O22 Sr3 2.686483 1_555
O22 Sr10 2.694663 1_655
O24 Sr5 2.700408 1_554
O24 Sr14 2.749457 1_554
O25 Sr1 2.631456 1_555
O25 Sr11 2.638315 1_555
O25 Sr13 2.667242 1_555
O25 Sr4 2.697241 1_555
O26 Sr16 2.688409 1_554
O27 Sr0 2.574344 1_565
O27 Sr15 2.657444 1_555
O27 Sr12 2.664765 1_555
O28 Sr18 2.751694 1_554
O29 Sr3 2.596450 1_555
O29 Sr9 2.609388 1_655
O29 Sr6 2.672487 1_555
O29 Sr17 2.675103 1_555
O30 Sr8 2.729024 1_554
O31 Sr2 2.578693 1_565
O31 Sr7 2.629907 1_555
O31 Sr10 2.631643 1_655
O31 Sr19 2.686785 1_555
O33 Sr9 2.567625 1_555
O33 Sr0 2.684820 1_555
O33 Sr2 2.845235 1_455
O33 Sr10 3.067612 1_545
O35 Sr10 2.546393 1_555
O35 Sr1 2.697693 1_555
O35 Sr3 2.759142 1_455
O37 Sr11 2.523463 1_555
O37 Sr2 2.677885 1_555
O37 Sr0 2.815477 1_555
O37 Sr12 3.113740 1_545
O39 Sr12 2.579686 1_555
O39 Sr3 2.643182 1_555
O39 Sr1 2.907216 1_555
O39 Sr11 3.172014 1_555
O40 Sr13 2.562973 1_555
O40 Sr6 2.700112 1_555
O40 Sr4 2.815768 1_555
O40 Sr15 3.122140 1_555
O41 Sr14 2.476545 1_555
O41 Sr5 2.906094 1_555
O41 Sr16 3.196558 1_555
O42 Sr15 2.569207 1_555
O42 Sr7 2.650954 1_555
O42 Sr13 3.130217 1_565
O43 Sr16 2.487809 1_555
O43 Sr8 2.607845 1_555
O44 Sr17 2.574653 1_555
O44 Sr4 2.698639 1_655
O44 Sr6 2.786190 1_555
O44 Sr19 3.138045 1_555
O45 Sr18 2.497241 1_555
O45 Sr5 2.666701 1_655
O46 Sr19 2.566835 1_555
O46 Sr7 2.864790 1_555
O46 Sr17 3.102217 1_565
O47 Sr8 2.916434 1_555
O49 Sr0 2.544248 1_555
O49 Sr11 2.682887 1_555
O49 Sr9 2.827028 1_555
O51 Sr1 2.517538 1_555
O51 Sr12 2.673971 1_555
O51 Sr10 2.799036 1_555
O51 Sr0 3.123298 1_565
O53 Sr2 2.617029 1_555
O53 Sr9 2.704537 1_655
O53 Sr11 2.808694 1_555
O53 Sr3 3.114441 1_555
O55 Sr3 2.574926 1_555
O55 Sr10 2.682974 1_655
O55 Sr12 2.834082 1_555
O55 Sr2 3.107044 1_565
O56 Sr4 2.560428 1_555
O56 Sr13 2.680743 1_555
O56 Sr17 2.770708 1_455
O57 Sr5 2.454117 1_555
O57 Sr14 2.653170 1_555
O57 Sr18 2.898809 1_455
O58 Sr15 2.681578 1_555
O58 Sr19 2.791969 1_455
O59 Sr16 2.644971 1_555
O60 Sr6 2.594528 1_555
O60 Sr17 2.703934 1_555
O60 Sr13 2.811416 1_555
O60 Sr7 3.085798 1_545
O61 Sr18 2.649952 1_555
O61 Sr14 2.844123 1_555
O62 Sr7 2.580601 1_555
O62 Sr19 2.715335 1_555
O62 Sr15 2.831221 1_555
O62 Sr6 3.103010 1_555
O63 Sr8 2.463554 1_555
O63 Sr16 2.932009 1_555
O64 Sr13 2.453810 1_555
O65 Sr14 2.414953 1_555
O65 Sr0 2.446172 1_555
O66 Sr15 2.479003 1_555
O67 Sr16 2.428102 1_555
O67 Sr1 2.452902 1_555
O68 Sr17 2.461273 1_555
O69 Sr18 2.405589 1_555
O69 Sr2 2.426859 1_555
O70 Sr19 2.471672 1_555
O71 Sr3 2.502581 1_555
O72 Sr4 2.472474 1_555
O73 Sr5 2.436683 1_555
O73 Sr9 2.472296 1_555
O75 Sr10 2.503472 1_555
O76 Sr6 2.465884 1_555
O77 Sr11 2.496627 1_555
O78 Sr7 2.476719 1_555
O79 Sr8 2.403978 1_555
O79 Sr12 2.445251 1_555
