# generated using pymatgen
data_Pr5As2ClO10
_symmetry_space_group_name_H-M   'P 1'
_cell_length_a   6.94793861
_cell_length_b   6.94793861
_cell_length_c   9.21679338
_cell_angle_alpha   66.03947535
_cell_angle_beta   66.03947535
_cell_angle_gamma   49.18524616
_symmetry_Int_Tables_number   1
_chemical_formula_structural   Pr5As2ClO10
_chemical_formula_sum   'Pr5 As2 Cl1 O10'
_cell_volume   301.28478454
_cell_formula_units_Z   1
loop_
 _symmetry_equiv_pos_site_id
 _symmetry_equiv_pos_as_xyz
  1  'x, y, z'
loop_
 _atom_site_type_symbol
 _atom_site_label
 _atom_site_symmetry_multiplicity
 _atom_site_fract_x
 _atom_site_fract_y
 _atom_site_fract_z
 _atom_site_occupancy
  Pr  Pr0  1  0.00000000  0.00000000  0.00000000  1
  Pr  Pr1  1  0.25223700  0.25223700  0.12925300  1
  Pr  Pr2  1  0.74776300  0.74776300  0.87074700  1
  Pr  Pr3  1  0.49976300  0.49976300  0.70803400  1
  Pr  Pr4  1  0.50023700  0.50023700  0.29196600  1
  As  As0  1  0.21535300  0.21535300  0.60942200  1
  As  As1  1  0.78464700  0.78464700  0.39057800  1
  Cl  Cl0  1  0.00000000  0.00000000  0.50000000  1
  O  O0  1  0.86673200  0.37418100  0.08379900  1
  O  O1  1  0.37418100  0.86673200  0.08379900  1
  O  O2  1  0.13326800  0.62581900  0.91620100  1
  O  O3  1  0.62581900  0.13326800  0.91620100  1
  O  O4  1  0.35900300  0.35900300  0.60329600  1
  O  O5  1  0.64099700  0.64099700  0.39670400  1
  O  O6  1  0.09292500  0.62383200  0.24647300  1
  O  O7  1  0.62383200  0.09292500  0.24647300  1
  O  O8  1  0.90707500  0.37616800  0.75352700  1
  O  O9  1  0.37616800  0.90707500  0.75352700  1
loop_
_geom_bond_atom_site_label_1
_geom_bond_atom_site_label_2
_geom_bond_distance
_geom_bond_site_symmetry_2
As0 O4 1.790568 1_555
As0 O9 1.834797 1_545
As0 O8 1.834797 1_455
As1 O5 1.790568 1_555
As1 O6 1.834797 1_655
As1 O7 1.834797 1_565
Cl0 Pr3 3.468715 1_455
Cl0 Pr3 3.468715 1_545
Cl0 Pr4 3.468715 1_455
Cl0 Pr4 3.468715 1_545
Cl0 Pr2 3.479403 1_445
Cl0 Pr1 3.479403 1_555
O0 Pr4 2.326719 1_555
O0 Pr2 2.377042 1_554
O0 Pr1 2.392502 1_655
O0 Pr0 2.473056 1_655
O1 Pr4 2.326719 1_555
O1 Pr2 2.377042 1_554
O1 Pr1 2.392502 1_565
O1 Pr0 2.473056 1_565
O2 Pr3 2.326719 1_555
O2 Pr1 2.377042 1_556
O2 Pr2 2.392502 1_455
O2 Pr0 2.473056 1_566
O3 Pr3 2.326719 1_555
O3 Pr1 2.377042 1_556
O3 Pr2 2.392502 1_545
O3 Pr0 2.473056 1_656
O4 Pr3 2.372506 1_555
O4 Pr4 2.616184 1_555
O5 Pr4 2.372506 1_555
O5 Pr3 2.616184 1_555
O6 Pr4 2.533085 1_555
O6 Pr0 2.563465 1_565
O6 Pr1 2.572298 1_555
O7 Pr4 2.533085 1_555
O7 Pr0 2.563465 1_655
O7 Pr1 2.572298 1_555
O8 Pr3 2.533085 1_555
O8 Pr0 2.563465 1_656
O8 Pr2 2.572298 1_555
O9 Pr3 2.533085 1_555
O9 Pr0 2.563465 1_566
O9 Pr2 2.572298 1_555
