# generated using pymatgen
data_CeEr
_symmetry_space_group_name_H-M   'P 1'
_cell_length_a   6.99594913
_cell_length_b   6.99594913
_cell_length_c   11.49316000
_cell_angle_alpha   90.00000000
_cell_angle_beta   90.00000000
_cell_angle_gamma   120.00001072
_symmetry_Int_Tables_number   1
_chemical_formula_structural   CeEr
_chemical_formula_sum   'Ce8 Er8'
_cell_volume   487.15069190
_cell_formula_units_Z   8
loop_
 _symmetry_equiv_pos_site_id
 _symmetry_equiv_pos_as_xyz
  1  'x, y, z'
loop_
 _atom_site_type_symbol
 _atom_site_label
 _atom_site_symmetry_multiplicity
 _atom_site_fract_x
 _atom_site_fract_y
 _atom_site_fract_z
 _atom_site_occupancy
  Ce  Ce0_0  1  0.33333350  0.16666650  0.25000000  1
  Ce  Ce0_1  1  0.33333350  0.16666650  0.75000000  1
  Ce  Ce0_2  1  0.33333350  0.66666650  0.25000000  1
  Ce  Ce0_3  1  0.33333350  0.66666650  0.75000000  1
  Ce  Ce0_4  1  0.83333350  0.16666650  0.25000000  1
  Ce  Ce0_5  1  0.83333350  0.16666650  0.75000000  1
  Ce  Ce0_6  1  0.83333350  0.66666650  0.25000000  1
  Ce  Ce0_7  1  0.83333350  0.66666650  0.75000000  1
  Er  Er0_0  1  0.16666650  0.33333350  0.00000000  1
  Er  Er0_1  1  0.16666650  0.33333350  0.50000000  1
  Er  Er0_2  1  0.16666650  0.83333350  0.00000000  1
  Er  Er0_3  1  0.16666650  0.83333350  0.50000000  1
  Er  Er0_4  1  0.66666650  0.33333350  0.00000000  1
  Er  Er0_5  1  0.66666650  0.33333350  0.50000000  1
  Er  Er0_6  1  0.66666650  0.83333350  0.00000000  1
  Er  Er0_7  1  0.66666650  0.83333350  0.50000000  1
loop_
_geom_bond_atom_site_label_1
_geom_bond_atom_site_label_2
_geom_bond_distance
_geom_bond_site_symmetry_2
Ce0_0 Ce0_6 3.497974 1_555
Ce0_0 Ce0_6 3.497974 1_445
Ce0_0 Ce0_4 3.497975 1_455
Ce0_0 Ce0_2 3.497975 1_555
Ce0_0 Ce0_4 3.497975 1_555
Ce0_0 Ce0_2 3.497975 1_545
Ce0_0 Er0_4 3.512036 1_555
Ce0_0 Er0_5 3.512036 1_555
Ce0_0 Er0_2 3.512036 1_545
Ce0_0 Er0_3 3.512036 1_545
Ce0_0 Er0_0 3.512039 1_555
Ce0_0 Er0_1 3.512039 1_555
Ce0_1 Ce0_7 3.497974 1_555
Ce0_1 Ce0_7 3.497974 1_445
Ce0_1 Ce0_3 3.497975 1_555
Ce0_1 Ce0_5 3.497975 1_455
Ce0_1 Ce0_5 3.497975 1_555
Ce0_1 Ce0_3 3.497975 1_545
Ce0_1 Er0_5 3.512036 1_555
Ce0_1 Er0_3 3.512036 1_545
Ce0_1 Er0_4 3.512036 1_556
Ce0_1 Er0_2 3.512036 1_546
Ce0_1 Er0_1 3.512039 1_555
Ce0_1 Er0_0 3.512039 1_556
Ce0_2 Ce0_4 3.497974 1_565
Ce0_2 Ce0_4 3.497974 1_455
Ce0_2 Ce0_6 3.497975 1_555
Ce0_2 Ce0_6 3.497975 1_455
Ce0_2 Er0_0 3.512036 1_555
Ce0_2 Er0_1 3.512036 1_555
Ce0_2 Er0_6 3.512036 1_555
Ce0_2 Er0_7 3.512036 1_555
Ce0_2 Er0_3 3.512039 1_555
Ce0_2 Er0_2 3.512039 1_555
Ce0_3 Ce0_5 3.497974 1_455
Ce0_3 Ce0_5 3.497974 1_565
Ce0_3 Ce0_7 3.497975 1_455
Ce0_3 Ce0_7 3.497975 1_555
Ce0_3 Er0_1 3.512036 1_555
Ce0_3 Er0_7 3.512036 1_555
Ce0_3 Er0_0 3.512036 1_556
Ce0_3 Er0_6 3.512036 1_556
Ce0_3 Er0_3 3.512039 1_555
Ce0_3 Er0_2 3.512039 1_556
Ce0_4 Ce0_6 3.497975 1_555
Ce0_4 Ce0_6 3.497975 1_545
Ce0_4 Er0_0 3.512036 1_655
Ce0_4 Er0_1 3.512036 1_655
Ce0_4 Er0_6 3.512036 1_545
Ce0_4 Er0_7 3.512036 1_545
Ce0_4 Er0_4 3.512039 1_555
Ce0_4 Er0_5 3.512039 1_555
Ce0_5 Ce0_7 3.497975 1_555
Ce0_5 Ce0_7 3.497975 1_545
Ce0_5 Er0_1 3.512036 1_655
Ce0_5 Er0_7 3.512036 1_545
Ce0_5 Er0_0 3.512036 1_656
Ce0_5 Er0_6 3.512036 1_546
Ce0_5 Er0_5 3.512039 1_555
Ce0_5 Er0_4 3.512039 1_556
Ce0_6 Er0_3 3.512036 1_655
Ce0_6 Er0_2 3.512036 1_655
Ce0_6 Er0_4 3.512036 1_555
Ce0_6 Er0_5 3.512036 1_555
Ce0_6 Er0_6 3.512039 1_555
Ce0_6 Er0_7 3.512039 1_555
Ce0_7 Er0_5 3.512036 1_555
Ce0_7 Er0_3 3.512036 1_655
Ce0_7 Er0_4 3.512036 1_556
Ce0_7 Er0_2 3.512036 1_656
Ce0_7 Er0_7 3.512039 1_555
Ce0_7 Er0_6 3.512039 1_556
Er0_0 Er0_6 3.497974 1_555
Er0_0 Er0_6 3.497974 1_445
Er0_0 Er0_4 3.497975 1_555
Er0_0 Er0_4 3.497975 1_455
Er0_0 Er0_2 3.497975 1_555
Er0_0 Er0_2 3.497975 1_545
Er0_1 Er0_7 3.497974 1_555
Er0_1 Er0_7 3.497974 1_445
Er0_1 Er0_5 3.497975 1_555
Er0_1 Er0_5 3.497975 1_455
Er0_1 Er0_3 3.497975 1_545
Er0_1 Er0_3 3.497975 1_555
Er0_2 Er0_4 3.497974 1_565
Er0_2 Er0_4 3.497974 1_455
Er0_2 Er0_6 3.497975 1_455
Er0_2 Er0_6 3.497975 1_555
Er0_3 Er0_5 3.497974 1_455
Er0_3 Er0_5 3.497974 1_565
Er0_3 Er0_7 3.497975 1_455
Er0_3 Er0_7 3.497975 1_555
Er0_4 Er0_6 3.497975 1_555
Er0_4 Er0_6 3.497975 1_545
Er0_5 Er0_7 3.497975 1_555
Er0_5 Er0_7 3.497975 1_545
