# generated using pymatgen
data_KCoCuS2
_symmetry_space_group_name_H-M   'P 1'
_cell_length_a   7.03466571
_cell_length_b   7.03466571
_cell_length_c   7.03466571
_cell_angle_alpha   148.49444560
_cell_angle_beta   148.49444560
_cell_angle_gamma   45.15599171
_symmetry_Int_Tables_number   1
_chemical_formula_structural   KCoCuS2
_chemical_formula_sum   'K1 Co1 Cu1 S2'
_cell_volume   94.76735873
_cell_formula_units_Z   1
loop_
 _symmetry_equiv_pos_site_id
 _symmetry_equiv_pos_as_xyz
  1  'x, y, z'
loop_
 _atom_site_type_symbol
 _atom_site_label
 _atom_site_symmetry_multiplicity
 _atom_site_fract_x
 _atom_site_fract_y
 _atom_site_fract_z
 _atom_site_occupancy
  K  K0  1  0.00000000  0.00000000  0.00000000  1
  Co  Co0  1  0.75000000  0.25000000  0.50000000  1
  Cu  Cu0  1  0.25000000  0.75000000  0.50000000  1
  S  S0  1  0.64823000  0.64823000  0.00000000  1
  S  S1  1  0.35177000  0.35177000  0.00000000  1
loop_
_geom_bond_atom_site_label_1
_geom_bond_atom_site_label_2
_geom_bond_distance
_geom_bond_site_symmetry_2
K0 S0 3.317077 1_545
K0 S1 3.317077 1_556
K0 S0 3.317077 1_455
K0 S1 3.317077 1_444
K0 S1 3.317077 1_545
K0 S0 3.317077 1_556
K0 S1 3.317077 1_455
K0 S0 3.317077 1_444
Co0 S0 2.322791 1_545
Co0 S0 2.322791 1_556
Co0 S1 2.322791 1_555
Co0 S1 2.322791 1_656
Cu0 S0 2.322791 1_455
Cu0 S0 2.322791 1_556
Cu0 S1 2.322791 1_555
Cu0 S1 2.322791 1_566
