# generated using pymatgen
data_Sc2Pt
_symmetry_space_group_name_H-M   'P 1'
_cell_length_a   4.49268854
_cell_length_b   6.60911523
_cell_length_c   8.24699921
_cell_angle_alpha   90.00000000
_cell_angle_beta   90.00000000
_cell_angle_gamma   90.00000000
_symmetry_Int_Tables_number   1
_chemical_formula_structural   Sc2Pt
_chemical_formula_sum   'Sc8 Pt4'
_cell_volume   244.87564254
_cell_formula_units_Z   4
loop_
 _symmetry_equiv_pos_site_id
 _symmetry_equiv_pos_as_xyz
  1  'x, y, z'
loop_
 _atom_site_type_symbol
 _atom_site_label
 _atom_site_symmetry_multiplicity
 _atom_site_fract_x
 _atom_site_fract_y
 _atom_site_fract_z
 _atom_site_occupancy
  Sc  Sc0  1  0.25000000  0.48734869  0.82702073  1
  Sc  Sc1  1  0.75000000  0.51265131  0.17297927  1
  Sc  Sc2  1  0.25000000  0.98734869  0.67297927  1
  Sc  Sc3  1  0.75000000  0.01265131  0.32702073  1
  Sc  Sc4  1  0.75000000  0.14840231  0.92355879  1
  Sc  Sc5  1  0.25000000  0.85159769  0.07644121  1
  Sc  Sc6  1  0.75000000  0.64840231  0.57644121  1
  Sc  Sc7  1  0.25000000  0.35159769  0.42355879  1
  Pt  Pt0  1  0.25000000  0.75865893  0.40167579  1
  Pt  Pt1  1  0.75000000  0.24134107  0.59832421  1
  Pt  Pt2  1  0.25000000  0.25865893  0.09832421  1
  Pt  Pt3  1  0.75000000  0.74134107  0.90167579  1
loop_
_geom_bond_atom_site_label_1
_geom_bond_atom_site_label_2
_geom_bond_distance
_geom_bond_site_symmetry_2
Sc0 Sc5 3.166469 1_556
Sc0 Sc6 3.232584 1_455
Sc0 Sc6 3.232584 1_555
Sc0 Sc4 3.270799 1_555
Sc0 Sc4 3.270799 1_455
Sc0 Sc7 3.446189 1_555
Sc1 Sc4 3.166469 1_554
Sc1 Sc7 3.232584 1_655
Sc1 Sc7 3.232584 1_555
Sc1 Sc5 3.270799 1_655
Sc1 Sc5 3.270799 1_555
Sc1 Sc6 3.446189 1_555
Sc2 Sc7 3.166469 1_565
Sc2 Sc4 3.232584 1_565
Sc2 Sc4 3.232584 1_465
Sc2 Sc6 3.270799 1_455
Sc2 Sc6 3.270799 1_555
Sc2 Sc5 3.446189 1_556
Sc3 Sc6 3.166469 1_545
Sc3 Sc5 3.232584 1_645
Sc3 Sc5 3.232584 1_545
Sc3 Sc7 3.270799 1_555
Sc3 Sc7 3.270799 1_655
Sc3 Sc4 3.446189 1_554
Sc4 Sc5 3.237850 1_546
Sc4 Sc5 3.237850 1_646
Sc6 Sc7 3.237850 1_655
Sc6 Sc7 3.237850 1_555
Pt0 Sc7 2.696361 1_555
Pt0 Sc2 2.700107 1_555
Pt0 Sc5 2.751643 1_555
Pt0 Sc6 2.766655 1_555
Pt0 Sc6 2.766655 1_455
Pt0 Sc3 2.871070 1_565
Pt0 Sc3 2.871070 1_465
Pt1 Sc6 2.696361 1_555
Pt1 Sc3 2.700107 1_555
Pt1 Sc4 2.751643 1_555
Pt1 Sc7 2.766655 1_655
Pt1 Sc7 2.766655 1_555
Pt1 Sc2 2.871070 1_645
Pt1 Sc2 2.871070 1_545
Pt2 Sc5 2.696361 1_545
Pt2 Sc0 2.700107 1_554
Pt2 Sc7 2.751643 1_555
Pt2 Sc4 2.766655 1_454
Pt2 Sc4 2.766655 1_554
Pt2 Sc1 2.871070 1_455
Pt2 Sc1 2.871070 1_555
Pt3 Sc4 2.696361 1_565
Pt3 Sc1 2.700107 1_556
Pt3 Sc6 2.751643 1_555
Pt3 Sc5 2.766655 1_556
Pt3 Sc5 2.766655 1_656
Pt3 Sc0 2.871070 1_655
Pt3 Sc0 2.871070 1_555
