# generated using pymatgen
data_Mg5Si9
_symmetry_space_group_name_H-M   'P 1'
_cell_length_a   5.57171500
_cell_length_b   7.47570904
_cell_length_c   12.70617669
_cell_angle_alpha   85.19562643
_cell_angle_beta   79.73264651
_cell_angle_gamma   73.85863954
_symmetry_Int_Tables_number   1
_chemical_formula_structural   Mg5Si9
_chemical_formula_sum   'Mg10 Si18'
_cell_volume   499.91237756
_cell_formula_units_Z   2
loop_
 _symmetry_equiv_pos_site_id
 _symmetry_equiv_pos_as_xyz
  1  'x, y, z'
loop_
 _atom_site_type_symbol
 _atom_site_label
 _atom_site_symmetry_multiplicity
 _atom_site_fract_x
 _atom_site_fract_y
 _atom_site_fract_z
 _atom_site_occupancy
  Mg  Mg0  1  0.49207600  0.01495600  0.28423700  1
  Mg  Mg1  1  0.75368000  0.91583800  0.55298000  1
  Mg  Mg2  1  0.00701400  0.49948300  0.45996800  1
  Mg  Mg3  1  0.65755300  0.60451900  0.69790400  1
  Mg  Mg4  1  0.56633500  0.31419500  0.45887200  1
  Mg  Mg5  1  0.20351400  0.05093000  0.50964700  1
  Mg  Mg6  1  0.00186100  0.90448100  0.74818200  1
  Mg  Mg7  1  0.53407400  0.73450400  0.10572900  1
  Mg  Mg8  1  0.08177900  0.17081200  0.90780200  1
  Mg  Mg9  1  0.12694500  0.49027800  0.05189300  1
  Si  Si0  1  0.31397100  0.73491600  0.90822700  1
  Si  Si1  1  0.64852200  0.30173700  0.10656000  1
  Si  Si2  1  0.20678500  0.29735200  0.65978300  1
  Si  Si3  1  0.02906300  0.74525400  0.24195800  1
  Si  Si4  1  0.13723400  0.52681100  0.82025700  1
  Si  Si5  1  0.97493800  0.28692700  0.23226300  1
  Si  Si6  1  0.79051400  0.24309800  0.64733100  1
  Si  Si7  1  0.68131900  0.58895700  0.29488900  1
  Si  Si8  1  0.56815800  0.30623700  0.83462800  1
  Si  Si9  1  0.95788100  0.01751500  0.34748100  1
  Si  Si10  1  0.02676500  0.89664600  0.06396500  1
  Si  Si11  1  0.65695400  0.00678600  0.92577100  1
  Si  Si12  1  0.46245300  0.95410400  0.77440100  1
  Si  Si13  1  0.33963900  0.44512200  0.26129000  1
  Si  Si14  1  0.34680000  0.11292500  0.08307600  1
  Si  Si15  1  0.71644200  0.49981200  0.93997500  1
  Si  Si16  1  0.51630800  0.70631500  0.47233800  1
  Si  Si17  1  0.20107200  0.62963500  0.60883200  1
loop_
_geom_bond_atom_site_label_1
_geom_bond_atom_site_label_2
_geom_bond_distance
_geom_bond_site_symmetry_2
Mg0 Si14 2.796246 1_555
Mg0 Si9 2.855789 1_555
Mg0 Si9 2.936538 1_455
Mg0 Si7 3.063278 1_545
Mg0 Si3 3.091886 1_645
Mg0 Si13 3.091974 1_555
Mg0 Si1 3.159054 1_555
Mg0 Si5 3.173040 1_455
Mg0 Si16 3.173691 1_545
Mg1 Si16 2.675121 1_555
Mg1 Si9 2.789171 1_565
Mg1 Si6 2.884939 1_565
Mg1 Si17 2.950588 1_655
Mg1 Si12 2.979832 1_555
Mg2 Si17 2.704770 1_555
Mg2 Si16 2.725367 1_455
Mg2 Si13 2.838643 1_555
Mg2 Si7 2.930367 1_455
Mg2 Si2 3.065581 1_555
Mg2 Si3 3.196213 1_555
Mg2 Si6 3.208385 1_455
Mg3 Si6 2.696309 1_555
Mg3 Si12 2.724982 1_555
Mg3 Si8 2.810444 1_555
Mg3 Si17 2.917183 1_555
Mg3 Si0 3.054789 1_555
Mg3 Si16 3.085222 1_555
Mg3 Si17 3.089612 1_655
Mg3 Si15 3.161418 1_555
Mg3 Si4 3.215187 1_555
Mg3 Si4 3.219324 1_655
Mg3 Si2 3.259286 1_655
Mg4 Si6 2.839128 1_555
Mg4 Si16 2.883164 1_555
Mg4 Si9 2.901102 1_555
Mg4 Si7 2.917161 1_555
Mg4 Si2 2.968043 1_555
Mg4 Si13 2.981185 1_555
Mg4 Si17 3.167825 1_555
Mg5 Si16 2.704202 1_545
Mg5 Si9 2.731804 1_455
Mg5 Si6 2.750876 1_455
Mg5 Si2 2.766374 1_555
Mg6 Si17 2.688766 1_555
Mg6 Si11 2.701053 1_465
Mg6 Si12 2.772947 1_555
Mg6 Si6 2.788163 1_465
Mg6 Si4 2.829836 1_555
Mg6 Si12 2.885318 1_455
Mg6 Si0 2.893006 1_555
Mg6 Mg8 3.125241 1_565
Mg7 Si7 2.720718 1_555
Mg7 Si15 2.722353 1_554
Mg7 Si14 2.739351 1_565
Mg7 Si10 2.874433 1_555
Mg7 Si0 2.982483 1_554
Mg7 Si3 3.013521 1_555
Mg7 Si11 3.045917 1_564
Mg7 Si13 3.095806 1_555
Mg7 Si1 3.118192 1_555
Mg7 Si10 3.241864 1_655
Mg8 Si12 2.695204 1_545
Mg8 Si15 2.729080 1_455
Mg8 Si10 2.771860 1_546
Mg8 Si14 2.825431 1_556
Mg8 Si4 2.873043 1_555
Mg8 Si11 2.921076 1_455
Mg8 Si8 3.042852 1_455
Mg8 Si8 3.114949 1_555
Mg8 Si11 3.139249 1_555
Mg8 Si0 3.154033 1_545
Mg8 Si1 3.176521 1_456
Mg8 Mg9 3.217115 1_556
Mg8 Si2 3.224230 1_555
Mg9 Si0 2.754107 1_554
Mg9 Si14 2.771261 1_555
Mg9 Si5 2.778675 1_455
Mg9 Si15 2.882788 1_454
Mg9 Si4 2.924767 1_554
Mg9 Si10 2.944243 1_555
Mg9 Si1 3.031918 1_555
Mg9 Si13 3.057524 1_555
Mg9 Si3 3.080023 1_555
Si0 Si12 2.458929 1_555
Si0 Si10 2.476790 1_556
Si0 Si4 2.484925 1_555
Si0 Si15 2.508521 1_555
Si1 Si13 2.469255 1_555
Si1 Si15 2.513382 1_554
Si1 Si14 2.544847 1_555
Si1 Si5 2.600947 1_555
Si2 Si6 2.496697 1_455
Si2 Si4 2.680453 1_555
Si3 Si9 2.432360 1_465
Si3 Si7 2.496831 1_455
Si4 Si8 2.534094 1_555
Si5 Si9 2.402411 1_555
Si5 Si7 2.488111 1_555
Si6 Si8 2.496644 1_555
Si10 Si3 2.443245 1_555
Si10 Si14 2.770538 1_565
Si10 Si11 2.847992 1_464
Si11 Si8 2.398221 1_555
Si11 Si14 2.425453 1_556
Si11 Si12 2.477086 1_545
Si12 Si2 2.969146 1_565
Si13 Si3 2.447320 1_555
Si13 Si7 2.543129 1_555
Si13 Si5 2.709257 1_455
Si14 Si5 2.663186 1_455
Si15 Si8 2.439661 1_555
Si15 Si4 2.606111 1_655
Si16 Si17 2.393490 1_555
Si16 Si7 2.417137 1_555
Si17 Si2 2.506919 1_555
Si17 Si4 2.720228 1_555
