# generated using pymatgen
data_GdB(SO4)3
_symmetry_space_group_name_H-M   'P 1'
_cell_length_a   9.01078579
_cell_length_b   9.01078579
_cell_length_c   11.17113138
_cell_angle_alpha   87.43737616
_cell_angle_beta   87.43737616
_cell_angle_gamma   80.13976187
_symmetry_Int_Tables_number   1
_chemical_formula_structural   GdB(SO4)3
_chemical_formula_sum   'Gd4 B4 S12 O48'
_cell_volume   892.10687263
_cell_formula_units_Z   4
loop_
 _symmetry_equiv_pos_site_id
 _symmetry_equiv_pos_as_xyz
  1  'x, y, z'
loop_
 _atom_site_type_symbol
 _atom_site_label
 _atom_site_symmetry_multiplicity
 _atom_site_fract_x
 _atom_site_fract_y
 _atom_site_fract_z
 _atom_site_occupancy
  Gd  Gd0  1  0.73651900  0.63723700  0.84545100  1
  Gd  Gd1  1  0.36276300  0.26348100  0.65454900  1
  Gd  Gd2  1  0.26348100  0.36276300  0.15454900  1
  Gd  Gd3  1  0.63723700  0.73651900  0.34545100  1
  B  B0  1  0.83085900  0.17103600  0.02751000  1
  B  B1  1  0.82896400  0.16914100  0.47249000  1
  B  B2  1  0.16914100  0.82896400  0.97249000  1
  B  B3  1  0.17103600  0.83085900  0.52751000  1
  S  S0  1  0.43658800  0.84112800  0.63801100  1
  S  S1  1  0.15887200  0.56341200  0.86198900  1
  S  S2  1  0.56341200  0.15887200  0.36198900  1
  S  S3  1  0.84112800  0.43658800  0.13801100  1
  S  S4  1  0.86020700  0.88360900  0.57626100  1
  S  S5  1  0.11639100  0.13979300  0.92373900  1
  S  S6  1  0.13979300  0.11639100  0.42373900  1
  S  S7  1  0.88360900  0.86020700  0.07626100  1
  S  S8  1  0.57167000  0.27436600  0.91957600  1
  S  S9  1  0.72563400  0.42833000  0.58042400  1
  S  S10  1  0.42833000  0.72563400  0.08042400  1
  S  S11  1  0.27436600  0.57167000  0.41957600  1
  O  O0  1  0.52226800  0.83707500  0.52294200  1
  O  O1  1  0.16292500  0.47773200  0.97705800  1
  O  O2  1  0.47773200  0.16292500  0.47705800  1
  O  O3  1  0.83707500  0.52226800  0.02294200  1
  O  O4  1  0.39814900  0.99444400  0.68179900  1
  O  O5  1  0.00555600  0.60185100  0.81820100  1
  O  O6  1  0.60185100  0.00555600  0.31820100  1
  O  O7  1  0.99444400  0.39814900  0.18179900  1
  O  O8  1  0.51026300  0.73356700  0.72745200  1
  O  O9  1  0.26643300  0.48973700  0.77254800  1
  O  O10  1  0.48973700  0.26643300  0.27254800  1
  O  O11  1  0.73356700  0.51026300  0.22745200  1
  O  O12  1  0.28526700  0.78599800  0.61692300  1
  O  O13  1  0.21400200  0.71473300  0.88307700  1
  O  O14  1  0.71473300  0.21400200  0.38307700  1
  O  O15  1  0.78599800  0.28526700  0.11692300  1
  O  O16  1  0.79672000  0.83203800  0.68788300  1
  O  O17  1  0.16796200  0.20328000  0.81211700  1
  O  O18  1  0.20328000  0.16796200  0.31211700  1
  O  O19  1  0.83203800  0.79672000  0.18788300  1
  O  O20  1  0.84183800  0.80368400  0.46911400  1
  O  O21  1  0.19631600  0.15816200  0.03088600  1
  O  O22  1  0.15816200  0.19631600  0.53088600  1
  O  O23  1  0.80368400  0.84183800  0.96911400  1
  O  O24  1  0.78894800  0.05044200  0.56063600  1
  O  O25  1  0.94955800  0.21105200  0.93936400  1
  O  O26  1  0.21105200  0.94955800  0.43936400  1
  O  O27  1  0.05044200  0.78894800  0.06063600  1
  O  O28  1  0.02769000  0.88711100  0.59534800  1
  O  O29  1  0.11288900  0.97231000  0.90465200  1
  O  O30  1  0.97231000  0.11288900  0.40465200  1
  O  O31  1  0.88711100  0.02769000  0.09534800  1
  O  O32  1  0.70280400  0.14896900  0.95891500  1
  O  O33  1  0.85103100  0.29719600  0.54108500  1
  O  O34  1  0.29719600  0.85103100  0.04108500  1
  O  O35  1  0.14896900  0.70280400  0.45891500  1
  O  O36  1  0.50499000  0.20450400  0.82389900  1
  O  O37  1  0.79549600  0.49501000  0.67610100  1
  O  O38  1  0.49501000  0.79549600  0.17610100  1
  O  O39  1  0.20450400  0.50499000  0.32389900  1
  O  O40  1  0.63404800  0.40777100  0.87922000  1
  O  O41  1  0.59222900  0.36595200  0.62078000  1
  O  O42  1  0.36595200  0.59222900  0.12078000  1
  O  O43  1  0.40777100  0.63404800  0.37922000  1
  O  O44  1  0.46694800  0.30071100  0.02309400  1
  O  O45  1  0.69928900  0.53305200  0.47690600  1
  O  O46  1  0.53305200  0.69928900  0.97690600  1
  O  O47  1  0.30071100  0.46694800  0.52309400  1
loop_
_geom_bond_atom_site_label_1
_geom_bond_atom_site_label_2
_geom_bond_distance
_geom_bond_site_symmetry_2
Gd0 O46 2.304788 1_555
Gd0 O37 2.323258 1_555
Gd0 O3 2.341174 1_556
Gd0 O5 2.397749 1_655
Gd0 O40 2.413111 1_555
Gd0 O8 2.485847 1_555
Gd0 O23 2.521561 1_555
Gd0 O16 2.537353 1_555
Gd1 O47 2.304788 1_555
Gd1 O36 2.323258 1_555
Gd1 O2 2.341174 1_555
Gd1 O4 2.397749 1_545
Gd1 O41 2.413111 1_555
Gd1 O9 2.485847 1_555
Gd1 O22 2.521561 1_555
Gd1 O17 2.537353 1_555
Gd2 O44 2.304788 1_555
Gd2 O39 2.323258 1_555
Gd2 O1 2.341174 1_554
Gd2 O7 2.397749 1_455
Gd2 O42 2.413111 1_555
Gd2 O10 2.485847 1_555
Gd2 O21 2.521561 1_555
Gd2 O18 2.537353 1_555
Gd3 O45 2.304788 1_555
Gd3 O38 2.323258 1_555
Gd3 O0 2.341174 1_555
Gd3 O6 2.397749 1_565
Gd3 O43 2.413111 1_555
Gd3 O11 2.485847 1_555
Gd3 O20 2.521561 1_555
Gd3 O19 2.537353 1_555
B0 O32 1.459257 1_554
B0 O15 1.460789 1_555
B0 O31 1.490703 1_555
B0 O25 1.499923 1_554
B1 O33 1.459257 1_555
B1 O14 1.460789 1_555
B1 O30 1.490703 1_555
B1 O24 1.499923 1_555
B2 O34 1.459257 1_556
B2 O13 1.460789 1_555
B2 O29 1.490703 1_555
B2 O27 1.499923 1_556
B3 O35 1.459257 1_555
B3 O12 1.460789 1_555
B3 O28 1.490703 1_555
B3 O26 1.499923 1_555
O0 S0 1.468185 1_555
O1 S1 1.468185 1_555
O2 S2 1.468185 1_555
O3 S3 1.468185 1_555
O4 S0 1.466008 1_555
O5 S1 1.466008 1_555
O6 S2 1.466008 1_555
O7 S3 1.466008 1_555
O8 S0 1.459710 1_555
O9 S1 1.459710 1_555
O10 S2 1.459710 1_555
O11 S3 1.459710 1_555
O12 S0 1.559691 1_555
O13 S1 1.559691 1_555
O14 S2 1.559691 1_555
O15 S3 1.559691 1_555
O16 S4 1.439971 1_555
O17 S5 1.439971 1_555
O18 S6 1.439971 1_555
O19 S7 1.439971 1_555
O20 S4 1.454094 1_555
O21 S5 1.454094 1_554
O22 S6 1.454094 1_555
O23 S7 1.454094 1_556
O24 S4 1.535781 1_545
O25 S5 1.535781 1_655
O26 S6 1.535781 1_565
O27 S7 1.535781 1_455
O28 S4 1.539380 1_455
O29 S5 1.539380 1_565
O30 S6 1.539380 1_655
O31 S7 1.539380 1_545
O32 S8 1.552689 1_555
O33 S9 1.552689 1_555
O34 S10 1.552689 1_555
O35 S11 1.552689 1_555
O36 S8 1.465198 1_555
O37 S9 1.465198 1_555
O38 S10 1.465198 1_555
O39 S11 1.465198 1_555
O40 S8 1.457554 1_555
O41 S9 1.457554 1_555
O42 S10 1.457554 1_555
O43 S11 1.457554 1_555
O44 S8 1.460933 1_554
O45 S9 1.460933 1_555
O46 S10 1.460933 1_556
O47 S11 1.460933 1_555
