# generated using pymatgen
data_VCr2Re
_symmetry_space_group_name_H-M   'P 1'
_cell_length_a   11.44330637
_cell_length_b   11.44330637
_cell_length_c   11.44330637
_cell_angle_alpha   126.23149988
_cell_angle_beta   118.71986346
_cell_angle_gamma   85.89544236
_symmetry_Int_Tables_number   1
_chemical_formula_structural   VCr2Re
_chemical_formula_sum   'V1 Cr2 Re1'
_cell_volume   1011.10904520
_cell_formula_units_Z   1
loop_
 _symmetry_equiv_pos_site_id
 _symmetry_equiv_pos_as_xyz
  1  'x, y, z'
loop_
 _atom_site_type_symbol
 _atom_site_label
 _atom_site_symmetry_multiplicity
 _atom_site_fract_x
 _atom_site_fract_y
 _atom_site_fract_z
 _atom_site_occupancy
  V  V0  1  0.00000000  0.00000000  0.00000000  1
  Cr  Cr0  1  -0.00000000  0.27360539  0.27360539  1
  Cr  Cr1  1  0.00000000  0.72639461  0.72639461  1
  Re  Re0  1  0.00000000  0.50000000  0.50000000  1
loop_
_geom_bond_atom_site_label_1
_geom_bond_atom_site_label_2
_geom_bond_distance
_geom_bond_site_symmetry_2
Cr0 Re0 2.342978 1_555
Cr0 V0 2.831566 1_555
Cr1 Re0 2.342978 1_555
Cr1 V0 2.831566 1_566
