# generated using pymatgen
data_Rb2Ce2Fe4O11
_symmetry_space_group_name_H-M   'P 1'
_cell_length_a   8.84442814
_cell_length_b   8.84442814
_cell_length_c   3.92794400
_cell_angle_alpha   90.00000000
_cell_angle_beta   90.00000000
_cell_angle_gamma   125.95121391
_symmetry_Int_Tables_number   1
_chemical_formula_structural   Rb2Ce2Fe4O11
_chemical_formula_sum   'Rb2 Ce2 Fe4 O11'
_cell_volume   248.73155045
_cell_formula_units_Z   1
loop_
 _symmetry_equiv_pos_site_id
 _symmetry_equiv_pos_as_xyz
  1  'x, y, z'
loop_
 _atom_site_type_symbol
 _atom_site_label
 _atom_site_symmetry_multiplicity
 _atom_site_fract_x
 _atom_site_fract_y
 _atom_site_fract_z
 _atom_site_occupancy
  Rb  Rb0  1  0.00000000  0.50000000  0.50000000  1
  Rb  Rb1  1  0.50000000  0.00000000  0.50000000  1
  Ce  Ce0  1  0.73574800  0.73574800  0.50000000  1
  Ce  Ce1  1  0.26425200  0.26425200  0.50000000  1
  Fe  Fe0  1  0.12945700  0.87054300  0.00000000  1
  Fe  Fe1  1  0.87054300  0.12945700  0.00000000  1
  Fe  Fe2  1  0.37430000  0.62570000  0.00000000  1
  Fe  Fe3  1  0.62570000  0.37430000  0.00000000  1
  O  O0  1  0.85620400  0.66959400  0.00000000  1
  O  O1  1  0.33040600  0.14379600  0.00000000  1
  O  O2  1  0.14379600  0.33040600  0.00000000  1
  O  O3  1  0.66959400  0.85620400  0.00000000  1
  O  O4  1  0.08681200  0.91318800  0.50000000  1
  O  O5  1  0.91318800  0.08681200  0.50000000  1
  O  O6  1  0.39473900  0.60526100  0.50000000  1
  O  O7  1  0.60526100  0.39473900  0.50000000  1
  O  O8  1  0.24987800  0.75012200  0.00000000  1
  O  O9  1  0.75012200  0.24987800  0.00000000  1
  O  O10  1  0.50000000  0.50000000  0.00000000  1
loop_
_geom_bond_atom_site_label_1
_geom_bond_atom_site_label_2
_geom_bond_distance
_geom_bond_site_symmetry_2
Ce0 O0 2.463015 1_556
Ce0 O3 2.463015 1_555
Ce0 O3 2.463015 1_556
Ce0 O0 2.463015 1_555
Ce0 O6 2.518189 1_555
Ce0 O7 2.518189 1_555
Ce0 O4 2.526275 1_655
Ce0 O5 2.526275 1_565
Ce0 O10 2.728984 1_556
Ce0 O10 2.728984 1_555
Ce1 O2 2.463015 1_556
Ce1 O2 2.463015 1_555
Ce1 O1 2.463015 1_555
Ce1 O1 2.463015 1_556
Ce1 O6 2.518189 1_555
Ce1 O7 2.518189 1_555
Ce1 O4 2.526275 1_545
Ce1 O5 2.526275 1_455
Ce1 O10 2.728984 1_556
Ce1 O10 2.728984 1_555
Fe0 O8 1.897530 1_555
Fe0 O0 1.988972 1_455
Fe0 O1 1.988972 1_565
Fe0 O4 2.075750 1_555
Fe0 O4 2.075750 1_554
Fe1 O9 1.897530 1_555
Fe1 O3 1.988972 1_545
Fe1 O2 1.988972 1_655
Fe1 O5 2.075750 1_555
Fe1 O5 2.075750 1_554
Fe2 O8 1.960575 1_555
Fe2 O10 1.980713 1_555
Fe2 O6 1.990204 1_555
Fe2 O6 1.990204 1_554
Fe2 O3 2.173779 1_555
Fe2 O2 2.173779 1_555
Fe3 O9 1.960575 1_555
Fe3 O10 1.980713 1_555
Fe3 O7 1.990204 1_555
Fe3 O7 1.990204 1_554
Fe3 O0 2.173779 1_555
Fe3 O1 2.173779 1_555
O0 Rb0 3.156655 1_655
O0 Rb0 3.156655 1_654
O1 Rb1 3.156655 1_555
O1 Rb1 3.156655 1_554
O2 Rb0 3.156655 1_555
O2 Rb0 3.156655 1_554
O3 Rb1 3.156655 1_564
O3 Rb1 3.156655 1_565
O4 Rb1 3.263375 1_565
O4 Rb0 3.263375 1_555
O5 Rb1 3.263375 1_555
O5 Rb0 3.263375 1_655
O6 Rb0 3.039581 1_555
O6 Rb1 3.039581 1_565
O7 Rb1 3.039581 1_555
O7 Rb0 3.039581 1_655
O8 Rb0 2.809726 1_554
O8 Rb0 2.809726 1_555
O8 Rb1 2.809726 1_564
O8 Rb1 2.809726 1_565
O9 Rb0 2.809726 1_654
O9 Rb1 2.809726 1_555
O9 Rb1 2.809726 1_554
O9 Rb0 2.809726 1_655
