# generated using pymatgen
data_BaO
_symmetry_space_group_name_H-M   'P 1'
_cell_length_a   3.81866686
_cell_length_b   3.81860006
_cell_length_c   6.65419919
_cell_angle_alpha   90.00000000
_cell_angle_beta   90.00000000
_cell_angle_gamma   120.00057770
_symmetry_Int_Tables_number   1
_chemical_formula_structural   BaO
_chemical_formula_sum   'Ba2 O2'
_cell_volume   84.03106121
_cell_formula_units_Z   2
loop_
 _symmetry_equiv_pos_site_id
 _symmetry_equiv_pos_as_xyz
  1  'x, y, z'
loop_
 _atom_site_type_symbol
 _atom_site_label
 _atom_site_symmetry_multiplicity
 _atom_site_fract_x
 _atom_site_fract_y
 _atom_site_fract_z
 _atom_site_occupancy
  Ba  Ba0  1  0.33331834  0.66663769  0.25000000  1
  Ba  Ba1  1  0.66668166  0.33336231  0.75000000  1
  O  O0  1  -0.00000000  -0.00000000  0.50000000  1
  O  O1  1  -0.00000000  -0.00000000  0.00000000  1
loop_
_geom_bond_atom_site_label_1
_geom_bond_atom_site_label_2
_geom_bond_distance
_geom_bond_site_symmetry_2
Ba0 O1 2.761791 1_555
Ba0 O0 2.761791 1_555
Ba0 O1 2.761935 1_565
Ba0 O0 2.761935 1_565
Ba0 O0 2.761938 1_665
Ba0 O1 2.761938 1_665
Ba1 O0 2.761791 1_665
Ba1 O1 2.761791 1_666
Ba1 O1 2.761935 1_656
Ba1 O0 2.761935 1_655
Ba1 O0 2.761938 1_555
Ba1 O1 2.761938 1_556
