# generated using pymatgen
data_Tb2Al3Pt
_symmetry_space_group_name_H-M   'P 1'
_cell_length_a   5.43953251
_cell_length_b   5.43953251
_cell_length_c   5.43953337
_cell_angle_alpha   61.35316898
_cell_angle_beta   61.35316898
_cell_angle_gamma   61.35316647
_symmetry_Int_Tables_number   1
_chemical_formula_structural   Tb2Al3Pt
_chemical_formula_sum   'Tb2 Al3 Pt1'
_cell_volume   117.26766902
_cell_formula_units_Z   1
loop_
 _symmetry_equiv_pos_site_id
 _symmetry_equiv_pos_as_xyz
  1  'x, y, z'
loop_
 _atom_site_type_symbol
 _atom_site_label
 _atom_site_symmetry_multiplicity
 _atom_site_fract_x
 _atom_site_fract_y
 _atom_site_fract_z
 _atom_site_occupancy
  Tb  Tb0  1  0.62504000  0.62504000  0.62504000  1
  Tb  Tb1  1  0.37496000  0.37496000  0.37496000  1
  Al  Al0  1  0.00000000  0.50000000  0.00000000  1
  Al  Al1  1  0.50000000  0.00000000  0.00000000  1
  Al  Al2  1  0.00000000  0.00000000  0.50000000  1
  Pt  Pt0  1  0.00000000  0.00000000  0.00000000  1
loop_
_geom_bond_atom_site_label_1
_geom_bond_atom_site_label_2
_geom_bond_distance
_geom_bond_site_symmetry_2
Tb0 Tb1 3.297603 1_555
Tb0 Tb1 3.387352 1_565
Tb0 Tb1 3.387352 1_655
Tb0 Tb1 3.387353 1_556
Al0 Pt0 2.719766 1_555
Al0 Pt0 2.719766 1_565
Al0 Al1 2.775203 1_555
Al0 Al1 2.775203 1_465
Al0 Al2 2.775203 1_564
Al0 Al2 2.775203 1_555
Al0 Tb0 3.179786 1_454
Al0 Tb1 3.179786 1_555
Al0 Tb0 3.228049 1_554
Al0 Tb1 3.228049 1_455
Al0 Tb1 3.228049 1_554
Al0 Tb0 3.228049 1_455
Al1 Pt0 2.719766 1_555
Al1 Pt0 2.719766 1_655
Al1 Al2 2.775203 1_654
Al1 Al2 2.775203 1_555
Al1 Tb0 3.179786 1_544
Al1 Tb1 3.179786 1_555
Al1 Tb1 3.228049 1_545
Al1 Tb0 3.228049 1_554
Al1 Tb1 3.228049 1_554
Al1 Tb0 3.228049 1_545
Al2 Pt0 2.719767 1_555
Al2 Pt0 2.719767 1_556
Al2 Tb0 3.179786 1_445
Al2 Tb1 3.179786 1_555
Al2 Tb1 3.228049 1_455
Al2 Tb1 3.228049 1_545
Al2 Tb0 3.228049 1_455
Al2 Tb0 3.228049 1_545
Pt0 Tb0 3.251198 1_454
Pt0 Tb0 3.251198 1_544
Pt0 Tb1 3.251198 1_455
Pt0 Tb1 3.251198 1_545
Pt0 Tb0 3.251199 1_445
Pt0 Tb1 3.251199 1_554
