# generated using pymatgen
data_VH4N(OF2)2
_symmetry_space_group_name_H-M   'P 1'
_cell_length_a   7.45180000
_cell_length_b   5.16722800
_cell_length_c   14.76601760
_cell_angle_alpha   90.00000000
_cell_angle_beta   114.86835088
_cell_angle_gamma   90.00000000
_symmetry_Int_Tables_number   1
_chemical_formula_structural   VH4N(OF2)2
_chemical_formula_sum   'V4 H16 N4 O8 F16'
_cell_volume   515.84809861
_cell_formula_units_Z   4
loop_
 _symmetry_equiv_pos_site_id
 _symmetry_equiv_pos_as_xyz
  1  'x, y, z'
loop_
 _atom_site_type_symbol
 _atom_site_label
 _atom_site_symmetry_multiplicity
 _atom_site_fract_x
 _atom_site_fract_y
 _atom_site_fract_z
 _atom_site_occupancy
  V  V0  1  0.13166000  0.06930000  0.37481400  1
  V  V1  1  0.13166000  0.43070000  0.87481400  1
  V  V2  1  0.86834000  0.93070000  0.62518600  1
  V  V3  1  0.86834000  0.56930000  0.12518600  1
  H  H0  1  0.58841900  0.00427700  0.16810500  1
  H  H1  1  0.58841900  0.49572300  0.66810500  1
  H  H2  1  0.41158100  0.99572300  0.83189500  1
  H  H3  1  0.41158100  0.50427700  0.33189500  1
  H  H4  1  0.22756500  0.12426200  0.16722700  1
  H  H5  1  0.22756500  0.37573800  0.66722700  1
  H  H6  1  0.77243500  0.87573800  0.83277300  1
  H  H7  1  0.77243500  0.62426200  0.33277300  1
  H  H8  1  0.24644500  0.98572000  0.06856800  1
  H  H9  1  0.24644500  0.51428000  0.56856800  1
  H  H10  1  0.75355500  0.01428000  0.93143200  1
  H  H11  1  0.75355500  0.48572000  0.43143200  1
  H  H12  1  0.33440800  0.82851600  0.18154100  1
  H  H13  1  0.33440800  0.67148400  0.68154100  1
  H  H14  1  0.66559200  0.17148400  0.81845900  1
  H  H15  1  0.66559200  0.32851600  0.31845900  1
  N  N0  1  0.31486900  0.00612600  0.14580700  1
  N  N1  1  0.31486900  0.49387400  0.64580700  1
  N  N2  1  0.68513100  0.99387400  0.85419300  1
  N  N3  1  0.68513100  0.50612600  0.35419300  1
  O  O0  1  0.27094700  0.90311800  0.46961900  1
  O  O1  1  0.27094700  0.59688200  0.96961900  1
  O  O2  1  0.72905300  0.09688200  0.53038100  1
  O  O3  1  0.72905300  0.40311800  0.03038100  1
  O  O4  1  0.49725000  0.13814200  0.17491500  1
  O  O5  1  0.49725000  0.36185800  0.67491500  1
  O  O6  1  0.50275000  0.86185800  0.82508500  1
  O  O7  1  0.50275000  0.63814200  0.32508500  1
  F  F0  1  0.88239900  0.98248100  0.36206800  1
  F  F1  1  0.88239900  0.51751900  0.86206800  1
  F  F2  1  0.11760100  0.01751900  0.63793200  1
  F  F3  1  0.11760100  0.48248100  0.13793200  1
  F  F4  1  0.11130800  0.37314300  0.43569400  1
  F  F5  1  0.11130800  0.12685700  0.93569400  1
  F  F6  1  0.88869200  0.62685700  0.56430600  1
  F  F7  1  0.88869200  0.87314300  0.06430600  1
  F  F8  1  0.31465400  0.23287100  0.33806200  1
  F  F9  1  0.31465400  0.26712900  0.83806200  1
  F  F10  1  0.68534600  0.76712900  0.66193800  1
  F  F11  1  0.68534600  0.73287100  0.16193800  1
  F  F12  1  0.09606300  0.83902100  0.27148400  1
  F  F13  1  0.09606300  0.66097900  0.77148400  1
  F  F14  1  0.90393700  0.16097900  0.72851600  1
  F  F15  1  0.90393700  0.33902100  0.22851600  1
loop_
_geom_bond_atom_site_label_1
_geom_bond_atom_site_label_2
_geom_bond_distance
_geom_bond_site_symmetry_2
H0 O4 1.003784 1_555
H1 O5 1.003784 1_555
H2 O6 1.003784 1_555
H3 O7 1.003784 1_555
H4 N0 1.033914 1_555
H5 N1 1.033914 1_555
H6 N2 1.033914 1_555
H7 N3 1.033914 1_555
H8 N0 1.040559 1_565
H9 N1 1.040559 1_555
H10 N2 1.040559 1_545
H11 N3 1.040559 1_555
H12 N0 1.037913 1_565
H13 N1 1.037913 1_555
H14 N2 1.037913 1_545
H15 N3 1.037913 1_555
N0 O4 1.416275 1_555
N1 O5 1.416275 1_555
N2 O6 1.416275 1_555
N3 O7 1.416275 1_555
O0 V0 1.597594 1_565
O1 V1 1.597594 1_555
O2 V2 1.597594 1_545
O3 V3 1.597594 1_555
F0 V0 1.841941 1_665
F1 V1 1.841941 1_655
F2 V2 1.841941 1_445
F3 V3 1.841941 1_455
F4 V0 1.846827 1_555
F5 V1 1.846827 1_555
F6 V2 1.846827 1_555
F7 V3 1.846827 1_555
F8 H3 1.597521 1_555
F8 V0 1.868365 1_555
F9 H2 1.597521 1_545
F9 V1 1.868365 1_555
F10 H1 1.597521 1_555
F10 V2 1.868365 1_555
F11 H0 1.597521 1_565
F11 V3 1.868365 1_555
F12 V0 1.863817 1_565
F13 V1 1.863817 1_555
F14 V2 1.863817 1_545
F15 V3 1.863817 1_555
