# generated using pymatgen
data_MgTi3V5O16
_symmetry_space_group_name_H-M   'P 1'
_cell_length_a   5.95708632
_cell_length_b   5.96123125
_cell_length_c   9.23592039
_cell_angle_alpha   89.51762650
_cell_angle_beta   91.05910236
_cell_angle_gamma   119.44861741
_symmetry_Int_Tables_number   1
_chemical_formula_structural   MgTi3V5O16
_chemical_formula_sum   'Mg1 Ti3 V5 O16'
_cell_volume   285.55687031
_cell_formula_units_Z   1
loop_
 _symmetry_equiv_pos_site_id
 _symmetry_equiv_pos_as_xyz
  1  'x, y, z'
loop_
 _atom_site_type_symbol
 _atom_site_label
 _atom_site_symmetry_multiplicity
 _atom_site_fract_x
 _atom_site_fract_y
 _atom_site_fract_z
 _atom_site_occupancy
  Mg  Mg0  1  0.33248500  0.66245800  0.87788000  1
  Ti  Ti0  1  0.13312700  0.81095700  0.20590900  1
  Ti  Ti1  1  0.19979300  0.33923900  0.21406100  1
  Ti  Ti2  1  0.32095000  0.15246100  0.68980700  1
  V  V0  1  0.34822400  0.66964400  0.48690000  1
  V  V1  1  0.66354600  0.85874600  0.21175000  1
  V  V2  1  0.66032600  0.32266000  0.98430700  1
  V  V3  1  0.83180000  0.16804700  0.70480300  1
  V  V4  1  0.83036400  0.66011700  0.70514800  1
  O  O0  1  0.17927900  0.83028600  0.59585900  1
  O  O1  1  0.06263900  0.53817200  0.33305900  1
  O  O2  1  0.32982700  0.66767900  0.09311000  1
  O  O3  1  0.00579300  0.00761000  0.30647300  1
  O  O4  1  0.00804200  0.00065500  0.80342500  1
  O  O5  1  0.18137100  0.34810600  0.59762400  1
  O  O6  1  0.49080500  0.95457500  0.32850200  1
  O  O7  1  0.48256100  0.52536200  0.33378300  1
  O  O8  1  0.33795900  0.16843000  0.10170900  1
  O  O9  1  0.64145600  0.82117100  0.59587500  1
  O  O10  1  0.51895100  0.47036400  0.84498200  1
  O  O11  1  0.51712900  0.03658900  0.84016300  1
  O  O12  1  0.65534500  0.32844400  0.60059500  1
  O  O13  1  0.81873400  0.66456900  0.10295400  1
  O  O14  1  0.95730800  0.47551400  0.84288300  1
  O  O15  1  0.82552000  0.18500600  0.09987400  1
loop_
_geom_bond_atom_site_label_1
_geom_bond_atom_site_label_2
_geom_bond_distance
_geom_bond_site_symmetry_2
Mg0 O14 1.967681 1_455
Mg0 O11 1.973394 1_565
Mg0 O10 1.976497 1_555
Mg0 O2 1.988830 1_556
O0 Ti2 1.887041 1_565
O0 V0 1.985943 1_555
O0 V4 2.086913 1_455
O1 Ti0 1.874671 1_555
O1 V0 2.036100 1_555
O1 Ti1 2.071150 1_555
O2 V1 2.040615 1_555
O2 Ti1 2.045779 1_555
O2 Ti0 2.057202 1_555
O3 Ti0 1.931599 1_545
O3 Ti1 1.932312 1_555
O3 V1 1.969182 1_445
O4 Ti2 1.947395 1_555
O4 V3 1.976651 1_455
O4 V4 1.986943 1_445
O5 Ti2 1.920185 1_555
O5 V0 1.959325 1_555
O5 V3 2.080618 1_455
O6 V1 1.782530 1_555
O6 V0 2.081397 1_555
O6 Ti0 2.165267 1_555
O7 Ti1 1.845328 1_555
O7 V0 2.029578 1_555
O7 V1 2.069477 1_555
O8 Ti1 1.914271 1_555
O8 V2 2.008224 1_554
O8 Ti0 2.099586 1_545
O9 V0 1.810827 1_555
O9 V4 2.052015 1_555
O9 V3 2.064232 1_565
O10 V2 1.952023 1_555
O10 V4 2.095125 1_555
O10 Ti2 2.195896 1_555
O11 V2 1.993503 1_555
O11 V3 2.077642 1_555
O11 Ti2 2.118702 1_555
O12 Ti2 1.933617 1_555
O12 V3 1.969997 1_555
O12 V4 1.974005 1_555
O13 Ti0 1.874680 1_655
O13 V1 2.076139 1_555
O13 V2 2.086557 1_554
O14 V2 2.036310 1_555
O14 V4 2.039677 1_555
O14 V3 2.049749 1_555
O15 V2 1.876562 1_554
O15 V1 1.984721 1_545
O15 Ti1 2.200527 1_655
