# generated using pymatgen
data_NdAl2Pt3
_symmetry_space_group_name_H-M   'P 1'
_cell_length_a   11.16353296
_cell_length_b   11.16353296
_cell_length_c   7.91264680
_cell_angle_alpha   90.00000000
_cell_angle_beta   90.00000000
_cell_angle_gamma   119.99999835
_symmetry_Int_Tables_number   1
_chemical_formula_structural   NdAl2Pt3
_chemical_formula_sum   'Nd8 Al16 Pt24'
_cell_volume   853.99580494
_cell_formula_units_Z   8
loop_
 _symmetry_equiv_pos_site_id
 _symmetry_equiv_pos_as_xyz
  1  'x, y, z'
loop_
 _atom_site_type_symbol
 _atom_site_label
 _atom_site_symmetry_multiplicity
 _atom_site_fract_x
 _atom_site_fract_y
 _atom_site_fract_z
 _atom_site_occupancy
  Nd  Nd0_0  1  0.00000000  0.00000000  0.00000000  1
  Nd  Nd0_1  1  0.00000000  0.00000000  0.50000000  1
  Nd  Nd0_2  1  0.00000000  0.50000000  0.00000000  1
  Nd  Nd0_3  1  0.00000000  0.50000000  0.50000000  1
  Nd  Nd0_4  1  0.50000000  0.00000000  0.00000000  1
  Nd  Nd0_5  1  0.50000000  0.00000000  0.50000000  1
  Nd  Nd0_6  1  0.50000000  0.50000000  0.00000000  1
  Nd  Nd0_7  1  0.50000000  0.50000000  0.50000000  1
  Al  Al0_0  1  0.33333350  0.16666650  0.00000000  1
  Al  Al0_1  1  0.33333350  0.16666650  0.50000000  1
  Al  Al0_2  1  0.33333350  0.66666650  0.00000000  1
  Al  Al0_3  1  0.33333350  0.66666650  0.50000000  1
  Al  Al0_4  1  0.83333350  0.16666650  0.00000000  1
  Al  Al0_5  1  0.83333350  0.16666650  0.50000000  1
  Al  Al0_6  1  0.83333350  0.66666650  0.00000000  1
  Al  Al0_7  1  0.83333350  0.66666650  0.50000000  1
  Al  Al1_0  1  0.16666650  0.33333350  0.00000000  1
  Al  Al1_1  1  0.16666650  0.33333350  0.50000000  1
  Al  Al1_2  1  0.16666650  0.83333350  0.00000000  1
  Al  Al1_3  1  0.16666650  0.83333350  0.50000000  1
  Al  Al1_4  1  0.66666650  0.33333350  0.00000000  1
  Al  Al1_5  1  0.66666650  0.33333350  0.50000000  1
  Al  Al1_6  1  0.66666650  0.83333350  0.00000000  1
  Al  Al1_7  1  0.66666650  0.83333350  0.50000000  1
  Pt  Pt0_0  1  0.25000000  0.25000000  0.25000000  1
  Pt  Pt0_1  1  0.25000000  0.25000000  0.75000000  1
  Pt  Pt0_2  1  0.25000000  0.75000000  0.25000000  1
  Pt  Pt0_3  1  0.25000000  0.75000000  0.75000000  1
  Pt  Pt0_4  1  0.75000000  0.25000000  0.25000000  1
  Pt  Pt0_5  1  0.75000000  0.25000000  0.75000000  1
  Pt  Pt0_6  1  0.75000000  0.75000000  0.25000000  1
  Pt  Pt0_7  1  0.75000000  0.75000000  0.75000000  1
  Pt  Pt1_0  1  0.25000000  0.00000000  0.25000000  1
  Pt  Pt1_1  1  0.25000000  0.00000000  0.75000000  1
  Pt  Pt1_2  1  0.25000000  0.50000000  0.25000000  1
  Pt  Pt1_3  1  0.25000000  0.50000000  0.75000000  1
  Pt  Pt1_4  1  0.75000000  0.00000000  0.25000000  1
  Pt  Pt1_5  1  0.75000000  0.00000000  0.75000000  1
  Pt  Pt1_6  1  0.75000000  0.50000000  0.25000000  1
  Pt  Pt1_7  1  0.75000000  0.50000000  0.75000000  1
  Pt  Pt2_0  1  0.00000000  0.25000000  0.25000000  1
  Pt  Pt2_1  1  0.00000000  0.25000000  0.75000000  1
  Pt  Pt2_2  1  0.00000000  0.75000000  0.25000000  1
  Pt  Pt2_3  1  0.00000000  0.75000000  0.75000000  1
  Pt  Pt2_4  1  0.50000000  0.25000000  0.25000000  1
  Pt  Pt2_5  1  0.50000000  0.25000000  0.75000000  1
  Pt  Pt2_6  1  0.50000000  0.75000000  0.25000000  1
  Pt  Pt2_7  1  0.50000000  0.75000000  0.75000000  1
loop_
_geom_bond_atom_site_label_1
_geom_bond_atom_site_label_2
_geom_bond_distance
_geom_bond_site_symmetry_2
Nd0_0 Pt2_0 3.420841 1_555
Nd0_0 Pt2_1 3.420841 1_554
Nd0_0 Pt1_4 3.420841 1_455
Nd0_0 Pt1_1 3.420841 1_554
Nd0_0 Pt1_0 3.420841 1_555
Nd0_0 Pt1_5 3.420841 1_454
Nd0_0 Pt2_3 3.420841 1_544
Nd0_0 Pt2_2 3.420841 1_545
Nd0_0 Pt0_1 3.420841 1_554
Nd0_0 Pt0_0 3.420841 1_555
Nd0_0 Pt0_6 3.420841 1_445
Nd0_0 Pt0_7 3.420841 1_444
Nd0_0 Nd0_1 3.956323 1_555
Nd0_0 Nd0_1 3.956323 1_554
Nd0_1 Pt2_0 3.420841 1_555
Nd0_1 Pt2_1 3.420841 1_555
Nd0_1 Pt1_4 3.420841 1_455
Nd0_1 Pt1_5 3.420841 1_455
Nd0_1 Pt1_0 3.420841 1_555
Nd0_1 Pt1_1 3.420841 1_555
Nd0_1 Pt2_3 3.420841 1_545
Nd0_1 Pt2_2 3.420841 1_545
Nd0_1 Pt0_1 3.420841 1_555
Nd0_1 Pt0_0 3.420841 1_555
Nd0_1 Pt0_6 3.420841 1_445
Nd0_1 Pt0_7 3.420841 1_445
Nd0_2 Pt2_0 3.420841 1_555
Nd0_2 Pt1_3 3.420841 1_554
Nd0_2 Pt2_1 3.420841 1_554
Nd0_2 Pt1_2 3.420841 1_555
Nd0_2 Pt2_3 3.420841 1_554
Nd0_2 Pt2_2 3.420841 1_555
Nd0_2 Pt1_6 3.420841 1_455
Nd0_2 Pt1_7 3.420841 1_454
Nd0_2 Pt0_3 3.420841 1_554
Nd0_2 Pt0_4 3.420841 1_455
Nd0_2 Pt0_5 3.420841 1_454
Nd0_2 Pt0_2 3.420841 1_555
Nd0_2 Nd0_3 3.956323 1_555
Nd0_2 Nd0_3 3.956323 1_554
Nd0_3 Pt2_0 3.420841 1_555
Nd0_3 Pt1_2 3.420841 1_555
Nd0_3 Pt1_3 3.420841 1_555
Nd0_3 Pt2_2 3.420841 1_555
Nd0_3 Pt2_1 3.420841 1_555
Nd0_3 Pt2_3 3.420841 1_555
Nd0_3 Pt1_6 3.420841 1_455
Nd0_3 Pt1_7 3.420841 1_455
Nd0_3 Pt0_4 3.420841 1_455
Nd0_3 Pt0_3 3.420841 1_555
Nd0_3 Pt0_5 3.420841 1_455
Nd0_3 Pt0_2 3.420841 1_555
Nd0_4 Pt2_5 3.420841 1_554
Nd0_4 Pt2_4 3.420841 1_555
Nd0_4 Pt1_5 3.420841 1_554
Nd0_4 Pt1_1 3.420841 1_554
Nd0_4 Pt1_4 3.420841 1_555
Nd0_4 Pt1_0 3.420841 1_555
Nd0_4 Pt2_7 3.420841 1_544
Nd0_4 Pt2_6 3.420841 1_545
Nd0_4 Pt0_4 3.420841 1_555
Nd0_4 Pt0_5 3.420841 1_554
Nd0_4 Pt0_3 3.420841 1_544
Nd0_4 Pt0_2 3.420841 1_545
Nd0_4 Nd0_5 3.956323 1_555
Nd0_4 Nd0_5 3.956323 1_554
Nd0_5 Pt2_4 3.420841 1_555
Nd0_5 Pt2_5 3.420841 1_555
Nd0_5 Pt1_5 3.420841 1_555
Nd0_5 Pt1_4 3.420841 1_555
Nd0_5 Pt1_0 3.420841 1_555
Nd0_5 Pt1_1 3.420841 1_555
Nd0_5 Pt2_7 3.420841 1_545
Nd0_5 Pt2_6 3.420841 1_545
Nd0_5 Pt0_5 3.420841 1_555
Nd0_5 Pt0_4 3.420841 1_555
Nd0_5 Pt0_3 3.420841 1_545
Nd0_5 Pt0_2 3.420841 1_545
Nd0_6 Pt2_6 3.420841 1_555
Nd0_6 Pt2_7 3.420841 1_554
Nd0_6 Pt2_4 3.420841 1_555
Nd0_6 Pt1_2 3.420841 1_555
Nd0_6 Pt1_7 3.420841 1_554
Nd0_6 Pt2_5 3.420841 1_554
Nd0_6 Pt1_3 3.420841 1_554
Nd0_6 Pt1_6 3.420841 1_555
Nd0_6 Pt0_7 3.420841 1_554
Nd0_6 Pt0_6 3.420841 1_555
Nd0_6 Pt0_1 3.420841 1_554
Nd0_6 Pt0_0 3.420841 1_555
Nd0_6 Nd0_7 3.956323 1_554
Nd0_6 Nd0_7 3.956323 1_555
Nd0_7 Pt2_6 3.420841 1_555
Nd0_7 Pt2_7 3.420841 1_555
Nd0_7 Pt2_4 3.420841 1_555
Nd0_7 Pt1_2 3.420841 1_555
Nd0_7 Pt2_5 3.420841 1_555
Nd0_7 Pt1_3 3.420841 1_555
Nd0_7 Pt1_7 3.420841 1_555
Nd0_7 Pt1_6 3.420841 1_555
Nd0_7 Pt0_6 3.420841 1_555
Nd0_7 Pt0_7 3.420841 1_555
Nd0_7 Pt0_1 3.420841 1_555
Nd0_7 Pt0_0 3.420841 1_555
Al0_0 Pt2_5 2.551365 1_554
Al0_0 Pt1_0 2.551365 1_555
Al0_0 Pt1_1 2.551365 1_554
Al0_0 Pt2_4 2.551365 1_555
Al0_0 Pt0_0 2.551368 1_555
Al0_0 Pt0_1 2.551368 1_554
Al0_0 Nd0_4 3.222631 1_555
Al0_0 Nd0_6 3.222636 1_555
Al0_0 Nd0_0 3.222636 1_555
Al0_1 Pt2_5 2.551365 1_555
Al0_1 Pt1_0 2.551365 1_555
Al0_1 Pt1_1 2.551365 1_555
Al0_1 Pt2_4 2.551365 1_555
Al0_1 Pt0_0 2.551368 1_555
Al0_1 Pt0_1 2.551368 1_555
Al0_1 Nd0_5 3.222631 1_555
Al0_1 Nd0_7 3.222636 1_555
Al0_1 Nd0_1 3.222636 1_555
Al0_2 Pt1_3 2.551365 1_554
Al0_2 Pt2_7 2.551365 1_554
Al0_2 Pt2_6 2.551365 1_555
Al0_2 Pt1_2 2.551365 1_555
Al0_2 Pt0_2 2.551368 1_555
Al0_2 Pt0_3 2.551368 1_554
Al0_2 Nd0_6 3.222631 1_555
Al0_2 Nd0_2 3.222636 1_555
Al0_2 Nd0_4 3.222636 1_565
Al0_3 Pt2_7 2.551365 1_555
Al0_3 Pt1_3 2.551365 1_555
Al0_3 Pt2_6 2.551365 1_555
Al0_3 Pt1_2 2.551365 1_555
Al0_3 Pt0_3 2.551368 1_555
Al0_3 Pt0_2 2.551368 1_555
Al0_3 Nd0_7 3.222631 1_555
Al0_3 Nd0_3 3.222636 1_555
Al0_3 Nd0_5 3.222636 1_565
Al0_4 Pt1_5 2.551365 1_554
Al0_4 Pt1_4 2.551365 1_555
Al0_4 Pt2_0 2.551365 1_655
Al0_4 Pt2_1 2.551365 1_654
Al0_4 Pt0_4 2.551368 1_555
Al0_4 Pt0_5 2.551368 1_554
Al0_4 Nd0_0 3.222631 1_655
Al0_4 Nd0_4 3.222636 1_555
Al0_4 Nd0_2 3.222636 1_655
Al0_5 Pt1_4 2.551365 1_555
Al0_5 Pt1_5 2.551365 1_555
Al0_5 Pt2_0 2.551365 1_655
Al0_5 Pt2_1 2.551365 1_655
Al0_5 Pt0_4 2.551368 1_555
Al0_5 Pt0_5 2.551368 1_555
Al0_5 Nd0_1 3.222631 1_655
Al0_5 Nd0_3 3.222636 1_655
Al0_5 Nd0_5 3.222636 1_555
Al0_6 Pt2_2 2.551365 1_655
Al0_6 Pt1_7 2.551365 1_554
Al0_6 Pt2_3 2.551365 1_654
Al0_6 Pt1_6 2.551365 1_555
Al0_6 Pt0_7 2.551368 1_554
Al0_6 Pt0_6 2.551368 1_555
Al0_6 Nd0_2 3.222631 1_655
Al0_6 Nd0_6 3.222636 1_555
Al0_6 Nd0_0 3.222636 1_665
Al0_7 Pt2_2 2.551365 1_655
Al0_7 Pt2_3 2.551365 1_655
Al0_7 Pt1_6 2.551365 1_555
Al0_7 Pt1_7 2.551365 1_555
Al0_7 Pt0_6 2.551368 1_555
Al0_7 Pt0_7 2.551368 1_555
Al0_7 Nd0_3 3.222631 1_655
Al0_7 Nd0_7 3.222636 1_555
Al0_7 Nd0_1 3.222636 1_665
Al1_0 Pt1_2 2.551365 1_555
Al1_0 Pt1_3 2.551365 1_554
Al1_0 Pt2_1 2.551365 1_554
Al1_0 Pt2_0 2.551365 1_555
Al1_0 Pt0_0 2.551368 1_555
Al1_0 Pt0_1 2.551368 1_554
Al1_0 Nd0_2 3.222631 1_555
Al1_0 Nd0_0 3.222636 1_555
Al1_0 Nd0_6 3.222636 1_555
Al1_1 Pt1_2 2.551365 1_555
Al1_1 Pt1_3 2.551365 1_555
Al1_1 Pt2_1 2.551365 1_555
Al1_1 Pt2_0 2.551365 1_555
Al1_1 Pt0_0 2.551368 1_555
Al1_1 Pt0_1 2.551368 1_555
Al1_1 Nd0_3 3.222631 1_555
Al1_1 Nd0_7 3.222636 1_555
Al1_1 Nd0_1 3.222636 1_555
Al1_2 Pt2_2 2.551365 1_555
Al1_2 Pt2_3 2.551365 1_554
Al1_2 Pt1_1 2.551365 1_564
Al1_2 Pt1_0 2.551365 1_565
Al1_2 Pt0_2 2.551368 1_555
Al1_2 Pt0_3 2.551368 1_554
Al1_2 Nd0_0 3.222631 1_565
Al1_2 Nd0_4 3.222636 1_565
Al1_2 Nd0_2 3.222636 1_555
Al1_3 Pt2_2 2.551365 1_555
Al1_3 Pt2_3 2.551365 1_555
Al1_3 Pt1_1 2.551365 1_565
Al1_3 Pt1_0 2.551365 1_565
Al1_3 Pt0_2 2.551368 1_555
Al1_3 Pt0_3 2.551368 1_555
Al1_3 Nd0_1 3.222631 1_565
Al1_3 Nd0_5 3.222636 1_565
Al1_3 Nd0_3 3.222636 1_555
Al1_4 Pt1_7 2.551365 1_554
Al1_4 Pt2_4 2.551365 1_555
Al1_4 Pt1_6 2.551365 1_555
Al1_4 Pt2_5 2.551365 1_554
Al1_4 Pt0_4 2.551368 1_555
Al1_4 Pt0_5 2.551368 1_554
Al1_4 Nd0_6 3.222631 1_555
Al1_4 Nd0_4 3.222636 1_555
Al1_4 Nd0_2 3.222636 1_655
Al1_5 Pt1_7 2.551365 1_555
Al1_5 Pt2_4 2.551365 1_555
Al1_5 Pt2_5 2.551365 1_555
Al1_5 Pt1_6 2.551365 1_555
Al1_5 Pt0_4 2.551368 1_555
Al1_5 Pt0_5 2.551368 1_555
Al1_5 Nd0_7 3.222631 1_555
Al1_5 Nd0_5 3.222636 1_555
Al1_5 Nd0_3 3.222636 1_655
Al1_6 Pt2_6 2.551365 1_555
Al1_6 Pt2_7 2.551365 1_554
Al1_6 Pt1_4 2.551365 1_565
Al1_6 Pt1_5 2.551365 1_564
Al1_6 Pt0_6 2.551368 1_555
Al1_6 Pt0_7 2.551368 1_554
Al1_6 Nd0_4 3.222631 1_565
Al1_6 Nd0_6 3.222636 1_555
Al1_6 Nd0_0 3.222636 1_665
Al1_7 Pt2_6 2.551365 1_555
Al1_7 Pt2_7 2.551365 1_555
Al1_7 Pt1_4 2.551365 1_565
Al1_7 Pt1_5 2.551365 1_565
Al1_7 Pt0_7 2.551368 1_555
Al1_7 Pt0_6 2.551368 1_555
Al1_7 Nd0_5 3.222631 1_565
Al1_7 Nd0_7 3.222636 1_555
Al1_7 Nd0_1 3.222636 1_665
Pt0_0 Pt1_0 2.790883 1_555
Pt0_0 Pt1_2 2.790883 1_555
Pt0_0 Pt2_0 2.790883 1_555
Pt0_0 Pt2_4 2.790883 1_555
Pt0_1 Pt1_3 2.790883 1_555
Pt0_1 Pt1_1 2.790883 1_555
Pt0_1 Pt2_1 2.790883 1_555
Pt0_1 Pt2_5 2.790883 1_555
Pt0_2 Pt2_2 2.790883 1_555
Pt0_2 Pt1_2 2.790883 1_555
Pt0_2 Pt2_6 2.790883 1_555
Pt0_2 Pt1_0 2.790883 1_565
Pt0_3 Pt1_3 2.790883 1_555
Pt0_3 Pt2_3 2.790883 1_555
Pt0_3 Pt2_7 2.790883 1_555
Pt0_3 Pt1_1 2.790883 1_565
Pt0_4 Pt1_6 2.790883 1_555
Pt0_4 Pt1_4 2.790883 1_555
Pt0_4 Pt2_4 2.790883 1_555
Pt0_4 Pt2_0 2.790883 1_655
Pt0_5 Pt1_7 2.790883 1_555
Pt0_5 Pt1_5 2.790883 1_555
Pt0_5 Pt2_5 2.790883 1_555
Pt0_5 Pt2_1 2.790883 1_655
Pt0_6 Pt2_2 2.790883 1_655
Pt0_6 Pt2_6 2.790883 1_555
Pt0_6 Pt1_6 2.790883 1_555
Pt0_6 Pt1_4 2.790883 1_565
Pt0_7 Pt1_7 2.790883 1_555
Pt0_7 Pt2_3 2.790883 1_655
Pt0_7 Pt2_7 2.790883 1_555
Pt0_7 Pt1_5 2.790883 1_565
Pt1_0 Pt2_4 2.790883 1_555
Pt1_0 Pt2_2 2.790883 1_545
Pt1_1 Pt2_5 2.790883 1_555
Pt1_1 Pt2_3 2.790883 1_545
Pt1_2 Pt2_6 2.790883 1_555
Pt1_2 Pt2_0 2.790883 1_555
Pt1_3 Pt2_7 2.790883 1_555
Pt1_3 Pt2_1 2.790883 1_555
Pt1_4 Pt2_0 2.790883 1_655
Pt1_4 Pt2_6 2.790883 1_545
Pt1_5 Pt2_1 2.790883 1_655
Pt1_5 Pt2_7 2.790883 1_545
Pt1_6 Pt2_4 2.790883 1_555
Pt1_6 Pt2_2 2.790883 1_655
Pt1_7 Pt2_5 2.790883 1_555
Pt1_7 Pt2_3 2.790883 1_655
