# generated using pymatgen
data_FeSnN
_symmetry_space_group_name_H-M   'P 1'
_cell_length_a   5.99897400
_cell_length_b   5.99815190
_cell_length_c   25.10336000
_cell_angle_alpha   90.00000000
_cell_angle_beta   90.00000000
_cell_angle_gamma   120.00454502
_symmetry_Int_Tables_number   1
_chemical_formula_structural   FeSnN
_chemical_formula_sum   'Fe16 Sn16 N16'
_cell_volume   782.23462077
_cell_formula_units_Z   16
loop_
 _symmetry_equiv_pos_site_id
 _symmetry_equiv_pos_as_xyz
  1  'x, y, z'
loop_
 _atom_site_type_symbol
 _atom_site_label
 _atom_site_symmetry_multiplicity
 _atom_site_fract_x
 _atom_site_fract_y
 _atom_site_fract_z
 _atom_site_occupancy
  Fe  Fe0_0  1  0.33363300  0.16726600  0.36566450  1
  Fe  Fe0_1  1  0.33363300  0.16726600  0.86566450  1
  Fe  Fe0_2  1  0.33363300  0.66726600  0.36566450  1
  Fe  Fe0_3  1  0.33363300  0.66726600  0.86566450  1
  Fe  Fe0_4  1  0.83363300  0.16726600  0.36566450  1
  Fe  Fe0_5  1  0.83363300  0.16726600  0.86566450  1
  Fe  Fe0_6  1  0.83363300  0.66726600  0.36566450  1
  Fe  Fe0_7  1  0.83363300  0.66726600  0.86566450  1
  Fe  Fe1_0  1  0.16636700  0.33273400  0.11566450  1
  Fe  Fe1_1  1  0.16636700  0.33273400  0.61566450  1
  Fe  Fe1_2  1  0.16636700  0.83273400  0.11566450  1
  Fe  Fe1_3  1  0.16636700  0.83273400  0.61566450  1
  Fe  Fe1_4  1  0.66636700  0.33273400  0.11566450  1
  Fe  Fe1_5  1  0.66636700  0.33273400  0.61566450  1
  Fe  Fe1_6  1  0.66636700  0.83273400  0.11566450  1
  Fe  Fe1_7  1  0.66636700  0.83273400  0.61566450  1
  Sn  Sn0_0  1  0.00006250  0.00012600  0.21129100  1
  Sn  Sn0_1  1  0.00006250  0.00012600  0.71129100  1
  Sn  Sn0_2  1  0.00006250  0.50012600  0.21129100  1
  Sn  Sn0_3  1  0.00006250  0.50012600  0.71129100  1
  Sn  Sn0_4  1  0.50006250  0.00012600  0.21129100  1
  Sn  Sn0_5  1  0.50006250  0.00012600  0.71129100  1
  Sn  Sn0_6  1  0.50006250  0.50012600  0.21129100  1
  Sn  Sn0_7  1  0.50006250  0.50012600  0.71129100  1
  Sn  Sn1_0  1  0.49993750  0.49987400  0.46129100  1
  Sn  Sn1_1  1  0.49993750  0.49987400  0.96129100  1
  Sn  Sn1_2  1  0.49993750  0.99987400  0.46129100  1
  Sn  Sn1_3  1  0.49993750  0.99987400  0.96129100  1
  Sn  Sn1_4  1  0.99993750  0.49987400  0.46129100  1
  Sn  Sn1_5  1  0.99993750  0.49987400  0.96129100  1
  Sn  Sn1_6  1  0.99993750  0.99987400  0.46129100  1
  Sn  Sn1_7  1  0.99993750  0.99987400  0.96129100  1
  N  N0_0  1  0.16688350  0.33376750  0.34536500  1
  N  N0_1  1  0.16688350  0.33376750  0.84536500  1
  N  N0_2  1  0.16688350  0.83376750  0.34536500  1
  N  N0_3  1  0.16688350  0.83376750  0.84536500  1
  N  N0_4  1  0.66688350  0.33376750  0.34536500  1
  N  N0_5  1  0.66688350  0.33376750  0.84536500  1
  N  N0_6  1  0.66688350  0.83376750  0.34536500  1
  N  N0_7  1  0.66688350  0.83376750  0.84536500  1
  N  N1_0  1  0.33311650  0.16623250  0.09536500  1
  N  N1_1  1  0.33311650  0.16623250  0.59536500  1
  N  N1_2  1  0.33311650  0.66623250  0.09536500  1
  N  N1_3  1  0.33311650  0.66623250  0.59536500  1
  N  N1_4  1  0.83311650  0.16623250  0.09536500  1
  N  N1_5  1  0.83311650  0.16623250  0.59536500  1
  N  N1_6  1  0.83311650  0.66623250  0.09536500  1
  N  N1_7  1  0.83311650  0.66623250  0.59536500  1
loop_
_geom_bond_atom_site_label_1
_geom_bond_atom_site_label_2
_geom_bond_distance
_geom_bond_site_symmetry_2
Fe0_0 N0_4 1.804685 1_555
Fe0_0 N0_0 1.804688 1_555
Fe0_0 N0_2 1.805693 1_545
Fe0_0 Sn1_0 2.957612 1_555
Fe0_0 Sn1_6 2.961056 1_445
Fe0_0 Sn1_2 2.961059 1_545
Fe0_1 N0_5 1.804685 1_555
Fe0_1 N0_1 1.804688 1_555
Fe0_1 N0_3 1.805693 1_545
Fe0_1 Sn1_1 2.957612 1_555
Fe0_1 Sn1_7 2.961056 1_445
Fe0_1 Sn1_3 2.961059 1_545
Fe0_2 N0_6 1.804685 1_555
Fe0_2 N0_2 1.804688 1_555
Fe0_2 N0_0 1.805693 1_555
Fe0_2 Sn1_2 2.957612 1_555
Fe0_2 Sn1_4 2.961056 1_455
Fe0_2 Sn1_0 2.961059 1_555
Fe0_3 N0_7 1.804685 1_555
Fe0_3 N0_3 1.804688 1_555
Fe0_3 N0_1 1.805693 1_555
Fe0_3 Sn1_3 2.957612 1_555
Fe0_3 Sn1_5 2.961056 1_455
Fe0_3 Sn1_1 2.961059 1_555
Fe0_4 N0_0 1.804685 1_655
Fe0_4 N0_4 1.804688 1_555
Fe0_4 N0_6 1.805693 1_545
Fe0_4 Sn1_4 2.957612 1_555
Fe0_4 Sn1_2 2.961056 1_545
Fe0_4 Sn1_6 2.961059 1_545
Fe0_5 N0_1 1.804685 1_655
Fe0_5 N0_5 1.804688 1_555
Fe0_5 N0_7 1.805693 1_545
Fe0_5 Sn1_5 2.957612 1_555
Fe0_5 Sn1_3 2.961056 1_545
Fe0_5 Sn1_7 2.961059 1_545
Fe0_6 N0_2 1.804685 1_655
Fe0_6 N0_6 1.804688 1_555
Fe0_6 N0_4 1.805693 1_555
Fe0_6 Sn1_6 2.957612 1_555
Fe0_6 Sn1_0 2.961056 1_555
Fe0_6 Sn1_4 2.961059 1_555
Fe0_7 N0_3 1.804685 1_655
Fe0_7 N0_7 1.804688 1_555
Fe0_7 N0_5 1.805693 1_555
Fe0_7 Sn1_7 2.957612 1_555
Fe0_7 Sn1_1 2.961056 1_555
Fe0_7 Sn1_5 2.961059 1_555
Fe1_0 N1_4 1.804685 1_455
Fe1_0 N1_0 1.804688 1_555
Fe1_0 N1_2 1.805693 1_555
Fe1_0 Sn0_0 2.957612 1_555
Fe1_0 Sn0_6 2.961056 1_555
Fe1_0 Sn0_2 2.961059 1_555
Fe1_1 N1_5 1.804685 1_455
Fe1_1 N1_1 1.804688 1_555
Fe1_1 N1_3 1.805693 1_555
Fe1_1 Sn0_1 2.957612 1_555
Fe1_1 Sn0_7 2.961056 1_555
Fe1_1 Sn0_3 2.961059 1_555
Fe1_2 N1_6 1.804685 1_455
Fe1_2 N1_2 1.804688 1_555
Fe1_2 N1_0 1.805693 1_565
Fe1_2 Sn0_2 2.957612 1_555
Fe1_2 Sn0_4 2.961056 1_565
Fe1_2 Sn0_0 2.961059 1_565
Fe1_3 N1_7 1.804685 1_455
Fe1_3 N1_3 1.804688 1_555
Fe1_3 N1_1 1.805693 1_565
Fe1_3 Sn0_3 2.957612 1_555
Fe1_3 Sn0_5 2.961056 1_565
Fe1_3 Sn0_1 2.961059 1_565
Fe1_4 N1_0 1.804685 1_555
Fe1_4 N1_4 1.804688 1_555
Fe1_4 N1_6 1.805693 1_555
Fe1_4 Sn0_4 2.957612 1_555
Fe1_4 Sn0_2 2.961056 1_655
Fe1_4 Sn0_6 2.961059 1_555
Fe1_5 N1_1 1.804685 1_555
Fe1_5 N1_5 1.804688 1_555
Fe1_5 N1_7 1.805693 1_555
Fe1_5 Sn0_5 2.957612 1_555
Fe1_5 Sn0_3 2.961056 1_655
Fe1_5 Sn0_7 2.961059 1_555
Fe1_6 N1_2 1.804685 1_555
Fe1_6 N1_6 1.804688 1_555
Fe1_6 N1_4 1.805693 1_565
Fe1_6 Sn0_6 2.957612 1_555
Fe1_6 Sn0_0 2.961056 1_665
Fe1_6 Sn0_4 2.961059 1_565
Fe1_7 N1_3 1.804685 1_555
Fe1_7 N1_7 1.804688 1_555
Fe1_7 N1_5 1.805693 1_565
Fe1_7 Sn0_7 2.957612 1_555
Fe1_7 Sn0_1 2.961056 1_665
Fe1_7 Sn0_5 2.961059 1_565
Sn0_0 Sn0_6 2.999075 1_555
Sn0_0 Sn0_6 2.999075 1_445
Sn0_0 Sn0_2 2.999076 1_555
Sn0_0 Sn0_2 2.999076 1_545
Sn0_0 Sn0_4 2.999487 1_555
Sn0_0 Sn0_4 2.999487 1_455
Sn0_1 Sn0_7 2.999075 1_555
Sn0_1 Sn0_7 2.999075 1_445
Sn0_1 Sn0_3 2.999076 1_555
Sn0_1 Sn0_3 2.999076 1_545
Sn0_1 Sn0_5 2.999487 1_555
Sn0_1 Sn0_5 2.999487 1_455
Sn0_2 Sn0_4 2.999075 1_455
Sn0_2 Sn0_4 2.999075 1_565
Sn0_2 Sn0_6 2.999487 1_555
Sn0_2 Sn0_6 2.999487 1_455
Sn0_3 Sn0_5 2.999075 1_455
Sn0_3 Sn0_5 2.999075 1_565
Sn0_3 Sn0_7 2.999487 1_455
Sn0_3 Sn0_7 2.999487 1_555
Sn0_4 Sn0_6 2.999076 1_555
Sn0_4 Sn0_6 2.999076 1_545
Sn0_5 Sn0_7 2.999076 1_555
Sn0_5 Sn0_7 2.999076 1_545
Sn1_0 Sn1_6 2.999075 1_555
Sn1_0 Sn1_6 2.999075 1_445
Sn1_0 Sn1_2 2.999076 1_555
Sn1_0 Sn1_2 2.999076 1_545
Sn1_0 Sn1_4 2.999487 1_555
Sn1_0 Sn1_4 2.999487 1_455
Sn1_1 Sn1_7 2.999075 1_555
Sn1_1 Sn1_7 2.999075 1_445
Sn1_1 Sn1_3 2.999076 1_555
Sn1_1 Sn1_3 2.999076 1_545
Sn1_1 Sn1_5 2.999487 1_555
Sn1_1 Sn1_5 2.999487 1_455
Sn1_2 Sn1_4 2.999075 1_455
Sn1_2 Sn1_4 2.999075 1_565
Sn1_2 Sn1_6 2.999487 1_455
Sn1_2 Sn1_6 2.999487 1_555
Sn1_3 Sn1_5 2.999075 1_455
Sn1_3 Sn1_5 2.999075 1_565
Sn1_3 Sn1_7 2.999487 1_455
Sn1_3 Sn1_7 2.999487 1_555
Sn1_4 Sn1_6 2.999076 1_555
Sn1_4 Sn1_6 2.999076 1_545
Sn1_5 Sn1_7 2.999076 1_555
Sn1_5 Sn1_7 2.999076 1_545
