# generated using pymatgen
data_Sr5(SnAs3)2
_symmetry_space_group_name_H-M   'P 1'
_cell_length_a   4.27471625
_cell_length_b   12.56739827
_cell_length_c   14.19535400
_cell_angle_alpha   90.00000000
_cell_angle_beta   90.00000000
_cell_angle_gamma   90.00000000
_symmetry_Int_Tables_number   1
_chemical_formula_structural   Sr5(SnAs3)2
_chemical_formula_sum   'Sr10 Sn4 As12'
_cell_volume   762.60368209
_cell_formula_units_Z   2
loop_
 _symmetry_equiv_pos_site_id
 _symmetry_equiv_pos_as_xyz
  1  'x, y, z'
loop_
 _atom_site_type_symbol
 _atom_site_label
 _atom_site_symmetry_multiplicity
 _atom_site_fract_x
 _atom_site_fract_y
 _atom_site_fract_z
 _atom_site_occupancy
  Sr  Sr0  1  0.00000000  0.62091563  0.25743047  1
  Sr  Sr1  1  -0.00000000  0.37908437  0.74256953  1
  Sr  Sr2  1  0.00000000  0.12091563  0.24256953  1
  Sr  Sr3  1  -0.00000000  0.87908437  0.75743047  1
  Sr  Sr4  1  0.00000000  0.86961595  0.43195499  1
  Sr  Sr5  1  0.00000000  0.13038405  0.56804501  1
  Sr  Sr6  1  -0.00000000  0.36961595  0.06804501  1
  Sr  Sr7  1  -0.00000000  0.63038405  0.93195499  1
  Sr  Sr8  1  0.00000000  0.50000000  0.50000000  1
  Sr  Sr9  1  -0.00000000  0.00000000  -0.00000000  1
  Sn  Sn0  1  0.50000000  0.78597716  0.10407829  1
  Sn  Sn1  1  0.50000000  0.21402284  0.89592171  1
  Sn  Sn2  1  0.50000000  0.28597716  0.39592171  1
  Sn  Sn3  1  0.50000000  0.71402284  0.60407829  1
  As  As0  1  0.50000000  0.57826313  0.10159210  1
  As  As1  1  0.50000000  0.42173687  0.89840790  1
  As  As2  1  0.50000000  0.07826313  0.39840790  1
  As  As3  1  0.50000000  0.92173687  0.60159210  1
  As  As4  1  0.50000000  0.66961804  0.42269423  1
  As  As5  1  0.50000000  0.33038196  0.57730577  1
  As  As6  1  0.50000000  0.16961804  0.07730577  1
  As  As7  1  0.50000000  0.83038196  0.92269423  1
  As  As8  1  -0.00000000  0.86785794  0.19555000  1
  As  As9  1  -0.00000000  0.13214206  0.80445000  1
  As  As10  1  0.00000000  0.36785794  0.30445000  1
  As  As11  1  -0.00000000  0.63214206  0.69555000  1
loop_
_geom_bond_atom_site_label_1
_geom_bond_atom_site_label_2
_geom_bond_distance
_geom_bond_site_symmetry_2
As0 Sn0 2.610664 1_555
As0 Sr0 3.122399 1_655
As0 Sr0 3.122399 1_555
As0 Sr7 3.285743 1_554
As0 Sr7 3.285743 1_654
As0 Sr6 3.416249 1_655
As0 Sr6 3.416249 1_555
As1 Sn1 2.610664 1_555
As1 Sr1 3.122399 1_555
As1 Sr1 3.122399 1_655
As1 Sr6 3.285743 1_556
As1 Sr6 3.285743 1_656
As1 Sr7 3.416249 1_655
As1 Sr7 3.416249 1_555
As2 Sn2 2.610664 1_555
As2 Sr2 3.122399 1_655
As2 Sr2 3.122399 1_555
As2 Sr5 3.285743 1_555
As2 Sr5 3.285743 1_655
As2 Sr4 3.416249 1_645
As2 Sr4 3.416249 1_545
As3 Sn3 2.610664 1_555
As3 Sr3 3.122399 1_555
As3 Sr3 3.122399 1_655
As3 Sr4 3.285743 1_555
As3 Sr4 3.285743 1_655
As3 Sr5 3.416249 1_565
As3 Sr5 3.416249 1_665
As4 Sn3 2.634592 1_555
As4 Sr8 3.211933 1_555
As4 Sr8 3.211933 1_655
As4 Sr0 3.232109 1_655
As4 Sr0 3.232109 1_555
As4 Sr4 3.301974 1_555
As4 Sr4 3.301974 1_655
As5 Sn2 2.634592 1_555
As5 Sr8 3.211933 1_555
As5 Sr8 3.211933 1_655
As5 Sr1 3.232109 1_555
As5 Sr1 3.232109 1_655
As5 Sr5 3.301974 1_555
As5 Sr5 3.301974 1_655
As6 Sn1 2.634592 1_554
As6 Sr9 3.211933 1_555
As6 Sr9 3.211933 1_655
As6 Sr2 3.232109 1_555
As6 Sr2 3.232109 1_655
As6 Sr6 3.301974 1_655
As6 Sr6 3.301974 1_555
As7 Sn0 2.634592 1_556
As7 Sr9 3.211933 1_566
As7 Sr9 3.211933 1_666
As7 Sr3 3.232109 1_555
As7 Sr3 3.232109 1_655
As7 Sr7 3.301974 1_655
As7 Sr7 3.301974 1_555
As8 Sn0 2.704299 1_455
As8 Sn0 2.704299 1_555
As8 Sr0 3.225344 1_555
As8 Sr9 3.234732 1_565
As8 Sr2 3.249563 1_565
As8 Sr4 3.355925 1_555
As9 Sn1 2.704299 1_455
As9 Sn1 2.704299 1_555
As9 Sr1 3.225344 1_555
As9 Sr9 3.234732 1_556
As9 Sr3 3.249563 1_545
As9 Sr5 3.355925 1_555
As10 Sn2 2.704299 1_555
As10 Sn2 2.704299 1_455
As10 Sr2 3.225344 1_555
As10 Sr8 3.234732 1_555
As10 Sr0 3.249563 1_555
As10 Sr6 3.355925 1_555
As11 Sn3 2.704299 1_455
As11 Sn3 2.704299 1_555
As11 Sr3 3.225344 1_555
As11 Sr8 3.234732 1_555
As11 Sr1 3.249563 1_555
As11 Sr7 3.355925 1_555
