# generated using pymatgen
data_Mg2Ti
_symmetry_space_group_name_H-M   'P 1'
_cell_length_a   5.32134976
_cell_length_b   5.32134976
_cell_length_c   5.08543300
_cell_angle_alpha   90.00000000
_cell_angle_beta   90.00000000
_cell_angle_gamma   119.99999696
_symmetry_Int_Tables_number   1
_chemical_formula_structural   Mg2Ti
_chemical_formula_sum   'Mg4 Ti2'
_cell_volume   124.71026189
_cell_formula_units_Z   2
loop_
 _symmetry_equiv_pos_site_id
 _symmetry_equiv_pos_as_xyz
  1  'x, y, z'
loop_
 _atom_site_type_symbol
 _atom_site_label
 _atom_site_symmetry_multiplicity
 _atom_site_fract_x
 _atom_site_fract_y
 _atom_site_fract_z
 _atom_site_occupancy
  Mg  Mg0  1  0.65744900  0.00000000  0.00000000  1
  Mg  Mg1  1  0.34255100  0.34255100  0.00000000  1
  Mg  Mg2  1  0.00000000  0.65744900  0.00000000  1
  Mg  Mg3  1  0.00000000  0.00000000  0.50000000  1
  Ti  Ti0  1  0.66666700  0.33333300  0.50000000  1
  Ti  Ti1  1  0.33333300  0.66666700  0.50000000  1
loop_
_geom_bond_atom_site_label_1
_geom_bond_atom_site_label_2
_geom_bond_distance
_geom_bond_site_symmetry_2
Mg0 Mg1 3.030697 1_555
Mg0 Mg1 3.030697 1_545
Mg0 Mg2 3.030697 1_545
Mg0 Mg2 3.030697 1_655
Mg0 Ti0 3.086601 1_554
Mg0 Ti0 3.086601 1_555
Mg0 Ti1 3.086603 1_544
Mg0 Ti1 3.086603 1_545
Mg0 Mg3 3.128599 1_654
Mg0 Mg3 3.128599 1_655
Mg0 Mg2 3.157240 1_645
Mg0 Mg1 3.157241 1_655
Mg1 Mg2 3.030697 1_555
Mg1 Mg2 3.030697 1_655
Mg1 Ti0 3.086604 1_554
Mg1 Ti0 3.086604 1_555
Mg1 Ti1 3.086604 1_554
Mg1 Ti1 3.086604 1_555
Mg1 Mg3 3.128599 1_555
Mg1 Mg3 3.128599 1_554
Mg1 Mg2 3.157241 1_545
Mg2 Ti1 3.086601 1_554
Mg2 Ti1 3.086601 1_555
Mg2 Ti0 3.086603 1_455
Mg2 Ti0 3.086603 1_454
Mg2 Mg3 3.128599 1_565
Mg2 Mg3 3.128599 1_564
Mg3 Ti1 3.072280 1_545
Mg3 Ti0 3.072280 1_455
Mg3 Ti1 3.072284 1_555
Mg3 Ti1 3.072284 1_445
Mg3 Ti0 3.072284 1_555
Mg3 Ti0 3.072284 1_445
Ti0 Ti1 3.072280 1_545
Ti0 Ti1 3.072280 1_655
Ti0 Ti1 3.072289 1_555
