# generated using pymatgen
data_Sn2Sb4Pt3
_symmetry_space_group_name_H-M   'P 1'
_cell_length_a   3.94610300
_cell_length_b   8.56340183
_cell_length_c   13.03201807
_cell_angle_alpha   98.55492419
_cell_angle_beta   90.00000000
_cell_angle_gamma   90.00000000
_symmetry_Int_Tables_number   1
_chemical_formula_structural   Sn2Sb4Pt3
_chemical_formula_sum   'Sn4 Sb8 Pt6'
_cell_volume   435.47903114
_cell_formula_units_Z   2
loop_
 _symmetry_equiv_pos_site_id
 _symmetry_equiv_pos_as_xyz
  1  'x, y, z'
loop_
 _atom_site_type_symbol
 _atom_site_label
 _atom_site_symmetry_multiplicity
 _atom_site_fract_x
 _atom_site_fract_y
 _atom_site_fract_z
 _atom_site_occupancy
  Sn  Sn0  1  0.50000000  0.32590100  0.80864300  1
  Sn  Sn1  1  0.50000000  0.99239700  0.14290300  1
  Sn  Sn2  1  0.50000000  0.66062600  0.47842300  1
  Sn  Sn3  1  0.50000000  0.67519600  0.19070800  1
  Sb  Sb0  1  0.50000000  0.34216200  0.52347600  1
  Sb  Sb1  1  0.50000000  0.00788900  0.85728000  1
  Sb  Sb2  1  0.00000000  0.31419000  0.05441800  1
  Sb  Sb3  1  0.00000000  0.97846000  0.38609800  1
  Sb  Sb4  1  0.00000000  0.64657300  0.72094600  1
  Sb  Sb5  1  0.00000000  0.68605200  0.94654200  1
  Sb  Sb6  1  0.00000000  0.35337000  0.27867400  1
  Sb  Sb7  1  0.00000000  0.01821600  0.61221000  1
  Pt  Pt0  1  0.50000000  0.83341200  0.66873300  1
  Pt  Pt1  1  0.50000000  0.49918800  0.99965300  1
  Pt  Pt2  1  0.50000000  0.16758900  0.33443100  1
  Pt  Pt3  1  0.00000000  0.33202400  0.66469100  1
  Pt  Pt4  1  0.00000000  0.00103700  0.99805200  1
  Pt  Pt5  1  0.00000000  0.66571600  0.33412000  1
loop_
_geom_bond_atom_site_label_1
_geom_bond_atom_site_label_2
_geom_bond_distance
_geom_bond_site_symmetry_2
Sn1 Sn3 2.875758 1_555
Sb0 Sn2 2.873737 1_555
Sb1 Sn0 2.886428 1_555
Sb2 Sb6 2.891695 1_555
Sb3 Sb7 2.915554 1_565
Sb4 Sb5 2.908954 1_555
Pt0 Sb1 2.679124 1_565
Pt0 Sb4 2.690680 1_555
Pt0 Sb4 2.690680 1_655
Pt0 Sn2 2.692313 1_555
Pt0 Sb7 2.699409 1_565
Pt0 Sb7 2.699409 1_665
Pt1 Sb2 2.692287 1_556
Pt1 Sb2 2.692287 1_656
Pt1 Sb5 2.694833 1_555
Pt1 Sb5 2.694833 1_655
Pt1 Sn0 2.701741 1_555
Pt1 Sn3 2.711918 1_556
Pt2 Sb0 2.684885 1_555
Pt2 Sb3 2.700705 1_645
Pt2 Sb3 2.700705 1_545
Pt2 Sb6 2.701086 1_555
Pt2 Sb6 2.701086 1_655
Pt2 Sn1 2.714156 1_545
Pt3 Sb7 2.672517 1_555
Pt3 Sb4 2.684303 1_555
Pt3 Sb0 2.708278 1_455
Pt3 Sb0 2.708278 1_555
Pt3 Sn0 2.728418 1_555
Pt3 Sn0 2.728418 1_455
Pt4 Sb2 2.672976 1_556
Pt4 Sb5 2.680965 1_545
Pt4 Sb1 2.700731 1_455
Pt4 Sb1 2.700731 1_555
Pt4 Sn1 2.739229 1_446
Pt4 Sn1 2.739229 1_546
Pt5 Sb3 2.663008 1_555
Pt5 Sb6 2.664838 1_555
Pt5 Sn3 2.727202 1_455
Pt5 Sn3 2.727202 1_555
Pt5 Sn2 2.730517 1_455
Pt5 Sn2 2.730517 1_555
