# generated using pymatgen
data_SrMg14Cu
_symmetry_space_group_name_H-M   'P 1'
_cell_length_a   6.48573091
_cell_length_b   6.48573037
_cell_length_c   10.35840142
_cell_angle_alpha   90.00000000
_cell_angle_beta   90.00000000
_cell_angle_gamma   120.00000282
_symmetry_Int_Tables_number   1
_chemical_formula_structural   SrMg14Cu
_chemical_formula_sum   'Sr1 Mg14 Cu1'
_cell_volume   377.34723520
_cell_formula_units_Z   1
loop_
 _symmetry_equiv_pos_site_id
 _symmetry_equiv_pos_as_xyz
  1  'x, y, z'
loop_
 _atom_site_type_symbol
 _atom_site_label
 _atom_site_symmetry_multiplicity
 _atom_site_fract_x
 _atom_site_fract_y
 _atom_site_fract_z
 _atom_site_occupancy
  Sr  Sr0  1  0.16666700  0.33333300  0.62500000  1
  Mg  Mg0  1  0.15971658  0.82985779  0.12500000  1
  Mg  Mg1  1  0.17912028  0.83955964  0.62500000  1
  Mg  Mg2  1  0.67014221  0.34028342  0.12500000  1
  Mg  Mg3  1  0.66044036  0.32087972  0.62500000  1
  Mg  Mg4  1  0.67014221  0.82985779  0.12500000  1
  Mg  Mg5  1  0.66044036  0.83955964  0.62500000  1
  Mg  Mg6  1  0.33198707  0.16801293  0.35227916  1
  Mg  Mg7  1  0.33198707  0.16801293  0.89772084  1
  Mg  Mg8  1  0.33198707  0.66397513  0.35227916  1
  Mg  Mg9  1  0.33198707  0.66397513  0.89772084  1
  Mg  Mg10  1  0.83602487  0.16801293  0.35227916  1
  Mg  Mg11  1  0.83602487  0.16801293  0.89772084  1
  Mg  Mg12  1  0.83333300  0.66666700  0.38290989  1
  Mg  Mg13  1  0.83333300  0.66666700  0.86709011  1
  Cu  Cu0  1  0.16666700  0.33333300  0.12500000  1
loop_
_geom_bond_atom_site_label_1
_geom_bond_atom_site_label_2
_geom_bond_distance
_geom_bond_site_symmetry_2
Mg0 Mg8 3.024965 1_555
Mg0 Mg9 3.024965 1_554
Mg0 Mg6 3.024972 1_565
Mg0 Mg7 3.024972 1_564
Mg0 Mg2 3.175247 1_455
Mg0 Mg4 3.175248 1_455
Mg0 Mg12 3.240037 1_455
Mg0 Mg13 3.240037 1_454
Mg0 Mg2 3.310483 1_565
Mg0 Mg4 3.310483 1_555
Mg1 Mg3 3.121712 1_565
Mg1 Mg5 3.121713 1_555
Mg1 Mg12 3.171847 1_455
Mg1 Mg13 3.171847 1_455
Mg1 Sr0 3.243619 1_555
Mg1 Sr0 3.243619 1_565
Mg1 Mg3 3.364018 1_455
Mg1 Mg5 3.364018 1_455
Mg1 Mg9 3.374795 1_555
Mg1 Mg8 3.374795 1_555
Mg1 Mg7 3.374802 1_565
Mg1 Mg6 3.374802 1_565
Mg2 Mg7 3.024972 1_554
Mg2 Mg6 3.024972 1_555
Mg2 Mg4 3.175247 1_555
Mg2 Mg4 3.310483 1_545
Mg3 Mg5 3.121712 1_545
Mg3 Sr0 3.243620 1_655
Mg3 Sr0 3.243620 1_555
Mg3 Mg5 3.364018 1_555
Mg3 Mg7 3.374802 1_555
Mg3 Mg6 3.374802 1_555
Mg4 Mg8 3.024972 1_555
Mg4 Mg9 3.024972 1_554
Mg5 Sr0 3.243619 1_555
Mg5 Sr0 3.243619 1_665
Mg5 Mg9 3.374801 1_555
Mg5 Mg8 3.374801 1_555
Mg6 Mg8 3.216677 1_555
Mg6 Mg8 3.269053 1_545
Mg6 Sr0 3.380729 1_555
Mg7 Mg9 3.216677 1_555
Mg7 Mg9 3.269053 1_545
Mg7 Sr0 3.380729 1_555
Mg8 Sr0 3.380735 1_555
Mg9 Sr0 3.380735 1_555
Mg10 Mg2 3.024965 1_555
Mg10 Mg4 3.024972 1_545
Mg10 Mg8 3.216677 1_655
Mg10 Mg6 3.216677 1_655
Mg10 Mg12 3.258385 1_545
Mg10 Mg12 3.258385 1_555
Mg10 Mg8 3.269053 1_545
Mg10 Mg6 3.269054 1_555
Mg10 Mg3 3.374795 1_555
Mg10 Mg5 3.374801 1_545
Mg10 Sr0 3.380735 1_655
Mg11 Mg2 3.024965 1_556
Mg11 Mg4 3.024972 1_546
Mg11 Mg9 3.216677 1_655
Mg11 Mg7 3.216677 1_655
Mg11 Mg13 3.258385 1_545
Mg11 Mg13 3.258385 1_555
Mg11 Mg9 3.269053 1_545
Mg11 Mg7 3.269054 1_555
Mg11 Mg3 3.374795 1_555
Mg11 Mg5 3.374801 1_545
Mg11 Sr0 3.380735 1_655
Mg12 Mg5 3.171840 1_555
Mg12 Mg3 3.171847 1_555
Mg12 Mg4 3.240031 1_555
Mg12 Mg2 3.240037 1_555
Mg12 Mg6 3.258385 1_665
Mg12 Mg6 3.258385 1_555
Mg12 Mg8 3.258385 1_555
Mg12 Mg8 3.258385 1_655
Mg13 Mg5 3.171840 1_555
Mg13 Mg3 3.171847 1_555
Mg13 Mg4 3.240031 1_556
Mg13 Mg2 3.240037 1_556
Mg13 Mg7 3.258385 1_665
Mg13 Mg7 3.258385 1_555
Mg13 Mg9 3.258385 1_555
Mg13 Mg9 3.258385 1_655
Cu0 Mg6 2.998577 1_555
Cu0 Mg7 2.998577 1_554
Cu0 Mg8 2.998584 1_555
Cu0 Mg9 2.998584 1_554
Cu0 Mg11 2.998584 1_454
Cu0 Mg10 2.998584 1_455
Cu0 Mg4 3.243100 1_445
Cu0 Mg0 3.243100 1_545
Cu0 Mg4 3.243100 1_555
Cu0 Mg0 3.243100 1_555
Cu0 Mg2 3.243100 1_555
Cu0 Mg2 3.243100 1_455
