# generated using pymatgen
data_BaNaVS4
_symmetry_space_group_name_H-M   'P 1'
_cell_length_a   9.61574400
_cell_length_b   6.53497400
_cell_length_c   12.27311208
_cell_angle_alpha   70.70207839
_cell_angle_beta   90.00000000
_cell_angle_gamma   90.00000000
_symmetry_Int_Tables_number   1
_chemical_formula_structural   BaNaVS4
_chemical_formula_sum   'Ba4 Na4 V4 S16'
_cell_volume   727.89273449
_cell_formula_units_Z   4
loop_
 _symmetry_equiv_pos_site_id
 _symmetry_equiv_pos_as_xyz
  1  'x, y, z'
loop_
 _atom_site_type_symbol
 _atom_site_label
 _atom_site_symmetry_multiplicity
 _atom_site_fract_x
 _atom_site_fract_y
 _atom_site_fract_z
 _atom_site_occupancy
  Ba  Ba0  1  0.88500300  0.37764100  0.34421800  1
  Ba  Ba1  1  0.61499700  0.37764100  0.84421800  1
  Ba  Ba2  1  0.11499700  0.62235900  0.65578200  1
  Ba  Ba3  1  0.38500300  0.62235900  0.15578200  1
  Na  Na0  1  0.11558700  0.23086600  0.02494400  1
  Na  Na1  1  0.38441300  0.23086600  0.52494400  1
  Na  Na2  1  0.88441300  0.76913400  0.97505600  1
  Na  Na3  1  0.61558700  0.76913400  0.47505600  1
  V  V0  1  0.61904900  0.12019000  0.18471600  1
  V  V1  1  0.88095100  0.12019000  0.68471600  1
  V  V2  1  0.38095100  0.87981000  0.81528400  1
  V  V3  1  0.11904900  0.87981000  0.31528400  1
  S  S0  1  0.79022900  0.31852800  0.09197100  1
  S  S1  1  0.70977100  0.31852800  0.59197100  1
  S  S2  1  0.20977100  0.68147200  0.90802900  1
  S  S3  1  0.29022900  0.68147200  0.40802900  1
  S  S4  1  0.93676300  0.82307500  0.42223500  1
  S  S5  1  0.56323700  0.82307500  0.92223500  1
  S  S6  1  0.06323700  0.17692500  0.57776500  1
  S  S7  1  0.43676300  0.17692500  0.07776500  1
  S  S8  1  0.56973600  0.21154900  0.33537100  1
  S  S9  1  0.93026400  0.21154900  0.83537100  1
  S  S10  1  0.43026400  0.78845100  0.66462900  1
  S  S11  1  0.06973600  0.78845100  0.16462900  1
  S  S12  1  0.17054600  0.21804700  0.26694100  1
  S  S13  1  0.32945400  0.21804700  0.76694100  1
  S  S14  1  0.82945400  0.78195300  0.73305900  1
  S  S15  1  0.67054600  0.78195300  0.23305900  1
loop_
_geom_bond_atom_site_label_1
_geom_bond_atom_site_label_2
_geom_bond_distance
_geom_bond_site_symmetry_2
Ba0 S12 3.190604 1_655
Ba0 S6 3.223152 1_655
Ba0 S8 3.233875 1_555
Ba0 S15 3.272963 1_555
Ba0 S11 3.362993 1_655
Ba0 S0 3.369648 1_555
Ba0 S1 3.384949 1_555
Ba0 S4 3.388233 1_555
Ba0 S4 3.464804 1_545
Ba1 S13 3.190604 1_555
Ba1 S7 3.223152 1_556
Ba1 S9 3.233875 1_555
Ba1 S14 3.272963 1_555
Ba1 S10 3.362993 1_555
Ba1 S1 3.369648 1_555
Ba1 S0 3.384949 1_556
Ba1 S5 3.388233 1_555
Ba1 S5 3.464804 1_545
Ba2 S14 3.190604 1_455
Ba2 S4 3.223152 1_455
Ba2 S10 3.233875 1_555
Ba2 S13 3.272963 1_555
Ba2 S9 3.362993 1_455
Ba2 S2 3.369648 1_555
Ba2 S3 3.384949 1_555
Ba2 S6 3.388233 1_555
Ba2 S6 3.464804 1_565
Ba3 S15 3.190604 1_555
Ba3 S5 3.223152 1_554
Ba3 S11 3.233875 1_555
Ba3 S12 3.272963 1_555
Ba3 S8 3.362993 1_555
Ba3 S3 3.369648 1_555
Ba3 S2 3.384949 1_554
Ba3 S7 3.388233 1_555
Ba3 S7 3.464804 1_565
Na0 S11 2.866399 1_545
Na0 S2 2.959326 1_554
Na0 S9 2.966304 1_454
Na0 S12 2.990499 1_555
Na0 S7 3.151406 1_555
Na0 S0 3.332306 1_455
Na1 S10 2.866399 1_545
Na1 S3 2.959326 1_555
Na1 S8 2.966304 1_555
Na1 S13 2.990499 1_555
Na1 S6 3.151406 1_555
Na1 S1 3.332306 1_555
Na2 S9 2.866399 1_565
Na2 S0 2.959326 1_556
Na2 S11 2.966304 1_656
Na2 S14 2.990499 1_555
Na2 S5 3.151406 1_555
Na2 S2 3.332306 1_655
Na3 S8 2.866399 1_565
Na3 S1 2.959326 1_555
Na3 S10 2.966304 1_555
Na3 S15 2.990499 1_555
Na3 S4 3.151406 1_555
Na3 S3 3.332306 1_555
S0 V0 2.170222 1_555
S1 V1 2.170222 1_555
S2 V2 2.170222 1_555
S3 V3 2.170222 1_555
S4 V3 2.147355 1_655
S5 V2 2.147355 1_555
S6 V1 2.147355 1_455
S7 V0 2.147355 1_555
S8 V0 2.174800 1_555
S9 V1 2.174800 1_555
S10 V2 2.174800 1_555
S11 V3 2.174800 1_555
S12 V3 2.148522 1_545
S13 V2 2.148522 1_545
S14 V1 2.148522 1_565
S15 V0 2.148522 1_565
