# generated using pymatgen
data_Mg14SiSb
_symmetry_space_group_name_H-M   'P 1'
_cell_length_a   6.28631649
_cell_length_b   6.52853077
_cell_length_c   10.19207321
_cell_angle_alpha   90.00000000
_cell_angle_beta   90.00000000
_cell_angle_gamma   121.28298076
_symmetry_Int_Tables_number   1
_chemical_formula_structural   Mg14SiSb
_chemical_formula_sum   'Mg14 Si1 Sb1'
_cell_volume   357.47344276
_cell_formula_units_Z   1
loop_
 _symmetry_equiv_pos_site_id
 _symmetry_equiv_pos_as_xyz
  1  'x, y, z'
loop_
 _atom_site_type_symbol
 _atom_site_label
 _atom_site_symmetry_multiplicity
 _atom_site_fract_x
 _atom_site_fract_y
 _atom_site_fract_z
 _atom_site_occupancy
  Mg  Mg0  1  0.17034178  0.33517039  0.62500000  1
  Mg  Mg1  1  0.17101536  0.83550718  0.62500000  1
  Mg  Mg2  1  0.67002339  0.33491549  0.12500000  1
  Mg  Mg3  1  0.66783277  0.33339949  0.62500000  1
  Mg  Mg4  1  0.67002339  0.83510690  0.12500000  1
  Mg  Mg5  1  0.66783277  0.83443228  0.62500000  1
  Mg  Mg6  1  0.33014009  0.16995692  0.37128024  1
  Mg  Mg7  1  0.33014009  0.16995692  0.87871976  1
  Mg  Mg8  1  0.33014009  0.66018417  0.37128024  1
  Mg  Mg9  1  0.33014009  0.66018417  0.87871976  1
  Mg  Mg10  1  0.83751486  0.16875793  0.37079713  1
  Mg  Mg11  1  0.83751486  0.16875793  0.87920287  1
  Mg  Mg12  1  0.83173511  0.66586806  0.37713431  1
  Mg  Mg13  1  0.83173511  0.66586806  0.87286569  1
  Si  Si0  1  0.16131277  0.33065589  0.12500000  1
  Sb  Sb0  1  0.16255746  0.83127823  0.12500000  1
loop_
_geom_bond_atom_site_label_1
_geom_bond_atom_site_label_2
_geom_bond_distance
_geom_bond_site_symmetry_2
Mg0 Mg5 3.133405 1_555
Mg0 Mg3 3.133405 1_555
Mg0 Mg11 3.147970 1_455
Mg0 Mg10 3.147970 1_455
Mg0 Mg5 3.152942 1_445
Mg0 Mg3 3.152943 1_455
Mg0 Mg7 3.159869 1_555
Mg0 Mg6 3.159869 1_555
Mg0 Mg9 3.159875 1_555
Mg0 Mg8 3.159875 1_555
Mg0 Mg1 3.264267 1_555
Mg0 Mg1 3.264267 1_545
Mg1 Mg13 3.115187 1_455
Mg1 Mg12 3.115187 1_455
Mg1 Mg3 3.126801 1_565
Mg1 Mg5 3.126801 1_555
Mg1 Mg3 3.159526 1_455
Mg1 Mg5 3.159527 1_455
Mg1 Mg9 3.191682 1_555
Mg1 Mg8 3.191682 1_555
Mg1 Mg6 3.191689 1_565
Mg1 Mg7 3.191689 1_565
Mg2 Si0 3.102932 1_655
Mg2 Mg6 3.104173 1_555
Mg2 Mg7 3.104173 1_554
Mg2 Sb0 3.109278 1_655
Mg2 Sb0 3.177184 1_545
Mg2 Si0 3.183564 1_555
Mg2 Mg4 3.263016 1_545
Mg2 Mg4 3.265515 1_555
Mg3 Mg7 3.159056 1_555
Mg3 Mg6 3.159056 1_555
Mg3 Mg5 3.257523 1_545
Mg3 Mg5 3.271008 1_555
Mg4 Si0 3.102932 1_665
Mg4 Mg9 3.104173 1_554
Mg4 Mg8 3.104173 1_555
Mg4 Sb0 3.109278 1_655
Mg4 Sb0 3.177184 1_555
Mg4 Si0 3.183564 1_555
Mg5 Mg9 3.159056 1_555
Mg5 Mg8 3.159056 1_555
Mg6 Si0 3.111914 1_555
Mg6 Sb0 3.143283 1_545
Mg7 Si0 3.111914 1_556
Mg7 Sb0 3.143283 1_546
Mg8 Si0 3.111921 1_555
Mg8 Sb0 3.143277 1_555
Mg9 Si0 3.111921 1_556
Mg9 Sb0 3.143277 1_556
Mg10 Si0 3.049920 1_655
Mg10 Mg2 3.122086 1_555
Mg10 Mg4 3.122093 1_545
Mg10 Mg3 3.193176 1_555
Mg10 Mg5 3.193183 1_545
Mg11 Si0 3.049920 1_656
Mg11 Mg2 3.122086 1_556
Mg11 Mg4 3.122093 1_546
Mg11 Mg3 3.193176 1_555
Mg11 Mg5 3.193183 1_545
Mg12 Sb0 3.124503 1_655
Mg12 Mg5 3.135638 1_555
Mg12 Mg3 3.135645 1_555
Mg12 Mg4 3.166129 1_555
Mg12 Mg2 3.166135 1_555
Mg13 Sb0 3.124503 1_656
Mg13 Mg5 3.135638 1_555
Mg13 Mg3 3.135645 1_555
Mg13 Mg4 3.166129 1_556
Mg13 Mg2 3.166135 1_556
