# generated using pymatgen
data_Sr3Nd2Nb10O30
_symmetry_space_group_name_H-M   'P 1'
_cell_length_a   12.68010806
_cell_length_b   12.68010806
_cell_length_c   3.98207600
_cell_angle_alpha   90.00000000
_cell_angle_beta   90.00000000
_cell_angle_gamma   90.27004385
_symmetry_Int_Tables_number   1
_chemical_formula_structural   Sr3Nd2Nb10O30
_chemical_formula_sum   'Sr3 Nd2 Nb10 O30'
_cell_volume   640.25153769
_cell_formula_units_Z   1
loop_
 _symmetry_equiv_pos_site_id
 _symmetry_equiv_pos_as_xyz
  1  'x, y, z'
loop_
 _atom_site_type_symbol
 _atom_site_label
 _atom_site_symmetry_multiplicity
 _atom_site_fract_x
 _atom_site_fract_y
 _atom_site_fract_z
 _atom_site_occupancy
  Sr  Sr0  1  0.34089700  0.34089700  0.00000000  1
  Sr  Sr1  1  0.16343100  0.83292100  0.00000000  1
  Sr  Sr2  1  0.83292100  0.16343100  0.00000000  1
  Nd  Nd0  1  0.50393100  0.00073300  0.00000000  1
  Nd  Nd1  1  0.00073300  0.50393100  0.00000000  1
  Nb  Nb0  1  0.57990900  0.21504500  0.50000000  1
  Nb  Nb1  1  0.42004300  0.79165300  0.50000000  1
  Nb  Nb2  1  0.08127400  0.28888000  0.50000000  1
  Nb  Nb3  1  0.91956000  0.71061900  0.50000000  1
  Nb  Nb4  1  0.28888000  0.08127400  0.50000000  1
  Nb  Nb5  1  0.71061900  0.91956000  0.50000000  1
  Nb  Nb6  1  0.21504500  0.57990900  0.50000000  1
  Nb  Nb7  1  0.79165300  0.42004300  0.50000000  1
  Nb  Nb8  1  0.99919400  0.99919400  0.50000000  1
  Nb  Nb9  1  0.50406600  0.50406600  0.50000000  1
  O  O0  1  0.58366800  0.19752000  0.00000000  1
  O  O1  1  0.41587300  0.80881700  0.00000000  1
  O  O2  1  0.08101400  0.29895000  0.00000000  1
  O  O3  1  0.93403700  0.69314200  0.00000000  1
  O  O4  1  0.29895000  0.08101400  0.00000000  1
  O  O5  1  0.69314200  0.93403700  0.00000000  1
  O  O6  1  0.19752000  0.58366800  0.00000000  1
  O  O7  1  0.80881700  0.41587300  0.00000000  1
  O  O8  1  0.62774400  0.06240600  0.50000000  1
  O  O9  1  0.36505600  0.94084500  0.50000000  1
  O  O10  1  0.13025900  0.43952100  0.50000000  1
  O  O11  1  0.87130400  0.55834800  0.50000000  1
  O  O12  1  0.43952100  0.13025900  0.50000000  1
  O  O13  1  0.55834800  0.87130400  0.50000000  1
  O  O14  1  0.06240600  0.62774400  0.50000000  1
  O  O15  1  0.94084500  0.36505600  0.50000000  1
  O  O16  1  0.73164400  0.26802900  0.50000000  1
  O  O17  1  0.26802900  0.73164400  0.50000000  1
  O  O18  1  0.23022100  0.23022100  0.50000000  1
  O  O19  1  0.78757700  0.78757700  0.50000000  1
  O  O20  1  0.99171100  0.15859300  0.50000000  1
  O  O21  1  0.01220700  0.83869200  0.50000000  1
  O  O22  1  0.48498300  0.33483700  0.50000000  1
  O  O23  1  0.48872200  0.65404700  0.50000000  1
  O  O24  1  0.33483700  0.48498300  0.50000000  1
  O  O25  1  0.65404700  0.48872200  0.50000000  1
  O  O26  1  0.15859300  0.99171100  0.50000000  1
  O  O27  1  0.83869200  0.01220700  0.50000000  1
  O  O28  1  0.99810200  0.99810200  0.00000000  1
  O  O29  1  0.48767300  0.48767300  0.00000000  1
loop_
_geom_bond_atom_site_label_1
_geom_bond_atom_site_label_2
_geom_bond_distance
_geom_bond_site_symmetry_2
Nd0 O5 2.547664 1_545
Nd0 O8 2.651225 1_555
Nd0 O8 2.651225 1_554
Nd0 O1 2.672667 1_545
Nd0 O13 2.672915 1_544
Nd0 O13 2.672915 1_545
Nd0 O0 2.687920 1_555
Nd0 O12 2.709503 1_554
Nd0 O12 2.709503 1_555
Nd0 O9 2.762108 1_545
Nd0 O9 2.762108 1_544
Nd0 O4 2.795881 1_555
Nd1 O3 2.547664 1_455
Nd1 O14 2.651225 1_555
Nd1 O14 2.651225 1_554
Nd1 O7 2.672667 1_455
Nd1 O11 2.672915 1_454
Nd1 O11 2.672915 1_455
Nd1 O6 2.687920 1_555
Nd1 O10 2.709503 1_554
Nd1 O10 2.709503 1_555
Nd1 O15 2.762108 1_455
Nd1 O15 2.762108 1_454
Nd1 O2 2.795881 1_555
Nb0 O22 1.942511 1_555
Nb0 O0 2.003992 1_555
Nb0 O0 2.003992 1_556
Nb0 O8 2.031022 1_555
Nb0 O16 2.034951 1_555
Nb0 O12 2.075252 1_555
Nb1 O23 1.953778 1_555
Nb1 O1 2.003623 1_555
Nb1 O1 2.003623 1_556
Nb1 O9 2.019251 1_555
Nb1 O13 2.019632 1_555
Nb1 O17 2.068970 1_555
Nb2 O2 1.995132 1_555
Nb2 O2 1.995132 1_556
Nb2 O20 2.000334 1_455
Nb2 O10 2.005810 1_555
Nb2 O15 2.029765 1_455
Nb2 O18 2.033110 1_555
Nb3 O19 1.941249 1_555
Nb3 O21 1.999855 1_655
Nb3 O3 2.011821 1_555
Nb3 O3 2.011821 1_556
Nb3 O11 2.022699 1_555
Nb3 O14 2.098351 1_655
Nb4 O4 1.995132 1_556
Nb4 O4 1.995132 1_555
Nb4 O26 2.000334 1_545
Nb4 O12 2.005810 1_555
Nb4 O9 2.029765 1_545
Nb4 O18 2.033110 1_555
Nb5 O19 1.941249 1_555
Nb5 O27 1.999855 1_565
Nb5 O5 2.011821 1_556
Nb5 O5 2.011821 1_555
Nb5 O13 2.022699 1_555
Nb5 O8 2.098351 1_565
Nb6 O24 1.942511 1_555
Nb6 O6 2.003992 1_555
Nb6 O6 2.003992 1_556
Nb6 O14 2.031022 1_555
Nb6 O17 2.034951 1_555
Nb6 O10 2.075252 1_555
Nb7 O25 1.953778 1_555
Nb7 O7 2.003623 1_556
Nb7 O7 2.003623 1_555
Nb7 O15 2.019251 1_555
Nb7 O11 2.019632 1_555
Nb7 O16 2.068970 1_555
Nb8 O28 1.991134 1_556
Nb8 O28 1.991134 1_555
Nb8 O26 2.023869 1_655
Nb8 O20 2.023869 1_565
Nb8 O21 2.042636 1_655
Nb8 O27 2.042636 1_565
Nb9 O23 1.912614 1_555
Nb9 O25 1.912614 1_555
Nb9 O29 2.012521 1_555
Nb9 O29 2.012521 1_556
Nb9 O24 2.158308 1_555
Nb9 O22 2.158308 1_555
O0 Sr2 3.191994 1_555
O1 Sr1 3.216984 1_555
O6 Sr1 3.191994 1_555
O7 Sr2 3.216984 1_555
O16 Sr2 2.718193 1_556
O16 Sr2 2.718193 1_555
O17 Sr1 2.718193 1_555
O17 Sr1 2.718193 1_556
O18 Sr0 2.807960 1_555
O18 Sr0 2.807960 1_556
O20 Sr2 2.832532 1_556
O20 Sr2 2.832532 1_555
O21 Sr1 2.765476 1_555
O21 Sr1 2.765476 1_556
O22 Sr0 2.703606 1_556
O22 Sr0 2.703606 1_555
O24 Sr0 2.703606 1_556
O24 Sr0 2.703606 1_555
O26 Sr1 2.832532 1_556
O26 Sr1 2.832532 1_555
O27 Sr2 2.765476 1_556
O27 Sr2 2.765476 1_555
O28 Sr2 2.970391 1_565
O28 Sr1 2.970391 1_655
O29 Sr0 2.625833 1_555
