# generated using pymatgen
data_ZrMn6(GaSn2)2
_symmetry_space_group_name_H-M   'P 1'
_cell_length_a   5.31187552
_cell_length_b   5.31187552
_cell_length_c   8.98679200
_cell_angle_alpha   90.00000000
_cell_angle_beta   90.00000000
_cell_angle_gamma   119.99999398
_symmetry_Int_Tables_number   1
_chemical_formula_structural   ZrMn6(GaSn2)2
_chemical_formula_sum   'Zr1 Mn6 Ga2 Sn4'
_cell_volume   219.59938815
_cell_formula_units_Z   1
loop_
 _symmetry_equiv_pos_site_id
 _symmetry_equiv_pos_as_xyz
  1  'x, y, z'
loop_
 _atom_site_type_symbol
 _atom_site_label
 _atom_site_symmetry_multiplicity
 _atom_site_fract_x
 _atom_site_fract_y
 _atom_site_fract_z
 _atom_site_occupancy
  Zr  Zr0  1  0.00000000  0.00000000  0.50000000  1
  Mn  Mn0  1  0.50000000  0.50000000  0.74883700  1
  Mn  Mn1  1  0.50000000  0.00000000  0.74883700  1
  Mn  Mn2  1  0.00000000  0.50000000  0.74883700  1
  Mn  Mn3  1  0.50000000  0.50000000  0.25116300  1
  Mn  Mn4  1  0.50000000  0.00000000  0.25116300  1
  Mn  Mn5  1  0.00000000  0.50000000  0.25116300  1
  Ga  Ga0  1  0.00000000  0.00000000  0.81105700  1
  Ga  Ga1  1  0.00000000  0.00000000  0.18894300  1
  Sn  Sn0  1  0.66666700  0.33333300  0.00000000  1
  Sn  Sn1  1  0.33333300  0.66666700  0.00000000  1
  Sn  Sn2  1  0.66666700  0.33333300  0.50000000  1
  Sn  Sn3  1  0.33333300  0.66666700  0.50000000  1
loop_
_geom_bond_atom_site_label_1
_geom_bond_atom_site_label_2
_geom_bond_distance
_geom_bond_site_symmetry_2
Mn0 Mn2 2.655938 1_555
Mn0 Mn1 2.655938 1_555
Mn0 Mn1 2.655938 1_565
Mn0 Mn2 2.655938 1_655
Mn0 Sn2 2.711483 1_555
Mn0 Sn3 2.711483 1_555
Mn0 Sn1 2.728749 1_556
Mn0 Sn0 2.728749 1_556
Mn1 Mn2 2.655938 1_545
Mn1 Mn2 2.655938 1_655
Mn1 Sn2 2.711481 1_555
Mn1 Sn3 2.711481 1_545
Mn1 Sn1 2.728746 1_546
Mn1 Sn0 2.728746 1_556
Mn2 Sn2 2.711481 1_455
Mn2 Sn3 2.711481 1_555
Mn2 Sn0 2.728746 1_456
Mn2 Sn1 2.728746 1_556
Mn3 Mn4 2.655938 1_565
Mn3 Mn5 2.655938 1_655
Mn3 Mn4 2.655938 1_555
Mn3 Mn5 2.655938 1_555
Mn3 Sn3 2.711483 1_555
Mn3 Sn2 2.711483 1_555
Mn3 Sn0 2.728749 1_555
Mn3 Sn1 2.728749 1_555
Mn4 Mn5 2.655938 1_545
Mn4 Mn5 2.655938 1_655
Mn4 Sn2 2.711481 1_555
Mn4 Sn3 2.711481 1_545
Mn4 Sn0 2.728746 1_555
Mn4 Sn1 2.728746 1_545
Mn5 Sn2 2.711481 1_455
Mn5 Sn3 2.711481 1_555
Mn5 Sn0 2.728746 1_455
Mn5 Sn1 2.728746 1_555
Ga0 Mn2 2.714160 1_555
Ga0 Mn2 2.714160 1_545
Ga0 Mn1 2.714160 1_455
Ga0 Mn1 2.714160 1_555
Ga0 Mn0 2.714160 1_555
Ga0 Mn0 2.714160 1_445
Ga0 Zr0 2.795405 1_555
Ga1 Mn5 2.714160 1_545
Ga1 Mn4 2.714160 1_455
Ga1 Mn4 2.714160 1_555
Ga1 Mn5 2.714160 1_555
Ga1 Mn3 2.714160 1_555
Ga1 Mn3 2.714160 1_445
Ga1 Zr0 2.795405 1_555
Sn0 Sn1 3.066810 1_545
Sn0 Sn1 3.066810 1_655
Sn0 Sn1 3.066819 1_555
Sn2 Zr0 3.066810 1_655
Sn2 Sn3 3.066810 1_545
Sn2 Sn3 3.066810 1_655
Sn2 Zr0 3.066814 1_555
Sn2 Zr0 3.066814 1_665
Sn2 Sn3 3.066819 1_555
Sn3 Zr0 3.066810 1_565
Sn3 Zr0 3.066814 1_665
Sn3 Zr0 3.066814 1_555
