# generated using pymatgen
data_Ca5P3O12F
_symmetry_space_group_name_H-M   'P 1'
_cell_length_a   9.47533181
_cell_length_b   9.47533181
_cell_length_c   6.93964600
_cell_angle_alpha   90.00000000
_cell_angle_beta   90.00000000
_cell_angle_gamma   119.99999866
_symmetry_Int_Tables_number   1
_chemical_formula_structural   Ca5P3O12F
_chemical_formula_sum   'Ca10 P6 O24 F2'
_cell_volume   539.58119900
_cell_formula_units_Z   2
loop_
 _symmetry_equiv_pos_site_id
 _symmetry_equiv_pos_as_xyz
  1  'x, y, z'
loop_
 _atom_site_type_symbol
 _atom_site_label
 _atom_site_symmetry_multiplicity
 _atom_site_fract_x
 _atom_site_fract_y
 _atom_site_fract_z
 _atom_site_occupancy
  Ca  Ca0  1  0.66666700  0.33333300  0.50014000  1
  Ca  Ca1  1  0.33333300  0.66666700  0.00014000  1
  Ca  Ca2  1  0.33333300  0.66666700  0.49983600  1
  Ca  Ca3  1  0.66666700  0.33333300  0.99983600  1
  Ca  Ca4  1  0.99584600  0.24334900  0.75038800  1
  Ca  Ca5  1  0.75665100  0.75249800  0.75038800  1
  Ca  Ca6  1  0.24750200  0.00415400  0.75038800  1
  Ca  Ca7  1  0.00415400  0.75665100  0.25038800  1
  Ca  Ca8  1  0.24334900  0.24750200  0.25038800  1
  Ca  Ca9  1  0.75249800  0.99584600  0.25038800  1
  P  P0  1  0.36942300  0.39779000  0.75016600  1
  P  P1  1  0.60221000  0.97163300  0.75016600  1
  P  P2  1  0.02836700  0.63057700  0.75016600  1
  P  P3  1  0.63057700  0.60221000  0.25016600  1
  P  P4  1  0.39779000  0.02836700  0.25016600  1
  P  P5  1  0.97163300  0.36942300  0.25016600  1
  O  O0  1  0.48532600  0.32669400  0.75004300  1
  O  O1  1  0.67330600  0.15863100  0.75004300  1
  O  O2  1  0.84136900  0.51467400  0.75004300  1
  O  O3  1  0.51467400  0.67330600  0.25004300  1
  O  O4  1  0.32669400  0.84136900  0.25004300  1
  O  O5  1  0.15863100  0.48532600  0.25004300  1
  O  O6  1  0.25679800  0.34007000  0.57028100  1
  O  O7  1  0.65993000  0.91672800  0.57028100  1
  O  O8  1  0.08327200  0.74320200  0.57028100  1
  O  O9  1  0.74320200  0.65993000  0.07028100  1
  O  O10  1  0.34007000  0.08327200  0.07028100  1
  O  O11  1  0.91672800  0.25679800  0.07028100  1
  O  O12  1  0.74280900  0.65928100  0.43023900  1
  O  O13  1  0.34071900  0.08352700  0.43023900  1
  O  O14  1  0.91647300  0.25719100  0.43023900  1
  O  O15  1  0.25719100  0.34071900  0.93023900  1
  O  O16  1  0.65928100  0.91647300  0.93023900  1
  O  O17  1  0.08352700  0.74280900  0.93023900  1
  O  O18  1  0.46674300  0.58779900  0.74986300  1
  O  O19  1  0.41220100  0.87894400  0.74986300  1
  O  O20  1  0.12105600  0.53325700  0.74986300  1
  O  O21  1  0.53325700  0.41220100  0.24986300  1
  O  O22  1  0.58779900  0.12105600  0.24986300  1
  O  O23  1  0.87894400  0.46674300  0.24986300  1
  F  F0  1  0.00000000  0.00000000  0.76708400  1
  F  F1  1  0.00000000  0.00000000  0.26708400  1
loop_
_geom_bond_atom_site_label_1
_geom_bond_atom_site_label_2
_geom_bond_distance
_geom_bond_site_symmetry_2
Ca0 O1 2.419894 1_555
Ca0 O0 2.419894 1_555
Ca0 O2 2.419894 1_555
Ca0 O22 2.473387 1_555
Ca0 O23 2.473388 1_555
Ca0 O21 2.473393 1_555
Ca0 O14 2.840108 1_555
Ca0 O12 2.840108 1_555
Ca0 O13 2.840108 1_555
Ca1 O4 2.419894 1_555
Ca1 O3 2.419894 1_555
Ca1 O5 2.419894 1_555
Ca1 O19 2.473387 1_554
Ca1 O20 2.473388 1_554
Ca1 O18 2.473393 1_554
Ca1 O17 2.840108 1_554
Ca1 O15 2.840108 1_554
Ca1 O16 2.840108 1_554
Ca2 O4 2.419347 1_555
Ca2 O3 2.419347 1_555
Ca2 O5 2.419347 1_555
Ca2 O19 2.472169 1_555
Ca2 O20 2.472170 1_555
Ca2 O18 2.472175 1_555
Ca2 O8 2.845573 1_555
Ca2 O7 2.845580 1_555
Ca2 O6 2.845582 1_555
Ca3 O1 2.419347 1_555
Ca3 O0 2.419347 1_555
Ca3 O2 2.419347 1_555
Ca3 O22 2.472169 1_556
Ca3 O23 2.472170 1_556
Ca3 O21 2.472175 1_556
Ca3 O11 2.845573 1_556
Ca3 O10 2.845580 1_556
Ca3 O9 2.845582 1_556
Ca4 F0 2.328627 1_655
Ca4 O11 2.366839 1_556
Ca4 O14 2.370131 1_555
Ca4 O20 2.386297 1_655
Ca4 O6 2.499967 1_655
Ca4 O15 2.501298 1_655
Ca4 O1 2.744320 1_555
Ca5 F0 2.328622 1_665
Ca5 O9 2.366843 1_556
Ca5 O12 2.370137 1_555
Ca5 O18 2.386298 1_555
Ca5 O7 2.499959 1_555
Ca5 O16 2.501298 1_555
Ca5 O2 2.744339 1_555
Ca6 F0 2.328617 1_555
Ca6 O10 2.366841 1_556
Ca6 O13 2.370135 1_555
Ca6 O19 2.386306 1_545
Ca6 O8 2.499965 1_545
Ca6 O17 2.501298 1_545
Ca6 O0 2.744325 1_555
Ca7 F1 2.328627 1_565
Ca7 O8 2.366839 1_555
Ca7 O17 2.370131 1_554
Ca7 O23 2.386297 1_455
Ca7 O9 2.499967 1_455
Ca7 O12 2.501298 1_455
Ca7 O4 2.744320 1_555
Ca8 F1 2.328622 1_555
Ca8 O6 2.366843 1_555
Ca8 O15 2.370137 1_554
Ca8 O21 2.386298 1_555
Ca8 O10 2.499959 1_555
Ca8 O13 2.501298 1_555
Ca8 O5 2.744339 1_555
Ca9 F1 2.328617 1_665
Ca9 O7 2.366841 1_555
Ca9 O16 2.370135 1_554
Ca9 O22 2.386306 1_565
Ca9 O11 2.499965 1_565
Ca9 O14 2.501298 1_565
Ca9 O3 2.744325 1_555
O0 P0 1.549105 1_555
O1 P1 1.549096 1_545
O2 P2 1.549098 1_655
O3 P3 1.549105 1_555
O4 P4 1.549096 1_565
O5 P5 1.549098 1_455
O6 P0 1.553270 1_555
O7 P1 1.553270 1_555
O8 P2 1.553270 1_555
O9 P3 1.553270 1_555
O10 P4 1.553270 1_555
O11 P5 1.553270 1_555
O12 P3 1.552373 1_555
O13 P4 1.552368 1_555
O14 P5 1.552373 1_555
O15 P0 1.552373 1_555
O16 P1 1.552368 1_555
O17 P2 1.552373 1_555
O18 P0 1.559346 1_555
O19 P1 1.559346 1_555
O20 P2 1.559346 1_555
O21 P3 1.559346 1_555
O22 P4 1.559346 1_555
O23 P5 1.559346 1_555
