# generated using pymatgen
data_Yb2H6Ru
_symmetry_space_group_name_H-M   'P 1'
_cell_length_a   5.01782205
_cell_length_b   5.01782205
_cell_length_c   5.01782205
_cell_angle_alpha   60.00000000
_cell_angle_beta   60.00000000
_cell_angle_gamma   60.00000000
_symmetry_Int_Tables_number   1
_chemical_formula_structural   Yb2H6Ru
_chemical_formula_sum   'Yb2 H6 Ru1'
_cell_volume   89.33687763
_cell_formula_units_Z   1
loop_
 _symmetry_equiv_pos_site_id
 _symmetry_equiv_pos_as_xyz
  1  'x, y, z'
loop_
 _atom_site_type_symbol
 _atom_site_label
 _atom_site_symmetry_multiplicity
 _atom_site_fract_x
 _atom_site_fract_y
 _atom_site_fract_z
 _atom_site_occupancy
  Yb  Yb0  1  0.25000000  0.25000000  0.25000000  1
  Yb  Yb1  1  0.75000000  0.75000000  0.75000000  1
  H  H0  1  0.75814900  0.24185100  0.24185100  1
  H  H1  1  0.75814900  0.75814900  0.24185100  1
  H  H2  1  0.24185100  0.75814900  0.24185100  1
  H  H3  1  0.75814900  0.24185100  0.75814900  1
  H  H4  1  0.24185100  0.24185100  0.75814900  1
  H  H5  1  0.24185100  0.75814900  0.75814900  1
  Ru  Ru0  1  0.00000000  0.00000000  0.00000000  1
loop_
_geom_bond_atom_site_label_1
_geom_bond_atom_site_label_2
_geom_bond_distance
_geom_bond_site_symmetry_2
H0 Ru0 1.716240 1_655
H0 Yb0 2.509577 1_555
H0 Yb1 2.509577 1_545
H0 Yb1 2.509577 1_554
H0 Yb0 2.509577 1_655
H1 Ru0 1.716240 1_665
H1 Yb1 2.509577 1_555
H1 Yb1 2.509577 1_554
H1 Yb0 2.509577 1_655
H1 Yb0 2.509577 1_565
H2 Ru0 1.716240 1_565
H2 Yb1 2.509577 1_455
H2 Yb0 2.509577 1_555
H2 Yb1 2.509577 1_554
H2 Yb0 2.509577 1_565
H3 Ru0 1.716240 1_656
H3 Yb0 2.509577 1_556
H3 Yb1 2.509577 1_545
H3 Yb1 2.509577 1_555
H3 Yb0 2.509577 1_655
H4 Ru0 1.716240 1_556
H4 Yb1 2.509577 1_455
H4 Yb0 2.509577 1_555
H4 Yb0 2.509577 1_556
H4 Yb1 2.509577 1_545
H5 Ru0 1.716240 1_566
H5 Yb1 2.509577 1_455
H5 Yb0 2.509577 1_556
H5 Yb1 2.509577 1_555
H5 Yb0 2.509577 1_565
