# generated using pymatgen
data_Sr2FeMoNO5
_symmetry_space_group_name_H-M   'P 1'
_cell_length_a   5.60873063
_cell_length_b   5.60873063
_cell_length_c   5.71593112
_cell_angle_alpha   60.62361296
_cell_angle_beta   60.62361296
_cell_angle_gamma   89.88602881
_symmetry_Int_Tables_number   1
_chemical_formula_structural   Sr2FeMoNO5
_chemical_formula_sum   'Sr2 Fe1 Mo1 N1 O5'
_cell_volume   129.62427492
_cell_formula_units_Z   1
loop_
 _symmetry_equiv_pos_site_id
 _symmetry_equiv_pos_as_xyz
  1  'x, y, z'
loop_
 _atom_site_type_symbol
 _atom_site_label
 _atom_site_symmetry_multiplicity
 _atom_site_fract_x
 _atom_site_fract_y
 _atom_site_fract_z
 _atom_site_occupancy
  Sr  Sr0  1  0.77087200  0.27067800  0.46047000  1
  Sr  Sr1  1  0.27067800  0.77087200  0.46047000  1
  Fe  Fe0  1  0.51289200  0.51289200  0.97356100  1
  Mo  Mo0  1  0.02246800  0.02246800  0.95621300  1
  N  N0  1  0.24162600  0.24162600  0.52619100  1
  O  O0  1  0.74130700  0.23289800  0.02609200  1
  O  O1  1  0.23289800  0.74130700  0.02609200  1
  O  O2  1  0.73395900  0.73395900  0.51795900  1
  O  O3  1  0.22643100  0.22643100  0.03784700  1
  O  O4  1  0.74687000  0.74687000  0.01510400  1
loop_
_geom_bond_atom_site_label_1
_geom_bond_atom_site_label_2
_geom_bond_distance
_geom_bond_site_symmetry_2
Fe0 O2 1.877998 1_555
Fe0 O1 2.025929 1_556
Fe0 O0 2.025929 1_556
Fe0 O4 2.029546 1_556
Fe0 O3 2.037085 1_556
Fe0 N0 2.277429 1_556
Mo0 N0 1.772316 1_555
Mo0 O1 1.968869 1_546
Mo0 O0 1.968869 1_456
Mo0 O4 1.969913 1_446
Mo0 O3 1.971722 1_556
Mo0 O2 2.315642 1_446
N0 Sr1 2.797663 1_555
N0 Sr0 2.797663 1_555
N0 Sr0 2.837316 1_455
N0 Sr1 2.837316 1_545
O0 Sr1 2.670664 1_545
O0 Sr0 2.675313 1_555
O0 Sr0 3.054029 1_554
O0 Sr1 3.069158 1_654
O1 Sr0 2.670664 1_455
O1 Sr1 2.675313 1_555
O1 Sr1 3.054029 1_554
O1 Sr0 3.069158 1_564
O2 Sr0 2.769736 1_555
O2 Sr1 2.769736 1_555
O2 Sr1 2.859732 1_655
O2 Sr0 2.859732 1_565
O3 Sr1 2.637370 1_545
O3 Sr0 2.637370 1_455
O3 Sr0 3.096802 1_554
O3 Sr1 3.096802 1_554
O4 Sr0 2.701155 1_555
O4 Sr1 2.701155 1_555
O4 Sr0 3.024066 1_564
O4 Sr1 3.024066 1_654
