# generated using pymatgen
data_Zr18Co5Sn4
_symmetry_space_group_name_H-M   'P 1'
_cell_length_a   3.34944100
_cell_length_b   8.01317100
_cell_length_c   21.19858410
_cell_angle_alpha   79.11622991
_cell_angle_beta   90.00000000
_cell_angle_gamma   90.00000000
_symmetry_Int_Tables_number   1
_chemical_formula_structural   Zr18Co5Sn4
_chemical_formula_sum   'Zr18 Co5 Sn4'
_cell_volume   558.72807834
_cell_formula_units_Z   1
loop_
 _symmetry_equiv_pos_site_id
 _symmetry_equiv_pos_as_xyz
  1  'x, y, z'
loop_
 _atom_site_type_symbol
 _atom_site_label
 _atom_site_symmetry_multiplicity
 _atom_site_fract_x
 _atom_site_fract_y
 _atom_site_fract_z
 _atom_site_occupancy
  Zr  Zr0  1  0.00000000  0.75734900  0.00069000  1
  Zr  Zr1  1  0.00000000  0.42230100  0.66458800  1
  Zr  Zr2  1  0.00000000  0.08901800  0.33151600  1
  Zr  Zr3  1  0.00000000  0.74625200  0.74800400  1
  Zr  Zr4  1  0.00000000  0.41245200  0.41430400  1
  Zr  Zr5  1  0.00000000  0.07747300  0.08339300  1
  Zr  Zr6  1  0.00000000  0.16293700  0.92046700  1
  Zr  Zr7  1  0.00000000  0.83115400  0.58476000  1
  Zr  Zr8  1  0.00000000  0.49974700  0.25278800  1
  Zr  Zr9  1  0.50000000  0.06259400  0.66571700  1
  Zr  Zr10  1  0.50000000  0.73934700  0.34872800  1
  Zr  Zr11  1  0.50000000  0.40468100  0.01595000  1
  Zr  Zr12  1  0.50000000  0.86745800  0.86858000  1
  Zr  Zr13  1  0.50000000  0.56817600  0.52021500  1
  Zr  Zr14  1  0.50000000  0.23643000  0.18819600  1
  Zr  Zr15  1  0.50000000  0.40392100  0.79852100  1
  Zr  Zr16  1  0.50000000  0.02687200  0.46226600  1
  Zr  Zr17  1  0.50000000  0.69135400  0.13081200  1
  Co  Co0  1  0.50000000  0.00155000  0.00147300  1
  Co  Co1  1  0.50000000  0.66563100  0.66486300  1
  Co  Co2  1  0.50000000  0.33350800  0.33341300  1
  Co  Co3  1  0.00000000  0.77811900  0.44527800  1
  Co  Co4  1  0.00000000  0.44407100  0.11065200  1
  Sn  Sn0  1  0.00000000  0.54890400  0.89356500  1
  Sn  Sn1  1  0.00000000  0.22776600  0.55103100  1
  Sn  Sn2  1  0.00000000  0.88924000  0.22246700  1
  Sn  Sn3  1  0.00000000  0.11139400  0.77776300  1
loop_
_geom_bond_atom_site_label_1
_geom_bond_atom_site_label_2
_geom_bond_distance
_geom_bond_site_symmetry_2
Co0 Zr6 2.566574 1_654
Co0 Zr6 2.566574 1_554
Co0 Zr5 2.567009 1_655
Co0 Zr5 2.567009 1_555
Co0 Zr0 2.578060 1_545
Co0 Zr0 2.578060 1_645
Co1 Zr7 2.568432 1_555
Co1 Zr7 2.568432 1_655
Co1 Zr1 2.571169 1_655
Co1 Zr1 2.571169 1_555
Co1 Zr3 2.599678 1_655
Co1 Zr3 2.599678 1_555
Co2 Zr4 2.560264 1_555
Co2 Zr4 2.560264 1_655
Co2 Zr8 2.576927 1_555
Co2 Zr8 2.576927 1_655
Co2 Zr2 2.583464 1_655
Co2 Zr2 2.583464 1_555
Co3 Zr13 2.673792 1_455
Co3 Zr13 2.673792 1_555
Co3 Zr16 2.679310 1_465
Co3 Zr16 2.679310 1_565
Co3 Zr10 2.707476 1_455
Co3 Zr10 2.707476 1_555
Co3 Zr7 3.065604 1_555
Co3 Zr4 3.121454 1_555
Co3 Zr2 3.123055 1_565
Co4 Zr11 2.678406 1_555
Co4 Zr11 2.678406 1_455
Co4 Zr17 2.689525 1_455
Co4 Zr17 2.689525 1_555
Co4 Zr14 2.691174 1_455
Co4 Zr14 2.691174 1_555
Co4 Zr0 3.086387 1_555
Co4 Zr5 3.099116 1_555
Co4 Zr8 3.128153 1_555
Sn0 Zr12 3.015056 1_455
Sn0 Zr12 3.015056 1_555
Sn0 Zr15 3.016250 1_455
Sn0 Zr15 3.016250 1_555
Sn0 Zr6 3.037218 1_555
Sn0 Zr0 3.062565 1_556
Sn0 Zr11 3.120719 1_456
Sn0 Zr11 3.120719 1_556
Sn0 Zr3 3.190535 1_555
Sn1 Zr4 2.995189 1_555
Sn1 Zr9 3.041705 1_455
Sn1 Zr9 3.041705 1_555
Sn1 Zr1 3.105143 1_555
Sn1 Zr7 3.123068 1_545
Sn1 Zr13 3.162152 1_455
Sn1 Zr13 3.162152 1_555
Sn1 Zr16 3.175030 1_455
Sn1 Zr16 3.175030 1_555
Sn2 Zr5 3.047545 1_565
Sn2 Zr2 3.050266 1_565
Sn2 Zr8 3.065399 1_555
Sn2 Zr10 3.193317 1_455
Sn2 Zr10 3.193317 1_555
Sn2 Zr17 3.202758 1_555
Sn2 Zr17 3.202758 1_455
Sn2 Zr14 3.210803 1_565
Sn2 Zr14 3.210803 1_465
Sn3 Zr15 2.980354 1_455
Sn3 Zr15 2.980354 1_555
Sn3 Zr12 2.985097 1_545
Sn3 Zr12 2.985097 1_445
Sn3 Zr9 2.991656 1_555
Sn3 Zr9 2.991656 1_455
Sn3 Zr3 3.107439 1_545
Sn3 Zr1 3.115378 1_555
Sn3 Zr6 3.129503 1_555
