# generated using pymatgen
data_MgO
_symmetry_space_group_name_H-M   'P 1'
_cell_length_a   10.34368740
_cell_length_b   9.58352635
_cell_length_c   9.59328170
_cell_angle_alpha   91.11336285
_cell_angle_beta   91.69410532
_cell_angle_gamma   87.31937289
_symmetry_Int_Tables_number   1
_chemical_formula_structural   MgO
_chemical_formula_sum   'Mg40 O40'
_cell_volume   949.36148480
_cell_formula_units_Z   40
loop_
 _symmetry_equiv_pos_site_id
 _symmetry_equiv_pos_as_xyz
  1  'x, y, z'
loop_
 _atom_site_type_symbol
 _atom_site_label
 _atom_site_symmetry_multiplicity
 _atom_site_fract_x
 _atom_site_fract_y
 _atom_site_fract_z
 _atom_site_occupancy
  Mg  Mg0  1  0.73843500  0.77005000  0.91942600  1
  Mg  Mg1  1  0.19910700  0.42006200  0.59637100  1
  Mg  Mg2  1  0.85806000  0.50907800  0.17281200  1
  Mg  Mg3  1  0.61922800  0.80912700  0.60699100  1
  Mg  Mg4  1  0.44092100  0.66260100  0.41342800  1
  Mg  Mg5  1  0.26992900  0.70714100  0.06985200  1
  Mg  Mg6  1  0.58229500  0.01750200  0.84004900  1
  Mg  Mg7  1  0.58011100  0.39357200  0.99702000  1
  Mg  Mg8  1  0.89601000  0.57381000  0.55556700  1
  Mg  Mg9  1  0.87227700  0.92578200  0.63030800  1
  Mg  Mg10  1  0.33054300  0.19980800  0.71549900  1
  Mg  Mg11  1  0.96269700  0.78668200  0.37298900  1
  Mg  Mg12  1  0.80001700  0.45181300  0.84661100  1
  Mg  Mg13  1  0.11410800  0.99033000  0.17003000  1
  Mg  Mg14  1  0.01725500  0.65545300  0.98885100  1
  Mg  Mg15  1  0.74565700  0.92947300  0.19043800  1
  Mg  Mg16  1  0.12410700  0.29242200  0.22413300  1
  Mg  Mg17  1  0.87439900  0.16453900  0.22830600  1
  Mg  Mg18  1  0.78389000  0.18690700  0.97195200  1
  Mg  Mg19  1  0.74894200  0.19580600  0.67942300  1
  Mg  Mg20  1  0.02780900  0.07281100  0.44485300  1
  Mg  Mg21  1  0.62805500  0.30386400  0.27973800  1
  Mg  Mg22  1  0.35255100  0.16996300  0.06914600  1
  Mg  Mg23  1  0.27161800  0.44824900  0.89124600  1
  Mg  Mg24  1  0.83576500  0.32090800  0.46592900  1
  Mg  Mg25  1  0.55285700  0.66716800  0.08601300  1
  Mg  Mg26  1  0.15839100  0.58753800  0.35364200  1
  Mg  Mg27  1  0.44929700  0.66793400  0.77379700  1
  Mg  Mg28  1  0.05260200  0.29805400  0.94909000  1
  Mg  Mg29  1  0.31032500  0.19600000  0.41594900  1
  Mg  Mg30  1  0.54430100  0.41744600  0.61587500  1
  Mg  Mg31  1  0.37871000  0.44113100  0.19070600  1
  Mg  Mg32  1  0.01301800  0.23051200  0.67787100  1
  Mg  Mg33  1  0.68858800  0.66476100  0.35374600  1
  Mg  Mg34  1  0.25570800  0.95280800  0.57614800  1
  Mg  Mg35  1  0.12031700  0.73251300  0.71261100  1
  Mg  Mg36  1  0.39783200  0.89920300  0.26286200  1
  Mg  Mg37  1  0.59965200  0.06518300  0.46924300  1
  Mg  Mg38  1  0.31891200  0.91050800  0.90100700  1
  Mg  Mg39  1  0.96643400  0.97486900  0.93187000  1
  O  O0  1  0.75425000  0.98525500  0.98954400  1
  O  O1  1  0.49000500  0.27838200  0.14223100  1
  O  O2  1  0.94140300  0.47089000  0.98426600  1
  O  O3  1  0.69908000  0.09774900  0.29544200  1
  O  O4  1  0.53378000  0.61904900  0.59000500  1
  O  O5  1  0.53574100  0.54637900  0.27295900  1
  O  O6  1  0.54358800  0.84169900  0.39912700  1
  O  O7  1  0.80898800  0.76208300  0.51030800  1
  O  O8  1  0.28653900  0.72437600  0.29812400  1
  O  O9  1  0.92224600  0.78991900  0.82849100  1
  O  O10  1  0.14567100  0.88963200  0.99967100  1
  O  O11  1  0.02242100  0.64389700  0.21497000  1
  O  O12  1  0.27541400  0.07674800  0.24640800  1
  O  O13  1  0.22665600  0.33976800  0.06480400  1
  O  O14  1  0.01822500  0.15592100  0.09064700  1
  O  O15  1  0.81382900  0.50437400  0.37605600  1
  O  O16  1  0.29956300  0.81276100  0.71696500  1
  O  O17  1  0.65735400  0.28018100  0.83889300  1
  O  O18  1  0.37468100  0.40548500  0.69840100  1
  O  O19  1  0.41335000  0.54115000  0.00479200  1
  O  O20  1  0.92299600  0.15567200  0.83511000  1
  O  O21  1  0.39433300  0.09327100  0.88041600  1
  O  O22  1  0.42034200  0.83409800  0.06954000  1
  O  O23  1  0.95229500  0.96245400  0.27319500  1
  O  O24  1  0.66443200  0.57082000  0.92828200  1
  O  O25  1  0.63947700  0.28330200  0.49986900  1
  O  O26  1  0.06528500  0.88565000  0.54603800  1
  O  O27  1  0.68132100  0.00389000  0.65670400  1
  O  O28  1  0.75981600  0.32333500  0.12889700  1
  O  O29  1  0.08982100  0.58753000  0.54945100  1
  O  O30  1  0.73309900  0.72886000  0.15949900  1
  O  O31  1  0.15308500  0.32376900  0.77821900  1
  O  O32  1  0.99142100  0.26541200  0.35575500  1
  O  O33  1  0.57280600  0.81542200  0.81284700  1
  O  O34  1  0.86501500  0.40259700  0.66046400  1
  O  O35  1  0.25907100  0.39763300  0.36465500  1
  O  O36  1  0.17891100  0.62931900  0.89195900  1
  O  O37  1  0.41619700  0.08232900  0.54465200  1
  O  O38  1  0.88632400  0.12676200  0.55873000  1
  O  O39  1  0.17496900  0.15766700  0.56032000  1
loop_
_geom_bond_atom_site_label_1
_geom_bond_atom_site_label_2
_geom_bond_distance
_geom_bond_site_symmetry_2
Mg0 O33 2.003395 1_555
Mg0 O24 2.094167 1_555
Mg0 O9 2.133201 1_555
Mg0 O0 2.168862 1_555
Mg0 O30 2.346906 1_556
Mg1 O29 1.970928 1_555
Mg1 O18 2.037696 1_555
Mg1 O31 2.067443 1_555
Mg1 O35 2.328681 1_555
Mg1 O39 2.554474 1_555
Mg2 O15 2.017689 1_555
Mg2 O2 2.045907 1_554
Mg2 O28 2.119802 1_555
Mg2 O11 2.206304 1_655
Mg2 O30 2.422705 1_555
Mg3 O33 2.045216 1_555
Mg3 O27 2.045304 1_565
Mg3 O4 2.063147 1_555
Mg3 O6 2.143620 1_555
Mg3 O7 2.219190 1_555
Mg4 O4 1.964695 1_555
Mg4 O5 1.983957 1_555
Mg4 O8 1.989132 1_555
Mg4 O6 2.069016 1_555
Mg5 O22 2.019512 1_555
Mg5 O36 2.067899 1_554
Mg5 O8 2.195157 1_555
Mg5 O19 2.217279 1_555
Mg5 O10 2.224468 1_554
Mg6 O33 1.955742 1_545
Mg6 O27 2.060331 1_555
Mg6 O21 2.087765 1_555
Mg6 O0 2.265141 1_545
Mg6 O17 2.669189 1_555
Mg7 O17 2.011665 1_555
Mg7 O1 2.064143 1_556
Mg7 O24 2.072950 1_555
Mg7 O19 2.180947 1_556
Mg7 O28 2.299097 1_556
Mg8 O34 1.984991 1_555
Mg8 O15 2.013170 1_555
Mg8 O29 2.017807 1_655
Mg8 O7 2.027248 1_555
Mg9 O7 2.048487 1_555
Mg9 O38 2.070253 1_565
Mg9 O27 2.099936 1_565
Mg9 O26 2.190586 1_655
Mg9 O9 2.356328 1_555
Mg10 O21 1.979614 1_555
Mg10 O18 2.054699 1_555
Mg10 O37 2.158619 1_555
Mg10 O39 2.205582 1_555
Mg10 O31 2.230742 1_555
Mg11 O23 1.950723 1_555
Mg11 O11 2.108984 1_655
Mg11 O7 2.118907 1_555
Mg11 O26 2.170333 1_655
Mg12 O24 1.939616 1_555
Mg12 O2 1.953847 1_555
Mg12 O34 1.967743 1_555
Mg12 O17 2.259292 1_555
Mg13 O10 1.910399 1_554
Mg13 O14 1.984205 1_565
Mg13 O23 2.000579 1_455
Mg13 O12 2.009986 1_565
Mg14 O36 1.940717 1_555
Mg14 O2 1.967431 1_455
Mg14 O11 2.173149 1_556
Mg14 O9 2.205046 1_455
Mg14 O10 2.659602 1_555
Mg15 O3 1.934024 1_565
Mg15 O30 1.949406 1_555
Mg15 O0 2.015570 1_554
Mg15 O23 2.291676 1_555
Mg16 O32 1.921831 1_455
Mg16 O13 1.958354 1_555
Mg16 O14 2.129933 1_555
Mg16 O35 2.179540 1_555
Mg16 O12 2.542060 1_555
Mg17 O32 1.967386 1_555
Mg17 O14 2.016052 1_655
Mg17 O3 2.075271 1_555
Mg17 O28 2.109739 1_555
Mg17 O23 2.109820 1_545
Mg18 O0 1.982002 1_545
Mg18 O20 1.984798 1_555
Mg18 O28 1.988357 1_556
Mg18 O17 1.994401 1_555
Mg18 O14 2.653793 1_656
Mg19 O38 1.943535 1_555
Mg19 O17 1.964107 1_555
Mg19 O27 2.003808 1_555
Mg19 O25 2.191850 1_555
Mg19 O20 2.327765 1_555
Mg19 O34 2.377296 1_555
Mg20 O38 1.898514 1_455
Mg20 O39 2.046082 1_555
Mg20 O32 2.063134 1_455
Mg20 O26 2.071260 1_545
Mg20 O23 2.091413 1_445
Mg21 O1 1.935854 1_555
Mg21 O28 2.034005 1_555
Mg21 O3 2.081717 1_555
Mg21 O25 2.124062 1_555
Mg21 O5 2.472304 1_555
Mg22 O1 1.908813 1_555
Mg22 O21 1.992454 1_554
Mg22 O13 2.036399 1_555
Mg22 O12 2.128935 1_555
Mg23 O36 1.942963 1_555
Mg23 O31 2.027322 1_555
Mg23 O19 2.029390 1_556
Mg23 O13 2.056112 1_556
Mg23 O18 2.184781 1_555
Mg24 O15 1.973907 1_555
Mg24 O32 1.997729 1_555
Mg24 O34 2.029588 1_555
Mg24 O25 2.114303 1_555
Mg24 O38 2.115122 1_555
Mg25 O19 2.051318 1_555
Mg25 O22 2.062758 1_555
Mg25 O30 2.081248 1_555
Mg25 O24 2.103200 1_554
Mg25 O5 2.169411 1_555
Mg26 O11 1.971235 1_555
Mg26 O8 1.997973 1_555
Mg26 O29 2.027418 1_555
Mg26 O35 2.057090 1_555
Mg27 O33 1.972392 1_555
Mg27 O4 2.027953 1_555
Mg27 O16 2.097822 1_555
Mg27 O19 2.592458 1_556
Mg28 O31 1.992091 1_555
Mg28 O14 1.992925 1_556
Mg28 O2 2.000866 1_455
Mg28 O13 2.136654 1_556
Mg28 O20 2.209345 1_455
Mg29 O37 1.941949 1_555
Mg29 O12 2.003375 1_555
Mg29 O35 2.045215 1_555
Mg29 O39 2.048394 1_555
Mg30 O25 1.936795 1_555
Mg30 O4 1.950305 1_555
Mg30 O18 1.955159 1_555
Mg30 O17 2.737309 1_555
Mg31 O1 1.951853 1_555
Mg31 O5 2.079622 1_555
Mg31 O19 2.089134 1_555
Mg31 O35 2.165015 1_555
Mg31 O13 2.204802 1_555
Mg32 O31 1.956974 1_555
Mg32 O20 1.960721 1_455
Mg32 O38 2.000369 1_455
Mg32 O39 2.130018 1_555
Mg32 O34 2.202444 1_455
Mg33 O15 1.974016 1_555
Mg33 O30 2.045362 1_555
Mg33 O5 2.109146 1_555
Mg33 O7 2.149494 1_555
Mg33 O6 2.255312 1_555
Mg34 O16 1.951749 1_555
Mg34 O39 2.103728 1_565
Mg34 O26 2.110689 1_555
Mg34 O37 2.150528 1_565
Mg35 O16 2.039191 1_555
Mg35 O36 2.062528 1_555
Mg35 O29 2.099365 1_555
Mg35 O26 2.233968 1_555
Mg35 O9 2.396135 1_455
Mg36 O22 1.962141 1_555
Mg36 O6 2.029611 1_555
Mg36 O12 2.078588 1_565
Mg36 O8 2.114775 1_555
Mg37 O3 2.021562 1_555
Mg37 O27 2.048803 1_555
Mg37 O37 2.049051 1_555
Mg37 O25 2.162197 1_555
Mg37 O6 2.326591 1_545
Mg38 O21 1.966162 1_565
Mg38 O16 1.991776 1_555
Mg38 O22 2.030963 1_556
Mg38 O10 2.070791 1_555
Mg39 O20 2.007709 1_565
Mg39 O9 2.077208 1_555
Mg39 O10 2.082125 1_655
Mg39 O0 2.276455 1_555
Mg39 O14 2.356633 1_666
