# generated using pymatgen
data_Pt3S3NO14
_symmetry_space_group_name_H-M   'P 1'
_cell_length_a   11.80798347
_cell_length_b   11.80798347
_cell_length_c   11.80798286
_cell_angle_alpha   61.74574617
_cell_angle_beta   61.74574617
_cell_angle_gamma   61.74574736
_symmetry_Int_Tables_number   1
_chemical_formula_structural   Pt3S3NO14
_chemical_formula_sum   'Pt12 S12 N4 O56'
_cell_volume   1209.70005203
_cell_formula_units_Z   4
loop_
 _symmetry_equiv_pos_site_id
 _symmetry_equiv_pos_as_xyz
  1  'x, y, z'
loop_
 _atom_site_type_symbol
 _atom_site_label
 _atom_site_symmetry_multiplicity
 _atom_site_fract_x
 _atom_site_fract_y
 _atom_site_fract_z
 _atom_site_occupancy
  Pt  Pt0  1  0.19775000  0.74680300  0.15125600  1
  Pt  Pt1  1  0.74680300  0.15125600  0.19775000  1
  Pt  Pt2  1  0.15125600  0.19775000  0.74680300  1
  Pt  Pt3  1  0.80225000  0.25319700  0.84874400  1
  Pt  Pt4  1  0.25319700  0.84874400  0.80225000  1
  Pt  Pt5  1  0.84874400  0.80225000  0.25319700  1
  Pt  Pt6  1  0.27326800  0.96023100  0.01736800  1
  Pt  Pt7  1  0.96023100  0.01736800  0.27326800  1
  Pt  Pt8  1  0.01736800  0.27326800  0.96023100  1
  Pt  Pt9  1  0.72673200  0.03976900  0.98263300  1
  Pt  Pt10  1  0.03976900  0.98263300  0.72673200  1
  Pt  Pt11  1  0.98263300  0.72673200  0.03976900  1
  S  S0  1  0.25582600  0.83727800  0.31984500  1
  S  S1  1  0.83727800  0.31984500  0.25582600  1
  S  S2  1  0.31984500  0.25582600  0.83727800  1
  S  S3  1  0.74417400  0.16272200  0.68015500  1
  S  S4  1  0.16272200  0.68015500  0.74417400  1
  S  S5  1  0.68015500  0.74417400  0.16272200  1
  S  S6  1  0.48882000  0.70096500  0.94648400  1
  S  S7  1  0.70096500  0.94648400  0.48882000  1
  S  S8  1  0.94648400  0.48882000  0.70096500  1
  S  S9  1  0.51118000  0.29903500  0.05351600  1
  S  S10  1  0.29903500  0.05351600  0.51118000  1
  S  S11  1  0.05351600  0.51118000  0.29903500  1
  N  N0  1  0.60258600  0.60258600  0.60258600  1
  N  N1  1  0.39741400  0.39741400  0.39741400  1
  N  N2  1  0.79510600  0.79510600  0.79510600  1
  N  N3  1  0.20489400  0.20489400  0.20489400  1
  O  O0  1  0.08863100  0.08863100  0.08863100  1
  O  O1  1  0.91136900  0.91136900  0.91136900  1
  O  O2  1  0.00200900  0.84868400  0.23547800  1
  O  O3  1  0.84868400  0.23547800  0.00200900  1
  O  O4  1  0.23547800  0.00200900  0.84868400  1
  O  O5  1  0.99799100  0.15131600  0.76452200  1
  O  O6  1  0.15131600  0.76452200  0.99799100  1
  O  O7  1  0.76452200  0.99799100  0.15131600  1
  O  O8  1  0.11295700  0.92300500  0.37227700  1
  O  O9  1  0.92300500  0.37227700  0.11295700  1
  O  O10  1  0.37227700  0.11295700  0.92300500  1
  O  O11  1  0.88704300  0.07699500  0.62772300  1
  O  O12  1  0.07699500  0.62772300  0.88704300  1
  O  O13  1  0.62772300  0.88704300  0.07699500  1
  O  O14  1  0.32383600  0.92208500  0.17642100  1
  O  O15  1  0.92208500  0.17642100  0.32383600  1
  O  O16  1  0.17642100  0.32383600  0.92208500  1
  O  O17  1  0.67616400  0.07791500  0.82357900  1
  O  O18  1  0.07791500  0.82357900  0.67616400  1
  O  O19  1  0.82357900  0.67616400  0.07791500  1
  O  O20  1  0.20801100  0.59388300  0.66797300  1
  O  O21  1  0.59388300  0.66797300  0.20801100  1
  O  O22  1  0.66797300  0.20801100  0.59388300  1
  O  O23  1  0.79198900  0.40611700  0.33202700  1
  O  O24  1  0.40611700  0.33202700  0.79198900  1
  O  O25  1  0.33202700  0.79198900  0.40611700  1
  O  O26  1  0.25266200  0.71608500  0.30558600  1
  O  O27  1  0.71608500  0.30558600  0.25266200  1
  O  O28  1  0.30558600  0.25266200  0.71608500  1
  O  O29  1  0.74733800  0.28391500  0.69441400  1
  O  O30  1  0.28391500  0.69441400  0.74733800  1
  O  O31  1  0.69441400  0.74733800  0.28391500  1
  O  O32  1  0.46442300  0.84090700  0.94745700  1
  O  O33  1  0.84090700  0.94745700  0.46442300  1
  O  O34  1  0.94745700  0.46442300  0.84090700  1
  O  O35  1  0.53557700  0.15909300  0.05254300  1
  O  O36  1  0.15909300  0.05254300  0.53557700  1
  O  O37  1  0.05254300  0.53557700  0.15909300  1
  O  O38  1  0.62748100  0.62006800  0.93364600  1
  O  O39  1  0.62006800  0.93364600  0.62748100  1
  O  O40  1  0.93364600  0.62748100  0.62006800  1
  O  O41  1  0.37251900  0.37993200  0.06635400  1
  O  O42  1  0.37993200  0.06635400  0.37251900  1
  O  O43  1  0.06635400  0.37251900  0.37993200  1
  O  O44  1  0.39511700  0.63415300  0.08245000  1
  O  O45  1  0.63415300  0.08245000  0.39511700  1
  O  O46  1  0.08245000  0.39511700  0.63415300  1
  O  O47  1  0.60488300  0.36584700  0.91755000  1
  O  O48  1  0.36584700  0.91755000  0.60488300  1
  O  O49  1  0.91755000  0.60488300  0.36584700  1
  O  O50  1  0.16661500  0.55021800  0.27903200  1
  O  O51  1  0.55021800  0.27903200  0.16661500  1
  O  O52  1  0.27903200  0.16661500  0.55021800  1
  O  O53  1  0.83338500  0.44978200  0.72096800  1
  O  O54  1  0.44978200  0.72096800  0.83338500  1
  O  O55  1  0.72096800  0.83338500  0.44978200  1
loop_
_geom_bond_atom_site_label_1
_geom_bond_atom_site_label_2
_geom_bond_distance
_geom_bond_site_symmetry_2
O0 Pt7 2.025200 1_455
O0 Pt8 2.025200 1_554
O0 Pt6 2.025200 1_545
O1 Pt10 2.025203 1_655
O1 Pt11 2.025203 1_556
O1 Pt9 2.025203 1_565
O2 Pt5 2.022856 1_455
O2 Pt0 2.025424 1_555
O2 Pt7 2.027954 1_465
O3 Pt3 2.022856 1_554
O3 Pt1 2.025424 1_555
O3 Pt8 2.027954 1_654
O4 Pt4 2.022856 1_545
O4 Pt2 2.025424 1_555
O4 Pt6 2.027954 1_546
O5 Pt2 2.022856 1_655
O5 Pt3 2.025424 1_555
O5 Pt10 2.027943 1_645
O6 Pt0 2.022856 1_556
O6 Pt4 2.025424 1_555
O6 Pt11 2.027943 1_456
O7 Pt1 2.022856 1_565
O7 Pt5 2.025424 1_555
O7 Pt9 2.027943 1_564
O8 S0 1.497214 1_555
O8 Pt7 2.172756 1_465
O9 S1 1.497214 1_555
O9 Pt8 2.172756 1_654
O10 S2 1.497214 1_555
O10 Pt6 2.172756 1_546
O11 S3 1.497214 1_555
O11 Pt10 2.172758 1_645
O12 S4 1.497214 1_555
O12 Pt11 2.172758 1_456
O13 S5 1.497214 1_555
O13 Pt9 2.172758 1_564
O14 S0 1.543994 1_555
O14 Pt6 2.023076 1_555
O15 S1 1.543994 1_555
O15 Pt7 2.023077 1_555
O16 S2 1.543994 1_555
O16 Pt8 2.023077 1_555
O17 S3 1.543994 1_555
O17 Pt9 2.023088 1_555
O18 S4 1.543994 1_555
O18 Pt10 2.023088 1_555
O19 S5 1.543994 1_555
O19 Pt11 2.023088 1_555
O20 S4 1.424713 1_555
O21 S5 1.424713 1_555
O22 S3 1.424713 1_555
O23 S1 1.424713 1_555
O24 S2 1.424713 1_555
O25 S0 1.424713 1_555
O26 S0 1.536987 1_555
O26 Pt0 2.035457 1_555
O27 S1 1.536987 1_555
O27 Pt1 2.035457 1_555
O28 S2 1.536986 1_555
O28 Pt2 2.035457 1_555
O29 S3 1.536987 1_555
O29 Pt3 2.035457 1_555
O30 S4 1.536987 1_555
O30 Pt4 2.035457 1_555
O31 S5 1.536986 1_555
O31 Pt5 2.035457 1_555
O32 S6 1.542013 1_555
O32 Pt6 2.021763 1_556
O33 S7 1.542013 1_555
O33 Pt7 2.021763 1_565
O34 S8 1.542013 1_555
O34 Pt8 2.021763 1_655
O35 S9 1.542013 1_555
O35 Pt9 2.021761 1_554
O36 S10 1.542013 1_555
O36 Pt10 2.021760 1_545
O37 S11 1.542013 1_555
O37 Pt11 2.021761 1_455
O38 S6 1.427436 1_555
O39 S7 1.427435 1_555
O40 S8 1.427436 1_555
O41 S9 1.427436 1_555
O42 S10 1.427435 1_555
O43 S11 1.427436 1_555
O44 S6 1.539356 1_554
O44 Pt0 2.038694 1_555
O45 S7 1.539356 1_545
O45 Pt1 2.038694 1_555
O46 S8 1.539356 1_455
O46 Pt2 2.038694 1_555
O47 S9 1.539356 1_556
O47 Pt3 2.038694 1_555
O48 S10 1.539356 1_565
O48 Pt4 2.038694 1_555
O49 S11 1.539356 1_655
O49 Pt5 2.038694 1_555
O50 S11 1.494277 1_555
O50 Pt0 2.183306 1_555
O51 S9 1.494277 1_555
O51 Pt1 2.183306 1_555
O52 S10 1.494277 1_555
O52 Pt2 2.183306 1_555
O53 S8 1.494277 1_555
O53 Pt3 2.183306 1_555
O54 S6 1.494277 1_555
O54 Pt4 2.183306 1_555
O55 S7 1.494277 1_555
O55 Pt5 2.183306 1_555
