# generated using pymatgen
data_Ba4CeEu3Tl2(Cu2O9)2
_symmetry_space_group_name_H-M   'P 1'
_cell_length_a   3.88246202
_cell_length_b   15.93140553
_cell_length_c   7.74812216
_cell_angle_alpha   96.96408508
_cell_angle_beta   90.01127968
_cell_angle_gamma   82.99950515
_symmetry_Int_Tables_number   1
_chemical_formula_structural   Ba4CeEu3Tl2(Cu2O9)2
_chemical_formula_sum   'Ba4 Ce1 Eu3 Tl2 Cu4 O18'
_cell_volume   472.11141606
_cell_formula_units_Z   1
loop_
 _symmetry_equiv_pos_site_id
 _symmetry_equiv_pos_as_xyz
  1  'x, y, z'
loop_
 _atom_site_type_symbol
 _atom_site_label
 _atom_site_symmetry_multiplicity
 _atom_site_fract_x
 _atom_site_fract_y
 _atom_site_fract_z
 _atom_site_occupancy
  Ba  Ba0  1  0.58493600  0.83023900  0.70736200  1
  Ba  Ba1  1  0.58501400  0.83014400  0.20771800  1
  Ba  Ba2  1  0.41543300  0.16918000  0.29231200  1
  Ba  Ba3  1  0.41519700  0.16977100  0.79237200  1
  Ce  Ce0  1  0.29022500  0.41956200  0.35480900  1
  Eu  Eu0  1  0.70810500  0.58356800  0.14459800  1
  Eu  Eu1  1  0.70818200  0.58354800  0.64727700  1
  Eu  Eu2  1  0.29134900  0.41748900  0.85441700  1
  Tl  Tl0  1  0.94775800  0.00008800  0.99986600  1
  Tl  Tl1  1  0.05298800  0.99991900  0.50001000  1
  Cu  Cu0  1  0.15125800  0.69868400  0.42477300  1
  Cu  Cu1  1  0.14864700  0.70057900  0.92520900  1
  Cu  Cu2  1  0.85061200  0.30099000  0.57573500  1
  Cu  Cu3  1  0.84890300  0.30116400  0.07459200  1
  O  O0  1  0.65781300  0.68587000  0.42154300  1
  O  O1  1  0.65414800  0.68912200  0.92224200  1
  O  O2  1  0.15590500  0.68779500  0.67271600  1
  O  O3  1  0.15583900  0.68787900  0.17140900  1
  O  O4  1  0.34482500  0.31292000  0.57265100  1
  O  O5  1  0.34287400  0.31294600  0.08383400  1
  O  O6  1  0.84271400  0.31508900  0.32864100  1
  O  O7  1  0.84426800  0.31190500  0.82784600  1
  O  O8  1  0.49988900  0.99990500  0.25034200  1
  O  O9  1  0.49947100  0.00021600  0.74975400  1
  O  O10  1  0.07726100  0.86515200  0.46633100  1
  O  O11  1  0.05729500  0.86559900  0.96623000  1
  O  O12  1  0.94242100  0.13478100  0.53352300  1
  O  O13  1  0.92259300  0.13477100  0.03391300  1
  O  O14  1  0.75260000  0.49449500  0.37374100  1
  O  O15  1  0.74960500  0.50095100  0.87529400  1
  O  O16  1  0.25084300  0.49784800  0.61661800  1
  O  O17  1  0.25103000  0.49783300  0.13232100  1
loop_
_geom_bond_atom_site_label_1
_geom_bond_atom_site_label_2
_geom_bond_distance
_geom_bond_site_symmetry_2
Ba0 O9 2.667664 1_565
Ba0 O10 2.768616 1_555
Ba0 O11 2.771276 1_655
Ba0 O10 2.821896 1_655
Ba0 O11 2.825457 1_555
Ba0 O1 2.942577 1_555
Ba0 O2 2.960112 1_655
Ba0 O2 2.961415 1_555
Ba0 O0 2.980070 1_555
Ba1 O8 2.664274 1_555
Ba1 O10 2.770350 1_555
Ba1 O11 2.773486 1_654
Ba1 O10 2.822386 1_655
Ba1 O11 2.826739 1_554
Ba1 O1 2.942840 1_554
Ba1 O3 2.957853 1_655
Ba1 O3 2.959432 1_555
Ba1 O0 2.978692 1_555
Ba2 O8 2.656646 1_545
Ba2 O13 2.767366 1_555
Ba2 O12 2.767821 1_455
Ba2 O12 2.820097 1_555
Ba2 O13 2.821026 1_455
Ba2 O5 2.945200 1_555
Ba2 O4 2.945880 1_555
Ba2 O6 3.001430 1_455
Ba2 O6 3.002627 1_555
Ba3 O9 2.661042 1_555
Ba3 O13 2.770907 1_556
Ba3 O12 2.771135 1_455
Ba3 O12 2.824080 1_555
Ba3 O13 2.825865 1_456
Ba3 O7 2.956725 1_455
Ba3 O7 2.957443 1_555
Ba3 O4 2.993876 1_555
Ba3 O5 2.996092 1_556
Ce0 O17 2.241584 1_555
Ce0 O16 2.243648 1_555
Ce0 O14 2.269148 1_555
Ce0 O14 2.270191 1_455
Ce0 O5 2.526993 1_555
Ce0 O4 2.527397 1_555
Ce0 O6 2.540271 1_455
Ce0 O6 2.541757 1_555
Eu0 O15 2.322652 1_554
Eu0 O17 2.362848 1_555
Eu0 O17 2.363182 1_655
Eu0 O14 2.397245 1_555
Eu0 O0 2.524564 1_555
Eu0 O3 2.539059 1_655
Eu0 O3 2.539705 1_555
Eu0 O1 2.540957 1_554
Eu1 O15 2.321791 1_555
Eu1 O16 2.362154 1_655
Eu1 O16 2.363347 1_555
Eu1 O14 2.397026 1_555
Eu1 O0 2.523524 1_555
Eu1 O2 2.538281 1_655
Eu1 O2 2.539179 1_555
Eu1 O1 2.541071 1_555
Eu2 O15 2.341789 1_555
Eu2 O15 2.341863 1_455
Eu2 O16 2.362483 1_555
Eu2 O17 2.362679 1_556
Eu2 O7 2.551931 1_455
Eu2 O7 2.552670 1_555
Eu2 O5 2.571033 1_556
Eu2 O4 2.572650 1_555
Cu0 O3 1.949619 1_555
Cu0 O2 1.949630 1_555
Cu0 O0 1.951050 1_455
Cu0 O0 1.952191 1_555
Cu0 O10 2.612838 1_555
Cu1 O2 1.942053 1_555
Cu1 O3 1.942370 1_556
Cu1 O1 1.948661 1_555
Cu1 O1 1.950421 1_455
Cu1 O11 2.590094 1_555
Cu2 O7 1.939889 1_555
Cu2 O4 1.950106 1_555
Cu2 O4 1.951502 1_655
Cu2 O6 1.954312 1_555
Cu2 O12 2.608753 1_555
Cu3 O7 1.939903 1_554
Cu3 O5 1.950088 1_655
Cu3 O5 1.951172 1_555
Cu3 O6 1.953773 1_555
Cu3 O13 2.611683 1_555
O8 Tl1 2.598796 1_555
O8 Tl0 2.606507 1_564
O9 Tl1 2.597643 1_545
O9 Tl0 2.604498 1_555
O10 Tl1 2.121681 1_555
O11 Tl0 2.117082 1_465
O12 Tl1 2.123174 1_645
O13 Tl0 2.120087 1_554
