# generated using pymatgen
data_K3ScCl6
_symmetry_space_group_name_H-M   'P 1'
_cell_length_a   7.57721072
_cell_length_b   12.24870786
_cell_length_c   12.81720542
_cell_angle_alpha   109.02037988
_cell_angle_beta   90.00000000
_cell_angle_gamma   90.00000000
_symmetry_Int_Tables_number   1
_chemical_formula_structural   K3ScCl6
_chemical_formula_sum   'K12 Sc4 Cl24'
_cell_volume   1124.63043017
_cell_formula_units_Z   4
loop_
 _symmetry_equiv_pos_site_id
 _symmetry_equiv_pos_as_xyz
  1  'x, y, z'
loop_
 _atom_site_type_symbol
 _atom_site_label
 _atom_site_symmetry_multiplicity
 _atom_site_fract_x
 _atom_site_fract_y
 _atom_site_fract_z
 _atom_site_occupancy
  K  K0  1  0.50579356  0.36463309  0.60063794  1
  K  K1  1  0.00579356  0.13536691  0.39936206  1
  K  K2  1  0.49420644  0.63536691  0.39936206  1
  K  K3  1  0.99420644  0.86463309  0.60063794  1
  K  K4  1  0.57329889  0.11249310  0.81987934  1
  K  K5  1  0.07329889  0.38750690  0.18012066  1
  K  K6  1  0.42670111  0.88750690  0.18012066  1
  K  K7  1  0.92670111  0.61249310  0.81987934  1
  K  K8  1  0.06180135  0.26714121  0.81637186  1
  K  K9  1  0.56180135  0.23285879  0.18362814  1
  K  K10  1  0.93819865  0.73285879  0.18362814  1
  K  K11  1  0.43819865  0.76714121  0.81637186  1
  Sc  Sc0  1  0.50000000  0.50000000  0.00000000  1
  Sc  Sc1  1  -0.00000000  -0.00000000  0.00000000  1
  Sc  Sc2  1  0.50000000  -0.00000000  0.50000000  1
  Sc  Sc3  1  -0.00000000  0.50000000  0.50000000  1
  Cl  Cl0  1  0.70262484  0.39388386  0.84527320  1
  Cl  Cl1  1  0.20262484  0.10611614  0.15472680  1
  Cl  Cl2  1  0.29737516  0.60611614  0.15472680  1
  Cl  Cl3  1  0.79737516  0.89388386  0.84527320  1
  Cl  Cl4  1  0.78048544  0.09074748  0.60134043  1
  Cl  Cl5  1  0.28048544  0.40925252  0.39865957  1
  Cl  Cl6  1  0.21951456  0.90925252  0.39865957  1
  Cl  Cl7  1  0.71951456  0.59074748  0.60134043  1
  Cl  Cl8  1  0.32013886  0.14742563  0.63720189  1
  Cl  Cl9  1  0.82013886  0.35257437  0.36279811  1
  Cl  Cl10  1  0.67986114  0.85257437  0.36279811  1
  Cl  Cl11  1  0.17986114  0.64742563  0.63720189  1
  Cl  Cl12  1  0.36598188  0.31170078  -0.00051582  1
  Cl  Cl13  1  0.86598188  0.18829922  0.00051582  1
  Cl  Cl14  1  0.63401812  0.68829922  0.00051582  1
  Cl  Cl15  1  0.13401812  0.81170078  -0.00051582  1
  Cl  Cl16  1  0.28623106  0.50725964  0.85536336  1
  Cl  Cl17  1  0.78623106  0.99274036  0.14463664  1
  Cl  Cl18  1  0.71376894  0.49274036  0.14463664  1
  Cl  Cl19  1  0.21376894  0.00725964  0.85536336  1
  Cl  Cl20  1  0.01396381  0.37039478  0.61248400  1
  Cl  Cl21  1  0.51396381  0.12960522  0.38751600  1
  Cl  Cl22  1  0.98603619  0.62960522  0.38751600  1
  Cl  Cl23  1  0.48603619  0.87039478  0.61248400  1
loop_
_geom_bond_atom_site_label_1
_geom_bond_atom_site_label_2
_geom_bond_distance
_geom_bond_site_symmetry_2
Cl0 Sc0 2.509874 1_556
Cl0 K8 3.095045 1_655
Cl0 K7 3.275172 1_555
Cl0 K0 3.384095 1_555
Cl0 K4 3.494931 1_555
Cl1 Sc1 2.509874 1_555
Cl1 K9 3.095045 1_555
Cl1 K6 3.275172 1_545
Cl1 K1 3.384095 1_555
Cl1 K5 3.494931 1_555
Cl2 Sc0 2.509874 1_555
Cl2 K10 3.095045 1_455
Cl2 K5 3.275172 1_555
Cl2 K2 3.384095 1_555
Cl2 K6 3.494931 1_555
Cl3 Sc1 2.509874 1_666
Cl3 K11 3.095045 1_555
Cl3 K4 3.275172 1_565
Cl3 K3 3.384095 1_555
Cl3 K7 3.494931 1_555
Cl4 Sc2 2.549212 1_555
Cl4 K4 3.145655 1_555
Cl4 K3 3.205783 1_545
Cl4 K1 3.292012 1_655
Cl4 K8 3.595350 1_655
Cl5 Sc3 2.549212 1_555
Cl5 K5 3.145655 1_555
Cl5 K2 3.205783 1_555
Cl5 K0 3.292012 1_555
Cl5 K9 3.595350 1_555
Cl6 Sc2 2.549212 1_565
Cl6 K6 3.145655 1_555
Cl6 K1 3.205783 1_565
Cl6 K3 3.292012 1_455
Cl6 K10 3.595350 1_455
Cl7 Sc3 2.549212 1_655
Cl7 K7 3.145655 1_555
Cl7 K0 3.205783 1_555
Cl7 K2 3.292012 1_555
Cl7 K11 3.595350 1_555
Cl8 Sc2 2.478065 1_555
Cl8 K8 3.010105 1_555
Cl8 K4 3.161958 1_555
Cl8 K0 3.176410 1_555
Cl9 Sc3 2.478065 1_655
Cl9 K9 3.010105 1_555
Cl9 K5 3.161958 1_655
Cl9 K1 3.176410 1_655
Cl10 Sc2 2.478065 1_565
Cl10 K10 3.010105 1_555
Cl10 K6 3.161958 1_555
Cl10 K2 3.176410 1_555
Cl11 Sc3 2.478065 1_555
Cl11 K11 3.010105 1_555
Cl11 K7 3.161958 1_455
Cl11 K3 3.176410 1_455
Cl12 Sc0 2.518113 1_555
Cl12 K5 3.120835 1_555
Cl12 K4 3.171683 1_554
Cl12 K9 3.192243 1_555
Cl12 K8 3.206802 1_554
Cl13 Sc1 2.518113 1_655
Cl13 K4 3.120835 1_554
Cl13 K5 3.171683 1_655
Cl13 K8 3.192243 1_654
Cl13 K9 3.206802 1_555
Cl14 Sc0 2.518113 1_555
Cl14 K7 3.120835 1_554
Cl14 K6 3.171683 1_555
Cl14 K11 3.192243 1_554
Cl14 K10 3.206802 1_555
Cl15 Sc1 2.518113 1_565
Cl15 K6 3.120835 1_555
Cl15 K7 3.171683 1_454
Cl15 K10 3.192243 1_455
Cl15 K11 3.206802 1_554
Cl16 Sc0 2.485102 1_556
Cl16 K7 3.109962 1_455
Cl16 K8 3.291484 1_555
Cl16 K11 3.570080 1_555
Cl16 K0 3.572314 1_555
Cl17 Sc1 2.485102 1_665
Cl17 K6 3.109962 1_555
Cl17 K9 3.291484 1_565
Cl17 K10 3.570080 1_555
Cl17 K1 3.572314 1_665
Cl18 Sc0 2.485102 1_555
Cl18 K5 3.109962 1_655
Cl18 K10 3.291484 1_555
Cl18 K9 3.570080 1_555
Cl18 K2 3.572314 1_555
Cl19 Sc1 2.485102 1_556
Cl19 K4 3.109962 1_555
Cl19 K11 3.291484 1_545
Cl19 K8 3.570080 1_555
Cl19 K3 3.572314 1_445
Cl20 Sc3 2.470172 1_555
Cl20 K1 3.259963 1_555
Cl20 K8 3.273282 1_555
Cl20 K7 3.340496 1_455
Cl21 Sc2 2.470172 1_555
Cl21 K0 3.259963 1_555
Cl21 K9 3.273282 1_555
Cl21 K6 3.340496 1_545
Cl22 Sc3 2.470172 1_655
Cl22 K3 3.259963 1_555
Cl22 K10 3.273282 1_555
Cl22 K5 3.340496 1_655
Cl23 Sc2 2.470172 1_565
Cl23 K2 3.259963 1_555
Cl23 K11 3.273282 1_555
Cl23 K4 3.340496 1_565
