# generated using pymatgen
data_KH4O4F
_symmetry_space_group_name_H-M   'P 1'
_cell_length_a   6.16001900
_cell_length_b   11.30662500
_cell_length_c   12.31145700
_cell_angle_alpha   90.00000000
_cell_angle_beta   90.00000000
_cell_angle_gamma   90.00000000
_symmetry_Int_Tables_number   1
_chemical_formula_structural   KH4O4F
_chemical_formula_sum   'K8 H32 O32 F8'
_cell_volume   857.48097424
_cell_formula_units_Z   8
loop_
 _symmetry_equiv_pos_site_id
 _symmetry_equiv_pos_as_xyz
  1  'x, y, z'
loop_
 _atom_site_type_symbol
 _atom_site_label
 _atom_site_symmetry_multiplicity
 _atom_site_fract_x
 _atom_site_fract_y
 _atom_site_fract_z
 _atom_site_occupancy
  K  K0  1  0.80666100  0.44682800  0.37051900  1
  K  K1  1  0.69333900  0.94682800  0.62948100  1
  K  K2  1  0.30666100  0.55317200  0.12948100  1
  K  K3  1  0.19333900  0.05317200  0.87051900  1
  K  K4  1  0.19333900  0.55317200  0.62948100  1
  K  K5  1  0.30666100  0.05317200  0.37051900  1
  K  K6  1  0.69333900  0.44682800  0.87051900  1
  K  K7  1  0.80666100  0.94682800  0.12948100  1
  H  H0  1  0.76559700  0.15242200  0.31898100  1
  H  H1  1  0.73440300  0.65242200  0.68101900  1
  H  H2  1  0.26559700  0.84757800  0.18101900  1
  H  H3  1  0.23440300  0.34757800  0.81898100  1
  H  H4  1  0.23440300  0.84757800  0.68101900  1
  H  H5  1  0.26559700  0.34757800  0.31898100  1
  H  H6  1  0.73440300  0.15242200  0.81898100  1
  H  H7  1  0.76559700  0.65242200  0.18101900  1
  H  H8  1  0.91516800  0.36466700  0.12700200  1
  H  H9  1  0.58483200  0.86466700  0.87299800  1
  H  H10  1  0.41516800  0.63533300  0.37299800  1
  H  H11  1  0.08483200  0.13533300  0.62700200  1
  H  H12  1  0.08483200  0.63533300  0.87299800  1
  H  H13  1  0.41516800  0.13533300  0.12700200  1
  H  H14  1  0.58483200  0.36466700  0.62700200  1
  H  H15  1  0.91516800  0.86466700  0.37299800  1
  H  H16  1  0.71684300  0.20952900  0.51286500  1
  H  H17  1  0.78315700  0.70952900  0.48713500  1
  H  H18  1  0.21684300  0.79047100  0.98713500  1
  H  H19  1  0.28315700  0.29047100  0.01286500  1
  H  H20  1  0.28315700  0.79047100  0.48713500  1
  H  H21  1  0.21684300  0.29047100  0.51286500  1
  H  H22  1  0.78315700  0.20952900  0.01286500  1
  H  H23  1  0.71684300  0.70952900  0.98713500  1
  H  H24  1  0.60540000  0.27298300  0.18456600  1
  H  H25  1  0.89460000  0.77298300  0.81543400  1
  H  H26  1  0.10540000  0.72701700  0.31543400  1
  H  H27  1  0.39460000  0.22701700  0.68456600  1
  H  H28  1  0.39460000  0.72701700  0.81543400  1
  H  H29  1  0.10540000  0.22701700  0.18456600  1
  H  H30  1  0.89460000  0.27298300  0.68456600  1
  H  H31  1  0.60540000  0.77298300  0.31543400  1
  O  O0  1  0.86850600  0.16614700  0.38137500  1
  O  O1  1  0.63149400  0.66614700  0.61862500  1
  O  O2  1  0.36850600  0.83385300  0.11862500  1
  O  O3  1  0.13149400  0.33385300  0.88137500  1
  O  O4  1  0.13149400  0.83385300  0.61862500  1
  O  O5  1  0.36850600  0.33385300  0.38137500  1
  O  O6  1  0.63149400  0.16614700  0.88137500  1
  O  O7  1  0.86850600  0.66614700  0.11862500  1
  O  O8  1  0.78273300  0.35496200  0.07898000  1
  O  O9  1  0.71726700  0.85496200  0.92102000  1
  O  O10  1  0.28273300  0.64503800  0.42102000  1
  O  O11  1  0.21726700  0.14503800  0.57898000  1
  O  O12  1  0.21726700  0.64503800  0.92102000  1
  O  O13  1  0.28273300  0.14503800  0.07898000  1
  O  O14  1  0.71726700  0.35496200  0.57898000  1
  O  O15  1  0.78273300  0.85496200  0.42102000  1
  O  O16  1  0.72956000  0.13250400  0.47340100  1
  O  O17  1  0.77044000  0.63250400  0.52659900  1
  O  O18  1  0.22956000  0.86749600  0.02659900  1
  O  O19  1  0.27044000  0.36749600  0.97340100  1
  O  O20  1  0.27044000  0.86749600  0.52659900  1
  O  O21  1  0.22956000  0.36749600  0.47340100  1
  O  O22  1  0.77044000  0.13250400  0.97340100  1
  O  O23  1  0.72956000  0.63250400  0.02659900  1
  O  O24  1  0.60954000  0.35860800  0.16078500  1
  O  O25  1  0.89046000  0.85860800  0.83921500  1
  O  O26  1  0.10954000  0.64139200  0.33921500  1
  O  O27  1  0.39046000  0.14139200  0.66078500  1
  O  O28  1  0.39046000  0.64139200  0.83921500  1
  O  O29  1  0.10954000  0.14139200  0.16078500  1
  O  O30  1  0.89046000  0.35860800  0.66078500  1
  O  O31  1  0.60954000  0.85860800  0.33921500  1
  F  F0  1  0.59812500  0.13809100  0.21775900  1
  F  F1  1  0.90187500  0.63809100  0.78224100  1
  F  F2  1  0.09812500  0.86190900  0.28224100  1
  F  F3  1  0.40187500  0.36190900  0.71775900  1
  F  F4  1  0.40187500  0.86190900  0.78224100  1
  F  F5  1  0.09812500  0.36190900  0.21775900  1
  F  F6  1  0.90187500  0.13809100  0.71775900  1
  F  F7  1  0.59812500  0.63809100  0.28224100  1
loop_
_geom_bond_atom_site_label_1
_geom_bond_atom_site_label_2
_geom_bond_distance
_geom_bond_site_symmetry_2
K0 O14 2.822912 1_555
K0 O17 2.854746 1_555
K0 O26 2.910140 1_655
K0 O5 2.989040 1_555
K0 O24 3.022714 1_555
K0 O21 3.032372 1_655
K0 O0 3.199132 1_555
K1 O15 2.822912 1_555
K1 O16 2.854746 1_565
K1 O27 2.910140 1_565
K1 O4 2.989040 1_655
K1 O25 3.022714 1_555
K1 O20 3.032372 1_555
K1 O1 3.199132 1_555
K2 O12 2.822912 1_554
K2 O19 2.854746 1_554
K2 O24 2.910140 1_555
K2 O7 2.989040 1_455
K2 O26 3.022714 1_555
K2 O23 3.032372 1_555
K2 O2 3.199132 1_555
K3 O13 2.822912 1_556
K3 O18 2.854746 1_546
K3 O25 2.910140 1_445
K3 O6 2.989040 1_555
K3 O27 3.022714 1_555
K3 O22 3.032372 1_455
K3 O3 3.199132 1_555
K4 O10 2.822912 1_555
K4 O21 2.854746 1_555
K4 O30 2.910140 1_455
K4 O1 2.989040 1_555
K4 O28 3.022714 1_555
K4 O17 3.032372 1_455
K4 O4 3.199132 1_555
K5 O11 2.822912 1_555
K5 O20 2.854746 1_545
K5 O31 2.910140 1_545
K5 O0 2.989040 1_455
K5 O29 3.022714 1_555
K5 O16 3.032372 1_555
K5 O5 3.199132 1_555
K6 O8 2.822912 1_556
K6 O23 2.854746 1_556
K6 O28 2.910140 1_555
K6 O3 2.989040 1_655
K6 O30 3.022714 1_555
K6 O19 3.032372 1_555
K6 O6 3.199132 1_555
K7 O9 2.822912 1_554
K7 O22 2.854746 1_564
K7 O29 2.910140 1_665
K7 O2 2.989040 1_555
K7 O31 3.022714 1_555
K7 O18 3.032372 1_655
K7 O7 3.199132 1_555
H0 O0 1.007973 1_555
H1 O1 1.007973 1_555
H2 O2 1.007973 1_555
H3 O3 1.007973 1_555
H4 O4 1.007973 1_555
H5 O5 1.007973 1_555
H6 O6 1.007973 1_555
H7 O7 1.007973 1_555
H8 O8 1.013467 1_555
H9 O9 1.013467 1_555
H10 O10 1.013467 1_555
H11 O11 1.013467 1_555
H12 O12 1.013467 1_555
H13 O13 1.013467 1_555
H14 O14 1.013467 1_555
H15 O15 1.013467 1_555
H16 O16 1.000325 1_555
H17 O17 1.000325 1_555
H18 O18 1.000325 1_556
H19 O19 1.000325 1_554
H20 O20 1.000325 1_555
H21 O21 1.000325 1_555
H22 O22 1.000325 1_554
H23 O23 1.000325 1_556
H24 O24 1.011753 1_555
H25 O25 1.011753 1_555
H26 O26 1.011753 1_555
H27 O27 1.011753 1_555
H28 O28 1.011753 1_555
H29 O29 1.011753 1_555
H30 O30 1.011753 1_555
H31 O31 1.011753 1_555
F0 H24 1.579608 1_555
F0 H13 1.587330 1_555
F0 H0 1.625887 1_555
F0 K7 2.740061 1_545
F0 K5 2.771724 1_555
F1 H25 1.579608 1_555
F1 H12 1.587330 1_655
F1 H1 1.625887 1_555
F1 K6 2.740061 1_555
F1 K4 2.771724 1_655
F2 H26 1.579608 1_555
F2 H15 1.587330 1_455
F2 H2 1.625887 1_555
F2 K5 2.740061 1_565
F2 K7 2.771724 1_455
F3 H27 1.579608 1_555
F3 H14 1.587330 1_555
F3 H3 1.625887 1_555
F3 K4 2.740061 1_555
F3 K6 2.771724 1_555
F4 H28 1.579608 1_555
F4 H9 1.587330 1_555
F4 H4 1.625887 1_555
F4 K3 2.740061 1_565
F4 K1 2.771724 1_555
F5 H29 1.579608 1_555
F5 H8 1.587330 1_455
F5 H5 1.625887 1_555
F5 K2 2.740061 1_555
F5 K0 2.771724 1_455
F6 H30 1.579608 1_555
F6 H11 1.587330 1_655
F6 H6 1.625887 1_555
F6 K1 2.740061 1_545
F6 K3 2.771724 1_655
F7 H31 1.579608 1_555
F7 H10 1.587330 1_555
F7 H7 1.625887 1_555
F7 K0 2.740061 1_555
F7 K2 2.771724 1_555
