# generated using pymatgen
data_BaLaEuZnO5
_symmetry_space_group_name_H-M   'P 1'
_cell_length_a   6.85030322
_cell_length_b   6.85030322
_cell_length_c   7.60034485
_cell_angle_alpha   62.95567436
_cell_angle_beta   62.95567436
_cell_angle_gamma   89.48860801
_symmetry_Int_Tables_number   1
_chemical_formula_structural   BaLaEuZnO5
_chemical_formula_sum   'Ba2 La2 Eu2 Zn2 O10'
_cell_volume   273.98809461
_cell_formula_units_Z   2
loop_
 _symmetry_equiv_pos_site_id
 _symmetry_equiv_pos_as_xyz
  1  'x, y, z'
loop_
 _atom_site_type_symbol
 _atom_site_label
 _atom_site_symmetry_multiplicity
 _atom_site_fract_x
 _atom_site_fract_y
 _atom_site_fract_z
 _atom_site_occupancy
  Ba  Ba0  1  0.25000000  0.25000000  0.50000000  1
  Ba  Ba1  1  0.75000000  0.75000000  0.50000000  1
  La  La0  1  0.67583700  0.17583700  0.00000000  1
  La  La1  1  0.32416300  0.82416300  0.00000000  1
  Eu  Eu0  1  0.82523000  0.67477000  0.00000000  1
  Eu  Eu1  1  0.17477000  0.32523000  0.00000000  1
  Zn  Zn0  1  0.75018900  0.25018900  0.49962300  1
  Zn  Zn1  1  0.24981100  0.74981100  0.50037700  1
  O  O0  1  0.51468400  0.72238900  0.26292700  1
  O  O1  1  0.22238900  0.01468400  0.26292700  1
  O  O2  1  0.72241400  0.22241400  0.26526300  1
  O  O3  1  0.01232300  0.51232300  0.26526300  1
  O  O4  1  0.48531600  0.27761100  0.73707300  1
  O  O5  1  0.77761100  0.98531600  0.73707300  1
  O  O6  1  0.27758500  0.77758600  0.73473700  1
  O  O7  1  0.98767700  0.48767700  0.73473700  1
  O  O8  1  0.50000000  0.50000000  0.00000000  1
  O  O9  1  0.00000000  0.00000000  0.00000000  1
loop_
_geom_bond_atom_site_label_1
_geom_bond_atom_site_label_2
_geom_bond_distance
_geom_bond_site_symmetry_2
Ba0 O8 2.919439 1_555
Ba0 O9 2.919439 1_556
Ba0 O6 2.955822 1_545
Ba0 O2 2.955824 1_555
Ba0 O3 2.955824 1_555
Ba0 O7 2.955824 1_455
Ba0 O1 2.972795 1_555
Ba0 O5 2.972795 1_445
Ba0 O0 2.972795 1_555
Ba0 O4 2.972795 1_555
Ba1 O9 2.919439 1_665
Ba1 O8 2.919439 1_556
Ba1 O3 2.955824 1_655
Ba1 O2 2.955824 1_565
Ba1 O7 2.955824 1_555
Ba1 O6 2.955830 1_555
Ba1 O4 2.972795 1_555
Ba1 O1 2.972795 1_665
Ba1 O5 2.972795 1_555
Ba1 O0 2.972795 1_555
La0 O2 2.332373 1_555
La0 O7 2.332373 1_554
La0 O8 2.516802 1_555
La0 O9 2.516802 1_655
La0 O5 2.696531 1_544
La0 O4 2.696531 1_554
La0 O1 2.696531 1_555
La0 O0 2.696531 1_545
La1 O3 2.332373 1_555
La1 O6 2.332377 1_554
La1 O8 2.516802 1_555
La1 O9 2.516802 1_565
La1 O1 2.696531 1_565
La1 O5 2.696531 1_554
La1 O4 2.696531 1_564
La1 O0 2.696531 1_555
Eu0 O5 2.310822 1_554
Eu0 O0 2.310822 1_555
Eu0 O9 2.538624 1_665
Eu0 O8 2.538624 1_555
Eu0 O6 2.688795 1_654
Eu0 O7 2.688801 1_554
Eu0 O2 2.688801 1_555
Eu0 O3 2.688801 1_655
Eu1 O4 2.310822 1_554
Eu1 O1 2.310822 1_555
Eu1 O8 2.538624 1_555
Eu1 O9 2.538624 1_555
Eu1 O3 2.688801 1_555
Eu1 O7 2.688801 1_454
Eu1 O2 2.688801 1_455
Eu1 O6 2.688801 1_554
O0 Zn1 1.977106 1_555
O1 Zn1 1.977106 1_545
O2 Zn0 1.965238 1_555
O3 Zn0 1.965231 1_455
O4 Zn0 1.977106 1_555
O5 Zn0 1.977106 1_565
O6 Zn1 1.965234 1_555
O7 Zn1 1.965231 1_655
