# generated using pymatgen
data_Ba4YbPr(Cu3O7)2
_symmetry_space_group_name_H-M   'P 1'
_cell_length_a   5.49722438
_cell_length_b   5.49722438
_cell_length_c   11.89122200
_cell_angle_alpha   90.00000000
_cell_angle_beta   90.00000000
_cell_angle_gamma   91.25371139
_symmetry_Int_Tables_number   1
_chemical_formula_structural   Ba4YbPr(Cu3O7)2
_chemical_formula_sum   'Ba4 Yb1 Pr1 Cu6 O14'
_cell_volume   359.26047374
_cell_formula_units_Z   1
loop_
 _symmetry_equiv_pos_site_id
 _symmetry_equiv_pos_as_xyz
  1  'x, y, z'
loop_
 _atom_site_type_symbol
 _atom_site_label
 _atom_site_symmetry_multiplicity
 _atom_site_fract_x
 _atom_site_fract_y
 _atom_site_fract_z
 _atom_site_occupancy
  Ba  Ba0  1  0.00000000  0.00000000  0.18249800  1
  Ba  Ba1  1  0.50000000  0.50000000  0.18656800  1
  Ba  Ba2  1  0.00000000  0.00000000  0.81750200  1
  Ba  Ba3  1  0.50000000  0.50000000  0.81343200  1
  Yb  Yb0  1  0.50000000  0.50000000  0.50000000  1
  Pr  Pr0  1  0.00000000  0.00000000  0.50000000  1
  Cu  Cu0  1  0.00000000  0.50000000  0.35260000  1
  Cu  Cu1  1  0.50000000  0.00000000  0.35260000  1
  Cu  Cu2  1  0.00000000  0.50000000  0.64740000  1
  Cu  Cu3  1  0.50000000  0.00000000  0.64740000  1
  Cu  Cu4  1  0.00000000  0.50000000  0.00000000  1
  Cu  Cu5  1  0.50000000  0.00000000  0.00000000  1
  O  O0  1  0.74866100  0.74866100  0.36934300  1
  O  O1  1  0.25133900  0.25133900  0.36934300  1
  O  O2  1  0.74866100  0.74866100  0.63065700  1
  O  O3  1  0.25133900  0.25133900  0.63065700  1
  O  O4  1  0.75076500  0.75076500  0.00000000  1
  O  O5  1  0.24923500  0.24923500  0.00000000  1
  O  O6  1  0.00000000  0.50000000  0.15663800  1
  O  O7  1  0.50000000  0.00000000  0.15663800  1
  O  O8  1  0.00000000  0.50000000  0.84336200  1
  O  O9  1  0.50000000  0.00000000  0.84336200  1
  O  O10  1  0.25306200  0.74693800  0.37430100  1
  O  O11  1  0.74693800  0.25306200  0.37430100  1
  O  O12  1  0.25306200  0.74693800  0.62569900  1
  O  O13  1  0.74693800  0.25306200  0.62569900  1
loop_
_geom_bond_atom_site_label_1
_geom_bond_atom_site_label_2
_geom_bond_distance
_geom_bond_site_symmetry_2
Ba0 O7 2.765760 1_455
Ba0 O6 2.765760 1_545
Ba0 O6 2.765760 1_555
Ba0 O7 2.765760 1_555
Ba0 O4 2.895107 1_445
Ba0 O5 2.895107 1_555
Ba0 O0 2.944645 1_445
Ba0 O1 2.944645 1_555
Ba0 O10 3.026077 1_545
Ba0 O11 3.026077 1_455
Ba1 O6 2.771559 1_655
Ba1 O6 2.771559 1_555
Ba1 O7 2.771559 1_555
Ba1 O7 2.771559 1_565
Ba1 O0 2.894660 1_555
Ba1 O1 2.894660 1_555
Ba1 O4 2.939263 1_555
Ba1 O5 2.939263 1_555
Ba1 O10 2.957973 1_555
Ba1 O11 2.957973 1_555
Ba2 O8 2.765760 1_555
Ba2 O9 2.765760 1_555
Ba2 O9 2.765760 1_455
Ba2 O8 2.765760 1_545
Ba2 O5 2.895107 1_556
Ba2 O4 2.895107 1_446
Ba2 O3 2.944645 1_555
Ba2 O2 2.944645 1_445
Ba2 O12 3.026077 1_545
Ba2 O13 3.026077 1_455
Ba3 O8 2.771559 1_655
Ba3 O9 2.771559 1_555
Ba3 O9 2.771559 1_565
Ba3 O8 2.771559 1_555
Ba3 O3 2.894660 1_555
Ba3 O2 2.894660 1_555
Ba3 O4 2.939263 1_556
Ba3 O5 2.939263 1_556
Ba3 O12 2.957973 1_555
Ba3 O13 2.957973 1_555
Cu0 O11 1.939576 1_455
Cu0 O10 1.939576 1_555
Cu0 O1 1.974798 1_555
Cu0 O0 1.974798 1_455
Cu0 O6 2.330228 1_555
Cu1 O11 1.939576 1_555
Cu1 O10 1.939576 1_545
Cu1 O1 1.974798 1_555
Cu1 O0 1.974798 1_545
Cu1 O7 2.330228 1_555
Cu2 O13 1.939576 1_455
Cu2 O12 1.939576 1_555
Cu2 O2 1.974798 1_455
Cu2 O3 1.974798 1_555
Cu2 O8 2.330228 1_555
Cu3 O13 1.939576 1_555
Cu3 O12 1.939576 1_545
Cu3 O3 1.974798 1_555
Cu3 O2 1.974798 1_545
Cu3 O9 2.330228 1_555
Cu4 O6 1.862617 1_555
Cu4 O8 1.862617 1_554
Cu4 O4 1.964718 1_455
Cu4 O5 1.964718 1_555
Cu5 O7 1.862617 1_555
Cu5 O9 1.862617 1_554
Cu5 O4 1.964718 1_545
Cu5 O5 1.964718 1_555
O0 Yb0 2.463576 1_555
O0 Pr0 2.479590 1_665
O1 Yb0 2.463576 1_555
O1 Pr0 2.479590 1_555
O2 Yb0 2.463576 1_555
O2 Pr0 2.479590 1_665
O3 Yb0 2.463576 1_555
O3 Pr0 2.479590 1_555
O10 Yb0 2.449546 1_555
O10 Pr0 2.487849 1_565
O11 Yb0 2.449546 1_555
O11 Pr0 2.487849 1_655
O12 Yb0 2.449546 1_555
O12 Pr0 2.487849 1_565
O13 Yb0 2.449546 1_555
O13 Pr0 2.487849 1_655
