# generated using pymatgen
data_BaMg14Co
_symmetry_space_group_name_H-M   'P 1'
_cell_length_a   6.48116477
_cell_length_b   6.48116422
_cell_length_c   10.43449066
_cell_angle_alpha   90.00000000
_cell_angle_beta   90.00000000
_cell_angle_gamma   120.00000273
_symmetry_Int_Tables_number   1
_chemical_formula_structural   BaMg14Co
_chemical_formula_sum   'Ba1 Mg14 Co1'
_cell_volume   379.58405686
_cell_formula_units_Z   1
loop_
 _symmetry_equiv_pos_site_id
 _symmetry_equiv_pos_as_xyz
  1  'x, y, z'
loop_
 _atom_site_type_symbol
 _atom_site_label
 _atom_site_symmetry_multiplicity
 _atom_site_fract_x
 _atom_site_fract_y
 _atom_site_fract_z
 _atom_site_occupancy
  Ba  Ba0  1  0.16666700  0.33333300  0.62500000  1
  Mg  Mg0  1  0.15107849  0.82553874  0.12500000  1
  Mg  Mg1  1  0.17980644  0.83990272  0.62500000  1
  Mg  Mg2  1  0.67446126  0.34892151  0.12500000  1
  Mg  Mg3  1  0.66009728  0.32019356  0.62500000  1
  Mg  Mg4  1  0.67446126  0.82553874  0.12500000  1
  Mg  Mg5  1  0.66009728  0.83990272  0.62500000  1
  Mg  Mg6  1  0.32756501  0.17243499  0.34191591  1
  Mg  Mg7  1  0.32756501  0.17243499  0.90808409  1
  Mg  Mg8  1  0.32756501  0.65513103  0.34191591  1
  Mg  Mg9  1  0.32756501  0.65513103  0.90808409  1
  Mg  Mg10  1  0.84486897  0.17243499  0.34191591  1
  Mg  Mg11  1  0.84486897  0.17243499  0.90808409  1
  Mg  Mg12  1  0.83333300  0.66666700  0.38773780  1
  Mg  Mg13  1  0.83333300  0.66666700  0.86226220  1
  Co  Co0  1  0.16666700  0.33333300  0.12500000  1
loop_
_geom_bond_atom_site_label_1
_geom_bond_atom_site_label_2
_geom_bond_distance
_geom_bond_site_symmetry_2
Ba0 Mg1 3.241421 1_555
Ba0 Mg5 3.241421 1_555
Ba0 Mg1 3.241421 1_545
Ba0 Mg5 3.241421 1_445
Ba0 Mg3 3.241421 1_555
Ba0 Mg3 3.241421 1_455
Ba0 Mg6 3.462296 1_555
Ba0 Mg7 3.462296 1_555
Ba0 Mg8 3.462302 1_555
Ba0 Mg9 3.462302 1_555
Ba0 Mg10 3.462302 1_455
Ba0 Mg11 3.462302 1_455
Mg0 Mg9 2.985710 1_554
Mg0 Mg8 2.985710 1_555
Mg0 Mg7 2.985718 1_564
Mg0 Mg6 2.985718 1_565
Mg0 Mg2 3.089035 1_455
Mg0 Mg4 3.089035 1_455
Mg0 Mg13 3.270587 1_454
Mg0 Mg12 3.270587 1_455
Mg0 Mg2 3.392130 1_565
Mg0 Mg4 3.392130 1_555
Mg1 Mg12 3.148177 1_455
Mg1 Mg13 3.148177 1_455
Mg2 Mg7 2.985718 1_554
Mg2 Mg6 2.985718 1_555
Mg2 Mg4 3.089035 1_555
Mg2 Mg4 3.392130 1_545
Mg4 Mg9 2.985718 1_554
Mg4 Mg8 2.985718 1_555
Mg10 Mg2 2.985710 1_555
Mg10 Mg4 2.985718 1_545
Mg10 Mg12 3.276305 1_555
Mg10 Mg12 3.276305 1_545
Mg11 Mg2 2.985710 1_556
Mg11 Mg4 2.985718 1_546
Mg11 Mg13 3.276305 1_555
Mg11 Mg13 3.276305 1_545
Mg12 Mg5 3.148170 1_555
Mg12 Mg3 3.148177 1_555
Mg12 Mg4 3.270581 1_555
Mg12 Mg2 3.270587 1_555
Mg12 Mg6 3.276305 1_665
Mg12 Mg6 3.276305 1_555
Mg12 Mg8 3.276305 1_655
Mg12 Mg8 3.276305 1_555
Mg13 Mg5 3.148170 1_555
Mg13 Mg3 3.148177 1_555
Mg13 Mg4 3.270581 1_556
Mg13 Mg2 3.270587 1_556
Mg13 Mg7 3.276305 1_665
Mg13 Mg7 3.276305 1_555
Mg13 Mg9 3.276305 1_655
Mg13 Mg9 3.276305 1_555
Co0 Mg7 2.895746 1_554
Co0 Mg6 2.895746 1_555
Co0 Mg8 2.895753 1_555
Co0 Mg9 2.895753 1_554
Co0 Mg10 2.895753 1_455
Co0 Mg11 2.895753 1_454
Co0 Mg0 3.241763 1_555
Co0 Mg4 3.241763 1_445
Co0 Mg4 3.241763 1_555
Co0 Mg0 3.241763 1_545
Co0 Mg2 3.241763 1_455
Co0 Mg2 3.241763 1_555
