# generated using pymatgen
data_K2SbF5
_symmetry_space_group_name_H-M   'P 1'
_cell_length_a   6.47825350
_cell_length_b   7.48832817
_cell_length_c   12.54758854
_cell_angle_alpha   64.31836856
_cell_angle_beta   90.00000000
_cell_angle_gamma   90.00000000
_symmetry_Int_Tables_number   1
_chemical_formula_structural   K2SbF5
_chemical_formula_sum   'K8 Sb4 F20'
_cell_volume   548.56989581
_cell_formula_units_Z   4
loop_
 _symmetry_equiv_pos_site_id
 _symmetry_equiv_pos_as_xyz
  1  'x, y, z'
loop_
 _atom_site_type_symbol
 _atom_site_label
 _atom_site_symmetry_multiplicity
 _atom_site_fract_x
 _atom_site_fract_y
 _atom_site_fract_z
 _atom_site_occupancy
  K  K0  1  0.74574562  0.15010846  0.45604004  1
  K  K1  1  0.24574562  0.84989154  0.04395996  1
  K  K2  1  0.25425438  0.84989154  0.54395996  1
  K  K3  1  0.75425438  0.15010846  0.95604004  1
  K  K4  1  0.26399072  0.49639925  0.38008451  1
  K  K5  1  0.76399072  0.50360075  0.11991549  1
  K  K6  1  0.73600928  0.50360075  0.61991549  1
  K  K7  1  0.23600928  0.49639925  0.88008451  1
  Sb  Sb0  1  0.22853676  0.17617742  0.70408711  1
  Sb  Sb1  1  0.72853676  0.82382258  0.79591289  1
  Sb  Sb2  1  0.77146324  0.82382258  0.29591289  1
  Sb  Sb3  1  0.27146324  0.17617742  0.20408711  1
  F  F0  1  0.29982701  0.45766738  0.61028824  1
  F  F1  1  0.79982701  0.54233262  0.88971176  1
  F  F2  1  0.70017299  0.54233262  0.38971176  1
  F  F3  1  0.20017299  0.45766738  0.11028824  1
  F  F4  1  0.42227850  0.16707222  0.57009555  1
  F  F5  1  0.92227850  0.83292778  0.92990445  1
  F  F6  1  0.57772150  0.83292778  0.42990445  1
  F  F7  1  0.07772150  0.16707222  0.07009555  1
  F  F8  1  0.00708356  0.25569350  0.57373228  1
  F  F9  1  0.50708356  0.74430650  0.92626772  1
  F  F10  1  0.99291644  0.74430650  0.42626772  1
  F  F11  1  0.49291644  0.25569350  0.07373228  1
  F  F12  1  0.45371453  0.22501045  0.80980272  1
  F  F13  1  0.95371453  0.77498955  0.69019728  1
  F  F14  1  0.54628547  0.77498955  0.19019728  1
  F  F15  1  0.04628547  0.22501045  0.30980272  1
  F  F16  1  0.02528445  0.29803866  0.78033178  1
  F  F17  1  0.52528445  0.70196134  0.71966822  1
  F  F18  1  0.97471555  0.70196134  0.21966822  1
  F  F19  1  0.47471555  0.29803866  0.28033178  1
loop_
_geom_bond_atom_site_label_1
_geom_bond_atom_site_label_2
_geom_bond_distance
_geom_bond_site_symmetry_2
F0 Sb0 1.972669 1_555
F0 K2 2.699575 1_555
F0 K4 2.784839 1_555
F0 K6 2.855432 1_555
F1 Sb1 1.972669 1_555
F1 K3 2.699575 1_555
F1 K5 2.784839 1_556
F1 K7 2.855432 1_655
F2 Sb2 1.972669 1_555
F2 K0 2.699575 1_555
F2 K6 2.784839 1_555
F2 K4 2.855432 1_555
F3 Sb3 1.972669 1_555
F3 K1 2.699575 1_555
F3 K7 2.784839 1_554
F3 K5 2.855432 1_455
F4 Sb0 2.122728 1_555
F4 K0 2.571565 1_555
F4 K2 2.758413 1_545
F4 K4 2.778738 1_555
F5 Sb1 2.122728 1_555
F5 K1 2.571565 1_656
F5 K3 2.758413 1_565
F5 K5 2.778738 1_556
F6 Sb2 2.122728 1_555
F6 K2 2.571565 1_555
F6 K0 2.758413 1_565
F6 K6 2.778738 1_555
F7 Sb3 2.122728 1_555
F7 K3 2.571565 1_454
F7 K1 2.758413 1_545
F7 K7 2.778738 1_554
F8 Sb0 2.060069 1_555
F8 K0 2.585390 1_455
F8 K6 2.792548 1_455
F8 K4 2.850755 1_555
F9 Sb1 2.060069 1_555
F9 K1 2.585390 1_556
F9 K7 2.792548 1_555
F9 K5 2.850755 1_556
F10 Sb2 2.060069 1_555
F10 K2 2.585390 1_655
F10 K4 2.792548 1_655
F10 K6 2.850755 1_555
F11 Sb3 2.060069 1_555
F11 K3 2.585390 1_554
F11 K5 2.792548 1_555
F11 K7 2.850755 1_554
F12 Sb0 2.107524 1_555
F12 K3 2.565193 1_555
F12 K7 2.906916 1_555
F12 K6 3.010858 1_555
F13 Sb1 2.107524 1_555
F13 K2 2.565193 1_655
F13 K6 2.906916 1_555
F13 K7 3.010858 1_655
F14 Sb2 2.107524 1_555
F14 K1 2.565193 1_555
F14 K5 2.906916 1_555
F14 K4 3.010858 1_555
F15 Sb3 2.107524 1_555
F15 K0 2.565193 1_455
F15 K4 2.906916 1_555
F15 K5 3.010858 1_455
F16 Sb0 2.058737 1_555
F16 K3 2.655918 1_455
F16 K6 2.692095 1_455
F16 K7 2.692219 1_555
F17 Sb1 2.058737 1_555
F17 K2 2.655918 1_555
F17 K7 2.692095 1_555
F17 K6 2.692219 1_555
F18 Sb2 2.058737 1_555
F18 K1 2.655918 1_655
F18 K4 2.692095 1_655
F18 K5 2.692219 1_555
F19 Sb3 2.058737 1_555
F19 K0 2.655918 1_555
F19 K5 2.692095 1_555
F19 K4 2.692219 1_555
