# generated using pymatgen
data_CoBi2SO7
_symmetry_space_group_name_H-M   'P 1'
_cell_length_a   5.41908093
_cell_length_b   14.25504431
_cell_length_c   15.74685577
_cell_angle_alpha   90.00000000
_cell_angle_beta   90.00000000
_cell_angle_gamma   90.00000000
_symmetry_Int_Tables_number   1
_chemical_formula_structural   CoBi2SO7
_chemical_formula_sum   'Co8 Bi16 S8 O56'
_cell_volume   1216.43262136
_cell_formula_units_Z   8
loop_
 _symmetry_equiv_pos_site_id
 _symmetry_equiv_pos_as_xyz
  1  'x, y, z'
loop_
 _atom_site_type_symbol
 _atom_site_label
 _atom_site_symmetry_multiplicity
 _atom_site_fract_x
 _atom_site_fract_y
 _atom_site_fract_z
 _atom_site_occupancy
  Co  Co0  1  0.72805198  0.01434638  0.32555722  1
  Co  Co1  1  0.22805198  0.48565362  0.67444278  1
  Co  Co2  1  0.27194802  0.51434638  0.17444278  1
  Co  Co3  1  0.77194802  0.98565362  0.82555722  1
  Co  Co4  1  0.27194802  0.98565362  0.67444278  1
  Co  Co5  1  0.77194802  0.51434638  0.32555722  1
  Co  Co6  1  0.72805198  0.48565362  0.82555722  1
  Co  Co7  1  0.22805198  0.01434638  0.17444278  1
  Bi  Bi0  1  0.72224225  0.87935507  0.15609311  1
  Bi  Bi1  1  0.22224225  0.62064493  0.84390689  1
  Bi  Bi2  1  0.27775775  0.37935507  0.34390689  1
  Bi  Bi3  1  0.77775775  0.12064493  0.65609311  1
  Bi  Bi4  1  0.27775775  0.12064493  0.84390689  1
  Bi  Bi5  1  0.77775775  0.37935507  0.15609311  1
  Bi  Bi6  1  0.72224225  0.62064493  0.65609311  1
  Bi  Bi7  1  0.22224225  0.87935507  0.34390689  1
  Bi  Bi8  1  0.75320716  0.08481087  0.01893220  1
  Bi  Bi9  1  0.25320716  0.41518913  0.98106780  1
  Bi  Bi10  1  0.24679284  0.58481087  0.48106780  1
  Bi  Bi11  1  0.74679284  0.91518913  0.51893220  1
  Bi  Bi12  1  0.24679284  0.91518913  0.98106780  1
  Bi  Bi13  1  0.74679284  0.58481087  0.01893220  1
  Bi  Bi14  1  0.75320716  0.41518913  0.51893220  1
  Bi  Bi15  1  0.25320716  0.08481087  0.48106780  1
  S  S0  1  0.80040053  0.20653370  0.39084963  1
  S  S1  1  0.30040053  0.29346630  0.60915037  1
  S  S2  1  0.19959947  0.70653370  0.10915037  1
  S  S3  1  0.69959947  0.79346630  0.89084963  1
  S  S4  1  0.19959947  0.79346630  0.60915037  1
  S  S5  1  0.69959947  0.70653370  0.39084963  1
  S  S6  1  0.80040053  0.29346630  0.89084963  1
  S  S7  1  0.30040053  0.20653370  0.10915037  1
  O  O0  1  0.47968405  0.98151546  0.08392274  1
  O  O1  1  0.97968405  0.51848454  0.91607726  1
  O  O2  1  0.52031595  0.48151546  0.41607726  1
  O  O3  1  0.02031595  0.01848454  0.58392274  1
  O  O4  1  0.52031595  0.01848454  0.91607726  1
  O  O5  1  0.02031595  0.48151546  0.08392274  1
  O  O6  1  0.47968405  0.51848454  0.58392274  1
  O  O7  1  0.97968405  0.98151546  0.41607726  1
  O  O8  1  0.96972676  0.97021745  0.07950959  1
  O  O9  1  0.46972676  0.52978255  0.92049041  1
  O  O10  1  0.03027324  0.47021745  0.42049041  1
  O  O11  1  0.53027324  0.02978255  0.57950959  1
  O  O12  1  0.03027324  0.02978255  0.92049041  1
  O  O13  1  0.53027324  0.47021745  0.07950959  1
  O  O14  1  0.96972676  0.52978255  0.57950959  1
  O  O15  1  0.46972676  0.97021745  0.42049041  1
  O  O16  1  0.97614044  0.95228852  0.24883239  1
  O  O17  1  0.47614044  0.54771148  0.75116761  1
  O  O18  1  0.02385956  0.45228852  0.25116761  1
  O  O19  1  0.52385956  0.04771148  0.74883239  1
  O  O20  1  0.02385956  0.04771148  0.75116761  1
  O  O21  1  0.52385956  0.45228852  0.24883239  1
  O  O22  1  0.97614044  0.54771148  0.74883239  1
  O  O23  1  0.47614044  0.95228852  0.25116761  1
  O  O24  1  0.73720270  0.30542438  0.37254397  1
  O  O25  1  0.23720270  0.19457562  0.62745603  1
  O  O26  1  0.26279730  0.80542438  0.12745603  1
  O  O27  1  0.76279730  0.69457562  0.87254397  1
  O  O28  1  0.26279730  0.69457562  0.62745603  1
  O  O29  1  0.76279730  0.80542438  0.37254397  1
  O  O30  1  0.73720270  0.19457562  0.87254397  1
  O  O31  1  0.23720270  0.30542438  0.12745603  1
  O  O32  1  0.80991397  0.19136552  0.48355126  1
  O  O33  1  0.30991397  0.30863448  0.51644874  1
  O  O34  1  0.19008603  0.69136552  0.01644874  1
  O  O35  1  0.69008603  0.80863448  0.98355126  1
  O  O36  1  0.19008603  0.80863448  0.51644874  1
  O  O37  1  0.69008603  0.69136552  0.48355126  1
  O  O38  1  0.80991397  0.30863448  0.98355126  1
  O  O39  1  0.30991397  0.19136552  0.01644874  1
  O  O40  1  0.60530051  0.14494825  0.35408485  1
  O  O41  1  0.10530051  0.35505175  0.64591515  1
  O  O42  1  0.39469949  0.64494825  0.14591515  1
  O  O43  1  0.89469949  0.85505175  0.85408485  1
  O  O44  1  0.39469949  0.85505175  0.64591515  1
  O  O45  1  0.89469949  0.64494825  0.35408485  1
  O  O46  1  0.60530051  0.35505175  0.85408485  1
  O  O47  1  0.10530051  0.14494825  0.14591515  1
  O  O48  1  0.03925905  0.18376390  0.35229522  1
  O  O49  1  0.53925905  0.31623610  0.64770478  1
  O  O50  1  0.96074095  0.68376390  0.14770478  1
  O  O51  1  0.46074095  0.81623610  0.85229522  1
  O  O52  1  0.96074095  0.81623610  0.64770478  1
  O  O53  1  0.46074095  0.68376390  0.35229522  1
  O  O54  1  0.03925905  0.31623610  0.85229522  1
  O  O55  1  0.53925905  0.18376390  0.14770478  1
loop_
_geom_bond_atom_site_label_1
_geom_bond_atom_site_label_2
_geom_bond_distance
_geom_bond_site_symmetry_2
Co0 O23 2.004581 1_545
Co0 O16 2.012390 1_545
Co0 O7 2.027377 1_545
Co0 O40 2.027400 1_555
Co0 O15 2.142456 1_545
Co1 O22 2.004581 1_455
Co1 O17 2.012390 1_555
Co1 O6 2.027377 1_555
Co1 O41 2.027400 1_555
Co1 O14 2.142456 1_455
Co2 O21 2.004581 1_555
Co2 O18 2.012390 1_555
Co2 O5 2.027377 1_555
Co2 O42 2.027400 1_555
Co2 O13 2.142456 1_555
Co3 O20 2.004581 1_665
Co3 O19 2.012390 1_565
Co3 O4 2.027377 1_565
Co3 O43 2.027400 1_555
Co3 O12 2.142456 1_665
Co4 O19 2.004581 1_565
Co4 O20 2.012390 1_565
Co4 O3 2.027377 1_565
Co4 O44 2.027400 1_555
Co4 O11 2.142456 1_565
Co5 O18 2.004581 1_655
Co5 O21 2.012390 1_555
Co5 O2 2.027377 1_555
Co5 O45 2.027400 1_555
Co5 O10 2.142456 1_655
Co6 O17 2.004581 1_555
Co6 O22 2.012390 1_555
Co6 O1 2.027377 1_555
Co6 O46 2.027400 1_555
Co6 O9 2.142456 1_555
Co7 O16 2.004581 1_445
Co7 O23 2.012390 1_545
Co7 O0 2.027377 1_545
Co7 O47 2.027400 1_555
Co7 O8 2.142456 1_445
Bi0 O8 2.220503 1_555
Bi0 O23 2.258518 1_555
Bi0 O16 2.259785 1_555
Bi0 O0 2.267180 1_555
Bi1 O9 2.220503 1_555
Bi1 O22 2.258518 1_455
Bi1 O17 2.259785 1_555
Bi1 O1 2.267180 1_455
Bi2 O10 2.220503 1_555
Bi2 O21 2.258518 1_555
Bi2 O18 2.259785 1_555
Bi2 O2 2.267180 1_555
Bi3 O11 2.220503 1_555
Bi3 O20 2.258518 1_655
Bi3 O19 2.259785 1_555
Bi3 O3 2.267180 1_655
Bi4 O12 2.220503 1_555
Bi4 O19 2.258518 1_555
Bi4 O20 2.259785 1_555
Bi4 O4 2.267180 1_555
Bi5 O13 2.220503 1_555
Bi5 O18 2.258518 1_655
Bi5 O21 2.259785 1_555
Bi5 O5 2.267180 1_655
Bi6 O14 2.220503 1_555
Bi6 O17 2.258518 1_555
Bi6 O22 2.259785 1_555
Bi6 O6 2.267180 1_555
Bi7 O15 2.220503 1_555
Bi7 O16 2.258518 1_455
Bi7 O23 2.259785 1_555
Bi7 O7 2.267180 1_455
Bi8 O8 2.226002 1_545
Bi8 O4 2.260524 1_554
Bi8 O12 2.296220 1_654
Bi8 O0 2.326497 1_545
Bi9 O9 2.226002 1_555
Bi9 O5 2.260524 1_556
Bi9 O13 2.296220 1_556
Bi9 O1 2.326497 1_455
Bi10 O10 2.226002 1_555
Bi10 O6 2.260524 1_555
Bi10 O14 2.296220 1_455
Bi10 O2 2.326497 1_555
Bi11 O11 2.226002 1_565
Bi11 O7 2.260524 1_555
Bi11 O15 2.296220 1_555
Bi11 O3 2.326497 1_665
Bi12 O12 2.226002 1_565
Bi12 O0 2.260524 1_556
Bi12 O8 2.296220 1_456
Bi12 O4 2.326497 1_565
Bi13 O13 2.226002 1_555
Bi13 O1 2.260524 1_554
Bi13 O9 2.296220 1_554
Bi13 O5 2.326497 1_655
Bi14 O14 2.226002 1_555
Bi14 O2 2.260524 1_555
Bi14 O10 2.296220 1_655
Bi14 O6 2.326497 1_555
Bi15 O15 2.226002 1_545
Bi15 O3 2.260524 1_555
Bi15 O11 2.296220 1_555
Bi15 O7 2.326497 1_445
O24 S0 1.479057 1_555
O25 S1 1.479057 1_555
O26 S2 1.479057 1_555
O27 S3 1.479057 1_555
O28 S4 1.479057 1_555
O29 S5 1.479057 1_555
O30 S6 1.479057 1_555
O31 S7 1.479057 1_555
O32 S0 1.476586 1_555
O33 S1 1.476586 1_555
O34 S2 1.476586 1_555
O35 S3 1.476586 1_555
O36 S4 1.476586 1_555
O37 S5 1.476586 1_555
O38 S6 1.476586 1_555
O39 S7 1.476586 1_555
O40 S0 1.491200 1_555
O41 S1 1.491200 1_555
O42 S2 1.491200 1_555
O43 S3 1.491200 1_555
O44 S4 1.491200 1_555
O45 S5 1.491200 1_555
O46 S6 1.491200 1_555
O47 S7 1.491200 1_555
O48 S0 1.466081 1_455
O49 S1 1.466081 1_555
O50 S2 1.466081 1_655
O51 S3 1.466081 1_555
O52 S4 1.466081 1_655
O53 S5 1.466081 1_555
O54 S6 1.466081 1_455
O55 S7 1.466081 1_555
