# generated using pymatgen
data_Sm4CdPd
_symmetry_space_group_name_H-M   'P 1'
_cell_length_a   9.86375610
_cell_length_b   9.86372966
_cell_length_c   9.86375553
_cell_angle_alpha   59.99987652
_cell_angle_beta   59.99997206
_cell_angle_gamma   59.99990849
_symmetry_Int_Tables_number   1
_chemical_formula_structural   Sm4CdPd
_chemical_formula_sum   'Sm16 Cd4 Pd4'
_cell_volume   678.59396116
_cell_formula_units_Z   4
loop_
 _symmetry_equiv_pos_site_id
 _symmetry_equiv_pos_as_xyz
  1  'x, y, z'
loop_
 _atom_site_type_symbol
 _atom_site_label
 _atom_site_symmetry_multiplicity
 _atom_site_fract_x
 _atom_site_fract_y
 _atom_site_fract_z
 _atom_site_occupancy
  Sm  Sm0  1  0.35227777  0.35227595  0.35227880  1
  Sm  Sm1  1  0.35228812  0.35228594  0.94315277  1
  Sm  Sm2  1  0.35228667  0.94315504  0.35228731  1
  Sm  Sm3  1  0.94315300  0.35228605  0.35228869  1
  Sm  Sm4  1  0.80875319  0.19122577  0.19122711  1
  Sm  Sm5  1  0.19122986  0.80877783  0.80877159  1
  Sm  Sm6  1  0.19122758  0.80875469  0.19122663  1
  Sm  Sm7  1  0.80877561  0.19122813  0.80877414  1
  Sm  Sm8  1  0.19122757  0.19122536  0.80875256  1
  Sm  Sm9  1  0.80877193  0.80877667  0.19123029  1
  Sm  Sm10  1  0.93497664  0.56502427  0.56502879  1
  Sm  Sm11  1  0.56504163  0.93496684  0.93497008  1
  Sm  Sm12  1  0.56502609  0.93497563  0.56502683  1
  Sm  Sm13  1  0.93496858  0.56503955  0.93496895  1
  Sm  Sm14  1  0.56502880  0.56502489  0.93497633  1
  Sm  Sm15  1  0.93497023  0.93496771  0.56504107  1
  Cd  Cd0  1  0.58056918  0.58056523  0.58056945  1
  Cd  Cd1  1  0.58057751  0.58056912  0.25830651  1
  Cd  Cd2  1  0.58057092  0.25831474  0.58056968  1
  Cd  Cd3  1  0.25830658  0.58057021  0.58057500  1
  Pd  Pd0  1  0.14400537  0.14401118  0.14400598  1
  Pd  Pd1  1  0.14399677  0.14400336  0.56797391  1
  Pd  Pd2  1  0.14399797  0.56797420  0.14399905  1
  Pd  Pd3  1  0.56797241  0.14400266  0.14399748  1
loop_
_geom_bond_atom_site_label_1
_geom_bond_atom_site_label_2
_geom_bond_distance
_geom_bond_site_symmetry_2
Sm0 Sm12 3.588620 1_545
Sm0 Sm10 3.588640 1_455
Sm0 Sm14 3.588651 1_554
Sm1 Sm14 3.588596 1_555
Sm1 Sm11 3.588742 1_545
Sm1 Sm13 3.588758 1_455
Sm10 Sm3 3.588586 1_555
Sm10 Sm13 3.649035 1_555
Sm10 Sm15 3.649051 1_555
Sm10 Sm14 3.649072 1_555
Sm10 Sm12 3.649096 1_555
Sm10 Sm8 3.695357 1_655
Sm10 Sm6 3.695404 1_655
Sm10 Sm7 3.695457 1_555
Sm10 Sm9 3.695500 1_555
Sm11 Sm2 3.588754 1_556
Sm11 Sm13 3.648861 1_555
Sm11 Sm15 3.648886 1_555
Sm11 Sm14 3.649040 1_555
Sm11 Sm12 3.649063 1_555
Sm11 Sm9 3.695450 1_556
Sm11 Sm7 3.695465 1_565
Sm11 Sm6 3.695666 1_556
Sm11 Sm8 3.695690 1_565
Sm12 Sm2 3.588578 1_555
Sm12 Sm15 3.649070 1_555
Sm12 Sm14 3.649086 1_555
Sm12 Sm8 3.695365 1_565
Sm12 Sm4 3.695375 1_565
Sm12 Sm5 3.695450 1_555
Sm12 Sm9 3.695459 1_555
Sm13 Sm3 3.588760 1_556
Sm13 Sm15 3.648868 1_555
Sm13 Sm14 3.649032 1_555
Sm13 Sm9 3.695491 1_556
Sm13 Sm5 3.695496 1_655
Sm13 Sm4 3.695671 1_556
Sm13 Sm8 3.695681 1_655
Sm14 Sm4 3.695360 1_556
Sm14 Sm6 3.695397 1_556
Sm14 Sm7 3.695469 1_555
Sm14 Sm5 3.695504 1_555
Sm15 Sm3 3.588734 1_565
Sm15 Sm2 3.588744 1_655
Sm15 Sm5 3.695448 1_655
Sm15 Sm7 3.695456 1_565
Sm15 Sm6 3.695674 1_655
Sm15 Sm4 3.695686 1_565
Cd0 Cd2 3.178582 1_555
Cd0 Cd1 3.178663 1_555
Cd0 Cd3 3.178668 1_555
Cd0 Sm14 3.349519 1_555
Cd0 Sm10 3.349521 1_555
Cd0 Sm12 3.349521 1_555
Cd0 Sm1 3.448939 1_555
Cd0 Sm3 3.448941 1_555
Cd0 Sm2 3.448979 1_555
Cd0 Sm7 3.558042 1_555
Cd0 Sm9 3.558070 1_555
Cd0 Sm5 3.558074 1_555
Cd1 Cd2 3.178672 1_555
Cd1 Cd3 3.178788 1_555
Cd1 Sm13 3.349484 1_554
Cd1 Sm11 3.349504 1_554
Cd1 Sm14 3.349624 1_554
Cd1 Sm3 3.448900 1_555
Cd1 Sm2 3.448974 1_555
Cd1 Sm0 3.449230 1_555
Cd1 Sm9 3.557963 1_555
Cd1 Sm4 3.558118 1_555
Cd1 Sm6 3.558182 1_555
Cd2 Cd3 3.178684 1_555
Cd2 Sm15 3.349563 1_545
Cd2 Sm11 3.349571 1_545
Cd2 Sm12 3.349676 1_545
Cd2 Sm3 3.448907 1_555
Cd2 Sm1 3.448916 1_555
Cd2 Sm0 3.449202 1_555
Cd2 Sm7 3.557982 1_555
Cd2 Sm4 3.558160 1_555
Cd2 Sm8 3.558167 1_555
Cd3 Sm13 3.349501 1_455
Cd3 Sm15 3.349504 1_455
Cd3 Sm10 3.349618 1_455
Cd3 Sm1 3.448915 1_555
Cd3 Sm2 3.448960 1_555
Cd3 Sm0 3.449215 1_555
Cd3 Sm5 3.557981 1_555
Cd3 Sm8 3.558127 1_555
Cd3 Sm6 3.558165 1_555
Pd0 Sm1 2.906294 1_554
Pd0 Sm3 2.906296 1_455
Pd0 Sm2 2.906330 1_545
Pd0 Sm4 2.916451 1_455
Pd0 Sm6 2.916459 1_545
Pd0 Sm8 2.916460 1_554
Pd0 Sm13 3.588187 1_454
Pd0 Sm15 3.588248 1_445
Pd0 Sm11 3.588261 1_544
Pd1 Sm3 2.906094 1_455
Pd1 Sm2 2.906136 1_545
Pd1 Sm0 2.906264 1_555
Pd1 Sm8 2.916197 1_555
Pd1 Sm7 2.916200 1_455
Pd1 Sm5 2.916209 1_545
Pd1 Sm15 3.587974 1_445
Pd1 Sm10 3.588151 1_455
Pd1 Sm12 3.588227 1_545
Pd2 Sm3 2.906122 1_455
Pd2 Sm1 2.906133 1_554
Pd2 Sm0 2.906307 1_555
Pd2 Sm9 2.916234 1_455
Pd2 Sm6 2.916238 1_555
Pd2 Sm5 2.916245 1_554
Pd2 Sm13 3.587965 1_454
Pd2 Sm10 3.588225 1_455
Pd2 Sm14 3.588236 1_554
Pd3 Sm1 2.906094 1_554
Pd3 Sm2 2.906124 1_545
Pd3 Sm0 2.906273 1_555
Pd3 Sm4 2.916217 1_555
Pd3 Sm9 2.916219 1_545
Pd3 Sm7 2.916223 1_554
Pd3 Sm11 3.587971 1_544
Pd3 Sm14 3.588165 1_554
Pd3 Sm12 3.588228 1_545
