# generated using pymatgen
data_La2NbNiO6
_symmetry_space_group_name_H-M   'P 1'
_cell_length_a   5.69930500
_cell_length_b   5.71293700
_cell_length_c   9.82860507
_cell_angle_alpha   54.54248658
_cell_angle_beta   90.00000000
_cell_angle_gamma   90.00000000
_symmetry_Int_Tables_number   1
_chemical_formula_structural   La2NbNiO6
_chemical_formula_sum   'La4 Nb2 Ni2 O12'
_cell_volume   260.66863793
_cell_formula_units_Z   2
loop_
 _symmetry_equiv_pos_site_id
 _symmetry_equiv_pos_as_xyz
  1  'x, y, z'
loop_
 _atom_site_type_symbol
 _atom_site_label
 _atom_site_symmetry_multiplicity
 _atom_site_fract_x
 _atom_site_fract_y
 _atom_site_fract_z
 _atom_site_occupancy
  La  La0  1  0.44368300  0.75979100  0.25005600  1
  La  La1  1  0.55631700  0.24020900  0.74994400  1
  La  La2  1  0.94368300  0.24020900  0.24994400  1
  La  La3  1  0.05631700  0.75979100  0.75005600  1
  Nb  Nb0  1  0.00000000  0.50000000  0.50000000  1
  Nb  Nb1  1  0.50000000  0.50000000  0.00000000  1
  Ni  Ni0  1  0.00000000  0.00000000  0.00000000  1
  Ni  Ni1  1  0.50000000  0.00000000  0.50000000  1
  O  O0  1  0.01469900  0.65456700  0.25131900  1
  O  O1  1  0.98530100  0.34543300  0.74868100  1
  O  O2  1  0.51469900  0.34543300  0.24868100  1
  O  O3  1  0.48530100  0.65456700  0.75131900  1
  O  O4  1  0.69728300  0.15866500  0.04382600  1
  O  O5  1  0.30271700  0.84133500  0.95617400  1
  O  O6  1  0.19728300  0.84133500  0.45617400  1
  O  O7  1  0.80271700  0.15866500  0.54382600  1
  O  O8  1  0.20794200  0.24033500  0.05543500  1
  O  O9  1  0.79205800  0.75966500  0.94456500  1
  O  O10  1  0.70794200  0.75966500  0.44456500  1
  O  O11  1  0.29205800  0.24033500  0.55543500  1
loop_
_geom_bond_atom_site_label_1
_geom_bond_atom_site_label_2
_geom_bond_distance
_geom_bond_site_symmetry_2
La0 O2 2.409306 1_555
La0 O10 2.433416 1_555
La0 O4 2.455887 1_565
La0 O0 2.516039 1_555
La0 O8 2.628360 1_565
La0 O6 2.718111 1_555
La0 O5 2.764863 1_554
La0 O11 2.868477 1_555
La1 O3 2.409306 1_555
La1 O11 2.433416 1_555
La1 O5 2.455887 1_545
La1 O1 2.516039 1_555
La1 O9 2.628360 1_545
La1 O7 2.718111 1_555
La1 O4 2.764863 1_556
La1 O10 2.868477 1_555
La2 O0 2.409306 1_655
La2 O8 2.433416 1_655
La2 O6 2.455887 1_645
La2 O2 2.516039 1_555
La2 O10 2.628360 1_545
La2 O4 2.718111 1_555
La2 O7 2.764863 1_555
La2 O9 2.868477 1_554
La3 O1 2.409306 1_455
La3 O9 2.433416 1_455
La3 O7 2.455887 1_465
La3 O3 2.516039 1_555
La3 O11 2.628360 1_565
La3 O5 2.718111 1_555
La3 O6 2.764863 1_555
La3 O8 2.868477 1_556
Nb0 O0 2.063193 1_555
Nb0 O1 2.063193 1_455
Nb0 O7 2.068292 1_455
Nb0 O6 2.068292 1_555
Nb0 O11 2.080961 1_555
Nb0 O10 2.080961 1_455
Nb1 O2 2.063193 1_555
Nb1 O3 2.063193 1_554
Nb1 O4 2.068292 1_555
Nb1 O5 2.068292 1_554
Nb1 O9 2.080961 1_554
Nb1 O8 2.080961 1_555
Ni0 O1 2.085047 1_454
Ni0 O0 2.085047 1_545
Ni0 O5 2.106362 1_544
Ni0 O4 2.106362 1_455
Ni0 O9 2.110567 1_444
Ni0 O8 2.110567 1_555
Ni1 O3 2.085047 1_545
Ni1 O2 2.085047 1_555
Ni1 O6 2.106362 1_545
Ni1 O7 2.106362 1_555
Ni1 O10 2.110567 1_545
Ni1 O11 2.110567 1_555
