# generated using pymatgen
data_ZnP4O11
_symmetry_space_group_name_H-M   'P 1'
_cell_length_a   22.28775363
_cell_length_b   5.30901113
_cell_length_c   7.40587787
_cell_angle_alpha   69.97136751
_cell_angle_beta   90.00000000
_cell_angle_gamma   90.00000000
_symmetry_Int_Tables_number   1
_chemical_formula_structural   ZnP4O11
_chemical_formula_sum   'Zn4 P16 O44'
_cell_volume   823.30971909
_cell_formula_units_Z   4
loop_
 _symmetry_equiv_pos_site_id
 _symmetry_equiv_pos_as_xyz
  1  'x, y, z'
loop_
 _atom_site_type_symbol
 _atom_site_label
 _atom_site_symmetry_multiplicity
 _atom_site_fract_x
 _atom_site_fract_y
 _atom_site_fract_z
 _atom_site_occupancy
  Zn  Zn0  1  0.88571459  0.00818191  0.13013255  1
  Zn  Zn1  1  0.38571459  0.99181809  0.36986745  1
  Zn  Zn2  1  0.11428541  0.99181809  0.86986745  1
  Zn  Zn3  1  0.61428541  0.00818191  0.63013255  1
  P  P0  1  0.17803610  0.31774165  0.44491564  1
  P  P1  1  0.67803610  0.68225835  0.05508436  1
  P  P2  1  0.82196390  0.68225835  0.55508436  1
  P  P3  1  0.32196390  0.31774165  0.94491564  1
  P  P4  1  0.07215270  0.69515611  0.31134903  1
  P  P5  1  0.57215270  0.30484389  0.18865097  1
  P  P6  1  0.92784730  0.30484389  0.68865097  1
  P  P7  1  0.42784730  0.69515611  0.81134903  1
  P  P8  1  0.19591607  0.38844300  0.03008373  1
  P  P9  1  0.69591607  0.61155700  0.46991627  1
  P  P10  1  0.80408393  0.61155700  0.96991627  1
  P  P11  1  0.30408393  0.38844300  0.53008373  1
  P  P12  1  0.96424487  0.40268383  0.29160671  1
  P  P13  1  0.46424487  0.59731617  0.20839329  1
  P  P14  1  0.03575513  0.59731617  0.70839329  1
  P  P15  1  0.53575513  0.40268383  0.79160671  1
  O  O0  1  0.33738090  0.64087161  0.47699098  1
  O  O1  1  0.83738090  0.35912839  0.02300902  1
  O  O2  1  0.66261910  0.35912839  0.52300902  1
  O  O3  1  0.16261910  0.64087161  0.97699098  1
  O  O4  1  0.54487371  0.21881295  0.68508246  1
  O  O5  1  0.04487371  0.78118705  0.81491754  1
  O  O6  1  0.45512629  0.78118705  0.31491754  1
  O  O7  1  0.95512629  0.21881295  0.18508246  1
  O  O8  1  0.56665328  0.66060259  0.75092861  1
  O  O9  1  0.06665328  0.33939741  0.74907139  1
  O  O10  1  0.43334672  0.33939741  0.24907139  1
  O  O11  1  0.93334672  0.66060259  0.25092861  1
  O  O12  1  0.31565126  0.17831657  0.44688383  1
  O  O13  1  0.81565126  0.82168343  0.05311617  1
  O  O14  1  0.68434874  0.82168343  0.55311617  1
  O  O15  1  0.18434874  0.17831657  0.94688383  1
  O  O16  1  0.30609335  0.25010166  0.76217241  1
  O  O17  1  0.95428806  0.23111131  0.51865412  1
  O  O18  1  0.54571194  0.23111131  0.01865412  1
  O  O19  1  0.04571194  0.76888869  0.48134588  1
  O  O20  1  0.46378229  0.45044771  0.79502434  1
  O  O21  1  0.96378229  0.54955229  0.70497566  1
  O  O22  1  0.53621771  0.54955229  0.20497566  1
  O  O23  1  0.03621771  0.45044771  0.29502434  1
  O  O24  1  0.19390665  0.25010166  0.26217241  1
  O  O25  1  0.69390665  0.74989834  0.23782759  1
  O  O26  1  0.80609335  0.74989834  0.73782759  1
  O  O27  1  0.26671682  0.45832779  0.99960051  1
  O  O28  1  0.42350987  0.93209525  0.63951652  1
  O  O29  1  0.92350987  0.06790475  0.86048348  1
  O  O30  1  0.57649013  0.06790475  0.36048348  1
  O  O31  1  0.07649013  0.93209525  0.13951652  1
  O  O32  1  0.36462412  0.56831075  0.88116254  1
  O  O33  1  0.86462412  0.43168925  0.61883746  1
  O  O34  1  0.63537588  0.43168925  0.11883746  1
  O  O35  1  0.13537588  0.56831075  0.38116254  1
  O  O36  1  0.34531674  0.08028619  0.09421847  1
  O  O37  1  0.84531674  0.91971381  0.40578153  1
  O  O38  1  0.65468326  0.91971381  0.90578153  1
  O  O39  1  0.15468326  0.08028619  0.59421847  1
  O  O40  1  0.23328318  0.45832779  0.49960051  1
  O  O41  1  0.73328318  0.54167221  0.00039949  1
  O  O42  1  0.76671682  0.54167221  0.50039949  1
  O  O43  1  0.45428806  0.76888869  0.98134588  1
loop_
_geom_bond_atom_site_label_1
_geom_bond_atom_site_label_2
_geom_bond_distance
_geom_bond_site_symmetry_2
O0 P11 1.463006 1_555
O0 Zn1 2.061262 1_555
O1 P10 1.463006 1_554
O1 Zn0 2.061262 1_555
O2 P9 1.463006 1_555
O2 Zn3 2.061262 1_555
O3 P8 1.463006 1_556
O3 Zn2 2.061262 1_555
O4 P15 1.464273 1_555
O4 Zn3 2.030048 1_555
O5 P14 1.464273 1_555
O5 Zn2 2.030048 1_555
O6 P13 1.464273 1_555
O6 Zn1 2.030048 1_555
O7 P12 1.464273 1_555
O7 Zn0 2.030048 1_555
O8 P15 1.468809 1_555
O8 Zn3 2.049806 1_565
O9 P14 1.468809 1_555
O9 Zn2 2.049806 1_545
O10 P13 1.468809 1_555
O10 Zn1 2.049806 1_545
O11 P12 1.468809 1_555
O11 Zn0 2.049806 1_565
O12 P11 1.470187 1_555
O12 Zn1 2.032475 1_545
O13 P10 1.470187 1_554
O13 Zn0 2.032475 1_565
O14 P9 1.470187 1_555
O14 Zn3 2.032475 1_565
O15 P8 1.470187 1_556
O15 Zn2 2.032475 1_545
O16 P3 1.555182 1_555
O16 P11 1.622054 1_555
O17 P6 1.556633 1_555
O17 P12 1.630094 1_555
O18 P5 1.556633 1_555
O18 P15 1.630094 1_554
O19 P4 1.556633 1_555
O19 P14 1.630094 1_555
O20 P7 1.565719 1_555
O20 P15 1.625582 1_555
O21 P6 1.565719 1_555
O21 P14 1.625582 1_655
O22 P5 1.565719 1_555
O22 P13 1.625582 1_555
O23 P4 1.565719 1_555
O23 P12 1.625582 1_455
O24 P0 1.555182 1_555
O24 P8 1.622054 1_555
O25 P1 1.555182 1_555
O25 P9 1.622054 1_555
O26 P2 1.555182 1_555
O26 P10 1.622054 1_555
O27 P3 1.563433 1_555
O27 P8 1.619042 1_556
O28 P7 1.454174 1_555
O28 Zn1 2.089107 1_555
O29 P6 1.454174 1_555
O29 Zn0 2.089107 1_556
O30 P5 1.454174 1_555
O30 Zn3 2.089107 1_555
O31 P4 1.454174 1_555
O31 Zn2 2.089107 1_554
O32 P3 1.570461 1_555
O32 P7 1.570953 1_555
O33 P2 1.570461 1_555
O33 P6 1.570953 1_555
O34 P1 1.570461 1_555
O34 P5 1.570953 1_555
O35 P0 1.570461 1_555
O35 P4 1.570953 1_555
O36 P3 1.458750 1_554
O36 Zn1 2.131177 1_545
O37 P2 1.458750 1_555
O37 Zn0 2.131177 1_565
O38 P1 1.458750 1_556
O38 Zn3 2.131177 1_565
O39 P0 1.458750 1_555
O39 Zn2 2.131177 1_545
O40 P0 1.563433 1_555
O40 P11 1.619042 1_555
O41 P1 1.563433 1_555
O41 P10 1.619042 1_554
O42 P2 1.563433 1_555
O42 P9 1.619042 1_555
O43 P7 1.556633 1_555
O43 P13 1.630094 1_556
