# generated using pymatgen
data_HoNp
_symmetry_space_group_name_H-M   'P 1'
_cell_length_a   6.59422496
_cell_length_b   6.58511863
_cell_length_c   11.62895400
_cell_angle_alpha   90.00014317
_cell_angle_beta   89.99983430
_cell_angle_gamma   119.98350852
_symmetry_Int_Tables_number   1
_chemical_formula_structural   HoNp
_chemical_formula_sum   'Ho8 Np8'
_cell_volume   437.39195756
_cell_formula_units_Z   8
loop_
 _symmetry_equiv_pos_site_id
 _symmetry_equiv_pos_as_xyz
  1  'x, y, z'
loop_
 _atom_site_type_symbol
 _atom_site_label
 _atom_site_symmetry_multiplicity
 _atom_site_fract_x
 _atom_site_fract_y
 _atom_site_fract_z
 _atom_site_occupancy
  Ho  Ho0_0  1  0.33345450  0.16659600  0.37500000  1
  Ho  Ho0_1  1  0.33345450  0.16659600  0.87500000  1
  Ho  Ho0_2  1  0.33345450  0.66659600  0.37500000  1
  Ho  Ho0_3  1  0.33345450  0.66659600  0.87500000  1
  Ho  Ho0_4  1  0.83345450  0.16659600  0.37500000  1
  Ho  Ho0_5  1  0.83345450  0.16659600  0.87500000  1
  Ho  Ho0_6  1  0.83345450  0.66659600  0.37500000  1
  Ho  Ho0_7  1  0.83345450  0.66659600  0.87500000  1
  Np  Np0_0  1  0.16654500  0.33340400  0.12499950  1
  Np  Np0_1  1  0.16654500  0.33340400  0.62499950  1
  Np  Np0_2  1  0.16654500  0.83340400  0.12499950  1
  Np  Np0_3  1  0.16654500  0.83340400  0.62499950  1
  Np  Np0_4  1  0.66654500  0.33340400  0.12499950  1
  Np  Np0_5  1  0.66654500  0.33340400  0.62499950  1
  Np  Np0_6  1  0.66654500  0.83340400  0.12499950  1
  Np  Np0_7  1  0.66654500  0.83340400  0.62499950  1
loop_
_geom_bond_atom_site_label_1
_geom_bond_atom_site_label_2
_geom_bond_distance
_geom_bond_site_symmetry_2
Ho0_0 Ho0_2 3.292559 1_555
Ho0_0 Ho0_2 3.292559 1_545
Ho0_0 Ho0_6 3.295660 1_445
Ho0_0 Ho0_6 3.295660 1_555
Ho0_0 Ho0_4 3.297112 1_555
Ho0_0 Ho0_4 3.297112 1_455
Ho0_0 Np0_3 3.473301 1_545
Ho0_0 Np0_2 3.473307 1_545
Ho0_0 Np0_5 3.474421 1_555
Ho0_0 Np0_4 3.474424 1_555
Ho0_0 Np0_1 3.475394 1_555
Ho0_0 Np0_0 3.475413 1_555
Ho0_1 Ho0_3 3.292559 1_545
Ho0_1 Ho0_3 3.292559 1_555
Ho0_1 Ho0_7 3.295660 1_555
Ho0_1 Ho0_7 3.295660 1_445
Ho0_1 Ho0_5 3.297112 1_555
Ho0_1 Ho0_5 3.297112 1_455
Ho0_1 Np0_2 3.473301 1_546
Ho0_1 Np0_3 3.473307 1_545
Ho0_1 Np0_4 3.474421 1_556
Ho0_1 Np0_5 3.474424 1_555
Ho0_1 Np0_0 3.475394 1_556
Ho0_1 Np0_1 3.475413 1_555
Ho0_2 Ho0_4 3.295660 1_565
Ho0_2 Ho0_4 3.295660 1_455
Ho0_2 Ho0_6 3.297112 1_455
Ho0_2 Ho0_6 3.297112 1_555
Ho0_2 Np0_1 3.473301 1_555
Ho0_2 Np0_0 3.473307 1_555
Ho0_2 Np0_7 3.474421 1_555
Ho0_2 Np0_6 3.474424 1_555
Ho0_2 Np0_3 3.475394 1_555
Ho0_2 Np0_2 3.475413 1_555
Ho0_3 Ho0_5 3.295660 1_455
Ho0_3 Ho0_5 3.295660 1_565
Ho0_3 Ho0_7 3.297112 1_555
Ho0_3 Ho0_7 3.297112 1_455
Ho0_3 Np0_0 3.473301 1_556
Ho0_3 Np0_1 3.473307 1_555
Ho0_3 Np0_6 3.474421 1_556
Ho0_3 Np0_7 3.474424 1_555
Ho0_3 Np0_2 3.475394 1_556
Ho0_3 Np0_3 3.475413 1_555
Ho0_4 Ho0_6 3.292559 1_545
Ho0_4 Ho0_6 3.292559 1_555
Ho0_4 Np0_7 3.473301 1_545
Ho0_4 Np0_6 3.473307 1_545
Ho0_4 Np0_1 3.474421 1_655
Ho0_4 Np0_0 3.474424 1_655
Ho0_4 Np0_5 3.475394 1_555
Ho0_4 Np0_4 3.475413 1_555
Ho0_5 Ho0_7 3.292559 1_545
Ho0_5 Ho0_7 3.292559 1_555
Ho0_5 Np0_6 3.473301 1_546
Ho0_5 Np0_7 3.473307 1_545
Ho0_5 Np0_0 3.474421 1_656
Ho0_5 Np0_1 3.474424 1_655
Ho0_5 Np0_4 3.475394 1_556
Ho0_5 Np0_5 3.475413 1_555
Ho0_6 Np0_5 3.473301 1_555
Ho0_6 Np0_4 3.473307 1_555
Ho0_6 Np0_3 3.474421 1_655
Ho0_6 Np0_2 3.474424 1_655
Ho0_6 Np0_7 3.475394 1_555
Ho0_6 Np0_6 3.475413 1_555
Ho0_7 Np0_4 3.473301 1_556
Ho0_7 Np0_5 3.473307 1_555
Ho0_7 Np0_2 3.474421 1_656
Ho0_7 Np0_3 3.474424 1_655
Ho0_7 Np0_6 3.475394 1_556
Ho0_7 Np0_7 3.475413 1_555
Np0_0 Np0_2 3.292559 1_545
Np0_0 Np0_2 3.292559 1_555
Np0_0 Np0_6 3.295660 1_445
Np0_0 Np0_6 3.295660 1_555
Np0_0 Np0_4 3.297112 1_455
Np0_0 Np0_4 3.297112 1_555
Np0_1 Np0_3 3.292559 1_555
Np0_1 Np0_3 3.292559 1_545
Np0_1 Np0_7 3.295660 1_555
Np0_1 Np0_7 3.295660 1_445
Np0_1 Np0_5 3.297112 1_555
Np0_1 Np0_5 3.297112 1_455
Np0_2 Np0_4 3.295660 1_455
Np0_2 Np0_4 3.295660 1_565
Np0_2 Np0_6 3.297112 1_455
Np0_2 Np0_6 3.297112 1_555
Np0_3 Np0_5 3.295660 1_565
Np0_3 Np0_5 3.295660 1_455
Np0_3 Np0_7 3.297112 1_455
Np0_3 Np0_7 3.297112 1_555
Np0_4 Np0_6 3.292559 1_545
Np0_4 Np0_6 3.292559 1_555
Np0_5 Np0_7 3.292559 1_555
Np0_5 Np0_7 3.292559 1_545
