# generated using pymatgen
data_Na4AgCl5
_symmetry_space_group_name_H-M   'P 1'
_cell_length_a   10.42611358
_cell_length_b   10.42611358
_cell_length_c   10.42611358
_cell_angle_alpha   158.15048026
_cell_angle_beta   149.04086408
_cell_angle_gamma   38.21463318
_symmetry_Int_Tables_number   1
_chemical_formula_structural   Na4AgCl5
_chemical_formula_sum   'Na4 Ag1 Cl5'
_cell_volume   216.67608256
_cell_formula_units_Z   1
loop_
 _symmetry_equiv_pos_site_id
 _symmetry_equiv_pos_as_xyz
  1  'x, y, z'
loop_
 _atom_site_type_symbol
 _atom_site_label
 _atom_site_symmetry_multiplicity
 _atom_site_fract_x
 _atom_site_fract_y
 _atom_site_fract_z
 _atom_site_occupancy
  Na  Na0  1  0.59945966  0.59945966  -0.00000000  1
  Na  Na1  1  0.20013531  0.20013531  -0.00000000  1
  Na  Na2  1  0.79986469  0.79986469  0.00000000  1
  Na  Na3  1  0.40054034  0.40054034  0.00000000  1
  Ag  Ag0  1  -0.00000000  -0.00000000  -0.00000000  1
  Cl  Cl0  1  0.30038790  0.80038790  0.50000000  1
  Cl  Cl1  1  0.90016060  0.40016060  0.50000000  1
  Cl  Cl2  1  0.50000000  -0.00000000  0.50000000  1
  Cl  Cl3  1  0.09983940  0.59983940  0.50000000  1
  Cl  Cl4  1  0.69961210  0.19961210  0.50000000  1
loop_
_geom_bond_atom_site_label_1
_geom_bond_atom_site_label_2
_geom_bond_distance
_geom_bond_site_symmetry_2
Ag0 Cl2 2.782675 1_454
Ag0 Cl2 2.782675 1_555
Ag0 Cl3 2.788222 1_544
Ag0 Cl3 2.788222 1_555
Ag0 Cl1 2.788222 1_444
Ag0 Cl1 2.788222 1_455
Cl0 Na2 2.782694 1_556
Cl0 Na2 2.782694 1_455
Cl0 Na3 2.792577 1_555
Cl0 Na3 2.792577 1_566
Cl0 Na1 2.793972 1_555
Cl0 Na1 2.793972 1_566
Cl1 Na3 2.782685 1_555
Cl1 Na3 2.782685 1_656
Cl1 Na2 2.794576 1_545
Cl1 Na2 2.794576 1_556
Cl2 Na3 2.782948 1_545
Cl2 Na3 2.782948 1_556
Cl2 Na0 2.782948 1_545
Cl2 Na0 2.782948 1_556
Cl3 Na0 2.782685 1_556
Cl3 Na0 2.782685 1_455
Cl3 Na1 2.794576 1_555
Cl3 Na1 2.794576 1_566
Cl4 Na1 2.782694 1_555
Cl4 Na1 2.782694 1_656
Cl4 Na0 2.792577 1_556
Cl4 Na0 2.792577 1_545
Cl4 Na2 2.793972 1_556
Cl4 Na2 2.793972 1_545
