# generated using pymatgen
data_HfN
_symmetry_space_group_name_H-M   'P 1'
_cell_length_a   3.13390860
_cell_length_b   3.13390860
_cell_length_c   5.41676772
_cell_angle_alpha   90.00000000
_cell_angle_beta   90.00000000
_cell_angle_gamma   120.00002457
_symmetry_Int_Tables_number   1
_chemical_formula_structural   HfN
_chemical_formula_sum   'Hf2 N2'
_cell_volume   46.07267097
_cell_formula_units_Z   2
loop_
 _symmetry_equiv_pos_site_id
 _symmetry_equiv_pos_as_xyz
  1  'x, y, z'
loop_
 _atom_site_type_symbol
 _atom_site_label
 _atom_site_symmetry_multiplicity
 _atom_site_fract_x
 _atom_site_fract_y
 _atom_site_fract_z
 _atom_site_occupancy
  Hf  Hf0  1  0.33333300  0.66666700  0.25000000  1
  Hf  Hf1  1  0.66666700  0.33333300  0.75000000  1
  N  N0  1  -0.00000000  -0.00000000  0.50000000  1
  N  N1  1  -0.00000000  0.00000000  0.00000000  1
loop_
_geom_bond_atom_site_label_1
_geom_bond_atom_site_label_2
_geom_bond_distance
_geom_bond_site_symmetry_2
Hf0 N0 2.260005 1_565
Hf0 N1 2.260005 1_565
Hf0 N1 2.260007 1_555
Hf0 N0 2.260007 1_555
Hf0 N0 2.260007 1_665
Hf0 N1 2.260007 1_665
Hf1 N0 2.260005 1_655
Hf1 N1 2.260005 1_656
Hf1 N1 2.260007 1_666
Hf1 N0 2.260007 1_555
Hf1 N0 2.260007 1_665
Hf1 N1 2.260007 1_556
