# generated using pymatgen
data_AgSbS2
_symmetry_space_group_name_H-M   'P 1'
_cell_length_a   7.99809717
_cell_length_b   7.99809717
_cell_length_c   13.91493362
_cell_angle_alpha   78.15543371
_cell_angle_beta   78.15543371
_cell_angle_gamma   42.49124318
_symmetry_Int_Tables_number   1
_chemical_formula_structural   AgSbS2
_chemical_formula_sum   'Ag4 Sb4 S8'
_cell_volume   586.50270428
_cell_formula_units_Z   4
loop_
 _symmetry_equiv_pos_site_id
 _symmetry_equiv_pos_as_xyz
  1  'x, y, z'
loop_
 _atom_site_type_symbol
 _atom_site_label
 _atom_site_symmetry_multiplicity
 _atom_site_fract_x
 _atom_site_fract_y
 _atom_site_fract_z
 _atom_site_occupancy
  Ag  Ag0  1  0.98811000  0.99924300  0.00360400  1
  Ag  Ag1  1  0.50008100  0.48844600  0.50319500  1
  Ag  Ag2  1  0.48844600  0.50008100  0.00319500  1
  Ag  Ag3  1  0.99924300  0.98811000  0.50360400  1
  Sb  Sb0  1  0.62008700  0.77647100  0.85975000  1
  Sb  Sb1  1  0.21988500  0.36317300  0.65837800  1
  Sb  Sb2  1  0.77647100  0.62008700  0.35975000  1
  Sb  Sb3  1  0.36317300  0.21988500  0.15837800  1
  S  S0  1  0.59896500  0.77829100  0.19870700  1
  S  S1  1  0.80223500  0.28821500  0.36417500  1
  S  S2  1  0.69105300  0.20322800  0.14313400  1
  S  S3  1  0.20322800  0.69105300  0.64313400  1
  S  S4  1  0.21477800  0.39614100  0.31905500  1
  S  S5  1  0.39614100  0.21477800  0.81905500  1
  S  S6  1  0.77829100  0.59896500  0.69870700  1
  S  S7  1  0.28821500  0.80223500  0.86417500  1
loop_
_geom_bond_atom_site_label_1
_geom_bond_atom_site_label_2
_geom_bond_distance
_geom_bond_site_symmetry_2
Ag0 S2 2.401331 1_565
Ag0 S7 2.402883 1_654
Ag1 S3 2.403789 1_555
Ag1 S1 2.406671 1_555
Ag2 S2 2.403789 1_555
Ag2 S7 2.406671 1_554
Ag3 S3 2.401331 1_655
Ag3 S1 2.402883 1_565
S0 Sb2 2.476093 1_555
S0 Sb3 2.478633 1_565
S1 Sb2 2.494649 1_555
S2 Sb3 2.491549 1_555
S3 Sb1 2.491549 1_555
S4 Sb3 2.476254 1_555
S4 Sb2 2.481846 1_455
S5 Sb1 2.476254 1_555
S5 Sb0 2.481846 1_545
S6 Sb0 2.476093 1_555
S6 Sb1 2.478633 1_655
S7 Sb0 2.494649 1_555
