# generated using pymatgen
data_Yb2InAu2
_symmetry_space_group_name_H-M   'P 1'
_cell_length_a   7.78834719
_cell_length_b   7.78834719
_cell_length_c   3.65806660
_cell_angle_alpha   90.00000000
_cell_angle_beta   90.00000000
_cell_angle_gamma   90.00000000
_symmetry_Int_Tables_number   1
_chemical_formula_structural   Yb2InAu2
_chemical_formula_sum   'Yb4 In2 Au4'
_cell_volume   221.89229094
_cell_formula_units_Z   2
loop_
 _symmetry_equiv_pos_site_id
 _symmetry_equiv_pos_as_xyz
  1  'x, y, z'
loop_
 _atom_site_type_symbol
 _atom_site_label
 _atom_site_symmetry_multiplicity
 _atom_site_fract_x
 _atom_site_fract_y
 _atom_site_fract_z
 _atom_site_occupancy
  Yb  Yb0  1  0.66842125  0.16842125  0.50000000  1
  Yb  Yb1  1  0.33157875  0.83157875  0.50000000  1
  Yb  Yb2  1  0.16842125  0.33157875  0.50000000  1
  Yb  Yb3  1  0.83157875  0.66842125  0.50000000  1
  In  In0  1  0.00000000  0.00000000  0.00000000  1
  In  In1  1  0.50000000  0.50000000  0.00000000  1
  Au  Au0  1  0.12970940  0.62970940  0.00000000  1
  Au  Au1  1  0.87029060  0.37029060  0.00000000  1
  Au  Au2  1  0.62970940  0.87029060  0.00000000  1
  Au  Au3  1  0.37029060  0.12970940  0.00000000  1
loop_
_geom_bond_atom_site_label_1
_geom_bond_atom_site_label_2
_geom_bond_distance
_geom_bond_site_symmetry_2
In0 Yb2 3.425643 1_555
In0 Yb2 3.425643 1_554
In0 Yb1 3.425643 1_545
In0 Yb1 3.425643 1_544
In0 Yb0 3.425643 1_454
In0 Yb0 3.425643 1_455
In0 Yb3 3.425643 1_445
In0 Yb3 3.425643 1_444
In1 Yb3 3.425643 1_554
In1 Yb3 3.425643 1_555
In1 Yb1 3.425643 1_555
In1 Yb1 3.425643 1_554
In1 Yb0 3.425643 1_555
In1 Yb0 3.425643 1_554
In1 Yb2 3.425643 1_554
In1 Yb2 3.425643 1_555
Au0 Yb1 2.879092 1_555
Au0 Yb1 2.879092 1_554
Au0 Yb3 2.971144 1_455
Au0 Yb3 2.971144 1_454
Au0 Yb2 2.971144 1_554
Au0 Yb2 2.971144 1_555
Au0 In1 3.055769 1_555
Au0 In0 3.055769 1_565
Au1 Yb0 2.879092 1_555
Au1 Yb0 2.879092 1_554
Au1 Yb2 2.971144 1_655
Au1 Yb2 2.971144 1_654
Au1 Yb3 2.971144 1_555
Au1 Yb3 2.971144 1_554
Au1 In1 3.055769 1_555
Au1 In0 3.055769 1_655
Au2 Yb3 2.879092 1_554
Au2 Yb3 2.879092 1_555
Au2 Yb0 2.971144 1_565
Au2 Yb0 2.971144 1_564
Au2 Yb1 2.971144 1_554
Au2 Yb1 2.971144 1_555
Au2 In1 3.055769 1_555
Au2 In0 3.055769 1_665
Au3 Yb2 2.879092 1_555
Au3 Yb2 2.879092 1_554
Au3 Yb1 2.971144 1_544
Au3 Yb1 2.971144 1_545
Au3 Yb0 2.971144 1_555
Au3 Yb0 2.971144 1_554
Au3 In0 3.055769 1_555
Au3 In1 3.055769 1_555
