# generated using pymatgen
data_Mg14MnNi
_symmetry_space_group_name_H-M   'P 1'
_cell_length_a   6.18613184
_cell_length_b   6.18613137
_cell_length_c   9.70817172
_cell_angle_alpha   90.00000000
_cell_angle_beta   90.00000000
_cell_angle_gamma   120.00000252
_symmetry_Int_Tables_number   1
_chemical_formula_structural   Mg14MnNi
_chemical_formula_sum   'Mg14 Mn1 Ni1'
_cell_volume   321.74097993
_cell_formula_units_Z   1
loop_
 _symmetry_equiv_pos_site_id
 _symmetry_equiv_pos_as_xyz
  1  'x, y, z'
loop_
 _atom_site_type_symbol
 _atom_site_label
 _atom_site_symmetry_multiplicity
 _atom_site_fract_x
 _atom_site_fract_y
 _atom_site_fract_z
 _atom_site_occupancy
  Mg  Mg0  1  0.16889122  0.83444511  0.12500000  1
  Mg  Mg1  1  0.16586753  0.83293327  0.62500000  1
  Mg  Mg2  1  0.66555489  0.33110878  0.12500000  1
  Mg  Mg3  1  0.66706673  0.33413247  0.62500000  1
  Mg  Mg4  1  0.66555489  0.83444511  0.12500000  1
  Mg  Mg5  1  0.66706673  0.83293327  0.62500000  1
  Mg  Mg6  1  0.32316565  0.17683435  0.37504610  1
  Mg  Mg7  1  0.32316565  0.17683435  0.87495390  1
  Mg  Mg8  1  0.32316565  0.64633230  0.37504610  1
  Mg  Mg9  1  0.32316565  0.64633230  0.87495390  1
  Mg  Mg10  1  0.85366770  0.17683435  0.37504610  1
  Mg  Mg11  1  0.85366770  0.17683435  0.87495390  1
  Mg  Mg12  1  0.83333300  0.66666700  0.37326073  1
  Mg  Mg13  1  0.83333300  0.66666700  0.87673927  1
  Mn  Mn0  1  0.16666700  0.33333300  0.12500000  1
  Ni  Ni0  1  0.16666700  0.33333300  0.62500000  1
loop_
_geom_bond_atom_site_label_1
_geom_bond_atom_site_label_2
_geom_bond_distance
_geom_bond_site_symmetry_2
Mg0 Mg13 3.006758 1_454
Mg0 Mg12 3.006758 1_455
Mg0 Mg8 3.044384 1_555
Mg0 Mg9 3.044384 1_554
Mg0 Mg6 3.044391 1_565
Mg0 Mg7 3.044391 1_564
Mg0 Mg2 3.072427 1_565
Mg0 Mg4 3.072427 1_555
Mg0 Mn0 3.093089 1_555
Mg0 Mn0 3.093089 1_565
Mg0 Mg2 3.113705 1_455
Mg0 Mg4 3.113705 1_455
Mg1 Mg12 3.024324 1_455
Mg1 Mg13 3.024324 1_455
Mg1 Mg9 3.048109 1_555
Mg1 Mg8 3.048109 1_555
Mg1 Mg7 3.048116 1_565
Mg1 Mg6 3.048116 1_565
Mg1 Mg3 3.085647 1_455
Mg1 Mg5 3.085648 1_455
Mg1 Ni0 3.093069 1_565
Mg1 Ni0 3.093069 1_555
Mg1 Mg3 3.100484 1_565
Mg1 Mg5 3.100484 1_555
Mg2 Mg6 3.044391 1_555
Mg2 Mg7 3.044391 1_554
Mg2 Mg4 3.072427 1_545
Mg2 Mn0 3.093089 1_655
Mg2 Mn0 3.093089 1_555
Mg2 Mg4 3.113705 1_555
Mg3 Mg7 3.048116 1_555
Mg3 Mg6 3.048116 1_555
Mg3 Mg5 3.085647 1_555
Mg3 Ni0 3.093069 1_555
Mg3 Ni0 3.093069 1_655
Mg3 Mg5 3.100484 1_545
Mg4 Mg8 3.044390 1_555
Mg4 Mg9 3.044390 1_554
Mg4 Mn0 3.093089 1_555
Mg4 Mn0 3.093089 1_665
Mg5 Mg9 3.048115 1_555
Mg5 Mg8 3.048115 1_555
Mg5 Ni0 3.093069 1_665
Mg5 Ni0 3.093069 1_555
Mg6 Mg8 2.904376 1_555
Mg6 Ni0 2.949600 1_555
Mg6 Mn0 2.950337 1_555
Mg6 Mg8 3.281755 1_545
Mg7 Mg9 2.904376 1_555
Mg7 Ni0 2.949600 1_555
Mg7 Mn0 2.950337 1_556
Mg7 Mg9 3.281755 1_545
Mg8 Ni0 2.949606 1_555
Mg8 Mn0 2.950343 1_555
Mg9 Ni0 2.949606 1_555
Mg9 Mn0 2.950343 1_556
Mg10 Mg8 2.904376 1_655
Mg10 Mg6 2.904376 1_655
Mg10 Ni0 2.949606 1_655
Mg10 Mn0 2.950343 1_655
Mg10 Mg2 3.044384 1_555
Mg10 Mg4 3.044390 1_545
Mg10 Mg3 3.048109 1_555
Mg10 Mg5 3.048115 1_545
Mg10 Mg12 3.095032 1_545
Mg10 Mg12 3.095032 1_555
Mg10 Mg8 3.281755 1_545
Mg10 Mg6 3.281756 1_555
Mg11 Mg9 2.904376 1_655
Mg11 Mg7 2.904376 1_655
Mg11 Ni0 2.949606 1_655
Mg11 Mn0 2.950343 1_656
Mg11 Mg2 3.044384 1_556
Mg11 Mg4 3.044390 1_546
Mg11 Mg3 3.048109 1_555
Mg11 Mg5 3.048115 1_545
Mg11 Mg13 3.095032 1_545
Mg11 Mg13 3.095032 1_555
Mg11 Mg9 3.281755 1_545
Mg11 Mg7 3.281756 1_555
Mg12 Mg4 3.006751 1_555
Mg12 Mg2 3.006758 1_555
Mg12 Mg5 3.024318 1_555
Mg12 Mg3 3.024324 1_555
Mg12 Mg6 3.095032 1_665
Mg12 Mg6 3.095032 1_555
Mg12 Mg8 3.095032 1_555
Mg12 Mg8 3.095032 1_655
Mg13 Mg4 3.006751 1_556
Mg13 Mg2 3.006758 1_556
Mg13 Mg5 3.024318 1_555
Mg13 Mg3 3.024324 1_555
Mg13 Mg7 3.095032 1_665
Mg13 Mg7 3.095032 1_555
Mg13 Mg9 3.095032 1_555
Mg13 Mg9 3.095032 1_655
