# generated using pymatgen
data_Sr2CuSeO2
_symmetry_space_group_name_H-M   'P 1'
_cell_length_a   3.95138800
_cell_length_b   3.95138800
_cell_length_c   6.98668500
_cell_angle_alpha   90.00000000
_cell_angle_beta   90.00000000
_cell_angle_gamma   90.00000000
_symmetry_Int_Tables_number   1
_chemical_formula_structural   Sr2CuSeO2
_chemical_formula_sum   'Sr2 Cu1 Se1 O2'
_cell_volume   109.08637657
_cell_formula_units_Z   1
loop_
 _symmetry_equiv_pos_site_id
 _symmetry_equiv_pos_as_xyz
  1  'x, y, z'
loop_
 _atom_site_type_symbol
 _atom_site_label
 _atom_site_symmetry_multiplicity
 _atom_site_fract_x
 _atom_site_fract_y
 _atom_site_fract_z
 _atom_site_occupancy
  Sr  Sr0  1  0.00000000  0.00000000  0.24252500  1
  Sr  Sr1  1  0.00000000  0.00000000  0.75747500  1
  Cu  Cu0  1  0.50000000  0.50000000  0.00000000  1
  Se  Se0  1  0.50000000  0.50000000  0.50000000  1
  O  O0  1  0.00000000  0.50000000  0.00000000  1
  O  O1  1  0.50000000  0.00000000  0.00000000  1
loop_
_geom_bond_atom_site_label_1
_geom_bond_atom_site_label_2
_geom_bond_distance
_geom_bond_site_symmetry_2
Cu0 O1 1.975694 1_555
Cu0 O1 1.975694 1_565
Cu0 O0 1.975694 1_655
Cu0 O0 1.975694 1_555
Se0 Sr0 3.323065 1_555
Se0 Sr1 3.323065 1_555
Se0 Sr0 3.323065 1_565
Se0 Sr0 3.323065 1_665
Se0 Sr1 3.323065 1_655
Se0 Sr0 3.323065 1_655
Se0 Sr1 3.323065 1_565
Se0 Sr1 3.323065 1_665
O0 Sr1 2.602790 1_554
O0 Sr0 2.602790 1_565
O0 Sr1 2.602790 1_564
O0 Sr0 2.602790 1_555
O1 Sr1 2.602790 1_554
O1 Sr0 2.602790 1_655
O1 Sr1 2.602790 1_654
O1 Sr0 2.602790 1_555
