# generated using pymatgen
data_Mg3Pb
_symmetry_space_group_name_H-M   'P 1'
_cell_length_a   6.34310594
_cell_length_b   6.34310594
_cell_length_c   5.34969765
_cell_angle_alpha   90.00000000
_cell_angle_beta   90.00000000
_cell_angle_gamma   119.99999585
_symmetry_Int_Tables_number   1
_chemical_formula_structural   Mg3Pb
_chemical_formula_sum   'Mg6 Pb2'
_cell_volume   186.40768694
_cell_formula_units_Z   2
loop_
 _symmetry_equiv_pos_site_id
 _symmetry_equiv_pos_as_xyz
  1  'x, y, z'
loop_
 _atom_site_type_symbol
 _atom_site_label
 _atom_site_symmetry_multiplicity
 _atom_site_fract_x
 _atom_site_fract_y
 _atom_site_fract_z
 _atom_site_occupancy
  Mg  Mg0  1  0.16419595  0.32839090  0.25000000  1
  Mg  Mg1  1  0.16419595  0.83580405  0.25000000  1
  Mg  Mg2  1  0.67160910  0.83580405  0.25000000  1
  Mg  Mg3  1  0.32839090  0.16419595  0.75000000  1
  Mg  Mg4  1  0.83580405  0.16419595  0.75000000  1
  Mg  Mg5  1  0.83580405  0.67160910  0.75000000  1
  Pb  Pb0  1  0.66666700  0.33333300  0.25000000  1
  Pb  Pb1  1  0.33333300  0.66666700  0.75000000  1
loop_
_geom_bond_atom_site_label_1
_geom_bond_atom_site_label_2
_geom_bond_distance
_geom_bond_site_symmetry_2
Mg0 Mg1 3.124531 1_545
Mg0 Mg2 3.124531 1_445
Mg0 Pb0 3.171669 1_455
Mg0 Pb0 3.171669 1_555
Mg0 Mg1 3.218575 1_555
Mg0 Mg2 3.218576 1_555
Mg0 Mg3 3.226301 1_555
Mg0 Mg3 3.226301 1_554
Mg0 Mg4 3.226308 1_455
Mg0 Mg4 3.226308 1_454
Mg0 Pb1 3.256978 1_555
Mg0 Pb1 3.256978 1_554
Mg1 Mg2 3.124531 1_455
Mg1 Pb0 3.171669 1_455
Mg1 Pb0 3.171669 1_565
Mg1 Mg2 3.218575 1_555
Mg1 Mg5 3.226308 1_455
Mg1 Mg5 3.226308 1_454
Mg1 Mg3 3.226308 1_565
Mg1 Mg3 3.226308 1_564
Mg1 Pb1 3.256972 1_555
Mg1 Pb1 3.256972 1_554
Mg2 Pb0 3.171669 1_565
Mg2 Pb0 3.171669 1_555
Mg2 Mg5 3.226301 1_555
Mg2 Mg5 3.226301 1_554
Mg2 Mg4 3.226308 1_564
Mg2 Mg4 3.226308 1_565
Mg2 Pb1 3.256978 1_555
Mg2 Pb1 3.256978 1_554
Mg3 Mg4 3.124531 1_455
Mg3 Mg5 3.124531 1_445
Mg3 Pb1 3.171669 1_545
Mg3 Pb1 3.171669 1_555
Mg3 Mg4 3.218575 1_555
Mg3 Mg5 3.218576 1_555
Mg3 Pb0 3.256978 1_556
Mg3 Pb0 3.256978 1_555
Mg4 Mg5 3.124531 1_545
Mg4 Pb1 3.171669 1_545
Mg4 Pb1 3.171669 1_655
Mg4 Mg5 3.218575 1_555
Mg4 Pb0 3.256972 1_556
Mg4 Pb0 3.256972 1_555
Mg5 Pb1 3.171669 1_655
Mg5 Pb1 3.171669 1_555
Mg5 Pb0 3.256978 1_556
Mg5 Pb0 3.256978 1_555
