# generated using pymatgen
data_Y7ReO14
_symmetry_space_group_name_H-M   'P 1'
_cell_length_a   7.71015203
_cell_length_b   7.71015203
_cell_length_c   7.71015241
_cell_angle_alpha   58.58373991
_cell_angle_beta   58.58373991
_cell_angle_gamma   58.58374013
_symmetry_Int_Tables_number   1
_chemical_formula_structural   Y7ReO14
_chemical_formula_sum   'Y7 Re1 O14'
_cell_volume   313.60096275
_cell_formula_units_Z   1
loop_
 _symmetry_equiv_pos_site_id
 _symmetry_equiv_pos_as_xyz
  1  'x, y, z'
loop_
 _atom_site_type_symbol
 _atom_site_label
 _atom_site_symmetry_multiplicity
 _atom_site_fract_x
 _atom_site_fract_y
 _atom_site_fract_z
 _atom_site_occupancy
  Y  Y0  1  0.00000000  0.00000000  0.50000000  1
  Y  Y1  1  0.50000000  0.00000000  0.00000000  1
  Y  Y2  1  0.00000000  0.50000000  0.00000000  1
  Y  Y3  1  0.50000000  0.50000000  0.00000000  1
  Y  Y4  1  0.00000000  0.50000000  0.50000000  1
  Y  Y5  1  0.50000000  0.00000000  0.50000000  1
  Y  Y6  1  0.00000000  0.00000000  0.00000000  1
  Re  Re0  1  0.50000000  0.50000000  0.50000000  1
  O  O0  1  0.86467000  0.86467000  0.86467000  1
  O  O1  1  0.86434200  0.40385900  0.86434200  1
  O  O2  1  0.40385900  0.86434200  0.86434200  1
  O  O3  1  0.86434200  0.86434200  0.40385900  1
  O  O4  1  0.13533000  0.13533000  0.13533000  1
  O  O5  1  0.13565800  0.59614100  0.13565800  1
  O  O6  1  0.59614100  0.13565800  0.13565800  1
  O  O7  1  0.13565800  0.13565800  0.59614100  1
  O  O8  1  0.42991600  0.79745000  0.42991600  1
  O  O9  1  0.79745000  0.42991600  0.42991600  1
  O  O10  1  0.42991600  0.42991600  0.79745000  1
  O  O11  1  0.57008400  0.20255000  0.57008400  1
  O  O12  1  0.20255000  0.57008400  0.57008400  1
  O  O13  1  0.57008400  0.57008400  0.20255000  1
loop_
_geom_bond_atom_site_label_1
_geom_bond_atom_site_label_2
_geom_bond_distance
_geom_bond_site_symmetry_2
O0 Y1 2.258542 1_566
O0 Y2 2.258542 1_656
O0 Y0 2.258542 1_665
O0 Y6 2.582849 1_666
O1 Y3 2.260327 1_556
O1 Y4 2.260327 1_655
O1 Y2 2.344037 1_656
O1 Y6 2.496743 1_656
O2 Y3 2.260327 1_556
O2 Y5 2.260327 1_565
O2 Y1 2.344037 1_566
O2 Y6 2.496743 1_566
O3 Y5 2.260327 1_565
O3 Y4 2.260327 1_655
O3 Y0 2.344037 1_665
O3 Y6 2.496743 1_665
O4 Y1 2.258542 1_555
O4 Y2 2.258542 1_555
O4 Y0 2.258542 1_555
O4 Y6 2.582849 1_555
O5 Y3 2.260327 1_555
O5 Y4 2.260327 1_555
O5 Y2 2.344037 1_555
O5 Y6 2.496743 1_565
O6 Y3 2.260327 1_555
O6 Y5 2.260327 1_555
O6 Y1 2.344037 1_555
O6 Y6 2.496743 1_655
O7 Y5 2.260327 1_555
O7 Y4 2.260327 1_555
O7 Y0 2.344037 1_555
O7 Y6 2.496743 1_556
O8 Re0 1.887893 1_555
O8 Y5 2.255379 1_565
O8 Y0 2.708156 1_565
O8 Y1 2.708156 1_565
O9 Re0 1.887893 1_555
O9 Y4 2.255379 1_655
O9 Y0 2.708156 1_655
O9 Y2 2.708156 1_655
O10 Re0 1.887893 1_555
O10 Y3 2.255379 1_556
O10 Y1 2.708156 1_556
O10 Y2 2.708156 1_556
O11 Re0 1.887893 1_555
O11 Y5 2.255379 1_555
O11 Y0 2.708156 1_655
O11 Y1 2.708156 1_556
O12 Re0 1.887893 1_555
O12 Y4 2.255379 1_555
O12 Y0 2.708156 1_565
O12 Y2 2.708156 1_556
O13 Re0 1.887893 1_555
O13 Y3 2.255379 1_555
O13 Y1 2.708156 1_565
O13 Y2 2.708156 1_655
