# generated using pymatgen
data_CrC6N12(ClO3)3
_symmetry_space_group_name_H-M   'P 1'
_cell_length_a   11.72945840
_cell_length_b   11.72945840
_cell_length_c   11.72945822
_cell_angle_alpha   110.79495642
_cell_angle_beta   110.79495642
_cell_angle_gamma   110.79496271
_symmetry_Int_Tables_number   1
_chemical_formula_structural   CrC6N12(ClO3)3
_chemical_formula_sum   'Cr2 C12 N24 Cl6 O18'
_cell_volume   1177.45165145
_cell_formula_units_Z   2
loop_
 _symmetry_equiv_pos_site_id
 _symmetry_equiv_pos_as_xyz
  1  'x, y, z'
loop_
 _atom_site_type_symbol
 _atom_site_label
 _atom_site_symmetry_multiplicity
 _atom_site_fract_x
 _atom_site_fract_y
 _atom_site_fract_z
 _atom_site_occupancy
  Cr  Cr0  1  0.00000000  0.00000000  0.00000000  1
  Cr  Cr1  1  0.50000000  0.50000000  0.50000000  1
  C  C0  1  0.02944600  0.83785700  0.76527300  1
  C  C1  1  0.76527300  0.02944600  0.83785700  1
  C  C2  1  0.83785700  0.76527300  0.02944600  1
  C  C3  1  0.97055400  0.16214300  0.23472700  1
  C  C4  1  0.23472700  0.97055400  0.16214300  1
  C  C5  1  0.16214300  0.23472700  0.97055400  1
  C  C6  1  0.51917100  0.32919800  0.26435900  1
  C  C7  1  0.26435900  0.51917100  0.32919800  1
  C  C8  1  0.32919800  0.26435900  0.51917100  1
  C  C9  1  0.48082900  0.67080200  0.73564100  1
  C  C10  1  0.73564100  0.48082900  0.67080200  1
  C  C11  1  0.67080200  0.73564100  0.48082900  1
  N  N0  1  0.06354900  0.77426600  0.67444500  1
  N  N1  1  0.67444500  0.06354900  0.77426600  1
  N  N2  1  0.77426600  0.67444500  0.06354900  1
  N  N3  1  0.93645100  0.22573400  0.32555500  1
  N  N4  1  0.32555500  0.93645100  0.22573400  1
  N  N5  1  0.22573400  0.32555500  0.93645100  1
  N  N6  1  0.05044900  0.89454000  0.68744600  1
  N  N7  1  0.68744600  0.05044900  0.89454000  1
  N  N8  1  0.89454000  0.68744600  0.05044900  1
  N  N9  1  0.94955100  0.10546000  0.31255400  1
  N  N10  1  0.31255400  0.94955100  0.10546000  1
  N  N11  1  0.10546000  0.31255400  0.94955100  1
  N  N12  1  0.54353500  0.26062700  0.16571800  1
  N  N13  1  0.16571800  0.54353500  0.26062700  1
  N  N14  1  0.26062700  0.16571800  0.54353500  1
  N  N15  1  0.45646500  0.73937300  0.83428200  1
  N  N16  1  0.83428200  0.45646500  0.73937300  1
  N  N17  1  0.73937300  0.83428200  0.45646500  1
  N  N18  1  0.53167800  0.38167000  0.18131100  1
  N  N19  1  0.18131100  0.53167800  0.38167000  1
  N  N20  1  0.38167000  0.18131100  0.53167800  1
  N  N21  1  0.46832200  0.61833000  0.81868900  1
  N  N22  1  0.81868900  0.46832200  0.61833000  1
  N  N23  1  0.61833000  0.81868900  0.46832200  1
  Cl  Cl0  1  0.83158800  0.16521200  0.55748000  1
  Cl  Cl1  1  0.55748000  0.83158800  0.16521200  1
  Cl  Cl2  1  0.16521200  0.55748000  0.83158800  1
  Cl  Cl3  1  0.16841200  0.83478800  0.44252000  1
  Cl  Cl4  1  0.44252000  0.16841200  0.83478800  1
  Cl  Cl5  1  0.83478800  0.44252000  0.16841200  1
  O  O0  1  0.99829800  0.83789700  0.85670300  1
  O  O1  1  0.85670300  0.99829800  0.83789700  1
  O  O2  1  0.83789700  0.85670300  0.99829800  1
  O  O3  1  0.00170200  0.16210300  0.14329700  1
  O  O4  1  0.14329700  0.00170200  0.16210300  1
  O  O5  1  0.16210300  0.14329700  0.00170200  1
  O  O6  1  0.49674200  0.33364600  0.36162900  1
  O  O7  1  0.36162900  0.49674200  0.33364600  1
  O  O8  1  0.33364600  0.36162900  0.49674200  1
  O  O9  1  0.50325800  0.66635400  0.63837100  1
  O  O10  1  0.63837100  0.50325800  0.66635400  1
  O  O11  1  0.66635400  0.63837100  0.50325800  1
  O  O12  1  0.91416000  0.58104900  0.32534200  1
  O  O13  1  0.32534200  0.91416000  0.58104900  1
  O  O14  1  0.58104900  0.32534200  0.91416000  1
  O  O15  1  0.08584000  0.41895100  0.67465800  1
  O  O16  1  0.67465800  0.08584000  0.41895100  1
  O  O17  1  0.41895100  0.67465800  0.08584000  1
loop_
_geom_bond_atom_site_label_1
_geom_bond_atom_site_label_2
_geom_bond_distance
_geom_bond_site_symmetry_2
Cr0 O5 2.029962 1_555
Cr0 O2 2.029962 1_444
Cr0 O1 2.029962 1_444
Cr0 O4 2.029962 1_555
Cr0 O0 2.029962 1_444
Cr0 O3 2.029962 1_555
Cr1 O8 2.024191 1_555
Cr1 O11 2.024191 1_555
Cr1 O7 2.024191 1_555
Cr1 O10 2.024191 1_555
Cr1 O6 2.024191 1_555
Cr1 O9 2.024191 1_555
C0 O0 1.249617 1_455
C0 N0 1.342224 1_555
C0 N6 1.345508 1_555
C1 O1 1.249617 1_545
C1 N1 1.342224 1_555
C1 N7 1.345508 1_555
C2 O2 1.249617 1_554
C2 N2 1.342224 1_555
C2 N8 1.345508 1_555
C3 O3 1.249617 1_655
C3 N3 1.342224 1_555
C3 N9 1.345508 1_555
C4 O4 1.249617 1_565
C4 N4 1.342224 1_555
C4 N10 1.345508 1_555
C5 O5 1.249617 1_556
C5 N5 1.342224 1_555
C5 N11 1.345508 1_555
C6 O6 1.246694 1_555
C6 N12 1.343299 1_555
C6 N18 1.346203 1_555
C7 O7 1.246694 1_555
C7 N13 1.343299 1_555
C7 N19 1.346203 1_555
C8 O8 1.246694 1_555
C8 N14 1.343298 1_555
C8 N20 1.346203 1_555
C9 O9 1.246694 1_555
C9 N15 1.343299 1_555
C9 N21 1.346203 1_555
C10 O10 1.246694 1_555
C10 N16 1.343299 1_555
C10 N22 1.346203 1_555
C11 O11 1.246694 1_555
C11 N17 1.343298 1_555
C11 N23 1.346203 1_555
N0 N6 1.433485 1_555
N1 N7 1.433485 1_555
N2 N8 1.433485 1_555
N3 N9 1.433485 1_555
N10 N4 1.433485 1_555
N11 N5 1.433485 1_555
N12 N18 1.429133 1_555
N13 N19 1.429133 1_555
N14 N20 1.429133 1_555
N15 N21 1.429133 1_555
N16 N22 1.429133 1_555
N17 N23 1.429133 1_555
Cl0 O16 1.574970 1_555
Cl1 O17 1.574970 1_555
Cl2 O15 1.574970 1_555
Cl3 O13 1.574970 1_555
Cl4 O14 1.574970 1_555
Cl5 O12 1.574970 1_555
