# generated using pymatgen
data_Sc3Tl
_symmetry_space_group_name_H-M   'P 1'
_cell_length_a   6.39113542
_cell_length_b   6.39113230
_cell_length_c   5.23929315
_cell_angle_alpha   90.00000000
_cell_angle_beta   90.00000000
_cell_angle_gamma   119.99996049
_symmetry_Int_Tables_number   1
_chemical_formula_structural   Sc3Tl
_chemical_formula_sum   'Sc6 Tl2'
_cell_volume   185.33580601
_cell_formula_units_Z   2
loop_
 _symmetry_equiv_pos_site_id
 _symmetry_equiv_pos_as_xyz
  1  'x, y, z'
loop_
 _atom_site_type_symbol
 _atom_site_label
 _atom_site_symmetry_multiplicity
 _atom_site_fract_x
 _atom_site_fract_y
 _atom_site_fract_z
 _atom_site_occupancy
  Sc  Sc0  1  0.16888368  0.33776203  0.25000000  1
  Sc  Sc1  1  0.66223602  0.83111722  0.25000000  1
  Sc  Sc2  1  0.16888172  0.83111911  0.25000000  1
  Sc  Sc3  1  0.83111590  0.66223685  0.75000000  1
  Sc  Sc4  1  0.33776475  0.16888321  0.75000000  1
  Sc  Sc5  1  0.83111947  0.16888004  0.75000000  1
  Tl  Tl0  1  0.33333303  0.66666501  0.75000000  1
  Tl  Tl1  1  0.66666744  0.33333252  0.25000000  1
loop_
_geom_bond_atom_site_label_1
_geom_bond_atom_site_label_2
_geom_bond_distance
_geom_bond_site_symmetry_2
Sc0 Sc1 3.153092 1_555
Sc0 Sc2 3.153117 1_555
Sc0 Tl0 3.190071 1_555
Sc0 Tl0 3.190071 1_554
Sc0 Tl1 3.195652 1_555
Sc0 Tl1 3.195671 1_455
Sc0 Sc4 3.218297 1_555
Sc0 Sc4 3.218297 1_554
Sc0 Sc5 3.218312 1_454
Sc0 Sc5 3.218312 1_455
Sc0 Sc2 3.238016 1_545
Sc0 Sc1 3.238046 1_445
Sc1 Sc2 3.153100 1_555
Sc1 Tl0 3.190071 1_555
Sc1 Tl0 3.190071 1_554
Sc1 Tl1 3.195658 1_565
Sc1 Tl1 3.195663 1_555
Sc1 Sc3 3.218298 1_554
Sc1 Sc3 3.218298 1_555
Sc1 Sc5 3.218307 1_565
Sc1 Sc5 3.218307 1_564
Sc1 Sc2 3.238035 1_655
Sc2 Tl0 3.190078 1_555
Sc2 Tl0 3.190078 1_554
Sc2 Tl1 3.195660 1_565
Sc2 Tl1 3.195666 1_455
Sc2 Sc4 3.218311 1_565
Sc2 Sc4 3.218311 1_564
Sc2 Sc3 3.218317 1_455
Sc2 Sc3 3.218317 1_454
Sc3 Sc4 3.153083 1_555
Sc3 Sc5 3.153120 1_555
Sc3 Tl1 3.190075 1_556
Sc3 Tl1 3.190075 1_555
Sc3 Tl0 3.195642 1_555
Sc3 Tl0 3.195681 1_655
Sc3 Sc5 3.238012 1_565
Sc3 Sc4 3.238055 1_665
Sc4 Sc5 3.153107 1_555
Sc4 Tl1 3.190070 1_556
Sc4 Tl1 3.190070 1_555
Sc4 Tl0 3.195645 1_555
Sc4 Tl0 3.195675 1_545
Sc4 Sc5 3.238028 1_455
Sc5 Tl1 3.190075 1_556
Sc5 Tl1 3.190075 1_555
Sc5 Tl0 3.195658 1_655
Sc5 Tl0 3.195668 1_545
