# generated using pymatgen
data_UGaRh
_symmetry_space_group_name_H-M   'P 1'
_cell_length_a   6.87686373
_cell_length_b   6.87619093
_cell_length_c   4.09495037
_cell_angle_alpha   90.00000000
_cell_angle_beta   90.00000000
_cell_angle_gamma   120.00196496
_symmetry_Int_Tables_number   1
_chemical_formula_structural   UGaRh
_chemical_formula_sum   'U3 Ga3 Rh3'
_cell_volume   167.69071670
_cell_formula_units_Z   3
loop_
 _symmetry_equiv_pos_site_id
 _symmetry_equiv_pos_as_xyz
  1  'x, y, z'
loop_
 _atom_site_type_symbol
 _atom_site_label
 _atom_site_symmetry_multiplicity
 _atom_site_fract_x
 _atom_site_fract_y
 _atom_site_fract_z
 _atom_site_occupancy
  U  U0  1  0.42702542  0.42700452  0.50000000  1
  U  U1  1  0.57300190  -0.00000007  0.50000000  1
  U  U2  1  0.00002213  0.57299777  0.50000000  1
  Ga  Ga0  1  0.76370080  0.76380267  0.00000000  1
  Ga  Ga1  1  0.23633335  -0.00000536  0.00000000  1
  Ga  Ga2  1  -0.00010593  0.23619952  0.00000000  1
  Rh  Rh0  1  0.66664907  0.33324346  -0.00000000  1
  Rh  Rh1  1  0.33340835  0.66675534  -0.00000000  1
  Rh  Rh2  1  0.99996391  0.00000116  0.50000000  1
loop_
_geom_bond_atom_site_label_1
_geom_bond_atom_site_label_2
_geom_bond_distance
_geom_bond_site_symmetry_2
Ga0 Rh2 2.613585 1_564
Ga0 Rh2 2.613585 1_565
Ga0 Rh1 2.688236 1_555
Ga0 Rh0 2.689716 1_555
Ga0 Ga2 2.813047 1_665
Ga0 Ga1 2.814726 1_665
Ga0 U0 3.090913 1_555
Ga0 U0 3.090913 1_554
Ga0 U1 3.267998 1_565
Ga0 U1 3.267998 1_564
Ga0 U2 3.269095 1_655
Ga0 U2 3.269095 1_654
Ga1 Rh2 2.614271 1_454
Ga1 Rh2 2.614271 1_455
Ga1 Rh1 2.688126 1_545
Ga1 Rh0 2.688211 1_555
Ga1 Ga2 2.814741 1_555
Ga1 U1 3.090685 1_554
Ga1 U1 3.090685 1_555
Ga1 U2 3.268347 1_545
Ga1 U2 3.268347 1_544
Ga1 U0 3.268402 1_555
Ga1 U0 3.268402 1_554
Ga2 Rh2 2.613576 1_454
Ga2 Rh2 2.613576 1_455
Ga2 Rh0 2.688195 1_455
Ga2 Rh1 2.689749 1_555
Ga2 U2 3.090867 1_554
Ga2 U2 3.090867 1_555
Ga2 U1 3.268022 1_454
Ga2 U1 3.268022 1_455
Ga2 U0 3.269154 1_555
Ga2 U0 3.269154 1_554
Rh0 U1 2.895140 1_554
Rh0 U1 2.895140 1_555
Rh0 U0 2.895812 1_555
Rh0 U0 2.895812 1_554
Rh0 U2 2.895881 1_655
Rh0 U2 2.895881 1_654
Rh1 U1 2.895156 1_565
Rh1 U1 2.895156 1_564
Rh1 U0 2.895827 1_555
Rh1 U0 2.895827 1_554
Rh1 U2 2.895840 1_555
Rh1 U2 2.895840 1_554
Rh2 U1 2.936155 1_555
Rh2 U2 2.936357 1_645
Rh2 U0 2.936413 1_655
