# generated using pymatgen
data_Zr5SnPb3
_symmetry_space_group_name_H-M   'P 1'
_cell_length_a   8.93135535
_cell_length_b   8.93135535
_cell_length_c   6.01380073
_cell_angle_alpha   90.00000000
_cell_angle_beta   90.00000000
_cell_angle_gamma   119.99999136
_symmetry_Int_Tables_number   1
_chemical_formula_structural   Zr5SnPb3
_chemical_formula_sum   'Zr10 Sn2 Pb6'
_cell_volume   415.44586538
_cell_formula_units_Z   2
loop_
 _symmetry_equiv_pos_site_id
 _symmetry_equiv_pos_as_xyz
  1  'x, y, z'
loop_
 _atom_site_type_symbol
 _atom_site_label
 _atom_site_symmetry_multiplicity
 _atom_site_fract_x
 _atom_site_fract_y
 _atom_site_fract_z
 _atom_site_occupancy
  Zr  Zr0  1  0.66666700  0.33333300  0.00000000  1
  Zr  Zr1  1  0.33333300  0.66666700  0.00000000  1
  Zr  Zr2  1  0.33333300  0.66666700  0.50000000  1
  Zr  Zr3  1  0.66666700  0.33333300  0.50000000  1
  Zr  Zr4  1  0.72194522  0.72194522  0.75000000  1
  Zr  Zr5  1  0.27805478  0.00000000  0.75000000  1
  Zr  Zr6  1  0.00000000  0.27805478  0.75000000  1
  Zr  Zr7  1  0.27805478  0.27805478  0.25000000  1
  Zr  Zr8  1  0.72194522  -0.00000000  0.25000000  1
  Zr  Zr9  1  -0.00000000  0.72194522  0.25000000  1
  Sn  Sn0  1  -0.00000000  -0.00000000  0.00000000  1
  Sn  Sn1  1  -0.00000000  -0.00000000  0.50000000  1
  Pb  Pb0  1  0.38644441  0.38644441  0.75000000  1
  Pb  Pb1  1  0.61355559  0.00000000  0.75000000  1
  Pb  Pb2  1  0.00000000  0.61355559  0.75000000  1
  Pb  Pb3  1  0.61355559  0.61355559  0.25000000  1
  Pb  Pb4  1  0.38644441  -0.00000000  0.25000000  1
  Pb  Pb5  1  -0.00000000  0.38644441  0.25000000  1
loop_
_geom_bond_atom_site_label_1
_geom_bond_atom_site_label_2
_geom_bond_distance
_geom_bond_site_symmetry_2
Sn0 Zr8 2.903045 1_455
Sn0 Zr9 2.903045 1_545
Sn0 Zr5 2.903045 1_554
Sn0 Zr6 2.903045 1_554
Sn0 Zr4 2.903045 1_444
Sn0 Zr7 2.903045 1_555
Sn1 Zr8 2.903045 1_455
Sn1 Zr9 2.903045 1_545
Sn1 Zr6 2.903045 1_555
Sn1 Zr5 2.903045 1_555
Sn1 Zr4 2.903045 1_445
Sn1 Zr7 2.903045 1_555
Pb0 Zr4 2.996477 1_555
Pb0 Zr6 3.083595 1_555
Pb0 Zr5 3.083595 1_555
Pb0 Zr1 3.152210 1_556
Pb0 Zr3 3.152210 1_555
Pb0 Zr2 3.152210 1_555
Pb0 Zr0 3.152210 1_556
Pb0 Zr7 3.158893 1_556
Pb0 Zr7 3.158893 1_555
Pb1 Zr5 2.996477 1_555
Pb1 Zr4 3.083595 1_545
Pb1 Zr6 3.083596 1_655
Pb1 Zr3 3.152202 1_555
Pb1 Zr0 3.152202 1_556
Pb1 Zr1 3.152205 1_546
Pb1 Zr2 3.152205 1_545
Pb1 Zr8 3.158893 1_556
Pb1 Zr8 3.158893 1_555
Pb2 Zr6 2.996477 1_555
Pb2 Zr4 3.083595 1_455
Pb2 Zr5 3.083596 1_565
Pb2 Zr1 3.152202 1_556
Pb2 Zr2 3.152202 1_555
Pb2 Zr3 3.152205 1_455
Pb2 Zr0 3.152205 1_456
Pb2 Zr9 3.158893 1_556
Pb2 Zr9 3.158893 1_555
Pb3 Zr7 2.996477 1_555
Pb3 Zr8 3.083595 1_565
Pb3 Zr9 3.083595 1_655
Pb3 Zr3 3.152210 1_555
Pb3 Zr0 3.152210 1_555
Pb3 Zr2 3.152210 1_555
Pb3 Zr1 3.152210 1_555
Pb3 Zr4 3.158893 1_555
Pb3 Zr4 3.158893 1_554
Pb4 Zr8 2.996477 1_555
Pb4 Zr7 3.083595 1_555
Pb4 Zr9 3.083596 1_545
Pb4 Zr2 3.152202 1_545
Pb4 Zr1 3.152202 1_545
Pb4 Zr3 3.152205 1_555
Pb4 Zr0 3.152205 1_555
Pb4 Zr5 3.158893 1_555
Pb4 Zr5 3.158893 1_554
Pb5 Zr9 2.996477 1_555
Pb5 Zr7 3.083595 1_555
Pb5 Zr8 3.083596 1_455
Pb5 Zr3 3.152202 1_455
Pb5 Zr0 3.152202 1_455
Pb5 Zr1 3.152205 1_555
Pb5 Zr2 3.152205 1_555
Pb5 Zr6 3.158893 1_555
Pb5 Zr6 3.158893 1_554
