# generated using pymatgen
data_PrZn(AgO3)2
_symmetry_space_group_name_H-M   'P 1'
_cell_length_a   5.41488800
_cell_length_b   5.77007600
_cell_length_c   8.17108100
_cell_angle_alpha   90.00000000
_cell_angle_beta   90.00000000
_cell_angle_gamma   90.00000000
_symmetry_Int_Tables_number   1
_chemical_formula_structural   PrZn(AgO3)2
_chemical_formula_sum   'Pr2 Zn2 Ag4 O12'
_cell_volume   255.29983104
_cell_formula_units_Z   2
loop_
 _symmetry_equiv_pos_site_id
 _symmetry_equiv_pos_as_xyz
  1  'x, y, z'
loop_
 _atom_site_type_symbol
 _atom_site_label
 _atom_site_symmetry_multiplicity
 _atom_site_fract_x
 _atom_site_fract_y
 _atom_site_fract_z
 _atom_site_occupancy
  Pr  Pr0  1  0.02092000  0.67906700  0.00000000  1
  Pr  Pr1  1  0.52092000  0.32093300  0.50000000  1
  Zn  Zn0  1  0.46920800  0.18628500  0.00000000  1
  Zn  Zn1  1  0.96920800  0.81371500  0.50000000  1
  Ag  Ag0  1  0.99958400  0.24336900  0.75247200  1
  Ag  Ag1  1  0.99958400  0.24336900  0.24752800  1
  Ag  Ag2  1  0.49958400  0.75663100  0.25247200  1
  Ag  Ag3  1  0.49958400  0.75663100  0.74752800  1
  O  O0  1  0.11194100  0.17398600  0.50000000  1
  O  O1  1  0.22104200  0.97434800  0.83458800  1
  O  O2  1  0.22104200  0.97434800  0.16541200  1
  O  O3  1  0.31376600  0.43783900  0.17727900  1
  O  O4  1  0.31376600  0.43783900  0.82272100  1
  O  O5  1  0.32659700  0.69890200  0.50000000  1
  O  O6  1  0.61194100  0.82601400  0.00000000  1
  O  O7  1  0.72104200  0.02565200  0.66541200  1
  O  O8  1  0.72104200  0.02565200  0.33458800  1
  O  O9  1  0.81376600  0.56216100  0.67727900  1
  O  O10  1  0.81376600  0.56216100  0.32272100  1
  O  O11  1  0.82659700  0.30109800  0.00000000  1
loop_
_geom_bond_atom_site_label_1
_geom_bond_atom_site_label_2
_geom_bond_distance
_geom_bond_site_symmetry_2
Ag0 O1 2.073105 1_645
Ag0 O7 2.087844 1_555
Ag0 O4 2.117286 1_655
Ag0 O9 2.184833 1_555
Ag0 O0 2.187754 1_655
Ag0 O11 2.253701 1_556
Ag1 O2 2.073105 1_645
Ag1 O8 2.087844 1_555
Ag1 O3 2.117286 1_655
Ag1 O10 2.184833 1_555
Ag1 O0 2.187754 1_655
Ag1 O11 2.253701 1_555
Ag2 O8 2.073105 1_565
Ag2 O2 2.087844 1_555
Ag2 O10 2.117286 1_555
Ag2 O3 2.184833 1_555
Ag2 O6 2.187754 1_555
Ag2 O5 2.253701 1_555
Ag3 O7 2.073105 1_565
Ag3 O1 2.087844 1_555
Ag3 O9 2.117286 1_555
Ag3 O4 2.184833 1_555
Ag3 O6 2.187754 1_556
Ag3 O5 2.253701 1_555
O0 Zn1 2.217819 1_445
O0 Pr1 2.371344 1_555
O1 Zn0 2.264520 1_566
O1 Pr0 2.429814 1_556
O2 Zn0 2.264520 1_565
O2 Pr0 2.429814 1_555
O3 Zn0 2.216664 1_555
O3 Pr0 2.559348 1_555
O3 Pr1 2.943966 1_555
O4 Zn0 2.216664 1_556
O4 Pr0 2.559348 1_556
O4 Pr1 2.943966 1_555
O5 Zn1 2.045473 1_455
O5 Pr1 2.421481 1_555
O6 Zn0 2.217819 1_565
O6 Pr0 2.371344 1_655
O7 Zn1 2.264520 1_545
O7 Pr1 2.429814 1_555
O8 Zn1 2.264520 1_545
O8 Pr1 2.429814 1_555
O9 Zn1 2.216664 1_555
O9 Pr1 2.559348 1_555
O9 Pr0 2.943966 1_656
O10 Zn1 2.216664 1_555
O10 Pr1 2.559348 1_555
O10 Pr0 2.943966 1_655
O11 Zn0 2.045473 1_555
O11 Pr0 2.421481 1_655
