# generated using pymatgen
data_LiMnPO5
_symmetry_space_group_name_H-M   'P 1'
_cell_length_a   5.17989019
_cell_length_b   6.93803572
_cell_length_c   10.27596678
_cell_angle_alpha   76.82840957
_cell_angle_beta   98.12029334
_cell_angle_gamma   72.52584848
_symmetry_Int_Tables_number   1
_chemical_formula_structural   LiMnPO5
_chemical_formula_sum   'Li4 Mn4 P4 O20'
_cell_volume   334.13602092
_cell_formula_units_Z   4
loop_
 _symmetry_equiv_pos_site_id
 _symmetry_equiv_pos_as_xyz
  1  'x, y, z'
loop_
 _atom_site_type_symbol
 _atom_site_label
 _atom_site_symmetry_multiplicity
 _atom_site_fract_x
 _atom_site_fract_y
 _atom_site_fract_z
 _atom_site_occupancy
  Li  Li0  1  0.44817000  0.58186100  0.17708600  1
  Li  Li1  1  0.94825900  0.08181000  0.67706500  1
  Li  Li2  1  0.05189800  0.91815400  0.32293100  1
  Li  Li3  1  0.55182000  0.41816300  0.82293700  1
  Mn  Mn0  1  0.49999000  0.50008600  0.50001100  1
  Mn  Mn1  1  0.99996100  0.49999500  0.00001400  1
  Mn  Mn2  1  0.99993400  0.00001700  0.99997900  1
  Mn  Mn3  1  0.50001700  0.99989500  0.49998400  1
  P  P0  1  0.00046200  0.43402000  0.32319000  1
  P  P1  1  0.50043000  0.93400900  0.82315500  1
  P  P2  1  0.49952200  0.06596800  0.17680900  1
  P  P3  1  0.99954900  0.56598200  0.67684800  1
  O  O0  1  0.28119300  0.95260500  0.16553600  1
  O  O1  1  0.78118600  0.45264900  0.66557600  1
  O  O2  1  0.21870800  0.54744900  0.33449500  1
  O  O3  1  0.71871100  0.04740700  0.83445600  1
  O  O4  1  0.36348000  0.30751800  0.11059900  1
  O  O5  1  0.86358700  0.80755200  0.61061300  1
  O  O6  1  0.13658800  0.19251200  0.38937700  1
  O  O7  1  0.63648300  0.69247400  0.88936200  1
  O  O8  1  0.64123100  0.01599300  0.33042600  1
  O  O9  1  0.14120000  0.51597200  0.83048800  1
  O  O10  1  0.85881400  0.48403600  0.16957000  1
  O  O11  1  0.35885500  0.98405300  0.66952000  1
  O  O12  1  0.74552100  0.96286400  0.11712500  1
  O  O13  1  0.24559200  0.46286600  0.61718500  1
  O  O14  1  0.75440400  0.53706200  0.38284800  1
  O  O15  1  0.25433000  0.03706600  0.88278900  1
  O  O16  1  0.13025100  0.71230300  0.02629700  1
  O  O17  1  0.63035800  0.21231500  0.52631100  1
  O  O18  1  0.36978700  0.78768800  0.47371700  1
  O  O19  1  0.86971000  0.28765500  0.97370300  1
loop_
_geom_bond_atom_site_label_1
_geom_bond_atom_site_label_2
_geom_bond_distance
_geom_bond_site_symmetry_2
Li0 O16 1.917529 1_555
Li0 O10 2.048030 1_555
Li0 O2 2.150280 1_555
Li0 O4 2.300350 1_555
Li0 O14 2.353808 1_555
Li0 O0 2.423704 1_555
Li1 O17 1.917278 1_555
Li1 O11 2.047859 1_645
Li1 O3 2.150433 1_555
Li1 O5 2.299587 1_545
Li1 O15 2.353182 1_655
Li1 O1 2.424494 1_555
Li2 O18 1.917423 1_555
Li2 O8 2.048089 1_465
Li2 O0 2.149594 1_555
Li2 O6 2.300256 1_565
Li2 O12 2.354703 1_455
Li2 O2 2.423387 1_555
Li3 O19 1.917316 1_555
Li3 O9 2.048003 1_555
Li3 O1 2.149593 1_555
Li3 O7 2.299791 1_555
Li3 O13 2.353896 1_555
Li3 O3 2.423846 1_555
Mn0 O18 1.845013 1_555
Mn0 O17 1.846121 1_555
Mn0 O14 1.939725 1_555
Mn0 O13 1.940066 1_555
Mn0 O1 1.970102 1_555
Mn0 O2 1.970121 1_555
Mn1 O16 1.850669 1_655
Mn1 O19 1.850839 1_554
Mn1 O4 1.952971 1_655
Mn1 O7 1.953031 1_554
Mn1 O9 1.975599 1_654
Mn1 O10 1.975643 1_555
Mn2 O19 1.845278 1_555
Mn2 O16 1.845717 1_646
Mn2 O12 1.939841 1_546
Mn2 O15 1.939939 1_655
Mn2 O3 1.969952 1_555
Mn2 O0 1.970271 1_646
Mn3 O18 1.849785 1_555
Mn3 O17 1.851677 1_565
Mn3 O6 1.952976 1_565
Mn3 O5 1.953038 1_555
Mn3 O11 1.975521 1_555
Mn3 O8 1.975807 1_565
O0 P2 1.565153 1_565
O1 P3 1.565151 1_555
O2 P0 1.565148 1_555
O3 P1 1.565142 1_545
O4 P2 1.550403 1_555
O5 P3 1.550525 1_555
O6 P0 1.550156 1_555
O7 P1 1.550315 1_555
O8 P2 1.556041 1_555
O9 P3 1.556138 1_455
O10 P0 1.555943 1_655
O11 P1 1.555954 1_555
O12 P2 1.544304 1_565
O13 P3 1.544366 1_455
O14 P0 1.544234 1_655
O15 P1 1.544275 1_545
