# generated using pymatgen
data_Ba6CaNb2Ir(ClO6)2
_symmetry_space_group_name_H-M   'P 1'
_cell_length_a   6.07569711
_cell_length_b   6.07536730
_cell_length_c   15.22176150
_cell_angle_alpha   89.99909221
_cell_angle_beta   90.00594001
_cell_angle_gamma   120.01082548
_symmetry_Int_Tables_number   1
_chemical_formula_structural   Ba6CaNb2Ir(ClO6)2
_chemical_formula_sum   'Ba6 Ca1 Nb2 Ir1 Cl2 O12'
_cell_volume   486.53805060
_cell_formula_units_Z   1
loop_
 _symmetry_equiv_pos_site_id
 _symmetry_equiv_pos_as_xyz
  1  'x, y, z'
loop_
 _atom_site_type_symbol
 _atom_site_label
 _atom_site_symmetry_multiplicity
 _atom_site_fract_x
 _atom_site_fract_y
 _atom_site_fract_z
 _atom_site_occupancy
  Ba  Ba0  1  0.33344285  0.66665733  0.35301112  1
  Ba  Ba1  1  0.33321318  0.66672617  0.79593003  1
  Ba  Ba2  1  0.66655715  0.33334267  0.64698888  1
  Ba  Ba3  1  0.66664473  0.33332738  0.93381182  1
  Ba  Ba4  1  0.33335527  0.66667262  0.06618818  1
  Ba  Ba5  1  0.66678682  0.33327383  0.20406997  1
  Ca  Ca0  1  0.00000000  -0.00000000  0.50000000  1
  Nb  Nb0  1  0.00007092  0.00000061  0.81820814  1
  Nb  Nb1  1  -0.00007092  0.99999939  0.18179186  1
  Ir  Ir0  1  0.00000000  -0.00000000  0.00000000  1
  Cl  Cl0  1  0.66660243  0.33394464  0.42996981  1
  Cl  Cl1  1  0.33339757  0.66605536  0.57003019  1
  O  O0  1  0.15455140  0.30917590  0.91667404  1
  O  O1  1  0.32064687  0.16033309  0.75881480  1
  O  O2  1  0.16037148  0.32070876  0.24118865  1
  O  O3  1  0.83962852  0.67929124  0.75881135  1
  O  O4  1  0.83967905  0.16033091  0.75878911  1
  O  O5  1  0.84544860  0.69082410  0.08332596  1
  O  O6  1  0.16032095  0.83966909  0.24121089  1
  O  O7  1  0.30914673  0.15454438  0.08331759  1
  O  O8  1  0.84544795  0.15457092  0.08335806  1
  O  O9  1  0.69085327  0.84545562  0.91668241  1
  O  O10  1  0.67935313  0.83966691  0.24118520  1
  O  O11  1  0.15455205  0.84542908  0.91664194  1
loop_
_geom_bond_atom_site_label_1
_geom_bond_atom_site_label_2
_geom_bond_distance
_geom_bond_site_symmetry_2
Ba0 O2 2.491855 1_555
Ba0 O10 2.492006 1_555
Ba0 O6 2.492555 1_555
Ba0 Cl1 3.303414 1_555
Ba0 Cl0 3.694291 1_555
Ba0 Cl0 3.698871 1_455
Ba0 Cl0 3.700750 1_565
Ba1 O11 2.629179 1_555
Ba1 O0 2.629929 1_555
Ba1 O9 2.630229 1_555
Ba1 O3 3.089812 1_455
Ba1 O1 3.089829 1_565
Ba1 O4 3.089916 1_455
Ba1 O4 3.090443 1_565
Ba1 O1 3.091130 1_555
Ba1 O3 3.091493 1_555
Ba1 Cl1 3.438597 1_555
Ba2 O3 2.491855 1_555
Ba2 O1 2.492006 1_555
Ba2 O4 2.492555 1_555
Ba2 Cl0 3.303414 1_555
Ba2 Cl1 3.694291 1_555
Ba2 Cl1 3.698871 1_655
Ba2 Cl1 3.700750 1_545
Ba3 O5 2.952353 1_556
Ba3 O7 2.952545 1_556
Ba3 O8 2.953130 1_556
Ba3 O11 3.051107 1_545
Ba3 O11 3.051192 1_655
Ba3 O9 3.051401 1_545
Ba3 O0 3.051615 1_655
Ba3 O9 3.051627 1_555
Ba3 O0 3.051734 1_555
Ba3 O1 3.226175 1_555
Ba3 O3 3.226290 1_555
Ba3 O4 3.227005 1_555
Ba4 O0 2.952353 1_554
Ba4 O9 2.952545 1_554
Ba4 O11 2.953130 1_554
Ba4 O8 3.051107 1_565
Ba4 O8 3.051192 1_455
Ba4 O7 3.051401 1_565
Ba4 O5 3.051615 1_455
Ba4 O7 3.051627 1_555
Ba4 O5 3.051734 1_555
Ba4 O10 3.226175 1_555
Ba4 O2 3.226290 1_555
Ba4 O6 3.227005 1_555
Ba5 O8 2.629179 1_555
Ba5 O5 2.629929 1_555
Ba5 O7 2.630229 1_555
Ba5 O2 3.089812 1_655
Ba5 O10 3.089829 1_545
Ba5 O6 3.089916 1_655
Ba5 O6 3.090443 1_545
Ba5 O10 3.091130 1_555
Ba5 O2 3.091493 1_555
Ba5 Cl0 3.438597 1_555
Nb0 O1 1.913708 1_555
Nb0 O3 1.914149 1_445
Nb0 O4 1.914631 1_455
Nb0 O11 2.211146 1_545
Nb0 O0 2.211754 1_555
Nb0 O9 2.212236 1_445
Nb1 O10 1.913708 1_455
Nb1 O2 1.914149 1_565
Nb1 O6 1.914631 1_555
Nb1 O8 2.211146 1_465
Nb1 O5 2.211754 1_455
Nb1 O7 2.212236 1_565
Ir0 O7 2.062367 1_555
Ir0 O9 2.062367 1_444
Ir0 O5 2.062649 1_445
Ir0 O0 2.062649 1_554
Ir0 O11 2.063002 1_544
Ir0 O8 2.063002 1_455
