# generated using pymatgen
data_SrLa3MgAlO8
_symmetry_space_group_name_H-M   'P 1'
_cell_length_a   6.88233845
_cell_length_b   6.88233845
_cell_length_c   5.43734600
_cell_angle_alpha   90.00000000
_cell_angle_beta   90.00000000
_cell_angle_gamma   133.23565061
_symmetry_Int_Tables_number   1
_chemical_formula_structural   SrLa3MgAlO8
_chemical_formula_sum   'Sr1 La3 Mg1 Al1 O8'
_cell_volume   187.63503870
_cell_formula_units_Z   1
loop_
 _symmetry_equiv_pos_site_id
 _symmetry_equiv_pos_as_xyz
  1  'x, y, z'
loop_
 _atom_site_type_symbol
 _atom_site_label
 _atom_site_symmetry_multiplicity
 _atom_site_fract_x
 _atom_site_fract_y
 _atom_site_fract_z
 _atom_site_occupancy
  Sr  Sr0  1  0.14235100  0.85764900  0.50000000  1
  La  La0  1  0.63801900  0.36198100  0.00000000  1
  La  La1  1  0.35940800  0.64059200  0.00000000  1
  La  La2  1  0.86168800  0.13831200  0.50000000  1
  Mg  Mg0  1  0.00395700  0.99604300  0.00000000  1
  Al  Al0  1  0.49734400  0.50265600  0.50000000  1
  O  O0  1  0.82382900  0.17617100  0.00000000  1
  O  O1  1  0.33776800  0.66223200  0.50000000  1
  O  O2  1  0.67033500  0.32966500  0.50000000  1
  O  O3  1  0.17502300  0.82497700  0.00000000  1
  O  O4  1  0.73675300  0.74161500  0.74361900  1
  O  O5  1  0.25838500  0.26324700  0.25638100  1
  O  O6  1  0.25838500  0.26324700  0.74361900  1
  O  O7  1  0.73675300  0.74161500  0.25638100  1
loop_
_geom_bond_atom_site_label_1
_geom_bond_atom_site_label_2
_geom_bond_distance
_geom_bond_site_symmetry_2
La0 O0 2.347579 1_555
La0 O7 2.607546 1_555
La0 O4 2.607546 1_554
La0 O5 2.607546 1_555
La0 O6 2.607546 1_554
La0 O2 2.749161 1_554
La0 O2 2.749161 1_555
La0 O3 2.771064 1_655
La0 O3 2.771064 1_545
La1 O3 2.329575 1_555
La1 O5 2.587952 1_555
La1 O7 2.587952 1_555
La1 O6 2.587952 1_554
La1 O4 2.587952 1_554
La1 O1 2.732386 1_555
La1 O1 2.732386 1_554
La1 O0 2.768084 1_565
La1 O0 2.768084 1_455
La2 O2 2.417610 1_555
La2 O6 2.594584 1_655
La2 O4 2.594584 1_545
La2 O5 2.594584 1_655
La2 O7 2.594584 1_545
La2 O1 2.748009 1_655
La2 O1 2.748009 1_545
La2 O0 2.760430 1_556
La2 O0 2.760430 1_555
Mg0 O7 1.994935 1_455
Mg0 O5 1.994935 1_565
Mg0 O4 1.994935 1_454
Mg0 O6 1.994935 1_564
Mg0 O3 2.161298 1_555
Mg0 O0 2.275790 1_465
Al0 O6 1.860604 1_555
Al0 O4 1.860604 1_555
Al0 O5 1.860604 1_555
Al0 O7 1.860604 1_555
Al0 O1 2.016130 1_555
Al0 O2 2.185619 1_555
O1 Sr0 2.468956 1_555
O2 Sr0 2.754129 1_655
O2 Sr0 2.754129 1_545
O3 Sr0 2.749832 1_554
O3 Sr0 2.749832 1_555
O4 Sr0 2.670326 1_655
O5 Sr0 2.670326 1_545
O6 Sr0 2.670326 1_545
O7 Sr0 2.670326 1_655
