# generated using pymatgen
data_Al2O3
_symmetry_space_group_name_H-M   'P 1'
_cell_length_a   9.92862149
_cell_length_b   11.10129431
_cell_length_c   10.17852293
_cell_angle_alpha   88.70526185
_cell_angle_beta   86.35394027
_cell_angle_gamma   89.75298327
_symmetry_Int_Tables_number   1
_chemical_formula_structural   Al2O3
_chemical_formula_sum   'Al40 O60'
_cell_volume   1119.32112426
_cell_formula_units_Z   20
loop_
 _symmetry_equiv_pos_site_id
 _symmetry_equiv_pos_as_xyz
  1  'x, y, z'
loop_
 _atom_site_type_symbol
 _atom_site_label
 _atom_site_symmetry_multiplicity
 _atom_site_fract_x
 _atom_site_fract_y
 _atom_site_fract_z
 _atom_site_occupancy
  Al  Al0  1  0.15334400  0.51720600  0.52075600  1
  Al  Al1  1  0.66522800  0.14072700  0.73085200  1
  Al  Al2  1  0.94097500  0.69305500  0.37498000  1
  Al  Al3  1  0.30680000  0.59509000  0.87219400  1
  Al  Al4  1  0.44849700  0.99554100  0.63147500  1
  Al  Al5  1  0.90225500  0.34978100  0.73634400  1
  Al  Al6  1  0.18908200  0.20398900  0.50783400  1
  Al  Al7  1  0.41620900  0.14145100  0.87527400  1
  Al  Al8  1  0.25145800  0.19215900  0.19721300  1
  Al  Al9  1  0.82175300  0.56581900  0.63479400  1
  Al  Al10  1  0.74997600  0.57111800  0.90043400  1
  Al  Al11  1  0.84996400  0.06690000  0.00067700  1
  Al  Al12  1  0.69135400  0.01803400  0.44728800  1
  Al  Al13  1  0.68358600  0.84555200  0.94650200  1
  Al  Al14  1  0.03890500  0.70536400  0.75506200  1
  Al  Al15  1  0.96878300  0.31271600  0.04067200  1
  Al  Al16  1  0.12306000  0.18438400  0.81232300  1
  Al  Al17  1  0.13889500  0.94004900  0.34912400  1
  Al  Al18  1  0.55516000  0.91318000  0.24579200  1
  Al  Al19  1  0.18666700  0.92709300  0.81518800  1
  Al  Al20  1  0.46391900  0.17372500  0.42523000  1
  Al  Al21  1  0.20228500  0.74326300  0.03330300  1
  Al  Al22  1  0.43731400  0.63761500  0.36433700  1
  Al  Al23  1  0.96491500  0.15051900  0.29584500  1
  Al  Al24  1  0.27988700  0.77363600  0.56708600  1
  Al  Al25  1  0.92152500  0.13942800  0.54342400  1
  Al  Al26  1  0.86249400  0.94040400  0.74002900  1
  Al  Al27  1  0.67704800  0.33164500  0.96374000  1
  Al  Al28  1  0.63886700  0.40995500  0.43611200  1
  Al  Al29  1  0.51082300  0.56162900  0.60078600  1
  Al  Al30  1  0.46199500  0.41033200  0.21453500  1
  Al  Al31  1  0.67926200  0.77597500  0.61809800  1
  Al  Al32  1  0.50313900  0.70687100  0.09991100  1
  Al  Al33  1  0.91569400  0.41282900  0.43608000  1
  Al  Al34  1  0.10233600  0.02530700  0.07215000  1
  Al  Al35  1  0.84450200  0.52235100  0.18270500  1
  Al  Al36  1  0.35363400  0.34390600  0.99256600  1
  Al  Al37  1  0.17445000  0.49879400  0.14409800  1
  Al  Al38  1  0.86317800  0.86419300  0.20347100  1
  Al  Al39  1  0.35986500  0.37266700  0.67406700  1
  O  O0  1  0.34836700  0.18389300  0.04208400  1
  O  O1  1  0.31227200  0.87815400  0.69566700  1
  O  O2  1  0.83706400  0.70724400  0.53052900  1
  O  O3  1  0.64761400  0.62290800  0.68779200  1
  O  O4  1  0.00445900  0.44896900  0.12437300  1
  O  O5  1  0.77135900  0.43731500  0.54614600  1
  O  O6  1  0.00946000  0.27704700  0.42741500  1
  O  O7  1  0.02173400  0.31567500  0.86604700  1
  O  O8  1  0.00332800  0.83765400  0.31316700  1
  O  O9  1  0.47325100  0.56672900  0.19575400  1
  O  O10  1  0.58492100  0.22929600  0.86315700  1
  O  O11  1  0.07348800  0.16056600  0.65081800  1
  O  O12  1  0.82171100  0.22368200  0.67057000  1
  O  O13  1  0.37557700  0.52756700  0.73285300  1
  O  O14  1  0.83732900  0.99489900  0.58252900  1
  O  O15  1  0.51892600  0.37530300  0.04612300  1
  O  O16  1  0.15496200  0.68259600  0.87627500  1
  O  O17  1  0.55621400  0.88684100  0.06826500  1
  O  O18  1  0.75722000  0.42301400  0.81968300  1
  O  O19  1  0.28702600  0.36995600  0.18030000  1
  O  O20  1  0.29732700  0.20442900  0.35742800  1
  O  O21  1  0.73166100  0.83293100  0.77276900  1
  O  O22  1  0.25118400  0.86296000  0.43489400  1
  O  O23  1  0.80887000  0.23061500  0.03496000  1
  O  O24  1  0.77650900  0.04717700  0.84607200  1
  O  O25  1  0.58634500  0.89865300  0.55366900  1
  O  O26  1  0.58207300  0.56085900  0.42631700  1
  O  O27  1  0.01668200  0.54672700  0.39906800  1
  O  O28  1  0.02561900  0.87068300  0.75775400  1
  O  O29  1  0.65005100  0.68631100  0.97925600  1
  O  O30  1  0.72250100  0.90304700  0.30834100  1
  O  O31  1  0.28927900  0.55198700  0.40603300  1
  O  O32  1  0.85111700  0.67866800  0.22592800  1
  O  O33  1  0.88637500  0.62953200  0.79272600  1
  O  O34  1  0.15734700  0.65277300  0.16528200  1
  O  O35  1  0.79456800  0.41754900  0.30924700  1
  O  O36  1  0.06411000  0.07060500  0.42084900  1
  O  O37  1  0.43242100  0.69778900  0.54293000  1
  O  O38  1  0.02192300  0.08735700  0.93255500  1
  O  O39  1  0.82814700  0.89324800  0.02976300  1
  O  O40  1  0.37439000  0.70338600  0.98067600  1
  O  O41  1  0.07076300  0.21797900  0.15196800  1
  O  O42  1  0.34629300  0.12167600  0.56831200  1
  O  O43  1  0.53155000  0.04799700  0.33465000  1
  O  O44  1  0.59704700  0.12922200  0.55881100  1
  O  O45  1  0.16115200  0.89088400  0.99244000  1
  O  O46  1  0.46988400  0.77341300  0.26502700  1
  O  O47  1  0.81228200  0.13736700  0.39155100  1
  O  O48  1  0.25216500  0.47535700  0.97581200  1
  O  O49  1  0.20977500  0.02401000  0.20330700  1
  O  O50  1  0.14203600  0.66718400  0.61183800  1
  O  O51  1  0.25219300  0.07273800  0.83814600  1
  O  O52  1  0.53357300  0.31698100  0.33867900  1
  O  O53  1  0.51461600  0.03442700  0.78337100  1
  O  O54  1  0.32433100  0.28648200  0.82256600  1
  O  O55  1  0.98607500  0.46417600  0.63052600  1
  O  O56  1  0.76196500  0.47751200  0.04486300  1
  O  O57  1  0.51607100  0.39256200  0.58866600  1
  O  O58  1  0.22297200  0.36222100  0.57303700  1
  O  O59  1  0.93614500  0.02822700  0.16873400  1
loop_
_geom_bond_atom_site_label_1
_geom_bond_atom_site_label_2
_geom_bond_distance
_geom_bond_site_symmetry_2
Al0 O31 1.765745 1_555
Al0 O27 1.916820 1_555
Al0 O50 1.923290 1_555
Al0 O58 1.927818 1_555
Al0 O55 2.023788 1_455
Al1 O10 1.825519 1_555
Al1 O12 1.871890 1_555
Al1 O44 1.924219 1_555
Al1 O24 1.942813 1_555
Al1 O53 1.949228 1_555
Al2 O27 1.805215 1_655
Al2 O8 1.808115 1_655
Al2 O32 1.818647 1_555
Al2 O2 1.843375 1_555
Al3 O13 1.720516 1_555
Al3 O48 1.744548 1_555
Al3 O16 1.788663 1_555
Al3 O40 1.810002 1_555
Al4 O53 1.780267 1_565
Al4 O42 1.853054 1_565
Al4 O25 1.882866 1_555
Al4 O1 1.954162 1_555
Al4 O44 2.180649 1_565
Al5 O12 1.779726 1_555
Al5 O55 1.816230 1_555
Al5 O18 1.822033 1_555
Al5 O7 1.861768 1_655
Al6 O20 1.813613 1_555
Al6 O11 1.851562 1_555
Al6 O58 1.930138 1_555
Al6 O42 1.932561 1_555
Al6 O6 2.156735 1_555
Al6 O36 2.175056 1_555
Al7 O53 1.779108 1_555
Al7 O0 1.856462 1_556
Al7 O51 1.865087 1_555
Al7 O54 1.929435 1_555
Al7 O10 1.937646 1_555
Al8 O20 1.729260 1_555
Al8 O0 1.799985 1_555
Al8 O41 1.899356 1_555
Al8 O49 1.912524 1_555
Al8 O19 2.008248 1_555
Al9 O5 1.794803 1_555
Al9 O2 1.876309 1_555
Al9 O3 1.889268 1_555
Al9 O33 1.918985 1_555
Al9 O55 1.978432 1_555
Al10 O29 1.788146 1_555
Al10 O56 1.790885 1_556
Al10 O33 1.800840 1_555
Al10 O18 1.853775 1_555
Al11 O24 1.794190 1_554
Al11 O38 1.814646 1_654
Al11 O23 1.896184 1_555
Al11 O39 1.954607 1_545
Al11 O59 1.998081 1_555
Al12 O47 1.847022 1_555
Al12 O44 1.899214 1_555
Al12 O30 1.935930 1_545
Al12 O25 1.954308 1_545
Al12 O43 2.037660 1_555
Al12 O14 2.072674 1_545
Al13 O17 1.779534 1_556
Al13 O39 1.800046 1_556
Al13 O21 1.810463 1_555
Al13 O29 1.819720 1_555
Al14 O33 1.752617 1_455
Al14 O16 1.754436 1_555
Al14 O50 1.785400 1_555
Al14 O28 1.840119 1_555
Al15 O4 1.800122 1_655
Al15 O7 1.820816 1_654
Al15 O23 1.838895 1_555
Al15 O41 1.870145 1_655
Al16 O11 1.771489 1_555
Al16 O51 1.806512 1_555
Al16 O7 1.840877 1_555
Al16 O38 1.860008 1_555
Al16 O54 2.310899 1_555
Al17 O22 1.679068 1_555
Al17 O36 1.776087 1_565
Al17 O8 1.825491 1_555
Al17 O49 1.837707 1_565
Al18 O46 1.771764 1_555
Al18 O43 1.773158 1_565
Al18 O30 1.818829 1_555
Al18 O17 1.836346 1_555
Al19 O51 1.771311 1_565
Al19 O1 1.778043 1_555
Al19 O45 1.841395 1_555
Al19 O28 1.853301 1_555
Al20 O43 1.794534 1_555
Al20 O20 1.859557 1_555
Al20 O42 1.889507 1_555
Al20 O52 1.911068 1_555
Al20 O44 2.008090 1_555
Al21 O34 1.696893 1_555
Al21 O45 1.735057 1_554
Al21 O40 1.813991 1_554
Al21 O16 1.837343 1_554
Al22 O31 1.777208 1_555
Al22 O26 1.808377 1_555
Al22 O46 1.814599 1_555
Al22 O9 1.916167 1_555
Al22 O37 1.948437 1_555
Al23 O47 1.753438 1_555
Al23 O36 1.864598 1_655
Al23 O41 1.889813 1_655
Al23 O59 1.930885 1_555
Al23 O6 2.031672 1_655
Al24 O22 1.691440 1_555
Al24 O37 1.736083 1_555
Al24 O1 1.813250 1_555
Al24 O50 1.840549 1_555
Al25 O14 1.836278 1_545
Al25 O12 1.848077 1_555
Al25 O11 1.936697 1_655
Al25 O47 1.944644 1_555
Al25 O36 1.988356 1_655
Al25 O6 2.071092 1_655
Al26 O14 1.733265 1_555
Al26 O21 1.778267 1_555
Al26 O24 1.797420 1_565
Al26 O28 1.809636 1_655
Al27 O15 1.801972 1_556
Al27 O10 1.832048 1_555
Al27 O23 1.888826 1_556
Al27 O18 1.898354 1_555
Al27 O56 2.043415 1_556
Al28 O26 1.767982 1_555
Al28 O5 1.811976 1_555
Al28 O52 1.824595 1_555
Al28 O57 1.918991 1_555
Al28 O35 1.951069 1_555
Al29 O37 1.801514 1_555
Al29 O3 1.811015 1_555
Al29 O26 1.869481 1_555
Al29 O13 1.872149 1_555
Al29 O57 1.883972 1_555
Al30 O9 1.745684 1_555
Al30 O52 1.795657 1_555
Al30 O15 1.820480 1_555
Al30 O19 1.852286 1_555
Al31 O25 1.778095 1_555
Al31 O21 1.816845 1_555
Al31 O3 1.846933 1_555
Al31 O2 1.916812 1_555
Al32 O40 1.818880 1_554
Al32 O9 1.832674 1_555
Al32 O46 1.860823 1_555
Al32 O29 1.862760 1_554
Al32 O17 2.081215 1_555
Al33 O6 1.769199 1_655
Al33 O5 1.785727 1_555
Al33 O27 1.815567 1_655
Al33 O35 1.819202 1_555
Al33 O55 2.227255 1_555
Al34 O49 1.760796 1_555
Al34 O45 1.792506 1_544
Al34 O38 1.796136 1_554
Al34 O59 1.866769 1_455
Al34 O41 2.318102 1_555
Al35 O56 1.751890 1_555
Al35 O35 1.764764 1_555
Al35 O32 1.802322 1_555
Al35 O4 1.851797 1_655
Al36 O48 1.780856 1_555
Al36 O15 1.799788 1_556
Al36 O0 1.835534 1_556
Al36 O54 1.897527 1_555
Al36 O19 2.008718 1_556
Al37 O34 1.734000 1_555
Al37 O4 1.803055 1_555
Al37 O19 1.856216 1_555
Al37 O48 1.856721 1_554
Al38 O30 1.761328 1_555
Al38 O39 1.844621 1_555
Al38 O8 1.857130 1_655
Al38 O59 1.978778 1_565
Al38 O32 2.070212 1_555
Al39 O57 1.741414 1_555
Al39 O58 1.761462 1_555
Al39 O54 1.787243 1_555
Al39 O13 1.843919 1_555
