# generated using pymatgen
data_SmHo3Ni4
_symmetry_space_group_name_H-M   'P 1'
_cell_length_a   4.17635700
_cell_length_b   5.44216600
_cell_length_c   21.32689523
_cell_angle_alpha   83.24879008
_cell_angle_beta   90.00000000
_cell_angle_gamma   90.00000000
_symmetry_Int_Tables_number   1
_chemical_formula_structural   SmHo3Ni4
_chemical_formula_sum   'Sm3 Ho9 Ni12'
_cell_volume   481.36569628
_cell_formula_units_Z   3
loop_
 _symmetry_equiv_pos_site_id
 _symmetry_equiv_pos_as_xyz
  1  'x, y, z'
loop_
 _atom_site_type_symbol
 _atom_site_label
 _atom_site_symmetry_multiplicity
 _atom_site_fract_x
 _atom_site_fract_y
 _atom_site_fract_z
 _atom_site_occupancy
  Sm  Sm0  1  0.50000000  0.10400000  0.05946600  1
  Sm  Sm1  1  0.50000000  0.10440400  0.55987300  1
  Sm  Sm2  1  0.00000000  0.89549000  0.44020400  1
  Ho  Ho0  1  0.00000000  0.89486500  0.94002500  1
  Ho  Ho1  1  0.50000000  0.41747900  0.39300400  1
  Ho  Ho2  1  0.50000000  0.41701600  0.89346700  1
  Ho  Ho3  1  0.00000000  0.58301500  0.10677800  1
  Ho  Ho4  1  0.00000000  0.58267900  0.60702400  1
  Ho  Ho5  1  0.50000000  0.25721300  0.22707900  1
  Ho  Ho6  1  0.50000000  0.25708400  0.72707700  1
  Ho  Ho7  1  0.00000000  0.74274400  0.27277300  1
  Ho  Ho8  1  0.00000000  0.74326900  0.77289600  1
  Ni  Ni0  1  0.50000000  0.62054900  0.01154700  1
  Ni  Ni1  1  0.50000000  0.61865200  0.51219000  1
  Ni  Ni2  1  0.00000000  0.38135300  0.48782200  1
  Ni  Ni3  1  0.00000000  0.38193200  0.98746400  1
  Ni  Ni4  1  0.50000000  0.78774400  0.17943700  1
  Ni  Ni5  1  0.50000000  0.78787100  0.67946800  1
  Ni  Ni6  1  0.00000000  0.21199800  0.32058500  1
  Ni  Ni7  1  0.00000000  0.21085400  0.82103500  1
  Ni  Ni8  1  0.50000000  0.94894500  0.34484500  1
  Ni  Ni9  1  0.50000000  0.94828300  0.84564800  1
  Ni  Ni10  1  0.00000000  0.05132800  0.15514000  1
  Ni  Ni11  1  0.00000000  0.05123100  0.65515300  1
loop_
_geom_bond_atom_site_label_1
_geom_bond_atom_site_label_2
_geom_bond_distance
_geom_bond_site_symmetry_2
Ho0 Ni3 2.855146 1_555
Ho0 Ni9 2.891135 1_455
Ho0 Ni9 2.891135 1_555
Ho0 Ni7 2.893278 1_565
Ho0 Ni0 2.894898 1_456
Ho0 Ni0 2.894898 1_556
Ho0 Ni3 2.946240 1_565
Ho1 Ni8 2.858728 1_545
Ho1 Ni1 2.883403 1_555
Ho1 Ni2 2.897387 1_655
Ho1 Ni2 2.897387 1_555
Ho1 Ni6 2.898701 1_655
Ho1 Ni6 2.898701 1_555
Ho1 Ni8 2.953303 1_555
Ho2 Ni9 2.856382 1_545
Ho2 Ni0 2.867835 1_556
Ho2 Ni3 2.885417 1_655
Ho2 Ni3 2.885417 1_555
Ho2 Ni7 2.900525 1_655
Ho2 Ni7 2.900525 1_555
Ho2 Ni9 2.950607 1_555
Ho3 Ni10 2.859617 1_565
Ho3 Ni3 2.885695 1_554
Ho3 Ni4 2.899832 1_455
Ho3 Ni4 2.899832 1_555
Ho3 Ni0 2.903370 1_455
Ho3 Ni0 2.903370 1_555
Ho3 Ni10 2.955441 1_555
Ho4 Ni11 2.858523 1_565
Ho4 Ni2 2.884122 1_555
Ho4 Ni1 2.897635 1_555
Ho4 Ni1 2.897635 1_455
Ho4 Ni5 2.898305 1_555
Ho4 Ni5 2.898305 1_455
Ho4 Ni11 2.953062 1_555
Ho5 Ni8 2.851643 1_545
Ho5 Ni4 2.858388 1_545
Ho5 Ni6 2.877928 1_555
Ho5 Ni6 2.877928 1_655
Ho5 Ni10 2.893782 1_655
Ho5 Ni10 2.893782 1_555
Ho5 Ni4 2.945976 1_555
Ho6 Ni5 2.856760 1_545
Ho6 Ni9 2.866993 1_545
Ho6 Ni7 2.884545 1_655
Ho6 Ni7 2.884545 1_555
Ho6 Ni11 2.893520 1_655
Ho6 Ni11 2.893520 1_555
Ho6 Ni5 2.947123 1_555
Ho7 Ni10 2.850177 1_565
Ho7 Ni6 2.858965 1_565
Ho7 Ni4 2.875449 1_455
Ho7 Ni4 2.875449 1_555
Ho7 Ni8 2.896190 1_555
Ho7 Ni8 2.896190 1_455
Ho7 Ni6 2.947910 1_555
Ho8 Ni11 2.850438 1_565
Ho8 Ni7 2.853706 1_565
Ho8 Ni5 2.876781 1_455
Ho8 Ni5 2.876781 1_555
Ho8 Ni9 2.901675 1_555
Ho8 Ni9 2.901675 1_455
Ho8 Ni7 2.958051 1_555
Ni0 Ni3 2.543119 1_554
Ni0 Ni3 2.543119 1_654
Ni0 Sm0 2.876019 1_555
Ni0 Sm0 2.932382 1_565
Ni1 Ni2 2.540893 1_555
Ni1 Ni2 2.540893 1_655
Ni1 Sm1 2.863092 1_555
Ni1 Sm2 2.905763 1_555
Ni1 Sm2 2.905763 1_655
Ni1 Sm1 2.941858 1_565
Ni2 Sm2 2.862194 1_555
Ni2 Sm1 2.906687 1_555
Ni2 Sm1 2.906687 1_455
Ni2 Sm2 2.941801 1_545
Ni3 Sm0 2.908645 1_456
Ni3 Sm0 2.908645 1_556
Ni4 Sm0 2.910902 1_565
Ni5 Sm1 2.905153 1_565
Ni6 Ni8 2.550186 1_445
Ni6 Ni8 2.550186 1_545
Ni6 Sm2 2.905500 1_545
Ni7 Ni9 2.549820 1_445
Ni7 Ni9 2.549820 1_545
Ni8 Sm2 2.905512 1_555
Ni8 Sm2 2.905512 1_655
Ni10 Ni4 2.551849 1_545
Ni10 Ni4 2.551849 1_445
Ni10 Sm0 2.910067 1_555
Ni10 Sm0 2.910067 1_455
Ni11 Ni5 2.551246 1_445
Ni11 Ni5 2.551246 1_545
Ni11 Sm1 2.904326 1_555
Ni11 Sm1 2.904326 1_455
