# generated using pymatgen
data_Er2PbS4
_symmetry_space_group_name_H-M   'P 1'
_cell_length_a   14.87322664
_cell_length_b   14.87322664
_cell_length_c   12.13303200
_cell_angle_alpha   90.00000000
_cell_angle_beta   90.00000000
_cell_angle_gamma   149.09016109
_symmetry_Int_Tables_number   1
_chemical_formula_structural   Er2PbS4
_chemical_formula_sum   'Er16 Pb8 S32'
_cell_volume   1378.73136722
_cell_formula_units_Z   8
loop_
 _symmetry_equiv_pos_site_id
 _symmetry_equiv_pos_as_xyz
  1  'x, y, z'
loop_
 _atom_site_type_symbol
 _atom_site_label
 _atom_site_symmetry_multiplicity
 _atom_site_fract_x
 _atom_site_fract_y
 _atom_site_fract_z
 _atom_site_occupancy
  Er  Er0  1  0.06915000  0.93085000  0.58707800  1
  Er  Er1  1  0.93085000  0.06915000  0.08707800  1
  Er  Er2  1  0.67418900  0.32581100  0.06524200  1
  Er  Er3  1  0.32581100  0.67418900  0.56524200  1
  Er  Er4  1  0.56963000  0.43037000  0.57885500  1
  Er  Er5  1  0.43037000  0.56963000  0.07885500  1
  Er  Er6  1  0.17511700  0.82488300  0.06775300  1
  Er  Er7  1  0.82488300  0.17511700  0.56775300  1
  Er  Er8  1  0.93090700  0.56902800  0.71361800  1
  Er  Er9  1  0.43097200  0.06909300  0.71361800  1
  Er  Er10  1  0.06909300  0.43097200  0.21361800  1
  Er  Er11  1  0.56902800  0.93090700  0.21361800  1
  Er  Er12  1  0.82671300  0.67383200  0.23141100  1
  Er  Er13  1  0.32616800  0.17328700  0.23141100  1
  Er  Er14  1  0.17328700  0.32616800  0.73141100  1
  Er  Er15  1  0.67383200  0.82671300  0.73141100  1
  Pb  Pb0  1  0.53845600  0.46154400  0.88136100  1
  Pb  Pb1  1  0.46154400  0.53845600  0.38136100  1
  Pb  Pb2  1  0.04646900  0.95353100  0.93389900  1
  Pb  Pb3  1  0.95353100  0.04646900  0.43389900  1
  Pb  Pb4  1  0.95831400  0.54124800  0.40295900  1
  Pb  Pb5  1  0.45875200  0.04168600  0.40295900  1
  Pb  Pb6  1  0.04168600  0.45875200  0.90295900  1
  Pb  Pb7  1  0.54124800  0.95831400  0.90295900  1
  S  S0  1  0.86249800  0.63937900  0.02198000  1
  S  S1  1  0.36062100  0.13750200  0.02198000  1
  S  S2  1  0.13750200  0.36062100  0.52198000  1
  S  S3  1  0.63937900  0.86249800  0.52198000  1
  S  S4  1  0.66369200  0.33630800  0.55997600  1
  S  S5  1  0.33630800  0.66369200  0.05997600  1
  S  S6  1  0.98200300  0.51467900  0.11873000  1
  S  S7  1  0.48532100  0.01799700  0.11873000  1
  S  S8  1  0.01799700  0.48532100  0.61873000  1
  S  S9  1  0.51467900  0.98200300  0.61873000  1
  S  S10  1  0.01940200  0.98059800  0.16347800  1
  S  S11  1  0.98059800  0.01940200  0.66347800  1
  S  S12  1  0.83494900  0.65981200  0.73180500  1
  S  S13  1  0.34018800  0.16505100  0.73180500  1
  S  S14  1  0.16505100  0.34018800  0.23180500  1
  S  S15  1  0.65981200  0.83494900  0.23180500  1
  S  S16  1  0.20874200  0.79125800  0.85459900  1
  S  S17  1  0.79125800  0.20874200  0.35459900  1
  S  S18  1  0.51538900  0.48461100  0.18318900  1
  S  S19  1  0.48461100  0.51538900  0.68318900  1
  S  S20  1  0.63931200  0.36068800  0.27397700  1
  S  S21  1  0.36068800  0.63931200  0.77397700  1
  S  S22  1  0.16302200  0.83697800  0.56194700  1
  S  S23  1  0.83697800  0.16302200  0.06194700  1
  S  S24  1  0.70868900  0.29131100  0.85389100  1
  S  S25  1  0.29131100  0.70868900  0.35389100  1
  S  S26  1  0.79240100  0.71193900  0.44151200  1
  S  S27  1  0.28806100  0.20759900  0.44151200  1
  S  S28  1  0.20759900  0.28806100  0.94151200  1
  S  S29  1  0.71193900  0.79240100  0.94151200  1
  S  S30  1  0.13944600  0.86055400  0.27642400  1
  S  S31  1  0.86055400  0.13944600  0.77642400  1
loop_
_geom_bond_atom_site_label_1
_geom_bond_atom_site_label_2
_geom_bond_distance
_geom_bond_site_symmetry_2
Er0 S11 2.702789 1_465
Er0 S22 2.708606 1_555
Er0 S13 2.715183 1_565
Er0 S12 2.715183 1_455
Er0 S27 2.768766 1_565
Er0 S26 2.768766 1_455
Er1 S10 2.702789 1_645
Er1 S23 2.708606 1_555
Er1 S14 2.715183 1_655
Er1 S15 2.715183 1_545
Er1 S28 2.768766 1_654
Er1 S29 2.768766 1_544
Er2 S7 2.684007 1_555
Er2 S6 2.684007 1_555
Er2 S20 2.722850 1_555
Er2 S0 2.730669 1_555
Er2 S1 2.730669 1_555
Er2 S24 2.748488 1_554
Er3 S8 2.684007 1_555
Er3 S9 2.684007 1_555
Er3 S21 2.722850 1_555
Er3 S3 2.730669 1_555
Er3 S2 2.730669 1_555
Er3 S25 2.748488 1_555
Er4 S4 2.706546 1_555
Er4 S27 2.735500 1_555
Er4 S26 2.735500 1_555
Er4 S19 2.746670 1_555
Er4 S12 2.748385 1_555
Er4 S13 2.748385 1_555
Er5 S5 2.706546 1_555
Er5 S28 2.735500 1_554
Er5 S29 2.735500 1_554
Er5 S18 2.746670 1_555
Er5 S15 2.748385 1_555
Er5 S14 2.748385 1_555
Er6 S6 2.679457 1_455
Er6 S7 2.679457 1_565
Er6 S30 2.730572 1_555
Er6 S0 2.743493 1_455
Er6 S1 2.743493 1_565
Er6 S16 2.760047 1_554
Er7 S9 2.679457 1_545
Er7 S8 2.679457 1_655
Er7 S31 2.730572 1_555
Er7 S3 2.743493 1_545
Er7 S2 2.743493 1_655
Er7 S17 2.760047 1_555
Er8 S12 2.686182 1_555
Er8 S8 2.705645 1_655
Er8 S24 2.730517 1_555
Er8 S16 2.736695 1_655
Er8 S22 2.752914 1_655
Er8 S4 2.765088 1_555
Er9 S13 2.686182 1_555
Er9 S9 2.705645 1_545
Er9 S24 2.730517 1_555
Er9 S16 2.736695 1_545
Er9 S22 2.752914 1_545
Er9 S4 2.765088 1_555
Er10 S14 2.686182 1_555
Er10 S6 2.705645 1_455
Er10 S25 2.730517 1_555
Er10 S17 2.736695 1_455
Er10 S23 2.752914 1_455
Er10 S5 2.765088 1_555
Er11 S15 2.686182 1_555
Er11 S7 2.705645 1_565
Er11 S25 2.730517 1_555
Er11 S17 2.736695 1_565
Er11 S23 2.752914 1_565
Er11 S5 2.765088 1_555
Er12 S10 2.696724 1_655
Er12 S18 2.709603 1_555
Er12 S20 2.729790 1_555
Er12 S0 2.733259 1_555
Er12 S30 2.734967 1_655
Er12 S26 2.752494 1_555
Er13 S10 2.696724 1_545
Er13 S18 2.709603 1_555
Er13 S20 2.729790 1_555
Er13 S1 2.733259 1_555
Er13 S30 2.734967 1_545
Er13 S27 2.752494 1_555
Er14 S11 2.696724 1_455
Er14 S19 2.709603 1_555
Er14 S21 2.729790 1_555
Er14 S2 2.733259 1_555
Er14 S31 2.734967 1_455
Er14 S28 2.752494 1_555
Er15 S11 2.696724 1_565
Er15 S19 2.709603 1_555
Er15 S21 2.729790 1_555
Er15 S3 2.733259 1_555
Er15 S31 2.734967 1_565
Er15 S29 2.752494 1_555
Pb0 S19 2.857364 1_555
Pb0 S13 3.020049 1_555
Pb0 S12 3.020049 1_555
Pb0 S29 3.101275 1_555
Pb0 S28 3.101275 1_555
Pb1 S18 2.857364 1_555
Pb1 S14 3.020049 1_555
Pb1 S15 3.020049 1_555
Pb1 S26 3.101275 1_555
Pb1 S27 3.101275 1_555
Pb2 S10 2.891570 1_556
Pb2 S1 2.919339 1_566
Pb2 S0 2.919339 1_456
Pb2 S29 3.169674 1_455
Pb2 S28 3.169674 1_565
Pb3 S11 2.891570 1_555
Pb3 S2 2.919339 1_655
Pb3 S3 2.919339 1_545
Pb3 S26 3.169674 1_545
Pb3 S27 3.169674 1_655
Pb4 S4 3.033564 1_555
Pb4 S22 3.059040 1_655
Pb4 S8 3.098487 1_655
Pb4 S17 3.144835 1_555
Pb4 S25 3.149779 1_655
Pb4 S30 3.196022 1_655
Pb4 S20 3.210619 1_555
Pb5 S4 3.033564 1_555
Pb5 S22 3.059040 1_545
Pb5 S9 3.098487 1_545
Pb5 S17 3.144835 1_555
Pb5 S25 3.149779 1_545
Pb5 S30 3.196022 1_545
Pb5 S20 3.210619 1_555
Pb6 S5 3.033564 1_556
Pb6 S23 3.059040 1_456
Pb6 S6 3.098487 1_456
Pb6 S16 3.144835 1_555
Pb6 S24 3.149779 1_455
Pb6 S31 3.196022 1_455
Pb6 S21 3.210619 1_555
Pb7 S5 3.033564 1_556
Pb7 S23 3.059040 1_566
Pb7 S7 3.098487 1_566
Pb7 S16 3.144835 1_555
Pb7 S24 3.149779 1_565
Pb7 S31 3.196022 1_565
Pb7 S21 3.210619 1_555
