# generated using pymatgen
data_PrMgAg
_symmetry_space_group_name_H-M   'P 1'
_cell_length_a   7.76944106
_cell_length_b   7.76944245
_cell_length_c   4.38177660
_cell_angle_alpha   90.00000000
_cell_angle_beta   90.00000000
_cell_angle_gamma   120.00001561
_symmetry_Int_Tables_number   1
_chemical_formula_structural   PrMgAg
_chemical_formula_sum   'Pr3 Mg3 Ag3'
_cell_volume   229.06589098
_cell_formula_units_Z   3
loop_
 _symmetry_equiv_pos_site_id
 _symmetry_equiv_pos_as_xyz
  1  'x, y, z'
loop_
 _atom_site_type_symbol
 _atom_site_label
 _atom_site_symmetry_multiplicity
 _atom_site_fract_x
 _atom_site_fract_y
 _atom_site_fract_z
 _atom_site_occupancy
  Pr  Pr0  1  0.41618291  0.41618291  0.50000000  1
  Pr  Pr1  1  0.58381709  0.00000000  0.50000000  1
  Pr  Pr2  1  0.00000000  0.58381709  0.50000000  1
  Mg  Mg0  1  0.76380061  0.76380061  -0.00000000  1
  Mg  Mg1  1  0.23619939  0.00000000  0.00000000  1
  Mg  Mg2  1  0.00000000  0.23619839  0.00000000  1
  Ag  Ag0  1  0.66666600  0.33333300  0.00000000  1
  Ag  Ag1  1  0.33333400  0.66666700  0.00000000  1
  Ag  Ag2  1  0.00000000  0.00000000  0.50000000  1
loop_
_geom_bond_atom_site_label_1
_geom_bond_atom_site_label_2
_geom_bond_distance
_geom_bond_site_symmetry_2
Ag0 Mg1 3.038275 1_555
Ag0 Mg0 3.038281 1_555
Ag0 Mg2 3.038288 1_655
Ag0 Pr0 3.202250 1_554
Ag0 Pr0 3.202250 1_555
Ag0 Pr1 3.202252 1_555
Ag0 Pr1 3.202252 1_554
Ag0 Pr2 3.202255 1_654
Ag0 Pr2 3.202255 1_655
Ag1 Mg0 3.038275 1_555
Ag1 Mg1 3.038281 1_565
Ag1 Mg2 3.038288 1_555
Ag1 Pr1 3.202250 1_565
Ag1 Pr1 3.202250 1_564
Ag1 Pr0 3.202252 1_555
Ag1 Pr0 3.202252 1_554
Ag1 Pr2 3.202255 1_555
Ag1 Pr2 3.202255 1_554
Ag2 Mg2 2.857918 1_556
Ag2 Mg2 2.857918 1_555
Ag2 Mg0 2.857922 1_445
Ag2 Mg0 2.857922 1_446
Ag2 Mg1 2.857922 1_555
Ag2 Mg1 2.857922 1_556
Ag2 Pr0 3.233508 1_555
Ag2 Pr1 3.233509 1_455
Ag2 Pr2 3.233509 1_545
