# generated using pymatgen
data_Li7Mn5O12
_symmetry_space_group_name_H-M   'P 1'
_cell_length_a   5.83569045
_cell_length_b   14.68008819
_cell_length_c   5.96861385
_cell_angle_alpha   98.11318312
_cell_angle_beta   119.10430877
_cell_angle_gamma   84.07544088
_symmetry_Int_Tables_number   1
_chemical_formula_structural   Li7Mn5O12
_chemical_formula_sum   'Li14 Mn10 O24'
_cell_volume   441.93520343
_cell_formula_units_Z   2
loop_
 _symmetry_equiv_pos_site_id
 _symmetry_equiv_pos_as_xyz
  1  'x, y, z'
loop_
 _atom_site_type_symbol
 _atom_site_label
 _atom_site_symmetry_multiplicity
 _atom_site_fract_x
 _atom_site_fract_y
 _atom_site_fract_z
 _atom_site_occupancy
  Li  Li0  1  0.33297900  0.16672700  0.24948500  1
  Li  Li1  1  0.33368400  0.16659700  0.75011000  1
  Li  Li2  1  0.83329600  0.66666700  0.49989800  1
  Li  Li3  1  0.83333500  0.66668800  0.00018700  1
  Li  Li4  1  0.83331800  0.16659600  0.74998300  1
  Li  Li5  1  0.83329800  0.16673700  0.24996600  1
  Li  Li6  1  0.15754900  0.32594500  0.47884400  1
  Li  Li7  1  0.15717900  0.32582200  0.97843200  1
  Li  Li8  1  0.50916800  0.00740800  0.52109700  1
  Li  Li9  1  0.50945200  0.00750400  0.02138700  1
  Li  Li10  1  0.00670500  0.50121300  0.25266900  1
  Li  Li11  1  0.00750900  0.50099900  0.75323700  1
  Li  Li12  1  0.66003600  0.83216300  0.74756800  1
  Li  Li13  1  0.65919000  0.83232300  0.24672300  1
  Mn  Mn0  1  0.33342600  0.66669900  0.49984900  1
  Mn  Mn1  1  0.33334600  0.66667100  0.00035800  1
  Mn  Mn2  1  0.99345800  0.00747700  0.51317500  1
  Mn  Mn3  1  0.99344500  0.00743000  0.01317900  1
  Mn  Mn4  1  0.67323800  0.32582400  0.48691300  1
  Mn  Mn5  1  0.67319900  0.32591300  0.98683200  1
  Mn  Mn6  1  0.49533400  0.49718400  0.73262600  1
  Mn  Mn7  1  0.49530600  0.49675500  0.23289700  1
  Mn  Mn8  1  0.17156900  0.83618700  0.26751200  1
  Mn  Mn9  1  0.17104500  0.83655200  0.76700200  1
  O  O0  1  0.14547900  0.07370000  0.36032300  1
  O  O1  1  0.14577500  0.07363700  0.86041000  1
  O  O2  1  0.52115400  0.25966100  0.63964100  1
  O  O3  1  0.52076200  0.25969300  0.13942500  1
  O  O4  1  0.97807700  0.25673200  0.61165000  1
  O  O5  1  0.97814000  0.25678500  0.11198900  1
  O  O6  1  0.68858000  0.07657200  0.38815000  1
  O  O7  1  0.68847400  0.07654100  0.88792000  1
  O  O8  1  0.80065800  0.40734600  0.82879000  1
  O  O9  1  0.80026200  0.40753500  0.32886400  1
  O  O10  1  0.86631900  0.92580700  0.67108100  1
  O  O11  1  0.86607900  0.92592400  0.17118500  1
  O  O12  1  0.64806500  0.58324500  0.62489700  1
  O  O13  1  0.64770600  0.58283700  0.12377700  1
  O  O14  1  0.01862300  0.75007700  0.37507900  1
  O  O15  1  0.01898700  0.75050500  0.87650500  1
  O  O16  1  0.48717700  0.75179100  0.39013300  1
  O  O17  1  0.48642800  0.75184500  0.89033000  1
  O  O18  1  0.17992800  0.58145400  0.10979500  1
  O  O19  1  0.17990600  0.58160700  0.60994900  1
  O  O20  1  0.31237800  0.91753600  0.64429100  1
  O  O21  1  0.31211300  0.91770300  0.14506000  1
  O  O22  1  0.35424100  0.41579100  0.35573200  1
  O  O23  1  0.35462500  0.41559600  0.85509400  1
loop_
_geom_bond_atom_site_label_1
_geom_bond_atom_site_label_2
_geom_bond_distance
_geom_bond_site_symmetry_2
Li0 O3 2.181057 1_555
Li0 O0 2.183470 1_555
Li0 O5 2.190249 1_455
Li0 O6 2.194168 1_555
Li0 O1 2.323418 1_554
Li0 O2 2.326981 1_555
Li1 O2 2.182339 1_555
Li1 O1 2.182427 1_555
Li1 O7 2.190033 1_555
Li1 O4 2.194026 1_455
Li1 O3 2.324414 1_556
Li1 O0 2.325205 1_555
Li2 O16 2.119734 1_555
Li2 O19 2.121237 1_655
Li2 O14 2.130416 1_655
Li2 O12 2.130851 1_555
Li2 O13 2.203917 1_555
Li2 O15 2.206036 1_655
Li3 O18 2.122717 1_655
Li3 O17 2.123366 1_554
Li3 O13 2.131141 1_555
Li3 O15 2.131272 1_654
Li3 O14 2.195671 1_655
Li3 O12 2.197699 1_554
Li4 O2 2.047408 1_555
Li4 O1 2.047571 1_655
Li4 O7 2.086834 1_555
Li4 O4 2.088985 1_555
Li4 O6 2.185023 1_555
Li4 O5 2.186970 1_556
Li5 O0 2.047217 1_655
Li5 O3 2.047838 1_555
Li5 O5 2.086914 1_555
Li5 O6 2.088532 1_555
Li5 O4 2.184164 1_555
Li5 O7 2.187192 1_554
Li6 O4 2.003057 1_455
Li6 O2 2.055876 1_555
Li6 O5 2.069588 1_455
Li6 O9 2.134159 1_455
Li6 O22 2.236889 1_555
Li6 O23 2.250256 1_555
Li7 O5 2.002763 1_456
Li7 O3 2.054833 1_556
Li7 O4 2.068786 1_455
Li7 O8 2.130412 1_455
Li7 O23 2.240285 1_555
Li7 O22 2.256750 1_556
Li8 O6 2.002952 1_555
Li8 O0 2.056293 1_555
Li8 O7 2.069265 1_555
Li8 O10 2.133676 1_545
Li8 O20 2.237896 1_545
Li8 O21 2.249792 1_545
Li9 O7 2.002298 1_554
Li9 O1 2.055270 1_554
Li9 O6 2.068581 1_555
Li9 O11 2.131304 1_545
Li9 O21 2.241423 1_545
Li9 O20 2.255936 1_544
Li10 O19 2.097856 1_555
Li10 O18 2.122395 1_555
Li10 O22 2.131484 1_555
Li10 O13 2.142610 1_455
Li10 O9 2.144977 1_455
Li10 O8 2.478722 1_454
Li11 O18 2.095044 1_556
Li11 O19 2.124210 1_555
Li11 O23 2.130162 1_555
Li11 O8 2.144247 1_455
Li11 O12 2.149329 1_455
Li11 O9 2.478408 1_455
Li12 O16 2.098266 1_555
Li12 O17 2.124304 1_555
Li12 O20 2.131520 1_555
Li12 O15 2.142646 1_655
Li12 O10 2.144935 1_555
Li12 O11 2.476898 1_556
Li13 O17 2.094601 1_554
Li13 O16 2.122360 1_555
Li13 O21 2.129921 1_555
Li13 O11 2.143801 1_555
Li13 O14 2.149278 1_655
Li13 O10 2.478446 1_555
Mn0 O16 1.956558 1_555
Mn0 O19 1.957118 1_555
Mn0 O14 1.972275 1_555
Mn0 O12 1.972287 1_555
Mn0 O18 2.273491 1_555
Mn0 O17 2.274908 1_555
Mn1 O18 1.955492 1_555
Mn1 O17 1.955967 1_554
Mn1 O13 1.974297 1_555
Mn1 O15 1.974319 1_554
Mn1 O16 2.271325 1_555
Mn1 O19 2.273923 1_554
Mn2 O6 1.816783 1_555
Mn2 O0 1.944266 1_655
Mn2 O1 1.961291 1_655
Mn2 O10 2.014693 1_545
Mn2 O11 2.042127 1_545
Mn2 O20 2.046217 1_645
Mn3 O7 1.817314 1_554
Mn3 O1 1.945072 1_654
Mn3 O0 1.961526 1_655
Mn3 O11 2.014318 1_545
Mn3 O10 2.043192 1_544
Mn3 O21 2.043497 1_645
Mn4 O4 1.816574 1_555
Mn4 O2 1.943432 1_555
Mn4 O3 1.962273 1_555
Mn4 O9 2.015297 1_555
Mn4 O8 2.041394 1_555
Mn4 O22 2.046755 1_555
Mn5 O5 1.817308 1_556
Mn5 O3 1.944849 1_556
Mn5 O2 1.961637 1_555
Mn5 O8 2.014085 1_555
Mn5 O23 2.042718 1_555
Mn5 O9 2.042916 1_556
Mn6 O23 1.917587 1_555
Mn6 O12 1.955309 1_555
Mn6 O19 1.983545 1_555
Mn6 O8 1.994285 1_555
Mn6 O22 2.192857 1_555
Mn6 O13 2.281436 1_556
Mn7 O22 1.913880 1_555
Mn7 O13 1.959556 1_555
Mn7 O18 1.985721 1_555
Mn7 O9 1.987354 1_555
Mn7 O23 2.195683 1_554
Mn7 O12 2.290659 1_555
Mn8 O21 1.916105 1_555
Mn8 O14 1.956077 1_555
Mn8 O16 1.984032 1_555
Mn8 O11 1.993993 1_455
Mn8 O20 2.192160 1_555
Mn8 O15 2.280915 1_554
Mn9 O20 1.914653 1_555
Mn9 O15 1.959289 1_555
Mn9 O17 1.985820 1_555
Mn9 O10 1.986759 1_455
Mn9 O21 2.196644 1_556
Mn9 O14 2.290313 1_555
