# generated using pymatgen
data_Cr8Fe3CuS16
_symmetry_space_group_name_H-M   'P 1'
_cell_length_a   6.91187969
_cell_length_b   9.74899500
_cell_length_c   6.91187969
_cell_angle_alpha   90.00000000
_cell_angle_beta   90.00000000
_cell_angle_gamma   90.00000000
_symmetry_Int_Tables_number   1
_chemical_formula_structural   Cr8Fe3CuS16
_chemical_formula_sum   'Cr8 Fe3 Cu1 S16'
_cell_volume   465.74927541
_cell_formula_units_Z   1
loop_
 _symmetry_equiv_pos_site_id
 _symmetry_equiv_pos_as_xyz
  1  'x, y, z'
loop_
 _atom_site_type_symbol
 _atom_site_label
 _atom_site_symmetry_multiplicity
 _atom_site_fract_x
 _atom_site_fract_y
 _atom_site_fract_z
 _atom_site_occupancy
  Cr  Cr0  1  0.25000000  0.75051500  0.24921900  1
  Cr  Cr1  1  0.75000000  0.24976300  0.74995500  1
  Cr  Cr2  1  0.75000000  0.24976300  0.25004500  1
  Cr  Cr3  1  0.25000000  0.75051500  0.75078100  1
  Cr  Cr4  1  0.49921900  0.49948500  0.00000000  1
  Cr  Cr5  1  0.99995500  0.00023700  0.50000000  1
  Cr  Cr6  1  0.00078100  0.49948500  0.00000000  1
  Cr  Cr7  1  0.50004500  0.00023700  0.50000000  1
  Fe  Fe0  1  0.75000000  0.62500000  0.50000000  1
  Fe  Fe1  1  0.75000000  0.87551100  0.00000000  1
  Fe  Fe2  1  0.25000000  0.37448900  0.50000000  1
  Cu  Cu0  1  0.25000000  0.12500000  0.00000000  1
  S  S0  1  0.25000000  0.50171000  0.75843900  1
  S  S1  1  0.75000000  0.00402200  0.25585800  1
  S  S2  1  0.25000000  0.50171000  0.24156100  1
  S  S3  1  0.75000000  0.00402200  0.74414200  1
  S  S4  1  0.00843900  0.74829000  0.00000000  1
  S  S5  1  0.50585800  0.24597800  0.50000000  1
  S  S6  1  0.49156100  0.74829000  0.00000000  1
  S  S7  1  0.99414200  0.24597800  0.50000000  1
  S  S8  1  0.75000000  0.49430600  0.23515400  1
  S  S9  1  0.25000000  0.99128000  0.73213800  1
  S  S10  1  0.75000000  0.49430600  0.76484600  1
  S  S11  1  0.25000000  0.99128000  0.26786200  1
  S  S12  1  0.98213800  0.25872000  0.00000000  1
  S  S13  1  0.48515400  0.75569400  0.50000000  1
  S  S14  1  0.51786200  0.25872000  0.00000000  1
  S  S15  1  0.01484600  0.75569400  0.50000000  1
loop_
_geom_bond_atom_site_label_1
_geom_bond_atom_site_label_2
_geom_bond_distance
_geom_bond_site_symmetry_2
Cr0 S11 2.350751 1_555
Cr0 S13 2.376741 1_555
Cr0 S15 2.376741 1_555
Cr0 S6 2.399046 1_555
Cr0 S4 2.399046 1_555
Cr0 S2 2.426176 1_555
Cr1 S14 2.359880 1_556
Cr1 S12 2.359880 1_556
Cr1 S10 2.386269 1_555
Cr1 S3 2.396065 1_555
Cr1 S5 2.415317 1_555
Cr1 S7 2.415317 1_555
Cr2 S14 2.359880 1_555
Cr2 S12 2.359880 1_555
Cr2 S8 2.386269 1_555
Cr2 S1 2.396065 1_555
Cr2 S5 2.415317 1_555
Cr2 S7 2.415317 1_555
Cr3 S9 2.350751 1_555
Cr3 S13 2.376741 1_555
Cr3 S15 2.376741 1_555
Cr3 S4 2.399046 1_556
Cr3 S6 2.399046 1_556
Cr3 S0 2.426176 1_555
Cr4 S14 2.350751 1_555
Cr4 S10 2.376741 1_554
Cr4 S8 2.376741 1_555
Cr4 S2 2.399046 1_555
Cr4 S0 2.399046 1_554
Cr4 S6 2.426176 1_555
Cr5 S9 2.359880 1_645
Cr5 S11 2.359880 1_645
Cr5 S15 2.386269 1_645
Cr5 S7 2.396065 1_555
Cr5 S3 2.415317 1_555
Cr5 S1 2.415317 1_555
Cr6 S12 2.350751 1_455
Cr6 S8 2.376741 1_455
Cr6 S10 2.376741 1_454
Cr6 S2 2.399046 1_555
Cr6 S0 2.399046 1_554
Cr6 S4 2.426176 1_555
Cr7 S11 2.359880 1_545
Cr7 S9 2.359880 1_545
Cr7 S13 2.386269 1_545
Cr7 S5 2.396065 1_555
Cr7 S3 2.415317 1_555
Cr7 S1 2.415317 1_555
Fe0 S15 2.230349 1_655
Fe0 S8 2.230349 1_555
Fe0 S13 2.230349 1_555
Fe0 S10 2.230349 1_555
Fe1 S3 2.167277 1_564
Fe1 S1 2.167277 1_565
Fe1 S6 2.174661 1_555
Fe1 S4 2.174661 1_655
Fe2 S7 2.167277 1_455
Fe2 S5 2.167277 1_555
Fe2 S2 2.174661 1_555
Fe2 S0 2.174661 1_555
Cu0 S11 2.264345 1_545
Cu0 S14 2.264345 1_555
Cu0 S9 2.264345 1_544
Cu0 S12 2.264345 1_455
