# generated using pymatgen
data_HfInPd2
_symmetry_space_group_name_H-M   'P 1'
_cell_length_a   6.78226400
_cell_length_b   6.78226400
_cell_length_c   12.96910800
_cell_angle_alpha   90.00000000
_cell_angle_beta   90.00000000
_cell_angle_gamma   90.00000000
_symmetry_Int_Tables_number   1
_chemical_formula_structural   HfInPd2
_chemical_formula_sum   'Hf8 In8 Pd16'
_cell_volume   596.56736020
_cell_formula_units_Z   8
loop_
 _symmetry_equiv_pos_site_id
 _symmetry_equiv_pos_as_xyz
  1  'x, y, z'
loop_
 _atom_site_type_symbol
 _atom_site_label
 _atom_site_symmetry_multiplicity
 _atom_site_fract_x
 _atom_site_fract_y
 _atom_site_fract_z
 _atom_site_occupancy
  Hf  Hf0_0  1  0.00000000  0.00000000  0.00000000  1
  Hf  Hf0_1  1  0.00000000  0.00000000  0.50000000  1
  Hf  Hf0_2  1  0.00000000  0.50000000  0.00000000  1
  Hf  Hf0_3  1  0.00000000  0.50000000  0.50000000  1
  Hf  Hf0_4  1  0.50000000  0.00000000  0.00000000  1
  Hf  Hf0_5  1  0.50000000  0.00000000  0.50000000  1
  Hf  Hf0_6  1  0.50000000  0.50000000  0.00000000  1
  Hf  Hf0_7  1  0.50000000  0.50000000  0.50000000  1
  In  In0_0  1  0.00000000  0.00000000  0.25000000  1
  In  In0_1  1  0.00000000  0.00000000  0.75000000  1
  In  In0_2  1  0.00000000  0.50000000  0.25000000  1
  In  In0_3  1  0.00000000  0.50000000  0.75000000  1
  In  In0_4  1  0.50000000  0.00000000  0.25000000  1
  In  In0_5  1  0.50000000  0.00000000  0.75000000  1
  In  In0_6  1  0.50000000  0.50000000  0.25000000  1
  In  In0_7  1  0.50000000  0.50000000  0.75000000  1
  Pd  Pd0_0  1  0.25000000  0.25000000  0.11303750  1
  Pd  Pd0_1  1  0.25000000  0.25000000  0.61303750  1
  Pd  Pd0_2  1  0.25000000  0.75000000  0.11303750  1
  Pd  Pd0_3  1  0.25000000  0.75000000  0.61303750  1
  Pd  Pd0_4  1  0.75000000  0.25000000  0.11303750  1
  Pd  Pd0_5  1  0.75000000  0.25000000  0.61303750  1
  Pd  Pd0_6  1  0.75000000  0.75000000  0.11303750  1
  Pd  Pd0_7  1  0.75000000  0.75000000  0.61303750  1
  Pd  Pd1_0  1  0.25000000  0.25000000  0.38696250  1
  Pd  Pd1_1  1  0.25000000  0.25000000  0.88696250  1
  Pd  Pd1_2  1  0.25000000  0.75000000  0.38696250  1
  Pd  Pd1_3  1  0.25000000  0.75000000  0.88696250  1
  Pd  Pd1_4  1  0.75000000  0.25000000  0.38696250  1
  Pd  Pd1_5  1  0.75000000  0.25000000  0.88696250  1
  Pd  Pd1_6  1  0.75000000  0.75000000  0.38696250  1
  Pd  Pd1_7  1  0.75000000  0.75000000  0.88696250  1
loop_
_geom_bond_atom_site_label_1
_geom_bond_atom_site_label_2
_geom_bond_distance
_geom_bond_site_symmetry_2
Hf0_0 Pd0_4 2.810521 1_455
Hf0_0 Pd0_0 2.810521 1_555
Hf0_0 Pd0_2 2.810521 1_545
Hf0_0 Pd0_6 2.810521 1_445
Hf0_0 Pd1_3 2.810521 1_544
Hf0_0 Pd1_7 2.810521 1_444
Hf0_0 Pd1_1 2.810521 1_554
Hf0_0 Pd1_5 2.810521 1_454
Hf0_0 In0_1 3.242277 1_554
Hf0_0 In0_0 3.242277 1_555
Hf0_1 Pd1_6 2.810521 1_445
Hf0_1 Pd1_2 2.810521 1_545
Hf0_1 Pd0_5 2.810521 1_455
Hf0_1 Pd0_3 2.810521 1_545
Hf0_1 Pd1_4 2.810521 1_455
Hf0_1 Pd1_0 2.810521 1_555
Hf0_1 Pd0_7 2.810521 1_445
Hf0_1 Pd0_1 2.810521 1_555
Hf0_1 In0_1 3.242277 1_555
Hf0_1 In0_0 3.242277 1_555
Hf0_2 Pd0_4 2.810521 1_455
Hf0_2 Pd0_2 2.810521 1_555
Hf0_2 Pd0_6 2.810521 1_455
Hf0_2 Pd0_0 2.810521 1_555
Hf0_2 Pd1_5 2.810521 1_454
Hf0_2 Pd1_1 2.810521 1_554
Hf0_2 Pd1_3 2.810521 1_554
Hf0_2 Pd1_7 2.810521 1_454
Hf0_2 In0_3 3.242277 1_554
Hf0_2 In0_2 3.242277 1_555
Hf0_3 Pd0_3 2.810521 1_555
Hf0_3 Pd0_7 2.810521 1_455
Hf0_3 Pd1_2 2.810521 1_555
Hf0_3 Pd1_4 2.810521 1_455
Hf0_3 Pd0_5 2.810521 1_455
Hf0_3 Pd1_6 2.810521 1_455
Hf0_3 Pd1_0 2.810521 1_555
Hf0_3 Pd0_1 2.810521 1_555
Hf0_3 In0_2 3.242277 1_555
Hf0_3 In0_3 3.242277 1_555
Hf0_4 Pd0_4 2.810521 1_555
Hf0_4 Pd0_2 2.810521 1_545
Hf0_4 Pd0_0 2.810521 1_555
Hf0_4 Pd0_6 2.810521 1_545
Hf0_4 Pd1_3 2.810521 1_544
Hf0_4 Pd1_7 2.810521 1_544
Hf0_4 Pd1_5 2.810521 1_554
Hf0_4 Pd1_1 2.810521 1_554
Hf0_4 In0_4 3.242277 1_555
Hf0_4 In0_5 3.242277 1_554
Hf0_5 Pd1_6 2.810521 1_545
Hf0_5 Pd1_4 2.810521 1_555
Hf0_5 Pd1_2 2.810521 1_545
Hf0_5 Pd0_3 2.810521 1_545
Hf0_5 Pd1_0 2.810521 1_555
Hf0_5 Pd0_1 2.810521 1_555
Hf0_5 Pd0_5 2.810521 1_555
Hf0_5 Pd0_7 2.810521 1_545
Hf0_5 In0_4 3.242277 1_555
Hf0_5 In0_5 3.242277 1_555
Hf0_6 Pd0_4 2.810521 1_555
Hf0_6 Pd0_2 2.810521 1_555
Hf0_6 Pd0_0 2.810521 1_555
Hf0_6 Pd0_6 2.810521 1_555
Hf0_6 Pd1_5 2.810521 1_554
Hf0_6 Pd1_1 2.810521 1_554
Hf0_6 Pd1_3 2.810521 1_554
Hf0_6 Pd1_7 2.810521 1_554
Hf0_6 In0_6 3.242277 1_555
Hf0_6 In0_7 3.242277 1_554
Hf0_7 Pd0_3 2.810521 1_555
Hf0_7 Pd1_4 2.810521 1_555
Hf0_7 Pd0_7 2.810521 1_555
Hf0_7 Pd1_2 2.810521 1_555
Hf0_7 Pd1_0 2.810521 1_555
Hf0_7 Pd0_1 2.810521 1_555
Hf0_7 Pd0_5 2.810521 1_555
Hf0_7 Pd1_6 2.810521 1_555
Hf0_7 In0_7 3.242277 1_555
Hf0_7 In0_6 3.242277 1_555
In0_0 Pd1_4 2.984135 1_455
In0_0 Pd1_0 2.984135 1_555
In0_0 Pd1_6 2.984135 1_445
In0_0 Pd1_2 2.984135 1_545
In0_0 Pd0_2 2.984135 1_545
In0_0 Pd0_0 2.984135 1_555
In0_0 Pd0_6 2.984135 1_445
In0_0 Pd0_4 2.984135 1_455
In0_0 In0_2 3.391132 1_545
In0_0 In0_2 3.391132 1_555
In0_0 In0_4 3.391132 1_555
In0_0 In0_4 3.391132 1_455
In0_1 Pd0_5 2.984135 1_455
In0_1 Pd0_3 2.984135 1_545
In0_1 Pd0_7 2.984135 1_445
In0_1 Pd0_1 2.984135 1_555
In0_1 Pd1_3 2.984135 1_545
In0_1 Pd1_1 2.984135 1_555
In0_1 Pd1_5 2.984135 1_455
In0_1 Pd1_7 2.984135 1_445
In0_1 In0_5 3.391132 1_555
In0_1 In0_3 3.391132 1_545
In0_1 In0_3 3.391132 1_555
In0_1 In0_5 3.391132 1_455
In0_2 Pd1_4 2.984135 1_455
In0_2 Pd1_0 2.984135 1_555
In0_2 Pd1_6 2.984135 1_455
In0_2 Pd1_2 2.984135 1_555
In0_2 Pd0_0 2.984135 1_555
In0_2 Pd0_4 2.984135 1_455
In0_2 Pd0_2 2.984135 1_555
In0_2 Pd0_6 2.984135 1_455
In0_2 In0_6 3.391132 1_555
In0_2 In0_6 3.391132 1_455
In0_3 Pd0_5 2.984135 1_455
In0_3 Pd0_1 2.984135 1_555
In0_3 Pd1_7 2.984135 1_455
In0_3 Pd0_3 2.984135 1_555
In0_3 Pd1_1 2.984135 1_555
In0_3 Pd1_5 2.984135 1_455
In0_3 Pd1_3 2.984135 1_555
In0_3 Pd0_7 2.984135 1_455
In0_3 In0_7 3.391132 1_555
In0_3 In0_7 3.391132 1_455
In0_4 Pd1_0 2.984135 1_555
In0_4 Pd1_6 2.984135 1_545
In0_4 Pd1_4 2.984135 1_555
In0_4 Pd1_2 2.984135 1_545
In0_4 Pd0_2 2.984135 1_545
In0_4 Pd0_6 2.984135 1_545
In0_4 Pd0_0 2.984135 1_555
In0_4 Pd0_4 2.984135 1_555
In0_4 In0_6 3.391132 1_545
In0_4 In0_6 3.391132 1_555
In0_5 Pd0_3 2.984135 1_545
In0_5 Pd0_7 2.984135 1_545
In0_5 Pd0_1 2.984135 1_555
In0_5 Pd0_5 2.984135 1_555
In0_5 Pd1_3 2.984135 1_545
In0_5 Pd1_7 2.984135 1_545
In0_5 Pd1_1 2.984135 1_555
In0_5 Pd1_5 2.984135 1_555
In0_5 In0_7 3.391132 1_555
In0_5 In0_7 3.391132 1_545
In0_6 Pd1_0 2.984135 1_555
In0_6 Pd1_6 2.984135 1_555
In0_6 Pd1_4 2.984135 1_555
In0_6 Pd1_2 2.984135 1_555
In0_6 Pd0_6 2.984135 1_555
In0_6 Pd0_0 2.984135 1_555
In0_6 Pd0_4 2.984135 1_555
In0_6 Pd0_2 2.984135 1_555
In0_7 Pd1_7 2.984135 1_555
In0_7 Pd0_1 2.984135 1_555
In0_7 Pd0_5 2.984135 1_555
In0_7 Pd0_3 2.984135 1_555
In0_7 Pd1_1 2.984135 1_555
In0_7 Pd1_3 2.984135 1_555
In0_7 Pd1_5 2.984135 1_555
In0_7 Pd0_7 2.984135 1_555
Pd0_0 Pd1_1 2.931991 1_554
Pd0_1 Pd1_0 2.931991 1_555
Pd0_2 Pd1_3 2.931991 1_554
Pd0_3 Pd1_2 2.931991 1_555
Pd0_4 Pd1_5 2.931991 1_554
Pd0_5 Pd1_4 2.931991 1_555
Pd0_6 Pd1_7 2.931991 1_554
Pd0_7 Pd1_6 2.931991 1_555
