# generated using pymatgen
data_CrFe2Sb
_symmetry_space_group_name_H-M   'P 1'
_cell_length_a   4.20862037
_cell_length_b   4.20862037
_cell_length_c   4.20862037
_cell_angle_alpha   60.00000000
_cell_angle_beta   60.00000000
_cell_angle_gamma   60.00000000
_symmetry_Int_Tables_number   1
_chemical_formula_structural   CrFe2Sb
_chemical_formula_sum   'Cr1 Fe2 Sb1'
_cell_volume   52.71136460
_cell_formula_units_Z   1
loop_
 _symmetry_equiv_pos_site_id
 _symmetry_equiv_pos_as_xyz
  1  'x, y, z'
loop_
 _atom_site_type_symbol
 _atom_site_label
 _atom_site_symmetry_multiplicity
 _atom_site_fract_x
 _atom_site_fract_y
 _atom_site_fract_z
 _atom_site_occupancy
  Cr  Cr0  1  0.00000000  0.00000000  0.00000000  1
  Fe  Fe0  1  0.25000000  0.25000000  0.25000000  1
  Fe  Fe1  1  0.75000000  0.75000000  0.75000000  1
  Sb  Sb0  1  0.50000000  0.50000000  0.50000000  1
loop_
_geom_bond_atom_site_label_1
_geom_bond_atom_site_label_2
_geom_bond_distance
_geom_bond_site_symmetry_2
Cr0 Fe0 2.577243 1_455
Cr0 Fe1 2.577243 1_444
Cr0 Fe0 2.577243 1_545
Cr0 Fe1 2.577243 1_445
Cr0 Fe1 2.577243 1_454
Cr0 Fe1 2.577243 1_544
Cr0 Fe0 2.577243 1_554
Cr0 Fe0 2.577243 1_555
Cr0 Sb0 2.975944 1_554
Cr0 Sb0 2.975944 1_445
Cr0 Sb0 2.975944 1_545
Cr0 Sb0 2.975944 1_544
Cr0 Sb0 2.975944 1_454
Cr0 Sb0 2.975944 1_455
Fe0 Sb0 2.577243 1_455
Fe0 Sb0 2.577243 1_554
Fe0 Sb0 2.577243 1_545
Fe0 Sb0 2.577243 1_555
Fe1 Sb0 2.577243 1_556
Fe1 Sb0 2.577243 1_565
Fe1 Sb0 2.577243 1_655
Fe1 Sb0 2.577243 1_555
