# generated using pymatgen
data_YMg6Mn
_symmetry_space_group_name_H-M   'P 1'
_cell_length_a   5.09891500
_cell_length_b   6.43592200
_cell_length_c   11.28244900
_cell_angle_alpha   90.00000000
_cell_angle_beta   90.00000000
_cell_angle_gamma   90.00000000
_symmetry_Int_Tables_number   1
_chemical_formula_structural   YMg6Mn
_chemical_formula_sum   'Y2 Mg12 Mn2'
_cell_volume   370.24731977
_cell_formula_units_Z   2
loop_
 _symmetry_equiv_pos_site_id
 _symmetry_equiv_pos_as_xyz
  1  'x, y, z'
loop_
 _atom_site_type_symbol
 _atom_site_label
 _atom_site_symmetry_multiplicity
 _atom_site_fract_x
 _atom_site_fract_y
 _atom_site_fract_z
 _atom_site_occupancy
  Y  Y0  1  0.50000000  0.50000000  0.16686300  1
  Y  Y1  1  0.50000000  0.00000000  0.66686300  1
  Mg  Mg0  1  0.50000000  0.25468000  0.41833300  1
  Mg  Mg1  1  0.50000000  0.74532000  0.41833300  1
  Mg  Mg2  1  0.00000000  0.76300800  0.08521400  1
  Mg  Mg3  1  0.00000000  0.23699200  0.08521400  1
  Mg  Mg4  1  0.00000000  0.00000000  0.32685900  1
  Mg  Mg5  1  0.00000000  0.50000000  0.33603700  1
  Mg  Mg6  1  0.50000000  0.75468000  0.91833300  1
  Mg  Mg7  1  0.50000000  0.24532000  0.91833300  1
  Mg  Mg8  1  0.00000000  0.26300800  0.58521400  1
  Mg  Mg9  1  0.00000000  0.73699200  0.58521400  1
  Mg  Mg10  1  0.00000000  0.50000000  0.82685900  1
  Mg  Mg11  1  0.00000000  0.00000000  0.83603700  1
  Mn  Mn0  1  0.50000000  0.00000000  0.16314300  1
  Mn  Mn1  1  0.50000000  0.50000000  0.66314300  1
loop_
_geom_bond_atom_site_label_1
_geom_bond_atom_site_label_2
_geom_bond_distance
_geom_bond_site_symmetry_2
Mg0 Mg5 3.139211 1_555
Mg0 Mg5 3.139211 1_655
Mg0 Mg1 3.157721 1_555
Mg0 Mg8 3.169801 1_555
Mg0 Mg8 3.169801 1_655
Mg0 Mn1 3.181471 1_555
Mg0 Mg4 3.201798 1_555
Mg0 Mg4 3.201798 1_655
Mg0 Y0 3.246920 1_555
Mg0 Y1 3.247956 1_555
Mg0 Mg1 3.278201 1_545
Mg0 Mn0 3.313044 1_555
Mg1 Mg5 3.139211 1_555
Mg1 Mg5 3.139211 1_655
Mg1 Mg9 3.169801 1_555
Mg1 Mg9 3.169801 1_655
Mg1 Mn1 3.181471 1_555
Mg1 Mg4 3.201798 1_665
Mg1 Mg4 3.201798 1_565
Mg1 Y0 3.246920 1_555
Mg1 Y1 3.247956 1_565
Mg1 Mn0 3.313044 1_565
Mg2 Mg3 3.050524 1_565
Mg2 Mn0 3.098258 1_565
Mg2 Mn0 3.098258 1_465
Mg2 Mg4 3.124003 1_565
Mg2 Mg6 3.169801 1_454
Mg2 Mg6 3.169801 1_554
Mg2 Y0 3.195868 1_455
Mg2 Y0 3.195868 1_555
Mg2 Mg5 3.297507 1_555
Mg2 Mg3 3.385398 1_555
Mg3 Mn0 3.098258 1_555
Mg3 Mn0 3.098258 1_455
Mg3 Mg4 3.124003 1_555
Mg3 Mg7 3.169801 1_554
Mg3 Mg7 3.169801 1_454
Mg3 Y0 3.195868 1_455
Mg3 Y0 3.195868 1_555
Mg3 Mg5 3.297507 1_555
Mg4 Mn0 3.148266 1_455
Mg4 Mn0 3.148266 1_555
Mg4 Mg5 3.219627 1_555
Mg4 Mg5 3.219627 1_545
Mg4 Mg8 3.370718 1_555
Mg4 Mg9 3.370718 1_545
Mg5 Y0 3.184785 1_455
Mg5 Y0 3.184785 1_555
Mg5 Mg9 3.198434 1_555
Mg5 Mg8 3.198434 1_555
Mg6 Mg7 3.157721 1_565
Mg6 Mn0 3.181471 1_566
Mg6 Y1 3.246920 1_565
Mg6 Y0 3.247956 1_556
Mg6 Mg7 3.278201 1_555
Mg6 Mn1 3.313044 1_555
Mg7 Mn0 3.181471 1_556
Mg7 Y1 3.246920 1_555
Mg7 Y0 3.247956 1_556
Mg7 Mn1 3.313044 1_555
Mg8 Mg9 3.050524 1_555
Mg8 Mn1 3.098258 1_555
Mg8 Mn1 3.098258 1_455
Mg8 Y1 3.195868 1_455
Mg8 Y1 3.195868 1_555
Mg8 Mg9 3.385398 1_545
Mg9 Mn1 3.098258 1_555
Mg9 Mn1 3.098258 1_455
Mg9 Y1 3.195868 1_465
Mg9 Y1 3.195868 1_565
Mg10 Mg9 3.124003 1_555
Mg10 Mg8 3.124003 1_555
Mg10 Mn1 3.148266 1_555
Mg10 Mn1 3.148266 1_455
Mg10 Mg7 3.201798 1_455
Mg10 Mg7 3.201798 1_555
Mg10 Mg6 3.201798 1_455
Mg10 Mg6 3.201798 1_555
Mg10 Mg11 3.219627 1_555
Mg10 Mg11 3.219627 1_565
Mg10 Mg2 3.370718 1_556
Mg10 Mg3 3.370718 1_556
Mg11 Mg6 3.139211 1_445
Mg11 Mg6 3.139211 1_545
Mg11 Mg7 3.139211 1_555
Mg11 Mg7 3.139211 1_455
Mg11 Y1 3.184785 1_555
Mg11 Y1 3.184785 1_455
Mg11 Mg3 3.198434 1_556
Mg11 Mg2 3.198434 1_546
Mg11 Mg8 3.297507 1_555
Mg11 Mg9 3.297507 1_545
Mn0 Y0 3.218235 1_555
Mn0 Y0 3.218235 1_545
Mn1 Y1 3.218235 1_555
Mn1 Y1 3.218235 1_565
