# generated using pymatgen
data_Be3Ru2
_symmetry_space_group_name_H-M   'P 1'
_cell_length_a   8.33590501
_cell_length_b   8.33590501
_cell_length_c   8.33590501
_cell_angle_alpha   109.47122063
_cell_angle_beta   109.47122063
_cell_angle_gamma   109.47122063
_symmetry_Int_Tables_number   1
_chemical_formula_structural   Be3Ru2
_chemical_formula_sum   'Be24 Ru16'
_cell_volume   445.89887854
_cell_formula_units_Z   8
loop_
 _symmetry_equiv_pos_site_id
 _symmetry_equiv_pos_as_xyz
  1  'x, y, z'
loop_
 _atom_site_type_symbol
 _atom_site_label
 _atom_site_symmetry_multiplicity
 _atom_site_fract_x
 _atom_site_fract_y
 _atom_site_fract_z
 _atom_site_occupancy
  Be  Be0  1  0.61004700  0.74631600  0.55832200  1
  Be  Be1  1  0.38995300  0.25368400  0.44167800  1
  Be  Be2  1  0.88995300  0.94827500  0.63626900  1
  Be  Be3  1  0.31200600  0.75368400  0.86373100  1
  Be  Be4  1  0.74631600  0.55832200  0.61004700  1
  Be  Be5  1  0.11004700  0.05172500  0.36373100  1
  Be  Be6  1  0.68799400  0.24631600  0.13626900  1
  Be  Be7  1  0.25368400  0.44167800  0.38995300  1
  Be  Be8  1  0.18799400  0.55172500  0.94167800  1
  Be  Be9  1  0.94827500  0.63626900  0.88995300  1
  Be  Be10  1  0.81200600  0.44827500  0.05832200  1
  Be  Be11  1  0.05172500  0.36373100  0.11004700  1
  Be  Be12  1  0.75368400  0.86373100  0.31200600  1
  Be  Be13  1  0.24631600  0.13626900  0.68799400  1
  Be  Be14  1  0.55172500  0.94167800  0.18799400  1
  Be  Be15  1  0.44827500  0.05832200  0.81200600  1
  Be  Be16  1  0.55832200  0.61004700  0.74631600  1
  Be  Be17  1  0.44167800  0.38995300  0.25368400  1
  Be  Be18  1  0.86373100  0.31200600  0.75368400  1
  Be  Be19  1  0.13626900  0.68799400  0.24631600  1
  Be  Be20  1  0.94167800  0.18799400  0.55172500  1
  Be  Be21  1  0.05832200  0.81200600  0.44827500  1
  Be  Be22  1  0.63626900  0.88995300  0.94827500  1
  Be  Be23  1  0.36373100  0.11004700  0.05172500  1
  Ru  Ru0  1  0.61815900  0.36815900  0.75000000  1
  Ru  Ru1  1  0.38184100  0.63184100  0.25000000  1
  Ru  Ru2  1  0.88184100  0.13184100  0.25000000  1
  Ru  Ru3  1  0.36815900  0.75000000  0.61815900  1
  Ru  Ru4  1  0.11815900  0.86815900  0.75000000  1
  Ru  Ru5  1  0.63184100  0.25000000  0.38184100  1
  Ru  Ru6  1  0.13184100  0.25000000  0.88184100  1
  Ru  Ru7  1  0.86815900  0.75000000  0.11815900  1
  Ru  Ru8  1  0.75000000  0.61815900  0.36815900  1
  Ru  Ru9  1  0.25000000  0.38184100  0.63184100  1
  Ru  Ru10  1  0.25000000  0.88184100  0.13184100  1
  Ru  Ru11  1  0.75000000  0.11815900  0.86815900  1
  Ru  Ru12  1  0.00000000  0.00000000  0.00000000  1
  Ru  Ru13  1  0.50000000  0.00000000  0.50000000  1
  Ru  Ru14  1  0.50000000  0.50000000  0.00000000  1
  Ru  Ru15  1  0.00000000  0.50000000  0.50000000  1
loop_
_geom_bond_atom_site_label_1
_geom_bond_atom_site_label_2
_geom_bond_distance
_geom_bond_site_symmetry_2
Be0 Be2 2.083713 1_555
Be0 Ru3 2.239866 1_555
Be0 Ru1 2.242833 1_555
Be0 Be4 2.289699 1_555
Be0 Be16 2.289699 1_555
Be0 Ru8 2.439243 1_555
Be0 Ru13 2.689071 1_565
Be0 Ru11 2.807651 1_565
Be1 Be5 2.083713 1_555
Be1 Ru5 2.239866 1_555
Be1 Ru0 2.242833 1_555
Be1 Be17 2.289699 1_555
Be1 Be7 2.289699 1_555
Be1 Ru9 2.439243 1_555
Be1 Ru13 2.689071 1_555
Be1 Ru10 2.807651 1_545
Be2 Ru6 2.239866 1_665
Be2 Ru4 2.242833 1_655
Be2 Be20 2.289699 1_565
Be2 Ru8 2.439243 1_555
Be2 Ru12 2.689071 1_666
Be2 Ru11 2.807651 1_565
Be3 Be8 2.083713 1_555
Be3 Ru3 2.239866 1_555
Be3 Ru4 2.242833 1_555
Be3 Ru10 2.439243 1_556
Be3 Ru15 2.689071 1_555
Be3 Ru9 2.807651 1_555
Be4 Be9 2.083713 1_555
Be4 Ru8 2.239866 1_555
Be4 Ru5 2.242833 1_555
Be4 Ru0 2.439243 1_555
Be4 Ru15 2.689071 1_655
Be4 Ru4 2.807651 1_655
Be5 Ru7 2.239866 1_445
Be5 Ru2 2.242833 1_455
Be5 Ru9 2.439243 1_555
Be5 Ru12 2.689071 1_555
Be5 Ru10 2.807651 1_545
Be6 Ru5 2.239866 1_555
Be6 Ru2 2.242833 1_555
Be6 Ru11 2.439243 1_554
Be6 Ru15 2.689071 1_655
Be6 Ru8 2.807651 1_555
Be7 Ru9 2.239866 1_555
Be7 Ru3 2.242833 1_555
Be7 Ru1 2.439243 1_555
Be7 Ru15 2.689071 1_555
Be7 Ru2 2.807651 1_455
Be8 Ru6 2.239866 1_555
Be8 Ru1 2.242833 1_556
Be8 Be9 2.289699 1_455
Be8 Ru10 2.439243 1_556
Be8 Ru14 2.689071 1_556
Be8 Ru9 2.807651 1_555
Be9 Ru10 2.239866 1_656
Be9 Ru7 2.242833 1_556
Be9 Ru0 2.439243 1_555
Be9 Ru12 2.689071 1_666
Be9 Ru4 2.807651 1_655
Be10 Be6 2.083713 1_555
Be10 Ru7 2.239866 1_555
Be10 Ru0 2.242833 1_554
Be10 Be19 2.289699 1_655
Be10 Be11 2.289699 1_655
Be10 Ru11 2.439243 1_554
Be10 Ru14 2.689071 1_555
Be10 Ru8 2.807651 1_555
Be11 Be7 2.083713 1_555
Be11 Ru11 2.239866 1_454
Be11 Ru6 2.242833 1_554
Be11 Be19 2.289699 1_555
Be11 Ru1 2.439243 1_555
Be11 Ru12 2.689071 1_555
Be11 Ru2 2.807651 1_455
Be12 Be14 2.083713 1_555
Be12 Ru8 2.239866 1_555
Be12 Ru7 2.242833 1_555
Be12 Be2 2.289699 1_555
Be12 Be20 2.289699 1_565
Be12 Ru2 2.439243 1_565
Be12 Ru14 2.689071 1_555
Be12 Ru1 2.807651 1_555
Be13 Be15 2.083713 1_555
Be13 Ru9 2.239866 1_555
Be13 Ru6 2.242833 1_555
Be13 Be21 2.289699 1_545
Be13 Be5 2.289699 1_555
Be13 Ru4 2.439243 1_545
Be13 Ru14 2.689071 1_556
Be13 Ru0 2.807651 1_555
Be14 Ru10 2.239866 1_555
Be14 Ru5 2.242833 1_565
Be14 Be22 2.289699 1_554
Be14 Be3 2.289699 1_554
Be14 Ru2 2.439243 1_565
Be14 Ru13 2.689071 1_565
Be14 Ru1 2.807651 1_555
Be15 Ru11 2.239866 1_555
Be15 Ru3 2.242833 1_545
Be15 Be6 2.289699 1_556
Be15 Be23 2.289699 1_556
Be15 Ru4 2.439243 1_545
Be15 Ru13 2.689071 1_555
Be15 Ru0 2.807651 1_555
Be16 Be22 2.083713 1_555
Be16 Ru0 2.239866 1_555
Be16 Ru9 2.242833 1_555
Be16 Be4 2.289699 1_555
Be16 Ru3 2.439243 1_555
Be16 Ru14 2.689071 1_556
Be16 Ru7 2.807651 1_556
Be17 Be23 2.083713 1_555
Be17 Ru1 2.239866 1_555
Be17 Ru8 2.242833 1_555
Be17 Be7 2.289699 1_555
Be17 Ru5 2.439243 1_555
Be17 Ru14 2.689071 1_555
Be17 Ru6 2.807651 1_554
Be18 Be20 2.083713 1_555
Be18 Ru0 2.239866 1_555
Be18 Ru11 2.242833 1_555
Be18 Be9 2.289699 1_555
Be18 Be8 2.289699 1_655
Be18 Ru6 2.439243 1_655
Be18 Ru13 2.689071 1_555
Be18 Ru5 2.807651 1_555
Be19 Be21 2.083713 1_555
Be19 Ru1 2.239866 1_555
Be19 Ru10 2.242833 1_555
Be19 Ru7 2.439243 1_455
Be19 Ru13 2.689071 1_565
Be19 Ru3 2.807651 1_555
Be20 Ru2 2.239866 1_555
Be20 Ru9 2.242833 1_655
Be20 Ru6 2.439243 1_655
Be20 Ru15 2.689071 1_655
Be20 Ru5 2.807651 1_555
Be21 Ru4 2.239866 1_555
Be21 Ru8 2.242833 1_455
Be21 Be5 2.289699 1_565
Be21 Ru7 2.439243 1_455
Be21 Ru15 2.689071 1_555
Be21 Ru3 2.807651 1_555
Be22 Ru2 2.239866 1_566
Be22 Ru11 2.242833 1_565
Be22 Be3 2.289699 1_555
Be22 Ru3 2.439243 1_555
Be22 Ru12 2.689071 1_666
Be22 Ru7 2.807651 1_556
Be23 Ru4 2.239866 1_544
Be23 Ru10 2.242833 1_545
Be23 Be6 2.289699 1_555
Be23 Ru5 2.439243 1_555
Be23 Ru12 2.689071 1_555
Be23 Ru6 2.807651 1_554
Ru0 Ru13 2.661605 1_555
Ru0 Ru14 2.661605 1_556
Ru1 Ru13 2.661605 1_565
Ru1 Ru14 2.661605 1_555
Ru10 Ru12 2.661605 1_565
Ru10 Ru13 2.661605 1_565
Ru11 Ru13 2.661605 1_555
Ru11 Ru12 2.661605 1_656
Ru12 Ru2 2.661605 1_455
Ru12 Ru6 2.661605 1_554
Ru12 Ru4 2.661605 1_544
Ru12 Ru7 2.661605 1_445
Ru13 Ru5 2.661605 1_555
Ru13 Ru3 2.661605 1_545
Ru14 Ru8 2.661605 1_555
Ru14 Ru9 2.661605 1_554
Ru14 Ru7 2.661605 1_555
Ru14 Ru6 2.661605 1_554
Ru15 Ru3 2.661605 1_555
Ru15 Ru5 2.661605 1_455
Ru15 Ru4 2.661605 1_555
Ru15 Ru9 2.661605 1_555
Ru15 Ru8 2.661605 1_455
Ru15 Ru2 2.661605 1_455
