# generated using pymatgen
data_LuCuAs2
_symmetry_space_group_name_H-M   'P 1'
_cell_length_a   3.82623832
_cell_length_b   3.82623832
_cell_length_c   9.73647815
_cell_angle_alpha   90.00000000
_cell_angle_beta   90.00000000
_cell_angle_gamma   90.00000000
_symmetry_Int_Tables_number   1
_chemical_formula_structural   LuCuAs2
_chemical_formula_sum   'Lu2 Cu2 As4'
_cell_volume   142.54301066
_cell_formula_units_Z   2
loop_
 _symmetry_equiv_pos_site_id
 _symmetry_equiv_pos_as_xyz
  1  'x, y, z'
loop_
 _atom_site_type_symbol
 _atom_site_label
 _atom_site_symmetry_multiplicity
 _atom_site_fract_x
 _atom_site_fract_y
 _atom_site_fract_z
 _atom_site_occupancy
  Lu  Lu0  1  -0.00000000  0.50000000  0.76501745  1
  Lu  Lu1  1  0.50000000  -0.00000000  0.23498255  1
  Cu  Cu0  1  -0.00000000  -0.00000000  0.50000000  1
  Cu  Cu1  1  0.50000000  0.50000000  0.50000000  1
  As  As0  1  -0.00000000  -0.00000000  -0.00000000  1
  As  As1  1  0.50000000  0.50000000  0.00000000  1
  As  As2  1  0.50000000  -0.00000000  0.66351779  1
  As  As3  1  0.00000000  0.50000000  0.33648221  1
loop_
_geom_bond_atom_site_label_1
_geom_bond_atom_site_label_2
_geom_bond_distance
_geom_bond_site_symmetry_2
As0 As1 2.705559 1_455
As0 As1 2.705559 1_545
As0 As1 2.705559 1_555
As0 As1 2.705559 1_445
As0 Lu0 2.982369 1_554
As0 Lu1 2.982369 1_455
As0 Lu1 2.982369 1_555
As0 Lu0 2.982369 1_544
As1 Lu0 2.982369 1_554
As1 Lu1 2.982369 1_565
As1 Lu0 2.982369 1_654
As1 Lu1 2.982369 1_555
As2 Cu0 2.488929 1_555
As2 Cu0 2.488929 1_655
As2 Cu1 2.488929 1_555
As2 Cu1 2.488929 1_545
As2 Lu0 2.880397 1_645
As2 Lu0 2.880397 1_555
As2 Lu0 2.880397 1_655
As2 Lu0 2.880397 1_545
As3 Cu0 2.488929 1_555
As3 Cu0 2.488929 1_565
As3 Cu1 2.488929 1_455
As3 Cu1 2.488929 1_555
As3 Lu1 2.880397 1_565
As3 Lu1 2.880397 1_455
As3 Lu1 2.880397 1_555
As3 Lu1 2.880397 1_465
