# generated using pymatgen
data_Al3BC3
_symmetry_space_group_name_H-M   'P 1'
_cell_length_a   5.89381357
_cell_length_b   5.89381170
_cell_length_c   15.84543758
_cell_angle_alpha   89.99995139
_cell_angle_beta   90.00003755
_cell_angle_gamma   119.99999610
_symmetry_Int_Tables_number   1
_chemical_formula_structural   Al3BC3
_chemical_formula_sum   'Al18 B6 C18'
_cell_volume   476.68066475
_cell_formula_units_Z   6
loop_
 _symmetry_equiv_pos_site_id
 _symmetry_equiv_pos_as_xyz
  1  'x, y, z'
loop_
 _atom_site_type_symbol
 _atom_site_label
 _atom_site_symmetry_multiplicity
 _atom_site_fract_x
 _atom_site_fract_y
 _atom_site_fract_z
 _atom_site_occupancy
  Al  Al0  1  0.68020409  0.00000029  0.12292411  1
  Al  Al1  1  -0.00000023  0.68020449  0.12292409  1
  Al  Al2  1  0.31979540  0.31979571  0.12292410  1
  Al  Al3  1  0.68021615  0.68021596  0.62294574  1
  Al  Al4  1  0.31978416  0.00000024  0.62294569  1
  Al  Al5  1  -0.00000055  0.31978386  0.62294581  1
  Al  Al6  1  0.00000078  0.34767938  0.87751845  1
  Al  Al7  1  0.65232073  0.65231959  0.87751841  1
  Al  Al8  1  0.34767944  0.00000032  0.87751796  1
  Al  Al9  1  -0.00000025  0.65233463  0.37753279  1
  Al  Al10  1  0.34766500  0.34766514  0.37753279  1
  Al  Al11  1  0.65233464  0.00000024  0.37753277  1
  Al  Al12  1  0.33333389  0.66666631  0.73783959  1
  Al  Al13  1  0.33333312  0.66666672  0.23784560  1
  Al  Al14  1  0.66666724  0.33333353  0.73783969  1
  Al  Al15  1  0.66666626  0.33333361  0.23784565  1
  Al  Al16  1  -0.00000026  0.00000022  0.26739277  1
  Al  Al17  1  -0.00000012  -0.00000030  0.76740160  1
  B  B0  1  -0.00000012  0.00000022  0.49040422  1
  B  B1  1  0.00000014  -0.00000017  0.99037352  1
  B  B2  1  0.66666597  0.33333363  0.50635470  1
  B  B3  1  0.66666645  0.33333344  0.00632184  1
  B  B4  1  0.33333334  0.66666667  0.50635471  1
  B  B5  1  0.33333369  0.66666626  0.00632186  1
  C  C0  1  -0.00000000  0.00000017  0.40053780  1
  C  C1  1  0.00000011  -0.00000066  0.90052841  1
  C  C2  1  0.66666642  0.33333349  0.59695162  1
  C  C3  1  0.66666645  0.33333381  0.09693627  1
  C  C4  1  -0.00000024  0.66692814  0.25011703  1
  C  C5  1  0.33307178  0.33307190  0.25011701  1
  C  C6  1  0.66692777  0.00000021  0.25011700  1
  C  C7  1  0.00000017  0.33307327  0.75011917  1
  C  C8  1  0.66692709  0.66692650  0.75011915  1
  C  C9  1  0.33307371  0.00000009  0.75011901  1
  C  C10  1  -0.00000018  0.00000001  0.58109099  1
  C  C11  1  -0.00000021  0.00000035  0.08108154  1
  C  C12  1  0.66666641  0.33333330  0.41588721  1
  C  C13  1  0.66666696  0.33333245  0.91587259  1
  C  C14  1  0.33333328  0.66666660  0.59695162  1
  C  C15  1  0.33333317  0.66666668  0.09693627  1
  C  C16  1  0.33333333  0.66666666  0.41588722  1
  C  C17  1  0.33333400  0.66666705  0.91587261  1
loop_
_geom_bond_atom_site_label_1
_geom_bond_atom_site_label_2
_geom_bond_distance
_geom_bond_site_symmetry_2
Al0 C11 1.998029 1_655
Al0 C6 2.016945 1_555
Al0 C3 2.047525 1_555
Al0 C15 2.047526 1_545
Al1 C11 1.998029 1_565
Al1 C4 2.016946 1_555
Al1 C3 2.047524 1_455
Al1 C15 2.047526 1_555
Al2 C11 1.998028 1_555
Al2 C5 2.016946 1_555
Al2 C15 2.047524 1_555
Al2 C3 2.047525 1_555
Al3 C10 1.998027 1_665
Al3 C8 2.016640 1_555
Al3 C2 2.047578 1_555
Al3 C14 2.047582 1_555
Al4 C10 1.998029 1_555
Al4 C9 2.016639 1_555
Al4 C2 2.047579 1_555
Al4 C14 2.047582 1_545
Al5 C10 1.998028 1_555
Al5 C7 2.016639 1_555
Al5 C2 2.047580 1_455
Al5 C14 2.047582 1_555
Al6 C17 2.017438 1_555
Al6 C13 2.017438 1_455
Al6 C7 2.020532 1_555
Al6 C1 2.081342 1_555
Al7 C13 2.017436 1_555
Al7 C17 2.017439 1_555
Al7 C8 2.020532 1_555
Al7 C1 2.081342 1_665
Al8 C13 2.017436 1_555
Al8 C17 2.017440 1_545
Al8 C9 2.020527 1_555
Al8 C1 2.081340 1_555
Al9 C12 2.017475 1_455
Al9 C16 2.017476 1_555
Al9 C4 2.020790 1_555
Al9 C0 2.081246 1_565
Al10 C12 2.017475 1_555
Al10 C16 2.017475 1_555
Al10 C5 2.020790 1_555
Al10 C0 2.081244 1_555
Al11 C12 2.017474 1_555
Al11 C16 2.017476 1_545
Al11 C6 2.020790 1_555
Al11 C0 2.081246 1_655
Al12 C8 1.974978 1_555
Al12 C7 1.974979 1_555
Al12 C9 1.974982 1_565
Al12 C14 2.232432 1_555
Al13 C5 1.974971 1_555
Al13 C6 1.974971 1_565
Al13 C4 1.974971 1_555
Al13 C15 2.232770 1_555
Al14 C8 1.974977 1_555
Al14 C7 1.974977 1_655
Al14 C9 1.974980 1_555
Al14 C2 2.232433 1_555
Al15 C5 1.974968 1_555
Al15 C4 1.974970 1_655
Al15 C6 1.974971 1_555
Al15 C3 2.232771 1_555
Al16 C5 1.982057 1_555
Al16 C6 1.982058 1_455
Al16 C4 1.982059 1_545
Al16 C0 2.109741 1_555
Al17 C8 1.982079 1_445
Al17 C7 1.982081 1_555
Al17 C9 1.982083 1_555
Al17 C1 2.109453 1_555
B0 C0 1.423973 1_555
B0 C10 1.436972 1_555
B1 C1 1.423635 1_555
B1 C11 1.437308 1_556
B2 C12 1.433497 1_555
B2 C2 1.435548 1_555
B3 C13 1.433208 1_554
B3 C3 1.435825 1_555
B4 C16 1.433497 1_555
B4 C14 1.435548 1_555
B5 C17 1.433208 1_554
B5 C15 1.435825 1_555
