# generated using pymatgen
data_Sn4Te3Se
_symmetry_space_group_name_H-M   'P 1'
_cell_length_a   4.18817508
_cell_length_b   4.18817508
_cell_length_c   23.68981327
_cell_angle_alpha   84.92865805
_cell_angle_beta   95.07134195
_cell_angle_gamma   120.00000000
_symmetry_Int_Tables_number   1
_chemical_formula_structural   Sn4Te3Se
_chemical_formula_sum   'Sn4 Te3 Se1'
_cell_volume   357.98737575
_cell_formula_units_Z   1
loop_
 _symmetry_equiv_pos_site_id
 _symmetry_equiv_pos_as_xyz
  1  'x, y, z'
loop_
 _atom_site_type_symbol
 _atom_site_label
 _atom_site_symmetry_multiplicity
 _atom_site_fract_x
 _atom_site_fract_y
 _atom_site_fract_z
 _atom_site_occupancy
  Sn  Sn0  1  0.05505900  0.94494000  0.16517900  1
  Sn  Sn1  1  0.81064400  0.18935600  0.43193200  1
  Sn  Sn2  1  0.56639700  0.43360300  0.69919100  1
  Sn  Sn3  1  0.31313000  0.68687000  0.93939000  1
  Te  Te0  1  0.74587200  0.25412800  0.23761500  1
  Te  Te1  1  0.50149800  0.49850200  0.50449500  1
  Te  Te2  1  0.25727100  0.74272900  0.77181300  1
  Se  Se0  1  0.00012900  0.99987100  0.00038600  1
loop_
_geom_bond_atom_site_label_1
_geom_bond_atom_site_label_2
_geom_bond_distance
_geom_bond_site_symmetry_2
Sn0 Te0 2.959878 1_465
Sn0 Te0 2.959881 1_455
Sn0 Te0 2.959884 1_565
Sn1 Te1 2.961608 1_655
Sn1 Te1 2.961608 1_545
Sn1 Te1 2.961610 1_555
Sn2 Te2 2.962411 1_555
Sn2 Te2 2.962412 1_655
Sn2 Te2 2.962412 1_545
Se0 Sn3 2.813032 1_554
Se0 Sn3 2.813035 1_454
Se0 Sn3 2.813035 1_564
