# generated using pymatgen
data_Tb2Ge6Pd
_symmetry_space_group_name_H-M   'P 1'
_cell_length_a   4.06436200
_cell_length_b   4.10305800
_cell_length_c   11.19142406
_cell_angle_alpha   90.00000000
_cell_angle_beta   100.46202368
_cell_angle_gamma   90.00000000
_symmetry_Int_Tables_number   1
_chemical_formula_structural   Tb2Ge6Pd
_chemical_formula_sum   'Tb2 Ge6 Pd1'
_cell_volume   183.52902836
_cell_formula_units_Z   1
loop_
 _symmetry_equiv_pos_site_id
 _symmetry_equiv_pos_as_xyz
  1  'x, y, z'
loop_
 _atom_site_type_symbol
 _atom_site_label
 _atom_site_symmetry_multiplicity
 _atom_site_fract_x
 _atom_site_fract_y
 _atom_site_fract_z
 _atom_site_occupancy
  Tb  Tb0  1  0.77735100  0.50000000  0.55470200  1
  Tb  Tb1  1  0.11778600  0.50000000  0.23557200  1
  Ge  Ge0  1  0.49294900  0.50000000  0.98589700  1
  Ge  Ge1  1  0.37928900  0.50000000  0.75857900  1
  Ge  Ge2  1  0.99225000  0.00000000  0.98449900  1
  Ge  Ge3  1  0.87790300  0.00000000  0.75580600  1
  Ge  Ge4  1  0.66967200  0.00000000  0.33934300  1
  Ge  Ge5  1  0.24099100  0.00000000  0.48198300  1
  Pd  Pd0  1  0.55880900  0.00000000  0.11761900  1
loop_
_geom_bond_atom_site_label_1
_geom_bond_atom_site_label_2
_geom_bond_distance
_geom_bond_site_symmetry_2
Ge0 Ge1 2.501719 1_555
Ge0 Pd0 2.512022 1_556
Ge0 Pd0 2.512022 1_566
Ge0 Ge2 2.887692 1_465
Ge0 Ge2 2.887692 1_455
Ge0 Ge2 2.887692 1_565
Ge0 Ge2 2.887692 1_555
Ge0 Tb1 3.417597 1_656
Ge0 Tb1 3.417600 1_556
Ge1 Ge3 2.887811 1_455
Ge1 Ge3 2.887811 1_465
Ge1 Ge3 2.887814 1_555
Ge1 Ge3 2.887814 1_565
Ge1 Tb0 3.027231 1_455
Ge1 Tb0 3.027234 1_555
Ge2 Pd0 2.505209 1_656
Ge2 Pd0 2.505215 1_556
Ge2 Ge3 2.516852 1_555
Ge2 Tb1 3.441479 1_646
Ge2 Tb1 3.441479 1_656
Ge3 Tb0 3.017803 1_555
Ge3 Tb0 3.017803 1_545
Ge4 Pd0 2.440155 1_555
Ge4 Ge5 2.567885 1_655
Ge4 Ge5 2.567892 1_555
Ge4 Tb1 3.105282 1_645
Ge4 Tb1 3.105282 1_655
Ge4 Tb1 3.105284 1_555
Ge4 Tb1 3.105284 1_545
Ge4 Tb0 3.134673 1_555
Ge4 Tb0 3.134673 1_545
Ge5 Tb0 2.996498 1_455
Ge5 Tb0 2.996498 1_445
Ge5 Tb0 2.996501 1_545
Ge5 Tb0 2.996501 1_555
Ge5 Tb1 3.400422 1_545
Ge5 Tb1 3.400422 1_555
Pd0 Tb1 3.166012 1_545
Pd0 Tb1 3.166012 1_555
Pd0 Tb1 3.166014 1_645
Pd0 Tb1 3.166014 1_655
