# generated using pymatgen
data_KNaCa3Mg10(SiO3)16
_symmetry_space_group_name_H-M   'P 1'
_cell_length_a   10.15907600
_cell_length_b   10.53589000
_cell_length_c   10.56379038
_cell_angle_alpha   97.05827227
_cell_angle_beta   105.33701676
_cell_angle_gamma   114.58045774
_symmetry_Int_Tables_number   1
_chemical_formula_structural   KNaCa3Mg10(SiO3)16
_chemical_formula_sum   'K1 Na1 Ca3 Mg10 Si16 O48'
_cell_volume   956.00330610
_cell_formula_units_Z   1
loop_
 _symmetry_equiv_pos_site_id
 _symmetry_equiv_pos_as_xyz
  1  'x, y, z'
loop_
 _atom_site_type_symbol
 _atom_site_label
 _atom_site_symmetry_multiplicity
 _atom_site_fract_x
 _atom_site_fract_y
 _atom_site_fract_z
 _atom_site_occupancy
  K  K0  1  0.51041600  0.00304500  0.74354000  1
  Na  Na0  1  0.72186500  0.44201700  0.60856800  1
  Ca  Ca0  1  0.71662600  0.43642500  0.11072900  1
  Ca  Ca1  1  0.27855300  0.56378600  0.89248800  1
  Ca  Ca2  1  0.28485600  0.56317900  0.38871800  1
  Mg  Mg0  1  0.81722000  0.63740100  0.41359400  1
  Mg  Mg1  1  0.81937700  0.63609500  0.90491400  1
  Mg  Mg2  1  0.17888700  0.36064400  0.58970600  1
  Mg  Mg3  1  0.17993400  0.35738400  0.08943200  1
  Mg  Mg4  1  0.90010800  0.79981100  0.70036300  1
  Mg  Mg5  1  0.89962600  0.79906900  0.20103900  1
  Mg  Mg6  1  0.09916600  0.19848700  0.79919500  1
  Mg  Mg7  1  0.10044400  0.19982300  0.30173500  1
  Mg  Mg8  1  0.00310200  0.99856300  0.00498600  1
  Mg  Mg9  1  0.99850700  0.99982200  0.50145300  1
  Si  Si0  1  0.19258500  0.83295800  0.94952200  1
  Si  Si1  1  0.18725500  0.83057900  0.44479400  1
  Si  Si2  1  0.35702100  0.16944400  0.52889300  1
  Si  Si3  1  0.35947800  0.16740200  0.03379400  1
  Si  Si4  1  0.80799100  0.16816100  0.55122600  1
  Si  Si5  1  0.81262100  0.16881600  0.05471500  1
  Si  Si6  1  0.64310300  0.83068500  0.97045900  1
  Si  Si7  1  0.64063800  0.83269200  0.46682900  1
  Si  Si8  1  0.11778000  0.66002900  0.65613600  1
  Si  Si9  1  0.11485800  0.65497000  0.15396600  1
  Si  Si10  1  0.46026800  0.34475000  0.32835300  1
  Si  Si11  1  0.45780500  0.34110000  0.82624700  1
  Si  Si12  1  0.88413600  0.34229200  0.84251500  1
  Si  Si13  1  0.88342900  0.34358100  0.34545600  1
  Si  Si14  1  0.53962100  0.65590500  0.17343600  1
  Si  Si15  1  0.54219600  0.65888100  0.67323400  1
  O  O0  1  0.95202700  0.65815200  0.61063700  1
  O  O1  1  0.94494400  0.64907300  0.11011900  1
  O  O2  1  0.29569900  0.35070400  0.78587300  1
  O  O3  1  0.29406700  0.34891000  0.28416900  1
  O  O4  1  0.05454300  0.34782200  0.88934200  1
  O  O5  1  0.05518000  0.35226300  0.38973300  1
  O  O6  1  0.70622800  0.65737100  0.71850100  1
  O  O7  1  0.70312600  0.64938600  0.21393400  1
  O  O8  1  0.02343700  0.82383600  0.91049300  1
  O  O9  1  0.01868800  0.82101400  0.40773200  1
  O  O10  1  0.19712700  0.17897500  0.49738700  1
  O  O11  1  0.19859100  0.17536500  0.99782500  1
  O  O12  1  0.97846300  0.17876300  0.59057200  1
  O  O13  1  0.98089000  0.17724500  0.09289600  1
  O  O14  1  0.80190700  0.82048700  0.00371800  1
  O  O15  1  0.79960700  0.82248700  0.50101300  1
  O  O16  1  0.32343400  0.99959900  0.51473000  1
  O  O17  1  0.32995700  0.00012600  0.01989100  1
  O  O18  1  0.67081200  0.99998100  0.48197300  1
  O  O19  1  0.67539600  0.99982800  0.98374600  1
  O  O20  1  0.12690800  0.51288200  0.66603100  1
  O  O21  1  0.12254400  0.50720200  0.16346400  1
  O  O22  1  0.60937800  0.49596300  0.40713200  1
  O  O23  1  0.61353600  0.48834300  0.90938300  1
  O  O24  1  0.88422500  0.49262500  0.83984500  1
  O  O25  1  0.87693800  0.49177100  0.33506100  1
  O  O26  1  0.38469600  0.50806200  0.08880400  1
  O  O27  1  0.38612600  0.51126000  0.59056500  1
  O  O28  1  0.22603300  0.76836300  0.81708900  1
  O  O29  1  0.21895500  0.76115200  0.31509800  1
  O  O30  1  0.45252400  0.23389300  0.43048900  1
  O  O31  1  0.45602200  0.23274300  0.93278600  1
  O  O32  1  0.77655100  0.22749400  0.68646400  1
  O  O33  1  0.78037400  0.23811700  0.18361300  1
  O  O34  1  0.54159400  0.76243000  0.06545900  1
  O  O35  1  0.54205900  0.76778500  0.56696200  1
  O  O36  1  0.21119200  0.73165500  0.05430000  1
  O  O37  1  0.21780900  0.74026500  0.55857500  1
  O  O38  1  0.47029600  0.25513400  0.68950000  1
  O  O39  1  0.47919900  0.26916500  0.18818100  1
  O  O40  1  0.78874700  0.26432300  0.44304400  1
  O  O41  1  0.78652300  0.25989400  0.94129700  1
  O  O42  1  0.52368100  0.73988500  0.81139300  1
  O  O43  1  0.51986400  0.73220100  0.31132700  1
  O  O44  1  0.06553100  0.99934200  0.22300500  1
  O  O45  1  0.06523700  0.99969700  0.71916400  1
  O  O46  1  0.93510900  0.99956400  0.77491000  1
  O  O47  1  0.93475600  0.99960600  0.27674400  1
loop_
_geom_bond_atom_site_label_1
_geom_bond_atom_site_label_2
_geom_bond_distance
_geom_bond_site_symmetry_2
K0 O16 2.635196 1_545
K0 O19 2.658521 1_545
K0 O38 2.948965 1_555
K0 O41 2.958241 1_555
K0 O42 2.994587 1_545
K0 O37 3.011749 1_545
K0 O32 3.026423 1_555
K0 O35 3.093615 1_545
K0 O31 3.265990 1_555
K0 O28 3.283389 1_545
Na0 O22 2.389195 1_555
Na0 O24 2.406323 1_555
Na0 O0 2.486834 1_555
Na0 O6 2.504374 1_555
Na0 O30 2.665686 1_555
Na0 O32 2.711848 1_555
Na0 O40 2.811829 1_555
Na0 O38 2.919344 1_555
Ca0 O25 2.331746 1_555
Ca0 O23 2.346110 1_554
Ca0 O7 2.444524 1_555
Ca0 O1 2.467344 1_555
Ca0 O33 2.575825 1_555
Ca0 O31 2.607163 1_554
Ca0 O39 2.730367 1_555
Ca0 O41 2.849560 1_554
Ca1 O20 2.330576 1_555
Ca1 O26 2.334784 1_556
Ca1 O4 2.447629 1_555
Ca1 O2 2.479231 1_555
Ca1 O34 2.585396 1_556
Ca1 O28 2.592045 1_555
Ca1 O36 2.720482 1_556
Ca1 O42 2.837778 1_555
Ca2 O27 2.344917 1_555
Ca2 O21 2.345093 1_555
Ca2 O3 2.437740 1_555
Ca2 O5 2.467379 1_555
Ca2 O29 2.586250 1_555
Ca2 O35 2.594936 1_555
Ca2 O43 2.718977 1_555
Ca2 O37 2.836490 1_555
Mg0 O22 1.991158 1_555
Mg0 O25 2.034293 1_555
Mg0 O0 2.094559 1_555
Mg0 O15 2.150031 1_555
Mg0 O7 2.168409 1_555
Mg0 O9 2.176645 1_655
Mg1 O24 2.001013 1_555
Mg1 O23 2.039739 1_555
Mg1 O6 2.091615 1_555
Mg1 O1 2.159702 1_556
Mg1 O8 2.170003 1_655
Mg1 O14 2.186694 1_556
Mg2 O20 2.028220 1_555
Mg2 O27 2.039037 1_555
Mg2 O5 2.123016 1_555
Mg2 O2 2.137608 1_555
Mg2 O10 2.140307 1_555
Mg2 O12 2.141521 1_455
Mg3 O26 2.027315 1_555
Mg3 O21 2.036307 1_555
Mg3 O3 2.110396 1_555
Mg3 O4 2.125366 1_554
Mg3 O13 2.134419 1_455
Mg3 O11 2.143231 1_554
Mg4 O0 1.993967 1_555
Mg4 O6 1.994885 1_555
Mg4 O46 1.999455 1_555
Mg4 O45 2.017568 1_655
Mg4 O8 2.165198 1_655
Mg4 O15 2.173357 1_555
Mg5 O47 2.009342 1_555
Mg5 O44 2.015186 1_655
Mg5 O7 2.016980 1_555
Mg5 O1 2.024378 1_555
Mg5 O9 2.128423 1_655
Mg5 O14 2.142131 1_555
Mg6 O46 1.992930 1_445
Mg6 O45 2.007557 1_545
Mg6 O4 2.010328 1_555
Mg6 O2 2.029382 1_555
Mg6 O12 2.156309 1_455
Mg6 O11 2.166002 1_555
Mg7 O47 2.006712 1_445
Mg7 O3 2.016229 1_555
Mg7 O44 2.016938 1_545
Mg7 O5 2.031934 1_555
Mg7 O10 2.121775 1_555
Mg7 O13 2.147556 1_455
Mg8 O8 2.098068 1_554
Mg8 O11 2.110962 1_564
Mg8 O14 2.118252 1_455
Mg8 O13 2.119442 1_465
Mg8 O44 2.219221 1_555
Mg8 O46 2.347065 1_454
Mg9 O15 2.103784 1_555
Mg9 O12 2.113464 1_565
Mg9 O10 2.129161 1_665
Mg9 O9 2.131113 1_655
Mg9 O45 2.219376 1_655
Mg9 O47 2.288770 1_555
O0 Si8 1.615159 1_655
O1 Si9 1.636709 1_655
O2 Si11 1.637661 1_555
O3 Si10 1.649345 1_555
O4 Si12 1.643491 1_455
O5 Si13 1.642122 1_455
O6 Si15 1.615006 1_555
O7 Si14 1.634956 1_555
O8 Si0 1.615600 1_555
O9 Si1 1.608759 1_555
O10 Si2 1.617831 1_555
O11 Si3 1.617490 1_556
O12 Si4 1.622149 1_555
O13 Si5 1.610273 1_555
O14 Si6 1.609774 1_554
O15 Si7 1.611091 1_555
O16 Si1 1.648433 1_555
O16 Si2 1.655364 1_565
O17 Si0 1.639155 1_544
O17 Si3 1.640407 1_555
O18 Si7 1.637491 1_555
O18 Si4 1.644628 1_565
O19 Si5 1.652157 1_566
O19 Si6 1.652542 1_555
O20 Si8 1.605408 1_555
O21 Si9 1.604799 1_555
O22 Si10 1.589006 1_555
O23 Si11 1.602880 1_555
O24 Si12 1.587234 1_555
O25 Si13 1.605635 1_555
O26 Si14 1.605169 1_555
O27 Si15 1.605531 1_555
O28 Si0 1.657014 1_555
O28 Si8 1.700818 1_555
O29 Si1 1.642857 1_555
O29 Si9 1.691981 1_555
O30 Si2 1.625397 1_555
O30 Si10 1.677091 1_555
O31 Si3 1.657361 1_556
O31 Si11 1.696956 1_555
O32 Si4 1.649783 1_555
O32 Si12 1.682882 1_555
O33 Si5 1.638648 1_555
O33 Si13 1.694759 1_555
O34 Si6 1.641824 1_554
O34 Si14 1.693844 1_555
O35 Si7 1.660693 1_555
O35 Si15 1.701148 1_555
O36 Si0 1.657564 1_554
O36 Si9 1.677901 1_555
O37 Si1 1.666107 1_555
O37 Si8 1.692014 1_555
O38 Si2 1.656588 1_555
O38 Si11 1.671605 1_555
O39 Si3 1.650687 1_555
O39 Si10 1.688801 1_555
O40 Si4 1.643734 1_555
O40 Si13 1.659265 1_555
O41 Si5 1.659148 1_556
O41 Si12 1.696994 1_555
O42 Si6 1.664807 1_555
O42 Si15 1.693075 1_555
O43 Si7 1.658456 1_555
O43 Si14 1.676130 1_555
O44 O47 1.577652 1_455
O45 O46 1.582690 1_455
