# generated using pymatgen
data_NaTi2TlO6
_symmetry_space_group_name_H-M   'P 1'
_cell_length_a   5.46129397
_cell_length_b   5.46129397
_cell_length_c   5.63937782
_cell_angle_alpha   61.03922857
_cell_angle_beta   61.03922857
_cell_angle_gamma   90.00000000
_symmetry_Int_Tables_number   1
_chemical_formula_structural   NaTi2TlO6
_chemical_formula_sum   'Na1 Ti2 Tl1 O6'
_cell_volume   122.57510833
_cell_formula_units_Z   1
loop_
 _symmetry_equiv_pos_site_id
 _symmetry_equiv_pos_as_xyz
  1  'x, y, z'
loop_
 _atom_site_type_symbol
 _atom_site_label
 _atom_site_symmetry_multiplicity
 _atom_site_fract_x
 _atom_site_fract_y
 _atom_site_fract_z
 _atom_site_occupancy
  Na  Na0  1  0.99951400  0.99951400  0.00097100  1
  Ti  Ti0  1  0.75831200  0.25831200  0.48337600  1
  Ti  Ti1  1  0.25831200  0.75831200  0.48337600  1
  Tl  Tl0  1  0.47905600  0.47905600  0.04188900  1
  O  O0  1  0.03956800  0.53956800  0.92086300  1
  O  O1  1  0.53956800  0.03956800  0.92086300  1
  O  O2  1  0.04819300  0.04819300  0.41059600  1
  O  O3  1  0.54121200  0.54121200  0.41059600  1
  O  O4  1  0.54121200  0.04819300  0.41059600  1
  O  O5  1  0.04819300  0.54121200  0.41059600  1
loop_
_geom_bond_atom_site_label_1
_geom_bond_atom_site_label_2
_geom_bond_distance
_geom_bond_site_symmetry_2
Na0 O3 2.582051 1_555
Na0 O4 2.582057 1_565
Na0 O5 2.582057 1_655
Na0 O2 2.582063 1_665
Na0 O1 2.750422 1_564
Na0 O1 2.750422 1_664
Na0 O0 2.750422 1_654
Na0 O0 2.750422 1_664
O0 Ti1 1.797945 1_555
O0 Ti0 2.311765 1_456
O0 Tl0 2.775571 1_456
O0 Tl0 2.775581 1_556
O1 Ti0 1.797945 1_555
O1 Ti1 2.311765 1_546
O1 Tl0 2.775571 1_546
O1 Tl0 2.775581 1_556
O2 Ti0 1.954074 1_455
O2 Ti1 1.954074 1_545
O2 Tl0 2.433291 1_555
O3 Ti0 1.954074 1_555
O3 Ti1 1.954074 1_555
O3 Tl0 2.433291 1_555
O4 Ti0 1.954071 1_555
O4 Ti1 1.954078 1_545
O4 Tl0 2.433291 1_555
O5 Ti1 1.954071 1_555
O5 Ti0 1.954078 1_455
O5 Tl0 2.433291 1_555
