# generated using pymatgen
data_Ba3NiSb2O9
_symmetry_space_group_name_H-M   'P 1'
_cell_length_a   5.87851700
_cell_length_b   10.18189000
_cell_length_c   14.52209300
_cell_angle_alpha   90.00000000
_cell_angle_beta   90.00000000
_cell_angle_gamma   90.00000000
_symmetry_Int_Tables_number   1
_chemical_formula_structural   Ba3NiSb2O9
_chemical_formula_sum   'Ba12 Ni4 Sb8 O36'
_cell_volume   869.21135868
_cell_formula_units_Z   4
loop_
 _symmetry_equiv_pos_site_id
 _symmetry_equiv_pos_as_xyz
  1  'x, y, z'
loop_
 _atom_site_type_symbol
 _atom_site_label
 _atom_site_symmetry_multiplicity
 _atom_site_fract_x
 _atom_site_fract_y
 _atom_site_fract_z
 _atom_site_occupancy
  Ba  Ba0  1  0.50000000  0.16666700  0.90952300  1
  Ba  Ba1  1  0.00000000  0.66666700  0.90952300  1
  Ba  Ba2  1  0.00000000  0.33333300  0.40952200  1
  Ba  Ba3  1  0.50000000  0.83333300  0.40952200  1
  Ba  Ba4  1  0.50000000  0.16666700  0.60629100  1
  Ba  Ba5  1  0.00000000  0.66666700  0.60629100  1
  Ba  Ba6  1  0.00000000  0.33333300  0.10629100  1
  Ba  Ba7  1  0.50000000  0.83333300  0.10629100  1
  Ba  Ba8  1  0.00000000  0.00000000  0.74389200  1
  Ba  Ba9  1  0.50000000  0.50000000  0.74389200  1
  Ba  Ba10  1  0.00000000  0.00000000  0.24389200  1
  Ba  Ba11  1  0.50000000  0.50000000  0.24389200  1
  Ni  Ni0  1  0.50000000  0.83333300  0.65008500  1
  Ni  Ni1  1  0.00000000  0.66666700  0.15008500  1
  Ni  Ni2  1  0.00000000  0.33333300  0.65008500  1
  Ni  Ni3  1  0.50000000  0.16666700  0.15008500  1
  Sb  Sb0  1  0.00000000  0.00000000  0.00151300  1
  Sb  Sb1  1  0.50000000  0.50000000  0.00151300  1
  Sb  Sb2  1  0.00000000  0.00000000  0.50151300  1
  Sb  Sb3  1  0.50000000  0.50000000  0.50151300  1
  Sb  Sb4  1  0.00000000  0.33333300  0.83636800  1
  Sb  Sb5  1  0.50000000  0.83333300  0.83636800  1
  Sb  Sb6  1  0.50000000  0.16666700  0.33636800  1
  Sb  Sb7  1  0.00000000  0.66666700  0.33636800  1
  O  O0  1  0.75283600  0.08238800  0.41545900  1
  O  O1  1  0.25283600  0.58238800  0.41545900  1
  O  O2  1  0.25283600  0.41761200  0.91545900  1
  O  O3  1  0.75283600  0.91761200  0.91545900  1
  O  O4  1  0.00000000  0.16477600  0.91545900  1
  O  O5  1  0.50000000  0.66477600  0.91545900  1
  O  O6  1  0.50000000  0.33522400  0.41545900  1
  O  O7  1  0.00000000  0.83522400  0.41545900  1
  O  O8  1  0.24716400  0.08238800  0.41545900  1
  O  O9  1  0.74716400  0.58238800  0.41545900  1
  O  O10  1  0.74716400  0.41761200  0.91545900  1
  O  O11  1  0.24716400  0.91761200  0.91545900  1
  O  O12  1  0.26711800  0.24429400  0.25339000  1
  O  O13  1  0.76711800  0.74429400  0.25339000  1
  O  O14  1  0.76711800  0.25570600  0.75339000  1
  O  O15  1  0.26711800  0.75570600  0.75339000  1
  O  O16  1  0.00000000  0.48858800  0.75339000  1
  O  O17  1  0.50000000  0.98858800  0.75339000  1
  O  O18  1  0.50000000  0.01141200  0.25339000  1
  O  O19  1  0.00000000  0.51141200  0.25339000  1
  O  O20  1  0.73288200  0.24429400  0.25339000  1
  O  O21  1  0.23288200  0.74429400  0.25339000  1
  O  O22  1  0.23288200  0.25570600  0.75339000  1
  O  O23  1  0.73288200  0.75570600  0.75339000  1
  O  O24  1  0.74189500  0.41936800  0.57559000  1
  O  O25  1  0.24189500  0.91936800  0.57559000  1
  O  O26  1  0.24189500  0.08063200  0.07559000  1
  O  O27  1  0.74189500  0.58063200  0.07559000  1
  O  O28  1  0.50000000  0.33873700  0.07559000  1
  O  O29  1  0.00000000  0.83873700  0.07559000  1
  O  O30  1  0.00000000  0.16126300  0.57559000  1
  O  O31  1  0.50000000  0.66126300  0.57559000  1
  O  O32  1  0.25810500  0.41936800  0.57559000  1
  O  O33  1  0.75810500  0.91936800  0.57559000  1
  O  O34  1  0.75810500  0.08063200  0.07559000  1
  O  O35  1  0.25810500  0.58063200  0.07559000  1
loop_
_geom_bond_atom_site_label_1
_geom_bond_atom_site_label_2
_geom_bond_distance
_geom_bond_site_symmetry_2
Ba0 O14 2.903207 1_555
Ba0 O22 2.903207 1_555
Ba0 O17 2.903210 1_545
Ba0 O10 2.940582 1_555
Ba0 O2 2.940582 1_555
Ba0 O4 2.940585 1_655
Ba0 O4 2.940585 1_555
Ba0 O11 2.940588 1_545
Ba0 O3 2.940588 1_545
Ba0 O28 2.980857 1_556
Ba0 O34 2.980857 1_556
Ba0 O26 2.980857 1_556
Ba1 O15 2.903207 1_555
Ba1 O23 2.903207 1_455
Ba1 O16 2.903210 1_555
Ba1 O11 2.940582 1_555
Ba1 O3 2.940582 1_455
Ba1 O5 2.940585 1_455
Ba1 O5 2.940585 1_555
Ba1 O2 2.940588 1_555
Ba1 O10 2.940588 1_455
Ba1 O29 2.980857 1_556
Ba1 O27 2.980857 1_456
Ba1 O35 2.980857 1_556
Ba2 O12 2.903195 1_555
Ba2 O20 2.903195 1_455
Ba2 O19 2.903198 1_555
Ba2 O8 2.940583 1_555
Ba2 O0 2.940583 1_455
Ba2 O6 2.940586 1_555
Ba2 O6 2.940586 1_455
Ba2 O1 2.940589 1_555
Ba2 O9 2.940589 1_455
Ba2 O30 2.980868 1_555
Ba2 O24 2.980868 1_455
Ba2 O32 2.980868 1_555
Ba3 O13 2.903195 1_555
Ba3 O21 2.903195 1_555
Ba3 O18 2.903198 1_565
Ba3 O9 2.940583 1_555
Ba3 O1 2.940583 1_555
Ba3 O7 2.940586 1_555
Ba3 O7 2.940586 1_655
Ba3 O0 2.940589 1_565
Ba3 O8 2.940589 1_565
Ba3 O31 2.980868 1_555
Ba3 O33 2.980868 1_555
Ba3 O25 2.980868 1_555
Ba4 O14 2.801945 1_555
Ba4 O22 2.801945 1_555
Ba4 O17 2.801948 1_545
Ba4 O32 2.973383 1_555
Ba4 O24 2.973383 1_555
Ba4 O30 2.973389 1_555
Ba4 O30 2.973389 1_655
Ba4 O33 2.973395 1_545
Ba4 O25 2.973395 1_545
Ba4 O6 3.259668 1_555
Ba4 O0 3.259671 1_555
Ba4 O8 3.259671 1_555
Ba5 O15 2.801945 1_555
Ba5 O23 2.801945 1_455
Ba5 O16 2.801948 1_555
Ba5 O25 2.973383 1_555
Ba5 O33 2.973383 1_455
Ba5 O31 2.973389 1_555
Ba5 O31 2.973389 1_455
Ba5 O32 2.973395 1_555
Ba5 O24 2.973395 1_455
Ba5 O7 3.259668 1_555
Ba5 O1 3.259671 1_555
Ba5 O9 3.259671 1_455
Ba6 O12 2.801945 1_555
Ba6 O20 2.801945 1_455
Ba6 O19 2.801948 1_555
Ba6 O26 2.973383 1_555
Ba6 O34 2.973383 1_455
Ba6 O28 2.973389 1_455
Ba6 O28 2.973389 1_555
Ba6 O27 2.973395 1_455
Ba6 O35 2.973395 1_555
Ba6 O4 3.259668 1_554
Ba6 O2 3.259671 1_554
Ba6 O10 3.259671 1_454
Ba7 O13 2.801945 1_555
Ba7 O21 2.801945 1_555
Ba7 O18 2.801948 1_565
Ba7 O27 2.973383 1_555
Ba7 O35 2.973383 1_555
Ba7 O29 2.973389 1_555
Ba7 O29 2.973389 1_655
Ba7 O34 2.973395 1_565
Ba7 O26 2.973395 1_565
Ba7 O5 3.259668 1_554
Ba7 O11 3.259671 1_554
Ba7 O3 3.259671 1_554
Ba8 O30 2.944427 1_555
Ba8 O25 2.944430 1_545
Ba8 O33 2.944430 1_445
Ba8 O22 2.944786 1_555
Ba8 O14 2.944786 1_455
Ba8 O15 2.944786 1_545
Ba8 O23 2.944786 1_445
Ba8 O17 2.944786 1_445
Ba8 O17 2.944786 1_545
Ba8 O4 3.003733 1_555
Ba8 O11 3.003733 1_545
Ba8 O3 3.003733 1_445
Ba9 O31 2.944427 1_555
Ba9 O24 2.944430 1_555
Ba9 O32 2.944430 1_555
Ba9 O23 2.944786 1_555
Ba9 O15 2.944786 1_555
Ba9 O14 2.944786 1_555
Ba9 O22 2.944786 1_555
Ba9 O16 2.944786 1_555
Ba9 O16 2.944786 1_655
Ba9 O5 3.003733 1_555
Ba9 O10 3.003733 1_555
Ba9 O2 3.003733 1_555
Ba10 O29 2.944427 1_545
Ba10 O26 2.944430 1_555
Ba10 O34 2.944430 1_455
Ba10 O21 2.944786 1_545
Ba10 O13 2.944786 1_445
Ba10 O12 2.944786 1_555
Ba10 O20 2.944786 1_455
Ba10 O18 2.944786 1_455
Ba10 O18 2.944786 1_555
Ba10 O7 3.003733 1_545
Ba10 O8 3.003733 1_555
Ba10 O0 3.003733 1_455
Ba11 O28 2.944427 1_555
Ba11 O35 2.944430 1_555
Ba11 O27 2.944430 1_555
Ba11 O20 2.944786 1_555
Ba11 O12 2.944786 1_555
Ba11 O13 2.944786 1_555
Ba11 O21 2.944786 1_555
Ba11 O19 2.944786 1_655
Ba11 O19 2.944786 1_555
Ba11 O6 3.003733 1_555
Ba11 O9 3.003733 1_555
Ba11 O1 3.003733 1_555
Ni0 O31 2.059087 1_555
Ni0 O33 2.059087 1_555
Ni0 O25 2.059087 1_555
Ni0 O23 2.179333 1_555
Ni0 O15 2.179333 1_555
Ni0 O17 2.179337 1_555
Ni1 O29 2.059087 1_555
Ni1 O27 2.059087 1_455
Ni1 O35 2.059087 1_555
Ni1 O21 2.179333 1_555
Ni1 O13 2.179333 1_455
Ni1 O19 2.179337 1_555
Ni2 O30 2.059087 1_555
Ni2 O24 2.059087 1_455
Ni2 O32 2.059087 1_555
Ni2 O22 2.179333 1_555
Ni2 O14 2.179333 1_455
Ni2 O16 2.179337 1_555
Ni3 O28 2.059087 1_555
Ni3 O34 2.059087 1_555
Ni3 O26 2.059087 1_555
Ni3 O20 2.179333 1_555
Ni3 O12 2.179333 1_555
Ni3 O18 2.179337 1_555
O0 Sb6 2.065106 1_555
O0 Sb2 2.092007 1_655
O1 Sb7 2.065106 1_555
O1 Sb3 2.092007 1_555
O2 Sb4 2.065106 1_555
O2 Sb1 2.092007 1_556
O3 Sb5 2.065106 1_555
O3 Sb0 2.092007 1_666
O4 Sb4 2.065102 1_555
O4 Sb0 2.092007 1_556
O5 Sb5 2.065102 1_555
O5 Sb1 2.092007 1_556
O6 Sb6 2.065102 1_555
O6 Sb3 2.092007 1_555
O7 Sb7 2.065102 1_555
O7 Sb2 2.092007 1_565
O8 Sb6 2.065106 1_555
O8 Sb2 2.092007 1_555
O9 Sb7 2.065106 1_655
O9 Sb3 2.092007 1_555
O10 Sb4 2.065106 1_655
O10 Sb1 2.092007 1_556
O11 Sb5 2.065106 1_555
O11 Sb0 2.092007 1_566
O12 Sb6 1.987697 1_555
O13 Sb7 1.987697 1_655
O14 Sb4 1.987697 1_655
O15 Sb5 1.987697 1_555
O16 Sb4 1.987701 1_555
O17 Sb5 1.987701 1_555
O18 Sb6 1.987701 1_555
O19 Sb7 1.987701 1_555
O20 Sb6 1.987697 1_555
O21 Sb7 1.987697 1_555
O22 Sb4 1.987697 1_555
O23 Sb5 1.987697 1_555
O24 Sb3 1.962983 1_555
O25 Sb2 1.962983 1_565
O26 Sb0 1.962983 1_555
O27 Sb1 1.962983 1_555
O28 Sb1 1.962978 1_555
O29 Sb0 1.962978 1_565
O30 Sb2 1.962978 1_555
O31 Sb3 1.962978 1_555
O32 Sb3 1.962983 1_555
O33 Sb2 1.962983 1_665
O34 Sb0 1.962983 1_655
O35 Sb1 1.962983 1_555
