# generated using pymatgen
data_Li2Mn3SnO8
_symmetry_space_group_name_H-M   'P 1'
_cell_length_a   6.07065199
_cell_length_b   10.29514163
_cell_length_c   6.23503054
_cell_angle_alpha   103.36628008
_cell_angle_beta   58.59576369
_cell_angle_gamma   87.86384013
_symmetry_Int_Tables_number   1
_chemical_formula_structural   Li2Mn3SnO8
_chemical_formula_sum   'Li4 Mn6 Sn2 O16'
_cell_volume   317.69460340
_cell_formula_units_Z   2
loop_
 _symmetry_equiv_pos_site_id
 _symmetry_equiv_pos_as_xyz
  1  'x, y, z'
loop_
 _atom_site_type_symbol
 _atom_site_label
 _atom_site_symmetry_multiplicity
 _atom_site_fract_x
 _atom_site_fract_y
 _atom_site_fract_z
 _atom_site_occupancy
  Li  Li0  1  0.33100000  0.56548900  0.36569800  1
  Li  Li1  1  0.82843000  0.06538000  0.36758100  1
  Li  Li2  1  0.16901100  0.93450600  0.63429200  1
  Li  Li3  1  0.67143600  0.43461900  0.63245700  1
  Mn  Mn0  1  0.25006000  0.74999500  0.00019000  1
  Mn  Mn1  1  0.75040800  0.74985000  0.99985500  1
  Mn  Mn2  1  0.25036800  0.24980600  0.99982800  1
  Mn  Mn3  1  0.75034500  0.25016900  0.99998100  1
  Mn  Mn4  1  0.00187800  0.50052700  0.99972600  1
  Mn  Mn5  1  0.49783100  0.99968100  0.00063200  1
  Sn  Sn0  1  0.74991600  0.74998700  0.50001400  1
  Sn  Sn1  1  0.25003700  0.25000800  0.49991300  1
  O  O0  1  0.10971800  0.63998400  0.80805000  1
  O  O1  1  0.60789000  0.13856800  0.81015800  1
  O  O2  1  0.39051800  0.85996800  0.19195500  1
  O  O3  1  0.89218900  0.36135100  0.18975500  1
  O  O4  1  0.90031600  0.86330900  0.23529200  1
  O  O5  1  0.40074900  0.36344100  0.23447400  1
  O  O6  1  0.12833000  0.63604700  0.23465000  1
  O  O7  1  0.62786200  0.13628300  0.23497200  1
  O  O8  1  0.66469100  0.63234300  0.23271000  1
  O  O9  1  0.16236200  0.13230200  0.23461500  1
  O  O10  1  0.83506600  0.86764800  0.76737400  1
  O  O11  1  0.33713800  0.36756600  0.76544900  1
  O  O12  1  0.37150500  0.86400200  0.76555500  1
  O  O13  1  0.87200500  0.36392100  0.76472200  1
  O  O14  1  0.59980300  0.63655700  0.76479200  1
  O  O15  1  0.09913800  0.13669200  0.76531200  1
loop_
_geom_bond_atom_site_label_1
_geom_bond_atom_site_label_2
_geom_bond_distance
_geom_bond_site_symmetry_2
Li0 O8 1.970312 1_555
Li0 O5 1.990478 1_555
Li0 O6 1.991103 1_555
Li0 O0 2.254720 1_555
Li1 O9 1.971859 1_655
Li1 O7 1.990203 1_555
Li1 O4 1.990596 1_545
Li1 O1 2.255709 1_555
Li2 O10 1.971579 1_455
Li2 O12 1.991081 1_555
Li2 O15 1.991712 1_565
Li2 O2 2.254584 1_555
Li3 O11 1.974334 1_555
Li3 O13 1.987523 1_555
Li3 O14 1.989380 1_555
Li3 O3 2.256313 1_555
Mn0 O6 1.947059 1_555
Mn0 O12 1.948277 1_554
Mn0 O4 1.949051 1_455
Mn0 O14 1.949623 1_554
Mn0 O2 1.986719 1_555
Mn0 O0 1.987979 1_554
Mn1 O8 1.978341 1_556
Mn1 O10 1.979618 1_555
Mn1 O0 1.984828 1_655
Mn1 O2 1.988340 1_556
Mn1 O4 2.241903 1_556
Mn1 O14 2.242753 1_555
Mn2 O1 1.983508 1_555
Mn2 O9 1.985893 1_556
Mn2 O11 1.986802 1_555
Mn2 O3 1.987635 1_456
Mn2 O5 2.241129 1_556
Mn2 O15 2.242417 1_555
Mn3 O15 1.945678 1_655
Mn3 O5 1.948106 1_556
Mn3 O7 1.948899 1_556
Mn3 O13 1.948915 1_555
Mn3 O3 1.990182 1_556
Mn3 O1 1.995185 1_555
Mn4 O11 1.979723 1_555
Mn4 O8 1.981023 1_456
Mn4 O3 1.983455 1_456
Mn4 O0 1.991534 1_555
Mn4 O6 2.233417 1_556
Mn4 O13 2.253948 1_455
Mn5 O9 1.978745 1_565
Mn5 O10 1.982334 1_554
Mn5 O1 1.982611 1_564
Mn5 O2 1.992387 1_555
Mn5 O12 2.234329 1_554
Mn5 O7 2.251764 1_565
O4 Sn0 2.078043 1_555
O5 Sn1 2.082109 1_555
O6 Sn0 2.081217 1_455
O7 Sn1 2.077841 1_555
O8 Sn0 2.127050 1_555
O9 Sn1 2.127615 1_555
O10 Sn0 2.127085 1_555
O11 Sn1 2.125803 1_555
O12 Sn0 2.081565 1_555
O13 Sn1 2.079264 1_655
O14 Sn0 2.079053 1_555
O15 Sn1 2.081072 1_555
