# generated using pymatgen
data_RbFeP2O7
_symmetry_space_group_name_H-M   'P 1'
_cell_length_a   10.15807000
_cell_length_b   7.62999500
_cell_length_c   8.41297227
_cell_angle_alpha   74.09137695
_cell_angle_beta   90.00000000
_cell_angle_gamma   90.00000000
_symmetry_Int_Tables_number   1
_chemical_formula_structural   RbFeP2O7
_chemical_formula_sum   'Rb4 Fe4 P8 O28'
_cell_volume   627.08232313
_cell_formula_units_Z   4
loop_
 _symmetry_equiv_pos_site_id
 _symmetry_equiv_pos_as_xyz
  1  'x, y, z'
loop_
 _atom_site_type_symbol
 _atom_site_label
 _atom_site_symmetry_multiplicity
 _atom_site_fract_x
 _atom_site_fract_y
 _atom_site_fract_z
 _atom_site_occupancy
  Rb  Rb0  1  0.68667100  0.18689000  0.94821700  1
  Rb  Rb1  1  0.18667100  0.81311000  0.55178300  1
  Rb  Rb2  1  0.31332900  0.81311000  0.05178300  1
  Rb  Rb3  1  0.81332900  0.18689000  0.44821700  1
  Fe  Fe0  1  0.39954700  0.23851800  0.24146400  1
  Fe  Fe1  1  0.89954700  0.76148200  0.25853600  1
  Fe  Fe2  1  0.60045300  0.76148200  0.75853600  1
  Fe  Fe3  1  0.10045300  0.23851800  0.74146400  1
  P  P0  1  0.40420100  0.13030200  0.66919800  1
  P  P1  1  0.90420100  0.86969800  0.83080200  1
  P  P2  1  0.59579900  0.86969800  0.33080200  1
  P  P3  1  0.09579900  0.13030200  0.16919800  1
  P  P4  1  0.13134400  0.43171700  0.31375700  1
  P  P5  1  0.63134400  0.56828300  0.18624300  1
  P  P6  1  0.86865600  0.56828300  0.68624300  1
  P  P7  1  0.36865600  0.43171700  0.81375700  1
  O  O0  1  0.27708500  0.44216600  0.26235200  1
  O  O1  1  0.77708500  0.55783400  0.23764800  1
  O  O2  1  0.72291500  0.55783400  0.73764800  1
  O  O3  1  0.22291500  0.44216600  0.76235200  1
  O  O4  1  0.99825300  0.99134000  0.27219900  1
  O  O5  1  0.49825300  0.00866000  0.22780100  1
  O  O6  1  0.00174700  0.00866000  0.72780100  1
  O  O7  1  0.50174700  0.99134000  0.77219900  1
  O  O8  1  0.10398800  0.32170600  0.49101000  1
  O  O9  1  0.60398800  0.67829400  0.00899000  1
  O  O10  1  0.89601200  0.67829400  0.50899000  1
  O  O11  1  0.39601200  0.32170600  0.99101000  1
  O  O12  1  0.08750800  0.15108900  0.98572600  1
  O  O13  1  0.58750800  0.84891100  0.51427400  1
  O  O14  1  0.91249200  0.84891100  0.01427400  1
  O  O15  1  0.41249200  0.15108900  0.48572600  1
  O  O16  1  0.05327500  0.32558900  0.19725600  1
  O  O17  1  0.55327500  0.67441100  0.30274400  1
  O  O18  1  0.94672500  0.67441100  0.80274400  1
  O  O19  1  0.44672500  0.32558900  0.69725600  1
  O  O20  1  0.26476200  0.08516600  0.73994300  1
  O  O21  1  0.76476200  0.91483400  0.76005700  1
  O  O22  1  0.73523800  0.91483400  0.26005700  1
  O  O23  1  0.23523800  0.08516600  0.23994300  1
  O  O24  1  0.42716400  0.62384300  0.76770100  1
  O  O25  1  0.92716400  0.37615700  0.73229900  1
  O  O26  1  0.57283600  0.37615700  0.23229900  1
  O  O27  1  0.07283600  0.62384300  0.26770100  1
loop_
_geom_bond_atom_site_label_1
_geom_bond_atom_site_label_2
_geom_bond_distance
_geom_bond_site_symmetry_2
Fe0 O15 1.983353 1_555
Fe0 O11 2.027487 1_554
Fe0 O0 2.035301 1_555
Fe0 O26 2.040352 1_555
Fe0 O23 2.040396 1_555
Fe0 O5 2.050592 1_555
Fe1 O14 1.983353 1_555
Fe1 O10 2.027487 1_555
Fe1 O1 2.035301 1_555
Fe1 O27 2.040352 1_655
Fe1 O22 2.040396 1_555
Fe1 O4 2.050592 1_555
Fe2 O13 1.983353 1_555
Fe2 O9 2.027487 1_556
Fe2 O2 2.035301 1_555
Fe2 O24 2.040352 1_555
Fe2 O21 2.040396 1_555
Fe2 O7 2.050592 1_555
Fe3 O12 1.983353 1_555
Fe3 O8 2.027487 1_555
Fe3 O3 2.035301 1_555
Fe3 O25 2.040352 1_455
Fe3 O20 2.040396 1_555
Fe3 O6 2.050592 1_555
O0 P4 1.538248 1_555
O0 Rb2 2.921599 1_555
O1 P5 1.538248 1_555
O1 Rb3 2.921599 1_555
O2 P6 1.538248 1_555
O2 Rb0 2.921599 1_555
O3 P7 1.538248 1_555
O3 Rb1 2.921599 1_555
O4 P3 1.534031 1_665
O4 Rb3 3.026380 1_565
O4 Rb1 3.048207 1_655
O5 P2 1.534031 1_545
O5 Rb2 3.026380 1_545
O5 Rb0 3.048207 1_554
O6 P1 1.534031 1_445
O6 Rb1 3.026380 1_545
O6 Rb3 3.048207 1_455
O7 P0 1.534031 1_565
O7 Rb0 3.026380 1_565
O7 Rb2 3.048207 1_556
O8 P4 1.522937 1_555
O8 Rb3 3.179340 1_455
O9 P5 1.522937 1_555
O9 Rb2 3.179340 1_555
O10 P6 1.522937 1_555
O10 Rb1 3.179340 1_655
O11 P7 1.522937 1_555
O11 Rb0 3.179340 1_555
O12 P3 1.510156 1_556
O12 Rb2 3.381611 1_546
O13 P2 1.510156 1_555
O13 Rb3 3.381611 1_565
O14 P1 1.510156 1_554
O14 Rb0 3.381611 1_564
O15 P0 1.510156 1_555
O15 Rb1 3.381611 1_545
O16 P3 1.629523 1_555
O16 P4 1.637170 1_555
O16 Rb3 3.208366 1_455
O17 P2 1.629523 1_555
O17 P5 1.637170 1_555
O17 Rb2 3.208366 1_555
O18 P1 1.629523 1_555
O18 P6 1.637170 1_555
O18 Rb1 3.208366 1_655
O19 P0 1.629523 1_555
O19 P7 1.637170 1_555
O19 Rb0 3.208366 1_555
O20 P0 1.538424 1_555
O20 Rb2 2.906818 1_546
O20 Rb1 3.040618 1_545
O21 P1 1.538424 1_555
O21 Rb3 2.906818 1_565
O21 Rb0 3.040618 1_565
O22 P2 1.538424 1_555
O22 Rb0 2.906818 1_564
O22 Rb3 3.040618 1_565
O23 P3 1.538424 1_555
O23 Rb1 2.906818 1_545
O23 Rb2 3.040618 1_545
O24 P7 1.530000 1_555
O24 Rb1 3.148819 1_555
O24 Rb2 3.320636 1_556
O25 P6 1.530000 1_555
O25 Rb0 3.148819 1_555
O25 Rb3 3.320636 1_555
O26 P5 1.530000 1_555
O26 Rb3 3.148819 1_555
O26 Rb0 3.320636 1_554
O27 P4 1.530000 1_555
O27 Rb2 3.148819 1_555
O27 Rb1 3.320636 1_555
