# generated using pymatgen
data_Sr7CaTi5Mn3O20
_symmetry_space_group_name_H-M   'P 1'
_cell_length_a   11.20136017
_cell_length_b   11.42603064
_cell_length_c   17.84131588
_cell_angle_alpha   108.64223996
_cell_angle_beta   108.52397760
_cell_angle_gamma   89.85423228
_symmetry_Int_Tables_number   1
_chemical_formula_structural   Sr7CaTi5Mn3O20
_chemical_formula_sum   'Sr28 Ca4 Ti20 Mn12 O80'
_cell_volume   2039.05874099
_cell_formula_units_Z   4
loop_
 _symmetry_equiv_pos_site_id
 _symmetry_equiv_pos_as_xyz
  1  'x, y, z'
loop_
 _atom_site_type_symbol
 _atom_site_label
 _atom_site_symmetry_multiplicity
 _atom_site_fract_x
 _atom_site_fract_y
 _atom_site_fract_z
 _atom_site_occupancy
  Sr  Sr0  1  0.30802100  0.05920300  0.61041400  1
  Sr  Sr1  1  0.31429400  0.55864800  0.61168100  1
  Sr  Sr2  1  0.80780000  0.06229500  0.60880400  1
  Sr  Sr3  1  0.80663800  0.56486000  0.10793000  1
  Sr  Sr4  1  0.80461900  0.55797300  0.61133600  1
  Sr  Sr5  1  0.19982800  0.43339800  0.39056000  1
  Sr  Sr6  1  0.20141000  0.44005400  0.89083000  1
  Sr  Sr7  1  0.19852400  0.93698100  0.38957200  1
  Sr  Sr8  1  0.20218500  0.93931700  0.89263700  1
  Sr  Sr9  1  0.69758700  0.43653400  0.39343200  1
  Sr  Sr10  1  0.69596300  0.44353000  0.88962700  1
  Sr  Sr11  1  0.69583700  0.93722300  0.38734400  1
  Sr  Sr12  1  0.69552800  0.93617300  0.89063000  1
  Sr  Sr13  1  0.05923200  0.29348100  0.10882000  1
  Sr  Sr14  1  0.05375700  0.29608700  0.61032700  1
  Sr  Sr15  1  0.05812400  0.80486800  0.61211800  1
  Sr  Sr16  1  0.55553900  0.29110600  0.10693000  1
  Sr  Sr17  1  0.56232900  0.29786900  0.60881900  1
  Sr  Sr18  1  0.55835700  0.79973200  0.11315600  1
  Sr  Sr19  1  0.56082700  0.79878800  0.61031600  1
  Sr  Sr20  1  0.44437000  0.19969700  0.38476800  1
  Sr  Sr21  1  0.44448700  0.19870200  0.89022200  1
  Sr  Sr22  1  0.44615600  0.70297500  0.38809200  1
  Sr  Sr23  1  0.44891100  0.70436100  0.89309200  1
  Sr  Sr24  1  0.94398800  0.20053700  0.38729100  1
  Sr  Sr25  1  0.95221200  0.19653100  0.88995100  1
  Sr  Sr26  1  0.94806700  0.70673000  0.39132300  1
  Sr  Sr27  1  0.94892600  0.70132600  0.89090800  1
  Ca  Ca0  1  0.30281200  0.06698800  0.10834500  1
  Ca  Ca1  1  0.30353100  0.56585000  0.10408700  1
  Ca  Ca2  1  0.79790500  0.06508800  0.10445300  1
  Ca  Ca3  1  0.05385500  0.78614600  0.10419800  1
  Ti  Ti0  1  0.00433900  0.99620300  0.99824700  1
  Ti  Ti1  1  0.00325700  0.00032600  0.49759200  1
  Ti  Ti2  1  0.00243700  0.49379100  0.99256800  1
  Ti  Ti3  1  0.00811500  0.50518700  0.50661800  1
  Ti  Ti4  1  0.50629100  0.00124300  0.00457500  1
  Ti  Ti5  1  0.50327700  0.99991100  0.49757300  1
  Ti  Ti6  1  0.50360200  0.49783100  0.99770200  1
  Ti  Ti7  1  0.50385300  0.49974300  0.49828400  1
  Ti  Ti8  1  0.25705200  0.25274800  0.00390800  1
  Ti  Ti9  1  0.25963500  0.25223700  0.50939400  1
  Ti  Ti10  1  0.25713900  0.75408900  0.00598700  1
  Ti  Ti11  1  0.26005400  0.75226300  0.50960800  1
  Ti  Ti12  1  0.75233200  0.24844900  0.99434500  1
  Ti  Ti13  1  0.75193000  0.24727900  0.49701200  1
  Ti  Ti14  1  0.75847800  0.75497000  0.00509900  1
  Ti  Ti15  1  0.75762400  0.75169900  0.50615000  1
  Ti  Ti16  1  0.09950700  0.08077800  0.24220700  1
  Ti  Ti17  1  0.11061600  0.58897400  0.24866900  1
  Ti  Ti18  1  0.60443400  0.58551700  0.24657700  1
  Ti  Ti19  1  0.85222800  0.41046800  0.24913200  1
  Mn  Mn0  1  0.11216500  0.09613500  0.75104100  1
  Mn  Mn1  1  0.11300500  0.59646100  0.75316600  1
  Mn  Mn2  1  0.60446800  0.09474400  0.24760600  1
  Mn  Mn3  1  0.61109200  0.09368100  0.74885700  1
  Mn  Mn4  1  0.61293600  0.59660500  0.75169500  1
  Mn  Mn5  1  0.36504900  0.39953200  0.24755300  1
  Mn  Mn6  1  0.36117200  0.40866600  0.75264700  1
  Mn  Mn7  1  0.35532000  0.90585500  0.24578900  1
  Mn  Mn8  1  0.36327000  0.90734300  0.75415500  1
  Mn  Mn9  1  0.86070100  0.40469400  0.74852000  1
  Mn  Mn10  1  0.86044200  0.90291300  0.24771800  1
  Mn  Mn11  1  0.86128800  0.90684500  0.75133500  1
  O  O0  1  0.12578800  0.12327200  0.48941700  1
  O  O1  1  0.12719900  0.12236000  0.99642900  1
  O  O2  1  0.12372700  0.61964200  0.48623200  1
  O  O3  1  0.12655400  0.62212000  0.99768700  1
  O  O4  1  0.62371800  0.12106600  0.48968100  1
  O  O5  1  0.63046700  0.12562600  0.99480900  1
  O  O6  1  0.62559900  0.62248400  0.49091100  1
  O  O7  1  0.62751100  0.62397700  0.99621200  1
  O  O8  1  0.13935500  0.38666500  0.01795800  1
  O  O9  1  0.13006700  0.37362200  0.50093300  1
  O  O10  1  0.13678300  0.88236500  0.01857600  1
  O  O11  1  0.13348800  0.87273000  0.50410100  1
  O  O12  1  0.63627100  0.37863100  0.01151200  1
  O  O13  1  0.63152800  0.37778400  0.50604300  1
  O  O14  1  0.63990300  0.88081600  0.01326900  1
  O  O15  1  0.63170100  0.87301000  0.50283400  1
  O  O16  1  0.37073700  0.12062100  0.48837200  1
  O  O17  1  0.37740200  0.12123100  0.99520800  1
  O  O18  1  0.37127300  0.61933000  0.48749200  1
  O  O19  1  0.37811700  0.61946000  0.99673400  1
  O  O20  1  0.87511500  0.11798200  0.48926300  1
  O  O21  1  0.87839100  0.12160400  0.00014900  1
  O  O22  1  0.87397400  0.61866100  0.48762300  1
  O  O23  1  0.88247000  0.61962300  0.99660000  1
  O  O24  1  0.38665600  0.38678800  0.01538700  1
  O  O25  1  0.37876900  0.37583300  0.50327600  1
  O  O26  1  0.38519200  0.88589500  0.01569900  1
  O  O27  1  0.37963800  0.87529500  0.50449300  1
  O  O28  1  0.88913500  0.38404400  0.01549300  1
  O  O29  1  0.88376900  0.38145200  0.50486300  1
  O  O30  1  0.89160400  0.88757900  0.01869300  1
  O  O31  1  0.88075300  0.87660300  0.50361400  1
  O  O32  1  0.09683900  0.10158800  0.14414100  1
  O  O33  1  0.07456700  0.07803400  0.62374300  1
  O  O34  1  0.09052700  0.60968400  0.14793800  1
  O  O35  1  0.07567700  0.58294000  0.62423600  1
  O  O36  1  0.58613600  0.08591400  0.12716700  1
  O  O37  1  0.56974000  0.07851500  0.62221700  1
  O  O38  1  0.58917500  0.59201800  0.14117300  1
  O  O39  1  0.56819500  0.58167900  0.62440500  1
  O  O40  1  0.44495500  0.41881700  0.37038300  1
  O  O41  1  0.44803000  0.41670200  0.87707800  1
  O  O42  1  0.43868600  0.91855600  0.37038300  1
  O  O43  1  0.45083900  0.91896000  0.87851200  1
  O  O44  1  0.93432500  0.40856100  0.35747100  1
  O  O45  1  0.94933300  0.41488500  0.87605600  1
  O  O46  1  0.95024600  0.91795700  0.37121200  1
  O  O47  1  0.94895900  0.91944200  0.87853000  1
  O  O48  1  0.32558200  0.28449100  0.12885100  1
  O  O49  1  0.32314800  0.29508600  0.62629600  1
  O  O50  1  0.32442400  0.78112500  0.12893500  1
  O  O51  1  0.32273900  0.79146500  0.62644500  1
  O  O52  1  0.82696900  0.29345600  0.14323400  1
  O  O53  1  0.82348600  0.29337400  0.62361200  1
  O  O54  1  0.83331100  0.78900700  0.12836300  1
  O  O55  1  0.82434400  0.79188500  0.62540300  1
  O  O56  1  0.18569400  0.19528900  0.34576600  1
  O  O57  1  0.19593100  0.21051000  0.87847400  1
  O  O58  1  0.19030700  0.70481600  0.35169500  1
  O  O59  1  0.19766800  0.70899300  0.87968500  1
  O  O60  1  0.69419800  0.20701800  0.37232800  1
  O  O61  1  0.70344100  0.20957400  0.87629100  1
  O  O62  1  0.68478400  0.69732200  0.35395800  1
  O  O63  1  0.70495100  0.70763700  0.87871700  1
  O  O64  1  0.41545400  0.07207600  0.23979100  1
  O  O65  1  0.42882800  0.07393500  0.75089700  1
  O  O66  1  0.43456600  0.56870800  0.24014500  1
  O  O67  1  0.42926600  0.57572500  0.75313100  1
  O  O68  1  0.93266300  0.07016600  0.23898900  1
  O  O69  1  0.92735400  0.07320100  0.74954900  1
  O  O70  1  0.94643300  0.55567100  0.24849300  1
  O  O71  1  0.92894900  0.57437600  0.75122800  1
  O  O72  1  0.18095800  0.44377800  0.24899200  1
  O  O73  1  0.17706700  0.42599500  0.74992700  1
  O  O74  1  0.15754800  0.92849400  0.24009800  1
  O  O75  1  0.17935000  0.92708600  0.75230600  1
  O  O76  1  0.67701800  0.43343700  0.24947400  1
  O  O77  1  0.67852000  0.42579600  0.74997200  1
  O  O78  1  0.68086000  0.93183100  0.25019500  1
  O  O79  1  0.67858600  0.92602900  0.75120300  1
loop_
_geom_bond_atom_site_label_1
_geom_bond_atom_site_label_2
_geom_bond_distance
_geom_bond_site_symmetry_2
Ca0 O64 2.264564 1_555
Ca0 O48 2.395362 1_555
Ca0 O10 2.537951 1_545
Ca0 O1 2.561700 1_554
Ca0 O26 2.576433 1_545
Ca0 O32 2.580199 1_555
Ca0 O17 2.651536 1_554
Ca1 O50 2.354035 1_555
Ca1 O66 2.394495 1_555
Ca1 O8 2.479347 1_555
Ca1 O3 2.515847 1_554
Ca1 O24 2.532577 1_555
Ca1 O19 2.551684 1_554
Ca1 O34 2.735892 1_555
Ca2 O68 2.377506 1_555
Ca2 O52 2.469886 1_555
Ca2 O14 2.492325 1_545
Ca2 O5 2.519923 1_554
Ca2 O36 2.528635 1_555
Ca2 O21 2.555401 1_555
Ca2 O30 2.565527 1_545
Ca3 O74 2.360578 1_555
Ca3 O34 2.375092 1_555
Ca3 O30 2.516237 1_455
Ca3 O23 2.516477 1_454
Ca3 O10 2.526990 1_555
Ca3 O3 2.546634 1_554
Ca3 O54 2.637635 1_455
Ca3 O50 2.923843 1_555
Mn0 O75 2.075443 1_545
Mn0 O69 2.078009 1_455
Mn0 O33 2.114404 1_555
Mn0 O57 2.123343 1_555
Mn1 O73 2.063800 1_555
Mn1 O71 2.065711 1_455
Mn1 O59 2.106740 1_555
Mn1 O35 2.156847 1_555
Mn2 O78 2.054529 1_545
Mn2 O36 2.061743 1_555
Mn2 O64 2.088360 1_555
Mn2 O60 2.089956 1_555
Mn3 O79 2.065580 1_545
Mn3 O65 2.067652 1_555
Mn3 O37 2.105870 1_555
Mn3 O61 2.140226 1_555
Mn4 O77 2.078061 1_555
Mn4 O67 2.080908 1_555
Mn4 O39 2.113628 1_555
Mn4 O63 2.119447 1_555
Mn5 O48 2.009150 1_555
Mn5 O40 2.024374 1_555
Mn5 O72 2.128007 1_555
Mn5 O66 2.144000 1_555
Mn6 O67 2.053811 1_555
Mn6 O73 2.057866 1_555
Mn6 O41 2.093131 1_555
Mn6 O49 2.114177 1_555
Mn7 O50 2.035163 1_555
Mn7 O64 2.062656 1_565
Mn7 O42 2.076037 1_555
Mn7 O74 2.203587 1_555
Mn8 O75 2.062867 1_555
Mn8 O65 2.066606 1_565
Mn8 O43 2.081327 1_555
Mn8 O51 2.137255 1_555
Mn9 O77 2.061614 1_555
Mn9 O71 2.066362 1_555
Mn9 O53 2.087624 1_555
Mn9 O45 2.138342 1_555
Mn10 O54 2.034643 1_555
Mn10 O78 2.049703 1_555
Mn10 O46 2.060684 1_555
Mn10 O68 2.146846 1_565
Mn11 O69 2.054877 1_565
Mn11 O79 2.056999 1_555
Mn11 O55 2.114217 1_555
Mn11 O47 2.123868 1_555
O0 Ti9 1.970317 1_555
O0 Ti1 2.036292 1_555
O0 Sr7 2.618608 1_545
O0 Sr24 2.628281 1_455
O0 Sr0 2.750564 1_555
O0 Sr14 2.752835 1_555
O1 Ti0 2.010266 1_545
O1 Ti8 2.028209 1_556
O1 Sr25 2.612261 1_455
O1 Sr13 2.622842 1_556
O1 Sr8 2.648046 1_545
O2 Ti11 2.001278 1_555
O2 Ti3 2.032631 1_555
O2 Sr26 2.584421 1_455
O2 Sr5 2.600343 1_555
O2 Sr1 2.829420 1_555
O2 Sr15 2.839964 1_555
O3 Ti2 1.983760 1_555
O3 Ti10 2.041091 1_556
O3 Sr27 2.663039 1_455
O3 Sr6 2.671445 1_555
O4 Ti13 1.982402 1_555
O4 Ti5 2.002764 1_545
O4 Sr11 2.622082 1_545
O4 Sr20 2.650143 1_555
O4 Sr17 2.692285 1_555
O4 Sr2 2.709324 1_555
O5 Ti12 1.963993 1_555
O5 Ti4 2.075394 1_556
O5 Sr16 2.630902 1_556
O5 Sr12 2.636688 1_545
O5 Sr21 2.652567 1_555
O6 Ti15 1.984879 1_555
O6 Ti7 2.021272 1_555
O6 Sr9 2.590196 1_555
O6 Sr22 2.641478 1_555
O6 Sr19 2.711797 1_555
O6 Sr4 2.729110 1_555
O7 Ti6 2.015617 1_555
O7 Ti14 2.032021 1_556
O7 Sr3 2.601479 1_556
O7 Sr10 2.620473 1_555
O7 Sr23 2.638745 1_555
O7 Sr18 2.706725 1_556
O8 Ti2 1.989741 1_554
O8 Ti8 2.024045 1_555
O8 Sr13 2.569020 1_555
O8 Sr6 2.808594 1_554
O8 Sr25 2.852888 1_454
O9 Ti9 2.009278 1_555
O9 Ti3 2.028852 1_555
O9 Sr5 2.606754 1_555
O9 Sr24 2.671840 1_455
O9 Sr1 2.718976 1_555
O9 Sr14 2.737530 1_555
O10 Ti0 1.993548 1_554
O10 Ti10 1.997017 1_555
O10 Sr27 2.803468 1_454
O10 Sr8 2.826996 1_554
O11 Ti11 1.975405 1_555
O11 Ti1 2.063196 1_565
O11 Sr26 2.623867 1_455
O11 Sr15 2.649571 1_555
O11 Sr0 2.653438 1_565
O11 Sr7 2.674418 1_555
O12 Ti12 1.987050 1_554
O12 Ti6 2.023785 1_554
O12 Sr3 2.592942 1_555
O12 Sr16 2.605231 1_555
O12 Sr10 2.771841 1_554
O12 Sr21 2.783661 1_554
O13 Ti7 1.998425 1_555
O13 Ti13 2.010632 1_555
O13 Sr4 2.600067 1_555
O13 Sr17 2.602696 1_555
O13 Sr9 2.616129 1_555
O13 Sr20 2.746246 1_555
O14 Ti14 1.957621 1_555
O14 Ti4 2.033674 1_565
O14 Sr18 2.638715 1_555
O14 Sr12 2.707188 1_554
O14 Sr23 2.753675 1_554
O15 Ti15 1.975797 1_555
O15 Ti5 2.042349 1_555
O15 Sr19 2.652767 1_555
O15 Sr22 2.656939 1_555
O15 Sr2 2.679727 1_565
O15 Sr11 2.685112 1_555
O16 Ti9 1.969126 1_555
O16 Ti5 2.028013 1_545
O16 Sr7 2.593543 1_545
O16 Sr20 2.636961 1_555
O16 Sr17 2.763080 1_555
O16 Sr0 2.770980 1_555
O17 Ti4 1.993739 1_556
O17 Ti8 2.018195 1_556
O17 Sr16 2.596373 1_556
O17 Sr21 2.610443 1_555
O17 Sr8 2.613073 1_545
O18 Ti11 1.983513 1_555
O18 Ti7 2.021329 1_555
O18 Sr5 2.598802 1_555
O18 Sr22 2.606700 1_555
O18 Sr1 2.771347 1_555
O18 Sr19 2.776300 1_555
O19 Ti6 1.974175 1_555
O19 Ti10 2.049165 1_556
O19 Sr6 2.618798 1_555
O19 Sr23 2.659232 1_555
O19 Sr18 2.693428 1_556
O20 Ti1 1.967734 1_655
O20 Ti13 2.021361 1_555
O20 Sr24 2.605284 1_555
O20 Sr11 2.627688 1_545
O20 Sr14 2.697245 1_655
O20 Sr2 2.722856 1_555
O21 Ti0 2.008368 1_644
O21 Ti12 2.024292 1_554
O21 Sr13 2.609532 1_655
O21 Sr12 2.708299 1_544
O21 Sr25 2.719347 1_554
O22 Ti3 2.000262 1_655
O22 Ti15 2.015168 1_555
O22 Sr26 2.582430 1_555
O22 Sr9 2.594941 1_555
O22 Sr15 2.793742 1_655
O22 Sr4 2.833173 1_555
O23 Ti2 1.965599 1_655
O23 Ti14 2.077629 1_556
O23 Sr3 2.632044 1_556
O23 Sr27 2.646188 1_555
O23 Sr10 2.662370 1_555
O24 Ti6 1.988054 1_554
O24 Ti8 2.029038 1_555
O24 Sr16 2.570833 1_555
O24 Sr6 2.746415 1_554
O24 Sr21 2.805147 1_554
O25 Ti9 1.996932 1_555
O25 Ti7 2.036058 1_555
O25 Sr5 2.602313 1_555
O25 Sr1 2.631081 1_555
O25 Sr17 2.677679 1_555
O25 Sr20 2.705542 1_555
O26 Ti4 1.990939 1_565
O26 Ti10 2.010414 1_555
O26 Sr18 2.587777 1_555
O26 Sr8 2.717723 1_554
O26 Sr23 2.771384 1_554
O27 Ti11 1.986970 1_555
O27 Ti5 2.047369 1_555
O27 Sr0 2.654491 1_565
O27 Sr19 2.656932 1_555
O27 Sr7 2.662708 1_555
O27 Sr22 2.665770 1_555
O28 Ti2 2.004065 1_654
O28 Ti12 2.040073 1_554
O28 Sr13 2.559132 1_655
O28 Sr3 2.573419 1_555
O28 Sr25 2.834843 1_554
O28 Sr10 2.840355 1_554
O29 Ti3 1.973280 1_655
O29 Ti13 2.072094 1_555
O29 Sr9 2.618516 1_555
O29 Sr14 2.646661 1_655
O29 Sr4 2.659731 1_555
O29 Sr24 2.692205 1_555
O30 Ti0 1.964241 1_654
O30 Ti14 2.031020 1_555
O30 Sr27 2.821397 1_554
O30 Sr12 2.822896 1_554
O31 Ti15 2.007984 1_555
O31 Ti1 2.023265 1_665
O31 Sr26 2.610738 1_555
O31 Sr15 2.632296 1_655
O31 Sr2 2.666746 1_565
O31 Sr11 2.693397 1_555
O32 Ti16 1.830664 1_555
O32 Ti0 2.363827 1_544
O32 Sr13 2.468183 1_555
O33 Ti1 2.018843 1_555
O33 Sr14 2.581077 1_555
O33 Sr0 2.701971 1_555
O33 Sr2 2.915214 1_455
O33 Sr15 3.063272 1_545
O34 Ti17 1.830605 1_555
O34 Ti2 2.516566 1_554
O34 Sr3 3.035813 1_455
O35 Ti3 1.888917 1_555
O35 Sr15 2.614652 1_555
O35 Sr1 2.758289 1_555
O35 Sr4 2.978488 1_455
O35 Sr14 3.210898 1_555
O36 Ti4 1.982010 1_555
O36 Sr16 2.490605 1_555
O36 Sr18 3.207007 1_545
O37 Ti5 1.995190 1_545
O37 Sr17 2.591361 1_555
O37 Sr2 2.752626 1_555
O37 Sr0 2.875533 1_555
O37 Sr19 3.134460 1_545
O38 Ti18 1.859083 1_555
O38 Ti6 2.305252 1_554
O38 Sr18 2.578068 1_555
O38 Sr3 2.679188 1_555
O39 Ti7 2.021222 1_555
O39 Sr19 2.570655 1_555
O39 Sr4 2.736677 1_555
O39 Sr1 2.786522 1_555
O39 Sr17 3.163939 1_555
O40 Ti7 2.048166 1_555
O40 Sr20 2.597351 1_555
O40 Sr9 2.725483 1_555
O40 Sr5 2.878177 1_555
O40 Sr22 3.159651 1_555
O41 Ti6 1.937679 1_555
O41 Sr21 2.576991 1_555
O41 Sr10 2.724377 1_555
O41 Sr6 2.854426 1_555
O41 Sr23 3.206680 1_555
O42 Ti5 2.036818 1_555
O42 Sr22 2.579547 1_555
O42 Sr11 2.800361 1_555
O42 Sr7 2.816847 1_555
O42 Sr20 3.138876 1_565
O43 Ti4 2.022806 1_566
O43 Sr23 2.547965 1_555
O43 Sr12 2.682669 1_555
O43 Sr8 2.877590 1_555
O43 Sr21 3.137940 1_565
O44 Ti19 1.865388 1_555
O44 Ti3 2.389942 1_655
O44 Sr24 2.591318 1_555
O44 Sr5 2.838187 1_655
O44 Sr9 2.914003 1_555
O45 Ti2 1.872610 1_655
O45 Sr25 2.583999 1_555
O45 Sr6 2.758204 1_655
O45 Sr10 2.932872 1_555
O45 Sr27 3.198163 1_555
O46 Ti1 2.029247 1_665
O46 Sr26 2.552205 1_555
O46 Sr7 2.695832 1_655
O46 Sr11 2.954606 1_555
O46 Sr24 3.151447 1_565
O47 Ti0 1.918174 1_655
O47 Sr27 2.571333 1_555
O47 Sr8 2.770132 1_655
O47 Sr12 2.915823 1_555
O47 Sr25 3.106446 1_565
O48 Ti8 2.021671 1_555
O48 Sr16 2.730124 1_555
O48 Sr13 2.895489 1_555
O49 Ti9 1.871373 1_555
O49 Sr0 2.618532 1_555
O49 Sr17 2.795296 1_555
O49 Sr14 2.939817 1_555
O49 Sr1 3.103358 1_555
O50 Ti10 1.998159 1_555
O50 Sr18 2.738723 1_555
O51 Ti11 1.874448 1_555
O51 Sr1 2.586954 1_555
O51 Sr19 2.776036 1_555
O51 Sr15 2.900978 1_555
O51 Sr0 3.161398 1_565
O52 Ti19 1.866702 1_555
O52 Ti12 2.395303 1_554
O52 Sr13 2.856700 1_655
O52 Sr16 2.898654 1_555
O53 Ti13 2.028021 1_555
O53 Sr2 2.568822 1_555
O53 Sr14 2.665285 1_655
O53 Sr17 2.854309 1_555
O53 Sr4 3.102216 1_555
O54 Ti14 1.993456 1_555
O54 Sr3 2.473709 1_555
O54 Sr18 3.010406 1_555
O55 Ti15 1.913899 1_555
O55 Sr4 2.606528 1_555
O55 Sr15 2.711894 1_655
O55 Sr19 2.880805 1_555
O55 Sr2 3.196180 1_565
O56 Ti16 1.839894 1_555
O56 Sr5 2.568537 1_555
O56 Ti9 2.623714 1_555
O56 Sr20 2.753107 1_555
O56 Sr24 3.021252 1_455
O57 Ti8 2.011848 1_556
O57 Sr6 2.560059 1_555
O57 Sr21 2.731132 1_555
O57 Sr25 2.810441 1_455
O57 Sr8 3.187268 1_545
O58 Ti17 1.826328 1_555
O58 Sr7 2.513512 1_555
O58 Ti11 2.543416 1_555
O58 Sr22 2.731520 1_555
O58 Sr26 3.011938 1_455
O59 Ti10 2.023036 1_556
O59 Sr8 2.566360 1_555
O59 Sr23 2.749491 1_555
O59 Sr27 2.859702 1_455
O59 Sr6 3.141453 1_555
O60 Ti13 2.002886 1_555
O60 Sr9 2.525994 1_555
O60 Sr24 2.728087 1_555
O60 Sr20 2.880118 1_555
O60 Sr11 3.177993 1_545
O61 Ti12 1.898330 1_555
O61 Sr10 2.610452 1_555
O61 Sr25 2.726938 1_555
O61 Sr21 2.995090 1_555
O62 Ti18 1.859552 1_555
O62 Ti15 2.437405 1_555
O62 Sr11 2.606698 1_555
O62 Sr26 2.803553 1_555
O62 Sr22 2.920282 1_555
O63 Ti14 2.024649 1_556
O63 Sr12 2.555977 1_555
O63 Sr27 2.674383 1_555
O63 Sr23 2.960850 1_555
O63 Sr10 3.089342 1_555
O64 Sr20 2.445483 1_555
O65 Sr21 2.387616 1_555
O65 Sr0 2.391212 1_555
O66 Ti18 1.876047 1_555
O66 Sr22 2.555807 1_555
O67 Sr1 2.384702 1_555
O67 Sr23 2.397969 1_555
O68 Ti16 1.854517 1_655
O68 Sr24 2.550248 1_555
O69 Sr25 2.374907 1_555
O69 Sr2 2.403851 1_555
O70 Ti17 1.877797 1_655
O70 Ti19 1.973541 1_555
O70 Sr3 2.534666 1_555
O70 Sr26 2.575215 1_555
O71 Sr4 2.386970 1_555
O71 Sr27 2.387646 1_555
O72 Ti17 1.835692 1_555
O72 Sr13 2.482353 1_555
O72 Sr5 2.508061 1_555
O73 Sr6 2.392973 1_555
O73 Sr14 2.403207 1_555
O74 Ti16 1.849225 1_565
O74 Sr7 2.527668 1_555
O75 Sr15 2.380831 1_555
O75 Sr8 2.392278 1_555
O76 Ti18 1.925288 1_555
O76 Ti19 1.981070 1_555
O76 Sr16 2.476357 1_555
O76 Sr9 2.493380 1_555
O77 Sr10 2.378139 1_555
O77 Sr17 2.397136 1_555
O78 Sr18 2.378744 1_555
O78 Sr11 2.379536 1_555
O79 Sr19 2.395524 1_555
O79 Sr12 2.398590 1_555
