# generated using pymatgen
data_Ca2Nb2FeO8
_symmetry_space_group_name_H-M   'P 1'
_cell_length_a   10.07018412
_cell_length_b   10.07018412
_cell_length_c   5.53394394
_cell_angle_alpha   88.75213470
_cell_angle_beta   88.75213470
_cell_angle_gamma   36.71186816
_symmetry_Int_Tables_number   1
_chemical_formula_structural   Ca2Nb2FeO8
_chemical_formula_sum   'Ca4 Nb4 Fe2 O16'
_cell_volume   335.38586207
_cell_formula_units_Z   2
loop_
 _symmetry_equiv_pos_site_id
 _symmetry_equiv_pos_as_xyz
  1  'x, y, z'
loop_
 _atom_site_type_symbol
 _atom_site_label
 _atom_site_symmetry_multiplicity
 _atom_site_fract_x
 _atom_site_fract_y
 _atom_site_fract_z
 _atom_site_occupancy
  Ca  Ca0  1  0.47469700  0.10927800  0.74620000  1
  Ca  Ca1  1  0.89072200  0.52530300  0.75380000  1
  Ca  Ca2  1  0.52530300  0.89072200  0.25380000  1
  Ca  Ca3  1  0.10927800  0.47469700  0.24620000  1
  Nb  Nb0  1  0.26424400  0.96153700  0.74740600  1
  Nb  Nb1  1  0.03846300  0.73575600  0.75259400  1
  Nb  Nb2  1  0.73575600  0.03846300  0.25259400  1
  Nb  Nb3  1  0.96153700  0.26424400  0.24740600  1
  Fe  Fe0  1  0.64163700  0.35836300  0.75000000  1
  Fe  Fe1  1  0.35836300  0.64163700  0.25000000  1
  O  O0  1  0.19410700  0.94930000  0.41162300  1
  O  O1  1  0.05070000  0.80589300  0.08837700  1
  O  O2  1  0.80589300  0.05070000  0.58837700  1
  O  O3  1  0.94930000  0.19410700  0.91162300  1
  O  O4  1  0.41058300  0.70619700  0.91226300  1
  O  O5  1  0.29380300  0.58941700  0.58773700  1
  O  O6  1  0.58941700  0.29380300  0.08773700  1
  O  O7  1  0.70619700  0.41058300  0.41226300  1
  O  O8  1  0.24373800  0.12415800  0.99752100  1
  O  O9  1  0.87584200  0.75626200  0.50247900  1
  O  O10  1  0.83281000  0.53865900  0.15698900  1
  O  O11  1  0.46134100  0.16719000  0.34301100  1
  O  O12  1  0.16719000  0.46134100  0.84301100  1
  O  O13  1  0.53865900  0.83281000  0.65698900  1
  O  O14  1  0.12415800  0.24373800  0.49752100  1
  O  O15  1  0.75626200  0.87584200  0.00247900  1
loop_
_geom_bond_atom_site_label_1
_geom_bond_atom_site_label_2
_geom_bond_distance
_geom_bond_site_symmetry_2
Ca0 O12 2.203183 1_555
Ca0 O15 2.218184 1_546
Ca0 O11 2.273147 1_555
Ca0 O13 2.362332 1_545
Ca0 O8 2.583706 1_555
Ca0 O9 2.778902 1_545
Ca0 O14 2.941967 1_555
Ca0 O2 2.995926 1_555
Ca1 O13 2.203183 1_555
Ca1 O14 2.218184 1_655
Ca1 O10 2.273147 1_556
Ca1 O12 2.362332 1_655
Ca1 O9 2.583706 1_555
Ca1 O8 2.778902 1_655
Ca1 O15 2.941967 1_556
Ca1 O3 2.995926 1_555
Ca2 O10 2.203183 1_555
Ca2 O8 2.218184 1_564
Ca2 O13 2.273147 1_555
Ca2 O11 2.362332 1_565
Ca2 O15 2.583706 1_555
Ca2 O14 2.778902 1_565
Ca2 O9 2.941967 1_555
Ca2 O0 2.995926 1_555
Ca3 O11 2.203183 1_555
Ca3 O9 2.218184 1_455
Ca3 O12 2.273147 1_554
Ca3 O10 2.362332 1_455
Ca3 O14 2.583706 1_555
Ca3 O15 2.778902 1_455
Ca3 O8 2.941967 1_554
Ca3 O1 2.995926 1_555
Nb0 O4 1.869955 1_555
Nb0 O13 1.947265 1_555
Nb0 O0 2.042949 1_555
Nb0 O8 2.045565 1_565
Nb0 O3 2.104215 1_465
Nb0 O14 2.337631 1_565
Nb1 O5 1.869955 1_555
Nb1 O12 1.947265 1_555
Nb1 O1 2.042949 1_556
Nb1 O9 2.045565 1_455
Nb1 O2 2.104215 1_465
Nb1 O15 2.337631 1_456
Nb2 O6 1.869955 1_555
Nb2 O11 1.947265 1_555
Nb2 O2 2.042949 1_555
Nb2 O15 2.045565 1_545
Nb2 O1 2.104215 1_645
Nb2 O9 2.337631 1_545
Nb3 O7 1.869955 1_555
Nb3 O10 1.947265 1_555
Nb3 O3 2.042949 1_554
Nb3 O14 2.045565 1_655
Nb3 O0 2.104215 1_645
Nb3 O8 2.337631 1_654
Fe0 O7 2.155189 1_555
Fe0 O6 2.155189 1_556
Fe0 O2 2.230408 1_555
Fe0 O3 2.230408 1_555
Fe0 O4 2.338456 1_555
Fe0 O5 2.338456 1_555
Fe1 O4 2.155189 1_554
Fe1 O5 2.155189 1_555
Fe1 O1 2.230408 1_555
Fe1 O0 2.230408 1_555
Fe1 O7 2.338456 1_555
Fe1 O6 2.338456 1_555
