# generated using pymatgen
data_TaNb(AgO3)2
_symmetry_space_group_name_H-M   'P 1'
_cell_length_a   5.61427100
_cell_length_b   5.68672800
_cell_length_c   15.85188400
_cell_angle_alpha   90.00000000
_cell_angle_beta   90.00000000
_cell_angle_gamma   90.00000000
_symmetry_Int_Tables_number   1
_chemical_formula_structural   TaNb(AgO3)2
_chemical_formula_sum   'Ta4 Nb4 Ag8 O24'
_cell_volume   506.10043886
_cell_formula_units_Z   4
loop_
 _symmetry_equiv_pos_site_id
 _symmetry_equiv_pos_as_xyz
  1  'x, y, z'
loop_
 _atom_site_type_symbol
 _atom_site_label
 _atom_site_symmetry_multiplicity
 _atom_site_fract_x
 _atom_site_fract_y
 _atom_site_fract_z
 _atom_site_occupancy
  Ta  Ta0  1  0.25291600  0.98125700  0.87506200  1
  Ta  Ta1  1  0.74708400  0.51874300  0.37506200  1
  Ta  Ta2  1  0.25291600  0.01874300  0.12493800  1
  Ta  Ta3  1  0.74708400  0.48125700  0.62493800  1
  Nb  Nb0  1  0.74699600  0.51944800  0.12534600  1
  Nb  Nb1  1  0.25300400  0.98055200  0.62534600  1
  Nb  Nb2  1  0.74699600  0.48055200  0.87465400  1
  Nb  Nb3  1  0.25300400  0.01944800  0.37465400  1
  Ag  Ag0  1  0.74848200  0.00000000  0.00000000  1
  Ag  Ag1  1  0.25151800  0.50000000  0.50000000  1
  Ag  Ag2  1  0.25025600  0.50000000  0.00000000  1
  Ag  Ag3  1  0.74974400  0.00000000  0.50000000  1
  Ag  Ag4  1  0.75258400  0.01318200  0.24990500  1
  Ag  Ag5  1  0.24741600  0.48681800  0.74990500  1
  Ag  Ag6  1  0.75258400  0.98681800  0.75009500  1
  Ag  Ag7  1  0.24741600  0.51318200  0.25009500  1
  O  O0  1  0.46562000  0.71486000  0.11083800  1
  O  O1  1  0.53438000  0.78514000  0.61083800  1
  O  O2  1  0.46562000  0.28514000  0.88916200  1
  O  O3  1  0.53438000  0.21486000  0.38916200  1
  O  O4  1  0.53236600  0.78716700  0.88948000  1
  O  O5  1  0.46763400  0.71283300  0.38948000  1
  O  O6  1  0.53236600  0.21283300  0.11052000  1
  O  O7  1  0.46763400  0.28716700  0.61052000  1
  O  O8  1  0.80797500  0.50000000  0.00000000  1
  O  O9  1  0.19202500  0.00000000  0.50000000  1
  O  O10  1  0.19303600  0.00000000  0.00000000  1
  O  O11  1  0.80696400  0.50000000  0.50000000  1
  O  O12  1  0.69176400  0.48158200  0.25069600  1
  O  O13  1  0.30823600  0.01841800  0.75069600  1
  O  O14  1  0.69176400  0.51841800  0.74930400  1
  O  O15  1  0.30823600  0.98158200  0.24930400  1
  O  O16  1  0.96840700  0.77822500  0.13963700  1
  O  O17  1  0.03159300  0.72177500  0.63963700  1
  O  O18  1  0.96840700  0.22177500  0.86036300  1
  O  O19  1  0.03159300  0.27822500  0.36036300  1
  O  O20  1  0.03390600  0.72423700  0.86001200  1
  O  O21  1  0.96609400  0.77576300  0.36001200  1
  O  O22  1  0.03390600  0.27576300  0.13998800  1
  O  O23  1  0.96609400  0.22423700  0.63998800  1
loop_
_geom_bond_atom_site_label_1
_geom_bond_atom_site_label_2
_geom_bond_distance
_geom_bond_site_symmetry_2
Nb0 O16 1.939616 1_555
Nb0 O0 1.945070 1_555
Nb0 O8 2.019279 1_555
Nb0 O12 2.022579 1_555
Nb0 O6 2.132488 1_555
Nb0 O22 2.137493 1_655
Nb1 O17 1.939616 1_555
Nb1 O1 1.945070 1_555
Nb1 O9 2.019279 1_565
Nb1 O13 2.022579 1_565
Nb1 O7 2.132488 1_565
Nb1 O23 2.137493 1_465
Nb2 O18 1.939616 1_555
Nb2 O2 1.945070 1_555
Nb2 O8 2.019279 1_556
Nb2 O14 2.022579 1_555
Nb2 O4 2.132488 1_555
Nb2 O20 2.137493 1_655
Nb3 O19 1.939616 1_555
Nb3 O3 1.945070 1_555
Nb3 O9 2.019279 1_555
Nb3 O15 2.022579 1_545
Nb3 O5 2.132488 1_545
Nb3 O21 2.137493 1_445
Ag0 O4 2.450794 1_544
Ag0 O6 2.450794 1_555
Ag0 O10 2.495847 1_655
Ag1 O7 2.450794 1_555
Ag1 O5 2.450794 1_555
Ag1 O11 2.495847 1_455
Ag2 O2 2.458025 1_554
Ag2 O0 2.458025 1_555
Ag2 O8 2.483085 1_455
Ag3 O3 2.458025 1_555
Ag3 O1 2.458025 1_545
Ag3 O9 2.483085 1_655
Ag4 O15 2.501172 1_545
Ag4 O21 2.511213 1_545
Ag4 O16 2.511732 1_545
Ag4 O12 2.685490 1_555
Ag4 O3 2.772924 1_555
Ag4 O6 2.774814 1_555
Ag4 O22 2.785716 1_655
Ag4 O19 2.791296 1_655
Ag5 O14 2.501172 1_555
Ag5 O20 2.511213 1_555
Ag5 O17 2.511732 1_555
Ag5 O13 2.685490 1_555
Ag5 O2 2.772924 1_555
Ag5 O7 2.774814 1_555
Ag5 O23 2.785716 1_455
Ag5 O18 2.791296 1_455
Ag6 O13 2.501172 1_565
Ag6 O23 2.511213 1_565
Ag6 O18 2.511732 1_565
Ag6 O14 2.685490 1_555
Ag6 O1 2.772924 1_555
Ag6 O4 2.774814 1_555
Ag6 O20 2.785716 1_655
Ag6 O17 2.791296 1_655
Ag7 O12 2.501172 1_555
Ag7 O22 2.511213 1_555
Ag7 O19 2.511732 1_555
Ag7 O15 2.685490 1_555
Ag7 O0 2.772924 1_555
Ag7 O5 2.774814 1_555
Ag7 O21 2.785716 1_455
Ag7 O16 2.791296 1_455
O0 Ta2 2.112427 1_565
O1 Ta3 2.112427 1_555
O2 Ta0 2.112427 1_545
O3 Ta1 2.112427 1_555
O4 Ta0 1.931824 1_555
O5 Ta1 1.931824 1_555
O6 Ta2 1.931824 1_555
O7 Ta3 1.931824 1_555
O10 Ta0 2.011659 1_544
O10 Ta2 2.011659 1_555
O11 Ta3 2.011659 1_555
O11 Ta1 2.011659 1_555
O12 Ta1 2.006907 1_555
O13 Ta0 2.006907 1_545
O14 Ta3 2.006907 1_555
O15 Ta2 2.006907 1_565
O16 Ta2 2.115765 1_665
O17 Ta3 2.115765 1_455
O18 Ta0 2.115765 1_645
O19 Ta1 2.115765 1_455
O20 Ta0 1.924856 1_555
O21 Ta1 1.924856 1_555
O22 Ta2 1.924856 1_555
O23 Ta3 1.924856 1_555
