# generated using pymatgen
data_H6C(SN)2
_symmetry_space_group_name_H-M   'P 1'
_cell_length_a   5.69441600
_cell_length_b   8.36879400
_cell_length_c   10.84966400
_cell_angle_alpha   90.00000000
_cell_angle_beta   90.00000000
_cell_angle_gamma   90.00000000
_symmetry_Int_Tables_number   1
_chemical_formula_structural   H6C(SN)2
_chemical_formula_sum   'H24 C4 S8 N8'
_cell_volume   517.04501762
_cell_formula_units_Z   4
loop_
 _symmetry_equiv_pos_site_id
 _symmetry_equiv_pos_as_xyz
  1  'x, y, z'
loop_
 _atom_site_type_symbol
 _atom_site_label
 _atom_site_symmetry_multiplicity
 _atom_site_fract_x
 _atom_site_fract_y
 _atom_site_fract_z
 _atom_site_occupancy
  H  H0  1  0.35717600  0.26637200  0.75175600  1
  H  H1  1  0.64282400  0.73362800  0.25175600  1
  H  H2  1  0.35717600  0.23362800  0.25175600  1
  H  H3  1  0.64282400  0.76637200  0.75175600  1
  H  H4  1  0.55926700  0.30113900  0.86978900  1
  H  H5  1  0.44073300  0.69886100  0.36978900  1
  H  H6  1  0.55926700  0.19886100  0.36978900  1
  H  H7  1  0.44073300  0.80113900  0.86978900  1
  H  H8  1  0.11648900  0.80403600  0.52303000  1
  H  H9  1  0.88351100  0.19596400  0.02303000  1
  H  H10  1  0.11648900  0.69596400  0.02303000  1
  H  H11  1  0.88351100  0.30403600  0.52303000  1
  H  H12  1  0.81702100  0.79493300  0.51739700  1
  H  H13  1  0.18297900  0.20506700  0.01739700  1
  H  H14  1  0.81702100  0.70506700  0.01739700  1
  H  H15  1  0.18297900  0.29493300  0.51739700  1
  H  H16  1  0.96784900  0.64770800  0.58876300  1
  H  H17  1  0.03215100  0.35229200  0.08876300  1
  H  H18  1  0.96784900  0.85229200  0.08876300  1
  H  H19  1  0.03215100  0.14770800  0.58876300  1
  H  H20  1  0.98656100  0.66376800  0.43236200  1
  H  H21  1  0.01343900  0.33623200  0.93236200  1
  H  H22  1  0.98656100  0.83623200  0.93236200  1
  H  H23  1  0.01343900  0.16376800  0.43236200  1
  C  C0  1  0.63372400  0.41307600  0.70539600  1
  C  C1  1  0.36627600  0.58692400  0.20539600  1
  C  C2  1  0.63372400  0.08692400  0.20539600  1
  C  C3  1  0.36627600  0.91307600  0.70539600  1
  S  S0  1  0.53790100  0.44235900  0.55689000  1
  S  S1  1  0.46209900  0.55764100  0.05689000  1
  S  S2  1  0.53790100  0.05764100  0.05689000  1
  S  S3  1  0.46209900  0.94235900  0.55689000  1
  S  S4  1  0.89091600  0.49595100  0.75925900  1
  S  S5  1  0.10908400  0.50404900  0.25925900  1
  S  S6  1  0.89091600  0.00404900  0.25925900  1
  S  S7  1  0.10908400  0.99595100  0.75925900  1
  N  N0  1  0.50731000  0.32079800  0.78112700  1
  N  N1  1  0.49269000  0.67920200  0.28112700  1
  N  N2  1  0.50731000  0.17920200  0.28112700  1
  N  N3  1  0.49269000  0.82079800  0.78112700  1
  N  N4  1  0.97186500  0.72797000  0.51440000  1
  N  N5  1  0.02813500  0.27203000  0.01440000  1
  N  N6  1  0.97186500  0.77203000  0.01440000  1
  N  N7  1  0.02813500  0.22797000  0.51440000  1
loop_
_geom_bond_atom_site_label_1
_geom_bond_atom_site_label_2
_geom_bond_distance
_geom_bond_site_symmetry_2
H0 N0 1.019758 1_555
H1 N1 1.019758 1_555
H2 N2 1.019758 1_555
H3 N3 1.019758 1_555
H4 N0 1.019783 1_555
H5 N1 1.019783 1_555
H6 N2 1.019783 1_555
H7 N3 1.019783 1_555
H8 N4 1.045101 1_455
H9 N5 1.045101 1_655
H10 N6 1.045101 1_455
H11 N7 1.045101 1_655
H12 N4 1.045266 1_555
H13 N5 1.045266 1_555
H14 N6 1.045266 1_555
H15 N7 1.045266 1_555
H16 N4 1.050070 1_555
H17 N5 1.050070 1_555
H18 N6 1.050070 1_555
H19 N7 1.050070 1_555
H20 N4 1.043043 1_555
H21 N5 1.043043 1_556
H22 N6 1.043043 1_556
H23 N7 1.043043 1_555
C0 N0 1.337792 1_555
C0 S0 1.718689 1_555
C0 S4 1.722637 1_555
C1 N1 1.337792 1_555
C1 S1 1.718689 1_555
C1 S5 1.722637 1_555
C2 N2 1.337792 1_555
C2 S2 1.718689 1_555
C2 S6 1.722637 1_555
C3 N3 1.337792 1_555
C3 S3 1.718689 1_555
C3 S7 1.722637 1_555
