# generated using pymatgen
data_BaSrLaBiO6
_symmetry_space_group_name_H-M   'P 1'
_cell_length_a   8.81692291
_cell_length_b   8.82589385
_cell_length_c   8.81711400
_cell_angle_alpha   90.00000000
_cell_angle_beta   90.00000000
_cell_angle_gamma   90.00000000
_symmetry_Int_Tables_number   1
_chemical_formula_structural   BaSrLaBiO6
_chemical_formula_sum   'Ba4 Sr4 La4 Bi4 O24'
_cell_volume   686.12335005
_cell_formula_units_Z   4
loop_
 _symmetry_equiv_pos_site_id
 _symmetry_equiv_pos_as_xyz
  1  'x, y, z'
loop_
 _atom_site_type_symbol
 _atom_site_label
 _atom_site_symmetry_multiplicity
 _atom_site_fract_x
 _atom_site_fract_y
 _atom_site_fract_z
 _atom_site_occupancy
  Ba  Ba0  1  0.00000000  -0.00000000  0.00000000  1
  Ba  Ba1  1  0.50000000  0.50000000  0.50000000  1
  Ba  Ba2  1  0.50000000  0.50000000  0.00000000  1
  Ba  Ba3  1  0.00000000  0.50000000  0.00000000  1
  Sr  Sr0  1  0.00000000  0.50000000  0.50000000  1
  Sr  Sr1  1  0.50000000  0.00000000  0.50000000  1
  Sr  Sr2  1  0.50000000  0.00000000  0.00000000  1
  Sr  Sr3  1  0.00000000  -0.00000000  0.50000000  1
  La  La0  1  0.25011849  0.24741955  0.25209085  1
  La  La1  1  0.74988151  0.75258045  0.25209085  1
  La  La2  1  0.74988151  0.24741955  0.74790915  1
  La  La3  1  0.25011849  0.75258045  0.74790915  1
  Bi  Bi0  1  0.74954787  0.75415539  0.74704309  1
  Bi  Bi1  1  0.25045213  0.24584461  0.74704309  1
  Bi  Bi2  1  0.25045213  0.75415539  0.25295691  1
  Bi  Bi3  1  0.74954787  0.24584461  0.25295691  1
  O  O0  1  0.98642271  0.20335859  0.28981146  1
  O  O1  1  0.01357729  0.79664141  0.28981146  1
  O  O2  1  0.01357729  0.20335859  0.71018854  1
  O  O3  1  0.98642271  0.79664141  0.71018854  1
  O  O4  1  0.28928850  0.98909677  0.20614881  1
  O  O5  1  0.28928850  0.01090323  0.79385119  1
  O  O6  1  0.71071150  0.01090323  0.20614881  1
  O  O7  1  0.71071150  0.98909677  0.79385119  1
  O  O8  1  0.21576798  0.27806571  0.98622298  1
  O  O9  1  0.78423202  0.27806571  0.01377702  1
  O  O10  1  0.21576798  0.72193429  0.01377702  1
  O  O11  1  0.78423202  0.72193429  0.98622298  1
  O  O12  1  0.51153740  0.28715535  0.22445883  1
  O  O13  1  0.48846260  0.71284465  0.22445883  1
  O  O14  1  0.48846260  0.28715535  0.77554117  1
  O  O15  1  0.51153740  0.71284465  0.77554117  1
  O  O16  1  0.21208250  0.51524006  0.29458073  1
  O  O17  1  0.21208250  0.48475994  0.70541927  1
  O  O18  1  0.78791750  0.48475994  0.29458073  1
  O  O19  1  0.78791750  0.51524006  0.70541927  1
  O  O20  1  0.29330368  0.20635548  0.51132605  1
  O  O21  1  0.70669632  0.20635548  0.48867395  1
  O  O22  1  0.29330368  0.79364452  0.48867395  1
  O  O23  1  0.70669632  0.79364452  0.51132605  1
loop_
_geom_bond_atom_site_label_1
_geom_bond_atom_site_label_2
_geom_bond_distance
_geom_bond_site_symmetry_2
Ba0 O8 3.107557 1_554
Ba0 O9 3.107557 1_455
Ba0 O11 3.107557 1_444
Ba0 O10 3.107557 1_545
Ba0 O2 3.124944 1_554
Ba0 O1 3.124944 1_545
Ba0 O0 3.124944 1_455
Ba0 O3 3.124944 1_444
Ba0 O5 3.133497 1_554
Ba0 O4 3.133497 1_545
Ba0 O7 3.133497 1_444
Ba0 O6 3.133497 1_455
Ba1 O13 3.072725 1_555
Ba1 O14 3.072725 1_555
Ba1 O15 3.072725 1_555
Ba1 O12 3.072725 1_555
Ba1 O19 3.121342 1_555
Ba1 O18 3.121342 1_555
Ba1 O16 3.121342 1_555
Ba1 O17 3.121342 1_555
Ba1 O20 3.169856 1_555
Ba1 O22 3.169856 1_555
Ba1 O21 3.169856 1_555
Ba1 O23 3.169856 1_555
Ba2 O12 2.730573 1_555
Ba2 O15 2.730573 1_554
Ba2 O14 2.730573 1_554
Ba2 O13 2.730573 1_555
Ba2 O10 3.183053 1_555
Ba2 O9 3.183053 1_555
Ba2 O8 3.183053 1_554
Ba2 O11 3.183053 1_554
Ba3 O11 2.733257 1_454
Ba3 O9 2.733257 1_455
Ba3 O10 2.733257 1_555
Ba3 O8 2.733257 1_554
Ba3 O17 3.203266 1_554
Ba3 O16 3.203266 1_555
Ba3 O18 3.203266 1_455
Ba3 O19 3.203266 1_454
La0 O4 2.341247 1_545
La0 O12 2.344134 1_555
La0 O20 2.345375 1_555
La0 O8 2.379097 1_554
La0 O0 2.380629 1_455
La0 O16 2.416642 1_555
La1 O6 2.341247 1_565
La1 O13 2.344134 1_555
La1 O23 2.345375 1_555
La1 O11 2.379097 1_554
La1 O1 2.380629 1_655
La1 O18 2.416642 1_555
La2 O7 2.341247 1_545
La2 O14 2.344134 1_555
La2 O21 2.345375 1_555
La2 O9 2.379097 1_556
La2 O2 2.380629 1_655
La2 O19 2.416642 1_555
La3 O5 2.341247 1_565
La3 O15 2.344134 1_555
La3 O22 2.345375 1_555
La3 O10 2.379097 1_556
La3 O3 2.380629 1_455
La3 O17 2.416642 1_555
Bi0 O23 2.140965 1_555
Bi0 O7 2.141790 1_555
Bi0 O15 2.144728 1_555
Bi0 O3 2.146640 1_555
Bi0 O11 2.149826 1_555
Bi0 O19 2.166912 1_555
Bi1 O20 2.140965 1_555
Bi1 O5 2.141790 1_555
Bi1 O14 2.144728 1_555
Bi1 O2 2.146640 1_555
Bi1 O8 2.149826 1_555
Bi1 O17 2.166912 1_555
Bi2 O22 2.140965 1_555
Bi2 O4 2.141790 1_555
Bi2 O13 2.144728 1_555
Bi2 O1 2.146640 1_555
Bi2 O10 2.149826 1_555
Bi2 O16 2.166912 1_555
Bi3 O21 2.140965 1_555
Bi3 O6 2.141790 1_555
Bi3 O12 2.144728 1_555
Bi3 O0 2.146640 1_555
Bi3 O9 2.149826 1_555
Bi3 O18 2.166912 1_555
O0 Sr3 2.582687 1_655
O1 Sr3 2.582687 1_565
O2 Sr3 2.582687 1_555
O3 Sr3 2.582687 1_665
O4 Sr2 2.600882 1_565
O5 Sr2 2.600882 1_556
O6 Sr2 2.600882 1_555
O7 Sr2 2.600882 1_566
O12 Sr2 3.217188 1_555
O13 Sr2 3.217188 1_565
O14 Sr2 3.217188 1_556
O15 Sr2 3.217188 1_566
O16 Sr0 2.606749 1_555
O17 Sr0 2.606749 1_555
O18 Sr0 2.606749 1_655
O19 Sr0 2.606749 1_655
O20 Sr1 2.578418 1_555
O20 Sr3 3.164583 1_555
O21 Sr1 2.578418 1_555
O21 Sr3 3.164583 1_655
O22 Sr1 2.578418 1_565
O22 Sr3 3.164583 1_565
O23 Sr1 2.578418 1_565
O23 Sr3 3.164583 1_665
