# generated using pymatgen
data_BaCaCuF7
_symmetry_space_group_name_H-M   'P 1'
_cell_length_a   10.48437900
_cell_length_b   5.68854000
_cell_length_c   9.96082571
_cell_angle_alpha   87.92749949
_cell_angle_beta   90.00000000
_cell_angle_gamma   90.00000000
_symmetry_Int_Tables_number   1
_chemical_formula_structural   BaCaCuF7
_chemical_formula_sum   'Ba4 Ca4 Cu4 F28'
_cell_volume   593.68310459
_cell_formula_units_Z   4
loop_
 _symmetry_equiv_pos_site_id
 _symmetry_equiv_pos_as_xyz
  1  'x, y, z'
loop_
 _atom_site_type_symbol
 _atom_site_label
 _atom_site_symmetry_multiplicity
 _atom_site_fract_x
 _atom_site_fract_y
 _atom_site_fract_z
 _atom_site_occupancy
  Ba  Ba0  1  0.33340000  0.73804900  0.50608800  1
  Ba  Ba1  1  0.83340000  0.26195100  0.99391200  1
  Ba  Ba2  1  0.66660000  0.26195100  0.49391200  1
  Ba  Ba3  1  0.16660000  0.73804900  0.00608800  1
  Ca  Ca0  1  0.40919900  0.29212200  0.82092900  1
  Ca  Ca1  1  0.90919900  0.70787800  0.67907100  1
  Ca  Ca2  1  0.09080100  0.29212200  0.32092900  1
  Ca  Ca3  1  0.59080100  0.70787800  0.17907100  1
  Cu  Cu0  1  0.62313300  0.80945300  0.81049200  1
  Cu  Cu1  1  0.37686700  0.19054700  0.18950800  1
  Cu  Cu2  1  0.87686700  0.80945300  0.31049200  1
  Cu  Cu3  1  0.12313300  0.19054700  0.68950800  1
  F  F0  1  0.41928800  0.90281500  0.10584700  1
  F  F1  1  0.03257900  0.66199800  0.36977400  1
  F  F2  1  0.70352700  0.53363500  0.73809700  1
  F  F3  1  0.29647300  0.46636500  0.26190300  1
  F  F4  1  0.45920600  0.08782900  0.35267300  1
  F  F5  1  0.79752400  0.71618200  0.47990200  1
  F  F6  1  0.77179500  0.98893100  0.74846900  1
  F  F7  1  0.95920600  0.91217100  0.14732700  1
  F  F8  1  0.46742100  0.66199800  0.86977400  1
  F  F9  1  0.20352700  0.46636500  0.76190300  1
  F  F10  1  0.08071200  0.90281500  0.60584700  1
  F  F11  1  0.58071200  0.09718500  0.89415300  1
  F  F12  1  0.27179500  0.01106900  0.75153100  1
  F  F13  1  0.95808000  0.60811500  0.88365100  1
  F  F14  1  0.54079400  0.91217100  0.64732700  1
  F  F15  1  0.04079400  0.08782900  0.85267300  1
  F  F16  1  0.22820500  0.01106900  0.25153100  1
  F  F17  1  0.91928800  0.09718500  0.39415300  1
  F  F18  1  0.45808000  0.39188500  0.61634900  1
  F  F19  1  0.96742100  0.33800200  0.63022600  1
  F  F20  1  0.04192000  0.39188500  0.11634900  1
  F  F21  1  0.72820500  0.98893100  0.24846900  1
  F  F22  1  0.54192000  0.60811500  0.38365100  1
  F  F23  1  0.29752400  0.28381800  0.02009800  1
  F  F24  1  0.20247600  0.28381800  0.52009800  1
  F  F25  1  0.70247600  0.71618200  0.97990200  1
  F  F26  1  0.53257900  0.33800200  0.13022600  1
  F  F27  1  0.79647300  0.53363500  0.23809700  1
loop_
_geom_bond_atom_site_label_1
_geom_bond_atom_site_label_2
_geom_bond_distance
_geom_bond_site_symmetry_2
Ba0 F18 2.576080 1_555
Ba0 F22 2.622663 1_555
Ba0 F14 2.790901 1_555
Ba0 F4 2.795372 1_565
Ba0 F24 2.924753 1_555
Ba0 F3 2.954032 1_555
Ba0 F10 2.991977 1_555
Ba0 F12 3.013469 1_565
Ba0 F16 3.126164 1_565
Ba0 F9 3.232755 1_555
Ba1 F13 2.576080 1_555
Ba1 F20 2.622663 1_656
Ba1 F15 2.790901 1_655
Ba1 F7 2.795372 1_546
Ba1 F25 2.924753 1_555
Ba1 F27 2.954032 1_556
Ba1 F11 2.991977 1_555
Ba1 F6 3.013469 1_545
Ba1 F21 3.126164 1_546
Ba1 F2 3.232755 1_555
Ba2 F22 2.576080 1_555
Ba2 F18 2.622663 1_555
Ba2 F4 2.790901 1_555
Ba2 F14 2.795372 1_545
Ba2 F5 2.924753 1_555
Ba2 F2 2.954032 1_555
Ba2 F17 2.991977 1_555
Ba2 F21 3.013469 1_545
Ba2 F6 3.126164 1_545
Ba2 F27 3.232755 1_555
Ba3 F20 2.576080 1_555
Ba3 F13 2.622663 1_454
Ba3 F7 2.790901 1_455
Ba3 F15 2.795372 1_564
Ba3 F23 2.924753 1_555
Ba3 F9 2.954032 1_554
Ba3 F0 2.991977 1_555
Ba3 F16 3.013469 1_565
Ba3 F12 3.126164 1_564
Ba3 F3 3.232755 1_555
Ca0 F18 2.157228 1_555
Ca0 F11 2.221870 1_555
Ca0 F8 2.260624 1_555
Ca0 F12 2.277980 1_555
Ca0 F23 2.302637 1_556
Ca0 F9 2.436350 1_555
Ca1 F13 2.157228 1_555
Ca1 F10 2.221870 1_655
Ca1 F19 2.260624 1_555
Ca1 F6 2.277980 1_555
Ca1 F5 2.302637 1_555
Ca1 F2 2.436350 1_555
Ca2 F20 2.157228 1_555
Ca2 F17 2.221870 1_455
Ca2 F1 2.260624 1_555
Ca2 F16 2.277980 1_555
Ca2 F24 2.302637 1_555
Ca2 F3 2.436350 1_555
Ca3 F22 2.157228 1_555
Ca3 F0 2.221870 1_555
Ca3 F26 2.260624 1_555
Ca3 F21 2.277980 1_555
Ca3 F25 2.302637 1_554
Ca3 F27 2.436350 1_555
Cu0 F14 1.912967 1_555
Cu0 F11 1.915709 1_565
Cu0 F8 1.918763 1_555
Cu0 F25 1.938113 1_555
Cu0 F2 1.942693 1_555
Cu0 F6 1.951347 1_555
Cu1 F4 1.912967 1_555
Cu1 F0 1.915709 1_545
Cu1 F26 1.918763 1_555
Cu1 F23 1.938113 1_555
Cu1 F3 1.942693 1_555
Cu1 F16 1.951347 1_555
Cu2 F7 1.912967 1_555
Cu2 F17 1.915709 1_565
Cu2 F1 1.918763 1_655
Cu2 F5 1.938113 1_555
Cu2 F27 1.942693 1_555
Cu2 F21 1.951347 1_555
Cu3 F15 1.912967 1_555
Cu3 F10 1.915709 1_545
Cu3 F19 1.918763 1_455
Cu3 F24 1.938113 1_555
Cu3 F9 1.942693 1_555
Cu3 F12 1.951347 1_555
