# generated using pymatgen
data_Ba8Y4Cu(WO8)3
_symmetry_space_group_name_H-M   'P 1'
_cell_length_a   10.53162582
_cell_length_b   10.53162582
_cell_length_c   10.53162582
_cell_angle_alpha   132.43322488
_cell_angle_beta   132.43322488
_cell_angle_gamma   69.54564993
_symmetry_Int_Tables_number   1
_chemical_formula_structural   Ba8Y4Cu(WO8)3
_chemical_formula_sum   'Ba8 Y4 Cu1 W3 O24'
_cell_volume   624.20145683
_cell_formula_units_Z   1
loop_
 _symmetry_equiv_pos_site_id
 _symmetry_equiv_pos_as_xyz
  1  'x, y, z'
loop_
 _atom_site_type_symbol
 _atom_site_label
 _atom_site_symmetry_multiplicity
 _atom_site_fract_x
 _atom_site_fract_y
 _atom_site_fract_z
 _atom_site_occupancy
  Ba  Ba0  1  0.65095900  0.65095900  0.53770800  1
  Ba  Ba1  1  0.88674900  0.34904100  0.00000000  1
  Ba  Ba2  1  0.11325100  0.11325100  0.46229200  1
  Ba  Ba3  1  0.34904100  0.88674900  0.00000000  1
  Ba  Ba4  1  0.34904100  0.34904100  0.46229200  1
  Ba  Ba5  1  0.65095900  0.11325100  0.00000000  1
  Ba  Ba6  1  0.88674900  0.88674900  0.53770800  1
  Ba  Ba7  1  0.11325100  0.65095900  0.00000000  1
  Y  Y0  1  0.00000000  0.50000000  0.50000000  1
  Y  Y1  1  0.25701500  0.25701500  0.00000000  1
  Y  Y2  1  0.50000000  0.00000000  0.50000000  1
  Y  Y3  1  0.74298500  0.74298500  0.00000000  1
  Cu  Cu0  1  0.00000000  0.00000000  0.00000000  1
  W  W0  1  0.25000000  0.75000000  0.50000000  1
  W  W1  1  0.50000000  0.50000000  0.00000000  1
  W  W2  1  0.75000000  0.25000000  0.50000000  1
  O  O0  1  0.00000000  0.75626000  0.75626000  1
  O  O1  1  0.25172300  0.52167800  0.26995500  1
  O  O2  1  0.50000000  0.26795500  0.76795500  1
  O  O3  1  0.74827700  0.01823200  0.26995500  1
  O  O4  1  0.13509000  0.63509000  0.50000000  1
  O  O5  1  0.38780100  0.38780100  0.00000000  1
  O  O6  1  0.63509000  0.13509000  0.50000000  1
  O  O7  1  0.86572000  0.86572000  0.00000000  1
  O  O8  1  0.26795500  0.50000000  0.76795500  1
  O  O9  1  0.52167800  0.25172300  0.26995500  1
  O  O10  1  0.75626000  0.00000000  0.75626000  1
  O  O11  1  0.01823200  0.74827700  0.26995500  1
  O  O12  1  0.00000000  0.24374000  0.24374000  1
  O  O13  1  0.25172300  0.98176800  0.73004500  1
  O  O14  1  0.50000000  0.73204500  0.23204500  1
  O  O15  1  0.74827700  0.47832200  0.73004500  1
  O  O16  1  0.86491000  0.36491000  0.50000000  1
  O  O17  1  0.13428000  0.13428000  0.00000000  1
  O  O18  1  0.36491000  0.86491000  0.50000000  1
  O  O19  1  0.61219900  0.61219900  0.00000000  1
  O  O20  1  0.73204500  0.50000000  0.23204500  1
  O  O21  1  0.98176800  0.25172300  0.73004500  1
  O  O22  1  0.24374000  0.00000000  0.24374000  1
  O  O23  1  0.47832200  0.74827700  0.73004500  1
loop_
_geom_bond_atom_site_label_1
_geom_bond_atom_site_label_2
_geom_bond_distance
_geom_bond_site_symmetry_2
Ba0 O7 2.791163 1_556
Ba0 O0 2.833251 1_655
Ba0 O10 2.833251 1_565
Ba0 O18 3.026406 1_555
Ba0 O16 3.026406 1_555
Ba0 O23 3.053711 1_555
Ba0 O15 3.053711 1_555
Ba0 O14 3.077991 1_555
Ba0 O20 3.077991 1_555
Ba0 O9 3.210049 1_555
Ba0 O1 3.210049 1_555
Ba0 O5 3.231214 1_555
Ba1 O17 2.791163 1_655
Ba1 O10 2.833251 1_554
Ba1 O12 2.833251 1_655
Ba1 O6 3.026406 1_554
Ba1 O4 3.026406 1_655
Ba1 O21 3.053711 1_554
Ba1 O1 3.053711 1_655
Ba1 O2 3.077991 1_554
Ba1 O20 3.077991 1_555
Ba1 O15 3.210049 1_554
Ba1 O11 3.210049 1_655
Ba1 O19 3.231214 1_555
Ba2 O7 2.791163 1_445
Ba2 O22 2.833251 1_555
Ba2 O12 2.833251 1_555
Ba2 O18 3.026406 1_545
Ba2 O16 3.026406 1_455
Ba2 O3 3.053711 1_455
Ba2 O11 3.053711 1_545
Ba2 O8 3.077991 1_555
Ba2 O2 3.077991 1_555
Ba2 O21 3.210049 1_455
Ba2 O13 3.210049 1_545
Ba2 O5 3.231214 1_556
Ba3 O17 2.791163 1_565
Ba3 O0 2.833251 1_554
Ba3 O22 2.833251 1_565
Ba3 O6 3.026406 1_565
Ba3 O4 3.026406 1_554
Ba3 O13 3.053711 1_554
Ba3 O9 3.053711 1_565
Ba3 O8 3.077991 1_554
Ba3 O14 3.077991 1_555
Ba3 O3 3.210049 1_565
Ba3 O23 3.210049 1_554
Ba3 O19 3.231214 1_555
Ba4 O17 2.791163 1_555
Ba4 O22 2.833251 1_555
Ba4 O12 2.833251 1_555
Ba4 O6 3.026406 1_555
Ba4 O4 3.026406 1_555
Ba4 O1 3.053711 1_555
Ba4 O9 3.053711 1_555
Ba4 O2 3.077991 1_555
Ba4 O8 3.077991 1_555
Ba4 O15 3.210049 1_555
Ba4 O23 3.210049 1_555
Ba4 O19 3.231214 1_556
Ba5 O7 2.791163 1_545
Ba5 O10 2.833251 1_554
Ba5 O12 2.833251 1_655
Ba5 O18 3.026406 1_544
Ba5 O16 3.026406 1_555
Ba5 O3 3.053711 1_555
Ba5 O23 3.053711 1_544
Ba5 O20 3.077991 1_555
Ba5 O2 3.077991 1_554
Ba5 O9 3.210049 1_555
Ba5 O13 3.210049 1_544
Ba5 O5 3.231214 1_555
Ba6 O17 2.791163 1_666
Ba6 O0 2.833251 1_655
Ba6 O10 2.833251 1_565
Ba6 O6 3.026406 1_565
Ba6 O4 3.026406 1_655
Ba6 O21 3.053711 1_565
Ba6 O13 3.053711 1_655
Ba6 O20 3.077991 1_555
Ba6 O14 3.077991 1_555
Ba6 O11 3.210049 1_655
Ba6 O3 3.210049 1_565
Ba6 O19 3.231214 1_555
Ba7 O7 2.791163 1_455
Ba7 O0 2.833251 1_554
Ba7 O22 2.833251 1_565
Ba7 O16 3.026406 1_454
Ba7 O18 3.026406 1_555
Ba7 O11 3.053711 1_555
Ba7 O15 3.053711 1_454
Ba7 O8 3.077991 1_554
Ba7 O14 3.077991 1_555
Ba7 O21 3.210049 1_454
Ba7 O1 3.210049 1_555
Ba7 O5 3.231214 1_555
Cu0 O10 2.070422 1_454
Cu0 O0 2.070422 1_544
Cu0 O12 2.070422 1_555
Cu0 O22 2.070422 1_555
Cu0 O7 2.323282 1_445
Cu0 O17 2.323282 1_555
O0 Y0 2.176772 1_555
O1 W0 1.954319 1_555
O1 Y1 2.294930 1_555
O2 W1 1.971080 1_556
O2 Y2 2.276114 1_555
O3 W2 1.954319 1_555
O3 Y3 2.294930 1_545
O4 W0 1.988147 1_555
O4 Y0 2.337296 1_555
O5 W1 1.941242 1_555
O5 Y1 2.262830 1_555
O6 W2 1.988147 1_555
O6 Y2 2.337296 1_555
O7 Y3 2.123533 1_555
O8 W1 1.971080 1_556
O8 Y0 2.276114 1_555
O9 W2 1.954319 1_555
O9 Y1 2.294930 1_555
O10 Y2 2.176772 1_555
O11 W0 1.954319 1_555
O11 Y3 2.294930 1_455
O12 Y0 2.176772 1_555
O13 W0 1.954319 1_555
O13 Y1 2.294930 1_566
O14 W1 1.971080 1_555
O14 Y2 2.276114 1_565
O15 W2 1.954319 1_555
O15 Y3 2.294930 1_556
O16 W2 1.988147 1_555
O16 Y0 2.337296 1_655
O17 Y1 2.123533 1_555
O18 W0 1.988147 1_555
O18 Y2 2.337296 1_565
O19 W1 1.941242 1_555
O19 Y3 2.262830 1_555
O20 W1 1.971080 1_555
O20 Y0 2.276114 1_655
O21 W2 1.954319 1_555
O21 Y1 2.294930 1_656
O22 Y2 2.176772 1_555
O23 W0 1.954319 1_555
O23 Y3 2.294930 1_556
