# generated using pymatgen
data_TaSbO4
_symmetry_space_group_name_H-M   'P 1'
_cell_length_a   5.77519900
_cell_length_b   5.13346200
_cell_length_c   20.17740200
_cell_angle_alpha   90.00000000
_cell_angle_beta   90.00000000
_cell_angle_gamma   90.00000000
_symmetry_Int_Tables_number   1
_chemical_formula_structural   TaSbO4
_chemical_formula_sum   'Ta4 Sb4 O16'
_cell_volume   598.19468751
_cell_formula_units_Z   4
loop_
 _symmetry_equiv_pos_site_id
 _symmetry_equiv_pos_as_xyz
  1  'x, y, z'
loop_
 _atom_site_type_symbol
 _atom_site_label
 _atom_site_symmetry_multiplicity
 _atom_site_fract_x
 _atom_site_fract_y
 _atom_site_fract_z
 _atom_site_occupancy
  Ta  Ta0  1  0.00000000  0.25899900  0.25000000  1
  Ta  Ta1  1  0.50000000  0.24100100  0.25000000  1
  Ta  Ta2  1  0.00000000  0.74100100  0.75000000  1
  Ta  Ta3  1  0.50000000  0.75899900  0.75000000  1
  Sb  Sb0  1  0.14406800  0.00000000  0.50000000  1
  Sb  Sb1  1  0.85593200  0.00000000  0.00000000  1
  Sb  Sb2  1  0.35593200  0.50000000  0.00000000  1
  Sb  Sb3  1  0.64406800  0.50000000  0.50000000  1
  O  O0  1  0.24335400  0.93045300  0.79552800  1
  O  O1  1  0.74335400  0.56954700  0.79552800  1
  O  O2  1  0.10229300  0.25372300  0.97174900  1
  O  O3  1  0.89770700  0.25372300  0.52825100  1
  O  O4  1  0.25664600  0.43045300  0.29552800  1
  O  O5  1  0.39770700  0.75372300  0.47174900  1
  O  O6  1  0.24335400  0.06954700  0.20447200  1
  O  O7  1  0.60229300  0.24627700  0.97174900  1
  O  O8  1  0.74335400  0.43045300  0.20447200  1
  O  O9  1  0.75664600  0.06954700  0.29552800  1
  O  O10  1  0.60229300  0.75372300  0.02825100  1
  O  O11  1  0.39770700  0.24627700  0.52825100  1
  O  O12  1  0.25664600  0.56954700  0.70447200  1
  O  O13  1  0.10229300  0.74627700  0.02825100  1
  O  O14  1  0.75664600  0.93045300  0.70447200  1
  O  O15  1  0.89770700  0.74627700  0.47174900  1
loop_
_geom_bond_atom_site_label_1
_geom_bond_atom_site_label_2
_geom_bond_distance
_geom_bond_site_symmetry_2
O0 Ta2 1.940344 1_555
O0 Ta3 1.953311 1_555
O1 Ta3 1.940344 1_555
O1 Ta2 1.953311 1_655
O2 Sb1 2.011392 1_456
O2 Sb2 2.017166 1_556
O3 Sb0 2.011392 1_655
O3 Sb3 2.017166 1_555
O4 Ta1 1.940344 1_555
O4 Ta0 1.953311 1_555
O5 Sb3 2.011392 1_555
O5 Sb0 2.017166 1_565
O6 Ta0 1.940344 1_555
O6 Ta1 1.953311 1_555
O7 Sb2 2.011392 1_556
O7 Sb1 2.017166 1_556
O8 Ta1 1.940344 1_555
O8 Ta0 1.953311 1_655
O9 Ta0 1.940344 1_655
O9 Ta1 1.953311 1_555
O10 Sb2 2.011392 1_555
O10 Sb1 2.017166 1_565
O11 Sb3 2.011392 1_555
O11 Sb0 2.017166 1_555
O12 Ta3 1.940344 1_555
O12 Ta2 1.953311 1_555
O13 Sb1 2.011392 1_465
O13 Sb2 2.017166 1_555
O14 Ta2 1.940344 1_655
O14 Ta3 1.953311 1_555
O15 Sb0 2.011392 1_665
O15 Sb3 2.017166 1_555
