# generated using pymatgen
data_Mg6BiC
_symmetry_space_group_name_H-M   'P 1'
_cell_length_a   4.35546200
_cell_length_b   6.05856000
_cell_length_c   13.32130500
_cell_angle_alpha   90.00000000
_cell_angle_beta   90.00000000
_cell_angle_gamma   90.00000000
_symmetry_Int_Tables_number   1
_chemical_formula_structural   Mg6BiC
_chemical_formula_sum   'Mg12 Bi2 C2'
_cell_volume   351.52030314
_cell_formula_units_Z   2
loop_
 _symmetry_equiv_pos_site_id
 _symmetry_equiv_pos_as_xyz
  1  'x, y, z'
loop_
 _atom_site_type_symbol
 _atom_site_label
 _atom_site_symmetry_multiplicity
 _atom_site_fract_x
 _atom_site_fract_y
 _atom_site_fract_z
 _atom_site_occupancy
  Mg  Mg0  1  0.00000000  0.75847400  0.05662600  1
  Mg  Mg1  1  0.00000000  0.24152600  0.05662600  1
  Mg  Mg2  1  0.00000000  0.00000000  0.32020600  1
  Mg  Mg3  1  0.50000000  0.27878000  0.39878300  1
  Mg  Mg4  1  0.50000000  0.72122000  0.39878300  1
  Mg  Mg5  1  0.50000000  0.00000000  0.17830400  1
  Mg  Mg6  1  0.00000000  0.25847400  0.55662600  1
  Mg  Mg7  1  0.00000000  0.74152600  0.55662600  1
  Mg  Mg8  1  0.00000000  0.50000000  0.82020600  1
  Mg  Mg9  1  0.50000000  0.77878000  0.89878300  1
  Mg  Mg10  1  0.50000000  0.22122000  0.89878300  1
  Mg  Mg11  1  0.50000000  0.50000000  0.67830400  1
  Bi  Bi0  1  0.50000000  0.50000000  0.16224000  1
  Bi  Bi1  1  0.50000000  0.00000000  0.66224000  1
  C  C0  1  0.00000000  0.50000000  0.42843200  1
  C  C1  1  0.00000000  0.00000000  0.92843200  1
loop_
_geom_bond_atom_site_label_1
_geom_bond_atom_site_label_2
_geom_bond_distance
_geom_bond_site_symmetry_2
Mg2 Mg5 2.883717 1_555
Mg2 Mg5 2.883717 1_455
Mg2 Mg4 2.948039 1_545
Mg2 Mg3 2.948039 1_455
Mg2 Mg3 2.948039 1_555
Mg2 Mg4 2.948039 1_445
Mg8 Mg9 2.948039 1_455
Mg8 Mg9 2.948039 1_555
Mg10 Mg8 2.948039 1_655
Mg10 Mg8 2.948039 1_555
Mg11 Mg8 2.883717 1_555
Mg11 Mg8 2.883717 1_655
Bi0 Mg1 3.028897 1_555
Bi0 Mg1 3.028897 1_655
Bi0 Mg0 3.028897 1_555
Bi0 Mg0 3.028897 1_655
Bi0 Mg5 3.036829 1_555
Bi0 Mg5 3.036829 1_565
Bi0 Mg3 3.424255 1_555
Bi0 Mg4 3.424255 1_555
Bi1 Mg6 3.028897 1_555
Bi1 Mg7 3.028897 1_645
Bi1 Mg7 3.028897 1_545
Bi1 Mg6 3.028897 1_655
Bi1 Mg11 3.036829 1_545
Bi1 Mg11 3.036829 1_555
Bi1 Mg10 3.424255 1_555
Bi1 Mg9 3.424255 1_545
C0 Mg7 2.248894 1_555
C0 Mg6 2.248894 1_555
C0 Mg4 2.587440 1_555
C0 Mg4 2.587440 1_455
C0 Mg3 2.587440 1_555
C0 Mg3 2.587440 1_455
C1 Mg1 2.248894 1_556
C1 Mg0 2.248894 1_546
C1 Mg10 2.587440 1_455
C1 Mg9 2.587440 1_545
C1 Mg9 2.587440 1_445
C1 Mg10 2.587440 1_555
