# generated using pymatgen
data_DyCuTe2
_symmetry_space_group_name_H-M   'P 1'
_cell_length_a   4.33927102
_cell_length_b   4.33927089
_cell_length_c   6.88476988
_cell_angle_alpha   89.99861831
_cell_angle_beta   89.99861598
_cell_angle_gamma   60.00905404
_symmetry_Int_Tables_number   1
_chemical_formula_structural   DyCuTe2
_chemical_formula_sum   'Dy1 Cu1 Te2'
_cell_volume   112.27762429
_cell_formula_units_Z   1
loop_
 _symmetry_equiv_pos_site_id
 _symmetry_equiv_pos_as_xyz
  1  'x, y, z'
loop_
 _atom_site_type_symbol
 _atom_site_label
 _atom_site_symmetry_multiplicity
 _atom_site_fract_x
 _atom_site_fract_y
 _atom_site_fract_z
 _atom_site_occupancy
  Dy  Dy0  1  0.00001945  0.00001945  0.99121677  1
  Cu  Cu0  1  0.66667731  0.66667731  0.36529576  1
  Te  Te0  1  0.66671389  0.66671389  0.74616711  1
  Te  Te1  1  0.33328935  0.33328935  0.26732135  1
loop_
_geom_bond_atom_site_label_1
_geom_bond_atom_site_label_2
_geom_bond_distance
_geom_bond_site_symmetry_2
Dy0 Te0 3.020163 1_445
Dy0 Te0 3.020648 1_545
Dy0 Te0 3.020648 1_455
Dy0 Te1 3.144394 1_556
Dy0 Te1 3.145173 1_456
Dy0 Te1 3.145173 1_546
Cu0 Te1 2.594511 1_565
Cu0 Te1 2.594511 1_655
Cu0 Te1 2.594802 1_555
Cu0 Te0 2.622212 1_555
