# generated using pymatgen
data_ZnCu(SiO3)2
_symmetry_space_group_name_H-M   'P 1'
_cell_length_a   5.27559400
_cell_length_b   9.14321100
_cell_length_c   18.48020900
_cell_angle_alpha   90.00000000
_cell_angle_beta   90.00000000
_cell_angle_gamma   90.00000000
_symmetry_Int_Tables_number   1
_chemical_formula_structural   ZnCu(SiO3)2
_chemical_formula_sum   'Zn8 Cu8 Si16 O48'
_cell_volume   891.40894212
_cell_formula_units_Z   8
loop_
 _symmetry_equiv_pos_site_id
 _symmetry_equiv_pos_as_xyz
  1  'x, y, z'
loop_
 _atom_site_type_symbol
 _atom_site_label
 _atom_site_symmetry_multiplicity
 _atom_site_fract_x
 _atom_site_fract_y
 _atom_site_fract_z
 _atom_site_occupancy
  Zn  Zn0  1  0.61648500  0.15058200  0.37634400  1
  Zn  Zn1  1  0.38351500  0.84941800  0.62365600  1
  Zn  Zn2  1  0.61648500  0.65058200  0.12365600  1
  Zn  Zn3  1  0.11648500  0.84941800  0.12365600  1
  Zn  Zn4  1  0.88351500  0.15058200  0.87634400  1
  Zn  Zn5  1  0.38351500  0.34941800  0.87634400  1
  Zn  Zn6  1  0.11648500  0.34941800  0.37634400  1
  Zn  Zn7  1  0.88351500  0.65058200  0.62365600  1
  Cu  Cu0  1  0.38000600  0.99108700  0.87585500  1
  Cu  Cu1  1  0.61999400  0.00891300  0.12414500  1
  Cu  Cu2  1  0.88000600  0.00891300  0.62414500  1
  Cu  Cu3  1  0.11999400  0.99108700  0.37585500  1
  Cu  Cu4  1  0.38000600  0.49108700  0.62414500  1
  Cu  Cu5  1  0.61999400  0.50891300  0.37585500  1
  Cu  Cu6  1  0.88000600  0.50891300  0.87585500  1
  Cu  Cu7  1  0.11999400  0.49108700  0.12414500  1
  Si  Si0  1  0.57316700  0.66158500  0.77351800  1
  Si  Si1  1  0.72192200  0.83560300  0.47375800  1
  Si  Si2  1  0.77807800  0.83560300  0.97375800  1
  Si  Si3  1  0.92683300  0.16158500  0.22648200  1
  Si  Si4  1  0.07316700  0.33841500  0.72648200  1
  Si  Si5  1  0.42683300  0.83841500  0.27351800  1
  Si  Si6  1  0.22192200  0.66439700  0.47375800  1
  Si  Si7  1  0.72192200  0.33560300  0.02624200  1
  Si  Si8  1  0.77807800  0.33560300  0.52624200  1
  Si  Si9  1  0.92683300  0.66158500  0.27351800  1
  Si  Si10  1  0.42683300  0.33841500  0.22648200  1
  Si  Si11  1  0.57316700  0.16158500  0.72648200  1
  Si  Si12  1  0.27807800  0.16439700  0.52624200  1
  Si  Si13  1  0.07316700  0.83841500  0.77351800  1
  Si  Si14  1  0.27807800  0.66439700  0.97375800  1
  Si  Si15  1  0.22192200  0.16439700  0.02624200  1
  O  O0  1  0.91448500  0.50223900  0.31334900  1
  O  O1  1  0.31212800  0.01649000  0.06822800  1
  O  O2  1  0.08551500  0.49776100  0.68665100  1
  O  O3  1  0.71388300  0.34241200  0.93720500  1
  O  O4  1  0.21388300  0.15758800  0.93720500  1
  O  O5  1  0.92799800  0.20694200  0.05068100  1
  O  O6  1  0.93655100  0.66170300  0.18546700  1
  O  O7  1  0.06344900  0.83829700  0.68546700  1
  O  O8  1  0.71388300  0.84241200  0.56279500  1
  O  O9  1  0.93655100  0.16170300  0.31453300  1
  O  O10  1  0.41448500  0.49776100  0.18665100  1
  O  O11  1  0.78611700  0.34241200  0.43720500  1
  O  O12  1  0.68787200  0.98351000  0.93177200  1
  O  O13  1  0.43655100  0.83829700  0.18546700  1
  O  O14  1  0.58551500  0.00223900  0.68665100  1
  O  O15  1  0.31212800  0.51649000  0.43177200  1
  O  O16  1  0.41448500  0.99776100  0.31334900  1
  O  O17  1  0.16190100  0.76270500  0.30383400  1
  O  O18  1  0.33809900  0.76270500  0.80383400  1
  O  O19  1  0.57200200  0.70694200  0.94931900  1
  O  O20  1  0.78611700  0.84241200  0.06279500  1
  O  O21  1  0.56344900  0.66170300  0.68546700  1
  O  O22  1  0.81212800  0.48351000  0.06822800  1
  O  O23  1  0.16190100  0.26270500  0.19616600  1
  O  O24  1  0.28611700  0.15758800  0.43720500  1
  O  O25  1  0.56344900  0.16170300  0.81453300  1
  O  O26  1  0.68787200  0.48351000  0.56822800  1
  O  O27  1  0.21388300  0.65758800  0.56279500  1
  O  O28  1  0.18787200  0.51649000  0.93177200  1
  O  O29  1  0.66190100  0.73729500  0.30383400  1
  O  O30  1  0.08551500  0.99776100  0.81334900  1
  O  O31  1  0.83809900  0.73729500  0.80383400  1
  O  O32  1  0.83809900  0.23729500  0.69616600  1
  O  O33  1  0.81212800  0.98351000  0.43177200  1
  O  O34  1  0.28611700  0.65758800  0.06279500  1
  O  O35  1  0.18787200  0.01649000  0.56822800  1
  O  O36  1  0.33809900  0.26270500  0.69616600  1
  O  O37  1  0.07200200  0.79305800  0.94931900  1
  O  O38  1  0.42799800  0.79305800  0.44931900  1
  O  O39  1  0.66190100  0.23729500  0.19616600  1
  O  O40  1  0.42799800  0.29305800  0.05068100  1
  O  O41  1  0.57200200  0.20694200  0.55068100  1
  O  O42  1  0.07200200  0.29305800  0.55068100  1
  O  O43  1  0.43655100  0.33829700  0.31453300  1
  O  O44  1  0.58551500  0.50223900  0.81334900  1
  O  O45  1  0.92799800  0.70694200  0.44931900  1
  O  O46  1  0.06344900  0.33829700  0.81453300  1
  O  O47  1  0.91448500  0.00223900  0.18665100  1
loop_
_geom_bond_atom_site_label_1
_geom_bond_atom_site_label_2
_geom_bond_distance
_geom_bond_site_symmetry_2
Cu0 O12 1.926285 1_555
Cu0 O30 1.936945 1_555
Cu0 O4 2.090705 1_565
Cu0 O25 2.157395 1_565
Cu0 O18 2.486099 1_555
Cu1 O1 1.926285 1_555
Cu1 O47 1.936945 1_555
Cu1 O20 2.090705 1_545
Cu1 O13 2.157395 1_545
Cu1 O39 2.486099 1_555
Cu2 O35 1.926285 1_655
Cu2 O14 1.936945 1_555
Cu2 O8 2.090705 1_545
Cu2 O7 2.157395 1_645
Cu2 O32 2.486099 1_555
Cu3 O33 1.926285 1_455
Cu3 O16 1.936945 1_555
Cu3 O24 2.090705 1_565
Cu3 O9 2.157395 1_465
Cu3 O17 2.486099 1_555
Cu4 O26 1.926285 1_555
Cu4 O2 1.936945 1_555
Cu4 O27 2.090705 1_555
Cu4 O21 2.157395 1_555
Cu4 O36 2.486099 1_555
Cu5 O15 1.926285 1_555
Cu5 O0 1.936945 1_555
Cu5 O11 2.090705 1_555
Cu5 O43 2.157395 1_555
Cu5 O29 2.486099 1_555
Cu6 O28 1.926285 1_655
Cu6 O44 1.936945 1_555
Cu6 O3 2.090705 1_555
Cu6 O46 2.157395 1_655
Cu6 O31 2.486099 1_555
Cu7 O22 1.926285 1_455
Cu7 O10 1.936945 1_555
Cu7 O34 2.090705 1_555
Cu7 O6 2.157395 1_455
Cu7 O23 2.486099 1_555
O0 Si9 1.633622 1_555
O0 Zn6 2.107913 1_655
O1 Si15 1.630136 1_555
O1 Zn3 2.109032 1_545
O2 Si4 1.633622 1_555
O2 Zn7 2.107913 1_455
O3 Si7 1.647146 1_556
O3 Zn5 2.075274 1_555
O3 Zn4 2.267638 1_555
O4 Si15 1.647146 1_556
O4 Zn4 2.075274 1_455
O4 Zn5 2.267638 1_555
O5 Si15 1.661243 1_655
O5 Si7 1.664266 1_555
O6 Si9 1.628009 1_555
O6 Zn2 2.041153 1_555
O6 Zn3 2.269723 1_655
O7 Si13 1.628009 1_555
O7 Zn1 2.041153 1_555
O7 Zn7 2.269723 1_455
O8 Si1 1.647146 1_555
O8 Zn1 2.075274 1_555
O8 Zn7 2.267638 1_555
O9 Si3 1.628009 1_555
O9 Zn0 2.041153 1_555
O9 Zn6 2.269723 1_655
O10 Si10 1.633622 1_555
O10 Zn2 2.107913 1_555
O11 Si8 1.647146 1_555
O11 Zn6 2.075274 1_655
O11 Zn0 2.267638 1_555
O12 Si2 1.630136 1_555
O12 Zn4 2.109032 1_565
O13 Si5 1.628009 1_555
O13 Zn3 2.041153 1_555
O13 Zn2 2.269723 1_555
O14 Si11 1.633622 1_555
O14 Zn1 2.107913 1_545
O15 Si6 1.630136 1_555
O15 Zn6 2.109032 1_555
O16 Si5 1.633622 1_555
O16 Zn0 2.107913 1_565
O17 Si9 1.645173 1_455
O17 Si5 1.657273 1_555
O18 Si0 1.645173 1_555
O18 Si13 1.657273 1_555
O19 Si14 1.661243 1_555
O19 Si2 1.664266 1_555
O20 Si2 1.647146 1_554
O20 Zn3 2.075274 1_655
O20 Zn2 2.267638 1_555
O21 Si0 1.628009 1_555
O21 Zn7 2.041153 1_555
O21 Zn1 2.269723 1_555
O22 Si7 1.630136 1_555
O22 Zn2 2.109032 1_555
O23 Si3 1.645173 1_455
O23 Si10 1.657273 1_555
O24 Si12 1.647146 1_555
O24 Zn0 2.075274 1_555
O24 Zn6 2.267638 1_555
O25 Si11 1.628009 1_555
O25 Zn4 2.041153 1_555
O25 Zn5 2.269723 1_555
O26 Si8 1.630136 1_555
O26 Zn7 2.109032 1_555
O27 Si6 1.647146 1_555
O27 Zn7 2.075274 1_455
O27 Zn1 2.267638 1_555
O28 Si14 1.630136 1_555
O28 Zn5 2.109032 1_555
O29 Si5 1.645173 1_555
O29 Si9 1.657273 1_555
O30 Si13 1.633622 1_555
O30 Zn4 2.107913 1_465
O31 Si13 1.645173 1_655
O31 Si0 1.657273 1_555
O32 Si4 1.645173 1_655
O32 Si11 1.657273 1_555
O33 Si1 1.630136 1_555
O33 Zn0 2.109032 1_565
O34 Si14 1.647146 1_554
O34 Zn2 2.075274 1_555
O34 Zn3 2.267638 1_555
O35 Si12 1.630136 1_555
O35 Zn1 2.109032 1_545
O36 Si11 1.645173 1_555
O36 Si4 1.657273 1_555
O37 Si2 1.661243 1_455
O37 Si14 1.664266 1_555
O38 Si1 1.661243 1_555
O38 Si6 1.664266 1_555
O39 Si10 1.645173 1_555
O39 Si3 1.657273 1_555
O40 Si7 1.661243 1_555
O40 Si15 1.664266 1_555
O41 Si12 1.661243 1_555
O41 Si8 1.664266 1_555
O42 Si8 1.661243 1_455
O42 Si12 1.664266 1_555
O43 Si10 1.628009 1_555
O43 Zn6 2.041153 1_555
O43 Zn0 2.269723 1_555
O44 Si0 1.633622 1_555
O44 Zn5 2.107913 1_555
O45 Si6 1.661243 1_655
O45 Si1 1.664266 1_555
O46 Si4 1.628009 1_555
O46 Zn5 2.041153 1_555
O46 Zn4 2.269723 1_455
O47 Si3 1.633622 1_555
O47 Zn3 2.107913 1_645
