# generated using pymatgen
data_CsH3(SeO4)2
_symmetry_space_group_name_H-M   'P 1'
_cell_length_a   8.20113887
_cell_length_b   13.53542000
_cell_length_c   9.04131535
_cell_angle_alpha   90.00000000
_cell_angle_beta   90.22794138
_cell_angle_gamma   90.00000000
_symmetry_Int_Tables_number   1
_chemical_formula_structural   CsH3(SeO4)2
_chemical_formula_sum   'Cs4 H12 Se8 O32'
_cell_volume   1003.63103535
_cell_formula_units_Z   4
loop_
 _symmetry_equiv_pos_site_id
 _symmetry_equiv_pos_as_xyz
  1  'x, y, z'
loop_
 _atom_site_type_symbol
 _atom_site_label
 _atom_site_symmetry_multiplicity
 _atom_site_fract_x
 _atom_site_fract_y
 _atom_site_fract_z
 _atom_site_occupancy
  Cs  Cs0  1  0.23973000  0.42302500  0.70168000  1
  Cs  Cs1  1  0.23973000  0.07697500  0.20168000  1
  Cs  Cs2  1  0.76027000  0.92302500  0.79832000  1
  Cs  Cs3  1  0.76027000  0.57697500  0.29832000  1
  H  H0  1  0.03595600  0.63429500  0.58280900  1
  H  H1  1  0.03595600  0.86570500  0.08280900  1
  H  H2  1  0.33544000  0.95251400  0.62624800  1
  H  H3  1  0.33544000  0.54748600  0.12624800  1
  H  H4  1  0.79159600  0.14958700  0.61852300  1
  H  H5  1  0.20840400  0.64958700  0.88147700  1
  H  H6  1  0.79159600  0.35041300  0.11852300  1
  H  H7  1  0.20840400  0.85041300  0.38147700  1
  H  H8  1  0.66456000  0.45251400  0.87375200  1
  H  H9  1  0.66456000  0.04748600  0.37375200  1
  H  H10  1  0.96404400  0.13429500  0.91719100  1
  H  H11  1  0.96404400  0.36570500  0.41719100  1
  Se  Se0  1  0.24177400  0.81151800  0.83062300  1
  Se  Se1  1  0.27164100  0.11645800  0.67490000  1
  Se  Se2  1  0.24177400  0.68848200  0.33062300  1
  Se  Se3  1  0.27164100  0.38354200  0.17490000  1
  Se  Se4  1  0.72835900  0.61645800  0.82510000  1
  Se  Se5  1  0.75822600  0.31151800  0.66937700  1
  Se  Se6  1  0.72835900  0.88354200  0.32510000  1
  Se  Se7  1  0.75822600  0.18848200  0.16937700  1
  O  O0  1  0.07281300  0.81471000  0.73233800  1
  O  O1  1  0.05692400  0.08232300  0.73364200  1
  O  O2  1  0.07281300  0.68529000  0.23233800  1
  O  O3  1  0.05692400  0.41767700  0.23364200  1
  O  O4  1  0.22247900  0.84768100  0.00432000  1
  O  O5  1  0.22247900  0.65231900  0.50432000  1
  O  O6  1  0.24486400  0.20105300  0.54795500  1
  O  O7  1  0.24486400  0.29894700  0.04795500  1
  O  O8  1  0.30444600  0.68370100  0.84129900  1
  O  O9  1  0.30255800  0.01010300  0.56028800  1
  O  O10  1  0.30444600  0.81629900  0.34129900  1
  O  O11  1  0.30255800  0.48989700  0.06028800  1
  O  O12  1  0.39961400  0.86487000  0.74792500  1
  O  O13  1  0.06185800  0.09153700  0.89525600  1
  O  O14  1  0.39961400  0.63513000  0.24792500  1
  O  O15  1  0.06185800  0.40846300  0.39525600  1
  O  O16  1  0.93814200  0.59153700  0.60474400  1
  O  O17  1  0.60038600  0.36487000  0.75207500  1
  O  O18  1  0.93814200  0.90846300  0.10474400  1
  O  O19  1  0.60038600  0.13513000  0.25207500  1
  O  O20  1  0.69744200  0.51010300  0.93971200  1
  O  O21  1  0.69555400  0.18370100  0.65870100  1
  O  O22  1  0.69744200  0.98989700  0.43971200  1
  O  O23  1  0.69555400  0.31629900  0.15870100  1
  O  O24  1  0.75513600  0.70105300  0.95204500  1
  O  O25  1  0.75513600  0.79894700  0.45204500  1
  O  O26  1  0.77752100  0.34768100  0.49568000  1
  O  O27  1  0.77752100  0.15231900  0.99568000  1
  O  O28  1  0.94307600  0.58232300  0.76635800  1
  O  O29  1  0.92718700  0.31471000  0.76766200  1
  O  O30  1  0.94307600  0.91767700  0.26635800  1
  O  O31  1  0.92718700  0.18529000  0.26766200  1
loop_
_geom_bond_atom_site_label_1
_geom_bond_atom_site_label_2
_geom_bond_distance
_geom_bond_site_symmetry_2
Cs0 O29 3.014550 1_455
Cs0 O17 3.092735 1_555
Cs0 O15 3.132122 1_555
Cs0 O28 3.304744 1_455
Cs0 O6 3.310728 1_555
Cs0 O11 3.403515 1_556
Cs0 O7 3.552895 1_556
Cs0 O5 3.582505 1_555
Cs1 O31 3.014550 1_455
Cs1 O19 3.092735 1_555
Cs1 O13 3.132122 1_554
Cs1 O30 3.304744 1_445
Cs1 O7 3.310728 1_555
Cs1 O9 3.403515 1_555
Cs1 O6 3.552895 1_555
Cs1 O4 3.582505 1_545
Cs2 O0 3.014550 1_655
Cs2 O12 3.092735 1_555
Cs2 O18 3.132122 1_556
Cs2 O1 3.304744 1_665
Cs2 O24 3.310728 1_555
Cs2 O22 3.403515 1_555
Cs2 O25 3.552895 1_555
Cs2 O27 3.582505 1_565
Cs3 O2 3.014550 1_655
Cs3 O14 3.092735 1_555
Cs3 O16 3.132122 1_555
Cs3 O3 3.304744 1_655
Cs3 O25 3.310728 1_555
Cs3 O20 3.403515 1_554
Cs3 O24 3.552895 1_554
Cs3 O26 3.582505 1_555
H0 O16 1.009479 1_455
H0 O5 1.706381 1_555
H1 O18 1.009479 1_455
H1 O4 1.706381 1_555
H2 O9 1.017202 1_565
H2 O12 1.699986 1_555
H3 O11 1.017202 1_555
H3 O14 1.699986 1_555
H4 O21 0.983791 1_555
H5 O8 0.983791 1_555
H6 O23 0.983791 1_555
H7 O10 0.983791 1_555
H8 O20 1.017202 1_555
H8 O17 1.699986 1_555
H9 O22 1.017202 1_545
H9 O19 1.699986 1_555
H10 O13 1.009479 1_655
H10 O27 1.706381 1_555
H11 O15 1.009479 1_655
H11 O26 1.706381 1_555
O0 Se0 1.643719 1_555
O1 Se1 1.898378 1_555
O2 Se2 1.643719 1_555
O3 Se3 1.898378 1_555
O4 Se0 1.653155 1_554
O5 Se2 1.653155 1_555
O6 Se1 1.635433 1_555
O7 Se3 1.635433 1_555
O8 Se0 1.807262 1_555
O9 Se1 1.792348 1_555
O10 Se2 1.807262 1_555
O11 Se3 1.792348 1_555
O12 Se0 1.662495 1_555
O14 Se2 1.662495 1_555
O17 Se5 1.662495 1_555
O19 Se7 1.662495 1_555
O20 Se4 1.792348 1_555
O21 Se5 1.807262 1_555
O22 Se6 1.792348 1_555
O23 Se7 1.807262 1_555
O24 Se4 1.635433 1_555
O25 Se6 1.635433 1_555
O26 Se5 1.653155 1_555
O27 Se7 1.653155 1_556
O28 Se4 1.898378 1_555
O29 Se5 1.643719 1_555
O30 Se6 1.898378 1_555
O31 Se7 1.643719 1_555
