# generated using pymatgen
data_TbCoSi3
_symmetry_space_group_name_H-M   'P 1'
_cell_length_a   5.53894643
_cell_length_b   5.53894643
_cell_length_c   5.53894643
_cell_angle_alpha   137.22485881
_cell_angle_beta   137.22485881
_cell_angle_gamma   62.09226193
_symmetry_Int_Tables_number   1
_chemical_formula_structural   TbCoSi3
_chemical_formula_sum   'Tb1 Co1 Si3'
_cell_volume   77.44765818
_cell_formula_units_Z   1
loop_
 _symmetry_equiv_pos_site_id
 _symmetry_equiv_pos_as_xyz
  1  'x, y, z'
loop_
 _atom_site_type_symbol
 _atom_site_label
 _atom_site_symmetry_multiplicity
 _atom_site_fract_x
 _atom_site_fract_y
 _atom_site_fract_z
 _atom_site_occupancy
  Tb  Tb0  1  0.00360796  0.00360796  0.00000000  1
  Co  Co0  1  0.66001698  0.66001698  0.00000000  1
  Si  Si0  1  0.42829479  0.42829479  0.00000000  1
  Si  Si1  1  0.26154014  0.76154014  0.50000000  1
  Si  Si2  1  0.76154014  0.26154014  0.50000000  1
loop_
_geom_bond_atom_site_label_1
_geom_bond_atom_site_label_2
_geom_bond_distance
_geom_bond_site_symmetry_2
Co0 Si0 2.199278 1_555
Co0 Si2 2.237967 1_565
Co0 Si1 2.237967 1_554
Co0 Si2 2.237967 1_554
Co0 Si1 2.237967 1_655
Co0 Tb0 3.219284 1_666
Co0 Tb0 3.219284 1_554
Co0 Tb0 3.219284 1_565
Co0 Tb0 3.219284 1_655
Co0 Tb0 3.261026 1_665
Si0 Si1 2.566106 1_544
Si0 Si1 2.566106 1_555
Si0 Si2 2.566106 1_555
Si0 Si2 2.566106 1_454
Si0 Tb0 2.944663 1_565
Si0 Tb0 2.944663 1_666
Si0 Tb0 2.944663 1_655
Si0 Tb0 2.944663 1_554
Si1 Tb0 3.059152 1_565
Si1 Tb0 3.059152 1_666
Si1 Tb0 3.173789 1_566
Si1 Tb0 3.173789 1_555
Si2 Tb0 3.059152 1_666
Si2 Tb0 3.059152 1_655
Si2 Tb0 3.173789 1_656
Si2 Tb0 3.173789 1_555
