# generated using pymatgen
data_NdMnSbO
_symmetry_space_group_name_H-M   'P 1'
_cell_length_a   4.25966500
_cell_length_b   4.25966500
_cell_length_c   9.72092000
_cell_angle_alpha   90.00000000
_cell_angle_beta   90.00000000
_cell_angle_gamma   90.00000000
_symmetry_Int_Tables_number   1
_chemical_formula_structural   NdMnSbO
_chemical_formula_sum   'Nd2 Mn2 Sb2 O2'
_cell_volume   176.38362343
_cell_formula_units_Z   2
loop_
 _symmetry_equiv_pos_site_id
 _symmetry_equiv_pos_as_xyz
  1  'x, y, z'
loop_
 _atom_site_type_symbol
 _atom_site_label
 _atom_site_symmetry_multiplicity
 _atom_site_fract_x
 _atom_site_fract_y
 _atom_site_fract_z
 _atom_site_occupancy
  Nd  Nd0  1  0.00000000  0.50000000  0.88830200  1
  Nd  Nd1  1  0.50000000  0.00000000  0.11169800  1
  Mn  Mn0  1  0.00000000  0.00000000  0.50000000  1
  Mn  Mn1  1  0.50000000  0.50000000  0.50000000  1
  Sb  Sb0  1  0.50000000  0.00000000  0.69173000  1
  Sb  Sb1  1  0.00000000  0.50000000  0.30827000  1
  O  O0  1  0.50000000  0.50000000  0.00000000  1
  O  O1  1  0.00000000  0.00000000  0.00000000  1
loop_
_geom_bond_atom_site_label_1
_geom_bond_atom_site_label_2
_geom_bond_distance
_geom_bond_site_symmetry_2
Nd0 O1 2.390641 1_566
Nd0 O0 2.390641 1_556
Nd0 O1 2.390641 1_556
Nd0 O0 2.390641 1_456
Nd0 Sb0 3.567038 1_565
Nd0 Sb0 3.567038 1_465
Nd0 Sb0 3.567038 1_455
Nd0 Sb0 3.567038 1_555
Nd1 O1 2.390641 1_555
Nd1 O0 2.390641 1_555
Nd1 O0 2.390641 1_545
Nd1 O1 2.390641 1_655
Nd1 Sb1 3.567038 1_555
Nd1 Sb1 3.567038 1_545
Nd1 Sb1 3.567038 1_645
Nd1 Sb1 3.567038 1_655
Mn0 Sb0 2.830178 1_455
Mn0 Sb0 2.830178 1_555
Mn0 Sb1 2.830178 1_545
Mn0 Sb1 2.830178 1_555
Mn1 Sb0 2.830178 1_565
Mn1 Sb0 2.830178 1_555
Mn1 Sb1 2.830178 1_655
Mn1 Sb1 2.830178 1_555
