# generated using pymatgen
data_Sr3WN3
_symmetry_space_group_name_H-M   'P 1'
_cell_length_a   7.95299171
_cell_length_b   7.95188249
_cell_length_c   5.34462689
_cell_angle_alpha   90.00000000
_cell_angle_beta   90.00000000
_cell_angle_gamma   119.99498211
_symmetry_Int_Tables_number   1
_chemical_formula_structural   Sr3WN3
_chemical_formula_sum   'Sr6 W2 N6'
_cell_volume   292.73217844
_cell_formula_units_Z   2
loop_
 _symmetry_equiv_pos_site_id
 _symmetry_equiv_pos_as_xyz
  1  'x, y, z'
loop_
 _atom_site_type_symbol
 _atom_site_label
 _atom_site_symmetry_multiplicity
 _atom_site_fract_x
 _atom_site_fract_y
 _atom_site_fract_z
 _atom_site_occupancy
  Sr  Sr0  1  0.90419034  0.64999825  0.25000000  1
  Sr  Sr1  1  0.74581089  0.09582327  0.25000000  1
  Sr  Sr2  1  0.35000356  0.25414256  0.25000000  1
  Sr  Sr3  1  0.09580966  0.35000175  0.75000000  1
  Sr  Sr4  1  0.25418911  0.90417673  0.75000000  1
  Sr  Sr5  1  0.64999644  0.74585644  0.75000000  1
  W  W0  1  0.66667718  0.33331047  0.75000000  1
  W  W1  1  0.33332282  0.66668953  0.25000000  1
  N  N0  1  0.88381074  0.58048386  0.75000000  1
  N  N1  1  0.69666533  0.11620191  0.75000000  1
  N  N2  1  0.41951397  0.30332850  0.75000000  1
  N  N3  1  0.11618926  0.41951614  0.25000000  1
  N  N4  1  0.30333467  0.88379809  0.25000000  1
  N  N5  1  0.58048603  0.69667150  0.25000000  1
loop_
_geom_bond_atom_site_label_1
_geom_bond_atom_site_label_2
_geom_bond_distance
_geom_bond_site_symmetry_2
N0 W0 1.857847 1_555
N0 Sr0 2.717261 1_555
N0 Sr0 2.717261 1_556
N0 Sr5 2.762618 1_555
N0 Sr4 2.778704 1_655
N0 Sr3 3.048170 1_655
N1 W0 1.857174 1_555
N1 Sr1 2.717281 1_555
N1 Sr1 2.717281 1_556
N1 Sr3 2.762684 1_655
N1 Sr5 2.778053 1_545
N1 Sr4 3.048586 1_545
N2 W0 1.858007 1_555
N2 Sr2 2.717288 1_556
N2 Sr2 2.717288 1_555
N2 Sr4 2.762328 1_545
N2 Sr3 2.778614 1_555
N2 Sr5 3.048531 1_555
N3 W1 1.857847 1_555
N3 Sr3 2.717261 1_554
N3 Sr3 2.717261 1_555
N3 Sr2 2.762624 1_555
N3 Sr1 2.778704 1_455
N3 Sr0 3.048170 1_455
N4 W1 1.857174 1_555
N4 Sr4 2.717281 1_555
N4 Sr4 2.717281 1_554
N4 Sr0 2.762684 1_455
N4 Sr2 2.778045 1_565
N4 Sr1 3.048586 1_565
N5 W1 1.858007 1_555
N5 Sr5 2.717288 1_555
N5 Sr5 2.717288 1_554
N5 Sr1 2.762328 1_565
N5 Sr0 2.778614 1_555
N5 Sr2 3.048538 1_555
