# generated using pymatgen
data_YGaPt
_symmetry_space_group_name_H-M   'P 1'
_cell_length_a   4.41515260
_cell_length_b   6.95932275
_cell_length_c   7.59689751
_cell_angle_alpha   89.99998376
_cell_angle_beta   90.00000000
_cell_angle_gamma   90.00000000
_symmetry_Int_Tables_number   1
_chemical_formula_structural   YGaPt
_chemical_formula_sum   'Y4 Ga4 Pt4'
_cell_volume   233.42585813
_cell_formula_units_Z   4
loop_
 _symmetry_equiv_pos_site_id
 _symmetry_equiv_pos_as_xyz
  1  'x, y, z'
loop_
 _atom_site_type_symbol
 _atom_site_label
 _atom_site_symmetry_multiplicity
 _atom_site_fract_x
 _atom_site_fract_y
 _atom_site_fract_z
 _atom_site_occupancy
  Y  Y0  1  0.25000000  0.98809526  0.29940374  1
  Y  Y1  1  0.25000000  0.48809526  0.20059626  1
  Y  Y2  1  0.75000000  0.01190374  0.70059626  1
  Y  Y3  1  0.75000000  0.51190474  0.79940474  1
  Ga  Ga0  1  0.25000000  0.32352810  0.57813620  1
  Ga  Ga1  1  0.25000000  0.82352810  0.92186380  1
  Ga  Ga2  1  0.75000000  0.67647190  0.42186280  1
  Ga  Ga3  1  0.75000000  0.17647190  0.07813720  1
  Pt  Pt0  1  0.25000000  0.21828413  0.90560511  1
  Pt  Pt1  1  0.25000000  0.71828513  0.59439589  1
  Pt  Pt2  1  0.75000000  0.78171587  0.09439589  1
  Pt  Pt3  1  0.75000000  0.28171587  0.40560411  1
loop_
_geom_bond_atom_site_label_1
_geom_bond_atom_site_label_2
_geom_bond_distance
_geom_bond_site_symmetry_2
Ga0 Pt3 2.583800 1_555
Ga0 Pt3 2.583800 1_455
Ga0 Pt0 2.593325 1_555
Ga0 Pt1 2.750017 1_555
Ga0 Y3 3.068820 1_455
Ga0 Y3 3.068820 1_555
Ga0 Y1 3.088339 1_555
Ga0 Y0 3.151694 1_545
Ga0 Y2 3.231426 1_555
Ga0 Y2 3.231426 1_455
Ga1 Pt2 2.583800 1_456
Ga1 Pt2 2.583800 1_556
Ga1 Pt1 2.593317 1_555
Ga1 Pt0 2.750010 1_565
Ga1 Y2 3.068812 1_465
Ga1 Y2 3.068812 1_565
Ga1 Y0 3.088340 1_556
Ga1 Y1 3.151693 1_556
Ga1 Y3 3.231420 1_455
Ga1 Y3 3.231420 1_555
Ga2 Pt1 2.583805 1_555
Ga2 Pt1 2.583805 1_655
Ga2 Pt2 2.593311 1_555
Ga2 Pt3 2.750010 1_555
Ga2 Y1 3.068811 1_555
Ga2 Y1 3.068811 1_655
Ga2 Y3 3.088353 1_555
Ga2 Y2 3.151694 1_565
Ga2 Y0 3.231420 1_655
Ga2 Y0 3.231420 1_555
Ga3 Pt0 2.583800 1_654
Ga3 Pt0 2.583800 1_554
Ga3 Pt3 2.593311 1_555
Ga3 Pt2 2.750010 1_545
Ga3 Y0 3.068811 1_645
Ga3 Y0 3.068811 1_545
Ga3 Y2 3.088349 1_554
Ga3 Y3 3.151693 1_554
Ga3 Y1 3.231420 1_555
Ga3 Y1 3.231420 1_655
Pt0 Y1 2.923684 1_556
Pt0 Y2 3.059714 1_455
Pt0 Y2 3.059714 1_555
Pt0 Y3 3.114449 1_455
Pt0 Y3 3.114449 1_555
Pt0 Y0 3.393556 1_546
Pt1 Y0 2.923685 1_555
Pt1 Y3 3.059714 1_455
Pt1 Y3 3.059714 1_555
Pt1 Y2 3.114440 1_465
Pt1 Y2 3.114440 1_565
Pt1 Y1 3.393567 1_555
Pt2 Y3 2.923684 1_554
Pt2 Y0 3.059707 1_655
Pt2 Y0 3.059707 1_555
Pt2 Y1 3.114449 1_555
Pt2 Y1 3.114449 1_655
Pt2 Y2 3.393560 1_564
Pt3 Y2 2.923694 1_555
Pt3 Y1 3.059707 1_555
Pt3 Y1 3.059707 1_655
Pt3 Y0 3.114449 1_645
Pt3 Y0 3.114449 1_545
Pt3 Y3 3.393571 1_555
