# generated using pymatgen
data_KCoF4
_symmetry_space_group_name_H-M   'P 1'
_cell_length_a   5.88112100
_cell_length_b   7.70236300
_cell_length_c   7.72393900
_cell_angle_alpha   90.00000000
_cell_angle_beta   90.00000000
_cell_angle_gamma   90.00000000
_symmetry_Int_Tables_number   1
_chemical_formula_structural   KCoF4
_chemical_formula_sum   'K4 Co4 F16'
_cell_volume   349.88307316
_cell_formula_units_Z   4
loop_
 _symmetry_equiv_pos_site_id
 _symmetry_equiv_pos_as_xyz
  1  'x, y, z'
loop_
 _atom_site_type_symbol
 _atom_site_label
 _atom_site_symmetry_multiplicity
 _atom_site_fract_x
 _atom_site_fract_y
 _atom_site_fract_z
 _atom_site_occupancy
  K  K0  1  0.49366500  0.00000000  0.50000000  1
  K  K1  1  0.50633500  0.50000000  0.00000000  1
  K  K2  1  0.43199300  0.00000000  0.00000000  1
  K  K3  1  0.56800700  0.50000000  0.50000000  1
  Co  Co0  1  0.99984900  0.24257100  0.25282300  1
  Co  Co1  1  0.99984900  0.75742900  0.74717700  1
  Co  Co2  1  0.00015100  0.25742900  0.75282300  1
  Co  Co3  1  0.00015100  0.74257100  0.24717700  1
  F  F0  1  0.10554800  0.99022400  0.26609800  1
  F  F1  1  0.10554800  0.00977600  0.73390200  1
  F  F2  1  0.89445200  0.50977600  0.76609800  1
  F  F3  1  0.89445200  0.49022400  0.23390200  1
  F  F4  1  0.29075100  0.29654700  0.31222800  1
  F  F5  1  0.29075100  0.70345300  0.68777200  1
  F  F6  1  0.70924900  0.20345300  0.81222800  1
  F  F7  1  0.70924900  0.79654700  0.18777200  1
  F  F8  1  0.09889900  0.25285400  0.00494700  1
  F  F9  1  0.09889900  0.74714600  0.99505300  1
  F  F10  1  0.90110100  0.24714600  0.50494700  1
  F  F11  1  0.90110100  0.75285400  0.49505300  1
  F  F12  1  0.28848300  0.67571200  0.29458800  1
  F  F13  1  0.28848300  0.32428800  0.70541200  1
  F  F14  1  0.71151700  0.82428800  0.79458800  1
  F  F15  1  0.71151700  0.17571200  0.20541200  1
loop_
_geom_bond_atom_site_label_1
_geom_bond_atom_site_label_2
_geom_bond_distance
_geom_bond_site_symmetry_2
Co0 F15 1.809627 1_555
Co0 F4 1.819427 1_655
Co0 F8 2.002803 1_655
Co0 F3 2.011015 1_555
Co0 F10 2.032447 1_555
Co0 F0 2.043228 1_645
Co1 F14 1.809627 1_555
Co1 F5 1.819427 1_655
Co1 F9 2.002803 1_655
Co1 F2 2.011015 1_555
Co1 F11 2.032447 1_555
Co1 F1 2.043228 1_665
Co2 F13 1.809627 1_555
Co2 F6 1.819427 1_455
Co2 F10 2.002803 1_455
Co2 F1 2.011015 1_555
Co2 F8 2.032447 1_556
Co2 F2 2.043228 1_455
Co3 F12 1.809627 1_555
Co3 F7 1.819427 1_455
Co3 F11 2.002803 1_455
Co3 F0 2.011015 1_555
Co3 F9 2.032447 1_554
Co3 F3 2.043228 1_455
F0 K2 2.813521 1_565
F0 K0 2.911997 1_565
F1 K2 2.813521 1_556
F1 K0 2.911997 1_555
F2 K3 2.813521 1_555
F2 K1 2.911997 1_556
F3 K3 2.813521 1_555
F3 K1 2.911997 1_555
F4 K3 2.686628 1_555
F4 K0 2.957155 1_555
F4 K1 3.143115 1_555
F5 K3 2.686628 1_555
F5 K0 2.957155 1_565
F5 K1 3.143115 1_556
F6 K2 2.686628 1_556
F6 K1 2.957155 1_556
F6 K0 3.143115 1_555
F7 K2 2.686628 1_565
F7 K1 2.957155 1_555
F7 K0 3.143115 1_565
F8 K2 2.762617 1_555
F8 K1 3.060533 1_555
F9 K2 2.762617 1_566
F9 K1 3.060533 1_556
F10 K3 2.762617 1_555
F10 K0 3.060533 1_555
F11 K3 2.762617 1_555
F11 K0 3.060533 1_565
F12 K3 2.655449 1_555
F12 K1 2.941181 1_555
F12 K0 3.195672 1_565
F13 K3 2.655449 1_555
F13 K1 2.941181 1_556
F13 K0 3.195672 1_555
F14 K2 2.655449 1_566
F14 K0 2.941181 1_565
F14 K1 3.195672 1_556
F15 K2 2.655449 1_555
F15 K0 2.941181 1_555
F15 K1 3.195672 1_555
