# generated using pymatgen
data_Mn4(SiO3)5
_symmetry_space_group_name_H-M   'P 1'
_cell_length_a   6.58471000
_cell_length_b   7.56057774
_cell_length_c   12.16118891
_cell_angle_alpha   106.08107458
_cell_angle_beta   94.76656923
_cell_angle_gamma   93.45775516
_symmetry_Int_Tables_number   1
_chemical_formula_structural   Mn4(SiO3)5
_chemical_formula_sum   'Mn8 Si10 O30'
_cell_volume   577.53358769
_cell_formula_units_Z   2
loop_
 _symmetry_equiv_pos_site_id
 _symmetry_equiv_pos_as_xyz
  1  'x, y, z'
loop_
 _atom_site_type_symbol
 _atom_site_label
 _atom_site_symmetry_multiplicity
 _atom_site_fract_x
 _atom_site_fract_y
 _atom_site_fract_z
 _atom_site_occupancy
  Mn  Mn0  1  0.03888200  0.10769200  0.16681400  1
  Mn  Mn1  1  0.12163500  0.32066800  0.44807300  1
  Mn  Mn2  1  0.76218300  0.26937300  0.96965300  1
  Mn  Mn3  1  0.23781700  0.73062700  0.03034700  1
  Mn  Mn4  1  0.81278300  0.50419300  0.26824800  1
  Mn  Mn5  1  0.96111800  0.89230800  0.83318600  1
  Mn  Mn6  1  0.87836500  0.67933200  0.55192700  1
  Mn  Mn7  1  0.18721700  0.49580700  0.73175200  1
  Si  Si0  1  0.29287200  0.53887800  0.25445100  1
  Si  Si1  1  0.49155200  0.20713000  0.12059400  1
  Si  Si2  1  0.83431000  0.93687600  0.35128600  1
  Si  Si3  1  0.16569000  0.06312400  0.64871400  1
  Si  Si4  1  0.76674000  0.73234400  0.08964100  1
  Si  Si5  1  0.50844800  0.79287000  0.87940600  1
  Si  Si6  1  0.23326000  0.26765600  0.91035900  1
  Si  Si7  1  0.62458800  0.27246600  0.48309300  1
  Si  Si8  1  0.70712800  0.46112200  0.74554900  1
  Si  Si9  1  0.37541200  0.72753400  0.51690700  1
  O  O0  1  0.32104500  0.94043600  0.56836900  1
  O  O1  1  0.88782000  0.75831000  0.39427700  1
  O  O2  1  0.10008500  0.39827600  0.26398700  1
  O  O3  1  0.24653000  0.64427000  0.15890500  1
  O  O4  1  0.26261500  0.81796500  0.88929000  1
  O  O5  1  0.27800000  0.14520300  0.78222300  1
  O  O6  1  0.63213200  0.31406400  0.62231300  1
  O  O7  1  0.97336800  0.92095700  0.66077000  1
  O  O8  1  0.11218000  0.24169000  0.60572300  1
  O  O9  1  0.40420100  0.30713000  0.42844000  1
  O  O10  1  0.03916600  0.16914800  0.95402400  1
  O  O11  1  0.72200000  0.85479700  0.21777700  1
  O  O12  1  0.82055500  0.40512200  0.45232400  1
  O  O13  1  0.89991500  0.60172400  0.73601300  1
  O  O14  1  0.02663200  0.07904300  0.33923000  1
  O  O15  1  0.96083400  0.83085200  0.04597600  1
  O  O16  1  0.17944500  0.59487800  0.54767600  1
  O  O17  1  0.59579900  0.69287000  0.57156000  1
  O  O18  1  0.79672800  0.52457500  0.09325700  1
  O  O19  1  0.44122800  0.25952300  0.99598600  1
  O  O20  1  0.55877200  0.74047700  0.00401400  1
  O  O21  1  0.20327200  0.47542500  0.90674300  1
  O  O22  1  0.50982500  0.59272600  0.77754000  1
  O  O23  1  0.75347000  0.35573000  0.84109500  1
  O  O24  1  0.67895500  0.05956400  0.43163100  1
  O  O25  1  0.66387400  0.95234300  0.86622200  1
  O  O26  1  0.36786800  0.68593600  0.37768700  1
  O  O27  1  0.49017500  0.40727400  0.22246000  1
  O  O28  1  0.73738500  0.18203500  0.11071000  1
  O  O29  1  0.33612600  0.04765700  0.13377800  1
loop_
_geom_bond_atom_site_label_1
_geom_bond_atom_site_label_2
_geom_bond_distance
_geom_bond_site_symmetry_2
Mn0 O29 2.082101 1_555
Mn0 O14 2.174289 1_555
Mn0 O2 2.182061 1_555
Mn0 O28 2.201067 1_455
Mn0 O15 2.201210 1_445
Mn1 O9 1.900693 1_555
Mn1 O14 1.966119 1_555
Mn1 O16 2.084993 1_555
Mn1 O12 2.119488 1_455
Mn1 O8 2.164647 1_555
Mn1 O2 2.461949 1_555
Mn2 O23 1.851748 1_555
Mn2 O28 2.016541 1_556
Mn2 O10 2.020221 1_655
Mn2 O18 2.077884 1_556
Mn2 O19 2.163619 1_555
Mn2 O25 2.398693 1_545
Mn3 O3 1.851748 1_555
Mn3 O4 2.016541 1_554
Mn3 O15 2.020221 1_455
Mn3 O21 2.077884 1_554
Mn3 O20 2.163619 1_555
Mn3 O29 2.398693 1_565
Mn4 O2 2.097357 1_655
Mn4 O1 2.100662 1_555
Mn4 O18 2.170249 1_555
Mn4 O27 2.179261 1_555
Mn4 O12 2.547437 1_555
Mn4 O28 2.638272 1_555
Mn5 O25 2.082101 1_555
Mn5 O7 2.174289 1_555
Mn5 O13 2.182061 1_555
Mn5 O4 2.201067 1_655
Mn5 O10 2.201210 1_665
Mn6 O17 1.900693 1_555
Mn6 O7 1.966119 1_555
Mn6 O12 2.084993 1_555
Mn6 O16 2.119488 1_655
Mn6 O1 2.164647 1_555
Mn6 O13 2.461949 1_555
Mn7 O13 2.097357 1_455
Mn7 O8 2.100662 1_555
Mn7 O21 2.170249 1_555
Mn7 O22 2.179261 1_555
Mn7 O16 2.547437 1_555
Mn7 O4 2.638272 1_555
O0 Si3 1.624827 1_565
O0 Si9 1.630797 1_555
O1 Si2 1.624179 1_555
O2 Si0 1.638586 1_555
O3 Si0 1.600472 1_555
O4 Si5 1.651518 1_555
O5 Si6 1.637722 1_555
O5 Si3 1.659842 1_555
O6 Si8 1.616723 1_555
O6 Si7 1.630046 1_555
O7 Si3 1.653641 1_665
O8 Si3 1.624179 1_555
O9 Si7 1.611973 1_555
O10 Si6 1.639257 1_555
O11 Si4 1.637722 1_555
O11 Si2 1.659842 1_555
O12 Si7 1.715540 1_555
O13 Si8 1.638586 1_555
O14 Si2 1.653641 1_445
O15 Si4 1.639257 1_555
O16 Si9 1.715540 1_555
O17 Si9 1.611973 1_555
O18 Si4 1.607093 1_555
O19 Si6 1.664951 1_555
O19 Si1 1.681674 1_556
O20 Si4 1.664951 1_555
O20 Si5 1.681674 1_554
O21 Si6 1.607093 1_555
O22 Si5 1.670192 1_555
O22 Si8 1.689599 1_555
O23 Si8 1.600472 1_555
O24 Si2 1.624827 1_545
O24 Si7 1.630797 1_555
O25 Si5 1.585048 1_555
O26 Si0 1.616723 1_555
O26 Si9 1.630046 1_555
O27 Si1 1.670192 1_555
O27 Si0 1.689599 1_555
O28 Si1 1.651518 1_555
O29 Si1 1.585048 1_555
