# generated using pymatgen
data_LaNiSn2
_symmetry_space_group_name_H-M   'P 1'
_cell_length_a   9.41730924
_cell_length_b   9.41730924
_cell_length_c   4.55083217
_cell_angle_alpha   90.00000000
_cell_angle_beta   90.00000000
_cell_angle_gamma   152.14923962
_symmetry_Int_Tables_number   1
_chemical_formula_structural   LaNiSn2
_chemical_formula_sum   'La2 Ni2 Sn4'
_cell_volume   188.54697049
_cell_formula_units_Z   2
loop_
 _symmetry_equiv_pos_site_id
 _symmetry_equiv_pos_as_xyz
  1  'x, y, z'
loop_
 _atom_site_type_symbol
 _atom_site_label
 _atom_site_symmetry_multiplicity
 _atom_site_fract_x
 _atom_site_fract_y
 _atom_site_fract_z
 _atom_site_occupancy
  La  La0  1  0.89025269  0.10974731  0.75000000  1
  La  La1  1  0.10974731  0.89025269  0.25000000  1
  Ni  Ni0  1  0.68294529  0.31705471  0.75000000  1
  Ni  Ni1  1  0.31705471  0.68294529  0.25000000  1
  Sn  Sn0  1  0.54715099  0.45284901  0.75000000  1
  Sn  Sn1  1  0.45284901  0.54715099  0.25000000  1
  Sn  Sn2  1  0.25057201  0.74942799  0.75000000  1
  Sn  Sn3  1  0.74942799  0.25057201  0.25000000  1
loop_
_geom_bond_atom_site_label_1
_geom_bond_atom_site_label_2
_geom_bond_distance
_geom_bond_site_symmetry_2
La0 Sn1 3.409304 1_655
La0 Sn1 3.409304 1_656
La0 Sn1 3.409304 1_545
La0 Sn1 3.409304 1_546
La0 Sn2 3.414201 1_655
La0 Sn2 3.414201 1_545
La0 Sn3 3.435868 1_556
La0 Sn3 3.435868 1_555
La0 Ni1 3.479149 1_655
La0 Ni1 3.479149 1_546
La0 Ni1 3.479149 1_545
La0 Ni1 3.479149 1_656
La0 Sn0 3.655586 1_655
La0 Sn0 3.655586 1_545
La1 Sn0 3.409304 1_565
La1 Sn0 3.409304 1_564
La1 Sn0 3.409304 1_455
La1 Sn0 3.409304 1_454
La1 Sn3 3.414201 1_565
La1 Sn3 3.414201 1_455
La1 Sn2 3.435868 1_555
La1 Sn2 3.435868 1_554
La1 Ni0 3.479149 1_565
La1 Ni0 3.479149 1_564
La1 Ni0 3.479149 1_455
La1 Ni0 3.479149 1_454
La1 Sn1 3.655586 1_565
La1 Sn1 3.655586 1_455
Ni0 Sn0 2.482465 1_555
Ni0 Sn3 2.579662 1_555
Ni0 Sn3 2.579662 1_556
Ni0 Sn2 2.581619 1_655
Ni0 Sn2 2.581619 1_545
Ni1 Sn1 2.482465 1_555
Ni1 Sn2 2.579662 1_554
Ni1 Sn2 2.579662 1_555
Ni1 Sn3 2.581619 1_565
Ni1 Sn3 2.581619 1_455
Sn0 Sn1 2.854731 1_555
Sn0 Sn1 2.854731 1_556
