# generated using pymatgen
data_KLaCuTe4
_symmetry_space_group_name_H-M   'P 1'
_cell_length_a   4.49221300
_cell_length_b   4.49221300
_cell_length_c   21.26251100
_cell_angle_alpha   90.00000000
_cell_angle_beta   90.00000000
_cell_angle_gamma   90.00000000
_symmetry_Int_Tables_number   1
_chemical_formula_structural   KLaCuTe4
_chemical_formula_sum   'K2 La2 Cu2 Te8'
_cell_volume   429.07699649
_cell_formula_units_Z   2
loop_
 _symmetry_equiv_pos_site_id
 _symmetry_equiv_pos_as_xyz
  1  'x, y, z'
loop_
 _atom_site_type_symbol
 _atom_site_label
 _atom_site_symmetry_multiplicity
 _atom_site_fract_x
 _atom_site_fract_y
 _atom_site_fract_z
 _atom_site_occupancy
  K  K0  1  0.00000000  0.50000000  0.13798300  1
  K  K1  1  0.50000000  0.00000000  0.86201700  1
  La  La0  1  0.00000000  0.50000000  0.60230900  1
  La  La1  1  0.50000000  0.00000000  0.39769100  1
  Cu  Cu0  1  0.00000000  0.00000000  0.00000000  1
  Cu  Cu1  1  0.50000000  0.50000000  0.00000000  1
  Te  Te0  1  0.00000000  0.00000000  0.72209300  1
  Te  Te1  1  0.50000000  0.50000000  0.27790700  1
  Te  Te2  1  0.00000000  0.50000000  0.44181900  1
  Te  Te3  1  0.50000000  0.00000000  0.55818100  1
  Te  Te4  1  0.00000000  0.50000000  0.93001200  1
  Te  Te5  1  0.50000000  0.00000000  0.06998800  1
  Te  Te6  1  0.00000000  0.00000000  0.27790700  1
  Te  Te7  1  0.50000000  0.50000000  0.72209300  1
loop_
_geom_bond_atom_site_label_1
_geom_bond_atom_site_label_2
_geom_bond_distance
_geom_bond_site_symmetry_2
K0 Te5 3.490009 1_565
K0 Te5 3.490009 1_455
K0 Te5 3.490009 1_555
K0 Te5 3.490009 1_465
K0 Te1 3.727791 1_555
K0 Te1 3.727791 1_455
K0 Te6 3.727791 1_555
K0 Te6 3.727791 1_565
K1 Te4 3.490009 1_555
K1 Te4 3.490009 1_545
K1 Te4 3.490009 1_655
K1 Te4 3.490009 1_645
K1 Te0 3.727791 1_555
K1 Te0 3.727791 1_655
K1 Te7 3.727791 1_555
K1 Te7 3.727791 1_545
La0 Te3 3.312151 1_465
La0 Te3 3.312151 1_555
La0 Te3 3.312151 1_565
La0 Te3 3.312151 1_455
La0 Te0 3.395841 1_555
La0 Te7 3.395841 1_555
La0 Te7 3.395841 1_455
La0 Te0 3.395841 1_565
La0 Te2 3.412420 1_555
La1 Te2 3.312151 1_545
La1 Te2 3.312151 1_555
La1 Te2 3.312151 1_655
La1 Te2 3.312151 1_645
La1 Te6 3.395841 1_555
La1 Te1 3.395841 1_555
La1 Te1 3.395841 1_545
La1 Te6 3.395841 1_655
La1 Te3 3.412420 1_555
Cu0 Te5 2.694345 1_555
Cu0 Te5 2.694345 1_455
Cu0 Te4 2.694345 1_554
Cu0 Te4 2.694345 1_544
Cu0 K1 3.694937 1_454
Cu0 K1 3.694937 1_554
Cu0 K0 3.694937 1_555
Cu0 K0 3.694937 1_545
Cu1 Te5 2.694345 1_565
Cu1 Te5 2.694345 1_555
Cu1 Te4 2.694345 1_554
Cu1 Te4 2.694345 1_654
Cu1 K1 3.694937 1_564
Cu1 K1 3.694937 1_554
Cu1 K0 3.694937 1_555
Cu1 K0 3.694937 1_655
Te0 Te7 3.176474 1_545
Te0 Te7 3.176474 1_445
Te0 Te7 3.176474 1_455
Te0 Te7 3.176474 1_555
Te1 Te6 3.176474 1_655
Te1 Te6 3.176474 1_665
Te1 Te6 3.176474 1_555
Te1 Te6 3.176474 1_565
