# generated using pymatgen
data_LaCoSbPbO6
_symmetry_space_group_name_H-M   'P 1'
_cell_length_a   8.13038388
_cell_length_b   8.13293846
_cell_length_c   9.91464180
_cell_angle_alpha   66.01772033
_cell_angle_beta   66.04435281
_cell_angle_gamma   90.56800113
_symmetry_Int_Tables_number   1
_chemical_formula_structural   LaCoSbPbO6
_chemical_formula_sum   'La4 Co4 Sb4 Pb4 O24'
_cell_volume   535.25015132
_cell_formula_units_Z   4
loop_
 _symmetry_equiv_pos_site_id
 _symmetry_equiv_pos_as_xyz
  1  'x, y, z'
loop_
 _atom_site_type_symbol
 _atom_site_label
 _atom_site_symmetry_multiplicity
 _atom_site_fract_x
 _atom_site_fract_y
 _atom_site_fract_z
 _atom_site_occupancy
  La  La0  1  0.09608700  0.64107900  0.75181800  1
  La  La1  1  0.59606300  0.14099800  0.75180600  1
  La  La2  1  0.39095200  0.34601500  0.25178100  1
  La  La3  1  0.89092600  0.84608800  0.25190600  1
  Co  Co0  1  0.50323900  0.99309100  0.50234800  1
  Co  Co1  1  0.24307100  0.25328500  0.00230900  1
  Co  Co2  1  0.00325300  0.49305000  0.50237900  1
  Co  Co3  1  0.74298700  0.75322200  0.00240800  1
  Sb  Sb0  1  0.25297600  0.74695600  0.99956100  1
  Sb  Sb1  1  0.75314800  0.24708300  0.99918700  1
  Sb  Sb2  1  0.49699300  0.50298400  0.49936000  1
  Sb  Sb3  1  0.99709800  0.00305100  0.49935100  1
  Pb  Pb0  1  0.38268400  0.86712000  0.25337500  1
  Pb  Pb1  1  0.88248100  0.36686500  0.25334300  1
  Pb  Pb2  1  0.11713500  0.13254300  0.75331500  1
  Pb  Pb3  1  0.61706900  0.63275000  0.75321300  1
  O  O0  1  0.57197700  0.58105500  0.25748000  1
  O  O1  1  0.07213100  0.08115300  0.25750500  1
  O  O2  1  0.33111300  0.82203400  0.75755100  1
  O  O3  1  0.83109200  0.32199900  0.75741700  1
  O  O4  1  0.92377300  0.89751100  0.74346400  1
  O  O5  1  0.42393900  0.39745000  0.74340200  1
  O  O6  1  0.14742100  0.67383800  0.24351000  1
  O  O7  1  0.64755300  0.17405000  0.24335300  1
  O  O8  1  0.56762500  0.76533200  0.45423900  1
  O  O9  1  0.06764300  0.26530100  0.45430600  1
  O  O10  1  0.01525300  0.31772600  0.95424300  1
  O  O11  1  0.51521100  0.81761200  0.95433400  1
  O  O12  1  0.95106400  0.74004100  0.53458500  1
  O  O13  1  0.45096800  0.23993900  0.53462000  1
  O  O14  1  0.49013700  0.20090700  0.03458800  1
  O  O15  1  0.99009800  0.70107800  0.03453000  1
  O  O16  1  0.26131100  0.99024400  0.46081600  1
  O  O17  1  0.76124500  0.49027400  0.46067200  1
  O  O18  1  0.74020700  0.51138600  0.96063900  1
  O  O19  1  0.24026000  0.01141700  0.96078000  1
  O  O20  1  0.23724300  0.52958700  0.54267500  1
  O  O21  1  0.73723900  0.02957200  0.54258200  1
  O  O22  1  0.77971000  0.98716600  0.04267200  1
  O  O23  1  0.27962400  0.48714900  0.04257800  1
loop_
_geom_bond_atom_site_label_1
_geom_bond_atom_site_label_2
_geom_bond_distance
_geom_bond_site_symmetry_2
La0 O2 2.433294 1_555
La0 O10 2.445382 1_555
La0 O20 2.460820 1_555
La0 O4 2.516116 1_455
La0 O18 2.659070 1_455
La0 O12 2.710855 1_455
La0 O15 2.827752 1_456
La0 O16 2.882648 1_555
La1 O3 2.432829 1_555
La1 O11 2.445850 1_545
La1 O21 2.461102 1_555
La1 O5 2.515318 1_555
La1 O19 2.658793 1_555
La1 O13 2.710908 1_555
La1 O14 2.828028 1_556
La1 O17 2.883687 1_555
La2 O0 2.433728 1_555
La2 O9 2.445526 1_555
La2 O23 2.459428 1_555
La2 O7 2.515312 1_555
La2 O16 2.658799 1_545
La2 O14 2.711962 1_555
La2 O13 2.828261 1_555
La2 O18 2.883844 1_554
La3 O1 2.434194 1_665
La3 O8 2.444928 1_555
La3 O22 2.458966 1_555
La3 O6 2.515969 1_655
La3 O17 2.658622 1_555
La3 O15 2.712901 1_555
La3 O12 2.827370 1_555
La3 O19 2.884130 1_664
Co0 O8 2.113633 1_555
Co0 O2 2.126142 1_555
Co0 O21 2.137290 1_565
Co0 O7 2.140906 1_565
Co0 O16 2.168785 1_555
Co0 O13 2.177641 1_565
Co1 O10 2.113202 1_554
Co1 O1 2.125946 1_555
Co1 O23 2.137238 1_555
Co1 O5 2.140170 1_554
Co1 O19 2.169029 1_554
Co1 O14 2.178788 1_555
Co2 O9 2.113388 1_555
Co2 O3 2.125108 1_455
Co2 O20 2.137677 1_555
Co2 O6 2.139700 1_555
Co2 O17 2.170356 1_455
Co2 O12 2.178399 1_455
Co3 O11 2.112841 1_554
Co3 O0 2.125280 1_555
Co3 O22 2.138121 1_555
Co3 O4 2.140350 1_554
Co3 O18 2.170093 1_554
Co3 O15 2.178185 1_555
O0 Sb2 2.023172 1_555
O1 Sb3 2.022741 1_455
O2 Sb0 2.024157 1_555
O3 Sb1 2.022441 1_555
O4 Sb3 2.019742 1_565
O4 Pb2 2.520272 1_665
O5 Sb2 2.019539 1_555
O5 Pb3 2.520517 1_555
O6 Sb0 2.018705 1_554
O6 Pb0 2.521232 1_555
O7 Sb1 2.020770 1_554
O7 Pb1 2.517484 1_555
O8 Sb2 2.018309 1_555
O9 Sb3 2.017655 1_455
O10 Sb1 2.016522 1_455
O11 Sb0 2.016654 1_555
O12 Sb3 2.026855 1_565
O12 Pb3 2.543519 1_555
O13 Sb2 2.027042 1_555
O13 Pb2 2.542747 1_555
O14 Sb1 2.025916 1_554
O14 Pb0 2.542676 1_545
O15 Sb0 2.026019 1_654
O15 Pb1 2.545218 1_555
O16 Sb3 2.035114 1_465
O16 Pb0 2.500437 1_555
O17 Sb2 2.034983 1_555
O17 Pb1 2.501162 1_555
O18 Sb1 2.036431 1_555
O18 Pb3 2.499487 1_555
O19 Sb0 2.036929 1_545
O19 Pb2 2.499604 1_555
O20 Sb2 2.009807 1_555
O21 Sb3 2.010667 1_555
O22 Sb1 2.011178 1_564
O23 Sb0 2.011248 1_554
