# generated using pymatgen
data_Cs2W(OF2)2
_symmetry_space_group_name_H-M   'P 1'
_cell_length_a   6.34259406
_cell_length_b   6.34259406
_cell_length_c   4.97026251
_cell_angle_alpha   88.79444117
_cell_angle_beta   88.79444117
_cell_angle_gamma   58.61537653
_symmetry_Int_Tables_number   1
_chemical_formula_structural   Cs2W(OF2)2
_chemical_formula_sum   'Cs2 W1 O2 F4'
_cell_volume   170.64250080
_cell_formula_units_Z   1
loop_
 _symmetry_equiv_pos_site_id
 _symmetry_equiv_pos_as_xyz
  1  'x, y, z'
loop_
 _atom_site_type_symbol
 _atom_site_label
 _atom_site_symmetry_multiplicity
 _atom_site_fract_x
 _atom_site_fract_y
 _atom_site_fract_z
 _atom_site_occupancy
  Cs  Cs0  1  0.32499676  0.32499676  0.30397971  1
  Cs  Cs1  1  0.67500324  0.67500324  0.69602029  1
  W  W0  1  0.00000000  -0.00000000  -0.00000000  1
  O  O0  1  0.14120255  0.14120255  0.80570216  1
  O  O1  1  0.85879745  0.85879745  0.19429784  1
  F  F0  1  0.71067844  0.15968654  0.77377461  1
  F  F1  1  0.15968654  0.71067844  0.77377461  1
  F  F2  1  0.28932156  0.84031346  0.22622539  1
  F  F3  1  0.84031346  0.28932156  0.22622539  1
loop_
_geom_bond_atom_site_label_1
_geom_bond_atom_site_label_2
_geom_bond_distance
_geom_bond_site_symmetry_2
Cs0 F1 3.162510 1_555
Cs0 F0 3.162510 1_555
Cs0 F3 3.172304 1_555
Cs0 F2 3.172304 1_555
Cs0 O1 3.172740 1_545
Cs0 O1 3.172740 1_455
Cs0 O0 3.179171 1_555
Cs0 F3 3.229415 1_455
Cs0 F2 3.229415 1_545
Cs0 O0 3.241857 1_554
Cs0 F0 3.346863 1_554
Cs0 F1 3.346863 1_554
Cs1 F2 3.162510 1_555
Cs1 F3 3.162510 1_555
Cs1 F0 3.172304 1_555
Cs1 F1 3.172304 1_555
Cs1 O0 3.172740 1_565
Cs1 O0 3.172740 1_655
Cs1 O1 3.179171 1_555
Cs1 F0 3.229415 1_565
Cs1 F1 3.229415 1_655
Cs1 O1 3.241857 1_556
Cs1 F2 3.346863 1_556
Cs1 F3 3.346863 1_556
O0 W0 1.816423 1_556
O1 W0 1.816423 1_665
F0 W0 1.939218 1_656
F1 W0 1.939218 1_566
F2 W0 1.939218 1_565
F3 W0 1.939218 1_655
