# generated using pymatgen
data_BaTiFe2(SiO5)2
_symmetry_space_group_name_H-M   'P 1'
_cell_length_a   6.95390100
_cell_length_b   5.36416800
_cell_length_c   11.39392291
_cell_angle_alpha   85.49697292
_cell_angle_beta   90.00000000
_cell_angle_gamma   90.00000000
_symmetry_Int_Tables_number   1
_chemical_formula_structural   BaTiFe2(SiO5)2
_chemical_formula_sum   'Ba2 Ti2 Fe4 Si4 O20'
_cell_volume   423.70295421
_cell_formula_units_Z   2
loop_
 _symmetry_equiv_pos_site_id
 _symmetry_equiv_pos_as_xyz
  1  'x, y, z'
loop_
 _atom_site_type_symbol
 _atom_site_label
 _atom_site_symmetry_multiplicity
 _atom_site_fract_x
 _atom_site_fract_y
 _atom_site_fract_z
 _atom_site_occupancy
  Ba  Ba0  1  0.75000000  0.22456200  0.56485700  1
  Ba  Ba1  1  0.25000000  0.77543800  0.43514300  1
  Ti  Ti0  1  0.25000000  0.22044200  0.66011100  1
  Ti  Ti1  1  0.75000000  0.77955800  0.33988900  1
  Fe  Fe0  1  0.50000000  0.00000000  0.00000000  1
  Fe  Fe1  1  0.00000000  0.00000000  0.00000000  1
  Fe  Fe2  1  0.25000000  0.53015800  0.98165400  1
  Fe  Fe3  1  0.75000000  0.46984200  0.01834600  1
  Si  Si0  1  0.98032200  0.70594400  0.74997600  1
  Si  Si1  1  0.48032200  0.29405600  0.25002400  1
  Si  Si2  1  0.01967800  0.29405600  0.25002400  1
  Si  Si3  1  0.51967800  0.70594400  0.74997600  1
  O  O0  1  0.02885900  0.69975400  0.89356400  1
  O  O1  1  0.52885900  0.30024600  0.10643600  1
  O  O2  1  0.97114100  0.30024600  0.10643600  1
  O  O3  1  0.47114100  0.69975400  0.89356400  1
  O  O4  1  0.25000000  0.19712200  0.93428600  1
  O  O5  1  0.75000000  0.80287800  0.06571400  1
  O  O6  1  0.05797500  0.95412100  0.67498100  1
  O  O7  1  0.55797500  0.04587900  0.32501900  1
  O  O8  1  0.94202500  0.04587900  0.32501900  1
  O  O9  1  0.44202500  0.95412100  0.67498100  1
  O  O10  1  0.04808900  0.45466900  0.69342900  1
  O  O11  1  0.54808900  0.54533100  0.30657100  1
  O  O12  1  0.95191100  0.54533100  0.30657100  1
  O  O13  1  0.45191100  0.45466900  0.69342900  1
  O  O14  1  0.75000000  0.72612300  0.74104000  1
  O  O15  1  0.25000000  0.27387700  0.25896000  1
  O  O16  1  0.75000000  0.19502400  0.92218000  1
  O  O17  1  0.25000000  0.80497600  0.07782000  1
  O  O18  1  0.25000000  0.26636200  0.50865300  1
  O  O19  1  0.75000000  0.73363800  0.49134700  1
loop_
_geom_bond_atom_site_label_1
_geom_bond_atom_site_label_2
_geom_bond_distance
_geom_bond_site_symmetry_2
Ba0 O19 2.792754 1_555
Ba0 O6 2.824825 1_645
Ba0 O9 2.824825 1_545
Ba0 O19 2.825358 1_545
Ba0 O13 2.872350 1_555
Ba0 O10 2.872350 1_655
Ba1 O18 2.792754 1_555
Ba1 O7 2.824825 1_565
Ba1 O8 2.824825 1_465
Ba1 O18 2.825358 1_565
Ba1 O11 2.872350 1_555
Ba1 O12 2.872350 1_455
Fe0 O1 2.100381 1_555
Fe0 O3 2.100381 1_544
Fe0 O5 2.139317 1_545
Fe0 O4 2.139317 1_554
Fe0 O16 2.181112 1_554
Fe0 O17 2.181112 1_545
Fe1 O2 2.100381 1_455
Fe1 O0 2.100381 1_544
Fe1 O5 2.139317 1_445
Fe1 O4 2.139317 1_554
Fe1 O16 2.181112 1_454
Fe1 O17 2.181112 1_545
Fe2 O17 1.904570 1_556
Fe2 O4 1.906338 1_555
Fe2 O3 2.014064 1_555
Fe2 O0 2.014064 1_555
Fe2 O1 2.650923 1_556
Fe2 O2 2.650923 1_456
Fe3 O16 1.904570 1_554
Fe3 O5 1.906338 1_555
Fe3 O2 2.014064 1_555
Fe3 O1 2.014064 1_555
Fe3 O0 2.650923 1_654
Fe3 O3 2.650923 1_554
O0 Si0 1.668259 1_455
O1 Si1 1.668259 1_555
O2 Si2 1.668259 1_655
O3 Si3 1.668259 1_555
O6 Si0 1.617213 1_455
O6 Ti0 1.953115 1_565
O7 Si1 1.617213 1_555
O7 Ti1 1.953115 1_545
O8 Si2 1.617213 1_655
O8 Ti1 1.953115 1_545
O9 Si3 1.617213 1_555
O9 Ti0 1.953115 1_565
O10 Si0 1.609451 1_455
O10 Ti0 1.941402 1_555
O11 Si1 1.609451 1_555
O11 Ti1 1.941402 1_555
O12 Si2 1.609451 1_655
O12 Ti1 1.941402 1_555
O13 Si3 1.609451 1_555
O13 Ti0 1.941402 1_555
O14 Si0 1.607978 1_555
O14 Si3 1.607978 1_555
O15 Si1 1.607978 1_555
O15 Si2 1.607978 1_555
O18 Ti0 1.723940 1_555
O19 Ti1 1.723940 1_555
