# generated using pymatgen
data_CaAl9Co2
_symmetry_space_group_name_H-M   'P 1'
_cell_length_a   15.64157806
_cell_length_b   15.64157480
_cell_length_c   7.68985038
_cell_angle_alpha   90.00000000
_cell_angle_beta   90.00000000
_cell_angle_gamma   119.99999442
_symmetry_Int_Tables_number   1
_chemical_formula_structural   CaAl9Co2
_chemical_formula_sum   'Ca8 Al72 Co16'
_cell_volume   1629.33200385
_cell_formula_units_Z   8
loop_
 _symmetry_equiv_pos_site_id
 _symmetry_equiv_pos_as_xyz
  1  'x, y, z'
loop_
 _atom_site_type_symbol
 _atom_site_label
 _atom_site_symmetry_multiplicity
 _atom_site_fract_x
 _atom_site_fract_y
 _atom_site_fract_z
 _atom_site_occupancy
  Ca  Ca0_0  1  0.00000000  0.00000000  0.00000000  1
  Ca  Ca0_1  1  0.00000000  0.00000000  0.50000000  1
  Ca  Ca0_2  1  0.00000000  0.50000000  0.00000000  1
  Ca  Ca0_3  1  0.00000000  0.50000000  0.50000000  1
  Ca  Ca0_4  1  0.50000000  0.00000000  0.00000000  1
  Ca  Ca0_5  1  0.50000000  0.00000000  0.50000000  1
  Ca  Ca0_6  1  0.50000000  0.50000000  0.00000000  1
  Ca  Ca0_7  1  0.50000000  0.50000000  0.50000000  1
  Al  Al0_0  1  0.25000000  0.00000000  0.00000000  1
  Al  Al0_1  1  0.25000000  0.00000000  0.50000000  1
  Al  Al0_2  1  0.25000000  0.50000000  0.00000000  1
  Al  Al0_3  1  0.25000000  0.50000000  0.50000000  1
  Al  Al0_4  1  0.75000000  0.00000000  0.00000000  1
  Al  Al0_5  1  0.75000000  0.00000000  0.50000000  1
  Al  Al0_6  1  0.75000000  0.50000000  0.00000000  1
  Al  Al0_7  1  0.75000000  0.50000000  0.50000000  1
  Al  Al1_0  1  0.25000000  0.25000000  0.00000000  1
  Al  Al1_1  1  0.25000000  0.25000000  0.50000000  1
  Al  Al1_2  1  0.25000000  0.75000000  0.00000000  1
  Al  Al1_3  1  0.25000000  0.75000000  0.50000000  1
  Al  Al1_4  1  0.75000000  0.25000000  0.00000000  1
  Al  Al1_5  1  0.75000000  0.25000000  0.50000000  1
  Al  Al1_6  1  0.75000000  0.75000000  0.00000000  1
  Al  Al1_7  1  0.75000000  0.75000000  0.50000000  1
  Al  Al2_0  1  0.00000000  0.25000000  0.00000000  1
  Al  Al2_1  1  0.00000000  0.25000000  0.50000000  1
  Al  Al2_2  1  0.00000000  0.75000000  0.00000000  1
  Al  Al2_3  1  0.00000000  0.75000000  0.50000000  1
  Al  Al2_4  1  0.50000000  0.25000000  0.00000000  1
  Al  Al2_5  1  0.50000000  0.25000000  0.50000000  1
  Al  Al2_6  1  0.50000000  0.75000000  0.00000000  1
  Al  Al2_7  1  0.50000000  0.75000000  0.50000000  1
  Al  Al3_0  1  0.10670720  0.21341291  0.25000000  1
  Al  Al3_1  1  0.10670720  0.21341291  0.75000000  1
  Al  Al3_2  1  0.10670720  0.71341291  0.25000000  1
  Al  Al3_3  1  0.10670720  0.71341291  0.75000000  1
  Al  Al3_4  1  0.60670720  0.21341291  0.25000000  1
  Al  Al3_5  1  0.60670720  0.21341291  0.75000000  1
  Al  Al3_6  1  0.60670720  0.71341291  0.25000000  1
  Al  Al3_7  1  0.60670720  0.71341291  0.75000000  1
  Al  Al4_0  1  0.39329280  0.10670720  0.25000000  1
  Al  Al4_1  1  0.39329280  0.10670720  0.75000000  1
  Al  Al4_2  1  0.39329280  0.60670720  0.25000000  1
  Al  Al4_3  1  0.39329280  0.60670720  0.75000000  1
  Al  Al4_4  1  0.89329279  0.10670720  0.25000000  1
  Al  Al4_5  1  0.89329279  0.10670720  0.75000000  1
  Al  Al4_6  1  0.89329280  0.60670720  0.25000000  1
  Al  Al4_7  1  0.89329280  0.60670720  0.75000000  1
  Al  Al5_0  1  0.21341291  0.10670720  0.25000000  1
  Al  Al5_1  1  0.21341291  0.10670720  0.75000000  1
  Al  Al5_2  1  0.21341291  0.60670720  0.25000000  1
  Al  Al5_3  1  0.21341291  0.60670720  0.75000000  1
  Al  Al5_4  1  0.71341291  0.10670720  0.25000000  1
  Al  Al5_5  1  0.71341291  0.10670720  0.75000000  1
  Al  Al5_6  1  0.71341291  0.60670720  0.25000000  1
  Al  Al5_7  1  0.71341291  0.60670720  0.75000000  1
  Al  Al6_0  1  0.28658709  0.39329279  0.25000000  1
  Al  Al6_1  1  0.28658709  0.39329279  0.75000000  1
  Al  Al6_2  1  0.28658709  0.89329279  0.25000000  1
  Al  Al6_3  1  0.28658709  0.89329279  0.75000000  1
  Al  Al6_4  1  0.78658709  0.39329280  0.25000000  1
  Al  Al6_5  1  0.78658709  0.39329280  0.75000000  1
  Al  Al6_6  1  0.78658709  0.89329280  0.25000000  1
  Al  Al6_7  1  0.78658709  0.89329280  0.75000000  1
  Al  Al7_0  1  0.10670720  0.39329280  0.25000000  1
  Al  Al7_1  1  0.10670720  0.39329280  0.75000000  1
  Al  Al7_2  1  0.10670720  0.89329279  0.25000000  1
  Al  Al7_3  1  0.10670720  0.89329279  0.75000000  1
  Al  Al7_4  1  0.60670720  0.39329280  0.25000000  1
  Al  Al7_5  1  0.60670720  0.39329280  0.75000000  1
  Al  Al7_6  1  0.60670720  0.89329280  0.25000000  1
  Al  Al7_7  1  0.60670720  0.89329280  0.75000000  1
  Al  Al8_0  1  0.39329280  0.28658709  0.25000000  1
  Al  Al8_1  1  0.39329280  0.28658709  0.75000000  1
  Al  Al8_2  1  0.39329280  0.78658709  0.25000000  1
  Al  Al8_3  1  0.39329280  0.78658709  0.75000000  1
  Al  Al8_4  1  0.89329280  0.28658709  0.25000000  1
  Al  Al8_5  1  0.89329280  0.28658709  0.75000000  1
  Al  Al8_6  1  0.89329279  0.78658709  0.25000000  1
  Al  Al8_7  1  0.89329279  0.78658709  0.75000000  1
  Co  Co0_0  1  0.16666650  0.33333350  0.00000000  1
  Co  Co0_1  1  0.16666650  0.33333350  0.50000000  1
  Co  Co0_2  1  0.16666650  0.83333350  0.00000000  1
  Co  Co0_3  1  0.16666650  0.83333350  0.50000000  1
  Co  Co0_4  1  0.66666650  0.33333350  0.00000000  1
  Co  Co0_5  1  0.66666650  0.33333350  0.50000000  1
  Co  Co0_6  1  0.66666650  0.83333350  0.00000000  1
  Co  Co0_7  1  0.66666650  0.83333350  0.50000000  1
  Co  Co1_0  1  0.33333350  0.16666650  0.00000000  1
  Co  Co1_1  1  0.33333350  0.16666650  0.50000000  1
  Co  Co1_2  1  0.33333350  0.66666650  0.00000000  1
  Co  Co1_3  1  0.33333350  0.66666650  0.50000000  1
  Co  Co1_4  1  0.83333350  0.16666650  0.00000000  1
  Co  Co1_5  1  0.83333350  0.16666650  0.50000000  1
  Co  Co1_6  1  0.83333350  0.66666650  0.00000000  1
  Co  Co1_7  1  0.83333350  0.66666650  0.50000000  1
loop_
_geom_bond_atom_site_label_1
_geom_bond_atom_site_label_2
_geom_bond_distance
_geom_bond_site_symmetry_2
Ca0_0 Ca0_1 3.844925 1_554
Ca0_0 Ca0_1 3.844925 1_555
Ca0_2 Ca0_3 3.844925 1_555
Ca0_2 Ca0_3 3.844925 1_554
Ca0_4 Ca0_5 3.844925 1_554
Ca0_4 Ca0_5 3.844925 1_555
Ca0_6 Ca0_7 3.844925 1_555
Ca0_6 Ca0_7 3.844925 1_554
Al0_0 Co1_0 2.257665 1_555
Al0_0 Co0_2 2.257665 1_545
Al0_0 Al4_1 2.786443 1_554
Al0_0 Al4_0 2.786443 1_555
Al0_0 Al7_3 2.786443 1_544
Al0_0 Al7_2 2.786443 1_545
Al0_0 Al5_1 2.786455 1_554
Al0_0 Al5_0 2.786455 1_555
Al0_0 Al6_3 2.786455 1_544
Al0_0 Al6_2 2.786455 1_545
Al0_1 Co1_1 2.257665 1_555
Al0_1 Co0_3 2.257665 1_545
Al0_1 Al4_1 2.786443 1_555
Al0_1 Al4_0 2.786443 1_555
Al0_1 Al7_3 2.786443 1_545
Al0_1 Al7_2 2.786443 1_545
Al0_1 Al5_0 2.786455 1_555
Al0_1 Al5_1 2.786455 1_555
Al0_1 Al6_3 2.786455 1_545
Al0_1 Al6_2 2.786455 1_545
Al0_2 Co1_2 2.257665 1_555
Al0_2 Co0_0 2.257665 1_555
Al0_2 Al7_1 2.786443 1_554
Al0_2 Al7_0 2.786443 1_555
Al0_2 Al4_3 2.786443 1_554
Al0_2 Al4_2 2.786443 1_555
Al0_2 Al6_1 2.786455 1_554
Al0_2 Al6_0 2.786455 1_555
Al0_2 Al5_3 2.786455 1_554
Al0_2 Al5_2 2.786455 1_555
Al0_3 Co0_1 2.257665 1_555
Al0_3 Co1_3 2.257665 1_555
Al0_3 Al7_1 2.786443 1_555
Al0_3 Al7_0 2.786443 1_555
Al0_3 Al4_2 2.786443 1_555
Al0_3 Al4_3 2.786443 1_555
Al0_3 Al6_1 2.786455 1_555
Al0_3 Al6_0 2.786455 1_555
Al0_3 Al5_2 2.786455 1_555
Al0_3 Al5_3 2.786455 1_555
Al0_4 Co1_4 2.257665 1_555
Al0_4 Co0_6 2.257665 1_545
Al0_4 Al4_5 2.786443 1_554
Al0_4 Al4_4 2.786443 1_555
Al0_4 Al7_6 2.786443 1_545
Al0_4 Al7_7 2.786443 1_544
Al0_4 Al6_6 2.786455 1_545
Al0_4 Al6_7 2.786455 1_544
Al0_4 Al5_5 2.786455 1_554
Al0_4 Al5_4 2.786455 1_555
Al0_5 Co1_5 2.257665 1_555
Al0_5 Co0_7 2.257665 1_545
Al0_5 Al4_5 2.786443 1_555
Al0_5 Al4_4 2.786443 1_555
Al0_5 Al7_6 2.786443 1_545
Al0_5 Al7_7 2.786443 1_545
Al0_5 Al6_7 2.786455 1_545
Al0_5 Al6_6 2.786455 1_545
Al0_5 Al5_5 2.786455 1_555
Al0_5 Al5_4 2.786455 1_555
Al0_6 Co0_4 2.257665 1_555
Al0_6 Co1_6 2.257665 1_555
Al0_6 Al7_4 2.786443 1_555
Al0_6 Al7_5 2.786443 1_554
Al0_6 Al4_6 2.786443 1_555
Al0_6 Al4_7 2.786443 1_554
Al0_6 Al6_5 2.786455 1_554
Al0_6 Al6_4 2.786455 1_555
Al0_6 Al5_7 2.786455 1_554
Al0_6 Al5_6 2.786455 1_555
Al0_7 Co1_7 2.257665 1_555
Al0_7 Co0_5 2.257665 1_555
Al0_7 Al7_4 2.786443 1_555
Al0_7 Al7_5 2.786443 1_555
Al0_7 Al4_6 2.786443 1_555
Al0_7 Al4_7 2.786443 1_555
Al0_7 Al6_5 2.786455 1_555
Al0_7 Al6_4 2.786455 1_555
Al0_7 Al5_7 2.786455 1_555
Al0_7 Al5_6 2.786455 1_555
Al1_0 Co0_0 2.257672 1_555
Al1_0 Co1_0 2.257672 1_555
Al1_0 Al5_0 2.786438 1_555
Al1_0 Al6_0 2.786438 1_555
Al1_0 Al6_1 2.786438 1_554
Al1_0 Al5_1 2.786438 1_554
Al1_0 Al3_1 2.786439 1_554
Al1_0 Al8_0 2.786439 1_555
Al1_0 Al8_1 2.786439 1_554
Al1_0 Al3_0 2.786439 1_555
Al1_1 Co0_1 2.257672 1_555
Al1_1 Co1_1 2.257672 1_555
Al1_1 Al5_0 2.786438 1_555
Al1_1 Al5_1 2.786438 1_555
Al1_1 Al6_1 2.786438 1_555
Al1_1 Al6_0 2.786438 1_555
Al1_1 Al8_0 2.786439 1_555
Al1_1 Al3_1 2.786439 1_555
Al1_1 Al8_1 2.786439 1_555
Al1_1 Al3_0 2.786439 1_555
Al1_2 Co1_2 2.257672 1_555
Al1_2 Co0_2 2.257672 1_555
Al1_2 Al5_2 2.786438 1_555
Al1_2 Al5_3 2.786438 1_554
Al1_2 Al6_2 2.786438 1_555
Al1_2 Al6_3 2.786438 1_554
Al1_2 Al3_2 2.786439 1_555
Al1_2 Al3_3 2.786439 1_554
Al1_2 Al8_2 2.786439 1_555
Al1_2 Al8_3 2.786439 1_554
Al1_3 Co1_3 2.257672 1_555
Al1_3 Co0_3 2.257672 1_555
Al1_3 Al5_2 2.786438 1_555
Al1_3 Al5_3 2.786438 1_555
Al1_3 Al6_2 2.786438 1_555
Al1_3 Al6_3 2.786438 1_555
Al1_3 Al3_3 2.786439 1_555
Al1_3 Al3_2 2.786439 1_555
Al1_3 Al8_2 2.786439 1_555
Al1_3 Al8_3 2.786439 1_555
Al1_4 Co0_4 2.257672 1_555
Al1_4 Co1_4 2.257672 1_555
Al1_4 Al6_5 2.786438 1_554
Al1_4 Al5_5 2.786438 1_554
Al1_4 Al5_4 2.786438 1_555
Al1_4 Al6_4 2.786438 1_555
Al1_4 Al3_4 2.786439 1_555
Al1_4 Al3_5 2.786439 1_554
Al1_4 Al8_4 2.786439 1_555
Al1_4 Al8_5 2.786439 1_554
Al1_5 Co0_5 2.257672 1_555
Al1_5 Co1_5 2.257672 1_555
Al1_5 Al5_5 2.786438 1_555
Al1_5 Al5_4 2.786438 1_555
Al1_5 Al6_4 2.786438 1_555
Al1_5 Al6_5 2.786438 1_555
Al1_5 Al3_4 2.786439 1_555
Al1_5 Al3_5 2.786439 1_555
Al1_5 Al8_4 2.786439 1_555
Al1_5 Al8_5 2.786439 1_555
Al1_6 Co0_6 2.257672 1_555
Al1_6 Co1_6 2.257672 1_555
Al1_6 Al5_7 2.786438 1_554
Al1_6 Al5_6 2.786438 1_555
Al1_6 Al6_7 2.786438 1_554
Al1_6 Al6_6 2.786438 1_555
Al1_6 Al8_6 2.786439 1_555
Al1_6 Al8_7 2.786439 1_554
Al1_6 Al3_7 2.786439 1_554
Al1_6 Al3_6 2.786439 1_555
Al1_7 Co1_7 2.257672 1_555
Al1_7 Co0_7 2.257672 1_555
Al1_7 Al5_7 2.786438 1_555
Al1_7 Al5_6 2.786438 1_555
Al1_7 Al6_7 2.786438 1_555
Al1_7 Al6_6 2.786438 1_555
Al1_7 Al8_6 2.786439 1_555
Al1_7 Al8_7 2.786439 1_555
Al1_7 Al3_6 2.786439 1_555
Al1_7 Al3_7 2.786439 1_555
Al2_0 Co0_0 2.257665 1_555
Al2_0 Co1_4 2.257665 1_455
Al2_0 Al4_5 2.786443 1_454
Al2_0 Al4_4 2.786443 1_455
Al2_0 Al7_0 2.786443 1_555
Al2_0 Al7_1 2.786443 1_554
Al2_0 Al8_5 2.786455 1_454
Al2_0 Al8_4 2.786455 1_455
Al2_0 Al3_0 2.786455 1_555
Al2_0 Al3_1 2.786455 1_554
Al2_1 Co0_1 2.257665 1_555
Al2_1 Co1_5 2.257665 1_455
Al2_1 Al4_5 2.786443 1_455
Al2_1 Al4_4 2.786443 1_455
Al2_1 Al7_0 2.786443 1_555
Al2_1 Al7_1 2.786443 1_555
Al2_1 Al8_5 2.786455 1_455
Al2_1 Al8_4 2.786455 1_455
Al2_1 Al3_1 2.786455 1_555
Al2_1 Al3_0 2.786455 1_555
Al2_2 Co0_2 2.257665 1_555
Al2_2 Co1_6 2.257665 1_455
Al2_2 Al7_2 2.786443 1_555
Al2_2 Al7_3 2.786443 1_554
Al2_2 Al4_6 2.786443 1_455
Al2_2 Al4_7 2.786443 1_454
Al2_2 Al8_6 2.786455 1_455
Al2_2 Al3_2 2.786455 1_555
Al2_2 Al8_7 2.786455 1_454
Al2_2 Al3_3 2.786455 1_554
Al2_3 Co0_3 2.257665 1_555
Al2_3 Co1_7 2.257665 1_455
Al2_3 Al7_2 2.786443 1_555
Al2_3 Al7_3 2.786443 1_555
Al2_3 Al4_6 2.786443 1_455
Al2_3 Al4_7 2.786443 1_455
Al2_3 Al8_6 2.786455 1_455
Al2_3 Al3_3 2.786455 1_555
Al2_3 Al8_7 2.786455 1_455
Al2_3 Al3_2 2.786455 1_555
Al2_4 Co1_0 2.257665 1_555
Al2_4 Co0_4 2.257665 1_555
Al2_4 Al4_1 2.786443 1_554
Al2_4 Al7_4 2.786443 1_555
Al2_4 Al7_5 2.786443 1_554
Al2_4 Al4_0 2.786443 1_555
Al2_4 Al8_0 2.786455 1_555
Al2_4 Al8_1 2.786455 1_554
Al2_4 Al3_4 2.786455 1_555
Al2_4 Al3_5 2.786455 1_554
Al2_5 Co1_1 2.257665 1_555
Al2_5 Co0_5 2.257665 1_555
Al2_5 Al7_4 2.786443 1_555
Al2_5 Al4_1 2.786443 1_555
Al2_5 Al7_5 2.786443 1_555
Al2_5 Al4_0 2.786443 1_555
Al2_5 Al8_0 2.786455 1_555
Al2_5 Al8_1 2.786455 1_555
Al2_5 Al3_4 2.786455 1_555
Al2_5 Al3_5 2.786455 1_555
Al2_6 Co0_6 2.257665 1_555
Al2_6 Co1_2 2.257665 1_555
Al2_6 Al4_2 2.786443 1_555
Al2_6 Al7_6 2.786443 1_555
Al2_6 Al7_7 2.786443 1_554
Al2_6 Al4_3 2.786443 1_554
Al2_6 Al8_2 2.786455 1_555
Al2_6 Al8_3 2.786455 1_554
Al2_6 Al3_7 2.786455 1_554
Al2_6 Al3_6 2.786455 1_555
Al2_7 Co0_7 2.257665 1_555
Al2_7 Co1_3 2.257665 1_555
Al2_7 Al4_3 2.786443 1_555
Al2_7 Al4_2 2.786443 1_555
Al2_7 Al7_6 2.786443 1_555
Al2_7 Al7_7 2.786443 1_555
Al2_7 Al8_3 2.786455 1_555
Al2_7 Al8_2 2.786455 1_555
Al2_7 Al3_7 2.786455 1_555
Al2_7 Al3_6 2.786455 1_555
Al3_0 Co0_0 2.516880 1_555
Al3_0 Co0_1 2.516880 1_555
Al3_0 Al7_0 2.813605 1_555
Al3_0 Al6_0 2.813605 1_555
Al3_0 Al5_0 2.890871 1_555
Al3_0 Al4_4 2.890913 1_455
Al3_0 Ca0_0 3.471760 1_555
Al3_0 Ca0_1 3.471760 1_555
Al3_1 Co0_0 2.516880 1_556
Al3_1 Co0_1 2.516880 1_555
Al3_1 Al7_1 2.813605 1_555
Al3_1 Al6_1 2.813605 1_555
Al3_1 Al5_1 2.890871 1_555
Al3_1 Al4_5 2.890913 1_455
Al3_1 Ca0_1 3.471760 1_555
Al3_1 Ca0_0 3.471760 1_556
Al3_2 Co0_2 2.516880 1_555
Al3_2 Co0_3 2.516880 1_555
Al3_2 Al7_2 2.813605 1_555
Al3_2 Al6_2 2.813605 1_555
Al3_2 Al5_2 2.890871 1_555
Al3_2 Al4_6 2.890913 1_455
Al3_2 Ca0_2 3.471760 1_555
Al3_2 Ca0_3 3.471760 1_555
Al3_3 Co0_3 2.516880 1_555
Al3_3 Co0_2 2.516880 1_556
Al3_3 Al7_3 2.813605 1_555
Al3_3 Al6_3 2.813605 1_555
Al3_3 Al5_3 2.890871 1_555
Al3_3 Al4_7 2.890913 1_455
Al3_3 Ca0_2 3.471760 1_556
Al3_3 Ca0_3 3.471760 1_555
Al3_4 Co0_4 2.516880 1_555
Al3_4 Co0_5 2.516880 1_555
Al3_4 Al7_4 2.813605 1_555
Al3_4 Al6_4 2.813605 1_555
Al3_4 Al5_4 2.890871 1_555
Al3_4 Al4_0 2.890913 1_555
Al3_4 Ca0_4 3.471760 1_555
Al3_4 Ca0_5 3.471760 1_555
Al3_5 Co0_4 2.516880 1_556
Al3_5 Co0_5 2.516880 1_555
Al3_5 Al7_5 2.813605 1_555
Al3_5 Al6_5 2.813605 1_555
Al3_5 Al5_5 2.890871 1_555
Al3_5 Al4_1 2.890913 1_555
Al3_5 Ca0_4 3.471760 1_556
Al3_5 Ca0_5 3.471760 1_555
Al3_6 Co0_7 2.516880 1_555
Al3_6 Co0_6 2.516880 1_555
Al3_6 Al7_6 2.813605 1_555
Al3_6 Al6_6 2.813605 1_555
Al3_6 Al5_6 2.890871 1_555
Al3_6 Al4_2 2.890913 1_555
Al3_6 Ca0_7 3.471760 1_555
Al3_6 Ca0_6 3.471760 1_555
Al3_7 Co0_7 2.516880 1_555
Al3_7 Co0_6 2.516880 1_556
Al3_7 Al7_7 2.813605 1_555
Al3_7 Al6_7 2.813605 1_555
Al3_7 Al5_7 2.890871 1_555
Al3_7 Al4_3 2.890913 1_555
Al3_7 Ca0_7 3.471760 1_555
Al3_7 Ca0_6 3.471760 1_556
Al4_0 Co1_1 2.516862 1_555
Al4_0 Co1_0 2.516862 1_555
Al4_0 Al8_0 2.813605 1_555
Al4_0 Al5_0 2.813605 1_555
Al4_0 Al6_2 2.890912 1_545
Al4_0 Ca0_4 3.471777 1_555
Al4_0 Ca0_5 3.471777 1_555
Al4_1 Co1_1 2.516862 1_555
Al4_1 Co1_0 2.516862 1_556
Al4_1 Al8_1 2.813605 1_555
Al4_1 Al5_1 2.813605 1_555
Al4_1 Al6_3 2.890912 1_545
Al4_1 Ca0_4 3.471777 1_556
Al4_1 Ca0_5 3.471777 1_555
Al4_2 Co1_2 2.516862 1_555
Al4_2 Co1_3 2.516862 1_555
Al4_2 Al8_2 2.813605 1_555
Al4_2 Al5_2 2.813605 1_555
Al4_2 Al6_0 2.890912 1_555
Al4_2 Ca0_6 3.471777 1_555
Al4_2 Ca0_7 3.471777 1_555
Al4_3 Co1_2 2.516862 1_556
Al4_3 Co1_3 2.516862 1_555
Al4_3 Al8_3 2.813605 1_555
Al4_3 Al5_3 2.813605 1_555
Al4_3 Al6_1 2.890912 1_555
Al4_3 Ca0_6 3.471777 1_556
Al4_3 Ca0_7 3.471777 1_555
Al4_4 Co1_4 2.516862 1_555
Al4_4 Co1_5 2.516862 1_555
Al4_4 Al8_4 2.813605 1_555
Al4_4 Al5_4 2.813605 1_555
Al4_4 Al6_6 2.890912 1_545
Al4_4 Ca0_0 3.471777 1_655
Al4_4 Ca0_1 3.471777 1_655
Al4_5 Co1_4 2.516862 1_556
Al4_5 Co1_5 2.516862 1_555
Al4_5 Al8_5 2.813605 1_555
Al4_5 Al5_5 2.813605 1_555
Al4_5 Al6_7 2.890912 1_545
Al4_5 Ca0_0 3.471777 1_656
Al4_5 Ca0_1 3.471777 1_655
Al4_6 Co1_6 2.516862 1_555
Al4_6 Co1_7 2.516862 1_555
Al4_6 Al8_6 2.813605 1_555
Al4_6 Al5_6 2.813605 1_555
Al4_6 Al6_4 2.890912 1_555
Al4_6 Ca0_2 3.471777 1_655
Al4_6 Ca0_3 3.471777 1_655
Al4_7 Co1_6 2.516862 1_556
Al4_7 Co1_7 2.516862 1_555
Al4_7 Al8_7 2.813605 1_555
Al4_7 Al5_7 2.813605 1_555
Al4_7 Al6_5 2.890912 1_555
Al4_7 Ca0_3 3.471777 1_655
Al4_7 Ca0_2 3.471777 1_656
Al5_0 Co1_1 2.516880 1_555
Al5_0 Co1_0 2.516880 1_555
Al5_0 Al8_0 2.813605 1_555
Al5_0 Al7_2 2.890912 1_545
Al5_0 Ca0_0 3.471760 1_555
Al5_0 Ca0_1 3.471760 1_555
Al5_1 Co1_1 2.516880 1_555
Al5_1 Co1_0 2.516880 1_556
Al5_1 Al8_1 2.813605 1_555
Al5_1 Al7_3 2.890912 1_545
Al5_1 Ca0_1 3.471760 1_555
Al5_1 Ca0_0 3.471760 1_556
Al5_2 Co1_3 2.516880 1_555
Al5_2 Co1_2 2.516880 1_555
Al5_2 Al8_2 2.813605 1_555
Al5_2 Al7_0 2.890912 1_555
Al5_2 Ca0_2 3.471760 1_555
Al5_2 Ca0_3 3.471760 1_555
Al5_3 Co1_3 2.516880 1_555
Al5_3 Co1_2 2.516880 1_556
Al5_3 Al8_3 2.813605 1_555
Al5_3 Al7_1 2.890912 1_555
Al5_3 Ca0_3 3.471760 1_555
Al5_3 Ca0_2 3.471760 1_556
Al5_4 Co1_4 2.516880 1_555
Al5_4 Co1_5 2.516880 1_555
Al5_4 Al8_4 2.813605 1_555
Al5_4 Al7_6 2.890912 1_545
Al5_4 Ca0_5 3.471760 1_555
Al5_4 Ca0_4 3.471760 1_555
Al5_5 Co1_4 2.516880 1_556
Al5_5 Co1_5 2.516880 1_555
Al5_5 Al8_5 2.813605 1_555
Al5_5 Al7_7 2.890912 1_545
Al5_5 Ca0_5 3.471760 1_555
Al5_5 Ca0_4 3.471760 1_556
Al5_6 Co1_6 2.516880 1_555
Al5_6 Co1_7 2.516880 1_555
Al5_6 Al8_6 2.813605 1_555
Al5_6 Al7_4 2.890912 1_555
Al5_6 Ca0_7 3.471760 1_555
Al5_6 Ca0_6 3.471760 1_555
Al5_7 Co1_6 2.516880 1_556
Al5_7 Co1_7 2.516880 1_555
Al5_7 Al8_7 2.813605 1_555
Al5_7 Al7_5 2.890912 1_555
Al5_7 Ca0_7 3.471760 1_555
Al5_7 Ca0_6 3.471760 1_556
Al6_0 Co0_1 2.516880 1_555
Al6_0 Co0_0 2.516880 1_555
Al6_0 Al7_0 2.813605 1_555
Al6_0 Al8_0 2.890871 1_555
Al6_0 Ca0_6 3.471760 1_555
Al6_0 Ca0_7 3.471760 1_555
Al6_1 Co0_1 2.516880 1_555
Al6_1 Co0_0 2.516880 1_556
Al6_1 Al7_1 2.813605 1_555
Al6_1 Al8_1 2.890871 1_555
Al6_1 Ca0_6 3.471760 1_556
Al6_1 Ca0_7 3.471760 1_555
Al6_2 Co0_2 2.516880 1_555
Al6_2 Co0_3 2.516880 1_555
Al6_2 Al7_2 2.813605 1_555
Al6_2 Al8_2 2.890871 1_555
Al6_2 Ca0_4 3.471760 1_565
Al6_2 Ca0_5 3.471760 1_565
Al6_3 Co0_2 2.516880 1_556
Al6_3 Co0_3 2.516880 1_555
Al6_3 Al7_3 2.813605 1_555
Al6_3 Al8_3 2.890871 1_555
Al6_3 Ca0_5 3.471760 1_565
Al6_3 Ca0_4 3.471760 1_566
Al6_4 Co0_4 2.516880 1_555
Al6_4 Co0_5 2.516880 1_555
Al6_4 Al7_4 2.813605 1_555
Al6_4 Al8_4 2.890871 1_555
Al6_4 Ca0_2 3.471760 1_655
Al6_4 Ca0_3 3.471760 1_655
Al6_5 Co0_4 2.516880 1_556
Al6_5 Co0_5 2.516880 1_555
Al6_5 Al7_5 2.813605 1_555
Al6_5 Al8_5 2.890871 1_555
Al6_5 Ca0_3 3.471760 1_655
Al6_5 Ca0_2 3.471760 1_656
Al6_6 Co0_7 2.516880 1_555
Al6_6 Co0_6 2.516880 1_555
Al6_6 Al7_6 2.813605 1_555
Al6_6 Al8_6 2.890871 1_555
Al6_6 Ca0_1 3.471760 1_665
Al6_6 Ca0_0 3.471760 1_665
Al6_7 Co0_7 2.516880 1_555
Al6_7 Co0_6 2.516880 1_556
Al6_7 Al7_7 2.813605 1_555
Al6_7 Al8_7 2.890871 1_555
Al6_7 Ca0_0 3.471760 1_666
Al6_7 Ca0_1 3.471760 1_665
Al7_0 Co0_1 2.516862 1_555
Al7_0 Co0_0 2.516862 1_555
Al7_0 Al8_4 2.890913 1_455
Al7_0 Ca0_3 3.471777 1_555
Al7_0 Ca0_2 3.471777 1_555
Al7_1 Co0_0 2.516862 1_556
Al7_1 Co0_1 2.516862 1_555
Al7_1 Al8_5 2.890913 1_455
Al7_1 Ca0_3 3.471777 1_555
Al7_1 Ca0_2 3.471777 1_556
Al7_2 Co0_2 2.516862 1_555
Al7_2 Co0_3 2.516862 1_555
Al7_2 Al8_6 2.890913 1_455
Al7_2 Ca0_1 3.471777 1_565
Al7_2 Ca0_0 3.471777 1_565
Al7_3 Co0_3 2.516862 1_555
Al7_3 Co0_2 2.516862 1_556
Al7_3 Al8_7 2.890913 1_455
Al7_3 Ca0_1 3.471777 1_565
Al7_3 Ca0_0 3.471777 1_566
Al7_4 Co0_4 2.516862 1_555
Al7_4 Co0_5 2.516862 1_555
Al7_4 Al8_0 2.890913 1_555
Al7_4 Ca0_6 3.471777 1_555
Al7_4 Ca0_7 3.471777 1_555
Al7_5 Co0_5 2.516862 1_555
Al7_5 Co0_4 2.516862 1_556
Al7_5 Al8_1 2.890913 1_555
Al7_5 Ca0_6 3.471777 1_556
Al7_5 Ca0_7 3.471777 1_555
Al7_6 Co0_7 2.516862 1_555
Al7_6 Co0_6 2.516862 1_555
Al7_6 Al8_2 2.890913 1_555
Al7_6 Ca0_5 3.471777 1_565
Al7_6 Ca0_4 3.471777 1_565
Al7_7 Co0_7 2.516862 1_555
Al7_7 Co0_6 2.516862 1_556
Al7_7 Al8_3 2.890913 1_555
Al7_7 Ca0_5 3.471777 1_565
Al7_7 Ca0_4 3.471777 1_566
Al8_0 Co1_0 2.516880 1_555
Al8_0 Co1_1 2.516880 1_555
Al8_0 Ca0_6 3.471760 1_555
Al8_0 Ca0_7 3.471760 1_555
Al8_1 Co1_0 2.516880 1_556
Al8_1 Co1_1 2.516880 1_555
Al8_1 Ca0_6 3.471760 1_556
Al8_1 Ca0_7 3.471760 1_555
Al8_2 Co1_3 2.516880 1_555
Al8_2 Co1_2 2.516880 1_555
Al8_2 Ca0_4 3.471760 1_565
Al8_2 Ca0_5 3.471760 1_565
Al8_3 Co1_3 2.516880 1_555
Al8_3 Co1_2 2.516880 1_556
Al8_3 Ca0_4 3.471760 1_566
Al8_3 Ca0_5 3.471760 1_565
Al8_4 Co1_4 2.516880 1_555
Al8_4 Co1_5 2.516880 1_555
Al8_4 Ca0_3 3.471760 1_655
Al8_4 Ca0_2 3.471760 1_655
Al8_5 Co1_4 2.516880 1_556
Al8_5 Co1_5 2.516880 1_555
Al8_5 Ca0_2 3.471760 1_656
Al8_5 Ca0_3 3.471760 1_655
Al8_6 Co1_6 2.516880 1_555
Al8_6 Co1_7 2.516880 1_555
Al8_6 Ca0_0 3.471760 1_665
Al8_6 Ca0_1 3.471760 1_665
Al8_7 Co1_6 2.516880 1_556
Al8_7 Co1_7 2.516880 1_555
Al8_7 Ca0_0 3.471760 1_666
Al8_7 Ca0_1 3.471760 1_665
