# generated using pymatgen
data_Tm
_symmetry_space_group_name_H-M   'P 1'
_cell_length_a   6.98062916
_cell_length_b   6.98063121
_cell_length_c   6.98062970
_cell_angle_alpha   60.00000705
_cell_angle_beta   59.99999732
_cell_angle_gamma   60.00001373
_symmetry_Int_Tables_number   1
_chemical_formula_structural   Tm
_chemical_formula_sum   Tm8
_cell_volume   240.52981848
_cell_formula_units_Z   8
loop_
 _symmetry_equiv_pos_site_id
 _symmetry_equiv_pos_as_xyz
  1  'x, y, z'
loop_
 _atom_site_type_symbol
 _atom_site_label
 _atom_site_symmetry_multiplicity
 _atom_site_fract_x
 _atom_site_fract_y
 _atom_site_fract_z
 _atom_site_occupancy
  Tm  Tm0_0  1  0.00000000  0.00000000  0.00000000  1
  Tm  Tm0_1  1  0.00000000  0.00000000  0.50000000  1
  Tm  Tm0_2  1  0.00000000  0.50000000  0.00000000  1
  Tm  Tm0_3  1  0.00000000  0.50000000  0.50000000  1
  Tm  Tm0_4  1  0.50000000  0.00000000  0.00000000  1
  Tm  Tm0_5  1  0.50000000  0.00000000  0.50000000  1
  Tm  Tm0_6  1  0.50000000  0.50000000  0.00000000  1
  Tm  Tm0_7  1  0.50000000  0.50000000  0.50000000  1
loop_
_geom_bond_atom_site_label_1
_geom_bond_atom_site_label_2
_geom_bond_distance
_geom_bond_site_symmetry_2
Tm0_0 Tm0_5 3.490315 1_554
Tm0_0 Tm0_5 3.490315 1_455
Tm0_0 Tm0_4 3.490315 1_555
Tm0_0 Tm0_4 3.490315 1_455
Tm0_0 Tm0_1 3.490315 1_555
Tm0_0 Tm0_1 3.490315 1_554
Tm0_0 Tm0_3 3.490316 1_545
Tm0_0 Tm0_3 3.490316 1_554
Tm0_0 Tm0_2 3.490316 1_545
Tm0_0 Tm0_2 3.490316 1_555
Tm0_0 Tm0_6 3.490316 1_545
Tm0_0 Tm0_6 3.490316 1_455
Tm0_1 Tm0_4 3.490315 1_555
Tm0_1 Tm0_4 3.490315 1_456
Tm0_1 Tm0_5 3.490315 1_455
Tm0_1 Tm0_5 3.490315 1_555
Tm0_1 Tm0_2 3.490316 1_546
Tm0_1 Tm0_2 3.490316 1_555
Tm0_1 Tm0_3 3.490316 1_545
Tm0_1 Tm0_3 3.490316 1_555
Tm0_1 Tm0_7 3.490316 1_545
Tm0_1 Tm0_7 3.490316 1_455
Tm0_2 Tm0_7 3.490315 1_455
Tm0_2 Tm0_7 3.490315 1_554
Tm0_2 Tm0_6 3.490315 1_455
Tm0_2 Tm0_6 3.490315 1_555
Tm0_2 Tm0_3 3.490315 1_555
Tm0_2 Tm0_3 3.490315 1_554
Tm0_2 Tm0_4 3.490316 1_465
Tm0_2 Tm0_4 3.490316 1_555
Tm0_3 Tm0_6 3.490315 1_555
Tm0_3 Tm0_6 3.490315 1_456
Tm0_3 Tm0_7 3.490315 1_555
Tm0_3 Tm0_7 3.490315 1_455
Tm0_3 Tm0_5 3.490316 1_555
Tm0_3 Tm0_5 3.490316 1_465
Tm0_4 Tm0_5 3.490315 1_554
Tm0_4 Tm0_5 3.490315 1_555
Tm0_4 Tm0_7 3.490316 1_545
Tm0_4 Tm0_7 3.490316 1_554
Tm0_4 Tm0_6 3.490316 1_555
Tm0_4 Tm0_6 3.490316 1_545
Tm0_5 Tm0_6 3.490316 1_546
Tm0_5 Tm0_6 3.490316 1_555
Tm0_5 Tm0_7 3.490316 1_545
Tm0_5 Tm0_7 3.490316 1_555
Tm0_6 Tm0_7 3.490315 1_554
Tm0_6 Tm0_7 3.490315 1_555
