# generated using pymatgen
data_MgHg3
_symmetry_space_group_name_H-M   'P 1'
_cell_length_a   3.45180641
_cell_length_b   5.08350392
_cell_length_c   5.21203749
_cell_angle_alpha   90.00000000
_cell_angle_beta   90.00000000
_cell_angle_gamma   90.00000000
_symmetry_Int_Tables_number   1
_chemical_formula_structural   MgHg3
_chemical_formula_sum   'Mg1 Hg3'
_cell_volume   91.45703647
_cell_formula_units_Z   1
loop_
 _symmetry_equiv_pos_site_id
 _symmetry_equiv_pos_as_xyz
  1  'x, y, z'
loop_
 _atom_site_type_symbol
 _atom_site_label
 _atom_site_symmetry_multiplicity
 _atom_site_fract_x
 _atom_site_fract_y
 _atom_site_fract_z
 _atom_site_occupancy
  Mg  Mg0  1  0.00000000  0.50000000  0.33342799  1
  Hg  Hg0  1  0.50000000  0.00000000  0.49199562  1
  Hg  Hg1  1  0.00000000  0.00000000  0.00508524  1
  Hg  Hg2  1  0.50000000  0.50000000  0.83615616  1
loop_
_geom_bond_atom_site_label_1
_geom_bond_atom_site_label_2
_geom_bond_distance
_geom_bond_site_symmetry_2
Hg0 Hg1 3.069063 1_655
Hg0 Hg1 3.069063 1_555
Hg0 Hg2 3.110971 1_545
Hg0 Hg2 3.110971 1_555
Hg0 Mg0 3.181553 1_645
Hg0 Mg0 3.181553 1_555
Hg0 Mg0 3.181553 1_545
Hg0 Mg0 3.181553 1_655
Hg0 Hg1 3.182815 1_656
Hg0 Hg1 3.182815 1_556
Hg1 Mg0 3.064175 1_555
Hg1 Mg0 3.064175 1_545
Hg2 Mg0 3.113867 1_556
Hg2 Mg0 3.113867 1_656
Hg2 Mg0 3.137577 1_555
Hg2 Mg0 3.137577 1_655
