# generated using pymatgen
data_Lu20Os5I24
_symmetry_space_group_name_H-M   'P 1'
_cell_length_a   11.91830800
_cell_length_b   12.71154951
_cell_length_c   14.31055959
_cell_angle_alpha   99.77306950
_cell_angle_beta   107.72511184
_cell_angle_gamma   109.10491541
_symmetry_Int_Tables_number   1
_chemical_formula_structural   Lu20Os5I24
_chemical_formula_sum   'Lu20 Os5 I24'
_cell_volume   1861.92918346
_cell_formula_units_Z   1
loop_
 _symmetry_equiv_pos_site_id
 _symmetry_equiv_pos_as_xyz
  1  'x, y, z'
loop_
 _atom_site_type_symbol
 _atom_site_label
 _atom_site_symmetry_multiplicity
 _atom_site_fract_x
 _atom_site_fract_y
 _atom_site_fract_z
 _atom_site_occupancy
  Lu  Lu0  1  0.49558800  0.02423000  0.70560200  1
  Lu  Lu1  1  0.50441200  0.97577000  0.29439800  1
  Lu  Lu2  1  0.73451800  0.99903100  0.64241000  1
  Lu  Lu3  1  0.26548200  0.00096900  0.35759000  1
  Lu  Lu4  1  0.81409300  0.16655800  0.89789600  1
  Lu  Lu5  1  0.18590700  0.83344200  0.10210400  1
  Lu  Lu6  1  0.48244700  0.22036000  0.57673200  1
  Lu  Lu7  1  0.51755300  0.77964000  0.42326800  1
  Lu  Lu8  1  0.72153000  0.19624100  0.51421000  1
  Lu  Lu9  1  0.27847000  0.80375900  0.48579000  1
  Lu  Lu10  1  0.79702100  0.44766500  0.71546300  1
  Lu  Lu11  1  0.20297900  0.55233500  0.28453700  1
  Lu  Lu12  1  0.97442700  0.28949300  0.76147000  1
  Lu  Lu13  1  0.02557300  0.71050700  0.23853000  1
  Lu  Lu14  1  0.63632000  0.32501700  0.85075900  1
  Lu  Lu15  1  0.36368000  0.67498300  0.14924100  1
  Lu  Lu16  1  0.11477300  0.58738300  0.90431900  1
  Lu  Lu17  1  0.88522700  0.41261700  0.09568100  1
  Lu  Lu18  1  0.87378800  0.61315700  0.96902600  1
  Lu  Lu19  1  0.12621200  0.38684300  0.03097400  1
  Os  Os0  1  0.50000000  0.00000000  0.50000000  1
  Os  Os1  1  0.70778600  0.20991400  0.70922800  1
  Os  Os2  1  0.29221400  0.79008600  0.29077200  1
  Os  Os3  1  0.90382200  0.40540300  0.90431400  1
  Os  Os4  1  0.09617800  0.59459700  0.09568600  1
  I  I0  1  0.26257200  0.82255300  0.69690900  1
  I  I1  1  0.73742800  0.17744700  0.30309100  1
  I  I2  1  0.76171100  0.77205800  0.56707600  1
  I  I3  1  0.23828900  0.22794200  0.43292400  1
  I  I4  1  0.66205300  0.89597200  0.81287200  1
  I  I5  1  0.33794700  0.10402800  0.18712800  1
  I  I6  1  0.33929700  0.17964800  0.72732200  1
  I  I7  1  0.66070300  0.82035200  0.27267800  1
  I  I8  1  0.95017300  0.11825000  0.56567600  1
  I  I9  1  0.04982700  0.88175000  0.43432400  1
  I  I10  1  0.63087900  0.39850300  0.48365000  1
  I  I11  1  0.36912100  0.60149700  0.51635000  1
  I  I12  1  0.05269400  0.12302200  0.88098100  1
  I  I13  1  0.94730600  0.87697800  0.11901900  1
  I  I14  1  0.60776100  0.16551400  0.99122900  1
  I  I15  1  0.39223900  0.83448600  0.00877100  1
  I  I16  1  0.00443900  0.23764800  0.15385900  1
  I  I17  1  0.99556100  0.76235200  0.84614100  1
  I  I18  1  0.30547700  0.46697200  0.91328000  1
  I  I19  1  0.69452300  0.53302800  0.08672000  1
  I  I20  1  0.02767700  0.47837500  0.64842000  1
  I  I21  1  0.97232300  0.52162500  0.35158000  1
  I  I22  1  0.59884400  0.53048300  0.77020800  1
  I  I23  1  0.40115600  0.46951700  0.22979200  1
loop_
_geom_bond_atom_site_label_1
_geom_bond_atom_site_label_2
_geom_bond_distance
_geom_bond_site_symmetry_2
Lu0 Os1 2.817956 1_555
Lu0 Os0 2.924345 1_555
Lu1 Os2 2.817956 1_555
Lu1 Os0 2.924345 1_565
Lu2 Os1 2.841843 1_565
Lu2 Os0 2.920346 1_565
Lu3 Os2 2.841843 1_545
Lu3 Os0 2.920346 1_555
Lu4 Os1 2.842187 1_555
Lu4 Os3 2.844306 1_555
Lu5 Os2 2.842187 1_555
Lu5 Os4 2.844306 1_555
Lu6 Os1 2.836159 1_555
Lu6 Os0 2.928317 1_555
Lu7 Os2 2.836159 1_555
Lu7 Os0 2.928317 1_565
Lu8 Os1 2.824539 1_555
Lu8 Os0 2.902508 1_555
Lu9 Os2 2.824539 1_555
Lu9 Os0 2.902508 1_565
Lu10 Os1 2.831841 1_555
Lu10 Os3 2.838759 1_555
Lu11 Os2 2.831841 1_555
Lu11 Os4 2.838759 1_555
Lu12 Os1 2.805991 1_555
Lu12 Os3 2.809656 1_555
Lu13 Os2 2.805991 1_555
Lu13 Os4 2.809656 1_555
Lu14 Os1 2.797965 1_555
Lu14 Os3 2.812427 1_555
Lu15 Os2 2.797965 1_555
Lu15 Os4 2.812427 1_555
Lu16 Os4 2.802657 1_556
Lu16 Os3 2.804453 1_455
Lu17 Os3 2.802657 1_554
Lu17 Os4 2.804453 1_655
Lu18 Os3 2.819632 1_555
Lu18 Os4 2.827633 1_656
Lu19 Os4 2.819632 1_555
Lu19 Os3 2.827633 1_454
I0 Lu0 3.053056 1_565
I0 Lu9 3.058427 1_555
I1 Lu1 3.053056 1_545
I1 Lu8 3.058427 1_555
I2 Lu7 3.052345 1_555
I2 Lu2 3.059478 1_555
I3 Lu6 3.052345 1_555
I3 Lu3 3.059478 1_555
I4 Lu4 3.122727 1_565
I4 Lu2 3.168589 1_555
I4 Lu0 3.172274 1_565
I5 Lu5 3.122727 1_545
I5 Lu3 3.168589 1_555
I5 Lu1 3.172274 1_545
I6 Lu6 3.140408 1_555
I6 Lu14 3.141470 1_555
I6 Lu0 3.165811 1_555
I7 Lu7 3.140408 1_555
I7 Lu15 3.141470 1_555
I7 Lu1 3.165811 1_555
I8 Lu12 3.113993 1_555
I8 Lu8 3.121758 1_555
I8 Lu2 3.137260 1_545
I9 Lu13 3.113993 1_555
I9 Lu9 3.121758 1_555
I9 Lu3 3.137260 1_565
I10 Lu10 3.130946 1_555
I10 Lu6 3.141398 1_555
I10 Lu8 3.143448 1_555
I11 Lu11 3.130946 1_555
I11 Lu7 3.141398 1_555
I11 Lu9 3.143448 1_555
I12 Lu12 3.134075 1_455
I12 Lu4 3.139337 1_455
I12 Lu19 3.333031 1_556
I12 Lu2 3.859774 1_445
I13 Lu13 3.134075 1_655
I13 Lu5 3.139337 1_655
I13 Lu18 3.333031 1_554
I13 Lu3 3.859774 1_665
I14 Lu14 3.101002 1_555
I14 Lu4 3.133058 1_555
I14 Lu17 3.410727 1_556
I14 Lu0 3.785362 1_555
I15 Lu15 3.101002 1_555
I15 Lu5 3.133058 1_555
I15 Lu16 3.410727 1_554
I15 Lu1 3.785362 1_555
I16 Lu17 3.104113 1_455
I16 Lu19 3.111291 1_555
I16 Lu4 3.443103 1_454
I16 Lu11 3.696966 1_555
I17 Lu16 3.104113 1_655
I17 Lu18 3.111291 1_555
I17 Lu5 3.443103 1_656
I17 Lu10 3.696966 1_555
I18 Lu16 3.113129 1_555
I18 Lu19 3.128581 1_556
I18 Lu12 3.559045 1_455
I18 Lu15 3.635505 1_556
I19 Lu17 3.113129 1_555
I19 Lu18 3.128581 1_554
I19 Lu13 3.559045 1_655
I19 Lu14 3.635505 1_554
I20 Lu10 3.108164 1_455
I20 Lu12 3.119491 1_455
I20 Lu16 3.380730 1_555
I20 Lu8 3.833110 1_455
I21 Lu11 3.108164 1_655
I21 Lu13 3.119491 1_655
I21 Lu17 3.380730 1_555
I21 Lu9 3.833110 1_655
I22 Lu10 3.126525 1_555
I22 Lu14 3.134002 1_555
I22 Lu18 3.315281 1_555
I23 Lu11 3.126525 1_555
I23 Lu15 3.134002 1_555
I23 Lu19 3.315281 1_555
