# generated using pymatgen
data_NbVC2
_symmetry_space_group_name_H-M   'P 1'
_cell_length_a   5.31511966
_cell_length_b   5.31511966
_cell_length_c   5.31512038
_cell_angle_alpha   33.75752184
_cell_angle_beta   33.75752184
_cell_angle_gamma   33.75752960
_symmetry_Int_Tables_number   1
_chemical_formula_structural   NbVC2
_chemical_formula_sum   'Nb1 V1 C2'
_cell_volume   41.31180197
_cell_formula_units_Z   1
loop_
 _symmetry_equiv_pos_site_id
 _symmetry_equiv_pos_as_xyz
  1  'x, y, z'
loop_
 _atom_site_type_symbol
 _atom_site_label
 _atom_site_symmetry_multiplicity
 _atom_site_fract_x
 _atom_site_fract_y
 _atom_site_fract_z
 _atom_site_occupancy
  Nb  Nb0  1  0.00000000  0.00000000  0.00000000  1
  V  V0  1  0.50000000  0.50000000  0.50000000  1
  C  C0  1  0.75557500  0.75557500  0.75557500  1
  C  C1  1  0.24442500  0.24442500  0.24442500  1
loop_
_geom_bond_atom_site_label_1
_geom_bond_atom_site_label_2
_geom_bond_distance
_geom_bond_site_symmetry_2
C0 V0 2.130712 1_565
C0 V0 2.130712 1_655
C0 V0 2.130713 1_556
C0 Nb0 2.226952 1_566
C0 Nb0 2.226952 1_656
C0 Nb0 2.226952 1_665
C1 V0 2.130712 1_545
C1 V0 2.130712 1_455
C1 V0 2.130713 1_554
C1 Nb0 2.226952 1_655
C1 Nb0 2.226952 1_565
C1 Nb0 2.226952 1_556
