# generated using pymatgen
data_K2Pt(I2O)2
_symmetry_space_group_name_H-M   'P 1'
_cell_length_a   7.47026000
_cell_length_b   11.81024089
_cell_length_c   14.13793473
_cell_angle_alpha   90.10931928
_cell_angle_beta   90.12362144
_cell_angle_gamma   90.08465634
_symmetry_Int_Tables_number   1
_chemical_formula_structural   K2Pt(I2O)2
_chemical_formula_sum   'K8 Pt4 I16 O8'
_cell_volume   1247.32080890
_cell_formula_units_Z   4
loop_
 _symmetry_equiv_pos_site_id
 _symmetry_equiv_pos_as_xyz
  1  'x, y, z'
loop_
 _atom_site_type_symbol
 _atom_site_label
 _atom_site_symmetry_multiplicity
 _atom_site_fract_x
 _atom_site_fract_y
 _atom_site_fract_z
 _atom_site_occupancy
  K  K0  1  0.73150300  0.35537300  0.31405700  1
  K  K1  1  0.76905000  0.85128900  0.68495500  1
  K  K2  1  0.23046400  0.64585600  0.18604000  1
  K  K3  1  0.27180100  0.14370900  0.81481400  1
  K  K4  1  0.26849700  0.64462700  0.68594300  1
  K  K5  1  0.23095000  0.14871100  0.31504500  1
  K  K6  1  0.76953600  0.35414400  0.81396000  1
  K  K7  1  0.72819900  0.85629100  0.18518600  1
  Pt  Pt0  1  0.00000000  0.50000000  0.50000000  1
  Pt  Pt1  1  0.50000000  0.00000000  0.50000000  1
  Pt  Pt2  1  0.50000000  0.50000000  0.00000000  1
  Pt  Pt3  1  0.00000000  0.00000000  0.00000000  1
  I  I0  1  0.76625600  0.55905800  0.63043900  1
  I  I1  1  0.72857000  0.06333900  0.36898500  1
  I  I2  1  0.27307400  0.43597700  0.86933100  1
  I  I3  1  0.22833600  0.93763400  0.13068300  1
  I  I4  1  0.23374400  0.44094200  0.36956100  1
  I  I5  1  0.27143000  0.93666100  0.63101500  1
  I  I6  1  0.72692600  0.56402300  0.13066900  1
  I  I7  1  0.77166400  0.06236600  0.86931700  1
  I  I8  1  0.15074200  0.33134700  0.59223200  1
  I  I9  1  0.34627200  0.83327800  0.40701600  1
  I  I10  1  0.65247500  0.66807600  0.90858100  1
  I  I11  1  0.85017600  0.16857800  0.09034700  1
  I  I12  1  0.84925800  0.66865300  0.40776800  1
  I  I13  1  0.65372800  0.16672200  0.59298400  1
  I  I14  1  0.34752500  0.33192400  0.09141900  1
  I  I15  1  0.14982400  0.83142200  0.90965300  1
  O  O0  1  0.55138200  0.20089700  0.71356100  1
  O  O1  1  0.95265600  0.70369200  0.28883700  1
  O  O2  1  0.04952000  0.79541600  0.78700700  1
  O  O3  1  0.44942800  0.29979300  0.21348600  1
  O  O4  1  0.44861800  0.79910300  0.28643900  1
  O  O5  1  0.04734400  0.29630800  0.71116300  1
  O  O6  1  0.95048000  0.20458400  0.21299300  1
  O  O7  1  0.55057200  0.70020700  0.78651400  1
loop_
_geom_bond_atom_site_label_1
_geom_bond_atom_site_label_2
_geom_bond_distance
_geom_bond_site_symmetry_2
K0 O3 2.621485 1_555
K0 O6 2.810319 1_555
K0 Pt0 3.715021 1_655
K1 O2 2.627087 1_655
K1 O7 2.814319 1_555
K1 Pt1 3.737260 1_565
K2 O1 2.626601 1_455
K2 O4 2.813856 1_555
K2 Pt2 3.735694 1_555
K3 O0 2.622941 1_555
K3 O5 2.866246 1_555
K3 Pt3 3.726613 1_556
K4 O7 2.621485 1_555
K4 O2 2.810319 1_555
K4 Pt0 3.715021 1_555
K5 O6 2.627087 1_455
K5 O3 2.814319 1_555
K5 Pt1 3.737260 1_555
K6 O5 2.626601 1_655
K6 O0 2.813856 1_555
K6 Pt2 3.735694 1_556
K7 O4 2.622941 1_555
K7 O1 2.866246 1_555
K7 Pt3 3.726613 1_665
I0 Pt0 2.636074 1_655
I0 K1 3.534918 1_555
I0 K6 3.551515 1_555
I0 K4 3.934991 1_555
I0 K4 3.960640 1_655
I1 Pt1 2.630810 1_555
I1 K0 3.536828 1_555
I1 K7 3.564763 1_545
I1 K5 3.926656 1_555
I1 K5 3.960629 1_655
I2 Pt2 2.614505 1_556
I2 K3 3.535321 1_555
I2 K4 3.580498 1_555
I2 K6 3.914278 1_555
I2 K6 3.958520 1_455
I3 Pt3 2.619335 1_565
I3 K2 3.535232 1_555
I3 K5 3.603256 1_565
I3 K7 3.932077 1_555
I3 K7 3.934483 1_455
I4 Pt0 2.636074 1_555
I4 K5 3.534918 1_555
I4 K2 3.551515 1_555
I4 K0 3.934991 1_555
I4 K0 3.960640 1_455
I5 Pt1 2.630810 1_565
I5 K4 3.536828 1_555
I5 K3 3.564763 1_565
I5 K1 3.926656 1_555
I5 K1 3.960629 1_455
I6 Pt2 2.614505 1_555
I6 K7 3.535321 1_555
I6 K0 3.580498 1_555
I6 K2 3.914278 1_555
I6 K2 3.958520 1_655
I7 Pt3 2.619335 1_656
I7 K6 3.535232 1_555
I7 K1 3.603256 1_545
I7 K3 3.932077 1_555
I7 K3 3.934483 1_655
I8 O5 1.898003 1_555
I8 Pt0 2.635526 1_555
I9 O4 1.912430 1_555
I9 Pt1 2.626969 1_565
I10 O7 1.923402 1_555
I10 Pt2 2.630140 1_556
I11 O6 1.933787 1_555
I11 Pt3 2.617466 1_655
I12 O1 1.898003 1_555
I12 Pt0 2.635526 1_655
I13 O0 1.912430 1_555
I13 Pt1 2.626969 1_555
I14 O3 1.923402 1_555
I14 Pt2 2.630140 1_555
I15 O2 1.933787 1_555
I15 Pt3 2.617466 1_566
