# generated using pymatgen
data_TeRuSe
_symmetry_space_group_name_H-M   'P 1'
_cell_length_a   6.24606400
_cell_length_b   6.24606400
_cell_length_c   6.24606400
_cell_angle_alpha   90.00000000
_cell_angle_beta   90.00000000
_cell_angle_gamma   90.00000000
_symmetry_Int_Tables_number   1
_chemical_formula_structural   TeRuSe
_chemical_formula_sum   'Te4 Ru4 Se4'
_cell_volume   243.67966542
_cell_formula_units_Z   4
loop_
 _symmetry_equiv_pos_site_id
 _symmetry_equiv_pos_as_xyz
  1  'x, y, z'
loop_
 _atom_site_type_symbol
 _atom_site_label
 _atom_site_symmetry_multiplicity
 _atom_site_fract_x
 _atom_site_fract_y
 _atom_site_fract_z
 _atom_site_occupancy
  Te  Te0  1  0.12483700  0.62483700  0.87516300  1
  Te  Te1  1  0.62483700  0.87516300  0.12483700  1
  Te  Te2  1  0.87516300  0.12483700  0.62483700  1
  Te  Te3  1  0.37516300  0.37516300  0.37516300  1
  Ru  Ru0  1  0.49308400  0.99308400  0.50691600  1
  Ru  Ru1  1  0.99308400  0.50691600  0.49308400  1
  Ru  Ru2  1  0.50691600  0.49308400  0.99308400  1
  Ru  Ru3  1  0.00691600  0.00691600  0.00691600  1
  Se  Se0  1  0.87708700  0.37708700  0.12291300  1
  Se  Se1  1  0.37708700  0.12291300  0.87708700  1
  Se  Se2  1  0.12291300  0.87708700  0.37708700  1
  Se  Se3  1  0.62291300  0.62291300  0.62291300  1
loop_
_geom_bond_atom_site_label_1
_geom_bond_atom_site_label_2
_geom_bond_distance
_geom_bond_site_symmetry_2
Ru0 Se3 2.555071 1_555
Ru0 Se1 2.555071 1_565
Ru0 Se2 2.555071 1_555
Ru0 Te2 2.629649 1_565
Ru0 Te1 2.629649 1_555
Ru0 Te3 2.629649 1_565
Ru1 Se2 2.555071 1_655
Ru1 Se3 2.555071 1_555
Ru1 Se0 2.555071 1_555
Ru1 Te0 2.629649 1_655
Ru1 Te2 2.629649 1_555
Ru1 Te3 2.629649 1_655
Ru2 Se3 2.555071 1_555
Ru2 Se0 2.555071 1_556
Ru2 Se1 2.555071 1_555
Ru2 Te1 2.629649 1_556
Ru2 Te3 2.629649 1_556
Ru2 Te0 2.629649 1_555
Ru3 Se0 2.555071 1_455
Ru3 Se1 2.555071 1_554
Ru3 Se2 2.555071 1_545
Ru3 Te2 2.629649 1_454
Ru3 Te1 2.629649 1_445
Ru3 Te0 2.629649 1_544
Se0 Te0 2.680283 1_654
Se1 Te1 2.680283 1_546
Se2 Te2 2.680283 1_465
Se3 Te3 2.680283 1_555
