# generated using pymatgen
data_Dy2AlNi2
_symmetry_space_group_name_H-M   'P 1'
_cell_length_a   5.33520150
_cell_length_b   5.33520150
_cell_length_c   5.33520150
_cell_angle_alpha   134.05716590
_cell_angle_beta   119.70263799
_cell_angle_gamma   78.99618272
_symmetry_Int_Tables_number   1
_chemical_formula_structural   Dy2AlNi2
_chemical_formula_sum   'Dy2 Al1 Ni2'
_cell_volume   91.87849350
_cell_formula_units_Z   1
loop_
 _symmetry_equiv_pos_site_id
 _symmetry_equiv_pos_as_xyz
  1  'x, y, z'
loop_
 _atom_site_type_symbol
 _atom_site_label
 _atom_site_symmetry_multiplicity
 _atom_site_fract_x
 _atom_site_fract_y
 _atom_site_fract_z
 _atom_site_occupancy
  Dy  Dy0  1  0.70321547  0.20321547  0.50000000  1
  Dy  Dy1  1  0.29678453  0.79678453  0.50000000  1
  Al  Al0  1  -0.00000000  -0.00000000  -0.00000000  1
  Ni  Ni0  1  0.26774348  0.50000000  0.76774348  1
  Ni  Ni1  1  0.73225652  0.50000000  0.23225652  1
loop_
_geom_bond_atom_site_label_1
_geom_bond_atom_site_label_2
_geom_bond_distance
_geom_bond_site_symmetry_2
Dy0 Ni1 2.833785 1_555
Dy0 Ni0 2.833785 1_655
Dy0 Ni1 2.946939 1_545
Dy0 Ni0 2.946939 1_544
Dy0 Ni1 2.946939 1_556
Dy0 Ni0 2.946939 1_555
Dy1 Ni0 2.833785 1_555
Dy1 Ni1 2.833785 1_455
Dy1 Ni0 2.946939 1_565
Dy1 Ni1 2.946939 1_555
Dy1 Ni0 2.946939 1_554
Dy1 Ni1 2.946939 1_566
Al0 Ni0 2.528706 1_544
Al0 Ni0 2.528706 1_555
Al0 Ni1 2.528706 1_455
Al0 Ni1 2.528706 1_444
Al0 Dy1 3.159091 1_545
Al0 Dy1 3.159091 1_444
Al0 Dy0 3.159091 1_454
Al0 Dy0 3.159091 1_555
Al0 Dy0 3.210440 1_455
Al0 Dy1 3.210440 1_544
Al0 Dy1 3.210440 1_555
Al0 Dy0 3.210440 1_444
Ni0 Ni1 2.489401 1_556
