# generated using pymatgen
data_BaLa2(CoO3)3
_symmetry_space_group_name_H-M   'P 1'
_cell_length_a   5.58646488
_cell_length_b   5.55005534
_cell_length_c   13.49292910
_cell_angle_alpha   90.21358358
_cell_angle_beta   90.78828693
_cell_angle_gamma   60.12883927
_symmetry_Int_Tables_number   1
_chemical_formula_structural   BaLa2(CoO3)3
_chemical_formula_sum   'Ba2 La4 Co6 O18'
_cell_volume   362.73519922
_cell_formula_units_Z   2
loop_
 _symmetry_equiv_pos_site_id
 _symmetry_equiv_pos_as_xyz
  1  'x, y, z'
loop_
 _atom_site_type_symbol
 _atom_site_label
 _atom_site_symmetry_multiplicity
 _atom_site_fract_x
 _atom_site_fract_y
 _atom_site_fract_z
 _atom_site_occupancy
  Ba  Ba0  1  0.00160100  0.99692000  0.99933000  1
  Ba  Ba1  1  0.99897100  0.99802000  0.50087000  1
  La  La0  1  0.33607400  0.32936000  0.16739600  1
  La  La1  1  0.32838800  0.34416800  0.67482300  1
  La  La2  1  0.66763000  0.66918700  0.33005300  1
  La  La3  1  0.67027600  0.67450400  0.83186200  1
  Co  Co0  1  0.99992200  0.00443900  0.75052900  1
  Co  Co1  1  0.99880700  0.00023300  0.24828000  1
  Co  Co2  1  0.33333500  0.33044600  0.41759900  1
  Co  Co3  1  0.33571600  0.33644400  0.91854100  1
  Co  Co4  1  0.66741900  0.66410500  0.08305000  1
  Co  Co5  1  0.66752600  0.67043800  0.58461000  1
  O  O0  1  0.49826100  0.49087800  0.00352400  1
  O  O1  1  0.48802200  0.47967700  0.49688000  1
  O  O2  1  0.50591200  0.98391400  0.00027900  1
  O  O3  1  0.51192900  0.96469500  0.49503600  1
  O  O4  1  0.99138100  0.49884000  0.00429400  1
  O  O5  1  0.00504100  0.48961700  0.49679300  1
  O  O6  1  0.81972200  0.82503900  0.17178300  1
  O  O7  1  0.83067100  0.82958300  0.67370300  1
  O  O8  1  0.17850400  0.18321600  0.32879700  1
  O  O9  1  0.17167100  0.18639400  0.82976700  1
  O  O10  1  0.16858200  0.67620100  0.32318200  1
  O  O11  1  0.17175300  0.65864800  0.82819800  1
  O  O12  1  0.83607900  0.33514600  0.17326400  1
  O  O13  1  0.81436100  0.35857500  0.66980100  1
  O  O14  1  0.65001300  0.17978100  0.32521400  1
  O  O15  1  0.65674400  0.17828200  0.82633100  1
  O  O16  1  0.35502500  0.82269800  0.17094800  1
  O  O17  1  0.34066400  0.84055200  0.67526200  1
loop_
_geom_bond_atom_site_label_1
_geom_bond_atom_site_label_2
_geom_bond_distance
_geom_bond_site_symmetry_2
Ba0 O4 2.758273 1_466
Ba0 O2 2.781921 1_556
Ba0 O0 2.783919 1_466
Ba0 O4 2.794315 1_456
Ba0 O0 2.797169 1_556
Ba0 O2 2.806003 1_456
Ba0 O11 2.830289 1_555
Ba0 O15 2.852304 1_465
Ba0 O12 2.860857 1_466
Ba0 O16 2.860865 1_556
Ba0 O9 2.883742 1_565
Ba0 O6 2.898955 1_456
Ba1 O5 2.746201 1_665
Ba1 O1 2.773581 1_565
Ba1 O3 2.780350 1_655
Ba1 O5 2.805272 1_655
Ba1 O1 2.813730 1_655
Ba1 O3 2.817563 1_555
Ba1 O7 2.854526 1_555
Ba1 O17 2.859091 1_655
Ba1 O10 2.860236 1_655
Ba1 O13 2.870281 1_565
Ba1 O14 2.892611 1_565
Ba1 O8 2.926044 1_665
La0 O14 2.599927 1_555
La0 O8 2.636771 1_555
La0 O10 2.688738 1_555
La0 O0 2.718915 1_555
La0 O4 2.744187 1_455
La0 O6 2.757144 1_545
La0 O16 2.761373 1_545
La0 O12 2.779570 1_455
La0 O16 2.792502 1_555
La0 O2 2.806289 1_545
La0 O12 2.809421 1_555
La0 O6 2.826900 1_455
La1 O11 2.568338 1_555
La1 O15 2.572971 1_555
La1 O9 2.594557 1_555
La1 O7 2.743514 1_455
La1 O13 2.757326 1_555
La1 O17 2.761608 1_545
La1 O17 2.789731 1_555
La1 O1 2.804648 1_555
La1 O13 2.832491 1_455
La1 O7 2.837011 1_545
La1 O5 2.850873 1_555
La1 O3 3.041550 1_545
La2 O16 2.610128 1_555
La2 O6 2.612731 1_555
La2 O3 2.647082 1_555
La2 O12 2.661934 1_555
La2 O5 2.763452 1_655
La2 O14 2.767063 1_555
La2 O10 2.769004 1_555
La2 O8 2.784515 1_655
La2 O14 2.787096 1_565
La2 O8 2.799952 1_565
La2 O10 2.820936 1_655
La2 O1 2.882877 1_555
La3 O17 2.630928 1_555
La3 O7 2.632924 1_555
La3 O13 2.667945 1_555
La3 O2 2.722808 1_556
La3 O11 2.759838 1_655
La3 O15 2.760387 1_565
La3 O9 2.761978 1_655
La3 O4 2.782356 1_556
La3 O15 2.793175 1_555
La3 O9 2.818979 1_565
La3 O11 2.829596 1_555
La3 O0 2.895053 1_556
Co0 O7 1.946763 1_545
Co0 O17 1.950341 1_645
Co0 O11 1.963451 1_645
Co0 O15 1.963810 1_555
Co0 O9 2.003089 1_655
Co0 O13 2.019786 1_555
Co1 O10 1.855620 1_645
Co1 O12 1.900405 1_555
Co1 O6 1.986153 1_545
Co1 O14 1.995281 1_555
Co1 O16 2.028801 1_645
Co1 O8 2.048587 1_655
Co2 O1 1.804984 1_555
Co2 O8 1.876102 1_555
Co2 O5 1.928425 1_555
Co2 O14 1.990527 1_555
Co2 O3 2.043899 1_545
Co2 O10 2.092644 1_555
Co3 O0 1.900883 1_556
Co3 O9 1.921127 1_555
Co3 O11 1.968936 1_555
Co3 O15 2.004989 1_555
Co3 O2 2.020568 1_546
Co3 O4 2.043989 1_456
Co4 O2 1.898332 1_555
Co4 O4 1.907363 1_555
Co4 O6 1.917332 1_555
Co4 O16 1.935471 1_555
Co4 O0 1.959122 1_555
Co4 O12 1.993558 1_555
Co5 O3 1.858826 1_555
Co5 O13 1.888029 1_555
Co5 O7 1.954412 1_555
Co5 O17 2.014292 1_555
Co5 O5 2.033240 1_655
Co5 O1 2.131499 1_555
