# generated using pymatgen
data_Ba3NaIrRuO9
_symmetry_space_group_name_H-M   'P 1'
_cell_length_a   5.97716771
_cell_length_b   5.97716771
_cell_length_c   14.48763700
_cell_angle_alpha   90.00000000
_cell_angle_beta   90.00000000
_cell_angle_gamma   119.99999683
_symmetry_Int_Tables_number   1
_chemical_formula_structural   Ba3NaIrRuO9
_chemical_formula_sum   'Ba6 Na2 Ir2 Ru2 O18'
_cell_volume   448.24874797
_cell_formula_units_Z   2
loop_
 _symmetry_equiv_pos_site_id
 _symmetry_equiv_pos_as_xyz
  1  'x, y, z'
loop_
 _atom_site_type_symbol
 _atom_site_label
 _atom_site_symmetry_multiplicity
 _atom_site_fract_x
 _atom_site_fract_y
 _atom_site_fract_z
 _atom_site_occupancy
  Ba  Ba0  1  0.00000000  0.00000000  0.74957500  1
  Ba  Ba1  1  0.00000000  0.00000000  0.24957500  1
  Ba  Ba2  1  0.66666700  0.33333300  0.41237200  1
  Ba  Ba3  1  0.33333300  0.66666700  0.58932400  1
  Ba  Ba4  1  0.33333300  0.66666700  0.91237200  1
  Ba  Ba5  1  0.66666700  0.33333300  0.08932400  1
  Na  Na0  1  0.00000000  0.00000000  0.49998600  1
  Na  Na1  1  0.00000000  0.00000000  0.99998600  1
  Ir  Ir0  1  0.66666700  0.33333300  0.66498100  1
  Ir  Ir1  1  0.33333300  0.66666700  0.16498100  1
  Ru  Ru0  1  0.33333300  0.66666700  0.33902500  1
  Ru  Ru1  1  0.66666700  0.33333300  0.83902500  1
  O  O0  1  0.82022600  0.64045200  0.90860500  1
  O  O1  1  0.82022600  0.17977400  0.90860500  1
  O  O2  1  0.35954800  0.17977400  0.90860500  1
  O  O3  1  0.18021400  0.36042800  0.09112200  1
  O  O4  1  0.18021400  0.81978600  0.09112200  1
  O  O5  1  0.63957200  0.81978600  0.09112200  1
  O  O6  1  0.17977400  0.35954800  0.40860500  1
  O  O7  1  0.17977400  0.82022600  0.40860500  1
  O  O8  1  0.64045200  0.82022600  0.40860500  1
  O  O9  1  0.81978600  0.63957200  0.59112200  1
  O  O10  1  0.81978600  0.18021400  0.59112200  1
  O  O11  1  0.36042800  0.18021400  0.59112200  1
  O  O12  1  0.50812300  0.01624700  0.74853100  1
  O  O13  1  0.50812300  0.49187700  0.74853100  1
  O  O14  1  0.98375300  0.49187700  0.74853100  1
  O  O15  1  0.49187700  0.98375300  0.24853100  1
  O  O16  1  0.49187700  0.50812300  0.24853100  1
  O  O17  1  0.01624700  0.50812300  0.24853100  1
loop_
_geom_bond_atom_site_label_1
_geom_bond_atom_site_label_2
_geom_bond_distance
_geom_bond_site_symmetry_2
Ba0 O10 2.958159 1_455
Ba0 O9 2.958159 1_445
Ba0 O11 2.958159 1_555
Ba0 O1 2.961786 1_455
Ba0 O2 2.961786 1_555
Ba0 O0 2.961786 1_445
Ba0 O14 2.989802 1_445
Ba0 O12 2.989802 1_555
Ba0 O13 2.989805 1_555
Ba0 O13 2.989805 1_445
Ba0 O12 2.989808 1_455
Ba0 O14 2.989808 1_455
Ba1 O4 2.958159 1_545
Ba1 O3 2.958159 1_555
Ba1 O5 2.958159 1_445
Ba1 O7 2.961786 1_545
Ba1 O8 2.961786 1_445
Ba1 O6 2.961786 1_555
Ba1 O17 2.989802 1_555
Ba1 O15 2.989802 1_445
Ba1 O16 2.989805 1_555
Ba1 O16 2.989805 1_445
Ba1 O17 2.989808 1_545
Ba1 O15 2.989808 1_545
Ba2 O16 2.984762 1_555
Ba2 O17 2.984762 1_655
Ba2 O15 2.984762 1_545
Ba2 O8 2.992158 1_545
Ba2 O6 2.992158 1_655
Ba2 O7 2.992161 1_545
Ba2 O7 2.992161 1_655
Ba2 O6 2.992164 1_555
Ba2 O8 2.992164 1_555
Ba2 O10 3.036320 1_555
Ba2 O11 3.036322 1_555
Ba2 O9 3.036322 1_555
Ba3 O13 2.931654 1_555
Ba3 O12 2.931654 1_565
Ba3 O14 2.931654 1_455
Ba3 O9 2.991984 1_455
Ba3 O11 2.991984 1_565
Ba3 O10 2.991986 1_455
Ba3 O10 2.991986 1_565
Ba3 O11 2.991989 1_555
Ba3 O9 2.991989 1_555
Ba3 O7 3.063047 1_555
Ba3 O6 3.063050 1_555
Ba3 O8 3.063050 1_555
Ba4 O13 2.984762 1_555
Ba4 O12 2.984762 1_565
Ba4 O14 2.984762 1_455
Ba4 O0 2.992158 1_455
Ba4 O2 2.992158 1_565
Ba4 O1 2.992161 1_455
Ba4 O1 2.992161 1_565
Ba4 O0 2.992164 1_555
Ba4 O2 2.992164 1_555
Ba4 O4 3.036320 1_556
Ba4 O3 3.036322 1_556
Ba4 O5 3.036322 1_556
Ba5 O16 2.931654 1_555
Ba5 O17 2.931654 1_655
Ba5 O15 2.931654 1_545
Ba5 O5 2.991984 1_545
Ba5 O3 2.991984 1_655
Ba5 O4 2.991986 1_545
Ba5 O4 2.991986 1_655
Ba5 O3 2.991989 1_555
Ba5 O5 2.991989 1_555
Ba5 O1 3.063047 1_554
Ba5 O0 3.063050 1_554
Ba5 O2 3.063050 1_554
Na0 O7 2.283988 1_545
Na0 O6 2.283988 1_555
Na0 O8 2.283988 1_445
Na0 O10 2.285649 1_455
Na0 O11 2.285649 1_555
Na0 O9 2.285649 1_445
Na1 O1 2.283988 1_455
Na1 O0 2.283988 1_445
Na1 O2 2.283988 1_555
Na1 O4 2.285649 1_546
Na1 O5 2.285649 1_446
Na1 O3 2.285649 1_556
Ir0 O10 1.912554 1_555
Ir0 O9 1.912558 1_555
Ir0 O11 1.912558 1_555
Ir0 O12 2.039418 1_555
Ir0 O14 2.039418 1_555
Ir0 O13 2.039426 1_555
Ir1 O4 1.912554 1_555
Ir1 O3 1.912558 1_555
Ir1 O5 1.912558 1_555
Ir1 O17 2.039418 1_555
Ir1 O15 2.039418 1_555
Ir1 O16 2.039426 1_555
O0 Ru1 1.882423 1_555
O1 Ru1 1.882418 1_555
O2 Ru1 1.882423 1_555
O6 Ru0 1.882423 1_555
O7 Ru0 1.882418 1_555
O8 Ru0 1.882423 1_555
O12 Ru1 2.100688 1_555
O13 Ru1 2.100696 1_555
O14 Ru1 2.100688 1_555
O15 Ru0 2.100688 1_555
O16 Ru0 2.100696 1_555
O17 Ru0 2.100688 1_555
