# generated using pymatgen
data_Lu3O2F5
_symmetry_space_group_name_H-M   'P 1'
_cell_length_a   5.19041620
_cell_length_b   5.46176382
_cell_length_c   16.71197171
_cell_angle_alpha   90.00000000
_cell_angle_beta   90.00000000
_cell_angle_gamma   90.00000000
_symmetry_Int_Tables_number   1
_chemical_formula_structural   Lu3O2F5
_chemical_formula_sum   'Lu12 O8 F20'
_cell_volume   473.76480172
_cell_formula_units_Z   4
loop_
 _symmetry_equiv_pos_site_id
 _symmetry_equiv_pos_as_xyz
  1  'x, y, z'
loop_
 _atom_site_type_symbol
 _atom_site_label
 _atom_site_symmetry_multiplicity
 _atom_site_fract_x
 _atom_site_fract_y
 _atom_site_fract_z
 _atom_site_occupancy
  Lu  Lu0  1  0.96114227  0.67073877  0.59728457  1
  Lu  Lu1  1  0.46114227  0.82926123  0.40271543  1
  Lu  Lu2  1  0.45647304  0.26472857  0.25000000  1
  Lu  Lu3  1  0.53885773  0.17073877  0.59728457  1
  Lu  Lu4  1  0.53885773  0.17073877  0.90271543  1
  Lu  Lu5  1  0.95647304  0.23527143  0.75000000  1
  Lu  Lu6  1  0.03885773  0.32926123  0.40271543  1
  Lu  Lu7  1  0.54352696  0.73527143  0.75000000  1
  Lu  Lu8  1  0.03885773  0.32926123  0.09728457  1
  Lu  Lu9  1  0.96114227  0.67073877  0.90271543  1
  Lu  Lu10  1  0.46114227  0.82926123  0.09728457  1
  Lu  Lu11  1  0.04352696  0.76472857  0.25000000  1
  O  O0  1  0.29850555  0.54018712  0.33144791  1
  O  O1  1  0.79850555  0.95981288  0.66855209  1
  O  O2  1  0.70149445  0.45981288  0.83144791  1
  O  O3  1  0.20149445  0.04018712  0.33144791  1
  O  O4  1  0.70149445  0.45981288  0.66855209  1
  O  O5  1  0.20149445  0.04018712  0.16855209  1
  O  O6  1  0.79850555  0.95981288  0.83144791  1
  O  O7  1  0.29850555  0.54018712  0.16855209  1
  F  F0  1  0.71274067  0.87806744  0.51434784  1
  F  F1  1  0.82402534  0.66502624  0.37480607  1
  F  F2  1  0.17597466  0.33497376  0.62519393  1
  F  F3  1  0.85667838  0.39274901  0.25000000  1
  F  F4  1  0.64332162  0.89274901  0.25000000  1
  F  F5  1  0.21274067  0.62193256  0.48565216  1
  F  F6  1  0.28725933  0.12193256  0.48565216  1
  F  F7  1  0.28725933  0.12193256  0.01434784  1
  F  F8  1  0.32402534  0.83497376  0.62519393  1
  F  F9  1  0.78725933  0.37806744  0.51434784  1
  F  F10  1  0.21274067  0.62193256  0.01434784  1
  F  F11  1  0.78725933  0.37806744  0.98565216  1
  F  F12  1  0.32402534  0.83497376  0.87480607  1
  F  F13  1  0.14332162  0.60725099  0.75000000  1
  F  F14  1  0.67597466  0.16502624  0.37480607  1
  F  F15  1  0.17597466  0.33497376  0.87480607  1
  F  F16  1  0.71274067  0.87806744  0.98565216  1
  F  F17  1  0.82402534  0.66502624  0.12519393  1
  F  F18  1  0.67597466  0.16502624  0.12519393  1
  F  F19  1  0.35667838  0.10725099  0.75000000  1
loop_
_geom_bond_atom_site_label_1
_geom_bond_atom_site_label_2
_geom_bond_distance
_geom_bond_site_symmetry_2
Lu0 O4 2.135870 1_555
Lu0 O1 2.150327 1_555
Lu1 O3 2.135870 1_565
Lu1 O0 2.150327 1_555
Lu2 O0 2.188263 1_555
Lu2 O7 2.188263 1_555
Lu2 O3 2.260152 1_555
Lu2 O5 2.260152 1_555
Lu3 O1 2.135870 1_545
Lu3 O4 2.150327 1_555
Lu4 O6 2.135870 1_545
Lu4 O2 2.150327 1_555
Lu5 O1 2.188263 1_545
Lu5 O6 2.188263 1_545
Lu5 O2 2.260152 1_555
Lu5 O4 2.260152 1_555
Lu6 O0 2.135870 1_555
Lu6 O3 2.150327 1_555
Lu7 O4 2.188263 1_555
Lu7 O2 2.188263 1_555
Lu7 O1 2.260152 1_555
Lu7 O6 2.260152 1_555
Lu8 O7 2.135870 1_555
Lu8 O5 2.150327 1_555
Lu9 O2 2.135870 1_555
Lu9 O6 2.150327 1_555
Lu10 O5 2.135870 1_565
Lu10 O7 2.150327 1_555
Lu11 O5 2.188263 1_565
Lu11 O3 2.188263 1_565
Lu11 O0 2.260152 1_555
Lu11 O7 2.260152 1_555
F0 Lu0 2.205832 1_555
F0 Lu1 2.292791 1_555
F0 Lu3 2.300186 1_565
F1 Lu1 2.137710 1_555
F1 Lu6 2.196362 1_655
F1 Lu11 2.438222 1_655
F2 Lu3 2.137710 1_555
F2 Lu0 2.196362 1_455
F2 Lu5 2.438222 1_455
F3 Lu2 2.191757 1_555
F3 Lu11 2.251270 1_655
F4 Lu11 2.191757 1_655
F4 Lu2 2.251270 1_565
F5 Lu1 2.205832 1_555
F5 Lu0 2.292791 1_455
F5 Lu6 2.300186 1_555
F6 Lu6 2.205832 1_555
F6 Lu3 2.292791 1_555
F6 Lu1 2.300186 1_545
F7 Lu8 2.205832 1_555
F7 Lu4 2.292791 1_554
F7 Lu10 2.300186 1_545
F8 Lu0 2.137710 1_455
F8 Lu3 2.196362 1_565
F8 Lu7 2.438222 1_555
F9 Lu3 2.205832 1_555
F9 Lu6 2.292791 1_655
F9 Lu0 2.300186 1_555
F10 Lu10 2.205832 1_555
F10 Lu9 2.292791 1_454
F10 Lu8 2.300186 1_555
F11 Lu4 2.205832 1_555
F11 Lu8 2.292791 1_656
F11 Lu9 2.300186 1_555
F12 Lu9 2.137710 1_455
F12 Lu4 2.196362 1_565
F12 Lu7 2.438222 1_555
F13 Lu7 2.191757 1_555
F13 Lu5 2.251270 1_455
F14 Lu6 2.137710 1_655
F14 Lu1 2.196362 1_545
F14 Lu2 2.438222 1_555
F15 Lu4 2.137710 1_555
F15 Lu9 2.196362 1_455
F15 Lu5 2.438222 1_455
F16 Lu9 2.205832 1_555
F16 Lu10 2.292791 1_556
F16 Lu4 2.300186 1_565
F17 Lu10 2.137710 1_555
F17 Lu8 2.196362 1_655
F17 Lu11 2.438222 1_655
F18 Lu8 2.137710 1_655
F18 Lu10 2.196362 1_545
F18 Lu2 2.438222 1_555
F19 Lu5 2.191757 1_455
F19 Lu7 2.251270 1_545
