# generated using pymatgen
data_TiCrCuSe4
_symmetry_space_group_name_H-M   'P 1'
_cell_length_a   7.42159409
_cell_length_b   7.42159409
_cell_length_c   7.42159409
_cell_angle_alpha   120.81077938
_cell_angle_beta   119.05672099
_cell_angle_gamma   90.12148520
_symmetry_Int_Tables_number   1
_chemical_formula_structural   TiCrCuSe4
_chemical_formula_sum   'Ti2 Cr2 Cu2 Se8'
_cell_volume   289.25662682
_cell_formula_units_Z   2
loop_
 _symmetry_equiv_pos_site_id
 _symmetry_equiv_pos_as_xyz
  1  'x, y, z'
loop_
 _atom_site_type_symbol
 _atom_site_label
 _atom_site_symmetry_multiplicity
 _atom_site_fract_x
 _atom_site_fract_y
 _atom_site_fract_z
 _atom_site_occupancy
  Ti  Ti0  1  0.00000000  0.50000000  0.00000000  1
  Ti  Ti1  1  0.00000000  0.00000000  0.50000000  1
  Cr  Cr0  1  0.50000000  0.50000000  0.00000000  1
  Cr  Cr1  1  0.00000000  0.50000000  0.50000000  1
  Cu  Cu0  1  0.62461900  0.87461900  0.75000000  1
  Cu  Cu1  1  0.37538100  0.12538100  0.25000000  1
  Se  Se0  1  0.23341900  0.74323800  0.49018100  1
  Se  Se1  1  0.75305700  0.74323800  0.00981900  1
  Se  Se2  1  0.75589200  0.73993200  0.48404000  1
  Se  Se3  1  0.75589200  0.27185200  0.01596000  1
  Se  Se4  1  0.76658100  0.25676200  0.50981900  1
  Se  Se5  1  0.24694300  0.25676200  0.99018100  1
  Se  Se6  1  0.24410800  0.26006800  0.51596000  1
  Se  Se7  1  0.24410800  0.72814800  0.98404000  1
loop_
_geom_bond_atom_site_label_1
_geom_bond_atom_site_label_2
_geom_bond_distance
_geom_bond_site_symmetry_2
Cr0 Se6 2.547214 1_554
Cr0 Se7 2.547214 1_554
Cr0 Se3 2.547214 1_555
Cr0 Se2 2.547214 1_555
Cr0 Se1 2.551320 1_555
Cr0 Se5 2.551320 1_554
Cr1 Se2 2.547214 1_455
Cr1 Se7 2.547214 1_555
Cr1 Se3 2.547214 1_455
Cr1 Se6 2.547214 1_555
Cr1 Se0 2.551320 1_555
Cr1 Se4 2.551320 1_455
Cu0 Se2 2.386481 1_555
Cu0 Se3 2.386481 1_566
Cu0 Se0 2.392111 1_555
Cu0 Se1 2.392111 1_556
Cu1 Se6 2.386481 1_555
Cu1 Se7 2.386481 1_544
Cu1 Se5 2.392111 1_554
Cu1 Se4 2.392111 1_555
Se0 Ti1 2.575254 1_565
Se0 Ti0 2.575254 1_555
Se1 Ti1 2.575254 1_665
Se1 Ti0 2.575254 1_655
Se2 Ti1 2.562044 1_665
Se3 Ti0 2.562044 1_655
Se4 Ti0 2.575254 1_656
Se4 Ti1 2.575254 1_655
Se5 Ti0 2.575254 1_556
Se5 Ti1 2.575254 1_555
Se6 Ti1 2.562044 1_555
Se7 Ti0 2.562044 1_556
