# generated using pymatgen
data_AgH8C3S2NO3
_symmetry_space_group_name_H-M   'P 1'
_cell_length_a   9.26468127
_cell_length_b   17.22056005
_cell_length_c   21.86622575
_cell_angle_alpha   90.00000000
_cell_angle_beta   90.00000000
_cell_angle_gamma   90.00000000
_symmetry_Int_Tables_number   1
_chemical_formula_structural   AgH8C3S2NO3
_chemical_formula_sum   'Ag16 H128 C48 S32 N16 O48'
_cell_volume   3488.60325820
_cell_formula_units_Z   16
loop_
 _symmetry_equiv_pos_site_id
 _symmetry_equiv_pos_as_xyz
  1  'x, y, z'
loop_
 _atom_site_type_symbol
 _atom_site_label
 _atom_site_symmetry_multiplicity
 _atom_site_fract_x
 _atom_site_fract_y
 _atom_site_fract_z
 _atom_site_occupancy
  Ag  Ag0  1  0.58723670  0.75901502  0.47061331  1
  Ag  Ag1  1  0.08723670  0.74098498  0.52938669  1
  Ag  Ag2  1  0.41276330  0.25901502  0.02938669  1
  Ag  Ag3  1  0.91276330  0.24098498  0.97061331  1
  Ag  Ag4  1  0.41276330  0.24098498  0.52938669  1
  Ag  Ag5  1  0.91276330  0.25901502  0.47061331  1
  Ag  Ag6  1  0.58723670  0.74098498  0.97061331  1
  Ag  Ag7  1  0.08723670  0.75901502  0.02938669  1
  Ag  Ag8  1  0.46662612  0.75914905  0.67030711  1
  Ag  Ag9  1  0.96662612  0.74085095  0.32969289  1
  Ag  Ag10  1  0.53337388  0.25914905  0.82969289  1
  Ag  Ag11  1  0.03337388  0.24085095  0.17030711  1
  Ag  Ag12  1  0.53337388  0.24085095  0.32969289  1
  Ag  Ag13  1  0.03337388  0.25914905  0.67030711  1
  Ag  Ag14  1  0.46662612  0.74085095  0.17030711  1
  Ag  Ag15  1  0.96662612  0.75914905  0.82969289  1
  H  H0  1  0.43762336  0.58140627  0.74834582  1
  H  H1  1  0.93762336  0.91859373  0.25165418  1
  H  H2  1  0.56237664  0.08140627  0.75165418  1
  H  H3  1  0.06237664  0.41859373  0.24834582  1
  H  H4  1  0.56237664  0.41859373  0.25165418  1
  H  H5  1  0.06237664  0.08140627  0.74834582  1
  H  H6  1  0.43762336  0.91859373  0.24834582  1
  H  H7  1  0.93762336  0.58140627  0.75165418  1
  H  H8  1  0.56547840  0.55669636  0.68946280  1
  H  H9  1  0.06547840  0.94330364  0.31053720  1
  H  H10  1  0.43452160  0.05669636  0.81053720  1
  H  H11  1  0.93452160  0.44330364  0.18946280  1
  H  H12  1  0.43452160  0.44330364  0.31053720  1
  H  H13  1  0.93452160  0.05669636  0.68946280  1
  H  H14  1  0.56547840  0.94330364  0.18946280  1
  H  H15  1  0.06547840  0.55669636  0.81053720  1
  H  H16  1  0.60854732  0.53814266  0.76741424  1
  H  H17  1  0.10854732  0.96185734  0.23258576  1
  H  H18  1  0.39145268  0.03814266  0.73258576  1
  H  H19  1  0.89145268  0.46185734  0.26741424  1
  H  H20  1  0.39145268  0.46185734  0.23258576  1
  H  H21  1  0.89145268  0.03814266  0.76741424  1
  H  H22  1  0.60854732  0.96185734  0.26741424  1
  H  H23  1  0.10854732  0.53814266  0.73258576  1
  H  H24  1  0.56853838  0.77037160  0.80968732  1
  H  H25  1  0.06853838  0.72962840  0.19031268  1
  H  H26  1  0.43146162  0.27037160  0.69031268  1
  H  H27  1  0.93146162  0.22962840  0.30968732  1
  H  H28  1  0.43146162  0.22962840  0.19031268  1
  H  H29  1  0.93146162  0.27037160  0.80968732  1
  H  H30  1  0.56853838  0.72962840  0.30968732  1
  H  H31  1  0.06853838  0.77037160  0.69031268  1
  H  H32  1  0.48668330  0.67906053  0.82740361  1
  H  H33  1  0.98668330  0.82093947  0.17259639  1
  H  H34  1  0.51331670  0.17906053  0.67259639  1
  H  H35  1  0.01331670  0.32093947  0.32740361  1
  H  H36  1  0.51331670  0.32093947  0.17259639  1
  H  H37  1  0.01331670  0.17906053  0.82740361  1
  H  H38  1  0.48668330  0.82093947  0.32740361  1
  H  H39  1  0.98668330  0.67906053  0.67259639  1
  H  H40  1  0.62586537  0.95502781  0.54073356  1
  H  H41  1  0.12586537  0.54497219  0.45926644  1
  H  H42  1  0.37413463  0.45502781  0.95926644  1
  H  H43  1  0.87413463  0.04497219  0.04073356  1
  H  H44  1  0.37413463  0.04497219  0.45926644  1
  H  H45  1  0.87413463  0.45502781  0.54073356  1
  H  H46  1  0.62586537  0.54497219  0.04073356  1
  H  H47  1  0.12586537  0.95502781  0.95926644  1
  H  H48  1  0.44165792  0.93068490  0.55762210  1
  H  H49  1  0.94165792  0.56931510  0.44237790  1
  H  H50  1  0.55834208  0.43068490  0.94237790  1
  H  H51  1  0.05834208  0.06931510  0.05762210  1
  H  H52  1  0.55834208  0.06931510  0.44237790  1
  H  H53  1  0.05834208  0.43068490  0.55762210  1
  H  H54  1  0.44165792  0.56931510  0.05762210  1
  H  H55  1  0.94165792  0.93068490  0.94237790  1
  H  H56  1  0.56460805  0.95326544  0.61902991  1
  H  H57  1  0.06460805  0.54673456  0.38097009  1
  H  H58  1  0.43539195  0.45326544  0.88097009  1
  H  H59  1  0.93539195  0.04673456  0.11902991  1
  H  H60  1  0.43539195  0.04673456  0.38097009  1
  H  H61  1  0.93539195  0.45326544  0.61902991  1
  H  H62  1  0.56460805  0.54673456  0.11902991  1
  H  H63  1  0.06460805  0.95326544  0.88097009  1
  H  H64  1  0.56018984  0.58433840  0.38500806  1
  H  H65  1  0.06018984  0.91566160  0.61499194  1
  H  H66  1  0.43981016  0.08433840  0.11499194  1
  H  H67  1  0.93981016  0.41566160  0.88500806  1
  H  H68  1  0.43981016  0.41566160  0.61499194  1
  H  H69  1  0.93981016  0.08433840  0.38500806  1
  H  H70  1  0.56018984  0.91566160  0.88500806  1
  H  H71  1  0.06018984  0.58433840  0.11499194  1
  H  H72  1  0.59042956  0.55321227  0.46159067  1
  H  H73  1  0.09042956  0.94678773  0.53840933  1
  H  H74  1  0.40957044  0.05321227  0.03840933  1
  H  H75  1  0.90957044  0.44678773  0.96159067  1
  H  H76  1  0.40957044  0.44678773  0.53840933  1
  H  H77  1  0.90957044  0.05321227  0.46159067  1
  H  H78  1  0.59042956  0.94678773  0.96159067  1
  H  H79  1  0.09042956  0.55321227  0.03840933  1
  H  H80  1  0.43758074  0.51587762  0.42068377  1
  H  H81  1  0.93758074  0.98412238  0.57931623  1
  H  H82  1  0.56241926  0.01587762  0.07931623  1
  H  H83  1  0.06241926  0.48412238  0.92068377  1
  H  H84  1  0.56241926  0.48412238  0.57931623  1
  H  H85  1  0.06241926  0.01587762  0.42068377  1
  H  H86  1  0.43758074  0.98412238  0.92068377  1
  H  H87  1  0.93758074  0.51587762  0.07931623  1
  H  H88  1  0.29245046  0.62781651  0.36159004  1
  H  H89  1  0.79245046  0.87218349  0.63840996  1
  H  H90  1  0.70754954  0.12781651  0.13840996  1
  H  H91  1  0.20754954  0.37218349  0.86159004  1
  H  H92  1  0.70754954  0.37218349  0.63840996  1
  H  H93  1  0.20754954  0.12781651  0.36159004  1
  H  H94  1  0.29245046  0.87218349  0.86159004  1
  H  H95  1  0.79245046  0.62781651  0.13840996  1
  H  H96  1  0.30920579  0.72785099  0.38006769  1
  H  H97  1  0.80920579  0.77214901  0.61993231  1
  H  H98  1  0.69079421  0.22785099  0.11993231  1
  H  H99  1  0.19079421  0.27214901  0.88006769  1
  H  H100  1  0.69079421  0.27214901  0.61993231  1
  H  H101  1  0.19079421  0.22785099  0.38006769  1
  H  H102  1  0.30920579  0.77214901  0.88006769  1
  H  H103  1  0.80920579  0.72785099  0.11993231  1
  H  H104  1  0.62493936  0.93260304  0.38806331  1
  H  H105  1  0.12493936  0.56739696  0.61193669  1
  H  H106  1  0.37506064  0.43260304  0.11193669  1
  H  H107  1  0.87506064  0.06739696  0.88806331  1
  H  H108  1  0.37506064  0.06739696  0.61193669  1
  H  H109  1  0.87506064  0.43260304  0.38806331  1
  H  H110  1  0.62493936  0.56739696  0.88806331  1
  H  H111  1  0.12493936  0.93260304  0.11193669  1
  H  H112  1  0.80461425  0.92035947  0.41771579  1
  H  H113  1  0.30461425  0.57964053  0.58228421  1
  H  H114  1  0.19538575  0.42035947  0.08228421  1
  H  H115  1  0.69538575  0.07964053  0.91771579  1
  H  H116  1  0.19538575  0.07964053  0.58228421  1
  H  H117  1  0.69538575  0.42035947  0.41771579  1
  H  H118  1  0.80461425  0.57964053  0.91771579  1
  H  H119  1  0.30461425  0.92035947  0.08228421  1
  H  H120  1  0.77887241  0.93428572  0.33743663  1
  H  H121  1  0.27887241  0.56571428  0.66256337  1
  H  H122  1  0.22112759  0.43428572  0.16256337  1
  H  H123  1  0.72112759  0.06571428  0.83743663  1
  H  H124  1  0.22112759  0.06571428  0.66256337  1
  H  H125  1  0.72112759  0.43428572  0.33743663  1
  H  H126  1  0.77887241  0.56571428  0.83743663  1
  H  H127  1  0.27887241  0.93428572  0.16256337  1
  C  C0  1  0.58669581  0.70756233  0.81267416  1
  C  C1  1  0.08669581  0.79243767  0.18732584  1
  C  C2  1  0.41330419  0.20756233  0.68732584  1
  C  C3  1  0.91330419  0.29243767  0.31267416  1
  C  C4  1  0.41330419  0.29243767  0.18732584  1
  C  C5  1  0.91330419  0.20756233  0.81267416  1
  C  C6  1  0.58669581  0.79243767  0.31267416  1
  C  C7  1  0.08669581  0.70756233  0.68732584  1
  C  C8  1  0.28300784  0.67054477  0.39860094  1
  C  C9  1  0.78300784  0.82945523  0.60139906  1
  C  C10  1  0.71699216  0.17054477  0.10139906  1
  C  C11  1  0.21699216  0.32945523  0.89860094  1
  C  C12  1  0.71699216  0.32945523  0.60139906  1
  C  C13  1  0.21699216  0.17054477  0.39860094  1
  C  C14  1  0.28300784  0.82945523  0.89860094  1
  C  C15  1  0.78300784  0.67054477  0.10139906  1
  C  C16  1  0.55225286  0.57777441  0.73642249  1
  C  C17  1  0.05225286  0.92222559  0.26357751  1
  C  C18  1  0.44774714  0.07777441  0.76357751  1
  C  C19  1  0.94774714  0.42222559  0.23642249  1
  C  C20  1  0.44774714  0.42222559  0.26357751  1
  C  C21  1  0.94774714  0.07777441  0.73642249  1
  C  C22  1  0.55225286  0.92222559  0.23642249  1
  C  C23  1  0.05225286  0.57777441  0.76357751  1
  C  C24  1  0.55336480  0.92704052  0.57367067  1
  C  C25  1  0.05336480  0.57295948  0.42632933  1
  C  C26  1  0.44663520  0.42704052  0.92632933  1
  C  C27  1  0.94663520  0.07295948  0.07367067  1
  C  C28  1  0.44663520  0.07295948  0.42632933  1
  C  C29  1  0.94663520  0.42704052  0.57367067  1
  C  C30  1  0.55336480  0.57295948  0.07367067  1
  C  C31  1  0.05336480  0.92704052  0.92632933  1
  C  C32  1  0.50712829  0.56673722  0.42758273  1
  C  C33  1  0.00712829  0.93326278  0.57241727  1
  C  C34  1  0.49287171  0.06673722  0.07241727  1
  C  C35  1  0.99287171  0.43326278  0.92758273  1
  C  C36  1  0.49287171  0.43326278  0.57241727  1
  C  C37  1  0.99287171  0.06673722  0.42758273  1
  C  C38  1  0.50712829  0.93326278  0.92758273  1
  C  C39  1  0.00712829  0.56673722  0.07241727  1
  C  C40  1  0.73263707  0.90902420  0.37896875  1
  C  C41  1  0.23263707  0.59097580  0.62103125  1
  C  C42  1  0.26736293  0.40902420  0.12103125  1
  C  C43  1  0.76736293  0.09097580  0.87896875  1
  C  C44  1  0.26736293  0.09097580  0.62103125  1
  C  C45  1  0.76736293  0.40902420  0.37896875  1
  C  C46  1  0.73263707  0.59097580  0.87896875  1
  C  C47  1  0.23263707  0.90902420  0.12103125  1
  S  S0  1  0.63542038  0.67313752  0.73701768  1
  S  S1  1  0.13542038  0.82686248  0.26298232  1
  S  S2  1  0.36457962  0.17313752  0.76298232  1
  S  S3  1  0.86457962  0.32686248  0.23701768  1
  S  S4  1  0.36457962  0.32686248  0.26298232  1
  S  S5  1  0.86457962  0.17313752  0.73701768  1
  S  S6  1  0.63542038  0.82686248  0.23701768  1
  S  S7  1  0.13542038  0.67313752  0.76298232  1
  S  S8  1  0.59505444  0.82477337  0.57835282  1
  S  S9  1  0.09505444  0.67522663  0.42164718  1
  S  S10  1  0.40494556  0.32477337  0.92164718  1
  S  S11  1  0.90494556  0.17522663  0.07835282  1
  S  S12  1  0.40494556  0.17522663  0.42164718  1
  S  S13  1  0.90494556  0.32477337  0.57835282  1
  S  S14  1  0.59505444  0.67522663  0.07835282  1
  S  S15  1  0.09505444  0.82477337  0.92164718  1
  S  S16  1  0.40530712  0.64606803  0.46093120  1
  S  S17  1  0.90530712  0.85393197  0.53906880  1
  S  S18  1  0.59469288  0.14606803  0.03906880  1
  S  S19  1  0.09469288  0.35393197  0.96093120  1
  S  S20  1  0.59469288  0.35393197  0.53906880  1
  S  S21  1  0.09469288  0.14606803  0.46093120  1
  S  S22  1  0.40530712  0.85393197  0.96093120  1
  S  S23  1  0.90530712  0.64606803  0.03906880  1
  S  S24  1  0.72095042  0.80447418  0.37307363  1
  S  S25  1  0.22095042  0.69552582  0.62692637  1
  S  S26  1  0.27904958  0.30447418  0.12692637  1
  S  S27  1  0.77904958  0.19552582  0.87307363  1
  S  S28  1  0.27904958  0.19552582  0.62692637  1
  S  S29  1  0.77904958  0.30447418  0.37307363  1
  S  S30  1  0.72095042  0.69552582  0.87307363  1
  S  S31  1  0.22095042  0.80447418  0.12692637  1
  N  N0  1  0.27355034  0.88354123  0.73076911  1
  N  N1  1  0.77355034  0.61645877  0.26923089  1
  N  N2  1  0.72644966  0.38354123  0.76923089  1
  N  N3  1  0.22644966  0.11645877  0.23076911  1
  N  N4  1  0.72644966  0.11645877  0.26923089  1
  N  N5  1  0.22644966  0.38354123  0.73076911  1
  N  N6  1  0.27355034  0.61645877  0.23076911  1
  N  N7  1  0.77355034  0.88354123  0.76923089  1
  N  N8  1  0.76635873  0.63601093  0.56087956  1
  N  N9  1  0.26635873  0.86398907  0.43912044  1
  N  N10  1  0.23364127  0.13601093  0.93912044  1
  N  N11  1  0.73364127  0.36398907  0.06087956  1
  N  N12  1  0.23364127  0.36398907  0.43912044  1
  N  N13  1  0.73364127  0.13601093  0.56087956  1
  N  N14  1  0.76635873  0.86398907  0.06087956  1
  N  N15  1  0.26635873  0.63601093  0.93912044  1
  O  O0  1  0.34158626  0.82392023  0.75238213  1
  O  O1  1  0.84158626  0.67607977  0.24761787  1
  O  O2  1  0.65841374  0.32392023  0.74761787  1
  O  O3  1  0.15841374  0.17607977  0.25238213  1
  O  O4  1  0.65841374  0.17607977  0.24761787  1
  O  O5  1  0.15841374  0.32392023  0.75238213  1
  O  O6  1  0.34158626  0.67607977  0.25238213  1
  O  O7  1  0.84158626  0.82392023  0.74761787  1
  O  O8  1  0.27954032  0.89718019  0.67392683  1
  O  O9  1  0.77954032  0.60281981  0.32607317  1
  O  O10  1  0.72045968  0.39718019  0.82607317  1
  O  O11  1  0.22045968  0.10281981  0.17392683  1
  O  O12  1  0.72045968  0.10281981  0.32607317  1
  O  O13  1  0.22045968  0.39718019  0.67392683  1
  O  O14  1  0.27954032  0.60281981  0.17392683  1
  O  O15  1  0.77954032  0.89718019  0.82607317  1
  O  O16  1  0.20274978  0.92599840  0.76658207  1
  O  O17  1  0.70274978  0.57400160  0.23341793  1
  O  O18  1  0.79725022  0.42599840  0.73341793  1
  O  O19  1  0.29725022  0.07400160  0.26658207  1
  O  O20  1  0.79725022  0.07400160  0.23341793  1
  O  O21  1  0.29725022  0.42599840  0.76658207  1
  O  O22  1  0.20274978  0.57400160  0.26658207  1
  O  O23  1  0.70274978  0.92599840  0.73341793  1
  O  O24  1  0.79329683  0.67185998  0.51045079  1
  O  O25  1  0.29329683  0.82814002  0.48954921  1
  O  O26  1  0.20670317  0.17185998  0.98954921  1
  O  O27  1  0.70670317  0.32814002  0.01045079  1
  O  O28  1  0.20670317  0.32814002  0.48954921  1
  O  O29  1  0.70670317  0.17185998  0.51045079  1
  O  O30  1  0.79329683  0.82814002  0.01045079  1
  O  O31  1  0.29329683  0.67185998  0.98954921  1
  O  O32  1  0.63709113  0.62178801  0.57571781  1
  O  O33  1  0.13709113  0.87821199  0.42428219  1
  O  O34  1  0.36290887  0.12178801  0.92428219  1
  O  O35  1  0.86290887  0.37821199  0.07571781  1
  O  O36  1  0.36290887  0.37821199  0.42428219  1
  O  O37  1  0.86290887  0.12178801  0.57571781  1
  O  O38  1  0.63709113  0.87821199  0.07571781  1
  O  O39  1  0.13709113  0.62178801  0.92428219  1
  O  O40  1  0.87033974  0.61614681  0.59488336  1
  O  O41  1  0.37033974  0.88385319  0.40511664  1
  O  O42  1  0.12966026  0.11614681  0.90511664  1
  O  O43  1  0.62966026  0.38385319  0.09488336  1
  O  O44  1  0.12966026  0.38385319  0.40511664  1
  O  O45  1  0.62966026  0.11614681  0.59488336  1
  O  O46  1  0.87033974  0.88385319  0.09488336  1
  O  O47  1  0.37033974  0.61614681  0.90511664  1
loop_
_geom_bond_atom_site_label_1
_geom_bond_atom_site_label_2
_geom_bond_distance
_geom_bond_site_symmetry_2
Ag0 O24 2.579918 1_555
Ag0 S16 2.582414 1_555
Ag0 S24 2.587746 1_555
Ag0 S8 2.614885 1_555
Ag1 O25 2.579918 1_555
Ag1 S17 2.582414 1_455
Ag1 S25 2.587746 1_555
Ag1 S9 2.614885 1_555
Ag2 O26 2.579918 1_554
Ag2 S18 2.582414 1_555
Ag2 S26 2.587746 1_555
Ag2 S10 2.614885 1_554
Ag3 O27 2.579918 1_556
Ag3 S19 2.582414 1_655
Ag3 S27 2.587746 1_555
Ag3 S11 2.614885 1_556
Ag4 O28 2.579918 1_555
Ag4 S20 2.582414 1_555
Ag4 S28 2.587746 1_555
Ag4 S12 2.614885 1_555
Ag5 O29 2.579918 1_555
Ag5 S21 2.582414 1_655
Ag5 S29 2.587746 1_555
Ag5 S13 2.614885 1_555
Ag6 O30 2.579918 1_556
Ag6 S22 2.582414 1_555
Ag6 S30 2.587746 1_555
Ag6 S14 2.614885 1_556
Ag7 O31 2.579918 1_554
Ag7 S23 2.582414 1_455
Ag7 S31 2.587746 1_555
Ag7 S15 2.614885 1_554
Ag8 O0 2.409765 1_555
Ag8 S8 2.595327 1_555
Ag8 S0 2.601391 1_555
Ag8 S25 2.698306 1_555
Ag9 O1 2.409765 1_555
Ag9 S9 2.595327 1_655
Ag9 S1 2.601391 1_655
Ag9 S24 2.698306 1_555
Ag10 O2 2.409765 1_555
Ag10 S10 2.595327 1_555
Ag10 S2 2.601391 1_555
Ag10 S27 2.698306 1_555
Ag11 O3 2.409765 1_555
Ag11 S11 2.595327 1_455
Ag11 S3 2.601391 1_455
Ag11 S26 2.698306 1_555
Ag12 O4 2.409765 1_555
Ag12 S12 2.595327 1_555
Ag12 S4 2.601391 1_555
Ag12 S29 2.698306 1_555
Ag13 O5 2.409765 1_555
Ag13 S13 2.595327 1_455
Ag13 S5 2.601391 1_455
Ag13 S28 2.698306 1_555
Ag14 O6 2.409765 1_555
Ag14 S14 2.595327 1_555
Ag14 S6 2.601391 1_555
Ag14 S31 2.698306 1_555
Ag15 O7 2.409765 1_555
Ag15 S15 2.595327 1_655
Ag15 S7 2.601391 1_655
Ag15 S30 2.698306 1_555
C0 H24 1.096561 1_555
C0 H32 1.096902 1_555
C0 S0 1.814383 1_555
C0 S30 1.826017 1_555
C1 H25 1.096561 1_555
C1 H33 1.096902 1_455
C1 S1 1.814383 1_555
C1 S31 1.826017 1_555
C2 H26 1.096561 1_555
C2 H34 1.096902 1_555
C2 S2 1.814383 1_555
C2 S28 1.826017 1_555
C3 H27 1.096561 1_555
C3 H35 1.096902 1_655
C3 S3 1.814383 1_555
C3 S29 1.826017 1_555
C4 H28 1.096561 1_555
C4 H36 1.096902 1_555
C4 S4 1.814383 1_555
C4 S26 1.826017 1_555
C5 H29 1.096561 1_555
C5 H37 1.096902 1_655
C5 S5 1.814383 1_555
C5 S27 1.826017 1_555
C6 H30 1.096561 1_555
C6 H38 1.096902 1_555
C6 S6 1.814383 1_555
C6 S24 1.826017 1_555
C7 H31 1.096561 1_555
C7 H39 1.096902 1_455
C7 S7 1.814383 1_555
C7 S25 1.826017 1_555
C8 H96 1.094077 1_555
C8 H88 1.097274 1_555
C8 S9 1.814573 1_555
C8 S16 1.821832 1_555
C9 H97 1.094077 1_555
C9 H89 1.097274 1_555
C9 S8 1.814573 1_555
C9 S17 1.821832 1_555
C10 H98 1.094077 1_555
C10 H90 1.097274 1_555
C10 S11 1.814573 1_555
C10 S18 1.821832 1_555
C11 H99 1.094077 1_555
C11 H91 1.097274 1_555
C11 S10 1.814573 1_555
C11 S19 1.821832 1_555
C12 H100 1.094077 1_555
C12 H92 1.097274 1_555
C12 S13 1.814573 1_555
C12 S20 1.821832 1_555
C13 H101 1.094077 1_555
C13 H93 1.097274 1_555
C13 S12 1.814573 1_555
C13 S21 1.821832 1_555
C14 H102 1.094077 1_555
C14 H94 1.097274 1_555
C14 S15 1.814573 1_555
C14 S22 1.821832 1_555
C15 H103 1.094077 1_555
C15 H95 1.097274 1_555
C15 S14 1.814573 1_555
C15 S23 1.821832 1_555
C16 H16 1.094091 1_555
C16 H0 1.095327 1_555
C16 H8 1.095969 1_555
C16 S0 1.814032 1_555
C17 H17 1.094091 1_555
C17 H1 1.095327 1_455
C17 H9 1.095969 1_555
C17 S1 1.814032 1_555
C18 H18 1.094091 1_555
C18 H2 1.095327 1_555
C18 H10 1.095969 1_555
C18 S2 1.814032 1_555
C19 H19 1.094091 1_555
C19 H3 1.095327 1_655
C19 H11 1.095969 1_555
C19 S3 1.814032 1_555
C20 H20 1.094091 1_555
C20 H4 1.095327 1_555
C20 H12 1.095969 1_555
C20 S4 1.814032 1_555
C21 H21 1.094091 1_555
C21 H5 1.095327 1_655
C21 H13 1.095969 1_555
C21 S5 1.814032 1_555
C22 H22 1.094091 1_555
C22 H6 1.095327 1_555
C22 H14 1.095969 1_555
C22 S6 1.814032 1_555
C23 H23 1.094091 1_555
C23 H7 1.095327 1_455
C23 H15 1.095969 1_555
C23 S7 1.814032 1_555
C24 H48 1.094606 1_555
C24 H56 1.094777 1_555
C24 H40 1.096430 1_555
C24 S8 1.805860 1_555
C25 H49 1.094606 1_455
C25 H57 1.094777 1_555
C25 H41 1.096430 1_555
C25 S9 1.805860 1_555
C26 H50 1.094606 1_555
C26 H58 1.094777 1_555
C26 H42 1.096430 1_555
C26 S10 1.805860 1_555
C27 H51 1.094606 1_655
C27 H59 1.094777 1_555
C27 H43 1.096430 1_555
C27 S11 1.805860 1_555
C28 H52 1.094606 1_555
C28 H60 1.094777 1_555
C28 H44 1.096430 1_555
C28 S12 1.805860 1_555
C29 H53 1.094606 1_655
C29 H61 1.094777 1_555
C29 H45 1.096430 1_555
C29 S13 1.805860 1_555
C30 H54 1.094606 1_555
C30 H62 1.094777 1_555
C30 H46 1.096430 1_555
C30 S14 1.805860 1_555
C31 H55 1.094606 1_455
C31 H63 1.094777 1_555
C31 H47 1.096430 1_555
C31 S15 1.805860 1_555
C32 H64 1.095538 1_555
C32 H72 1.096739 1_555
C32 H80 1.097727 1_555
C32 S16 1.813262 1_555
C33 H65 1.095538 1_555
C33 H73 1.096739 1_555
C33 H81 1.097727 1_455
C33 S17 1.813262 1_455
C34 H66 1.095538 1_555
C34 H74 1.096739 1_555
C34 H82 1.097727 1_555
C34 S18 1.813262 1_555
C35 H67 1.095538 1_555
C35 H75 1.096739 1_555
C35 H83 1.097727 1_655
C35 S19 1.813262 1_655
C36 H68 1.095538 1_555
C36 H76 1.096739 1_555
C36 H84 1.097727 1_555
C36 S20 1.813262 1_555
C37 H69 1.095538 1_555
C37 H77 1.096739 1_555
C37 H85 1.097727 1_655
C37 S21 1.813262 1_655
C38 H70 1.095538 1_555
C38 H78 1.096739 1_555
C38 H86 1.097727 1_555
C38 S22 1.813262 1_555
C39 H71 1.095538 1_555
C39 H79 1.096739 1_555
C39 H87 1.097727 1_455
C39 S23 1.813262 1_455
C40 H120 1.094288 1_555
C40 H104 1.095441 1_555
C40 H112 1.095729 1_555
C40 S24 1.808263 1_555
C41 H121 1.094288 1_555
C41 H105 1.095441 1_555
C41 H113 1.095729 1_555
C41 S25 1.808263 1_555
C42 H122 1.094288 1_555
C42 H106 1.095441 1_555
C42 H114 1.095729 1_555
C42 S26 1.808263 1_555
C43 H123 1.094288 1_555
C43 H107 1.095441 1_555
C43 H115 1.095729 1_555
C43 S27 1.808263 1_555
C44 H124 1.094288 1_555
C44 H108 1.095441 1_555
C44 H116 1.095729 1_555
C44 S28 1.808263 1_555
C45 H125 1.094288 1_555
C45 H109 1.095441 1_555
C45 H117 1.095729 1_555
C45 S29 1.808263 1_555
C46 H126 1.094288 1_555
C46 H110 1.095441 1_555
C46 H118 1.095729 1_555
C46 S30 1.808263 1_555
C47 H127 1.094288 1_555
C47 H111 1.095441 1_555
C47 H119 1.095729 1_555
C47 S31 1.808263 1_555
N0 O16 1.256209 1_555
N0 O8 1.266140 1_555
N0 O0 1.294137 1_555
N1 O17 1.256209 1_555
N1 O9 1.266140 1_555
N1 O1 1.294137 1_555
N2 O18 1.256209 1_555
N2 O10 1.266140 1_555
N2 O2 1.294137 1_555
N3 O19 1.256209 1_555
N3 O11 1.266140 1_555
N3 O3 1.294137 1_555
N4 O20 1.256209 1_555
N4 O12 1.266140 1_555
N4 O4 1.294137 1_555
N5 O21 1.256209 1_555
N5 O13 1.266140 1_555
N5 O5 1.294137 1_555
N6 O22 1.256209 1_555
N6 O14 1.266140 1_555
N6 O6 1.294137 1_555
N7 O23 1.256209 1_555
N7 O15 1.266140 1_555
N7 O7 1.294137 1_555
N8 O40 1.264081 1_555
N8 O32 1.264738 1_555
N8 O24 1.288144 1_555
N9 O41 1.264081 1_555
N9 O33 1.264738 1_555
N9 O25 1.288144 1_555
N10 O42 1.264081 1_555
N10 O34 1.264738 1_555
N10 O26 1.288144 1_555
N11 O43 1.264081 1_555
N11 O35 1.264738 1_555
N11 O27 1.288144 1_555
N12 O44 1.264081 1_555
N12 O36 1.264738 1_555
N12 O28 1.288144 1_555
N13 O45 1.264081 1_555
N13 O37 1.264738 1_555
N13 O29 1.288144 1_555
N14 O46 1.264081 1_555
N14 O38 1.264738 1_555
N14 O30 1.288144 1_555
N15 O47 1.264081 1_555
N15 O39 1.264738 1_555
N15 O31 1.288144 1_555
