# generated using pymatgen
data_Sr7CaFe7CoO24
_symmetry_space_group_name_H-M   'P 1'
_cell_length_a   7.79804079
_cell_length_b   7.79804079
_cell_length_c   7.79804022
_cell_angle_alpha   90.00967828
_cell_angle_beta   90.00967828
_cell_angle_gamma   90.00967390
_symmetry_Int_Tables_number   1
_chemical_formula_structural   Sr7CaFe7CoO24
_chemical_formula_sum   'Sr7 Ca1 Fe7 Co1 O24'
_cell_volume   474.19443950
_cell_formula_units_Z   1
loop_
 _symmetry_equiv_pos_site_id
 _symmetry_equiv_pos_as_xyz
  1  'x, y, z'
loop_
 _atom_site_type_symbol
 _atom_site_label
 _atom_site_symmetry_multiplicity
 _atom_site_fract_x
 _atom_site_fract_y
 _atom_site_fract_z
 _atom_site_occupancy
  Sr  Sr0  1  0.74866500  0.25143400  0.74866500  1
  Sr  Sr1  1  0.74859900  0.25133400  0.25133400  1
  Sr  Sr2  1  0.74866500  0.74866500  0.25143400  1
  Sr  Sr3  1  0.25133400  0.25133400  0.74859900  1
  Sr  Sr4  1  0.25120400  0.25120400  0.25120400  1
  Sr  Sr5  1  0.25143400  0.74866500  0.74866500  1
  Sr  Sr6  1  0.25133400  0.74859900  0.25133400  1
  Ca  Ca0  1  0.74882700  0.74882700  0.74882700  1
  Fe  Fe0  1  0.50049500  0.99951500  0.99951500  1
  Fe  Fe1  1  0.50048800  0.99940600  0.50048800  1
  Fe  Fe2  1  0.50048800  0.50048800  0.99940600  1
  Fe  Fe3  1  0.99952100  0.99952100  0.99952100  1
  Fe  Fe4  1  0.99951500  0.99951500  0.50049500  1
  Fe  Fe5  1  0.99951500  0.50049500  0.99951500  1
  Fe  Fe6  1  0.99940600  0.50048800  0.50048800  1
  Co  Co0  1  0.50045000  0.50045000  0.50045000  1
  O  O0  1  0.74899200  0.99780800  0.99780800  1
  O  O1  1  0.75099700  0.99774800  0.50230200  1
  O  O2  1  0.75099700  0.50230200  0.99774800  1
  O  O3  1  0.74595700  0.50241400  0.50241400  1
  O  O4  1  0.25102200  0.99972800  0.99972800  1
  O  O5  1  0.24899900  0.99977600  0.50017200  1
  O  O6  1  0.24899900  0.50017200  0.99977600  1
  O  O7  1  0.25400700  0.50009700  0.50009700  1
  O  O8  1  0.50017200  0.24899900  0.99977600  1
  O  O9  1  0.50009700  0.25400700  0.50009700  1
  O  O10  1  0.50230200  0.75099700  0.99774800  1
  O  O11  1  0.50241400  0.74595700  0.50241400  1
  O  O12  1  0.99972800  0.25102200  0.99972800  1
  O  O13  1  0.99977600  0.24899900  0.50017200  1
  O  O14  1  0.99780800  0.74899200  0.99780800  1
  O  O15  1  0.99774800  0.75099700  0.50230200  1
  O  O16  1  0.50230200  0.99774800  0.75099700  1
  O  O17  1  0.50017200  0.99977600  0.24899900  1
  O  O18  1  0.50241400  0.50241400  0.74595700  1
  O  O19  1  0.50009700  0.50009700  0.25400700  1
  O  O20  1  0.99780800  0.99780800  0.74899200  1
  O  O21  1  0.99972800  0.99972800  0.25102200  1
  O  O22  1  0.99774800  0.50230200  0.75099700  1
  O  O23  1  0.99977600  0.50017200  0.24899900  1
loop_
_geom_bond_atom_site_label_1
_geom_bond_atom_site_label_2
_geom_bond_distance
_geom_bond_site_symmetry_2
Ca0 O3 2.717323 1_555
Ca0 O11 2.717323 1_555
Ca0 O18 2.717323 1_555
Ca0 O22 2.732228 1_555
Ca0 O16 2.732228 1_555
Ca0 O10 2.732228 1_555
Ca0 O2 2.732228 1_555
Ca0 O1 2.732228 1_555
Ca0 O15 2.732228 1_555
Ca0 O14 2.745554 1_555
Ca0 O0 2.745554 1_555
Ca0 O20 2.745554 1_555
Fe0 O0 1.937886 1_555
Fe0 O16 1.938054 1_555
Fe0 O10 1.938054 1_555
Fe0 O4 1.945403 1_555
Fe0 O17 1.945489 1_556
Fe0 O8 1.945489 1_565
Fe1 O16 1.953573 1_555
Fe1 O1 1.953573 1_555
Fe1 O17 1.961125 1_555
Fe1 O5 1.961125 1_555
Fe1 O11 1.976525 1_555
Fe1 O9 1.985395 1_565
Fe2 O10 1.953573 1_555
Fe2 O2 1.953573 1_555
Fe2 O8 1.961125 1_555
Fe2 O6 1.961125 1_555
Fe2 O18 1.976525 1_555
Fe2 O19 1.985395 1_556
Fe3 O20 1.953722 1_555
Fe3 O14 1.953722 1_555
Fe3 O0 1.953722 1_555
Fe3 O21 1.961216 1_556
Fe3 O12 1.961216 1_565
Fe3 O4 1.961216 1_655
Fe4 O20 1.937886 1_555
Fe4 O15 1.938054 1_555
Fe4 O1 1.938054 1_555
Fe4 O21 1.945402 1_555
Fe4 O13 1.945489 1_565
Fe4 O5 1.945489 1_655
Fe5 O14 1.937886 1_555
Fe5 O22 1.938054 1_555
Fe5 O2 1.938054 1_555
Fe5 O12 1.945403 1_555
Fe5 O23 1.945489 1_556
Fe5 O6 1.945489 1_655
Fe6 O22 1.953573 1_555
Fe6 O15 1.953573 1_555
Fe6 O23 1.961125 1_555
Fe6 O13 1.961125 1_555
Fe6 O3 1.976525 1_555
Fe6 O7 1.985395 1_655
Co0 O18 1.914591 1_555
Co0 O11 1.914591 1_555
Co0 O3 1.914591 1_555
Co0 O19 1.921775 1_555
Co0 O9 1.921776 1_555
Co0 O7 1.921776 1_555
O0 Sr2 2.772638 1_556
O0 Sr0 2.772638 1_565
O0 Sr1 2.795675 1_566
O1 Sr2 2.756594 1_555
O1 Sr0 2.757421 1_565
O1 Sr1 2.782470 1_565
O2 Sr0 2.756594 1_555
O2 Sr2 2.757421 1_556
O2 Sr1 2.782470 1_556
O3 Sr2 2.742192 1_555
O3 Sr0 2.742192 1_555
O3 Sr1 2.768782 1_555
O4 Sr5 2.768515 1_555
O4 Sr6 2.772341 1_556
O4 Sr3 2.772341 1_565
O4 Sr4 2.773067 1_566
O5 Sr5 2.755176 1_555
O5 Sr3 2.756818 1_565
O5 Sr6 2.756968 1_555
O5 Sr4 2.759527 1_565
O6 Sr5 2.755176 1_555
O6 Sr6 2.756818 1_556
O6 Sr3 2.756968 1_555
O6 Sr4 2.759527 1_556
O7 Sr5 2.741078 1_555
O7 Sr6 2.742254 1_555
O7 Sr3 2.742254 1_555
O7 Sr4 2.744666 1_555
O8 Sr0 2.755176 1_555
O8 Sr1 2.756818 1_556
O8 Sr3 2.756968 1_555
O8 Sr4 2.759527 1_556
O9 Sr0 2.741078 1_555
O9 Sr1 2.742254 1_555
O9 Sr3 2.742254 1_555
O9 Sr4 2.744666 1_555
O10 Sr5 2.756594 1_555
O10 Sr2 2.757421 1_556
O10 Sr6 2.782470 1_556
O11 Sr2 2.742192 1_555
O11 Sr5 2.742192 1_555
O11 Sr6 2.768782 1_555
O12 Sr0 2.768515 1_555
O12 Sr1 2.772341 1_556
O12 Sr3 2.772341 1_655
O12 Sr4 2.773067 1_656
O13 Sr0 2.755176 1_555
O13 Sr3 2.756818 1_655
O13 Sr1 2.756968 1_555
O13 Sr4 2.759527 1_655
O14 Sr2 2.772638 1_556
O14 Sr5 2.772638 1_655
O14 Sr6 2.795675 1_656
O15 Sr2 2.756594 1_555
O15 Sr5 2.757421 1_655
O15 Sr6 2.782470 1_655
O16 Sr5 2.756594 1_555
O16 Sr0 2.757421 1_565
O16 Sr3 2.782470 1_565
O17 Sr2 2.755176 1_555
O17 Sr1 2.756818 1_565
O17 Sr6 2.756968 1_555
O17 Sr4 2.759527 1_565
O18 Sr5 2.742192 1_555
O18 Sr0 2.742192 1_555
O18 Sr3 2.768782 1_555
O19 Sr2 2.741078 1_555
O19 Sr6 2.742254 1_555
O19 Sr1 2.742254 1_555
O19 Sr4 2.744666 1_555
O20 Sr5 2.772638 1_655
O20 Sr0 2.772638 1_565
O20 Sr3 2.795675 1_665
O21 Sr2 2.768516 1_555
O21 Sr6 2.772341 1_655
O21 Sr1 2.772341 1_565
O21 Sr4 2.773067 1_665
O22 Sr0 2.756594 1_555
O22 Sr5 2.757421 1_655
O22 Sr3 2.782470 1_655
O23 Sr2 2.755176 1_555
O23 Sr6 2.756818 1_655
O23 Sr1 2.756968 1_555
O23 Sr4 2.759527 1_655
