# generated using pymatgen
data_Ca2Ta2NiO8
_symmetry_space_group_name_H-M   'P 1'
_cell_length_a   9.93640746
_cell_length_b   9.93640746
_cell_length_c   5.44023915
_cell_angle_alpha   88.56840632
_cell_angle_beta   88.56840632
_cell_angle_gamma   37.17356399
_symmetry_Int_Tables_number   1
_chemical_formula_structural   Ca2Ta2NiO8
_chemical_formula_sum   'Ca4 Ta4 Ni2 O16'
_cell_volume   324.43615551
_cell_formula_units_Z   2
loop_
 _symmetry_equiv_pos_site_id
 _symmetry_equiv_pos_as_xyz
  1  'x, y, z'
loop_
 _atom_site_type_symbol
 _atom_site_label
 _atom_site_symmetry_multiplicity
 _atom_site_fract_x
 _atom_site_fract_y
 _atom_site_fract_z
 _atom_site_occupancy
  Ca  Ca0  1  0.88122500  0.53465400  0.25790800  1
  Ca  Ca1  1  0.46534600  0.11877500  0.24209200  1
  Ca  Ca2  1  0.11877500  0.46534600  0.74209200  1
  Ca  Ca3  1  0.53465400  0.88122500  0.75790800  1
  Ta  Ta0  1  0.03987200  0.74033300  0.25002200  1
  Ta  Ta1  1  0.25966700  0.96012800  0.24997800  1
  Ta  Ta2  1  0.96012800  0.25966700  0.74997800  1
  Ta  Ta3  1  0.74033300  0.03987200  0.75002200  1
  Ni  Ni0  1  0.63342900  0.36657100  0.25000000  1
  Ni  Ni1  1  0.36657100  0.63342900  0.75000000  1
  O  O0  1  0.05794500  0.80621300  0.58694100  1
  O  O1  1  0.19378700  0.94205500  0.91305900  1
  O  O2  1  0.94205500  0.19378700  0.41305900  1
  O  O3  1  0.80621300  0.05794500  0.08694100  1
  O  O4  1  0.30203600  0.58532300  0.08242500  1
  O  O5  1  0.41467700  0.69796400  0.41757500  1
  O  O6  1  0.69796400  0.41467700  0.91757500  1
  O  O7  1  0.58532300  0.30203600  0.58242500  1
  O  O8  1  0.88261000  0.75900900  0.98991700  1
  O  O9  1  0.24099100  0.11739000  0.51008300  1
  O  O10  1  0.47070500  0.15912500  0.83919600  1
  O  O11  1  0.84087500  0.52929500  0.66080400  1
  O  O12  1  0.52929500  0.84087500  0.16080400  1
  O  O13  1  0.15912500  0.47070500  0.33919600  1
  O  O14  1  0.75900900  0.88261000  0.48991700  1
  O  O15  1  0.11739000  0.24099100  0.01008300  1
loop_
_geom_bond_atom_site_label_1
_geom_bond_atom_site_label_2
_geom_bond_distance
_geom_bond_site_symmetry_2
Ca0 O12 2.195753 1_555
Ca0 O11 2.225325 1_555
Ca0 O15 2.228287 1_655
Ca0 O13 2.339883 1_655
Ca0 O8 2.642150 1_554
Ca0 O9 2.862254 1_655
Ca0 O14 2.910685 1_555
Ca1 O13 2.195753 1_555
Ca1 O10 2.225325 1_554
Ca1 O14 2.228287 1_545
Ca1 O12 2.339883 1_545
Ca1 O9 2.642150 1_555
Ca1 O8 2.862254 1_544
Ca1 O15 2.910685 1_555
Ca2 O10 2.195753 1_555
Ca2 O13 2.225325 1_555
Ca2 O8 2.228287 1_455
Ca2 O11 2.339883 1_455
Ca2 O15 2.642150 1_556
Ca2 O14 2.862254 1_455
Ca2 O9 2.910685 1_555
Ca3 O11 2.195753 1_555
Ca3 O12 2.225325 1_556
Ca3 O9 2.228287 1_565
Ca3 O10 2.339883 1_565
Ca3 O14 2.642150 1_555
Ca3 O15 2.862254 1_566
Ca3 O8 2.910685 1_555
Ni0 O6 2.073061 1_554
Ni0 O7 2.073061 1_555
Ni0 O2 2.192769 1_555
Ni0 O3 2.192769 1_555
Ni0 O5 2.245759 1_555
Ni0 O4 2.245759 1_555
Ni1 O5 2.073061 1_555
Ni1 O4 2.073061 1_556
Ni1 O1 2.192769 1_555
Ni1 O0 2.192769 1_555
Ni1 O6 2.245759 1_555
Ni1 O7 2.245759 1_555
O0 Ta0 2.020915 1_555
O0 Ta3 2.103251 1_465
O1 Ta1 2.020915 1_556
O1 Ta2 2.103251 1_465
O2 Ta2 2.020915 1_555
O2 Ta1 2.103251 1_645
O3 Ta3 2.020915 1_554
O3 Ta0 2.103251 1_645
O4 Ta0 1.883342 1_555
O5 Ta1 1.883342 1_555
O6 Ta2 1.883342 1_555
O7 Ta3 1.883342 1_555
O8 Ta0 2.028247 1_656
O8 Ta3 2.261203 1_565
O9 Ta1 2.028247 1_545
O9 Ta2 2.261203 1_455
O10 Ta3 1.929207 1_555
O11 Ta2 1.929207 1_555
O12 Ta1 1.929207 1_555
O13 Ta0 1.929207 1_555
O14 Ta3 2.028247 1_565
O14 Ta0 2.261203 1_655
O15 Ta2 2.028247 1_454
O15 Ta1 2.261203 1_545
