# generated using pymatgen
data_Zr3CoSe6
_symmetry_space_group_name_H-M   'P 1'
_cell_length_a   7.15467915
_cell_length_b   7.15467915
_cell_length_c   7.15467948
_cell_angle_alpha   53.85024721
_cell_angle_beta   53.85024721
_cell_angle_gamma   53.85025328
_symmetry_Int_Tables_number   1
_chemical_formula_structural   Zr3CoSe6
_chemical_formula_sum   'Zr3 Co1 Se6'
_cell_volume   221.75353776
_cell_formula_units_Z   1
loop_
 _symmetry_equiv_pos_site_id
 _symmetry_equiv_pos_as_xyz
  1  'x, y, z'
loop_
 _atom_site_type_symbol
 _atom_site_label
 _atom_site_symmetry_multiplicity
 _atom_site_fract_x
 _atom_site_fract_y
 _atom_site_fract_z
 _atom_site_occupancy
  Zr  Zr0  1  0.50000000  0.50000000  0.50000000  1
  Zr  Zr1  1  0.16790600  0.16790600  0.16790600  1
  Zr  Zr2  1  0.83209400  0.83209400  0.83209400  1
  Co  Co0  1  0.00000000  0.00000000  0.00000000  1
  Se  Se0  1  0.92262700  0.59331000  0.25595200  1
  Se  Se1  1  0.25595200  0.92262700  0.59331000  1
  Se  Se2  1  0.59331000  0.25595200  0.92262700  1
  Se  Se3  1  0.40669000  0.74404800  0.07737300  1
  Se  Se4  1  0.74404800  0.07737300  0.40669000  1
  Se  Se5  1  0.07737300  0.40669000  0.74404800  1
loop_
_geom_bond_atom_site_label_1
_geom_bond_atom_site_label_2
_geom_bond_distance
_geom_bond_site_symmetry_2
Co0 Se0 2.558197 1_445
Co0 Se5 2.558197 1_554
Co0 Se4 2.558198 1_455
Co0 Se1 2.558198 1_544
Co0 Se3 2.558198 1_545
Co0 Se2 2.558198 1_454
Se0 Zr1 2.719627 1_655
Se0 Zr0 2.723042 1_555
Se0 Zr2 2.726578 1_554
Se1 Zr1 2.719627 1_565
Se1 Zr0 2.723043 1_555
Se1 Zr2 2.726578 1_455
Se2 Zr1 2.719627 1_556
Se2 Zr0 2.723043 1_555
Se2 Zr2 2.726578 1_545
Se3 Zr2 2.719627 1_554
Se3 Zr0 2.723043 1_555
Se3 Zr1 2.726578 1_565
Se4 Zr2 2.719627 1_545
Se4 Zr0 2.723043 1_555
Se4 Zr1 2.726578 1_655
Se5 Zr2 2.719627 1_455
Se5 Zr0 2.723042 1_555
Se5 Zr1 2.726578 1_556
