# generated using pymatgen
data_BiH(SeO3)2
_symmetry_space_group_name_H-M   'P 1'
_cell_length_a   4.62245001
_cell_length_b   4.62245001
_cell_length_c   16.45451005
_cell_angle_alpha   89.87526837
_cell_angle_beta   89.87526837
_cell_angle_gamma   103.63948624
_symmetry_Int_Tables_number   1
_chemical_formula_structural   BiH(SeO3)2
_chemical_formula_sum   'Bi2 H2 Se4 O12'
_cell_volume   341.66699676
_cell_formula_units_Z   2
loop_
 _symmetry_equiv_pos_site_id
 _symmetry_equiv_pos_as_xyz
  1  'x, y, z'
loop_
 _atom_site_type_symbol
 _atom_site_label
 _atom_site_symmetry_multiplicity
 _atom_site_fract_x
 _atom_site_fract_y
 _atom_site_fract_z
 _atom_site_occupancy
  Bi  Bi0  1  0.44215500  0.99833500  0.08858900  1
  Bi  Bi1  1  0.99833500  0.44215500  0.58858900  1
  H  H0  1  0.25362600  0.17547100  0.87388900  1
  H  H1  1  0.17547100  0.25362600  0.37388900  1
  Se  Se0  1  0.99032700  0.47518300  0.93744600  1
  Se  Se1  1  0.47518300  0.99032700  0.43744600  1
  Se  Se2  1  0.85135600  0.61417800  0.20523500  1
  Se  Se3  1  0.61417800  0.85135600  0.70523500  1
  O  O0  1  0.85103600  0.15816100  0.99117700  1
  O  O1  1  0.15816100  0.85103600  0.49117700  1
  O  O2  1  0.31866500  0.62770700  0.98565800  1
  O  O3  1  0.62770700  0.31866500  0.48565800  1
  O  O4  1  0.14248500  0.31427100  0.85113400  1
  O  O5  1  0.31427100  0.14248500  0.35113400  1
  O  O6  1  0.73470800  0.23673400  0.19632700  1
  O  O7  1  0.23673400  0.73470800  0.69632700  1
  O  O8  1  0.76870900  0.72904600  0.10644800  1
  O  O9  1  0.72904500  0.76870900  0.60644800  1
  O  O10  1  0.23073100  0.66691700  0.18790700  1
  O  O11  1  0.66691700  0.23073100  0.68790700  1
loop_
_geom_bond_atom_site_label_1
_geom_bond_atom_site_label_2
_geom_bond_distance
_geom_bond_site_symmetry_2
Bi0 O8 2.191084 1_555
Bi0 O10 2.291018 1_555
Bi0 O6 2.345629 1_565
Bi0 O2 2.384345 1_554
Bi0 O0 2.451595 1_564
Bi1 O9 2.191087 1_555
Bi1 O11 2.291018 1_555
Bi1 O7 2.345629 1_655
Bi1 O3 2.384345 1_555
Bi1 O1 2.451595 1_655
H0 O4 0.985402 1_555
H1 O5 0.985402 1_555
O0 Se0 1.700166 1_555
O1 Se1 1.700166 1_555
O2 Se0 1.712576 1_455
O3 Se1 1.712576 1_545
O4 Se0 1.819877 1_455
O5 Se1 1.819877 1_545
O6 Se2 1.707054 1_555
O7 Se3 1.707054 1_555
O8 Se2 1.778965 1_555
O9 Se3 1.778963 1_555
O10 Se2 1.735478 1_455
O11 Se3 1.735478 1_545
