# generated using pymatgen
data_TiFeH2
_symmetry_space_group_name_H-M   'P 1'
_cell_length_a   5.23992610
_cell_length_b   5.23992610
_cell_length_c   2.64420200
_cell_angle_alpha   90.00000000
_cell_angle_beta   90.00000000
_cell_angle_gamma   96.50415419
_symmetry_Int_Tables_number   1
_chemical_formula_structural   TiFeH2
_chemical_formula_sum   'Ti2 Fe2 H4'
_cell_volume   72.13410472
_cell_formula_units_Z   2
loop_
 _symmetry_equiv_pos_site_id
 _symmetry_equiv_pos_as_xyz
  1  'x, y, z'
loop_
 _atom_site_type_symbol
 _atom_site_label
 _atom_site_symmetry_multiplicity
 _atom_site_fract_x
 _atom_site_fract_y
 _atom_site_fract_z
 _atom_site_occupancy
  Ti  Ti0  1  0.28185900  0.28185900  0.00000000  1
  Ti  Ti1  1  0.71814100  0.71814100  0.00000000  1
  Fe  Fe0  1  0.76614600  0.23385400  0.00000000  1
  Fe  Fe1  1  0.23385400  0.76614600  0.00000000  1
  H  H0  1  0.00000000  0.50000000  0.00000000  1
  H  H1  1  0.00000000  0.00000000  0.00000000  1
  H  H2  1  0.50000000  0.00000000  0.00000000  1
  H  H3  1  0.50000000  0.50000000  0.50000000  1
loop_
_geom_bond_atom_site_label_1
_geom_bond_atom_site_label_2
_geom_bond_distance
_geom_bond_site_symmetry_2
Fe0 H2 1.749076 1_555
Fe0 H0 1.749076 1_655
Fe0 H1 1.828463 1_655
Fe1 H2 1.749076 1_565
Fe1 H0 1.749076 1_555
Fe1 H1 1.828463 1_565
H0 Ti1 1.967308 1_455
H0 Ti0 1.967308 1_555
H1 Ti1 1.966828 1_445
H1 Ti0 1.966828 1_555
H2 Ti1 1.967308 1_545
H2 Ti0 1.967308 1_555
H3 Ti0 2.016196 1_555
H3 Ti0 2.016196 1_556
H3 Ti1 2.016196 1_555
H3 Ti1 2.016196 1_556
