# generated using pymatgen
data_Sr2CaTi3O9
_symmetry_space_group_name_H-M   'P 1'
_cell_length_a   3.92825800
_cell_length_b   3.92825800
_cell_length_c   11.78460200
_cell_angle_alpha   90.00000000
_cell_angle_beta   90.00000000
_cell_angle_gamma   90.00000000
_symmetry_Int_Tables_number   1
_chemical_formula_structural   Sr2CaTi3O9
_chemical_formula_sum   'Sr2 Ca1 Ti3 O9'
_cell_volume   181.85067901
_cell_formula_units_Z   1
loop_
 _symmetry_equiv_pos_site_id
 _symmetry_equiv_pos_as_xyz
  1  'x, y, z'
loop_
 _atom_site_type_symbol
 _atom_site_label
 _atom_site_symmetry_multiplicity
 _atom_site_fract_x
 _atom_site_fract_y
 _atom_site_fract_z
 _atom_site_occupancy
  Sr  Sr0  1  0.50000000  0.50000000  0.66678900  1
  Sr  Sr1  1  0.50000000  0.50000000  0.33321100  1
  Ca  Ca0  1  0.50000000  0.50000000  0.00000000  1
  Ti  Ti0  1  0.00000000  0.00000000  0.16573000  1
  Ti  Ti1  1  0.00000000  0.00000000  0.83427000  1
  Ti  Ti2  1  0.00000000  0.00000000  0.50000000  1
  O  O0  1  0.50000000  0.00000000  0.83439100  1
  O  O1  1  0.50000000  0.00000000  0.50000000  1
  O  O2  1  0.50000000  0.00000000  0.16560900  1
  O  O3  1  0.00000000  0.50000000  0.83439100  1
  O  O4  1  0.00000000  0.50000000  0.50000000  1
  O  O5  1  0.00000000  0.50000000  0.16560900  1
  O  O6  1  0.00000000  0.00000000  0.00000000  1
  O  O7  1  0.00000000  0.00000000  0.66681200  1
  O  O8  1  0.00000000  0.00000000  0.33318800  1
loop_
_geom_bond_atom_site_label_1
_geom_bond_atom_site_label_2
_geom_bond_distance
_geom_bond_site_symmetry_2
Ca0 O5 2.768878 1_655
Ca0 O3 2.768878 1_554
Ca0 O0 2.768878 1_554
Ca0 O2 2.768878 1_565
Ca0 O5 2.768878 1_555
Ca0 O3 2.768878 1_654
Ca0 O2 2.768878 1_555
Ca0 O0 2.768878 1_564
Ca0 O6 2.777698 1_665
Ca0 O6 2.777698 1_655
Ca0 O6 2.777698 1_555
Ca0 O6 2.777698 1_565
O0 Ti1 1.964130 1_555
O0 Ti1 1.964130 1_655
O0 Sr0 2.785483 1_555
O0 Sr0 2.785483 1_545
O1 Ti2 1.964129 1_555
O1 Ti2 1.964129 1_655
O1 Sr0 2.778697 1_545
O1 Sr0 2.778697 1_555
O1 Sr1 2.778697 1_545
O1 Sr1 2.778697 1_555
O2 Ti0 1.964130 1_555
O2 Ti0 1.964130 1_655
O2 Sr1 2.785483 1_555
O2 Sr1 2.785483 1_545
O3 Ti1 1.964130 1_555
O3 Ti1 1.964130 1_565
O3 Sr0 2.785483 1_555
O3 Sr0 2.785483 1_455
O4 Ti2 1.964129 1_555
O4 Ti2 1.964129 1_565
O4 Sr0 2.778697 1_555
O4 Sr0 2.778697 1_455
O4 Sr1 2.778697 1_455
O4 Sr1 2.778697 1_555
O5 Ti0 1.964130 1_555
O5 Ti0 1.964130 1_565
O5 Sr1 2.785483 1_455
O5 Sr1 2.785483 1_555
O6 Ti1 1.953062 1_554
O6 Ti0 1.953062 1_555
O7 Ti2 1.965813 1_555
O7 Ti1 1.973426 1_555
O7 Sr0 2.777698 1_555
O7 Sr0 2.777698 1_445
O7 Sr0 2.777698 1_545
O7 Sr0 2.777698 1_455
O8 Ti2 1.965813 1_555
O8 Ti0 1.973426 1_555
O8 Sr1 2.777698 1_455
O8 Sr1 2.777698 1_555
O8 Sr1 2.777698 1_445
O8 Sr1 2.777698 1_545
