# generated using pymatgen
data_CaMn6(OF2)4
_symmetry_space_group_name_H-M   'P 1'
_cell_length_a   5.53107320
_cell_length_b   7.96633347
_cell_length_c   6.17186887
_cell_angle_alpha   98.33246074
_cell_angle_beta   83.23200395
_cell_angle_gamma   93.67327961
_symmetry_Int_Tables_number   1
_chemical_formula_structural   CaMn6(OF2)4
_chemical_formula_sum   'Ca1 Mn6 O4 F8'
_cell_volume   266.89568663
_cell_formula_units_Z   1
loop_
 _symmetry_equiv_pos_site_id
 _symmetry_equiv_pos_as_xyz
  1  'x, y, z'
loop_
 _atom_site_type_symbol
 _atom_site_label
 _atom_site_symmetry_multiplicity
 _atom_site_fract_x
 _atom_site_fract_y
 _atom_site_fract_z
 _atom_site_occupancy
  Ca  Ca0  1  0.98573900  0.50404800  0.01050400  1
  Mn  Mn0  1  0.50986900  0.00502000  0.51110400  1
  Mn  Mn1  1  0.52615200  0.68890300  0.15348600  1
  Mn  Mn2  1  0.50508800  0.32634800  0.83726500  1
  Mn  Mn3  1  0.89965700  0.72063600  0.61483100  1
  Mn  Mn4  1  0.11875500  0.30369700  0.41478700  1
  Mn  Mn5  1  0.01633100  0.98021900  0.02945900  1
  O  O0  1  0.84588700  0.75292200  0.95277900  1
  O  O1  1  0.64613400  0.79219200  0.44744000  1
  O  O2  1  0.59831300  0.43346500  0.10345500  1
  O  O3  1  0.37417100  0.22502100  0.57127900  1
  F  F0  1  0.85936000  0.42396200  0.66475100  1
  F  F1  1  0.83684400  0.10516400  0.34305300  1
  F  F2  1  0.66679900  0.10699800  0.81871500  1
  F  F3  1  0.35234800  0.54473000  0.82170600  1
  F  F4  1  0.31718700  0.91961800  0.20595900  1
  F  F5  1  0.12159400  0.56779600  0.34734400  1
  F  F6  1  0.15071500  0.24350200  0.05054100  1
  F  F7  1  0.19683000  0.91408800  0.68487500  1
loop_
_geom_bond_atom_site_label_1
_geom_bond_atom_site_label_2
_geom_bond_distance
_geom_bond_site_symmetry_2
Ca0 O2 2.210559 1_555
Ca0 F3 2.245636 1_654
Ca0 O0 2.263233 1_554
Ca0 F5 2.271080 1_655
Ca0 F0 2.312835 1_554
Ca0 F6 2.376191 1_655
Mn0 O1 1.870260 1_545
Mn0 O3 1.920175 1_555
Mn1 O1 2.046970 1_555
Mn1 O2 2.070843 1_555
Mn1 O0 2.115012 1_554
Mn2 O2 1.852053 1_556
Mn2 O3 1.921480 1_555
Mn3 O1 1.993277 1_555
Mn3 O0 2.052596 1_555
Mn4 O3 1.982925 1_555
Mn5 O0 2.007364 1_454
F0 Mn4 2.140667 1_655
F0 Mn2 2.265170 1_555
F0 Mn3 2.420257 1_555
F1 Mn0 2.143782 1_555
F1 Mn4 2.184606 1_655
F1 Mn5 2.199473 1_645
F2 Mn2 1.996179 1_555
F2 Mn0 2.206548 1_555
F3 Mn2 2.001342 1_555
F3 Mn1 2.465199 1_556
F4 Mn1 2.197790 1_555
F4 Mn5 2.207128 1_555
F4 Mn0 2.270318 1_565
F5 Mn3 2.201383 1_455
F5 Mn4 2.201807 1_555
F5 Mn1 2.606967 1_555
F6 Mn5 2.170814 1_545
F6 Mn4 2.218063 1_555
F6 Mn2 2.342651 1_554
F7 Mn0 2.073561 1_565
F7 Mn3 2.216619 1_455
F7 Mn5 2.244869 1_556
