# generated using pymatgen
data_Li2O
_symmetry_space_group_name_H-M   'P 1'
_cell_length_a   9.57315243
_cell_length_b   10.14605409
_cell_length_c   10.10366749
_cell_angle_alpha   86.13106221
_cell_angle_beta   89.99998293
_cell_angle_gamma   90.33051888
_symmetry_Int_Tables_number   1
_chemical_formula_structural   Li2O
_chemical_formula_sum   'Li68 O34'
_cell_volume   979.11352344
_cell_formula_units_Z   34
loop_
 _symmetry_equiv_pos_site_id
 _symmetry_equiv_pos_as_xyz
  1  'x, y, z'
loop_
 _atom_site_type_symbol
 _atom_site_label
 _atom_site_symmetry_multiplicity
 _atom_site_fract_x
 _atom_site_fract_y
 _atom_site_fract_z
 _atom_site_occupancy
  Li  Li0  1  0.73560900  0.29166000  0.43267100  1
  Li  Li1  1  0.20629000  0.34873400  0.63873300  1
  Li  Li2  1  0.94032400  0.84400400  0.96894700  1
  Li  Li3  1  0.15756800  0.96613100  0.14521200  1
  Li  Li4  1  0.73986100  0.82144300  0.19359300  1
  Li  Li5  1  0.85200200  0.49104700  0.54630000  1
  Li  Li6  1  0.19749000  0.77097800  0.85251600  1
  Li  Li7  1  0.88449100  0.33612900  0.24700900  1
  Li  Li8  1  0.19586100  0.39531900  0.20868600  1
  Li  Li9  1  0.10491800  0.61031600  0.53175000  1
  Li  Li10  1  0.49804200  0.55274800  0.95210900  1
  Li  Li11  1  0.28896300  0.57858300  0.06008400  1
  Li  Li12  1  0.61625000  0.70587500  0.52385200  1
  Li  Li13  1  0.94950100  0.31040800  0.47409300  1
  Li  Li14  1  0.42386400  0.45646900  0.76033900  1
  Li  Li15  1  0.41880000  0.23724800  0.64591800  1
  Li  Li16  1  0.82236100  0.54172000  0.17188900  1
  Li  Li17  1  0.26622300  0.28053400  0.96522100  1
  Li  Li18  1  0.16025700  0.97731700  0.92442600  1
  Li  Li19  1  0.25953600  0.39177300  0.42295600  1
  Li  Li20  1  0.64952800  0.30222800  0.12963400  1
  Li  Li21  1  0.23883800  0.82554900  0.62125900  1
  Li  Li22  1  0.42589400  0.56939300  0.42158700  1
  Li  Li23  1  0.82321400  0.66230500  0.39400600  1
  Li  Li24  1  0.04931700  0.15984900  0.87881400  1
  Li  Li25  1  0.51926200  0.89463200  0.10858000  1
  Li  Li26  1  0.44639400  0.81259400  0.35060500  1
  Li  Li27  1  0.86607900  0.12929700  0.68354600  1
  Li  Li28  1  0.68689100  0.64255300  0.74819200  1
  Li  Li29  1  0.73774300  0.94756500  0.79701400  1
  Li  Li30  1  0.45903900  0.81310600  0.85733400  1
  Li  Li31  1  0.44906500  0.23464300  0.39711800  1
  Li  Li32  1  0.71828900  0.29431400  0.81188300  1
  Li  Li33  1  0.26602500  0.05943000  0.62655000  1
  Li  Li34  1  0.18057000  0.84821500  0.39523800  1
  Li  Li35  1  0.64697300  0.51141800  0.30316000  1
  Li  Li36  1  0.95446700  0.62912700  0.73491800  1
  Li  Li37  1  0.15228900  0.52006400  0.83081200  1
  Li  Li38  1  0.06968000  0.99685000  0.70682600  1
  Li  Li39  1  0.61667500  0.40933200  0.64264800  1
  Li  Li40  1  0.53676000  0.09949200  0.19652800  1
  Li  Li41  1  0.96023000  0.35152400  0.00415600  1
  Li  Li42  1  0.33005000  0.04572200  0.38582600  1
  Li  Li43  1  0.66502100  0.67730700  0.02836600  1
  Li  Li44  1  0.11757200  0.14598100  0.42539800  1
  Li  Li45  1  0.01287800  0.73785300  0.17724100  1
  Li  Li46  1  0.62142200  0.06010600  0.44767900  1
  Li  Li47  1  0.30875500  0.13978100  0.15715200  1
  Li  Li48  1  0.07713200  0.20132000  0.20462800  1
  Li  Li49  1  0.74999900  0.45215000  0.94787700  1
  Li  Li50  1  0.49765200  0.62705000  0.18778800  1
  Li  Li51  1  0.00816000  0.51288600  0.33923400  1
  Li  Li52  1  0.31003200  0.81250300  0.09863100  1
  Li  Li53  1  0.36454800  0.09988100  0.83560900  1
  Li  Li54  1  0.96321200  0.37288700  0.71533200  1
  Li  Li55  1  0.31418100  0.60875900  0.62133100  1
  Li  Li56  1  0.22453600  0.64946000  0.32647200  1
  Li  Li57  1  0.98372000  0.58352500  0.01125700  1
  Li  Li58  1  0.98592000  0.79581900  0.52986600  1
  Li  Li59  1  0.77845700  0.11389300  0.24203400  1
  Li  Li60  1  0.83788200  0.07745800  0.00487100  1
  Li  Li61  1  0.60597800  0.13784300  0.97638700  1
  Li  Li62  1  0.50289400  0.33014900  0.91742600  1
  Li  Li63  1  0.75293600  0.84393800  0.62005300  1
  Li  Li64  1  0.91853900  0.03278600  0.46289600  1
  Li  Li65  1  0.63243700  0.14222400  0.64098300  1
  Li  Li66  1  0.44556400  0.38410600  0.16565000  1
  Li  Li67  1  0.47940200  0.94145300  0.66468300  1
  O  O0  1  0.13140900  0.81076200  0.03360200  1
  O  O1  1  0.08160100  0.43094300  0.51986900  1
  O  O2  1  0.14072900  0.13227200  0.04505300  1
  O  O3  1  0.45520000  0.22402000  0.06728600  1
  O  O4  1  0.79773600  0.30601100  0.62651700  1
  O  O5  1  0.62345600  0.20892600  0.31524600  1
  O  O6  1  0.33402400  0.52029700  0.25355500  1
  O  O7  1  0.78560600  0.25796600  0.99699300  1
  O  O8  1  0.03630100  0.71095700  0.36309000  1
  O  O9  1  0.01714300  0.44685300  0.15495300  1
  O  O10  1  0.81699200  0.46272900  0.36656000  1
  O  O11  1  0.62432300  0.49336800  0.11372800  1
  O  O12  1  0.61011300  0.69896500  0.33683700  1
  O  O13  1  0.11162700  0.96835200  0.52178800  1
  O  O14  1  0.76582100  0.01935300  0.57644800  1
  O  O15  1  0.95713800  0.48274800  0.85956400  1
  O  O16  1  0.54232700  0.18895900  0.79339800  1
  O  O17  1  0.46365800  0.73136300  0.02967800  1
  O  O18  1  0.81998400  0.67467700  0.59015300  1
  O  O19  1  0.68521800  0.99327700  0.11955300  1
  O  O20  1  0.92889600  0.00555400  0.84500500  1
  O  O21  1  0.30032900  0.92479800  0.78107100  1
  O  O22  1  0.60764000  0.81277300  0.73771800  1
  O  O23  1  0.25764400  0.22951500  0.31845000  1
  O  O24  1  0.34659500  0.94134300  0.23065000  1
  O  O25  1  0.60978200  0.48021900  0.81243000  1
  O  O26  1  0.44644700  0.08778300  0.53530600  1
  O  O27  1  0.94007100  0.17702900  0.34024600  1
  O  O28  1  0.40356900  0.42561500  0.57557000  1
  O  O29  1  0.84703400  0.71122500  0.08042900  1
  O  O30  1  0.31902300  0.46434700  0.91813700  1
  O  O31  1  0.32437800  0.72430000  0.47262200  1
  O  O32  1  0.18517300  0.19078300  0.73889900  1
  O  O33  1  0.14464400  0.67363700  0.70441600  1
loop_
_geom_bond_atom_site_label_1
_geom_bond_atom_site_label_2
_geom_bond_distance
_geom_bond_site_symmetry_2
Li0 O5 1.840916 1_555
Li0 O10 1.973239 1_555
Li0 O4 2.061154 1_555
Li1 O32 1.846822 1_555
Li1 O1 1.854501 1_555
Li1 O28 2.120919 1_555
Li2 O29 1.913782 1_556
Li2 O0 1.965748 1_656
Li2 O20 1.997962 1_565
Li3 O2 1.914291 1_565
Li3 O0 2.013621 1_555
Li3 O24 2.014691 1_555
Li4 O19 1.925448 1_555
Li4 O29 1.948401 1_555
Li4 O12 2.218370 1_555
Li5 O10 1.887368 1_555
Li5 O18 1.969637 1_555
Li5 O4 2.057851 1_555
Li5 O1 2.304730 1_655
Li6 O33 1.914180 1_555
Li6 O21 1.938098 1_555
Li6 O0 2.003319 1_556
Li7 O27 1.892352 1_555
Li7 O9 1.892702 1_655
Li7 O10 1.935316 1_555
Li8 O9 1.862070 1_555
Li8 O6 1.902911 1_555
Li8 O23 2.041922 1_555
Li9 O1 1.844226 1_555
Li9 O33 1.936312 1_555
Li9 O8 2.037396 1_555
Li10 O25 1.956196 1_555
Li10 O30 1.970564 1_555
Li10 O17 2.050692 1_556
Li10 O11 2.089636 1_556
Li11 O30 1.926462 1_554
Li11 O6 2.050332 1_555
Li11 O17 2.280333 1_555
Li12 O12 1.896457 1_555
Li12 O18 2.081206 1_555
Li13 O1 1.835011 1_655
Li13 O27 1.978355 1_555
Li13 O4 2.115308 1_555
Li13 O10 2.230261 1_555
Li14 O25 1.874833 1_555
Li14 O30 1.890438 1_555
Li14 O28 1.923283 1_555
Li15 O16 1.940871 1_555
Li15 O26 1.962678 1_555
Li15 O28 1.999743 1_555
Li15 O32 2.456629 1_555
Li16 O29 1.910052 1_555
Li16 O11 2.051440 1_555
Li16 O10 2.073745 1_555
Li16 O9 2.115583 1_655
Li17 O30 1.956869 1_555
Li17 O2 2.042583 1_556
Li17 O3 2.144121 1_556
Li17 O32 2.633063 1_555
Li18 O0 1.972763 1_556
Li18 O2 2.062544 1_566
Li18 O21 2.071793 1_555
Li18 O20 2.368094 1_465
Li19 O23 2.014872 1_555
Li19 O1 2.019560 1_555
Li19 O28 2.112524 1_555
Li19 O6 2.196927 1_555
Li20 O7 1.944914 1_554
Li20 O11 1.951496 1_555
Li20 O5 2.057454 1_555
Li20 O3 2.130196 1_555
Li21 O33 1.924546 1_555
Li21 O21 2.044589 1_555
Li21 O31 2.049174 1_555
Li21 O13 2.101489 1_555
Li22 O31 1.951294 1_555
Li22 O6 2.003252 1_555
Li22 O28 2.069863 1_555
Li22 O12 2.322280 1_555
Li23 O18 1.994461 1_555
Li23 O10 2.062786 1_555
Li23 O8 2.114252 1_655
Li23 O12 2.147918 1_555
Li24 O2 1.898586 1_556
Li24 O32 1.929721 1_555
Li24 O20 1.986893 1_455
Li25 O19 1.880073 1_555
Li25 O17 1.957301 1_555
Li25 O24 2.136819 1_555
Li26 O31 1.877674 1_555
Li26 O12 1.961489 1_555
Li26 O24 1.972012 1_555
Li27 O14 1.867342 1_555
Li27 O4 1.961848 1_555
Li27 O20 2.081218 1_555
Li28 O25 1.876337 1_555
Li28 O22 1.886794 1_555
Li28 O18 2.050432 1_555
Li29 O22 1.967602 1_555
Li29 O20 1.988976 1_565
Li29 O14 2.312528 1_565
Li30 O22 1.866807 1_555
Li30 O17 1.878161 1_556
Li30 O21 2.021982 1_555
Li31 O5 1.890408 1_555
Li31 O26 1.972076 1_555
Li31 O23 1.999254 1_555
Li32 O7 1.989711 1_555
Li32 O16 2.005306 1_555
Li32 O4 2.017216 1_555
Li32 O25 2.158891 1_555
Li33 O26 1.968343 1_555
Li33 O32 1.969722 1_555
Li33 O21 2.031889 1_545
Li33 O13 2.067669 1_545
Li34 O13 1.943149 1_555
Li34 O31 1.993637 1_555
Li34 O8 1.997806 1_555
Li34 O24 2.440276 1_555
Li35 O10 1.808337 1_555
Li35 O11 1.946955 1_555
Li35 O12 1.989045 1_555
Li36 O15 1.881610 1_555
Li36 O33 1.893466 1_655
Li36 O18 1.981429 1_555
Li37 O30 1.894437 1_555
Li37 O15 1.922223 1_455
Li37 O33 1.948562 1_555
Li38 O20 1.947143 1_465
Li38 O13 1.953051 1_555
Li38 O32 2.293479 1_565
Li38 O21 2.432529 1_555
Li39 O25 1.905610 1_555
Li39 O4 2.043020 1_555
Li39 O28 2.153460 1_555
Li40 O5 1.878698 1_555
Li40 O3 1.923506 1_555
Li40 O19 1.979100 1_545
Li40 O24 2.428857 1_545
Li41 O15 1.909383 1_554
Li41 O7 1.921420 1_554
Li41 O9 1.935588 1_655
Li42 O26 1.945826 1_555
Li42 O24 1.957240 1_545
Li42 O23 2.065154 1_555
Li43 O29 1.857077 1_555
Li43 O17 2.007512 1_555
Li43 O11 2.037880 1_555
Li44 O23 1.883439 1_555
Li44 O27 1.922619 1_455
Li44 O13 1.990404 1_545
Li45 O29 1.892387 1_455
Li45 O8 1.892689 1_555
Li45 O0 1.945879 1_555
Li46 O26 1.925492 1_555
Li46 O14 1.925765 1_555
Li46 O5 1.948769 1_555
Li47 O3 1.844399 1_555
Li47 O2 1.971355 1_555
Li47 O23 1.982326 1_555
Li47 O24 2.131421 1_545
Li48 O27 1.900161 1_455
Li48 O2 1.902181 1_555
Li48 O23 2.104589 1_555
Li49 O25 1.925504 1_555
Li49 O7 2.029768 1_555
Li49 O11 2.128552 1_556
Li49 O15 2.186378 1_555
Li50 O17 1.885161 1_555
Li50 O6 1.987893 1_555
Li50 O11 2.006496 1_555
Li50 O12 2.024489 1_555
Li51 O10 1.911724 1_455
Li51 O9 2.022867 1_555
Li51 O8 2.056318 1_555
Li51 O1 2.078076 1_555
Li52 O0 1.832285 1_555
Li52 O17 1.848617 1_555
Li52 O24 1.959741 1_555
Li53 O16 1.955875 1_555
Li53 O21 1.989143 1_545
Li53 O32 2.156568 1_555
Li54 O15 1.894580 1_555
Li54 O4 1.960835 1_555
Li54 O1 2.316674 1_655
Li55 O31 1.844530 1_555
Li55 O33 1.964443 1_555
Li55 O28 2.129128 1_555
Li56 O6 1.872141 1_555
Li56 O31 1.952839 1_555
Li56 O8 1.953851 1_555
Li57 O15 1.915138 1_554
Li57 O9 1.966363 1_655
Li57 O29 2.005276 1_555
Li58 O8 2.003481 1_655
Li58 O18 2.069207 1_555
Li58 O13 2.115568 1_655
Li59 O5 1.947160 1_555
Li59 O27 1.965463 1_555
Li59 O19 2.004380 1_545
Li60 O7 1.897860 1_554
Li60 O19 2.014958 1_545
Li60 O20 2.016609 1_554
Li61 O3 1.953042 1_556
Li61 O16 1.983129 1_555
Li61 O7 2.120346 1_555
Li61 O19 2.132077 1_546
Li62 O3 1.853337 1_556
Li62 O16 2.003364 1_555
Li62 O25 2.062730 1_555
Li62 O30 2.231886 1_555
Li63 O14 1.807913 1_565
Li63 O22 1.841807 1_555
Li63 O18 1.880214 1_555
Li64 O14 1.857115 1_555
Li64 O27 1.863262 1_555
Li64 O13 2.039534 1_645
Li65 O16 1.855719 1_555
Li65 O14 1.933353 1_555
Li65 O26 2.164163 1_555
Li65 O4 2.285583 1_555
Li66 O3 1.963148 1_555
Li66 O6 2.005249 1_555
Li66 O11 2.081415 1_555
Li67 O22 1.909107 1_555
Li67 O26 1.938043 1_565
Li67 O21 2.078472 1_555
