# generated using pymatgen
data_Co4NiSb12
_symmetry_space_group_name_H-M   'P 1'
_cell_length_a   7.87328983
_cell_length_b   7.87328983
_cell_length_c   7.87328983
_cell_angle_alpha   109.47122063
_cell_angle_beta   109.47122063
_cell_angle_gamma   109.47122063
_symmetry_Int_Tables_number   1
_chemical_formula_structural   Co4NiSb12
_chemical_formula_sum   'Co4 Ni1 Sb12'
_cell_volume   375.70487052
_cell_formula_units_Z   1
loop_
 _symmetry_equiv_pos_site_id
 _symmetry_equiv_pos_as_xyz
  1  'x, y, z'
loop_
 _atom_site_type_symbol
 _atom_site_label
 _atom_site_symmetry_multiplicity
 _atom_site_fract_x
 _atom_site_fract_y
 _atom_site_fract_z
 _atom_site_occupancy
  Co  Co0  1  0.00000000  0.00000000  0.50000000  1
  Co  Co1  1  0.50000000  0.00000000  0.00000000  1
  Co  Co2  1  0.00000000  0.50000000  0.00000000  1
  Co  Co3  1  0.50000000  0.50000000  0.50000000  1
  Ni  Ni0  1  0.00000000  0.00000000  0.00000000  1
  Sb  Sb0  1  0.15813200  0.83467200  0.67654000  1
  Sb  Sb1  1  0.84186800  0.16532800  0.32346000  1
  Sb  Sb2  1  0.84186800  0.51840800  0.67654000  1
  Sb  Sb3  1  0.15813200  0.48159200  0.32346000  1
  Sb  Sb4  1  0.83467200  0.67654000  0.15813200  1
  Sb  Sb5  1  0.16532800  0.32346000  0.84186800  1
  Sb  Sb6  1  0.51840800  0.67654000  0.84186800  1
  Sb  Sb7  1  0.48159200  0.32346000  0.15813200  1
  Sb  Sb8  1  0.67654000  0.15813200  0.83467200  1
  Sb  Sb9  1  0.32346000  0.84186800  0.16532800  1
  Sb  Sb10  1  0.67654000  0.84186800  0.51840800  1
  Sb  Sb11  1  0.32346000  0.15813200  0.48159200  1
loop_
_geom_bond_atom_site_label_1
_geom_bond_atom_site_label_2
_geom_bond_distance
_geom_bond_site_symmetry_2
Co0 Sb10 2.511832 1_445
Co0 Sb4 2.511832 1_445
Co0 Sb1 2.511832 1_455
Co0 Sb5 2.511832 1_555
Co0 Sb0 2.511832 1_545
Co0 Sb11 2.511832 1_555
Co1 Sb6 2.511832 1_544
Co1 Sb8 2.511832 1_554
Co1 Sb9 2.511832 1_545
Co1 Sb0 2.511832 1_544
Co1 Sb1 2.511832 1_555
Co1 Sb7 2.511832 1_555
Co2 Sb9 2.511832 1_555
Co2 Sb2 2.511832 1_454
Co2 Sb8 2.511832 1_454
Co2 Sb4 2.511832 1_455
Co2 Sb5 2.511832 1_554
Co2 Sb3 2.511832 1_555
Co3 Sb11 2.511832 1_555
Co3 Sb3 2.511832 1_555
Co3 Sb7 2.511832 1_555
Co3 Sb10 2.511832 1_555
Co3 Sb2 2.511832 1_555
Co3 Sb6 2.511832 1_555
Ni0 Sb11 3.273270 1_555
Ni0 Sb3 3.273270 1_555
Ni0 Sb7 3.273270 1_555
Ni0 Sb2 3.273270 1_444
Ni0 Sb0 3.273270 1_544
Ni0 Sb8 3.273270 1_454
Ni0 Sb6 3.273270 1_444
Ni0 Sb1 3.273270 1_455
Ni0 Sb10 3.273270 1_444
Ni0 Sb5 3.273270 1_554
Ni0 Sb4 3.273270 1_445
Ni0 Sb9 3.273270 1_545
