# generated using pymatgen
data_Rb2HoCl5
_symmetry_space_group_name_H-M   'P 1'
_cell_length_a   7.33178129
_cell_length_b   9.38397612
_cell_length_c   14.71735167
_cell_angle_alpha   90.00000000
_cell_angle_beta   90.00000000
_cell_angle_gamma   90.00000000
_symmetry_Int_Tables_number   1
_chemical_formula_structural   Rb2HoCl5
_chemical_formula_sum   'Rb8 Ho4 Cl20'
_cell_volume   1012.57234674
_cell_formula_units_Z   4
loop_
 _symmetry_equiv_pos_site_id
 _symmetry_equiv_pos_as_xyz
  1  'x, y, z'
loop_
 _atom_site_type_symbol
 _atom_site_label
 _atom_site_symmetry_multiplicity
 _atom_site_fract_x
 _atom_site_fract_y
 _atom_site_fract_z
 _atom_site_occupancy
  Rb  Rb0  1  0.25000000  0.66979668  0.91576338  1
  Rb  Rb1  1  0.75000000  0.33020332  0.08423662  1
  Rb  Rb2  1  0.75000000  0.83020332  0.41576338  1
  Rb  Rb3  1  0.25000000  0.16979668  0.58423662  1
  Rb  Rb4  1  0.25000000  0.96990275  0.20892275  1
  Rb  Rb5  1  0.75000000  0.03009725  0.79107725  1
  Rb  Rb6  1  0.75000000  0.53009725  0.70892275  1
  Rb  Rb7  1  0.25000000  0.46990275  0.29107725  1
  Ho  Ho0  1  0.25000000  0.68875281  0.56352491  1
  Ho  Ho1  1  0.75000000  0.31124719  0.43647509  1
  Ho  Ho2  1  0.75000000  0.81124719  0.06352491  1
  Ho  Ho3  1  0.25000000  0.18875281  0.93647509  1
  Cl  Cl0  1  0.25000000  0.53258725  0.70736209  1
  Cl  Cl1  1  0.75000000  0.46741275  0.29263791  1
  Cl  Cl2  1  0.75000000  0.96741275  0.20736209  1
  Cl  Cl3  1  0.25000000  0.03258725  0.79263791  1
  Cl  Cl4  1  0.50977261  0.85042526  0.61321807  1
  Cl  Cl5  1  0.49022739  0.14957474  0.38678193  1
  Cl  Cl6  1  0.49022739  0.64957474  0.11321807  1
  Cl  Cl7  1  0.00977261  0.14957474  0.38678193  1
  Cl  Cl8  1  0.50977261  0.35042526  0.88678193  1
  Cl  Cl9  1  0.99022739  0.85042526  0.61321807  1
  Cl  Cl10  1  0.99022739  0.35042526  0.88678193  1
  Cl  Cl11  1  0.00977261  0.64957474  0.11321807  1
  Cl  Cl12  1  0.25000000  0.78217745  0.39544191  1
  Cl  Cl13  1  0.75000000  0.21782255  0.60455809  1
  Cl  Cl14  1  0.75000000  0.71782255  0.89544191  1
  Cl  Cl15  1  0.25000000  0.28217745  0.10455809  1
  Cl  Cl16  1  -0.00000000  0.50000000  0.50000000  1
  Cl  Cl17  1  -0.00000000  0.00000000  0.00000000  1
  Cl  Cl18  1  0.50000000  0.50000000  0.50000000  1
  Cl  Cl19  1  0.50000000  0.00000000  0.00000000  1
loop_
_geom_bond_atom_site_label_1
_geom_bond_atom_site_label_2
_geom_bond_distance
_geom_bond_site_symmetry_2
Cl0 Ho0 2.574652 1_555
Cl0 Rb0 3.326414 1_555
Cl0 Rb6 3.666037 1_555
Cl0 Rb6 3.666037 1_455
Cl0 Rb3 3.856644 1_555
Cl1 Ho1 2.574652 1_555
Cl1 Rb1 3.326414 1_555
Cl1 Rb7 3.666037 1_655
Cl1 Rb7 3.666037 1_555
Cl1 Rb2 3.856644 1_555
Cl2 Ho2 2.574652 1_555
Cl2 Rb2 3.326414 1_555
Cl2 Rb4 3.666037 1_655
Cl2 Rb4 3.666037 1_555
Cl2 Rb1 3.856644 1_565
Cl3 Ho3 2.574652 1_555
Cl3 Rb3 3.326414 1_555
Cl3 Rb5 3.666037 1_455
Cl3 Rb5 3.666037 1_555
Cl3 Rb0 3.856644 1_545
Cl4 Ho0 2.542449 1_555
Cl4 Rb2 3.403390 1_555
Cl4 Rb3 3.576488 1_565
Cl4 Rb5 3.577261 1_565
Cl4 Rb6 3.757902 1_555
Cl5 Ho1 2.542449 1_555
Cl5 Rb3 3.403390 1_555
Cl5 Rb2 3.576488 1_545
Cl5 Rb4 3.577261 1_545
Cl5 Rb7 3.757902 1_555
Cl6 Ho2 2.542449 1_555
Cl6 Rb0 3.403390 1_554
Cl6 Rb1 3.576488 1_555
Cl6 Rb7 3.577261 1_555
Cl6 Rb4 3.757902 1_555
Cl7 Ho1 2.542449 1_455
Cl7 Rb3 3.403390 1_555
Cl7 Rb2 3.576488 1_445
Cl7 Rb4 3.577261 1_545
Cl7 Rb7 3.757902 1_555
Cl8 Ho3 2.542449 1_555
Cl8 Rb1 3.403390 1_556
Cl8 Rb0 3.576488 1_555
Cl8 Rb6 3.577261 1_555
Cl8 Rb5 3.757902 1_555
Cl9 Ho0 2.542449 1_655
Cl9 Rb2 3.403390 1_555
Cl9 Rb3 3.576488 1_665
Cl9 Rb5 3.577261 1_565
Cl9 Rb6 3.757902 1_555
Cl10 Ho3 2.542449 1_655
Cl10 Rb1 3.403390 1_556
Cl10 Rb0 3.576488 1_655
Cl10 Rb6 3.577261 1_555
Cl10 Rb5 3.757902 1_555
Cl11 Ho2 2.542449 1_455
Cl11 Rb0 3.403390 1_554
Cl11 Rb1 3.576488 1_455
Cl11 Rb7 3.577261 1_555
Cl11 Rb4 3.757902 1_555
Cl12 Ho0 2.624494 1_555
Cl12 Rb4 3.261697 1_555
Cl12 Rb7 3.308523 1_555
Cl12 Rb2 3.705578 1_555
Cl12 Rb2 3.705578 1_455
Cl13 Ho1 2.624494 1_555
Cl13 Rb5 3.261697 1_555
Cl13 Rb6 3.308523 1_555
Cl13 Rb3 3.705578 1_555
Cl13 Rb3 3.705578 1_655
Cl14 Ho2 2.624494 1_556
Cl14 Rb6 3.261697 1_555
Cl14 Rb5 3.308523 1_565
Cl14 Rb0 3.705578 1_655
Cl14 Rb0 3.705578 1_555
Cl15 Ho3 2.624494 1_554
Cl15 Rb7 3.261697 1_555
Cl15 Rb4 3.308523 1_545
Cl15 Rb1 3.705578 1_555
Cl15 Rb1 3.705578 1_455
Cl16 Ho0 2.714976 1_555
Cl16 Ho1 2.714976 1_455
Cl16 Rb7 3.590792 1_555
Cl16 Rb6 3.590792 1_455
Cl16 Rb3 3.807636 1_555
Cl16 Rb2 3.807636 1_455
Cl17 Ho3 2.714976 1_554
Cl17 Ho2 2.714976 1_445
Cl17 Rb5 3.590792 1_454
Cl17 Rb4 3.590792 1_545
Cl17 Rb0 3.807636 1_544
Cl17 Rb1 3.807636 1_455
Cl18 Ho1 2.714976 1_555
Cl18 Ho0 2.714976 1_555
Cl18 Rb7 3.590792 1_555
Cl18 Rb6 3.590792 1_555
Cl18 Rb2 3.807636 1_555
Cl18 Rb3 3.807636 1_555
Cl19 Ho3 2.714976 1_554
Cl19 Ho2 2.714976 1_545
Cl19 Rb5 3.590792 1_554
Cl19 Rb4 3.590792 1_545
Cl19 Rb0 3.807636 1_544
Cl19 Rb1 3.807636 1_555
