# generated using pymatgen
data_MgSnP2O7
_symmetry_space_group_name_H-M   'P 1'
_cell_length_a   6.33343900
_cell_length_b   6.75687204
_cell_length_c   6.98948030
_cell_angle_alpha   86.90014498
_cell_angle_beta   85.42612529
_cell_angle_gamma   68.22380661
_symmetry_Int_Tables_number   1
_chemical_formula_structural   MgSnP2O7
_chemical_formula_sum   'Mg2 Sn2 P4 O14'
_cell_volume   276.78351762
_cell_formula_units_Z   2
loop_
 _symmetry_equiv_pos_site_id
 _symmetry_equiv_pos_as_xyz
  1  'x, y, z'
loop_
 _atom_site_type_symbol
 _atom_site_label
 _atom_site_symmetry_multiplicity
 _atom_site_fract_x
 _atom_site_fract_y
 _atom_site_fract_z
 _atom_site_occupancy
  Mg  Mg0  1  0.35534500  0.67777700  0.65999400  1
  Mg  Mg1  1  0.64465500  0.32222300  0.34000600  1
  Sn  Sn0  1  0.25713800  0.12723400  0.14406600  1
  Sn  Sn1  1  0.74286200  0.87276600  0.85593400  1
  P  P0  1  0.19195200  0.66236200  0.13650500  1
  P  P1  1  0.80804800  0.33763800  0.86349500  1
  P  P2  1  0.22495800  0.23013200  0.60154800  1
  P  P3  1  0.77504200  0.76986800  0.39845200  1
  O  O0  1  0.15046800  0.72281700  0.92187800  1
  O  O1  1  0.84953200  0.27718300  0.07812200  1
  O  O2  1  0.22595600  0.83052300  0.25343200  1
  O  O3  1  0.77404400  0.16947700  0.74656800  1
  O  O4  1  0.37423900  0.44294800  0.16825300  1
  O  O5  1  0.62576100  0.55705200  0.83174700  1
  O  O6  1  0.63001100  0.62956500  0.43347800  1
  O  O7  1  0.36998900  0.37043500  0.56652200  1
  O  O8  1  0.08381400  0.23438500  0.42920600  1
  O  O9  1  0.91618600  0.76561500  0.57079400  1
  O  O10  1  0.04803500  0.35241600  0.77671500  1
  O  O11  1  0.64747700  0.00079700  0.32820000  1
  O  O12  1  0.35252300  0.99920300  0.67180000  1
  O  O13  1  0.95196500  0.64758400  0.22328500  1
loop_
_geom_bond_atom_site_label_1
_geom_bond_atom_site_label_2
_geom_bond_distance
_geom_bond_site_symmetry_2
Mg0 O5 2.055521 1_555
Mg0 O0 2.124912 1_555
Mg0 O12 2.171253 1_555
Mg0 O7 2.177649 1_555
Mg0 O6 2.198849 1_555
Mg1 O4 2.055521 1_555
Mg1 O1 2.124912 1_555
Mg1 O11 2.171253 1_555
Mg1 O6 2.177649 1_555
Mg1 O7 2.198849 1_555
O0 P0 1.550239 1_556
O0 Sn1 2.470216 1_455
O1 P1 1.550239 1_554
O1 Sn0 2.470216 1_655
O2 P0 1.521645 1_555
O2 Sn0 2.178681 1_565
O3 P1 1.521645 1_555
O3 Sn1 2.178681 1_545
O4 P0 1.521645 1_555
O4 Sn0 2.522343 1_555
O5 P1 1.521645 1_555
O5 Sn1 2.522343 1_555
O6 P3 1.545157 1_555
O7 P2 1.545157 1_555
O8 P2 1.549155 1_555
O8 Sn0 2.217797 1_555
O9 P3 1.549155 1_555
O9 Sn1 2.217797 1_555
O10 P2 1.625093 1_555
O10 P1 1.626997 1_455
O11 P3 1.540654 1_545
O11 Sn0 2.705443 1_555
O12 P2 1.540654 1_565
O12 Sn1 2.705443 1_555
O13 P3 1.625093 1_555
O13 P0 1.626997 1_655
