# generated using pymatgen
data_Ca3Mn2SbO9
_symmetry_space_group_name_H-M   'P 1'
_cell_length_a   5.57902000
_cell_length_b   7.68342109
_cell_length_c   16.46183837
_cell_angle_alpha   89.80237401
_cell_angle_beta   88.20867368
_cell_angle_gamma   89.68776364
_symmetry_Int_Tables_number   1
_chemical_formula_structural   Ca3Mn2SbO9
_chemical_formula_sum   'Ca12 Mn8 Sb4 O36'
_cell_volume   705.29338627
_cell_formula_units_Z   4
loop_
 _symmetry_equiv_pos_site_id
 _symmetry_equiv_pos_as_xyz
  1  'x, y, z'
loop_
 _atom_site_type_symbol
 _atom_site_label
 _atom_site_symmetry_multiplicity
 _atom_site_fract_x
 _atom_site_fract_y
 _atom_site_fract_z
 _atom_site_occupancy
  Ca  Ca0  1  0.55449700  0.74551800  0.82151700  1
  Ca  Ca1  1  0.55431800  0.73179100  0.49485200  1
  Ca  Ca2  1  0.55277600  0.74417200  0.16828300  1
  Ca  Ca3  1  0.44722400  0.25582800  0.83171700  1
  Ca  Ca4  1  0.44568200  0.26820900  0.50514800  1
  Ca  Ca5  1  0.44550300  0.25448200  0.17848300  1
  Ca  Ca6  1  0.03835600  0.73450000  0.66686800  1
  Ca  Ca7  1  0.04774800  0.73461300  0.33515000  1
  Ca  Ca8  1  0.03819500  0.74909800  0.99832300  1
  Ca  Ca9  1  0.96180500  0.25090200  0.00167700  1
  Ca  Ca10  1  0.95225200  0.26538700  0.66485000  1
  Ca  Ca11  1  0.96164400  0.26550000  0.33313200  1
  Mn  Mn0  1  0.99976700  0.49983000  0.82993200  1
  Mn  Mn1  1  0.00000000  0.50000000  0.50000000  1
  Mn  Mn2  1  0.00023300  0.50017000  0.17006800  1
  Mn  Mn3  1  0.99702500  0.00183900  0.83127600  1
  Mn  Mn4  1  0.00000000  0.00000000  0.50000000  1
  Mn  Mn5  1  0.00297500  0.99816100  0.16872400  1
  Mn  Mn6  1  0.49681300  0.50095500  0.66451100  1
  Mn  Mn7  1  0.50318700  0.49904500  0.33548900  1
  Sb  Sb0  1  0.50000000  0.50000000  0.00000000  1
  Sb  Sb1  1  0.50000000  0.00000000  0.00000000  1
  Sb  Sb2  1  0.49411800  0.99778700  0.66180400  1
  Sb  Sb3  1  0.50588200  0.00221300  0.33819600  1
  O  O0  1  0.78235400  0.53606600  0.73492100  1
  O  O1  1  0.79685600  0.53996800  0.40549500  1
  O  O2  1  0.78550500  0.54984900  0.06528100  1
  O  O3  1  0.21361900  0.05112500  0.93795800  1
  O  O4  1  0.19242600  0.04585800  0.59889600  1
  O  O5  1  0.21936300  0.05092100  0.27466100  1
  O  O6  1  0.21449500  0.45015100  0.93471900  1
  O  O7  1  0.20314400  0.46003200  0.59450500  1
  O  O8  1  0.21764600  0.46393400  0.26507900  1
  O  O9  1  0.78063700  0.94907900  0.72533900  1
  O  O10  1  0.80757400  0.95414200  0.40110400  1
  O  O11  1  0.78638100  0.94887500  0.06204200  1
  O  O12  1  0.46481200  0.74947000  0.96266400  1
  O  O13  1  0.46134500  0.74539200  0.63342900  1
  O  O14  1  0.48002000  0.74837000  0.30971000  1
  O  O15  1  0.51998000  0.25163000  0.69029000  1
  O  O16  1  0.53865500  0.25460800  0.36657100  1
  O  O17  1  0.53518800  0.25053000  0.03733600  1
  O  O18  1  0.96731900  0.74909300  0.85836200  1
  O  O19  1  0.96950400  0.75250100  0.52751500  1
  O  O20  1  0.96991600  0.74909600  0.19660600  1
  O  O21  1  0.03008400  0.25090400  0.80339400  1
  O  O22  1  0.03049600  0.24749900  0.47248500  1
  O  O23  1  0.03268100  0.25090700  0.14163800  1
  O  O24  1  0.29026900  0.54257800  0.76272700  1
  O  O25  1  0.28972900  0.54002200  0.43107100  1
  O  O26  1  0.29148400  0.55213300  0.09804700  1
  O  O27  1  0.70098900  0.05124500  0.89893000  1
  O  O28  1  0.69629900  0.04602800  0.56005400  1
  O  O29  1  0.70709500  0.04393100  0.23683400  1
  O  O30  1  0.70851600  0.44786700  0.90195300  1
  O  O31  1  0.71027100  0.45997800  0.56892900  1
  O  O32  1  0.70973100  0.45742200  0.23727300  1
  O  O33  1  0.29290500  0.95606900  0.76316600  1
  O  O34  1  0.30370100  0.95397200  0.43994600  1
  O  O35  1  0.29901100  0.94875500  0.10107000  1
loop_
_geom_bond_atom_site_label_1
_geom_bond_atom_site_label_2
_geom_bond_distance
_geom_bond_site_symmetry_2
Ca0 O12 2.361726 1_555
Ca0 O24 2.380269 1_555
Ca0 O33 2.391845 1_555
Ca0 O18 2.400259 1_555
Ca0 O0 2.473507 1_555
Ca0 O9 2.534610 1_555
Ca0 O30 2.784017 1_555
Ca0 O27 2.813640 1_565
Ca1 O13 2.326170 1_555
Ca1 O25 2.362989 1_555
Ca1 O34 2.393425 1_555
Ca1 O19 2.400478 1_555
Ca1 O1 2.456779 1_555
Ca1 O31 2.575782 1_555
Ca1 O10 2.677404 1_555
Ca1 O28 2.775030 1_565
Ca2 O14 2.351036 1_555
Ca2 O20 2.388252 1_555
Ca2 O35 2.400239 1_555
Ca2 O26 2.404082 1_555
Ca2 O2 2.578536 1_555
Ca2 O32 2.633374 1_555
Ca2 O11 2.663064 1_555
Ca2 O29 2.723892 1_565
Ca3 O15 2.351036 1_555
Ca3 O21 2.388252 1_555
Ca3 O27 2.400239 1_555
Ca3 O30 2.404082 1_555
Ca3 O6 2.578536 1_555
Ca3 O24 2.633374 1_555
Ca3 O3 2.663064 1_555
Ca3 O33 2.723892 1_545
Ca4 O16 2.326170 1_555
Ca4 O31 2.362989 1_555
Ca4 O28 2.393425 1_555
Ca4 O22 2.400478 1_555
Ca4 O7 2.456779 1_555
Ca4 O25 2.575782 1_555
Ca4 O4 2.677404 1_555
Ca4 O34 2.775030 1_545
Ca5 O17 2.361726 1_555
Ca5 O32 2.380269 1_555
Ca5 O29 2.391845 1_555
Ca5 O23 2.400259 1_555
Ca5 O8 2.473507 1_555
Ca5 O5 2.534610 1_555
Ca5 O26 2.784017 1_555
Ca5 O35 2.813640 1_545
Ca6 O19 2.341254 1_455
Ca6 O0 2.351887 1_455
Ca6 O9 2.368673 1_455
Ca6 O13 2.408235 1_555
Ca6 O7 2.576671 1_555
Ca6 O24 2.596126 1_555
Ca6 O33 2.759290 1_555
Ca6 O4 2.767267 1_565
Ca7 O1 2.333753 1_455
Ca7 O20 2.337117 1_455
Ca7 O10 2.390887 1_455
Ca7 O14 2.437614 1_555
Ca7 O8 2.545787 1_555
Ca7 O25 2.578039 1_555
Ca7 O5 2.786358 1_565
Ca7 O34 2.838335 1_555
Ca8 O11 2.307714 1_456
Ca8 O2 2.336840 1_456
Ca8 O18 2.349851 1_455
Ca8 O12 2.433558 1_555
Ca8 O26 2.662087 1_556
Ca8 O6 2.695778 1_555
Ca8 O3 2.697879 1_565
Ca8 O35 2.743640 1_556
Ca9 O3 2.307714 1_654
Ca9 O6 2.336840 1_654
Ca9 O23 2.349851 1_655
Ca9 O17 2.433558 1_555
Ca9 O30 2.662087 1_554
Ca9 O2 2.695778 1_555
Ca9 O11 2.697879 1_545
Ca9 O27 2.743640 1_554
Ca10 O7 2.333753 1_655
Ca10 O21 2.337117 1_655
Ca10 O4 2.390887 1_655
Ca10 O15 2.437614 1_555
Ca10 O0 2.545787 1_555
Ca10 O31 2.578039 1_555
Ca10 O9 2.786358 1_545
Ca10 O28 2.838335 1_555
Ca11 O22 2.341254 1_655
Ca11 O8 2.351887 1_655
Ca11 O5 2.368673 1_655
Ca11 O16 2.408235 1_555
Ca11 O1 2.576671 1_555
Ca11 O32 2.596126 1_555
Ca11 O29 2.759290 1_555
Ca11 O10 2.767267 1_545
Mn0 O24 1.962075 1_655
Mn0 O21 1.968535 1_655
Mn0 O18 1.979110 1_555
Mn0 O30 2.022052 1_555
Mn0 O0 2.026563 1_555
Mn0 O6 2.162425 1_655
Mn1 O31 1.970585 1_455
Mn1 O25 1.970585 1_555
Mn1 O7 1.975399 1_555
Mn1 O1 1.975399 1_455
Mn1 O22 1.998908 1_555
Mn1 O19 1.998908 1_455
Mn2 O32 1.962075 1_455
Mn2 O20 1.968535 1_455
Mn2 O23 1.979110 1_555
Mn2 O26 2.022052 1_555
Mn2 O8 2.026563 1_555
Mn2 O2 2.162425 1_455
Mn3 O21 1.974670 1_655
Mn3 O33 1.996586 1_645
Mn3 O18 1.997594 1_545
Mn3 O27 1.998321 1_555
Mn3 O9 2.191991 1_545
Mn3 O3 2.197729 1_655
Mn4 O22 1.960384 1_555
Mn4 O19 1.960384 1_445
Mn4 O28 1.965806 1_455
Mn4 O34 1.965806 1_545
Mn4 O4 2.011074 1_555
Mn4 O10 2.011074 1_445
Mn5 O20 1.974670 1_455
Mn5 O29 1.996586 1_465
Mn5 O23 1.997594 1_565
Mn5 O35 1.998321 1_555
Mn5 O5 2.191991 1_565
Mn5 O11 2.197729 1_455
Mn6 O13 1.955483 1_555
Mn6 O15 1.965122 1_555
Mn6 O31 1.968573 1_555
Mn6 O24 1.981734 1_555
Mn6 O0 2.018983 1_555
Mn6 O7 2.058499 1_555
Mn7 O16 1.955483 1_555
Mn7 O14 1.965122 1_555
Mn7 O25 1.968573 1_555
Mn7 O32 1.981734 1_555
Mn7 O8 2.018983 1_555
Mn7 O1 2.058499 1_555
O2 Sb0 1.988768 1_555
O3 Sb1 1.960241 1_556
O4 Sb2 2.035039 1_545
O5 Sb3 1.970904 1_555
O6 Sb0 1.988768 1_556
O9 Sb2 1.970904 1_555
O10 Sb3 2.035039 1_565
O11 Sb1 1.960241 1_565
O12 Sb0 2.021304 1_556
O12 Sb1 2.035059 1_566
O13 Sb2 2.006935 1_555
O14 Sb3 2.014526 1_565
O15 Sb2 2.014526 1_545
O16 Sb3 2.006935 1_555
O17 Sb0 2.021304 1_555
O17 Sb1 2.035059 1_555
O26 Sb0 2.000212 1_555
O27 Sb1 2.016003 1_556
O28 Sb2 2.024218 1_545
O29 Sb3 2.007555 1_555
O30 Sb0 2.000212 1_556
O33 Sb2 2.007555 1_555
O34 Sb3 2.024218 1_565
O35 Sb1 2.016003 1_565
