# generated using pymatgen
data_Sr5NiN4
_symmetry_space_group_name_H-M   'P 1'
_cell_length_a   9.60355154
_cell_length_b   16.18946987
_cell_length_c   12.35575759
_cell_angle_alpha   90.00000000
_cell_angle_beta   103.96201331
_cell_angle_gamma   90.00000000
_symmetry_Int_Tables_number   1
_chemical_formula_structural   Sr5NiN4
_chemical_formula_sum   'Sr40 Ni8 N32'
_cell_volume   1864.27375524
_cell_formula_units_Z   8
loop_
 _symmetry_equiv_pos_site_id
 _symmetry_equiv_pos_as_xyz
  1  'x, y, z'
loop_
 _atom_site_type_symbol
 _atom_site_label
 _atom_site_symmetry_multiplicity
 _atom_site_fract_x
 _atom_site_fract_y
 _atom_site_fract_z
 _atom_site_occupancy
  Sr  Sr0  1  0.43702588  0.75000000  0.73346626  1
  Sr  Sr1  1  0.56297412  0.25000000  0.26653374  1
  Sr  Sr2  1  0.56053920  0.75000000  0.24532849  1
  Sr  Sr3  1  0.43946080  0.25000000  0.75467151  1
  Sr  Sr4  1  0.10184164  0.62695497  0.82992344  1
  Sr  Sr5  1  0.89815836  0.12695497  0.17007656  1
  Sr  Sr6  1  0.89815836  0.37304503  0.17007656  1
  Sr  Sr7  1  0.10184164  0.87304503  0.82992344  1
  Sr  Sr8  1  0.70758385  0.35768623  0.63949643  1
  Sr  Sr9  1  0.29241615  0.85768623  0.36050357  1
  Sr  Sr10  1  0.29241615  0.64231377  0.36050357  1
  Sr  Sr11  1  0.70758385  0.14231377  0.63949643  1
  Sr  Sr12  1  0.82368298  0.25000000  0.89964285  1
  Sr  Sr13  1  0.17631702  0.75000000  0.10035715  1
  Sr  Sr14  1  0.19770140  0.50612903  0.07275250  1
  Sr  Sr15  1  0.80229860  0.00612903  0.92724750  1
  Sr  Sr16  1  0.80229860  0.49387097  0.92724750  1
  Sr  Sr17  1  0.19770140  0.99387097  0.07275250  1
  Sr  Sr18  1  0.00000000  0.50000000  0.50000000  1
  Sr  Sr19  1  0.00000000  0.00000000  0.50000000  1
  Sr  Sr20  1  0.48176614  0.38295506  0.99414392  1
  Sr  Sr21  1  0.51823386  0.88295506  0.00585608  1
  Sr  Sr22  1  0.51823386  0.61704494  0.00585608  1
  Sr  Sr23  1  0.48176614  0.11704494  0.99414392  1
  Sr  Sr24  1  0.11543134  0.36968930  0.82782645  1
  Sr  Sr25  1  0.88456866  0.86968930  0.17217355  1
  Sr  Sr26  1  0.88456866  0.63031070  0.17217355  1
  Sr  Sr27  1  0.11543134  0.13031070  0.82782645  1
  Sr  Sr28  1  0.73020759  0.64678119  0.65471737  1
  Sr  Sr29  1  0.26979241  0.14678119  0.34528263  1
  Sr  Sr30  1  0.26979241  0.35321881  0.34528263  1
  Sr  Sr31  1  0.73020759  0.85321881  0.65471737  1
  Sr  Sr32  1  0.79690903  0.75000000  0.92312473  1
  Sr  Sr33  1  0.20309097  0.25000000  0.07687527  1
  Sr  Sr34  1  0.55813272  0.49543899  0.25345057  1
  Sr  Sr35  1  0.44186728  0.99543899  0.74654943  1
  Sr  Sr36  1  0.44186728  0.50456101  0.74654943  1
  Sr  Sr37  1  0.55813272  0.00456101  0.25345057  1
  Sr  Sr38  1  0.04573015  0.25000000  0.51014124  1
  Sr  Sr39  1  0.95426985  0.75000000  0.48985876  1
  Ni  Ni0  1  0.88564261  0.49791589  0.68000711  1
  Ni  Ni1  1  0.11435739  0.99791589  0.31999289  1
  Ni  Ni2  1  0.11435739  0.50208411  0.31999289  1
  Ni  Ni3  1  0.88564261  0.00208411  0.68000711  1
  Ni  Ni4  1  0.51815365  0.75000000  0.49204069  1
  Ni  Ni5  1  0.48184635  0.25000000  0.50795931  1
  Ni  Ni6  1  0.68311908  0.25000000  0.08037292  1
  Ni  Ni7  1  0.31688092  0.75000000  0.91962708  1
  N  N0  1  0.90530932  0.25000000  0.66926993  1
  N  N1  1  0.09469068  0.75000000  0.33073007  1
  N  N2  1  0.94843935  0.75000000  0.70053270  1
  N  N3  1  0.05156065  0.25000000  0.29946730  1
  N  N4  1  0.40015361  0.36741861  0.19366830  1
  N  N5  1  0.59984639  0.86741861  0.80633170  1
  N  N6  1  0.59984639  0.63258139  0.80633170  1
  N  N7  1  0.40015361  0.13258139  0.19366830  1
  N  N8  1  0.29655668  0.49814607  0.89229824  1
  N  N9  1  0.70344332  0.99814607  0.10770176  1
  N  N10  1  0.70344332  0.50185393  0.10770176  1
  N  N11  1  0.29655668  0.00185393  0.89229824  1
  N  N12  1  0.73992789  0.50952036  0.55207620  1
  N  N13  1  0.26007211  0.00952036  0.44792380  1
  N  N14  1  0.26007211  0.49047964  0.44792380  1
  N  N15  1  0.73992789  0.99047964  0.55207620  1
  N  N16  1  0.61327815  0.37770288  0.80794045  1
  N  N17  1  0.38672185  0.87770288  0.19205955  1
  N  N18  1  0.38672185  0.62229712  0.19205955  1
  N  N19  1  0.61327815  0.12229712  0.80794045  1
  N  N20  1  0.99915922  0.62598735  0.00298216  1
  N  N21  1  0.00084078  0.12598735  0.99701784  1
  N  N22  1  0.00084078  0.37401265  0.99701784  1
  N  N23  1  0.99915922  0.87401265  0.00298216  1
  N  N24  1  0.70959537  0.75000000  0.10536660  1
  N  N25  1  0.29040463  0.25000000  0.89463340  1
  N  N26  1  0.72488066  0.47408501  0.46271480  1
  N  N27  1  0.27511934  0.97408501  0.53728520  1
  N  N28  1  0.27511934  0.52591499  0.53728520  1
  N  N29  1  0.72488066  0.02591499  0.46271480  1
  N  N30  1  0.68755323  0.75000000  0.47135975  1
  N  N31  1  0.31244677  0.25000000  0.52864025  1
loop_
_geom_bond_atom_site_label_1
_geom_bond_atom_site_label_2
_geom_bond_distance
_geom_bond_site_symmetry_2
Ni0 Sr18 2.707895 1_655
Ni0 Sr28 2.812319 1_555
Ni0 Sr8 2.813468 1_555
Ni0 Sr4 3.201624 1_655
Ni0 Sr24 3.251186 1_655
Ni0 Sr16 3.340192 1_555
Ni1 Sr19 2.707895 1_565
Ni1 Sr29 2.812319 1_565
Ni1 Sr9 2.813468 1_555
Ni1 Sr5 3.201624 1_465
Ni1 Sr25 3.251186 1_455
Ni1 Sr17 3.340192 1_555
Ni2 Sr18 2.707895 1_555
Ni2 Sr30 2.812319 1_555
Ni2 Sr10 2.813468 1_555
Ni2 Sr6 3.201624 1_455
Ni2 Sr26 3.251186 1_455
Ni2 Sr14 3.340192 1_555
Ni3 Sr19 2.707895 1_655
Ni3 Sr31 2.812319 1_545
Ni3 Sr11 2.813468 1_555
Ni3 Sr7 3.201624 1_645
Ni3 Sr27 3.251186 1_655
Ni3 Sr15 3.340192 1_555
Ni4 Sr9 2.946234 1_555
Ni4 Sr10 2.946234 1_555
Ni4 Sr28 3.000746 1_555
Ni4 Sr31 3.000746 1_555
Ni4 Sr0 3.259876 1_555
Ni5 Sr11 2.946234 1_555
Ni5 Sr8 2.946234 1_555
Ni5 Sr30 3.000746 1_555
Ni5 Sr29 3.000746 1_555
Ni5 Sr1 3.259876 1_555
Ni6 Sr1 2.811176 1_555
Ni6 Sr12 2.874620 1_554
Ni6 Sr5 2.890835 1_555
Ni6 Sr6 2.890835 1_555
Ni6 Sr23 2.917756 1_554
Ni6 Sr20 2.917756 1_554
Ni7 Sr0 2.811176 1_555
Ni7 Sr13 2.874620 1_556
Ni7 Sr4 2.890835 1_555
Ni7 Sr7 2.890835 1_555
Ni7 Sr22 2.917756 1_556
Ni7 Sr21 2.917756 1_556
N0 Sr11 2.538370 1_555
N0 Sr8 2.538370 1_555
N0 Sr38 2.638900 1_655
N0 Sr27 3.123625 1_655
N0 Sr24 3.123625 1_655
N0 Sr12 3.129444 1_555
N1 Sr10 2.538370 1_555
N1 Sr9 2.538370 1_555
N1 Sr39 2.638900 1_455
N1 Sr26 3.123625 1_455
N1 Sr25 3.123625 1_455
N1 Sr13 3.129444 1_555
N2 Sr39 2.617110 1_555
N2 Sr28 2.633013 1_555
N2 Sr31 2.633013 1_555
N2 Sr7 2.749164 1_655
N2 Sr4 2.749164 1_655
N3 Sr38 2.617110 1_555
N3 Sr29 2.633013 1_555
N3 Sr30 2.633013 1_555
N3 Sr6 2.749164 1_455
N3 Sr5 2.749164 1_455
N4 Sr1 2.487938 1_555
N4 Sr30 2.502236 1_555
N4 Sr34 2.569475 1_555
N4 Sr20 2.772642 1_554
N4 Sr33 2.821299 1_555
N4 Sr14 3.106998 1_555
N5 Sr0 2.487938 1_555
N5 Sr31 2.502236 1_555
N5 Sr35 2.569475 1_555
N5 Sr21 2.772642 1_556
N5 Sr32 2.821299 1_555
N5 Sr15 3.106998 1_565
N6 Sr0 2.487938 1_555
N6 Sr28 2.502236 1_555
N6 Sr36 2.569475 1_555
N6 Sr22 2.772642 1_556
N6 Sr32 2.821299 1_555
N6 Sr16 3.106998 1_555
N7 Sr1 2.487938 1_555
N7 Sr29 2.502236 1_555
N7 Sr37 2.569475 1_555
N7 Sr23 2.772642 1_554
N7 Sr33 2.821299 1_555
N7 Sr17 3.106998 1_545
N8 Sr36 2.532570 1_555
N8 Sr14 2.628835 1_556
N8 Sr20 2.672992 1_555
N8 Sr24 2.704907 1_555
N8 Sr4 2.782792 1_555
N8 Sr22 2.960524 1_556
N9 Sr37 2.532570 1_565
N9 Sr15 2.628835 1_564
N9 Sr21 2.672992 1_555
N9 Sr25 2.704907 1_555
N9 Sr5 2.782792 1_565
N9 Sr23 2.960524 1_564
N10 Sr34 2.532570 1_555
N10 Sr16 2.628835 1_554
N10 Sr22 2.672992 1_555
N10 Sr26 2.704907 1_555
N10 Sr6 2.782792 1_555
N10 Sr20 2.960524 1_554
N11 Sr35 2.532570 1_545
N11 Sr17 2.628835 1_546
N11 Sr23 2.672992 1_555
N11 Sr27 2.704907 1_555
N11 Sr7 2.782792 1_545
N11 Sr21 2.960524 1_546
N12 N26 1.221513 1_555
N12 Ni0 1.850598 1_555
N12 Sr28 2.571436 1_555
N12 Sr18 2.729718 1_655
N12 Sr8 2.732658 1_555
N13 N27 1.221513 1_545
N13 Ni1 1.850598 1_545
N13 Sr29 2.571436 1_555
N13 Sr19 2.729718 1_555
N13 Sr9 2.732658 1_545
N14 N28 1.221513 1_555
N14 Ni2 1.850598 1_555
N14 Sr30 2.571436 1_555
N14 Sr18 2.729718 1_555
N14 Sr10 2.732658 1_555
N15 N29 1.221513 1_565
N15 Ni3 1.850598 1_565
N15 Sr31 2.571436 1_555
N15 Sr19 2.729718 1_665
N15 Sr11 2.732658 1_565
N16 Sr8 2.483234 1_555
N16 Sr36 2.626899 1_555
N16 Sr3 2.638898 1_555
N16 Sr16 2.777407 1_555
N16 Sr20 2.880570 1_555
N16 Sr12 2.921691 1_555
N17 Sr9 2.483234 1_555
N17 Sr37 2.626899 1_565
N17 Sr2 2.638898 1_555
N17 Sr17 2.777407 1_555
N17 Sr21 2.880570 1_555
N17 Sr13 2.921691 1_555
N18 Sr10 2.483234 1_555
N18 Sr34 2.626899 1_555
N18 Sr2 2.638898 1_555
N18 Sr14 2.777407 1_555
N18 Sr22 2.880570 1_555
N18 Sr13 2.921691 1_555
N19 Sr11 2.483234 1_555
N19 Sr35 2.626899 1_545
N19 Sr3 2.638898 1_555
N19 Sr15 2.777407 1_555
N19 Sr23 2.880570 1_555
N19 Sr12 2.921691 1_555
N20 Sr4 2.561716 1_654
N20 Sr26 2.587706 1_555
N20 Sr14 2.711242 1_655
N20 Sr13 2.717573 1_655
N20 Sr32 2.802182 1_554
N20 Sr16 2.858503 1_554
N21 Sr5 2.561716 1_456
N21 Sr27 2.587706 1_555
N21 Sr15 2.711242 1_455
N21 Sr12 2.717573 1_455
N21 Sr33 2.802182 1_556
N21 Sr17 2.858503 1_546
N22 Sr6 2.561716 1_456
N22 Sr24 2.587706 1_555
N22 Sr16 2.711242 1_455
N22 Sr12 2.717573 1_455
N22 Sr33 2.802182 1_556
N22 Sr14 2.858503 1_556
N23 Sr7 2.561716 1_654
N23 Sr25 2.587706 1_555
N23 Sr17 2.711242 1_655
N23 Sr13 2.717573 1_655
N23 Sr32 2.802182 1_554
N23 Sr15 2.858503 1_564
N24 Sr2 2.496851 1_555
N24 Sr25 2.567171 1_555
N24 Sr26 2.567171 1_555
N24 Sr32 2.585452 1_554
N24 Sr22 2.903761 1_555
N24 Sr21 2.903761 1_555
N25 Sr3 2.496851 1_555
N25 Sr24 2.567171 1_555
N25 Sr27 2.567171 1_555
N25 Sr33 2.585452 1_556
N25 Sr23 2.903761 1_555
N25 Sr20 2.903761 1_555
N26 Sr18 2.604170 1_655
N26 Sr34 2.715011 1_555
N26 Sr8 2.919728 1_555
N27 Sr19 2.604170 1_565
N27 Sr35 2.715011 1_555
N27 Sr9 2.919728 1_555
N28 Sr18 2.604170 1_555
N28 Sr36 2.715011 1_555
N28 Sr10 2.919728 1_555
N29 Sr19 2.604170 1_655
N29 Sr37 2.715011 1_555
N29 Sr11 2.919728 1_555
N30 Ni4 1.706604 1_555
N30 Sr39 2.516075 1_555
N30 Sr2 2.764717 1_555
N30 Sr28 2.764959 1_555
N30 Sr31 2.764959 1_555
N31 Ni5 1.706604 1_555
N31 Sr38 2.516075 1_555
N31 Sr3 2.764717 1_555
N31 Sr29 2.764959 1_555
N31 Sr30 2.764959 1_555
