# generated using pymatgen
data_Mg14ZrNb
_symmetry_space_group_name_H-M   'P 1'
_cell_length_a   6.43094577
_cell_length_b   6.14600844
_cell_length_c   10.17707383
_cell_angle_alpha   90.00000000
_cell_angle_beta   90.00000000
_cell_angle_gamma   118.54484587
_symmetry_Int_Tables_number   1
_chemical_formula_structural   Mg14ZrNb
_chemical_formula_sum   'Mg14 Zr1 Nb1'
_cell_volume   353.34967222
_cell_formula_units_Z   1
loop_
 _symmetry_equiv_pos_site_id
 _symmetry_equiv_pos_as_xyz
  1  'x, y, z'
loop_
 _atom_site_type_symbol
 _atom_site_label
 _atom_site_symmetry_multiplicity
 _atom_site_fract_x
 _atom_site_fract_y
 _atom_site_fract_z
 _atom_site_occupancy
  Mg  Mg0  1  0.16553346  0.33276623  0.62500000  1
  Mg  Mg1  1  0.16375525  0.83187712  0.62500000  1
  Mg  Mg2  1  0.65705659  0.32653264  0.12500000  1
  Mg  Mg3  1  0.66415802  0.33320862  0.62500000  1
  Mg  Mg4  1  0.65705659  0.83052295  0.12500000  1
  Mg  Mg5  1  0.66415802  0.83094840  0.62500000  1
  Mg  Mg6  1  0.33446651  0.16355624  0.37067022  1
  Mg  Mg7  1  0.33446651  0.16355624  0.87932978  1
  Mg  Mg8  1  0.33446651  0.67091127  0.37067022  1
  Mg  Mg9  1  0.33446651  0.67091127  0.87932978  1
  Mg  Mg10  1  0.83997046  0.16998573  0.37492926  1
  Mg  Mg11  1  0.83997046  0.16998573  0.87507074  1
  Mg  Mg12  1  0.84600130  0.67300115  0.36754180  1
  Mg  Mg13  1  0.84600130  0.67300115  0.88245820  1
  Zr  Zr0  1  0.15838988  0.32919444  0.12500000  1
  Nb  Nb0  1  0.16008261  0.83004080  0.12500000  1
loop_
_geom_bond_atom_site_label_1
_geom_bond_atom_site_label_2
_geom_bond_distance
_geom_bond_site_symmetry_2
Mg0 Mg1 3.073021 1_555
Mg0 Mg1 3.073021 1_545
Mg0 Mg10 3.139990 1_455
Mg0 Mg11 3.139990 1_455
Mg0 Mg6 3.168757 1_555
Mg0 Mg7 3.168757 1_555
Mg0 Mg8 3.168763 1_555
Mg0 Mg9 3.168763 1_555
Mg0 Mg5 3.205329 1_555
Mg0 Mg3 3.205329 1_555
Mg0 Mg5 3.225618 1_445
Mg0 Mg3 3.225618 1_455
Mg1 Mg8 3.149823 1_555
Mg1 Mg9 3.149823 1_555
Mg1 Mg6 3.149828 1_565
Mg1 Mg7 3.149828 1_565
Mg1 Mg13 3.176090 1_455
Mg1 Mg12 3.176090 1_455
Mg1 Mg3 3.210159 1_455
Mg1 Mg5 3.210159 1_455
Mg1 Mg3 3.220794 1_565
Mg1 Mg5 3.220794 1_555
Mg2 Mg4 3.048480 1_545
Mg2 Mg7 3.093898 1_554
Mg2 Mg6 3.093898 1_555
Mg2 Mg4 3.097529 1_555
Mg2 Nb0 3.194598 1_545
Mg2 Zr0 3.214748 1_555
Mg2 Zr0 3.216262 1_655
Mg2 Nb0 3.236350 1_655
Mg3 Mg5 3.059113 1_555
Mg3 Mg5 3.086896 1_545
Mg3 Mg6 3.188926 1_555
Mg3 Mg7 3.188926 1_555
Mg4 Mg9 3.093898 1_554
Mg4 Mg8 3.093898 1_555
Mg4 Nb0 3.194598 1_555
Mg4 Zr0 3.214748 1_555
Mg4 Zr0 3.216262 1_665
Mg4 Nb0 3.236350 1_655
Mg5 Mg8 3.188926 1_555
Mg5 Mg9 3.188926 1_555
Mg6 Mg8 3.027800 1_545
Mg6 Nb0 3.084383 1_545
Mg6 Zr0 3.109860 1_555
Mg6 Mg8 3.118208 1_555
Mg7 Mg9 3.027800 1_545
Mg7 Nb0 3.084383 1_546
Mg7 Zr0 3.109860 1_556
Mg7 Mg9 3.118208 1_555
Mg8 Nb0 3.084377 1_555
Mg8 Zr0 3.109866 1_555
Mg9 Nb0 3.084377 1_556
Mg9 Zr0 3.109866 1_556
Mg10 Mg12 3.074113 1_555
Mg10 Mg12 3.074113 1_545
Mg10 Zr0 3.115349 1_655
Mg10 Mg3 3.137775 1_555
Mg10 Mg5 3.137781 1_545
Mg10 Mg2 3.140172 1_555
Mg10 Mg4 3.140178 1_545
Mg10 Mg8 3.199441 1_655
Mg10 Mg6 3.199442 1_655
Mg10 Mg8 3.232463 1_545
Mg10 Mg6 3.232463 1_555
Mg11 Mg13 3.074113 1_555
Mg11 Mg13 3.074113 1_545
Mg11 Zr0 3.115349 1_656
Mg11 Mg3 3.137775 1_555
Mg11 Mg5 3.137781 1_545
Mg11 Mg2 3.140172 1_556
Mg11 Mg4 3.140178 1_546
Mg11 Mg9 3.199441 1_655
Mg11 Mg7 3.199442 1_655
Mg11 Mg9 3.232463 1_545
Mg11 Mg7 3.232463 1_555
Mg12 Nb0 3.039905 1_655
Mg12 Mg4 3.103354 1_555
Mg12 Mg2 3.103360 1_555
Mg12 Mg6 3.147612 1_665
Mg12 Mg8 3.147612 1_655
Mg12 Mg5 3.203141 1_555
Mg12 Mg3 3.203147 1_555
Mg12 Mg6 3.283688 1_555
Mg12 Mg8 3.283689 1_555
Mg13 Nb0 3.039905 1_656
Mg13 Mg4 3.103354 1_556
Mg13 Mg2 3.103360 1_556
Mg13 Mg7 3.147612 1_665
Mg13 Mg9 3.147612 1_655
Mg13 Mg5 3.203141 1_555
Mg13 Mg3 3.203147 1_555
Mg13 Mg7 3.283688 1_555
Mg13 Mg9 3.283689 1_555
Nb0 Zr0 3.073019 1_555
Nb0 Zr0 3.073019 1_565
