# generated using pymatgen
data_Cr3N2
_symmetry_space_group_name_H-M   'P 1'
_cell_length_a   3.06350685
_cell_length_b   3.06350685
_cell_length_c   12.28784100
_cell_angle_alpha   90.00000000
_cell_angle_beta   90.00000000
_cell_angle_gamma   120.00001832
_symmetry_Int_Tables_number   1
_chemical_formula_structural   Cr3N2
_chemical_formula_sum   'Cr6 N4'
_cell_volume   99.87202269
_cell_formula_units_Z   2
loop_
 _symmetry_equiv_pos_site_id
 _symmetry_equiv_pos_as_xyz
  1  'x, y, z'
loop_
 _atom_site_type_symbol
 _atom_site_label
 _atom_site_symmetry_multiplicity
 _atom_site_fract_x
 _atom_site_fract_y
 _atom_site_fract_z
 _atom_site_occupancy
  Cr  Cr0  1  0.33333300  0.66666700  0.42281800  1
  Cr  Cr1  1  0.66666700  0.33333300  0.57718200  1
  Cr  Cr2  1  0.66666700  0.33333300  0.92281800  1
  Cr  Cr3  1  0.33333300  0.66666700  0.07718200  1
  Cr  Cr4  1  0.00000000  0.00000000  0.25000000  1
  Cr  Cr5  1  0.00000000  0.00000000  0.75000000  1
  N  N0  1  0.00000000  0.00000000  0.50000000  1
  N  N1  1  0.00000000  0.00000000  0.00000000  1
  N  N2  1  0.66666700  0.33333300  0.25000000  1
  N  N3  1  0.33333300  0.66666700  0.75000000  1
loop_
_geom_bond_atom_site_label_1
_geom_bond_atom_site_label_2
_geom_bond_distance
_geom_bond_site_symmetry_2
Cr0 N0 2.006942 1_565
Cr0 N0 2.006944 1_665
Cr0 N0 2.006944 1_555
Cr1 N0 2.006942 1_655
Cr1 N0 2.006944 1_665
Cr1 N0 2.006944 1_555
Cr2 N1 2.006942 1_656
Cr2 N1 2.006944 1_666
Cr2 N1 2.006944 1_556
Cr3 N1 2.006942 1_565
Cr3 N1 2.006944 1_555
Cr3 N1 2.006944 1_665
Cr4 N2 1.768715 1_455
Cr4 N2 1.768717 1_555
Cr4 N2 1.768717 1_445
Cr5 N3 1.768715 1_545
Cr5 N3 1.768717 1_555
Cr5 N3 1.768717 1_445
