# generated using pymatgen
data_ErMn6(Sn2Ge)2
_symmetry_space_group_name_H-M   'P 1'
_cell_length_a   5.34642040
_cell_length_b   5.34642040
_cell_length_c   8.66462400
_cell_angle_alpha   90.00000000
_cell_angle_beta   90.00000000
_cell_angle_gamma   120.00000494
_symmetry_Int_Tables_number   1
_chemical_formula_structural   ErMn6(Sn2Ge)2
_chemical_formula_sum   'Er1 Mn6 Sn4 Ge2'
_cell_volume   214.48974935
_cell_formula_units_Z   1
loop_
 _symmetry_equiv_pos_site_id
 _symmetry_equiv_pos_as_xyz
  1  'x, y, z'
loop_
 _atom_site_type_symbol
 _atom_site_label
 _atom_site_symmetry_multiplicity
 _atom_site_fract_x
 _atom_site_fract_y
 _atom_site_fract_z
 _atom_site_occupancy
  Er  Er0  1  0.00000000  0.00000000  0.00000000  1
  Mn  Mn0  1  0.50000000  0.50000000  0.76754200  1
  Mn  Mn1  1  0.50000000  0.50000000  0.23245800  1
  Mn  Mn2  1  0.00000000  0.50000000  0.76754200  1
  Mn  Mn3  1  0.00000000  0.50000000  0.23245800  1
  Mn  Mn4  1  0.50000000  0.00000000  0.76754200  1
  Mn  Mn5  1  0.50000000  0.00000000  0.23245800  1
  Sn  Sn0  1  0.66666700  0.33333300  0.50000000  1
  Sn  Sn1  1  0.33333300  0.66666700  0.50000000  1
  Sn  Sn2  1  0.00000000  0.00000000  0.66676900  1
  Sn  Sn3  1  0.00000000  0.00000000  0.33323100  1
  Ge  Ge0  1  0.66666700  0.33333300  0.00000000  1
  Ge  Ge1  1  0.33333300  0.66666700  0.00000000  1
loop_
_geom_bond_atom_site_label_1
_geom_bond_atom_site_label_2
_geom_bond_distance
_geom_bond_site_symmetry_2
Er0 Sn3 2.887321 1_555
Er0 Sn2 2.887321 1_554
Er0 Ge1 3.086754 1_545
Er0 Ge0 3.086754 1_455
Er0 Ge0 3.086759 1_555
Er0 Ge0 3.086759 1_445
Er0 Ge1 3.086759 1_555
Er0 Ge1 3.086759 1_445
Mn0 Sn0 2.784933 1_555
Mn0 Sn1 2.784933 1_555
Mn0 Sn2 2.812198 1_555
Mn0 Sn2 2.812198 1_665
Mn1 Sn1 2.784933 1_555
Mn1 Sn0 2.784933 1_555
Mn1 Sn3 2.812198 1_665
Mn1 Sn3 2.812198 1_555
Mn2 Sn1 2.784930 1_555
Mn2 Sn0 2.784930 1_455
Mn2 Sn2 2.812199 1_565
Mn2 Sn2 2.812199 1_555
Mn3 Sn0 2.784930 1_455
Mn3 Sn1 2.784930 1_555
Mn3 Sn3 2.812199 1_555
Mn3 Sn3 2.812199 1_565
Mn4 Sn0 2.784930 1_555
Mn4 Sn1 2.784930 1_545
Mn4 Sn2 2.812199 1_655
Mn4 Sn2 2.812199 1_555
Mn5 Sn1 2.784930 1_545
Mn5 Sn0 2.784930 1_555
Mn5 Sn3 2.812199 1_555
Mn5 Sn3 2.812199 1_655
Sn2 Sn3 2.889981 1_555
Ge0 Mn5 2.537490 1_555
Ge0 Mn3 2.537490 1_655
Ge0 Mn4 2.537490 1_554
Ge0 Mn2 2.537490 1_654
Ge0 Mn1 2.537493 1_555
Ge0 Mn0 2.537493 1_554
Ge1 Mn3 2.537490 1_555
Ge1 Mn5 2.537490 1_565
Ge1 Mn4 2.537490 1_564
Ge1 Mn2 2.537490 1_554
Ge1 Mn1 2.537493 1_555
Ge1 Mn0 2.537493 1_554
