# generated using pymatgen
data_Sr10Mg3Fe2(MoO6)5
_symmetry_space_group_name_H-M   'P 1'
_cell_length_a   5.65487814
_cell_length_b   56.61730067
_cell_length_c   5.66884342
_cell_angle_alpha   119.77604449
_cell_angle_beta   119.74319130
_cell_angle_gamma   90.24812880
_symmetry_Int_Tables_number   1
_chemical_formula_structural   Sr10Mg3Fe2(MoO6)5
_chemical_formula_sum   'Sr20 Mg6 Fe4 Mo10 O60'
_cell_volume   1289.89381930
_cell_formula_units_Z   2
loop_
 _symmetry_equiv_pos_site_id
 _symmetry_equiv_pos_as_xyz
  1  'x, y, z'
loop_
 _atom_site_type_symbol
 _atom_site_label
 _atom_site_symmetry_multiplicity
 _atom_site_fract_x
 _atom_site_fract_y
 _atom_site_fract_z
 _atom_site_occupancy
  Sr  Sr0  1  0.24968161  0.07496215  0.49974629  1
  Sr  Sr1  1  0.25004740  0.17500584  0.50029862  1
  Sr  Sr2  1  0.25005197  0.27499294  0.50026023  1
  Sr  Sr3  1  0.25009046  0.37499400  0.50033725  1
  Sr  Sr4  1  0.25016082  0.47490465  0.50044436  1
  Sr  Sr5  1  0.25648163  0.57608143  0.50899984  1
  Sr  Sr6  1  0.24655673  0.67511895  0.49652042  1
  Sr  Sr7  1  0.25154565  0.77522795  0.50677546  1
  Sr  Sr8  1  0.24735910  0.87383102  0.48977010  1
  Sr  Sr9  1  0.25049632  0.97504273  0.50071516  1
  Sr  Sr10  1  0.74983918  0.02509535  0.49955564  1
  Sr  Sr11  1  0.74990954  0.12500600  0.49966275  1
  Sr  Sr12  1  0.74994803  0.22500706  0.49973977  1
  Sr  Sr13  1  0.74995260  0.32499416  0.49970138  1
  Sr  Sr14  1  0.74950368  0.52495727  0.49928484  1
  Sr  Sr15  1  0.75264090  0.62616898  0.51022990  1
  Sr  Sr16  1  0.75031839  0.42503785  0.50025371  1
  Sr  Sr17  1  0.74845435  0.72477205  0.49322454  1
  Sr  Sr18  1  0.75344327  0.82488105  0.50347958  1
  Sr  Sr19  1  0.74351837  0.92391857  0.49100016  1
  Mg  Mg0  1  0.00018683  0.00008300  0.00022475  1
  Mg  Mg1  1  0.00015388  0.10004350  0.00010176  1
  Mg  Mg2  1  0.00005481  0.20001860  0.00006323  1
  Mg  Mg3  1  -0.00005481  0.29998140  -0.00006323  1
  Mg  Mg4  1  -0.00015388  0.39995650  -0.00010176  1
  Mg  Mg5  1  -0.00018683  0.49991700  -0.00022475  1
  Fe  Fe0  1  0.00345589  0.60065940  0.00362873  1
  Fe  Fe1  1  0.99870343  0.69975131  0.99739844  1
  Fe  Fe2  1  0.00129657  0.80024869  0.00260156  1
  Fe  Fe3  1  0.99654411  0.89934060  0.99637127  1
  Mo  Mo0  1  0.49923187  0.04986293  0.99867392  1
  Mo  Mo1  1  0.49990227  0.14997935  -0.00017798  1
  Mo  Mo2  1  0.50000000  0.25000000  -0.00000000  1
  Mo  Mo3  1  0.50076813  0.45013707  0.00132608  1
  Mo  Mo4  1  0.50009773  0.35002065  0.00017798  1
  Mo  Mo5  1  0.50032331  0.54976005  0.99900183  1
  Mo  Mo6  1  0.49724385  0.64982285  0.99880131  1
  Mo  Mo7  1  0.50000000  0.75000000  -0.00000000  1
  Mo  Mo8  1  0.50275615  0.85017715  0.00119869  1
  Mo  Mo9  1  0.49967669  0.95023995  0.00099817  1
  O  O0  1  0.25762971  0.02570070  0.51485179  1
  O  O1  1  0.25781272  0.12572782  0.51535893  1
  O  O2  1  0.25800496  0.22577959  0.51573621  1
  O  O3  1  0.25819768  0.32583789  0.51614818  1
  O  O4  1  0.25855859  0.42596992  0.51677740  1
  O  O5  1  0.25896898  0.52574132  0.51747352  1
  O  O6  1  0.25047885  0.62323627  0.50136160  1
  O  O7  1  0.25996405  0.72629478  0.51901167  1
  O  O8  1  0.26011350  0.82763867  0.53152913  1
  O  O9  1  0.25737572  0.92640890  0.51352345  1
  O  O10  1  0.22250363  0.07039828  0.99873302  1
  O  O11  1  0.22288686  0.17045822  0.99943339  1
  O  O12  1  0.22306837  0.27050766  0.99982963  1
  O  O13  1  0.22334884  0.37056615  0.00035807  1
  O  O14  1  0.22443398  0.47068398  0.00158241  1
  O  O15  1  0.21855615  0.56999002  0.99611959  1
  O  O16  1  0.21074370  0.66928886  0.98873807  1
  O  O17  1  0.22143780  0.76986616  0.00308331  1
  O  O18  1  0.21084827  0.87259103  0.00802299  1
  O  O19  1  0.22493771  0.97070724  0.00017514  1
  O  O20  1  0.29296313  0.02215521  0.99801921  1
  O  O21  1  0.29396121  0.12220060  0.99935120  1
  O  O22  1  0.29422618  0.22225875  -0.00007893  1
  O  O23  1  0.29438292  0.32231080  0.00027928  1
  O  O24  1  0.29446129  0.42239769  0.00092235  1
  O  O25  1  0.29417661  0.52217817  -0.00099911  1
  O  O26  1  0.28848138  0.61948350  0.99658754  1
  O  O27  1  0.29487701  0.72163464  0.99470317  1
  O  O28  1  0.30383910  0.82240188  0.01686439  1
  O  O29  1  0.29082550  0.92277745  0.00202398  1
  O  O30  1  0.74144141  0.07403008  0.48322260  1
  O  O31  1  0.74180232  0.17416211  0.48385182  1
  O  O32  1  0.74199504  0.27422041  0.48426379  1
  O  O33  1  0.74218728  0.37427218  0.48464107  1
  O  O34  1  0.74237029  0.47429930  0.48514821  1
  O  O35  1  0.74262428  0.57359110  0.48647655  1
  O  O36  1  0.73988650  0.67236133  0.46847087  1
  O  O37  1  0.74003595  0.77370522  0.48098833  1
  O  O38  1  0.74952115  0.87676373  0.49863840  1
  O  O39  1  0.74103102  0.97425868  0.48252648  1
  O  O40  1  0.70553871  0.07760231  0.99907765  1
  O  O41  1  0.70561708  0.17768920  0.99972072  1
  O  O42  1  0.70577382  0.27774125  0.00007893  1
  O  O43  1  0.70603879  0.37779940  0.00064880  1
  O  O44  1  0.70703687  0.47784479  0.00198079  1
  O  O45  1  0.70917450  0.57722255  0.99797602  1
  O  O46  1  0.69616090  0.67759812  0.98313561  1
  O  O47  1  0.70512299  0.77836536  0.00529683  1
  O  O48  1  0.71151862  0.88051650  0.00341246  1
  O  O49  1  0.70582339  0.97782183  0.00099911  1
  O  O50  1  0.77556602  0.02931602  0.99841759  1
  O  O51  1  0.77665116  0.12943385  -0.00035807  1
  O  O52  1  0.77693163  0.22949234  0.00017037  1
  O  O53  1  0.77711314  0.32954178  0.00056661  1
  O  O54  1  0.77749637  0.42960172  0.00126698  1
  O  O55  1  0.77506229  0.52929276  -0.00017514  1
  O  O56  1  0.78915173  0.62740897  0.99197701  1
  O  O57  1  0.77856220  0.73013384  0.99691669  1
  O  O58  1  0.78925630  0.83071114  0.01126193  1
  O  O59  1  0.78144385  0.93000998  0.00388041  1
loop_
_geom_bond_atom_site_label_1
_geom_bond_atom_site_label_2
_geom_bond_distance
_geom_bond_site_symmetry_2
Mg0 O0 2.073383 1_555
Mg0 O20 2.078708 1_554
Mg0 O39 2.085754 1_444
Mg0 O49 2.086619 1_445
Mg0 O50 2.091650 1_454
Mg0 O19 2.097532 1_545
Mg1 O1 2.075918 1_555
Mg1 O21 2.080478 1_554
Mg1 O30 2.082483 1_454
Mg1 O40 2.086791 1_454
Mg1 O51 2.094173 1_455
Mg1 O10 2.100756 1_554
Mg2 O2 2.077592 1_555
Mg2 O31 2.079766 1_454
Mg2 O22 2.082539 1_555
Mg2 O41 2.084865 1_454
Mg2 O52 2.096331 1_455
Mg2 O11 2.098967 1_554
Mg3 O32 2.077592 1_454
Mg3 O3 2.079766 1_555
Mg3 O42 2.082539 1_455
Mg3 O23 2.084865 1_555
Mg3 O12 2.096331 1_554
Mg3 O53 2.098967 1_455
Mg4 O33 2.075918 1_454
Mg4 O43 2.080478 1_455
Mg4 O4 2.082483 1_555
Mg4 O24 2.086791 1_555
Mg4 O13 2.094173 1_555
Mg4 O54 2.100756 1_455
Mg5 O34 2.073383 1_454
Mg5 O44 2.078708 1_455
Mg5 O5 2.085754 1_555
Mg5 O25 2.086619 1_555
Mg5 O14 2.091650 1_555
Mg5 O55 2.097532 1_455
Fe0 O56 1.949995 1_454
Fe0 O26 1.956148 1_554
Fe0 O6 2.009479 1_555
Fe0 O35 2.084783 1_454
Fe0 O45 2.101623 1_454
Fe0 O15 2.119613 1_554
Fe1 O46 2.061578 1_555
Fe1 O27 2.089630 1_655
Fe1 O16 2.099280 1_655
Fe1 O7 2.101713 1_656
Fe1 O57 2.128042 1_555
Fe1 O36 2.131929 1_555
Fe2 O28 2.061578 1_555
Fe2 O47 2.089630 1_455
Fe2 O58 2.099280 1_455
Fe2 O37 2.101713 1_454
Fe2 O17 2.128042 1_555
Fe2 O8 2.131929 1_555
Fe3 O18 1.949995 1_656
Fe3 O48 1.956148 1_556
Fe3 O38 2.009479 1_555
Fe3 O9 2.084783 1_656
Fe3 O29 2.101623 1_656
Fe3 O59 2.119613 1_556
Mo0 O20 1.948221 1_555
Mo0 O0 1.949267 1_555
Mo0 O40 1.950776 1_555
Mo0 O30 1.952195 1_556
Mo0 O50 1.952292 1_555
Mo0 O10 1.953577 1_555
Mo1 O41 1.949439 1_554
Mo1 O31 1.950104 1_555
Mo1 O21 1.951073 1_554
Mo1 O1 1.951852 1_554
Mo1 O11 1.952711 1_554
Mo1 O51 1.954085 1_555
Mo2 O22 1.950352 1_555
Mo2 O42 1.950352 1_555
Mo2 O2 1.951048 1_554
Mo2 O32 1.951048 1_555
Mo2 O12 1.953430 1_554
Mo2 O52 1.953430 1_555
Mo3 O44 1.948221 1_555
Mo3 O34 1.949267 1_555
Mo3 O24 1.950776 1_555
Mo3 O4 1.952195 1_554
Mo3 O14 1.952292 1_555
Mo3 O54 1.953577 1_555
Mo4 O23 1.949439 1_555
Mo4 O3 1.950104 1_554
Mo4 O43 1.951073 1_555
Mo4 O33 1.951852 1_555
Mo4 O53 1.952711 1_555
Mo4 O13 1.954085 1_555
Mo5 O5 1.940032 1_555
Mo5 O55 1.941736 1_556
Mo5 O25 1.944681 1_556
Mo5 O45 1.952516 1_555
Mo5 O35 1.964209 1_556
Mo5 O15 1.964557 1_555
Mo6 O36 1.893511 1_556
Mo6 O16 1.956761 1_555
Mo6 O46 1.992142 1_555
Mo6 O6 2.006589 1_555
Mo6 O26 2.071408 1_555
Mo6 O56 2.090325 1_555
Mo7 O7 1.937933 1_554
Mo7 O37 1.937933 1_555
Mo7 O57 1.941627 1_554
Mo7 O17 1.941627 1_555
Mo7 O47 1.956253 1_555
Mo7 O27 1.956253 1_554
Mo8 O8 1.893511 1_554
Mo8 O58 1.956761 1_555
Mo8 O28 1.992142 1_555
Mo8 O38 2.006589 1_555
Mo8 O48 2.071408 1_555
Mo8 O18 2.090325 1_555
Mo9 O39 1.940032 1_555
Mo9 O19 1.941736 1_555
Mo9 O49 1.944681 1_555
Mo9 O29 1.952516 1_555
Mo9 O9 1.964209 1_554
Mo9 O59 1.964557 1_555
O0 Sr10 2.827238 1_555
O0 Sr9 2.828719 1_545
O0 Sr10 2.829012 1_455
O0 Sr0 2.832425 1_555
O1 Sr11 2.827778 1_555
O1 Sr11 2.828519 1_455
O1 Sr0 2.830763 1_555
O1 Sr1 2.833227 1_555
O2 Sr12 2.827791 1_555
O2 Sr12 2.828557 1_455
O2 Sr2 2.830777 1_555
O2 Sr1 2.831701 1_555
O3 Sr13 2.828052 1_555
O3 Sr13 2.828379 1_455
O3 Sr3 2.828514 1_555
O3 Sr2 2.834500 1_555
O4 Sr4 2.817508 1_555
O4 Sr16 2.828127 1_455
O4 Sr16 2.828331 1_555
O4 Sr3 2.840402 1_555
O5 Sr14 2.826219 1_555
O5 Sr14 2.830576 1_455
O5 Sr4 2.830911 1_555
O5 Sr5 2.874257 1_555
O6 Sr5 2.691634 1_555
O6 Sr15 2.817760 1_555
O6 Sr15 2.844593 1_455
O6 Sr6 2.951259 1_555
O7 Sr7 2.805581 1_555
O7 Sr17 2.821573 1_455
O7 Sr6 2.835266 1_555
O7 Sr17 2.837184 1_555
O8 Sr8 2.738716 1_555
O8 Sr18 2.788946 1_455
O8 Sr18 2.872534 1_555
O8 Sr7 2.899252 1_555
O9 Sr9 2.790221 1_555
O9 Sr19 2.815557 1_555
O9 Sr19 2.844345 1_455
O9 Sr8 2.911294 1_555
O10 Sr10 2.637709 1_455
O10 Sr0 2.644725 1_556
O10 Sr0 3.041180 1_555
O10 Sr11 3.051927 1_556
O11 Sr11 2.642530 1_455
O11 Sr1 2.644337 1_556
O11 Sr1 3.041464 1_555
O11 Sr12 3.049312 1_556
O12 Sr2 2.643897 1_556
O12 Sr12 2.644268 1_455
O12 Sr2 3.041482 1_555
O12 Sr13 3.047013 1_556
O13 Sr3 2.643419 1_555
O13 Sr13 2.647057 1_454
O13 Sr3 3.041561 1_554
O13 Sr16 3.046795 1_555
O14 Sr4 2.644988 1_555
O14 Sr16 2.651157 1_454
O14 Sr14 3.035876 1_555
O14 Sr4 3.038564 1_554
O15 Sr14 2.620161 1_455
O15 Sr5 2.646295 1_556
O15 Sr5 3.053387 1_555
O15 Sr15 3.115812 1_556
O16 Sr15 2.534641 1_455
O16 Sr6 2.629302 1_556
O16 Sr6 3.067683 1_555
O16 Sr17 3.107815 1_556
O17 Sr7 2.632573 1_555
O17 Sr17 2.639537 1_454
O17 Sr7 3.059415 1_554
O17 Sr18 3.078112 1_555
O18 Sr8 2.599159 1_555
O18 Sr18 2.663243 1_454
O18 Sr19 2.975413 1_555
O18 Sr8 3.079832 1_554
O19 Sr9 2.652065 1_555
O19 Sr19 2.703045 1_454
O19 Sr9 3.032121 1_554
O19 Sr10 3.038396 1_565
O20 Sr9 2.640852 1_545
O20 Sr10 2.650252 1_556
O20 Sr10 3.050526 1_455
O20 Sr0 3.056038 1_556
O21 Sr0 2.646536 1_555
O21 Sr11 2.647682 1_556
O21 Sr11 3.052598 1_455
O21 Sr1 3.055802 1_556
O22 Sr12 2.647096 1_555
O22 Sr1 2.647231 1_554
O22 Sr2 3.052859 1_555
O22 Sr12 3.052897 1_454
O23 Sr13 2.647216 1_555
O23 Sr2 2.649785 1_554
O23 Sr3 3.050961 1_555
O23 Sr13 3.052490 1_454
O24 Sr16 2.648818 1_555
O24 Sr3 2.653686 1_554
O24 Sr4 3.044365 1_555
O24 Sr16 3.050573 1_454
O25 Sr4 2.645053 1_554
O25 Sr14 2.646753 1_555
O25 Sr14 3.053825 1_454
O25 Sr5 3.093773 1_555
O26 Sr5 2.542614 1_555
O26 Sr15 2.612365 1_556
O26 Sr15 3.111831 1_455
O26 Sr6 3.133155 1_556
O27 Sr6 2.612861 1_555
O27 Sr17 2.627189 1_556
O27 Sr17 3.074305 1_455
O27 Sr7 3.107635 1_556
O28 Sr18 2.597447 1_555
O28 Sr7 2.656377 1_554
O28 Sr8 2.978566 1_555
O28 Sr18 3.098154 1_454
O29 Sr19 2.649698 1_555
O29 Sr8 2.732350 1_554
O29 Sr9 3.022772 1_555
O29 Sr19 3.044098 1_454
O30 Sr10 2.817508 1_555
O30 Sr0 2.828127 1_655
O30 Sr0 2.828331 1_555
O30 Sr11 2.840402 1_555
O31 Sr1 2.828052 1_555
O31 Sr1 2.828379 1_655
O31 Sr11 2.828514 1_555
O31 Sr12 2.834500 1_555
O32 Sr2 2.827791 1_555
O32 Sr2 2.828557 1_655
O32 Sr12 2.830777 1_555
O32 Sr13 2.831701 1_555
O33 Sr3 2.827778 1_555
O33 Sr3 2.828519 1_655
O33 Sr16 2.830763 1_555
O33 Sr13 2.833227 1_555
O34 Sr4 2.827238 1_555
O34 Sr14 2.828719 1_555
O34 Sr4 2.829012 1_655
O34 Sr16 2.832425 1_555
O35 Sr14 2.790221 1_555
O35 Sr5 2.815557 1_555
O35 Sr5 2.844345 1_655
O35 Sr15 2.911294 1_555
O36 Sr15 2.738716 1_555
O36 Sr6 2.788946 1_655
O36 Sr6 2.872534 1_555
O36 Sr17 2.899252 1_555
O37 Sr17 2.805581 1_555
O37 Sr7 2.821573 1_655
O37 Sr18 2.835266 1_555
O37 Sr7 2.837184 1_555
O38 Sr19 2.691634 1_555
O38 Sr8 2.817760 1_555
O38 Sr8 2.844593 1_655
O38 Sr18 2.951259 1_555
O39 Sr9 2.826219 1_555
O39 Sr9 2.830576 1_655
O39 Sr10 2.830911 1_565
O39 Sr19 2.874257 1_555
O40 Sr0 2.648818 1_555
O40 Sr11 2.653686 1_556
O40 Sr10 3.044365 1_555
O40 Sr0 3.050573 1_656
O41 Sr1 2.647216 1_555
O41 Sr12 2.649785 1_556
O41 Sr11 3.050961 1_555
O41 Sr1 3.052490 1_656
O42 Sr2 2.647096 1_554
O42 Sr13 2.647231 1_555
O42 Sr12 3.052859 1_554
O42 Sr2 3.052897 1_655
O43 Sr16 2.646536 1_555
O43 Sr3 2.647682 1_554
O43 Sr3 3.052598 1_655
O43 Sr13 3.055802 1_554
O44 Sr14 2.640852 1_555
O44 Sr4 2.650252 1_554
O44 Sr4 3.050526 1_655
O44 Sr16 3.056038 1_554
O45 Sr5 2.649698 1_555
O45 Sr15 2.732350 1_556
O45 Sr14 3.022772 1_555
O45 Sr5 3.044098 1_656
O46 Sr6 2.597447 1_555
O46 Sr17 2.656377 1_556
O46 Sr15 2.978566 1_555
O46 Sr6 3.098154 1_656
O47 Sr18 2.612861 1_555
O47 Sr7 2.627189 1_554
O47 Sr7 3.074305 1_655
O47 Sr17 3.107635 1_554
O48 Sr19 2.542614 1_555
O48 Sr8 2.612365 1_554
O48 Sr8 3.111831 1_655
O48 Sr18 3.133155 1_554
O49 Sr10 2.645053 1_565
O49 Sr9 2.646753 1_554
O49 Sr9 3.053825 1_655
O49 Sr19 3.093773 1_554
O50 Sr10 2.644988 1_555
O50 Sr0 2.651157 1_656
O50 Sr9 3.035876 1_545
O50 Sr10 3.038564 1_556
O51 Sr11 2.643419 1_554
O51 Sr1 2.647057 1_655
O51 Sr11 3.041561 1_555
O51 Sr0 3.046795 1_554
O52 Sr12 2.643897 1_554
O52 Sr2 2.644268 1_655
O52 Sr12 3.041482 1_555
O52 Sr1 3.047013 1_554
O53 Sr3 2.642530 1_655
O53 Sr13 2.644337 1_554
O53 Sr13 3.041464 1_555
O53 Sr2 3.049312 1_554
O54 Sr4 2.637709 1_655
O54 Sr16 2.644725 1_554
O54 Sr16 3.041180 1_555
O54 Sr3 3.051927 1_554
O55 Sr14 2.652065 1_554
O55 Sr5 2.703045 1_655
O55 Sr14 3.032121 1_555
O55 Sr4 3.038396 1_554
O56 Sr15 2.599159 1_555
O56 Sr6 2.663243 1_656
O56 Sr5 2.975413 1_555
O56 Sr15 3.079832 1_556
O57 Sr17 2.632573 1_555
O57 Sr7 2.639537 1_656
O57 Sr17 3.059415 1_556
O57 Sr6 3.078112 1_555
O58 Sr8 2.534641 1_655
O58 Sr18 2.629302 1_554
O58 Sr18 3.067683 1_555
O58 Sr7 3.107815 1_554
O59 Sr9 2.620161 1_655
O59 Sr19 2.646295 1_554
O59 Sr19 3.053387 1_555
O59 Sr8 3.115812 1_554
