# generated using pymatgen
data_NdCd11
_symmetry_space_group_name_H-M   'P 1'
_cell_length_a   9.34016661
_cell_length_b   9.34016661
_cell_length_c   9.34016661
_cell_angle_alpha   90.00000000
_cell_angle_beta   90.00000000
_cell_angle_gamma   90.00000000
_symmetry_Int_Tables_number   1
_chemical_formula_structural   NdCd11
_chemical_formula_sum   'Nd3 Cd33'
_cell_volume   814.82410775
_cell_formula_units_Z   3
loop_
 _symmetry_equiv_pos_site_id
 _symmetry_equiv_pos_as_xyz
  1  'x, y, z'
loop_
 _atom_site_type_symbol
 _atom_site_label
 _atom_site_symmetry_multiplicity
 _atom_site_fract_x
 _atom_site_fract_y
 _atom_site_fract_z
 _atom_site_occupancy
  Nd  Nd0  1  0.00000000  -0.00000000  0.50000000  1
  Nd  Nd1  1  0.00000000  0.50000000  0.00000000  1
  Nd  Nd2  1  0.50000000  -0.00000000  0.00000000  1
  Cd  Cd0  1  0.50000000  0.50000000  0.50000000  1
  Cd  Cd1  1  0.15739235  0.15739235  0.84260765  1
  Cd  Cd2  1  0.15739235  0.84260765  0.15739235  1
  Cd  Cd3  1  0.84260765  0.15739235  0.15739235  1
  Cd  Cd4  1  0.84260765  0.84260765  0.84260765  1
  Cd  Cd5  1  0.84260765  0.84260765  0.15739235  1
  Cd  Cd6  1  0.84260765  0.15739235  0.84260765  1
  Cd  Cd7  1  0.15739235  0.84260765  0.84260765  1
  Cd  Cd8  1  0.15739235  0.15739235  0.15739235  1
  Cd  Cd9  1  0.34514422  0.34514422  0.00000000  1
  Cd  Cd10  1  0.34514422  -0.00000000  0.65485578  1
  Cd  Cd11  1  0.00000000  0.34514422  0.65485578  1
  Cd  Cd12  1  0.34514422  0.65485578  0.00000000  1
  Cd  Cd13  1  0.34514422  -0.00000000  0.34514422  1
  Cd  Cd14  1  0.00000000  0.65485578  0.34514422  1
  Cd  Cd15  1  0.65485578  0.34514422  0.00000000  1
  Cd  Cd16  1  0.65485578  -0.00000000  0.34514422  1
  Cd  Cd17  1  0.00000000  0.34514422  0.34514422  1
  Cd  Cd18  1  0.65485578  0.65485578  0.00000000  1
  Cd  Cd19  1  0.65485578  -0.00000000  0.65485578  1
  Cd  Cd20  1  0.00000000  0.65485578  0.65485578  1
  Cd  Cd21  1  0.26612113  0.26612113  0.50000000  1
  Cd  Cd22  1  0.26612113  0.50000000  0.73387887  1
  Cd  Cd23  1  0.50000000  0.26612113  0.73387887  1
  Cd  Cd24  1  0.26612113  0.73387887  0.50000000  1
  Cd  Cd25  1  0.26612113  0.50000000  0.26612113  1
  Cd  Cd26  1  0.50000000  0.73387887  0.26612113  1
  Cd  Cd27  1  0.73387887  0.26612113  0.50000000  1
  Cd  Cd28  1  0.73387887  0.50000000  0.26612113  1
  Cd  Cd29  1  0.50000000  0.26612113  0.26612113  1
  Cd  Cd30  1  0.73387887  0.73387887  0.50000000  1
  Cd  Cd31  1  0.73387887  0.50000000  0.73387887  1
  Cd  Cd32  1  0.50000000  0.73387887  0.73387887  1
loop_
_geom_bond_atom_site_label_1
_geom_bond_atom_site_label_2
_geom_bond_distance
_geom_bond_site_symmetry_2
Cd0 Cd30 3.089304 1_555
Cd0 Cd31 3.089304 1_555
Cd0 Cd32 3.089304 1_555
Cd0 Cd26 3.089304 1_555
Cd0 Cd23 3.089304 1_555
Cd0 Cd24 3.089304 1_555
Cd0 Cd28 3.089304 1_555
Cd0 Cd22 3.089304 1_555
Cd0 Cd27 3.089304 1_555
Cd0 Cd21 3.089304 1_555
Cd0 Cd25 3.089304 1_555
Cd0 Cd29 3.089304 1_555
Cd1 Cd9 2.882979 1_556
Cd1 Cd11 2.882979 1_555
Cd1 Cd10 2.882979 1_555
Cd1 Cd6 2.940142 1_455
Cd1 Cd7 2.940142 1_545
Cd1 Cd8 2.940142 1_556
Cd1 Nd1 3.816058 1_556
Cd1 Nd2 3.816058 1_556
Cd1 Nd0 3.816058 1_555
Cd2 Cd7 2.940142 1_554
Cd2 Cd5 2.940142 1_455
Cd2 Cd8 2.940142 1_565
Cd2 Nd0 3.816058 1_565
Cd2 Nd2 3.816058 1_565
Cd2 Nd1 3.816058 1_555
Cd3 Cd6 2.940142 1_554
Cd3 Cd5 2.940142 1_545
Cd3 Cd8 2.940142 1_655
Cd3 Nd0 3.816058 1_655
Cd3 Nd1 3.816058 1_655
Cd3 Nd2 3.816058 1_555
Cd4 Cd5 2.940142 1_556
Cd4 Cd7 2.940142 1_655
Cd4 Cd6 2.940142 1_565
Cd4 Nd1 3.816058 1_656
Cd4 Nd0 3.816058 1_665
Cd4 Nd2 3.816058 1_566
Cd5 Nd0 3.816058 1_665
Cd5 Nd1 3.816058 1_655
Cd5 Nd2 3.816058 1_565
Cd6 Nd1 3.816058 1_656
Cd6 Nd0 3.816058 1_655
Cd6 Nd2 3.816058 1_556
Cd7 Nd2 3.816058 1_566
Cd7 Nd1 3.816058 1_556
Cd7 Nd0 3.816058 1_565
Cd8 Cd9 2.882979 1_555
Cd8 Nd1 3.816058 1_555
Cd8 Nd0 3.816058 1_555
Cd8 Nd2 3.816058 1_555
Cd9 Nd1 3.533310 1_555
Cd9 Nd2 3.533310 1_555
Cd10 Cd7 2.882979 1_545
Cd10 Cd19 2.892758 1_555
Cd10 Cd13 2.892758 1_555
Cd10 Cd21 2.969019 1_555
Cd10 Cd23 2.969019 1_555
Cd10 Cd32 2.969019 1_545
Cd10 Cd24 2.969019 1_545
Cd10 Nd2 3.533310 1_556
Cd10 Nd0 3.533310 1_555
Cd11 Cd6 2.882979 1_455
Cd11 Cd17 2.892758 1_555
Cd11 Cd20 2.892758 1_555
Cd11 Cd22 2.969019 1_555
Cd11 Cd21 2.969019 1_555
Cd11 Cd31 2.969019 1_455
Cd11 Cd27 2.969019 1_455
Cd11 Nd0 3.533310 1_555
Cd11 Nd1 3.533310 1_556
Cd12 Cd7 2.882979 1_554
Cd12 Cd2 2.882979 1_555
Cd12 Cd18 2.892758 1_555
Cd12 Cd9 2.892758 1_555
Cd12 Cd25 2.969019 1_555
Cd12 Cd26 2.969019 1_555
Cd12 Cd32 2.969019 1_554
Cd12 Cd22 2.969019 1_554
Cd12 Nd2 3.533310 1_565
Cd12 Nd1 3.533310 1_555
Cd13 Cd2 2.882979 1_545
Cd13 Cd8 2.882979 1_555
Cd13 Cd16 2.892758 1_555
Cd13 Cd29 2.969019 1_555
Cd13 Cd21 2.969019 1_555
Cd13 Cd26 2.969019 1_545
Cd13 Cd24 2.969019 1_545
Cd13 Nd0 3.533310 1_555
Cd13 Nd2 3.533310 1_555
Cd14 Cd2 2.882979 1_555
Cd14 Cd5 2.882979 1_455
Cd14 Cd17 2.892758 1_555
Cd14 Cd20 2.892758 1_555
Cd14 Cd24 2.969019 1_555
Cd14 Cd25 2.969019 1_555
Cd14 Cd30 2.969019 1_455
Cd14 Cd28 2.969019 1_455
Cd14 Nd1 3.533310 1_555
Cd14 Nd0 3.533310 1_565
Cd15 Cd6 2.882979 1_554
Cd15 Cd3 2.882979 1_555
Cd15 Cd18 2.892758 1_555
Cd15 Cd9 2.892758 1_555
Cd15 Cd29 2.969019 1_555
Cd15 Cd28 2.969019 1_555
Cd15 Cd23 2.969019 1_554
Cd15 Cd31 2.969019 1_554
Cd15 Nd1 3.533310 1_655
Cd15 Nd2 3.533310 1_555
Cd16 Cd3 2.882979 1_555
Cd16 Cd5 2.882979 1_545
Cd16 Cd19 2.892758 1_555
Cd16 Cd29 2.969019 1_555
Cd16 Cd27 2.969019 1_555
Cd16 Cd26 2.969019 1_545
Cd16 Cd30 2.969019 1_545
Cd16 Nd0 3.533310 1_655
Cd16 Nd2 3.533310 1_555
Cd17 Cd3 2.882979 1_455
Cd17 Cd8 2.882979 1_555
Cd17 Cd25 2.969019 1_555
Cd17 Cd21 2.969019 1_555
Cd17 Cd28 2.969019 1_455
Cd17 Cd27 2.969019 1_455
Cd17 Nd0 3.533310 1_555
Cd17 Nd1 3.533310 1_555
Cd18 Cd4 2.882979 1_554
Cd18 Cd5 2.882979 1_555
Cd18 Cd28 2.969019 1_555
Cd18 Cd26 2.969019 1_555
Cd18 Cd32 2.969019 1_554
Cd18 Cd31 2.969019 1_554
Cd18 Nd1 3.533310 1_655
Cd18 Nd2 3.533310 1_565
Cd19 Cd4 2.882979 1_545
Cd19 Cd6 2.882979 1_555
Cd19 Cd23 2.969019 1_555
Cd19 Cd27 2.969019 1_555
Cd19 Cd30 2.969019 1_545
Cd19 Cd32 2.969019 1_545
Cd19 Nd2 3.533310 1_556
Cd19 Nd0 3.533310 1_655
Cd20 Cd4 2.882979 1_455
Cd20 Cd7 2.882979 1_555
Cd20 Cd24 2.969019 1_555
Cd20 Cd22 2.969019 1_555
Cd20 Cd30 2.969019 1_455
Cd20 Cd31 2.969019 1_455
Cd20 Nd1 3.533310 1_556
Cd20 Nd0 3.533310 1_565
Cd21 Cd23 3.089304 1_555
Cd21 Cd22 3.089304 1_555
Cd21 Cd25 3.089304 1_555
Cd21 Cd29 3.089304 1_555
Cd21 Nd0 3.515191 1_555
Cd22 Cd9 2.969019 1_556
Cd22 Cd24 3.089304 1_555
Cd22 Cd32 3.089304 1_555
Cd22 Cd23 3.089304 1_555
Cd22 Nd1 3.515191 1_556
Cd23 Cd9 2.969019 1_556
Cd23 Cd27 3.089304 1_555
Cd23 Cd31 3.089304 1_555
Cd23 Nd2 3.515191 1_556
Cd24 Cd32 3.089304 1_555
Cd24 Cd25 3.089304 1_555
Cd24 Cd26 3.089304 1_555
Cd24 Nd0 3.515191 1_565
Cd25 Cd9 2.969019 1_555
Cd25 Cd26 3.089304 1_555
Cd25 Cd29 3.089304 1_555
Cd25 Nd1 3.515191 1_555
Cd26 Cd28 3.089304 1_555
Cd26 Cd30 3.089304 1_555
Cd26 Nd2 3.515191 1_565
Cd27 Cd29 3.089304 1_555
Cd27 Cd31 3.089304 1_555
Cd27 Cd28 3.089304 1_555
Cd27 Nd0 3.515191 1_655
Cd28 Cd29 3.089304 1_555
Cd28 Cd30 3.089304 1_555
Cd28 Nd1 3.515191 1_655
Cd29 Cd9 2.969019 1_555
Cd29 Nd2 3.515191 1_555
Cd30 Cd31 3.089304 1_555
Cd30 Cd32 3.089304 1_555
Cd30 Nd0 3.515191 1_665
Cd31 Cd32 3.089304 1_555
Cd31 Nd1 3.515191 1_656
Cd32 Nd2 3.515191 1_566
