# generated using pymatgen
data_PPtN5ClO6
_symmetry_space_group_name_H-M   'P 1'
_cell_length_a   7.10606500
_cell_length_b   9.44442000
_cell_length_c   9.63274875
_cell_angle_alpha   62.18431373
_cell_angle_beta   90.00000000
_cell_angle_gamma   90.00000000
_symmetry_Int_Tables_number   1
_chemical_formula_structural   PPtN5ClO6
_chemical_formula_sum   'P2 Pt2 N10 Cl2 O12'
_cell_volume   571.78082371
_cell_formula_units_Z   2
loop_
 _symmetry_equiv_pos_site_id
 _symmetry_equiv_pos_as_xyz
  1  'x, y, z'
loop_
 _atom_site_type_symbol
 _atom_site_label
 _atom_site_symmetry_multiplicity
 _atom_site_fract_x
 _atom_site_fract_y
 _atom_site_fract_z
 _atom_site_occupancy
  P  P0  1  0.75000000  0.95707200  0.72780400  1
  P  P1  1  0.25000000  0.04292800  0.27219600  1
  Pt  Pt0  1  0.25000000  0.18492200  0.69800400  1
  Pt  Pt1  1  0.75000000  0.81507800  0.30199600  1
  N  N0  1  0.07692300  0.33877700  0.52589900  1
  N  N1  1  0.57692300  0.66122300  0.47410100  1
  N  N2  1  0.92307700  0.66122300  0.47410100  1
  N  N3  1  0.42307700  0.33877700  0.52589900  1
  N  N4  1  0.09692800  0.22094600  0.85772800  1
  N  N5  1  0.59692800  0.77905400  0.14227200  1
  N  N6  1  0.90307200  0.77905400  0.14227200  1
  N  N7  1  0.40307200  0.22094600  0.85772800  1
  N  N8  1  0.25000000  0.98641500  0.72942500  1
  N  N9  1  0.75000000  0.01358500  0.27057500  1
  Cl  Cl0  1  0.25000000  0.42268500  0.39883700  1
  Cl  Cl1  1  0.75000000  0.57731500  0.60116300  1
  O  O0  1  0.33696000  0.55617800  0.88734300  1
  O  O1  1  0.83696000  0.44382200  0.11265700  1
  O  O2  1  0.66304000  0.44382200  0.11265700  1
  O  O3  1  0.16304000  0.55617800  0.88734300  1
  O  O4  1  0.75000000  0.77713400  0.05987900  1
  O  O5  1  0.25000000  0.22286600  0.94012100  1
  O  O6  1  0.75000000  0.10825300  0.73991100  1
  O  O7  1  0.25000000  0.89174700  0.26008900  1
  O  O8  1  0.57123300  0.87485000  0.72314400  1
  O  O9  1  0.07123300  0.12515000  0.27685600  1
  O  O10  1  0.42876700  0.12515000  0.27685600  1
  O  O11  1  0.92876700  0.87485000  0.72314400  1
loop_
_geom_bond_atom_site_label_1
_geom_bond_atom_site_label_2
_geom_bond_distance
_geom_bond_site_symmetry_2
N0 Pt0 2.030843 1_555
N1 Pt1 2.030843 1_555
N2 Pt1 2.030843 1_555
N3 Pt0 2.030843 1_555
N4 O5 1.351611 1_555
N4 Pt0 2.038306 1_555
N5 O4 1.351611 1_555
N5 Pt1 2.038306 1_555
N6 O4 1.351611 1_555
N6 Pt1 2.038306 1_555
N7 O5 1.351611 1_555
N7 Pt0 2.038306 1_555
N8 Pt0 1.754096 1_565
N9 Pt1 1.754096 1_545
Cl0 N3 1.653332 1_555
Cl0 N0 1.653332 1_555
Cl1 N2 1.653332 1_555
Cl1 N1 1.653332 1_555
O0 O3 1.235887 1_555
O1 O2 1.235887 1_555
O6 P0 1.485822 1_545
O7 P1 1.485822 1_565
O8 P0 1.500432 1_555
O9 P1 1.500432 1_555
O10 P1 1.500432 1_555
O11 P0 1.500432 1_555
