# generated using pymatgen
data_ZnCdCu4(SnS4)2
_symmetry_space_group_name_H-M   'P 1'
_cell_length_a   5.55483300
_cell_length_b   5.55483300
_cell_length_c   11.01042800
_cell_angle_alpha   90.00000000
_cell_angle_beta   90.00000000
_cell_angle_gamma   90.00000000
_symmetry_Int_Tables_number   1
_chemical_formula_structural   ZnCdCu4(SnS4)2
_chemical_formula_sum   'Zn1 Cd1 Cu4 Sn2 S8'
_cell_volume   339.73963437
_cell_formula_units_Z   1
loop_
 _symmetry_equiv_pos_site_id
 _symmetry_equiv_pos_as_xyz
  1  'x, y, z'
loop_
 _atom_site_type_symbol
 _atom_site_label
 _atom_site_symmetry_multiplicity
 _atom_site_fract_x
 _atom_site_fract_y
 _atom_site_fract_z
 _atom_site_occupancy
  Zn  Zn0  1  0.50000000  0.50000000  0.50000000  1
  Cd  Cd0  1  0.00000000  0.00000000  0.00000000  1
  Cu  Cu0  1  0.50000000  0.00000000  0.25281500  1
  Cu  Cu1  1  0.00000000  0.50000000  0.74718500  1
  Cu  Cu2  1  0.00000000  0.50000000  0.25281500  1
  Cu  Cu3  1  0.50000000  0.00000000  0.74718500  1
  Sn  Sn0  1  0.50000000  0.50000000  0.00000000  1
  Sn  Sn1  1  0.00000000  0.00000000  0.50000000  1
  S  S0  1  0.74406100  0.74406100  0.14201300  1
  S  S1  1  0.25633200  0.25633200  0.63224900  1
  S  S2  1  0.25593900  0.25593900  0.14201300  1
  S  S3  1  0.74366800  0.74366800  0.63224900  1
  S  S4  1  0.74366800  0.25633200  0.36775100  1
  S  S5  1  0.25593900  0.74406100  0.85798700  1
  S  S6  1  0.25633200  0.74366800  0.36775100  1
  S  S7  1  0.74406100  0.25593900  0.85798700  1
loop_
_geom_bond_atom_site_label_1
_geom_bond_atom_site_label_2
_geom_bond_distance
_geom_bond_site_symmetry_2
Cd0 S2 2.547032 1_555
Cd0 S5 2.547032 1_544
Cd0 S7 2.547032 1_454
Cd0 S0 2.547032 1_445
Cu0 S0 2.312475 1_545
Cu0 S2 2.312475 1_555
Cu0 S4 2.336872 1_555
Cu0 S6 2.336872 1_545
Cu1 S7 2.312475 1_455
Cu1 S5 2.312475 1_555
Cu1 S3 2.336872 1_455
Cu1 S1 2.336872 1_555
Cu2 S0 2.312475 1_455
Cu2 S2 2.312475 1_555
Cu2 S6 2.336872 1_555
Cu2 S4 2.336872 1_455
Cu3 S7 2.312475 1_555
Cu3 S5 2.312475 1_545
Cu3 S3 2.336872 1_545
Cu3 S1 2.336872 1_555
S0 Sn0 2.474038 1_555
S1 Zn0 2.405077 1_555
S1 Sn1 2.484986 1_555
S2 Sn0 2.474038 1_555
S3 Zn0 2.405077 1_555
S3 Sn1 2.484986 1_665
S4 Zn0 2.405077 1_555
S4 Sn1 2.484986 1_655
S5 Sn0 2.474038 1_556
S6 Zn0 2.405077 1_555
S6 Sn1 2.484986 1_565
S7 Sn0 2.474038 1_556
