# generated using pymatgen
data_NaCo2O3
_symmetry_space_group_name_H-M   'P 1'
_cell_length_a   5.22373736
_cell_length_b   5.90708806
_cell_length_c   5.89567154
_cell_angle_alpha   120.81172800
_cell_angle_beta   90.20567164
_cell_angle_gamma   90.06905133
_symmetry_Int_Tables_number   1
_chemical_formula_structural   NaCo2O3
_chemical_formula_sum   'Na2 Co4 O6'
_cell_volume   156.24366452
_cell_formula_units_Z   2
loop_
 _symmetry_equiv_pos_site_id
 _symmetry_equiv_pos_as_xyz
  1  'x, y, z'
loop_
 _atom_site_type_symbol
 _atom_site_label
 _atom_site_symmetry_multiplicity
 _atom_site_fract_x
 _atom_site_fract_y
 _atom_site_fract_z
 _atom_site_occupancy
  Na  Na0  1  0.99753600  0.32573400  0.32614400  1
  Na  Na1  1  0.49733800  0.67488000  0.67460400  1
  Co  Co0  1  0.51934500  0.99592100  0.33498600  1
  Co  Co1  1  0.01384900  0.67099100  0.00559500  1
  Co  Co2  1  0.52051100  0.33501100  0.99541400  1
  Co  Co3  1  0.01383300  0.00526200  0.67097300  1
  O  O0  1  0.46358300  0.26061100  0.26086700  1
  O  O1  1  0.95852000  0.71144800  0.71114000  1
  O  O2  1  0.39174600  0.06296600  0.65983000  1
  O  O3  1  0.87693100  0.34007400  0.95689900  1
  O  O4  1  0.39245100  0.65972700  0.06371200  1
  O  O5  1  0.87615400  0.95737500  0.33983500  1
loop_
_geom_bond_atom_site_label_1
_geom_bond_atom_site_label_2
_geom_bond_distance
_geom_bond_site_symmetry_2
Na0 O1 2.256394 1_555
Na0 O5 2.306555 1_545
Na0 O3 2.307028 1_554
Na0 O0 2.465814 1_655
Na0 O0 2.813173 1_555
Na1 O2 2.403010 1_565
Na1 O4 2.406274 1_556
Na1 O1 2.417467 1_555
Na1 O0 2.418743 1_555
Na1 O1 2.823726 1_455
Co0 O0 1.849487 1_565
Co0 O2 1.871309 1_565
Co0 O5 1.879895 1_555
Co0 O4 1.917449 1_555
Co1 O1 1.891020 1_454
Co1 O3 1.958387 1_454
Co1 O5 1.964786 1_455
Co1 O4 2.012959 1_555
Co2 O0 1.854326 1_556
Co2 O4 1.871533 1_556
Co2 O3 1.878504 1_555
Co2 O2 1.918337 1_555
Co3 O1 1.890015 1_445
Co3 O5 1.957639 1_445
Co3 O3 1.965011 1_455
Co3 O2 2.009949 1_555
