# generated using pymatgen
data_Al6CuP4(H4O7)4
_symmetry_space_group_name_H-M   'P 1'
_cell_length_a   8.02605690
_cell_length_b   7.64066398
_cell_length_c   10.71788322
_cell_angle_alpha   69.37356264
_cell_angle_beta   74.30106686
_cell_angle_gamma   63.45923553
_symmetry_Int_Tables_number   1
_chemical_formula_structural   Al6CuP4(H4O7)4
_chemical_formula_sum   'Al6 Cu1 P4 H16 O28'
_cell_volume   545.25945240
_cell_formula_units_Z   1
loop_
 _symmetry_equiv_pos_site_id
 _symmetry_equiv_pos_as_xyz
  1  'x, y, z'
loop_
 _atom_site_type_symbol
 _atom_site_label
 _atom_site_symmetry_multiplicity
 _atom_site_fract_x
 _atom_site_fract_y
 _atom_site_fract_z
 _atom_site_occupancy
  Al  Al0  1  0.75615300  0.78841000  0.23621500  1
  Al  Al1  1  0.24384700  0.21159000  0.76378500  1
  Al  Al2  1  0.17712100  0.82941900  0.75609900  1
  Al  Al3  1  0.82287900  0.17058100  0.24390100  1
  Al  Al4  1  0.77544900  0.47529600  0.82140700  1
  Al  Al5  1  0.22455100  0.52470400  0.17859300  1
  Cu  Cu0  1  0.00000000  0.00000000  0.00000000  1
  P  P0  1  0.58520400  0.62992000  0.07795200  1
  P  P1  1  0.41479600  0.37008000  0.92204800  1
  P  P2  1  0.07066200  0.64358100  0.59975700  1
  P  P3  1  0.92933800  0.35641900  0.40024300  1
  H  H0  1  0.28633900  0.82867600  0.27118800  1
  H  H1  1  0.71366100  0.17132400  0.72881200  1
  H  H2  1  0.88257800  0.83719200  0.90057700  1
  H  H3  1  0.11742200  0.16280800  0.09942300  1
  H  H4  1  0.39430100  0.89166400  0.44146400  1
  H  H5  1  0.60569900  0.10833600  0.55853600  1
  H  H6  1  0.53612000  0.76674800  0.67673300  1
  H  H7  1  0.46388000  0.23325200  0.32326700  1
  H  H8  1  0.91043300  0.81241600  0.42310500  1
  H  H9  1  0.08956700  0.18758400  0.57689500  1
  H  H10  1  0.96585500  0.43283000  0.10568400  1
  H  H11  1  0.03414500  0.56717000  0.89431600  1
  H  H12  1  0.95899200  0.53739600  0.09288000  1
  H  H13  1  0.04100800  0.46260400  0.90712000  1
  H  H14  1  0.67489600  0.62562500  0.57971000  1
  H  H15  1  0.32510400  0.37437500  0.42029000  1
  O  O0  1  0.89535800  0.64621700  0.69887800  1
  O  O1  1  0.10464200  0.35378300  0.30112200  1
  O  O2  1  0.03187800  0.70484800  0.44960200  1
  O  O3  1  0.96812200  0.29515200  0.55039800  1
  O  O4  1  0.66021600  0.64951900  0.92643000  1
  O  O5  1  0.33978400  0.35048100  0.07357000  1
  O  O6  1  0.95762100  0.91924200  0.86106600  1
  O  O7  1  0.04237900  0.08075800  0.13893400  1
  O  O8  1  0.72221000  0.99335300  0.29572600  1
  O  O9  1  0.27779000  0.00664700  0.70427400  1
  O  O10  1  0.63663500  0.25318600  0.65501000  1
  O  O11  1  0.36336500  0.74681400  0.34499000  1
  O  O12  1  0.77502000  0.57268400  0.38300100  1
  O  O13  1  0.22498000  0.42731600  0.61699900  1
  O  O14  1  0.63666000  0.77300000  0.12034700  1
  O  O15  1  0.36334000  0.22700000  0.87965400  1
  O  O16  1  0.99936700  0.74188800  0.14542000  1
  O  O17  1  0.00063300  0.25811200  0.85458000  1
  O  O18  1  0.43720800  0.88850600  0.34713100  1
  O  O19  1  0.56279200  0.11149400  0.65286900  1
  O  O20  1  0.31756400  0.59326000  0.84578000  1
  O  O21  1  0.68243600  0.40674000  0.15422000  1
  O  O22  1  0.60988600  0.62480600  0.67166500  1
  O  O23  1  0.39011400  0.37519400  0.32833500  1
  O  O24  1  0.14103000  0.79477300  0.61123800  1
  O  O25  1  0.85897000  0.20522700  0.38876200  1
  O  O26  1  0.37019900  0.68421600  0.10361800  1
  O  O27  1  0.62980100  0.31578400  0.89638200  1
loop_
_geom_bond_atom_site_label_1
_geom_bond_atom_site_label_2
_geom_bond_distance
_geom_bond_site_symmetry_2
Al0 O8 1.778064 1_555
Al0 O12 1.814864 1_555
Al0 O14 1.823277 1_555
Al0 O16 1.865328 1_555
Al1 O9 1.778064 1_555
Al1 O13 1.814864 1_555
Al1 O15 1.823286 1_555
Al1 O17 1.865328 1_555
Al2 O20 1.731208 1_555
Al2 O9 1.732055 1_565
Al2 O24 1.779338 1_555
Al2 O6 1.797567 1_455
Al3 O21 1.731208 1_555
Al3 O8 1.732055 1_545
Al3 O25 1.779338 1_555
Al3 O7 1.797567 1_655
Al4 O4 1.812874 1_555
Al4 O17 1.843478 1_655
Al4 O27 1.890113 1_555
Al4 O0 1.894005 1_555
Al4 O22 2.037725 1_555
Al5 O5 1.812874 1_555
Al5 O16 1.843478 1_455
Al5 O26 1.890113 1_555
Al5 O1 1.894005 1_555
Al5 O23 2.037725 1_555
Cu0 O6 1.955200 1_444
Cu0 O7 1.955200 1_555
Cu0 O17 2.039033 1_554
Cu0 O16 2.039033 1_445
H0 O11 0.984677 1_555
H1 O10 0.984677 1_555
H2 O6 0.973389 1_555
H3 O7 0.973389 1_555
H4 O18 0.981192 1_555
H5 O19 0.981192 1_555
H6 O22 0.989930 1_555
H7 O23 0.989930 1_555
H8 O2 0.987757 1_655
H9 O3 0.987757 1_455
H10 H12 0.740073 1_555
H11 H13 0.740073 1_555
H14 O22 0.981787 1_555
H15 O23 0.981787 1_555
O0 P2 1.513117 1_655
O1 P3 1.513117 1_455
O2 P2 1.586227 1_555
O3 P3 1.586227 1_555
O4 P0 1.549957 1_556
O5 P1 1.549957 1_554
O12 P3 1.542197 1_555
O13 P2 1.542197 1_555
O14 P0 1.557942 1_555
O15 P1 1.557936 1_555
O20 P1 1.535884 1_555
O21 P0 1.535884 1_555
O24 P2 1.545782 1_555
O25 P3 1.545782 1_555
O26 P0 1.552211 1_555
O27 P1 1.552211 1_555
