# generated using pymatgen
data_YbBi2
_symmetry_space_group_name_H-M   'P 1'
_cell_length_a   8.86159125
_cell_length_b   8.86159125
_cell_length_c   4.59636800
_cell_angle_alpha   90.00000000
_cell_angle_beta   90.00000000
_cell_angle_gamma   148.91754691
_symmetry_Int_Tables_number   1
_chemical_formula_structural   YbBi2
_chemical_formula_sum   'Yb2 Bi4'
_cell_volume   186.34425629
_cell_formula_units_Z   2
loop_
 _symmetry_equiv_pos_site_id
 _symmetry_equiv_pos_as_xyz
  1  'x, y, z'
loop_
 _atom_site_type_symbol
 _atom_site_label
 _atom_site_symmetry_multiplicity
 _atom_site_fract_x
 _atom_site_fract_y
 _atom_site_fract_z
 _atom_site_occupancy
  Yb  Yb0  1  0.59822000  0.40178000  0.25000000  1
  Yb  Yb1  1  0.40178000  0.59822000  0.75000000  1
  Bi  Bi0  1  0.93436600  0.06563400  0.25000000  1
  Bi  Bi1  1  0.06563400  0.93436600  0.75000000  1
  Bi  Bi2  1  0.24102400  0.75897600  0.25000000  1
  Bi  Bi3  1  0.75897600  0.24102400  0.75000000  1
loop_
_geom_bond_atom_site_label_1
_geom_bond_atom_site_label_2
_geom_bond_distance
_geom_bond_site_symmetry_2
Bi0 Bi1 3.210240 1_645
Bi0 Bi1 3.210240 1_644
Bi0 Yb1 3.350903 1_544
Bi0 Yb1 3.350903 1_654
Bi0 Yb1 3.350903 1_545
Bi0 Yb1 3.350903 1_655
Bi0 Yb0 3.669496 1_655
Bi0 Yb0 3.669496 1_545
Bi1 Yb0 3.350903 1_566
Bi1 Yb0 3.350903 1_565
Bi1 Yb0 3.350903 1_455
Bi1 Yb0 3.350903 1_456
Bi1 Yb1 3.669496 1_565
Bi1 Yb1 3.669496 1_455
Bi2 Bi3 3.318572 1_565
Bi2 Bi3 3.318572 1_564
Bi2 Bi3 3.318572 1_455
Bi2 Bi3 3.318572 1_454
Bi2 Yb0 3.403399 1_565
Bi2 Yb0 3.403399 1_455
Bi2 Yb1 3.579991 1_554
Bi2 Yb1 3.579991 1_555
Bi3 Yb1 3.403399 1_655
Bi3 Yb1 3.403399 1_545
Bi3 Yb0 3.579991 1_555
Bi3 Yb0 3.579991 1_556
