# generated using pymatgen
data_Dy4Ga16Co3
_symmetry_space_group_name_H-M   'P 1'
_cell_length_a   5.96434999
_cell_length_b   5.96434999
_cell_length_c   10.98091389
_cell_angle_alpha   90.00000000
_cell_angle_beta   90.00000000
_cell_angle_gamma   90.00000000
_symmetry_Int_Tables_number   1
_chemical_formula_structural   Dy4Ga16Co3
_chemical_formula_sum   'Dy4 Ga16 Co3'
_cell_volume   390.62921966
_cell_formula_units_Z   1
loop_
 _symmetry_equiv_pos_site_id
 _symmetry_equiv_pos_as_xyz
  1  'x, y, z'
loop_
 _atom_site_type_symbol
 _atom_site_label
 _atom_site_symmetry_multiplicity
 _atom_site_fract_x
 _atom_site_fract_y
 _atom_site_fract_z
 _atom_site_occupancy
  Dy  Dy0  1  0.50000000  0.00000000  0.80469907  1
  Dy  Dy1  1  0.00000000  0.50000000  0.80469907  1
  Dy  Dy2  1  0.50000000  -0.00000000  0.19530093  1
  Dy  Dy3  1  -0.00000000  0.50000000  0.19530093  1
  Ga  Ga0  1  0.24926011  0.24926011  0.61489263  1
  Ga  Ga1  1  0.75073989  0.75073989  0.61489263  1
  Ga  Ga2  1  0.75073989  0.24926011  0.61489263  1
  Ga  Ga3  1  0.24926011  0.75073989  0.61489263  1
  Ga  Ga4  1  0.75073989  0.75073989  0.38510737  1
  Ga  Ga5  1  0.24926011  0.24926011  0.38510737  1
  Ga  Ga6  1  0.24926011  0.75073989  0.38510737  1
  Ga  Ga7  1  0.75073989  0.24926011  0.38510737  1
  Ga  Ga8  1  0.28118796  0.28118796  -0.00000000  1
  Ga  Ga9  1  0.71881204  0.71881204  -0.00000000  1
  Ga  Ga10  1  0.71881204  0.28118796  -0.00000000  1
  Ga  Ga11  1  0.28118796  0.71881204  -0.00000000  1
  Ga  Ga12  1  0.50000000  0.50000000  0.80522876  1
  Ga  Ga13  1  0.50000000  0.50000000  0.19477124  1
  Ga  Ga14  1  0.00000000  0.00000000  0.78094941  1
  Ga  Ga15  1  0.00000000  -0.00000000  0.21905059  1
  Co  Co0  1  0.50000000  0.00000000  0.50000000  1
  Co  Co1  1  -0.00000000  0.50000000  0.50000000  1
  Co  Co2  1  -0.00000000  0.00000000  -0.00000000  1
loop_
_geom_bond_atom_site_label_1
_geom_bond_atom_site_label_2
_geom_bond_distance
_geom_bond_site_symmetry_2
Dy0 Ga1 2.964931 1_545
Dy0 Ga2 2.964931 1_555
Dy0 Ga3 2.964931 1_545
Dy0 Ga0 2.964931 1_555
Dy0 Ga12 2.982181 1_555
Dy0 Ga12 2.982181 1_545
Dy0 Ga14 2.993557 1_555
Dy0 Ga14 2.993557 1_655
Dy0 Ga11 3.019126 1_546
Dy0 Ga8 3.019126 1_556
Dy0 Ga9 3.019126 1_546
Dy0 Ga10 3.019126 1_556
Dy1 Ga0 2.964931 1_555
Dy1 Ga2 2.964931 1_455
Dy1 Ga3 2.964931 1_555
Dy1 Ga1 2.964931 1_455
Dy1 Ga12 2.982181 1_555
Dy1 Ga12 2.982181 1_455
Dy1 Ga14 2.993557 1_565
Dy1 Ga14 2.993557 1_555
Dy1 Ga11 3.019126 1_556
Dy1 Ga9 3.019126 1_456
Dy1 Ga10 3.019126 1_456
Dy1 Ga8 3.019126 1_556
Dy2 Ga6 2.964931 1_545
Dy2 Ga7 2.964931 1_555
Dy2 Ga4 2.964931 1_545
Dy2 Ga5 2.964931 1_555
Dy2 Ga13 2.982181 1_545
Dy2 Ga13 2.982181 1_555
Dy2 Ga15 2.993557 1_555
Dy2 Ga15 2.993557 1_655
Dy2 Ga8 3.019126 1_555
Dy2 Ga10 3.019126 1_555
Dy2 Ga11 3.019126 1_545
Dy2 Ga9 3.019126 1_545
Dy3 Ga6 2.964931 1_555
Dy3 Ga4 2.964931 1_455
Dy3 Ga5 2.964931 1_555
Dy3 Ga7 2.964931 1_455
Dy3 Ga13 2.982181 1_555
Dy3 Ga13 2.982181 1_455
Dy3 Ga15 2.993557 1_555
Dy3 Ga15 2.993557 1_565
Dy3 Ga9 3.019126 1_455
Dy3 Ga8 3.019126 1_555
Dy3 Ga10 3.019126 1_455
Dy3 Ga11 3.019126 1_555
Ga0 Ga5 2.523252 1_555
Ga0 Ga14 2.783054 1_555
Ga0 Ga3 2.973349 1_545
Ga0 Ga2 2.973349 1_455
Ga0 Ga12 2.973451 1_555
Ga0 Ga3 2.991001 1_555
Ga0 Ga2 2.991001 1_555
Ga1 Ga4 2.523252 1_555
Ga1 Ga14 2.783054 1_665
Ga1 Ga3 2.973349 1_655
Ga1 Ga2 2.973349 1_565
Ga1 Ga12 2.973451 1_555
Ga1 Ga3 2.991001 1_555
Ga1 Ga2 2.991001 1_555
Ga2 Ga7 2.523252 1_555
Ga3 Ga6 2.523252 1_555
Ga4 Ga7 2.973349 1_565
Ga4 Ga6 2.973349 1_655
Ga4 Ga7 2.991001 1_555
Ga4 Ga6 2.991001 1_555
Ga5 Ga7 2.973349 1_455
Ga5 Ga6 2.973349 1_545
Ga5 Ga7 2.991001 1_555
Ga5 Ga6 2.991001 1_555
Ga10 Ga8 2.610143 1_555
Ga10 Ga9 2.610143 1_555
Ga10 Ga13 2.825021 1_555
Ga10 Ga12 2.825021 1_554
Ga11 Ga8 2.610143 1_555
Ga11 Ga9 2.610143 1_555
Ga11 Ga13 2.825021 1_555
Ga11 Ga12 2.825021 1_554
Ga12 Ga9 2.825021 1_556
Ga12 Ga8 2.825021 1_556
Ga12 Ga2 2.973451 1_555
Ga12 Ga3 2.973451 1_555
Ga13 Ga8 2.825021 1_555
Ga13 Ga9 2.825021 1_555
Ga13 Ga5 2.973451 1_555
Ga13 Ga6 2.973451 1_555
Ga13 Ga7 2.973451 1_555
Ga13 Ga4 2.973451 1_555
Ga14 Ga2 2.783054 1_455
Ga14 Ga3 2.783054 1_545
Ga15 Ga4 2.783054 1_445
Ga15 Ga5 2.783054 1_555
Ga15 Ga7 2.783054 1_455
Ga15 Ga6 2.783054 1_545
Co0 Ga6 2.457320 1_545
Co0 Ga3 2.457320 1_545
Co0 Ga0 2.457320 1_555
Co0 Ga7 2.457320 1_555
Co0 Ga4 2.457320 1_545
Co0 Ga1 2.457320 1_545
Co0 Ga2 2.457320 1_555
Co0 Ga5 2.457320 1_555
Co1 Ga6 2.457320 1_555
Co1 Ga7 2.457320 1_455
Co1 Ga0 2.457320 1_555
Co1 Ga2 2.457320 1_455
Co1 Ga3 2.457320 1_555
Co1 Ga4 2.457320 1_455
Co1 Ga5 2.457320 1_555
Co1 Ga1 2.457320 1_455
Co2 Ga9 2.371782 1_445
Co2 Ga11 2.371782 1_545
Co2 Ga8 2.371782 1_555
Co2 Ga10 2.371782 1_455
Co2 Ga15 2.405376 1_555
Co2 Ga14 2.405376 1_554
