# generated using pymatgen
data_Nd(SiPt)2
_symmetry_space_group_name_H-M   'P 1'
_cell_length_a   4.25573408
_cell_length_b   4.25573305
_cell_length_c   9.83458754
_cell_angle_alpha   90.00000000
_cell_angle_beta   90.00000000
_cell_angle_gamma   90.00000000
_symmetry_Int_Tables_number   1
_chemical_formula_structural   Nd(SiPt)2
_chemical_formula_sum   'Nd2 Si4 Pt4'
_cell_volume   178.11685234
_cell_formula_units_Z   2
loop_
 _symmetry_equiv_pos_site_id
 _symmetry_equiv_pos_as_xyz
  1  'x, y, z'
loop_
 _atom_site_type_symbol
 _atom_site_label
 _atom_site_symmetry_multiplicity
 _atom_site_fract_x
 _atom_site_fract_y
 _atom_site_fract_z
 _atom_site_occupancy
  Nd  Nd0  1  0.75000000  0.75000000  0.25588579  1
  Nd  Nd1  1  0.25000000  0.25000000  0.74411421  1
  Si  Si0  1  0.75000000  0.25000000  0.50000000  1
  Si  Si1  1  0.25000000  0.75000000  0.50000000  1
  Si  Si2  1  0.75000000  0.75000000  0.86936534  1
  Si  Si3  1  0.25000000  0.25000000  0.13063466  1
  Pt  Pt0  1  0.75000000  0.25000000  0.00000000  1
  Pt  Pt1  1  0.25000000  0.75000000  -0.00000000  1
  Pt  Pt2  1  0.75000000  0.75000000  0.62126587  1
  Pt  Pt3  1  0.25000000  0.25000000  0.37873413  1
loop_
_geom_bond_atom_site_label_1
_geom_bond_atom_site_label_2
_geom_bond_distance
_geom_bond_site_symmetry_2
Nd0 Si0 3.208033 1_555
Nd0 Si0 3.208033 1_565
Nd0 Si1 3.208034 1_555
Nd0 Si1 3.208034 1_655
Nd0 Pt3 3.242729 1_555
Nd0 Pt3 3.242729 1_565
Nd0 Pt3 3.242729 1_655
Nd0 Pt3 3.242729 1_665
Nd0 Si3 3.251607 1_655
Nd0 Si3 3.251607 1_565
Nd0 Si3 3.251607 1_665
Nd0 Si3 3.251607 1_555
Nd0 Pt0 3.295564 1_555
Nd0 Pt0 3.295564 1_565
Nd0 Pt1 3.295565 1_555
Nd0 Pt1 3.295565 1_655
Nd1 Si1 3.208033 1_555
Nd1 Si1 3.208033 1_545
Nd1 Si0 3.208034 1_555
Nd1 Si0 3.208034 1_455
Nd1 Pt2 3.242729 1_445
Nd1 Pt2 3.242729 1_455
Nd1 Pt2 3.242729 1_545
Nd1 Pt2 3.242729 1_555
Nd1 Si2 3.251607 1_455
Nd1 Si2 3.251607 1_545
Nd1 Si2 3.251607 1_555
Nd1 Si2 3.251607 1_445
Nd1 Pt1 3.295564 1_546
Nd1 Pt1 3.295564 1_556
Nd1 Pt0 3.295565 1_456
Nd1 Pt0 3.295565 1_556
Pt0 Si2 2.485632 1_544
Pt0 Si2 2.485632 1_554
Pt0 Si3 2.485633 1_555
Pt0 Si3 2.485633 1_655
Pt1 Si3 2.485632 1_565
Pt1 Si3 2.485632 1_555
Pt1 Si2 2.485633 1_554
Pt1 Si2 2.485633 1_454
Pt2 Si0 2.439285 1_555
Pt2 Si0 2.439285 1_565
Pt2 Si1 2.439285 1_655
Pt2 Si1 2.439285 1_555
Pt2 Si2 2.439956 1_555
Pt3 Si1 2.439285 1_555
Pt3 Si1 2.439285 1_545
Pt3 Si0 2.439285 1_455
Pt3 Si0 2.439285 1_555
Pt3 Si3 2.439956 1_555
