# generated using pymatgen
data_Ba6Al2Rh4O15
_symmetry_space_group_name_H-M   'P 1'
_cell_length_a   5.85296766
_cell_length_b   5.85296766
_cell_length_c   14.63304000
_cell_angle_alpha   90.00000000
_cell_angle_beta   90.00000000
_cell_angle_gamma   121.65164209
_symmetry_Int_Tables_number   1
_chemical_formula_structural   Ba6Al2Rh4O15
_chemical_formula_sum   'Ba6 Al2 Rh4 O15'
_cell_volume   426.72307763
_cell_formula_units_Z   1
loop_
 _symmetry_equiv_pos_site_id
 _symmetry_equiv_pos_as_xyz
  1  'x, y, z'
loop_
 _atom_site_type_symbol
 _atom_site_label
 _atom_site_symmetry_multiplicity
 _atom_site_fract_x
 _atom_site_fract_y
 _atom_site_fract_z
 _atom_site_occupancy
  Ba  Ba0  1  0.67538800  0.32461200  0.31623900  1
  Ba  Ba1  1  0.67538800  0.32461200  0.68376100  1
  Ba  Ba2  1  0.32742500  0.67257500  0.84183000  1
  Ba  Ba3  1  0.32742500  0.67257500  0.15817000  1
  Ba  Ba4  1  0.99198200  0.00801800  0.00000000  1
  Ba  Ba5  1  0.00035800  0.99964200  0.50000000  1
  Al  Al0  1  0.34910500  0.65089500  0.38499100  1
  Al  Al1  1  0.34910500  0.65089500  0.61500900  1
  Rh  Rh0  1  0.64803000  0.35197000  0.91409100  1
  Rh  Rh1  1  0.64803000  0.35197000  0.08590900  1
  Rh  Rh2  1  0.00320500  0.99679500  0.74832300  1
  Rh  Rh3  1  0.00320500  0.99679500  0.25167700  1
  O  O0  1  0.85200900  0.14799100  0.83291900  1
  O  O1  1  0.84466000  0.65750100  0.82454100  1
  O  O2  1  0.34249900  0.15534000  0.82454100  1
  O  O3  1  0.85200900  0.14799100  0.16708100  1
  O  O4  1  0.84466000  0.65750100  0.17545900  1
  O  O5  1  0.34249900  0.15534000  0.17545900  1
  O  O6  1  0.16553400  0.32785900  0.66402500  1
  O  O7  1  0.67214100  0.83446600  0.66402500  1
  O  O8  1  0.17852800  0.82147200  0.63358700  1
  O  O9  1  0.16553400  0.32785900  0.33597500  1
  O  O10  1  0.67214100  0.83446600  0.33597500  1
  O  O11  1  0.17852800  0.82147200  0.36641300  1
  O  O12  1  0.49864200  0.03635800  0.00000000  1
  O  O13  1  0.96364200  0.50135800  0.00000000  1
  O  O14  1  0.40178000  0.59822000  0.50000000  1
loop_
_geom_bond_atom_site_label_1
_geom_bond_atom_site_label_2
_geom_bond_distance
_geom_bond_site_symmetry_2
Ba0 O4 2.644926 1_555
Ba0 O5 2.644926 1_555
Ba0 O3 2.832448 1_555
Ba0 O9 2.873432 1_655
Ba0 O10 2.873432 1_545
Ba0 O11 2.946251 1_655
Ba0 O11 2.946251 1_545
Ba0 O10 3.008071 1_555
Ba0 O9 3.008071 1_555
Ba1 O2 2.644926 1_555
Ba1 O1 2.644926 1_555
Ba1 O0 2.832448 1_555
Ba1 O6 2.873432 1_655
Ba1 O7 2.873432 1_545
Ba1 O8 2.946251 1_655
Ba1 O8 2.946251 1_545
Ba1 O7 3.008071 1_555
Ba1 O6 3.008071 1_555
Ba2 O1 2.791811 1_455
Ba2 O2 2.791811 1_565
Ba2 O0 2.867134 1_455
Ba2 O0 2.867134 1_565
Ba2 O13 2.942001 1_456
Ba2 O12 2.942001 1_566
Ba2 O2 3.084966 1_555
Ba2 O1 3.084966 1_555
Ba2 O6 3.119564 1_555
Ba2 O7 3.119564 1_555
Ba3 O4 2.791811 1_455
Ba3 O5 2.791811 1_565
Ba3 O3 2.867134 1_455
Ba3 O3 2.867134 1_565
Ba3 O13 2.942001 1_455
Ba3 O12 2.942001 1_565
Ba3 O5 3.084966 1_555
Ba3 O4 3.084966 1_555
Ba3 O9 3.119564 1_555
Ba3 O10 3.119564 1_555
Ba4 O3 2.832724 1_555
Ba4 O0 2.832724 1_554
Ba4 O13 2.881883 1_545
Ba4 O12 2.881883 1_655
Ba4 O12 2.977895 1_555
Ba4 O13 2.977895 1_555
Ba4 O4 3.112538 1_545
Ba4 O1 3.112538 1_544
Ba4 O5 3.112538 1_655
Ba4 O2 3.112538 1_654
Ba5 O8 2.671602 1_555
Ba5 O11 2.671602 1_555
Ba5 O7 2.904615 1_455
Ba5 O6 2.904615 1_565
Ba5 O10 2.904615 1_455
Ba5 O9 2.904615 1_565
Ba5 O14 3.025805 1_455
Ba5 O14 3.025805 1_565
Al0 O10 1.763989 1_555
Al0 O9 1.763989 1_555
Al0 O11 1.764525 1_555
Al0 O14 1.766952 1_555
Al1 O7 1.763989 1_555
Al1 O6 1.763989 1_555
Al1 O8 1.764525 1_555
Al1 O14 1.766952 1_555
O0 Rh2 1.980036 1_645
O0 Rh0 2.399476 1_555
O1 Rh0 2.019792 1_555
O1 Rh2 2.028464 1_655
O2 Rh0 2.019792 1_555
O2 Rh2 2.028464 1_545
O3 Rh3 1.980036 1_645
O3 Rh1 2.399476 1_555
O4 Rh1 2.019792 1_555
O4 Rh3 2.028464 1_655
O5 Rh1 2.019792 1_555
O5 Rh3 2.028464 1_545
O6 Rh2 2.060789 1_545
O7 Rh2 2.060789 1_655
O8 Rh2 2.455600 1_555
O9 Rh3 2.060789 1_545
O10 Rh3 2.060789 1_655
O11 Rh3 2.455600 1_555
O12 Rh1 2.015462 1_555
O12 Rh0 2.015462 1_554
O13 Rh1 2.015462 1_555
O13 Rh0 2.015462 1_554
