# generated using pymatgen
data_MgTi
_symmetry_space_group_name_H-M   'P 1'
_cell_length_a   5.78868625
_cell_length_b   5.78868625
_cell_length_c   10.51784200
_cell_angle_alpha   90.00000000
_cell_angle_beta   90.00000000
_cell_angle_gamma   120.00002575
_symmetry_Int_Tables_number   1
_chemical_formula_structural   MgTi
_chemical_formula_sum   'Mg8 Ti8'
_cell_volume   305.22294920
_cell_formula_units_Z   8
loop_
 _symmetry_equiv_pos_site_id
 _symmetry_equiv_pos_as_xyz
  1  'x, y, z'
loop_
 _atom_site_type_symbol
 _atom_site_label
 _atom_site_symmetry_multiplicity
 _atom_site_fract_x
 _atom_site_fract_y
 _atom_site_fract_z
 _atom_site_occupancy
  Mg  Mg0_0  1  0.00000000  0.00000000  0.00000000  1
  Mg  Mg0_1  1  0.00000000  0.00000000  0.50000000  1
  Mg  Mg0_2  1  0.00000000  0.50000000  0.00000000  1
  Mg  Mg0_3  1  0.00000000  0.50000000  0.50000000  1
  Mg  Mg0_4  1  0.50000000  0.00000000  0.00000000  1
  Mg  Mg0_5  1  0.50000000  0.00000000  0.50000000  1
  Mg  Mg0_6  1  0.50000000  0.50000000  0.00000000  1
  Mg  Mg0_7  1  0.50000000  0.50000000  0.50000000  1
  Ti  Ti0_0  1  0.33333350  0.16666650  0.25000000  1
  Ti  Ti0_1  1  0.33333350  0.16666650  0.75000000  1
  Ti  Ti0_2  1  0.33333350  0.66666650  0.25000000  1
  Ti  Ti0_3  1  0.33333350  0.66666650  0.75000000  1
  Ti  Ti0_4  1  0.83333350  0.16666650  0.25000000  1
  Ti  Ti0_5  1  0.83333350  0.16666650  0.75000000  1
  Ti  Ti0_6  1  0.83333350  0.66666650  0.25000000  1
  Ti  Ti0_7  1  0.83333350  0.66666650  0.75000000  1
loop_
_geom_bond_atom_site_label_1
_geom_bond_atom_site_label_2
_geom_bond_distance
_geom_bond_site_symmetry_2
Mg0_0 Mg0_6 2.894342 1_445
Mg0_0 Mg0_6 2.894342 1_555
Mg0_0 Mg0_4 2.894343 1_555
Mg0_0 Mg0_4 2.894343 1_455
Mg0_0 Mg0_2 2.894343 1_555
Mg0_0 Mg0_2 2.894343 1_545
Mg0_0 Ti0_4 3.115520 1_455
Mg0_0 Ti0_5 3.115520 1_454
Mg0_0 Ti0_1 3.115521 1_554
Mg0_0 Ti0_7 3.115521 1_444
Mg0_0 Ti0_6 3.115521 1_445
Mg0_0 Ti0_0 3.115521 1_555
Mg0_1 Mg0_7 2.894342 1_445
Mg0_1 Mg0_7 2.894342 1_555
Mg0_1 Mg0_3 2.894343 1_555
Mg0_1 Mg0_5 2.894343 1_455
Mg0_1 Mg0_5 2.894343 1_555
Mg0_1 Mg0_3 2.894343 1_545
Mg0_1 Ti0_4 3.115520 1_455
Mg0_1 Ti0_5 3.115520 1_455
Mg0_1 Ti0_1 3.115521 1_555
Mg0_1 Ti0_6 3.115521 1_445
Mg0_1 Ti0_7 3.115521 1_445
Mg0_1 Ti0_0 3.115521 1_555
Mg0_2 Mg0_4 2.894342 1_565
Mg0_2 Mg0_4 2.894342 1_455
Mg0_2 Mg0_6 2.894343 1_555
Mg0_2 Mg0_6 2.894343 1_455
Mg0_2 Ti0_7 3.115520 1_454
Mg0_2 Ti0_6 3.115520 1_455
Mg0_2 Ti0_4 3.115521 1_455
Mg0_2 Ti0_3 3.115521 1_554
Mg0_2 Ti0_5 3.115521 1_454
Mg0_2 Ti0_2 3.115521 1_555
Mg0_3 Mg0_5 2.894342 1_455
Mg0_3 Mg0_5 2.894342 1_565
Mg0_3 Mg0_7 2.894343 1_455
Mg0_3 Mg0_7 2.894343 1_555
Mg0_3 Ti0_7 3.115520 1_455
Mg0_3 Ti0_6 3.115520 1_455
Mg0_3 Ti0_4 3.115521 1_455
Mg0_3 Ti0_5 3.115521 1_455
Mg0_3 Ti0_3 3.115521 1_555
Mg0_3 Ti0_2 3.115521 1_555
Mg0_4 Mg0_6 2.894343 1_545
Mg0_4 Mg0_6 2.894343 1_555
Mg0_4 Ti0_0 3.115520 1_555
Mg0_4 Ti0_1 3.115520 1_554
Mg0_4 Ti0_5 3.115521 1_554
Mg0_4 Ti0_4 3.115521 1_555
Mg0_4 Ti0_2 3.115521 1_545
Mg0_4 Ti0_3 3.115521 1_544
Mg0_5 Mg0_7 2.894343 1_555
Mg0_5 Mg0_7 2.894343 1_545
Mg0_5 Ti0_0 3.115520 1_555
Mg0_5 Ti0_1 3.115520 1_555
Mg0_5 Ti0_3 3.115521 1_545
Mg0_5 Ti0_5 3.115521 1_555
Mg0_5 Ti0_4 3.115521 1_555
Mg0_5 Ti0_2 3.115521 1_545
Mg0_6 Ti0_3 3.115520 1_554
Mg0_6 Ti0_2 3.115520 1_555
Mg0_6 Ti0_1 3.115521 1_554
Mg0_6 Ti0_7 3.115521 1_554
Mg0_6 Ti0_0 3.115521 1_555
Mg0_6 Ti0_6 3.115521 1_555
Mg0_7 Ti0_3 3.115520 1_555
Mg0_7 Ti0_2 3.115520 1_555
Mg0_7 Ti0_1 3.115521 1_555
Mg0_7 Ti0_7 3.115521 1_555
Mg0_7 Ti0_6 3.115521 1_555
Mg0_7 Ti0_0 3.115521 1_555
Ti0_0 Ti0_6 2.894342 1_555
Ti0_0 Ti0_6 2.894342 1_445
Ti0_0 Ti0_2 2.894343 1_555
Ti0_0 Ti0_4 2.894343 1_455
Ti0_0 Ti0_4 2.894343 1_555
Ti0_0 Ti0_2 2.894343 1_545
Ti0_1 Ti0_7 2.894342 1_445
Ti0_1 Ti0_7 2.894342 1_555
Ti0_1 Ti0_3 2.894343 1_555
Ti0_1 Ti0_5 2.894343 1_455
Ti0_1 Ti0_5 2.894343 1_555
Ti0_1 Ti0_3 2.894343 1_545
Ti0_2 Ti0_4 2.894342 1_455
Ti0_2 Ti0_4 2.894342 1_565
Ti0_2 Ti0_6 2.894343 1_455
Ti0_2 Ti0_6 2.894343 1_555
Ti0_3 Ti0_5 2.894342 1_455
Ti0_3 Ti0_5 2.894342 1_565
Ti0_3 Ti0_7 2.894343 1_455
Ti0_3 Ti0_7 2.894343 1_555
Ti0_4 Ti0_6 2.894343 1_555
Ti0_4 Ti0_6 2.894343 1_545
Ti0_5 Ti0_7 2.894343 1_555
Ti0_5 Ti0_7 2.894343 1_545
