# generated using pymatgen
data_KY
_symmetry_space_group_name_H-M   'P 1'
_cell_length_a   7.33952212
_cell_length_b   7.34001466
_cell_length_c   14.33453200
_cell_angle_alpha   90.00003345
_cell_angle_beta   89.99997639
_cell_angle_gamma   120.01822126
_symmetry_Int_Tables_number   1
_chemical_formula_structural   KY
_chemical_formula_sum   'K8 Y8'
_cell_volume   668.65037263
_cell_formula_units_Z   8
loop_
 _symmetry_equiv_pos_site_id
 _symmetry_equiv_pos_as_xyz
  1  'x, y, z'
loop_
 _atom_site_type_symbol
 _atom_site_label
 _atom_site_symmetry_multiplicity
 _atom_site_fract_x
 _atom_site_fract_y
 _atom_site_fract_z
 _atom_site_occupancy
  K  K0_0  1  0.33332850  0.16667100  0.37499950  1
  K  K0_1  1  0.33332850  0.16667100  0.87499950  1
  K  K0_2  1  0.33332850  0.66667100  0.37499950  1
  K  K0_3  1  0.33332850  0.66667100  0.87499950  1
  K  K0_4  1  0.83332850  0.16667100  0.37499950  1
  K  K0_5  1  0.83332850  0.16667100  0.87499950  1
  K  K0_6  1  0.83332850  0.66667100  0.37499950  1
  K  K0_7  1  0.83332850  0.66667100  0.87499950  1
  Y  Y0_0  1  0.16667150  0.33333050  0.12500000  1
  Y  Y0_1  1  0.16667150  0.33333050  0.62500000  1
  Y  Y0_2  1  0.16667150  0.83333050  0.12500000  1
  Y  Y0_3  1  0.16667150  0.83333050  0.62500000  1
  Y  Y0_4  1  0.66667150  0.33333050  0.12500000  1
  Y  Y0_5  1  0.66667150  0.33333050  0.62500000  1
  Y  Y0_6  1  0.66667150  0.83333050  0.12500000  1
  Y  Y0_7  1  0.66667150  0.83333050  0.62500000  1
loop_
_geom_bond_atom_site_label_1
_geom_bond_atom_site_label_2
_geom_bond_distance
_geom_bond_site_symmetry_2
K0_0 K0_6 3.668873 1_445
K0_0 K0_6 3.668873 1_555
K0_0 K0_4 3.669761 1_555
K0_0 K0_4 3.669761 1_455
K0_0 K0_2 3.670007 1_545
K0_0 K0_2 3.670007 1_555
K0_0 Y0_4 4.162936 1_555
K0_0 Y0_5 4.162948 1_555
K0_0 Y0_2 4.162999 1_545
K0_0 Y0_3 4.163013 1_545
K0_0 Y0_0 4.163184 1_555
K0_0 Y0_1 4.163195 1_555
K0_1 K0_7 3.668873 1_445
K0_1 K0_7 3.668873 1_555
K0_1 K0_5 3.669761 1_555
K0_1 K0_5 3.669761 1_455
K0_1 K0_3 3.670007 1_545
K0_1 K0_3 3.670007 1_555
K0_1 Y0_5 4.162936 1_555
K0_1 Y0_4 4.162948 1_556
K0_1 Y0_3 4.162999 1_545
K0_1 Y0_2 4.163013 1_546
K0_1 Y0_1 4.163184 1_555
K0_1 Y0_0 4.163195 1_556
K0_2 K0_4 3.668873 1_565
K0_2 K0_4 3.668873 1_455
K0_2 K0_6 3.669761 1_555
K0_2 K0_6 3.669761 1_455
K0_2 Y0_6 4.162936 1_555
K0_2 Y0_7 4.162948 1_555
K0_2 Y0_0 4.162999 1_555
K0_2 Y0_1 4.163013 1_555
K0_2 Y0_2 4.163184 1_555
K0_2 Y0_3 4.163195 1_555
K0_3 K0_5 3.668873 1_565
K0_3 K0_5 3.668873 1_455
K0_3 K0_7 3.669761 1_455
K0_3 K0_7 3.669761 1_555
K0_3 Y0_7 4.162936 1_555
K0_3 Y0_6 4.162948 1_556
K0_3 Y0_1 4.162999 1_555
K0_3 Y0_0 4.163013 1_556
K0_3 Y0_3 4.163184 1_555
K0_3 Y0_2 4.163195 1_556
K0_4 K0_6 3.670007 1_555
K0_4 K0_6 3.670007 1_545
K0_4 Y0_0 4.162936 1_655
K0_4 Y0_1 4.162948 1_655
K0_4 Y0_6 4.162999 1_545
K0_4 Y0_7 4.163013 1_545
K0_4 Y0_4 4.163184 1_555
K0_4 Y0_5 4.163195 1_555
K0_5 K0_7 3.670007 1_545
K0_5 K0_7 3.670007 1_555
K0_5 Y0_1 4.162936 1_655
K0_5 Y0_0 4.162948 1_656
K0_5 Y0_7 4.162999 1_545
K0_5 Y0_6 4.163013 1_546
K0_5 Y0_5 4.163184 1_555
K0_5 Y0_4 4.163195 1_556
K0_6 Y0_2 4.162936 1_655
K0_6 Y0_3 4.162948 1_655
K0_6 Y0_4 4.162999 1_555
K0_6 Y0_5 4.163013 1_555
K0_6 Y0_6 4.163184 1_555
K0_6 Y0_7 4.163195 1_555
K0_7 Y0_3 4.162936 1_655
K0_7 Y0_2 4.162948 1_656
K0_7 Y0_5 4.162999 1_555
K0_7 Y0_4 4.163013 1_556
K0_7 Y0_7 4.163184 1_555
K0_7 Y0_6 4.163195 1_556
Y0_0 Y0_6 3.668873 1_555
Y0_0 Y0_6 3.668873 1_445
Y0_0 Y0_4 3.669761 1_555
Y0_0 Y0_4 3.669761 1_455
Y0_0 Y0_2 3.670007 1_555
Y0_0 Y0_2 3.670007 1_545
Y0_1 Y0_7 3.668873 1_445
Y0_1 Y0_7 3.668873 1_555
Y0_1 Y0_5 3.669761 1_555
Y0_1 Y0_5 3.669761 1_455
Y0_1 Y0_3 3.670007 1_545
Y0_1 Y0_3 3.670007 1_555
Y0_2 Y0_4 3.668873 1_565
Y0_2 Y0_4 3.668873 1_455
Y0_2 Y0_6 3.669761 1_555
Y0_2 Y0_6 3.669761 1_455
Y0_3 Y0_5 3.668873 1_565
Y0_3 Y0_5 3.668873 1_455
Y0_3 Y0_7 3.669761 1_555
Y0_3 Y0_7 3.669761 1_455
Y0_4 Y0_6 3.670007 1_545
Y0_4 Y0_6 3.670007 1_555
Y0_5 Y0_7 3.670007 1_545
Y0_5 Y0_7 3.670007 1_555
