# generated using pymatgen
data_MgFe7(Ni3O8)2
_symmetry_space_group_name_H-M   'P 1'
_cell_length_a   6.07747851
_cell_length_b   6.04518559
_cell_length_c   10.54573777
_cell_angle_alpha   108.78753635
_cell_angle_beta   72.99232916
_cell_angle_gamma   120.17301391
_symmetry_Int_Tables_number   1
_chemical_formula_structural   MgFe7(Ni3O8)2
_chemical_formula_sum   'Mg1 Fe7 Ni6 O16'
_cell_volume   313.03934312
_cell_formula_units_Z   1
loop_
 _symmetry_equiv_pos_site_id
 _symmetry_equiv_pos_as_xyz
  1  'x, y, z'
loop_
 _atom_site_type_symbol
 _atom_site_label
 _atom_site_symmetry_multiplicity
 _atom_site_fract_x
 _atom_site_fract_y
 _atom_site_fract_z
 _atom_site_occupancy
  Mg  Mg0  1  0.81250000  0.68750000  0.06250000  1
  Fe  Fe0  1  0.31250000  0.68750000  0.06250000  1
  Fe  Fe1  1  0.06638558  0.96802611  0.83305523  1
  Fe  Fe2  1  0.56037366  0.92698738  0.31637442  1
  Fe  Fe3  1  0.05872978  0.40951201  0.29496462  1
  Fe  Fe4  1  0.55861442  0.40697389  0.29194477  1
  Fe  Fe5  1  0.56627022  0.96548799  0.83003538  1
  Fe  Fe6  1  0.06462634  0.44801262  0.80862558  1
  Ni  Ni0  1  0.05230165  0.92417337  0.31741402  1
  Ni  Ni1  1  0.31250000  0.68750000  0.56250000  1
  Ni  Ni2  1  0.81250000  0.68750000  0.56250000  1
  Ni  Ni3  1  0.31250000  0.18750000  0.56250000  1
  Ni  Ni4  1  0.81250000  0.18750000  0.56250000  1
  Ni  Ni5  1  0.57269835  0.45082663  0.80758598  1
  O  O0  1  0.45003535  0.56640362  0.19679967  1
  O  O1  1  0.18414996  0.79825383  0.43885572  1
  O  O2  1  0.67624413  0.80087761  0.44241095  1
  O  O3  1  0.19578577  0.30841903  0.43956053  1
  O  O4  1  0.91482064  0.55785979  0.19490342  1
  O  O5  1  0.41858785  0.03264440  0.20952877  1
  O  O6  1  0.67429947  0.30241999  0.43993668  1
  O  O7  1  0.90312428  0.02728656  0.21070174  1
  O  O8  1  0.17496465  0.80859638  0.92820033  1
  O  O9  1  0.44085004  0.57674617  0.68614428  1
  O  O10  1  0.71017936  0.81714021  0.93009658  1
  O  O11  1  0.20641215  0.34235560  0.91547123  1
  O  O12  1  0.94875587  0.57412239  0.68258905  1
  O  O13  1  0.42921423  0.06658097  0.68543947  1
  O  O14  1  0.95070053  0.07258001  0.68506332  1
  O  O15  1  0.72187572  0.34771344  0.91429826  1
loop_
_geom_bond_atom_site_label_1
_geom_bond_atom_site_label_2
_geom_bond_distance
_geom_bond_site_symmetry_2
Mg0 O7 2.064878 1_565
Mg0 O15 2.064878 1_554
Mg0 O8 2.148500 1_654
Mg0 O0 2.148500 1_555
Mg0 O4 2.157126 1_555
Mg0 O10 2.157126 1_554
Fe0 O5 2.078920 1_565
Fe0 O11 2.078920 1_554
Fe0 O8 2.283835 1_554
Fe0 O0 2.283835 1_555
Fe0 O10 2.287314 1_554
Fe0 O4 2.287314 1_455
Fe1 O11 1.957128 1_565
Fe1 O10 1.971315 1_455
Fe1 O8 2.005149 1_555
Fe1 O13 2.215712 1_565
Fe1 O14 2.248002 1_465
Fe1 O12 2.284241 1_455
Fe2 O7 1.938109 1_565
Fe2 O5 2.001226 1_565
Fe2 O0 2.011497 1_555
Fe2 O6 2.090821 1_565
Fe2 O2 2.140936 1_555
Fe2 O1 2.152464 1_555
Fe3 O7 1.998865 1_455
Fe3 O0 2.133474 1_555
Fe3 O4 2.149540 1_455
Fe3 O1 2.232773 1_555
Fe3 O6 2.289666 1_455
Fe3 O3 2.290743 1_555
Fe4 O5 1.957128 1_555
Fe4 O4 1.971315 1_555
Fe4 O0 2.005149 1_555
Fe4 O3 2.215712 1_555
Fe4 O6 2.248002 1_555
Fe4 O2 2.284241 1_555
Fe5 O15 1.998865 1_565
Fe5 O8 2.133474 1_555
Fe5 O10 2.149540 1_555
Fe5 O9 2.232773 1_555
Fe5 O14 2.289666 1_565
Fe5 O13 2.290743 1_565
Fe6 O15 1.938109 1_455
Fe6 O11 2.001226 1_555
Fe6 O8 2.011497 1_555
Fe6 O14 2.090821 1_455
Fe6 O12 2.140936 1_455
Fe6 O9 2.152464 1_555
Ni0 O7 2.023297 1_465
Ni0 O4 2.049339 1_455
Ni0 O5 2.052190 1_565
Ni0 O3 2.123429 1_565
Ni0 O2 2.162089 1_455
Ni0 O1 2.168668 1_555
Ni1 O12 2.087774 1_455
Ni1 O2 2.087774 1_555
Ni1 O3 2.103758 1_555
Ni1 O13 2.103758 1_565
Ni1 O1 2.106958 1_555
Ni1 O9 2.106958 1_555
Ni2 O2 2.121899 1_555
Ni2 O12 2.121899 1_555
Ni2 O6 2.127601 1_555
Ni2 O14 2.127601 1_565
Ni2 O9 2.137621 1_555
Ni2 O1 2.137621 1_655
Ni3 O6 2.090056 1_555
Ni3 O14 2.090056 1_455
Ni3 O3 2.094753 1_555
Ni3 O13 2.094753 1_555
Ni3 O9 2.149238 1_555
Ni3 O1 2.149238 1_545
Ni4 O2 2.124508 1_545
Ni4 O12 2.124508 1_555
Ni4 O14 2.158398 1_555
Ni4 O6 2.158398 1_555
Ni4 O3 2.184817 1_655
Ni4 O13 2.184817 1_555
Ni5 O15 2.023297 1_555
Ni5 O10 2.049339 1_555
Ni5 O11 2.052190 1_555
Ni5 O13 2.123429 1_555
Ni5 O12 2.162089 1_555
Ni5 O9 2.168668 1_555
