# generated using pymatgen
data_Li6MnV3(PO4)6
_symmetry_space_group_name_H-M   'P 1'
_cell_length_a   8.67895900
_cell_length_b   8.72320325
_cell_length_c   8.78065151
_cell_angle_alpha   91.26029336
_cell_angle_beta   119.60906302
_cell_angle_gamma   118.68041152
_symmetry_Int_Tables_number   1
_chemical_formula_structural   Li6MnV3(PO4)6
_chemical_formula_sum   'Li6 Mn1 V3 P6 O24'
_cell_volume   476.89637280
_cell_formula_units_Z   1
loop_
 _symmetry_equiv_pos_site_id
 _symmetry_equiv_pos_as_xyz
  1  'x, y, z'
loop_
 _atom_site_type_symbol
 _atom_site_label
 _atom_site_symmetry_multiplicity
 _atom_site_fract_x
 _atom_site_fract_y
 _atom_site_fract_z
 _atom_site_occupancy
  Li  Li0  1  0.40144100  0.73845900  0.11031200  1
  Li  Li1  1  0.97367000  0.03900900  0.65017700  1
  Li  Li2  1  0.05518000  0.89072100  0.26208500  1
  Li  Li3  1  0.89211900  0.62178600  0.64007200  1
  Li  Li4  1  0.13069700  0.36224800  0.38069500  1
  Li  Li5  1  0.78598600  0.34769200  0.96258300  1
  Mn  Mn0  1  0.71217600  0.15381300  0.35062800  1
  V  V0  1  0.28861000  0.35684800  0.14675000  1
  V  V1  1  0.28304600  0.85284300  0.64382800  1
  V  V2  1  0.70544400  0.64291300  0.84733700  1
  P  P0  1  0.51605300  0.75286600  0.47109800  1
  P  P1  1  0.79370400  0.53094100  0.24919700  1
  P  P2  1  0.79152600  0.04730700  0.04823500  1
  P  P3  1  0.21071600  0.47213200  0.75176900  1
  P  P4  1  0.19761200  0.94913900  0.95261300  1
  P  P5  1  0.48671400  0.24789300  0.52475300  1
  O  O0  1  0.35760500  0.59846600  0.27711200  1
  O  O1  1  0.67524500  0.71342200  0.61979000  1
  O  O2  1  0.59970400  0.48165800  0.24729900  1
  O  O3  1  0.84516800  0.38157100  0.28342600  1
  O  O4  1  0.65920100  0.93447000  0.45300600  1
  O  O5  1  0.97173600  0.24171100  0.07508400  1
  O  O6  1  0.77107200  0.54844800  0.06427000  1
  O  O7  1  0.18388500  0.11360900  0.99126400  1
  O  O8  1  0.40684500  0.97225500  0.10290400  1
  O  O9  1  0.98426500  0.72493500  0.40107200  1
  O  O10  1  0.15700800  0.92742400  0.75493500  1
  O  O11  1  0.64177900  0.26177600  0.47725300  1
  O  O12  1  0.37352700  0.75729600  0.52221900  1
  O  O13  1  0.81096900  0.06072200  0.23699600  1
  O  O14  1  0.02691200  0.27461600  0.60909200  1
  O  O15  1  0.57997700  0.01114200  0.88516600  1
  O  O16  1  0.82572400  0.89281600  0.02346900  1
  O  O17  1  0.26417000  0.47992700  0.94889900  1
  O  O18  1  0.01547800  0.76409400  0.93476800  1
  O  O19  1  0.33824000  0.05415100  0.51848300  1
  O  O20  1  0.15291200  0.61629100  0.70628100  1
  O  O21  1  0.40100100  0.52468600  0.74006700  1
  O  O22  1  0.33284300  0.29483400  0.38058100  1
  O  O23  1  0.64012800  0.39407000  0.72343400  1
loop_
_geom_bond_atom_site_label_1
_geom_bond_atom_site_label_2
_geom_bond_distance
_geom_bond_site_symmetry_2
Li0 O0 1.991100 1_555
Li0 O8 2.020600 1_555
Li0 O17 2.031282 1_554
Li0 O4 2.536336 1_555
Li1 O14 1.963029 1_655
Li1 O4 2.037220 1_545
Li1 O10 2.098846 1_645
Li1 O7 2.469236 1_655
Li2 O9 1.981196 1_455
Li2 O19 2.041570 1_565
Li2 O16 2.066300 1_455
Li3 O20 2.066011 1_655
Li3 O10 2.262302 1_655
Li3 O18 2.286590 1_655
Li3 O1 2.309268 1_555
Li4 O22 2.101380 1_555
Li4 O5 2.243902 1_455
Li4 O3 2.283560 1_455
Li4 O13 2.366217 1_455
Li4 O14 2.570834 1_555
Li4 O21 2.601194 1_555
Li4 O0 2.628466 1_555
Li5 O23 2.019372 1_555
Li5 O6 2.035634 1_556
Li5 O5 2.080024 1_556
Li5 O15 2.439397 1_555
Li5 O3 2.583722 1_556
Mn0 O11 1.916757 1_555
Mn0 O13 1.966767 1_555
Mn0 O3 2.037450 1_555
Mn0 O4 2.078504 1_545
Mn0 O8 2.094320 1_545
Mn0 O14 2.174524 1_655
O0 P0 1.553418 1_555
O0 V0 2.028865 1_555
O1 P0 1.557385 1_555
O1 V2 2.032331 1_555
O2 P1 1.515646 1_555
O2 V0 2.008813 1_555
O3 P1 1.559099 1_555
O4 P0 1.547680 1_555
O5 P2 1.565194 1_555
O5 V0 2.139826 1_655
O6 P1 1.556630 1_555
O6 V2 2.019711 1_554
O7 P4 1.539594 1_545
O7 V0 1.996864 1_556
O8 P4 1.532494 1_554
O9 P1 1.553160 1_555
O9 V1 2.041818 1_655
O10 P4 1.577941 1_555
O10 V1 2.069135 1_555
O11 P5 1.549275 1_555
O12 P0 1.525414 1_555
O12 V1 1.967038 1_555
O13 P2 1.576525 1_555
O14 P3 1.541081 1_555
O15 P2 1.532023 1_556
O15 V1 2.024307 1_545
O16 P2 1.544790 1_565
O16 V2 2.075050 1_554
O17 P3 1.544991 1_555
O17 V0 2.037715 1_556
O18 P4 1.556869 1_555
O18 V2 2.034683 1_455
O19 P5 1.534680 1_555
O19 V1 2.079207 1_545
O20 P3 1.556349 1_555
O20 V1 2.063766 1_555
O21 P3 1.546334 1_555
O21 V2 1.953123 1_555
O22 P5 1.559091 1_555
O22 V0 2.030988 1_555
O23 P5 1.555452 1_555
O23 V2 2.079069 1_555
