# generated using pymatgen
data_BaEuNbSbO6
_symmetry_space_group_name_H-M   'P 1'
_cell_length_a   5.97414133
_cell_length_b   6.00147734
_cell_length_c   8.45811723
_cell_angle_alpha   90.48418104
_cell_angle_beta   89.57475846
_cell_angle_gamma   89.72734610
_symmetry_Int_Tables_number   1
_chemical_formula_structural   BaEuNbSbO6
_chemical_formula_sum   'Ba2 Eu2 Nb2 Sb2 O12'
_cell_volume   303.23187126
_cell_formula_units_Z   2
loop_
 _symmetry_equiv_pos_site_id
 _symmetry_equiv_pos_as_xyz
  1  'x, y, z'
loop_
 _atom_site_type_symbol
 _atom_site_label
 _atom_site_symmetry_multiplicity
 _atom_site_fract_x
 _atom_site_fract_y
 _atom_site_fract_z
 _atom_site_occupancy
  Ba  Ba0  1  0.99578905  0.02738892  0.25037367  1
  Ba  Ba1  1  0.00421095  0.97261108  0.74962633  1
  Eu  Eu0  1  0.50956663  0.53789751  0.25363645  1
  Eu  Eu1  1  0.49043337  0.46210249  0.74636355  1
  Nb  Nb0  1  0.00000000  0.50000000  -0.00000000  1
  Nb  Nb1  1  0.50000000  0.00000000  0.50000000  1
  Sb  Sb0  1  0.50000000  0.00000000  -0.00000000  1
  Sb  Sb1  1  0.00000000  0.50000000  0.50000000  1
  O  O0  1  0.20114817  0.23291196  0.96093920  1
  O  O1  1  0.30820276  0.72412053  0.54521444  1
  O  O2  1  0.79885183  0.76708804  0.03906080  1
  O  O3  1  0.69179724  0.27587947  0.45478556  1
  O  O4  1  0.26827323  0.69870646  0.94827035  1
  O  O5  1  0.23131810  0.20254221  0.53087672  1
  O  O6  1  0.73172677  0.30129354  0.05172965  1
  O  O7  1  0.76868190  0.79745779  0.46912328  1
  O  O8  1  0.43539427  0.96039102  0.26573454  1
  O  O9  1  0.09395540  0.49862742  0.23284943  1
  O  O10  1  0.56460573  0.03960898  0.73426546  1
  O  O11  1  0.90604460  0.50137258  0.76715057  1
loop_
_geom_bond_atom_site_label_1
_geom_bond_atom_site_label_2
_geom_bond_distance
_geom_bond_site_symmetry_2
Ba0 O2 2.649651 1_545
Ba0 O8 2.659269 1_645
Ba0 O7 2.681792 1_545
Ba0 O6 2.841671 1_555
Ba0 O9 2.895822 1_655
Ba0 O3 2.897492 1_555
Ba0 O5 2.955542 1_655
Ba0 O0 3.006731 1_654
Ba0 O9 3.226314 1_645
Ba1 O0 2.649651 1_565
Ba1 O10 2.659269 1_465
Ba1 O5 2.681792 1_565
Ba1 O4 2.841671 1_555
Ba1 O11 2.895822 1_455
Ba1 O1 2.897492 1_555
Ba1 O7 2.955542 1_455
Ba1 O2 3.006731 1_456
Ba1 O11 3.226314 1_465
Eu0 O9 2.502538 1_555
Eu0 O6 2.569373 1_555
Eu0 O3 2.570784 1_555
Eu0 O8 2.572987 1_555
Eu0 O7 2.856853 1_555
Eu0 O2 2.861970 1_555
Eu0 O1 2.945325 1_555
Eu0 O4 3.124821 1_554
Eu1 O11 2.502538 1_555
Eu1 O4 2.569373 1_555
Eu1 O1 2.570784 1_555
Eu1 O10 2.572987 1_555
Eu1 O5 2.856853 1_555
Eu1 O0 2.861970 1_555
Eu1 O3 2.945325 1_555
Eu1 O6 3.124821 1_556
Nb0 O2 2.022224 1_455
Nb0 O0 2.022224 1_554
Nb0 O4 2.049103 1_554
Nb0 O6 2.049103 1_455
Nb0 O11 2.051968 1_454
Nb0 O9 2.051968 1_555
Nb1 O7 2.022894 1_545
Nb1 O5 2.022894 1_555
Nb1 O8 2.033682 1_545
Nb1 O10 2.033682 1_555
Nb1 O1 2.054923 1_545
Nb1 O3 2.054923 1_555
O0 Sb0 2.289856 1_556
O1 Sb1 2.317529 1_555
O2 Sb0 2.289856 1_565
O3 Sb1 2.317529 1_655
O4 Sb0 2.323137 1_566
O5 Sb1 2.270369 1_555
O6 Sb0 2.323137 1_555
O7 Sb1 2.270369 1_655
O8 Sb0 2.292219 1_565
O9 Sb1 2.324155 1_555
O10 Sb0 2.292219 1_556
O11 Sb1 2.324155 1_655
