# generated using pymatgen
data_W9O13
_symmetry_space_group_name_H-M   'P 1'
_cell_length_a   3.25798500
_cell_length_b   6.70032560
_cell_length_c   17.63670336
_cell_angle_alpha   92.98548750
_cell_angle_beta   91.65551724
_cell_angle_gamma   99.86837905
_symmetry_Int_Tables_number   1
_chemical_formula_structural   W9O13
_chemical_formula_sum   'W9 O13'
_cell_volume   378.51030302
_cell_formula_units_Z   1
loop_
 _symmetry_equiv_pos_site_id
 _symmetry_equiv_pos_as_xyz
  1  'x, y, z'
loop_
 _atom_site_type_symbol
 _atom_site_label
 _atom_site_symmetry_multiplicity
 _atom_site_fract_x
 _atom_site_fract_y
 _atom_site_fract_z
 _atom_site_occupancy
  W  W0  1  0.50000000  0.00000000  0.50000000  1
  W  W1  1  0.32814600  0.67871700  0.00332700  1
  W  W2  1  0.67185400  0.32128300  0.99667300  1
  W  W3  1  0.25665100  0.32858500  0.63084400  1
  W  W4  1  0.74334900  0.67141500  0.36915600  1
  W  W5  1  0.96888500  0.97133500  0.88013600  1
  W  W6  1  0.03111500  0.02866500  0.11986400  1
  W  W7  1  0.86267100  0.81405600  0.66895300  1
  W  W8  1  0.13732900  0.18594400  0.33104700  1
  O  O0  1  0.00000000  0.00000000  0.00000000  1
  O  O1  1  0.94201400  0.94450300  0.76820600  1
  O  O2  1  0.05798600  0.05549700  0.23179400  1
  O  O3  1  0.56363300  0.17744100  0.89143400  1
  O  O4  1  0.43636700  0.82255900  0.10856600  1
  O  O5  1  0.38097100  0.77217000  0.89424300  1
  O  O6  1  0.61902900  0.22783000  0.10575700  1
  O  O7  1  0.31723400  0.61762400  0.67861400  1
  O  O8  1  0.68276600  0.38237600  0.32138600  1
  O  O9  1  0.38595400  0.97702700  0.62323400  1
  O  O10  1  0.61404600  0.02297300  0.37676600  1
  O  O11  1  0.91876200  0.79228600  0.47713500  1
  O  O12  1  0.08123800  0.20771400  0.52286500  1
loop_
_geom_bond_atom_site_label_1
_geom_bond_atom_site_label_2
_geom_bond_distance
_geom_bond_site_symmetry_2
O0 W5 2.110648 1_444
O0 W6 2.110648 1_555
O0 W2 2.564942 1_454
O0 W1 2.564942 1_545
O0 W2 2.798971 1_554
O0 W1 2.798971 1_445
O1 W7 1.905790 1_555
O1 W5 1.970942 1_555
O2 W8 1.905790 1_555
O2 W6 1.970942 1_555
O3 W2 2.039011 1_555
O3 W5 2.074011 1_545
O3 W5 2.175596 1_445
O4 W1 2.039011 1_555
O4 W6 2.074011 1_565
O4 W6 2.175596 1_665
O5 W1 2.056867 1_556
O5 W5 2.067512 1_455
O5 W5 2.167373 1_555
O6 W2 2.056867 1_554
O6 W6 2.067512 1_655
O6 W6 2.167373 1_555
O7 W7 2.039189 1_555
O7 W3 2.046659 1_555
O7 W7 2.152080 1_455
O8 W8 2.039189 1_555
O8 W4 2.046659 1_555
O8 W8 2.152080 1_655
O9 W7 2.069321 1_455
O9 W7 2.203511 1_555
O9 W0 2.224299 1_565
O9 W3 2.460606 1_565
O10 W8 2.069321 1_655
O10 W8 2.203511 1_555
O10 W0 2.224299 1_555
O10 W4 2.460606 1_545
O11 W4 2.055973 1_555
O11 W0 2.141294 1_565
O11 W0 2.163238 1_665
O12 W3 2.055973 1_555
O12 W0 2.141294 1_555
O12 W0 2.163238 1_455
