# generated using pymatgen
data_Rb4P3(PdS4)3
_symmetry_space_group_name_H-M   'P 1'
_cell_length_a   12.23817343
_cell_length_b   12.23817343
_cell_length_c   12.23817343
_cell_angle_alpha   90.00000000
_cell_angle_beta   90.00000000
_cell_angle_gamma   90.00000000
_symmetry_Int_Tables_number   1
_chemical_formula_structural   Rb4P3(PdS4)3
_chemical_formula_sum   'Rb8 P6 Pd6 S24'
_cell_volume   1832.94658950
_cell_formula_units_Z   2
loop_
 _symmetry_equiv_pos_site_id
 _symmetry_equiv_pos_as_xyz
  1  'x, y, z'
loop_
 _atom_site_type_symbol
 _atom_site_label
 _atom_site_symmetry_multiplicity
 _atom_site_fract_x
 _atom_site_fract_y
 _atom_site_fract_z
 _atom_site_occupancy
  Rb  Rb0  1  0.75000000  0.25000000  0.75000000  1
  Rb  Rb1  1  0.25000000  0.75000000  0.25000000  1
  Rb  Rb2  1  0.75000000  0.75000000  0.25000000  1
  Rb  Rb3  1  0.25000000  0.25000000  0.75000000  1
  Rb  Rb4  1  0.25000000  0.75000000  0.75000000  1
  Rb  Rb5  1  0.75000000  0.25000000  0.25000000  1
  Rb  Rb6  1  0.25000000  0.25000000  0.25000000  1
  Rb  Rb7  1  0.75000000  0.75000000  0.75000000  1
  P  P0  1  0.00000000  0.50000000  0.75000000  1
  P  P1  1  0.50000000  0.25000000  0.00000000  1
  P  P2  1  0.75000000  -0.00000000  0.50000000  1
  P  P3  1  0.00000000  0.50000000  0.25000000  1
  P  P4  1  0.50000000  0.75000000  0.00000000  1
  P  P5  1  0.25000000  -0.00000000  0.50000000  1
  Pd  Pd0  1  0.00000000  0.50000000  0.50000000  1
  Pd  Pd1  1  0.50000000  0.50000000  0.00000000  1
  Pd  Pd2  1  0.50000000  -0.00000000  0.50000000  1
  Pd  Pd3  1  0.50000000  -0.00000000  0.00000000  1
  Pd  Pd4  1  0.00000000  0.50000000  0.00000000  1
  Pd  Pd5  1  0.00000000  -0.00000000  0.50000000  1
  S  S0  1  0.00000000  0.36882026  0.64476019  1
  S  S1  1  0.63117974  0.35523981  0.00000000  1
  S  S2  1  0.64476019  -0.00000000  0.63117974  1
  S  S3  1  0.00000000  0.63117974  0.35523981  1
  S  S4  1  0.36882026  0.64476019  0.00000000  1
  S  S5  1  0.35523981  -0.00000000  0.36882026  1
  S  S6  1  0.63117974  0.64476019  0.00000000  1
  S  S7  1  0.64476019  -0.00000000  0.36882026  1
  S  S8  1  0.36882026  0.35523981  0.00000000  1
  S  S9  1  0.35523981  -0.00000000  0.63117974  1
  S  S10  1  0.00000000  0.63117974  0.64476019  1
  S  S11  1  0.00000000  0.36882026  0.35523981  1
  S  S12  1  0.50000000  0.14476019  0.86882026  1
  S  S13  1  0.13117974  0.50000000  0.85523981  1
  S  S14  1  0.14476019  0.13117974  0.50000000  1
  S  S15  1  0.50000000  0.85523981  0.13117974  1
  S  S16  1  0.86882026  0.50000000  0.14476019  1
  S  S17  1  0.85523981  0.86882026  0.50000000  1
  S  S18  1  0.13117974  0.50000000  0.14476019  1
  S  S19  1  0.14476019  0.86882026  0.50000000  1
  S  S20  1  0.86882026  0.50000000  0.85523981  1
  S  S21  1  0.85523981  0.13117974  0.50000000  1
  S  S22  1  0.50000000  0.14476019  0.13117974  1
  S  S23  1  0.50000000  0.85523981  0.86882026  1
loop_
_geom_bond_atom_site_label_1
_geom_bond_atom_site_label_2
_geom_bond_distance
_geom_bond_site_symmetry_2
Rb0 S21 3.624105 1_555
Rb0 S2 3.624105 1_555
Rb0 S12 3.624105 1_555
Rb0 S0 3.624105 1_655
Rb0 S20 3.624105 1_555
Rb0 S1 3.624105 1_556
Rb1 S18 3.624105 1_555
Rb1 S5 3.624105 1_565
Rb1 S15 3.624105 1_555
Rb1 S19 3.624105 1_555
Rb1 S3 3.624105 1_555
Rb1 S4 3.624105 1_555
Rb2 S17 3.624105 1_555
Rb2 S15 3.624105 1_555
Rb2 S16 3.624105 1_555
Rb2 S6 3.624105 1_555
Rb2 S3 3.624105 1_655
Rb2 S7 3.624105 1_565
Rb3 S8 3.624105 1_556
Rb3 S12 3.624105 1_555
Rb3 S9 3.624105 1_555
Rb3 S14 3.624105 1_555
Rb3 S0 3.624105 1_555
Rb3 S13 3.624105 1_555
Rb4 S19 3.624105 1_555
Rb4 S9 3.624105 1_565
Rb4 S10 3.624105 1_555
Rb4 S23 3.624105 1_555
Rb4 S13 3.624105 1_555
Rb4 S4 3.624105 1_556
Rb5 S21 3.624105 1_555
Rb5 S11 3.624105 1_655
Rb5 S22 3.624105 1_555
Rb5 S16 3.624105 1_555
Rb5 S7 3.624105 1_555
Rb5 S1 3.624105 1_555
Rb6 S18 3.624105 1_555
Rb6 S11 3.624105 1_555
Rb6 S22 3.624105 1_555
Rb6 S8 3.624105 1_555
Rb6 S5 3.624105 1_555
Rb6 S14 3.624105 1_555
Rb7 S17 3.624105 1_555
Rb7 S10 3.624105 1_655
Rb7 S2 3.624105 1_565
Rb7 S6 3.624105 1_556
Rb7 S23 3.624105 1_555
Rb7 S20 3.624105 1_555
P0 S20 2.058181 1_455
P0 S0 2.058181 1_555
P0 S13 2.058181 1_555
P0 S10 2.058181 1_555
P1 S22 2.058181 1_555
P1 S12 2.058181 1_554
P1 S8 2.058181 1_555
P1 S1 2.058181 1_555
P2 S21 2.058181 1_555
P2 S7 2.058181 1_555
P2 S2 2.058181 1_555
P2 S17 2.058181 1_545
P3 S18 2.058181 1_555
P3 S16 2.058181 1_455
P3 S3 2.058181 1_555
P3 S11 2.058181 1_555
P4 S6 2.058181 1_555
P4 S23 2.058181 1_554
P4 S15 2.058181 1_555
P4 S4 2.058181 1_555
P5 S19 2.058181 1_545
P5 S14 2.058181 1_555
P5 S5 2.058181 1_555
P5 S9 2.058181 1_555
Pd0 S0 2.390790 1_555
Pd0 S10 2.390790 1_555
Pd0 S11 2.390790 1_555
Pd0 S3 2.390790 1_555
Pd1 S6 2.390790 1_555
Pd1 S4 2.390790 1_555
Pd1 S8 2.390790 1_555
Pd1 S1 2.390790 1_555
Pd2 S2 2.390790 1_555
Pd2 S7 2.390790 1_555
Pd2 S9 2.390790 1_555
Pd2 S5 2.390790 1_555
Pd3 S15 2.390790 1_545
Pd3 S23 2.390790 1_544
Pd3 S22 2.390790 1_555
Pd3 S12 2.390790 1_554
Pd4 S13 2.390790 1_554
Pd4 S20 2.390790 1_454
Pd4 S16 2.390790 1_455
Pd4 S18 2.390790 1_555
Pd5 S17 2.390790 1_445
Pd5 S21 2.390790 1_455
Pd5 S14 2.390790 1_555
Pd5 S19 2.390790 1_545
