# generated using pymatgen
data_Rb2Na2Al3(SiO4)3
_symmetry_space_group_name_H-M   'P 1'
_cell_length_a   5.29315300
_cell_length_b   8.33480200
_cell_length_c   15.50088900
_cell_angle_alpha   90.00000000
_cell_angle_beta   90.00000000
_cell_angle_gamma   90.00000000
_symmetry_Int_Tables_number   1
_chemical_formula_structural   Rb2Na2Al3(SiO4)3
_chemical_formula_sum   'Rb4 Na4 Al6 Si6 O24'
_cell_volume   683.85864462
_cell_formula_units_Z   2
loop_
 _symmetry_equiv_pos_site_id
 _symmetry_equiv_pos_as_xyz
  1  'x, y, z'
loop_
 _atom_site_type_symbol
 _atom_site_label
 _atom_site_symmetry_multiplicity
 _atom_site_fract_x
 _atom_site_fract_y
 _atom_site_fract_z
 _atom_site_occupancy
  Rb  Rb0  1  0.83027500  0.34606800  0.78613000  1
  Rb  Rb1  1  0.33027500  0.65393200  0.71387000  1
  Rb  Rb2  1  0.33027500  0.65393200  0.28613000  1
  Rb  Rb3  1  0.83027500  0.34606800  0.21387000  1
  Na  Na0  1  0.80529200  0.17217500  0.00000000  1
  Na  Na1  1  0.30529200  0.82782500  0.50000000  1
  Na  Na2  1  0.31610100  0.82663500  0.00000000  1
  Na  Na3  1  0.81610100  0.17336500  0.50000000  1
  Al  Al0  1  0.84283300  0.89405900  0.85473600  1
  Al  Al1  1  0.34283300  0.10594100  0.64526400  1
  Al  Al2  1  0.34283300  0.10594100  0.35473600  1
  Al  Al3  1  0.84283300  0.89405900  0.14526400  1
  Al  Al4  1  0.33676500  0.40057800  0.00000000  1
  Al  Al5  1  0.83676500  0.59942200  0.50000000  1
  Si  Si0  1  0.84108300  0.61496100  0.00000000  1
  Si  Si1  1  0.34108300  0.38503900  0.50000000  1
  Si  Si2  1  0.84205900  0.88967700  0.64172900  1
  Si  Si3  1  0.34205900  0.11032300  0.85827100  1
  Si  Si4  1  0.34205900  0.11032300  0.14172900  1
  Si  Si5  1  0.84205900  0.88967700  0.35827100  1
  O  O0  1  0.00822500  0.44666000  0.00000000  1
  O  O1  1  0.50822500  0.55334000  0.50000000  1
  O  O2  1  0.92018200  0.72221100  0.91510200  1
  O  O3  1  0.42018200  0.27778900  0.58489800  1
  O  O4  1  0.42018200  0.27778900  0.41510200  1
  O  O5  1  0.92018200  0.72221100  0.08489800  1
  O  O6  1  0.53707700  0.57134600  0.00000000  1
  O  O7  1  0.03707700  0.42865400  0.50000000  1
  O  O8  1  0.54416300  0.96999100  0.88735500  1
  O  O9  1  0.04416300  0.03000900  0.61264500  1
  O  O10  1  0.04416300  0.03000900  0.38735500  1
  O  O11  1  0.54416300  0.96999100  0.11264500  1
  O  O12  1  0.86217900  0.84809100  0.74453000  1
  O  O13  1  0.36217900  0.15190900  0.75547000  1
  O  O14  1  0.36217900  0.15190900  0.24453000  1
  O  O15  1  0.86217900  0.84809100  0.25547000  1
  O  O16  1  0.55521800  0.94820300  0.61519400  1
  O  O17  1  0.05521800  0.05179700  0.88480600  1
  O  O18  1  0.05521800  0.05179700  0.11519400  1
  O  O19  1  0.55521800  0.94820300  0.38480600  1
  O  O20  1  0.91381800  0.72375000  0.58956700  1
  O  O21  1  0.41381800  0.27625000  0.91043300  1
  O  O22  1  0.41381800  0.27625000  0.08956700  1
  O  O23  1  0.91381800  0.72375000  0.41043300  1
loop_
_geom_bond_atom_site_label_1
_geom_bond_atom_site_label_2
_geom_bond_distance
_geom_bond_site_symmetry_2
Na0 O17 2.438262 1_654
Na0 O18 2.438262 1_655
Na0 O0 2.527398 1_655
Na0 O21 2.640787 1_554
Na0 O22 2.640787 1_555
Na0 O11 2.792687 1_545
Na0 O8 2.792687 1_544
Na1 O16 2.438262 1_555
Na1 O19 2.438262 1_555
Na1 O1 2.527398 1_555
Na1 O20 2.640787 1_455
Na1 O23 2.640787 1_455
Na1 O10 2.792687 1_565
Na1 O9 2.792687 1_565
Na2 O6 2.428079 1_555
Na2 O11 2.435931 1_555
Na2 O8 2.435931 1_554
Na2 O5 2.623194 1_455
Na2 O2 2.623194 1_454
Na2 O18 2.935507 1_565
Na2 O17 2.935507 1_564
Na3 O7 2.428079 1_655
Na3 O9 2.435931 1_655
Na3 O10 2.435931 1_655
Na3 O4 2.623194 1_555
Na3 O3 2.623194 1_555
Na3 O19 2.935507 1_545
Na3 O16 2.935507 1_545
Al0 O12 1.753721 1_555
Al0 O2 1.759189 1_555
Al0 O8 1.776360 1_555
Al0 O17 1.791516 1_665
Al1 O13 1.753721 1_555
Al1 O3 1.759189 1_555
Al1 O9 1.776360 1_555
Al1 O16 1.791516 1_545
Al2 O14 1.753721 1_555
Al2 O4 1.759189 1_555
Al2 O10 1.776360 1_555
Al2 O19 1.791516 1_545
Al3 O15 1.753721 1_555
Al3 O5 1.759189 1_555
Al3 O11 1.776360 1_555
Al3 O18 1.791516 1_665
Al4 O6 1.774833 1_555
Al4 O21 1.779810 1_554
Al4 O22 1.779810 1_555
Al4 O0 1.780923 1_555
Al5 O7 1.774833 1_655
Al5 O20 1.779810 1_555
Al5 O23 1.779810 1_555
Al5 O1 1.780923 1_555
O0 Si0 1.658443 1_455
O1 Si1 1.658443 1_555
O2 Si0 1.645056 1_556
O3 Si1 1.645056 1_555
O4 Si1 1.645056 1_555
O5 Si0 1.645056 1_555
O6 Si0 1.649701 1_555
O7 Si1 1.649701 1_555
O8 Si3 1.647939 1_565
O9 Si2 1.647939 1_445
O10 Si5 1.647939 1_445
O11 Si4 1.647939 1_565
O12 Si2 1.634242 1_555
O12 Rb1 2.997283 1_655
O12 Rb1 3.281988 1_555
O13 Si3 1.634242 1_555
O13 Rb0 2.997283 1_555
O13 Rb0 3.281988 1_455
O14 Si4 1.634242 1_555
O14 Rb3 2.997283 1_555
O14 Rb3 3.281988 1_455
O15 Si5 1.634242 1_555
O15 Rb2 2.997283 1_655
O15 Rb2 3.281988 1_555
O16 Si2 1.646920 1_555
O16 Rb1 3.126168 1_555
O17 Si3 1.646920 1_555
O17 Rb0 3.126168 1_455
O18 Si4 1.646920 1_555
O18 Rb3 3.126168 1_455
O19 Si5 1.646920 1_555
O19 Rb2 3.126168 1_555
O20 Si2 1.646402 1_555
O20 Rb1 2.985040 1_655
O21 Si3 1.646402 1_555
O21 Rb0 2.985040 1_555
O22 Si4 1.646402 1_555
O22 Rb3 2.985040 1_555
O23 Si5 1.646402 1_555
O23 Rb2 2.985040 1_655
