# generated using pymatgen
data_AgBiPbS3
_symmetry_space_group_name_H-M   'P 1'
_cell_length_a   7.09252528
_cell_length_b   7.09252528
_cell_length_c   7.09252528
_cell_angle_alpha   146.40613182
_cell_angle_beta   131.74955360
_cell_angle_gamma   60.07563689
_symmetry_Int_Tables_number   1
_chemical_formula_structural   AgBiPbS3
_chemical_formula_sum   'Ag1 Bi1 Pb1 S3'
_cell_volume   145.92686385
_cell_formula_units_Z   1
loop_
 _symmetry_equiv_pos_site_id
 _symmetry_equiv_pos_as_xyz
  1  'x, y, z'
loop_
 _atom_site_type_symbol
 _atom_site_label
 _atom_site_symmetry_multiplicity
 _atom_site_fract_x
 _atom_site_fract_y
 _atom_site_fract_z
 _atom_site_occupancy
  Ag  Ag0  1  0.00014000  0.00014000  0.00000000  1
  Bi  Bi0  1  0.33269500  0.33269500  0.00000000  1
  Pb  Pb0  1  0.66812300  0.66812300  0.00000000  1
  S  S0  1  0.84070200  0.34070200  0.50000000  1
  S  S1  1  0.48945000  0.98945000  0.50000000  1
  S  S2  1  0.16889000  0.66889000  0.50000000  1
loop_
_geom_bond_atom_site_label_1
_geom_bond_atom_site_label_2
_geom_bond_distance
_geom_bond_site_symmetry_2
Ag0 S0 2.834465 1_455
Ag0 S0 2.834465 1_444
Ag0 S1 2.901915 1_444
Ag0 S1 2.901915 1_545
Ag0 S2 2.914625 1_555
Ag0 S2 2.914625 1_544
Bi0 S1 2.811808 1_544
Bi0 S1 2.811808 1_555
Bi0 S2 2.871769 1_544
Bi0 S2 2.871769 1_555
Bi0 S0 2.900611 1_555
Bi0 S0 2.900611 1_454
Pb0 S2 2.898959 1_554
Pb0 S2 2.898959 1_655
Pb0 S0 2.948241 1_554
Pb0 S0 2.948241 1_565
Pb0 S1 3.002484 1_555
Pb0 S1 3.002484 1_544
