# generated using pymatgen
data_Mg14NbCu
_symmetry_space_group_name_H-M   'P 1'
_cell_length_a   6.28937210
_cell_length_b   6.28937160
_cell_length_c   9.89718879
_cell_angle_alpha   90.00000000
_cell_angle_beta   90.00000000
_cell_angle_gamma   120.00000261
_symmetry_Int_Tables_number   1
_chemical_formula_structural   Mg14NbCu
_chemical_formula_sum   'Mg14 Nb1 Cu1'
_cell_volume   339.04474713
_cell_formula_units_Z   1
loop_
 _symmetry_equiv_pos_site_id
 _symmetry_equiv_pos_as_xyz
  1  'x, y, z'
loop_
 _atom_site_type_symbol
 _atom_site_label
 _atom_site_symmetry_multiplicity
 _atom_site_fract_x
 _atom_site_fract_y
 _atom_site_fract_z
 _atom_site_occupancy
  Mg  Mg0  1  0.16484133  0.83242016  0.12500000  1
  Mg  Mg1  1  0.17176778  0.83588339  0.62500000  1
  Mg  Mg2  1  0.66757984  0.33515867  0.12500000  1
  Mg  Mg3  1  0.66411661  0.32823222  0.62500000  1
  Mg  Mg4  1  0.66757984  0.83242016  0.12500000  1
  Mg  Mg5  1  0.66411661  0.83588339  0.62500000  1
  Mg  Mg6  1  0.32612315  0.17387685  0.37271014  1
  Mg  Mg7  1  0.32612315  0.17387685  0.87728986  1
  Mg  Mg8  1  0.32612315  0.65224731  0.37271014  1
  Mg  Mg9  1  0.32612315  0.65224731  0.87728986  1
  Mg  Mg10  1  0.84775269  0.17387685  0.37271014  1
  Mg  Mg11  1  0.84775269  0.17387685  0.87728986  1
  Mg  Mg12  1  0.83333300  0.66666700  0.37751210  1
  Mg  Mg13  1  0.83333300  0.66666700  0.87248790  1
  Nb  Nb0  1  0.16666700  0.33333300  0.62500000  1
  Cu  Cu0  1  0.16666700  0.33333300  0.12500000  1
loop_
_geom_bond_atom_site_label_1
_geom_bond_atom_site_label_2
_geom_bond_distance
_geom_bond_site_symmetry_2
Mg0 Mg9 3.077819 1_554
Mg0 Mg8 3.077819 1_555
Mg0 Mg6 3.077826 1_565
Mg0 Mg7 3.077826 1_564
Mg0 Mg12 3.083205 1_455
Mg0 Mg13 3.083205 1_454
Mg0 Mg2 3.127462 1_455
Mg0 Mg4 3.127463 1_455
Mg0 Mg2 3.161909 1_565
Mg0 Mg4 3.161910 1_555
Mg1 Mg12 3.065575 1_455
Mg1 Mg13 3.065575 1_455
Mg1 Mg3 3.096565 1_565
Mg1 Mg5 3.096565 1_555
Mg1 Mg9 3.103613 1_555
Mg1 Mg8 3.103613 1_555
Mg1 Mg6 3.103619 1_565
Mg1 Mg7 3.103619 1_565
Mg1 Nb0 3.144809 1_555
Mg1 Nb0 3.144809 1_565
Mg1 Mg3 3.192807 1_455
Mg1 Mg5 3.192807 1_455
Mg2 Mg7 3.077826 1_554
Mg2 Mg6 3.077826 1_555
Mg2 Mg4 3.127462 1_555
Mg2 Mg4 3.161909 1_545
Mg3 Mg5 3.096565 1_545
Mg3 Mg7 3.103619 1_555
Mg3 Mg6 3.103619 1_555
Mg3 Nb0 3.144809 1_655
Mg3 Nb0 3.144809 1_555
Mg3 Mg5 3.192807 1_555
Mg4 Mg8 3.077826 1_555
Mg4 Mg9 3.077826 1_554
Mg5 Mg8 3.103619 1_555
Mg5 Mg9 3.103619 1_555
Mg5 Nb0 3.144809 1_555
Mg5 Nb0 3.144809 1_665
Mg6 Mg8 3.008650 1_555
Mg6 Nb0 3.041728 1_555
Mg6 Mg8 3.280722 1_545
Mg7 Mg9 3.008650 1_555
Mg7 Nb0 3.041728 1_555
Mg7 Mg9 3.280722 1_545
Mg8 Nb0 3.041734 1_555
Mg9 Nb0 3.041734 1_555
Mg10 Mg8 3.008650 1_655
Mg10 Mg6 3.008650 1_655
Mg10 Nb0 3.041734 1_655
Mg10 Mg2 3.077819 1_555
Mg10 Mg4 3.077825 1_545
Mg10 Mg3 3.103613 1_555
Mg10 Mg5 3.103619 1_545
Mg10 Mg12 3.146025 1_555
Mg10 Mg12 3.146025 1_545
Mg10 Mg8 3.280722 1_545
Mg10 Mg6 3.280722 1_555
Mg11 Mg9 3.008650 1_655
Mg11 Mg7 3.008650 1_655
Mg11 Nb0 3.041734 1_655
Mg11 Mg2 3.077819 1_556
Mg11 Mg4 3.077825 1_546
Mg11 Mg3 3.103613 1_555
Mg11 Mg5 3.103619 1_545
Mg11 Mg13 3.146025 1_555
Mg11 Mg13 3.146025 1_545
Mg11 Mg9 3.280722 1_545
Mg11 Mg7 3.280722 1_555
Mg12 Mg5 3.065568 1_555
Mg12 Mg3 3.065575 1_555
Mg12 Mg4 3.083199 1_555
Mg12 Mg2 3.083205 1_555
Mg12 Mg6 3.146025 1_665
Mg12 Mg6 3.146025 1_555
Mg12 Mg8 3.146026 1_655
Mg12 Mg8 3.146026 1_555
Mg13 Mg5 3.065568 1_555
Mg13 Mg3 3.065575 1_555
Mg13 Mg4 3.083199 1_556
Mg13 Mg2 3.083205 1_556
Mg13 Mg7 3.146025 1_665
Mg13 Mg7 3.146025 1_555
Mg13 Mg9 3.146026 1_655
Mg13 Mg9 3.146026 1_555
Cu0 Mg7 3.004631 1_554
Cu0 Mg6 3.004631 1_555
Cu0 Mg9 3.004637 1_554
Cu0 Mg8 3.004637 1_555
Cu0 Mg10 3.004637 1_455
Cu0 Mg11 3.004637 1_454
Cu0 Mg0 3.144701 1_555
Cu0 Mg4 3.144702 1_445
Cu0 Mg4 3.144702 1_555
Cu0 Mg0 3.144702 1_545
Cu0 Mg2 3.144702 1_455
Cu0 Mg2 3.144702 1_555
