# generated using pymatgen
data_Y2Ge5Rh3
_symmetry_space_group_name_H-M   'P 1'
_cell_length_a   8.36625796
_cell_length_b   8.36625796
_cell_length_c   5.95347157
_cell_angle_alpha   70.39529762
_cell_angle_beta   70.39529762
_cell_angle_gamma   92.47270431
_symmetry_Int_Tables_number   1
_chemical_formula_structural   Y2Ge5Rh3
_chemical_formula_sum   'Y4 Ge10 Rh6'
_cell_volume   364.05795627
_cell_formula_units_Z   2
loop_
 _symmetry_equiv_pos_site_id
 _symmetry_equiv_pos_as_xyz
  1  'x, y, z'
loop_
 _atom_site_type_symbol
 _atom_site_label
 _atom_site_symmetry_multiplicity
 _atom_site_fract_x
 _atom_site_fract_y
 _atom_site_fract_z
 _atom_site_occupancy
  Y  Y0  1  0.86501600  0.59248100  0.76721300  1
  Y  Y1  1  0.40751900  0.13498400  0.73278700  1
  Y  Y2  1  0.13498400  0.40751900  0.23278700  1
  Y  Y3  1  0.59248100  0.86501600  0.26721300  1
  Ge  Ge0  1  0.07027400  0.26294500  0.83339400  1
  Ge  Ge1  1  0.73705500  0.92972600  0.66660600  1
  Ge  Ge2  1  0.92972600  0.73705500  0.16660600  1
  Ge  Ge3  1  0.26294500  0.07027400  0.33339400  1
  Ge  Ge4  1  0.21320700  0.78679300  0.75000000  1
  Ge  Ge5  1  0.78679300  0.21320700  0.25000000  1
  Ge  Ge6  1  0.50724800  0.49275200  0.75000000  1
  Ge  Ge7  1  0.49275200  0.50724800  0.25000000  1
  Ge  Ge8  1  0.77768800  0.22231200  0.75000000  1
  Ge  Ge9  1  0.22231200  0.77768800  0.25000000  1
  Rh  Rh0  1  0.25498200  0.53962900  0.61691100  1
  Rh  Rh1  1  0.46037100  0.74501800  0.88308900  1
  Rh  Rh2  1  0.74501800  0.46037100  0.38308900  1
  Rh  Rh3  1  0.53962900  0.25498200  0.11691100  1
  Rh  Rh4  1  0.00151400  0.99848600  0.75000000  1
  Rh  Rh5  1  0.99848600  0.00151400  0.25000000  1
loop_
_geom_bond_atom_site_label_1
_geom_bond_atom_site_label_2
_geom_bond_distance
_geom_bond_site_symmetry_2
Ge0 Rh0 2.400047 1_555
Ge0 Rh4 2.508327 1_545
Ge0 Rh5 2.557904 1_456
Ge0 Ge8 2.685337 1_455
Ge0 Ge5 2.687844 1_456
Ge0 Y1 3.003740 1_555
Ge0 Y2 3.185469 1_556
Ge0 Y2 3.206845 1_555
Ge0 Y0 3.292222 1_455
Ge1 Rh1 2.400047 1_555
Ge1 Rh4 2.508327 1_655
Ge1 Rh5 2.557904 1_565
Ge1 Ge8 2.685337 1_565
Ge1 Ge5 2.687844 1_565
Ge1 Y0 3.003740 1_555
Ge1 Y3 3.185469 1_555
Ge1 Y3 3.206845 1_556
Ge1 Y1 3.292222 1_565
Ge2 Rh2 2.400047 1_555
Ge2 Rh5 2.508327 1_565
Ge2 Rh4 2.557904 1_654
Ge2 Ge9 2.685337 1_655
Ge2 Ge4 2.687844 1_654
Ge2 Y3 3.003740 1_555
Ge2 Y0 3.185469 1_554
Ge2 Y0 3.206845 1_555
Ge2 Y2 3.292222 1_655
Ge3 Rh3 2.400047 1_555
Ge3 Rh5 2.508327 1_455
Ge3 Rh4 2.557904 1_545
Ge3 Ge9 2.685337 1_545
Ge3 Ge4 2.687844 1_545
Ge3 Y2 3.003740 1_555
Ge3 Y1 3.185469 1_555
Ge3 Y1 3.206845 1_554
Ge3 Y3 3.292222 1_545
Ge4 Rh0 2.449882 1_555
Ge4 Rh1 2.449882 1_555
Ge4 Rh4 2.558143 1_555
Ge4 Ge9 2.978769 1_556
Ge4 Ge9 2.978769 1_555
Ge5 Rh3 2.449882 1_555
Ge5 Rh2 2.449882 1_555
Ge5 Rh5 2.558143 1_555
Ge5 Ge8 2.978769 1_555
Ge5 Ge8 2.978769 1_554
Ge6 Rh0 2.494192 1_555
Ge6 Rh1 2.494192 1_555
Ge6 Rh3 2.515896 1_556
Ge6 Rh2 2.515896 1_555
Ge6 Y1 3.116649 1_555
Ge6 Y0 3.116649 1_555
Ge6 Y2 3.300837 1_556
Ge6 Y3 3.300837 1_555
Ge7 Rh3 2.494192 1_555
Ge7 Rh2 2.494192 1_555
Ge7 Rh0 2.515896 1_555
Ge7 Rh1 2.515896 1_554
Ge7 Y2 3.116649 1_555
Ge7 Y3 3.116649 1_555
Ge7 Y1 3.300837 1_555
Ge7 Y0 3.300837 1_554
Ge8 Rh3 2.518163 1_556
Ge8 Rh2 2.518163 1_555
Ge8 Rh4 2.704760 1_645
Ge8 Y1 3.194251 1_555
Ge8 Y0 3.194251 1_555
Ge8 Y3 3.322622 1_546
Ge8 Y2 3.322622 1_655
Ge9 Rh0 2.518163 1_555
Ge9 Rh1 2.518163 1_554
Ge9 Rh5 2.704760 1_465
Ge9 Y2 3.194251 1_555
Ge9 Y3 3.194251 1_555
Ge9 Y0 3.322622 1_455
Ge9 Y1 3.322622 1_564
