# generated using pymatgen
data_Tl3AsSe4
_symmetry_space_group_name_H-M   'P 1'
_cell_length_a   9.31482926
_cell_length_b   9.55295169
_cell_length_c   11.22787553
_cell_angle_alpha   90.00000000
_cell_angle_beta   90.00000000
_cell_angle_gamma   90.00000000
_symmetry_Int_Tables_number   1
_chemical_formula_structural   Tl3AsSe4
_chemical_formula_sum   'Tl12 As4 Se16'
_cell_volume   999.10255526
_cell_formula_units_Z   4
loop_
 _symmetry_equiv_pos_site_id
 _symmetry_equiv_pos_as_xyz
  1  'x, y, z'
loop_
 _atom_site_type_symbol
 _atom_site_label
 _atom_site_symmetry_multiplicity
 _atom_site_fract_x
 _atom_site_fract_y
 _atom_site_fract_z
 _atom_site_occupancy
  Tl  Tl0  1  0.89524182  0.38787713  0.75000000  1
  Tl  Tl1  1  0.39524182  0.11212287  0.75000000  1
  Tl  Tl2  1  0.10475818  0.61212287  0.25000000  1
  Tl  Tl3  1  0.60475818  0.88787713  0.25000000  1
  Tl  Tl4  1  0.56751079  0.69202443  0.55246970  1
  Tl  Tl5  1  0.06751079  0.80797557  0.94753030  1
  Tl  Tl6  1  0.43248921  0.30797557  0.05246970  1
  Tl  Tl7  1  0.93248921  0.19202443  0.44753030  1
  Tl  Tl8  1  0.43248921  0.30797557  0.44753030  1
  Tl  Tl9  1  0.93248921  0.19202443  0.05246970  1
  Tl  Tl10  1  0.56751079  0.69202443  0.94753030  1
  Tl  Tl11  1  0.06751079  0.80797557  0.55246970  1
  As  As0  1  0.78075248  0.97292516  0.75000000  1
  As  As1  1  0.28075248  0.52707484  0.75000000  1
  As  As2  1  0.21924752  0.02707484  0.25000000  1
  As  As3  1  0.71924752  0.47292516  0.25000000  1
  Se  Se0  1  0.81201497  0.72904690  0.75000000  1
  Se  Se1  1  0.31201497  0.77095310  0.75000000  1
  Se  Se2  1  0.18798503  0.27095310  0.25000000  1
  Se  Se3  1  0.68798503  0.22904690  0.25000000  1
  Se  Se4  1  0.50911848  0.42696654  0.75000000  1
  Se  Se5  1  0.00911848  0.07303346  0.75000000  1
  Se  Se6  1  0.49088152  0.57303346  0.25000000  1
  Se  Se7  1  0.99088152  0.92696654  0.25000000  1
  Se  Se8  1  0.65120519  0.03317239  0.58013157  1
  Se  Se9  1  0.15120519  0.46682761  0.91986843  1
  Se  Se10  1  0.34879481  0.96682761  0.08013157  1
  Se  Se11  1  0.84879481  0.53317239  0.41986843  1
  Se  Se12  1  0.34879481  0.96682761  0.41986843  1
  Se  Se13  1  0.84879481  0.53317239  0.08013157  1
  Se  Se14  1  0.65120519  0.03317239  0.91986843  1
  Se  Se15  1  0.15120519  0.46682761  0.58013157  1
loop_
_geom_bond_atom_site_label_1
_geom_bond_atom_site_label_2
_geom_bond_distance
_geom_bond_site_symmetry_2
As0 Se8 2.329172 1_565
As0 Se14 2.329172 1_565
As0 Se5 2.332275 1_665
As0 Se0 2.347886 1_555
As1 Se15 2.329172 1_555
As1 Se9 2.329172 1_555
As1 Se4 2.332275 1_555
As1 Se1 2.347886 1_555
As2 Se10 2.329172 1_545
As2 Se12 2.329172 1_545
As2 Se7 2.332275 1_445
As2 Se2 2.347886 1_555
As3 Se11 2.329172 1_555
As3 Se13 2.329172 1_555
As3 Se6 2.332275 1_555
As3 Se3 2.347886 1_555
Se0 Tl10 3.198593 1_555
Se0 Tl4 3.198593 1_555
Se0 Tl5 3.339353 1_655
Se0 Tl11 3.339353 1_655
Se0 Tl0 3.350111 1_555
Se1 Tl5 3.198593 1_555
Se1 Tl11 3.198593 1_555
Se1 Tl10 3.339353 1_555
Se1 Tl4 3.339353 1_555
Se1 Tl1 3.350111 1_565
Se2 Tl8 3.198593 1_555
Se2 Tl6 3.198593 1_555
Se2 Tl9 3.339353 1_455
Se2 Tl7 3.339353 1_455
Se2 Tl2 3.350111 1_555
Se3 Tl7 3.198593 1_555
Se3 Tl9 3.198593 1_555
Se3 Tl6 3.339353 1_555
Se3 Tl8 3.339353 1_555
Se3 Tl3 3.350111 1_545
Se4 Tl1 3.189255 1_555
Se4 Tl10 3.409712 1_555
Se4 Tl4 3.409712 1_555
Se5 Tl0 3.189255 1_455
Se5 Tl5 3.409712 1_545
Se5 Tl11 3.409712 1_545
Se6 Tl3 3.189255 1_555
Se6 Tl6 3.409712 1_555
Se6 Tl8 3.409712 1_555
Se7 Tl2 3.189255 1_655
Se7 Tl7 3.409712 1_565
Se7 Tl9 3.409712 1_565
Se8 Tl1 3.145020 1_555
Se8 Tl4 3.365282 1_545
Se8 Tl7 3.374082 1_555
Se9 Tl0 3.145020 1_455
Se9 Tl5 3.365282 1_555
Se9 Tl6 3.374082 1_556
Se10 Tl3 3.145020 1_555
Se10 Tl6 3.365282 1_565
Se10 Tl5 3.374082 1_554
Se11 Tl2 3.145020 1_655
Se11 Tl7 3.365282 1_555
Se11 Tl4 3.374082 1_555
Se12 Tl3 3.145020 1_555
Se12 Tl8 3.365282 1_565
Se12 Tl11 3.374082 1_555
Se13 Tl2 3.145020 1_655
Se13 Tl9 3.365282 1_555
Se13 Tl10 3.374082 1_554
Se14 Tl1 3.145020 1_555
Se14 Tl10 3.365282 1_545
Se14 Tl9 3.374082 1_556
Se15 Tl0 3.145020 1_455
Se15 Tl11 3.365282 1_555
Se15 Tl8 3.374082 1_555
