# generated using pymatgen
data_Na4FeNi(PO4)3
_symmetry_space_group_name_H-M   'P 1'
_cell_length_a   8.67102139
_cell_length_b   8.67102139
_cell_length_c   8.67102165
_cell_angle_alpha   61.52780764
_cell_angle_beta   61.52780764
_cell_angle_gamma   61.52781003
_symmetry_Int_Tables_number   1
_chemical_formula_structural   Na4FeNi(PO4)3
_chemical_formula_sum   'Na8 Fe2 Ni2 P6 O24'
_cell_volume   476.80144605
_cell_formula_units_Z   2
loop_
 _symmetry_equiv_pos_site_id
 _symmetry_equiv_pos_as_xyz
  1  'x, y, z'
loop_
 _atom_site_type_symbol
 _atom_site_label
 _atom_site_symmetry_multiplicity
 _atom_site_fract_x
 _atom_site_fract_y
 _atom_site_fract_z
 _atom_site_occupancy
  Na  Na0  1  0.49790695  0.49790695  0.49790695  1
  Na  Na1  1  0.99790695  0.99790695  0.99790695  1
  Na  Na2  1  0.74296443  0.11537064  0.38567743  1
  Na  Na3  1  0.38567743  0.74296443  0.11537064  1
  Na  Na4  1  0.11537064  0.38567743  0.74296443  1
  Na  Na5  1  0.88567743  0.61537064  0.24296443  1
  Na  Na6  1  0.24296443  0.88567743  0.61537064  1
  Na  Na7  1  0.61537064  0.24296443  0.88567743  1
  Fe  Fe0  1  0.64765264  0.64765264  0.64765264  1
  Fe  Fe1  1  0.14765264  0.14765264  0.14765264  1
  Ni  Ni0  1  0.35398479  0.35398479  0.35398479  1
  Ni  Ni1  1  0.85398479  0.85398479  0.85398479  1
  P  P0  1  0.75379866  0.45321495  0.04607849  1
  P  P1  1  0.04607849  0.75379866  0.45321495  1
  P  P2  1  0.45321495  0.04607849  0.75379866  1
  P  P3  1  0.54607849  0.95321495  0.25379866  1
  P  P4  1  0.25379866  0.54607849  0.95321495  1
  P  P5  1  0.95321495  0.25379866  0.54607849  1
  O  O0  1  0.11262075  0.30473301  0.51489625  1
  O  O1  1  0.51489625  0.11262075  0.30473301  1
  O  O2  1  0.30473301  0.51489625  0.11262075  1
  O  O3  1  0.01489625  0.80473301  0.61262075  1
  O  O4  1  0.61262075  0.01489625  0.80473301  1
  O  O5  1  0.80473301  0.61262075  0.01489625  1
  O  O6  1  0.87896163  0.70635619  0.48777115  1
  O  O7  1  0.48777115  0.87896163  0.70635619  1
  O  O8  1  0.70635619  0.48777115  0.87896163  1
  O  O9  1  0.98777115  0.20635619  0.37896163  1
  O  O10  1  0.37896163  0.98777115  0.20635619  1
  O  O11  1  0.20635619  0.37896163  0.98777115  1
  O  O12  1  0.22772146  0.59202018  0.43134529  1
  O  O13  1  0.43134529  0.22772146  0.59202018  1
  O  O14  1  0.59202018  0.43134529  0.22772146  1
  O  O15  1  0.93134529  0.09202018  0.72772146  1
  O  O16  1  0.72772146  0.93134529  0.09202018  1
  O  O17  1  0.09202018  0.72772146  0.93134529  1
  O  O18  1  0.76866372  0.41729570  0.56103068  1
  O  O19  1  0.56103068  0.76866372  0.41729570  1
  O  O20  1  0.41729570  0.56103068  0.76866372  1
  O  O21  1  0.06103068  0.91729570  0.26866372  1
  O  O22  1  0.26866372  0.06103068  0.91729570  1
  O  O23  1  0.91729570  0.26866372  0.06103068  1
loop_
_geom_bond_atom_site_label_1
_geom_bond_atom_site_label_2
_geom_bond_distance
_geom_bond_site_symmetry_2
Na0 O13 2.346269 1_555
Na0 O12 2.346269 1_555
Na0 O14 2.346269 1_555
Na0 O19 2.365549 1_555
Na0 O18 2.365549 1_555
Na0 O20 2.365549 1_555
Na1 O16 2.346269 1_556
Na1 O17 2.346269 1_655
Na1 O15 2.346269 1_565
Na1 O22 2.365549 1_665
Na1 O23 2.365549 1_566
Na1 O21 2.365549 1_656
Na2 O1 2.405902 1_555
Na2 O14 2.409931 1_555
Na2 O13 2.448254 1_555
Na2 O21 2.462259 1_645
Na2 O23 2.503408 1_555
Na2 O9 2.562591 1_555
Na3 O2 2.405902 1_555
Na3 O12 2.409931 1_555
Na3 O14 2.448254 1_555
Na3 O22 2.462259 1_564
Na3 O21 2.503408 1_555
Na3 O10 2.562591 1_555
Na4 O0 2.405902 1_555
Na4 O13 2.409931 1_555
Na4 O12 2.448254 1_555
Na4 O23 2.462259 1_456
Na4 O22 2.503408 1_555
Na4 O11 2.562591 1_555
Na5 O5 2.405902 1_555
Na5 O16 2.409931 1_555
Na5 O17 2.448254 1_654
Na5 O18 2.462259 1_555
Na5 O19 2.503408 1_555
Na5 O6 2.562591 1_555
Na6 O3 2.405902 1_555
Na6 O17 2.409931 1_555
Na6 O15 2.448254 1_465
Na6 O19 2.462259 1_555
Na6 O20 2.503408 1_555
Na6 O7 2.562591 1_555
Na7 O4 2.405902 1_555
Na7 O15 2.409931 1_555
Na7 O16 2.448254 1_546
Na7 O20 2.462259 1_555
Na7 O18 2.503408 1_555
Na7 O8 2.562591 1_555
Fe0 O6 1.962965 1_555
Fe0 O7 1.962965 1_555
Fe0 O8 1.962965 1_555
Fe0 O20 2.082198 1_555
Fe0 O18 2.082198 1_555
Fe0 O19 2.082198 1_555
Fe1 O11 1.962965 1_554
Fe1 O10 1.962965 1_545
Fe1 O9 1.962965 1_455
Fe1 O21 2.082198 1_545
Fe1 O23 2.082198 1_455
Fe1 O22 2.082198 1_554
Ni0 O0 2.002274 1_555
Ni0 O1 2.002274 1_555
Ni0 O2 2.002274 1_555
Ni0 O14 2.091420 1_555
Ni0 O12 2.091421 1_555
Ni0 O13 2.091421 1_555
Ni1 O5 2.002274 1_556
Ni1 O4 2.002274 1_565
Ni1 O3 2.002274 1_655
Ni1 O15 2.091420 1_565
Ni1 O17 2.091421 1_655
Ni1 O16 2.091421 1_556
O0 P5 1.513449 1_455
O1 P3 1.513450 1_545
O2 P4 1.513450 1_554
O3 P1 1.513450 1_555
O4 P2 1.513450 1_555
O5 P0 1.513449 1_555
O6 P1 1.547798 1_655
O7 P2 1.547799 1_565
O8 P0 1.547799 1_556
O9 P5 1.547799 1_555
O10 P3 1.547799 1_555
O11 P4 1.547798 1_555
O12 P1 1.531904 1_555
O13 P2 1.531904 1_555
O14 P0 1.531904 1_555
O15 P5 1.531904 1_555
O16 P3 1.531904 1_555
O17 P4 1.531904 1_555
O18 P5 1.549772 1_555
O19 P3 1.549772 1_555
O20 P4 1.549772 1_555
O21 P1 1.549772 1_555
O22 P2 1.549772 1_555
O23 P0 1.549772 1_555
