# generated using pymatgen
data_Li2MgZr2H4(OF3)4
_symmetry_space_group_name_H-M   'P 1'
_cell_length_a   6.90816969
_cell_length_b   6.93206172
_cell_length_c   7.53719451
_cell_angle_alpha   64.40401172
_cell_angle_beta   89.84812556
_cell_angle_gamma   73.84982346
_symmetry_Int_Tables_number   1
_chemical_formula_structural   Li2MgZr2H4(OF3)4
_chemical_formula_sum   'Li2 Mg1 Zr2 H4 O4 F12'
_cell_volume   309.78162325
_cell_formula_units_Z   1
loop_
 _symmetry_equiv_pos_site_id
 _symmetry_equiv_pos_as_xyz
  1  'x, y, z'
loop_
 _atom_site_type_symbol
 _atom_site_label
 _atom_site_symmetry_multiplicity
 _atom_site_fract_x
 _atom_site_fract_y
 _atom_site_fract_z
 _atom_site_occupancy
  Li  Li0  1  0.07219400  0.47333900  0.32477900  1
  Li  Li1  1  0.92780600  0.52666100  0.67522100  1
  Mg  Mg0  1  0.50000000  0.00000000  0.00000000  1
  Zr  Zr0  1  0.99894100  0.99095800  0.75042300  1
  Zr  Zr1  1  0.00105900  0.00904200  0.24957700  1
  H  H0  1  0.24816700  0.45053800  0.86194200  1
  H  H1  1  0.75183300  0.54946200  0.13805800  1
  H  H2  1  0.46421100  0.43942700  0.79754600  1
  H  H3  1  0.53578900  0.56057300  0.20245400  1
  O  O0  1  0.38182800  0.34473200  0.87185100  1
  O  O1  1  0.61817200  0.65526800  0.12814900  1
  O  O2  1  0.39786500  0.34717300  0.33079900  1
  O  O3  1  0.60213500  0.65282700  0.66920100  1
  F  F0  1  0.03510100  0.65876800  0.81194700  1
  F  F1  1  0.96489900  0.34123200  0.18805300  1
  F  F2  1  0.29172800  0.97088400  0.83214900  1
  F  F3  1  0.70827200  0.02911600  0.16785100  1
  F  F4  1  0.04283900  0.79255000  0.08235200  1
  F  F5  1  0.95716100  0.20745000  0.91764800  1
  F  F6  1  0.69910200  0.03478300  0.80386700  1
  F  F7  1  0.30089800  0.96521700  0.19613300  1
  F  F8  1  0.17771500  0.97188400  0.51462200  1
  F  F9  1  0.82228500  0.02811600  0.48537800  1
  F  F10  1  0.93764700  0.32891400  0.55428000  1
  F  F11  1  0.06235300  0.67108600  0.44572000  1
loop_
_geom_bond_atom_site_label_1
_geom_bond_atom_site_label_2
_geom_bond_distance
_geom_bond_site_symmetry_2
Li0 O2 2.167984 1_555
Li1 O3 2.167984 1_555
Mg0 O0 2.057810 1_554
Mg0 O1 2.057810 1_545
H0 O0 0.986100 1_555
H1 O1 0.986100 1_555
H2 O0 0.978233 1_555
H3 O1 0.978233 1_555
F0 H0 1.656220 1_555
F0 Li1 1.909744 1_455
F0 Zr0 2.082810 1_455
F1 H1 1.656220 1_555
F1 Li0 1.909744 1_655
F1 Zr1 2.082810 1_655
F2 Mg0 2.025634 1_566
F2 Zr0 2.065373 1_455
F3 Mg0 2.025634 1_555
F3 Zr1 2.065373 1_655
F4 Li0 2.129571 1_555
F4 Zr0 2.245342 1_454
F4 Zr1 2.305563 1_565
F5 Li1 2.129571 1_555
F5 Zr1 2.245342 1_656
F5 Zr0 2.305563 1_545
F6 Mg0 2.000257 1_556
F6 Zr0 2.072738 1_545
F7 Mg0 2.000257 1_565
F7 Zr1 2.072738 1_565
F8 Zr0 2.191346 1_455
F8 Zr1 2.222584 1_565
F9 Zr1 2.191346 1_655
F9 Zr0 2.222584 1_545
F10 Li1 1.934460 1_555
F10 Li0 1.967544 1_655
F10 Zr0 2.076577 1_545
F11 Li0 1.934460 1_555
F11 Li1 1.967544 1_455
F11 Zr1 2.076577 1_565
