# generated using pymatgen
data_Y5(FeTe)2
_symmetry_space_group_name_H-M   'P 1'
_cell_length_a   7.86725850
_cell_length_b   7.86725850
_cell_length_c   15.21384931
_cell_angle_alpha   90.00000000
_cell_angle_beta   90.00000000
_cell_angle_gamma   150.50873588
_symmetry_Int_Tables_number   1
_chemical_formula_structural   Y5(FeTe)2
_chemical_formula_sum   'Y10 Fe4 Te4'
_cell_volume   463.56188050
_cell_formula_units_Z   2
loop_
 _symmetry_equiv_pos_site_id
 _symmetry_equiv_pos_as_xyz
  1  'x, y, z'
loop_
 _atom_site_type_symbol
 _atom_site_label
 _atom_site_symmetry_multiplicity
 _atom_site_fract_x
 _atom_site_fract_y
 _atom_site_fract_z
 _atom_site_occupancy
  Y  Y0  1  0.96365790  0.03634210  0.38160562  1
  Y  Y1  1  0.03634210  0.96365790  0.61839438  1
  Y  Y2  1  0.03634210  0.96365790  0.88160562  1
  Y  Y3  1  0.96365790  0.03634210  0.11839438  1
  Y  Y4  1  0.74441666  0.25558334  0.62756412  1
  Y  Y5  1  0.25558334  0.74441666  0.37243588  1
  Y  Y6  1  0.25558334  0.74441666  0.12756412  1
  Y  Y7  1  0.74441666  0.25558334  0.87243588  1
  Y  Y8  1  0.39651333  0.60348667  0.75000000  1
  Y  Y9  1  0.60348667  0.39651333  0.25000000  1
  Fe  Fe0  1  0.82700743  0.17299257  0.25000000  1
  Fe  Fe1  1  0.17299257  0.82700743  0.75000000  1
  Fe  Fe2  1  0.40778482  0.59221518  0.25000000  1
  Fe  Fe3  1  0.59221518  0.40778482  0.75000000  1
  Te  Te0  1  0.61831237  0.38168763  0.03904669  1
  Te  Te1  1  0.38168763  0.61831237  0.96095331  1
  Te  Te2  1  0.38168763  0.61831237  0.53904669  1
  Te  Te3  1  0.61831237  0.38168763  0.46095331  1
loop_
_geom_bond_atom_site_label_1
_geom_bond_atom_site_label_2
_geom_bond_distance
_geom_bond_site_symmetry_2
Fe0 Fe2 2.349581 1_545
Fe0 Fe2 2.349581 1_655
Fe0 Y3 2.886602 1_555
Fe0 Y0 2.886602 1_555
Fe0 Y6 2.942898 1_545
Fe0 Y5 2.942898 1_545
Fe0 Y5 2.942898 1_655
Fe0 Y6 2.942898 1_655
Fe0 Y9 3.401160 1_555
Fe1 Fe3 2.349581 1_455
Fe1 Fe3 2.349581 1_565
Fe1 Y1 2.886602 1_555
Fe1 Y2 2.886602 1_555
Fe1 Y4 2.942898 1_565
Fe1 Y4 2.942898 1_455
Fe1 Y7 2.942898 1_565
Fe1 Y7 2.942898 1_455
Fe1 Y8 3.401160 1_555
Fe2 Y3 2.956601 1_565
Fe2 Y0 2.956601 1_565
Fe2 Y3 2.956601 1_455
Fe2 Y0 2.956601 1_455
Fe2 Y5 2.972091 1_555
Fe2 Y6 2.972091 1_555
Fe2 Y9 2.977859 1_555
Fe3 Y2 2.956601 1_655
Fe3 Y1 2.956601 1_655
Fe3 Y1 2.956601 1_545
Fe3 Y2 2.956601 1_545
Fe3 Y4 2.972091 1_555
Fe3 Y7 2.972091 1_555
Fe3 Y8 2.977859 1_555
Te0 Y7 3.179170 1_554
Te0 Y6 3.191590 1_545
Te0 Y6 3.191590 1_655
Te0 Y9 3.217331 1_555
Te0 Y3 3.317369 1_565
Te0 Y3 3.317369 1_455
Te0 Y2 3.361974 1_654
Te0 Y2 3.361974 1_544
Te1 Y6 3.179170 1_556
Te1 Y7 3.191590 1_455
Te1 Y7 3.191590 1_565
Te1 Y8 3.217331 1_555
Te1 Y2 3.317369 1_655
Te1 Y2 3.317369 1_545
Te1 Y3 3.361974 1_566
Te1 Y3 3.361974 1_456
Te2 Y5 3.179170 1_555
Te2 Y4 3.191590 1_455
Te2 Y4 3.191590 1_565
Te2 Y8 3.217331 1_555
Te2 Y1 3.317369 1_655
Te2 Y1 3.317369 1_545
Te2 Y0 3.361974 1_565
Te2 Y0 3.361974 1_455
Te3 Y4 3.179170 1_555
Te3 Y5 3.191590 1_545
Te3 Y5 3.191590 1_655
Te3 Y9 3.217331 1_555
Te3 Y0 3.317369 1_565
Te3 Y0 3.317369 1_455
Te3 Y1 3.361974 1_655
Te3 Y1 3.361974 1_545
