# generated using pymatgen
data_Ca7TlN4
_symmetry_space_group_name_H-M   'P 1'
_cell_length_a   3.62367916
_cell_length_b   11.63362188
_cell_length_c   12.00796098
_cell_angle_alpha   90.00000000
_cell_angle_beta   90.00000000
_cell_angle_gamma   90.00000000
_symmetry_Int_Tables_number   1
_chemical_formula_structural   Ca7TlN4
_chemical_formula_sum   'Ca14 Tl2 N8'
_cell_volume   506.21376510
_cell_formula_units_Z   2
loop_
 _symmetry_equiv_pos_site_id
 _symmetry_equiv_pos_as_xyz
  1  'x, y, z'
loop_
 _atom_site_type_symbol
 _atom_site_label
 _atom_site_symmetry_multiplicity
 _atom_site_fract_x
 _atom_site_fract_y
 _atom_site_fract_z
 _atom_site_occupancy
  Ca  Ca0  1  0.00031433  0.73356589  0.43144415  1
  Ca  Ca1  1  0.00031433  0.26643411  0.56855585  1
  Ca  Ca2  1  -0.00031433  0.23356589  0.06855585  1
  Ca  Ca3  1  -0.00031433  0.76643411  0.93144415  1
  Ca  Ca4  1  0.49991385  0.73292602  0.67365395  1
  Ca  Ca5  1  0.49991385  0.26707398  0.32634605  1
  Ca  Ca6  1  0.50008615  0.23292602  0.82634605  1
  Ca  Ca7  1  0.50008615  0.76707398  0.17365395  1
  Ca  Ca8  1  0.50027445  0.50000000  0.50000000  1
  Ca  Ca9  1  0.49972555  0.00000000  -0.00000000  1
  Ca  Ca10  1  -0.00000527  0.47571597  0.73393862  1
  Ca  Ca11  1  -0.00000527  0.52428403  0.26606138  1
  Ca  Ca12  1  0.00000527  0.97571597  0.76606138  1
  Ca  Ca13  1  0.00000527  0.02428403  0.23393862  1
  Tl  Tl0  1  0.50707179  0.00000000  0.50000000  1
  Tl  Tl1  1  0.49292821  0.50000000  -0.00000000  1
  N  N0  1  -0.00000512  0.62810819  0.60324340  1
  N  N1  1  -0.00000512  0.37189181  0.39675660  1
  N  N2  1  0.00000512  0.12810819  0.89675660  1
  N  N3  1  0.00000512  0.87189181  0.10324340  1
  N  N4  1  0.50018379  0.64326119  0.33341231  1
  N  N5  1  0.50018379  0.35673881  0.66658769  1
  N  N6  1  0.49981621  0.14326119  0.16658769  1
  N  N7  1  0.49981621  0.85673881  0.83341231  1
loop_
_geom_bond_atom_site_label_1
_geom_bond_atom_site_label_2
_geom_bond_distance
_geom_bond_site_symmetry_2
Ca0 N0 2.400203 1_555
Ca0 N4 2.402178 1_555
Ca0 N4 2.402891 1_455
Ca0 Tl0 3.671484 1_465
Ca0 Tl0 3.695573 1_565
Ca1 N1 2.400203 1_555
Ca1 N5 2.402178 1_555
Ca1 N5 2.402891 1_455
Ca1 Tl0 3.671484 1_455
Ca1 Tl0 3.695573 1_555
Ca2 N2 2.400203 1_554
Ca2 N6 2.402178 1_455
Ca2 N6 2.402891 1_555
Ca2 Tl1 3.671484 1_555
Ca2 Tl1 3.695573 1_455
Ca3 N3 2.400203 1_556
Ca3 N7 2.402178 1_455
Ca3 N7 2.402891 1_555
Ca3 Tl1 3.671484 1_556
Ca3 Tl1 3.695573 1_456
Ca4 N0 2.341690 1_555
Ca4 N0 2.342144 1_655
Ca4 N7 2.398933 1_555
Ca4 Tl0 3.741997 1_565
Ca5 N1 2.341690 1_555
Ca5 N1 2.342144 1_655
Ca5 N6 2.398933 1_555
Ca5 Tl0 3.741997 1_555
Ca6 N2 2.341690 1_655
Ca6 N2 2.342144 1_555
Ca6 N5 2.398933 1_555
Ca6 Tl1 3.741997 1_556
Ca7 N3 2.341690 1_655
Ca7 N3 2.342144 1_555
Ca7 N4 2.398933 1_555
Ca7 Tl1 3.741997 1_555
Ca8 N4 2.603694 1_555
Ca8 N5 2.603694 1_555
Ca8 N0 2.652779 1_655
Ca8 N1 2.652779 1_655
Ca8 N0 2.654162 1_555
Ca8 N1 2.654162 1_555
Ca9 N7 2.603694 1_544
Ca9 N6 2.603694 1_555
Ca9 N3 2.652779 1_545
Ca9 N2 2.652779 1_554
Ca9 N3 2.654162 1_645
Ca9 N2 2.654162 1_654
Ca10 N0 2.367709 1_555
Ca10 N5 2.418715 1_455
Ca10 N5 2.419741 1_555
Ca10 Tl1 3.671176 1_556
Ca10 Tl1 3.696366 1_456
Ca11 N1 2.367709 1_555
Ca11 N4 2.418715 1_455
Ca11 N4 2.419741 1_555
Ca11 Tl1 3.671176 1_555
Ca11 Tl1 3.696366 1_455
Ca12 N2 2.367709 1_565
Ca12 N7 2.418715 1_555
Ca12 N7 2.419741 1_455
Ca12 Tl0 3.671176 1_465
Ca12 Tl0 3.696366 1_565
Ca13 N3 2.367709 1_545
Ca13 N6 2.418715 1_555
Ca13 N6 2.419741 1_455
Ca13 Tl0 3.671176 1_455
Ca13 Tl0 3.696366 1_555
