# generated using pymatgen
data_Mg2CrW3S8
_symmetry_space_group_name_H-M   'P 1'
_cell_length_a   6.97003018
_cell_length_b   7.46357655
_cell_length_c   6.97006860
_cell_angle_alpha   62.15814100
_cell_angle_beta   60.04345607
_cell_angle_gamma   62.17175067
_symmetry_Int_Tables_number   1
_chemical_formula_structural   Mg2CrW3S8
_chemical_formula_sum   'Mg2 Cr1 W3 S8'
_cell_volume   264.55546074
_cell_formula_units_Z   1
loop_
 _symmetry_equiv_pos_site_id
 _symmetry_equiv_pos_as_xyz
  1  'x, y, z'
loop_
 _atom_site_type_symbol
 _atom_site_label
 _atom_site_symmetry_multiplicity
 _atom_site_fract_x
 _atom_site_fract_y
 _atom_site_fract_z
 _atom_site_occupancy
  Mg  Mg0  1  0.86016000  0.92193100  0.85966200  1
  Mg  Mg1  1  0.11090600  0.16837100  0.11089400  1
  Cr  Cr0  1  0.51741900  0.94732000  0.51750900  1
  W  W0  1  0.46710600  0.50578100  0.46677400  1
  W  W1  1  0.46825500  0.50631200  0.05898900  1
  W  W2  1  0.05863400  0.50643500  0.46818900  1
  S  S0  1  0.75402000  0.71548600  0.75430300  1
  S  S1  1  0.27879000  0.23418200  0.70791300  1
  S  S2  1  0.24043900  0.77722900  0.24063700  1
  S  S3  1  0.70839700  0.23383900  0.27877100  1
  S  S4  1  0.72742400  0.31799000  0.72741800  1
  S  S5  1  0.27584900  0.71452800  0.75408100  1
  S  S6  1  0.27881900  0.23585400  0.27892200  1
  S  S7  1  0.75378800  0.71473700  0.27594000  1
loop_
_geom_bond_atom_site_label_1
_geom_bond_atom_site_label_2
_geom_bond_distance
_geom_bond_site_symmetry_2
Mg0 S5 2.465709 1_655
Mg0 S7 2.467940 1_556
Mg0 S0 2.474760 1_555
Mg0 S4 2.489346 1_565
Mg1 S3 2.335483 1_455
Mg1 S6 2.337792 1_555
Mg1 S1 2.337828 1_554
Mg1 S2 2.458454 1_545
Cr0 S0 2.413334 1_555
Cr0 S7 2.419148 1_555
Cr0 S5 2.419772 1_555
Cr0 S3 2.497118 1_565
Cr0 S1 2.497295 1_565
Cr0 S6 2.498380 1_565
S0 W1 2.548833 1_556
S0 W2 2.550334 1_655
S1 W2 2.398663 1_555
S1 W0 2.399050 1_555
S2 W2 2.365568 1_555
S2 W1 2.366163 1_555
S2 W0 2.366579 1_555
S3 W1 2.399319 1_555
S3 W0 2.400310 1_555
S4 W2 2.657869 1_655
S4 W1 2.659724 1_556
S4 W0 2.663875 1_555
S5 W0 2.554165 1_555
S5 W1 2.558466 1_556
S6 W1 2.396804 1_555
S6 W2 2.397263 1_555
S7 W0 2.551807 1_555
S7 W2 2.557479 1_655
