# generated using pymatgen
data_KHSO4
_symmetry_space_group_name_H-M   'P 1'
_cell_length_a   9.42884400
_cell_length_b   10.59256400
_cell_length_c   18.96761600
_cell_angle_alpha   90.00000000
_cell_angle_beta   90.00000000
_cell_angle_gamma   90.00000000
_symmetry_Int_Tables_number   1
_chemical_formula_structural   KHSO4
_chemical_formula_sum   'K16 H16 S16 O64'
_cell_volume   1894.40266429
_cell_formula_units_Z   16
loop_
 _symmetry_equiv_pos_site_id
 _symmetry_equiv_pos_as_xyz
  1  'x, y, z'
loop_
 _atom_site_type_symbol
 _atom_site_label
 _atom_site_symmetry_multiplicity
 _atom_site_fract_x
 _atom_site_fract_y
 _atom_site_fract_z
 _atom_site_occupancy
  K  K0  1  0.86447400  0.12521000  0.38659000  1
  K  K1  1  0.36447400  0.37479000  0.61341000  1
  K  K2  1  0.13552600  0.62521000  0.11341000  1
  K  K3  1  0.63552600  0.87479000  0.88659000  1
  K  K4  1  0.13552600  0.87479000  0.61341000  1
  K  K5  1  0.63552600  0.62521000  0.38659000  1
  K  K6  1  0.86447400  0.37479000  0.88659000  1
  K  K7  1  0.36447400  0.12521000  0.11341000  1
  K  K8  1  0.34198500  0.31879400  0.37946000  1
  K  K9  1  0.84198500  0.18120600  0.62054000  1
  K  K10  1  0.65801500  0.81879400  0.12054000  1
  K  K11  1  0.15801500  0.68120600  0.87946000  1
  K  K12  1  0.65801500  0.68120600  0.62054000  1
  K  K13  1  0.15801500  0.81879400  0.37946000  1
  K  K14  1  0.34198500  0.18120600  0.87946000  1
  K  K15  1  0.84198500  0.31879400  0.12054000  1
  H  H0  1  0.88265000  0.66254700  0.97593500  1
  H  H1  1  0.38265000  0.83745300  0.02406500  1
  H  H2  1  0.11735000  0.16254700  0.52406500  1
  H  H3  1  0.61735000  0.33745300  0.47593500  1
  H  H4  1  0.11735000  0.33745300  0.02406500  1
  H  H5  1  0.61735000  0.16254700  0.97593500  1
  H  H6  1  0.88265000  0.83745300  0.47593500  1
  H  H7  1  0.38265000  0.66254700  0.52406500  1
  H  H8  1  0.24696800  0.05223400  0.27234300  1
  H  H9  1  0.74696800  0.44776600  0.72765700  1
  H  H10  1  0.75303200  0.55223400  0.22765700  1
  H  H11  1  0.25303200  0.94776600  0.77234300  1
  H  H12  1  0.75303200  0.94776600  0.72765700  1
  H  H13  1  0.25303200  0.55223400  0.27234300  1
  H  H14  1  0.24696800  0.44776600  0.77234300  1
  H  H15  1  0.74696800  0.05223400  0.22765700  1
  S  S0  1  0.96594200  0.61430900  0.52538000  1
  S  S1  1  0.46594200  0.88569100  0.47462000  1
  S  S2  1  0.03405800  0.11430900  0.97462000  1
  S  S3  1  0.53405800  0.38569100  0.02538000  1
  S  S4  1  0.03405800  0.38569100  0.47462000  1
  S  S5  1  0.53405800  0.11430900  0.52538000  1
  S  S6  1  0.96594200  0.88569100  0.02538000  1
  S  S7  1  0.46594200  0.61430900  0.97462000  1
  S  S8  1  0.47598600  0.01161100  0.28759100  1
  S  S9  1  0.97598600  0.48838900  0.71240900  1
  S  S10  1  0.52401400  0.51161100  0.21240900  1
  S  S11  1  0.02401400  0.98838900  0.78759100  1
  S  S12  1  0.52401400  0.98838900  0.71240900  1
  S  S13  1  0.02401400  0.51161100  0.28759100  1
  S  S14  1  0.47598600  0.48838900  0.78759100  1
  S  S15  1  0.97598600  0.01161100  0.21240900  1
  O  O0  1  0.83137500  0.65023700  0.49002400  1
  O  O1  1  0.33137500  0.84976300  0.50997600  1
  O  O2  1  0.16862500  0.15023700  0.00997600  1
  O  O3  1  0.66862500  0.34976300  0.99002400  1
  O  O4  1  0.16862500  0.34976300  0.50997600  1
  O  O5  1  0.66862500  0.15023700  0.49002400  1
  O  O6  1  0.83137500  0.84976300  0.99002400  1
  O  O7  1  0.33137500  0.65023700  0.00997600  1
  O  O8  1  0.91483700  0.30305800  0.49635800  1
  O  O9  1  0.41483700  0.19694200  0.50364200  1
  O  O10  1  0.08516300  0.80305800  0.00364200  1
  O  O11  1  0.58516300  0.69694200  0.99635800  1
  O  O12  1  0.08516300  0.69694200  0.50364200  1
  O  O13  1  0.58516300  0.80305800  0.49635800  1
  O  O14  1  0.91483700  0.19694200  0.99635800  1
  O  O15  1  0.41483700  0.30305800  0.00364200  1
  O  O16  1  0.61831600  0.44587300  0.55498700  1
  O  O17  1  0.11831600  0.05412700  0.44501300  1
  O  O18  1  0.38168400  0.94587300  0.94501300  1
  O  O19  1  0.88168400  0.55412700  0.05498700  1
  O  O20  1  0.38168400  0.55412700  0.44501300  1
  O  O21  1  0.88168400  0.94587300  0.55498700  1
  O  O22  1  0.61831600  0.05412700  0.05498700  1
  O  O23  1  0.11831600  0.44587300  0.94501300  1
  O  O24  1  0.63075200  0.42941000  0.48156600  1
  O  O25  1  0.13075200  0.07059000  0.51843400  1
  O  O26  1  0.36924800  0.92941000  0.01843400  1
  O  O27  1  0.86924800  0.57059000  0.98156600  1
  O  O28  1  0.36924800  0.57059000  0.51843400  1
  O  O29  1  0.86924800  0.92941000  0.48156600  1
  O  O30  1  0.63075200  0.07059000  0.98156600  1
  O  O31  1  0.13075200  0.42941000  0.01843400  1
  O  O32  1  0.55961200  0.00049800  0.22162800  1
  O  O33  1  0.05961200  0.49950200  0.77837200  1
  O  O34  1  0.44038800  0.50049800  0.27837200  1
  O  O35  1  0.94038800  0.99950200  0.72162800  1
  O  O36  1  0.44038800  0.99950200  0.77837200  1
  O  O37  1  0.94038800  0.50049800  0.22162800  1
  O  O38  1  0.55961200  0.49950200  0.72162800  1
  O  O39  1  0.05961200  0.00049800  0.27837200  1
  O  O40  1  0.33890700  0.09774500  0.26511800  1
  O  O41  1  0.83890700  0.40225500  0.73488200  1
  O  O42  1  0.66109300  0.59774500  0.23488200  1
  O  O43  1  0.16109300  0.90225500  0.76511800  1
  O  O44  1  0.66109300  0.90225500  0.73488200  1
  O  O45  1  0.16109300  0.59774500  0.26511800  1
  O  O46  1  0.33890700  0.40225500  0.76511800  1
  O  O47  1  0.83890700  0.09774500  0.23488200  1
  O  O48  1  0.41686400  0.89128500  0.31144000  1
  O  O49  1  0.91686400  0.60871500  0.68856000  1
  O  O50  1  0.58313600  0.39128500  0.18856000  1
  O  O51  1  0.08313600  0.10871500  0.81144000  1
  O  O52  1  0.58313600  0.10871500  0.68856000  1
  O  O53  1  0.08313600  0.39128500  0.31144000  1
  O  O54  1  0.41686400  0.60871500  0.81144000  1
  O  O55  1  0.91686400  0.89128500  0.18856000  1
  O  O56  1  0.54957400  0.08614000  0.34074100  1
  O  O57  1  0.04957400  0.41386000  0.65925900  1
  O  O58  1  0.45042600  0.58614000  0.15925900  1
  O  O59  1  0.95042600  0.91386000  0.84074100  1
  O  O60  1  0.45042600  0.91386000  0.65925900  1
  O  O61  1  0.95042600  0.58614000  0.34074100  1
  O  O62  1  0.54957400  0.41386000  0.84074100  1
  O  O63  1  0.04957400  0.08614000  0.15925900  1
loop_
_geom_bond_atom_site_label_1
_geom_bond_atom_site_label_2
_geom_bond_distance
_geom_bond_site_symmetry_2
K0 O5 2.707278 1_555
K0 O17 2.742893 1_655
K0 O29 2.747524 1_545
K0 O8 2.847688 1_555
K0 O47 2.902237 1_555
K0 O39 3.056753 1_655
K0 O56 3.121437 1_555
K1 O4 2.707278 1_555
K1 O16 2.742893 1_555
K1 O28 2.747524 1_555
K1 O9 2.847688 1_555
K1 O46 2.902237 1_555
K1 O38 3.056753 1_555
K1 O57 3.121437 1_555
K2 O7 2.707278 1_555
K2 O19 2.742893 1_455
K2 O31 2.747524 1_555
K2 O10 2.847688 1_555
K2 O45 2.902237 1_555
K2 O37 3.056753 1_455
K2 O58 3.121437 1_555
K3 O6 2.707278 1_555
K3 O18 2.742893 1_555
K3 O30 2.747524 1_565
K3 O11 2.847688 1_555
K3 O44 2.902237 1_555
K3 O36 3.056753 1_555
K3 O59 3.121437 1_555
K4 O1 2.707278 1_555
K4 O21 2.742893 1_455
K4 O25 2.747524 1_565
K4 O12 2.847688 1_555
K4 O43 2.902237 1_555
K4 O35 3.056753 1_455
K4 O60 3.121437 1_555
K5 O0 2.707278 1_555
K5 O20 2.742893 1_555
K5 O24 2.747524 1_555
K5 O13 2.847688 1_555
K5 O42 2.902237 1_555
K5 O34 3.056753 1_555
K5 O61 3.121437 1_555
K6 O3 2.707278 1_555
K6 O23 2.742893 1_655
K6 O27 2.747524 1_555
K6 O14 2.847688 1_555
K6 O41 2.902237 1_555
K6 O33 3.056753 1_655
K6 O62 3.121437 1_555
K7 O2 2.707278 1_555
K7 O22 2.742893 1_555
K7 O26 2.747524 1_545
K7 O15 2.847688 1_555
K7 O40 2.902237 1_555
K7 O32 3.056753 1_555
K7 O63 3.121437 1_555
K8 O9 2.772345 1_555
K8 O20 2.810706 1_555
K8 O53 2.865472 1_555
K8 O34 2.870852 1_555
K8 O4 2.984621 1_555
K8 O40 3.191712 1_555
K8 O56 3.231679 1_555
K9 O8 2.772345 1_555
K9 O21 2.810706 1_545
K9 O52 2.865472 1_555
K9 O35 2.870852 1_545
K9 O5 2.984621 1_555
K9 O41 3.191712 1_555
K9 O57 3.231679 1_655
K10 O11 2.772345 1_554
K10 O22 2.810706 1_565
K10 O55 2.865472 1_555
K10 O32 2.870852 1_565
K10 O6 2.984621 1_554
K10 O42 3.191712 1_555
K10 O58 3.231679 1_555
K11 O10 2.772345 1_556
K11 O23 2.810706 1_555
K11 O54 2.865472 1_555
K11 O33 2.870852 1_555
K11 O7 2.984621 1_556
K11 O43 3.191712 1_555
K11 O59 3.231679 1_455
K12 O13 2.772345 1_555
K12 O16 2.810706 1_555
K12 O49 2.865472 1_555
K12 O38 2.870852 1_555
K12 O0 2.984621 1_555
K12 O44 3.191712 1_555
K12 O60 3.231679 1_555
K13 O12 2.772345 1_555
K13 O17 2.810706 1_565
K13 O48 2.865472 1_555
K13 O39 2.870852 1_565
K13 O1 2.984621 1_555
K13 O45 3.191712 1_555
K13 O61 3.231679 1_455
K14 O15 2.772345 1_556
K14 O18 2.810706 1_545
K14 O51 2.865472 1_555
K14 O36 2.870852 1_545
K14 O2 2.984621 1_556
K14 O46 3.191712 1_555
K14 O62 3.231679 1_555
K15 O14 2.772345 1_554
K15 O19 2.810706 1_555
K15 O50 2.865472 1_555
K15 O37 2.870852 1_555
K15 O3 2.984621 1_554
K15 O47 3.191712 1_555
K15 O63 3.231679 1_655
H0 O27 0.988013 1_555
H1 O26 0.988013 1_555
H2 O25 0.988013 1_555
H3 O24 0.988013 1_555
H4 O31 0.988013 1_555
H5 O30 0.988013 1_555
H6 O29 0.988013 1_555
H7 O28 0.988013 1_555
H8 O40 1.001328 1_555
H9 O41 1.001328 1_555
H10 O42 1.001328 1_555
H11 O43 1.001328 1_555
H12 O44 1.001328 1_555
H13 O45 1.001328 1_555
H14 O46 1.001328 1_555
H15 O47 1.001328 1_555
O0 S0 1.484737 1_555
O1 S1 1.484737 1_555
O2 S2 1.484737 1_554
O3 S3 1.484737 1_556
O4 S4 1.484737 1_555
O5 S5 1.484737 1_555
O6 S6 1.484737 1_556
O7 S7 1.484737 1_554
O8 S4 1.483167 1_655
O9 S5 1.483167 1_555
O10 S6 1.483167 1_455
O11 S7 1.483167 1_555
O12 S0 1.483167 1_455
O13 S1 1.483167 1_555
O14 S2 1.483167 1_655
O15 S3 1.483167 1_555
O16 O24 1.408387 1_555
O17 O25 1.408387 1_555
O18 O26 1.408387 1_556
O19 O27 1.408387 1_554
O20 O28 1.408387 1_555
O21 O29 1.408387 1_555
O22 O30 1.408387 1_554
O23 O31 1.408387 1_556
O32 S8 1.483572 1_555
O33 S9 1.483572 1_455
O34 S10 1.483572 1_555
O35 S11 1.483572 1_655
O36 S12 1.483572 1_555
O37 S13 1.483572 1_655
O38 S14 1.483572 1_555
O39 S15 1.483572 1_455
O40 S8 1.638500 1_555
O41 S9 1.638500 1_555
O42 S10 1.638500 1_555
O43 S11 1.638500 1_555
O44 S12 1.638500 1_555
O45 S13 1.638500 1_555
O46 S14 1.638500 1_555
O47 S15 1.638500 1_555
O48 S8 1.462835 1_565
O49 S9 1.462835 1_555
O50 S10 1.462835 1_555
O51 S11 1.462835 1_545
O52 S12 1.462835 1_545
O53 S13 1.462835 1_555
O54 S14 1.462835 1_555
O55 S15 1.462835 1_565
O56 S8 1.456361 1_555
O57 S9 1.456361 1_455
O58 S10 1.456361 1_555
O59 S11 1.456361 1_655
O60 S12 1.456361 1_555
O61 S13 1.456361 1_655
O62 S14 1.456361 1_555
O63 S15 1.456361 1_455
