# generated using pymatgen
data_HfMo
_symmetry_space_group_name_H-M   'P 1'
_cell_length_a   5.96858862
_cell_length_b   5.96858974
_cell_length_c   8.89402200
_cell_angle_alpha   90.00000000
_cell_angle_beta   90.00000000
_cell_angle_gamma   111.88847268
_symmetry_Int_Tables_number   1
_chemical_formula_structural   HfMo
_chemical_formula_sum   'Hf8 Mo8'
_cell_volume   294.00047133
_cell_formula_units_Z   8
loop_
 _symmetry_equiv_pos_site_id
 _symmetry_equiv_pos_as_xyz
  1  'x, y, z'
loop_
 _atom_site_type_symbol
 _atom_site_label
 _atom_site_symmetry_multiplicity
 _atom_site_fract_x
 _atom_site_fract_y
 _atom_site_fract_z
 _atom_site_occupancy
  Hf  Hf0_0  1  0.00000000  0.00000000  0.00000000  1
  Hf  Hf0_1  1  0.00000000  0.00000000  0.50000000  1
  Hf  Hf0_2  1  0.00000000  0.50000000  0.00000000  1
  Hf  Hf0_3  1  0.00000000  0.50000000  0.50000000  1
  Hf  Hf0_4  1  0.50000000  0.00000000  0.00000000  1
  Hf  Hf0_5  1  0.50000000  0.00000000  0.50000000  1
  Hf  Hf0_6  1  0.50000000  0.50000000  0.00000000  1
  Hf  Hf0_7  1  0.50000000  0.50000000  0.50000000  1
  Mo  Mo0_0  1  0.25000000  0.25000000  0.25000000  1
  Mo  Mo0_1  1  0.25000000  0.25000000  0.75000000  1
  Mo  Mo0_2  1  0.25000000  0.75000000  0.25000000  1
  Mo  Mo0_3  1  0.25000000  0.75000000  0.75000000  1
  Mo  Mo0_4  1  0.75000000  0.25000000  0.25000000  1
  Mo  Mo0_5  1  0.75000000  0.25000000  0.75000000  1
  Mo  Mo0_6  1  0.75000000  0.75000000  0.25000000  1
  Mo  Mo0_7  1  0.75000000  0.75000000  0.75000000  1
loop_
_geom_bond_atom_site_label_1
_geom_bond_atom_site_label_2
_geom_bond_distance
_geom_bond_site_symmetry_2
Hf0_0 Mo0_1 2.781528 1_554
Hf0_0 Mo0_6 2.781528 1_445
Hf0_0 Mo0_7 2.781528 1_444
Hf0_0 Mo0_0 2.781528 1_555
Hf0_0 Hf0_4 2.984294 1_555
Hf0_0 Hf0_4 2.984294 1_455
Hf0_0 Hf0_2 2.984295 1_545
Hf0_0 Hf0_2 2.984295 1_555
Hf0_1 Mo0_7 2.781528 1_445
Hf0_1 Mo0_6 2.781528 1_445
Hf0_1 Mo0_0 2.781528 1_555
Hf0_1 Mo0_1 2.781528 1_555
Hf0_1 Hf0_5 2.984294 1_455
Hf0_1 Hf0_5 2.984294 1_555
Hf0_1 Hf0_3 2.984295 1_545
Hf0_1 Hf0_3 2.984295 1_555
Hf0_2 Mo0_3 2.781528 1_554
Hf0_2 Mo0_4 2.781528 1_455
Hf0_2 Mo0_5 2.781528 1_454
Hf0_2 Mo0_2 2.781528 1_555
Hf0_2 Hf0_6 2.984294 1_555
Hf0_2 Hf0_6 2.984294 1_455
Hf0_3 Mo0_5 2.781528 1_455
Hf0_3 Mo0_4 2.781528 1_455
Hf0_3 Mo0_2 2.781528 1_555
Hf0_3 Mo0_3 2.781528 1_555
Hf0_3 Hf0_7 2.984294 1_555
Hf0_3 Hf0_7 2.984294 1_455
Hf0_4 Mo0_2 2.781528 1_545
Hf0_4 Mo0_3 2.781528 1_544
Hf0_4 Mo0_5 2.781528 1_554
Hf0_4 Mo0_4 2.781528 1_555
Hf0_4 Hf0_6 2.984295 1_555
Hf0_4 Hf0_6 2.984295 1_545
Hf0_5 Mo0_5 2.781528 1_555
Hf0_5 Mo0_2 2.781528 1_545
Hf0_5 Mo0_4 2.781528 1_555
Hf0_5 Mo0_3 2.781528 1_545
Hf0_5 Hf0_7 2.984295 1_555
Hf0_5 Hf0_7 2.984295 1_545
Hf0_6 Mo0_1 2.781528 1_554
Hf0_6 Mo0_0 2.781528 1_555
Hf0_6 Mo0_6 2.781528 1_555
Hf0_6 Mo0_7 2.781528 1_554
Hf0_7 Mo0_0 2.781528 1_555
Hf0_7 Mo0_6 2.781528 1_555
Hf0_7 Mo0_7 2.781528 1_555
Hf0_7 Mo0_1 2.781528 1_555
Mo0_0 Mo0_4 2.984294 1_555
Mo0_0 Mo0_4 2.984294 1_455
Mo0_0 Mo0_2 2.984295 1_545
Mo0_0 Mo0_2 2.984295 1_555
Mo0_1 Mo0_5 2.984294 1_555
Mo0_1 Mo0_5 2.984294 1_455
Mo0_1 Mo0_3 2.984295 1_545
Mo0_1 Mo0_3 2.984295 1_555
Mo0_2 Mo0_6 2.984294 1_455
Mo0_2 Mo0_6 2.984294 1_555
Mo0_3 Mo0_7 2.984294 1_555
Mo0_3 Mo0_7 2.984294 1_455
Mo0_4 Mo0_6 2.984295 1_555
Mo0_4 Mo0_6 2.984295 1_545
Mo0_5 Mo0_7 2.984295 1_555
Mo0_5 Mo0_7 2.984295 1_545
