# generated using pymatgen
data_LiGaIr
_symmetry_space_group_name_H-M   'P 1'
_cell_length_a   4.04060594
_cell_length_b   4.04060568
_cell_length_c   5.44529845
_cell_angle_alpha   89.99999367
_cell_angle_beta   90.00002530
_cell_angle_gamma   119.99984412
_symmetry_Int_Tables_number   1
_chemical_formula_structural   LiGaIr
_chemical_formula_sum   'Li2 Ga2 Ir2'
_cell_volume   76.99206530
_cell_formula_units_Z   2
loop_
 _symmetry_equiv_pos_site_id
 _symmetry_equiv_pos_as_xyz
  1  'x, y, z'
loop_
 _atom_site_type_symbol
 _atom_site_label
 _atom_site_symmetry_multiplicity
 _atom_site_fract_x
 _atom_site_fract_y
 _atom_site_fract_z
 _atom_site_occupancy
  Li  Li0  1  0.66666728  0.33333308  0.24999667  1
  Li  Li1  1  0.33333271  0.66666726  0.75000292  1
  Ga  Ga0  1  0.66666676  0.33333278  0.75000657  1
  Ga  Ga1  1  0.33333325  0.66666712  0.24999337  1
  Ir  Ir0  1  -0.00000002  -0.00000032  0.00000028  1
  Ir  Ir1  1  0.00000001  0.00000008  0.50000019  1
loop_
_geom_bond_atom_site_label_1
_geom_bond_atom_site_label_2
_geom_bond_distance
_geom_bond_site_symmetry_2
Ga0 Li1 2.332844 1_545
Ga0 Li1 2.332846 1_655
Ga0 Li1 2.332850 1_555
Ga0 Ir0 2.700974 1_656
Ga0 Ir0 2.700981 1_666
Ga0 Ir0 2.700981 1_556
Ga0 Ir1 2.701008 1_655
Ga0 Ir1 2.701015 1_555
Ga0 Ir1 2.701017 1_665
Ga0 Li0 2.722595 1_556
Ga0 Li0 2.722703 1_555
Ga1 Li0 2.332846 1_565
Ga1 Li0 2.332846 1_455
Ga1 Li0 2.332848 1_555
Ga1 Ir0 2.700971 1_565
Ga1 Ir0 2.700979 1_665
Ga1 Ir0 2.700981 1_555
Ga1 Ir1 2.701010 1_565
Ga1 Ir1 2.701016 1_665
Ga1 Ir1 2.701017 1_555
Ga1 Li1 2.722597 1_554
Ga1 Li1 2.722701 1_555
Ir0 Li1 2.700981 1_544
Ir0 Li0 2.700981 1_455
Ir0 Li0 2.700987 1_445
Ir0 Li0 2.700989 1_555
Ir0 Li1 2.700992 1_444
Ir0 Li1 2.700993 1_554
Ir0 Ir1 2.722649 1_555
Ir0 Ir1 2.722650 1_554
Ir1 Li1 2.700996 1_545
Ir1 Li0 2.700999 1_455
Ir1 Li1 2.701006 1_555
Ir1 Li1 2.701007 1_445
Ir1 Li0 2.701008 1_445
Ir1 Li0 2.701009 1_555
