# generated using pymatgen
data_SbTePt
_symmetry_space_group_name_H-M   'P 1'
_cell_length_a   6.59998834
_cell_length_b   6.59998834
_cell_length_c   6.59998834
_cell_angle_alpha   90.00000000
_cell_angle_beta   90.00000000
_cell_angle_gamma   90.00000000
_symmetry_Int_Tables_number   1
_chemical_formula_structural   SbTePt
_chemical_formula_sum   'Sb4 Te4 Pt4'
_cell_volume   287.49447627
_cell_formula_units_Z   4
loop_
 _symmetry_equiv_pos_site_id
 _symmetry_equiv_pos_as_xyz
  1  'x, y, z'
loop_
 _atom_site_type_symbol
 _atom_site_label
 _atom_site_symmetry_multiplicity
 _atom_site_fract_x
 _atom_site_fract_y
 _atom_site_fract_z
 _atom_site_occupancy
  Sb  Sb0  1  0.12738281  0.87261719  0.37261719  1
  Sb  Sb1  1  0.87261719  0.37261719  0.12738281  1
  Sb  Sb2  1  0.37261719  0.12738281  0.87261719  1
  Sb  Sb3  1  0.62738281  0.62738281  0.62738281  1
  Te  Te0  1  0.87360194  0.12639806  0.62639806  1
  Te  Te1  1  0.12639806  0.62639806  0.87360194  1
  Te  Te2  1  0.62639806  0.87360194  0.12639806  1
  Te  Te3  1  0.37360194  0.37360194  0.37360194  1
  Pt  Pt0  1  0.50538304  0.49461696  0.99461696  1
  Pt  Pt1  1  0.49461696  0.99461696  0.50538304  1
  Pt  Pt2  1  0.99461696  0.50538304  0.49461696  1
  Pt  Pt3  1  0.00538304  0.00538304  0.00538304  1
loop_
_geom_bond_atom_site_label_1
_geom_bond_atom_site_label_2
_geom_bond_distance
_geom_bond_site_symmetry_2
Sb0 Te0 2.901100 1_465
Sb1 Te1 2.901100 1_654
Sb2 Te2 2.901100 1_546
Sb3 Te3 2.901100 1_555
Pt0 Sb2 2.700126 1_555
Pt0 Sb3 2.700126 1_555
Pt0 Sb1 2.700126 1_556
Pt0 Te3 2.766021 1_556
Pt0 Te1 2.766021 1_555
Pt0 Te2 2.766021 1_556
Pt1 Sb3 2.700126 1_555
Pt1 Sb0 2.700126 1_555
Pt1 Sb2 2.700126 1_565
Pt1 Te3 2.766021 1_565
Pt1 Te2 2.766021 1_555
Pt1 Te0 2.766021 1_565
Pt2 Sb1 2.700126 1_555
Pt2 Sb3 2.700126 1_555
Pt2 Sb0 2.700126 1_655
Pt2 Te3 2.766021 1_655
Pt2 Te0 2.766021 1_555
Pt2 Te1 2.766021 1_655
Pt3 Sb0 2.700126 1_545
Pt3 Sb1 2.700126 1_455
Pt3 Sb2 2.700126 1_554
Pt3 Te1 2.766021 1_544
Pt3 Te0 2.766021 1_454
Pt3 Te2 2.766021 1_445
