# generated using pymatgen
data_Li10Zn(PS4)4
_symmetry_space_group_name_H-M   'P 1'
_cell_length_a   7.84299442
_cell_length_b   12.28534907
_cell_length_c   17.77378021
_cell_angle_alpha   46.28705631
_cell_angle_beta   90.00000000
_cell_angle_gamma   90.00000000
_symmetry_Int_Tables_number   1
_chemical_formula_structural   Li10Zn(PS4)4
_chemical_formula_sum   'Li20 Zn2 P8 S32'
_cell_volume   1237.86702918
_cell_formula_units_Z   2
loop_
 _symmetry_equiv_pos_site_id
 _symmetry_equiv_pos_as_xyz
  1  'x, y, z'
loop_
 _atom_site_type_symbol
 _atom_site_label
 _atom_site_symmetry_multiplicity
 _atom_site_fract_x
 _atom_site_fract_y
 _atom_site_fract_z
 _atom_site_occupancy
  Li  Li0  1  0.24373920  0.33604908  0.16202236  1
  Li  Li1  1  0.25171571  0.84894976  0.15268700  1
  Li  Li2  1  0.24845077  0.84999145  0.64846473  1
  Li  Li3  1  0.24650477  0.33536797  0.66006973  1
  Li  Li4  1  0.24870067  0.91021525  0.34605184  1
  Li  Li5  1  0.25691578  0.40146906  0.34371868  1
  Li  Li6  1  0.27617420  0.90772703  0.84430186  1
  Li  Li7  1  0.72382580  0.90772703  0.34430186  1
  Li  Li8  1  0.74308422  0.40146906  0.84371868  1
  Li  Li9  1  0.75129933  0.91021525  0.84605184  1
  Li  Li10  1  0.75349523  0.33536797  0.16006973  1
  Li  Li11  1  0.75154923  0.84999145  0.14846473  1
  Li  Li12  1  0.74828429  0.84894976  0.65268700  1
  Li  Li13  1  0.75626080  0.33604908  0.66202236  1
  Li  Li14  1  0.99553022  0.16573273  0.07826039  1
  Li  Li15  1  0.01303311  0.67334634  0.07292429  1
  Li  Li16  1  0.98696689  0.67334634  0.57292429  1
  Li  Li17  1  0.00446978  0.16573273  0.57826039  1
  Li  Li18  1  0.48940271  0.57001713  0.42241741  1
  Li  Li19  1  0.51059729  0.57001713  0.92241741  1
  Zn  Zn0  1  0.25700912  0.40179415  0.84526019  1
  Zn  Zn1  1  0.74299088  0.40179415  0.34526019  1
  P  P0  1  0.99056274  0.08871768  0.40686671  1
  P  P1  1  0.99806607  0.58801007  0.40886785  1
  P  P2  1  0.00193393  0.58801007  0.90886785  1
  P  P3  1  0.00943726  0.08871768  0.90686671  1
  P  P4  1  0.49170307  0.16381343  0.08892843  1
  P  P5  1  0.50190204  0.65738925  0.09381619  1
  P  P6  1  0.49809796  0.65738925  0.59381619  1
  P  P7  1  0.50829693  0.16381343  0.58892843  1
  S  S0  1  0.00070294  0.38569449  0.05897616  1
  S  S1  1  0.00568384  0.88737853  0.05983119  1
  S  S2  1  0.99431616  0.88737853  0.55983119  1
  S  S3  1  0.99929706  0.38569449  0.55897616  1
  S  S4  1  0.98716119  0.76404176  0.39853277  1
  S  S5  1  0.99437606  0.26451153  0.40398521  1
  S  S6  1  0.00562394  0.26451153  0.90398521  1
  S  S7  1  0.01283881  0.76404176  0.89853277  1
  S  S8  1  0.21160230  0.10913742  0.34134255  1
  S  S9  1  0.20897700  0.60798715  0.33338779  1
  S  S10  1  0.22177217  0.60434209  0.83508102  1
  S  S11  1  0.22713265  0.10655913  0.84017369  1
  S  S12  1  0.27912013  0.03394981  0.16415963  1
  S  S13  1  0.28816276  0.52744579  0.16448709  1
  S  S14  1  0.27811537  0.52466179  0.66878232  1
  S  S15  1  0.29338228  0.03466623  0.66021128  1
  S  S16  1  0.49578361  0.32477760  0.09378850  1
  S  S17  1  0.50112983  0.82119163  0.09236778  1
  S  S18  1  0.49887017  0.82119163  0.59236778  1
  S  S19  1  0.50421639  0.32477760  0.59378850  1
  S  S20  1  0.48399589  0.74244461  0.44630145  1
  S  S21  1  0.50580675  0.25218704  0.43960492  1
  S  S22  1  0.49419325  0.25218704  0.93960492  1
  S  S23  1  0.51600411  0.74244461  0.94630145  1
  S  S24  1  0.70661772  0.03466623  0.16021128  1
  S  S25  1  0.72188463  0.52466179  0.16878232  1
  S  S26  1  0.71183724  0.52744579  0.66448709  1
  S  S27  1  0.72087987  0.03394981  0.66415963  1
  S  S28  1  0.77286735  0.10655913  0.34017369  1
  S  S29  1  0.77822783  0.60434209  0.33508102  1
  S  S30  1  0.79102300  0.60798715  0.83338779  1
  S  S31  1  0.78839770  0.10913742  0.84134255  1
loop_
_geom_bond_atom_site_label_1
_geom_bond_atom_site_label_2
_geom_bond_distance
_geom_bond_site_symmetry_2
Li0 S16 2.372714 1_555
Li0 S8 2.390230 1_555
Li0 S13 2.407207 1_555
Li0 S0 2.411620 1_555
Li1 S1 2.365011 1_555
Li1 S17 2.365910 1_555
Li1 S12 2.427732 1_565
Li1 S9 2.459773 1_555
Li2 S18 2.337587 1_555
Li2 S2 2.380211 1_455
Li2 S15 2.443332 1_565
Li2 S10 2.513646 1_555
Li3 S19 2.387883 1_555
Li3 S11 2.394880 1_555
Li3 S3 2.415478 1_455
Li3 S14 2.447715 1_555
Li4 S20 2.398515 1_555
Li4 S8 2.404423 1_565
Li4 S4 2.446931 1_455
Li4 S12 2.455042 1_565
Li5 S5 2.393191 1_455
Li5 S21 2.399719 1_555
Li5 S13 2.406122 1_555
Li5 S9 2.443015 1_555
Li6 S23 2.420770 1_555
Li6 S11 2.423325 1_565
Li6 S7 2.441130 1_555
Li6 S15 2.470589 1_565
Li7 S20 2.420770 1_555
Li7 S28 2.423325 1_565
Li7 S4 2.441130 1_555
Li7 S24 2.470589 1_565
Li8 S6 2.393191 1_655
Li8 S22 2.399719 1_555
Li8 S26 2.406122 1_555
Li8 S30 2.443015 1_555
Li9 S23 2.398515 1_555
Li9 S31 2.404423 1_565
Li9 S7 2.446931 1_655
Li9 S27 2.455042 1_565
Li10 S16 2.387883 1_555
Li10 S28 2.394880 1_555
Li10 S0 2.415478 1_655
Li10 S25 2.447715 1_555
Li11 S17 2.337587 1_555
Li11 S1 2.380211 1_655
Li11 S24 2.443332 1_565
Li11 S29 2.513646 1_555
Li12 S2 2.365011 1_555
Li12 S18 2.365910 1_555
Li12 S27 2.427732 1_565
Li12 S30 2.459773 1_555
Li13 S19 2.372714 1_555
Li13 S31 2.390230 1_555
Li13 S26 2.407207 1_555
Li13 S3 2.411620 1_555
Li14 S6 2.424541 1_654
Li14 S0 2.478197 1_655
Li14 S12 2.546155 1_655
Li14 S24 2.570468 1_555
Li15 S7 2.464902 1_554
Li15 S1 2.475040 1_555
Li15 S13 2.546758 1_555
Li15 S25 2.674396 1_455
Li16 S4 2.464902 1_555
Li16 S2 2.475040 1_555
Li16 S26 2.546758 1_555
Li16 S14 2.674396 1_655
Li17 S5 2.424541 1_455
Li17 S3 2.478197 1_455
Li17 S27 2.546155 1_455
Li17 S15 2.570468 1_555
Li18 S19 2.384338 1_555
Li18 S20 2.431499 1_555
Li18 S9 2.557077 1_555
Li18 S29 2.610387 1_555
Li19 S16 2.384338 1_556
Li19 S23 2.431499 1_555
Li19 S30 2.557077 1_555
Li19 S10 2.610387 1_555
P0 S28 2.002310 1_555
P0 S8 2.005212 1_655
P0 S2 2.053383 1_545
P0 S5 2.124830 1_555
P1 S3 2.032475 1_555
P1 S9 2.035009 1_655
P1 S4 2.041788 1_555
P1 S29 2.090302 1_555
P2 S0 2.032475 1_556
P2 S30 2.035009 1_455
P2 S7 2.041788 1_555
P2 S10 2.090302 1_555
P3 S11 2.002310 1_555
P3 S31 2.005212 1_455
P3 S1 2.053383 1_546
P3 S6 2.124830 1_555
P4 S16 2.038403 1_555
P4 S12 2.040769 1_555
P4 S24 2.045838 1_555
P4 S22 2.059267 1_554
P5 S17 1.994675 1_555
P5 S13 2.040839 1_555
P5 S23 2.047419 1_554
P5 S25 2.099560 1_555
P6 S18 1.994675 1_555
P6 S26 2.040839 1_555
P6 S20 2.047419 1_555
P6 S14 2.099560 1_555
P7 S19 2.038403 1_555
P7 S27 2.040769 1_555
P7 S15 2.045838 1_555
P7 S21 2.059267 1_555
S5 Zn1 2.321250 1_555
S6 Zn0 2.321250 1_555
S10 Zn0 2.383041 1_555
S14 Zn0 2.366608 1_555
S21 Zn1 2.321819 1_555
S22 Zn0 2.321819 1_555
S25 Zn1 2.366608 1_555
S29 Zn1 2.383041 1_555
