# generated using pymatgen
data_Na8H10S8O17
_symmetry_space_group_name_H-M   'P 1'
_cell_length_a   11.39022822
_cell_length_b   11.61177905
_cell_length_c   17.56582645
_cell_angle_alpha   94.92825065
_cell_angle_beta   90.00000000
_cell_angle_gamma   90.00000000
_symmetry_Int_Tables_number   1
_chemical_formula_structural   Na8H10S8O17
_chemical_formula_sum   'Na32 H40 S32 O68'
_cell_volume   2314.68149945
_cell_formula_units_Z   4
loop_
 _symmetry_equiv_pos_site_id
 _symmetry_equiv_pos_as_xyz
  1  'x, y, z'
loop_
 _atom_site_type_symbol
 _atom_site_label
 _atom_site_symmetry_multiplicity
 _atom_site_fract_x
 _atom_site_fract_y
 _atom_site_fract_z
 _atom_site_occupancy
  Na  Na0  1  0.35760370  0.51410340  0.89860483  1
  Na  Na1  1  0.85760370  0.48589660  0.60139517  1
  Na  Na2  1  0.64239630  0.48589660  0.10139517  1
  Na  Na3  1  0.14239630  0.51410340  0.39860483  1
  Na  Na4  1  0.11440237  0.51015131  0.75238002  1
  Na  Na5  1  0.61440237  0.48984869  0.74761998  1
  Na  Na6  1  0.88559763  0.48984869  0.24761998  1
  Na  Na7  1  0.38559763  0.51015131  0.25238002  1
  Na  Na8  1  0.13171679  0.16885798  0.75410964  1
  Na  Na9  1  0.63171679  0.83114202  0.74589036  1
  Na  Na10  1  0.86828321  0.83114202  0.24589036  1
  Na  Na11  1  0.36828321  0.16885798  0.25410964  1
  Na  Na12  1  0.12741833  0.66216734  0.59348922  1
  Na  Na13  1  0.62741833  0.33783266  0.90651078  1
  Na  Na14  1  0.87258167  0.33783266  0.40651078  1
  Na  Na15  1  0.37258167  0.66216734  0.09348922  1
  Na  Na16  1  0.12737051  0.34284745  0.91043460  1
  Na  Na17  1  0.62737051  0.65715255  0.58956540  1
  Na  Na18  1  0.87262949  0.65715255  0.08956540  1
  Na  Na19  1  0.37262949  0.34284745  0.41043460  1
  Na  Na20  1  0.85823988  0.51105727  0.89406607  1
  Na  Na21  1  0.35823988  0.48894273  0.60593393  1
  Na  Na22  1  0.14176012  0.48894273  0.10593393  1
  Na  Na23  1  0.64176012  0.51105727  0.39406607  1
  Na  Na24  1  0.89975058  0.81522846  0.90385753  1
  Na  Na25  1  0.39975058  0.18477154  0.59614247  1
  Na  Na26  1  0.10024942  0.18477154  0.09614247  1
  Na  Na27  1  0.60024942  0.81522846  0.40385753  1
  Na  Na28  1  0.39894563  0.82447390  0.91010583  1
  Na  Na29  1  0.89894563  0.17552610  0.58989417  1
  Na  Na30  1  0.60105437  0.17552610  0.08989417  1
  Na  Na31  1  0.10105437  0.82447390  0.41010583  1
  H  H0  1  0.88791297  0.06347223  0.88268802  1
  H  H1  1  0.38791297  0.93652777  0.61731198  1
  H  H2  1  0.11208703  0.93652777  0.11731198  1
  H  H3  1  0.61208703  0.06347223  0.38268802  1
  H  H4  1  0.89983655  0.07426378  0.97287903  1
  H  H5  1  0.39983655  0.92573622  0.52712097  1
  H  H6  1  0.10016345  0.92573622  0.02712097  1
  H  H7  1  0.60016345  0.07426378  0.47287903  1
  H  H8  1  0.06253881  0.92718929  0.72293078  1
  H  H9  1  0.56253881  0.07281071  0.77706922  1
  H  H10  1  0.93746119  0.07281071  0.27706922  1
  H  H11  1  0.43746119  0.92718929  0.22293078  1
  H  H12  1  0.20100848  0.93047490  0.72222565  1
  H  H13  1  0.70100848  0.06952510  0.77777435  1
  H  H14  1  0.79899152  0.06952510  0.27777435  1
  H  H15  1  0.29899152  0.93047490  0.22222565  1
  H  H16  1  0.06797597  0.08838547  0.90338228  1
  H  H17  1  0.56797597  0.91161453  0.59661772  1
  H  H18  1  0.93202403  0.91161453  0.09661772  1
  H  H19  1  0.43202403  0.08838547  0.40338228  1
  H  H20  1  0.20697466  0.09547933  0.90546556  1
  H  H21  1  0.70697466  0.90452067  0.59453444  1
  H  H22  1  0.79302534  0.90452067  0.09453444  1
  H  H23  1  0.29302534  0.09547933  0.40546556  1
  H  H24  1  0.38319472  0.07206705  0.88019317  1
  H  H25  1  0.88319472  0.92793295  0.61980683  1
  H  H26  1  0.61680528  0.92793295  0.11980683  1
  H  H27  1  0.11680528  0.07206705  0.38019317  1
  H  H28  1  0.37431846  0.07880236  0.97037463  1
  H  H29  1  0.87431846  0.92119764  0.52962537  1
  H  H30  1  0.62568154  0.92119764  0.02962537  1
  H  H31  1  0.12568154  0.07880236  0.47037463  1
  H  H32  1  0.21771306  0.86183865  0.53697705  1
  H  H33  1  0.71771306  0.13816135  0.96302295  1
  H  H34  1  0.78228694  0.13816135  0.46302295  1
  H  H35  1  0.28228694  0.86183865  0.03697705  1
  H  H36  1  0.13093809  0.90909903  0.60205941  1
  H  H37  1  0.63093809  0.09090097  0.89794059  1
  H  H38  1  0.86906191  0.09090097  0.39794059  1
  H  H39  1  0.36906191  0.90909903  0.10205941  1
  S  S0  1  0.88483828  0.85683919  0.73823005  1
  S  S1  1  0.38483828  0.14316081  0.76176995  1
  S  S2  1  0.11516172  0.14316081  0.26176995  1
  S  S3  1  0.61516172  0.85683919  0.23823005  1
  S  S4  1  0.37953802  0.85887930  0.73648880  1
  S  S5  1  0.87953802  0.14112070  0.76351120  1
  S  S6  1  0.62046198  0.14112070  0.26351120  1
  S  S7  1  0.12046198  0.85887930  0.23648880  1
  S  S8  1  0.35386884  0.19706654  0.08509901  1
  S  S9  1  0.85386884  0.80293346  0.41490099  1
  S  S10  1  0.64613116  0.80293346  0.91490099  1
  S  S11  1  0.14613116  0.19706654  0.58509901  1
  S  S12  1  0.85245642  0.19353419  0.07842160  1
  S  S13  1  0.35245642  0.80646581  0.42157840  1
  S  S14  1  0.14754358  0.80646581  0.92157840  1
  S  S15  1  0.64754358  0.19353419  0.57842160  1
  S  S16  1  0.87874244  0.68198391  0.73246093  1
  S  S17  1  0.37874244  0.31801609  0.76753907  1
  S  S18  1  0.12125756  0.31801609  0.26753907  1
  S  S19  1  0.62125756  0.68198391  0.23246093  1
  S  S20  1  0.37652168  0.68401518  0.73536496  1
  S  S21  1  0.87652168  0.31598482  0.76463504  1
  S  S22  1  0.62347832  0.31598482  0.26463504  1
  S  S23  1  0.12347832  0.68401518  0.23536496  1
  S  S24  1  0.38373755  0.35601584  0.04812291  1
  S  S25  1  0.88373755  0.64398416  0.45187709  1
  S  S26  1  0.61626245  0.64398416  0.95187709  1
  S  S27  1  0.11626245  0.35601584  0.54812291  1
  S  S28  1  0.88693217  0.35201131  0.04417635  1
  S  S29  1  0.38693217  0.64798869  0.45582365  1
  S  S30  1  0.11306783  0.64798869  0.95582365  1
  S  S31  1  0.61306783  0.35201131  0.54417635  1
  O  O0  1  0.75959049  0.64438665  0.70440694  1
  O  O1  1  0.25959049  0.35561335  0.79559306  1
  O  O2  1  0.24040951  0.35561335  0.29559306  1
  O  O3  1  0.74040951  0.64438665  0.20440694  1
  O  O4  1  0.89978668  0.64775763  0.81052989  1
  O  O5  1  0.39978668  0.35224237  0.68947011  1
  O  O6  1  0.10021332  0.35224237  0.18947011  1
  O  O7  1  0.60021332  0.64775763  0.31052989  1
  O  O8  1  0.97035808  0.63003258  0.67956207  1
  O  O9  1  0.47035808  0.36996742  0.82043793  1
  O  O10  1  0.02964192  0.36996742  0.32043793  1
  O  O11  1  0.52964192  0.63003258  0.17956207  1
  O  O12  1  0.38716164  0.65585586  0.81560126  1
  O  O13  1  0.88716164  0.34414414  0.68439874  1
  O  O14  1  0.61283836  0.34414414  0.18439874  1
  O  O15  1  0.11283836  0.65585586  0.31560126  1
  O  O16  1  0.26647954  0.63598886  0.69997228  1
  O  O17  1  0.76647954  0.36401114  0.80002772  1
  O  O18  1  0.73352046  0.36401114  0.30002772  1
  O  O19  1  0.23352046  0.63598886  0.19997228  1
  O  O20  1  0.48029861  0.63676027  0.69030248  1
  O  O21  1  0.98029861  0.36323973  0.80969752  1
  O  O22  1  0.51970139  0.36323973  0.30969752  1
  O  O23  1  0.01970139  0.63676027  0.19030248  1
  O  O24  1  0.30448366  0.37110923  0.98262905  1
  O  O25  1  0.80448366  0.62889077  0.51737095  1
  O  O26  1  0.69551634  0.62889077  0.01737095  1
  O  O27  1  0.19551634  0.37110923  0.48262905  1
  O  O28  1  0.50895662  0.36216367  0.02469098  1
  O  O29  1  0.00895662  0.63783633  0.47530902  1
  O  O30  1  0.49104338  0.63783633  0.97530902  1
  O  O31  1  0.99104338  0.36216367  0.52469098  1
  O  O32  1  0.35755075  0.44641157  0.11136307  1
  O  O33  1  0.85755075  0.55358843  0.38863693  1
  O  O34  1  0.64244925  0.55358843  0.88863693  1
  O  O35  1  0.14244925  0.44641157  0.61136307  1
  O  O36  1  0.85934319  0.44298760  0.10702664  1
  O  O37  1  0.35934319  0.55701240  0.39297336  1
  O  O38  1  0.14065681  0.55701240  0.89297336  1
  O  O39  1  0.64065681  0.44298760  0.60702664  1
  O  O40  1  0.01456140  0.35651174  0.02468049  1
  O  O41  1  0.51456140  0.64348826  0.47531951  1
  O  O42  1  0.98543860  0.64348826  0.97531951  1
  O  O43  1  0.48543860  0.35651174  0.52468049  1
  O  O44  1  0.81282790  0.36979489  0.97676080  1
  O  O45  1  0.31282790  0.63020511  0.52323920  1
  O  O46  1  0.18717210  0.63020511  0.02323920  1
  O  O47  1  0.68717210  0.36979489  0.47676080  1
  O  O48  1  0.91832096  0.02302684  0.92599903  1
  O  O49  1  0.41832096  0.97697316  0.57400097  1
  O  O50  1  0.08167904  0.97697316  0.07400097  1
  O  O51  1  0.58167904  0.02302684  0.42599903  1
  O  O52  1  0.13042279  0.96965125  0.70356215  1
  O  O53  1  0.63042279  0.03034875  0.79643785  1
  O  O54  1  0.86957721  0.03034875  0.29643785  1
  O  O55  1  0.36957721  0.96965125  0.20356215  1
  O  O56  1  0.13521978  0.13756371  0.89176169  1
  O  O57  1  0.63521978  0.86243629  0.60823831  1
  O  O58  1  0.86478022  0.86243629  0.10823831  1
  O  O59  1  0.36478022  0.13756371  0.39176169  1
  O  O60  1  0.35250746  0.03096816  0.92305172  1
  O  O61  1  0.85250746  0.96903184  0.57694828  1
  O  O62  1  0.64749254  0.96903184  0.07694828  1
  O  O63  1  0.14749254  0.03096816  0.42305172  1
  O  O64  1  0.13709798  0.85486226  0.55523030  1
  O  O65  1  0.63709798  0.14513774  0.94476970  1
  O  O66  1  0.86290202  0.14513774  0.44476970  1
  O  O67  1  0.36290202  0.85486226  0.05523030  1
loop_
_geom_bond_atom_site_label_1
_geom_bond_atom_site_label_2
_geom_bond_distance
_geom_bond_site_symmetry_2
Na0 O12 2.315349 1_555
Na0 O24 2.392192 1_555
Na0 O30 2.420166 1_555
Na0 O9 2.437432 1_555
Na0 O38 2.524424 1_555
Na0 O1 2.708377 1_555
Na1 O13 2.315349 1_555
Na1 O25 2.392192 1_555
Na1 O31 2.420166 1_555
Na1 O8 2.437432 1_555
Na1 O39 2.524424 1_555
Na1 O0 2.708377 1_555
Na2 O14 2.315349 1_555
Na2 O26 2.392192 1_555
Na2 O28 2.420166 1_555
Na2 O11 2.437432 1_555
Na2 O36 2.524424 1_555
Na2 O3 2.708377 1_555
Na3 O15 2.315349 1_555
Na3 O27 2.392192 1_555
Na3 O29 2.420166 1_555
Na3 O10 2.437432 1_555
Na3 O37 2.524424 1_555
Na3 O2 2.708377 1_555
Na4 O16 2.492828 1_555
Na4 O38 2.500747 1_555
Na4 O35 2.543771 1_555
Na4 O21 2.559706 1_455
Na4 O8 2.563532 1_455
Na4 O1 2.600985 1_555
Na5 O17 2.492828 1_555
Na5 O39 2.500747 1_555
Na5 O34 2.543771 1_555
Na5 O20 2.559706 1_555
Na5 O9 2.563532 1_555
Na5 O0 2.600985 1_555
Na6 O18 2.492828 1_555
Na6 O36 2.500747 1_555
Na6 O33 2.543771 1_555
Na6 O23 2.559706 1_655
Na6 O10 2.563532 1_655
Na6 O3 2.600985 1_555
Na7 O19 2.492828 1_555
Na7 O37 2.500747 1_555
Na7 O32 2.543771 1_555
Na7 O22 2.559706 1_555
Na7 O11 2.563532 1_555
Na7 O2 2.600985 1_555
Na8 O52 2.405483 1_545
Na8 O56 2.476125 1_555
Na8 O1 2.661497 1_555
Na8 S5 2.896667 1_455
Na8 S1 2.902822 1_555
Na8 O21 2.940051 1_455
Na8 S11 3.019134 1_555
Na9 O53 2.405483 1_565
Na9 O57 2.476125 1_555
Na9 O0 2.661497 1_555
Na9 S4 2.896667 1_555
Na9 S0 2.902822 1_555
Na9 O20 2.940051 1_555
Na9 S10 3.019134 1_555
Na10 O54 2.405483 1_565
Na10 O58 2.476125 1_555
Na10 O3 2.661497 1_555
Na10 S7 2.896667 1_655
Na10 S3 2.902822 1_555
Na10 O23 2.940051 1_655
Na10 S9 3.019134 1_555
Na11 O55 2.405483 1_545
Na11 O59 2.476125 1_555
Na11 O2 2.661497 1_555
Na11 S6 2.896667 1_555
Na11 S2 2.902822 1_555
Na11 O22 2.940051 1_555
Na11 S8 3.019134 1_555
Na12 O8 2.392171 1_455
Na12 O64 2.393474 1_555
Na12 O45 2.457997 1_555
Na12 O29 2.471674 1_555
Na12 O16 2.489496 1_555
Na12 O35 2.557265 1_555
Na13 O9 2.392171 1_555
Na13 O65 2.393474 1_555
Na13 O44 2.457997 1_555
Na13 O28 2.471674 1_556
Na13 O17 2.489496 1_555
Na13 O34 2.557265 1_555
Na14 O10 2.392171 1_655
Na14 O66 2.393474 1_555
Na14 O47 2.457997 1_555
Na14 O31 2.471674 1_555
Na14 O18 2.489496 1_555
Na14 O33 2.557265 1_555
Na15 O11 2.392171 1_555
Na15 O67 2.393474 1_555
Na15 O46 2.457997 1_555
Na15 O30 2.471674 1_554
Na15 O19 2.489496 1_555
Na15 O32 2.557265 1_555
Na16 O40 2.376727 1_556
Na16 O56 2.379772 1_555
Na16 O24 2.390428 1_555
Na16 O21 2.462831 1_455
Na16 O1 2.531972 1_555
Na16 O38 2.536215 1_555
Na17 O41 2.376727 1_555
Na17 O57 2.379772 1_555
Na17 O25 2.390428 1_555
Na17 O20 2.462831 1_555
Na17 O0 2.531972 1_555
Na17 O39 2.536215 1_555
Na18 O42 2.376727 1_554
Na18 O58 2.379772 1_555
Na18 O26 2.390428 1_555
Na18 O23 2.462831 1_655
Na18 O3 2.531972 1_555
Na18 O36 2.536215 1_555
Na19 O43 2.376727 1_555
Na19 O59 2.379772 1_555
Na19 O27 2.390428 1_555
Na19 O22 2.462831 1_555
Na19 O2 2.531972 1_555
Na19 O37 2.536215 1_555
Na20 O4 2.301518 1_555
Na20 O44 2.340427 1_555
Na20 O42 2.474636 1_555
Na20 O17 2.500373 1_555
Na20 O34 2.510455 1_555
Na20 O21 2.576482 1_555
Na21 O5 2.301518 1_555
Na21 O45 2.340427 1_555
Na21 O43 2.474636 1_555
Na21 O16 2.500373 1_555
Na21 O35 2.510455 1_555
Na21 O20 2.576482 1_555
Na22 O6 2.301518 1_555
Na22 O46 2.340427 1_555
Na22 O40 2.474636 1_555
Na22 O19 2.500373 1_555
Na22 O32 2.510455 1_555
Na22 O23 2.576482 1_555
Na23 O7 2.301518 1_555
Na23 O47 2.340427 1_555
Na23 O41 2.474636 1_555
Na23 O18 2.500373 1_555
Na23 O33 2.510455 1_555
Na23 O22 2.576482 1_555
Na24 O48 2.420103 1_565
Na24 O4 2.433395 1_555
Na24 O42 2.633499 1_555
Na24 S14 2.842312 1_655
Na24 S10 2.899627 1_555
Na24 S0 2.994720 1_555
Na25 O49 2.420103 1_545
Na25 O5 2.433395 1_555
Na25 O43 2.633499 1_555
Na25 S15 2.842312 1_555
Na25 S11 2.899627 1_555
Na25 S1 2.994720 1_555
Na26 O50 2.420103 1_545
Na26 O6 2.433395 1_555
Na26 O40 2.633499 1_555
Na26 S12 2.842312 1_455
Na26 S8 2.899627 1_555
Na26 S2 2.994720 1_555
Na27 O51 2.420103 1_565
Na27 O7 2.433395 1_555
Na27 O41 2.633499 1_555
Na27 S13 2.842312 1_555
Na27 S9 2.899627 1_555
Na27 S3 2.994720 1_555
Na28 O60 2.446853 1_565
Na28 O12 2.459455 1_555
Na28 O67 2.576254 1_556
Na28 O30 2.745080 1_555
Na28 S10 2.828483 1_555
Na28 S14 2.879473 1_555
Na28 S4 3.117474 1_555
Na29 O61 2.446853 1_545
Na29 O13 2.459455 1_555
Na29 O66 2.576254 1_555
Na29 O31 2.745080 1_555
Na29 S11 2.828483 1_655
Na29 S15 2.879473 1_555
Na29 S5 3.117474 1_555
Na30 O62 2.446853 1_545
Na30 O14 2.459455 1_555
Na30 O65 2.576254 1_554
Na30 O28 2.745080 1_555
Na30 S8 2.828483 1_555
Na30 S12 2.879473 1_555
Na30 S6 3.117474 1_555
Na31 O63 2.446853 1_565
Na31 O15 2.459455 1_555
Na31 O64 2.576254 1_555
Na31 O29 2.745080 1_555
Na31 S9 2.828483 1_455
Na31 S13 2.879473 1_555
Na31 S7 3.117474 1_555
H0 O48 0.990314 1_555
H1 O49 0.990314 1_555
H2 O50 0.990314 1_555
H3 O51 0.990314 1_555
H4 O48 0.996115 1_555
H5 O49 0.996115 1_555
H6 O50 0.996115 1_555
H7 O51 0.996115 1_555
H8 O52 0.992745 1_555
H9 O53 0.992745 1_555
H10 O54 0.992745 1_555
H11 O55 0.992745 1_555
H12 O52 0.993196 1_555
H13 O53 0.993196 1_555
H14 O54 0.993196 1_555
H15 O55 0.993196 1_555
H16 O56 0.987130 1_555
H17 O57 0.987130 1_555
H18 O58 0.987130 1_555
H19 O59 0.987130 1_555
H20 O56 0.992445 1_555
H21 O57 0.992445 1_555
H22 O58 0.992445 1_555
H23 O59 0.992445 1_555
H24 O60 0.989157 1_555
H25 O61 0.989157 1_555
H26 O62 0.989157 1_555
H27 O63 0.989157 1_555
H28 O60 0.990911 1_555
H29 O61 0.990911 1_555
H30 O62 0.990911 1_555
H31 O63 0.990911 1_555
H32 O64 0.978247 1_555
H32 Na31 2.598920 1_555
H33 O65 0.978247 1_555
H33 Na30 2.598920 1_556
H34 O66 0.978247 1_555
H34 Na29 2.598920 1_555
H35 O67 0.978247 1_555
H35 Na28 2.598920 1_554
H36 O64 0.994585 1_555
H37 O65 0.994585 1_555
H38 O66 0.994585 1_555
H39 O67 0.994585 1_555
S0 S16 2.025385 1_555
S1 S17 2.025385 1_555
S10 S26 2.037189 1_555
S11 S27 2.037189 1_555
S12 S28 2.023017 1_555
S13 S29 2.023017 1_555
S14 S30 2.023017 1_555
S15 S31 2.023017 1_555
S18 S2 2.025385 1_555
S19 S3 2.025385 1_555
S20 S4 2.029174 1_555
S21 S5 2.029174 1_555
S22 S6 2.029174 1_555
S23 S7 2.029174 1_555
S24 S8 2.037189 1_555
S25 S9 2.037189 1_555
O0 S16 1.496121 1_555
O1 S17 1.496121 1_555
O2 S18 1.496121 1_555
O3 S19 1.496121 1_555
O4 S16 1.479742 1_555
O5 S17 1.479742 1_555
O6 S18 1.479742 1_555
O7 S19 1.479742 1_555
O8 S16 1.489957 1_555
O9 S17 1.489957 1_555
O10 S18 1.489957 1_555
O11 S19 1.489957 1_555
O12 S20 1.478932 1_555
O13 S21 1.478932 1_555
O14 S22 1.478932 1_555
O15 S23 1.478932 1_555
O16 S20 1.486259 1_555
O17 S21 1.486259 1_555
O18 S22 1.486259 1_555
O19 S23 1.486259 1_555
O20 S20 1.500084 1_555
O21 S21 1.500084 1_555
O22 S22 1.500084 1_555
O23 S23 1.500084 1_555
O24 S24 1.484522 1_556
O25 S25 1.484522 1_555
O26 S26 1.484522 1_554
O27 S27 1.484522 1_555
O28 S24 1.487890 1_555
O29 S25 1.487890 1_455
O30 S26 1.487890 1_555
O31 S27 1.487890 1_655
O32 S24 1.491450 1_555
O33 S25 1.491450 1_555
O34 S26 1.491450 1_555
O35 S27 1.491450 1_555
O36 S28 1.494387 1_555
O37 S29 1.494387 1_555
O38 S30 1.494387 1_555
O39 S31 1.494387 1_555
O40 S28 1.495461 1_455
O41 S29 1.495461 1_555
O42 S30 1.495461 1_655
O43 S31 1.495461 1_555
O44 S28 1.483056 1_556
O45 S29 1.483056 1_555
O46 S30 1.483056 1_554
O47 S31 1.483056 1_555
