# generated using pymatgen
data_CrN3O4
_symmetry_space_group_name_H-M   'P 1'
_cell_length_a   7.82621600
_cell_length_b   9.64410100
_cell_length_c   16.24080019
_cell_angle_alpha   82.98809143
_cell_angle_beta   90.00000000
_cell_angle_gamma   90.00000000
_symmetry_Int_Tables_number   1
_chemical_formula_structural   CrN3O4
_chemical_formula_sum   'Cr8 N24 O32'
_cell_volume   1216.63588042
_cell_formula_units_Z   8
loop_
 _symmetry_equiv_pos_site_id
 _symmetry_equiv_pos_as_xyz
  1  'x, y, z'
loop_
 _atom_site_type_symbol
 _atom_site_label
 _atom_site_symmetry_multiplicity
 _atom_site_fract_x
 _atom_site_fract_y
 _atom_site_fract_z
 _atom_site_occupancy
  Cr  Cr0  1  0.65880900  0.29079200  0.12621500  1
  Cr  Cr1  1  0.15880900  0.20920800  0.87378500  1
  Cr  Cr2  1  0.34119100  0.70920800  0.87378500  1
  Cr  Cr3  1  0.84119100  0.79079200  0.12621500  1
  Cr  Cr4  1  0.12695800  0.29618600  0.37565000  1
  Cr  Cr5  1  0.62695800  0.20381400  0.62435000  1
  Cr  Cr6  1  0.87304200  0.70381400  0.62435000  1
  Cr  Cr7  1  0.37304200  0.79618600  0.37565000  1
  N  N0  1  0.41315700  0.16407700  0.13262600  1
  N  N1  1  0.91315700  0.33592300  0.86737400  1
  N  N2  1  0.58684300  0.83592300  0.86737400  1
  N  N3  1  0.08684300  0.66407700  0.13262600  1
  N  N4  1  0.84014900  0.37042600  0.12117900  1
  N  N5  1  0.34014900  0.12957400  0.87882100  1
  N  N6  1  0.15985100  0.62957400  0.87882100  1
  N  N7  1  0.65985100  0.87042600  0.12117900  1
  N  N8  1  0.52158300  0.44502800  0.12483200  1
  N  N9  1  0.02158300  0.05497200  0.87516800  1
  N  N10  1  0.47841700  0.55497200  0.87516800  1
  N  N11  1  0.97841700  0.94502800  0.12483200  1
  N  N12  1  0.92416200  0.39924500  0.37447500  1
  N  N13  1  0.42416200  0.10075500  0.62552500  1
  N  N14  1  0.07583800  0.60075500  0.62552500  1
  N  N15  1  0.57583800  0.89924500  0.37447500  1
  N  N16  1  0.35128800  0.23453100  0.37885300  1
  N  N17  1  0.85128800  0.26546900  0.62114700  1
  N  N18  1  0.64871200  0.76546900  0.62114700  1
  N  N19  1  0.14871200  0.73453100  0.37885300  1
  N  N20  1  0.03121800  0.13230600  0.36905000  1
  N  N21  1  0.53121800  0.36769400  0.63095000  1
  N  N22  1  0.96878200  0.86769400  0.63095000  1
  N  N23  1  0.46878200  0.63230600  0.36905000  1
  O  O0  1  0.61821500  0.29289400  0.00261600  1
  O  O1  1  0.11821500  0.20710600  0.99738400  1
  O  O2  1  0.38178500  0.70710600  0.99738400  1
  O  O3  1  0.88178500  0.79289400  0.00261600  1
  O  O4  1  0.69623000  0.17623500  0.03027200  1
  O  O5  1  0.19623000  0.32376500  0.96972800  1
  O  O6  1  0.30377000  0.82376500  0.96972800  1
  O  O7  1  0.80377000  0.67623500  0.03027200  1
  O  O8  1  0.63590100  0.25777600  0.25128900  1
  O  O9  1  0.13590100  0.24222400  0.74871100  1
  O  O10  1  0.36409900  0.74222400  0.74871100  1
  O  O11  1  0.86409900  0.75777600  0.25128900  1
  O  O12  1  0.70923900  0.14775900  0.22688900  1
  O  O13  1  0.20923900  0.35224100  0.77311100  1
  O  O14  1  0.29076100  0.85224100  0.77311100  1
  O  O15  1  0.79076100  0.64775900  0.22688900  1
  O  O16  1  0.14546000  0.33864100  0.24801700  1
  O  O17  1  0.64546000  0.16135900  0.75198300  1
  O  O18  1  0.85454000  0.66135900  0.75198300  1
  O  O19  1  0.35454000  0.83864100  0.24801700  1
  O  O20  1  0.20846500  0.44798000  0.27625000  1
  O  O21  1  0.70846500  0.05202000  0.72375000  1
  O  O22  1  0.79153500  0.55202000  0.72375000  1
  O  O23  1  0.29153500  0.94798000  0.27625000  1
  O  O24  1  0.12233700  0.26490900  0.50310800  1
  O  O25  1  0.62233700  0.23509100  0.49689200  1
  O  O26  1  0.87766300  0.73509100  0.49689200  1
  O  O27  1  0.37766300  0.76490900  0.50310800  1
  O  O28  1  0.18798400  0.38885200  0.48599000  1
  O  O29  1  0.68798400  0.11114800  0.51401000  1
  O  O30  1  0.81201600  0.61114800  0.51401000  1
  O  O31  1  0.31201600  0.88885200  0.48599000  1
loop_
_geom_bond_atom_site_label_1
_geom_bond_atom_site_label_2
_geom_bond_distance
_geom_bond_site_symmetry_2
Cr0 N4 1.611000 1_555
Cr0 N8 1.832566 1_555
Cr0 O8 2.025290 1_555
Cr0 O0 2.029987 1_555
Cr0 O4 2.038287 1_555
Cr0 O12 2.044807 1_555
Cr0 N0 2.273608 1_555
Cr1 N5 1.611000 1_555
Cr1 N9 1.832566 1_555
Cr1 O9 2.025290 1_555
Cr1 O1 2.029987 1_555
Cr1 O5 2.038287 1_555
Cr1 O13 2.044807 1_555
Cr1 N1 2.273608 1_455
Cr2 N6 1.611000 1_555
Cr2 N10 1.832566 1_555
Cr2 O10 2.025290 1_555
Cr2 O2 2.029987 1_555
Cr2 O6 2.038287 1_555
Cr2 O14 2.044807 1_555
Cr2 N2 2.273608 1_555
Cr3 N7 1.611000 1_555
Cr3 N11 1.832566 1_555
Cr3 O11 2.025290 1_555
Cr3 O3 2.029987 1_555
Cr3 O7 2.038287 1_555
Cr3 O15 2.044807 1_555
Cr3 N3 2.273608 1_655
Cr4 N20 1.764136 1_555
Cr4 N16 1.852306 1_555
Cr4 N12 1.871513 1_455
Cr4 O24 2.055439 1_555
Cr4 O16 2.068369 1_555
Cr4 O20 2.139870 1_555
Cr4 O28 2.151528 1_555
Cr5 N21 1.764136 1_555
Cr5 N17 1.852306 1_555
Cr5 N13 1.871513 1_555
Cr5 O25 2.055439 1_555
Cr5 O17 2.068369 1_555
Cr5 O21 2.139870 1_555
Cr5 O29 2.151528 1_555
Cr6 N22 1.764136 1_555
Cr6 N18 1.852306 1_555
Cr6 N14 1.871513 1_655
Cr6 O26 2.055439 1_555
Cr6 O18 2.068369 1_555
Cr6 O22 2.139870 1_555
Cr6 O30 2.151528 1_555
Cr7 N23 1.764136 1_555
Cr7 N19 1.852306 1_555
Cr7 N15 1.871513 1_555
Cr7 O27 2.055439 1_555
Cr7 O19 2.068369 1_555
Cr7 O23 2.139870 1_555
Cr7 O31 2.151528 1_555
O0 O4 1.310319 1_555
O1 O5 1.310319 1_555
O2 O6 1.310319 1_555
O3 O7 1.310319 1_555
O10 O14 1.309531 1_555
O11 O15 1.309531 1_555
O12 O8 1.309531 1_555
O13 O9 1.309531 1_555
O16 O20 1.297441 1_555
O17 O21 1.297441 1_555
O18 O22 1.297441 1_555
O19 O23 1.297441 1_555
O24 O28 1.299577 1_555
O25 O29 1.299577 1_555
O26 O30 1.299577 1_555
O27 O31 1.299577 1_555
