# generated using pymatgen
data_NbCr3(AgS4)2
_symmetry_space_group_name_H-M   'P 1'
_cell_length_a   7.00711300
_cell_length_b   5.98511200
_cell_length_c   6.47521921
_cell_angle_alpha   88.01560832
_cell_angle_beta   90.00000000
_cell_angle_gamma   90.00000000
_symmetry_Int_Tables_number   1
_chemical_formula_structural   NbCr3(AgS4)2
_chemical_formula_sum   'Nb1 Cr3 Ag2 S8'
_cell_volume   271.39719362
_cell_formula_units_Z   1
loop_
 _symmetry_equiv_pos_site_id
 _symmetry_equiv_pos_as_xyz
  1  'x, y, z'
loop_
 _atom_site_type_symbol
 _atom_site_label
 _atom_site_symmetry_multiplicity
 _atom_site_fract_x
 _atom_site_fract_y
 _atom_site_fract_z
 _atom_site_occupancy
  Nb  Nb0  1  0.50000000  0.00000000  0.50000000  1
  Cr  Cr0  1  0.24932600  0.50000000  0.50000000  1
  Cr  Cr1  1  0.75067400  0.50000000  0.50000000  1
  Cr  Cr2  1  0.00000000  0.00000000  0.50000000  1
  Ag  Ag0  1  0.00000000  0.00000000  0.00000000  1
  Ag  Ag1  1  0.50000000  0.00000000  0.00000000  1
  S  S0  1  0.00000000  0.32879600  0.69996200  1
  S  S1  1  0.50000000  0.33681900  0.71526000  1
  S  S2  1  0.24353000  0.82160500  0.71638600  1
  S  S3  1  0.75647000  0.82160500  0.71638600  1
  S  S4  1  0.24353000  0.17839500  0.28361400  1
  S  S5  1  0.75647000  0.17839500  0.28361400  1
  S  S6  1  0.50000000  0.66318100  0.28474000  1
  S  S7  1  0.00000000  0.67120400  0.30003800  1
loop_
_geom_bond_atom_site_label_1
_geom_bond_atom_site_label_2
_geom_bond_distance
_geom_bond_site_symmetry_2
Nb0 S6 2.490237 1_545
Nb0 S1 2.490237 1_555
Nb0 S4 2.495844 1_555
Nb0 S5 2.495844 1_555
Nb0 S2 2.495844 1_545
Nb0 S3 2.495844 1_545
Cr0 S0 2.384697 1_555
Cr0 S7 2.384697 1_555
Cr0 S2 2.420053 1_555
Cr0 S4 2.420053 1_555
Cr0 S1 2.426460 1_555
Cr0 S6 2.426460 1_555
Cr1 S0 2.384697 1_655
Cr1 S7 2.384697 1_655
Cr1 S3 2.420053 1_555
Cr1 S5 2.420053 1_555
Cr1 S6 2.426460 1_555
Cr1 S1 2.426460 1_555
Cr2 S0 2.392805 1_555
Cr2 S7 2.392805 1_545
Cr2 S5 2.431371 1_455
Cr2 S4 2.431371 1_555
Cr2 S3 2.431371 1_445
Cr2 S2 2.431371 1_545
Ag0 S7 2.717038 1_545
Ag0 S0 2.717038 1_554
Ag0 S5 2.749609 1_455
Ag0 S4 2.749609 1_555
Ag0 S3 2.749609 1_444
Ag0 S2 2.749609 1_544
Ag1 S1 2.684376 1_554
Ag1 S6 2.684376 1_545
Ag1 S4 2.806782 1_555
Ag1 S5 2.806782 1_555
Ag1 S2 2.806782 1_544
Ag1 S3 2.806782 1_544
