# generated using pymatgen
data_MgZn5N4
_symmetry_space_group_name_H-M   'P 1'
_cell_length_a   7.37223800
_cell_length_b   6.65204400
_cell_length_c   4.96477300
_cell_angle_alpha   90.00000000
_cell_angle_beta   90.00000000
_cell_angle_gamma   90.00000000
_symmetry_Int_Tables_number   1
_chemical_formula_structural   MgZn5N4
_chemical_formula_sum   'Mg2 Zn10 N8'
_cell_volume   243.47470979
_cell_formula_units_Z   2
loop_
 _symmetry_equiv_pos_site_id
 _symmetry_equiv_pos_as_xyz
  1  'x, y, z'
loop_
 _atom_site_type_symbol
 _atom_site_label
 _atom_site_symmetry_multiplicity
 _atom_site_fract_x
 _atom_site_fract_y
 _atom_site_fract_z
 _atom_site_occupancy
  Mg  Mg0  1  0.75000000  0.25000000  0.72457400  1
  Mg  Mg1  1  0.25000000  0.75000000  0.27542600  1
  Zn  Zn0  1  0.56684700  0.49992000  0.25202000  1
  Zn  Zn1  1  0.93315300  0.49992000  0.25202000  1
  Zn  Zn2  1  0.56684700  0.00008000  0.25202000  1
  Zn  Zn3  1  0.93315300  0.00008000  0.25202000  1
  Zn  Zn4  1  0.43315300  0.50008000  0.74798000  1
  Zn  Zn5  1  0.06684700  0.50008000  0.74798000  1
  Zn  Zn6  1  0.43315300  0.99992000  0.74798000  1
  Zn  Zn7  1  0.06684700  0.99992000  0.74798000  1
  Zn  Zn8  1  0.75000000  0.75000000  0.73650500  1
  Zn  Zn9  1  0.25000000  0.25000000  0.26349500  1
  N  N0  1  0.75000000  0.00118700  0.96230000  1
  N  N1  1  0.75000000  0.49881300  0.96230000  1
  N  N2  1  0.25000000  0.99881300  0.03770000  1
  N  N3  1  0.25000000  0.50118700  0.03770000  1
  N  N4  1  0.49929000  0.75000000  0.49861400  1
  N  N5  1  0.00071000  0.75000000  0.49861400  1
  N  N6  1  0.50071000  0.25000000  0.50138600  1
  N  N7  1  0.99929000  0.25000000  0.50138600  1
loop_
_geom_bond_atom_site_label_1
_geom_bond_atom_site_label_2
_geom_bond_distance
_geom_bond_site_symmetry_2
Mg0 N1 2.032833 1_555
Mg0 N0 2.032833 1_555
Mg0 N6 2.146028 1_555
Mg0 N7 2.146028 1_555
Mg1 N2 2.032833 1_555
Mg1 N3 2.032833 1_555
Mg1 N5 2.146028 1_555
Mg1 N4 2.146028 1_555
N0 Zn3 1.972866 1_556
N0 Zn2 1.972866 1_556
N0 Zn8 2.012118 1_545
N1 Zn1 1.972866 1_556
N1 Zn0 1.972866 1_556
N1 Zn8 2.012118 1_555
N2 Zn6 1.972866 1_554
N2 Zn7 1.972866 1_554
N2 Zn9 2.012118 1_565
N3 Zn4 1.972866 1_554
N3 Zn5 1.972866 1_554
N3 Zn9 2.012118 1_555
N4 Zn0 2.124687 1_555
N4 Zn2 2.124687 1_565
N4 Zn4 2.129395 1_555
N4 Zn6 2.129395 1_555
N4 Zn8 2.193428 1_555
N5 Zn1 2.124687 1_455
N5 Zn3 2.124687 1_465
N5 Zn5 2.129395 1_555
N5 Zn7 2.129395 1_555
N5 Zn8 2.193428 1_455
N6 Zn6 2.124687 1_545
N6 Zn4 2.124687 1_555
N6 Zn2 2.129395 1_555
N6 Zn0 2.129395 1_555
N6 Zn9 2.193428 1_555
N7 Zn7 2.124687 1_645
N7 Zn5 2.124687 1_655
N7 Zn1 2.129395 1_555
N7 Zn3 2.129395 1_555
N7 Zn9 2.193428 1_655
