# generated using pymatgen
data_Na2YF6
_symmetry_space_group_name_H-M   'P 1'
_cell_length_a   5.94336867
_cell_length_b   5.94379050
_cell_length_c   3.52374138
_cell_angle_alpha   90.00000000
_cell_angle_beta   90.00000000
_cell_angle_gamma   120.01587426
_symmetry_Int_Tables_number   1
_chemical_formula_structural   Na2YF6
_chemical_formula_sum   'Na2 Y1 F6'
_cell_volume   107.78574580
_cell_formula_units_Z   1
loop_
 _symmetry_equiv_pos_site_id
 _symmetry_equiv_pos_as_xyz
  1  'x, y, z'
loop_
 _atom_site_type_symbol
 _atom_site_label
 _atom_site_symmetry_multiplicity
 _atom_site_fract_x
 _atom_site_fract_y
 _atom_site_fract_z
 _atom_site_occupancy
  Na  Na0  1  0.33352176  0.66693797  0.50000000  1
  Na  Na1  1  0.66680803  0.33323326  0.50000000  1
  Y  Y0  1  -0.00013127  0.00003148  -0.00000000  1
  F  F0  1  0.61991404  0.99995239  0.00000000  1
  F  F1  1  -0.00003038  0.61984374  0.00000000  1
  F  F2  1  0.38008250  0.38009789  0.00000000  1
  F  F3  1  0.25166316  -0.00001093  0.50000000  1
  F  F4  1  0.99985926  0.25149212  0.50000000  1
  F  F5  1  0.74831390  0.74842309  0.50000000  1
loop_
_geom_bond_atom_site_label_1
_geom_bond_atom_site_label_2
_geom_bond_distance
_geom_bond_site_symmetry_2
F0 Y0 2.257976 1_665
F0 Na0 2.559020 1_554
F0 Na0 2.559020 1_555
F0 Na1 2.560012 1_565
F0 Na1 2.560012 1_564
F1 Y0 2.260056 1_565
F1 Na1 2.559738 1_455
F1 Na1 2.559738 1_454
F1 Na0 2.560735 1_555
F1 Na0 2.560735 1_554
F2 Y0 2.258851 1_555
F2 Na0 2.561159 1_555
F2 Na0 2.561159 1_554
F2 Na1 2.561387 1_555
F2 Na1 2.561387 1_554
F3 Na0 2.262525 1_545
F3 Na1 2.263104 1_555
F3 Y0 2.311731 1_556
F3 Y0 2.311731 1_555
F4 Na1 2.261955 1_555
F4 Na0 2.265159 1_655
F4 Y0 2.310452 1_656
F4 Y0 2.310452 1_655
F5 Na0 2.262194 1_555
F5 Na1 2.264659 1_555
F5 Y0 2.310633 1_665
F5 Y0 2.310633 1_666
