# generated using pymatgen
data_Li9Co7O16
_symmetry_space_group_name_H-M   'P 1'
_cell_length_a   2.92947300
_cell_length_b   10.10492190
_cell_length_c   10.65746835
_cell_angle_alpha   113.67183449
_cell_angle_beta   96.31317624
_cell_angle_gamma   91.00675862
_symmetry_Int_Tables_number   1
_chemical_formula_structural   Li9Co7O16
_chemical_formula_sum   'Li9 Co7 O16'
_cell_volume   286.52557090
_cell_formula_units_Z   1
loop_
 _symmetry_equiv_pos_site_id
 _symmetry_equiv_pos_as_xyz
  1  'x, y, z'
loop_
 _atom_site_type_symbol
 _atom_site_label
 _atom_site_symmetry_multiplicity
 _atom_site_fract_x
 _atom_site_fract_y
 _atom_site_fract_z
 _atom_site_occupancy
  Li  Li0  1  0.12580600  0.68606000  0.24878000  1
  Li  Li1  1  0.88239400  0.81661700  0.75876900  1
  Li  Li2  1  0.61602700  0.93603300  0.24713300  1
  Li  Li3  1  0.63691900  0.43478100  0.25280000  1
  Li  Li4  1  0.36308100  0.56521900  0.74720000  1
  Li  Li5  1  0.11760600  0.18338300  0.24123100  1
  Li  Li6  1  0.87419400  0.31394000  0.75122000  1
  Li  Li7  1  0.38397300  0.06396700  0.75286700  1
  Li  Li8  1  0.50000000  0.00000000  0.00000000  1
  Co  Co0  1  0.99788700  0.76397600  0.00317200  1
  Co  Co1  1  0.00211300  0.23602400  0.99682800  1
  Co  Co2  1  0.75837600  0.87240500  0.49785200  1
  Co  Co3  1  0.24162400  0.12759500  0.50214800  1
  Co  Co4  1  0.74472000  0.37744200  0.50399800  1
  Co  Co5  1  0.50000000  0.50000000  0.00000000  1
  Co  Co6  1  0.25528000  0.62255800  0.49600200  1
  O  O0  1  0.57027100  0.70015100  0.10935600  1
  O  O1  1  0.33487500  0.83725400  0.61317000  1
  O  O2  1  0.05973100  0.95031100  0.12066200  1
  O  O3  1  0.03566100  0.46588000  0.10126000  1
  O  O4  1  0.80822900  0.58781500  0.61511700  1
  O  O5  1  0.57254700  0.22632000  0.11796800  1
  O  O6  1  0.29676700  0.34472400  0.61975500  1
  O  O7  1  0.81814200  0.09317500  0.61455400  1
  O  O8  1  0.70323300  0.65527600  0.38024500  1
  O  O9  1  0.42745300  0.77368000  0.88203200  1
  O  O10  1  0.18185800  0.90682500  0.38544600  1
  O  O11  1  0.19177100  0.41218500  0.38488300  1
  O  O12  1  0.96433900  0.53412000  0.89874000  1
  O  O13  1  0.66512500  0.16274600  0.38683000  1
  O  O14  1  0.42972900  0.29984900  0.89064400  1
  O  O15  1  0.94026900  0.04968900  0.87933800  1
loop_
_geom_bond_atom_site_label_1
_geom_bond_atom_site_label_2
_geom_bond_distance
_geom_bond_site_symmetry_2
Li0 O8 2.076084 1_455
Li0 O10 2.109586 1_555
Li0 O0 2.124241 1_555
Li0 O0 2.126715 1_455
Li0 O3 2.137966 1_555
Li0 O8 2.183667 1_555
Li1 O9 2.117607 1_655
Li1 O9 2.124282 1_555
Li1 O15 2.175928 1_565
Li1 O1 2.179030 1_555
Li1 O4 2.191669 1_555
Li1 O1 2.216038 1_655
Li2 O2 2.015426 1_655
Li2 O2 2.043198 1_555
Li2 O10 2.150852 1_555
Li2 O13 2.165195 1_565
Li2 O10 2.199263 1_655
Li2 O0 2.233942 1_555
Li3 O5 2.008364 1_555
Li3 O8 2.084129 1_555
Li3 O11 2.094172 1_555
Li3 O11 2.107986 1_655
Li3 O3 2.209319 1_655
Li3 O3 2.368731 1_555
Li4 O9 2.008364 1_555
Li4 O6 2.084129 1_555
Li4 O4 2.094172 1_555
Li4 O4 2.107986 1_455
Li4 O12 2.209319 1_455
Li4 O12 2.368731 1_555
Li5 O5 2.117607 1_455
Li5 O5 2.124282 1_555
Li5 O2 2.175928 1_545
Li5 O13 2.179030 1_555
Li5 O11 2.191669 1_555
Li5 O13 2.216038 1_455
Li6 O6 2.076084 1_655
Li6 O7 2.109586 1_555
Li6 O14 2.124241 1_555
Li6 O14 2.126715 1_655
Li6 O12 2.137966 1_555
Li6 O6 2.183667 1_555
Li7 O15 2.015426 1_455
Li7 O15 2.043198 1_555
Li7 O7 2.150852 1_555
Li7 O1 2.165195 1_545
Li7 O7 2.199263 1_455
Li7 O14 2.233942 1_555
Li8 O2 2.104693 1_545
Li8 O15 2.104693 1_554
Li8 O5 2.114544 1_555
Li8 O9 2.114544 1_544
Li8 O2 2.162898 1_645
Li8 O15 2.162898 1_454
Co0 O2 1.786319 1_655
Co0 O9 1.927334 1_654
Co0 O9 2.025298 1_554
Co0 O0 2.033537 1_555
Co0 O12 2.129628 1_554
Co0 O0 2.171394 1_655
Co1 O15 1.786319 1_455
Co1 O5 1.927334 1_456
Co1 O5 2.025298 1_556
Co1 O14 2.033537 1_555
Co1 O3 2.129628 1_556
Co1 O14 2.171394 1_455
Co2 O10 1.934267 1_655
Co2 O1 1.961162 1_555
Co2 O8 2.036122 1_555
Co2 O7 2.065111 1_565
Co2 O10 2.078151 1_555
Co2 O1 2.098552 1_655
Co3 O7 1.934267 1_455
Co3 O13 1.961162 1_555
Co3 O6 2.036122 1_555
Co3 O10 2.065111 1_545
Co3 O7 2.078151 1_555
Co3 O13 2.098552 1_455
Co4 O4 1.967795 1_555
Co4 O6 2.005397 1_555
Co4 O13 2.015725 1_555
Co4 O6 2.038173 1_655
Co4 O11 2.038936 1_655
Co4 O11 2.069861 1_555
Co5 O0 1.879107 1_555
Co5 O14 1.879107 1_554
Co5 O12 1.921263 1_454
Co5 O3 1.921263 1_655
Co5 O12 1.933640 1_554
Co5 O3 1.933640 1_555
Co6 O11 1.967795 1_555
Co6 O8 2.005397 1_555
Co6 O1 2.015725 1_555
Co6 O8 2.038173 1_455
Co6 O4 2.038936 1_455
Co6 O4 2.069861 1_555
