# generated using pymatgen
data_Al4(FeO4)3
_symmetry_space_group_name_H-M   'P 1'
_cell_length_a   5.69413988
_cell_length_b   5.69413988
_cell_length_c   14.09918169
_cell_angle_alpha   89.08106599
_cell_angle_beta   89.08106599
_cell_angle_gamma   62.40787588
_symmetry_Int_Tables_number   1
_chemical_formula_structural   Al4(FeO4)3
_chemical_formula_sum   'Al8 Fe6 O24'
_cell_volume   405.07786941
_cell_formula_units_Z   2
loop_
 _symmetry_equiv_pos_site_id
 _symmetry_equiv_pos_as_xyz
  1  'x, y, z'
loop_
 _atom_site_type_symbol
 _atom_site_label
 _atom_site_symmetry_multiplicity
 _atom_site_fract_x
 _atom_site_fract_y
 _atom_site_fract_z
 _atom_site_occupancy
  Al  Al0  1  0.84659500  0.84659500  0.95641400  1
  Al  Al1  1  0.50393200  0.50393200  0.61713900  1
  Al  Al2  1  0.17423200  0.17423200  0.29559400  1
  Al  Al3  1  0.50095500  0.50095500  0.99715300  1
  Al  Al4  1  0.82798800  0.82798800  0.33378400  1
  Al  Al5  1  0.99858100  0.99858100  0.50619900  1
  Al  Al6  1  0.82630200  0.82630200  0.71380100  1
  Al  Al7  1  0.15388600  0.15388600  0.03717700  1
  Fe  Fe0  1  0.84235000  0.33178900  0.82684800  1
  Fe  Fe1  1  0.49985700  0.00002900  0.50234200  1
  Fe  Fe2  1  0.16793900  0.66355500  0.16619900  1
  Fe  Fe3  1  0.33178900  0.84235000  0.82684800  1
  Fe  Fe4  1  0.00002900  0.49985700  0.50234200  1
  Fe  Fe5  1  0.66355500  0.16793900  0.16619900  1
  O  O0  1  0.66580300  0.66580300  0.92223500  1
  O  O1  1  0.33202800  0.33202800  0.57268100  1
  O  O2  1  0.99446300  0.99446300  0.25593700  1
  O  O3  1  0.51844000  0.51844000  0.74587100  1
  O  O4  1  0.15592700  0.15592700  0.42309100  1
  O  O5  1  0.84566700  0.84566700  0.08840100  1
  O  O6  1  0.67607500  0.19168500  0.92057700  1
  O  O7  1  0.32473300  0.83523900  0.57094400  1
  O  O8  1  0.00830200  0.51686100  0.25783600  1
  O  O9  1  0.19168500  0.67607500  0.92057700  1
  O  O10  1  0.83523900  0.32473300  0.57094400  1
  O  O11  1  0.51686100  0.00830200  0.25783600  1
  O  O12  1  0.49659000  0.98976800  0.75569600  1
  O  O13  1  0.11384600  0.69175600  0.42528400  1
  O  O14  1  0.81430300  0.32641500  0.07915900  1
  O  O15  1  0.98976800  0.49659000  0.75569600  1
  O  O16  1  0.69175600  0.11384600  0.42528400  1
  O  O17  1  0.32641500  0.81430300  0.07915900  1
  O  O18  1  0.15805600  0.15805600  0.91107400  1
  O  O19  1  0.83861900  0.83861900  0.58623000  1
  O  O20  1  0.48532000  0.48532000  0.23036800  1
  O  O21  1  0.99251700  0.99251700  0.75972100  1
  O  O22  1  0.68220600  0.68220600  0.42382400  1
  O  O23  1  0.33367000  0.33367000  0.07539800  1
loop_
_geom_bond_atom_site_label_1
_geom_bond_atom_site_label_2
_geom_bond_distance
_geom_bond_site_symmetry_2
Al0 O6 1.809900 1_565
Al0 O9 1.809900 1_655
Al0 O0 1.834483 1_555
Al0 O5 1.860761 1_556
Al1 O10 1.795278 1_555
Al1 O7 1.795278 1_555
Al1 O1 1.798920 1_555
Al1 O3 1.823149 1_555
Al2 O4 1.803095 1_555
Al2 O8 1.804900 1_555
Al2 O11 1.804900 1_555
Al2 O2 1.848141 1_445
Al3 O0 1.905393 1_555
Al3 O6 1.913365 1_555
Al3 O9 1.913365 1_555
Al3 O23 1.950593 1_556
Al3 O17 1.973515 1_556
Al3 O14 1.973515 1_556
Al4 O22 1.886919 1_555
Al4 O8 1.918323 1_655
Al4 O11 1.918323 1_565
Al4 O2 1.940999 1_555
Al4 O13 1.944503 1_655
Al4 O16 1.944503 1_565
Al5 O7 1.890617 1_655
Al5 O10 1.890617 1_565
Al5 O19 1.906596 1_555
Al5 O4 1.911732 1_665
Al5 O16 1.939675 1_565
Al5 O13 1.939675 1_655
Al6 O21 1.754941 1_555
Al6 O15 1.761616 1_555
Al6 O12 1.761616 1_555
Al6 O19 1.800398 1_555
Al7 O18 1.777651 1_554
Al7 O14 1.810153 1_455
Al7 O17 1.810153 1_545
Al7 O23 1.841896 1_555
Fe0 O15 1.806678 1_555
Fe0 O21 1.965058 1_545
Fe0 O6 1.976100 1_555
Fe0 O18 2.000967 1_655
Fe0 O3 2.011865 1_555
Fe0 O0 2.168901 1_555
Fe1 O16 1.841126 1_555
Fe1 O7 1.901871 1_545
Fe1 O1 1.956212 1_555
Fe1 O22 1.966081 1_545
Fe1 O4 2.073587 1_555
Fe1 O19 2.088183 1_545
Fe2 O20 1.854323 1_555
Fe2 O17 1.924928 1_555
Fe2 O8 1.955593 1_555
Fe2 O5 1.977688 1_455
Fe2 O2 2.106923 1_455
Fe2 O23 2.110508 1_555
Fe3 O12 1.806678 1_555
Fe3 O21 1.965058 1_455
Fe3 O9 1.976100 1_555
Fe3 O18 2.000967 1_565
Fe3 O3 2.011865 1_555
Fe3 O0 2.168901 1_555
Fe4 O13 1.841126 1_555
Fe4 O10 1.901871 1_455
Fe4 O1 1.956212 1_555
Fe4 O22 1.966081 1_455
Fe4 O4 2.073587 1_555
Fe4 O19 2.088183 1_455
Fe5 O20 1.854323 1_555
Fe5 O14 1.924928 1_555
Fe5 O11 1.955593 1_555
Fe5 O5 1.977688 1_545
Fe5 O2 2.106923 1_545
Fe5 O23 2.110508 1_555
