# generated using pymatgen
data_SnO2
_symmetry_space_group_name_H-M   'P 1'
_cell_length_a   3.22456500
_cell_length_b   9.33467600
_cell_length_c   11.35355000
_cell_angle_alpha   90.00000000
_cell_angle_beta   90.00000000
_cell_angle_gamma   90.00000000
_symmetry_Int_Tables_number   1
_chemical_formula_structural   SnO2
_chemical_formula_sum   'Sn8 O16'
_cell_volume   341.74491496
_cell_formula_units_Z   8
loop_
 _symmetry_equiv_pos_site_id
 _symmetry_equiv_pos_as_xyz
  1  'x, y, z'
loop_
 _atom_site_type_symbol
 _atom_site_label
 _atom_site_symmetry_multiplicity
 _atom_site_fract_x
 _atom_site_fract_y
 _atom_site_fract_z
 _atom_site_occupancy
  Sn  Sn0  1  0.75000000  0.91263700  0.10269900  1
  Sn  Sn1  1  0.25000000  0.58736300  0.60269900  1
  Sn  Sn2  1  0.75000000  0.41263700  0.39730100  1
  Sn  Sn3  1  0.25000000  0.08736300  0.89730100  1
  Sn  Sn4  1  0.25000000  0.05242800  0.38302000  1
  Sn  Sn5  1  0.75000000  0.94757200  0.61698000  1
  Sn  Sn6  1  0.25000000  0.55242800  0.11698000  1
  Sn  Sn7  1  0.75000000  0.44757200  0.88302000  1
  O  O0  1  0.75000000  0.42099000  0.07124700  1
  O  O1  1  0.25000000  0.57901000  0.92875300  1
  O  O2  1  0.75000000  0.92099000  0.42875300  1
  O  O3  1  0.25000000  0.07901000  0.57124700  1
  O  O4  1  0.75000000  0.53355700  0.71388900  1
  O  O5  1  0.25000000  0.46644300  0.28611100  1
  O  O6  1  0.75000000  0.03355700  0.78611100  1
  O  O7  1  0.25000000  0.96644300  0.21388900  1
  O  O8  1  0.75000000  0.11568900  0.01306400  1
  O  O9  1  0.25000000  0.88431100  0.98693600  1
  O  O10  1  0.75000000  0.61568900  0.48693600  1
  O  O11  1  0.25000000  0.38431100  0.51306400  1
  O  O12  1  0.25000000  0.30455400  0.85219500  1
  O  O13  1  0.75000000  0.69544600  0.14780500  1
  O  O14  1  0.75000000  0.19544600  0.35219500  1
  O  O15  1  0.25000000  0.80455400  0.64780500  1
loop_
_geom_bond_atom_site_label_1
_geom_bond_atom_site_label_2
_geom_bond_distance
_geom_bond_site_symmetry_2
O0 Sn6 2.091511 1_555
O0 Sn6 2.091511 1_655
O0 Sn7 2.151402 1_554
O1 Sn7 2.091511 1_555
O1 Sn7 2.091511 1_455
O1 Sn6 2.151402 1_556
O2 Sn4 2.091511 1_565
O2 Sn4 2.091511 1_665
O2 Sn5 2.151402 1_555
O3 Sn5 2.091511 1_445
O3 Sn5 2.091511 1_545
O3 Sn4 2.151402 1_555
O4 Sn7 2.081237 1_555
O4 Sn1 2.108407 1_555
O4 Sn1 2.108407 1_655
O5 Sn6 2.081237 1_555
O5 Sn2 2.108407 1_555
O5 Sn2 2.108407 1_455
O6 Sn5 2.081237 1_545
O6 Sn3 2.108407 1_655
O6 Sn3 2.108407 1_555
O7 Sn4 2.081237 1_565
O7 Sn0 2.108407 1_555
O7 Sn0 2.108407 1_455
O8 Sn3 2.096857 1_554
O8 Sn3 2.096857 1_654
O8 Sn0 2.151348 1_545
O9 Sn0 2.096857 1_456
O9 Sn0 2.096857 1_556
O9 Sn3 2.151348 1_565
O10 Sn1 2.096857 1_655
O10 Sn1 2.096857 1_555
O10 Sn2 2.151348 1_555
O11 Sn2 2.096857 1_555
O11 Sn2 2.096857 1_455
O11 Sn1 2.151348 1_555
O12 Sn3 2.091086 1_555
O12 Sn7 2.122318 1_455
O12 Sn7 2.122318 1_555
O13 Sn0 2.091086 1_555
O13 Sn6 2.122318 1_655
O13 Sn6 2.122318 1_555
O14 Sn2 2.091086 1_555
O14 Sn4 2.122318 1_555
O14 Sn4 2.122318 1_655
O15 Sn1 2.091086 1_555
O15 Sn5 2.122318 1_555
O15 Sn5 2.122318 1_455
