# generated using pymatgen
data_Ti3ZnHg4
_symmetry_space_group_name_H-M   'P 1'
_cell_length_a   6.21963600
_cell_length_b   6.21963600
_cell_length_c   31.47787600
_cell_angle_alpha   90.00000000
_cell_angle_beta   90.00000000
_cell_angle_gamma   90.00000000
_symmetry_Int_Tables_number   1
_chemical_formula_structural   Ti3ZnHg4
_chemical_formula_sum   'Ti24 Zn8 Hg32'
_cell_volume   1217.68612515
_cell_formula_units_Z   8
loop_
 _symmetry_equiv_pos_site_id
 _symmetry_equiv_pos_as_xyz
  1  'x, y, z'
loop_
 _atom_site_type_symbol
 _atom_site_label
 _atom_site_symmetry_multiplicity
 _atom_site_fract_x
 _atom_site_fract_y
 _atom_site_fract_z
 _atom_site_occupancy
  Ti  Ti0_0  1  0.25000000  0.25000000  0.12442000  1
  Ti  Ti0_1  1  0.25000000  0.25000000  0.62442000  1
  Ti  Ti0_2  1  0.25000000  0.75000000  0.12442000  1
  Ti  Ti0_3  1  0.25000000  0.75000000  0.62442000  1
  Ti  Ti0_4  1  0.75000000  0.25000000  0.12442000  1
  Ti  Ti0_5  1  0.75000000  0.25000000  0.62442000  1
  Ti  Ti0_6  1  0.75000000  0.75000000  0.12442000  1
  Ti  Ti0_7  1  0.75000000  0.75000000  0.62442000  1
  Ti  Ti1_0  1  0.25000000  0.25000000  0.25000000  1
  Ti  Ti1_1  1  0.25000000  0.25000000  0.75000000  1
  Ti  Ti1_2  1  0.25000000  0.75000000  0.25000000  1
  Ti  Ti1_3  1  0.25000000  0.75000000  0.75000000  1
  Ti  Ti1_4  1  0.75000000  0.25000000  0.25000000  1
  Ti  Ti1_5  1  0.75000000  0.25000000  0.75000000  1
  Ti  Ti1_6  1  0.75000000  0.75000000  0.25000000  1
  Ti  Ti1_7  1  0.75000000  0.75000000  0.75000000  1
  Ti  Ti2_0  1  0.25000000  0.25000000  0.37558000  1
  Ti  Ti2_1  1  0.25000000  0.25000000  0.87558000  1
  Ti  Ti2_2  1  0.25000000  0.75000000  0.37558000  1
  Ti  Ti2_3  1  0.25000000  0.75000000  0.87558000  1
  Ti  Ti2_4  1  0.75000000  0.25000000  0.37558000  1
  Ti  Ti2_5  1  0.75000000  0.25000000  0.87558000  1
  Ti  Ti2_6  1  0.75000000  0.75000000  0.37558000  1
  Ti  Ti2_7  1  0.75000000  0.75000000  0.87558000  1
  Zn  Zn0_0  1  0.25000000  0.25000000  0.00000000  1
  Zn  Zn0_1  1  0.25000000  0.25000000  0.50000000  1
  Zn  Zn0_2  1  0.25000000  0.75000000  0.00000000  1
  Zn  Zn0_3  1  0.25000000  0.75000000  0.50000000  1
  Zn  Zn0_4  1  0.75000000  0.25000000  0.00000000  1
  Zn  Zn0_5  1  0.75000000  0.25000000  0.50000000  1
  Zn  Zn0_6  1  0.75000000  0.75000000  0.00000000  1
  Zn  Zn0_7  1  0.75000000  0.75000000  0.50000000  1
  Hg  Hg0_0  1  0.00000000  0.00000000  0.43821750  1
  Hg  Hg0_1  1  0.00000000  0.00000000  0.93821750  1
  Hg  Hg0_2  1  0.00000000  0.50000000  0.43821750  1
  Hg  Hg0_3  1  0.00000000  0.50000000  0.93821750  1
  Hg  Hg0_4  1  0.50000000  0.00000000  0.43821750  1
  Hg  Hg0_5  1  0.50000000  0.00000000  0.93821750  1
  Hg  Hg0_6  1  0.50000000  0.50000000  0.43821750  1
  Hg  Hg0_7  1  0.50000000  0.50000000  0.93821750  1
  Hg  Hg1_0  1  0.00000000  0.00000000  0.06178250  1
  Hg  Hg1_1  1  0.00000000  0.00000000  0.56178250  1
  Hg  Hg1_2  1  0.00000000  0.50000000  0.06178250  1
  Hg  Hg1_3  1  0.00000000  0.50000000  0.56178250  1
  Hg  Hg1_4  1  0.50000000  0.00000000  0.06178250  1
  Hg  Hg1_5  1  0.50000000  0.00000000  0.56178250  1
  Hg  Hg1_6  1  0.50000000  0.50000000  0.06178250  1
  Hg  Hg1_7  1  0.50000000  0.50000000  0.56178250  1
  Hg  Hg2_0  1  0.00000000  0.00000000  0.18711250  1
  Hg  Hg2_1  1  0.00000000  0.00000000  0.68711250  1
  Hg  Hg2_2  1  0.00000000  0.50000000  0.18711250  1
  Hg  Hg2_3  1  0.00000000  0.50000000  0.68711250  1
  Hg  Hg2_4  1  0.50000000  0.00000000  0.18711250  1
  Hg  Hg2_5  1  0.50000000  0.00000000  0.68711250  1
  Hg  Hg2_6  1  0.50000000  0.50000000  0.18711250  1
  Hg  Hg2_7  1  0.50000000  0.50000000  0.68711250  1
  Hg  Hg3_0  1  0.00000000  0.00000000  0.31288750  1
  Hg  Hg3_1  1  0.00000000  0.00000000  0.81288750  1
  Hg  Hg3_2  1  0.00000000  0.50000000  0.31288750  1
  Hg  Hg3_3  1  0.00000000  0.50000000  0.81288750  1
  Hg  Hg3_4  1  0.50000000  0.00000000  0.31288750  1
  Hg  Hg3_5  1  0.50000000  0.00000000  0.81288750  1
  Hg  Hg3_6  1  0.50000000  0.50000000  0.31288750  1
  Hg  Hg3_7  1  0.50000000  0.50000000  0.81288750  1
loop_
_geom_bond_atom_site_label_1
_geom_bond_atom_site_label_2
_geom_bond_distance
_geom_bond_site_symmetry_2
Ti0_0 Ti0_2 3.109818 1_545
Ti0_0 Ti0_4 3.109818 1_455
Ti0_0 Ti0_4 3.109818 1_555
Ti0_0 Ti0_2 3.109818 1_555
Ti0_1 Ti0_3 3.109818 1_545
Ti0_1 Ti0_3 3.109818 1_555
Ti0_1 Ti0_5 3.109818 1_455
Ti0_1 Ti0_5 3.109818 1_555
Ti0_2 Ti0_6 3.109818 1_555
Ti0_2 Ti0_6 3.109818 1_455
Ti0_3 Ti0_7 3.109818 1_455
Ti0_3 Ti0_7 3.109818 1_555
Ti0_4 Ti0_6 3.109818 1_545
Ti0_4 Ti0_6 3.109818 1_555
Ti0_5 Ti0_7 3.109818 1_555
Ti0_5 Ti0_7 3.109818 1_545
Ti1_0 Ti1_4 3.109818 1_555
Ti1_0 Ti1_2 3.109818 1_545
Ti1_0 Ti1_2 3.109818 1_555
Ti1_0 Ti1_4 3.109818 1_455
Ti1_1 Ti1_5 3.109818 1_455
Ti1_1 Ti1_3 3.109818 1_545
Ti1_1 Ti1_5 3.109818 1_555
Ti1_1 Ti1_3 3.109818 1_555
Ti1_2 Ti1_6 3.109818 1_555
Ti1_2 Ti1_6 3.109818 1_455
Ti1_3 Ti1_7 3.109818 1_455
Ti1_3 Ti1_7 3.109818 1_555
Ti1_4 Ti1_6 3.109818 1_555
Ti1_4 Ti1_6 3.109818 1_545
Ti1_5 Ti1_7 3.109818 1_545
Ti1_5 Ti1_7 3.109818 1_555
Ti2_0 Ti2_4 3.109818 1_455
Ti2_0 Ti2_2 3.109818 1_555
Ti2_0 Ti2_4 3.109818 1_555
Ti2_0 Ti2_2 3.109818 1_545
Ti2_1 Ti2_3 3.109818 1_555
Ti2_1 Ti2_5 3.109818 1_555
Ti2_1 Ti2_3 3.109818 1_545
Ti2_1 Ti2_5 3.109818 1_455
Ti2_2 Ti2_6 3.109818 1_555
Ti2_2 Ti2_6 3.109818 1_455
Ti2_3 Ti2_7 3.109818 1_455
Ti2_3 Ti2_7 3.109818 1_555
Ti2_4 Ti2_6 3.109818 1_555
Ti2_4 Ti2_6 3.109818 1_545
Ti2_5 Ti2_7 3.109818 1_545
Ti2_5 Ti2_7 3.109818 1_555
Zn0_0 Zn0_4 3.109818 1_555
Zn0_0 Zn0_4 3.109818 1_455
Zn0_0 Zn0_2 3.109818 1_555
Zn0_0 Zn0_2 3.109818 1_545
Zn0_1 Zn0_3 3.109818 1_555
Zn0_1 Zn0_3 3.109818 1_545
Zn0_1 Zn0_5 3.109818 1_455
Zn0_1 Zn0_5 3.109818 1_555
Zn0_2 Zn0_6 3.109818 1_555
Zn0_2 Zn0_6 3.109818 1_455
Zn0_3 Zn0_7 3.109818 1_455
Zn0_3 Zn0_7 3.109818 1_555
Zn0_4 Zn0_6 3.109818 1_545
Zn0_4 Zn0_6 3.109818 1_555
Zn0_5 Zn0_7 3.109818 1_545
Zn0_5 Zn0_7 3.109818 1_555
Hg0_0 Zn0_7 2.935585 1_445
Hg0_0 Zn0_3 2.935585 1_545
Hg0_0 Zn0_1 2.935585 1_555
Hg0_0 Zn0_5 2.935585 1_455
Hg0_0 Ti2_2 2.953484 1_545
Hg0_0 Ti2_6 2.953484 1_445
Hg0_0 Ti2_0 2.953484 1_555
Hg0_0 Ti2_4 2.953484 1_455
Hg0_0 Hg0_2 3.109818 1_545
Hg0_0 Hg0_4 3.109818 1_555
Hg0_0 Hg0_4 3.109818 1_455
Hg0_0 Hg0_2 3.109818 1_555
Hg0_1 Zn0_0 2.935585 1_556
Hg0_1 Zn0_4 2.935585 1_456
Hg0_1 Zn0_6 2.935585 1_446
Hg0_1 Zn0_2 2.935585 1_546
Hg0_1 Ti2_3 2.953484 1_545
Hg0_1 Ti2_1 2.953484 1_555
Hg0_1 Ti2_7 2.953484 1_445
Hg0_1 Ti2_5 2.953484 1_455
Hg0_1 Hg0_3 3.109818 1_545
Hg0_1 Hg0_5 3.109818 1_555
Hg0_1 Hg0_5 3.109818 1_455
Hg0_1 Hg0_3 3.109818 1_555
Hg0_2 Zn0_3 2.935585 1_555
Hg0_2 Zn0_1 2.935585 1_555
Hg0_2 Zn0_5 2.935585 1_455
Hg0_2 Zn0_7 2.935585 1_455
Hg0_2 Ti2_2 2.953484 1_555
Hg0_2 Ti2_6 2.953484 1_455
Hg0_2 Ti2_0 2.953484 1_555
Hg0_2 Ti2_4 2.953484 1_455
Hg0_2 Hg0_6 3.109818 1_455
Hg0_2 Hg0_6 3.109818 1_555
Hg0_3 Zn0_0 2.935585 1_556
Hg0_3 Zn0_4 2.935585 1_456
Hg0_3 Zn0_2 2.935585 1_556
Hg0_3 Zn0_6 2.935585 1_456
Hg0_3 Ti2_1 2.953484 1_555
Hg0_3 Ti2_7 2.953484 1_455
Hg0_3 Ti2_5 2.953484 1_455
Hg0_3 Ti2_3 2.953484 1_555
Hg0_3 Hg0_7 3.109818 1_455
Hg0_3 Hg0_7 3.109818 1_555
Hg0_4 Zn0_5 2.935585 1_555
Hg0_4 Zn0_3 2.935585 1_545
Hg0_4 Zn0_1 2.935585 1_555
Hg0_4 Zn0_7 2.935585 1_545
Hg0_4 Ti2_2 2.953484 1_545
Hg0_4 Ti2_0 2.953484 1_555
Hg0_4 Ti2_6 2.953484 1_545
Hg0_4 Ti2_4 2.953484 1_555
Hg0_4 Hg0_6 3.109818 1_545
Hg0_4 Hg0_6 3.109818 1_555
Hg0_5 Zn0_0 2.935585 1_556
Hg0_5 Zn0_2 2.935585 1_546
Hg0_5 Zn0_4 2.935585 1_556
Hg0_5 Zn0_6 2.935585 1_546
Hg0_5 Ti2_3 2.953484 1_545
Hg0_5 Ti2_1 2.953484 1_555
Hg0_5 Ti2_7 2.953484 1_545
Hg0_5 Ti2_5 2.953484 1_555
Hg0_5 Hg0_7 3.109818 1_545
Hg0_5 Hg0_7 3.109818 1_555
Hg0_6 Zn0_3 2.935585 1_555
Hg0_6 Zn0_1 2.935585 1_555
Hg0_6 Zn0_7 2.935585 1_555
Hg0_6 Zn0_5 2.935585 1_555
Hg0_6 Ti2_2 2.953484 1_555
Hg0_6 Ti2_6 2.953484 1_555
Hg0_6 Ti2_0 2.953484 1_555
Hg0_6 Ti2_4 2.953484 1_555
Hg0_7 Zn0_0 2.935585 1_556
Hg0_7 Zn0_4 2.935585 1_556
Hg0_7 Zn0_2 2.935585 1_556
Hg0_7 Zn0_6 2.935585 1_556
Hg0_7 Ti2_7 2.953484 1_555
Hg0_7 Ti2_1 2.953484 1_555
Hg0_7 Ti2_5 2.953484 1_555
Hg0_7 Ti2_3 2.953484 1_555
Hg1_0 Zn0_0 2.935585 1_555
Hg1_0 Zn0_2 2.935585 1_545
Hg1_0 Zn0_4 2.935585 1_455
Hg1_0 Zn0_6 2.935585 1_445
Hg1_0 Ti0_6 2.953484 1_445
Hg1_0 Ti0_4 2.953484 1_455
Hg1_0 Ti0_2 2.953484 1_545
Hg1_0 Ti0_0 2.953484 1_555
Hg1_0 Hg1_2 3.109818 1_555
Hg1_0 Hg1_2 3.109818 1_545
Hg1_0 Hg1_4 3.109818 1_555
Hg1_0 Hg1_4 3.109818 1_455
Hg1_1 Zn0_3 2.935585 1_545
Hg1_1 Zn0_7 2.935585 1_445
Hg1_1 Zn0_1 2.935585 1_555
Hg1_1 Zn0_5 2.935585 1_455
Hg1_1 Ti0_3 2.953484 1_545
Hg1_1 Ti0_5 2.953484 1_455
Hg1_1 Ti0_1 2.953484 1_555
Hg1_1 Ti0_7 2.953484 1_445
Hg1_1 Hg1_5 3.109818 1_555
Hg1_1 Hg1_3 3.109818 1_555
Hg1_1 Hg1_3 3.109818 1_545
Hg1_1 Hg1_5 3.109818 1_455
Hg1_2 Zn0_0 2.935585 1_555
Hg1_2 Zn0_4 2.935585 1_455
Hg1_2 Zn0_6 2.935585 1_455
Hg1_2 Zn0_2 2.935585 1_555
Hg1_2 Ti0_2 2.953484 1_555
Hg1_2 Ti0_6 2.953484 1_455
Hg1_2 Ti0_4 2.953484 1_455
Hg1_2 Ti0_0 2.953484 1_555
Hg1_2 Hg1_6 3.109818 1_555
Hg1_2 Hg1_6 3.109818 1_455
Hg1_3 Zn0_3 2.935585 1_555
Hg1_3 Zn0_7 2.935585 1_455
Hg1_3 Zn0_1 2.935585 1_555
Hg1_3 Zn0_5 2.935585 1_455
Hg1_3 Ti0_3 2.953484 1_555
Hg1_3 Ti0_5 2.953484 1_455
Hg1_3 Ti0_1 2.953484 1_555
Hg1_3 Ti0_7 2.953484 1_455
Hg1_3 Hg1_7 3.109818 1_455
Hg1_3 Hg1_7 3.109818 1_555
Hg1_4 Zn0_0 2.935585 1_555
Hg1_4 Zn0_2 2.935585 1_545
Hg1_4 Zn0_6 2.935585 1_545
Hg1_4 Zn0_4 2.935585 1_555
Hg1_4 Ti0_4 2.953484 1_555
Hg1_4 Ti0_6 2.953484 1_545
Hg1_4 Ti0_2 2.953484 1_545
Hg1_4 Ti0_0 2.953484 1_555
Hg1_4 Hg1_6 3.109818 1_555
Hg1_4 Hg1_6 3.109818 1_545
Hg1_5 Zn0_3 2.935585 1_545
Hg1_5 Zn0_1 2.935585 1_555
Hg1_5 Zn0_7 2.935585 1_545
Hg1_5 Zn0_5 2.935585 1_555
Hg1_5 Ti0_3 2.953484 1_545
Hg1_5 Ti0_1 2.953484 1_555
Hg1_5 Ti0_7 2.953484 1_545
Hg1_5 Ti0_5 2.953484 1_555
Hg1_5 Hg1_7 3.109818 1_545
Hg1_5 Hg1_7 3.109818 1_555
Hg1_6 Zn0_0 2.935585 1_555
Hg1_6 Zn0_6 2.935585 1_555
Hg1_6 Zn0_4 2.935585 1_555
Hg1_6 Zn0_2 2.935585 1_555
Hg1_6 Ti0_4 2.953484 1_555
Hg1_6 Ti0_2 2.953484 1_555
Hg1_6 Ti0_6 2.953484 1_555
Hg1_6 Ti0_0 2.953484 1_555
Hg1_7 Zn0_3 2.935585 1_555
Hg1_7 Zn0_7 2.935585 1_555
Hg1_7 Zn0_1 2.935585 1_555
Hg1_7 Zn0_5 2.935585 1_555
Hg1_7 Ti0_7 2.953484 1_555
Hg1_7 Ti0_3 2.953484 1_555
Hg1_7 Ti0_1 2.953484 1_555
Hg1_7 Ti0_5 2.953484 1_555
Hg2_0 Ti0_0 2.954640 1_555
Hg2_0 Ti0_2 2.954640 1_545
Hg2_0 Ti0_4 2.954640 1_455
Hg2_0 Ti0_6 2.954640 1_445
Hg2_0 Ti1_6 2.958743 1_445
Hg2_0 Ti1_2 2.958743 1_545
Hg2_0 Ti1_0 2.958743 1_555
Hg2_0 Ti1_4 2.958743 1_455
Hg2_0 Hg2_2 3.109818 1_545
Hg2_0 Hg2_4 3.109818 1_455
Hg2_0 Hg2_4 3.109818 1_555
Hg2_0 Hg2_2 3.109818 1_555
Hg2_1 Ti0_7 2.954640 1_445
Hg2_1 Ti0_3 2.954640 1_545
Hg2_1 Ti0_1 2.954640 1_555
Hg2_1 Ti0_5 2.954640 1_455
Hg2_1 Ti1_5 2.958743 1_455
Hg2_1 Ti1_7 2.958743 1_445
Hg2_1 Ti1_1 2.958743 1_555
Hg2_1 Ti1_3 2.958743 1_545
Hg2_1 Hg2_3 3.109818 1_545
Hg2_1 Hg2_5 3.109818 1_555
Hg2_1 Hg2_5 3.109818 1_455
Hg2_1 Hg2_3 3.109818 1_555
Hg2_2 Ti0_0 2.954640 1_555
Hg2_2 Ti0_4 2.954640 1_455
Hg2_2 Ti0_2 2.954640 1_555
Hg2_2 Ti0_6 2.954640 1_455
Hg2_2 Ti1_2 2.958743 1_555
Hg2_2 Ti1_6 2.958743 1_455
Hg2_2 Ti1_0 2.958743 1_555
Hg2_2 Ti1_4 2.958743 1_455
Hg2_2 Hg2_6 3.109818 1_555
Hg2_2 Hg2_6 3.109818 1_455
Hg2_3 Ti0_7 2.954640 1_455
Hg2_3 Ti0_3 2.954640 1_555
Hg2_3 Ti0_1 2.954640 1_555
Hg2_3 Ti0_5 2.954640 1_455
Hg2_3 Ti1_3 2.958743 1_555
Hg2_3 Ti1_7 2.958743 1_455
Hg2_3 Ti1_1 2.958743 1_555
Hg2_3 Ti1_5 2.958743 1_455
Hg2_3 Hg2_7 3.109818 1_555
Hg2_3 Hg2_7 3.109818 1_455
Hg2_4 Ti0_0 2.954640 1_555
Hg2_4 Ti0_2 2.954640 1_545
Hg2_4 Ti0_4 2.954640 1_555
Hg2_4 Ti0_6 2.954640 1_545
Hg2_4 Ti1_4 2.958743 1_555
Hg2_4 Ti1_2 2.958743 1_545
Hg2_4 Ti1_0 2.958743 1_555
Hg2_4 Ti1_6 2.958743 1_545
Hg2_4 Hg2_6 3.109818 1_545
Hg2_4 Hg2_6 3.109818 1_555
Hg2_5 Ti0_5 2.954640 1_555
Hg2_5 Ti0_3 2.954640 1_545
Hg2_5 Ti0_1 2.954640 1_555
Hg2_5 Ti0_7 2.954640 1_545
Hg2_5 Ti1_7 2.958743 1_545
Hg2_5 Ti1_1 2.958743 1_555
Hg2_5 Ti1_3 2.958743 1_545
Hg2_5 Ti1_5 2.958743 1_555
Hg2_5 Hg2_7 3.109818 1_555
Hg2_5 Hg2_7 3.109818 1_545
Hg2_6 Ti0_0 2.954640 1_555
Hg2_6 Ti0_4 2.954640 1_555
Hg2_6 Ti0_6 2.954640 1_555
Hg2_6 Ti0_2 2.954640 1_555
Hg2_6 Ti1_4 2.958743 1_555
Hg2_6 Ti1_2 2.958743 1_555
Hg2_6 Ti1_6 2.958743 1_555
Hg2_6 Ti1_0 2.958743 1_555
Hg2_7 Ti0_5 2.954640 1_555
Hg2_7 Ti0_3 2.954640 1_555
Hg2_7 Ti0_7 2.954640 1_555
Hg2_7 Ti0_1 2.954640 1_555
Hg2_7 Ti1_3 2.958743 1_555
Hg2_7 Ti1_7 2.958743 1_555
Hg2_7 Ti1_1 2.958743 1_555
Hg2_7 Ti1_5 2.958743 1_555
Hg3_0 Ti2_2 2.954640 1_545
Hg3_0 Ti2_6 2.954640 1_445
Hg3_0 Ti2_0 2.954640 1_555
Hg3_0 Ti2_4 2.954640 1_455
Hg3_0 Ti1_0 2.958743 1_555
Hg3_0 Ti1_4 2.958743 1_455
Hg3_0 Ti1_6 2.958743 1_445
Hg3_0 Ti1_2 2.958743 1_545
Hg3_0 Hg3_2 3.109818 1_545
Hg3_0 Hg3_2 3.109818 1_555
Hg3_0 Hg3_4 3.109818 1_455
Hg3_0 Hg3_4 3.109818 1_555
Hg3_1 Ti2_1 2.954640 1_555
Hg3_1 Ti2_3 2.954640 1_545
Hg3_1 Ti2_7 2.954640 1_445
Hg3_1 Ti2_5 2.954640 1_455
Hg3_1 Ti1_7 2.958743 1_445
Hg3_1 Ti1_1 2.958743 1_555
Hg3_1 Ti1_3 2.958743 1_545
Hg3_1 Ti1_5 2.958743 1_455
Hg3_1 Hg3_5 3.109818 1_455
Hg3_1 Hg3_5 3.109818 1_555
Hg3_1 Hg3_3 3.109818 1_545
Hg3_1 Hg3_3 3.109818 1_555
Hg3_2 Ti2_2 2.954640 1_555
Hg3_2 Ti2_6 2.954640 1_455
Hg3_2 Ti2_0 2.954640 1_555
Hg3_2 Ti2_4 2.954640 1_455
Hg3_2 Ti1_0 2.958743 1_555
Hg3_2 Ti1_2 2.958743 1_555
Hg3_2 Ti1_4 2.958743 1_455
Hg3_2 Ti1_6 2.958743 1_455
Hg3_2 Hg3_6 3.109818 1_455
Hg3_2 Hg3_6 3.109818 1_555
Hg3_3 Ti2_3 2.954640 1_555
Hg3_3 Ti2_1 2.954640 1_555
Hg3_3 Ti2_7 2.954640 1_455
Hg3_3 Ti2_5 2.954640 1_455
Hg3_3 Ti1_3 2.958743 1_555
Hg3_3 Ti1_7 2.958743 1_455
Hg3_3 Ti1_1 2.958743 1_555
Hg3_3 Ti1_5 2.958743 1_455
Hg3_3 Hg3_7 3.109818 1_455
Hg3_3 Hg3_7 3.109818 1_555
Hg3_4 Ti2_2 2.954640 1_545
Hg3_4 Ti2_0 2.954640 1_555
Hg3_4 Ti2_6 2.954640 1_545
Hg3_4 Ti2_4 2.954640 1_555
Hg3_4 Ti1_0 2.958743 1_555
Hg3_4 Ti1_6 2.958743 1_545
Hg3_4 Ti1_4 2.958743 1_555
Hg3_4 Ti1_2 2.958743 1_545
Hg3_4 Hg3_6 3.109818 1_545
Hg3_4 Hg3_6 3.109818 1_555
Hg3_5 Ti2_5 2.954640 1_555
Hg3_5 Ti2_1 2.954640 1_555
Hg3_5 Ti2_3 2.954640 1_545
Hg3_5 Ti2_7 2.954640 1_545
Hg3_5 Ti1_1 2.958743 1_555
Hg3_5 Ti1_3 2.958743 1_545
Hg3_5 Ti1_7 2.958743 1_545
Hg3_5 Ti1_5 2.958743 1_555
Hg3_5 Hg3_7 3.109818 1_555
Hg3_5 Hg3_7 3.109818 1_545
Hg3_6 Ti2_2 2.954640 1_555
Hg3_6 Ti2_0 2.954640 1_555
Hg3_6 Ti2_6 2.954640 1_555
Hg3_6 Ti2_4 2.954640 1_555
Hg3_6 Ti1_0 2.958743 1_555
Hg3_6 Ti1_2 2.958743 1_555
Hg3_6 Ti1_6 2.958743 1_555
Hg3_6 Ti1_4 2.958743 1_555
Hg3_7 Ti2_5 2.954640 1_555
Hg3_7 Ti2_3 2.954640 1_555
Hg3_7 Ti2_1 2.954640 1_555
Hg3_7 Ti2_7 2.954640 1_555
Hg3_7 Ti1_3 2.958743 1_555
Hg3_7 Ti1_7 2.958743 1_555
Hg3_7 Ti1_1 2.958743 1_555
Hg3_7 Ti1_5 2.958743 1_555
