# generated using pymatgen
data_ZnH20PdC4(NO3)4
_symmetry_space_group_name_H-M   'P 1'
_cell_length_a   7.29573600
_cell_length_b   7.61763500
_cell_length_c   9.20781905
_cell_angle_alpha   114.43434740
_cell_angle_beta   113.33900684
_cell_angle_gamma   90.00000000
_symmetry_Int_Tables_number   1
_chemical_formula_structural   ZnH20PdC4(NO3)4
_chemical_formula_sum   'Zn1 H20 Pd1 C4 N4 O12'
_cell_volume   419.48072785
_cell_formula_units_Z   1
loop_
 _symmetry_equiv_pos_site_id
 _symmetry_equiv_pos_as_xyz
  1  'x, y, z'
loop_
 _atom_site_type_symbol
 _atom_site_label
 _atom_site_symmetry_multiplicity
 _atom_site_fract_x
 _atom_site_fract_y
 _atom_site_fract_z
 _atom_site_occupancy
  Zn  Zn0  1  0.00000000  0.50000000  0.00000000  1
  H  H0  1  0.70939400  0.36416500  0.17897200  1
  H  H1  1  0.46957800  0.81480800  0.17897200  1
  H  H2  1  0.53042200  0.63583500  0.82102800  1
  H  H3  1  0.29060600  0.18519200  0.82102800  1
  H  H4  1  0.66495800  0.29796600  0.31393000  1
  H  H5  1  0.64897200  0.01596400  0.31393000  1
  H  H6  1  0.35102800  0.70203400  0.68607000  1
  H  H7  1  0.33504200  0.98403600  0.68607000  1
  H  H8  1  0.48506100  0.36906100  0.18302100  1
  H  H9  1  0.69796000  0.81396000  0.18302100  1
  H  H10  1  0.30204000  0.63093900  0.81697900  1
  H  H11  1  0.51493900  0.18604000  0.81697900  1
  H  H12  1  0.94493400  0.09006100  0.89220500  1
  H  H13  1  0.94727100  0.80214400  0.89220500  1
  H  H14  1  0.05272900  0.90993900  0.10779500  1
  H  H15  1  0.05506600  0.19785600  0.10779500  1
  H  H16  1  0.70265800  0.81155000  0.62217000  1
  H  H17  1  0.91951200  0.81062000  0.62217000  1
  H  H18  1  0.08048800  0.18845000  0.37783000  1
  H  H19  1  0.29734300  0.18938000  0.37783000  1
  Pd  Pd0  1  0.50000000  0.00000000  0.00000000  1
  C  C0  1  0.71013600  0.31708800  0.63614000  1
  C  C1  1  0.92600400  0.31905200  0.63614000  1
  C  C2  1  0.07399600  0.68291200  0.36386000  1
  C  C3  1  0.28986400  0.68094800  0.36386000  1
  N  N0  1  0.60039900  0.29109800  0.18953400  1
  N  N1  1  0.58913600  0.89843600  0.18953400  1
  N  N2  1  0.41086400  0.70890200  0.81046600  1
  N  N3  1  0.39960100  0.10156400  0.81046600  1
  O  O0  1  0.70642100  0.39120500  0.78763400  1
  O  O1  1  0.08121300  0.39642900  0.78763400  1
  O  O2  1  0.91878700  0.60879500  0.21236600  1
  O  O3  1  0.29357900  0.60357100  0.21236600  1
  O  O4  1  0.55896300  0.24328600  0.48778300  1
  O  O5  1  0.92882000  0.24449700  0.48778300  1
  O  O6  1  0.07118000  0.75671400  0.51221700  1
  O  O7  1  0.44103700  0.75550300  0.51221700  1
  O  O8  1  0.00000000  0.21838300  0.00000000  1
  O  O9  1  0.00000000  0.78161700  0.00000000  1
  O  O10  1  0.85117600  0.85117600  0.70235200  1
  O  O11  1  0.14882400  0.14882400  0.29764800  1
loop_
_geom_bond_atom_site_label_1
_geom_bond_atom_site_label_2
_geom_bond_distance
_geom_bond_site_symmetry_2
H0 N0 1.028425 1_555
H1 N1 1.028427 1_555
H2 N2 1.028431 1_555
H3 N3 1.028421 1_555
H4 N0 1.029329 1_555
H5 N1 1.029329 1_545
H6 N2 1.029329 1_555
H7 N3 1.029329 1_565
H8 N0 1.026581 1_555
H9 N1 1.026575 1_555
H10 N2 1.026575 1_555
H11 N3 1.026581 1_555
H12 O8 0.991700 1_656
H13 O9 0.991700 1_656
H14 O9 0.991700 1_555
H15 O8 0.991700 1_555
H16 O10 0.996016 1_555
H17 O10 0.996016 1_555
H18 O11 0.996016 1_555
H19 O11 0.996022 1_555
C0 O4 1.252776 1_555
C0 O0 1.282080 1_555
C1 O5 1.252776 1_555
C1 O1 1.282080 1_655
C2 O6 1.252776 1_555
C2 O2 1.282080 1_455
C3 O7 1.252776 1_555
C3 O3 1.282080 1_555
N0 Pd0 2.070019 1_555
N1 Pd0 2.070019 1_565
N2 Pd0 2.070019 1_566
N3 Pd0 2.070019 1_556
O0 Zn0 2.106873 1_656
O1 Zn0 2.106873 1_556
O2 Zn0 2.106873 1_655
O3 Zn0 2.106873 1_555
O8 Zn0 2.145256 1_555
O9 Zn0 2.145256 1_555
