# generated using pymatgen
data_UCrCo
_symmetry_space_group_name_H-M   'P 1'
_cell_length_a   5.09126662
_cell_length_b   5.09126662
_cell_length_c   5.09126662
_cell_angle_alpha   127.83537681
_cell_angle_beta   120.06969934
_cell_angle_gamma   83.42821552
_symmetry_Int_Tables_number   1
_chemical_formula_structural   UCrCo
_chemical_formula_sum   'U2 Cr2 Co2'
_cell_volume   86.53332705
_cell_formula_units_Z   2
loop_
 _symmetry_equiv_pos_site_id
 _symmetry_equiv_pos_as_xyz
  1  'x, y, z'
loop_
 _atom_site_type_symbol
 _atom_site_label
 _atom_site_symmetry_multiplicity
 _atom_site_fract_x
 _atom_site_fract_y
 _atom_site_fract_z
 _atom_site_occupancy
  U  U0  1  0.39337800  0.14337800  0.25000000  1
  U  U1  1  0.60662200  0.85662200  0.75000000  1
  Cr  Cr0  1  0.00000000  0.50000000  0.00000000  1
  Cr  Cr1  1  0.00000000  0.00000000  0.50000000  1
  Co  Co0  1  0.50000000  0.50000000  0.00000000  1
  Co  Co1  1  0.00000000  0.50000000  0.50000000  1
loop_
_geom_bond_atom_site_label_1
_geom_bond_atom_site_label_2
_geom_bond_distance
_geom_bond_site_symmetry_2
U0 U1 2.763658 1_544
U0 U1 2.763658 1_555
Cr0 Cr1 2.238436 1_554
Cr0 Cr1 2.238436 1_565
Cr0 U1 2.894141 1_454
Cr0 U0 2.894141 1_555
Cr0 U1 2.894141 1_555
Cr0 U0 2.894141 1_454
Cr0 U0 3.192670 1_565
Cr0 U1 3.192670 1_444
Cr1 U1 2.894141 1_545
Cr1 U0 2.894141 1_455
Cr1 U1 2.894141 1_444
Cr1 U0 2.894141 1_556
Cr1 U0 3.192670 1_555
Cr1 U1 3.192670 1_445
Co0 Co1 2.542951 1_655
Co0 Co1 2.542951 1_554
Co0 Cr0 2.545633 1_655
Co0 Cr1 2.545633 1_554
Co0 Cr1 2.545633 1_665
Co0 Cr0 2.545633 1_555
Co0 U0 2.795522 1_565
Co0 U0 2.795522 1_554
Co0 U1 2.795522 1_544
Co0 U1 2.795522 1_555
Co0 U0 2.994070 1_555
Co0 U1 2.994070 1_554
Co1 Cr1 2.545633 1_565
Co1 Cr1 2.545633 1_555
Co1 Cr0 2.545633 1_555
Co1 Cr0 2.545633 1_556
Co1 U1 2.795522 1_444
Co1 U0 2.795522 1_566
Co1 U1 2.795522 1_455
Co1 U0 2.795522 1_555
Co1 U0 2.994070 1_455
Co1 U1 2.994070 1_555
