# generated using pymatgen
data_LiMg14Cd
_symmetry_space_group_name_H-M   'P 1'
_cell_length_a   6.35035261
_cell_length_b   6.35035209
_cell_length_c   10.30592931
_cell_angle_alpha   90.00000000
_cell_angle_beta   90.00000000
_cell_angle_gamma   120.00000264
_symmetry_Int_Tables_number   1
_chemical_formula_structural   LiMg14Cd
_chemical_formula_sum   'Li1 Mg14 Cd1'
_cell_volume   359.92617021
_cell_formula_units_Z   1
loop_
 _symmetry_equiv_pos_site_id
 _symmetry_equiv_pos_as_xyz
  1  'x, y, z'
loop_
 _atom_site_type_symbol
 _atom_site_label
 _atom_site_symmetry_multiplicity
 _atom_site_fract_x
 _atom_site_fract_y
 _atom_site_fract_z
 _atom_site_occupancy
  Li  Li0  1  0.16666700  0.33333300  0.12500000  1
  Mg  Mg0  1  0.16667824  0.83333862  0.12500000  1
  Mg  Mg1  1  0.16561504  0.83280702  0.62500000  1
  Mg  Mg2  1  0.66666138  0.33332176  0.12500000  1
  Mg  Mg3  1  0.66719298  0.33438496  0.62500000  1
  Mg  Mg4  1  0.66666138  0.83333862  0.12500000  1
  Mg  Mg5  1  0.66719298  0.83280702  0.62500000  1
  Mg  Mg6  1  0.33257997  0.16742003  0.37529444  1
  Mg  Mg7  1  0.33257997  0.16742003  0.87470556  1
  Mg  Mg8  1  0.33257997  0.66516094  0.37529444  1
  Mg  Mg9  1  0.33257997  0.66516094  0.87470556  1
  Mg  Mg10  1  0.83483906  0.16742003  0.37529444  1
  Mg  Mg11  1  0.83483906  0.16742003  0.87470556  1
  Mg  Mg12  1  0.83333300  0.66666700  0.37414987  1
  Mg  Mg13  1  0.83333300  0.66666700  0.87585013  1
  Cd  Cd0  1  0.16666700  0.33333300  0.62500000  1
loop_
_geom_bond_atom_site_label_1
_geom_bond_atom_site_label_2
_geom_bond_distance
_geom_bond_site_symmetry_2
Li0 Mg7 3.159773 1_554
Li0 Mg6 3.159773 1_555
Li0 Mg8 3.159779 1_555
Li0 Mg9 3.159779 1_554
Li0 Mg10 3.159779 1_455
Li0 Mg11 3.159779 1_454
Li0 Mg0 3.175176 1_555
Li0 Mg0 3.175176 1_545
Li0 Mg4 3.175176 1_555
Li0 Mg4 3.175176 1_445
Li0 Mg2 3.175176 1_555
Li0 Mg2 3.175176 1_455
Mg0 Mg12 3.154998 1_455
Mg0 Mg13 3.154998 1_454
Mg0 Mg8 3.166955 1_555
Mg0 Mg9 3.166955 1_554
Mg0 Mg6 3.166961 1_565
Mg0 Mg7 3.166961 1_564
Mg0 Mg2 3.175069 1_565
Mg0 Mg4 3.175069 1_555
Mg0 Mg2 3.175283 1_455
Mg0 Mg4 3.175283 1_455
Mg1 Mg9 3.163705 1_555
Mg1 Mg8 3.163705 1_555
Mg1 Mg7 3.163712 1_565
Mg1 Mg6 3.163712 1_565
Mg1 Mg3 3.165156 1_455
Mg1 Mg5 3.165156 1_455
Mg1 Mg12 3.165897 1_455
Mg1 Mg13 3.165897 1_455
Mg1 Mg3 3.185197 1_565
Mg1 Mg5 3.185197 1_555
Mg2 Mg7 3.166961 1_554
Mg2 Mg6 3.166961 1_555
Mg2 Mg4 3.175069 1_545
Mg2 Mg4 3.175283 1_555
Mg3 Mg6 3.163712 1_555
Mg3 Mg7 3.163712 1_555
Mg3 Mg5 3.165156 1_555
Mg3 Mg5 3.185197 1_545
Mg4 Mg8 3.166961 1_555
Mg4 Mg9 3.166961 1_554
Mg5 Mg8 3.163712 1_555
Mg5 Mg9 3.163712 1_555
Mg6 Mg8 3.160830 1_555
Mg6 Mg8 3.189522 1_545
Mg7 Mg9 3.160830 1_555
Mg7 Mg9 3.189522 1_545
Mg10 Mg8 3.160830 1_655
Mg10 Mg6 3.160830 1_655
Mg10 Mg3 3.163705 1_555
Mg10 Mg5 3.163712 1_545
Mg10 Mg2 3.166955 1_555
Mg10 Mg4 3.166961 1_545
Mg10 Mg12 3.175209 1_545
Mg10 Mg12 3.175209 1_555
Mg10 Mg8 3.189522 1_545
Mg10 Mg6 3.189522 1_555
Mg11 Mg9 3.160830 1_655
Mg11 Mg7 3.160830 1_655
Mg11 Mg3 3.163705 1_555
Mg11 Mg5 3.163712 1_545
Mg11 Mg2 3.166955 1_556
Mg11 Mg4 3.166961 1_546
Mg11 Mg13 3.175209 1_545
Mg11 Mg13 3.175209 1_555
Mg11 Mg9 3.189522 1_545
Mg11 Mg7 3.189522 1_555
Mg12 Mg4 3.154992 1_555
Mg12 Mg2 3.154998 1_555
Mg12 Mg5 3.165890 1_555
Mg12 Mg3 3.165897 1_555
Mg12 Mg6 3.175209 1_665
Mg12 Mg6 3.175209 1_555
Mg12 Mg8 3.175209 1_655
Mg12 Mg8 3.175209 1_555
Mg13 Mg4 3.154992 1_556
Mg13 Mg2 3.154998 1_556
Mg13 Mg5 3.165890 1_555
Mg13 Mg3 3.165897 1_555
Mg13 Mg7 3.175209 1_665
Mg13 Mg7 3.175209 1_555
Mg13 Mg9 3.175209 1_655
Mg13 Mg9 3.175209 1_555
Cd0 Mg6 3.154820 1_555
Cd0 Mg7 3.154820 1_555
Cd0 Mg8 3.154826 1_555
Cd0 Mg9 3.154826 1_555
Cd0 Mg10 3.154826 1_455
Cd0 Mg11 3.154826 1_455
Cd0 Mg1 3.175181 1_545
Cd0 Mg1 3.175181 1_555
Cd0 Mg5 3.175181 1_445
Cd0 Mg5 3.175181 1_555
Cd0 Mg3 3.175182 1_455
Cd0 Mg3 3.175182 1_555
