# generated using pymatgen
data_Ba2ZnCu3F14
_symmetry_space_group_name_H-M   'P 1'
_cell_length_a   7.40316309
_cell_length_b   7.40316309
_cell_length_c   14.56251796
_cell_angle_alpha   88.75563165
_cell_angle_beta   88.75563165
_cell_angle_gamma   41.82936834
_symmetry_Int_Tables_number   1
_chemical_formula_structural   Ba2ZnCu3F14
_chemical_formula_sum   'Ba4 Zn2 Cu6 F28'
_cell_volume   532.13750188
_cell_formula_units_Z   2
loop_
 _symmetry_equiv_pos_site_id
 _symmetry_equiv_pos_as_xyz
  1  'x, y, z'
loop_
 _atom_site_type_symbol
 _atom_site_label
 _atom_site_symmetry_multiplicity
 _atom_site_fract_x
 _atom_site_fract_y
 _atom_site_fract_z
 _atom_site_occupancy
  Ba  Ba0  1  0.11904100  0.26335500  0.87689600  1
  Ba  Ba1  1  0.26335500  0.11904100  0.37689600  1
  Ba  Ba2  1  0.88095900  0.73664500  0.12310400  1
  Ba  Ba3  1  0.73664500  0.88095900  0.62310400  1
  Zn  Zn0  1  0.42333900  0.57666100  0.75000000  1
  Zn  Zn1  1  0.57666100  0.42333900  0.25000000  1
  Cu  Cu0  1  0.10068900  0.13814700  0.62745100  1
  Cu  Cu1  1  0.89931100  0.86185300  0.37254900  1
  Cu  Cu2  1  0.13814700  0.10068900  0.12745100  1
  Cu  Cu3  1  0.86185300  0.89931100  0.87254900  1
  Cu  Cu4  1  0.50000000  0.50000000  0.50000000  1
  Cu  Cu5  1  0.50000000  0.50000000  0.00000000  1
  F  F0  1  0.89880600  0.08539700  0.16082300  1
  F  F1  1  0.85114500  0.40693400  0.04330300  1
  F  F2  1  0.14885500  0.59306600  0.95669700  1
  F  F3  1  0.66282900  0.83784000  0.90371000  1
  F  F4  1  0.60754500  0.49439100  0.87714700  1
  F  F5  1  0.50560900  0.39245500  0.62285300  1
  F  F6  1  0.40693400  0.85114500  0.54330300  1
  F  F7  1  0.91460300  0.10119400  0.33917700  1
  F  F8  1  0.36698400  0.96028300  0.72525500  1
  F  F9  1  0.33717100  0.16216000  0.09629000  1
  F  F10  1  0.80665500  0.42515000  0.71040600  1
  F  F11  1  0.16216000  0.33717100  0.59629000  1
  F  F12  1  0.42515000  0.80665500  0.21040600  1
  F  F13  1  0.19334500  0.57485000  0.28959400  1
  F  F14  1  0.49439100  0.60754500  0.37714700  1
  F  F15  1  0.63301600  0.03971700  0.27474500  1
  F  F16  1  0.13162600  0.70880000  0.48158500  1
  F  F17  1  0.10119400  0.91460300  0.83917700  1
  F  F18  1  0.86837400  0.29120000  0.51841500  1
  F  F19  1  0.70880000  0.13162600  0.98158500  1
  F  F20  1  0.59306600  0.14885500  0.45669700  1
  F  F21  1  0.57485000  0.19334500  0.78959400  1
  F  F22  1  0.96028300  0.36698400  0.22525500  1
  F  F23  1  0.29120000  0.86837400  0.01841500  1
  F  F24  1  0.39245500  0.50560900  0.12285300  1
  F  F25  1  0.08539700  0.89880600  0.66082300  1
  F  F26  1  0.03971700  0.63301600  0.77474500  1
  F  F27  1  0.83784000  0.66282900  0.40371000  1
loop_
_geom_bond_atom_site_label_1
_geom_bond_atom_site_label_2
_geom_bond_distance
_geom_bond_site_symmetry_2
Ba0 F8 2.679830 1_545
Ba0 F3 2.719977 1_545
Ba0 F26 2.741016 1_555
Ba0 F17 2.749242 1_545
Ba0 F4 2.758998 1_455
Ba0 F1 2.774370 1_456
Ba0 F3 2.873300 1_455
Ba0 F2 2.880007 1_555
Ba0 F10 2.941181 1_455
Ba0 F23 2.953027 1_546
Ba1 F22 2.679830 1_455
Ba1 F27 2.719977 1_455
Ba1 F15 2.741016 1_555
Ba1 F7 2.749242 1_455
Ba1 F14 2.758998 1_545
Ba1 F6 2.774370 1_545
Ba1 F27 2.873300 1_545
Ba1 F20 2.880007 1_555
Ba1 F12 2.941181 1_545
Ba1 F18 2.953027 1_455
Ba2 F15 2.679830 1_565
Ba2 F9 2.719977 1_565
Ba2 F22 2.741016 1_555
Ba2 F0 2.749242 1_565
Ba2 F24 2.758998 1_655
Ba2 F2 2.774370 1_654
Ba2 F9 2.873300 1_655
Ba2 F1 2.880007 1_555
Ba2 F13 2.941181 1_655
Ba2 F19 2.953027 1_564
Ba3 F26 2.679830 1_655
Ba3 F11 2.719977 1_655
Ba3 F8 2.741016 1_555
Ba3 F25 2.749242 1_655
Ba3 F5 2.758998 1_565
Ba3 F20 2.774370 1_565
Ba3 F11 2.873300 1_565
Ba3 F6 2.880007 1_555
Ba3 F21 2.941181 1_565
Ba3 F16 2.953027 1_655
Cu0 F11 1.882867 1_555
Cu0 F25 1.909896 1_545
Cu0 F10 1.953681 1_455
Cu0 F8 1.954699 1_545
Cu0 F18 1.974679 1_455
Cu0 F6 1.992430 1_545
Cu1 F27 1.882867 1_555
Cu1 F7 1.909896 1_565
Cu1 F13 1.953681 1_655
Cu1 F15 1.954699 1_565
Cu1 F16 1.974679 1_655
Cu1 F20 1.992430 1_565
Cu2 F9 1.882867 1_555
Cu2 F0 1.909896 1_455
Cu2 F12 1.953681 1_545
Cu2 F22 1.954699 1_455
Cu2 F23 1.974679 1_545
Cu2 F1 1.992430 1_455
Cu3 F3 1.882867 1_555
Cu3 F17 1.909896 1_655
Cu3 F21 1.953681 1_565
Cu3 F26 1.954699 1_655
Cu3 F19 1.974679 1_565
Cu3 F2 1.992430 1_655
Cu4 F18 1.905273 1_555
Cu4 F16 1.905273 1_555
Cu4 F14 1.930908 1_555
Cu4 F5 1.930908 1_555
Cu4 F6 2.239050 1_555
Cu4 F20 2.239050 1_555
Cu5 F23 1.905273 1_555
Cu5 F19 1.905273 1_554
Cu5 F24 1.930908 1_555
Cu5 F4 1.930908 1_554
Cu5 F1 2.239050 1_555
Cu5 F2 2.239050 1_554
F0 Zn1 2.179017 1_555
F4 Zn0 2.117051 1_555
F5 Zn0 2.117051 1_555
F7 Zn1 2.179017 1_555
F10 Zn0 2.203841 1_555
F12 Zn1 2.203841 1_555
F13 Zn1 2.203841 1_555
F14 Zn1 2.117051 1_555
F17 Zn0 2.179017 1_555
F21 Zn0 2.203841 1_555
F24 Zn1 2.117051 1_555
F25 Zn0 2.179017 1_555
