# generated using pymatgen
data_SrLa2Ti3O9
_symmetry_space_group_name_H-M   'P 1'
_cell_length_a   5.58506820
_cell_length_b   5.58506820
_cell_length_c   6.83067200
_cell_angle_alpha   90.00000000
_cell_angle_beta   90.00000000
_cell_angle_gamma   120.00000236
_symmetry_Int_Tables_number   1
_chemical_formula_structural   SrLa2Ti3O9
_chemical_formula_sum   'Sr1 La2 Ti3 O9'
_cell_volume   184.52321560
_cell_formula_units_Z   1
loop_
 _symmetry_equiv_pos_site_id
 _symmetry_equiv_pos_as_xyz
  1  'x, y, z'
loop_
 _atom_site_type_symbol
 _atom_site_label
 _atom_site_symmetry_multiplicity
 _atom_site_fract_x
 _atom_site_fract_y
 _atom_site_fract_z
 _atom_site_occupancy
  Sr  Sr0  1  0.00000000  0.00000000  0.00000000  1
  La  La0  1  0.66666700  0.33333300  0.33081200  1
  La  La1  1  0.33333300  0.66666700  0.66918800  1
  Ti  Ti0  1  0.00000000  0.00000000  0.50000000  1
  Ti  Ti1  1  0.66666700  0.33333300  0.83539400  1
  Ti  Ti2  1  0.33333300  0.66666700  0.16460600  1
  O  O0  1  0.66383800  0.83191900  0.33628300  1
  O  O1  1  0.33616200  0.16808100  0.66371700  1
  O  O2  1  0.00000000  0.50000000  0.00000000  1
  O  O3  1  0.83191900  0.66383800  0.66371700  1
  O  O4  1  0.50000000  0.00000000  0.00000000  1
  O  O5  1  0.16808100  0.33616200  0.33628300  1
  O  O6  1  0.83191900  0.16808100  0.66371700  1
  O  O7  1  0.50000000  0.50000000  0.00000000  1
  O  O8  1  0.16808100  0.83191900  0.33628300  1
loop_
_geom_bond_atom_site_label_1
_geom_bond_atom_site_label_2
_geom_bond_distance
_geom_bond_site_symmetry_2
La0 O4 2.775880 1_555
La0 O2 2.775880 1_655
La0 O7 2.775883 1_555
La0 O6 2.779639 1_555
La0 O3 2.779641 1_555
La0 O1 2.779641 1_555
La0 O5 2.792815 1_655
La0 O0 2.792815 1_545
La0 O8 2.792818 1_655
La0 O8 2.792818 1_545
La0 O0 2.792820 1_555
La0 O5 2.792820 1_555
La1 O4 2.775880 1_566
La1 O2 2.775880 1_556
La1 O7 2.775883 1_556
La1 O8 2.779639 1_555
La1 O0 2.779641 1_555
La1 O5 2.779641 1_555
La1 O1 2.792815 1_565
La1 O3 2.792815 1_455
La1 O6 2.792818 1_565
La1 O6 2.792818 1_455
La1 O3 2.792820 1_555
La1 O1 2.792820 1_555
O0 Ti0 1.973400 1_665
O0 Ti2 1.982585 1_555
O0 Sr0 2.814269 1_665
O1 Ti0 1.973400 1_555
O1 Ti1 1.982585 1_555
O1 Sr0 2.814269 1_556
O2 Ti1 1.965609 1_454
O2 Ti2 1.965609 1_555
O2 Sr0 2.792534 1_565
O2 Sr0 2.792534 1_555
O3 Ti0 1.973400 1_665
O3 Ti1 1.982585 1_555
O3 Sr0 2.814269 1_666
O4 Ti1 1.965609 1_554
O4 Ti2 1.965609 1_545
O4 Sr0 2.792534 1_655
O4 Sr0 2.792534 1_555
O5 Ti0 1.973400 1_555
O5 Ti2 1.982585 1_555
O5 Sr0 2.814269 1_555
O6 Ti0 1.973400 1_655
O6 Ti1 1.982581 1_555
O6 Sr0 2.814269 1_656
O7 Ti1 1.965613 1_554
O7 Ti2 1.965613 1_555
O7 Sr0 2.792534 1_555
O7 Sr0 2.792534 1_665
O8 Ti0 1.973400 1_565
O8 Ti2 1.982581 1_555
O8 Sr0 2.814269 1_565
