# generated using pymatgen
data_Cs7NaSi8
_symmetry_space_group_name_H-M   'P 1'
_cell_length_a   13.61452382
_cell_length_b   13.61452382
_cell_length_c   13.61452382
_cell_angle_alpha   90.00000000
_cell_angle_beta   90.00000000
_cell_angle_gamma   90.00000000
_symmetry_Int_Tables_number   1
_chemical_formula_structural   Cs7NaSi8
_chemical_formula_sum   'Cs28 Na4 Si32'
_cell_volume   2523.52358671
_cell_formula_units_Z   4
loop_
 _symmetry_equiv_pos_site_id
 _symmetry_equiv_pos_as_xyz
  1  'x, y, z'
loop_
 _atom_site_type_symbol
 _atom_site_label
 _atom_site_symmetry_multiplicity
 _atom_site_fract_x
 _atom_site_fract_y
 _atom_site_fract_z
 _atom_site_occupancy
  Cs  Cs0  1  0.22614528  0.68728298  0.45642968  1
  Cs  Cs1  1  0.77385472  0.18728298  0.04357032  1
  Cs  Cs2  1  0.27385472  0.31271702  0.95642968  1
  Cs  Cs3  1  0.72614528  0.81271702  0.54357032  1
  Cs  Cs4  1  0.45642968  0.22614528  0.68728298  1
  Cs  Cs5  1  0.04357032  0.77385472  0.18728298  1
  Cs  Cs6  1  0.95642968  0.27385472  0.31271702  1
  Cs  Cs7  1  0.54357032  0.72614528  0.81271702  1
  Cs  Cs8  1  0.68728298  0.45642968  0.22614528  1
  Cs  Cs9  1  0.18728298  0.04357032  0.77385472  1
  Cs  Cs10  1  0.31271702  0.95642968  0.27385472  1
  Cs  Cs11  1  0.81271702  0.54357032  0.72614528  1
  Cs  Cs12  1  0.77385472  0.31271702  0.54357032  1
  Cs  Cs13  1  0.22614528  0.81271702  0.95642968  1
  Cs  Cs14  1  0.72614528  0.68728298  0.04357032  1
  Cs  Cs15  1  0.27385472  0.18728298  0.45642968  1
  Cs  Cs16  1  0.54357032  0.77385472  0.31271702  1
  Cs  Cs17  1  0.95642968  0.22614528  0.81271702  1
  Cs  Cs18  1  0.04357032  0.72614528  0.68728298  1
  Cs  Cs19  1  0.45642968  0.27385472  0.18728298  1
  Cs  Cs20  1  0.31271702  0.54357032  0.77385472  1
  Cs  Cs21  1  0.81271702  0.95642968  0.22614528  1
  Cs  Cs22  1  0.68728298  0.04357032  0.72614528  1
  Cs  Cs23  1  0.18728298  0.45642968  0.27385472  1
  Cs  Cs24  1  0.00000000  -0.00000000  0.50000000  1
  Cs  Cs25  1  0.00000000  0.50000000  -0.00000000  1
  Cs  Cs26  1  0.50000000  -0.00000000  -0.00000000  1
  Cs  Cs27  1  0.50000000  0.50000000  0.50000000  1
  Na  Na0  1  0.50000000  0.50000000  -0.00000000  1
  Na  Na1  1  0.50000000  -0.00000000  0.50000000  1
  Na  Na2  1  0.00000000  0.50000000  0.50000000  1
  Na  Na3  1  0.00000000  -0.00000000  -0.00000000  1
  Si  Si0  1  0.30513797  0.69486203  0.19486203  1
  Si  Si1  1  0.69486203  0.19486203  0.30513797  1
  Si  Si2  1  0.19486203  0.30513797  0.69486203  1
  Si  Si3  1  0.80513797  0.80513797  0.80513797  1
  Si  Si4  1  0.69486203  0.30513797  0.80513797  1
  Si  Si5  1  0.30513797  0.80513797  0.69486203  1
  Si  Si6  1  0.80513797  0.69486203  0.30513797  1
  Si  Si7  1  0.19486203  0.19486203  0.19486203  1
  Si  Si8  1  0.42311739  0.56203511  0.19733121  1
  Si  Si9  1  0.57688261  0.06203511  0.30266879  1
  Si  Si10  1  0.07688261  0.43796489  0.69733121  1
  Si  Si11  1  0.92311739  0.93796489  0.80266879  1
  Si  Si12  1  0.19733121  0.42311739  0.56203511  1
  Si  Si13  1  0.30266879  0.57688261  0.06203511  1
  Si  Si14  1  0.69733121  0.07688261  0.43796489  1
  Si  Si15  1  0.80266879  0.92311739  0.93796489  1
  Si  Si16  1  0.56203511  0.19733121  0.42311739  1
  Si  Si17  1  0.06203511  0.30266879  0.57688261  1
  Si  Si18  1  0.43796489  0.69733121  0.07688261  1
  Si  Si19  1  0.93796489  0.80266879  0.92311739  1
  Si  Si20  1  0.57688261  0.43796489  0.80266879  1
  Si  Si21  1  0.42311739  0.93796489  0.69733121  1
  Si  Si22  1  0.92311739  0.56203511  0.30266879  1
  Si  Si23  1  0.07688261  0.06203511  0.19733121  1
  Si  Si24  1  0.80266879  0.57688261  0.43796489  1
  Si  Si25  1  0.69733121  0.42311739  0.93796489  1
  Si  Si26  1  0.30266879  0.92311739  0.56203511  1
  Si  Si27  1  0.19733121  0.07688261  0.06203511  1
  Si  Si28  1  0.43796489  0.80266879  0.57688261  1
  Si  Si29  1  0.93796489  0.69733121  0.42311739  1
  Si  Si30  1  0.56203511  0.30266879  0.92311739  1
  Si  Si31  1  0.06203511  0.19733121  0.07688261  1
loop_
_geom_bond_atom_site_label_1
_geom_bond_atom_site_label_2
_geom_bond_distance
_geom_bond_site_symmetry_2
Cs0 Si26 3.669012 1_555
Cs0 Si28 3.670632 1_555
Cs0 Si0 3.721398 1_555
Cs0 Si5 3.777377 1_555
Cs0 Si12 3.893045 1_555
Cs0 Si29 3.951933 1_455
Cs1 Si25 3.669012 1_554
Cs1 Si30 3.670632 1_554
Cs1 Si1 3.721398 1_555
Cs1 Si4 3.777377 1_554
Cs1 Si15 3.893045 1_544
Cs1 Si31 3.951933 1_655
Cs2 Si27 3.669012 1_556
Cs2 Si31 3.670632 1_556
Cs2 Si2 3.721398 1_555
Cs2 Si7 3.777377 1_556
Cs2 Si13 3.893045 1_556
Cs2 Si30 3.951933 1_555
Cs3 Si24 3.669012 1_555
Cs3 Si29 3.670632 1_555
Cs3 Si3 3.721398 1_555
Cs3 Si6 3.777377 1_555
Cs3 Si14 3.893045 1_565
Cs3 Si28 3.951933 1_555
Cs4 Si30 3.669012 1_555
Cs4 Si20 3.670632 1_555
Cs4 Si2 3.721398 1_555
Cs4 Si4 3.777377 1_555
Cs4 Si16 3.893045 1_555
Cs4 Si21 3.951933 1_545
Cs5 Si29 3.669012 1_455
Cs5 Si22 3.670632 1_455
Cs5 Si0 3.721398 1_555
Cs5 Si6 3.777377 1_455
Cs5 Si19 3.893045 1_454
Cs5 Si23 3.951933 1_565
Cs6 Si31 3.669012 1_655
Cs6 Si23 3.670632 1_655
Cs6 Si1 3.721398 1_555
Cs6 Si7 3.777377 1_655
Cs6 Si17 3.893045 1_655
Cs6 Si22 3.951933 1_555
Cs7 Si28 3.669012 1_555
Cs7 Si21 3.670632 1_555
Cs7 Si3 3.721398 1_555
Cs7 Si5 3.777377 1_555
Cs7 Si18 3.893045 1_556
Cs7 Si20 3.951933 1_555
Cs8 Si22 3.669012 1_555
Cs8 Si24 3.670632 1_555
Cs8 Si1 3.721398 1_555
Cs8 Si6 3.777377 1_555
Cs8 Si8 3.893045 1_555
Cs8 Si25 3.951933 1_554
Cs9 Si21 3.669012 1_545
Cs9 Si26 3.670632 1_545
Cs9 Si2 3.721398 1_555
Cs9 Si5 3.777377 1_545
Cs9 Si11 3.893045 1_445
Cs9 Si27 3.951933 1_556
Cs10 Si23 3.669012 1_565
Cs10 Si27 3.670632 1_565
Cs10 Si0 3.721398 1_555
Cs10 Si7 3.777377 1_565
Cs10 Si9 3.893045 1_565
Cs10 Si26 3.951933 1_555
Cs11 Si20 3.669012 1_555
Cs11 Si25 3.670632 1_555
Cs11 Si3 3.721398 1_555
Cs11 Si4 3.777377 1_555
Cs11 Si10 3.893045 1_655
Cs11 Si24 3.951933 1_555
Cs12 Si14 3.669012 1_555
Cs12 Si16 3.670632 1_555
Cs12 Si4 3.721398 1_555
Cs12 Si1 3.777377 1_555
Cs12 Si24 3.893045 1_555
Cs12 Si17 3.951933 1_655
Cs13 Si13 3.669012 1_556
Cs13 Si18 3.670632 1_556
Cs13 Si5 3.721398 1_555
Cs13 Si0 3.777377 1_556
Cs13 Si27 3.893045 1_566
Cs13 Si19 3.951933 1_455
Cs14 Si15 3.669012 1_554
Cs14 Si19 3.670632 1_554
Cs14 Si6 3.721398 1_555
Cs14 Si3 3.777377 1_554
Cs14 Si25 3.893045 1_554
Cs14 Si18 3.951933 1_555
Cs15 Si12 3.669012 1_555
Cs15 Si17 3.670632 1_555
Cs15 Si7 3.721398 1_555
Cs15 Si2 3.777377 1_555
Cs15 Si26 3.893045 1_545
Cs15 Si16 3.951933 1_555
Cs16 Si18 3.669012 1_555
Cs16 Si8 3.670632 1_555
Cs16 Si6 3.721398 1_555
Cs16 Si0 3.777377 1_555
Cs16 Si28 3.893045 1_555
Cs16 Si9 3.951933 1_565
Cs17 Si17 3.669012 1_655
Cs17 Si10 3.670632 1_655
Cs17 Si4 3.721398 1_555
Cs17 Si2 3.777377 1_655
Cs17 Si31 3.893045 1_656
Cs17 Si11 3.951933 1_545
Cs18 Si19 3.669012 1_455
Cs18 Si11 3.670632 1_455
Cs18 Si5 3.721398 1_555
Cs18 Si3 3.777377 1_455
Cs18 Si29 3.893045 1_455
Cs18 Si10 3.951933 1_555
Cs19 Si16 3.669012 1_555
Cs19 Si9 3.670632 1_555
Cs19 Si7 3.721398 1_555
Cs19 Si1 3.777377 1_555
Cs19 Si30 3.893045 1_554
Cs19 Si8 3.951933 1_555
Cs20 Si10 3.669012 1_555
Cs20 Si12 3.670632 1_555
Cs20 Si5 3.721398 1_555
Cs20 Si2 3.777377 1_555
Cs20 Si20 3.893045 1_555
Cs20 Si13 3.951933 1_556
Cs21 Si9 3.669012 1_565
Cs21 Si14 3.670632 1_565
Cs21 Si6 3.721398 1_555
Cs21 Si1 3.777377 1_565
Cs21 Si23 3.893045 1_665
Cs21 Si15 3.951933 1_554
Cs22 Si11 3.669012 1_545
Cs22 Si15 3.670632 1_545
Cs22 Si4 3.721398 1_555
Cs22 Si3 3.777377 1_545
Cs22 Si21 3.893045 1_545
Cs22 Si14 3.951933 1_555
Cs23 Si8 3.669012 1_555
Cs23 Si13 3.670632 1_555
Cs23 Si7 3.721398 1_555
Cs23 Si0 3.777377 1_555
Cs23 Si22 3.893045 1_455
Cs23 Si12 3.951933 1_555
Na0 Si20 3.004430 1_554
Na0 Si30 3.004430 1_554
Na0 Si13 3.004430 1_555
Na0 Si25 3.004430 1_554
Na0 Si18 3.004430 1_555
Na0 Si8 3.004430 1_555
Na1 Si28 3.004430 1_545
Na1 Si9 3.004430 1_555
Na1 Si26 3.004430 1_545
Na1 Si21 3.004430 1_545
Na1 Si14 3.004430 1_555
Na1 Si16 3.004430 1_555
Na2 Si22 3.004430 1_455
Na2 Si24 3.004430 1_455
Na2 Si10 3.004430 1_555
Na2 Si17 3.004430 1_555
Na2 Si29 3.004430 1_455
Na2 Si12 3.004430 1_555
Na3 Si19 3.004430 1_444
Na3 Si11 3.004430 1_444
Na3 Si15 3.004430 1_444
Na3 Si23 3.004430 1_555
Na3 Si27 3.004430 1_555
Na3 Si31 3.004430 1_555
Si0 Si13 2.418954 1_555
Si0 Si18 2.418954 1_555
Si0 Si8 2.418954 1_555
Si1 Si9 2.418954 1_555
Si1 Si14 2.418954 1_555
Si1 Si16 2.418954 1_555
Si10 Si2 2.418954 1_555
Si10 Si17 2.474450 1_555
Si10 Si12 2.474450 1_555
Si11 Si3 2.418954 1_555
Si11 Si15 2.474450 1_555
Si11 Si19 2.474450 1_555
Si12 Si2 2.418954 1_555
Si12 Si17 2.474450 1_555
Si13 Si18 2.474450 1_555
Si13 Si8 2.474450 1_555
Si14 Si9 2.474450 1_555
Si14 Si16 2.474450 1_555
Si15 Si3 2.418954 1_555
Si15 Si19 2.474450 1_555
Si16 Si9 2.474450 1_555
Si17 Si2 2.418954 1_555
Si18 Si8 2.474450 1_555
Si19 Si3 2.418954 1_555
Si20 Si4 2.418954 1_555
Si20 Si30 2.474450 1_555
Si20 Si25 2.474450 1_555
Si21 Si5 2.418954 1_555
Si21 Si26 2.474450 1_555
Si21 Si28 2.474450 1_555
Si22 Si6 2.418954 1_555
Si22 Si24 2.474450 1_555
Si22 Si29 2.474450 1_555
Si23 Si7 2.418954 1_555
Si23 Si31 2.474450 1_555
Si23 Si27 2.474450 1_555
Si24 Si6 2.418954 1_555
Si24 Si29 2.474450 1_555
Si25 Si4 2.418954 1_555
Si25 Si30 2.474450 1_555
Si26 Si5 2.418954 1_555
Si26 Si28 2.474450 1_555
Si27 Si7 2.418954 1_555
Si27 Si31 2.474450 1_555
Si28 Si5 2.418954 1_555
Si29 Si6 2.418954 1_555
Si30 Si4 2.418954 1_555
Si31 Si7 2.418954 1_555
