# generated using pymatgen
data_BaCr2AsO10
_symmetry_space_group_name_H-M   'P 1'
_cell_length_a   7.61627107
_cell_length_b   8.22793265
_cell_length_c   8.15894623
_cell_angle_alpha   62.13269938
_cell_angle_beta   79.09244216
_cell_angle_gamma   91.02873567
_symmetry_Int_Tables_number   1
_chemical_formula_structural   BaCr2AsO10
_chemical_formula_sum   'Ba2 Cr4 As2 O20'
_cell_volume   440.48419810
_cell_formula_units_Z   2
loop_
 _symmetry_equiv_pos_site_id
 _symmetry_equiv_pos_as_xyz
  1  'x, y, z'
loop_
 _atom_site_type_symbol
 _atom_site_label
 _atom_site_symmetry_multiplicity
 _atom_site_fract_x
 _atom_site_fract_y
 _atom_site_fract_z
 _atom_site_occupancy
  Ba  Ba0  1  0.25187900  0.71835200  0.86063500  1
  Ba  Ba1  1  0.74812100  0.28164800  0.13936500  1
  Cr  Cr0  1  0.40892600  0.80773200  0.28343300  1
  Cr  Cr1  1  0.59107400  0.19226800  0.71656700  1
  Cr  Cr2  1  0.21751700  0.25946200  0.38315500  1
  Cr  Cr3  1  0.78248300  0.74053800  0.61684500  1
  As  As0  1  0.16655100  0.27416900  0.76988200  1
  As  As1  1  0.83344900  0.72583100  0.23011800  1
  O  O0  1  0.07247200  0.39363200  0.87526500  1
  O  O1  1  0.92752800  0.60636800  0.12473500  1
  O  O2  1  0.10649100  0.03742200  0.87785100  1
  O  O3  1  0.89350900  0.96257800  0.12214900  1
  O  O4  1  0.40167000  0.31286100  0.74564100  1
  O  O5  1  0.59833000  0.68713900  0.25435900  1
  O  O6  1  0.14379800  0.36663000  0.53252800  1
  O  O7  1  0.85620200  0.63337000  0.46747200  1
  O  O8  1  0.32467600  0.73430800  0.50952200  1
  O  O9  1  0.67532400  0.26569200  0.49047800  1
  O  O10  1  0.25607300  0.76202200  0.19140300  1
  O  O11  1  0.74392700  0.23797800  0.80859700  1
  O  O12  1  0.47101100  0.03033800  0.17735400  1
  O  O13  1  0.52898900  0.96966200  0.82264600  1
  O  O14  1  0.36063100  0.40698400  0.18616100  1
  O  O15  1  0.63936900  0.59301600  0.81383900  1
  O  O16  1  0.04689100  0.18987700  0.32934500  1
  O  O17  1  0.95310900  0.81012300  0.67065500  1
  O  O18  1  0.31791800  0.08534900  0.50930100  1
  O  O19  1  0.68208200  0.91465100  0.49069900  1
loop_
_geom_bond_atom_site_label_1
_geom_bond_atom_site_label_2
_geom_bond_distance
_geom_bond_site_symmetry_2
Ba0 O8 2.752438 1_555
Ba0 O1 2.764480 1_456
Ba0 O13 2.796906 1_555
Ba0 O10 2.889971 1_556
Ba0 O17 2.907423 1_455
Ba0 O2 2.920319 1_565
Ba0 O0 2.920403 1_555
Ba0 O14 2.975105 1_556
Ba0 O18 2.982612 1_565
Ba0 O15 3.157523 1_555
Ba1 O9 2.752438 1_555
Ba1 O0 2.764480 1_654
Ba1 O12 2.796906 1_555
Ba1 O11 2.889971 1_554
Ba1 O16 2.907423 1_655
Ba1 O3 2.920319 1_545
Ba1 O1 2.920403 1_555
Ba1 O15 2.975105 1_554
Ba1 O19 2.982612 1_545
Ba1 O14 3.157523 1_555
Cr0 O10 1.624698 1_555
Cr0 O12 1.630783 1_565
Cr0 O8 1.635776 1_555
Cr0 O5 1.806566 1_555
Cr1 O11 1.624698 1_555
Cr1 O13 1.630783 1_545
Cr1 O9 1.635776 1_555
Cr1 O4 1.806566 1_555
Cr2 O16 1.622816 1_555
Cr2 O18 1.629460 1_555
Cr2 O14 1.646324 1_555
Cr2 O6 1.827976 1_555
Cr3 O17 1.622816 1_555
Cr3 O19 1.629460 1_555
Cr3 O15 1.646324 1_555
Cr3 O7 1.827976 1_555
As0 O0 1.673639 1_555
As0 O2 1.729465 1_555
As0 O6 1.764514 1_555
As0 O4 1.770258 1_555
As1 O1 1.673639 1_555
As1 O3 1.729465 1_555
As1 O7 1.764514 1_555
As1 O5 1.770258 1_555
