# generated using pymatgen
data_SmMnSi2
_symmetry_space_group_name_H-M   'P 1'
_cell_length_a   9.01213838
_cell_length_b   9.01213838
_cell_length_c   3.95443936
_cell_angle_alpha   90.00000000
_cell_angle_beta   90.00000000
_cell_angle_gamma   154.29580665
_symmetry_Int_Tables_number   1
_chemical_formula_structural   SmMnSi2
_chemical_formula_sum   'Sm2 Mn2 Si4'
_cell_volume   139.30128105
_cell_formula_units_Z   2
loop_
 _symmetry_equiv_pos_site_id
 _symmetry_equiv_pos_as_xyz
  1  'x, y, z'
loop_
 _atom_site_type_symbol
 _atom_site_label
 _atom_site_symmetry_multiplicity
 _atom_site_fract_x
 _atom_site_fract_y
 _atom_site_fract_z
 _atom_site_occupancy
  Sm  Sm0  1  0.89938196  0.10061804  0.75000000  1
  Sm  Sm1  1  0.10061804  0.89938196  0.25000000  1
  Mn  Mn0  1  0.25009825  0.74990175  0.75000000  1
  Mn  Mn1  1  0.74990175  0.25009825  0.25000000  1
  Si  Si0  1  0.67489191  0.32510809  0.75000000  1
  Si  Si1  1  0.32510809  0.67489191  0.25000000  1
  Si  Si2  1  0.53591501  0.46408499  0.75000000  1
  Si  Si3  1  0.46408499  0.53591501  0.25000000  1
loop_
_geom_bond_atom_site_label_1
_geom_bond_atom_site_label_2
_geom_bond_distance
_geom_bond_site_symmetry_2
Mn0 Si1 2.376312 1_556
Mn0 Si1 2.376312 1_555
Mn0 Si0 2.401054 1_565
Mn0 Si0 2.401054 1_455
Mn0 Sm1 3.287756 1_556
Mn0 Sm1 3.287756 1_555
Mn0 Sm0 3.301560 1_565
Mn0 Sm0 3.301560 1_455
Mn1 Si0 2.376312 1_554
Mn1 Si0 2.376312 1_555
Mn1 Si1 2.401054 1_545
Mn1 Si1 2.401054 1_655
Mn1 Sm0 3.287756 1_555
Mn1 Sm0 3.287756 1_554
Mn1 Sm1 3.301560 1_655
Mn1 Sm1 3.301560 1_545
Si0 Si2 2.442203 1_555
Si0 Sm1 3.103452 1_655
Si0 Sm1 3.103452 1_656
Si0 Sm1 3.103452 1_546
Si0 Sm1 3.103452 1_545
Si1 Si3 2.442203 1_555
Si1 Sm0 3.103452 1_454
Si1 Sm0 3.103452 1_455
Si1 Sm0 3.103452 1_565
Si1 Sm0 3.103452 1_564
Si2 Si3 2.345777 1_555
Si2 Si3 2.345777 1_556
Si2 Sm1 3.036556 1_655
Si2 Sm1 3.036556 1_656
Si2 Sm1 3.036556 1_545
Si2 Sm1 3.036556 1_546
Si2 Sm0 3.126487 1_455
Si2 Sm0 3.126487 1_565
Si3 Sm0 3.036556 1_455
Si3 Sm0 3.036556 1_454
Si3 Sm0 3.036556 1_564
Si3 Sm0 3.036556 1_565
Si3 Sm1 3.126487 1_545
Si3 Sm1 3.126487 1_655
