# generated using pymatgen
data_Ti(NbS2)3
_symmetry_space_group_name_H-M   'P 1'
_cell_length_a   5.81280398
_cell_length_b   5.81266000
_cell_length_c   12.53619922
_cell_angle_alpha   89.99977780
_cell_angle_beta   89.99973723
_cell_angle_gamma   119.98633039
_symmetry_Int_Tables_number   1
_chemical_formula_structural   Ti(NbS2)3
_chemical_formula_sum   'Ti2 Nb6 S12'
_cell_volume   366.87398727
_cell_formula_units_Z   2
loop_
 _symmetry_equiv_pos_site_id
 _symmetry_equiv_pos_as_xyz
  1  'x, y, z'
loop_
 _atom_site_type_symbol
 _atom_site_label
 _atom_site_symmetry_multiplicity
 _atom_site_fract_x
 _atom_site_fract_y
 _atom_site_fract_z
 _atom_site_occupancy
  Ti  Ti0  1  0.33308598  0.66693606  0.25001032  1
  Ti  Ti1  1  0.66699213  0.33314583  0.74998994  1
  Nb  Nb0  1  0.00030836  0.00032781  0.49995737  1
  Nb  Nb1  1  0.00006948  0.00008597  0.00004952  1
  Nb  Nb2  1  0.33266969  0.66664103  0.99789953  1
  Nb  Nb3  1  0.66672299  0.33272399  0.00217228  1
  Nb  Nb4  1  0.66711729  0.33317556  0.49785540  1
  Nb  Nb5  1  0.33312691  0.66706188  0.50206773  1
  S  S0  1  0.33179319  0.33421569  0.37402878  1
  S  S1  1  0.66667572  0.99813635  0.37362758  1
  S  S2  1  0.00226870  0.66827767  0.37407845  1
  S  S3  1  0.33415273  0.33177905  0.62593557  1
  S  S4  1  0.99812414  0.66663035  0.62629949  1
  S  S5  1  0.66826366  0.00231108  0.62584159  1
  S  S6  1  0.66830368  0.66561264  0.87416113  1
  S  S7  1  0.33341155  0.00188339  0.87368546  1
  S  S8  1  0.99775802  0.33166686  0.87403928  1
  S  S9  1  0.66565072  0.66829203  0.12592072  1
  S  S10  1  0.00182778  0.33339322  0.12638634  1
  S  S11  1  0.33167728  0.99770156  0.12599352  1
loop_
_geom_bond_atom_site_label_1
_geom_bond_atom_site_label_2
_geom_bond_distance
_geom_bond_site_symmetry_2
Nb0 S0 2.496692 1_555
Nb0 S3 2.496933 1_555
Nb0 S2 2.497523 1_545
Nb0 S5 2.497620 1_455
Nb0 S1 2.498926 1_445
Nb0 S4 2.499284 1_445
Nb1 S11 2.497048 1_545
Nb1 S8 2.497239 1_454
Nb1 S9 2.498136 1_445
Nb1 S6 2.498354 1_444
Nb1 S10 2.498446 1_555
Nb1 S7 2.498758 1_554
Nb2 S8 2.490614 1_455
Nb2 S7 2.492713 1_565
Nb2 S6 2.494838 1_555
Nb2 S11 2.508561 1_556
Nb2 S9 2.510701 1_556
Nb2 S10 2.514228 1_556
Nb3 S11 2.490703 1_545
Nb3 S10 2.492301 1_655
Nb3 S9 2.494689 1_555
Nb3 S8 2.508931 1_554
Nb3 S6 2.510317 1_554
Nb3 S7 2.514390 1_554
Nb4 S2 2.490779 1_655
Nb4 S1 2.492587 1_545
Nb4 S0 2.494154 1_555
Nb4 S5 2.507156 1_555
Nb4 S3 2.511654 1_555
Nb4 S4 2.514737 1_555
Nb5 S5 2.491076 1_565
Nb5 S4 2.492503 1_455
Nb5 S3 2.494207 1_555
Nb5 S2 2.507356 1_555
Nb5 S0 2.510907 1_555
Nb5 S1 2.515047 1_555
S0 Ti0 2.478503 1_555
S1 Ti0 2.477172 1_555
S2 Ti0 2.476278 1_555
S3 Ti1 2.479206 1_555
S4 Ti1 2.477331 1_555
S5 Ti1 2.476802 1_555
S6 Ti1 2.478525 1_555
S7 Ti1 2.477884 1_555
S8 Ti1 2.476221 1_555
S9 Ti0 2.478253 1_555
S10 Ti0 2.477246 1_555
S11 Ti0 2.475756 1_555
