# generated using pymatgen
data_ZnSnAsO5
_symmetry_space_group_name_H-M   'P 1'
_cell_length_a   8.70552900
_cell_length_b   6.86344500
_cell_length_c   8.04003971
_cell_angle_alpha   86.83396019
_cell_angle_beta   90.00000000
_cell_angle_gamma   90.00000000
_symmetry_Int_Tables_number   1
_chemical_formula_structural   ZnSnAsO5
_chemical_formula_sum   'Zn4 Sn4 As4 O20'
_cell_volume   479.65849166
_cell_formula_units_Z   4
loop_
 _symmetry_equiv_pos_site_id
 _symmetry_equiv_pos_as_xyz
  1  'x, y, z'
loop_
 _atom_site_type_symbol
 _atom_site_label
 _atom_site_symmetry_multiplicity
 _atom_site_fract_x
 _atom_site_fract_y
 _atom_site_fract_z
 _atom_site_occupancy
  Zn  Zn0  1  0.93931500  0.22217600  0.69196700  1
  Zn  Zn1  1  0.43931500  0.77782400  0.30803300  1
  Zn  Zn2  1  0.05876500  0.24583800  0.22056000  1
  Zn  Zn3  1  0.55876500  0.75416200  0.77944000  1
  Sn  Sn0  1  0.25220500  0.99213700  0.74705800  1
  Sn  Sn1  1  0.75220500  0.00786300  0.25294200  1
  Sn  Sn2  1  0.74452200  0.51040400  0.24415200  1
  Sn  Sn3  1  0.24452200  0.48959600  0.75584800  1
  As  As0  1  0.10202100  0.76204900  0.12925800  1
  As  As1  1  0.60202100  0.23795100  0.87074200  1
  As  As2  1  0.89975300  0.73932400  0.62386400  1
  As  As3  1  0.39975300  0.26067600  0.37613600  1
  O  O0  1  0.20495700  0.77635200  0.94292100  1
  O  O1  1  0.70495700  0.22364800  0.05707900  1
  O  O2  1  0.79841200  0.76783100  0.43601600  1
  O  O3  1  0.29841200  0.23216900  0.56398400  1
  O  O4  1  0.22059400  0.77843400  0.29615800  1
  O  O5  1  0.72059400  0.22156600  0.70384200  1
  O  O6  1  0.77680600  0.74769100  0.78839800  1
  O  O7  1  0.27680600  0.25230900  0.21160200  1
  O  O8  1  0.00418500  0.54201600  0.13526100  1
  O  O9  1  0.50418500  0.45798400  0.86473900  1
  O  O10  1  0.02708500  0.93582900  0.63098600  1
  O  O11  1  0.52708500  0.06417100  0.36901400  1
  O  O12  1  0.97415400  0.95915700  0.13181200  1
  O  O13  1  0.47415400  0.04084300  0.86818800  1
  O  O14  1  0.99614300  0.52005000  0.62307100  1
  O  O15  1  0.49614300  0.47995000  0.37692900  1
  O  O16  1  0.12469100  0.20668700  0.83845000  1
  O  O17  1  0.62469100  0.79331300  0.16155000  1
  O  O18  1  0.87632100  0.21471600  0.36085000  1
  O  O19  1  0.37632100  0.78528400  0.63915000  1
loop_
_geom_bond_atom_site_label_1
_geom_bond_atom_site_label_2
_geom_bond_distance
_geom_bond_site_symmetry_2
As0 O4 1.701613 1_555
As0 O8 1.732152 1_555
As0 O0 1.743813 1_554
As0 O12 1.752931 1_455
As1 O5 1.701613 1_555
As1 O9 1.732152 1_555
As1 O1 1.743813 1_556
As1 O13 1.752931 1_555
As2 O6 1.705060 1_555
As2 O14 1.723422 1_555
As2 O10 1.749160 1_655
As2 O2 1.750711 1_555
As3 O7 1.705060 1_555
As3 O15 1.723422 1_555
As3 O11 1.749160 1_555
As3 O3 1.750711 1_555
O0 Sn0 2.141223 1_555
O0 Sn3 2.565426 1_555
O1 Sn1 2.141223 1_555
O1 Sn2 2.565426 1_555
O2 Sn1 2.185084 1_565
O2 Sn2 2.454070 1_555
O3 Sn0 2.185084 1_545
O3 Sn3 2.454070 1_555
O4 Zn1 1.906467 1_555
O5 Zn0 1.906467 1_555
O6 Zn3 1.899954 1_555
O7 Zn2 1.899954 1_555
O8 Zn2 2.162033 1_555
O8 Sn2 2.429496 1_455
O9 Zn3 2.162033 1_555
O9 Sn3 2.429496 1_555
O10 Zn0 2.189328 1_465
O10 Sn0 2.213791 1_555
O11 Zn1 2.189328 1_545
O11 Sn1 2.213791 1_555
O12 Sn1 2.197614 1_565
O12 Zn2 2.253508 1_665
O13 Sn0 2.197614 1_545
O13 Zn3 2.253508 1_545
O14 Zn0 2.146213 1_555
O14 Sn3 2.415384 1_655
O15 Zn1 2.146213 1_555
O15 Sn2 2.415384 1_555
O16 Zn0 1.997212 1_455
O16 Sn0 2.014975 1_545
O16 Sn3 2.270943 1_555
O17 Zn1 1.997212 1_555
O17 Sn1 2.014975 1_565
O17 Sn2 2.270943 1_555
O18 Zn2 1.952911 1_655
O18 Sn1 2.017882 1_555
O18 Sn2 2.470849 1_555
O19 Zn3 1.952911 1_555
O19 Sn0 2.017882 1_555
O19 Sn3 2.470849 1_555
