# generated using pymatgen
data_Yb3(OF5)2
_symmetry_space_group_name_H-M   'P 1'
_cell_length_a   10.98675965
_cell_length_b   10.98675965
_cell_length_c   10.98675965
_cell_angle_alpha   120.67962071
_cell_angle_beta   120.67962071
_cell_angle_gamma   88.82683869
_symmetry_Int_Tables_number   1
_chemical_formula_structural   Yb3(OF5)2
_chemical_formula_sum   'Yb12 O8 F40'
_cell_volume   927.92054762
_cell_formula_units_Z   4
loop_
 _symmetry_equiv_pos_site_id
 _symmetry_equiv_pos_as_xyz
  1  'x, y, z'
loop_
 _atom_site_type_symbol
 _atom_site_label
 _atom_site_symmetry_multiplicity
 _atom_site_fract_x
 _atom_site_fract_y
 _atom_site_fract_z
 _atom_site_occupancy
  Yb  Yb0  1  0.91493200  0.41493200  0.50000000  1
  Yb  Yb1  1  0.58506800  0.08506800  0.50000000  1
  Yb  Yb2  1  0.56958100  0.43041900  0.50000000  1
  Yb  Yb3  1  0.93041900  0.06958100  0.50000000  1
  Yb  Yb4  1  0.93041900  0.43041900  0.86083800  1
  Yb  Yb5  1  0.56958100  0.06958100  0.13916200  1
  Yb  Yb6  1  0.83506800  0.83506800  0.00000000  1
  Yb  Yb7  1  0.16493200  0.16493200  0.00000000  1
  Yb  Yb8  1  0.18041900  0.81958100  0.00000000  1
  Yb  Yb9  1  0.81958100  0.18041900  0.00000000  1
  Yb  Yb10  1  0.81958100  0.81958100  0.63916200  1
  Yb  Yb11  1  0.18041900  0.18041900  0.36083800  1
  O  O0  1  0.37500000  0.62500000  0.25000000  1
  O  O1  1  0.37500000  0.62500000  0.75000000  1
  O  O2  1  0.87500000  0.62500000  0.25000000  1
  O  O3  1  0.37500000  0.12500000  0.75000000  1
  O  O4  1  0.08379400  0.58379400  0.50000000  1
  O  O5  1  0.41620600  0.91620600  0.50000000  1
  O  O6  1  0.66620600  0.66620600  0.00000000  1
  O  O7  1  0.33379400  0.33379400  0.00000000  1
  F  F0  1  0.91532800  0.09581400  0.18048700  1
  F  F1  1  0.90418600  0.08467200  0.81951300  1
  F  F2  1  0.26515900  0.08467200  0.18048700  1
  F  F3  1  0.91532800  0.73484100  0.81951300  1
  F  F4  1  0.83467200  0.15418600  0.31951300  1
  F  F5  1  0.84581400  0.16532800  0.68048700  1
  F  F6  1  0.48484100  0.16532800  0.31951300  1
  F  F7  1  0.83467200  0.51515900  0.68048700  1
  F  F8  1  0.07147300  0.91831600  0.84684300  1
  F  F9  1  0.08168400  0.92852700  0.15315700  1
  F  F10  1  0.77537000  0.92852700  0.84684300  1
  F  F11  1  0.07147300  0.22463000  0.15315700  1
  F  F12  1  0.67852700  0.33168400  0.65315700  1
  F  F13  1  0.66831600  0.32147300  0.34684300  1
  F  F14  1  0.97463000  0.32147300  0.65315700  1
  F  F15  1  0.67852700  0.02537000  0.34684300  1
  F  F16  1  0.12250000  0.38910100  0.50033500  1
  F  F17  1  0.61089900  0.87750000  0.49966500  1
  F  F18  1  0.37783500  0.11123400  0.50033500  1
  F  F19  1  0.88876600  0.62216500  0.49966500  1
  F  F20  1  0.37216500  0.37250000  0.23339900  1
  F  F21  1  0.86123400  0.86089900  0.23339900  1
  F  F22  1  0.13910100  0.13876600  0.76660100  1
  F  F23  1  0.62750000  0.62783500  0.76660100  1
  F  F24  1  0.87500000  0.38654500  0.01154500  1
  F  F25  1  0.37500000  0.86345500  0.98845500  1
  F  F26  1  0.61345500  0.12500000  0.98845500  1
  F  F27  1  0.13654500  0.62500000  0.01154500  1
  F  F28  1  0.88876600  0.38910100  0.26660100  1
  F  F29  1  0.37783500  0.87750000  0.26660100  1
  F  F30  1  0.61089900  0.11123400  0.73339900  1
  F  F31  1  0.12250000  0.62216500  0.73339900  1
  F  F32  1  0.13910100  0.37250000  0.00033500  1
  F  F33  1  0.62750000  0.86089900  0.99966500  1
  F  F34  1  0.37216500  0.13876600  0.99966500  1
  F  F35  1  0.86123400  0.62783500  0.00033500  1
  F  F36  1  0.37500000  0.38654500  0.51154500  1
  F  F37  1  0.87500000  0.86345500  0.48845500  1
  F  F38  1  0.13654500  0.12500000  0.51154500  1
  F  F39  1  0.61345500  0.62500000  0.48845500  1
loop_
_geom_bond_atom_site_label_1
_geom_bond_atom_site_label_2
_geom_bond_distance
_geom_bond_site_symmetry_2
F0 Yb6 2.332077 1_545
F0 Yb11 2.369598 1_655
F0 Yb9 2.369607 1_555
F1 Yb7 2.332077 1_656
F1 Yb10 2.369598 1_545
F1 Yb9 2.369607 1_556
F2 Yb7 2.332086 1_555
F2 Yb8 2.369598 1_545
F2 Yb11 2.369598 1_555
F3 Yb6 2.332086 1_556
F3 Yb8 2.369598 1_656
F3 Yb10 2.369598 1_555
F4 Yb0 2.332077 1_555
F4 Yb5 2.369598 1_555
F4 Yb3 2.369607 1_555
F5 Yb1 2.332077 1_555
F5 Yb4 2.369598 1_555
F5 Yb3 2.369607 1_555
F6 Yb1 2.332086 1_555
F6 Yb5 2.369598 1_555
F6 Yb2 2.369598 1_555
F7 Yb0 2.332086 1_555
F7 Yb2 2.369598 1_555
F7 Yb4 2.369598 1_555
F8 Yb7 2.219316 1_566
F8 Yb10 2.279283 1_455
F8 Yb8 2.279283 1_556
F9 Yb6 2.219316 1_455
F9 Yb8 2.279283 1_555
F9 Yb11 2.279283 1_565
F10 Yb6 2.219316 1_556
F10 Yb10 2.279283 1_555
F10 Yb9 2.279283 1_566
F11 Yb7 2.219316 1_555
F11 Yb9 2.279283 1_455
F11 Yb11 2.279283 1_555
F12 Yb1 2.219316 1_555
F12 Yb2 2.279283 1_555
F12 Yb4 2.279283 1_555
F13 Yb0 2.219316 1_555
F13 Yb5 2.279283 1_555
F13 Yb2 2.279283 1_555
F14 Yb0 2.219316 1_555
F14 Yb4 2.279283 1_555
F14 Yb3 2.279283 1_555
F15 Yb1 2.219316 1_555
F15 Yb5 2.279283 1_555
F15 Yb3 2.279283 1_555
F16 Yb0 2.290684 1_455
F16 Yb11 2.315202 1_555
F17 Yb1 2.290684 1_565
F17 Yb10 2.315202 1_555
F18 Yb1 2.290684 1_555
F18 Yb11 2.315202 1_555
F19 Yb0 2.290684 1_555
F19 Yb10 2.315202 1_555
F20 Yb7 2.290684 1_555
F20 Yb2 2.315202 1_555
F21 Yb6 2.290684 1_555
F21 Yb3 2.315202 1_565
F22 Yb7 2.290684 1_556
F22 Yb3 2.315202 1_455
F23 Yb6 2.290684 1_556
F23 Yb2 2.315202 1_555
F24 Yb4 2.280352 1_554
F24 Yb9 2.280352 1_555
F25 Yb5 2.280352 1_566
F25 Yb8 2.280352 1_556
F26 Yb9 2.280352 1_556
F26 Yb5 2.280352 1_556
F27 Yb4 2.280352 1_454
F27 Yb8 2.280352 1_555
F28 Yb0 2.290684 1_555
F28 Yb9 2.315202 1_555
F29 Yb1 2.290684 1_565
F29 Yb8 2.315202 1_555
F30 Yb1 2.290684 1_555
F30 Yb9 2.315202 1_556
F31 Yb0 2.290684 1_455
F31 Yb8 2.315202 1_556
F32 Yb7 2.290684 1_555
F32 Yb4 2.315202 1_454
F33 Yb6 2.290684 1_556
F33 Yb5 2.315202 1_566
F34 Yb7 2.290684 1_556
F34 Yb5 2.315202 1_556
F35 Yb6 2.290684 1_555
F35 Yb4 2.315202 1_554
F36 Yb11 2.280352 1_555
F36 Yb2 2.280352 1_555
F37 Yb3 2.280352 1_565
F37 Yb10 2.280352 1_555
F38 Yb3 2.280352 1_455
F38 Yb11 2.280352 1_555
F39 Yb2 2.280352 1_555
F39 Yb10 2.280352 1_555
