# generated using pymatgen
data_Na3Cd4P6H10(ClO8)3
_symmetry_space_group_name_H-M   'P 1'
_cell_length_a   8.13170914
_cell_length_b   8.44127139
_cell_length_c   11.30454597
_cell_angle_alpha   80.52731358
_cell_angle_beta   70.00790340
_cell_angle_gamma   61.22920305
_symmetry_Int_Tables_number   1
_chemical_formula_structural   Na3Cd4P6H10(ClO8)3
_chemical_formula_sum   'Na3 Cd4 P6 H10 Cl3 O24'
_cell_volume   639.18736192
_cell_formula_units_Z   1
loop_
 _symmetry_equiv_pos_site_id
 _symmetry_equiv_pos_as_xyz
  1  'x, y, z'
loop_
 _atom_site_type_symbol
 _atom_site_label
 _atom_site_symmetry_multiplicity
 _atom_site_fract_x
 _atom_site_fract_y
 _atom_site_fract_z
 _atom_site_occupancy
  Na  Na0  1  0.12488700  0.99977700  0.13246300  1
  Na  Na1  1  0.24346400  0.00007100  0.46736800  1
  Na  Na2  1  0.70890600  0.00048300  0.53745900  1
  Cd  Cd0  1  0.05327800  0.71893500  0.82596900  1
  Cd  Cd1  1  0.58193500  0.28636800  0.17586300  1
  Cd  Cd2  1  0.77231600  0.28114000  0.82584100  1
  Cd  Cd3  1  0.86860800  0.71353700  0.17559300  1
  P  P0  1  0.27714500  0.34689700  0.99664700  1
  P  P1  1  0.20696400  0.33609500  0.66934100  1
  P  P2  1  0.19925800  0.66896200  0.33509600  1
  P  P3  1  0.62426900  0.65246900  0.99688000  1
  P  P4  1  0.54326900  0.66409500  0.66918900  1
  P  P5  1  0.86820500  0.33113500  0.33502600  1
  H  H0  1  0.18821200  0.25628600  0.23971000  1
  H  H1  1  0.13583400  0.24205900  0.91591300  1
  H  H2  1  0.07989500  0.65901900  0.54246200  1
  H  H3  1  0.26622000  0.34102300  0.46401300  1
  H  H4  1  0.43980000  0.25651100  0.75877800  1
  H  H5  1  0.44459900  0.74368500  0.23975000  1
  H  H6  1  0.37825200  0.75709500  0.91606400  1
  H  H7  1  0.60732900  0.65926300  0.46396700  1
  H  H8  1  0.73884200  0.34144700  0.54237000  1
  H  H9  1  0.69600800  0.74405900  0.75871500  1
  Cl  Cl0  1  0.60498700  0.00006400  0.32074600  1
  Cl  Cl1  1  0.87707900  0.99949100  0.00384300  1
  Cl  Cl2  1  0.93346400  0.00007100  0.68334700  1
  O  O0  1  0.18306100  0.21996800  0.99122300  1
  O  O1  1  0.09959300  0.22116400  0.31753500  1
  O  O2  1  0.11561300  0.54667100  0.99945100  1
  O  O3  1  0.07458000  0.27828400  0.77807500  1
  O  O4  1  0.32893700  0.29457900  0.12093000  1
  O  O5  1  0.09744500  0.73558300  0.23397300  1
  O  O6  1  0.22629400  0.26887300  0.53934400  1
  O  O7  1  0.03819900  0.73613400  0.46823800  1
  O  O8  1  0.14457400  0.53942400  0.65870400  1
  O  O9  1  0.33111300  0.46567100  0.34220800  1
  O  O10  1  0.40328700  0.77910800  0.99138100  1
  O  O11  1  0.42494600  0.22746800  0.67876300  1
  O  O12  1  0.32067900  0.77905800  0.31753000  1
  O  O13  1  0.66271500  0.45265500  0.99958700  1
  O  O14  1  0.45561000  0.30782800  0.87845900  1
  O  O15  1  0.35274800  0.72157200  0.77809900  1
  O  O16  1  0.62376900  0.70495300  0.12094300  1
  O  O17  1  0.49525900  0.73130100  0.53928200  1
  O  O18  1  0.83306400  0.26449200  0.23389300  1
  O  O19  1  0.77407400  0.26430900  0.46815600  1
  O  O20  1  0.68430100  0.46107100  0.65864300  1
  O  O21  1  0.79682800  0.53464100  0.34207300  1
  O  O22  1  0.65191300  0.77335900  0.67884800  1
  O  O23  1  0.76355400  0.69179600  0.87845000  1
loop_
_geom_bond_atom_site_label_1
_geom_bond_atom_site_label_2
_geom_bond_distance
_geom_bond_site_symmetry_2
Na0 O0 2.362397 1_564
Na0 O10 2.363928 1_554
Na0 O5 2.408673 1_555
Na0 O18 2.411961 1_465
Na1 O12 2.435008 1_545
Na1 O1 2.435862 1_555
Na1 O6 2.460707 1_555
Na1 O17 2.461695 1_545
Na2 O11 2.404395 1_555
Na2 O22 2.405274 1_545
Na2 O19 2.476311 1_555
Na2 O7 2.480328 1_645
Cd0 O2 2.291074 1_555
Cd0 O8 2.307155 1_555
Cd0 O15 2.317472 1_555
Cd0 O23 2.339664 1_455
Cd0 Cl2 2.601828 1_465
Cd0 Cl1 2.834757 1_456
Cd1 O18 2.268873 1_555
Cd1 O9 2.308585 1_555
Cd1 O4 2.311946 1_555
Cd1 O13 2.333357 1_554
Cd1 Cl0 2.651297 1_555
Cd1 Cl1 2.858304 1_545
Cd2 O13 2.290230 1_555
Cd2 O20 2.307652 1_555
Cd2 O3 2.318029 1_655
Cd2 O14 2.339914 1_555
Cd2 Cl2 2.600554 1_555
Cd2 Cl1 2.841657 1_546
Cd3 O5 2.268567 1_655
Cd3 O21 2.307570 1_555
Cd3 O16 2.312033 1_555
Cd3 O2 2.334161 1_654
Cd3 Cl0 2.654787 1_565
Cd3 Cl1 2.850770 1_555
H0 O1 1.033198 1_555
H0 O4 1.542565 1_555
H1 O0 1.004697 1_555
H1 O3 1.731138 1_555
H2 O7 1.022264 1_555
H2 O8 1.596045 1_555
H3 O6 1.015925 1_555
H3 O9 1.685912 1_555
H4 O11 1.033963 1_555
H4 O14 1.549216 1_555
H5 O12 1.033744 1_555
H5 O16 1.543184 1_555
H6 O10 1.003945 1_555
H6 O15 1.732151 1_555
H7 O17 1.015670 1_555
H7 O21 1.686630 1_555
H8 O19 1.022642 1_555
H8 O20 1.597246 1_555
H9 O22 1.033147 1_555
H9 O23 1.551441 1_555
Cl0 Na1 2.838612 1_555
Cl0 Na2 2.852566 1_555
Cl1 Na0 2.860771 1_655
Cl2 Na2 2.847015 1_555
Cl2 Na1 2.847322 1_655
O0 P0 1.606190 1_555
O1 P5 1.601822 1_455
O2 P0 1.557884 1_555
O3 P1 1.520319 1_555
O4 P0 1.538720 1_554
O5 P2 1.515207 1_555
O6 P1 1.592784 1_555
O7 P2 1.587550 1_555
O8 P1 1.534044 1_555
O9 P2 1.530765 1_555
O10 P3 1.606570 1_555
O11 P1 1.589495 1_555
O12 P2 1.602027 1_555
O13 P3 1.557413 1_555
O14 P0 1.535709 1_555
O15 P4 1.523222 1_555
O16 P3 1.536918 1_554
O17 P4 1.592315 1_555
O18 P5 1.514924 1_555
O19 P5 1.586684 1_555
O20 P4 1.532417 1_555
O21 P5 1.532277 1_555
O22 P4 1.589529 1_555
O23 P3 1.537601 1_555
