# generated using pymatgen
data_ScFeB4
_symmetry_space_group_name_H-M   'P 1'
_cell_length_a   5.76754000
_cell_length_b   11.13355900
_cell_length_c   3.22708100
_cell_angle_alpha   90.00000000
_cell_angle_beta   90.00000000
_cell_angle_gamma   90.00000000
_symmetry_Int_Tables_number   1
_chemical_formula_structural   ScFeB4
_chemical_formula_sum   'Sc4 Fe4 B16'
_cell_volume   207.22134894
_cell_formula_units_Z   4
loop_
 _symmetry_equiv_pos_site_id
 _symmetry_equiv_pos_as_xyz
  1  'x, y, z'
loop_
 _atom_site_type_symbol
 _atom_site_label
 _atom_site_symmetry_multiplicity
 _atom_site_fract_x
 _atom_site_fract_y
 _atom_site_fract_z
 _atom_site_occupancy
  Sc  Sc0  1  0.62843200  0.35010500  0.00000000  1
  Sc  Sc1  1  0.37156800  0.64989500  0.00000000  1
  Sc  Sc2  1  0.12843200  0.14989500  0.00000000  1
  Sc  Sc3  1  0.87156800  0.85010500  0.00000000  1
  Fe  Fe0  1  0.63455100  0.08943200  0.00000000  1
  Fe  Fe1  1  0.36544900  0.91056800  0.00000000  1
  Fe  Fe2  1  0.13455100  0.41056800  0.00000000  1
  Fe  Fe3  1  0.86544900  0.58943200  0.00000000  1
  B  B0  1  0.78816300  0.18534500  0.50000000  1
  B  B1  1  0.21183700  0.81465500  0.50000000  1
  B  B2  1  0.28816300  0.31465500  0.50000000  1
  B  B3  1  0.71183700  0.68534500  0.50000000  1
  B  B4  1  0.86489000  0.03104000  0.50000000  1
  B  B5  1  0.13511000  0.96895900  0.50000000  1
  B  B6  1  0.36489000  0.46896000  0.50000000  1
  B  B7  1  0.63511000  0.53104100  0.50000000  1
  B  B8  1  0.88607500  0.45187400  0.50000000  1
  B  B9  1  0.11392500  0.54812600  0.50000000  1
  B  B10  1  0.38607500  0.04812600  0.50000000  1
  B  B11  1  0.61392500  0.95187400  0.50000000  1
  B  B12  1  0.97702100  0.30622200  0.50000000  1
  B  B13  1  0.02297900  0.69377800  0.50000000  1
  B  B14  1  0.47702100  0.19377800  0.50000000  1
  B  B15  1  0.52297900  0.80622200  0.50000000  1
loop_
_geom_bond_atom_site_label_1
_geom_bond_atom_site_label_2
_geom_bond_distance
_geom_bond_site_symmetry_2
B0 B12 1.731361 1_555
B0 B4 1.774043 1_555
B0 B14 1.796978 1_555
B0 Fe0 2.128087 1_556
B0 Fe0 2.128087 1_555
B0 Sc2 2.571139 1_656
B0 Sc2 2.571139 1_655
B0 Sc0 2.610961 1_555
B0 Sc0 2.610961 1_556
B1 B13 1.731361 1_555
B1 B5 1.774032 1_555
B1 B15 1.796978 1_555
B1 Fe1 2.128087 1_555
B1 Fe1 2.128087 1_556
B1 Sc3 2.571139 1_455
B1 Sc3 2.571139 1_456
B1 Sc1 2.610961 1_555
B1 Sc1 2.610961 1_556
B2 B6 1.774043 1_555
B2 Fe2 2.128087 1_555
B2 Fe2 2.128087 1_556
B2 Sc0 2.571139 1_555
B2 Sc0 2.571139 1_556
B2 Sc2 2.610961 1_555
B2 Sc2 2.610961 1_556
B3 B7 1.774032 1_555
B3 Fe3 2.128087 1_556
B3 Fe3 2.128087 1_555
B3 Sc1 2.571139 1_555
B3 Sc1 2.571139 1_556
B3 Sc3 2.610961 1_556
B3 Sc3 2.610961 1_555
B4 B5 1.704896 1_645
B4 Fe0 2.188845 1_555
B4 Fe0 2.188845 1_556
B4 Sc3 2.581280 1_546
B4 Sc3 2.581280 1_545
B4 Sc2 2.581656 1_656
B4 Sc2 2.581656 1_655
B5 Fe1 2.188841 1_555
B5 Fe1 2.188841 1_556
B5 Sc2 2.581289 1_566
B5 Sc2 2.581289 1_565
B5 Sc3 2.581650 1_455
B5 Sc3 2.581650 1_456
B6 B9 1.694691 1_555
B6 B7 1.704896 1_555
B6 Fe2 2.188845 1_556
B6 Fe2 2.188845 1_555
B6 Sc1 2.581280 1_555
B6 Sc1 2.581280 1_556
B6 Sc0 2.581656 1_556
B6 Sc0 2.581656 1_555
B7 B8 1.694697 1_555
B7 Fe3 2.188841 1_556
B7 Fe3 2.188841 1_555
B7 Sc0 2.581289 1_555
B7 Sc0 2.581289 1_556
B7 Sc1 2.581650 1_555
B7 Sc1 2.581650 1_556
B8 B9 1.695681 1_655
B8 Fe2 2.206528 1_656
B8 Fe2 2.206528 1_655
B8 Fe3 2.227821 1_555
B8 Fe3 2.227821 1_556
B8 Sc0 2.468889 1_555
B8 Sc0 2.468889 1_556
B9 Fe3 2.206528 1_456
B9 Fe3 2.206528 1_455
B9 Fe2 2.227821 1_556
B9 Fe2 2.227821 1_555
B9 Sc1 2.468889 1_555
B9 Sc1 2.468889 1_556
B10 B5 1.694697 1_545
B10 B11 1.695681 1_545
B10 B14 1.704349 1_555
B10 Fe0 2.206528 1_556
B10 Fe0 2.206528 1_555
B10 Fe1 2.227821 1_546
B10 Fe1 2.227821 1_545
B10 Sc2 2.468889 1_556
B10 Sc2 2.468889 1_555
B11 B4 1.694691 1_565
B11 B15 1.704349 1_555
B11 Fe1 2.206528 1_555
B11 Fe1 2.206528 1_556
B11 Fe0 2.227821 1_565
B11 Fe0 2.227821 1_566
B11 Sc3 2.468889 1_556
B11 Sc3 2.468889 1_555
B12 B8 1.704349 1_555
B12 B2 1.796978 1_655
B12 Fe2 2.186010 1_656
B12 Fe2 2.186010 1_655
B12 Sc2 2.528906 1_655
B12 Sc2 2.528906 1_656
B12 Sc0 2.623801 1_555
B12 Sc0 2.623801 1_556
B13 B9 1.704349 1_555
B13 B3 1.796978 1_455
B13 Fe3 2.186010 1_456
B13 Fe3 2.186010 1_455
B13 Sc3 2.528906 1_455
B13 Sc3 2.528906 1_456
B13 Sc1 2.623801 1_555
B13 Sc1 2.623801 1_556
B14 B2 1.731361 1_555
B14 Fe0 2.186010 1_555
B14 Fe0 2.186010 1_556
B14 Sc0 2.528906 1_555
B14 Sc0 2.528906 1_556
B14 Sc2 2.623801 1_556
B14 Sc2 2.623801 1_555
B15 B3 1.731361 1_555
B15 Fe1 2.186010 1_555
B15 Fe1 2.186010 1_556
B15 Sc1 2.528906 1_555
B15 Sc1 2.528906 1_556
B15 Sc3 2.623801 1_555
B15 Sc3 2.623801 1_556
