# generated using pymatgen
data_Li7Mn4CoO12
_symmetry_space_group_name_H-M   'P 1'
_cell_length_a   2.98203360
_cell_length_b   5.07498263
_cell_length_c   14.76039726
_cell_angle_alpha   98.00696416
_cell_angle_beta   86.30575142
_cell_angle_gamma   93.31097124
_symmetry_Int_Tables_number   1
_chemical_formula_structural   Li7Mn4CoO12
_chemical_formula_sum   'Li7 Mn4 Co1 O12'
_cell_volume   220.47398810
_cell_formula_units_Z   1
loop_
 _symmetry_equiv_pos_site_id
 _symmetry_equiv_pos_as_xyz
  1  'x, y, z'
loop_
 _atom_site_type_symbol
 _atom_site_label
 _atom_site_symmetry_multiplicity
 _atom_site_fract_x
 _atom_site_fract_y
 _atom_site_fract_z
 _atom_site_occupancy
  Li  Li0  1  0.91843900  0.40598800  0.17951800  1
  Li  Li1  1  0.26072200  0.74413200  0.49101500  1
  Li  Li2  1  0.58466800  0.08338600  0.83086800  1
  Li  Li3  1  0.40154600  0.92612700  0.17625600  1
  Li  Li4  1  0.74918500  0.25756900  0.48896500  1
  Li  Li5  1  0.08655700  0.58072400  0.83281200  1
  Li  Li6  1  0.33324600  0.33287800  0.33380300  1
  Mn  Mn0  1  0.99592300  0.00068200  0.00056600  1
  Mn  Mn1  1  0.83314500  0.83347400  0.33396100  1
  Mn  Mn2  1  0.66900400  0.66561400  0.66517500  1
  Mn  Mn3  1  0.49638300  0.50108400  0.00051300  1
  Co  Co0  1  0.17179200  0.16661100  0.66555100  1
  O  O0  1  0.42674800  0.21639600  0.07739800  1
  O  O1  1  0.78356600  0.56472200  0.41311600  1
  O  O2  1  0.11139700  0.87868700  0.74230100  1
  O  O3  1  0.93894600  0.70982800  0.07477200  1
  O  O4  1  0.32289400  0.01626800  0.40549500  1
  O  O5  1  0.59824500  0.37662800  0.74253800  1
  O  O6  1  0.34376700  0.65014400  0.26197800  1
  O  O7  1  0.73413500  0.96326400  0.59347500  1
  O  O8  1  0.06310600  0.28586200  0.92205300  1
  O  O9  1  0.88121800  0.10213500  0.25494300  1
  O  O10  1  0.22090700  0.45445600  0.59189300  1
  O  O11  1  0.57446000  0.78334000  0.92103500  1
loop_
_geom_bond_atom_site_label_1
_geom_bond_atom_site_label_2
_geom_bond_distance
_geom_bond_site_symmetry_2
Li0 O9 2.017982 1_555
Li0 O6 2.054925 1_655
Li0 O0 2.228332 1_655
Li0 O0 2.250665 1_555
Li0 O3 2.326573 1_555
Li0 O6 2.347307 1_555
Li1 O1 1.986267 1_455
Li1 O4 1.990260 1_565
Li1 O1 2.055071 1_555
Li1 O10 2.226946 1_555
Li1 O7 2.267637 1_555
Li1 O7 2.327430 1_455
Li2 O5 2.107844 1_555
Li2 O2 2.114248 1_545
Li2 O8 2.143769 1_655
Li2 O11 2.155211 1_545
Li2 O2 2.191095 1_645
Li2 O8 2.194531 1_555
Li3 O9 1.992577 1_565
Li3 O6 2.007508 1_555
Li3 O9 2.047744 1_465
Li3 O0 2.208355 1_565
Li3 O3 2.232731 1_455
Li3 O3 2.335109 1_555
Li4 O1 2.036346 1_555
Li4 O4 2.057975 1_555
Li4 O10 2.230573 1_655
Li4 O7 2.288599 1_545
Li4 O10 2.288831 1_555
Li4 O4 2.344046 1_655
Li5 O8 2.122366 1_555
Li5 O11 2.137346 1_555
Li5 O2 2.148036 1_555
Li5 O11 2.153412 1_455
Li5 O5 2.158722 1_455
Li5 O5 2.170874 1_555
Li6 O4 2.041143 1_555
Li6 O6 2.045200 1_555
Li6 O9 2.045316 1_455
Li6 O1 2.048061 1_555
Li6 O9 2.234405 1_555
Li6 O1 2.243554 1_455
Mn0 O3 1.950600 1_545
Mn0 O0 1.953087 1_655
Mn0 O11 1.960497 1_544
Mn0 O8 1.970183 1_654
Mn0 O0 2.232962 1_555
Mn0 O11 2.273579 1_644
Mn1 O9 1.907560 1_565
Mn1 O1 1.909336 1_555
Mn1 O4 1.969186 1_665
Mn1 O6 1.972763 1_555
Mn1 O4 1.993441 1_565
Mn1 O6 1.998223 1_655
Mn2 O10 1.949835 1_555
Mn2 O7 1.955651 1_555
Mn2 O2 1.972677 1_655
Mn2 O5 1.974627 1_555
Mn2 O10 2.162965 1_655
Mn2 O2 2.202501 1_555
Mn3 O3 1.940831 1_555
Mn3 O0 1.951967 1_555
Mn3 O11 1.968949 1_554
Mn3 O8 1.970026 1_554
Mn3 O3 2.175327 1_455
Mn3 O8 2.235816 1_654
Co0 O7 1.902000 1_445
Co0 O10 1.932534 1_555
Co0 O5 1.933072 1_555
Co0 O2 1.963520 1_545
Co0 O7 2.161719 1_545
Co0 O5 2.230529 1_455
