# generated using pymatgen
data_MgP2(HO)12
_symmetry_space_group_name_H-M   'P 1'
_cell_length_a   7.84919473
_cell_length_b   7.82042154
_cell_length_c   9.31047564
_cell_angle_alpha   67.12491142
_cell_angle_beta   84.94905407
_cell_angle_gamma   73.03856430
_symmetry_Int_Tables_number   1
_chemical_formula_structural   MgP2(HO)12
_chemical_formula_sum   'Mg2 P4 H24 O24'
_cell_volume   503.45375572
_cell_formula_units_Z   2
loop_
 _symmetry_equiv_pos_site_id
 _symmetry_equiv_pos_as_xyz
  1  'x, y, z'
loop_
 _atom_site_type_symbol
 _atom_site_label
 _atom_site_symmetry_multiplicity
 _atom_site_fract_x
 _atom_site_fract_y
 _atom_site_fract_z
 _atom_site_occupancy
  Mg  Mg0  1  0.13663800  0.23464700  0.79134200  1
  Mg  Mg1  1  0.86336200  0.76535300  0.20865800  1
  P  P0  1  0.08606000  0.09314000  0.18272500  1
  P  P1  1  0.91394000  0.90686000  0.81727500  1
  P  P2  1  0.23070500  0.42676500  0.41150800  1
  P  P3  1  0.76929500  0.57323500  0.58849200  1
  H  H0  1  0.35480900  0.50126900  0.09371400  1
  H  H1  1  0.64519100  0.49873100  0.90628600  1
  H  H2  1  0.66444400  0.17021500  0.08038200  1
  H  H3  1  0.33555600  0.82978500  0.91961800  1
  H  H4  1  0.31117500  0.99277000  0.34137400  1
  H  H5  1  0.68882500  0.00723000  0.65862600  1
  H  H6  1  0.60672300  0.58337300  0.27064700  1
  H  H7  1  0.39327700  0.41662700  0.72935300  1
  H  H8  1  0.17216100  0.63275400  0.00433400  1
  H  H9  1  0.82783900  0.36724600  0.99566600  1
  H  H10  1  0.00507200  0.32101900  0.28674600  1
  H  H11  1  0.99492800  0.67898100  0.71325400  1
  H  H12  1  0.17084900  0.73170200  0.36269700  1
  H  H13  1  0.82915100  0.26829800  0.63730300  1
  H  H14  1  0.29928400  0.03933500  0.55850700  1
  H  H15  1  0.70071600  0.96066500  0.44149300  1
  H  H16  1  0.53843900  0.03226500  0.13243900  1
  H  H17  1  0.46156100  0.96773500  0.86756100  1
  H  H18  1  0.50232700  0.25579900  0.37383800  1
  H  H19  1  0.49767300  0.74420100  0.62616200  1
  H  H20  1  0.68876900  0.55853800  0.11635700  1
  H  H21  1  0.31123100  0.44146200  0.88364300  1
  H  H22  1  0.77973900  0.13435900  0.41123600  1
  H  H23  1  0.22026100  0.86564100  0.58876400  1
  O  O0  1  0.05060900  0.21982400  0.01179500  1
  O  O1  1  0.94939100  0.78017600  0.98820500  1
  O  O2  1  0.39849900  0.36769500  0.31232800  1
  O  O3  1  0.60150100  0.63230500  0.68767200  1
  O  O4  1  0.66286300  0.03339900  0.11835900  1
  O  O5  1  0.33713700  0.96660100  0.88164100  1
  O  O6  1  0.29048600  0.05314800  0.22449900  1
  O  O7  1  0.70951400  0.94685200  0.77550100  1
  O  O8  1  0.06499400  0.48969100  0.30739200  1
  O  O9  1  0.93500600  0.51030900  0.69260800  1
  O  O10  1  0.69859900  0.41730700  0.01152700  1
  O  O11  1  0.30140100  0.58269300  0.98847300  1
  O  O12  1  0.24183600  0.25938500  0.56792200  1
  O  O13  1  0.75816400  0.74061500  0.43207800  1
  O  O14  1  0.67638600  0.63732300  0.18142800  1
  O  O15  1  0.32361400  0.36267700  0.81857200  1
  O  O16  1  0.04080400  0.90119300  0.23807200  1
  O  O17  1  0.95919600  0.09880700  0.76192800  1
  O  O18  1  0.97247200  0.20271800  0.28845200  1
  O  O19  1  0.02752800  0.79728200  0.71154800  1
  O  O20  1  0.25144900  0.60604500  0.44009300  1
  O  O21  1  0.74855100  0.39395500  0.55990700  1
  O  O22  1  0.67805300  0.08409900  0.46024200  1
  O  O23  1  0.32194700  0.91590100  0.53975800  1
loop_
_geom_bond_atom_site_label_1
_geom_bond_atom_site_label_2
_geom_bond_distance
_geom_bond_site_symmetry_2
Mg0 O0 2.073380 1_556
Mg0 O17 2.073638 1_455
Mg0 O15 2.083477 1_555
Mg0 O5 2.125031 1_545
Mg0 O12 2.127003 1_555
Mg0 O9 2.173033 1_455
Mg1 O1 2.073380 1_554
Mg1 O16 2.073638 1_655
Mg1 O14 2.083477 1_555
Mg1 O4 2.125031 1_565
Mg1 O13 2.127003 1_555
Mg1 O8 2.173033 1_655
H0 O11 0.986311 1_554
H1 O10 0.986311 1_556
H2 O4 0.991382 1_555
H3 O5 0.991382 1_555
H4 O6 1.010119 1_565
H5 O7 1.010119 1_545
H6 O14 0.974252 1_555
H7 O15 0.974252 1_555
H8 O11 0.995489 1_554
H9 O10 0.995489 1_556
H10 O18 1.023543 1_455
H10 O8 1.604118 1_555
H11 O19 1.023543 1_655
H11 O9 1.604118 1_555
H12 O20 1.025764 1_555
H12 O16 1.539034 1_555
H13 O21 1.025764 1_555
H13 O17 1.539034 1_555
H14 O23 1.009594 1_545
H14 O12 1.682266 1_555
H15 O22 1.009594 1_565
H15 O13 1.682266 1_555
H16 O4 0.976049 1_555
H17 O5 0.976049 1_555
H18 O2 1.017039 1_555
H18 O22 1.620999 1_555
H19 O3 1.017039 1_555
H19 O23 1.620999 1_555
H20 O14 1.000502 1_555
H21 O15 1.000502 1_555
H22 O22 0.989551 1_555
H23 O23 0.989551 1_555
O0 P0 1.510956 1_555
O1 P1 1.510956 1_555
O2 P2 1.601004 1_555
O3 P3 1.601004 1_555
O6 P0 1.595707 1_555
O7 P1 1.595707 1_555
O8 P2 1.533411 1_555
O9 P3 1.533411 1_555
O12 P2 1.521680 1_555
O13 P3 1.521680 1_555
O16 P0 1.523991 1_565
O17 P1 1.523991 1_545
O18 P0 1.598044 1_655
O19 P1 1.598044 1_455
O20 P2 1.579239 1_555
O21 P3 1.579239 1_555
