# generated using pymatgen
data_K3TeP3O17
_symmetry_space_group_name_H-M   'P 1'
_cell_length_a   7.64468900
_cell_length_b   15.67456000
_cell_length_c   16.09795825
_cell_angle_alpha   69.84453982
_cell_angle_beta   90.00000000
_cell_angle_gamma   90.00000000
_symmetry_Int_Tables_number   1
_chemical_formula_structural   K3TeP3O17
_chemical_formula_sum   'K12 Te4 P12 O68'
_cell_volume   1810.84422160
_cell_formula_units_Z   4
loop_
 _symmetry_equiv_pos_site_id
 _symmetry_equiv_pos_as_xyz
  1  'x, y, z'
loop_
 _atom_site_type_symbol
 _atom_site_label
 _atom_site_symmetry_multiplicity
 _atom_site_fract_x
 _atom_site_fract_y
 _atom_site_fract_z
 _atom_site_occupancy
  K  K0  1  0.29803400  0.39851100  0.00941000  1
  K  K1  1  0.79803400  0.60148900  0.49059000  1
  K  K2  1  0.70196600  0.60148900  0.99059000  1
  K  K3  1  0.20196600  0.39851100  0.50941000  1
  K  K4  1  0.57983100  0.57481500  0.75737900  1
  K  K5  1  0.07983100  0.42518500  0.74262100  1
  K  K6  1  0.42016900  0.42518500  0.24262100  1
  K  K7  1  0.92016900  0.57481500  0.25737900  1
  K  K8  1  0.79307600  0.06394900  0.86625500  1
  K  K9  1  0.29307600  0.93605100  0.63374500  1
  K  K10  1  0.20692400  0.93605100  0.13374500  1
  K  K11  1  0.70692400  0.06394900  0.36625500  1
  Te  Te0  1  0.80710600  0.80461800  0.58076500  1
  Te  Te1  1  0.30710600  0.19538200  0.91923500  1
  Te  Te2  1  0.19289400  0.19538200  0.41923500  1
  Te  Te3  1  0.69289400  0.80461800  0.08076500  1
  P  P0  1  0.66408200  0.24980700  0.14754500  1
  P  P1  1  0.16408200  0.75019300  0.35245500  1
  P  P2  1  0.33591800  0.75019300  0.85245500  1
  P  P3  1  0.83591800  0.24980700  0.64754500  1
  P  P4  1  0.78010900  0.36885200  0.97263900  1
  P  P5  1  0.28010900  0.63114800  0.52736100  1
  P  P6  1  0.21989100  0.63114800  0.02736100  1
  P  P7  1  0.71989100  0.36885200  0.47263900  1
  P  P8  1  0.91474900  0.39498700  0.13773800  1
  P  P9  1  0.41474900  0.60501300  0.36226200  1
  P  P10  1  0.08525100  0.60501300  0.86226200  1
  P  P11  1  0.58525100  0.39498700  0.63773800  1
  O  O0  1  0.74614900  0.85181800  0.45999400  1
  O  O1  1  0.24614900  0.14818200  0.04000600  1
  O  O2  1  0.25385100  0.14818200  0.54000600  1
  O  O3  1  0.75385100  0.85181800  0.95999400  1
  O  O4  1  0.77835200  0.84875000  0.77227500  1
  O  O5  1  0.27835200  0.15125000  0.72772500  1
  O  O6  1  0.22164800  0.15125000  0.22772500  1
  O  O7  1  0.72164800  0.84875000  0.27227500  1
  O  O8  1  0.59321400  0.85165700  0.60309000  1
  O  O9  1  0.09321400  0.14834300  0.89691000  1
  O  O10  1  0.40678600  0.14834300  0.39691000  1
  O  O11  1  0.90678600  0.85165700  0.10309000  1
  O  O12  1  0.81524000  0.68068500  0.62271900  1
  O  O13  1  0.31524000  0.31931500  0.87728100  1
  O  O14  1  0.18476000  0.31931500  0.37728100  1
  O  O15  1  0.68476000  0.68068500  0.12271900  1
  O  O16  1  0.69943900  0.04797900  0.55827700  1
  O  O17  1  0.19943900  0.95202100  0.94172300  1
  O  O18  1  0.30056100  0.95202100  0.44172300  1
  O  O19  1  0.80056100  0.04797900  0.05827700  1
  O  O20  1  0.99833200  0.86282300  0.60271300  1
  O  O21  1  0.49833200  0.13717700  0.89728700  1
  O  O22  1  0.00166800  0.13717700  0.39728700  1
  O  O23  1  0.50166800  0.86282300  0.10271300  1
  O  O24  1  0.49758800  0.29882800  0.15289900  1
  O  O25  1  0.99758800  0.70117200  0.34710100  1
  O  O26  1  0.50241200  0.70117200  0.84710100  1
  O  O27  1  0.00241200  0.29882800  0.65289900  1
  O  O28  1  0.82500400  0.14932700  0.69429100  1
  O  O29  1  0.32500400  0.85067300  0.80570900  1
  O  O30  1  0.17499600  0.85067300  0.30570900  1
  O  O31  1  0.67499600  0.14932700  0.19429100  1
  O  O32  1  0.88037400  0.35178300  0.90007900  1
  O  O33  1  0.38037400  0.64821700  0.59992100  1
  O  O34  1  0.11962600  0.64821700  0.09992100  1
  O  O35  1  0.61962600  0.35178300  0.40007900  1
  O  O36  1  0.63080600  0.43569900  0.94628000  1
  O  O37  1  0.13080600  0.56430100  0.55372000  1
  O  O38  1  0.36919400  0.56430100  0.05372000  1
  O  O39  1  0.86919400  0.43569900  0.44628000  1
  O  O40  1  0.79487800  0.46577200  0.14944600  1
  O  O41  1  0.29487800  0.53422800  0.35055400  1
  O  O42  1  0.20512200  0.53422800  0.85055400  1
  O  O43  1  0.70512200  0.46577200  0.64944600  1
  O  O44  1  0.10200500  0.39178700  0.16408000  1
  O  O45  1  0.60200500  0.60821300  0.33592000  1
  O  O46  1  0.89799500  0.60821300  0.83592000  1
  O  O47  1  0.39799500  0.39178700  0.66408000  1
  O  O48  1  0.78417300  0.27205700  0.54336700  1
  O  O49  1  0.28417300  0.72794300  0.95663300  1
  O  O50  1  0.21582700  0.72794300  0.45663300  1
  O  O51  1  0.71582700  0.27205700  0.04336700  1
  O  O52  1  0.82727900  0.29512400  0.18242400  1
  O  O53  1  0.32727900  0.70487600  0.31757600  1
  O  O54  1  0.17272100  0.70487600  0.81757600  1
  O  O55  1  0.67272100  0.29512400  0.68242400  1
  O  O56  1  0.91634900  0.40330000  0.03240000  1
  O  O57  1  0.41634900  0.59670000  0.46760000  1
  O  O58  1  0.08365100  0.59670000  0.96760000  1
  O  O59  1  0.58365100  0.40330000  0.53240000  1
  O  O60  1  0.91061600  0.88022100  0.79376000  1
  O  O61  1  0.41061600  0.11977900  0.70624000  1
  O  O62  1  0.08938400  0.11977900  0.20624000  1
  O  O63  1  0.58938400  0.88022100  0.29376000  1
  O  O64  1  0.34849000  0.96027700  0.91146800  1
  O  O65  1  0.84849000  0.03972300  0.58853200  1
  O  O66  1  0.65151000  0.03972300  0.08853200  1
  O  O67  1  0.15151000  0.96027700  0.41146800  1
loop_
_geom_bond_atom_site_label_1
_geom_bond_atom_site_label_2
_geom_bond_distance
_geom_bond_site_symmetry_2
K0 O36 2.726896 1_554
K0 O24 2.759881 1_555
K0 O42 2.796523 1_554
K0 O13 2.811055 1_554
K0 O44 2.876711 1_555
K0 O56 2.945450 1_455
K0 O38 2.972425 1_555
K1 O37 2.726896 1_655
K1 O25 2.759881 1_555
K1 O43 2.796523 1_555
K1 O12 2.811055 1_555
K1 O45 2.876711 1_555
K1 O57 2.945450 1_555
K1 O39 2.972425 1_555
K2 O38 2.726896 1_556
K2 O26 2.759881 1_555
K2 O40 2.796523 1_556
K2 O15 2.811055 1_556
K2 O46 2.876711 1_555
K2 O58 2.945450 1_655
K2 O36 2.972425 1_555
K3 O39 2.726896 1_455
K3 O27 2.759881 1_555
K3 O41 2.796523 1_555
K3 O14 2.811055 1_555
K3 O47 2.876711 1_555
K3 O59 2.945450 1_555
K3 O37 2.972425 1_555
K4 O33 2.839707 1_555
K4 O12 2.865763 1_555
K4 O46 2.871354 1_555
K4 O26 2.886264 1_555
K4 O43 2.983997 1_555
K4 O36 3.095859 1_555
K4 O42 3.194131 1_555
K5 O32 2.839707 1_455
K5 O13 2.865763 1_555
K5 O47 2.871354 1_555
K5 O27 2.886264 1_555
K5 O42 2.983997 1_555
K5 O37 3.095859 1_555
K5 O43 3.194131 1_455
K6 O35 2.839707 1_555
K6 O14 2.865763 1_555
K6 O44 2.871354 1_555
K6 O24 2.886264 1_555
K6 O41 2.983997 1_555
K6 O38 3.095859 1_555
K6 O40 3.194131 1_555
K7 O34 2.839707 1_655
K7 O15 2.865763 1_555
K7 O45 2.871354 1_555
K7 O25 2.886264 1_555
K7 O40 2.983997 1_555
K7 O39 3.095859 1_555
K7 O41 3.194131 1_655
K8 O28 2.638335 1_555
K8 O21 2.653151 1_555
K8 O9 2.776301 1_655
K8 O19 3.014626 1_556
K8 O3 3.156782 1_545
K9 O29 2.638335 1_555
K9 O20 2.653151 1_455
K9 O8 2.776301 1_555
K9 O18 3.014626 1_555
K9 O2 3.156782 1_565
K10 O30 2.638335 1_555
K10 O23 2.653151 1_555
K10 O11 2.776301 1_455
K10 O17 3.014626 1_554
K10 O1 3.156782 1_565
K11 O31 2.638335 1_555
K11 O22 2.653151 1_655
K11 O10 2.776301 1_555
K11 O16 3.014626 1_555
K11 O0 3.156782 1_545
O0 Te0 1.884957 1_555
O1 Te1 1.884957 1_554
O2 Te2 1.884957 1_555
O3 Te3 1.884957 1_556
O4 O60 1.225926 1_555
O5 O61 1.225926 1_555
O6 O62 1.225926 1_555
O8 Te0 1.878584 1_555
O9 Te1 1.878584 1_555
O10 Te2 1.878584 1_555
O11 Te3 1.878584 1_555
O12 Te0 1.824703 1_555
O13 Te1 1.824703 1_555
O14 Te2 1.824703 1_555
O15 Te3 1.824703 1_555
O16 O65 1.228359 1_555
O17 O64 1.228359 1_555
O18 O67 1.228359 1_555
O19 O66 1.228359 1_555
O20 Te0 1.821093 1_555
O21 Te1 1.821093 1_555
O22 Te2 1.821093 1_555
O23 Te3 1.821093 1_555
O24 P0 1.504488 1_555
O25 P1 1.504488 1_655
O26 P2 1.504488 1_555
O27 P3 1.504488 1_455
O28 P3 1.495673 1_555
O29 P2 1.495673 1_555
O30 P1 1.495673 1_555
O31 P0 1.495673 1_555
O32 P4 1.496277 1_555
O33 P5 1.496277 1_555
O34 P6 1.496277 1_555
O35 P7 1.496277 1_555
O36 P4 1.508069 1_555
O37 P5 1.508069 1_555
O38 P6 1.508069 1_555
O39 P7 1.508069 1_555
O40 P8 1.500141 1_555
O41 P9 1.500141 1_555
O42 P10 1.500141 1_555
O43 P11 1.500141 1_555
O44 P8 1.488929 1_455
O45 P9 1.488929 1_555
O46 P10 1.488929 1_655
O47 P11 1.488929 1_555
O48 P7 1.627678 1_555
O48 P3 1.639375 1_555
O49 P6 1.627678 1_556
O49 P2 1.639375 1_555
O50 P5 1.627678 1_555
O50 P1 1.639375 1_555
O51 P4 1.627678 1_554
O51 P0 1.639375 1_555
O52 P8 1.624444 1_555
O52 P0 1.628236 1_555
O53 P9 1.624444 1_555
O53 P1 1.628236 1_555
O54 P10 1.624444 1_555
O54 P2 1.628236 1_555
O55 P11 1.624444 1_555
O55 P3 1.628236 1_555
O56 P4 1.630883 1_554
O56 P8 1.655399 1_555
O57 P5 1.630883 1_555
O57 P9 1.655399 1_555
O58 P6 1.630883 1_556
O58 P10 1.655399 1_555
O59 P7 1.630883 1_555
O59 P11 1.655399 1_555
O63 O7 1.225926 1_555
