# generated using pymatgen
data_K3HoCl6
_symmetry_space_group_name_H-M   'P 1'
_cell_length_a   7.72644607
_cell_length_b   12.46988735
_cell_length_c   13.02148027
_cell_angle_alpha   70.98074433
_cell_angle_beta   90.00000000
_cell_angle_gamma   90.00000000
_symmetry_Int_Tables_number   1
_chemical_formula_structural   K3HoCl6
_chemical_formula_sum   'K12 Ho4 Cl24'
_cell_volume   1186.10311505
_cell_formula_units_Z   4
loop_
 _symmetry_equiv_pos_site_id
 _symmetry_equiv_pos_as_xyz
  1  'x, y, z'
loop_
 _atom_site_type_symbol
 _atom_site_label
 _atom_site_symmetry_multiplicity
 _atom_site_fract_x
 _atom_site_fract_y
 _atom_site_fract_z
 _atom_site_occupancy
  K  K0  1  0.43659163  0.73496527  0.31446956  1
  K  K1  1  0.56340837  0.26503473  0.68553044  1
  K  K2  1  0.93659163  0.76503473  0.68553044  1
  K  K3  1  0.06340837  0.23496527  0.31446956  1
  K  K4  1  0.96317333  0.64168744  0.09970130  1
  K  K5  1  0.03682667  0.35831256  0.90029870  1
  K  K6  1  0.46317333  0.85831256  0.90029870  1
  K  K7  1  0.53682667  0.14168744  0.09970130  1
  K  K8  1  0.92769110  0.88834501  0.32092285  1
  K  K9  1  0.07230890  0.11165499  0.67907715  1
  K  K10  1  0.42769110  0.61165499  0.67907715  1
  K  K11  1  0.57230890  0.38834501  0.32092285  1
  Ho  Ho0  1  -0.00000000  0.50000000  0.50000000  1
  Ho  Ho1  1  0.50000000  0.00000000  0.50000000  1
  Ho  Ho2  1  -0.00000000  0.00000000  -0.00000000  1
  Ho  Ho3  1  0.50000000  0.50000000  -0.00000000  1
  Cl  Cl0  1  0.49594068  0.63353140  0.11613915  1
  Cl  Cl1  1  0.50405932  0.36646860  0.88386085  1
  Cl  Cl2  1  0.99594068  0.86646860  0.88386085  1
  Cl  Cl3  1  0.00405932  0.13353140  0.11613915  1
  Cl  Cl4  1  0.28713200  0.99618835  0.34555360  1
  Cl  Cl5  1  0.71286800  0.00381165  0.65444640  1
  Cl  Cl6  1  0.78713200  0.50381165  0.65444640  1
  Cl  Cl7  1  0.21286800  0.49618835  0.34555360  1
  Cl  Cl8  1  0.78675955  0.60862214  0.34362913  1
  Cl  Cl9  1  0.21324045  0.39137786  0.65637087  1
  Cl  Cl10  1  0.28675955  0.89137786  0.65637087  1
  Cl  Cl11  1  0.71324045  0.10862214  0.34362913  1
  Cl  Cl12  1  0.63890855  0.80646452  0.50026039  1
  Cl  Cl13  1  0.36109145  0.19353548  0.49973961  1
  Cl  Cl14  1  0.13890855  0.69353548  0.49973961  1
  Cl  Cl15  1  0.86109145  0.30646452  0.50026039  1
  Cl  Cl16  1  0.16838272  0.84127750  0.14546050  1
  Cl  Cl17  1  0.83161728  0.15872250  0.85453950  1
  Cl  Cl18  1  0.66838272  0.65872250  0.85453950  1
  Cl  Cl19  1  0.33161728  0.34127750  0.14546050  1
  Cl  Cl20  1  0.70883223  0.91010064  0.10048738  1
  Cl  Cl21  1  0.29116777  0.08989936  0.89951262  1
  Cl  Cl22  1  0.20883223  0.58989936  0.89951262  1
  Cl  Cl23  1  0.79116777  0.41010064  0.10048738  1
loop_
_geom_bond_atom_site_label_1
_geom_bond_atom_site_label_2
_geom_bond_distance
_geom_bond_site_symmetry_2
Cl0 Ho3 2.588812 1_555
Cl0 K0 3.257121 1_555
Cl0 K6 3.268867 1_554
Cl0 K11 3.390128 1_555
Cl0 K4 3.615856 1_555
Cl1 Ho3 2.588812 1_556
Cl1 K1 3.257121 1_555
Cl1 K7 3.268867 1_556
Cl1 K10 3.390128 1_555
Cl1 K5 3.615856 1_555
Cl2 Ho2 2.588812 1_666
Cl2 K2 3.257121 1_555
Cl2 K4 3.268867 1_556
Cl2 K9 3.390128 1_665
Cl2 K6 3.615856 1_655
Cl3 Ho2 2.588812 1_555
Cl3 K3 3.257121 1_555
Cl3 K5 3.268867 1_554
Cl3 K8 3.390128 1_445
Cl3 K7 3.615856 1_455
Cl4 Ho1 2.610412 1_565
Cl4 K8 3.147269 1_455
Cl4 K3 3.351414 1_565
Cl4 K0 3.601044 1_555
Cl4 K7 3.671084 1_565
Cl5 Ho1 2.610412 1_555
Cl5 K9 3.147269 1_655
Cl5 K2 3.351414 1_545
Cl5 K1 3.601044 1_555
Cl5 K6 3.671084 1_545
Cl6 Ho0 2.610412 1_655
Cl6 K10 3.147269 1_555
Cl6 K1 3.351414 1_555
Cl6 K2 3.601044 1_555
Cl6 K5 3.671084 1_655
Cl7 Ho0 2.610412 1_555
Cl7 K11 3.147269 1_555
Cl7 K0 3.351414 1_555
Cl7 K3 3.601044 1_555
Cl7 K4 3.671084 1_455
Cl8 Ho0 2.626342 1_655
Cl8 K0 3.091350 1_555
Cl8 K11 3.302619 1_555
Cl8 K4 3.356071 1_555
Cl8 K8 3.573215 1_555
Cl9 Ho0 2.626342 1_555
Cl9 K1 3.091350 1_555
Cl9 K10 3.302619 1_555
Cl9 K5 3.356071 1_555
Cl9 K9 3.573215 1_555
Cl10 Ho1 2.626342 1_565
Cl10 K2 3.091350 1_455
Cl10 K9 3.302619 1_565
Cl10 K6 3.356071 1_555
Cl10 K10 3.573215 1_555
Cl11 Ho1 2.626342 1_555
Cl11 K3 3.091350 1_655
Cl11 K8 3.302619 1_545
Cl11 K7 3.356071 1_555
Cl11 K11 3.573215 1_555
Cl12 Ho1 2.640250 1_565
Cl12 K8 3.149656 1_555
Cl12 K10 3.209298 1_555
Cl12 K0 3.239944 1_555
Cl12 K2 3.250357 1_555
Cl13 Ho1 2.640250 1_555
Cl13 K9 3.149656 1_555
Cl13 K11 3.209298 1_555
Cl13 K1 3.239944 1_555
Cl13 K3 3.250357 1_555
Cl14 Ho0 2.640250 1_555
Cl14 K10 3.149656 1_555
Cl14 K8 3.209298 1_455
Cl14 K2 3.239944 1_455
Cl14 K0 3.250357 1_555
Cl15 Ho0 2.640250 1_655
Cl15 K11 3.149656 1_555
Cl15 K9 3.209298 1_655
Cl15 K3 3.239944 1_655
Cl15 K1 3.250357 1_555
Cl16 Ho2 2.598895 1_565
Cl16 K0 2.998940 1_555
Cl16 K8 3.145978 1_455
Cl16 K4 3.167018 1_455
Cl17 Ho2 2.598895 1_656
Cl17 K1 2.998940 1_555
Cl17 K9 3.145978 1_655
Cl17 K5 3.167018 1_655
Cl18 Ho3 2.598895 1_556
Cl18 K2 2.998940 1_555
Cl18 K10 3.145978 1_555
Cl18 K6 3.167018 1_555
Cl19 Ho3 2.598895 1_555
Cl19 K3 2.998940 1_555
Cl19 K11 3.145978 1_555
Cl19 K7 3.167018 1_555
Cl20 Ho2 2.659686 1_665
Cl20 K7 3.175972 1_565
Cl20 K8 3.265688 1_555
Cl20 K6 3.451389 1_554
Cl20 K0 3.604398 1_555
Cl21 Ho2 2.659686 1_556
Cl21 K6 3.175972 1_545
Cl21 K9 3.265688 1_555
Cl21 K7 3.451389 1_556
Cl21 K1 3.604398 1_555
Cl22 Ho3 2.659686 1_556
Cl22 K5 3.175972 1_555
Cl22 K10 3.265688 1_555
Cl22 K4 3.451389 1_456
Cl22 K2 3.604398 1_455
Cl23 Ho3 2.659686 1_555
Cl23 K4 3.175972 1_555
Cl23 K11 3.265688 1_555
Cl23 K5 3.451389 1_654
Cl23 K3 3.604398 1_655
