# generated using pymatgen
data_Ca2Mg
_symmetry_space_group_name_H-M   'P 1'
_cell_length_a   18.95959735
_cell_length_b   18.95959735
_cell_length_c   11.97640600
_cell_angle_alpha   90.00000000
_cell_angle_beta   90.00000000
_cell_angle_gamma   157.18041508
_symmetry_Int_Tables_number   1
_chemical_formula_structural   Ca2Mg
_chemical_formula_sum   'Ca32 Mg16'
_cell_volume   1669.65555728
_cell_formula_units_Z   16
loop_
 _symmetry_equiv_pos_site_id
 _symmetry_equiv_pos_as_xyz
  1  'x, y, z'
loop_
 _atom_site_type_symbol
 _atom_site_label
 _atom_site_symmetry_multiplicity
 _atom_site_fract_x
 _atom_site_fract_y
 _atom_site_fract_z
 _atom_site_occupancy
  Ca  Ca0_0  1  0.22283900  0.27716100  0.12500000  1
  Ca  Ca0_1  1  0.22283900  0.27716100  0.62500000  1
  Ca  Ca0_2  1  0.22283900  0.77716100  0.12500000  1
  Ca  Ca0_3  1  0.22283900  0.77716100  0.62500000  1
  Ca  Ca0_4  1  0.72283900  0.27716100  0.12500000  1
  Ca  Ca0_5  1  0.72283900  0.27716100  0.62500000  1
  Ca  Ca0_6  1  0.72283900  0.77716100  0.12500000  1
  Ca  Ca0_7  1  0.72283900  0.77716100  0.62500000  1
  Ca  Ca1_0  1  0.38553050  0.11446950  0.12500000  1
  Ca  Ca1_1  1  0.38553050  0.11446950  0.62500000  1
  Ca  Ca1_2  1  0.38553050  0.61446950  0.12500000  1
  Ca  Ca1_3  1  0.38553050  0.61446950  0.62500000  1
  Ca  Ca1_4  1  0.88553050  0.11446950  0.12500000  1
  Ca  Ca1_5  1  0.88553050  0.11446950  0.62500000  1
  Ca  Ca1_6  1  0.88553050  0.61446950  0.12500000  1
  Ca  Ca1_7  1  0.88553050  0.61446950  0.62500000  1
  Ca  Ca2_0  1  0.11446950  0.38553050  0.37500000  1
  Ca  Ca2_1  1  0.11446950  0.38553050  0.87500000  1
  Ca  Ca2_2  1  0.11446950  0.88553050  0.37500000  1
  Ca  Ca2_3  1  0.11446950  0.88553050  0.87500000  1
  Ca  Ca2_4  1  0.61446950  0.38553050  0.37500000  1
  Ca  Ca2_5  1  0.61446950  0.38553050  0.87500000  1
  Ca  Ca2_6  1  0.61446950  0.88553050  0.37500000  1
  Ca  Ca2_7  1  0.61446950  0.88553050  0.87500000  1
  Ca  Ca3_0  1  0.27716100  0.22283900  0.37500000  1
  Ca  Ca3_1  1  0.27716100  0.22283900  0.87500000  1
  Ca  Ca3_2  1  0.27716100  0.72283900  0.37500000  1
  Ca  Ca3_3  1  0.27716100  0.72283900  0.87500000  1
  Ca  Ca3_4  1  0.77716100  0.22283900  0.37500000  1
  Ca  Ca3_5  1  0.77716100  0.22283900  0.87500000  1
  Ca  Ca3_6  1  0.77716100  0.72283900  0.37500000  1
  Ca  Ca3_7  1  0.77716100  0.72283900  0.87500000  1
  Mg  Mg0_0  1  0.05534350  0.44465650  0.12500000  1
  Mg  Mg0_1  1  0.05534350  0.44465650  0.62500000  1
  Mg  Mg0_2  1  0.05534350  0.94465650  0.12500000  1
  Mg  Mg0_3  1  0.05534350  0.94465650  0.62500000  1
  Mg  Mg0_4  1  0.55534350  0.44465650  0.12500000  1
  Mg  Mg0_5  1  0.55534350  0.44465650  0.62500000  1
  Mg  Mg0_6  1  0.55534350  0.94465650  0.12500000  1
  Mg  Mg0_7  1  0.55534350  0.94465650  0.62500000  1
  Mg  Mg1_0  1  0.44465650  0.05534350  0.37500000  1
  Mg  Mg1_1  1  0.44465650  0.05534350  0.87500000  1
  Mg  Mg1_2  1  0.44465650  0.55534350  0.37500000  1
  Mg  Mg1_3  1  0.44465650  0.55534350  0.87500000  1
  Mg  Mg1_4  1  0.94465650  0.05534350  0.37500000  1
  Mg  Mg1_5  1  0.94465650  0.05534350  0.87500000  1
  Mg  Mg1_6  1  0.94465650  0.55534350  0.37500000  1
  Mg  Mg1_7  1  0.94465650  0.55534350  0.87500000  1
loop_
_geom_bond_atom_site_label_1
_geom_bond_atom_site_label_2
_geom_bond_distance
_geom_bond_site_symmetry_2
Ca0_0 Mg0_2 3.594636 1_545
Ca0_0 Mg0_4 3.594636 1_555
Ca0_0 Ca3_1 3.611311 1_554
Ca0_0 Ca3_0 3.611311 1_555
Ca0_0 Mg1_5 3.684953 1_454
Ca0_0 Mg1_3 3.684953 1_554
Ca0_0 Mg1_2 3.684953 1_555
Ca0_0 Mg1_4 3.684953 1_455
Ca0_0 Ca1_2 3.748131 1_555
Ca0_0 Ca1_4 3.748131 1_455
Ca0_0 Ca0_6 3.750680 1_555
Ca0_0 Ca0_6 3.750680 1_445
Ca0_1 Mg0_3 3.594636 1_545
Ca0_1 Mg0_5 3.594636 1_555
Ca0_1 Ca3_0 3.611311 1_555
Ca0_1 Ca3_1 3.611311 1_555
Ca0_1 Mg1_2 3.684953 1_555
Ca0_1 Mg1_4 3.684953 1_455
Ca0_1 Mg1_3 3.684953 1_555
Ca0_1 Mg1_5 3.684953 1_455
Ca0_1 Ca1_3 3.748131 1_555
Ca0_1 Ca1_5 3.748131 1_455
Ca0_1 Ca0_7 3.750680 1_555
Ca0_1 Ca0_7 3.750680 1_445
Ca0_2 Mg0_6 3.594636 1_555
Ca0_2 Mg0_0 3.594636 1_555
Ca0_2 Ca3_3 3.611311 1_554
Ca0_2 Ca3_2 3.611311 1_555
Ca0_2 Mg1_7 3.684953 1_454
Ca0_2 Mg1_1 3.684953 1_564
Ca0_2 Mg1_6 3.684953 1_455
Ca0_2 Mg1_0 3.684953 1_565
Ca0_2 Ca1_6 3.748131 1_455
Ca0_2 Ca1_0 3.748131 1_565
Ca0_2 Ca0_4 3.750680 1_565
Ca0_2 Ca0_4 3.750680 1_455
Ca0_3 Mg0_7 3.594636 1_555
Ca0_3 Mg0_1 3.594636 1_555
Ca0_3 Ca3_2 3.611311 1_555
Ca0_3 Ca3_3 3.611311 1_555
Ca0_3 Mg1_6 3.684953 1_455
Ca0_3 Mg1_0 3.684953 1_565
Ca0_3 Mg1_7 3.684953 1_455
Ca0_3 Mg1_1 3.684953 1_565
Ca0_3 Ca1_7 3.748131 1_455
Ca0_3 Ca1_1 3.748131 1_565
Ca0_3 Ca0_5 3.750680 1_455
Ca0_3 Ca0_5 3.750680 1_565
Ca0_4 Mg0_6 3.594636 1_545
Ca0_4 Mg0_0 3.594636 1_655
Ca0_4 Ca3_5 3.611311 1_554
Ca0_4 Ca3_4 3.611311 1_555
Ca0_4 Mg1_1 3.684953 1_554
Ca0_4 Mg1_7 3.684953 1_554
Ca0_4 Mg1_6 3.684953 1_555
Ca0_4 Mg1_0 3.684953 1_555
Ca0_4 Ca1_0 3.748131 1_555
Ca0_4 Ca1_6 3.748131 1_555
Ca0_5 Mg0_7 3.594636 1_545
Ca0_5 Mg0_1 3.594636 1_655
Ca0_5 Ca3_4 3.611311 1_555
Ca0_5 Ca3_5 3.611311 1_555
Ca0_5 Mg1_6 3.684953 1_555
Ca0_5 Mg1_0 3.684953 1_555
Ca0_5 Mg1_1 3.684953 1_555
Ca0_5 Mg1_7 3.684953 1_555
Ca0_5 Ca1_1 3.748131 1_555
Ca0_5 Ca1_7 3.748131 1_555
Ca0_6 Mg0_2 3.594636 1_655
Ca0_6 Mg0_4 3.594636 1_555
Ca0_6 Ca3_7 3.611311 1_554
Ca0_6 Ca3_6 3.611311 1_555
Ca0_6 Mg1_5 3.684953 1_564
Ca0_6 Mg1_3 3.684953 1_554
Ca0_6 Mg1_4 3.684953 1_565
Ca0_6 Mg1_2 3.684953 1_555
Ca0_6 Ca1_2 3.748131 1_555
Ca0_6 Ca1_4 3.748131 1_565
Ca0_7 Mg0_3 3.594636 1_655
Ca0_7 Mg0_5 3.594636 1_555
Ca0_7 Ca3_6 3.611311 1_555
Ca0_7 Ca3_7 3.611311 1_555
Ca0_7 Mg1_4 3.684953 1_565
Ca0_7 Mg1_2 3.684953 1_555
Ca0_7 Mg1_5 3.684953 1_565
Ca0_7 Mg1_3 3.684953 1_555
Ca0_7 Ca1_3 3.748131 1_555
Ca0_7 Ca1_5 3.748131 1_565
Ca1_0 Mg0_4 3.521433 1_555
Ca1_0 Mg0_2 3.521433 1_545
Ca1_0 Ca2_5 3.618615 1_554
Ca1_0 Ca2_3 3.618615 1_544
Ca1_0 Ca2_2 3.618615 1_545
Ca1_0 Ca2_4 3.618615 1_555
Ca1_0 Mg1_1 3.714100 1_554
Ca1_0 Mg1_0 3.714100 1_555
Ca1_0 Ca1_6 3.750680 1_445
Ca1_0 Ca1_6 3.750680 1_555
Ca1_1 Mg0_5 3.521433 1_555
Ca1_1 Mg0_3 3.521433 1_545
Ca1_1 Ca2_2 3.618615 1_545
Ca1_1 Ca2_4 3.618615 1_555
Ca1_1 Ca2_5 3.618615 1_555
Ca1_1 Ca2_3 3.618615 1_545
Ca1_1 Mg1_0 3.714100 1_555
Ca1_1 Mg1_1 3.714100 1_555
Ca1_1 Ca1_7 3.750680 1_445
Ca1_1 Ca1_7 3.750680 1_555
Ca1_2 Mg0_0 3.521433 1_555
Ca1_2 Mg0_6 3.521433 1_555
Ca1_2 Ca2_7 3.618615 1_554
Ca1_2 Ca2_1 3.618615 1_554
Ca1_2 Ca2_6 3.618615 1_555
Ca1_2 Ca2_0 3.618615 1_555
Ca1_2 Mg1_3 3.714100 1_554
Ca1_2 Mg1_2 3.714100 1_555
Ca1_2 Ca1_4 3.750680 1_455
Ca1_2 Ca1_4 3.750680 1_565
Ca1_3 Mg0_1 3.521433 1_555
Ca1_3 Mg0_7 3.521433 1_555
Ca1_3 Ca2_6 3.618615 1_555
Ca1_3 Ca2_0 3.618615 1_555
Ca1_3 Ca2_7 3.618615 1_555
Ca1_3 Ca2_1 3.618615 1_555
Ca1_3 Mg1_2 3.714100 1_555
Ca1_3 Mg1_3 3.714100 1_555
Ca1_3 Ca1_5 3.750680 1_455
Ca1_3 Ca1_5 3.750680 1_565
Ca1_4 Mg0_0 3.521433 1_655
Ca1_4 Mg0_6 3.521433 1_545
Ca1_4 Ca2_7 3.618615 1_544
Ca1_4 Ca2_1 3.618615 1_654
Ca1_4 Ca2_6 3.618615 1_545
Ca1_4 Ca2_0 3.618615 1_655
Ca1_4 Mg1_5 3.714100 1_554
Ca1_4 Mg1_4 3.714100 1_555
Ca1_5 Mg0_1 3.521433 1_655
Ca1_5 Mg0_7 3.521433 1_545
Ca1_5 Ca2_0 3.618615 1_655
Ca1_5 Ca2_6 3.618615 1_545
Ca1_5 Ca2_7 3.618615 1_545
Ca1_5 Ca2_1 3.618615 1_655
Ca1_5 Mg1_4 3.714100 1_555
Ca1_5 Mg1_5 3.714100 1_555
Ca1_6 Mg0_2 3.521433 1_655
Ca1_6 Mg0_4 3.521433 1_555
Ca1_6 Ca2_3 3.618615 1_654
Ca1_6 Ca2_5 3.618615 1_554
Ca1_6 Ca2_2 3.618615 1_655
Ca1_6 Ca2_4 3.618615 1_555
Ca1_6 Mg1_7 3.714100 1_554
Ca1_6 Mg1_6 3.714100 1_555
Ca1_7 Mg0_3 3.521433 1_655
Ca1_7 Mg0_5 3.521433 1_555
Ca1_7 Ca2_2 3.618615 1_655
Ca1_7 Ca2_4 3.618615 1_555
Ca1_7 Ca2_3 3.618615 1_655
Ca1_7 Ca2_5 3.618615 1_555
Ca1_7 Mg1_6 3.714100 1_555
Ca1_7 Mg1_7 3.714100 1_555
Ca2_0 Mg1_2 3.521433 1_555
Ca2_0 Mg1_4 3.521433 1_455
Ca2_0 Mg0_1 3.714100 1_555
Ca2_0 Mg0_0 3.714100 1_555
Ca2_0 Ca3_2 3.748131 1_555
Ca2_0 Ca3_4 3.748131 1_455
Ca2_0 Ca2_6 3.750680 1_555
Ca2_0 Ca2_6 3.750680 1_445
Ca2_1 Mg1_5 3.521433 1_455
Ca2_1 Mg1_3 3.521433 1_555
Ca2_1 Mg0_0 3.714100 1_556
Ca2_1 Mg0_1 3.714100 1_555
Ca2_1 Ca3_3 3.748131 1_555
Ca2_1 Ca3_5 3.748131 1_455
Ca2_1 Ca2_7 3.750680 1_555
Ca2_1 Ca2_7 3.750680 1_445
Ca2_2 Mg1_0 3.521433 1_565
Ca2_2 Mg1_6 3.521433 1_455
Ca2_2 Mg0_3 3.714100 1_555
Ca2_2 Mg0_2 3.714100 1_555
Ca2_2 Ca3_6 3.748131 1_455
Ca2_2 Ca3_0 3.748131 1_565
Ca2_2 Ca2_4 3.750680 1_565
Ca2_2 Ca2_4 3.750680 1_455
Ca2_3 Mg1_1 3.521433 1_565
Ca2_3 Mg1_7 3.521433 1_455
Ca2_3 Mg0_2 3.714100 1_556
Ca2_3 Mg0_3 3.714100 1_555
Ca2_3 Ca3_7 3.748131 1_455
Ca2_3 Ca3_1 3.748131 1_565
Ca2_3 Ca2_5 3.750680 1_565
Ca2_3 Ca2_5 3.750680 1_455
Ca2_4 Mg1_0 3.521433 1_555
Ca2_4 Mg1_6 3.521433 1_555
Ca2_4 Mg0_5 3.714100 1_555
Ca2_4 Mg0_4 3.714100 1_555
Ca2_4 Ca3_6 3.748131 1_555
Ca2_4 Ca3_0 3.748131 1_555
Ca2_5 Mg1_1 3.521433 1_555
Ca2_5 Mg1_7 3.521433 1_555
Ca2_5 Mg0_4 3.714100 1_556
Ca2_5 Mg0_5 3.714100 1_555
Ca2_5 Ca3_1 3.748131 1_555
Ca2_5 Ca3_7 3.748131 1_555
Ca2_6 Mg1_2 3.521433 1_555
Ca2_6 Mg1_4 3.521433 1_565
Ca2_6 Mg0_7 3.714100 1_555
Ca2_6 Mg0_6 3.714100 1_555
Ca2_6 Ca3_2 3.748131 1_555
Ca2_6 Ca3_4 3.748131 1_565
Ca2_7 Mg1_3 3.521433 1_555
Ca2_7 Mg1_5 3.521433 1_565
Ca2_7 Mg0_6 3.714100 1_556
Ca2_7 Mg0_7 3.714100 1_555
Ca2_7 Ca3_3 3.748131 1_555
Ca2_7 Ca3_5 3.748131 1_565
Ca3_0 Mg1_4 3.594636 1_455
Ca3_0 Mg1_2 3.594636 1_555
Ca3_0 Mg0_5 3.684953 1_555
Ca3_0 Mg0_3 3.684953 1_545
Ca3_0 Mg0_2 3.684953 1_545
Ca3_0 Mg0_4 3.684953 1_555
Ca3_0 Ca3_6 3.750680 1_445
Ca3_0 Ca3_6 3.750680 1_555
Ca3_1 Mg1_5 3.594636 1_455
Ca3_1 Mg1_3 3.594636 1_555
Ca3_1 Mg0_2 3.684953 1_546
Ca3_1 Mg0_4 3.684953 1_556
Ca3_1 Mg0_3 3.684953 1_545
Ca3_1 Mg0_5 3.684953 1_555
Ca3_1 Ca3_7 3.750680 1_445
Ca3_1 Ca3_7 3.750680 1_555
Ca3_2 Mg1_6 3.594636 1_455
Ca3_2 Mg1_0 3.594636 1_565
Ca3_2 Mg0_1 3.684953 1_555
Ca3_2 Mg0_7 3.684953 1_555
Ca3_2 Mg0_6 3.684953 1_555
Ca3_2 Mg0_0 3.684953 1_555
Ca3_2 Ca3_4 3.750680 1_455
Ca3_2 Ca3_4 3.750680 1_565
Ca3_3 Mg1_7 3.594636 1_455
Ca3_3 Mg1_1 3.594636 1_565
Ca3_3 Mg0_6 3.684953 1_556
Ca3_3 Mg0_0 3.684953 1_556
Ca3_3 Mg0_7 3.684953 1_555
Ca3_3 Mg0_1 3.684953 1_555
Ca3_3 Ca3_5 3.750680 1_455
Ca3_3 Ca3_5 3.750680 1_565
Ca3_4 Mg1_6 3.594636 1_555
Ca3_4 Mg1_0 3.594636 1_555
Ca3_4 Mg0_7 3.684953 1_545
Ca3_4 Mg0_1 3.684953 1_655
Ca3_4 Mg0_6 3.684953 1_545
Ca3_4 Mg0_0 3.684953 1_655
Ca3_5 Mg1_7 3.594636 1_555
Ca3_5 Mg1_1 3.594636 1_555
Ca3_5 Mg0_6 3.684953 1_546
Ca3_5 Mg0_0 3.684953 1_656
Ca3_5 Mg0_7 3.684953 1_545
Ca3_5 Mg0_1 3.684953 1_655
Ca3_6 Mg1_2 3.594636 1_555
Ca3_6 Mg1_4 3.594636 1_565
Ca3_6 Mg0_5 3.684953 1_555
Ca3_6 Mg0_3 3.684953 1_655
Ca3_6 Mg0_4 3.684953 1_555
Ca3_6 Mg0_2 3.684953 1_655
Ca3_7 Mg1_3 3.594636 1_555
Ca3_7 Mg1_5 3.594636 1_565
Ca3_7 Mg0_4 3.684953 1_556
Ca3_7 Mg0_2 3.684953 1_656
Ca3_7 Mg0_5 3.684953 1_555
Ca3_7 Mg0_3 3.684953 1_655
