# generated using pymatgen
data_KLaCeSnO6
_symmetry_space_group_name_H-M   'P 1'
_cell_length_a   8.51566086
_cell_length_b   8.39582308
_cell_length_c   8.55492972
_cell_angle_alpha   90.00000000
_cell_angle_beta   90.00000000
_cell_angle_gamma   90.00000000
_symmetry_Int_Tables_number   1
_chemical_formula_structural   KLaCeSnO6
_chemical_formula_sum   'K4 La4 Ce4 Sn4 O24'
_cell_volume   611.64310119
_cell_formula_units_Z   4
loop_
 _symmetry_equiv_pos_site_id
 _symmetry_equiv_pos_as_xyz
  1  'x, y, z'
loop_
 _atom_site_type_symbol
 _atom_site_label
 _atom_site_symmetry_multiplicity
 _atom_site_fract_x
 _atom_site_fract_y
 _atom_site_fract_z
 _atom_site_occupancy
  K  K0  1  -0.00000000  0.50000000  0.50000000  1
  K  K1  1  0.50000000  0.50000000  0.00000000  1
  K  K2  1  0.50000000  0.00000000  -0.00000000  1
  K  K3  1  0.00000000  0.00000000  0.50000000  1
  La  La0  1  0.50000000  0.00000000  0.50000000  1
  La  La1  1  0.00000000  0.50000000  -0.00000000  1
  La  La2  1  -0.00000000  0.00000000  -0.00000000  1
  La  La3  1  0.50000000  0.50000000  0.50000000  1
  Ce  Ce0  1  0.75000000  0.75000000  0.75000000  1
  Ce  Ce1  1  0.25000000  0.25000000  0.75000000  1
  Ce  Ce2  1  0.25000000  0.75000000  0.25000000  1
  Ce  Ce3  1  0.75000000  0.25000000  0.25000000  1
  Sn  Sn0  1  0.25000000  0.25000000  0.25000000  1
  Sn  Sn1  1  0.75000000  0.75000000  0.25000000  1
  Sn  Sn2  1  0.75000000  0.25000000  0.75000000  1
  Sn  Sn3  1  0.25000000  0.75000000  0.75000000  1
  O  O0  1  0.00711765  0.21295204  0.25924766  1
  O  O1  1  0.99288235  0.78704796  0.25924766  1
  O  O2  1  0.99288235  0.21295204  0.74075234  1
  O  O3  1  0.00711765  0.78704796  0.74075234  1
  O  O4  1  0.27327255  0.00792918  0.21650501  1
  O  O5  1  0.27327255  0.99207082  0.78349499  1
  O  O6  1  0.72672745  0.99207082  0.21650501  1
  O  O7  1  0.72672745  0.00792918  0.78349499  1
  O  O8  1  0.19270946  0.27966758  0.00948319  1
  O  O9  1  0.80729054  0.27966758  0.99051681  1
  O  O10  1  0.19270946  0.72033242  0.99051681  1
  O  O11  1  0.80729054  0.72033242  0.00948319  1
  O  O12  1  0.49288235  0.28704796  0.24075234  1
  O  O13  1  0.50711765  0.71295204  0.24075234  1
  O  O14  1  0.50711765  0.28704796  0.75924766  1
  O  O15  1  0.49288235  0.71295204  0.75924766  1
  O  O16  1  0.22672745  0.49207082  0.28349499  1
  O  O17  1  0.22672745  0.50792918  0.71650501  1
  O  O18  1  0.77327255  0.50792918  0.28349499  1
  O  O19  1  0.77327255  0.49207082  0.71650501  1
  O  O20  1  0.30729054  0.22033242  0.49051681  1
  O  O21  1  0.69270946  0.22033242  0.50948319  1
  O  O22  1  0.30729054  0.77966758  0.50948319  1
  O  O23  1  0.69270946  0.77966758  0.49051681  1
loop_
_geom_bond_atom_site_label_1
_geom_bond_atom_site_label_2
_geom_bond_distance
_geom_bond_site_symmetry_2
K0 O16 2.676333 1_555
K0 O17 2.676333 1_555
K0 O18 2.676333 1_455
K0 O19 2.676333 1_455
K0 O1 3.170777 1_455
K0 O0 3.170777 1_555
K0 O3 3.170777 1_555
K0 O2 3.170777 1_455
K1 O14 2.728061 1_554
K1 O15 2.728061 1_554
K1 O13 2.728061 1_555
K1 O12 2.728061 1_555
K1 O10 3.205644 1_554
K1 O11 3.205644 1_555
K1 O9 3.205644 1_554
K1 O8 3.205644 1_555
K2 O5 2.676333 1_544
K2 O4 2.676333 1_555
K2 O6 2.676333 1_545
K2 O7 2.676333 1_554
K2 O14 3.170777 1_554
K2 O13 3.170777 1_545
K2 O15 3.170777 1_544
K2 O12 3.170777 1_555
K3 O3 2.728061 1_545
K3 O1 2.728061 1_445
K3 O0 2.728061 1_555
K3 O2 2.728061 1_455
K3 O23 3.205644 1_445
K3 O22 3.205644 1_545
K3 O20 3.205644 1_555
K3 O21 3.205644 1_455
La0 O23 2.474196 1_545
La0 O22 2.474196 1_545
La0 O21 2.474196 1_555
La0 O20 2.474196 1_555
La1 O10 2.474196 1_554
La1 O9 2.474196 1_454
La1 O8 2.474196 1_555
La1 O11 2.474196 1_455
La2 O0 2.849408 1_555
La2 O2 2.849408 1_454
La2 O3 2.849408 1_544
La2 O1 2.849408 1_445
La2 O9 2.865818 1_454
La2 O8 2.865818 1_555
La2 O11 2.865818 1_445
La2 O10 2.865818 1_544
La2 O5 2.974962 1_544
La2 O7 2.974962 1_454
La2 O6 2.974962 1_445
La2 O4 2.974962 1_555
La3 O13 2.849408 1_555
La3 O12 2.849408 1_555
La3 O15 2.849408 1_555
La3 O14 2.849408 1_555
La3 O22 2.865818 1_555
La3 O20 2.865818 1_555
La3 O23 2.865818 1_555
La3 O21 2.865818 1_555
La3 O19 2.974962 1_555
La3 O16 2.974962 1_555
La3 O18 2.974962 1_555
La3 O17 2.974962 1_555
Ce0 O19 2.193375 1_555
Ce0 O7 2.193375 1_565
Ce0 O15 2.212925 1_555
Ce0 O3 2.212925 1_655
Ce0 O23 2.286446 1_555
Ce0 O11 2.286446 1_556
Ce1 O5 2.193375 1_545
Ce1 O17 2.193375 1_555
Ce1 O14 2.212925 1_555
Ce1 O2 2.212925 1_455
Ce1 O20 2.286446 1_555
Ce1 O8 2.286446 1_556
Ce2 O16 2.193375 1_555
Ce2 O4 2.193375 1_565
Ce2 O13 2.212925 1_555
Ce2 O1 2.212925 1_455
Ce2 O22 2.286446 1_555
Ce2 O10 2.286446 1_554
Ce3 O6 2.193375 1_545
Ce3 O18 2.193375 1_555
Ce3 O12 2.212925 1_555
Ce3 O0 2.212925 1_655
Ce3 O21 2.286446 1_555
Ce3 O9 2.286446 1_554
O0 Sn0 2.093058 1_555
O1 Sn1 2.093058 1_555
O2 Sn2 2.093058 1_555
O3 Sn3 2.093058 1_555
O4 Sn0 2.062030 1_555
O5 Sn3 2.062030 1_555
O6 Sn1 2.062030 1_555
O7 Sn2 2.062030 1_555
O8 Sn0 2.129270 1_555
O9 Sn2 2.129270 1_555
O10 Sn3 2.129270 1_555
O11 Sn1 2.129270 1_555
O12 Sn0 2.093058 1_555
O13 Sn1 2.093058 1_555
O14 Sn2 2.093058 1_555
O15 Sn3 2.093058 1_555
O16 Sn0 2.062030 1_555
O17 Sn3 2.062030 1_555
O18 Sn1 2.062030 1_555
O19 Sn2 2.062030 1_555
O20 Sn0 2.129270 1_555
O21 Sn2 2.129270 1_555
O22 Sn3 2.129270 1_555
O23 Sn1 2.129270 1_555
