# generated using pymatgen
data_Mg6AlSi
_symmetry_space_group_name_H-M   'P 1'
_cell_length_a   5.15318500
_cell_length_b   6.06883300
_cell_length_c   10.57317000
_cell_angle_alpha   90.00000000
_cell_angle_beta   90.00000000
_cell_angle_gamma   90.00000000
_symmetry_Int_Tables_number   1
_chemical_formula_structural   Mg6AlSi
_chemical_formula_sum   'Mg12 Al2 Si2'
_cell_volume   330.66340677
_cell_formula_units_Z   2
loop_
 _symmetry_equiv_pos_site_id
 _symmetry_equiv_pos_as_xyz
  1  'x, y, z'
loop_
 _atom_site_type_symbol
 _atom_site_label
 _atom_site_symmetry_multiplicity
 _atom_site_fract_x
 _atom_site_fract_y
 _atom_site_fract_z
 _atom_site_occupancy
  Mg  Mg0  1  0.00000000  0.25469700  0.08574500  1
  Mg  Mg1  1  0.00000000  0.74530300  0.08574500  1
  Mg  Mg2  1  0.00000000  0.00000000  0.33250100  1
  Mg  Mg3  1  0.50000000  0.74717100  0.41485100  1
  Mg  Mg4  1  0.50000000  0.25282900  0.41485100  1
  Mg  Mg5  1  0.50000000  0.00000000  0.16729700  1
  Mg  Mg6  1  0.00000000  0.75469700  0.58574500  1
  Mg  Mg7  1  0.00000000  0.24530300  0.58574500  1
  Mg  Mg8  1  0.00000000  0.50000000  0.83250100  1
  Mg  Mg9  1  0.50000000  0.24717100  0.91485100  1
  Mg  Mg10  1  0.50000000  0.75282900  0.91485100  1
  Mg  Mg11  1  0.50000000  0.50000000  0.66729700  1
  Al  Al0  1  0.00000000  0.50000000  0.33076000  1
  Al  Al1  1  0.00000000  0.00000000  0.83076000  1
  Si  Si0  1  0.50000000  0.50000000  0.16825100  1
  Si  Si1  1  0.50000000  0.00000000  0.66825100  1
loop_
_geom_bond_atom_site_label_1
_geom_bond_atom_site_label_2
_geom_bond_distance
_geom_bond_site_symmetry_2
Mg0 Mg1 2.977406 1_555
Mg0 Mg2 3.032503 1_555
Mg0 Mg8 3.063615 1_554
Mg0 Mg1 3.091427 1_545
Mg0 Si0 3.100977 1_555
Mg0 Si0 3.100977 1_455
Mg0 Mg5 3.125949 1_455
Mg0 Mg5 3.125949 1_555
Mg0 Mg9 3.147344 1_554
Mg0 Mg9 3.147344 1_454
Mg1 Mg2 3.032503 1_565
Mg1 Mg8 3.063615 1_554
Mg1 Si0 3.100977 1_555
Mg1 Si0 3.100977 1_455
Mg1 Mg5 3.125949 1_565
Mg1 Mg5 3.125949 1_465
Mg1 Mg10 3.147344 1_554
Mg1 Mg10 3.147344 1_454
Mg2 Mg6 3.063615 1_545
Mg2 Mg7 3.063615 1_555
Mg2 Mg5 3.112860 1_455
Mg2 Mg5 3.112860 1_555
Mg2 Mg3 3.122701 1_545
Mg2 Mg4 3.122701 1_455
Mg2 Mg3 3.122701 1_445
Mg2 Mg4 3.122701 1_555
Mg3 Mg4 3.000079 1_555
Mg3 Si0 3.008049 1_555
Mg3 Mg5 3.034016 1_565
Mg3 Mg4 3.068754 1_565
Mg3 Si1 3.087498 1_565
Mg3 Mg6 3.147344 1_555
Mg3 Mg6 3.147344 1_655
Mg4 Si0 3.008049 1_555
Mg4 Mg5 3.034016 1_555
Mg4 Si1 3.087498 1_555
Mg4 Mg7 3.147344 1_555
Mg4 Mg7 3.147344 1_655
Mg5 Si0 3.034433 1_545
Mg5 Si0 3.034433 1_555
Mg5 Mg9 3.061781 1_554
Mg6 Mg7 2.977406 1_565
Mg6 Mg8 3.032503 1_555
Mg6 Mg7 3.091427 1_555
Mg6 Si1 3.100977 1_465
Mg6 Si1 3.100977 1_565
Mg7 Mg8 3.032503 1_555
Mg7 Si1 3.100977 1_455
Mg7 Si1 3.100977 1_555
Mg8 Mg9 3.122701 1_455
Mg8 Mg9 3.122701 1_555
Mg9 Si1 3.008049 1_555
Mg9 Si0 3.087498 1_556
Mg10 Mg9 3.000079 1_565
Mg10 Si1 3.008049 1_565
Mg10 Mg11 3.034016 1_555
Mg10 Mg5 3.061781 1_566
Mg10 Mg9 3.068754 1_555
Mg10 Si0 3.087498 1_556
Mg10 Mg8 3.122701 1_655
Mg10 Mg8 3.122701 1_555
Mg11 Mg9 3.034016 1_555
Mg11 Si1 3.034433 1_565
Mg11 Si1 3.034433 1_555
Mg11 Mg4 3.061781 1_555
Mg11 Mg3 3.061781 1_555
Mg11 Mg8 3.112860 1_655
Mg11 Mg8 3.112860 1_555
Mg11 Mg6 3.125949 1_655
Mg11 Mg6 3.125949 1_555
Mg11 Mg7 3.125949 1_655
Mg11 Mg7 3.125949 1_555
Al0 Mg1 2.987870 1_555
Al0 Mg0 2.987870 1_555
Al0 Mg2 3.034472 1_555
Al0 Mg2 3.034472 1_565
Al0 Mg6 3.107675 1_555
Al0 Mg7 3.107675 1_555
Al0 Mg4 3.111183 1_455
Al0 Mg4 3.111183 1_555
Al0 Mg3 3.111183 1_455
Al0 Mg3 3.111183 1_555
Al1 Mg7 2.987870 1_555
Al1 Mg6 2.987870 1_545
Al1 Mg8 3.034472 1_555
Al1 Mg8 3.034472 1_545
Al1 Mg1 3.107675 1_546
Al1 Mg0 3.107675 1_556
Al1 Mg10 3.111183 1_445
Al1 Mg10 3.111183 1_545
Al1 Mg9 3.111183 1_555
Al1 Mg9 3.111183 1_455
