# generated using pymatgen
data_Li7Mn4CoO12
_symmetry_space_group_name_H-M   'P 1'
_cell_length_a   5.02682200
_cell_length_b   5.82752920
_cell_length_c   7.93913945
_cell_angle_alpha   79.39351523
_cell_angle_beta   80.36110506
_cell_angle_gamma   73.14493558
_symmetry_Int_Tables_number   1
_chemical_formula_structural   Li7Mn4CoO12
_chemical_formula_sum   'Li7 Mn4 Co1 O12'
_cell_volume   217.16065270
_cell_formula_units_Z   1
loop_
 _symmetry_equiv_pos_site_id
 _symmetry_equiv_pos_as_xyz
  1  'x, y, z'
loop_
 _atom_site_type_symbol
 _atom_site_label
 _atom_site_symmetry_multiplicity
 _atom_site_fract_x
 _atom_site_fract_y
 _atom_site_fract_z
 _atom_site_occupancy
  Li  Li0  1  0.50259000  0.33170900  0.16070600  1
  Li  Li1  1  0.99454400  0.83609300  0.67189700  1
  Li  Li2  1  0.99563700  0.16788800  0.33402900  1
  Li  Li3  1  0.49936700  0.66590700  0.82981800  1
  Li  Li4  1  0.49674200  0.00130900  0.51089200  1
  Li  Li5  1  0.01002600  0.49903700  0.99141600  1
  Li  Li6  1  0.49802700  0.16920300  0.82955400  1
  Mn  Mn0  1  0.00960800  0.00230700  0.99188100  1
  Mn  Mn1  1  0.99978000  0.33023800  0.67164900  1
  Mn  Mn2  1  0.50568300  0.83423400  0.16227300  1
  Mn  Mn3  1  0.99528400  0.66532800  0.33662300  1
  Co  Co0  1  0.49283000  0.49508900  0.51391100  1
  O  O0  1  0.78864100  0.31747200  0.89867400  1
  O  O1  1  0.27004600  0.80876400  0.39575300  1
  O  O2  1  0.25351100  0.14090800  0.09227300  1
  O  O3  1  0.74072400  0.64202400  0.59056900  1
  O  O4  1  0.74064300  0.97865300  0.25578700  1
  O  O5  1  0.23360400  0.49690300  0.73872700  1
  O  O6  1  0.23168500  0.35296300  0.43716900  1
  O  O7  1  0.74090900  0.84289500  0.94507200  1
  O  O8  1  0.75330700  0.19411800  0.57673400  1
  O  O9  1  0.26554900  0.68573100  0.07815200  1
  O  O10  1  0.23267100  0.02001100  0.73652400  1
  O  O11  1  0.74858900  0.52121300  0.24991500  1
loop_
_geom_bond_atom_site_label_1
_geom_bond_atom_site_label_2
_geom_bond_distance
_geom_bond_site_symmetry_2
Li0 O2 2.087271 1_555
Li0 O9 2.108044 1_555
Li0 O4 2.130231 1_545
Li0 O11 2.150227 1_555
Li0 O0 2.322678 1_554
Li0 O6 2.385087 1_555
Li1 O10 1.999235 1_665
Li1 O5 2.020567 1_655
Li1 O8 2.157250 1_565
Li1 O3 2.169181 1_555
Li1 O7 2.325313 1_555
Li1 O1 2.394489 1_655
Li2 O8 2.105825 1_555
Li2 O11 2.125190 1_555
Li2 O2 2.132756 1_655
Li2 O4 2.140917 1_545
Li2 O6 2.152741 1_655
Li2 O1 2.167367 1_645
Li3 O3 2.080115 1_555
Li3 O9 2.123902 1_556
Li3 O5 2.150919 1_555
Li3 O0 2.163713 1_555
Li3 O10 2.183971 1_565
Li3 O7 2.195676 1_555
Li4 O10 2.043157 1_555
Li4 O8 2.116929 1_555
Li4 O6 2.133914 1_555
Li4 O3 2.138040 1_545
Li4 O4 2.189873 1_545
Li4 O1 2.204794 1_545
Li5 O0 2.035713 1_455
Li5 O7 2.074633 1_455
Li5 O5 2.129294 1_555
Li5 O9 2.165661 1_556
Li5 O2 2.174057 1_556
Li5 O11 2.247564 1_456
Li6 O5 2.067772 1_555
Li6 O10 2.078340 1_555
Li6 O7 2.081910 1_545
Li6 O0 2.087297 1_555
Li6 O8 2.198812 1_555
Li6 O2 2.240710 1_556
Mn0 O0 1.935585 1_455
Mn0 O7 1.961715 1_445
Mn0 O2 1.982257 1_556
Mn0 O9 1.995340 1_546
Mn0 O10 2.146346 1_555
Mn0 O4 2.299989 1_446
Mn1 O10 1.880417 1_655
Mn1 O5 1.915854 1_655
Mn1 O0 1.932982 1_555
Mn1 O8 1.958252 1_555
Mn1 O3 1.972182 1_555
Mn1 O6 2.028298 1_655
Mn2 O2 1.914728 1_565
Mn2 O7 1.921975 1_554
Mn2 O9 1.934059 1_555
Mn2 O4 1.937676 1_555
Mn2 O11 1.956578 1_555
Mn2 O1 2.031363 1_555
Mn3 O11 1.954399 1_555
Mn3 O1 1.964128 1_655
Mn3 O4 1.967908 1_555
Mn3 O6 1.972623 1_655
Mn3 O3 2.203780 1_555
Mn3 O9 2.267375 1_655
Co0 O8 1.898510 1_555
Co0 O3 1.928981 1_555
Co0 O6 1.965847 1_555
Co0 O1 2.002244 1_555
Co0 O5 2.025812 1_555
Co0 O11 2.272129 1_555
