# generated using pymatgen
data_PH24W12C6N3O40
_symmetry_space_group_name_H-M   'P 1'
_cell_length_a   13.20120441
_cell_length_b   13.20120441
_cell_length_c   13.20120425
_cell_angle_alpha   80.84256197
_cell_angle_beta   80.84256197
_cell_angle_gamma   80.84256351
_symmetry_Int_Tables_number   1
_chemical_formula_structural   PH24W12C6N3O40
_chemical_formula_sum   'P2 H48 W24 C12 N6 O80'
_cell_volume   2221.09287866
_cell_formula_units_Z   2
loop_
 _symmetry_equiv_pos_site_id
 _symmetry_equiv_pos_as_xyz
  1  'x, y, z'
loop_
 _atom_site_type_symbol
 _atom_site_label
 _atom_site_symmetry_multiplicity
 _atom_site_fract_x
 _atom_site_fract_y
 _atom_site_fract_z
 _atom_site_occupancy
  P  P0  1  0.73411721  0.73411721  0.73411721  1
  P  P1  1  0.26588279  0.26588279  0.26588279  1
  H  H0  1  0.87228328  0.25583487  0.87222155  1
  H  H1  1  0.25583487  0.87222155  0.87228328  1
  H  H2  1  0.87222155  0.87228328  0.25583487  1
  H  H3  1  0.12771672  0.74416513  0.12777845  1
  H  H4  1  0.74416513  0.12777845  0.12771672  1
  H  H5  1  0.12777845  0.12771672  0.74416513  1
  H  H6  1  0.78651992  0.15938084  0.89163806  1
  H  H7  1  0.15938084  0.89163806  0.78651992  1
  H  H8  1  0.89163806  0.78651992  0.15938084  1
  H  H9  1  0.78649937  0.89163060  0.15935689  1
  H  H10  1  0.89163060  0.15935689  0.78649937  1
  H  H11  1  0.15935689  0.78649937  0.89163060  1
  H  H12  1  0.21348008  0.84061916  0.10836194  1
  H  H13  1  0.84061916  0.10836194  0.21348008  1
  H  H14  1  0.10836194  0.21348008  0.84061916  1
  H  H15  1  0.21350063  0.10836940  0.84064311  1
  H  H16  1  0.10836940  0.84064311  0.21350063  1
  H  H17  1  0.84064311  0.21350063  0.10836940  1
  H  H18  1  0.65841445  0.28430917  0.65845962  1
  H  H19  1  0.28430917  0.65845962  0.65841445  1
  H  H20  1  0.65845962  0.65841445  0.28430917  1
  H  H21  1  0.34158555  0.71569083  0.34154038  1
  H  H22  1  0.71569083  0.34154038  0.34158555  1
  H  H23  1  0.34154038  0.34158555  0.71569083  1
  H  H24  1  0.65533423  0.17700368  0.76039121  1
  H  H25  1  0.17700368  0.76039121  0.65533423  1
  H  H26  1  0.76039121  0.65533423  0.17700368  1
  H  H27  1  0.65530432  0.76038609  0.17703290  1
  H  H28  1  0.76038609  0.17703290  0.65530432  1
  H  H29  1  0.17703290  0.65530432  0.76038609  1
  H  H30  1  0.34466577  0.82299632  0.23960879  1
  H  H31  1  0.82299632  0.23960879  0.34466577  1
  H  H32  1  0.23960879  0.34466577  0.82299632  1
  H  H33  1  0.34469568  0.23961391  0.82296710  1
  H  H34  1  0.23961391  0.82296710  0.34469568  1
  H  H35  1  0.82296710  0.34469568  0.23961391  1
  H  H36  1  0.71260527  0.32573306  0.80925598  1
  H  H37  1  0.32573306  0.80925598  0.71260527  1
  H  H38  1  0.80925598  0.71260527  0.32573306  1
  H  H39  1  0.71259913  0.80925875  0.32573923  1
  H  H40  1  0.80925875  0.32573923  0.71259913  1
  H  H41  1  0.32573923  0.71259913  0.80925875  1
  H  H42  1  0.28739473  0.67426694  0.19074402  1
  H  H43  1  0.67426694  0.19074402  0.28739473  1
  H  H44  1  0.19074402  0.28739473  0.67426694  1
  H  H45  1  0.28740087  0.19074125  0.67426077  1
  H  H46  1  0.19074125  0.67426077  0.28740087  1
  H  H47  1  0.67426077  0.28740087  0.19074125  1
  W  W0  1  0.91699877  0.69755075  0.91700518  1
  W  W1  1  0.69755075  0.91700518  0.91699877  1
  W  W2  1  0.91700518  0.91699877  0.69755075  1
  W  W3  1  0.08300123  0.30244925  0.08299482  1
  W  W4  1  0.30244925  0.08299482  0.08300123  1
  W  W5  1  0.08299482  0.08300123  0.30244925  1
  W  W6  1  0.74112035  0.52105331  0.94630219  1
  W  W7  1  0.52105331  0.94630219  0.74112035  1
  W  W8  1  0.94630219  0.74112035  0.52105331  1
  W  W9  1  0.74113191  0.94629132  0.52105247  1
  W  W10  1  0.94629132  0.52105247  0.74113191  1
  W  W11  1  0.52105247  0.74113191  0.94629132  1
  W  W12  1  0.25887965  0.47894669  0.05369781  1
  W  W13  1  0.47894669  0.05369781  0.25887965  1
  W  W14  1  0.05369781  0.25887965  0.47894669  1
  W  W15  1  0.25886809  0.05370868  0.47894753  1
  W  W16  1  0.05370868  0.47894753  0.25886809  1
  W  W17  1  0.47894753  0.25886809  0.05370868  1
  W  W18  1  0.55092461  0.55093273  0.75533876  1
  W  W19  1  0.55093273  0.75533876  0.55092461  1
  W  W20  1  0.75533876  0.55092461  0.55093273  1
  W  W21  1  0.44907539  0.44906727  0.24466124  1
  W  W22  1  0.44906727  0.24466124  0.44907539  1
  W  W23  1  0.24466124  0.44907539  0.44906727  1
  C  C0  1  0.83386426  0.20768408  0.83384451  1
  C  C1  1  0.20768408  0.83384451  0.83386426  1
  C  C2  1  0.83384451  0.83386426  0.20768408  1
  C  C3  1  0.16613574  0.79231592  0.16615549  1
  C  C4  1  0.79231592  0.16615549  0.16613574  1
  C  C5  1  0.16615549  0.16613574  0.79231592  1
  C  C6  1  0.70551937  0.22488624  0.70551990  1
  C  C7  1  0.22488624  0.70551990  0.70551937  1
  C  C8  1  0.70551990  0.70551937  0.22488624  1
  C  C9  1  0.29448063  0.77511376  0.29448010  1
  C  C10  1  0.77511376  0.29448010  0.29448063  1
  C  C11  1  0.29448010  0.29448063  0.77511376  1
  N  N0  1  0.76473995  0.27798383  0.76473284  1
  N  N1  1  0.27798383  0.76473284  0.76473995  1
  N  N2  1  0.76473284  0.76473995  0.27798383  1
  N  N3  1  0.23526005  0.72201617  0.23526716  1
  N  N4  1  0.72201617  0.23526716  0.23526005  1
  N  N5  1  0.23526716  0.23526005  0.72201617  1
  O  O0  1  0.80286209  0.65527226  0.80286228  1
  O  O1  1  0.65527226  0.80286228  0.80286209  1
  O  O2  1  0.80286228  0.80286209  0.65527226  1
  O  O3  1  0.19713791  0.34472774  0.19713772  1
  O  O4  1  0.34472774  0.19713772  0.19713791  1
  O  O5  1  0.19713772  0.19713791  0.34472774  1
  O  O6  1  0.67521570  0.67521570  0.67521570  1
  O  O7  1  0.32478430  0.32478430  0.32478430  1
  O  O8  1  0.80008238  0.80008629  0.95446795  1
  O  O9  1  0.80008629  0.95446795  0.80008238  1
  O  O10  1  0.95446795  0.80008238  0.80008629  1
  O  O11  1  0.19991762  0.19991371  0.04553205  1
  O  O12  1  0.19991371  0.04553205  0.19991762  1
  O  O13  1  0.04553205  0.19991762  0.19991371  1
  O  O14  1  0.63217629  0.63218505  0.98131345  1
  O  O15  1  0.63218505  0.98131345  0.63217629  1
  O  O16  1  0.98131345  0.63217629  0.63218505  1
  O  O17  1  0.36782371  0.36781495  0.01868655  1
  O  O18  1  0.36781495  0.01868655  0.36782371  1
  O  O19  1  0.01868655  0.36782371  0.36781495  1
  O  O20  1  0.65338655  0.49750339  0.84859493  1
  O  O21  1  0.49750339  0.84859493  0.65338655  1
  O  O22  1  0.84859493  0.65338655  0.49750339  1
  O  O23  1  0.65340904  0.84857862  0.49749275  1
  O  O24  1  0.84857862  0.49749275  0.65340904  1
  O  O25  1  0.49749275  0.65340904  0.84857862  1
  O  O26  1  0.34661345  0.50249661  0.15140507  1
  O  O27  1  0.50249661  0.15140507  0.34661345  1
  O  O28  1  0.15140507  0.34661345  0.50249661  1
  O  O29  1  0.34659096  0.15142138  0.50250725  1
  O  O30  1  0.15142138  0.50250725  0.34659096  1
  O  O31  1  0.50250725  0.34659096  0.15142138  1
  O  O32  1  0.83889989  0.59046008  0.99605218  1
  O  O33  1  0.59046008  0.99605218  0.83889989  1
  O  O34  1  0.99605218  0.83889989  0.59046008  1
  O  O35  1  0.83891393  0.99604249  0.59045414  1
  O  O36  1  0.99604249  0.59045414  0.83891393  1
  O  O37  1  0.59045414  0.83891393  0.99604249  1
  O  O38  1  0.16110011  0.40953992  0.00394782  1
  O  O39  1  0.40953992  0.00394782  0.16110011  1
  O  O40  1  0.00394782  0.16110011  0.40953992  1
  O  O41  1  0.16108607  0.00395751  0.40954586  1
  O  O42  1  0.00395751  0.40954586  0.16108607  1
  O  O43  1  0.40954586  0.16108607  0.00395751  1
  O  O44  1  0.85848239  0.45580721  0.85849544  1
  O  O45  1  0.45580721  0.85849544  0.85848239  1
  O  O46  1  0.85849544  0.85848239  0.45580721  1
  O  O47  1  0.14151761  0.54419279  0.14150456  1
  O  O48  1  0.54419279  0.14150456  0.14151761  1
  O  O49  1  0.14150456  0.14151761  0.54419279  1
  O  O50  1  0.64613446  0.48831237  0.64614114  1
  O  O51  1  0.48831237  0.64614114  0.64613446  1
  O  O52  1  0.64614114  0.64613446  0.48831237  1
  O  O53  1  0.35386554  0.51168763  0.35385886  1
  O  O54  1  0.51168763  0.35385886  0.35386554  1
  O  O55  1  0.35385886  0.35386554  0.51168763  1
  O  O56  1  0.00149837  0.70976122  0.00150065  1
  O  O57  1  0.70976122  0.00150065  0.00149837  1
  O  O58  1  0.00150065  0.00149837  0.70976122  1
  O  O59  1  0.99850163  0.29023878  0.99849935  1
  O  O60  1  0.29023878  0.99849935  0.99850163  1
  O  O61  1  0.99849935  0.99850163  0.29023878  1
  O  O62  1  0.72168761  0.42093961  0.04717895  1
  O  O63  1  0.42093961  0.04717895  0.72168761  1
  O  O64  1  0.04717895  0.72168761  0.42093961  1
  O  O65  1  0.72169702  0.04716656  0.42093941  1
  O  O66  1  0.04716656  0.42093941  0.72169702  1
  O  O67  1  0.42093941  0.72169702  0.04716656  1
  O  O68  1  0.27831239  0.57906039  0.95282105  1
  O  O69  1  0.57906039  0.95282105  0.27831239  1
  O  O70  1  0.95282105  0.27831239  0.57906039  1
  O  O71  1  0.27830298  0.95283344  0.57906059  1
  O  O72  1  0.95283344  0.57906059  0.27830298  1
  O  O73  1  0.57906059  0.27830298  0.95283344  1
  O  O74  1  0.46292562  0.46293895  0.78859740  1
  O  O75  1  0.46293895  0.78859740  0.46292562  1
  O  O76  1  0.78859740  0.46292562  0.46293895  1
  O  O77  1  0.53707438  0.53706105  0.21140260  1
  O  O78  1  0.53706105  0.21140260  0.53707438  1
  O  O79  1  0.21140260  0.53707438  0.53706105  1
loop_
_geom_bond_atom_site_label_1
_geom_bond_atom_site_label_2
_geom_bond_distance
_geom_bond_site_symmetry_2
H36 N0 1.033226 1_555
H37 N1 1.033226 1_555
H38 N2 1.033226 1_555
H39 N2 1.033236 1_555
H40 N0 1.033236 1_555
H41 N1 1.033236 1_555
H42 N3 1.033226 1_555
H43 N4 1.033226 1_555
H44 N5 1.033226 1_555
H45 N5 1.033236 1_555
H46 N3 1.033236 1_555
H47 N4 1.033236 1_555
C0 H10 1.095239 1_555
C0 H6 1.095239 1_555
C0 H0 1.097655 1_555
C0 N0 1.500766 1_555
C1 H11 1.095239 1_555
C1 H7 1.095239 1_555
C1 H1 1.097655 1_555
C1 N1 1.500766 1_555
C2 H9 1.095239 1_555
C2 H8 1.095239 1_555
C2 H2 1.097655 1_555
C2 N2 1.500766 1_555
C3 H16 1.095239 1_555
C3 H12 1.095239 1_555
C3 H3 1.097655 1_555
C3 N3 1.500766 1_555
C4 H17 1.095239 1_555
C4 H13 1.095239 1_555
C4 H4 1.097655 1_555
C4 N4 1.500766 1_555
C5 H15 1.095239 1_555
C5 H14 1.095239 1_555
C5 H5 1.097655 1_555
C5 N5 1.500766 1_555
C6 H28 1.094515 1_555
C6 H24 1.094525 1_555
C6 H18 1.095713 1_555
C6 N0 1.502292 1_555
C7 H29 1.094515 1_555
C7 H25 1.094525 1_555
C7 H19 1.095713 1_555
C7 N1 1.502292 1_555
C8 H27 1.094515 1_555
C8 H26 1.094525 1_555
C8 H20 1.095713 1_555
C8 N2 1.502292 1_555
C9 H34 1.094515 1_555
C9 H30 1.094525 1_555
C9 H21 1.095713 1_555
C9 N3 1.502292 1_555
C10 H35 1.094515 1_555
C10 H31 1.094525 1_555
C10 H22 1.095713 1_555
C10 N4 1.502292 1_555
C11 H33 1.094515 1_555
C11 H32 1.094525 1_555
C11 H23 1.095713 1_555
C11 N5 1.502292 1_555
O0 P0 1.546404 1_555
O1 P0 1.546404 1_555
O2 P0 1.546404 1_555
O3 P1 1.546404 1_555
O4 P1 1.546404 1_555
O5 P1 1.546404 1_555
O6 P0 1.546347 1_555
O7 P1 1.546347 1_555
O8 W0 1.940137 1_555
O8 W1 1.940147 1_555
O9 W1 1.940137 1_555
O9 W2 1.940147 1_555
O10 W2 1.940137 1_555
O10 W0 1.940147 1_555
O11 W3 1.940137 1_555
O11 W4 1.940147 1_555
O12 W4 1.940137 1_555
O12 W5 1.940147 1_555
O13 W5 1.940137 1_555
O13 W3 1.940147 1_555
O14 W11 1.940858 1_555
O14 W6 1.940873 1_555
O15 W9 1.940858 1_555
O15 W7 1.940873 1_555
O16 W10 1.940858 1_555
O16 W8 1.940873 1_555
O17 W17 1.940858 1_555
O17 W12 1.940873 1_555
O18 W15 1.940858 1_555
O18 W13 1.940873 1_555
O19 W16 1.940858 1_555
O19 W14 1.940873 1_555
O20 W18 1.947470 1_555
O20 W6 1.954361 1_555
O21 W19 1.947470 1_555
O21 W7 1.954361 1_555
O22 W20 1.947470 1_555
O22 W8 1.954361 1_555
O23 W19 1.947468 1_555
O23 W9 1.954359 1_555
O24 W20 1.947468 1_555
O24 W10 1.954359 1_555
O25 W18 1.947468 1_555
O25 W11 1.954359 1_555
O26 W21 1.947470 1_555
O26 W12 1.954361 1_555
O27 W22 1.947470 1_555
O27 W13 1.954361 1_555
O28 W23 1.947470 1_555
O28 W14 1.954361 1_555
O29 W22 1.947468 1_555
O29 W15 1.954359 1_555
O30 W23 1.947468 1_555
O30 W16 1.954359 1_555
O31 W21 1.947468 1_555
O31 W17 1.954359 1_555
O32 W6 1.942900 1_555
O32 W0 1.949982 1_555
O33 W7 1.942900 1_555
O33 W1 1.949982 1_555
O34 W8 1.942900 1_555
O34 W2 1.949982 1_555
O35 W9 1.942891 1_555
O35 W2 1.949968 1_555
O36 W10 1.942891 1_555
O36 W0 1.949968 1_555
O37 W11 1.942891 1_555
O37 W1 1.949968 1_555
O38 W12 1.942900 1_555
O38 W3 1.949982 1_555
O39 W13 1.942900 1_555
O39 W4 1.949982 1_555
O40 W14 1.942900 1_555
O40 W5 1.949982 1_555
O41 W15 1.942891 1_555
O41 W5 1.949968 1_555
O42 W16 1.942891 1_555
O42 W3 1.949968 1_555
O43 W17 1.942891 1_555
O43 W4 1.949968 1_555
O44 W6 1.951236 1_555
O44 W10 1.951260 1_555
O45 W7 1.951236 1_555
O45 W11 1.951260 1_555
O46 W8 1.951236 1_555
O46 W9 1.951260 1_555
O47 W12 1.951236 1_555
O47 W16 1.951260 1_555
O48 W13 1.951236 1_555
O48 W17 1.951260 1_555
O49 W14 1.951236 1_555
O49 W15 1.951260 1_555
O50 W18 1.952704 1_555
O50 W20 1.952711 1_555
O51 W19 1.952704 1_555
O51 W18 1.952711 1_555
O52 W20 1.952704 1_555
O52 W19 1.952711 1_555
O53 W21 1.952704 1_555
O53 W23 1.952711 1_555
O54 W22 1.952704 1_555
O54 W21 1.952711 1_555
O55 W23 1.952704 1_555
O55 W22 1.952711 1_555
O56 W0 1.739263 1_454
O57 W1 1.739263 1_544
O58 W2 1.739263 1_445
O59 W3 1.739263 1_656
O60 W4 1.739263 1_566
O61 W5 1.739263 1_665
O62 W6 1.739219 1_554
O63 W7 1.739219 1_545
O64 W8 1.739219 1_455
O65 W9 1.739205 1_545
O66 W10 1.739205 1_455
O67 W11 1.739205 1_554
O68 W12 1.739219 1_556
O69 W13 1.739219 1_565
O70 W14 1.739219 1_655
O71 W15 1.739205 1_565
O72 W16 1.739205 1_655
O73 W17 1.739205 1_556
O74 W18 1.731043 1_555
O75 W19 1.731043 1_555
O76 W20 1.731043 1_555
O77 W21 1.731043 1_555
O78 W22 1.731043 1_555
O79 W23 1.731043 1_555
