# generated using pymatgen
data_ZrAlCo4
_symmetry_space_group_name_H-M   'P 1'
_cell_length_a   4.77807184
_cell_length_b   4.77807184
_cell_length_c   4.77807184
_cell_angle_alpha   60.00000000
_cell_angle_beta   60.00000000
_cell_angle_gamma   60.00000000
_symmetry_Int_Tables_number   1
_chemical_formula_structural   ZrAlCo4
_chemical_formula_sum   'Zr1 Al1 Co4'
_cell_volume   77.13349821
_cell_formula_units_Z   1
loop_
 _symmetry_equiv_pos_site_id
 _symmetry_equiv_pos_as_xyz
  1  'x, y, z'
loop_
 _atom_site_type_symbol
 _atom_site_label
 _atom_site_symmetry_multiplicity
 _atom_site_fract_x
 _atom_site_fract_y
 _atom_site_fract_z
 _atom_site_occupancy
  Zr  Zr0  1  0.00000000  0.00000000  0.00000000  1
  Al  Al0  1  0.25000000  0.25000000  0.25000000  1
  Co  Co0  1  0.62331300  0.62331300  0.13006100  1
  Co  Co1  1  0.62331300  0.13006100  0.62331300  1
  Co  Co2  1  0.13006100  0.62331300  0.62331300  1
  Co  Co3  1  0.62331300  0.62331300  0.62331300  1
loop_
_geom_bond_atom_site_label_1
_geom_bond_atom_site_label_2
_geom_bond_distance
_geom_bond_site_symmetry_2
Al0 Co1 2.798023 1_555
Al0 Co0 2.798023 1_555
Al0 Co2 2.798023 1_555
Al0 Co3 2.798023 1_554
Al0 Co3 2.798023 1_455
Al0 Co3 2.798023 1_545
Al0 Co0 2.798023 1_455
Al0 Co1 2.798023 1_455
Al0 Co1 2.798023 1_554
Al0 Co0 2.798023 1_545
Al0 Co2 2.798023 1_545
Al0 Co2 2.798023 1_554
Al0 Zr0 2.925959 1_655
Al0 Zr0 2.925959 1_555
Al0 Zr0 2.925959 1_556
Al0 Zr0 2.925959 1_565
Co0 Co1 2.356793 1_555
Co0 Co2 2.356793 1_555
Co0 Co3 2.356793 1_555
Co0 Co3 2.421278 1_554
Co0 Co2 2.421278 1_654
Co0 Co1 2.421278 1_564
Co0 Zr0 2.804897 1_655
Co0 Zr0 2.804897 1_565
Co0 Zr0 2.804897 1_665
Co1 Co2 2.356793 1_555
Co1 Co3 2.356793 1_555
Co1 Co3 2.421278 1_545
Co1 Co2 2.421278 1_645
Co1 Zr0 2.804897 1_655
Co1 Zr0 2.804897 1_556
Co1 Zr0 2.804897 1_656
Co2 Co3 2.356793 1_555
Co2 Co3 2.421278 1_455
Co2 Zr0 2.804897 1_565
Co2 Zr0 2.804897 1_556
Co2 Zr0 2.804897 1_566
Co3 Zr0 2.804897 1_566
Co3 Zr0 2.804897 1_656
Co3 Zr0 2.804897 1_665
