# generated using pymatgen
data_CaMnP2O7
_symmetry_space_group_name_H-M   'P 1'
_cell_length_a   7.28897524
_cell_length_b   10.73972805
_cell_length_c   7.29137710
_cell_angle_alpha   85.61587401
_cell_angle_beta   84.96831498
_cell_angle_gamma   84.68633219
_symmetry_Int_Tables_number   1
_chemical_formula_structural   CaMnP2O7
_chemical_formula_sum   'Ca4 Mn4 P8 O28'
_cell_volume   564.79312769
_cell_formula_units_Z   4
loop_
 _symmetry_equiv_pos_site_id
 _symmetry_equiv_pos_as_xyz
  1  'x, y, z'
loop_
 _atom_site_type_symbol
 _atom_site_label
 _atom_site_symmetry_multiplicity
 _atom_site_fract_x
 _atom_site_fract_y
 _atom_site_fract_z
 _atom_site_occupancy
  Ca  Ca0  1  0.64157200  0.50621700  0.19759800  1
  Ca  Ca1  1  0.64156900  0.00622300  0.69764000  1
  Ca  Ca2  1  0.35842900  0.49378700  0.80240200  1
  Ca  Ca3  1  0.35842400  0.99377200  0.30235800  1
  Mn  Mn0  1  0.19312500  0.69270100  0.43854500  1
  Mn  Mn1  1  0.80690100  0.30729400  0.56146600  1
  Mn  Mn2  1  0.19305200  0.19260400  0.93843500  1
  Mn  Mn3  1  0.80695800  0.80740000  0.06156200  1
  P  P0  1  0.12040000  0.41499700  0.24247700  1
  P  P1  1  0.12042300  0.91500300  0.74245900  1
  P  P2  1  0.87959700  0.58500800  0.75752100  1
  P  P3  1  0.87957600  0.08499500  0.25754200  1
  P  P4  1  0.62051900  0.22615400  0.99407500  1
  P  P5  1  0.62056000  0.72616700  0.49405600  1
  P  P6  1  0.37948200  0.77384500  0.00592900  1
  P  P7  1  0.37944100  0.27383600  0.50593900  1
  O  O0  1  0.91788000  0.40893400  0.32086900  1
  O  O1  1  0.91790000  0.90894300  0.82083700  1
  O  O2  1  0.08211900  0.59106600  0.67913000  1
  O  O3  1  0.08210000  0.09105000  0.17916400  1
  O  O4  1  0.20450400  0.53337400  0.28103000  1
  O  O5  1  0.20448100  0.03339100  0.78104700  1
  O  O6  1  0.79549200  0.46663000  0.71896900  1
  O  O7  1  0.79551300  0.96660700  0.21895700  1
  O  O8  1  0.14813100  0.38223100  0.03977600  1
  O  O9  1  0.14817200  0.88222700  0.53976900  1
  O  O10  1  0.85186300  0.61777200  0.96022200  1
  O  O11  1  0.85182400  0.11777500  0.46023100  1
  O  O12  1  0.44885700  0.63611600  0.99582500  1
  O  O13  1  0.44886700  0.13610300  0.49582900  1
  O  O14  1  0.55114000  0.36388300  0.00417600  1
  O  O15  1  0.55111900  0.86389700  0.50415800  1
  O  O16  1  0.46597600  0.13669900  0.03852300  1
  O  O17  1  0.46606100  0.63668900  0.53850900  1
  O  O18  1  0.53403000  0.86329700  0.96148100  1
  O  O19  1  0.53394400  0.36331200  0.46149100  1
  O  O20  1  0.76767100  0.20335000  0.14711200  1
  O  O21  1  0.76764700  0.70337600  0.64709400  1
  O  O22  1  0.23234000  0.79665000  0.85288300  1
  O  O23  1  0.23235000  0.29663200  0.35290400  1
  O  O24  1  0.27554300  0.80428200  0.19293400  1
  O  O25  1  0.27553400  0.30428800  0.69295200  1
  O  O26  1  0.72445200  0.19571200  0.80706900  1
  O  O27  1  0.72446600  0.69570800  0.30704700  1
loop_
_geom_bond_atom_site_label_1
_geom_bond_atom_site_label_2
_geom_bond_distance
_geom_bond_site_symmetry_2
Ca0 O14 2.332266 1_555
Ca0 O27 2.388328 1_555
Ca0 O0 2.395808 1_555
Ca0 O12 2.402001 1_554
Ca0 O19 2.485958 1_555
Ca0 O10 2.517592 1_554
Ca1 O15 2.332553 1_545
Ca1 O26 2.388218 1_555
Ca1 O1 2.395713 1_545
Ca1 O13 2.402020 1_555
Ca1 O18 2.485628 1_545
Ca1 O11 2.517564 1_555
Ca2 O12 2.332220 1_555
Ca2 O25 2.388411 1_555
Ca2 O2 2.395809 1_555
Ca2 O14 2.402015 1_556
Ca2 O17 2.485948 1_555
Ca2 O8 2.517618 1_556
Ca3 O13 2.332517 1_565
Ca3 O24 2.388207 1_555
Ca3 O3 2.395654 1_565
Ca3 O15 2.401915 1_555
Ca3 O16 2.485633 1_565
Ca3 O9 2.517524 1_555
Mn0 O4 2.123995 1_555
Mn0 O2 2.131945 1_555
Mn0 O24 2.149551 1_555
Mn0 O17 2.194675 1_555
Mn0 O9 2.204295 1_555
Mn1 O6 2.124006 1_555
Mn1 O0 2.131966 1_555
Mn1 O26 2.149570 1_555
Mn1 O19 2.194856 1_555
Mn1 O11 2.204249 1_555
Mn2 O5 2.122378 1_555
Mn2 O3 2.132172 1_556
Mn2 O25 2.149532 1_555
Mn2 O16 2.194760 1_556
Mn2 O8 2.205636 1_556
Mn3 O7 2.122344 1_555
Mn3 O1 2.132067 1_554
Mn3 O27 2.149607 1_555
Mn3 O18 2.194752 1_554
Mn3 O10 2.205640 1_554
O0 P0 1.540816 1_655
O1 P1 1.540805 1_655
O2 P2 1.540822 1_455
O3 P3 1.540806 1_455
O4 P0 1.516688 1_555
O5 P1 1.516699 1_545
O6 P2 1.516699 1_555
O7 P3 1.516711 1_565
O8 P0 1.537212 1_555
O9 P1 1.537169 1_555
O10 P2 1.537206 1_555
O11 P3 1.537175 1_555
O12 P6 1.523375 1_556
O13 P7 1.523508 1_555
O14 P4 1.523380 1_554
O15 P5 1.523498 1_555
O16 P4 1.544583 1_554
O17 P5 1.544506 1_555
O18 P6 1.544589 1_556
O19 P7 1.544511 1_555
O20 P4 1.604698 1_554
O20 P3 1.641963 1_555
O21 P5 1.604359 1_555
O21 P2 1.642203 1_555
O22 P6 1.604695 1_556
O22 P1 1.641969 1_555
O23 P7 1.604366 1_555
O23 P0 1.642181 1_555
O24 P6 1.543079 1_555
O25 P7 1.543075 1_555
O26 P4 1.543080 1_555
O27 P5 1.543064 1_555
