# generated using pymatgen
data_KN2
_symmetry_space_group_name_H-M   'P 1'
_cell_length_a   5.61596058
_cell_length_b   5.61596058
_cell_length_c   5.63187900
_cell_angle_alpha   90.00000000
_cell_angle_beta   90.00000000
_cell_angle_gamma   149.40058484
_symmetry_Int_Tables_number   1
_chemical_formula_structural   KN2
_chemical_formula_sum   'K2 N4'
_cell_volume   90.41636409
_cell_formula_units_Z   2
loop_
 _symmetry_equiv_pos_site_id
 _symmetry_equiv_pos_as_xyz
  1  'x, y, z'
loop_
 _atom_site_type_symbol
 _atom_site_label
 _atom_site_symmetry_multiplicity
 _atom_site_fract_x
 _atom_site_fract_y
 _atom_site_fract_z
 _atom_site_occupancy
  K  K0  1  0.12492700  0.87507300  0.78045500  1
  K  K1  1  0.87507300  0.12492700  0.28045500  1
  N  N0  1  0.14024900  0.85975100  0.28392600  1
  N  N1  1  0.85975100  0.14024900  0.78392600  1
  N  N2  1  0.38717600  0.61282400  0.81261900  1
  N  N3  1  0.61282400  0.38717600  0.31261900  1
loop_
_geom_bond_atom_site_label_1
_geom_bond_atom_site_label_2
_geom_bond_distance
_geom_bond_site_symmetry_2
K0 N0 2.801314 1_555
K0 N0 2.840343 1_556
K0 N2 2.846935 1_555
K0 N1 2.872943 1_465
K0 N1 2.944233 1_565
K0 N1 2.944233 1_455
K0 N2 2.977128 1_565
K0 N2 2.977128 1_455
K0 N3 3.025771 1_565
K0 N3 3.025771 1_455
K1 N1 2.801314 1_554
K1 N1 2.840343 1_555
K1 N3 2.846935 1_555
K1 N0 2.872943 1_645
K1 N0 2.944233 1_655
K1 N0 2.944233 1_545
K1 N3 2.977128 1_655
K1 N3 2.977128 1_545
K1 N2 3.025771 1_654
K1 N2 3.025771 1_544
N0 N3 1.519980 1_565
N0 N3 1.519980 1_455
N1 N2 1.519980 1_545
N1 N2 1.519980 1_655
