# generated using pymatgen
data_TeC2(NO2)4
_symmetry_space_group_name_H-M   'P 1'
_cell_length_a   8.95875691
_cell_length_b   8.95875691
_cell_length_c   10.42881322
_cell_angle_alpha   60.04371560
_cell_angle_beta   60.04371560
_cell_angle_gamma   62.97286956
_symmetry_Int_Tables_number   1
_chemical_formula_structural   TeC2(NO2)4
_chemical_formula_sum   'Te2 C4 N8 O16'
_cell_volume   604.40912968
_cell_formula_units_Z   2
loop_
 _symmetry_equiv_pos_site_id
 _symmetry_equiv_pos_as_xyz
  1  'x, y, z'
loop_
 _atom_site_type_symbol
 _atom_site_label
 _atom_site_symmetry_multiplicity
 _atom_site_fract_x
 _atom_site_fract_y
 _atom_site_fract_z
 _atom_site_occupancy
  Te  Te0  1  0.36892100  0.63107900  0.75000000  1
  Te  Te1  1  0.63107900  0.36892100  0.25000000  1
  C  C0  1  0.85956700  0.86147500  0.01873400  1
  C  C1  1  0.13852500  0.14043300  0.48126600  1
  C  C2  1  0.14043300  0.13852500  0.98126600  1
  C  C3  1  0.86147500  0.85956700  0.51873400  1
  N  N0  1  0.72308200  0.00194700  0.97038000  1
  N  N1  1  0.99805300  0.27691800  0.52962000  1
  N  N2  1  0.27691800  0.99805300  0.02962000  1
  N  N3  1  0.00194700  0.72308200  0.47038000  1
  N  N4  1  0.95731900  0.77080400  0.09825400  1
  N  N5  1  0.22919600  0.04268100  0.40174600  1
  N  N6  1  0.04268100  0.22919600  0.90174600  1
  N  N7  1  0.77080400  0.95731900  0.59825400  1
  O  O0  1  0.22939600  0.45672400  0.10290200  1
  O  O1  1  0.54327600  0.77060400  0.39709800  1
  O  O2  1  0.77060400  0.54327600  0.89709800  1
  O  O3  1  0.45672400  0.22939600  0.60290200  1
  O  O4  1  0.17497500  0.66579900  0.71332500  1
  O  O5  1  0.33420100  0.82502500  0.78667500  1
  O  O6  1  0.82502500  0.33420100  0.28667500  1
  O  O7  1  0.66579900  0.17497500  0.21332500  1
  O  O8  1  0.45232700  0.27095300  0.70071400  1
  O  O9  1  0.72904700  0.54767300  0.79928600  1
  O  O10  1  0.54767300  0.72904700  0.29928600  1
  O  O11  1  0.27095300  0.45232700  0.20071400  1
  O  O12  1  0.81964800  0.86573500  0.89986200  1
  O  O13  1  0.13426500  0.18035200  0.60013800  1
  O  O14  1  0.18035200  0.13426500  0.10013800  1
  O  O15  1  0.86573500  0.81964800  0.39986200  1
loop_
_geom_bond_atom_site_label_1
_geom_bond_atom_site_label_2
_geom_bond_distance
_geom_bond_site_symmetry_2
C0 N4 1.233093 1_555
C0 N0 1.384426 1_564
C0 O12 1.431537 1_554
C1 N5 1.233093 1_555
C1 N1 1.384426 1_455
C1 O13 1.431537 1_555
C2 N6 1.233093 1_555
C2 N2 1.384426 1_546
C2 O14 1.431537 1_556
C3 N7 1.233093 1_555
C3 N3 1.384426 1_655
C3 O15 1.431537 1_555
N0 O12 1.442149 1_545
N1 O13 1.442149 1_655
N2 O14 1.442149 1_565
N3 O15 1.442149 1_455
O0 O11 1.227394 1_555
O1 O10 1.227394 1_555
O2 O9 1.227394 1_555
O3 O8 1.227394 1_555
O4 Te0 1.820904 1_555
O5 Te0 1.820904 1_555
O6 Te1 1.820904 1_555
O7 Te1 1.820904 1_555
