# generated using pymatgen
data_Ni9BiTeS8
_symmetry_space_group_name_H-M   'P 1'
_cell_length_a   7.31669200
_cell_length_b   7.31669200
_cell_length_c   5.35562900
_cell_angle_alpha   90.00000000
_cell_angle_beta   90.00000000
_cell_angle_gamma   90.00000000
_symmetry_Int_Tables_number   1
_chemical_formula_structural   Ni9BiTeS8
_chemical_formula_sum   'Ni9 Bi1 Te1 S8'
_cell_volume   286.70814554
_cell_formula_units_Z   1
loop_
 _symmetry_equiv_pos_site_id
 _symmetry_equiv_pos_as_xyz
  1  'x, y, z'
loop_
 _atom_site_type_symbol
 _atom_site_label
 _atom_site_symmetry_multiplicity
 _atom_site_fract_x
 _atom_site_fract_y
 _atom_site_fract_z
 _atom_site_occupancy
  Ni  Ni0  1  0.00000000  0.00000000  0.50000000  1
  Ni  Ni1  1  0.18072600  0.50000000  0.75134700  1
  Ni  Ni2  1  0.81927400  0.50000000  0.75134700  1
  Ni  Ni3  1  0.50000000  0.81927400  0.75134700  1
  Ni  Ni4  1  0.50000000  0.18072600  0.75134700  1
  Ni  Ni5  1  0.81927400  0.50000000  0.24865300  1
  Ni  Ni6  1  0.18072600  0.50000000  0.24865300  1
  Ni  Ni7  1  0.50000000  0.18072600  0.24865300  1
  Ni  Ni8  1  0.50000000  0.81927400  0.24865300  1
  Bi  Bi0  1  0.00000000  0.00000000  0.00000000  1
  Te  Te0  1  0.50000000  0.50000000  0.50000000  1
  S  S0  1  0.31510300  0.00000000  0.50000000  1
  S  S1  1  0.68489700  0.00000000  0.50000000  1
  S  S2  1  0.00000000  0.68489700  0.50000000  1
  S  S3  1  0.00000000  0.31510300  0.50000000  1
  S  S4  1  0.27151000  0.27151000  0.00000000  1
  S  S5  1  0.72849000  0.72849000  0.00000000  1
  S  S6  1  0.27151000  0.72849000  0.00000000  1
  S  S7  1  0.72849000  0.27151000  0.00000000  1
loop_
_geom_bond_atom_site_label_1
_geom_bond_atom_site_label_2
_geom_bond_distance
_geom_bond_site_symmetry_2
Ni0 S0 2.305512 1_555
Ni0 S2 2.305512 1_545
Ni0 S3 2.305512 1_555
Ni0 S1 2.305512 1_455
Ni1 S6 2.238192 1_556
Ni1 S4 2.238192 1_556
Ni1 S2 2.321793 1_555
Ni1 S3 2.321793 1_555
Ni1 Te0 2.696122 1_555
Ni2 S5 2.238192 1_556
Ni2 S7 2.238192 1_556
Ni2 S3 2.321793 1_655
Ni2 S2 2.321793 1_655
Ni2 Te0 2.696122 1_555
Ni3 S5 2.238192 1_556
Ni3 S6 2.238192 1_556
Ni3 S0 2.321793 1_565
Ni3 S1 2.321793 1_565
Ni3 Te0 2.696122 1_555
Ni4 S7 2.238192 1_556
Ni4 S4 2.238192 1_556
Ni4 S0 2.321793 1_555
Ni4 S1 2.321793 1_555
Ni4 Te0 2.696122 1_555
Ni5 S5 2.238192 1_555
Ni5 S7 2.238192 1_555
Ni5 S3 2.321793 1_655
Ni5 S2 2.321793 1_655
Ni5 Te0 2.696122 1_555
Ni6 S6 2.238192 1_555
Ni6 S4 2.238192 1_555
Ni6 S2 2.321793 1_555
Ni6 S3 2.321793 1_555
Ni6 Te0 2.696122 1_555
Ni7 S7 2.238192 1_555
Ni7 S4 2.238192 1_555
Ni7 S0 2.321793 1_555
Ni7 S1 2.321793 1_555
Ni7 Te0 2.696122 1_555
Ni8 S5 2.238192 1_555
Ni8 S6 2.238192 1_555
Ni8 S0 2.321793 1_565
Ni8 S1 2.321793 1_565
Ni8 Te0 2.696122 1_555
Bi0 Ni0 2.677815 1_554
Bi0 Ni0 2.677815 1_555
Bi0 S4 2.809413 1_555
Bi0 S7 2.809413 1_455
Bi0 S6 2.809413 1_545
Bi0 S5 2.809413 1_445
