# generated using pymatgen
data_Ti20(CoB2)3
_symmetry_space_group_name_H-M   'P 1'
_cell_length_a   8.34246843
_cell_length_b   8.34246843
_cell_length_c   8.34246843
_cell_angle_alpha   60.00000000
_cell_angle_beta   60.00000000
_cell_angle_gamma   60.00000000
_symmetry_Int_Tables_number   1
_chemical_formula_structural   Ti20(CoB2)3
_chemical_formula_sum   'Ti20 Co3 B6'
_cell_volume   410.55251603
_cell_formula_units_Z   1
loop_
 _symmetry_equiv_pos_site_id
 _symmetry_equiv_pos_as_xyz
  1  'x, y, z'
loop_
 _atom_site_type_symbol
 _atom_site_label
 _atom_site_symmetry_multiplicity
 _atom_site_fract_x
 _atom_site_fract_y
 _atom_site_fract_z
 _atom_site_occupancy
  Ti  Ti0  1  0.37632100  0.37632100  0.37632100  1
  Ti  Ti1  1  0.62367900  0.62367900  0.62367900  1
  Ti  Ti2  1  0.37632100  0.37632100  0.87103800  1
  Ti  Ti3  1  0.37632100  0.87103800  0.37632100  1
  Ti  Ti4  1  0.62367900  0.62367900  0.12896200  1
  Ti  Ti5  1  0.62367900  0.12896200  0.62367900  1
  Ti  Ti6  1  0.87103800  0.37632100  0.37632100  1
  Ti  Ti7  1  0.12896200  0.62367900  0.62367900  1
  Ti  Ti8  1  0.33463300  0.00000000  0.00000000  1
  Ti  Ti9  1  0.66536700  0.00000000  0.00000000  1
  Ti  Ti10  1  0.00000000  0.33463300  0.66536700  1
  Ti  Ti11  1  0.00000000  0.66536700  0.33463300  1
  Ti  Ti12  1  0.00000000  0.33463300  0.00000000  1
  Ti  Ti13  1  0.66536700  0.00000000  0.33463300  1
  Ti  Ti14  1  0.00000000  0.66536700  0.00000000  1
  Ti  Ti15  1  0.33463300  0.00000000  0.66536700  1
  Ti  Ti16  1  0.00000000  0.00000000  0.33463300  1
  Ti  Ti17  1  0.00000000  0.00000000  0.66536700  1
  Ti  Ti18  1  0.66536700  0.33463300  0.00000000  1
  Ti  Ti19  1  0.33463300  0.66536700  0.00000000  1
  Co  Co0  1  0.25000000  0.25000000  0.25000000  1
  Co  Co1  1  0.75000000  0.75000000  0.75000000  1
  Co  Co2  1  0.00000000  0.00000000  0.00000000  1
  B  B0  1  0.71970300  0.28029700  0.28029700  1
  B  B1  1  0.28029700  0.71970300  0.71970300  1
  B  B2  1  0.28029700  0.71970300  0.28029700  1
  B  B3  1  0.71970300  0.28029700  0.71970300  1
  B  B4  1  0.28029700  0.28029700  0.71970300  1
  B  B5  1  0.71970300  0.71970300  0.28029700  1
loop_
_geom_bond_atom_site_label_1
_geom_bond_atom_site_label_2
_geom_bond_distance
_geom_bond_site_symmetry_2
Co0 Ti3 2.581336 1_545
Co0 Ti2 2.581336 1_554
Co0 Ti6 2.581336 1_455
Co0 Ti0 2.581343 1_555
Co1 Ti5 2.581336 1_565
Co1 Ti4 2.581336 1_556
Co1 Ti7 2.581336 1_655
Co1 Ti1 2.581343 1_555
Co2 Ti18 2.791665 1_455
Co2 Ti14 2.791665 1_545
Co2 Ti9 2.791665 1_455
Co2 Ti11 2.791665 1_545
Co2 Ti13 2.791665 1_455
Co2 Ti17 2.791665 1_554
Co2 Ti12 2.791665 1_555
Co2 Ti16 2.791665 1_555
Co2 Ti19 2.791665 1_545
Co2 Ti15 2.791665 1_554
Co2 Ti8 2.791665 1_555
Co2 Ti10 2.791665 1_554
B0 Ti0 2.354102 1_555
B0 Ti4 2.354103 1_555
B0 Ti5 2.354103 1_555
B0 Ti6 2.354109 1_555
B0 Ti18 2.381900 1_555
B0 Ti13 2.381900 1_555
B0 Ti12 2.381900 1_655
B0 Ti16 2.381900 1_655
B1 Ti1 2.354102 1_555
B1 Ti3 2.354103 1_555
B1 Ti2 2.354103 1_555
B1 Ti7 2.354109 1_555
B1 Ti17 2.381900 1_565
B1 Ti14 2.381900 1_556
B1 Ti15 2.381900 1_565
B1 Ti19 2.381900 1_556
B2 Ti0 2.354102 1_555
B2 Ti7 2.354103 1_555
B2 Ti4 2.354103 1_555
B2 Ti3 2.354109 1_555
B2 Ti19 2.381900 1_555
B2 Ti11 2.381900 1_555
B2 Ti8 2.381900 1_565
B2 Ti16 2.381900 1_565
B3 Ti1 2.354102 1_555
B3 Ti2 2.354103 1_555
B3 Ti6 2.354103 1_555
B3 Ti5 2.354109 1_555
B3 Ti18 2.381900 1_556
B3 Ti9 2.381900 1_556
B3 Ti17 2.381900 1_655
B3 Ti10 2.381900 1_655
B4 Ti0 2.354102 1_555
B4 Ti7 2.354103 1_555
B4 Ti5 2.354103 1_555
B4 Ti2 2.354109 1_555
B4 Ti10 2.381900 1_555
B4 Ti15 2.381900 1_555
B4 Ti8 2.381900 1_556
B4 Ti12 2.381900 1_556
B5 Ti1 2.354102 1_555
B5 Ti3 2.354103 1_555
B5 Ti6 2.354103 1_555
B5 Ti4 2.354109 1_555
B5 Ti9 2.381900 1_565
B5 Ti13 2.381900 1_565
B5 Ti14 2.381900 1_655
B5 Ti11 2.381900 1_655
