# generated using pymatgen
data_LiMg6Sn
_symmetry_space_group_name_H-M   'P 1'
_cell_length_a   5.10104200
_cell_length_b   6.31086900
_cell_length_c   11.16166800
_cell_angle_alpha   90.00000000
_cell_angle_beta   90.00000000
_cell_angle_gamma   90.00000000
_symmetry_Int_Tables_number   1
_chemical_formula_structural   LiMg6Sn
_chemical_formula_sum   'Li2 Mg12 Sn2'
_cell_volume   359.31650360
_cell_formula_units_Z   2
loop_
 _symmetry_equiv_pos_site_id
 _symmetry_equiv_pos_as_xyz
  1  'x, y, z'
loop_
 _atom_site_type_symbol
 _atom_site_label
 _atom_site_symmetry_multiplicity
 _atom_site_fract_x
 _atom_site_fract_y
 _atom_site_fract_z
 _atom_site_occupancy
  Li  Li0  1  0.50000000  0.50000000  0.16686200  1
  Li  Li1  1  0.50000000  0.00000000  0.66686200  1
  Mg  Mg0  1  0.50000000  0.25076700  0.41639700  1
  Mg  Mg1  1  0.50000000  0.74923300  0.41639700  1
  Mg  Mg2  1  0.00000000  0.74519000  0.08302000  1
  Mg  Mg3  1  0.00000000  0.25481000  0.08302000  1
  Mg  Mg4  1  0.00000000  0.00000000  0.33530800  1
  Mg  Mg5  1  0.00000000  0.50000000  0.33249900  1
  Mg  Mg6  1  0.50000000  0.75076700  0.91639700  1
  Mg  Mg7  1  0.50000000  0.24923300  0.91639700  1
  Mg  Mg8  1  0.00000000  0.24519000  0.58302000  1
  Mg  Mg9  1  0.00000000  0.75481000  0.58302000  1
  Mg  Mg10  1  0.00000000  0.50000000  0.83530800  1
  Mg  Mg11  1  0.00000000  0.00000000  0.83249900  1
  Sn  Sn0  1  0.50000000  0.00000000  0.16649400  1
  Sn  Sn1  1  0.50000000  0.50000000  0.66649400  1
loop_
_geom_bond_atom_site_label_1
_geom_bond_atom_site_label_2
_geom_bond_distance
_geom_bond_site_symmetry_2
Li0 Mg3 3.126538 1_555
Li0 Mg2 3.126538 1_555
Li0 Mg3 3.126538 1_655
Li0 Mg2 3.126538 1_655
Li0 Mg5 3.150105 1_655
Li0 Mg5 3.150105 1_555
Li0 Sn0 3.155437 1_555
Li0 Sn0 3.155437 1_565
Li0 Mg0 3.198661 1_555
Li0 Mg1 3.198661 1_555
Li0 Mg6 3.212461 1_554
Li0 Mg7 3.212461 1_554
Li1 Mg8 3.126538 1_655
Li1 Mg9 3.126538 1_645
Li1 Mg9 3.126538 1_545
Li1 Mg8 3.126538 1_555
Li1 Mg11 3.150105 1_555
Li1 Mg11 3.150105 1_655
Li1 Sn1 3.155437 1_555
Li1 Sn1 3.155437 1_545
Li1 Mg6 3.198661 1_545
Li1 Mg7 3.198661 1_555
Li1 Mg1 3.212461 1_545
Li1 Mg0 3.212461 1_555
Mg0 Mg4 3.135097 1_655
Mg0 Mg4 3.135097 1_555
Mg0 Mg5 3.139430 1_555
Mg0 Mg5 3.139430 1_655
Mg0 Mg1 3.145754 1_555
Mg0 Mg8 3.156773 1_555
Mg0 Mg8 3.156773 1_655
Mg0 Mg1 3.165115 1_545
Mg0 Sn1 3.204124 1_555
Mg0 Sn0 3.207004 1_555
Mg1 Mg4 3.135097 1_565
Mg1 Mg4 3.135097 1_665
Mg1 Mg5 3.139430 1_555
Mg1 Mg5 3.139430 1_655
Mg1 Mg9 3.156773 1_555
Mg1 Mg9 3.156773 1_655
Mg1 Sn1 3.204124 1_555
Mg1 Sn0 3.207004 1_565
Mg2 Mg3 3.094724 1_555
Mg2 Sn0 3.155810 1_565
Mg2 Sn0 3.155810 1_465
Mg2 Mg6 3.156773 1_554
Mg2 Mg6 3.156773 1_454
Mg2 Mg5 3.185645 1_555
Mg2 Mg3 3.216145 1_565
Mg2 Mg4 3.242761 1_565
Mg3 Sn0 3.155810 1_555
Mg3 Sn0 3.155810 1_455
Mg3 Mg7 3.156773 1_454
Mg3 Mg7 3.156773 1_554
Mg3 Mg5 3.185645 1_555
Mg3 Mg4 3.242761 1_555
Mg4 Mg5 3.155590 1_555
Mg4 Mg5 3.155590 1_545
Mg4 Mg8 3.168420 1_555
Mg4 Mg9 3.168420 1_545
Mg4 Sn0 3.171047 1_455
Mg4 Sn0 3.171047 1_555
Mg5 Mg8 3.225649 1_555
Mg5 Mg9 3.225649 1_555
Mg6 Mg7 3.145754 1_565
Mg6 Mg7 3.165115 1_555
Mg6 Sn0 3.204124 1_566
Mg6 Sn1 3.207004 1_555
Mg7 Sn0 3.204124 1_556
Mg7 Sn1 3.207004 1_555
Mg8 Mg9 3.094724 1_545
Mg8 Sn1 3.155810 1_555
Mg8 Sn1 3.155810 1_455
Mg8 Mg9 3.216145 1_555
Mg9 Sn1 3.155810 1_555
Mg9 Sn1 3.155810 1_455
Mg10 Mg7 3.135097 1_455
Mg10 Mg7 3.135097 1_555
Mg10 Mg6 3.135097 1_455
Mg10 Mg6 3.135097 1_555
Mg10 Mg11 3.155590 1_555
Mg10 Mg11 3.155590 1_565
Mg10 Mg3 3.168420 1_556
Mg10 Mg2 3.168420 1_556
Mg10 Sn1 3.171047 1_555
Mg10 Sn1 3.171047 1_455
Mg10 Mg8 3.242761 1_555
Mg10 Mg9 3.242761 1_555
Mg11 Mg6 3.139430 1_445
Mg11 Mg7 3.139430 1_555
Mg11 Mg6 3.139430 1_545
Mg11 Mg7 3.139430 1_455
Mg11 Mg9 3.185645 1_545
Mg11 Mg8 3.185645 1_555
Mg11 Mg2 3.225649 1_546
Mg11 Mg3 3.225649 1_556
