# generated using pymatgen
data_Li3Mn4SnO8
_symmetry_space_group_name_H-M   'P 1'
_cell_length_a   6.16255438
_cell_length_b   6.18631482
_cell_length_c   10.78936836
_cell_angle_alpha   74.59615441
_cell_angle_beta   74.23108898
_cell_angle_gamma   61.30094962
_symmetry_Int_Tables_number   1
_chemical_formula_structural   Li3Mn4SnO8
_chemical_formula_sum   'Li6 Mn8 Sn2 O16'
_cell_volume   342.74300226
_cell_formula_units_Z   2
loop_
 _symmetry_equiv_pos_site_id
 _symmetry_equiv_pos_as_xyz
  1  'x, y, z'
loop_
 _atom_site_type_symbol
 _atom_site_label
 _atom_site_symmetry_multiplicity
 _atom_site_fract_x
 _atom_site_fract_y
 _atom_site_fract_z
 _atom_site_occupancy
  Li  Li0  1  0.75044000  0.74983000  0.24974000  1
  Li  Li1  1  0.24952200  0.25032800  0.74981600  1
  Li  Li2  1  0.99385600  0.48626300  0.01524300  1
  Li  Li3  1  0.50661400  0.01324800  0.48455700  1
  Li  Li4  1  0.98886200  0.49809100  0.50416700  1
  Li  Li5  1  0.51141600  0.00194300  0.99551000  1
  Mn  Mn0  1  0.00323800  0.00452100  0.00061300  1
  Mn  Mn1  1  0.49678700  0.49503100  0.49964300  1
  Mn  Mn2  1  0.74974100  0.25025300  0.25020100  1
  Mn  Mn3  1  0.25002700  0.74992900  0.75022000  1
  Mn  Mn4  1  0.25016200  0.74993200  0.25024500  1
  Mn  Mn5  1  0.74986900  0.25013700  0.75005800  1
  Mn  Mn6  1  0.74968800  0.74986600  0.74993300  1
  Mn  Mn7  1  0.24989500  0.25039200  0.25009800  1
  Sn  Sn0  1  0.99441500  0.99845300  0.50020300  1
  Sn  Sn1  1  0.50574600  0.50153800  0.99990300  1
  O  O0  1  0.87705500  0.88433400  0.37462700  1
  O  O1  1  0.41157400  0.37130100  0.86859700  1
  O  O2  1  0.08838700  0.12881700  0.63131000  1
  O  O3  1  0.62326200  0.61556800  0.12539900  1
  O  O4  1  0.86631100  0.92042200  0.86194000  1
  O  O5  1  0.37961100  0.37218200  0.36483700  1
  O  O6  1  0.12028200  0.12790800  0.13516900  1
  O  O7  1  0.63349900  0.57991900  0.63784100  1
  O  O8  1  0.62960900  0.11341100  0.61465000  1
  O  O9  1  0.14105300  0.61687700  0.11431500  1
  O  O10  1  0.11787700  0.64011000  0.61581300  1
  O  O11  1  0.61479800  0.14193400  0.11820200  1
  O  O12  1  0.88518200  0.35804500  0.38188600  1
  O  O13  1  0.38210000  0.85957700  0.88422600  1
  O  O14  1  0.35892300  0.88314600  0.38582200  1
  O  O15  1  0.87019900  0.38669700  0.88521600  1
loop_
_geom_bond_atom_site_label_1
_geom_bond_atom_site_label_2
_geom_bond_distance
_geom_bond_site_symmetry_2
Li0 O3 2.211908 1_555
Li0 O0 2.215273 1_555
Li0 O9 2.330490 1_655
Li0 O14 2.337525 1_555
Li0 O11 2.337819 1_565
Li0 O12 2.339117 1_555
Li1 O2 2.259097 1_555
Li1 O1 2.263344 1_555
Li1 O15 2.283612 1_455
Li1 O8 2.285784 1_555
Li1 O10 2.338719 1_555
Li1 O13 2.344960 1_545
Li2 O9 2.075606 1_655
Li2 O15 2.102182 1_554
Li2 O3 2.131532 1_555
Li2 O6 2.135674 1_655
Li2 O1 2.502306 1_654
Li2 O4 2.624209 1_554
Li3 O14 2.072925 1_545
Li3 O8 2.102373 1_555
Li3 O0 2.129923 1_545
Li3 O5 2.137348 1_555
Li3 O2 2.504905 1_555
Li3 O7 2.620547 1_545
Li4 O12 2.120497 1_555
Li4 O10 2.146785 1_655
Li4 O7 2.176854 1_555
Li4 O2 2.218900 1_655
Li4 O0 2.303392 1_555
Li4 O5 2.349096 1_655
Li5 O11 2.122635 1_556
Li5 O13 2.146695 1_545
Li5 O4 2.174430 1_545
Li5 O1 2.218142 1_555
Li5 O3 2.305537 1_546
Li5 O6 2.352337 1_556
Mn0 O4 2.177765 1_444
Mn0 O13 2.196820 1_544
Mn0 O6 2.212955 1_555
Mn0 O15 2.222939 1_454
Mn0 O9 2.241529 1_545
Mn0 O11 2.242850 1_455
Mn1 O7 2.175438 1_555
Mn1 O10 2.196157 1_555
Mn1 O5 2.213509 1_555
Mn1 O8 2.218799 1_555
Mn1 O12 2.243287 1_555
Mn1 O14 2.244167 1_555
Mn2 O5 2.147401 1_555
Mn2 O6 2.150882 1_655
Mn2 O3 2.188633 1_555
Mn2 O0 2.189615 1_545
Mn2 O12 2.200549 1_555
Mn2 O11 2.203353 1_555
Mn3 O4 2.210860 1_455
Mn3 O7 2.212218 1_555
Mn3 O13 2.214465 1_555
Mn3 O10 2.219097 1_555
Mn3 O1 2.229584 1_555
Mn3 O2 2.233132 1_565
Mn4 O5 2.199265 1_555
Mn4 O6 2.202295 1_565
Mn4 O0 2.204226 1_455
Mn4 O3 2.206322 1_555
Mn4 O14 2.229777 1_555
Mn4 O9 2.233692 1_555
Mn5 O4 1.972207 1_545
Mn5 O7 1.974060 1_555
Mn5 O1 2.025610 1_555
Mn5 O2 2.027602 1_655
Mn5 O15 2.287791 1_555
Mn5 O8 2.290434 1_555
Mn6 O7 2.224812 1_555
Mn6 O13 2.225628 1_555
Mn6 O10 2.227351 1_655
Mn6 O4 2.228891 1_555
Mn6 O15 2.230289 1_555
Mn6 O8 2.231788 1_565
Mn7 O5 2.085911 1_555
Mn7 O6 2.090101 1_555
Mn7 O12 2.201225 1_455
Mn7 O11 2.202493 1_555
Mn7 O9 2.246195 1_555
Mn7 O14 2.249152 1_545
O0 Sn0 2.094828 1_555
O1 Sn1 2.120210 1_555
O2 Sn0 2.118155 1_445
O3 Sn1 2.094397 1_554
O8 Sn0 2.122927 1_545
O9 Sn1 2.122224 1_554
O10 Sn0 2.115666 1_455
O11 Sn1 2.133456 1_554
O12 Sn0 2.133455 1_545
O13 Sn1 2.114631 1_555
O14 Sn0 2.121256 1_455
O15 Sn1 2.122325 1_555
