# generated using pymatgen
data_Ti3O
_symmetry_space_group_name_H-M   'P 1'
_cell_length_a   10.82670573
_cell_length_b   12.24498778
_cell_length_c   10.82386967
_cell_angle_alpha   86.19971258
_cell_angle_beta   94.05355613
_cell_angle_gamma   89.10226350
_symmetry_Int_Tables_number   1
_chemical_formula_structural   Ti3O
_chemical_formula_sum   'Ti75 O25'
_cell_volume   1427.91589458
_cell_formula_units_Z   25
loop_
 _symmetry_equiv_pos_site_id
 _symmetry_equiv_pos_as_xyz
  1  'x, y, z'
loop_
 _atom_site_type_symbol
 _atom_site_label
 _atom_site_symmetry_multiplicity
 _atom_site_fract_x
 _atom_site_fract_y
 _atom_site_fract_z
 _atom_site_occupancy
  Ti  Ti0  1  0.53096541  -0.00105317  0.52945669  1
  Ti  Ti1  1  0.06778181  0.11805982  0.65293917  1
  Ti  Ti2  1  0.83545728  0.51246448  0.55073149  1
  Ti  Ti3  1  0.70569233  0.80349027  0.86880771  1
  Ti  Ti4  1  0.59663927  0.45959528  0.65496641  1
  Ti  Ti5  1  0.84760722  0.46367540  0.10658653  1
  Ti  Ti6  1  0.47898978  0.79702150  0.40686861  1
  Ti  Ti7  1  0.68107654  0.20316256  0.85079095  1
  Ti  Ti8  1  0.45021689  0.79020711  0.65365004  1
  Ti  Ti9  1  0.41042719  0.85332533  0.90871210  1
  Ti  Ti10  1  0.05862958  0.60466132  0.75288744  1
  Ti  Ti11  1  0.94087537  0.72250185  0.54181752  1
  Ti  Ti12  1  0.31652507  -0.00236838  0.66712375  1
  Ti  Ti13  1  0.27915717  0.29478867  0.22449274  1
  Ti  Ti14  1  0.04025587  0.42713504  0.94276285  1
  Ti  Ti15  1  0.90539946  0.38137233  0.35344746  1
  Ti  Ti16  1  0.88690930  0.61421827  0.30705476  1
  Ti  Ti17  1  0.06040580  0.05673566  0.08414910  1
  Ti  Ti18  1  0.52766796  0.46079626  0.16363493  1
  Ti  Ti19  1  0.12842665  0.29586143  0.43712283  1
  Ti  Ti20  1  0.21649041  0.72665090  0.48992968  1
  Ti  Ti21  1  0.82091802  0.38834545  0.79756079  1
  Ti  Ti22  1  0.31435605  0.56816900  0.28482824  1
  Ti  Ti23  1  0.76429735  0.85071125  0.32900228  1
  Ti  Ti24  1  0.97581293  0.20446608  0.83685733  1
  Ti  Ti25  1  0.20929198  0.79583958  0.74119528  1
  Ti  Ti26  1  0.09158567  0.45512098  0.21465412  1
  Ti  Ti27  1  0.67886330  0.69877843  0.57423292  1
  Ti  Ti28  1  0.93146276  0.81634442  0.76206089  1
  Ti  Ti29  1  0.27885129  0.24363536  0.66959617  1
  Ti  Ti30  1  0.37151470  0.38860183  0.47995903  1
  Ti  Ti31  1  0.78070436  0.91083431  0.56101369  1
  Ti  Ti32  1  0.04899358  0.38519393  0.67525440  1
  Ti  Ti33  1  0.60331379  0.39548737  0.94421470  1
  Ti  Ti34  1  0.87087049  0.83604677  0.11180207  1
  Ti  Ti35  1  0.84184345  0.01155096  0.92646113  1
  Ti  Ti36  1  0.26871905  0.83271376  0.20448047  1
  Ti  Ti37  1  0.60880920  0.06428946  0.03238473  1
  Ti  Ti38  1  0.80082422  0.09436365  0.67477210  1
  Ti  Ti39  1  0.66959731  0.42517304  0.38786238  1
  Ti  Ti40  1  0.45882896  0.70136414  0.14154946  1
  Ti  Ti41  1  0.86610413  0.25663198  0.01177927  1
  Ti  Ti42  1  0.70778835  0.12154288  0.41529821  1
  Ti  Ti43  1  0.51870159  0.00442223  0.26978306  1
  Ti  Ti44  1  0.81630258  0.29099460  0.56613877  1
  Ti  Ti45  1  0.29495905  0.92594077  0.43047830  1
  Ti  Ti46  1  0.58539970  0.00711517  0.78593406  1
  Ti  Ti47  1  0.41914763  0.17420836  0.87416782  1
  Ti  Ti48  1  0.80271701  0.61486302  0.78050178  1
  Ti  Ti49  1  0.20633209  0.02238595  0.88001527  1
  Ti  Ti50  1  0.14831140  0.08918075  0.39337686  1
  Ti  Ti51  1  0.36266971  0.15211928  0.44138426  1
  Ti  Ti52  1  0.93676963  0.66963555  0.97417472  1
  Ti  Ti53  1  0.11725429  0.84506417  0.00017289  1
  Ti  Ti54  1  0.56515008  0.22853279  0.61545645  1
  Ti  Ti55  1  0.53967396  0.62532466  0.84510292  1
  Ti  Ti56  1  0.05711567  0.92120387  0.55432175  1
  Ti  Ti57  1  0.62976404  0.85255900  0.09531818  1
  Ti  Ti58  1  0.09084854  0.68995799  0.24172320  1
  Ti  Ti59  1  0.69269221  0.63302275  0.07139174  1
  Ti  Ti60  1  0.19247308  0.23136327  -0.02985437  1
  Ti  Ti61  1  0.92074787  0.10058877  0.43625555  1
  Ti  Ti62  1  0.71842920  0.28386524  0.18869928  1
  Ti  Ti63  1  0.20897305  0.62855464  0.03174180  1
  Ti  Ti64  1  0.00973813  0.23504489  0.21239472  1
  Ti  Ti65  1  0.64285482  0.64811207  0.32683495  1
  Ti  Ti66  1  0.81651691  0.05294415  0.19315785  1
  Ti  Ti67  1  0.03301472  0.90730734  0.30548084  1
  Ti  Ti68  1  0.30490820  0.06735795  0.13651320  1
  Ti  Ti69  1  0.48352448  0.24025102  0.09892654  1
  Ti  Ti70  1  0.31429816  0.56915033  0.70138284  1
  Ti  Ti71  1  0.34245256  0.41363962  0.96338475  1
  Ti  Ti72  1  0.52986556  0.25967803  0.35095710  1
  Ti  Ti73  1  0.13133478  0.51860295  0.46815097  1
  Ti  Ti74  1  0.45335820  0.59931907  0.49409737  1
  O  O0  1  0.23415974  0.42216758  0.34253314  1
  O  O1  1  0.64191109  0.55260757  0.49788514  1
  O  O2  1  0.67478848  0.50041673  0.82123654  1
  O  O3  1  0.13913470  0.96226348  0.71634380  1
  O  O4  1  0.76881364  0.93533874  0.75707689  1
  O  O5  1  0.40684871  0.16638722  0.25425173  1
  O  O6  1  0.05112424  0.66083148  0.42309168  1
  O  O7  1  0.21455800  0.38913912  0.58528424  1
  O  O8  1  0.09657489  0.72107229  0.87574618  1
  O  O9  1  0.57745420  0.81981710  0.26237535  1
  O  O10  1  0.40450564  0.01275893  0.84804086  1
  O  O11  1  0.19226613  0.37935056  0.06527996  1
  O  O12  1  0.59984234  0.84878319  0.56524914  1
  O  O13  1  0.99673547  0.07087327  0.26085137  1
  O  O14  1  0.36790828  0.70896846  0.80149056  1
  O  O15  1  0.02973137  0.54556898  0.06497046  1
  O  O16  1  0.30214291  0.76913474  0.03463726  1
  O  O17  1  0.91579281  0.84421408  0.93997174  1
  O  O18  1  0.30007684  0.30353481  0.83874407  1
  O  O19  1  0.64125777  0.13223035  0.21185719  1
  O  O20  1  0.36884842  0.55127381  0.09804256  1
  O  O21  1  0.42916052  0.12236886  0.62854822  1
  O  O22  1  0.56051571  0.73847854  0.97384048  1
  O  O23  1  0.92469127  0.77778377  0.27956829  1
  O  O24  1  0.43919865  0.48774847  0.83131730  1
loop_
_geom_bond_atom_site_label_1
_geom_bond_atom_site_label_2
_geom_bond_distance
_geom_bond_site_symmetry_2
Ti1 Ti24 2.569095 1_455
Ti2 Ti44 2.718044 1_555
Ti12 Ti45 2.757888 1_545
Ti14 Ti41 2.930495 1_456
Ti15 Ti39 2.657452 1_555
Ti15 Ti19 2.689436 1_655
Ti15 Ti64 2.713027 1_655
Ti15 Ti26 2.727833 1_655
Ti15 Ti44 2.732175 1_555
Ti15 Ti5 2.816667 1_555
Ti15 Ti16 2.863505 1_555
Ti15 Ti2 2.890481 1_555
Ti15 Ti62 2.924163 1_555
Ti17 Ti41 3.222083 1_455
Ti20 Ti45 2.650472 1_555
Ti21 Ti41 2.745175 1_556
Ti21 Ti24 2.777920 1_555
Ti21 Ti7 2.797102 1_555
Ti21 Ti44 2.842168 1_555
Ti24 Ti41 2.420341 1_556
Ti24 Ti60 2.702032 1_656
Ti24 Ti32 2.884876 1_655
Ti24 Ti38 2.899745 1_555
Ti24 Ti35 2.937205 1_555
Ti32 Ti44 2.987160 1_455
Ti33 Ti7 2.766109 1_555
Ti33 Ti41 3.303043 1_556
Ti35 Ti7 2.936191 1_555
Ti35 Ti41 3.207125 1_556
Ti36 Ti45 2.765810 1_555
Ti37 Ti7 2.680168 1_554
Ti38 Ti44 2.621662 1_555
Ti38 Ti7 2.777960 1_555
Ti39 Ti44 2.830276 1_555
Ti41 Ti64 2.576222 1_655
Ti41 Ti62 2.614448 1_555
Ti41 Ti7 2.678961 1_554
Ti41 Ti5 2.806889 1_555
Ti41 Ti66 3.147245 1_555
Ti42 Ti44 2.933520 1_555
Ti44 Ti54 2.912043 1_555
Ti44 Ti61 3.044287 1_555
Ti45 Ti50 2.526180 1_565
Ti45 Ti6 2.560092 1_555
Ti46 Ti7 2.743574 1_555
Ti47 Ti7 2.890104 1_555
Ti54 Ti7 2.755189 1_555
O0 Ti26 2.016380 1_555
O0 Ti30 2.044522 1_555
O0 Ti22 2.077850 1_555
O0 Ti13 2.151957 1_555
O0 Ti19 2.182190 1_555
O0 Ti73 2.206374 1_555
O1 Ti27 2.053855 1_555
O1 Ti39 2.055510 1_555
O1 Ti4 2.075284 1_555
O1 Ti74 2.108235 1_555
O1 Ti65 2.124038 1_555
O1 Ti2 2.172738 1_555
O2 Ti33 1.992883 1_555
O2 Ti4 2.030230 1_555
O2 Ti48 2.035167 1_555
O2 Ti21 2.118456 1_555
O2 Ti55 2.140490 1_555
O3 Ti56 2.006865 1_555
O3 Ti49 2.053572 1_565
O3 Ti12 2.073655 1_565
O3 Ti1 2.100594 1_565
O3 Ti25 2.156877 1_555
O4 Ti3 2.104456 1_555
O4 Ti38 2.130820 1_565
O4 Ti31 2.175317 1_555
O4 Ti46 2.209682 1_565
O4 Ti35 2.214129 1_565
O4 Ti28 2.263341 1_555
O5 Ti72 2.045371 1_555
O5 Ti13 2.070953 1_555
O5 Ti69 2.086377 1_555
O5 Ti68 2.088189 1_555
O5 Ti51 2.110599 1_555
O5 Ti43 2.297794 1_555
O6 Ti73 1.950710 1_555
O6 Ti11 1.990899 1_455
O6 Ti58 2.048739 1_555
O6 Ti20 2.077922 1_555
O6 Ti16 2.208015 1_455
O7 Ti29 2.036557 1_555
O7 Ti32 2.099298 1_555
O7 Ti73 2.111800 1_555
O7 Ti30 2.112330 1_555
O7 Ti19 2.193336 1_555
O7 Ti70 2.802462 1_555
O8 Ti10 2.039965 1_555
O8 Ti53 2.099568 1_556
O8 Ti25 2.134941 1_555
O8 Ti52 2.175086 1_455
O8 Ti63 2.242312 1_556
O8 Ti28 2.346081 1_455
O9 Ti57 1.951125 1_555
O9 Ti6 1.961520 1_555
O9 Ti23 2.146902 1_555
O9 Ti65 2.257836 1_555
O9 Ti43 2.346707 1_565
O9 Ti40 2.352873 1_555
O10 Ti9 2.016649 1_545
O10 Ti47 2.022625 1_555
O10 Ti46 2.116695 1_555
O10 Ti12 2.136863 1_555
O10 Ti49 2.199907 1_555
O11 Ti71 2.061597 1_554
O11 Ti14 2.089954 1_554
O11 Ti13 2.104916 1_555
O11 Ti60 2.142800 1_555
O11 Ti26 2.253750 1_555
O12 Ti0 1.977105 1_565
O12 Ti27 2.007630 1_555
O12 Ti8 2.053978 1_555
O12 Ti31 2.113866 1_555
O12 Ti6 2.214819 1_555
O13 Ti64 2.053210 1_655
O13 Ti67 2.054109 1_645
O13 Ti66 2.055422 1_555
O13 Ti17 2.095174 1_655
O13 Ti50 2.126575 1_655
O13 Ti61 2.171806 1_555
O14 Ti25 2.049105 1_555
O14 Ti8 2.088710 1_555
O14 Ti55 2.117143 1_555
O14 Ti70 2.151813 1_555
O14 Ti9 2.214786 1_555
O15 Ti26 1.971171 1_555
O15 Ti52 1.975117 1_454
O15 Ti14 2.033774 1_554
O15 Ti63 2.244966 1_555
O15 Ti5 2.285640 1_455
O15 Ti58 2.744088 1_555
O16 Ti63 2.009682 1_555
O16 Ti9 2.091052 1_554
O16 Ti36 2.095605 1_555
O16 Ti40 2.111061 1_555
O16 Ti53 2.191045 1_555
O17 Ti34 1.952029 1_556
O17 Ti28 1.996243 1_555
O17 Ti52 2.150916 1_555
O17 Ti35 2.180199 1_565
O17 Ti53 2.232231 1_656
O17 Ti3 2.419705 1_555
O18 Ti71 2.005308 1_555
O18 Ti29 2.016568 1_555
O18 Ti47 2.025428 1_555
O18 Ti60 2.064212 1_556
O19 Ti62 2.055486 1_555
O19 Ti66 2.146294 1_555
O19 Ti43 2.157681 1_555
O19 Ti37 2.171654 1_555
O19 Ti42 2.262622 1_555
O19 Ti69 2.362165 1_555
O19 Ti72 2.581849 1_555
O20 Ti63 2.022281 1_555
O20 Ti18 2.086045 1_555
O20 Ti40 2.157427 1_555
O20 Ti22 2.167618 1_555
O20 Ti71 2.308286 1_554
O21 Ti54 1.985647 1_555
O21 Ti12 2.010032 1_555
O21 Ti51 2.107778 1_555
O21 Ti0 2.231385 1_555
O21 Ti29 2.272572 1_555
O22 Ti55 2.033140 1_555
O22 Ti59 2.092356 1_556
O22 Ti57 2.092664 1_556
O22 Ti3 2.137417 1_555
O22 Ti9 2.179485 1_555
O22 Ti40 2.214187 1_556
O23 Ti34 1.952330 1_555
O23 Ti67 2.010046 1_655
O23 Ti16 2.056980 1_555
O23 Ti23 2.060439 1_555
O23 Ti58 2.159273 1_655
O24 Ti71 2.008370 1_555
O24 Ti55 2.027646 1_555
O24 Ti70 2.074405 1_555
O24 Ti33 2.318146 1_555
O24 Ti4 2.682667 1_555
