# generated using pymatgen
data_PuPb2
_symmetry_space_group_name_H-M   'P 1'
_cell_length_a   15.37378787
_cell_length_b   15.37378787
_cell_length_c   15.37378787
_cell_angle_alpha   162.01527630
_cell_angle_beta   162.01527630
_cell_angle_gamma   25.54089897
_symmetry_Int_Tables_number   1
_chemical_formula_structural   PuPb2
_chemical_formula_sum   'Pu4 Pb8'
_cell_volume   346.30446686
_cell_formula_units_Z   4
loop_
 _symmetry_equiv_pos_site_id
 _symmetry_equiv_pos_as_xyz
  1  'x, y, z'
loop_
 _atom_site_type_symbol
 _atom_site_label
 _atom_site_symmetry_multiplicity
 _atom_site_fract_x
 _atom_site_fract_y
 _atom_site_fract_z
 _atom_site_occupancy
  Pu  Pu0  1  0.82914400  0.32914400  0.50000000  1
  Pu  Pu1  1  0.92085600  0.92085600  0.00000000  1
  Pu  Pu2  1  0.67085600  0.17085600  0.50000000  1
  Pu  Pu3  1  0.07914400  0.07914400  0.00000000  1
  Pb  Pb0  1  0.00039800  0.50039800  0.50000000  1
  Pb  Pb1  1  0.74960200  0.74960200  0.00000000  1
  Pb  Pb2  1  0.49960200  0.99960200  0.50000000  1
  Pb  Pb3  1  0.25039800  0.25039800  0.00000000  1
  Pb  Pb4  1  0.16319400  0.66319400  0.50000000  1
  Pb  Pb5  1  0.58680600  0.58680600  0.00000000  1
  Pb  Pb6  1  0.33680600  0.83680600  0.50000000  1
  Pb  Pb7  1  0.41319400  0.41319400  0.00000000  1
loop_
_geom_bond_atom_site_label_1
_geom_bond_atom_site_label_2
_geom_bond_distance
_geom_bond_site_symmetry_2
Pb0 Pu3 3.369012 1_555
Pb0 Pu3 3.369012 1_566
Pb0 Pu1 3.385786 1_456
Pb0 Pu1 3.385786 1_445
Pb1 Pu2 3.369012 1_565
Pb1 Pu2 3.369012 1_554
Pb1 Pu0 3.385786 1_565
Pb1 Pu0 3.385786 1_554
Pb2 Pu1 3.369012 1_455
Pb2 Pu1 3.369012 1_556
Pb2 Pu3 3.385786 1_565
Pb2 Pu3 3.385786 1_666
Pb3 Pu0 3.369012 1_555
Pb3 Pu0 3.369012 1_454
Pb3 Pu2 3.385786 1_555
Pb3 Pu2 3.385786 1_454
Pb4 Pu2 3.406065 1_454
Pb4 Pu2 3.406065 1_555
Pb4 Pu2 3.406065 1_566
Pb4 Pu2 3.406065 1_465
Pb4 Pu3 3.482340 1_566
Pb4 Pu3 3.482340 1_555
Pb5 Pu3 3.406065 1_666
Pb5 Pu3 3.406065 1_565
Pb5 Pu3 3.406065 1_554
Pb5 Pu3 3.406065 1_655
Pb5 Pu2 3.482340 1_554
Pb5 Pu2 3.482340 1_565
Pb6 Pu0 3.406065 1_555
Pb6 Pu0 3.406065 1_465
Pb6 Pu0 3.406065 1_566
Pb6 Pu0 3.406065 1_454
Pb6 Pu1 3.482340 1_556
Pb6 Pu1 3.482340 1_455
Pb7 Pu1 3.406065 1_545
Pb7 Pu1 3.406065 1_455
Pb7 Pu1 3.406065 1_444
Pb7 Pu1 3.406065 1_556
Pb7 Pu0 3.482340 1_454
Pb7 Pu0 3.482340 1_555
