# generated using pymatgen
data_Mg3Si2
_symmetry_space_group_name_H-M   'P 1'
_cell_length_a   5.26217000
_cell_length_b   5.54582572
_cell_length_c   7.21161697
_cell_angle_alpha   94.20619850
_cell_angle_beta   99.73049403
_cell_angle_gamma   107.38121525
_symmetry_Int_Tables_number   1
_chemical_formula_structural   Mg3Si2
_chemical_formula_sum   'Mg6 Si4'
_cell_volume   196.23480208
_cell_formula_units_Z   2
loop_
 _symmetry_equiv_pos_site_id
 _symmetry_equiv_pos_as_xyz
  1  'x, y, z'
loop_
 _atom_site_type_symbol
 _atom_site_label
 _atom_site_symmetry_multiplicity
 _atom_site_fract_x
 _atom_site_fract_y
 _atom_site_fract_z
 _atom_site_occupancy
  Mg  Mg0  1  0.44417000  0.26535700  0.09194900  1
  Mg  Mg1  1  0.55583000  0.73464300  0.90805100  1
  Mg  Mg2  1  0.09931400  0.68784100  0.17673800  1
  Mg  Mg3  1  0.90068600  0.31215900  0.82326200  1
  Mg  Mg4  1  0.69671200  0.78989500  0.45396100  1
  Mg  Mg5  1  0.30328800  0.21010500  0.54603900  1
  Si  Si0  1  0.79686500  0.31912700  0.43832200  1
  Si  Si1  1  0.20313500  0.68087300  0.56167800  1
  Si  Si2  1  0.92306100  0.11993700  0.17706700  1
  Si  Si3  1  0.07693900  0.88006300  0.82293300  1
loop_
_geom_bond_atom_site_label_1
_geom_bond_atom_site_label_2
_geom_bond_distance
_geom_bond_site_symmetry_2
Mg0 Si3 2.778756 1_544
Mg0 Si0 2.786751 1_555
Mg0 Si2 2.804818 1_455
Mg0 Si2 2.853345 1_555
Mg1 Si2 2.778756 1_566
Mg1 Si1 2.786751 1_555
Mg1 Si3 2.804818 1_655
Mg1 Si3 2.853345 1_555
Mg2 Si1 2.742636 1_555
Mg2 Si2 2.816093 1_465
Mg2 Si3 2.834238 1_554
Mg2 Si2 3.006022 1_455
Mg2 Si0 3.147909 1_455
Mg3 Si0 2.742636 1_555
Mg3 Si3 2.816093 1_645
Mg3 Si2 2.834238 1_556
Mg3 Si3 3.006022 1_655
Mg3 Si1 3.147909 1_655
Mg4 Si1 2.743643 1_555
Mg4 Si0 2.811708 1_555
Mg4 Si0 2.837138 1_565
Mg4 Si1 2.898687 1_655
Mg4 Si3 2.956525 1_655
Mg4 Si2 2.965454 1_565
Mg5 Si0 2.743643 1_555
Mg5 Si1 2.811708 1_555
Mg5 Si1 2.837138 1_545
Mg5 Si0 2.898687 1_455
Mg5 Si2 2.956525 1_455
Mg5 Si3 2.965454 1_545
Si0 Si2 2.401437 1_555
Si0 Si1 2.432996 1_655
Si1 Si3 2.401437 1_555
