# generated using pymatgen
data_Rb2HgBiI6
_symmetry_space_group_name_H-M   'P 1'
_cell_length_a   8.80678303
_cell_length_b   8.80678303
_cell_length_c   8.80678303
_cell_angle_alpha   60.00000000
_cell_angle_beta   60.00000000
_cell_angle_gamma   60.00000000
_symmetry_Int_Tables_number   1
_chemical_formula_structural   Rb2HgBiI6
_chemical_formula_sum   'Rb2 Hg1 Bi1 I6'
_cell_volume   482.98861385
_cell_formula_units_Z   1
loop_
 _symmetry_equiv_pos_site_id
 _symmetry_equiv_pos_as_xyz
  1  'x, y, z'
loop_
 _atom_site_type_symbol
 _atom_site_label
 _atom_site_symmetry_multiplicity
 _atom_site_fract_x
 _atom_site_fract_y
 _atom_site_fract_z
 _atom_site_occupancy
  Rb  Rb0  1  0.75000000  0.75000000  0.75000000  1
  Rb  Rb1  1  0.25000000  0.25000000  0.25000000  1
  Hg  Hg0  1  0.50000000  0.50000000  0.50000000  1
  Bi  Bi0  1  0.00000000  0.00000000  0.00000000  1
  I  I0  1  0.75151200  0.24848800  0.24848800  1
  I  I1  1  0.24848800  0.24848800  0.75151200  1
  I  I2  1  0.24848800  0.75151200  0.75151200  1
  I  I3  1  0.24848800  0.75151200  0.24848800  1
  I  I4  1  0.75151200  0.24848800  0.75151200  1
  I  I5  1  0.75151200  0.75151200  0.24848800  1
loop_
_geom_bond_atom_site_label_1
_geom_bond_atom_site_label_2
_geom_bond_distance
_geom_bond_site_symmetry_2
Hg0 I4 3.132499 1_555
Hg0 I5 3.132499 1_555
Hg0 I2 3.132499 1_555
Hg0 I3 3.132499 1_555
Hg0 I0 3.132499 1_555
Hg0 I1 3.132499 1_555
Bi0 I1 3.094837 1_554
Bi0 I0 3.094837 1_455
Bi0 I3 3.094837 1_545
Bi0 I5 3.094837 1_445
Bi0 I2 3.094837 1_544
Bi0 I4 3.094837 1_454
