# generated using pymatgen
data_CaP2O9
_symmetry_space_group_name_H-M   'P 1'
_cell_length_a   5.64185300
_cell_length_b   6.29135716
_cell_length_c   13.29917182
_cell_angle_alpha   83.45889386
_cell_angle_beta   79.06672335
_cell_angle_gamma   66.59575503
_symmetry_Int_Tables_number   1
_chemical_formula_structural   CaP2O9
_chemical_formula_sum   'Ca2 P4 O18'
_cell_volume   424.96146109
_cell_formula_units_Z   2
loop_
 _symmetry_equiv_pos_site_id
 _symmetry_equiv_pos_as_xyz
  1  'x, y, z'
loop_
 _atom_site_type_symbol
 _atom_site_label
 _atom_site_symmetry_multiplicity
 _atom_site_fract_x
 _atom_site_fract_y
 _atom_site_fract_z
 _atom_site_occupancy
  Ca  Ca0  1  0.98261300  0.74139700  0.08559100  1
  Ca  Ca1  1  0.01738700  0.25860300  0.91440900  1
  P  P0  1  0.44610400  0.29172300  0.09272100  1
  P  P1  1  0.55389600  0.70827700  0.90727900  1
  P  P2  1  0.72475800  0.63253100  0.36046600  1
  P  P3  1  0.27524200  0.36746900  0.63953400  1
  O  O0  1  0.24229800  0.32059800  0.02711800  1
  O  O1  1  0.75770200  0.67940200  0.97288200  1
  O  O2  1  0.73091100  0.14636200  0.05290300  1
  O  O3  1  0.26908900  0.85363800  0.94709700  1
  O  O4  1  0.38211700  0.50583000  0.14867900  1
  O  O5  1  0.61788300  0.49417000  0.85132100  1
  O  O6  1  0.40536200  0.07240800  0.19296100  1
  O  O7  1  0.59463800  0.92759200  0.80703900  1
  O  O8  1  0.78544000  0.68408300  0.24544700  1
  O  O9  1  0.21456000  0.31591700  0.75455300  1
  O  O10  1  0.42930800  0.72648100  0.40040900  1
  O  O11  1  0.57069200  0.27351900  0.59959100  1
  O  O12  1  0.83602900  0.75852000  0.42079100  1
  O  O13  1  0.16397100  0.24148000  0.57920900  1
  O  O14  1  0.85568600  0.37042700  0.38583900  1
  O  O15  1  0.14431400  0.62957300  0.61416100  1
  O  O16  1  0.17574000  0.07093900  0.22486600  1
  O  O17  1  0.82426000  0.92906100  0.77513400  1
loop_
_geom_bond_atom_site_label_1
_geom_bond_atom_site_label_2
_geom_bond_distance
_geom_bond_site_symmetry_2
Ca0 O8 2.265852 1_555
Ca0 O1 2.292805 1_554
Ca0 O4 2.400199 1_655
Ca0 O2 2.409215 1_565
Ca0 O3 2.446323 1_654
Ca0 O0 2.591420 1_655
Ca1 O9 2.265852 1_555
Ca1 O0 2.292805 1_556
Ca1 O5 2.400199 1_455
Ca1 O3 2.409215 1_545
Ca1 O2 2.446323 1_456
Ca1 O1 2.591420 1_455
O0 P0 1.514869 1_555
O1 P1 1.514869 1_555
O2 P0 1.522778 1_555
O3 P1 1.522778 1_555
O4 P0 1.496257 1_555
O5 P1 1.496257 1_555
O6 P0 1.857547 1_555
O7 P1 1.857547 1_555
O8 P2 1.529307 1_555
O9 P3 1.529307 1_555
O10 P2 1.537203 1_555
O11 P3 1.537203 1_555
O12 P2 1.548310 1_555
O13 P3 1.548310 1_555
O14 P2 1.542330 1_555
O15 P3 1.542330 1_555
O16 O6 1.287840 1_555
O17 O7 1.287840 1_555
