# generated using pymatgen
data_CdAu
_symmetry_space_group_name_H-M   'P 1'
_cell_length_a   3.03460840
_cell_length_b   4.77679884
_cell_length_c   5.21254541
_cell_angle_alpha   90.00000000
_cell_angle_beta   90.00000000
_cell_angle_gamma   90.00000000
_symmetry_Int_Tables_number   1
_chemical_formula_structural   CdAu
_chemical_formula_sum   'Cd2 Au2'
_cell_volume   75.55956688
_cell_formula_units_Z   2
loop_
 _symmetry_equiv_pos_site_id
 _symmetry_equiv_pos_as_xyz
  1  'x, y, z'
loop_
 _atom_site_type_symbol
 _atom_site_label
 _atom_site_symmetry_multiplicity
 _atom_site_fract_x
 _atom_site_fract_y
 _atom_site_fract_z
 _atom_site_occupancy
  Cd  Cd0  1  0.00000000  0.75000000  0.68726903  1
  Cd  Cd1  1  0.00000000  0.25000000  0.31273097  1
  Au  Au0  1  0.50000000  0.75000000  0.18229113  1
  Au  Au1  1  0.50000000  0.25000000  0.81770787  1
loop_
_geom_bond_atom_site_label_1
_geom_bond_atom_site_label_2
_geom_bond_distance
_geom_bond_site_symmetry_2
Au0 Cd1 2.910148 1_565
Au0 Cd1 2.910148 1_655
Au0 Cd1 2.910148 1_665
Au0 Cd1 2.910148 1_555
Au0 Cd0 2.993374 1_654
Au0 Cd0 2.993374 1_554
Au0 Cd0 3.038222 1_555
Au0 Cd0 3.038222 1_655
Au1 Cd0 2.910147 1_655
Au1 Cd0 2.910147 1_545
Au1 Cd0 2.910147 1_555
Au1 Cd0 2.910147 1_645
Au1 Cd1 2.993379 1_656
Au1 Cd1 2.993379 1_556
Au1 Cd1 3.038218 1_555
Au1 Cd1 3.038218 1_655
