# generated using pymatgen
data_Ca2MgZn
_symmetry_space_group_name_H-M   'P 1'
_cell_length_a   13.89375602
_cell_length_b   13.32745955
_cell_length_c   13.32747480
_cell_angle_alpha   59.06388769
_cell_angle_beta   58.58413366
_cell_angle_gamma   58.58423627
_symmetry_Int_Tables_number   1
_chemical_formula_structural   Ca2MgZn
_chemical_formula_sum   'Ca2 Mg1 Zn1'
_cell_volume   1694.87016098
_cell_formula_units_Z   1
loop_
 _symmetry_equiv_pos_site_id
 _symmetry_equiv_pos_as_xyz
  1  'x, y, z'
loop_
 _atom_site_type_symbol
 _atom_site_label
 _atom_site_symmetry_multiplicity
 _atom_site_fract_x
 _atom_site_fract_y
 _atom_site_fract_z
 _atom_site_occupancy
  Ca  Ca0  1  0.73950258  0.00000001  -0.00000001  1
  Ca  Ca1  1  0.26049742  -0.00000001  0.00000001  1
  Mg  Mg0  1  0.00000000  0.00000000  0.00000000  1
  Zn  Zn0  1  0.50000000  0.00000000  0.00000000  1
loop_
_geom_bond_atom_site_label_1
_geom_bond_atom_site_label_2
_geom_bond_distance
_geom_bond_site_symmetry_2
Ca0 Zn0 3.327590 1_555
Ca0 Mg0 3.619288 1_655
Ca1 Zn0 3.327590 1_555
Ca1 Mg0 3.619288 1_555
