# generated using pymatgen
data_Mg149Bi
_symmetry_space_group_name_H-M   'P 1'
_cell_length_a   16.00087109
_cell_length_b   16.00087859
_cell_length_c   15.62193415
_cell_angle_alpha   90.00000000
_cell_angle_beta   90.00000000
_cell_angle_gamma   120.00001549
_symmetry_Int_Tables_number   1
_chemical_formula_structural   Mg149Bi
_chemical_formula_sum   'Mg149 Bi1'
_cell_volume   3463.80011980
_cell_formula_units_Z   1
loop_
 _symmetry_equiv_pos_site_id
 _symmetry_equiv_pos_as_xyz
  1  'x, y, z'
loop_
 _atom_site_type_symbol
 _atom_site_label
 _atom_site_symmetry_multiplicity
 _atom_site_fract_x
 _atom_site_fract_y
 _atom_site_fract_z
 _atom_site_occupancy
  Mg  Mg0  1  0.79649517  0.00101066  -0.00000000  1
  Mg  Mg1  1  0.20451549  0.00101066  -0.00000000  1
  Mg  Mg2  1  0.79970690  0.20029210  -0.00000000  1
  Mg  Mg3  1  0.40058520  0.20029210  -0.00000000  1
  Mg  Mg4  1  0.60020142  0.20040183  -0.00000000  1
  Mg  Mg5  1  0.20451549  0.20350483  -0.00000000  1
  Mg  Mg6  1  0.99898934  0.20350483  -0.00000000  1
  Mg  Mg7  1  0.19984544  0.39968988  -0.00000000  1
  Mg  Mg8  1  0.79959817  0.39979958  -0.00000000  1
  Mg  Mg9  1  0.60020142  0.39979958  -0.00000000  1
  Mg  Mg10  1  0.00016968  0.40119926  -0.00000000  1
  Mg  Mg11  1  0.40102958  0.40119926  -0.00000000  1
  Mg  Mg12  1  0.00016968  0.59897042  -0.00000000  1
  Mg  Mg13  1  0.59880074  0.59897042  -0.00000000  1
  Mg  Mg14  1  0.79970690  0.59941480  -0.00000000  1
  Mg  Mg15  1  0.39987973  0.60012027  -0.00000000  1
  Mg  Mg16  1  0.20024154  0.60012127  -0.00000000  1
  Mg  Mg17  1  0.79649517  0.79548451  -0.00000000  1
  Mg  Mg18  1  0.99898934  0.79548451  -0.00000000  1
  Mg  Mg19  1  0.39987973  0.79975846  -0.00000000  1
  Mg  Mg20  1  0.19984544  0.80015456  -0.00000000  1
  Mg  Mg21  1  0.60031012  0.80015556  -0.00000000  1
  Mg  Mg22  1  0.59880074  0.99983032  -0.00000000  1
  Mg  Mg23  1  0.40102958  0.99983032  -0.00000000  1
  Mg  Mg24  1  0.46681813  0.13337706  0.16633578  1
  Mg  Mg25  1  0.66655892  0.13337706  0.16633578  1
  Mg  Mg26  1  0.46681813  0.33344108  0.16633578  1
  Mg  Mg27  1  0.86662294  0.33344108  0.16633578  1
  Mg  Mg28  1  0.66655892  0.53318187  0.16633578  1
  Mg  Mg29  1  0.86662294  0.53318187  0.16633578  1
  Mg  Mg30  1  0.66666700  0.33333300  0.16653972  1
  Mg  Mg31  1  0.26668209  0.53336417  0.16654452  1
  Mg  Mg32  1  0.26668209  0.73331791  0.16654452  1
  Mg  Mg33  1  0.46663583  0.73331791  0.16654452  1
  Mg  Mg34  1  0.06639660  0.33341350  0.16644578  1
  Mg  Mg35  1  0.26701790  0.33341350  0.16644578  1
  Mg  Mg36  1  0.66658550  0.73298210  0.16644578  1
  Mg  Mg37  1  0.06639660  0.73298310  0.16644578  1
  Mg  Mg38  1  0.66658550  0.93360340  0.16644578  1
  Mg  Mg39  1  0.26701790  0.93360340  0.16644578  1
  Mg  Mg40  1  0.46655677  0.53344323  0.16650779  1
  Mg  Mg41  1  0.06688645  0.53344323  0.16650779  1
  Mg  Mg42  1  0.46655677  0.93311355  0.16650779  1
  Mg  Mg43  1  0.26730206  0.13365103  0.16721010  1
  Mg  Mg44  1  0.86634897  0.13365103  0.16721010  1
  Mg  Mg45  1  0.86634897  0.73269794  0.16721010  1
  Mg  Mg46  1  0.06758151  0.13516402  0.17019775  1
  Mg  Mg47  1  0.86483598  0.93241849  0.17019775  1
  Mg  Mg48  1  0.06758151  0.93241849  0.17019775  1
  Mg  Mg49  1  0.19990982  0.39981964  0.33290527  1
  Mg  Mg50  1  0.19990982  0.80009018  0.33290527  1
  Mg  Mg51  1  0.60018036  0.80009018  0.33290527  1
  Mg  Mg52  1  0.79988637  0.20011363  0.33309200  1
  Mg  Mg53  1  0.40022725  0.20011363  0.33309200  1
  Mg  Mg54  1  0.79988637  0.59977175  0.33309200  1
  Mg  Mg55  1  0.60016808  0.20033517  0.33305403  1
  Mg  Mg56  1  0.79966483  0.39983192  0.33305403  1
  Mg  Mg57  1  0.60016808  0.39983192  0.33305403  1
  Mg  Mg58  1  0.39998916  0.00002865  0.33326359  1
  Mg  Mg59  1  0.60003949  0.00002865  0.33326359  1
  Mg  Mg60  1  0.99997135  0.39996051  0.33326359  1
  Mg  Mg61  1  0.39998916  0.39996051  0.33326359  1
  Mg  Mg62  1  0.99997135  0.60001084  0.33326359  1
  Mg  Mg63  1  0.60003949  0.60001084  0.33326359  1
  Mg  Mg64  1  0.39986717  0.60013183  0.33310178  1
  Mg  Mg65  1  0.20026465  0.60013283  0.33310178  1
  Mg  Mg66  1  0.39986717  0.79973535  0.33310178  1
  Mg  Mg67  1  -0.00000000  0.00000000  0.33375682  1
  Mg  Mg68  1  0.79996488  0.00025111  0.33435661  1
  Mg  Mg69  1  0.20028724  0.00025111  0.33435661  1
  Mg  Mg70  1  0.99974889  0.20003512  0.33435661  1
  Mg  Mg71  1  0.20028724  0.20003512  0.33435661  1
  Mg  Mg72  1  0.79996488  0.79971376  0.33435661  1
  Mg  Mg73  1  0.99974889  0.79971376  0.33435661  1
  Mg  Mg74  1  0.46666213  0.13315475  0.50000000  1
  Mg  Mg75  1  0.66649262  0.13315475  0.50000000  1
  Mg  Mg76  1  0.06656366  0.13312833  0.50000000  1
  Mg  Mg77  1  0.26678645  0.13339373  0.50000000  1
  Mg  Mg78  1  0.86660727  0.13339373  0.50000000  1
  Mg  Mg79  1  0.66666700  0.33333300  0.50000000  1
  Mg  Mg80  1  0.06674393  0.33344346  0.50000000  1
  Mg  Mg81  1  0.26669953  0.33344346  0.50000000  1
  Mg  Mg82  1  0.86684525  0.33350738  0.50000000  1
  Mg  Mg83  1  0.46666213  0.33350738  0.50000000  1
  Mg  Mg84  1  0.86684525  0.53333787  0.50000000  1
  Mg  Mg85  1  0.66649262  0.53333787  0.50000000  1
  Mg  Mg86  1  0.46662508  0.53337492  0.50000000  1
  Mg  Mg87  1  0.06674984  0.53337492  0.50000000  1
  Mg  Mg88  1  0.26661981  0.53323961  0.50000000  1
  Mg  Mg89  1  0.86660727  0.73321355  0.50000000  1
  Mg  Mg90  1  0.26661981  0.73338019  0.50000000  1
  Mg  Mg91  1  0.46676039  0.73338019  0.50000000  1
  Mg  Mg92  1  0.06674393  0.73330047  0.50000000  1
  Mg  Mg93  1  0.66655654  0.73330047  0.50000000  1
  Mg  Mg94  1  0.46662508  0.93325016  0.50000000  1
  Mg  Mg95  1  0.26669953  0.93325607  0.50000000  1
  Mg  Mg96  1  0.66655654  0.93325607  0.50000000  1
  Mg  Mg97  1  0.06656366  0.93343634  0.50000000  1
  Mg  Mg98  1  0.86687167  0.93343634  0.50000000  1
  Mg  Mg99  1  0.79996488  0.00025111  0.66564339  1
  Mg  Mg100  1  0.20028724  0.00025111  0.66564339  1
  Mg  Mg101  1  0.99974889  0.20003512  0.66564339  1
  Mg  Mg102  1  0.20028724  0.20003512  0.66564339  1
  Mg  Mg103  1  0.79996488  0.79971376  0.66564339  1
  Mg  Mg104  1  0.99974889  0.79971376  0.66564339  1
  Mg  Mg105  1  0.00000000  0.00000000  0.66624318  1
  Mg  Mg106  1  0.39986717  0.60013183  0.66689822  1
  Mg  Mg107  1  0.20026465  0.60013283  0.66689822  1
  Mg  Mg108  1  0.39986717  0.79973535  0.66689822  1
  Mg  Mg109  1  0.39998916  0.00002865  0.66673641  1
  Mg  Mg110  1  0.60003949  0.00002865  0.66673641  1
  Mg  Mg111  1  0.99997135  0.39996051  0.66673641  1
  Mg  Mg112  1  0.39998916  0.39996051  0.66673641  1
  Mg  Mg113  1  0.99997135  0.60001084  0.66673641  1
  Mg  Mg114  1  0.60003949  0.60001084  0.66673641  1
  Mg  Mg115  1  0.60016808  0.20033517  0.66694597  1
  Mg  Mg116  1  0.79966483  0.39983192  0.66694597  1
  Mg  Mg117  1  0.60016808  0.39983192  0.66694597  1
  Mg  Mg118  1  0.79988637  0.20011363  0.66690800  1
  Mg  Mg119  1  0.40022725  0.20011363  0.66690800  1
  Mg  Mg120  1  0.79988637  0.59977175  0.66690800  1
  Mg  Mg121  1  0.19990982  0.39981964  0.66709473  1
  Mg  Mg122  1  0.19990982  0.80009018  0.66709473  1
  Mg  Mg123  1  0.60018036  0.80009018  0.66709473  1
  Mg  Mg124  1  0.06758151  0.13516402  0.82980225  1
  Mg  Mg125  1  0.86483598  0.93241849  0.82980225  1
  Mg  Mg126  1  0.06758151  0.93241849  0.82980225  1
  Mg  Mg127  1  0.26730206  0.13365103  0.83278990  1
  Mg  Mg128  1  0.86634897  0.13365103  0.83278990  1
  Mg  Mg129  1  0.86634897  0.73269794  0.83278990  1
  Mg  Mg130  1  0.46655677  0.53344323  0.83349221  1
  Mg  Mg131  1  0.06688645  0.53344323  0.83349221  1
  Mg  Mg132  1  0.46655677  0.93311355  0.83349221  1
  Mg  Mg133  1  0.06639660  0.33341350  0.83355422  1
  Mg  Mg134  1  0.26701790  0.33341350  0.83355422  1
  Mg  Mg135  1  0.66658550  0.73298210  0.83355422  1
  Mg  Mg136  1  0.06639660  0.73298310  0.83355422  1
  Mg  Mg137  1  0.66658550  0.93360340  0.83355422  1
  Mg  Mg138  1  0.26701790  0.93360340  0.83355422  1
  Mg  Mg139  1  0.26668209  0.53336417  0.83345548  1
  Mg  Mg140  1  0.26668209  0.73331791  0.83345548  1
  Mg  Mg141  1  0.46663583  0.73331791  0.83345548  1
  Mg  Mg142  1  0.66666700  0.33333300  0.83346028  1
  Mg  Mg143  1  0.46681813  0.13337706  0.83366422  1
  Mg  Mg144  1  0.66655892  0.13337706  0.83366422  1
  Mg  Mg145  1  0.46681813  0.33344108  0.83366422  1
  Mg  Mg146  1  0.86662294  0.33344108  0.83366422  1
  Mg  Mg147  1  0.66655892  0.53318187  0.83366422  1
  Mg  Mg148  1  0.86662294  0.53318187  0.83366422  1
  Bi  Bi0  1  0.00000000  0.00000000  -0.00000000  1
loop_
_geom_bond_atom_site_label_1
_geom_bond_atom_site_label_2
_geom_bond_distance
_geom_bond_site_symmetry_2
Mg0 Mg22 3.153882 1_545
Mg0 Mg137 3.162792 1_544
Mg0 Mg38 3.162792 1_545
Mg0 Mg2 3.163296 1_555
Mg0 Mg21 3.177153 1_545
Mg0 Mg44 3.194498 1_555
Mg0 Mg128 3.194498 1_554
Mg0 Mg6 3.240083 1_555
Mg0 Mg47 3.266471 1_545
Mg0 Mg125 3.266471 1_544
Mg0 Mg17 3.288599 1_545
Mg1 Mg23 3.153882 1_545
Mg1 Mg39 3.162792 1_545
Mg1 Mg138 3.162792 1_544
Mg1 Mg3 3.163295 1_555
Mg1 Mg20 3.177171 1_545
Mg1 Mg43 3.194498 1_555
Mg1 Mg127 3.194498 1_554
Mg1 Mg5 3.240085 1_555
Mg1 Mg48 3.266479 1_545
Mg1 Mg126 3.266479 1_544
Mg1 Mg18 3.288597 1_445
Mg2 Mg6 3.163303 1_555
Mg2 Mg25 3.186908 1_555
Mg2 Mg27 3.186916 1_555
Mg2 Mg4 3.193140 1_555
Mg2 Mg8 3.193165 1_555
Mg2 Mg44 3.199131 1_555
Mg2 Mg22 3.211124 1_545
Mg3 Mg5 3.163303 1_555
Mg3 Mg4 3.193156 1_555
Mg3 Mg9 3.193164 1_555
Mg3 Mg43 3.199131 1_555
Mg4 Mg8 3.190530 1_555
Mg4 Mg9 3.190539 1_555
Mg5 Mg7 3.177155 1_555
Mg5 Mg6 3.288597 1_455
Mg6 Mg7 3.177162 1_655
Mg8 Mg9 3.190522 1_555
Mg10 Mg6 3.153884 1_455
Mg10 Mg12 3.164512 1_555
Mg10 Mg131 3.181878 1_554
Mg10 Mg41 3.181878 1_555
Mg10 Mg146 3.190144 1_454
Mg10 Mg27 3.190144 1_455
Mg10 Mg16 3.192164 1_555
Mg10 Mg133 3.195278 1_554
Mg10 Mg34 3.195278 1_555
Mg10 Mg8 3.198180 1_455
Mg10 Mg7 3.207130 1_555
Mg10 Mg2 3.211140 1_455
Mg11 Mg5 3.153882 1_555
Mg11 Mg13 3.164511 1_555
Mg11 Mg130 3.181878 1_554
Mg11 Mg40 3.181878 1_555
Mg11 Mg145 3.190145 1_554
Mg11 Mg26 3.190145 1_555
Mg11 Mg15 3.192150 1_555
Mg11 Mg134 3.195270 1_554
Mg11 Mg35 3.195270 1_555
Mg11 Mg9 3.198180 1_555
Mg11 Mg7 3.207114 1_555
Mg11 Mg3 3.211142 1_555
Mg12 Mg18 3.153884 1_455
Mg12 Mg131 3.181878 1_554
Mg12 Mg41 3.181878 1_555
Mg12 Mg148 3.190144 1_454
Mg12 Mg29 3.190144 1_455
Mg12 Mg16 3.192157 1_555
Mg12 Mg136 3.195278 1_554
Mg12 Mg37 3.195278 1_555
Mg12 Mg8 3.198172 1_455
Mg12 Mg20 3.207122 1_555
Mg12 Mg14 3.211140 1_455
Mg13 Mg17 3.153882 1_555
Mg13 Mg130 3.181878 1_554
Mg13 Mg40 3.181878 1_555
Mg13 Mg147 3.190145 1_554
Mg13 Mg28 3.190145 1_555
Mg13 Mg15 3.192149 1_555
Mg13 Mg135 3.195270 1_554
Mg13 Mg36 3.195270 1_555
Mg13 Mg9 3.198173 1_555
Mg13 Mg21 3.207131 1_555
Mg13 Mg14 3.211124 1_555
Mg14 Mg17 3.163296 1_555
Mg14 Mg18 3.163303 1_555
Mg14 Mg147 3.186908 1_554
Mg14 Mg28 3.186908 1_555
Mg14 Mg148 3.186916 1_554
Mg14 Mg29 3.186916 1_555
Mg14 Mg9 3.193140 1_555
Mg14 Mg8 3.193149 1_555
Mg14 Mg45 3.199131 1_555
Mg15 Mg31 3.189962 1_555
Mg15 Mg33 3.189962 1_555
Mg15 Mg40 3.190748 1_555
Mg15 Mg19 3.194386 1_555
Mg15 Mg16 3.194393 1_555
Mg15 Mg7 3.203897 1_555
Mg15 Mg21 3.203905 1_555
Mg16 Mg32 3.189954 1_555
Mg16 Mg31 3.189962 1_555
Mg16 Mg41 3.190756 1_555
Mg16 Mg19 3.194377 1_555
Mg16 Mg20 3.203882 1_555
Mg16 Mg7 3.203914 1_555
Mg17 Mg36 3.162792 1_555
Mg17 Mg21 3.177162 1_555
Mg17 Mg45 3.194498 1_555
Mg17 Mg18 3.240083 1_555
Mg17 Mg47 3.266479 1_555
Mg18 Mg37 3.162784 1_655
Mg18 Mg20 3.177169 1_655
Mg18 Mg45 3.194497 1_555
Mg18 Mg48 3.266479 1_655
Mg19 Mg33 3.189954 1_555
Mg19 Mg32 3.189962 1_555
Mg19 Mg42 3.190756 1_555
Mg19 Mg22 3.192157 1_555
Mg19 Mg23 3.192166 1_555
Mg19 Mg21 3.203889 1_555
Mg19 Mg20 3.203897 1_555
Mg20 Mg37 3.190727 1_555
Mg20 Mg39 3.190727 1_555
Mg20 Mg32 3.193780 1_555
Mg20 Mg23 3.207122 1_555
Mg21 Mg38 3.190719 1_555
Mg21 Mg36 3.190728 1_555
Mg21 Mg33 3.193787 1_555
Mg21 Mg22 3.207115 1_555
Mg22 Mg23 3.164511 1_555
Mg22 Mg42 3.181878 1_555
Mg22 Mg25 3.190145 1_565
Mg22 Mg38 3.195270 1_555
Mg22 Mg4 3.198173 1_565
Mg23 Mg42 3.181878 1_555
Mg23 Mg24 3.190145 1_565
Mg23 Mg39 3.195270 1_555
Mg23 Mg4 3.198180 1_565
Mg23 Mg3 3.211126 1_565
Mg24 Mg3 3.186908 1_555
Mg24 Mg4 3.188797 1_555
Mg24 Mg55 3.193399 1_555
Mg24 Mg53 3.193700 1_555
Mg24 Mg43 3.194654 1_555
Mg24 Mg25 3.196027 1_555
Mg24 Mg58 3.196055 1_555
Mg24 Mg39 3.196766 1_545
Mg24 Mg30 3.198615 1_555
Mg24 Mg26 3.201200 1_555
Mg24 Mg42 3.202304 1_545
Mg25 Mg4 3.188789 1_555
Mg25 Mg55 3.193391 1_555
Mg25 Mg52 3.193699 1_555
Mg25 Mg44 3.194654 1_555
Mg25 Mg59 3.196055 1_555
Mg25 Mg38 3.196767 1_545
Mg25 Mg30 3.198608 1_555
Mg25 Mg27 3.201199 1_555
Mg25 Mg42 3.202303 1_545
Mg26 Mg3 3.186916 1_555
Mg26 Mg9 3.188797 1_555
Mg26 Mg57 3.193399 1_555
Mg26 Mg53 3.193700 1_555
Mg26 Mg43 3.194654 1_555
Mg26 Mg28 3.196027 1_555
Mg26 Mg61 3.196055 1_555
Mg26 Mg35 3.196758 1_555
Mg26 Mg30 3.198623 1_555
Mg26 Mg40 3.202304 1_555
Mg27 Mg8 3.188797 1_555
Mg27 Mg56 3.193391 1_555
Mg27 Mg52 3.193700 1_555
Mg27 Mg44 3.194656 1_555
Mg27 Mg29 3.196028 1_555
Mg27 Mg60 3.196055 1_555
Mg27 Mg34 3.196774 1_655
Mg27 Mg30 3.198606 1_555
Mg27 Mg41 3.202303 1_655
Mg28 Mg9 3.188789 1_555
Mg28 Mg57 3.193399 1_555
Mg28 Mg54 3.193699 1_555
Mg28 Mg45 3.194654 1_555
Mg28 Mg63 3.196055 1_555
Mg28 Mg36 3.196767 1_555
Mg28 Mg30 3.198624 1_555
Mg28 Mg29 3.201199 1_555
Mg28 Mg40 3.202303 1_555
Mg29 Mg8 3.188789 1_555
Mg29 Mg56 3.193399 1_555
Mg29 Mg54 3.193692 1_555
Mg29 Mg45 3.194656 1_555
Mg29 Mg62 3.196055 1_555
Mg29 Mg37 3.196774 1_655
Mg29 Mg30 3.198615 1_555
Mg29 Mg41 3.202303 1_655
Mg30 Mg8 3.187764 1_555
Mg30 Mg4 3.187765 1_555
Mg30 Mg9 3.187773 1_555
Mg30 Mg56 3.187974 1_555
Mg30 Mg55 3.187975 1_555
Mg30 Mg57 3.187975 1_555
Mg31 Mg64 3.190024 1_555
Mg31 Mg65 3.190032 1_555
Mg31 Mg49 3.190406 1_555
Mg31 Mg7 3.193787 1_555
Mg31 Mg40 3.197537 1_555
Mg31 Mg41 3.197537 1_555
Mg31 Mg33 3.199434 1_555
Mg31 Mg32 3.199436 1_555
Mg31 Mg34 3.202067 1_555
Mg31 Mg35 3.202077 1_555
Mg32 Mg66 3.190024 1_555
Mg32 Mg65 3.190024 1_555
Mg32 Mg50 3.190406 1_555
Mg32 Mg42 3.197537 1_555
Mg32 Mg41 3.197537 1_555
Mg32 Mg33 3.199434 1_555
Mg32 Mg39 3.202061 1_555
Mg32 Mg37 3.202067 1_555
Mg33 Mg64 3.190032 1_555
Mg33 Mg66 3.190032 1_555
Mg33 Mg51 3.190405 1_555
Mg33 Mg40 3.197538 1_555
Mg33 Mg42 3.197539 1_555
Mg33 Mg36 3.202059 1_555
Mg33 Mg38 3.202059 1_555
Mg34 Mg6 3.162784 1_455
Mg34 Mg46 3.182228 1_555
Mg34 Mg7 3.190727 1_555
Mg34 Mg49 3.191415 1_555
Mg34 Mg60 3.191640 1_455
Mg34 Mg41 3.196740 1_555
Mg34 Mg44 3.198680 1_455
Mg34 Mg70 3.208836 1_455
Mg34 Mg35 3.210116 1_555
Mg35 Mg5 3.162784 1_555
Mg35 Mg46 3.182243 1_555
Mg35 Mg7 3.190727 1_555
Mg35 Mg49 3.191424 1_555
Mg35 Mg61 3.191632 1_555
Mg35 Mg40 3.196730 1_555
Mg35 Mg43 3.198673 1_555
Mg35 Mg71 3.208836 1_555
Mg36 Mg47 3.182250 1_555
Mg36 Mg51 3.191416 1_555
Mg36 Mg63 3.191632 1_555
Mg36 Mg40 3.196722 1_555
Mg36 Mg45 3.198688 1_555
Mg36 Mg72 3.208843 1_555
Mg36 Mg38 3.210117 1_555
Mg37 Mg48 3.182244 1_555
Mg37 Mg50 3.191415 1_555
Mg37 Mg62 3.191640 1_455
Mg37 Mg41 3.196740 1_555
Mg37 Mg45 3.198680 1_455
Mg37 Mg73 3.208836 1_455
Mg37 Mg39 3.210108 1_555
Mg38 Mg47 3.182242 1_555
Mg38 Mg51 3.191416 1_555
Mg38 Mg59 3.191632 1_565
Mg38 Mg42 3.196722 1_555
Mg38 Mg44 3.198688 1_565
Mg38 Mg68 3.208843 1_565
Mg39 Mg48 3.182258 1_555
Mg39 Mg50 3.191416 1_555
Mg39 Mg58 3.191632 1_565
Mg39 Mg42 3.196722 1_555
Mg39 Mg43 3.198689 1_565
Mg39 Mg69 3.208836 1_565
Mg40 Mg64 3.192040 1_555
Mg40 Mg63 3.194940 1_555
Mg40 Mg61 3.194940 1_555
Mg41 Mg65 3.192039 1_555
Mg41 Mg62 3.194940 1_455
Mg41 Mg60 3.194940 1_455
Mg42 Mg66 3.192040 1_555
Mg42 Mg59 3.194940 1_565
Mg42 Mg58 3.194940 1_565
Mg43 Mg53 3.179335 1_555
Mg43 Mg5 3.194498 1_555
Mg43 Mg71 3.199251 1_555
Mg43 Mg69 3.199259 1_555
Mg43 Mg48 3.208207 1_545
Mg43 Mg46 3.208215 1_555
Mg44 Mg52 3.179336 1_555
Mg44 Mg6 3.194497 1_555
Mg44 Mg70 3.199258 1_555
Mg44 Mg68 3.199259 1_555
Mg44 Mg46 3.208199 1_655
Mg44 Mg47 3.208201 1_545
Mg45 Mg54 3.179343 1_555
Mg45 Mg73 3.199258 1_555
Mg45 Mg72 3.199259 1_555
Mg45 Mg48 3.208207 1_655
Mg45 Mg47 3.208217 1_555
Mg46 Mg70 3.155734 1_455
Mg46 Mg71 3.155750 1_555
Mg46 Mg67 3.168071 1_555
Mg46 Mg47 3.244105 1_445
Mg46 Mg48 3.244107 1_545
Mg46 Mg6 3.266471 1_455
Mg46 Mg5 3.266479 1_555
Mg47 Mg68 3.155734 1_565
Mg47 Mg72 3.155742 1_555
Mg47 Mg67 3.168071 1_665
Mg47 Mg48 3.244105 1_655
Mg48 Mg73 3.155742 1_455
Mg48 Mg69 3.155750 1_565
Mg48 Mg67 3.168063 1_565
Mg49 Mg80 3.196723 1_555
Mg49 Mg81 3.196723 1_555
Mg49 Mg88 3.198755 1_555
Mg49 Mg70 3.199822 1_455
Mg49 Mg71 3.199832 1_555
Mg49 Mg61 3.200322 1_555
Mg49 Mg60 3.200322 1_455
Mg49 Mg64 3.202336 1_555
Mg49 Mg65 3.202353 1_555
Mg50 Mg92 3.196723 1_555
Mg50 Mg95 3.196723 1_555
Mg50 Mg90 3.198755 1_555
Mg50 Mg69 3.199816 1_565
Mg50 Mg73 3.199822 1_455
Mg50 Mg58 3.200322 1_565
Mg50 Mg62 3.200322 1_455
Mg50 Mg66 3.202336 1_555
Mg50 Mg65 3.202337 1_555
Mg51 Mg93 3.196723 1_555
Mg51 Mg96 3.196723 1_555
Mg51 Mg91 3.198755 1_555
Mg51 Mg68 3.199822 1_565
Mg51 Mg72 3.199822 1_555
Mg51 Mg59 3.200324 1_565
Mg51 Mg63 3.200324 1_555
Mg51 Mg64 3.202352 1_555
Mg51 Mg66 3.202352 1_555
Mg52 Mg75 3.196167 1_555
Mg52 Mg82 3.196168 1_555
Mg52 Mg78 3.196542 1_555
Mg52 Mg55 3.197441 1_555
Mg52 Mg56 3.197442 1_555
Mg52 Mg70 3.198664 1_555
Mg52 Mg68 3.198665 1_555
Mg52 Mg60 3.199632 1_555
Mg52 Mg59 3.199632 1_555
Mg53 Mg83 3.196168 1_555
Mg53 Mg74 3.196168 1_555
Mg53 Mg77 3.196542 1_555
Mg53 Mg57 3.197449 1_555
Mg53 Mg55 3.197457 1_555
Mg53 Mg71 3.198647 1_555
Mg53 Mg69 3.198656 1_555
Mg53 Mg61 3.199633 1_555
Mg53 Mg58 3.199633 1_555
Mg54 Mg84 3.196160 1_555
Mg54 Mg85 3.196167 1_555
Mg54 Mg89 3.196550 1_555
Mg54 Mg57 3.197441 1_555
Mg54 Mg56 3.197442 1_555
Mg54 Mg73 3.198672 1_555
Mg54 Mg72 3.198681 1_555
Mg54 Mg62 3.199624 1_555
Mg54 Mg63 3.199640 1_555
Mg55 Mg56 3.192122 1_555
Mg55 Mg57 3.192123 1_555
Mg55 Mg79 3.193480 1_555
Mg55 Mg75 3.197548 1_555
Mg55 Mg74 3.197555 1_555
Mg55 Mg59 3.204054 1_555
Mg55 Mg58 3.204060 1_555
Mg56 Mg57 3.192122 1_555
Mg56 Mg79 3.193479 1_555
Mg56 Mg82 3.197548 1_555
Mg56 Mg84 3.197556 1_555
Mg56 Mg60 3.204052 1_555
Mg56 Mg62 3.204060 1_555
Mg57 Mg79 3.193480 1_555
Mg57 Mg83 3.197555 1_555
Mg57 Mg85 3.197556 1_555
Mg57 Mg61 3.204068 1_555
Mg57 Mg63 3.204070 1_555
Mg58 Mg74 3.191834 1_555
Mg58 Mg95 3.193144 1_545
Mg58 Mg94 3.194144 1_545
Mg58 Mg69 3.197232 1_555
Mg58 Mg59 3.200980 1_555
Mg58 Mg66 3.203894 1_545
Mg59 Mg75 3.191834 1_555
Mg59 Mg96 3.193144 1_545
Mg59 Mg94 3.194144 1_545
Mg59 Mg68 3.197248 1_555
Mg59 Mg66 3.203901 1_545
Mg60 Mg82 3.191834 1_555
Mg60 Mg80 3.193144 1_655
Mg60 Mg87 3.194144 1_655
Mg60 Mg70 3.197249 1_555
Mg60 Mg62 3.200981 1_555
Mg60 Mg65 3.203901 1_655
Mg61 Mg83 3.191834 1_555
Mg61 Mg81 3.193144 1_555
Mg61 Mg86 3.194144 1_555
Mg61 Mg71 3.197240 1_555
Mg61 Mg63 3.200980 1_555
Mg61 Mg64 3.203894 1_555
Mg62 Mg84 3.191834 1_555
Mg62 Mg92 3.193144 1_655
Mg62 Mg87 3.194144 1_655
Mg62 Mg73 3.197249 1_555
Mg62 Mg65 3.203893 1_655
Mg63 Mg85 3.191834 1_555
Mg63 Mg93 3.193144 1_555
Mg63 Mg86 3.194144 1_555
Mg63 Mg72 3.197248 1_555
Mg63 Mg64 3.203901 1_555
Mg64 Mg65 3.193822 1_555
Mg64 Mg66 3.193832 1_555
Mg64 Mg88 3.194870 1_555
Mg64 Mg91 3.194878 1_555
Mg64 Mg86 3.197011 1_555
Mg65 Mg66 3.193814 1_555
Mg65 Mg90 3.194870 1_555
Mg65 Mg88 3.194879 1_555
Mg65 Mg87 3.197010 1_555
Mg66 Mg90 3.194870 1_555
Mg66 Mg91 3.194879 1_555
Mg66 Mg94 3.197011 1_555
Mg67 Mg97 3.185559 1_545
Mg67 Mg98 3.185566 1_445
Mg67 Mg76 3.185567 1_555
Mg67 Mg68 3.202761 1_455
Mg67 Mg72 3.202761 1_445
Mg67 Mg70 3.202762 1_455
Mg67 Mg73 3.202762 1_445
Mg67 Mg71 3.202769 1_555
Mg67 Mg69 3.202777 1_555
Mg68 Mg78 3.178048 1_555
Mg68 Mg96 3.180189 1_545
Mg68 Mg98 3.182712 1_545
Mg68 Mg70 3.196718 1_555
Mg68 Mg72 3.208774 1_545
Mg69 Mg77 3.178048 1_555
Mg69 Mg95 3.180182 1_545
Mg69 Mg97 3.182727 1_545
Mg69 Mg71 3.196720 1_555
Mg69 Mg73 3.208780 1_445
Mg70 Mg78 3.178039 1_555
Mg70 Mg80 3.180190 1_655
Mg70 Mg76 3.182712 1_655
Mg70 Mg71 3.208788 1_655
Mg71 Mg77 3.178031 1_555
Mg71 Mg81 3.180190 1_555
Mg71 Mg76 3.182727 1_555
Mg72 Mg89 3.178047 1_555
Mg72 Mg93 3.180189 1_555
Mg72 Mg98 3.182720 1_555
Mg72 Mg73 3.196718 1_555
Mg73 Mg89 3.178039 1_555
Mg73 Mg92 3.180190 1_655
Mg73 Mg97 3.182720 1_655
Mg74 Mg75 3.197462 1_555
Mg74 Mg94 3.198353 1_545
Mg74 Mg95 3.199065 1_545
Mg74 Mg77 3.200099 1_555
Mg74 Mg79 3.201640 1_555
Mg74 Mg83 3.205818 1_555
Mg75 Mg94 3.198351 1_545
Mg75 Mg96 3.199066 1_545
Mg75 Mg78 3.200098 1_555
Mg75 Mg79 3.201634 1_555
Mg75 Mg82 3.205817 1_555
Mg76 Mg98 3.195246 1_445
Mg76 Mg97 3.195247 1_545
Mg76 Mg78 3.201602 1_455
Mg76 Mg77 3.201618 1_555
Mg76 Mg80 3.203777 1_555
Mg76 Mg81 3.203783 1_555
Mg77 Mg83 3.200091 1_555
Mg77 Mg97 3.201618 1_545
Mg77 Mg81 3.201667 1_555
Mg77 Mg95 3.201683 1_545
Mg78 Mg99 3.178048 1_555
Mg78 Mg82 3.200092 1_555
Mg78 Mg98 3.201611 1_545
Mg78 Mg80 3.201666 1_655
Mg78 Mg96 3.201682 1_545
Mg79 Mg82 3.201632 1_555
Mg79 Mg84 3.201640 1_555
Mg79 Mg83 3.201648 1_555
Mg79 Mg85 3.201650 1_555
Mg80 Mg88 3.197551 1_555
Mg80 Mg87 3.199032 1_555
Mg80 Mg82 3.199065 1_455
Mg80 Mg81 3.199464 1_555
Mg81 Mg88 3.197552 1_555
Mg81 Mg86 3.199030 1_555
Mg81 Mg83 3.199065 1_555
Mg82 Mg84 3.197463 1_555
Mg82 Mg87 3.198351 1_655
Mg83 Mg85 3.197462 1_555
Mg83 Mg86 3.198353 1_555
Mg84 Mg87 3.198351 1_655
Mg84 Mg92 3.199065 1_655
Mg84 Mg89 3.200092 1_555
Mg84 Mg85 3.205817 1_555
Mg85 Mg86 3.198351 1_555
Mg85 Mg93 3.199066 1_555
Mg85 Mg89 3.200099 1_555
Mg86 Mg93 3.199030 1_555
Mg86 Mg88 3.199177 1_555
Mg86 Mg91 3.199178 1_555
Mg87 Mg92 3.199032 1_555
Mg87 Mg90 3.199177 1_555
Mg87 Mg88 3.199177 1_555
Mg88 Mg91 3.202424 1_555
Mg88 Mg90 3.202425 1_555
Mg89 Mg97 3.201610 1_655
Mg89 Mg98 3.201627 1_555
Mg89 Mg92 3.201666 1_655
Mg89 Mg93 3.201682 1_555
Mg90 Mg92 3.197551 1_555
Mg90 Mg95 3.197552 1_555
Mg90 Mg94 3.199177 1_555
Mg90 Mg91 3.202424 1_555
Mg91 Mg93 3.197550 1_555
Mg91 Mg96 3.197551 1_555
Mg91 Mg94 3.199178 1_555
Mg92 Mg95 3.199464 1_555
Mg92 Mg97 3.203793 1_555
Mg93 Mg96 3.199465 1_555
Mg93 Mg98 3.203783 1_555
Mg94 Mg96 3.199030 1_555
Mg94 Mg95 3.199030 1_555
Mg95 Mg97 3.203791 1_555
Mg96 Mg99 3.180189 1_565
Mg96 Mg98 3.203775 1_555
Mg97 Mg98 3.195246 1_455
Mg98 Mg99 3.182712 1_565
Mg100 Mg126 3.155750 1_545
Mg100 Mg77 3.178048 1_555
Mg100 Mg95 3.180182 1_545
Mg100 Mg97 3.182727 1_545
Mg100 Mg102 3.196720 1_555
Mg100 Mg109 3.197232 1_555
Mg100 Mg119 3.198656 1_555
Mg100 Mg127 3.199259 1_555
Mg100 Mg122 3.199816 1_545
Mg100 Mg105 3.202777 1_555
Mg100 Mg104 3.208780 1_445
Mg100 Mg138 3.208836 1_545
Mg101 Mg124 3.155734 1_655
Mg101 Mg78 3.178039 1_555
Mg101 Mg80 3.180190 1_655
Mg101 Mg76 3.182712 1_655
Mg101 Mg99 3.196718 1_555
Mg101 Mg111 3.197249 1_555
Mg101 Mg118 3.198664 1_555
Mg101 Mg128 3.199258 1_555
Mg101 Mg121 3.199822 1_655
Mg101 Mg105 3.202762 1_655
Mg101 Mg102 3.208788 1_655
Mg101 Mg133 3.208836 1_655
Mg102 Mg124 3.155750 1_555
Mg102 Mg77 3.178031 1_555
Mg102 Mg81 3.180190 1_555
Mg102 Mg76 3.182727 1_555
Mg102 Mg112 3.197240 1_555
Mg102 Mg119 3.198647 1_555
Mg102 Mg127 3.199251 1_555
Mg102 Mg121 3.199832 1_555
Mg102 Mg105 3.202769 1_555
Mg102 Mg134 3.208836 1_555
Mg103 Mg125 3.155742 1_555
Mg103 Mg89 3.178047 1_555
Mg103 Mg93 3.180189 1_555
Mg103 Mg98 3.182720 1_555
Mg103 Mg104 3.196718 1_555
Mg103 Mg114 3.197248 1_555
Mg103 Mg120 3.198681 1_555
Mg103 Mg129 3.199259 1_555
Mg103 Mg123 3.199822 1_555
Mg103 Mg105 3.202761 1_665
Mg103 Mg99 3.208774 1_565
Mg103 Mg135 3.208843 1_555
Mg104 Mg126 3.155742 1_655
Mg104 Mg89 3.178039 1_555
Mg104 Mg92 3.180190 1_655
Mg104 Mg97 3.182720 1_655
Mg104 Mg113 3.197249 1_555
Mg104 Mg120 3.198672 1_555
Mg104 Mg129 3.199258 1_555
Mg104 Mg122 3.199822 1_655
Mg104 Mg105 3.202762 1_665
Mg104 Mg136 3.208836 1_655
Mg105 Mg126 3.168063 1_545
Mg105 Mg125 3.168071 1_445
Mg105 Mg124 3.168071 1_555
Mg105 Mg97 3.185559 1_545
Mg105 Mg98 3.185566 1_445
Mg105 Mg76 3.185567 1_555
Mg105 Mg99 3.202761 1_455
Mg106 Mg139 3.190024 1_555
Mg106 Mg141 3.190032 1_555
Mg106 Mg130 3.192040 1_555
Mg106 Mg107 3.193822 1_555
Mg106 Mg108 3.193832 1_555
Mg106 Mg88 3.194870 1_555
Mg106 Mg91 3.194878 1_555
Mg106 Mg86 3.197011 1_555
Mg106 Mg121 3.202336 1_555
Mg106 Mg123 3.202352 1_555
Mg106 Mg112 3.203894 1_555
Mg106 Mg114 3.203901 1_555
Mg107 Mg140 3.190024 1_555
Mg107 Mg139 3.190032 1_555
Mg107 Mg131 3.192039 1_555
Mg107 Mg108 3.193814 1_555
Mg107 Mg90 3.194870 1_555
Mg107 Mg88 3.194879 1_555
Mg107 Mg87 3.197010 1_555
Mg107 Mg122 3.202337 1_555
Mg107 Mg121 3.202353 1_555
Mg107 Mg113 3.203893 1_455
Mg107 Mg111 3.203901 1_455
Mg108 Mg140 3.190024 1_555
Mg108 Mg141 3.190032 1_555
Mg108 Mg132 3.192040 1_555
Mg108 Mg90 3.194870 1_555
Mg108 Mg91 3.194879 1_555
Mg108 Mg94 3.197011 1_555
Mg108 Mg122 3.202336 1_555
Mg108 Mg123 3.202352 1_555
Mg108 Mg109 3.203894 1_565
Mg108 Mg110 3.203901 1_565
Mg109 Mg138 3.191632 1_545
Mg109 Mg74 3.191834 1_555
Mg109 Mg95 3.193144 1_545
Mg109 Mg94 3.194144 1_545
Mg109 Mg132 3.194940 1_545
Mg109 Mg143 3.196055 1_555
Mg109 Mg119 3.199633 1_555
Mg109 Mg122 3.200322 1_545
Mg109 Mg110 3.200980 1_555
Mg109 Mg115 3.204060 1_555
Mg110 Mg137 3.191632 1_545
Mg110 Mg75 3.191834 1_555
Mg110 Mg96 3.193144 1_545
Mg110 Mg94 3.194144 1_545
Mg110 Mg132 3.194940 1_545
Mg110 Mg144 3.196055 1_555
Mg110 Mg99 3.197248 1_555
Mg110 Mg118 3.199632 1_555
Mg110 Mg123 3.200324 1_545
Mg110 Mg115 3.204054 1_555
Mg111 Mg133 3.191640 1_655
Mg111 Mg82 3.191834 1_555
Mg111 Mg80 3.193144 1_655
Mg111 Mg87 3.194144 1_655
Mg111 Mg131 3.194940 1_655
Mg111 Mg146 3.196055 1_555
Mg111 Mg118 3.199632 1_555
Mg111 Mg121 3.200322 1_655
Mg111 Mg113 3.200981 1_555
Mg111 Mg116 3.204052 1_555
Mg112 Mg134 3.191632 1_555
Mg112 Mg83 3.191834 1_555
Mg112 Mg81 3.193144 1_555
Mg112 Mg86 3.194144 1_555
Mg112 Mg130 3.194940 1_555
Mg112 Mg145 3.196055 1_555
Mg112 Mg119 3.199633 1_555
Mg112 Mg121 3.200322 1_555
Mg112 Mg114 3.200980 1_555
Mg112 Mg117 3.204068 1_555
Mg113 Mg136 3.191640 1_655
Mg113 Mg84 3.191834 1_555
Mg113 Mg92 3.193144 1_655
Mg113 Mg87 3.194144 1_655
Mg113 Mg131 3.194940 1_655
Mg113 Mg148 3.196055 1_555
Mg113 Mg120 3.199624 1_555
Mg113 Mg122 3.200322 1_655
Mg113 Mg116 3.204060 1_555
Mg114 Mg135 3.191632 1_555
Mg114 Mg85 3.191834 1_555
Mg114 Mg93 3.193144 1_555
Mg114 Mg86 3.194144 1_555
Mg114 Mg130 3.194940 1_555
Mg114 Mg147 3.196055 1_555
Mg114 Mg120 3.199640 1_555
Mg114 Mg123 3.200324 1_555
Mg114 Mg117 3.204070 1_555
Mg115 Mg142 3.187975 1_555
Mg115 Mg116 3.192122 1_555
Mg115 Mg117 3.192123 1_555
Mg115 Mg144 3.193391 1_555
Mg115 Mg143 3.193399 1_555
Mg115 Mg79 3.193480 1_555
Mg115 Mg118 3.197441 1_555
Mg115 Mg119 3.197457 1_555
Mg115 Mg75 3.197548 1_555
Mg115 Mg74 3.197555 1_555
Mg116 Mg142 3.187974 1_555
Mg116 Mg117 3.192122 1_555
Mg116 Mg146 3.193391 1_555
Mg116 Mg148 3.193399 1_555
Mg116 Mg79 3.193479 1_555
Mg116 Mg118 3.197442 1_555
Mg116 Mg120 3.197442 1_555
Mg116 Mg82 3.197548 1_555
Mg116 Mg84 3.197556 1_555
Mg117 Mg142 3.187975 1_555
Mg117 Mg145 3.193399 1_555
Mg117 Mg147 3.193399 1_555
Mg117 Mg79 3.193480 1_555
Mg117 Mg120 3.197441 1_555
Mg117 Mg119 3.197449 1_555
Mg117 Mg83 3.197555 1_555
Mg117 Mg85 3.197556 1_555
Mg118 Mg128 3.179336 1_555
Mg118 Mg144 3.193699 1_555
Mg118 Mg146 3.193700 1_555
Mg118 Mg75 3.196167 1_555
Mg118 Mg82 3.196168 1_555
Mg118 Mg78 3.196542 1_555
Mg118 Mg99 3.198665 1_555
Mg119 Mg127 3.179335 1_555
Mg119 Mg143 3.193700 1_555
Mg119 Mg145 3.193700 1_555
Mg119 Mg83 3.196168 1_555
Mg119 Mg74 3.196168 1_555
Mg119 Mg77 3.196542 1_555
Mg120 Mg129 3.179343 1_555
Mg120 Mg148 3.193692 1_555
Mg120 Mg147 3.193699 1_555
Mg120 Mg84 3.196160 1_555
Mg120 Mg85 3.196167 1_555
Mg120 Mg89 3.196550 1_555
Mg121 Mg139 3.190406 1_555
Mg121 Mg133 3.191415 1_555
Mg121 Mg134 3.191424 1_555
Mg121 Mg80 3.196723 1_555
Mg121 Mg81 3.196723 1_555
Mg121 Mg88 3.198755 1_555
Mg122 Mg140 3.190406 1_555
Mg122 Mg136 3.191415 1_555
Mg122 Mg138 3.191416 1_555
Mg122 Mg92 3.196723 1_555
Mg122 Mg95 3.196723 1_555
Mg122 Mg90 3.198755 1_555
Mg123 Mg141 3.190405 1_555
Mg123 Mg135 3.191416 1_555
Mg123 Mg137 3.191416 1_555
Mg123 Mg93 3.196723 1_555
Mg123 Mg96 3.196723 1_555
Mg123 Mg91 3.198755 1_555
Mg123 Mg99 3.199822 1_565
Mg124 Mg133 3.182228 1_555
Mg124 Mg134 3.182243 1_555
Mg124 Mg128 3.208199 1_455
Mg124 Mg127 3.208215 1_555
Mg124 Mg125 3.244105 1_445
Mg124 Mg126 3.244107 1_545
Mg124 Mg6 3.266471 1_456
Mg124 Mg5 3.266479 1_556
Mg125 Mg99 3.155734 1_565
Mg125 Mg137 3.182242 1_555
Mg125 Mg135 3.182250 1_555
Mg125 Mg128 3.208201 1_565
Mg125 Mg129 3.208217 1_555
Mg125 Mg126 3.244105 1_655
Mg125 Mg17 3.266479 1_556
Mg126 Mg136 3.182244 1_555
Mg126 Mg138 3.182258 1_555
Mg126 Mg129 3.208207 1_455
Mg126 Mg127 3.208207 1_565
Mg126 Mg18 3.266479 1_456
Mg127 Mg5 3.194498 1_556
Mg127 Mg143 3.194654 1_555
Mg127 Mg145 3.194654 1_555
Mg127 Mg134 3.198673 1_555
Mg127 Mg138 3.198689 1_545
Mg127 Mg3 3.199131 1_556
Mg128 Mg6 3.194497 1_556
Mg128 Mg144 3.194654 1_555
Mg128 Mg146 3.194656 1_555
Mg128 Mg133 3.198680 1_655
Mg128 Mg137 3.198688 1_545
Mg128 Mg2 3.199131 1_556
Mg128 Mg99 3.199259 1_555
Mg129 Mg18 3.194497 1_556
Mg129 Mg17 3.194498 1_556
Mg129 Mg147 3.194654 1_555
Mg129 Mg148 3.194656 1_555
Mg129 Mg136 3.198680 1_655
Mg129 Mg135 3.198688 1_555
Mg129 Mg14 3.199131 1_556
Mg130 Mg15 3.190748 1_556
Mg130 Mg135 3.196722 1_555
Mg130 Mg134 3.196730 1_555
Mg130 Mg139 3.197537 1_555
Mg130 Mg141 3.197538 1_555
Mg130 Mg147 3.202303 1_555
Mg130 Mg145 3.202304 1_555
Mg131 Mg16 3.190756 1_556
Mg131 Mg136 3.196740 1_555
Mg131 Mg133 3.196740 1_555
Mg131 Mg140 3.197537 1_555
Mg131 Mg139 3.197537 1_555
Mg131 Mg148 3.202303 1_455
Mg131 Mg146 3.202303 1_455
Mg132 Mg22 3.181878 1_556
Mg132 Mg23 3.181878 1_556
Mg132 Mg19 3.190756 1_556
Mg132 Mg138 3.196722 1_555
Mg132 Mg137 3.196722 1_555
Mg132 Mg140 3.197537 1_555
Mg132 Mg141 3.197539 1_555
Mg132 Mg144 3.202303 1_565
Mg132 Mg143 3.202304 1_565
Mg133 Mg6 3.162784 1_456
Mg133 Mg7 3.190727 1_556
Mg133 Mg146 3.196774 1_455
Mg133 Mg139 3.202067 1_555
Mg133 Mg134 3.210116 1_555
Mg134 Mg5 3.162784 1_556
Mg134 Mg7 3.190727 1_556
Mg134 Mg145 3.196758 1_555
Mg134 Mg139 3.202077 1_555
Mg135 Mg17 3.162792 1_556
Mg135 Mg21 3.190728 1_556
Mg135 Mg147 3.196767 1_555
Mg135 Mg141 3.202059 1_555
Mg135 Mg137 3.210117 1_555
Mg136 Mg18 3.162784 1_456
Mg136 Mg20 3.190727 1_556
Mg136 Mg148 3.196774 1_455
Mg136 Mg140 3.202067 1_555
Mg136 Mg138 3.210108 1_555
Mg137 Mg21 3.190719 1_556
Mg137 Mg22 3.195270 1_556
Mg137 Mg144 3.196767 1_565
Mg137 Mg141 3.202059 1_555
Mg137 Mg99 3.208843 1_565
Mg138 Mg20 3.190727 1_556
Mg138 Mg23 3.195270 1_556
Mg138 Mg143 3.196766 1_565
Mg138 Mg140 3.202061 1_555
Mg139 Mg15 3.189962 1_556
Mg139 Mg16 3.189962 1_556
Mg139 Mg7 3.193787 1_556
Mg139 Mg141 3.199434 1_555
Mg139 Mg140 3.199436 1_555
Mg140 Mg16 3.189954 1_556
Mg140 Mg19 3.189962 1_556
Mg140 Mg20 3.193780 1_556
Mg140 Mg141 3.199434 1_555
Mg141 Mg19 3.189954 1_556
Mg141 Mg15 3.189962 1_556
Mg141 Mg21 3.193787 1_556
Mg142 Mg8 3.187764 1_556
Mg142 Mg4 3.187765 1_556
Mg142 Mg9 3.187773 1_556
Mg142 Mg146 3.198606 1_555
Mg142 Mg144 3.198608 1_555
Mg142 Mg148 3.198615 1_555
Mg142 Mg143 3.198615 1_555
Mg142 Mg145 3.198623 1_555
Mg142 Mg147 3.198624 1_555
Mg143 Mg3 3.186908 1_556
Mg143 Mg4 3.188797 1_556
Mg143 Mg23 3.190145 1_546
Mg143 Mg144 3.196027 1_555
Mg143 Mg145 3.201200 1_555
Mg144 Mg2 3.186908 1_556
Mg144 Mg4 3.188789 1_556
Mg144 Mg22 3.190145 1_546
Mg144 Mg146 3.201199 1_555
Mg145 Mg3 3.186916 1_556
Mg145 Mg9 3.188797 1_556
Mg145 Mg147 3.196027 1_555
Mg146 Mg2 3.186916 1_556
Mg146 Mg8 3.188797 1_556
Mg146 Mg148 3.196028 1_555
Mg147 Mg9 3.188789 1_556
Mg147 Mg148 3.201199 1_555
Mg148 Mg8 3.188789 1_556
Bi0 Mg126 3.252284 1_544
Bi0 Mg48 3.252284 1_545
Bi0 Mg47 3.252292 1_445
Bi0 Mg125 3.252292 1_444
Bi0 Mg46 3.252292 1_555
Bi0 Mg124 3.252292 1_554
Bi0 Mg1 3.264370 1_555
Bi0 Mg5 3.264370 1_555
Bi0 Mg0 3.264370 1_455
Bi0 Mg17 3.264370 1_445
Bi0 Mg6 3.264372 1_455
Bi0 Mg18 3.264372 1_445
