# generated using pymatgen
data_SrCa7Mn8O21
_symmetry_space_group_name_H-M   'P 1'
_cell_length_a   7.80388097
_cell_length_b   7.71154597
_cell_length_c   7.67006361
_cell_angle_alpha   90.06219531
_cell_angle_beta   86.54924678
_cell_angle_gamma   90.00162062
_symmetry_Int_Tables_number   1
_chemical_formula_structural   SrCa7Mn8O21
_chemical_formula_sum   'Sr1 Ca7 Mn8 O21'
_cell_volume   460.74715782
_cell_formula_units_Z   1
loop_
 _symmetry_equiv_pos_site_id
 _symmetry_equiv_pos_as_xyz
  1  'x, y, z'
loop_
 _atom_site_type_symbol
 _atom_site_label
 _atom_site_symmetry_multiplicity
 _atom_site_fract_x
 _atom_site_fract_y
 _atom_site_fract_z
 _atom_site_occupancy
  Sr  Sr0  1  0.24429100  0.24441200  0.24724000  1
  Ca  Ca0  1  0.27607600  0.26310600  0.73115600  1
  Ca  Ca1  1  0.23889700  0.73182200  0.23416100  1
  Ca  Ca2  1  0.27775100  0.73760100  0.70902900  1
  Ca  Ca3  1  0.76806600  0.25524500  0.28161100  1
  Ca  Ca4  1  0.74893200  0.26917800  0.74867100  1
  Ca  Ca5  1  0.73804700  0.73589000  0.24604700  1
  Ca  Ca6  1  0.75939000  0.74725500  0.74451800  1
  Mn  Mn0  1  0.01144200  0.99458000  0.97987800  1
  Mn  Mn1  1  0.99907000  0.99936100  0.52318700  1
  Mn  Mn2  1  0.98934200  0.49713000  0.00983200  1
  Mn  Mn3  1  0.00334200  0.50230300  0.50435000  1
  Mn  Mn4  1  0.48928500  0.99700700  0.99210600  1
  Mn  Mn5  1  0.51227100  0.99885700  0.48267500  1
  Mn  Mn6  1  0.50094000  0.50349800  0.98606900  1
  Mn  Mn7  1  0.51167600  0.50373800  0.50104800  1
  O  O0  1  0.89237900  0.01099100  0.77506600  1
  O  O1  1  0.03548400  0.50611100  0.25583000  1
  O  O2  1  0.95596300  0.49404700  0.76027700  1
  O  O3  1  0.53509500  0.05963200  0.23182200  1
  O  O4  1  0.50644000  0.94383500  0.73838100  1
  O  O5  1  0.52612900  0.54958000  0.74390400  1
  O  O6  1  0.23290900  0.97342100  0.06429700  1
  O  O7  1  0.24988200  0.03547300  0.52248800  1
  O  O8  1  0.25618300  0.52318900  0.98108000  1
  O  O9  1  0.26148100  0.47091700  0.51608000  1
  O  O10  1  0.77098500  0.96389600  0.44278100  1
  O  O11  1  0.72054400  0.46783700  0.07221500  1
  O  O12  1  0.75421600  0.53308200  0.46964700  1
  O  O13  1  0.99196200  0.23297900  0.03930400  1
  O  O14  1  0.97146700  0.24833800  0.49393400  1
  O  O15  1  0.95048800  0.75807400  0.02015600  1
  O  O16  1  0.04799900  0.75255000  0.51500900  1
  O  O17  1  0.48205400  0.24828900  0.94014700  1
  O  O18  1  0.54259200  0.25472600  0.52533600  1
  O  O19  1  0.52898000  0.75014300  0.03989600  1
  O  O20  1  0.46795200  0.74190400  0.43077500  1
loop_
_geom_bond_atom_site_label_1
_geom_bond_atom_site_label_2
_geom_bond_distance
_geom_bond_site_symmetry_2
Ca0 O9 2.308857 1_555
Ca0 O17 2.340298 1_555
Ca0 O7 2.391250 1_555
Ca0 O18 2.535086 1_555
Ca0 O8 2.770772 1_555
Ca1 O6 2.276708 1_555
Ca1 O1 2.354958 1_555
Ca1 O20 2.408256 1_555
Ca1 O8 2.517233 1_554
Ca1 O16 2.549134 1_555
Ca1 O19 2.638027 1_555
Ca1 O15 2.871665 1_455
Ca1 O9 2.968193 1_555
Ca2 O16 2.400864 1_555
Ca2 O4 2.410902 1_555
Ca2 O5 2.448332 1_555
Ca2 O20 2.525468 1_555
Ca2 O9 2.540019 1_555
Ca2 O8 2.661112 1_555
Ca2 O7 2.723144 1_565
Ca3 O11 2.341401 1_555
Ca3 O14 2.342201 1_555
Ca3 O3 2.410171 1_555
Ca3 O13 2.478883 1_555
Ca3 O18 2.488927 1_555
Ca3 O10 2.566317 1_545
Ca3 O12 2.580084 1_555
Ca3 O1 2.843890 1_655
Ca4 O0 2.299258 1_555
Ca4 O2 2.375313 1_555
Ca4 O18 2.423079 1_555
Ca4 O17 2.480462 1_555
Ca4 O14 2.539710 1_555
Ca4 O11 2.912034 1_556
Ca4 O12 2.953363 1_555
Ca5 O15 2.331206 1_555
Ca5 O12 2.331331 1_555
Ca5 O10 2.339976 1_555
Ca5 O19 2.342027 1_555
Ca5 O11 2.466818 1_555
Ca5 O20 2.468362 1_555
Ca5 O1 2.924847 1_655
Ca6 O0 2.301413 1_565
Ca6 O5 2.374501 1_555
Ca6 O2 2.490705 1_555
Ca6 O4 2.491672 1_555
Ca6 O15 2.660787 1_556
Ca6 O12 2.678983 1_555
Ca6 O16 2.774181 1_655
Ca6 O19 2.806408 1_556
Ca6 O10 2.852818 1_555
Mn0 O0 1.877042 1_465
Mn0 O6 1.888880 1_556
Mn0 O13 1.897505 1_466
Mn0 O15 1.905660 1_456
Mn1 O10 1.937810 1_555
Mn1 O16 1.941433 1_655
Mn1 O14 1.946770 1_565
Mn1 O7 1.976699 1_665
Mn1 O0 2.059031 1_565
Mn2 O1 1.943207 1_655
Mn2 O2 1.947339 1_554
Mn2 O15 2.035751 1_555
Mn2 O13 2.049999 1_555
Mn2 O8 2.090497 1_654
Mn2 O11 2.135314 1_555
Mn3 O1 1.907827 1_555
Mn3 O16 1.963486 1_555
Mn3 O14 1.976325 1_455
Mn3 O2 1.976597 1_455
Mn3 O12 1.992326 1_455
Mn3 O9 2.036350 1_555
Mn4 O3 1.954176 1_566
Mn4 O19 1.967136 1_556
Mn4 O17 1.980243 1_565
Mn4 O4 1.984998 1_555
Mn4 O6 2.051688 1_556
Mn5 O3 1.978402 1_565
Mn5 O4 2.004942 1_555
Mn5 O18 2.015999 1_565
Mn5 O10 2.041580 1_555
Mn5 O20 2.054086 1_555
Mn5 O7 2.071336 1_565
Mn6 O5 1.890083 1_555
Mn6 O11 1.893656 1_556
Mn6 O8 1.918765 1_555
Mn6 O19 1.960902 1_556
Mn6 O17 2.005930 1_555
Mn7 O5 1.905592 1_555
Mn7 O12 1.907078 1_555
Mn7 O18 1.945907 1_555
Mn7 O20 1.950506 1_555
Mn7 O9 1.965328 1_555
O1 Sr0 2.592170 1_555
O3 Sr0 2.676214 1_555
O6 Sr0 2.520424 1_565
O7 Sr0 2.659609 1_555
O8 Sr0 2.963873 1_556
O9 Sr0 2.710417 1_555
O13 Sr0 2.608966 1_655
O14 Sr0 2.762083 1_655
O17 Sr0 2.909592 1_556
