# generated using pymatgen
data_MgFe8(O7F)2
_symmetry_space_group_name_H-M   'P 1'
_cell_length_a   4.57803390
_cell_length_b   4.52947535
_cell_length_c   13.47430713
_cell_angle_alpha   86.88941143
_cell_angle_beta   84.64797078
_cell_angle_gamma   90.18756057
_symmetry_Int_Tables_number   1
_chemical_formula_structural   MgFe8(O7F)2
_chemical_formula_sum   'Mg1 Fe8 O14 F2'
_cell_volume   277.76675312
_cell_formula_units_Z   1
loop_
 _symmetry_equiv_pos_site_id
 _symmetry_equiv_pos_as_xyz
  1  'x, y, z'
loop_
 _atom_site_type_symbol
 _atom_site_label
 _atom_site_symmetry_multiplicity
 _atom_site_fract_x
 _atom_site_fract_y
 _atom_site_fract_z
 _atom_site_occupancy
  Mg  Mg0  1  0.21954400  0.74606700  0.75494700  1
  Fe  Fe0  1  0.09601000  0.00499600  0.02800400  1
  Fe  Fe1  1  0.01947000  0.98119400  0.25382800  1
  Fe  Fe2  1  0.98343600  0.95314100  0.48669800  1
  Fe  Fe3  1  0.79591500  0.17130800  0.73525100  1
  Fe  Fe4  1  0.54931500  0.49080600  0.13715600  1
  Fe  Fe5  1  0.38262900  0.40072800  0.58742600  1
  Fe  Fe6  1  0.58431100  0.60840900  0.91821500  1
  Fe  Fe7  1  0.49511400  0.46343700  0.35700200  1
  O  O0  1  0.24520900  0.79744300  0.14269800  1
  O  O1  1  0.17399600  0.75707700  0.60281400  1
  O  O2  1  0.24256900  0.83097700  0.90244800  1
  O  O3  1  0.18816900  0.76686000  0.36560800  1
  O  O4  1  0.37476100  0.32770000  0.02040200  1
  O  O5  1  0.33023100  0.27737000  0.24726500  1
  O  O6  1  0.27587700  0.26116200  0.46834600  1
  O  O7  1  0.24019800  0.26662600  0.72786300  1
  O  O8  1  0.76791900  0.73008100  0.02823300  1
  O  O9  1  0.71699700  0.67631400  0.25052700  1
  O  O10  1  0.72515500  0.74347300  0.77281900  1
  O  O11  1  0.86260300  0.19476600  0.13729400  1
  O  O12  1  0.80077700  0.16055300  0.36545300  1
  O  O13  1  0.74862700  0.18458100  0.59924700  1
  F  F0  1  0.66411200  0.65792300  0.48205700  1
  F  F1  1  0.79483000  0.24145900  0.87840100  1
loop_
_geom_bond_atom_site_label_1
_geom_bond_atom_site_label_2
_geom_bond_distance
_geom_bond_site_symmetry_2
Mg0 O2 2.056903 1_555
Mg0 O1 2.077671 1_555
Mg0 O7 2.222375 1_555
Mg0 O10 2.253582 1_455
Mg0 O10 2.349434 1_555
Mg0 O7 2.366504 1_565
Fe0 O4 1.929421 1_555
Fe0 O0 1.944767 1_545
Fe0 O8 1.947587 1_445
Fe0 O2 1.967233 1_544
Fe0 O11 1.974599 1_455
Fe1 O12 1.944636 1_465
Fe1 O5 1.944907 1_565
Fe1 O9 1.957577 1_455
Fe1 O0 1.963448 1_555
Fe1 O3 1.967406 1_555
Fe1 O11 1.991774 1_465
Fe2 O6 1.920579 1_665
Fe2 O1 2.026463 1_655
Fe2 O3 2.030231 1_655
Fe2 O12 2.084284 1_565
Fe2 O13 2.104783 1_565
Fe3 O13 1.863033 1_555
Fe3 O10 1.993828 1_545
Fe3 O7 2.070036 1_655
Fe3 O7 2.592004 1_555
Fe3 O10 2.682329 1_555
Fe4 O5 1.924099 1_555
Fe4 O11 1.966699 1_555
Fe4 O8 1.968871 1_555
Fe4 O0 1.969110 1_555
Fe4 O9 1.995672 1_555
Fe4 O4 2.004013 1_555
Fe5 O6 1.862068 1_555
Fe5 O1 1.889436 1_555
Fe5 O13 1.958303 1_555
Fe5 O7 2.004340 1_555
Fe6 O8 1.877741 1_556
Fe6 O2 1.886319 1_555
Fe6 O4 1.997095 1_556
Fe6 O10 2.063933 1_555
Fe7 O9 1.895109 1_555
Fe7 O6 1.913513 1_555
Fe7 O5 1.950823 1_555
Fe7 O3 1.968862 1_555
Fe7 O12 1.969409 1_555
F0 Fe2 1.985543 1_555
F0 Fe5 2.121990 1_555
F0 Fe7 2.147965 1_555
F1 Fe3 1.971339 1_555
F1 Fe6 1.997495 1_555
