# generated using pymatgen
data_Li2V3TeO8
_symmetry_space_group_name_H-M   'P 1'
_cell_length_a   6.02953327
_cell_length_b   6.06822022
_cell_length_c   9.95673818
_cell_angle_alpha   89.87440174
_cell_angle_beta   90.05324239
_cell_angle_gamma   120.21342036
_symmetry_Int_Tables_number   1
_chemical_formula_structural   Li2V3TeO8
_chemical_formula_sum   'Li4 V6 Te2 O16'
_cell_volume   314.81375113
_cell_formula_units_Z   2
loop_
 _symmetry_equiv_pos_site_id
 _symmetry_equiv_pos_as_xyz
  1  'x, y, z'
loop_
 _atom_site_type_symbol
 _atom_site_label
 _atom_site_symmetry_multiplicity
 _atom_site_fract_x
 _atom_site_fract_y
 _atom_site_fract_z
 _atom_site_occupancy
  Li  Li0  1  0.33520400  0.66687800  0.90437200  1
  Li  Li1  1  0.66468400  0.33174200  0.40428900  1
  Li  Li2  1  0.00004600  0.00069500  0.99016100  1
  Li  Li3  1  0.00016200  0.00088200  0.49015300  1
  V  V0  1  0.66150000  0.83108100  0.21199900  1
  V  V1  1  0.83315700  0.65733500  0.71836300  1
  V  V2  1  0.82906800  0.17143000  0.71679600  1
  V  V3  1  0.16687900  0.82413600  0.21839200  1
  V  V4  1  0.17093500  0.34234700  0.21675200  1
  V  V5  1  0.33838000  0.16948100  0.71217800  1
  Te  Te0  1  0.34020500  0.67195800  0.49197600  1
  Te  Te1  1  0.66004300  0.33179200  0.99181500  1
  O  O0  1  0.32771900  0.66573800  0.10895400  1
  O  O1  1  0.67194100  0.33788100  0.60904400  1
  O  O2  1  0.00622900  0.00280100  0.30682900  1
  O  O3  1  0.99380100  0.99660400  0.80693600  1
  O  O4  1  0.16770400  0.85013000  0.59602300  1
  O  O5  1  0.15466300  0.31502900  0.59804000  1
  O  O6  1  0.32246100  0.15483600  0.09539500  1
  O  O7  1  0.67758900  0.83238100  0.59541300  1
  O  O8  1  0.83245900  0.68237500  0.09594700  1
  O  O9  1  0.84502200  0.15990500  0.09800500  1
  O  O10  1  0.02799700  0.52374400  0.33368600  1
  O  O11  1  0.48968700  0.96563900  0.34238700  1
  O  O12  1  0.47613100  0.50913900  0.33862100  1
  O  O13  1  0.51008600  0.47556600  0.84255900  1
  O  O14  1  0.52440700  0.03305100  0.83887100  1
  O  O15  1  0.97184000  0.49572400  0.83387900  1
loop_
_geom_bond_atom_site_label_1
_geom_bond_atom_site_label_2
_geom_bond_distance
_geom_bond_site_symmetry_2
Li0 O13 2.018608 1_555
Li0 O15 2.020303 1_455
Li0 O14 2.026805 1_565
Li0 O0 2.037431 1_556
Li1 O11 2.018482 1_545
Li1 O10 2.020134 1_655
Li1 O12 2.026350 1_555
Li1 O1 2.039140 1_555
Li2 O3 1.824642 1_445
Li2 O9 1.968598 1_456
Li2 O8 1.972382 1_446
Li2 O6 1.980500 1_556
Li3 O2 1.825604 1_555
Li3 O5 1.968647 1_555
Li3 O4 1.972917 1_545
Li3 O7 1.980995 1_445
O0 V3 1.999108 1_555
O0 V4 2.005561 1_555
O0 V0 2.019425 1_555
O1 V1 1.999570 1_555
O1 V2 2.006311 1_555
O1 V5 2.018535 1_555
O2 V3 1.987912 1_545
O2 V4 1.992532 1_555
O2 V0 2.029413 1_445
O3 V1 1.988423 1_555
O3 V2 1.993049 1_565
O3 V5 2.028051 1_665
O4 V5 2.037768 1_565
O4 Te0 2.112513 1_555
O4 V1 2.131815 1_455
O5 V5 2.067985 1_555
O5 V2 2.071138 1_455
O5 Te0 2.147439 1_555
O6 Te1 2.039375 1_554
O6 V3 2.122162 1_545
O6 V4 2.154957 1_555
O7 Te0 2.038140 1_555
O7 V1 2.121726 1_555
O7 V2 2.155332 1_565
O8 V0 2.038377 1_555
O8 Te1 2.112676 1_554
O8 V3 2.132245 1_655
O9 V0 2.065046 1_545
O9 V4 2.072932 1_655
O9 Te1 2.147939 1_554
O10 V3 1.948877 1_555
O10 V4 2.066951 1_555
O10 Te0 2.265667 1_555
O11 V0 2.069739 1_555
O11 V3 2.089983 1_555
O11 Te0 2.140314 1_555
O12 V4 2.002450 1_555
O12 V0 2.109390 1_555
O12 Te0 2.191635 1_555
O13 V5 2.068748 1_555
O13 V1 2.091980 1_555
O13 Te1 2.138445 1_555
O14 V2 2.001032 1_555
O14 V5 2.112379 1_555
O14 Te1 2.189024 1_555
O15 V1 1.949987 1_555
O15 V2 2.067818 1_555
O15 Te1 2.261239 1_555
