# generated using pymatgen
data_NaZnBr3O5
_symmetry_space_group_name_H-M   'P 1'
_cell_length_a   7.21669436
_cell_length_b   7.21669436
_cell_length_c   7.21669345
_cell_angle_alpha   53.30203719
_cell_angle_beta   53.30203719
_cell_angle_gamma   53.30203571
_symmetry_Int_Tables_number   1
_chemical_formula_structural   NaZnBr3O5
_chemical_formula_sum   'Na1 Zn1 Br3 O5'
_cell_volume   224.08503715
_cell_formula_units_Z   1
loop_
 _symmetry_equiv_pos_site_id
 _symmetry_equiv_pos_as_xyz
  1  'x, y, z'
loop_
 _atom_site_type_symbol
 _atom_site_label
 _atom_site_symmetry_multiplicity
 _atom_site_fract_x
 _atom_site_fract_y
 _atom_site_fract_z
 _atom_site_occupancy
  Na  Na0  1  0.44883200  0.44883200  0.44883200  1
  Zn  Zn0  1  0.98841200  0.98841200  0.98841200  1
  Br  Br0  1  0.61319200  0.33480000  0.97800700  1
  Br  Br1  1  0.97800700  0.61319200  0.33480000  1
  Br  Br2  1  0.33480000  0.97800700  0.61319200  1
  O  O0  1  0.93881600  0.11670000  0.35605500  1
  O  O1  1  0.35605500  0.93881600  0.11670000  1
  O  O2  1  0.11670000  0.35605500  0.93881600  1
  O  O3  1  0.15368000  0.15368000  0.15368000  1
  O  O4  1  0.71240700  0.71240700  0.71240700  1
loop_
_geom_bond_atom_site_label_1
_geom_bond_atom_site_label_2
_geom_bond_distance
_geom_bond_site_symmetry_2
Na0 O2 2.766874 1_555
Na0 O1 2.766874 1_555
Na0 O0 2.766874 1_555
Br0 Zn0 2.348479 1_545
Br0 O4 2.462015 1_555
Br0 Na0 3.314750 1_556
Br1 Zn0 2.348479 1_554
Br1 O4 2.462015 1_555
Br1 Na0 3.314750 1_655
Br2 Zn0 2.348479 1_455
Br2 O4 2.462015 1_555
Br2 Na0 3.314750 1_565
O0 O3 1.389490 1_655
O1 O3 1.389490 1_565
O2 O3 1.389490 1_556
