# generated using pymatgen
data_Al7Si3BO18
_symmetry_space_group_name_H-M   'P 1'
_cell_length_a   4.79773400
_cell_length_b   11.85026200
_cell_length_c   20.27312200
_cell_angle_alpha   90.00000000
_cell_angle_beta   90.00000000
_cell_angle_gamma   90.00000000
_symmetry_Int_Tables_number   1
_chemical_formula_structural   Al7Si3BO18
_chemical_formula_sum   'Al28 Si12 B4 O72'
_cell_volume   1152.61628690
_cell_formula_units_Z   4
loop_
 _symmetry_equiv_pos_site_id
 _symmetry_equiv_pos_as_xyz
  1  'x, y, z'
loop_
 _atom_site_type_symbol
 _atom_site_label
 _atom_site_symmetry_multiplicity
 _atom_site_fract_x
 _atom_site_fract_y
 _atom_site_fract_z
 _atom_site_occupancy
  Al  Al0  1  0.88960800  0.25000000  0.24962400  1
  Al  Al1  1  0.38960800  0.25000000  0.25037600  1
  Al  Al2  1  0.11039200  0.75000000  0.75037600  1
  Al  Al3  1  0.61039200  0.75000000  0.74962400  1
  Al  Al4  1  0.05881600  0.38988500  0.47220700  1
  Al  Al5  1  0.55881600  0.11011500  0.02779300  1
  Al  Al6  1  0.94118400  0.88988500  0.52779300  1
  Al  Al7  1  0.44118400  0.61011500  0.97220700  1
  Al  Al8  1  0.94118400  0.61011500  0.52779300  1
  Al  Al9  1  0.44118400  0.88988500  0.97220700  1
  Al  Al10  1  0.05881600  0.11011500  0.47220700  1
  Al  Al11  1  0.55881600  0.38988500  0.02779300  1
  Al  Al12  1  0.55975400  0.50862500  0.43061600  1
  Al  Al13  1  0.05975400  0.99137500  0.06938400  1
  Al  Al14  1  0.44024600  0.00862500  0.56938400  1
  Al  Al15  1  0.94024600  0.49137500  0.93061600  1
  Al  Al16  1  0.44024600  0.49137500  0.56938400  1
  Al  Al17  1  0.94024600  0.00862500  0.93061600  1
  Al  Al18  1  0.55975400  0.99137500  0.43061600  1
  Al  Al19  1  0.05975400  0.50862500  0.06938400  1
  Al  Al20  1  0.55408200  0.64353800  0.28705700  1
  Al  Al21  1  0.05408200  0.85646200  0.21294300  1
  Al  Al22  1  0.44591800  0.14353800  0.71294300  1
  Al  Al23  1  0.94591800  0.35646200  0.78705700  1
  Al  Al24  1  0.44591800  0.35646200  0.71294300  1
  Al  Al25  1  0.94591800  0.14353800  0.78705700  1
  Al  Al26  1  0.55408200  0.85646200  0.28705700  1
  Al  Al27  1  0.05408200  0.64353800  0.21294300  1
  Si  Si0  1  0.58903600  0.25000000  0.40374200  1
  Si  Si1  1  0.08903600  0.25000000  0.09625800  1
  Si  Si2  1  0.41096400  0.75000000  0.59625800  1
  Si  Si3  1  0.91096400  0.75000000  0.90374200  1
  Si  Si4  1  0.08698700  0.47449800  0.32753900  1
  Si  Si5  1  0.58698700  0.02550200  0.17246100  1
  Si  Si6  1  0.91301300  0.97449800  0.67246100  1
  Si  Si7  1  0.41301300  0.52550200  0.82753900  1
  Si  Si8  1  0.91301300  0.52550200  0.67246100  1
  Si  Si9  1  0.41301300  0.97449800  0.82753900  1
  Si  Si10  1  0.08698700  0.02550200  0.32753900  1
  Si  Si11  1  0.58698700  0.47449800  0.17246100  1
  B  B0  1  0.72262500  0.75000000  0.41607000  1
  B  B1  1  0.22262500  0.75000000  0.08393000  1
  B  B2  1  0.27737500  0.25000000  0.58393000  1
  B  B3  1  0.77737500  0.25000000  0.91607000  1
  O  O0  1  0.64266100  0.25000000  0.32303500  1
  O  O1  1  0.14266100  0.25000000  0.17696500  1
  O  O2  1  0.35733900  0.75000000  0.67696500  1
  O  O3  1  0.85733900  0.75000000  0.82303500  1
  O  O4  1  0.14017600  0.35711500  0.28578100  1
  O  O5  1  0.64017600  0.14288500  0.21421900  1
  O  O6  1  0.85982400  0.85711500  0.71421900  1
  O  O7  1  0.35982400  0.64288500  0.78578100  1
  O  O8  1  0.85982400  0.64288500  0.71421900  1
  O  O9  1  0.35982400  0.85711500  0.78578100  1
  O  O10  1  0.14017600  0.14288500  0.28578100  1
  O  O11  1  0.64017600  0.35711500  0.21421900  1
  O  O12  1  0.39778900  0.36038400  0.42360100  1
  O  O13  1  0.89778900  0.13961600  0.07639900  1
  O  O14  1  0.60221100  0.86038400  0.57639900  1
  O  O15  1  0.10221100  0.63961600  0.92360100  1
  O  O16  1  0.60221100  0.63961600  0.57639900  1
  O  O17  1  0.10221100  0.86038400  0.92360100  1
  O  O18  1  0.39778900  0.13961600  0.42360100  1
  O  O19  1  0.89778900  0.36038400  0.07639900  1
  O  O20  1  0.89664500  0.44861600  0.39297300  1
  O  O21  1  0.39664500  0.05138400  0.10702700  1
  O  O22  1  0.10335500  0.94861600  0.60702700  1
  O  O23  1  0.60335500  0.55138400  0.89297300  1
  O  O24  1  0.10335500  0.55138400  0.60702700  1
  O  O25  1  0.60335500  0.94861600  0.89297300  1
  O  O26  1  0.89664500  0.05138400  0.39297300  1
  O  O27  1  0.39664500  0.44861600  0.10702700  1
  O  O28  1  0.89611900  0.56168800  0.28278900  1
  O  O29  1  0.39611900  0.93831200  0.21721100  1
  O  O30  1  0.10388100  0.06168800  0.71721100  1
  O  O31  1  0.60388100  0.43831200  0.78278900  1
  O  O32  1  0.10388100  0.43831200  0.71721100  1
  O  O33  1  0.60388100  0.06168800  0.78278900  1
  O  O34  1  0.89611900  0.93831200  0.28278900  1
  O  O35  1  0.39611900  0.56168800  0.21721100  1
  O  O36  1  0.87754400  0.25000000  0.45231400  1
  O  O37  1  0.37754400  0.25000000  0.04768600  1
  O  O38  1  0.12245600  0.75000000  0.54768600  1
  O  O39  1  0.62245600  0.75000000  0.95231400  1
  O  O40  1  0.37906500  0.54343900  0.34890100  1
  O  O41  1  0.87906500  0.95656100  0.15109900  1
  O  O42  1  0.62093500  0.04343900  0.65109900  1
  O  O43  1  0.12093500  0.45656100  0.84890100  1
  O  O44  1  0.62093500  0.45656100  0.65109900  1
  O  O45  1  0.12093500  0.04343900  0.84890100  1
  O  O46  1  0.37906500  0.95656100  0.34890100  1
  O  O47  1  0.87906500  0.54343900  0.15109900  1
  O  O48  1  0.26098400  0.75000000  0.27071300  1
  O  O49  1  0.76098400  0.75000000  0.22928700  1
  O  O50  1  0.73901600  0.25000000  0.72928700  1
  O  O51  1  0.23901600  0.25000000  0.77071300  1
  O  O52  1  0.64966300  0.75000000  0.35143100  1
  O  O53  1  0.14966300  0.75000000  0.14856900  1
  O  O54  1  0.35033700  0.25000000  0.64856900  1
  O  O55  1  0.85033700  0.25000000  0.85143100  1
  O  O56  1  0.75560600  0.64860500  0.44811200  1
  O  O57  1  0.25560600  0.85139500  0.05188800  1
  O  O58  1  0.24439400  0.14860500  0.55188800  1
  O  O59  1  0.74439400  0.35139500  0.94811200  1
  O  O60  1  0.24439400  0.35139500  0.55188800  1
  O  O61  1  0.74439400  0.14860500  0.94811200  1
  O  O62  1  0.75560600  0.85139500  0.44811200  1
  O  O63  1  0.25560600  0.64860500  0.05188800  1
  O  O64  1  0.25040800  0.53378500  0.48793800  1
  O  O65  1  0.75040800  0.96621500  0.01206200  1
  O  O66  1  0.74959200  0.03378500  0.51206200  1
  O  O67  1  0.24959200  0.46621500  0.98793800  1
  O  O68  1  0.74959200  0.46621500  0.51206200  1
  O  O69  1  0.24959200  0.03378500  0.98793800  1
  O  O70  1  0.25040800  0.96621500  0.48793800  1
  O  O71  1  0.75040800  0.53378500  0.01206200  1
loop_
_geom_bond_atom_site_label_1
_geom_bond_atom_site_label_2
_geom_bond_distance
_geom_bond_site_symmetry_2
Al0 O11 1.886407 1_555
Al0 O5 1.886407 1_555
Al0 O4 1.895712 1_655
Al0 O10 1.895712 1_655
Al0 O0 1.902279 1_555
Al0 O1 1.908873 1_655
Al1 O4 1.886407 1_555
Al1 O10 1.886407 1_555
Al1 O11 1.895712 1_555
Al1 O5 1.895712 1_555
Al1 O1 1.902279 1_555
Al1 O0 1.908873 1_555
Al2 O9 1.886407 1_555
Al2 O7 1.886407 1_555
Al2 O6 1.895712 1_455
Al2 O8 1.895712 1_455
Al2 O2 1.902279 1_555
Al2 O3 1.908873 1_455
Al3 O6 1.886407 1_555
Al3 O8 1.886407 1_555
Al3 O9 1.895712 1_555
Al3 O7 1.895712 1_555
Al3 O3 1.902279 1_555
Al3 O2 1.908873 1_555
Al4 O60 1.900061 1_555
Al4 O36 1.914914 1_455
Al4 O20 1.915729 1_455
Al4 O68 1.916249 1_455
Al4 O12 1.933411 1_555
Al4 O64 1.963297 1_555
Al5 O61 1.900061 1_554
Al5 O37 1.914914 1_555
Al5 O21 1.915729 1_555
Al5 O69 1.916249 1_554
Al5 O13 1.933411 1_555
Al5 O65 1.963297 1_545
Al6 O62 1.900061 1_555
Al6 O38 1.914914 1_655
Al6 O22 1.915729 1_655
Al6 O70 1.916249 1_655
Al6 O14 1.933411 1_555
Al6 O66 1.963297 1_565
Al7 O63 1.900061 1_556
Al7 O39 1.914914 1_555
Al7 O23 1.915729 1_555
Al7 O71 1.916249 1_556
Al7 O15 1.933411 1_555
Al7 O67 1.963297 1_555
Al8 O56 1.900061 1_555
Al8 O38 1.914914 1_655
Al8 O24 1.915729 1_655
Al8 O64 1.916249 1_655
Al8 O16 1.933411 1_555
Al8 O68 1.963297 1_555
Al9 O57 1.900061 1_556
Al9 O39 1.914914 1_555
Al9 O25 1.915729 1_555
Al9 O65 1.916249 1_556
Al9 O17 1.933411 1_555
Al9 O69 1.963297 1_565
Al10 O58 1.900061 1_555
Al10 O36 1.914914 1_455
Al10 O26 1.915729 1_455
Al10 O66 1.916249 1_455
Al10 O18 1.933411 1_555
Al10 O70 1.963297 1_545
Al11 O59 1.900061 1_554
Al11 O37 1.914914 1_555
Al11 O27 1.915729 1_555
Al11 O67 1.916249 1_554
Al11 O19 1.933411 1_555
Al11 O71 1.963297 1_555
Al12 O64 1.908427 1_555
Al12 O40 1.914705 1_555
Al12 O20 1.923681 1_555
Al12 O12 1.926144 1_555
Al12 O56 1.939165 1_555
Al12 O68 1.951529 1_555
Al13 O65 1.908427 1_455
Al13 O41 1.914705 1_455
Al13 O21 1.923681 1_565
Al13 O13 1.926144 1_465
Al13 O57 1.939165 1_555
Al13 O69 1.951529 1_564
Al14 O66 1.908427 1_555
Al14 O42 1.914705 1_555
Al14 O22 1.923681 1_545
Al14 O14 1.926144 1_545
Al14 O58 1.939165 1_555
Al14 O70 1.951529 1_545
Al15 O67 1.908427 1_655
Al15 O43 1.914705 1_655
Al15 O23 1.923681 1_555
Al15 O15 1.926144 1_655
Al15 O59 1.939165 1_555
Al15 O71 1.951529 1_556
Al16 O68 1.908427 1_555
Al16 O44 1.914705 1_555
Al16 O24 1.923681 1_555
Al16 O16 1.926144 1_555
Al16 O60 1.939165 1_555
Al16 O64 1.951529 1_555
Al17 O69 1.908427 1_655
Al17 O45 1.914705 1_655
Al17 O25 1.923681 1_545
Al17 O17 1.926144 1_645
Al17 O61 1.939165 1_555
Al17 O65 1.951529 1_546
Al18 O70 1.908427 1_555
Al18 O46 1.914705 1_555
Al18 O26 1.923681 1_565
Al18 O18 1.926144 1_565
Al18 O62 1.939165 1_555
Al18 O66 1.951529 1_565
Al19 O71 1.908427 1_455
Al19 O47 1.914705 1_455
Al19 O27 1.923681 1_555
Al19 O19 1.926144 1_455
Al19 O63 1.939165 1_555
Al19 O67 1.951529 1_554
Al20 O52 1.872196 1_555
Al20 O35 1.876218 1_555
Al20 O28 1.908184 1_555
Al20 O48 1.918032 1_555
Al20 O40 1.919396 1_555
Al20 O49 1.987127 1_555
Al21 O53 1.872196 1_555
Al21 O34 1.876218 1_455
Al21 O29 1.908184 1_555
Al21 O49 1.918032 1_455
Al21 O41 1.919396 1_455
Al21 O48 1.987127 1_555
Al22 O54 1.872196 1_555
Al22 O33 1.876218 1_555
Al22 O30 1.908184 1_555
Al22 O50 1.918032 1_555
Al22 O42 1.919396 1_555
Al22 O51 1.987127 1_555
Al23 O55 1.872196 1_555
Al23 O32 1.876218 1_655
Al23 O31 1.908184 1_555
Al23 O51 1.918032 1_655
Al23 O43 1.919396 1_655
Al23 O50 1.987127 1_555
Al24 O54 1.872196 1_555
Al24 O31 1.876218 1_555
Al24 O32 1.908184 1_555
Al24 O50 1.918032 1_555
Al24 O44 1.919396 1_555
Al24 O51 1.987127 1_555
Al25 O55 1.872196 1_555
Al25 O30 1.876218 1_655
Al25 O33 1.908184 1_555
Al25 O51 1.918032 1_655
Al25 O45 1.919396 1_655
Al25 O50 1.987127 1_555
Al26 O52 1.872196 1_555
Al26 O29 1.876218 1_555
Al26 O34 1.908184 1_555
Al26 O48 1.918032 1_555
Al26 O46 1.919396 1_555
Al26 O49 1.987127 1_555
Al27 O53 1.872196 1_555
Al27 O28 1.876218 1_455
Al27 O35 1.908184 1_555
Al27 O49 1.918032 1_455
Al27 O47 1.919396 1_455
Al27 O48 1.987127 1_555
B0 O52 1.356383 1_555
B0 O62 1.375044 1_555
B0 O56 1.375044 1_555
B1 O53 1.356383 1_555
B1 O63 1.375044 1_555
B1 O57 1.375044 1_555
B2 O54 1.356383 1_555
B2 O60 1.375044 1_555
B2 O58 1.375044 1_555
B3 O55 1.356383 1_555
B3 O59 1.375044 1_555
B3 O61 1.375044 1_555
O0 Si0 1.656287 1_555
O1 Si1 1.656287 1_555
O2 Si2 1.656287 1_555
O3 Si3 1.656287 1_555
O4 Si4 1.648250 1_555
O5 Si5 1.648250 1_555
O6 Si6 1.648250 1_555
O7 Si7 1.648250 1_555
O8 Si8 1.648250 1_555
O9 Si9 1.648250 1_555
O10 Si10 1.648250 1_555
O11 Si11 1.648250 1_555
O12 Si0 1.647745 1_555
O13 Si1 1.647745 1_655
O14 Si2 1.647745 1_555
O15 Si3 1.647745 1_455
O16 Si2 1.647745 1_555
O17 Si3 1.647745 1_455
O18 Si0 1.647745 1_555
O19 Si1 1.647745 1_655
O20 Si4 1.639440 1_655
O21 Si5 1.639440 1_555
O22 Si6 1.639440 1_455
O23 Si7 1.639440 1_555
O24 Si8 1.639440 1_455
O25 Si9 1.639440 1_555
O26 Si10 1.639440 1_655
O27 Si11 1.639440 1_555
O28 Si4 1.652021 1_655
O29 Si5 1.652021 1_565
O30 Si6 1.652021 1_445
O31 Si7 1.652021 1_555
O32 Si8 1.652021 1_455
O33 Si9 1.652021 1_545
O34 Si10 1.652021 1_665
O35 Si11 1.652021 1_555
O36 Si0 1.698709 1_555
O37 Si1 1.698709 1_555
O38 Si2 1.698709 1_555
O39 Si3 1.698709 1_555
O40 Si4 1.678889 1_555
O41 Si5 1.678889 1_565
O42 Si6 1.678889 1_545
O43 Si7 1.678889 1_555
O44 Si8 1.678889 1_555
O45 Si9 1.678889 1_545
O46 Si10 1.678889 1_565
O47 Si11 1.678889 1_555
