# generated using pymatgen
data_YbTlPd
_symmetry_space_group_name_H-M   'P 1'
_cell_length_a   7.75897709
_cell_length_b   7.75897709
_cell_length_c   3.99248200
_cell_angle_alpha   90.00000000
_cell_angle_beta   90.00000000
_cell_angle_gamma   119.99999221
_symmetry_Int_Tables_number   1
_chemical_formula_structural   YbTlPd
_chemical_formula_sum   'Yb3 Tl3 Pd3'
_cell_volume   208.15295048
_cell_formula_units_Z   3
loop_
 _symmetry_equiv_pos_site_id
 _symmetry_equiv_pos_as_xyz
  1  'x, y, z'
loop_
 _atom_site_type_symbol
 _atom_site_label
 _atom_site_symmetry_multiplicity
 _atom_site_fract_x
 _atom_site_fract_y
 _atom_site_fract_z
 _atom_site_occupancy
  Yb  Yb0  1  0.39995900  0.39995900  0.50000000  1
  Yb  Yb1  1  0.00000000  0.60004100  0.50000000  1
  Yb  Yb2  1  0.60004100  0.00000000  0.50000000  1
  Tl  Tl0  1  0.00000000  0.26673400  0.00000000  1
  Tl  Tl1  1  0.26673400  0.00000000  0.00000000  1
  Tl  Tl2  1  0.73326600  0.73326600  0.00000000  1
  Pd  Pd0  1  0.00000000  0.00000000  0.50000000  1
  Pd  Pd1  1  0.33333300  0.66666700  0.00000000  1
  Pd  Pd2  1  0.66666700  0.33333300  0.00000000  1
loop_
_geom_bond_atom_site_label_1
_geom_bond_atom_site_label_2
_geom_bond_distance
_geom_bond_site_symmetry_2
Tl0 Yb1 3.266956 1_554
Tl0 Yb1 3.266956 1_555
Tl0 Yb0 3.387621 1_554
Tl0 Yb0 3.387621 1_555
Tl0 Yb2 3.387621 1_455
Tl0 Yb2 3.387621 1_454
Tl1 Yb2 3.266956 1_555
Tl1 Yb2 3.266956 1_554
Tl1 Yb0 3.387621 1_554
Tl1 Yb0 3.387621 1_555
Tl1 Yb1 3.387621 1_544
Tl1 Yb1 3.387621 1_545
Tl2 Yb0 3.266956 1_555
Tl2 Yb0 3.266956 1_554
Tl2 Yb1 3.387620 1_654
Tl2 Yb2 3.387620 1_564
Tl2 Yb2 3.387620 1_565
Tl2 Yb1 3.387620 1_655
Pd0 Tl1 2.875439 1_555
Pd0 Tl1 2.875439 1_556
Pd0 Tl0 2.875439 1_555
Pd0 Tl0 2.875439 1_556
Pd0 Tl2 2.875440 1_446
Pd0 Tl2 2.875440 1_445
Pd0 Yb1 3.103273 1_545
Pd0 Yb2 3.103273 1_455
Pd0 Yb0 3.103273 1_555
Pd1 Tl1 2.879678 1_565
Pd1 Tl0 2.879683 1_555
Pd1 Tl2 2.879686 1_555
Pd1 Yb1 3.099078 1_555
Pd1 Yb1 3.099078 1_554
Pd1 Yb2 3.099080 1_565
Pd1 Yb2 3.099080 1_564
Pd1 Yb0 3.099084 1_554
Pd1 Yb0 3.099084 1_555
Pd2 Tl0 2.879678 1_655
Pd2 Tl1 2.879683 1_555
Pd2 Tl2 2.879686 1_555
Pd2 Yb2 3.099078 1_554
Pd2 Yb2 3.099078 1_555
Pd2 Yb1 3.099080 1_655
Pd2 Yb1 3.099080 1_654
Pd2 Yb0 3.099084 1_554
Pd2 Yb0 3.099084 1_555
