# generated using pymatgen
data_Ni10SbP3
_symmetry_space_group_name_H-M   'P 1'
_cell_length_a   7.66158231
_cell_length_b   7.66158231
_cell_length_c   9.64046100
_cell_angle_alpha   90.00000000
_cell_angle_beta   90.00000000
_cell_angle_gamma   120.00000265
_symmetry_Int_Tables_number   1
_chemical_formula_structural   Ni10SbP3
_chemical_formula_sum   'Ni30 Sb3 P9'
_cell_volume   490.07817833
_cell_formula_units_Z   3
loop_
 _symmetry_equiv_pos_site_id
 _symmetry_equiv_pos_as_xyz
  1  'x, y, z'
loop_
 _atom_site_type_symbol
 _atom_site_label
 _atom_site_symmetry_multiplicity
 _atom_site_fract_x
 _atom_site_fract_y
 _atom_site_fract_z
 _atom_site_occupancy
  Ni  Ni0  1  0.33674800  0.00000000  0.50000000  1
  Ni  Ni1  1  0.66325200  0.00000000  0.50000000  1
  Ni  Ni2  1  0.00000000  0.33674800  0.50000000  1
  Ni  Ni3  1  0.00000000  0.66325200  0.50000000  1
  Ni  Ni4  1  0.66325200  0.66325200  0.50000000  1
  Ni  Ni5  1  0.33674800  0.33674800  0.50000000  1
  Ni  Ni6  1  0.00000000  0.00000000  0.38035800  1
  Ni  Ni7  1  0.00000000  0.00000000  0.61964200  1
  Ni  Ni8  1  0.81141900  0.18858100  0.07224800  1
  Ni  Ni9  1  0.18858100  0.81141900  0.92775200  1
  Ni  Ni10  1  0.81141900  0.62283700  0.07224800  1
  Ni  Ni11  1  0.18858100  0.37716300  0.92775200  1
  Ni  Ni12  1  0.37716300  0.18858100  0.07224800  1
  Ni  Ni13  1  0.62283700  0.81141900  0.92775200  1
  Ni  Ni14  1  0.33333300  0.66666700  0.09748100  1
  Ni  Ni15  1  0.66666700  0.33333300  0.90251900  1
  Ni  Ni16  1  0.50820000  0.49180000  0.24039200  1
  Ni  Ni17  1  0.49180000  0.50820000  0.75960800  1
  Ni  Ni18  1  0.50820000  0.01640000  0.24039200  1
  Ni  Ni19  1  0.49180000  0.98360000  0.75960800  1
  Ni  Ni20  1  0.98360000  0.49180000  0.24039200  1
  Ni  Ni21  1  0.01640000  0.50820000  0.75960800  1
  Ni  Ni22  1  0.33333300  0.66666700  0.61173700  1
  Ni  Ni23  1  0.66666700  0.33333300  0.38826300  1
  Ni  Ni24  1  0.13662900  0.86337100  0.19831200  1
  Ni  Ni25  1  0.86337100  0.13662900  0.80168800  1
  Ni  Ni26  1  0.13662900  0.27325900  0.19831200  1
  Ni  Ni27  1  0.86337100  0.72674100  0.80168800  1
  Ni  Ni28  1  0.72674100  0.86337100  0.19831200  1
  Ni  Ni29  1  0.27325900  0.13662900  0.80168800  1
  Sb  Sb0  1  0.33333300  0.66666700  0.36008600  1
  Sb  Sb1  1  0.66666700  0.33333300  0.63991400  1
  Sb  Sb2  1  0.00000000  0.00000000  0.00000000  1
  P  P0  1  0.50000000  0.00000000  0.00000000  1
  P  P1  1  0.00000000  0.50000000  0.00000000  1
  P  P2  1  0.50000000  0.50000000  0.00000000  1
  P  P3  1  0.83536600  0.16463400  0.30918200  1
  P  P4  1  0.16463400  0.83536600  0.69081800  1
  P  P5  1  0.83536600  0.67073100  0.30918200  1
  P  P6  1  0.16463400  0.32926900  0.69081800  1
  P  P7  1  0.32926900  0.16463400  0.30918200  1
  P  P8  1  0.67073100  0.83536600  0.69081800  1
loop_
_geom_bond_atom_site_label_1
_geom_bond_atom_site_label_2
_geom_bond_distance
_geom_bond_site_symmetry_2
Ni0 P7 2.247357 1_555
Ni0 P4 2.247359 1_545
Ni0 Sb0 2.876702 1_545
Ni0 Sb1 2.876705 1_555
Ni1 P8 2.247357 1_545
Ni1 P3 2.247359 1_555
Ni1 Sb1 2.876702 1_555
Ni1 Sb0 2.876705 1_545
Ni2 P6 2.247357 1_555
Ni2 P3 2.247359 1_455
Ni2 Sb1 2.876702 1_455
Ni2 Sb0 2.876705 1_555
Ni3 P5 2.247357 1_455
Ni3 P4 2.247359 1_555
Ni3 Sb0 2.876702 1_555
Ni3 Sb1 2.876705 1_455
Ni4 P5 2.247361 1_555
Ni4 P8 2.247361 1_555
Ni4 Sb0 2.876709 1_555
Ni4 Sb1 2.876709 1_555
Ni5 P7 2.247361 1_555
Ni5 P6 2.247361 1_555
Ni5 Sb1 2.876709 1_555
Ni5 Sb0 2.876709 1_555
Ni6 P3 2.289955 1_455
Ni6 P7 2.289961 1_555
Ni6 P5 2.289961 1_445
Ni7 P4 2.289955 1_545
Ni7 P6 2.289961 1_555
Ni7 P8 2.289961 1_445
Ni8 P1 2.195030 1_655
Ni8 P0 2.195030 1_555
Ni8 P3 2.306153 1_555
Ni8 Sb2 2.597635 1_655
Ni9 P1 2.195030 1_556
Ni9 P0 2.195030 1_566
Ni9 P4 2.306153 1_555
Ni9 Sb2 2.597635 1_566
Ni10 P1 2.195024 1_655
Ni10 P2 2.195031 1_555
Ni10 P5 2.306153 1_555
Ni10 Sb2 2.597642 1_665
Ni11 P1 2.195024 1_556
Ni11 P2 2.195031 1_556
Ni11 P6 2.306153 1_555
Ni11 Sb2 2.597642 1_556
Ni12 P0 2.195024 1_555
Ni12 P2 2.195031 1_555
Ni12 P7 2.306153 1_555
Ni12 Sb2 2.597642 1_555
Ni13 P0 2.195024 1_566
Ni13 P2 2.195031 1_556
Ni13 P8 2.306153 1_555
Ni13 Sb2 2.597642 1_666
Ni14 P0 2.403080 1_565
Ni14 P1 2.403080 1_555
Ni14 P2 2.403087 1_555
Ni14 Sb0 2.531633 1_555
Ni15 P0 2.403080 1_556
Ni15 P1 2.403080 1_656
Ni15 P2 2.403087 1_556
Ni15 Sb1 2.531633 1_555
Ni16 P7 2.272869 1_555
Ni16 P5 2.272869 1_555
Ni16 P2 2.320043 1_555
Ni16 Sb0 2.591592 1_555
Ni17 P6 2.272869 1_555
Ni17 P8 2.272869 1_555
Ni17 P2 2.320043 1_556
Ni17 Sb1 2.591592 1_555
Ni18 P7 2.272863 1_555
Ni18 P3 2.272870 1_555
Ni18 P0 2.320043 1_555
Ni18 Sb0 2.591586 1_545
Ni19 P8 2.272863 1_555
Ni19 P4 2.272870 1_555
Ni19 P0 2.320043 1_566
Ni19 Sb1 2.591586 1_565
Ni20 P5 2.272863 1_555
Ni20 P3 2.272870 1_555
Ni20 P1 2.320043 1_655
Ni20 Sb0 2.591586 1_655
Ni21 P6 2.272863 1_555
Ni21 P4 2.272870 1_555
Ni21 P1 2.320043 1_556
Ni21 Sb1 2.591586 1_455
Ni22 P8 2.364931 1_555
Ni22 P6 2.364931 1_555
Ni22 P4 2.364931 1_555
Ni22 Sb0 2.426032 1_555
Ni23 P5 2.364931 1_555
Ni23 P7 2.364931 1_555
Ni23 P3 2.364931 1_555
Ni23 Sb1 2.426032 1_555
Ni24 P5 2.289470 1_455
Ni24 P7 2.289470 1_565
Ni24 Sb2 2.634841 1_565
Ni24 Sb0 3.040724 1_555
Ni25 P8 2.289470 1_545
Ni25 P6 2.289470 1_655
Ni25 Sb2 2.634841 1_656
Ni25 Sb1 3.040724 1_555
Ni26 P3 2.289468 1_455
Ni26 P7 2.289481 1_555
Ni26 Sb2 2.634846 1_555
Ni26 Sb0 3.040724 1_555
Ni27 P4 2.289468 1_655
Ni27 P8 2.289481 1_555
Ni27 Sb2 2.634846 1_666
Ni27 Sb1 3.040724 1_555
Ni28 P3 2.289468 1_565
Ni28 P5 2.289481 1_555
Ni28 Sb2 2.634846 1_665
Ni28 Sb0 3.040724 1_555
Ni29 P4 2.289468 1_545
Ni29 P6 2.289481 1_555
Ni29 Sb2 2.634846 1_556
Ni29 Sb1 3.040724 1_555
