# generated using pymatgen
data_Li9Mn2Co5O16
_symmetry_space_group_name_H-M   'P 1'
_cell_length_a   5.90963500
_cell_length_b   5.91326096
_cell_length_c   10.10086257
_cell_angle_alpha   106.27856262
_cell_angle_beta   89.83070235
_cell_angle_gamma   119.73326452
_symmetry_Int_Tables_number   1
_chemical_formula_structural   Li9Mn2Co5O16
_chemical_formula_sum   'Li9 Mn2 Co5 O16'
_cell_volume   290.27085729
_cell_formula_units_Z   1
loop_
 _symmetry_equiv_pos_site_id
 _symmetry_equiv_pos_as_xyz
  1  'x, y, z'
loop_
 _atom_site_type_symbol
 _atom_site_label
 _atom_site_symmetry_multiplicity
 _atom_site_fract_x
 _atom_site_fract_y
 _atom_site_fract_z
 _atom_site_occupancy
  Li  Li0  1  0.50000000  0.50000000  0.00000000  1
  Li  Li1  1  0.74443700  0.74642800  0.74363900  1
  Li  Li2  1  0.00000000  0.00000000  0.50000000  1
  Li  Li3  1  0.00000000  0.50000000  0.00000000  1
  Li  Li4  1  0.23811500  0.74399400  0.74511900  1
  Li  Li5  1  0.50000000  0.00000000  0.50000000  1
  Li  Li6  1  0.76188500  0.25600600  0.25488100  1
  Li  Li7  1  0.25556300  0.25357200  0.25636100  1
  Li  Li8  1  0.50000000  0.50000000  0.50000000  1
  Mn  Mn0  1  0.00000000  0.00000000  0.00000000  1
  Mn  Mn1  1  0.00000000  0.50000000  0.50000000  1
  Co  Co0  1  0.24985200  0.24899400  0.74317100  1
  Co  Co1  1  0.75014800  0.75100600  0.25682900  1
  Co  Co2  1  0.50000000  0.00000000  0.00000000  1
  Co  Co3  1  0.74286200  0.25597300  0.74504700  1
  Co  Co4  1  0.25713800  0.74402700  0.25495300  1
  O  O0  1  0.88344700  0.65782100  0.12433300  1
  O  O1  1  0.12280400  0.88719200  0.88528600  1
  O  O2  1  0.37297400  0.12597500  0.64039200  1
  O  O3  1  0.38851100  0.64905000  0.12293600  1
  O  O4  1  0.65602300  0.89978000  0.87923800  1
  O  O5  1  0.88166600  0.14813200  0.61820700  1
  O  O6  1  0.12574900  0.40603500  0.37494200  1
  O  O7  1  0.65953000  0.39532000  0.38030100  1
  O  O8  1  0.11655300  0.34217900  0.87566700  1
  O  O9  1  0.34047000  0.60468000  0.61969900  1
  O  O10  1  0.62702600  0.87402500  0.35960800  1
  O  O11  1  0.61148900  0.35095000  0.87706400  1
  O  O12  1  0.87425100  0.59396500  0.62505800  1
  O  O13  1  0.11833400  0.85186800  0.38179300  1
  O  O14  1  0.34397700  0.10022000  0.12076200  1
  O  O15  1  0.87719600  0.11280800  0.11471400  1
loop_
_geom_bond_atom_site_label_1
_geom_bond_atom_site_label_2
_geom_bond_distance
_geom_bond_site_symmetry_2
Li0 O3 1.646356 1_555
Li0 O11 1.646356 1_554
Li0 O0 2.201167 1_555
Li0 O8 2.201167 1_554
Li1 O4 1.655519 1_555
Li1 O12 1.706227 1_555
Li2 O5 1.642643 1_455
Li2 O13 1.642643 1_545
Li3 O8 1.702354 1_554
Li3 O0 1.702354 1_455
Li4 O9 1.598158 1_555
Li4 O1 1.755124 1_555
Li4 O12 2.097986 1_455
Li5 O10 1.756576 1_545
Li5 O2 1.756576 1_555
Li5 O13 2.179460 1_545
Li5 O5 2.179460 1_555
Li6 O7 1.598158 1_555
Li6 O15 1.755124 1_555
Li6 O6 2.097986 1_655
Li7 O14 1.655519 1_555
Li7 O6 1.706227 1_555
Li8 O9 1.698927 1_555
Li8 O7 1.698927 1_555
Li8 O6 2.280351 1_555
Li8 O12 2.280351 1_555
Mn0 O15 1.534983 1_455
Mn0 O1 1.534983 1_544
Mn0 O0 2.486525 1_445
Mn0 O8 2.486525 1_554
Mn1 O12 1.570727 1_455
Mn1 O6 1.570727 1_555
Co0 O2 1.494500 1_555
Co0 O8 1.651120 1_555
Co1 O10 1.494500 1_555
Co1 O0 1.651120 1_555
Co2 O14 1.679101 1_555
Co2 O4 1.679101 1_544
Co3 O11 1.644045 1_555
Co3 O5 1.666012 1_555
Co3 O8 2.324017 1_655
Co3 O12 2.424760 1_555
Co4 O3 1.644045 1_555
Co4 O13 1.666012 1_555
Co4 O0 2.324017 1_455
Co4 O6 2.424760 1_555
