# generated using pymatgen
data_TaZnBiO5
_symmetry_space_group_name_H-M   'P 1'
_cell_length_a   5.34502700
_cell_length_b   10.70510500
_cell_length_c   16.12970100
_cell_angle_alpha   90.00000000
_cell_angle_beta   90.00000000
_cell_angle_gamma   90.00000000
_symmetry_Int_Tables_number   1
_chemical_formula_structural   TaZnBiO5
_chemical_formula_sum   'Ta8 Zn8 Bi8 O40'
_cell_volume   922.92657549
_cell_formula_units_Z   8
loop_
 _symmetry_equiv_pos_site_id
 _symmetry_equiv_pos_as_xyz
  1  'x, y, z'
loop_
 _atom_site_type_symbol
 _atom_site_label
 _atom_site_symmetry_multiplicity
 _atom_site_fract_x
 _atom_site_fract_y
 _atom_site_fract_z
 _atom_site_occupancy
  Ta  Ta0  1  0.97513000  0.37333700  0.41206800  1
  Ta  Ta1  1  0.52487000  0.87333700  0.58793200  1
  Ta  Ta2  1  0.02487000  0.62666300  0.58793200  1
  Ta  Ta3  1  0.47513000  0.12666300  0.41206800  1
  Ta  Ta4  1  0.02487000  0.12666300  0.91206800  1
  Ta  Ta5  1  0.97513000  0.87333700  0.08793200  1
  Ta  Ta6  1  0.52487000  0.37333700  0.91206800  1
  Ta  Ta7  1  0.47513000  0.62666300  0.08793200  1
  Zn  Zn0  1  0.49687400  0.37070800  0.54720100  1
  Zn  Zn1  1  0.99687400  0.12929200  0.54720100  1
  Zn  Zn2  1  0.99687400  0.62929200  0.95279900  1
  Zn  Zn3  1  0.00312600  0.37070800  0.04720100  1
  Zn  Zn4  1  0.50312600  0.12929200  0.04720100  1
  Zn  Zn5  1  0.00312600  0.87070800  0.45279900  1
  Zn  Zn6  1  0.50312600  0.62929200  0.45279900  1
  Zn  Zn7  1  0.49687400  0.87070800  0.95279900  1
  Bi  Bi0  1  0.01590300  0.85623700  0.77893700  1
  Bi  Bi1  1  0.98409700  0.14376300  0.22106300  1
  Bi  Bi2  1  0.48409700  0.35623700  0.22106300  1
  Bi  Bi3  1  0.98409700  0.64376300  0.27893700  1
  Bi  Bi4  1  0.51590300  0.14376300  0.72106300  1
  Bi  Bi5  1  0.51590300  0.64376300  0.77893700  1
  Bi  Bi6  1  0.48409700  0.85623700  0.27893700  1
  Bi  Bi7  1  0.01590300  0.35623700  0.72106300  1
  O  O0  1  0.84864200  0.31083100  0.31070200  1
  O  O1  1  0.27734100  0.02975700  0.96201900  1
  O  O2  1  0.22265900  0.52975700  0.03798100  1
  O  O3  1  0.35620400  0.79560300  0.84820300  1
  O  O4  1  0.14379600  0.29560300  0.15179700  1
  O  O5  1  0.84864200  0.81083100  0.18929800  1
  O  O6  1  0.14379600  0.79560300  0.34820300  1
  O  O7  1  0.65135800  0.81083100  0.68929800  1
  O  O8  1  0.27734100  0.52975700  0.53798100  1
  O  O9  1  0.15135800  0.68916900  0.68929800  1
  O  O10  1  0.65135800  0.31083100  0.81070200  1
  O  O11  1  0.71807000  0.22371600  0.47326700  1
  O  O12  1  0.77734100  0.97024300  0.53798100  1
  O  O13  1  0.64379600  0.70439700  0.34820300  1
  O  O14  1  0.17477400  0.00331600  0.13201100  1
  O  O15  1  0.77734100  0.47024300  0.96201900  1
  O  O16  1  0.15135800  0.18916900  0.81070200  1
  O  O17  1  0.85620400  0.20439700  0.65179700  1
  O  O18  1  0.21807000  0.77628400  0.02673300  1
  O  O19  1  0.22265900  0.02975700  0.46201900  1
  O  O20  1  0.28193000  0.77628400  0.52673300  1
  O  O21  1  0.82522600  0.99668400  0.86798900  1
  O  O22  1  0.64379600  0.20439700  0.15179700  1
  O  O23  1  0.67477400  0.99668400  0.36798900  1
  O  O24  1  0.28193000  0.27628400  0.97326700  1
  O  O25  1  0.21807000  0.27628400  0.47326700  1
  O  O26  1  0.72265900  0.47024300  0.46201900  1
  O  O27  1  0.72265900  0.97024300  0.03798100  1
  O  O28  1  0.67477400  0.49668400  0.13201100  1
  O  O29  1  0.78193000  0.72371600  0.52673300  1
  O  O30  1  0.78193000  0.22371600  0.97326700  1
  O  O31  1  0.71807000  0.72371600  0.02673300  1
  O  O32  1  0.82522600  0.49668400  0.63201100  1
  O  O33  1  0.85620400  0.70439700  0.84820300  1
  O  O34  1  0.35620400  0.29560300  0.65179700  1
  O  O35  1  0.17477400  0.50331600  0.36798900  1
  O  O36  1  0.32522600  0.50331600  0.86798900  1
  O  O37  1  0.34864200  0.18916900  0.31070200  1
  O  O38  1  0.32522600  0.00331600  0.63201100  1
  O  O39  1  0.34864200  0.68916900  0.18929800  1
loop_
_geom_bond_atom_site_label_1
_geom_bond_atom_site_label_2
_geom_bond_distance
_geom_bond_site_symmetry_2
Bi0 O33 2.149181 1_455
Bi0 O3 2.231145 1_555
Bi0 O21 2.315690 1_455
Bi0 O9 2.411086 1_555
Bi0 O7 2.474554 1_455
Bi1 O4 2.149181 1_655
Bi1 O22 2.231145 1_555
Bi1 O14 2.315690 1_655
Bi1 O0 2.411086 1_555
Bi1 O37 2.474554 1_655
Bi2 O22 2.149181 1_555
Bi2 O4 2.231145 1_555
Bi2 O28 2.315690 1_555
Bi2 O37 2.411086 1_555
Bi2 O0 2.474554 1_555
Bi3 O6 2.149181 1_655
Bi3 O13 2.231145 1_555
Bi3 O35 2.315690 1_655
Bi3 O5 2.411086 1_555
Bi3 O39 2.474554 1_655
Bi4 O34 2.149181 1_555
Bi4 O17 2.231145 1_555
Bi4 O38 2.315690 1_555
Bi4 O10 2.411086 1_555
Bi4 O16 2.474554 1_555
Bi5 O3 2.149181 1_555
Bi5 O33 2.231145 1_555
Bi5 O36 2.315690 1_555
Bi5 O7 2.411086 1_555
Bi5 O9 2.474554 1_555
Bi6 O13 2.149181 1_555
Bi6 O6 2.231145 1_555
Bi6 O23 2.315690 1_555
Bi6 O39 2.411086 1_555
Bi6 O5 2.474554 1_555
Bi7 O17 2.149181 1_455
Bi7 O34 2.231145 1_555
Bi7 O32 2.315690 1_455
Bi7 O16 2.411086 1_555
Bi7 O10 2.474554 1_455
O0 Ta0 1.891576 1_555
O1 Ta4 1.883182 1_555
O1 Zn7 2.073156 1_545
O1 Zn4 2.116497 1_556
O2 Ta7 1.883182 1_555
O2 Zn3 2.073156 1_555
O2 Zn2 2.116497 1_454
O3 Zn7 2.014466 1_555
O4 Zn3 2.014466 1_555
O5 Ta5 1.891576 1_555
O6 Zn5 2.014466 1_555
O7 Ta1 1.891576 1_555
O8 Ta2 1.883182 1_555
O8 Zn0 2.073156 1_555
O8 Zn6 2.116497 1_555
O9 Ta2 1.891576 1_555
O10 Ta6 1.891576 1_555
O11 Ta3 1.933910 1_555
O11 Zn1 2.159776 1_555
O11 Zn0 2.301320 1_555
O11 Ta0 2.329750 1_555
O12 Ta1 1.883182 1_555
O12 Zn1 2.073156 1_565
O12 Zn5 2.116497 1_655
O13 Zn6 2.014466 1_555
O14 Ta5 1.892169 1_445
O15 Ta6 1.883182 1_555
O15 Zn2 2.073156 1_555
O15 Zn3 2.116497 1_656
O16 Ta4 1.891576 1_555
O17 Zn1 2.014466 1_555
O18 Ta5 1.933910 1_455
O18 Zn7 2.159776 1_554
O18 Zn2 2.301320 1_454
O18 Ta7 2.329750 1_555
O19 Ta3 1.883182 1_555
O19 Zn5 2.073156 1_545
O19 Zn1 2.116497 1_455
O20 Ta1 1.933910 1_555
O20 Zn5 2.159776 1_555
O20 Zn6 2.301320 1_555
O20 Ta2 2.329750 1_555
O21 Ta4 1.892169 1_665
O22 Zn4 2.014466 1_555
O23 Ta3 1.892169 1_565
O24 Ta6 1.933910 1_555
O24 Zn3 2.159776 1_556
O24 Zn4 2.301320 1_556
O24 Ta4 2.329750 1_555
O25 Ta0 1.933910 1_455
O25 Zn0 2.159776 1_555
O25 Zn1 2.301320 1_455
O25 Ta3 2.329750 1_555
O26 Ta0 1.883182 1_555
O26 Zn6 2.073156 1_555
O26 Zn0 2.116497 1_555
O27 Ta5 1.883182 1_555
O27 Zn4 2.073156 1_565
O27 Zn7 2.116497 1_554
O28 Ta7 1.892169 1_555
O29 Ta2 1.933910 1_655
O29 Zn6 2.159776 1_555
O29 Zn5 2.301320 1_655
O29 Ta1 2.329750 1_555
O30 Ta4 1.933910 1_655
O30 Zn4 2.159776 1_556
O30 Zn3 2.301320 1_656
O30 Ta6 2.329750 1_555
O31 Ta7 1.933910 1_555
O31 Zn2 2.159776 1_554
O31 Zn7 2.301320 1_554
O31 Ta5 2.329750 1_555
O32 Ta2 1.892169 1_655
O33 Zn2 2.014466 1_555
O34 Zn0 2.014466 1_555
O35 Ta0 1.892169 1_455
O36 Ta6 1.892169 1_555
O37 Ta3 1.891576 1_555
O38 Ta1 1.892169 1_545
O39 Ta7 1.891576 1_555
