# generated using pymatgen
data_Sr5Cr3F19
_symmetry_space_group_name_H-M   'P 1'
_cell_length_a   8.72721000
_cell_length_b   10.19806387
_cell_length_c   10.21134373
_cell_angle_alpha   83.54028487
_cell_angle_beta   71.48604130
_cell_angle_gamma   71.70669928
_symmetry_Int_Tables_number   1
_chemical_formula_structural   Sr5Cr3F19
_chemical_formula_sum   'Sr10 Cr6 F38'
_cell_volume   818.14587684
_cell_formula_units_Z   2
loop_
 _symmetry_equiv_pos_site_id
 _symmetry_equiv_pos_as_xyz
  1  'x, y, z'
loop_
 _atom_site_type_symbol
 _atom_site_label
 _atom_site_symmetry_multiplicity
 _atom_site_fract_x
 _atom_site_fract_y
 _atom_site_fract_z
 _atom_site_occupancy
  Sr  Sr0  1  0.01072600  0.84896000  0.29131500  1
  Sr  Sr1  1  0.76654300  0.83403700  0.69587100  1
  Sr  Sr2  1  0.67381800  0.48669500  0.52216100  1
  Sr  Sr3  1  0.76211200  0.30220800  0.17132700  1
  Sr  Sr4  1  0.56768600  0.70403900  0.13263300  1
  Sr  Sr5  1  0.48661100  0.27258300  0.85215000  1
  Sr  Sr6  1  0.18665800  0.66883500  0.85893300  1
  Sr  Sr7  1  0.23770100  0.49285200  0.46075500  1
  Sr  Sr8  1  0.29014400  0.16194200  0.26242500  1
  Sr  Sr9  1  0.10346900  0.15631600  0.70036700  1
  Cr  Cr0  1  0.78080400  0.01312400  0.01302900  1
  Cr  Cr1  1  0.84677800  0.47659300  0.81272700  1
  Cr  Cr2  1  0.57156000  0.13019200  0.50589200  1
  Cr  Cr3  1  0.27793500  0.94281900  0.96129100  1
  Cr  Cr4  1  0.35927200  0.84289300  0.46144700  1
  Cr  Cr5  1  0.04670000  0.48825700  0.17586700  1
  F  F0  1  0.90347200  0.63882600  0.85242500  1
  F  F1  1  0.77270100  0.83108900  0.06083500  1
  F  F2  1  0.93022100  0.54025900  0.36607300  1
  F  F3  1  0.00647400  0.72023100  0.50898400  1
  F  F4  1  0.74577200  0.95201900  0.46051200  1
  F  F5  1  0.04136500  0.67613400  0.13008700  1
  F  F6  1  0.75142100  0.20556800  0.96408700  1
  F  F7  1  0.61295900  0.08512600  0.68565700  1
  F  F8  1  0.78363200  0.04536400  0.19588800  1
  F  F9  1  0.73095600  0.60756900  0.69145900  1
  F  F10  1  0.19906700  0.00013500  0.15626800  1
  F  F11  1  0.80257300  0.33402300  0.71981500  1
  F  F12  1  0.58480900  0.71868800  0.42007300  1
  F  F13  1  0.52144900  0.87331800  0.92108400  1
  F  F14  1  0.28998700  0.88334400  0.78542800  1
  F  F15  1  0.64125000  0.50615700  0.97171400  1
  F  F16  1  0.29194500  0.70882000  0.60303200  1
  F  F17  1  0.54351600  0.48101700  0.32966200  1
  F  F18  1  0.44859100  0.49545100  0.74673400  1
  F  F19  1  0.73647900  0.23339600  0.44616200  1
  F  F20  1  0.20164300  0.43972100  0.98720200  1
  F  F21  1  0.50680800  0.20864000  0.34070400  1
  F  F22  1  0.40785600  0.29499000  0.60120100  1
  F  F23  1  0.30155700  0.74091300  0.33809300  1
  F  F24  1  0.53286700  0.09048200  0.04312800  1
  F  F25  1  0.86706800  0.96927400  0.81545100  1
  F  F26  1  0.25775300  0.43264600  0.22566100  1
  F  F27  1  0.40961800  0.01188500  0.54742300  1
  F  F28  1  0.13805600  0.97807600  0.50475500  1
  F  F29  1  0.29526700  0.75730700  0.03691600  1
  F  F30  1  0.96413300  0.33513600  0.91712000  1
  F  F31  1  0.44885200  0.92946300  0.28930000  1
  F  F32  1  0.15401400  0.26698600  0.47835800  1
  F  F33  1  0.06611900  0.43615400  0.67909600  1
  F  F34  1  0.03088000  0.97543200  0.98707700  1
  F  F35  1  0.27531300  0.12649800  0.88532800  1
  F  F36  1  0.02596500  0.30110100  0.21857900  1
  F  F37  1  0.83226900  0.52682000  0.13923600  1
loop_
_geom_bond_atom_site_label_1
_geom_bond_atom_site_label_2
_geom_bond_distance
_geom_bond_site_symmetry_2
Cr0 F1 1.883115 1_545
Cr0 F6 1.926633 1_554
Cr0 F8 1.941077 1_555
Cr0 F25 1.965773 1_544
Cr0 F24 1.989838 1_555
Cr0 F34 2.027343 1_644
Cr1 F33 1.915350 1_655
Cr1 F30 1.919943 1_555
Cr1 F15 1.966008 1_555
Cr1 F9 1.978487 1_555
Cr1 F0 1.984577 1_555
Cr1 F11 2.014412 1_555
Cr2 F22 1.946920 1_555
Cr2 F19 1.949427 1_555
Cr2 F21 1.955133 1_555
Cr2 F4 1.958482 1_545
Cr2 F7 1.959199 1_555
Cr2 F27 2.051240 1_555
Cr3 F14 1.920653 1_555
Cr3 F13 1.937307 1_555
Cr3 F29 1.940149 1_556
Cr3 F35 1.941238 1_565
Cr3 F10 1.979495 1_566
Cr3 F34 2.009406 1_555
Cr4 F12 1.919459 1_555
Cr4 F31 1.921452 1_555
Cr4 F28 1.935844 1_555
Cr4 F16 1.955766 1_555
Cr4 F23 1.987070 1_555
Cr4 F27 2.234876 1_565
Cr5 F5 1.909967 1_555
Cr5 F2 1.930396 1_455
Cr5 F37 1.935483 1_455
Cr5 F36 1.960924 1_555
Cr5 F26 1.961353 1_555
Cr5 F20 1.981154 1_554
F0 Sr6 2.605703 1_655
F0 Sr1 2.636384 1_555
F1 Sr4 2.413713 1_555
F2 Sr2 2.480410 1_555
F2 Sr7 3.016192 1_655
F3 Sr1 2.410067 1_455
F3 Sr0 2.446792 1_555
F3 Sr7 2.525865 1_555
F4 Sr0 2.404632 1_655
F4 Sr1 2.597235 1_555
F5 Sr0 2.442506 1_555
F5 Sr6 2.652797 1_554
F6 Sr3 2.471981 1_556
F6 Sr5 2.761316 1_555
F7 Sr5 2.445061 1_555
F7 Sr1 2.497666 1_545
F8 Sr3 2.555827 1_555
F8 Sr0 2.680401 1_645
F9 Sr1 2.432082 1_555
F9 Sr2 2.483870 1_555
F10 Sr8 2.510535 1_555
F10 Sr0 2.579367 1_545
F11 Sr9 2.642313 1_655
F11 Sr2 2.719427 1_555
F11 Sr5 2.889630 1_555
F12 Sr2 2.468426 1_555
F12 Sr4 3.008484 1_555
F13 Sr1 2.563181 1_555
F13 Sr4 2.662075 1_556
F14 Sr6 2.569269 1_555
F14 Sr9 2.943261 1_565
F15 Sr4 2.539193 1_556
F15 Sr3 2.937262 1_556
F16 Sr6 2.511860 1_555
F16 Sr7 2.999494 1_555
F17 Sr3 2.469698 1_555
F17 Sr7 2.548494 1_555
F17 Sr2 2.578161 1_555
F17 Sr4 2.875283 1_555
F18 Sr5 2.374331 1_555
F18 Sr6 2.433066 1_555
F18 Sr2 2.490703 1_555
F19 Sr2 2.620836 1_555
F19 Sr3 2.770429 1_555
F20 Sr6 2.533840 1_555
F20 Sr5 2.584925 1_555
F21 Sr8 2.460070 1_555
F21 Sr3 2.717039 1_555
F22 Sr7 2.674660 1_555
F22 Sr5 2.824770 1_555
F23 Sr4 2.544029 1_555
F23 Sr0 2.603903 1_555
F23 Sr7 2.829801 1_555
F24 Sr8 2.533460 1_555
F24 Sr5 2.574724 1_554
F25 Sr1 2.445720 1_555
F25 Sr9 3.114844 1_665
F26 Sr7 2.483548 1_555
F26 Sr8 2.680740 1_555
F27 Sr9 2.672894 1_555
F28 Sr9 2.733977 1_565
F29 Sr6 2.648664 1_554
F29 Sr4 2.729142 1_555
F30 Sr3 2.688574 1_556
F30 Sr9 2.740436 1_655
F31 Sr8 2.376588 1_565
F31 Sr4 2.682708 1_555
F32 Sr8 2.343032 1_555
F32 Sr9 2.389445 1_555
F32 Sr7 2.598251 1_555
F33 Sr7 2.383434 1_555
F33 Sr9 2.760283 1_555
F35 Sr5 2.636097 1_555
F35 Sr9 2.700398 1_555
F36 Sr8 2.447159 1_555
F36 Sr3 2.494681 1_455
F37 Sr4 2.460560 1_555
F37 Sr3 2.512620 1_555
