# generated using pymatgen
data_Sr8Fe8O23
_symmetry_space_group_name_H-M   'P 1'
_cell_length_a   8.60640625
_cell_length_b   8.60640625
_cell_length_c   8.60745373
_cell_angle_alpha   101.42875104
_cell_angle_beta   101.42875104
_cell_angle_gamma   127.13541130
_symmetry_Int_Tables_number   1
_chemical_formula_structural   Sr8Fe8O23
_chemical_formula_sum   'Sr8 Fe8 O23'
_cell_volume   455.13321217
_cell_formula_units_Z   1
loop_
 _symmetry_equiv_pos_site_id
 _symmetry_equiv_pos_as_xyz
  1  'x, y, z'
loop_
 _atom_site_type_symbol
 _atom_site_label
 _atom_site_symmetry_multiplicity
 _atom_site_fract_x
 _atom_site_fract_y
 _atom_site_fract_z
 _atom_site_occupancy
  Sr  Sr0  1  0.75019240  0.50003209  0.25022860  1
  Sr  Sr1  1  0.49996791  0.24980760  0.74977140  1
  Sr  Sr2  1  0.50003209  0.75019240  0.25022860  1
  Sr  Sr3  1  0.24980760  0.49996791  0.74977140  1
  Sr  Sr4  1  0.25905791  0.00003233  0.25910426  1
  Sr  Sr5  1  -0.00003233  0.74094209  0.74089574  1
  Sr  Sr6  1  0.00003233  0.25905791  0.25910426  1
  Sr  Sr7  1  0.74094209  -0.00003233  0.74089574  1
  Fe  Fe0  1  0.75000078  0.24999922  0.50000000  1
  Fe  Fe1  1  0.24999922  0.75000078  0.50000000  1
  Fe  Fe2  1  -0.00000000  0.50000000  -0.00000000  1
  Fe  Fe3  1  0.50000000  0.50000000  0.50000000  1
  Fe  Fe4  1  -0.00000000  -0.00000000  0.50000000  1
  Fe  Fe5  1  0.50000000  -0.00000000  -0.00000000  1
  Fe  Fe6  1  0.25217058  0.25217058  -0.00000003  1
  Fe  Fe7  1  0.74782942  0.74782942  0.00000003  1
  O  O0  1  -0.00000000  0.50000000  0.50000000  1
  O  O1  1  0.50000000  -0.00000000  0.50000000  1
  O  O2  1  0.12594021  0.87405979  0.50000000  1
  O  O3  1  0.87402046  0.37401308  0.74795463  1
  O  O4  1  0.62598692  0.12597954  0.25204537  1
  O  O5  1  0.37406471  0.62593529  0.50000000  1
  O  O6  1  0.87405979  0.12594021  0.50000000  1
  O  O7  1  0.12597954  0.62598692  0.25204537  1
  O  O8  1  0.37401308  0.87402046  0.74795463  1
  O  O9  1  0.62593529  0.37406471  0.50000000  1
  O  O10  1  0.73929616  0.26070384  -0.00000000  1
  O  O11  1  0.26061500  0.26061500  0.52124836  1
  O  O12  1  0.73938500  0.73938500  0.47875164  1
  O  O13  1  0.26070384  0.73929616  -0.00000000  1
  O  O14  1  0.10391976  0.10391976  0.76003344  1
  O  O15  1  0.34381112  0.34381112  0.23994463  1
  O  O16  1  0.50000000  0.50000000  -0.00000000  1
  O  O17  1  0.65637438  0.89626796  0.00000058  1
  O  O18  1  0.89608024  0.89608024  0.23996656  1
  O  O19  1  0.65618888  0.65618888  0.76005537  1
  O  O20  1  0.89626796  0.65637438  0.00000058  1
  O  O21  1  0.34362562  0.10373204  0.99999942  1
  O  O22  1  0.10373204  0.34362562  0.99999942  1
loop_
_geom_bond_atom_site_label_1
_geom_bond_atom_site_label_2
_geom_bond_distance
_geom_bond_site_symmetry_2
Fe0 O3 1.911146 1_555
Fe0 O4 1.911146 1_555
Fe0 O6 1.912171 1_555
Fe0 O9 1.912271 1_555
Fe0 O0 1.915528 1_655
Fe0 O1 1.915528 1_555
Fe1 O8 1.911146 1_555
Fe1 O7 1.911146 1_555
Fe1 O2 1.912171 1_555
Fe1 O5 1.912271 1_555
Fe1 O0 1.915528 1_555
Fe1 O1 1.915528 1_565
Fe2 O10 1.922619 1_455
Fe2 O13 1.922619 1_555
Fe2 O7 1.942676 1_555
Fe2 O3 1.942676 1_454
Fe2 O22 2.014682 1_554
Fe2 O20 2.014682 1_455
Fe3 O11 1.922596 1_555
Fe3 O12 1.922596 1_555
Fe3 O9 1.941091 1_555
Fe3 O5 1.941091 1_555
Fe3 O19 2.014400 1_555
Fe3 O15 2.014400 1_555
Fe4 O11 1.922436 1_555
Fe4 O12 1.922436 1_445
Fe4 O2 1.941167 1_545
Fe4 O6 1.941167 1_455
Fe4 O14 2.014207 1_555
Fe4 O18 2.014207 1_445
Fe5 O13 1.922619 1_545
Fe5 O10 1.922619 1_555
Fe5 O4 1.942676 1_555
Fe5 O8 1.942676 1_544
Fe5 O21 2.014682 1_554
Fe5 O17 2.014682 1_545
Fe6 O21 1.861632 1_554
Fe6 O22 1.861632 1_554
Fe6 O15 1.862117 1_555
Fe6 O14 1.862202 1_554
Fe6 O16 1.898896 1_555
Fe7 O17 1.861632 1_555
Fe7 O20 1.861632 1_555
Fe7 O19 1.862117 1_554
Fe7 O18 1.862202 1_555
Fe7 O16 1.898896 1_555
O0 Sr6 2.626093 1_555
O0 Sr5 2.626093 1_555
O0 Sr3 2.722777 1_555
O0 Sr0 2.722777 1_455
O1 Sr4 2.626093 1_555
O1 Sr7 2.626093 1_555
O1 Sr1 2.722777 1_555
O1 Sr2 2.722777 1_545
O2 Sr5 2.668328 1_555
O2 Sr4 2.668328 1_565
O2 Sr0 2.715739 1_455
O2 Sr1 2.715739 1_565
O3 Sr5 2.668401 1_655
O3 Sr7 2.668674 1_555
O3 Sr3 2.715776 1_655
O3 Sr1 2.716262 1_555
O4 Sr4 2.668401 1_555
O4 Sr6 2.668674 1_655
O4 Sr2 2.715776 1_545
O4 Sr0 2.716262 1_555
O5 Sr6 2.668248 1_555
O5 Sr7 2.668248 1_565
O5 Sr2 2.715879 1_555
O5 Sr3 2.715879 1_555
O6 Sr7 2.668328 1_555
O6 Sr6 2.668328 1_655
O6 Sr2 2.715739 1_545
O6 Sr3 2.715739 1_655
O7 Sr6 2.668401 1_555
O7 Sr4 2.668674 1_565
O7 Sr0 2.715776 1_455
O7 Sr2 2.716262 1_555
O8 Sr7 2.668401 1_565
O8 Sr5 2.668674 1_555
O8 Sr1 2.715776 1_565
O8 Sr3 2.716262 1_555
O9 Sr5 2.668248 1_655
O9 Sr4 2.668248 1_555
O9 Sr0 2.715879 1_555
O9 Sr1 2.715879 1_555
O10 Sr1 2.611319 1_554
O10 Sr0 2.611319 1_555
O10 Sr7 2.842047 1_554
O10 Sr6 2.842047 1_655
O11 Sr3 2.611375 1_555
O11 Sr1 2.611375 1_555
O11 Sr4 2.840320 1_555
O11 Sr6 2.840320 1_555
O12 Sr2 2.611375 1_555
O12 Sr0 2.611375 1_555
O12 Sr5 2.840320 1_655
O12 Sr7 2.840320 1_565
O13 Sr3 2.611319 1_554
O13 Sr2 2.611319 1_555
O13 Sr4 2.842047 1_565
O13 Sr5 2.842047 1_554
O14 Sr7 2.636222 1_455
O14 Sr5 2.636222 1_545
O14 Sr3 2.863296 1_555
O14 Sr1 2.863296 1_555
O15 Sr6 2.635993 1_555
O15 Sr4 2.635993 1_555
O15 Sr2 2.863634 1_555
O15 Sr0 2.863634 1_555
O16 Sr0 2.727016 1_555
O16 Sr2 2.727016 1_555
O16 Sr1 2.727016 1_554
O16 Sr3 2.727016 1_554
O17 Sr6 2.635672 1_665
O17 Sr7 2.635903 1_564
O17 Sr3 2.864968 1_554
O17 Sr2 2.865155 1_555
O18 Sr6 2.636222 1_665
O18 Sr4 2.636222 1_665
O18 Sr0 2.863296 1_555
O18 Sr2 2.863296 1_555
O19 Sr7 2.635993 1_565
O19 Sr5 2.635993 1_655
O19 Sr3 2.863634 1_555
O19 Sr1 2.863634 1_555
O20 Sr4 2.635672 1_665
O20 Sr5 2.635903 1_654
O20 Sr1 2.864968 1_554
O20 Sr0 2.865155 1_555
O21 Sr5 2.635672 1_545
O21 Sr4 2.635903 1_556
O21 Sr0 2.864968 1_556
O21 Sr1 2.865155 1_555
O22 Sr7 2.635672 1_455
O22 Sr6 2.635903 1_556
O22 Sr2 2.864968 1_556
O22 Sr3 2.865155 1_555
