# generated using pymatgen
data_MnC4Br3N
_symmetry_space_group_name_H-M   'P 1'
_cell_length_a   8.42242747
_cell_length_b   8.42242747
_cell_length_c   6.23547500
_cell_angle_alpha   90.00000000
_cell_angle_beta   90.00000000
_cell_angle_gamma   119.99999585
_symmetry_Int_Tables_number   1
_chemical_formula_structural   MnC4Br3N
_chemical_formula_sum   'Mn2 C8 Br6 N2'
_cell_volume   383.06701001
_cell_formula_units_Z   2
loop_
 _symmetry_equiv_pos_site_id
 _symmetry_equiv_pos_as_xyz
  1  'x, y, z'
loop_
 _atom_site_type_symbol
 _atom_site_label
 _atom_site_symmetry_multiplicity
 _atom_site_fract_x
 _atom_site_fract_y
 _atom_site_fract_z
 _atom_site_occupancy
  Mn  Mn0  1  0.00000000  0.00000000  0.99952700  1
  Mn  Mn1  1  0.00000000  0.00000000  0.49952700  1
  C  C0  1  0.80364600  0.43889400  0.22813900  1
  C  C1  1  0.56110600  0.36475200  0.22813900  1
  C  C2  1  0.63524800  0.19635400  0.22813900  1
  C  C3  1  0.19635400  0.56110600  0.72813900  1
  C  C4  1  0.43889400  0.63524800  0.72813900  1
  C  C5  1  0.36475200  0.80364600  0.72813900  1
  C  C6  1  0.66666700  0.33333300  0.05709900  1
  C  C7  1  0.33333300  0.66666700  0.55709900  1
  Br  Br0  1  0.82159400  0.09215900  0.74841600  1
  Br  Br1  1  0.90784100  0.72943500  0.74841600  1
  Br  Br2  1  0.27056500  0.17840600  0.74841600  1
  Br  Br3  1  0.17840600  0.90784100  0.24841600  1
  Br  Br4  1  0.09215900  0.27056500  0.24841600  1
  Br  Br5  1  0.72943500  0.82159400  0.24841600  1
  N  N0  1  0.66666700  0.33333300  0.39593300  1
  N  N1  1  0.33333300  0.66666700  0.89593300  1
loop_
_geom_bond_atom_site_label_1
_geom_bond_atom_site_label_2
_geom_bond_distance
_geom_bond_site_symmetry_2
C0 N0 1.480014 1_555
C0 C6 1.494391 1_555
C1 N0 1.480018 1_555
C1 C6 1.494395 1_555
C2 N0 1.480012 1_555
C2 C6 1.494389 1_555
C3 N1 1.480014 1_555
C3 C7 1.494391 1_555
C4 N1 1.480018 1_555
C4 C7 1.494395 1_555
C5 N1 1.480012 1_555
C5 C7 1.494389 1_555
Br0 Mn1 2.536766 1_655
Br0 Mn0 2.545266 1_655
Br1 Mn1 2.536767 1_665
Br1 Mn0 2.545266 1_665
Br2 Mn1 2.536767 1_555
Br2 Mn0 2.545266 1_555
Br3 Mn0 2.536766 1_564
Br3 Mn1 2.545266 1_565
Br4 Mn0 2.536767 1_554
Br4 Mn1 2.545266 1_555
Br5 Mn0 2.536767 1_664
Br5 Mn1 2.545266 1_665
