# generated using pymatgen
data_ZrPOs
_symmetry_space_group_name_H-M   'P 1'
_cell_length_a   3.85040674
_cell_length_b   6.39606268
_cell_length_c   6.39562325
_cell_angle_alpha   120.00226134
_cell_angle_beta   90.00000000
_cell_angle_gamma   90.00000000
_symmetry_Int_Tables_number   1
_chemical_formula_structural   ZrPOs
_chemical_formula_sum   'Zr3 P3 Os3'
_cell_volume   136.40268769
_cell_formula_units_Z   3
loop_
 _symmetry_equiv_pos_site_id
 _symmetry_equiv_pos_as_xyz
  1  'x, y, z'
loop_
 _atom_site_type_symbol
 _atom_site_label
 _atom_site_symmetry_multiplicity
 _atom_site_fract_x
 _atom_site_fract_y
 _atom_site_fract_z
 _atom_site_occupancy
  Zr  Zr0  1  0.50000000  0.58332777  -0.00000000  1
  Zr  Zr1  1  0.50000000  0.41646307  0.41638469  1
  Zr  Zr2  1  0.50000000  0.00007937  0.58361531  1
  P  P0  1  -0.00000000  0.33338166  0.66665099  1
  P  P1  1  -0.00000000  0.66673166  0.33334901  1
  P  P2  1  0.50000000  0.99979872  -0.00000000  1
  Os  Os0  1  -0.00000000  0.24653716  0.00000000  1
  Os  Os1  1  -0.00000000  0.75350530  0.75343100  1
  Os  Os2  1  -0.00000000  0.00007429  0.24656900  1
loop_
_geom_bond_atom_site_label_1
_geom_bond_atom_site_label_2
_geom_bond_distance
_geom_bond_site_symmetry_2
P0 Zr0 2.720094 1_456
P0 Zr0 2.720094 1_556
P0 Zr2 2.720458 1_555
P0 Zr2 2.720458 1_455
P0 Zr1 2.720542 1_555
P0 Zr1 2.720542 1_455
P1 Zr0 2.720093 1_555
P1 Zr0 2.720093 1_455
P1 Zr1 2.720466 1_555
P1 Zr1 2.720466 1_455
P1 Zr2 2.720542 1_565
P1 Zr2 2.720542 1_465
P2 Zr0 2.663774 1_555
P2 Zr1 2.663935 1_565
P2 Zr2 2.663938 1_564
Os0 P0 2.457269 1_554
Os0 P1 2.457273 1_555
Os0 P2 2.489373 1_545
Os0 P2 2.489373 1_445
Os0 Os2 2.730916 1_555
Os0 Os1 2.730917 1_544
Os0 Zr0 2.889066 1_455
Os0 Zr0 2.889066 1_555
Os0 Zr2 3.014117 1_554
Os0 Zr2 3.014117 1_454
Os0 Zr1 3.014118 1_455
Os0 Zr1 3.014118 1_555
Os1 P1 2.456640 1_555
Os1 P0 2.457081 1_555
Os1 P2 2.488060 1_456
Os1 P2 2.488060 1_556
Os1 Os2 2.731317 1_566
Os1 Zr1 2.890165 1_555
Os1 Zr1 2.890165 1_455
Os1 Zr2 3.014332 1_565
Os1 Zr2 3.014332 1_465
Os1 Zr0 3.015720 1_456
Os1 Zr0 3.015720 1_556
Os2 P0 2.456638 1_555
Os2 P1 2.457075 1_545
Os2 P2 2.488060 1_545
Os2 P2 2.488060 1_445
Os2 Zr2 2.890163 1_555
Os2 Zr2 2.890163 1_455
Os2 Zr1 3.014328 1_455
Os2 Zr1 3.014328 1_555
Os2 Zr0 3.015720 1_545
Os2 Zr0 3.015720 1_445
