# generated using pymatgen
data_MgCrO4
_symmetry_space_group_name_H-M   'P 1'
_cell_length_a   4.98641231
_cell_length_b   4.98641254
_cell_length_c   6.33674738
_cell_angle_alpha   90.00000000
_cell_angle_beta   90.00000000
_cell_angle_gamma   113.24774857
_symmetry_Int_Tables_number   1
_chemical_formula_structural   MgCrO4
_chemical_formula_sum   'Mg2 Cr2 O8'
_cell_volume   144.76612492
_cell_formula_units_Z   2
loop_
 _symmetry_equiv_pos_site_id
 _symmetry_equiv_pos_as_xyz
  1  'x, y, z'
loop_
 _atom_site_type_symbol
 _atom_site_label
 _atom_site_symmetry_multiplicity
 _atom_site_fract_x
 _atom_site_fract_y
 _atom_site_fract_z
 _atom_site_occupancy
  Mg  Mg0  1  0.00000000  -0.00000000  -0.00000000  1
  Mg  Mg1  1  0.00000000  -0.00000000  0.50000000  1
  Cr  Cr0  1  0.35858274  0.64141726  0.75000000  1
  Cr  Cr1  1  0.64141726  0.35858274  0.25000000  1
  O  O0  1  0.72579744  0.77910020  0.75000000  1
  O  O1  1  0.27420256  0.22089980  0.25000000  1
  O  O2  1  0.77910020  0.72579744  0.25000000  1
  O  O3  1  0.22089980  0.27420256  0.75000000  1
  O  O4  1  0.24642718  0.75357282  0.95794640  1
  O  O5  1  0.75357282  0.24642718  0.45794640  1
  O  O6  1  0.75357282  0.24642718  0.04205360  1
  O  O7  1  0.24642718  0.75357282  0.54205360  1
loop_
_geom_bond_atom_site_label_1
_geom_bond_atom_site_label_2
_geom_bond_distance
_geom_bond_site_symmetry_2
Mg0 O4 2.069494 1_544
Mg0 O6 2.069494 1_455
Mg0 O0 2.098454 1_444
Mg0 O1 2.098454 1_555
Mg0 O3 2.098454 1_554
Mg0 O2 2.098454 1_445
Mg1 O5 2.069494 1_455
Mg1 O7 2.069494 1_545
Mg1 O0 2.098454 1_445
Mg1 O1 2.098454 1_555
Mg1 O3 2.098454 1_555
Mg1 O2 2.098454 1_445
Cr0 O4 1.615170 1_555
Cr0 O7 1.615170 1_555
Cr0 O0 1.682802 1_555
Cr0 O3 1.682802 1_555
Cr1 O5 1.615170 1_555
Cr1 O6 1.615170 1_555
Cr1 O1 1.682802 1_555
Cr1 O2 1.682802 1_555
