# generated using pymatgen
data_Tb3Al5O12
_symmetry_space_group_name_H-M   'P 1'
_cell_length_a   10.51600618
_cell_length_b   10.51600618
_cell_length_c   10.51600618
_cell_angle_alpha   109.47122063
_cell_angle_beta   109.47122063
_cell_angle_gamma   109.47122063
_symmetry_Int_Tables_number   1
_chemical_formula_structural   Tb3Al5O12
_chemical_formula_sum   'Tb12 Al20 O48'
_cell_volume   895.22171364
_cell_formula_units_Z   4
loop_
 _symmetry_equiv_pos_site_id
 _symmetry_equiv_pos_as_xyz
  1  'x, y, z'
loop_
 _atom_site_type_symbol
 _atom_site_label
 _atom_site_symmetry_multiplicity
 _atom_site_fract_x
 _atom_site_fract_y
 _atom_site_fract_z
 _atom_site_occupancy
  Tb  Tb0  1  0.87500000  0.62500000  0.25000000  1
  Tb  Tb1  1  0.62500000  0.25000000  0.87500000  1
  Tb  Tb2  1  0.87500000  0.75000000  0.62500000  1
  Tb  Tb3  1  0.75000000  0.62500000  0.87500000  1
  Tb  Tb4  1  0.25000000  0.87500000  0.62500000  1
  Tb  Tb5  1  0.62500000  0.87500000  0.75000000  1
  Tb  Tb6  1  0.12500000  0.37500000  0.75000000  1
  Tb  Tb7  1  0.37500000  0.75000000  0.12500000  1
  Tb  Tb8  1  0.12500000  0.25000000  0.37500000  1
  Tb  Tb9  1  0.25000000  0.37500000  0.12500000  1
  Tb  Tb10  1  0.75000000  0.12500000  0.37500000  1
  Tb  Tb11  1  0.37500000  0.12500000  0.25000000  1
  Al  Al0  1  0.12500000  0.87500000  0.25000000  1
  Al  Al1  1  0.87500000  0.12500000  0.75000000  1
  Al  Al2  1  0.25000000  0.62500000  0.37500000  1
  Al  Al3  1  0.37500000  0.25000000  0.62500000  1
  Al  Al4  1  0.75000000  0.87500000  0.12500000  1
  Al  Al5  1  0.12500000  0.75000000  0.87500000  1
  Al  Al6  1  0.37500000  0.62500000  0.75000000  1
  Al  Al7  1  0.62500000  0.75000000  0.37500000  1
  Al  Al8  1  0.87500000  0.25000000  0.12500000  1
  Al  Al9  1  0.25000000  0.12500000  0.87500000  1
  Al  Al10  1  0.75000000  0.37500000  0.62500000  1
  Al  Al11  1  0.62500000  0.37500000  0.25000000  1
  Al  Al12  1  0.50000000  0.50000000  0.50000000  1
  Al  Al13  1  0.50000000  0.00000000  0.50000000  1
  Al  Al14  1  0.00000000  0.50000000  0.50000000  1
  Al  Al15  1  0.50000000  0.50000000  0.00000000  1
  Al  Al16  1  0.00000000  0.00000000  0.50000000  1
  Al  Al17  1  0.00000000  0.50000000  0.00000000  1
  Al  Al18  1  0.50000000  0.00000000  0.00000000  1
  Al  Al19  1  0.00000000  0.00000000  0.00000000  1
  O  O0  1  0.67958800  0.09878000  0.98059500  1
  O  O1  1  0.80100800  0.41919200  0.82041200  1
  O  O2  1  0.08080800  0.88181500  0.40122000  1
  O  O3  1  0.61818500  0.69899200  0.51940500  1
  O  O4  1  0.40122000  0.82041200  0.51940500  1
  O  O5  1  0.69899200  0.51940500  0.61818500  1
  O  O6  1  0.69899200  0.67958800  0.08080800  1
  O  O7  1  0.51940500  0.61818500  0.69899200  1
  O  O8  1  0.09878000  0.61818500  0.41919200  1
  O  O9  1  0.88181500  0.98059500  0.80100800  1
  O  O10  1  0.98059500  0.80100800  0.88181500  1
  O  O11  1  0.51940500  0.40122000  0.82041200  1
  O  O12  1  0.67958800  0.08080800  0.69899200  1
  O  O13  1  0.41919200  0.09878000  0.61818500  1
  O  O14  1  0.82041200  0.51940500  0.40122000  1
  O  O15  1  0.08080800  0.69899200  0.67958800  1
  O  O16  1  0.61818500  0.41919200  0.09878000  1
  O  O17  1  0.82041200  0.80100800  0.41919200  1
  O  O18  1  0.88181500  0.40122000  0.08080800  1
  O  O19  1  0.90122000  0.38181500  0.58080800  1
  O  O20  1  0.40122000  0.08080800  0.88181500  1
  O  O21  1  0.98059500  0.67958800  0.09878000  1
  O  O22  1  0.41919200  0.82041200  0.80100800  1
  O  O23  1  0.80100800  0.88181500  0.98059500  1
  O  O24  1  0.32041200  0.90122000  0.01940500  1
  O  O25  1  0.19899200  0.58080800  0.17958800  1
  O  O26  1  0.91919200  0.11818500  0.59878000  1
  O  O27  1  0.38181500  0.30100800  0.48059500  1
  O  O28  1  0.59878000  0.17958800  0.48059500  1
  O  O29  1  0.30100800  0.48059500  0.38181500  1
  O  O30  1  0.30100800  0.32041200  0.91919200  1
  O  O31  1  0.48059500  0.38181500  0.30100800  1
  O  O32  1  0.19899200  0.11818500  0.01940500  1
  O  O33  1  0.58080800  0.17958800  0.19899200  1
  O  O34  1  0.01940500  0.32041200  0.90122000  1
  O  O35  1  0.90122000  0.01940500  0.32041200  1
  O  O36  1  0.59878000  0.91919200  0.11818500  1
  O  O37  1  0.11818500  0.59878000  0.91919200  1
  O  O38  1  0.17958800  0.19899200  0.58080800  1
  O  O39  1  0.38181500  0.58080800  0.90122000  1
  O  O40  1  0.91919200  0.30100800  0.32041200  1
  O  O41  1  0.17958800  0.48059500  0.59878000  1
  O  O42  1  0.58080800  0.90122000  0.38181500  1
  O  O43  1  0.32041200  0.91919200  0.30100800  1
  O  O44  1  0.48059500  0.59878000  0.17958800  1
  O  O45  1  0.01940500  0.19899200  0.11818500  1
  O  O46  1  0.11818500  0.01940500  0.19899200  1
  O  O47  1  0.09878000  0.98059500  0.67958800  1
loop_
_geom_bond_atom_site_label_1
_geom_bond_atom_site_label_2
_geom_bond_distance
_geom_bond_site_symmetry_2
Al0 O43 1.785731 1_555
Al0 O21 1.785733 1_455
Al0 O2 1.785733 1_555
Al0 O46 1.785739 1_565
Al1 O12 1.785731 1_555
Al1 O26 1.785733 1_555
Al1 O34 1.785733 1_655
Al1 O9 1.785739 1_545
Al2 O25 1.785731 1_555
Al2 O8 1.785733 1_555
Al2 O4 1.785733 1_555
Al2 O29 1.785739 1_555
Al3 O38 1.785731 1_555
Al3 O13 1.785733 1_555
Al3 O11 1.785733 1_555
Al3 O27 1.785739 1_555
Al4 O6 1.785731 1_555
Al4 O36 1.785733 1_555
Al4 O35 1.785733 1_565
Al4 O23 1.785739 1_554
Al5 O15 1.785731 1_555
Al5 O37 1.785733 1_555
Al5 O24 1.785733 1_556
Al5 O10 1.785739 1_455
Al6 O22 1.785731 1_555
Al6 O41 1.785733 1_555
Al6 O39 1.785733 1_555
Al6 O7 1.785739 1_555
Al7 O17 1.785731 1_555
Al7 O44 1.785733 1_555
Al7 O42 1.785733 1_555
Al7 O3 1.785739 1_555
Al8 O40 1.785731 1_555
Al8 O0 1.785733 1_554
Al8 O18 1.785733 1_555
Al8 O45 1.785739 1_655
Al9 O30 1.785731 1_555
Al9 O47 1.785733 1_545
Al9 O20 1.785733 1_555
Al9 O32 1.785739 1_556
Al10 O1 1.785731 1_555
Al10 O28 1.785733 1_555
Al10 O19 1.785733 1_555
Al10 O5 1.785739 1_555
Al11 O33 1.785731 1_555
Al11 O16 1.785733 1_555
Al11 O14 1.785733 1_555
Al11 O31 1.785739 1_555
Al12 O3 1.943621 1_555
Al12 O7 1.943621 1_555
Al12 O5 1.943621 1_555
Al12 O31 1.943621 1_555
Al12 O27 1.943621 1_555
Al12 O29 1.943621 1_555
Al13 O43 1.943623 1_545
Al13 O12 1.943623 1_555
Al13 O28 1.943629 1_555
Al13 O42 1.943629 1_545
Al13 O4 1.943629 1_545
Al13 O13 1.943629 1_555
Al14 O40 1.943623 1_455
Al14 O15 1.943623 1_555
Al14 O41 1.943629 1_555
Al14 O19 1.943629 1_455
Al14 O8 1.943629 1_555
Al14 O14 1.943629 1_455
Al15 O30 1.943623 1_554
Al15 O6 1.943623 1_555
Al15 O44 1.943629 1_555
Al15 O39 1.943629 1_554
Al15 O11 1.943629 1_554
Al15 O16 1.943629 1_555
Al16 O38 1.943623 1_555
Al16 O17 1.943623 1_445
Al16 O2 1.943629 1_545
Al16 O47 1.943629 1_545
Al16 O35 1.943629 1_455
Al16 O26 1.943629 1_455
Al17 O25 1.943623 1_555
Al17 O1 1.943623 1_454
Al17 O18 1.943629 1_455
Al17 O21 1.943629 1_455
Al17 O34 1.943629 1_554
Al17 O37 1.943629 1_554
Al18 O33 1.943623 1_555
Al18 O22 1.943623 1_544
Al18 O20 1.943629 1_554
Al18 O0 1.943629 1_554
Al18 O24 1.943629 1_545
Al18 O36 1.943629 1_545
Al19 O32 1.943621 1_555
Al19 O46 1.943621 1_555
Al19 O45 1.943621 1_555
Al19 O23 1.943621 1_444
Al19 O10 1.943621 1_444
Al19 O9 1.943621 1_444
O0 Tb1 2.335013 1_555
O0 Tb5 2.472807 1_545
O1 Tb3 2.335020 1_555
O1 Tb1 2.472813 1_555
O2 Tb0 2.335013 1_455
O2 Tb4 2.472807 1_555
O3 Tb2 2.335010 1_555
O3 Tb5 2.472811 1_555
O4 Tb4 2.335013 1_555
O4 Tb5 2.472807 1_555
O5 Tb3 2.335010 1_555
O5 Tb2 2.472811 1_555
O6 Tb3 2.335020 1_554
O6 Tb0 2.472813 1_555
O7 Tb5 2.335010 1_555
O7 Tb3 2.472811 1_555
O8 Tb4 2.335013 1_555
O8 Tb0 2.472807 1_455
O9 Tb5 2.335010 1_555
O9 Tb2 2.472811 1_555
O10 Tb2 2.335010 1_555
O10 Tb3 2.472811 1_555
O11 Tb1 2.335013 1_555
O11 Tb3 2.472807 1_555
O12 Tb5 2.335020 1_545
O12 Tb1 2.472813 1_555
O13 Tb1 2.335013 1_555
O13 Tb4 2.472807 1_545
O14 Tb0 2.335013 1_555
O14 Tb2 2.472807 1_555
O15 Tb2 2.335020 1_455
O15 Tb4 2.472813 1_555
O16 Tb0 2.335013 1_555
O16 Tb1 2.472807 1_554
O17 Tb2 2.335020 1_555
O17 Tb0 2.472813 1_555
O18 Tb1 2.335013 1_554
O18 Tb0 2.472807 1_555
O19 Tb10 2.335013 1_555
O19 Tb6 2.472807 1_655
O20 Tb4 2.335013 1_545
O20 Tb1 2.472807 1_555
O21 Tb0 2.335013 1_555
O21 Tb3 2.472807 1_554
O22 Tb5 2.335020 1_555
O22 Tb4 2.472813 1_555
O23 Tb3 2.335010 1_555
O23 Tb5 2.472811 1_555
O24 Tb7 2.335013 1_555
O24 Tb11 2.472807 1_565
O25 Tb9 2.335020 1_555
O25 Tb7 2.472813 1_555
O26 Tb6 2.335013 1_655
O26 Tb10 2.472807 1_555
O27 Tb8 2.335010 1_555
O27 Tb11 2.472811 1_555
O28 Tb10 2.335013 1_555
O28 Tb11 2.472807 1_555
O29 Tb9 2.335010 1_555
O29 Tb8 2.472811 1_555
O30 Tb9 2.335020 1_556
O30 Tb6 2.472813 1_555
O31 Tb11 2.335010 1_555
O31 Tb9 2.472811 1_555
O32 Tb9 2.335010 1_555
O32 Tb11 2.472811 1_555
O33 Tb11 2.335020 1_555
O33 Tb10 2.472813 1_555
O34 Tb6 2.335013 1_555
O34 Tb9 2.472807 1_556
O35 Tb10 2.335013 1_555
O35 Tb8 2.472807 1_655
O36 Tb10 2.335013 1_565
O36 Tb7 2.472807 1_555
O37 Tb7 2.335013 1_556
O37 Tb6 2.472807 1_555
O38 Tb8 2.335020 1_555
O38 Tb6 2.472813 1_555
O39 Tb6 2.335013 1_555
O39 Tb7 2.472807 1_556
O40 Tb8 2.335020 1_655
O40 Tb10 2.472813 1_555
O41 Tb6 2.335013 1_555
O41 Tb8 2.472807 1_555
O42 Tb7 2.335013 1_555
O42 Tb10 2.472807 1_565
O43 Tb11 2.335020 1_565
O43 Tb7 2.472813 1_555
O44 Tb7 2.335013 1_555
O44 Tb9 2.472807 1_555
O45 Tb8 2.335010 1_555
O45 Tb9 2.472811 1_555
O46 Tb11 2.335010 1_555
O46 Tb8 2.472811 1_555
O47 Tb4 2.335013 1_555
O47 Tb2 2.472807 1_455
