# generated using pymatgen
data_U11Se20
_symmetry_space_group_name_H-M   'P 1'
_cell_length_a   10.72251500
_cell_length_b   10.72251500
_cell_length_c   6.69360400
_cell_angle_alpha   90.00000000
_cell_angle_beta   90.00000000
_cell_angle_gamma   90.00000000
_symmetry_Int_Tables_number   1
_chemical_formula_structural   U11Se20
_chemical_formula_sum   'U11 Se20'
_cell_volume   769.57923409
_cell_formula_units_Z   1
loop_
 _symmetry_equiv_pos_site_id
 _symmetry_equiv_pos_as_xyz
  1  'x, y, z'
loop_
 _atom_site_type_symbol
 _atom_site_label
 _atom_site_symmetry_multiplicity
 _atom_site_fract_x
 _atom_site_fract_y
 _atom_site_fract_z
 _atom_site_occupancy
  U  U0  1  0.83913200  0.64989100  0.25051500  1
  U  U1  1  0.84166100  0.34834000  0.75049600  1
  U  U2  1  0.15833900  0.65166000  0.75049600  1
  U  U3  1  0.16086800  0.35010900  0.25051500  1
  U  U4  1  0.65166000  0.84166100  0.75049600  1
  U  U5  1  0.64989100  0.16086800  0.25051500  1
  U  U6  1  0.35010900  0.83913200  0.25051500  1
  U  U7  1  0.34834000  0.15833900  0.75049600  1
  U  U8  1  0.50000000  0.50000000  0.63652400  1
  U  U9  1  0.00000000  0.00000000  0.86061600  1
  U  U10  1  0.00000000  0.00000000  0.36104300  1
  Se  Se0  1  0.29039800  0.58880000  0.38470700  1
  Se  Se1  1  0.29042600  0.41188500  0.87737600  1
  Se  Se2  1  0.70957400  0.58811500  0.87737600  1
  Se  Se3  1  0.70960200  0.41120000  0.38470700  1
  Se  Se4  1  0.58811500  0.29042600  0.87737600  1
  Se  Se5  1  0.58880000  0.70960200  0.38470700  1
  Se  Se6  1  0.41120000  0.29039800  0.38470700  1
  Se  Se7  1  0.41188500  0.70957400  0.87737600  1
  Se  Se8  1  0.20908600  0.91265500  0.61811600  1
  Se  Se9  1  0.20940300  0.08755300  0.11941000  1
  Se  Se10  1  0.79059700  0.91244700  0.11941000  1
  Se  Se11  1  0.79091400  0.08734500  0.61811600  1
  Se  Se12  1  0.91244700  0.20940300  0.11941000  1
  Se  Se13  1  0.91265500  0.79091400  0.61811600  1
  Se  Se14  1  0.08734500  0.20908600  0.61811600  1
  Se  Se15  1  0.08755300  0.79059700  0.11941000  1
  Se  Se16  1  0.00000000  0.50000000  0.50003900  1
  Se  Se17  1  0.00000000  0.50000000  0.00163100  1
  Se  Se18  1  0.50000000  0.00000000  0.00163100  1
  Se  Se19  1  0.50000000  0.00000000  0.50003900  1
loop_
_geom_bond_atom_site_label_1
_geom_bond_atom_site_label_2
_geom_bond_distance
_geom_bond_site_symmetry_2
Se0 U6 2.902000 1_555
Se0 U2 2.907621 1_555
Se0 U8 2.966279 1_555
Se0 U3 3.047324 1_555
Se1 U7 2.915127 1_555
Se1 U8 2.922583 1_555
Se1 U3 2.933741 1_556
Se1 U2 3.055683 1_555
Se2 U4 2.915127 1_555
Se2 U8 2.922583 1_555
Se2 U0 2.933741 1_556
Se2 U1 3.055683 1_555
Se3 U5 2.902000 1_555
Se3 U1 2.907621 1_555
Se3 U8 2.966279 1_555
Se3 U0 3.047324 1_555
Se4 U1 2.915127 1_555
Se4 U8 2.922583 1_555
Se4 U5 2.933741 1_556
Se4 U7 3.055683 1_555
Se5 U0 2.902000 1_555
Se5 U4 2.907621 1_555
Se5 U8 2.966279 1_555
Se5 U6 3.047324 1_555
Se6 U3 2.902000 1_555
Se6 U7 2.907621 1_555
Se6 U8 2.966279 1_555
Se6 U5 3.047324 1_555
Se7 U2 2.915127 1_555
Se7 U8 2.922583 1_555
Se7 U6 2.933741 1_556
Se7 U4 3.055683 1_555
Se8 U9 2.922012 1_565
Se8 U10 2.977305 1_565
Se8 U2 2.985462 1_555
Se8 U6 2.993734 1_555
Se8 U7 3.155072 1_565
Se9 U10 2.922120 1_555
Se9 U7 2.982149 1_554
Se9 U9 2.987232 1_554
Se9 U3 2.994436 1_555
Se9 U6 3.184596 1_545
Se10 U10 2.922120 1_665
Se10 U4 2.982149 1_554
Se10 U9 2.987232 1_664
Se10 U0 2.994436 1_555
Se10 U5 3.184596 1_565
Se11 U9 2.922012 1_655
Se11 U10 2.977305 1_655
Se11 U1 2.985462 1_555
Se11 U5 2.993734 1_555
Se11 U4 3.155072 1_545
Se12 U10 2.922120 1_655
Se12 U1 2.982149 1_554
Se12 U9 2.987232 1_654
Se12 U5 2.994436 1_555
Se12 U3 3.184596 1_655
Se13 U9 2.922012 1_665
Se13 U10 2.977305 1_665
Se13 U4 2.985462 1_555
Se13 U0 2.993734 1_555
Se13 U2 3.155072 1_655
Se14 U9 2.922012 1_555
Se14 U10 2.977305 1_555
Se14 U7 2.985462 1_555
Se14 U3 2.993734 1_555
Se14 U1 3.155072 1_455
Se15 U10 2.922120 1_565
Se15 U2 2.982149 1_554
Se15 U9 2.987232 1_564
Se15 U6 2.994436 1_555
Se15 U0 3.184596 1_455
Se16 U2 2.887467 1_555
Se16 U1 2.887467 1_455
Se16 U3 2.889299 1_555
Se16 U0 2.889299 1_455
Se17 U3 2.886825 1_555
Se17 U0 2.886825 1_455
Se17 U2 2.890105 1_554
Se17 U1 2.890105 1_454
Se18 U5 2.886825 1_555
Se18 U6 2.886825 1_545
Se18 U7 2.890105 1_554
Se18 U4 2.890105 1_544
Se19 U7 2.887467 1_555
Se19 U4 2.887467 1_545
Se19 U5 2.889299 1_555
Se19 U6 2.889299 1_545
