# generated using pymatgen
data_Hf(GaNi4)3
_symmetry_space_group_name_H-M   'P 1'
_cell_length_a   3.59385987
_cell_length_b   3.59385685
_cell_length_c   14.16093944
_cell_angle_alpha   90.00000000
_cell_angle_beta   90.00000000
_cell_angle_gamma   90.00000000
_symmetry_Int_Tables_number   1
_chemical_formula_structural   Hf(GaNi4)3
_chemical_formula_sum   'Hf1 Ga3 Ni12'
_cell_volume   182.90011527
_cell_formula_units_Z   1
loop_
 _symmetry_equiv_pos_site_id
 _symmetry_equiv_pos_as_xyz
  1  'x, y, z'
loop_
 _atom_site_type_symbol
 _atom_site_label
 _atom_site_symmetry_multiplicity
 _atom_site_fract_x
 _atom_site_fract_y
 _atom_site_fract_z
 _atom_site_occupancy
  Hf  Hf0  1  0.00000000  0.00000000  0.00000000  1
  Ga  Ga0  1  -0.00000000  0.00000000  0.25581621  1
  Ga  Ga1  1  0.00000000  0.00000000  0.50000000  1
  Ga  Ga2  1  0.00000000  0.00000000  0.74418379  1
  Ni  Ni0  1  0.50000000  0.50000000  0.00000000  1
  Ni  Ni1  1  0.50000000  0.50000000  0.25519613  1
  Ni  Ni2  1  0.50000000  0.50000000  0.50000000  1
  Ni  Ni3  1  0.50000000  0.50000000  0.74480387  1
  Ni  Ni4  1  0.50000000  0.00000000  0.13344619  1
  Ni  Ni5  1  0.50000000  0.00000000  0.37721550  1
  Ni  Ni6  1  0.50000000  0.00000000  0.62278450  1
  Ni  Ni7  1  0.50000000  0.00000000  0.86655381  1
  Ni  Ni8  1  0.00000000  0.50000000  0.13344619  1
  Ni  Ni9  1  0.00000000  0.50000000  0.37721550  1
  Ni  Ni10  1  -0.00000000  0.50000000  0.62278450  1
  Ni  Ni11  1  -0.00000000  0.50000000  0.86655381  1
loop_
_geom_bond_atom_site_label_1
_geom_bond_atom_site_label_2
_geom_bond_distance
_geom_bond_site_symmetry_2
Hf0 Ni0 2.541242 1_455
Hf0 Ni0 2.541242 1_555
Hf0 Ni0 2.541242 1_545
Hf0 Ni0 2.541242 1_445
Hf0 Ni8 2.607682 1_545
Hf0 Ni8 2.607682 1_555
Hf0 Ni11 2.607682 1_544
Hf0 Ni11 2.607682 1_554
Hf0 Ni7 2.607683 1_554
Hf0 Ni4 2.607683 1_455
Hf0 Ni7 2.607683 1_454
Hf0 Ni4 2.607683 1_555
Ga0 Ni9 2.486836 1_555
Ga0 Ni9 2.486836 1_545
Ga0 Ni5 2.486837 1_555
Ga0 Ni5 2.486837 1_455
Ga0 Ni8 2.496358 1_545
Ga0 Ni8 2.496358 1_555
Ga0 Ni4 2.496360 1_455
Ga0 Ni4 2.496360 1_555
Ga0 Ni1 2.541257 1_555
Ga0 Ni1 2.541257 1_455
Ga0 Ni1 2.541257 1_545
Ga0 Ni1 2.541257 1_445
Ga1 Ni10 2.500436 1_545
Ga1 Ni10 2.500436 1_555
Ga1 Ni9 2.500436 1_555
Ga1 Ni9 2.500436 1_545
Ga1 Ni6 2.500437 1_455
Ga1 Ni6 2.500437 1_555
Ga1 Ni5 2.500437 1_455
Ga1 Ni5 2.500437 1_555
Ga1 Ni2 2.541242 1_555
Ga1 Ni2 2.541242 1_545
Ga1 Ni2 2.541242 1_445
Ga1 Ni2 2.541242 1_455
Ga2 Ni10 2.486836 1_545
Ga2 Ni10 2.486836 1_555
Ga2 Ni6 2.486837 1_555
Ga2 Ni6 2.486837 1_455
Ga2 Ni11 2.496358 1_545
Ga2 Ni11 2.496358 1_555
Ga2 Ni7 2.496360 1_455
Ga2 Ni7 2.496360 1_555
Ga2 Ni3 2.541257 1_545
Ga2 Ni3 2.541257 1_455
Ga2 Ni3 2.541257 1_555
Ga2 Ni3 2.541257 1_445
Ni0 Ni4 2.607682 1_565
Ni0 Ni4 2.607682 1_555
Ni0 Ni7 2.607682 1_564
Ni0 Ni7 2.607682 1_554
Ni0 Ni11 2.607683 1_654
Ni0 Ni8 2.607683 1_655
Ni0 Ni11 2.607683 1_554
Ni0 Ni8 2.607683 1_555
Ni1 Ni4 2.490271 1_565
Ni1 Ni4 2.490271 1_555
Ni1 Ni8 2.490272 1_555
Ni1 Ni8 2.490272 1_655
Ni1 Ni5 2.492914 1_555
Ni1 Ni5 2.492914 1_565
Ni1 Ni9 2.492915 1_655
Ni1 Ni9 2.492915 1_555
Ni2 Ni6 2.500436 1_565
Ni2 Ni6 2.500436 1_555
Ni2 Ni5 2.500436 1_565
Ni2 Ni5 2.500436 1_555
Ni2 Ni9 2.500437 1_555
Ni2 Ni9 2.500437 1_655
Ni3 Ni7 2.490271 1_565
Ni3 Ni7 2.490271 1_555
Ni3 Ni6 2.492914 1_555
Ni3 Ni6 2.492914 1_565
Ni4 Ni8 2.541242 1_545
Ni4 Ni8 2.541242 1_555
Ni4 Ni8 2.541242 1_655
Ni4 Ni8 2.541242 1_645
Ni5 Ni9 2.541242 1_645
Ni5 Ni9 2.541242 1_555
Ni5 Ni9 2.541242 1_655
Ni5 Ni9 2.541242 1_545
Ni10 Ni3 2.492915 1_455
Ni10 Ni3 2.492915 1_555
Ni10 Ni2 2.500437 1_455
Ni10 Ni2 2.500437 1_555
Ni10 Ni6 2.541242 1_565
Ni10 Ni6 2.541242 1_555
Ni10 Ni6 2.541242 1_465
Ni10 Ni6 2.541242 1_455
Ni11 Ni3 2.490272 1_555
Ni11 Ni3 2.490272 1_455
Ni11 Ni7 2.541242 1_565
Ni11 Ni7 2.541242 1_455
Ni11 Ni7 2.541242 1_555
Ni11 Ni7 2.541242 1_465
