# generated using pymatgen
data_Ca(MoO2)2
_symmetry_space_group_name_H-M   'P 1'
_cell_length_a   6.57471097
_cell_length_b   6.57471097
_cell_length_c   16.15019400
_cell_angle_alpha   90.00000000
_cell_angle_beta   90.00000000
_cell_angle_gamma   120.00000974
_symmetry_Int_Tables_number   1
_chemical_formula_structural   Ca(MoO2)2
_chemical_formula_sum   'Ca6 Mo12 O24'
_cell_volume   604.59097999
_cell_formula_units_Z   6
loop_
 _symmetry_equiv_pos_site_id
 _symmetry_equiv_pos_as_xyz
  1  'x, y, z'
loop_
 _atom_site_type_symbol
 _atom_site_label
 _atom_site_symmetry_multiplicity
 _atom_site_fract_x
 _atom_site_fract_y
 _atom_site_fract_z
 _atom_site_occupancy
  Ca  Ca0  1  0.33333300  0.66666700  0.95360000  1
  Ca  Ca1  1  0.00000000  0.00000000  0.62147700  1
  Ca  Ca2  1  0.66666700  0.33333300  0.66248600  1
  Ca  Ca3  1  0.66666700  0.33333300  0.29195000  1
  Ca  Ca4  1  0.00000000  0.00000000  0.99879000  1
  Ca  Ca5  1  0.00000000  0.00000000  0.37978000  1
  Mo  Mo0  1  0.83480900  0.16519100  0.83413500  1
  Mo  Mo1  1  0.83480900  0.66961900  0.83413500  1
  Mo  Mo2  1  0.49992500  0.50007500  0.49928800  1
  Mo  Mo3  1  0.33038100  0.16519100  0.83413500  1
  Mo  Mo4  1  0.49992500  0.99985000  0.49928800  1
  Mo  Mo5  1  0.33333300  0.66666700  0.33413700  1
  Mo  Mo6  1  0.33333300  0.66666700  0.71867500  1
  Mo  Mo7  1  0.16966600  0.83033400  0.16826200  1
  Mo  Mo8  1  0.00015000  0.50007500  0.49928800  1
  Mo  Mo9  1  0.16966600  0.33933300  0.16826200  1
  Mo  Mo10  1  0.66066700  0.83033400  0.16826200  1
  Mo  Mo11  1  0.66666700  0.33333300  0.05219100  1
  O  O0  1  0.15220700  0.84779300  0.90459300  1
  O  O1  1  0.00000000  0.00000000  0.76516800  1
  O  O2  1  0.15220700  0.30441400  0.90459300  1
  O  O3  1  0.69558600  0.84779300  0.90459300  1
  O  O4  1  0.82094300  0.17905700  0.56884800  1
  O  O5  1  0.98722500  0.49361200  0.75755500  1
  O  O6  1  0.66666700  0.33333300  0.42983000  1
  O  O7  1  0.50638800  0.01277500  0.75755500  1
  O  O8  1  0.66666700  0.33333300  0.90426400  1
  O  O9  1  0.82094300  0.64188500  0.56884800  1
  O  O10  1  0.35811500  0.17905700  0.56884800  1
  O  O11  1  0.50638800  0.49361200  0.75755500  1
  O  O12  1  0.48116200  0.51883800  0.24275100  1
  O  O13  1  0.62316600  0.81158300  0.41872700  1
  O  O14  1  0.18841700  0.37683400  0.41872700  1
  O  O15  1  0.33333300  0.66666700  0.09892200  1
  O  O16  1  0.33333300  0.66666700  0.57131900  1
  O  O17  1  0.48116200  0.96232400  0.24275100  1
  O  O18  1  0.03767600  0.51883800  0.24275100  1
  O  O19  1  0.18841700  0.81158300  0.41872700  1
  O  O20  1  0.32408800  0.16204400  0.09251900  1
  O  O21  1  0.83795600  0.67591200  0.09251900  1
  O  O22  1  0.00000000  0.00000000  0.23390000  1
  O  O23  1  0.83795600  0.16204400  0.09251900  1
loop_
_geom_bond_atom_site_label_1
_geom_bond_atom_site_label_2
_geom_bond_distance
_geom_bond_site_symmetry_2
Ca0 O0 2.209255 1_555
Ca0 O2 2.209260 1_555
Ca0 O3 2.209260 1_555
Ca0 O15 2.346978 1_556
Ca1 O4 2.209114 1_455
Ca1 O9 2.209119 1_445
Ca1 O10 2.209119 1_555
Ca1 O1 2.320638 1_555
Ca2 O10 2.318081 1_555
Ca2 O9 2.318081 1_555
Ca2 O4 2.318082 1_555
Ca2 O5 2.385122 1_555
Ca2 O7 2.385122 1_555
Ca2 O11 2.385122 1_555
Ca3 O6 2.226789 1_555
Ca3 O18 2.256967 1_655
Ca3 O17 2.256967 1_545
Ca3 O12 2.256973 1_555
Ca4 O2 2.306221 1_555
Ca4 O3 2.306221 1_445
Ca4 O0 2.306221 1_545
Ca4 O20 2.386754 1_556
Ca4 O21 2.386754 1_446
Ca4 O23 2.386755 1_456
Ca5 O13 2.235939 1_445
Ca5 O14 2.235939 1_555
Ca5 O19 2.235940 1_545
Ca5 O22 2.355990 1_555
Mo0 O2 2.139460 1_655
Mo0 O3 2.139460 1_545
Mo0 O1 2.186172 1_655
Mo0 O8 2.224650 1_555
Mo0 O5 2.243321 1_555
Mo0 O7 2.243321 1_555
Mo1 O3 2.139455 1_555
Mo1 O0 2.139459 1_655
Mo1 O1 2.186167 1_665
Mo1 O8 2.224660 1_555
Mo1 O11 2.243321 1_555
Mo1 O5 2.243331 1_555
Mo2 O9 2.148984 1_555
Mo2 O10 2.148984 1_555
Mo2 O6 2.205411 1_555
Mo2 O14 2.210079 1_555
Mo2 O13 2.210079 1_555
Mo2 O16 2.225379 1_555
Mo3 O2 2.139455 1_555
Mo3 O0 2.139459 1_545
Mo3 O1 2.186167 1_555
Mo3 O8 2.224660 1_555
Mo3 O11 2.243321 1_555
Mo3 O7 2.243331 1_555
Mo4 O10 2.148980 1_565
Mo4 O4 2.148984 1_565
Mo4 O6 2.205406 1_565
Mo4 O19 2.210079 1_555
Mo4 O13 2.210080 1_555
Mo4 O16 2.225373 1_555
Mo5 O19 2.142365 1_555
Mo5 O13 2.142369 1_555
Mo5 O14 2.142369 1_555
Mo5 O17 2.238800 1_555
Mo5 O18 2.238800 1_555
Mo5 O12 2.238805 1_555
Mo6 O7 2.068311 1_565
Mo6 O5 2.068311 1_455
Mo6 O11 2.068323 1_555
Mo6 O16 2.379828 1_555
Mo7 O18 2.148802 1_555
Mo7 O17 2.148802 1_555
Mo7 O15 2.174353 1_555
Mo7 O22 2.203814 1_565
Mo7 O21 2.251502 1_455
Mo7 O20 2.251502 1_565
Mo8 O9 2.148980 1_455
Mo8 O4 2.148984 1_455
Mo8 O6 2.205406 1_455
Mo8 O19 2.210079 1_555
Mo8 O14 2.210080 1_555
Mo8 O16 2.225373 1_555
Mo9 O18 2.148798 1_555
Mo9 O12 2.148802 1_555
Mo9 O15 2.174353 1_555
Mo9 O22 2.203818 1_555
Mo9 O23 2.251502 1_455
Mo9 O20 2.251507 1_555
Mo10 O17 2.148798 1_555
Mo10 O12 2.148802 1_555
Mo10 O15 2.174353 1_555
Mo10 O22 2.203818 1_665
Mo10 O23 2.251502 1_565
Mo10 O21 2.251507 1_555
Mo11 O23 2.056457 1_555
Mo11 O21 2.056462 1_555
Mo11 O20 2.056462 1_555
Mo11 O8 2.389050 1_554
