# generated using pymatgen
data_Zr(AlFe)6
_symmetry_space_group_name_H-M   'P 1'
_cell_length_a   6.49563113
_cell_length_b   6.49563113
_cell_length_c   6.49563113
_cell_angle_alpha   135.46758247
_cell_angle_beta   98.36386189
_cell_angle_gamma   98.14548887
_symmetry_Int_Tables_number   1
_chemical_formula_structural   Zr(AlFe)6
_chemical_formula_sum   'Zr1 Al6 Fe6'
_cell_volume   177.87702657
_cell_formula_units_Z   1
loop_
 _symmetry_equiv_pos_site_id
 _symmetry_equiv_pos_as_xyz
  1  'x, y, z'
loop_
 _atom_site_type_symbol
 _atom_site_label
 _atom_site_symmetry_multiplicity
 _atom_site_fract_x
 _atom_site_fract_y
 _atom_site_fract_z
 _atom_site_occupancy
  Zr  Zr0  1  -0.00000000  0.00000000  -0.00000000  1
  Al  Al0  1  0.65579932  0.65579932  -0.00000000  1
  Al  Al1  1  0.34420068  0.34420068  -0.00000000  1
  Al  Al2  1  0.33520811  0.00000000  0.33520811  1
  Al  Al3  1  0.66479189  -0.00000000  0.66479189  1
  Al  Al4  1  0.18619185  0.68619185  0.50000000  1
  Al  Al5  1  0.81380815  0.31380815  0.50000000  1
  Fe  Fe0  1  0.50000000  0.50000000  0.50000000  1
  Fe  Fe1  1  0.50000000  0.00000000  -0.00000000  1
  Fe  Fe2  1  -0.00000000  0.50000000  -0.00000000  1
  Fe  Fe3  1  -0.00000000  0.00000000  0.50000000  1
  Fe  Fe4  1  0.76019139  0.50000000  0.26019139  1
  Fe  Fe5  1  0.23980861  0.50000000  0.73980861  1
loop_
_geom_bond_atom_site_label_1
_geom_bond_atom_site_label_2
_geom_bond_distance
_geom_bond_site_symmetry_2
Al0 Fe5 2.576830 1_554
Al0 Fe4 2.576830 1_555
Al0 Fe1 2.581503 1_565
Al0 Fe0 2.581503 1_554
Al0 Fe2 2.581503 1_655
Al0 Fe3 2.581503 1_665
Al0 Al1 2.651885 1_555
Al0 Al5 2.804667 1_554
Al0 Al5 2.804667 1_565
Al0 Zr0 2.929347 1_665
Al1 Fe5 2.576830 1_554
Al1 Fe4 2.576830 1_555
Al1 Fe3 2.581503 1_554
Al1 Fe2 2.581503 1_555
Al1 Fe0 2.581503 1_555
Al1 Fe1 2.581503 1_555
Al1 Al4 2.804667 1_544
Al1 Al4 2.804667 1_555
Al1 Zr0 2.929347 1_555
Al2 Fe3 2.562204 1_555
Al2 Fe2 2.562204 1_545
Al2 Fe0 2.562204 1_555
Al2 Fe1 2.562204 1_555
Al2 Fe5 2.591159 1_555
Al2 Fe5 2.591159 1_544
Al2 Al3 2.798779 1_555
Al2 Zr0 2.846540 1_555
Al3 Fe0 2.562204 1_545
Al3 Fe2 2.562204 1_656
Al3 Fe1 2.562204 1_556
Al3 Fe3 2.562204 1_655
Al3 Fe4 2.591159 1_545
Al3 Fe4 2.591159 1_556
Al3 Zr0 2.846540 1_656
Al4 Fe3 2.513231 1_565
Al4 Fe2 2.513231 1_555
Al4 Fe0 2.513231 1_555
Al4 Fe1 2.513231 1_566
Al4 Fe4 2.580304 1_455
Al4 Fe5 2.580304 1_555
Al4 Zr0 2.927246 1_566
Al4 Zr0 2.927246 1_555
Al5 Fe3 2.513231 1_655
Al5 Fe2 2.513231 1_656
Al5 Fe0 2.513231 1_555
Al5 Fe1 2.513231 1_555
Al5 Fe5 2.580304 1_655
Al5 Fe4 2.580304 1_555
Al5 Zr0 2.927246 1_655
Al5 Zr0 2.927246 1_666
Fe0 Fe5 2.459434 1_555
Fe0 Fe4 2.459434 1_555
Fe0 Fe1 2.461262 1_555
Fe0 Fe1 2.461262 1_566
Fe0 Zr0 3.247816 1_666
Fe0 Zr0 3.247816 1_555
Fe1 Fe5 2.459434 1_544
Fe1 Fe4 2.459434 1_555
Fe1 Zr0 3.247816 1_555
Fe1 Zr0 3.247816 1_655
Fe2 Fe5 2.459434 1_554
Fe2 Fe4 2.459434 1_455
Fe2 Fe3 2.461262 1_565
Fe2 Fe3 2.461262 1_554
Fe2 Zr0 3.247816 1_555
Fe2 Zr0 3.247816 1_565
Fe3 Fe5 2.459434 1_555
Fe3 Fe4 2.459434 1_445
Fe3 Zr0 3.247816 1_555
Fe3 Zr0 3.247816 1_556
Fe4 Zr0 3.194499 1_655
Fe4 Zr0 3.194499 1_666
Fe5 Zr0 3.194499 1_555
Fe5 Zr0 3.194499 1_566
