# generated using pymatgen
data_MgSi2
_symmetry_space_group_name_H-M   'P 1'
_cell_length_a   5.89432100
_cell_length_b   7.49349633
_cell_length_c   10.23025553
_cell_angle_alpha   110.65812690
_cell_angle_beta   89.32801654
_cell_angle_gamma   97.54290004
_symmetry_Int_Tables_number   1
_chemical_formula_structural   MgSi2
_chemical_formula_sum   'Mg8 Si16'
_cell_volume   418.85719761
_cell_formula_units_Z   8
loop_
 _symmetry_equiv_pos_site_id
 _symmetry_equiv_pos_as_xyz
  1  'x, y, z'
loop_
 _atom_site_type_symbol
 _atom_site_label
 _atom_site_symmetry_multiplicity
 _atom_site_fract_x
 _atom_site_fract_y
 _atom_site_fract_z
 _atom_site_occupancy
  Mg  Mg0  1  0.22476200  0.73611800  0.89638100  1
  Mg  Mg1  1  0.78729000  0.07033500  0.21386000  1
  Mg  Mg2  1  0.65857200  0.06709700  0.63658300  1
  Mg  Mg3  1  0.66828700  0.44479000  0.14784600  1
  Mg  Mg4  1  0.92286300  0.47012700  0.62483400  1
  Mg  Mg5  1  0.15065400  0.43203600  0.34198400  1
  Mg  Mg6  1  0.14493600  0.06996300  0.72408300  1
  Mg  Mg7  1  0.40452100  0.40643300  0.63418400  1
  Si  Si0  1  0.17763600  0.42465900  0.05999800  1
  Si  Si1  1  0.45004300  0.08231400  0.40163200  1
  Si  Si2  1  0.91837400  0.76555200  0.48834500  1
  Si  Si3  1  0.37360100  0.77645900  0.17529900  1
  Si  Si4  1  0.92489600  0.40829100  0.87225400  1
  Si  Si5  1  0.27568000  0.10325100  0.12966400  1
  Si  Si6  1  0.66339400  0.78904000  0.75938300  1
  Si  Si7  1  0.52553700  0.72879900  0.39143500  1
  Si  Si8  1  0.30023400  0.72926500  0.59974100  1
  Si  Si9  1  0.73856000  0.71707200  0.98608800  1
  Si  Si10  1  0.54210800  0.07700500  0.94015700  1
  Si  Si11  1  0.98416700  0.77008100  0.25368900  1
  Si  Si12  1  0.49772100  0.35928600  0.88199700  1
  Si  Si13  1  0.04896800  0.09495800  0.45255200  1
  Si  Si14  1  0.64819200  0.40250200  0.39816100  1
  Si  Si15  1  0.94920200  0.04331500  0.95887100  1
loop_
_geom_bond_atom_site_label_1
_geom_bond_atom_site_label_2
_geom_bond_distance
_geom_bond_site_symmetry_2
Mg0 Si4 2.768070 1_455
Mg0 Si10 2.860533 1_565
Mg0 Si15 2.874867 1_465
Mg0 Si3 2.895415 1_556
Mg0 Si5 2.919195 1_566
Mg0 Si6 2.973889 1_555
Mg0 Si9 2.999820 1_455
Mg0 Si8 3.045378 1_555
Mg0 Si9 3.210207 1_555
Mg1 Si15 2.715930 1_554
Mg1 Si1 2.735920 1_555
Mg1 Si14 2.758785 1_555
Mg1 Si11 2.813963 1_545
Mg1 Si9 2.825510 1_544
Mg1 Si13 2.841054 1_655
Mg1 Si3 2.991795 1_545
Mg1 Si5 2.999193 1_655
Mg1 Si10 3.184959 1_554
Mg1 Si5 3.209778 1_555
Mg2 Si1 2.756918 1_555
Mg2 Si6 2.789950 1_545
Mg2 Si2 2.861276 1_545
Mg2 Si7 2.892986 1_545
Mg2 Si12 2.933727 1_555
Mg2 Si13 2.988784 1_655
Mg2 Si8 2.992263 1_545
Mg2 Mg6 3.008434 1_655
Mg2 Si4 3.082153 1_555
Mg2 Mg7 3.123052 1_555
Mg2 Mg6 3.147643 1_555
Mg2 Si10 3.149990 1_555
Mg2 Mg4 3.252511 1_555
Mg3 Si14 2.688432 1_555
Mg3 Si12 2.735611 1_554
Mg3 Si11 2.752146 1_555
Mg3 Si10 2.833781 1_554
Mg3 Si7 2.850642 1_555
Mg3 Si0 3.007521 1_555
Mg3 Si9 3.036018 1_554
Mg3 Si4 3.126652 1_554
Mg3 Si0 3.131133 1_655
Mg3 Si3 3.146807 1_555
Mg3 Si5 3.171641 1_555
Mg4 Si14 2.701645 1_555
Mg4 Si4 2.729724 1_555
Mg4 Si8 2.826435 1_655
Mg4 Si6 2.921288 1_555
Mg4 Si13 2.929881 1_655
Mg4 Si2 3.008064 1_555
Mg5 Si5 2.827425 1_555
Mg5 Si7 2.833061 1_555
Mg5 Si8 2.843671 1_555
Mg5 Si0 2.868690 1_555
Mg5 Si2 2.927861 1_455
Mg5 Si14 3.004747 1_455
Mg5 Si14 3.046205 1_555
Mg5 Si13 3.101843 1_555
Mg6 Si8 2.696059 1_545
Mg6 Si15 2.711679 1_455
Mg6 Si12 2.838695 1_555
Mg6 Si2 2.863060 1_445
Mg6 Si13 2.916022 1_555
Mg6 Si4 2.917712 1_455
Mg6 Si10 3.221221 1_555
Mg7 Si8 2.711307 1_555
Mg7 Si12 2.751252 1_555
Mg7 Si1 2.776697 1_555
Mg7 Si14 2.788101 1_555
Mg7 Si6 2.914640 1_555
Mg7 Si13 3.006593 1_555
Si0 Si4 2.403380 1_454
Si0 Si12 2.578414 1_554
Si0 Si3 2.591072 1_555
Si0 Si15 2.825902 1_454
Si0 Si5 2.868599 1_555
Si1 Si13 2.421619 1_555
Si1 Si14 2.538815 1_555
Si1 Si3 2.612694 1_545
Si1 Si7 2.709213 1_545
Si2 Si7 2.472670 1_555
Si2 Si8 2.622645 1_655
Si3 Si7 2.550737 1_555
Si3 Si5 2.780617 1_565
Si3 Si9 2.849272 1_554
Si4 Si9 2.579212 1_555
Si6 Si8 2.600791 1_555
Si6 Si9 2.614458 1_555
Si7 Si8 2.496891 1_555
Si10 Si12 2.435941 1_555
Si10 Si5 2.450325 1_556
Si10 Si15 2.462135 1_555
Si10 Si6 2.479082 1_545
Si11 Si3 2.422717 1_655
Si11 Si2 2.438560 1_555
Si11 Si13 2.547729 1_665
Si12 Si4 2.502365 1_555
Si12 Si9 2.712767 1_555
Si13 Si2 2.636650 1_445
Si14 Si7 2.662692 1_555
Si14 Si2 2.813292 1_555
Si15 Si5 2.501212 1_656
Si15 Si6 2.669781 1_545
Si15 Si9 2.696467 1_545
