# generated using pymatgen
data_Sm2Fe4Co13
_symmetry_space_group_name_H-M   'P 1'
_cell_length_a   6.34600586
_cell_length_b   6.34600586
_cell_length_c   6.34600550
_cell_angle_alpha   82.63032468
_cell_angle_beta   82.63032468
_cell_angle_gamma   82.63032591
_symmetry_Int_Tables_number   1
_chemical_formula_structural   Sm2Fe4Co13
_chemical_formula_sum   'Sm2 Fe4 Co13'
_cell_volume   249.73040640
_cell_formula_units_Z   1
loop_
 _symmetry_equiv_pos_site_id
 _symmetry_equiv_pos_as_xyz
  1  'x, y, z'
loop_
 _atom_site_type_symbol
 _atom_site_label
 _atom_site_symmetry_multiplicity
 _atom_site_fract_x
 _atom_site_fract_y
 _atom_site_fract_z
 _atom_site_occupancy
  Sm  Sm0  1  0.65695300  0.65695300  0.65695300  1
  Sm  Sm1  1  0.34318000  0.34318000  0.34318000  1
  Fe  Fe0  1  0.99749000  0.99749000  0.50423400  1
  Fe  Fe1  1  0.50423400  0.99749000  0.99749000  1
  Fe  Fe2  1  0.99749000  0.50423400  0.99749000  1
  Fe  Fe3  1  0.09376100  0.09376100  0.09376100  1
  Co  Co0  1  0.71305400  0.28714700  0.00017800  1
  Co  Co1  1  0.00017800  0.71305400  0.28714700  1
  Co  Co2  1  0.28714700  0.00017800  0.71305400  1
  Co  Co3  1  0.00017800  0.28714700  0.71305400  1
  Co  Co4  1  0.71305400  0.00017800  0.28714700  1
  Co  Co5  1  0.28714700  0.71305400  0.00017800  1
  Co  Co6  1  0.34320000  0.34320000  0.84736700  1
  Co  Co7  1  0.84736700  0.34320000  0.34320000  1
  Co  Co8  1  0.34320000  0.84736700  0.34320000  1
  Co  Co9  1  0.65585900  0.65585900  0.15771500  1
  Co  Co10  1  0.15771500  0.65585900  0.65585900  1
  Co  Co11  1  0.65585900  0.15771500  0.65585900  1
  Co  Co12  1  0.90293400  0.90293400  0.90293400  1
loop_
_geom_bond_atom_site_label_1
_geom_bond_atom_site_label_2
_geom_bond_distance
_geom_bond_site_symmetry_2
Fe0 Fe3 2.609795 1_665
Fe0 Sm0 3.225371 1_555
Fe0 Sm1 3.279313 1_665
Fe1 Fe3 2.609795 1_566
Fe1 Sm0 3.225371 1_555
Fe1 Sm1 3.279313 1_566
Fe2 Fe3 2.609795 1_656
Fe2 Sm0 3.225371 1_555
Fe2 Sm1 3.279313 1_656
Fe3 Sm1 3.073117 1_555
Co0 Fe1 2.402909 1_544
Co0 Fe2 2.404230 1_554
Co0 Co4 2.404591 1_555
Co0 Co3 2.405890 1_654
Co0 Co11 2.514202 1_554
Co0 Co7 2.518729 1_555
Co0 Co6 2.618590 1_554
Co0 Co9 2.625878 1_555
Co0 Fe3 2.667614 1_655
Co0 Co12 2.686862 1_544
Co0 Sm1 3.007925 1_555
Co0 Sm0 3.008587 1_554
Co1 Fe2 2.402909 1_454
Co1 Fe0 2.404230 1_455
Co1 Co5 2.404591 1_555
Co1 Co4 2.405890 1_465
Co1 Co9 2.514202 1_455
Co1 Co8 2.518729 1_555
Co1 Co7 2.618590 1_455
Co1 Co10 2.625878 1_555
Co1 Fe3 2.667614 1_565
Co1 Co12 2.686862 1_454
Co1 Sm1 3.007925 1_555
Co1 Sm0 3.008587 1_455
Co2 Fe0 2.402909 1_445
Co2 Fe1 2.404230 1_545
Co2 Co3 2.404591 1_555
Co2 Co5 2.405890 1_546
Co2 Co6 2.518729 1_555
Co2 Co8 2.618590 1_545
Co2 Fe3 2.667614 1_556
Co2 Sm1 3.007925 1_555
Co2 Sm0 3.008587 1_545
Co3 Fe0 2.402909 1_445
Co3 Fe2 2.404230 1_455
Co3 Co6 2.518729 1_555
Co3 Co7 2.618590 1_455
Co3 Fe3 2.667614 1_556
Co3 Sm1 3.007925 1_555
Co3 Sm0 3.008587 1_455
Co4 Fe1 2.402909 1_544
Co4 Fe0 2.404230 1_545
Co4 Co9 2.514202 1_545
Co4 Co7 2.518729 1_555
Co4 Co8 2.618590 1_545
Co4 Fe3 2.667614 1_655
Co4 Sm1 3.007925 1_555
Co4 Sm0 3.008587 1_545
Co5 Fe2 2.402909 1_454
Co5 Fe1 2.404230 1_554
Co5 Co8 2.518729 1_555
Co5 Co6 2.618590 1_554
Co5 Co9 2.625878 1_555
Co5 Fe3 2.667614 1_565
Co5 Sm1 3.007925 1_555
Co5 Sm0 3.008587 1_554
Co6 Fe2 2.429700 1_455
Co6 Fe1 2.429700 1_545
Co6 Fe3 2.613271 1_556
Co6 Sm0 3.028451 1_555
Co6 Sm1 3.146399 1_556
Co6 Sm1 3.199606 1_555
Co7 Fe2 2.429699 1_554
Co7 Fe0 2.429700 1_545
Co7 Co9 2.438963 1_555
Co7 Fe3 2.613271 1_655
Co7 Sm0 3.028451 1_555
Co7 Sm1 3.146400 1_655
Co7 Sm1 3.199606 1_555
Co8 Fe1 2.429699 1_554
Co8 Fe0 2.429700 1_455
Co8 Co9 2.438963 1_555
Co8 Fe3 2.613271 1_565
Co8 Sm0 3.028451 1_555
Co8 Sm1 3.146400 1_565
Co8 Sm1 3.199606 1_555
Co9 Fe2 2.410439 1_554
Co9 Fe1 2.410439 1_554
Co9 Sm1 3.011920 1_555
Co9 Sm0 3.169965 1_555
Co9 Sm0 3.176074 1_554
Co10 Fe2 2.410439 1_455
Co10 Fe0 2.410439 1_455
Co10 Co8 2.438963 1_555
Co10 Co6 2.438963 1_555
Co10 Co5 2.514202 1_556
Co10 Co2 2.514202 1_565
Co10 Co12 2.619354 1_455
Co10 Co3 2.625878 1_555
Co10 Sm1 3.011920 1_555
Co10 Sm0 3.169965 1_555
Co10 Sm0 3.176074 1_455
Co11 Fe1 2.410439 1_545
Co11 Fe0 2.410439 1_545
Co11 Co7 2.438963 1_555
Co11 Co6 2.438963 1_555
Co11 Co3 2.514202 1_655
Co11 Co12 2.619354 1_545
Co11 Co4 2.625878 1_555
Co11 Co2 2.625878 1_555
Co11 Sm1 3.011920 1_555
Co11 Sm0 3.169965 1_555
Co11 Sm0 3.176074 1_545
Co12 Fe3 2.351199 1_666
Co12 Fe0 2.536768 1_555
Co12 Fe2 2.536769 1_555
Co12 Fe1 2.536769 1_555
Co12 Co9 2.619354 1_556
Co12 Co4 2.686862 1_566
Co12 Co3 2.686862 1_665
Co12 Co2 2.686862 1_665
Co12 Co5 2.686862 1_656
Co12 Sm0 3.030757 1_555
