# generated using pymatgen
data_BaTi4Bi4O15
_symmetry_space_group_name_H-M   'P 1'
_cell_length_a   20.55167809
_cell_length_b   20.55167809
_cell_length_c   20.55167809
_cell_angle_alpha   169.11391948
_cell_angle_beta   169.11391948
_cell_angle_gamma   15.41857849
_symmetry_Int_Tables_number   1
_chemical_formula_structural   BaTi4Bi4O15
_chemical_formula_sum   'Ba1 Ti4 Bi4 O15'
_cell_volume   309.59189631
_cell_formula_units_Z   1
loop_
 _symmetry_equiv_pos_site_id
 _symmetry_equiv_pos_as_xyz
  1  'x, y, z'
loop_
 _atom_site_type_symbol
 _atom_site_label
 _atom_site_symmetry_multiplicity
 _atom_site_fract_x
 _atom_site_fract_y
 _atom_site_fract_z
 _atom_site_occupancy
  Ba  Ba0  1  0.00000000  0.00000000  0.00000000  1
  Ti  Ti0  1  0.65280500  0.65280500  0.00000000  1
  Ti  Ti1  1  0.34719500  0.34719500  0.00000000  1
  Ti  Ti2  1  0.55129400  0.55129400  0.00000000  1
  Ti  Ti3  1  0.44870600  0.44870600  0.00000000  1
  Bi  Bi0  1  0.89591500  0.89591500  0.00000000  1
  Bi  Bi1  1  0.10408500  0.10408500  0.00000000  1
  Bi  Bi2  1  0.78067800  0.78067800  0.00000000  1
  Bi  Bi3  1  0.21932200  0.21932200  0.00000000  1
  O  O0  1  0.69658100  0.69658100  0.00000000  1
  O  O1  1  0.30341900  0.30341900  0.00000000  1
  O  O2  1  0.59861200  0.59861200  0.00000000  1
  O  O3  1  0.40138800  0.40138800  0.00000000  1
  O  O4  1  0.75000000  0.25000000  0.50000000  1
  O  O5  1  0.25000000  0.75000000  0.50000000  1
  O  O6  1  0.85661100  0.35661100  0.50000000  1
  O  O7  1  0.35661100  0.85661100  0.50000000  1
  O  O8  1  0.14338900  0.64338900  0.50000000  1
  O  O9  1  0.64338900  0.14338900  0.50000000  1
  O  O10  1  0.94823500  0.44823500  0.50000000  1
  O  O11  1  0.44823500  0.94823500  0.50000000  1
  O  O12  1  0.05176500  0.55176500  0.50000000  1
  O  O13  1  0.55176500  0.05176500  0.50000000  1
  O  O14  1  0.50000000  0.50000000  0.00000000  1
loop_
_geom_bond_atom_site_label_1
_geom_bond_atom_site_label_2
_geom_bond_distance
_geom_bond_site_symmetry_2
Ba0 O14 2.756943 1_545
Ba0 O14 2.756943 1_455
Ba0 O14 2.756943 1_556
Ba0 O14 2.756943 1_444
Ba0 O13 2.871597 1_555
Ba0 O12 2.871597 1_555
Ba0 O13 2.871597 1_454
Ba0 O12 2.871597 1_544
Ba0 O10 2.871597 1_444
Ba0 O11 2.871597 1_444
Ba0 O10 2.871597 1_455
Ba0 O11 2.871597 1_545
Bi0 O7 2.522563 1_655
Bi0 O7 2.522563 1_554
Bi0 O6 2.522563 1_554
Bi0 O6 2.522563 1_565
Bi0 O3 2.765941 1_565
Bi0 O3 2.765941 1_655
Bi0 O3 2.765941 1_666
Bi0 O3 2.765941 1_554
Bi0 O11 2.888237 1_554
Bi0 O10 2.888237 1_554
Bi0 O11 2.888237 1_655
Bi0 O10 2.888237 1_565
Bi1 O8 2.522563 1_555
Bi1 O8 2.522563 1_544
Bi1 O9 2.522563 1_555
Bi1 O9 2.522563 1_454
Bi1 O2 2.765941 1_455
Bi1 O2 2.765941 1_556
Bi1 O2 2.765941 1_444
Bi1 O2 2.765941 1_545
Bi1 O12 2.888237 1_555
Bi1 O12 2.888237 1_544
Bi1 O13 2.888237 1_454
Bi1 O13 2.888237 1_555
Bi2 O4 2.315555 1_565
Bi2 O4 2.315555 1_554
Bi2 O5 2.315555 1_554
Bi2 O5 2.315555 1_655
Bi3 O5 2.315555 1_544
Bi3 O5 2.315555 1_555
Bi3 O4 2.315555 1_454
Bi3 O4 2.315555 1_555
O0 Ti0 1.783077 1_555
O1 Ti1 1.783077 1_555
O2 Ti2 1.927349 1_555
O2 Ti0 2.207381 1_555
O3 Ti3 1.927349 1_555
O3 Ti1 2.207381 1_555
O6 Ti1 1.986822 1_656
O6 Ti1 1.986822 1_555
O7 Ti1 1.986822 1_566
O7 Ti1 1.986822 1_555
O8 Ti0 1.986822 1_455
O8 Ti0 1.986822 1_556
O9 Ti0 1.986822 1_556
O9 Ti0 1.986822 1_545
O10 Ti3 1.949547 1_555
O10 Ti3 1.949547 1_656
O11 Ti3 1.949547 1_555
O11 Ti3 1.949547 1_566
O12 Ti2 1.949547 1_455
O12 Ti2 1.949547 1_556
O13 Ti2 1.949547 1_545
O13 Ti2 1.949547 1_556
O14 Ti2 2.089299 1_555
O14 Ti3 2.089299 1_555
