# generated using pymatgen
data_Te4MoW3(SeS)2
_symmetry_space_group_name_H-M   'P 1'
_cell_length_a   3.39913229
_cell_length_b   3.39913229
_cell_length_c   38.78385700
_cell_angle_alpha   90.00000000
_cell_angle_beta   90.00000000
_cell_angle_gamma   120.00000568
_symmetry_Int_Tables_number   1
_chemical_formula_structural   Te4MoW3(SeS)2
_chemical_formula_sum   'Te4 Mo1 W3 Se2 S2'
_cell_volume   388.07685174
_cell_formula_units_Z   1
loop_
 _symmetry_equiv_pos_site_id
 _symmetry_equiv_pos_as_xyz
  1  'x, y, z'
loop_
 _atom_site_type_symbol
 _atom_site_label
 _atom_site_symmetry_multiplicity
 _atom_site_fract_x
 _atom_site_fract_y
 _atom_site_fract_z
 _atom_site_occupancy
  Te  Te0  1  0.00000000  0.00000000  0.33033400  1
  Te  Te1  1  0.00000000  0.00000000  0.70609100  1
  Te  Te2  1  0.00000000  0.00000000  0.23322300  1
  Te  Te3  1  0.00000000  0.00000000  0.60897500  1
  Mo  Mo0  1  0.00000000  0.00000000  0.46966900  1
  W  W0  1  0.00000000  0.00000000  0.09393400  1
  W  W1  1  0.33333300  0.66666700  0.28181200  1
  W  W2  1  0.33333300  0.66666700  0.65754500  1
  Se  Se0  1  0.33333300  0.66666700  0.42716800  1
  Se  Se1  1  0.33333300  0.66666700  0.51214200  1
  S  S0  1  0.33333300  0.66666700  0.05507300  1
  S  S1  1  0.33333300  0.66666700  0.13278100  1
loop_
_geom_bond_atom_site_label_1
_geom_bond_atom_site_label_2
_geom_bond_distance
_geom_bond_site_symmetry_2
Te0 W1 2.718970 1_545
Te0 W1 2.718972 1_445
Te0 W1 2.718972 1_555
Te1 W2 2.719614 1_545
Te1 W2 2.719616 1_555
Te1 W2 2.719616 1_445
Te2 W1 2.720769 1_545
Te2 W1 2.720771 1_555
Te2 W1 2.720771 1_445
Te3 W2 2.720258 1_545
Te3 W2 2.720260 1_445
Te3 W2 2.720260 1_555
Mo0 Se1 2.562196 1_545
Mo0 Se1 2.562198 1_445
Mo0 Se1 2.562198 1_555
Mo0 Se0 2.562894 1_545
Mo0 Se0 2.562896 1_555
Mo0 Se0 2.562896 1_445
S0 W0 2.474459 1_565
S0 W0 2.474462 1_555
S0 W0 2.474462 1_665
S1 W0 2.474129 1_565
S1 W0 2.474131 1_665
S1 W0 2.474131 1_555
