# generated using pymatgen
data_Sr2Ti2GaO7
_symmetry_space_group_name_H-M   'P 1'
_cell_length_a   11.60851972
_cell_length_b   11.60851972
_cell_length_c   5.58911525
_cell_angle_alpha   76.31574814
_cell_angle_beta   76.31574814
_cell_angle_gamma   140.17126221
_symmetry_Int_Tables_number   1
_chemical_formula_structural   Sr2Ti2GaO7
_chemical_formula_sum   'Sr4 Ti4 Ga2 O14'
_cell_volume   347.06863027
_cell_formula_units_Z   2
loop_
 _symmetry_equiv_pos_site_id
 _symmetry_equiv_pos_as_xyz
  1  'x, y, z'
loop_
 _atom_site_type_symbol
 _atom_site_label
 _atom_site_symmetry_multiplicity
 _atom_site_fract_x
 _atom_site_fract_y
 _atom_site_fract_z
 _atom_site_occupancy
  Sr  Sr0  1  0.16374300  0.36934800  0.97806400  1
  Sr  Sr1  1  0.83980300  0.63381300  0.00743900  1
  Sr  Sr2  1  0.63381300  0.83980300  0.00743900  1
  Sr  Sr3  1  0.36934800  0.16374300  0.97806400  1
  Ti  Ti0  1  0.93410200  0.58487900  0.47094500  1
  Ti  Ti1  1  0.58487900  0.93410200  0.47094500  1
  Ti  Ti2  1  0.43247600  0.08193600  0.47340300  1
  Ti  Ti3  1  0.08193600  0.43247600  0.47340300  1
  Ga  Ga0  1  0.82772200  0.82772200  0.38192700  1
  Ga  Ga1  1  0.17113200  0.17113200  0.54034500  1
  O  O0  1  0.32745700  0.68321200  0.50596700  1
  O  O1  1  0.88052100  0.88052100  0.99362300  1
  O  O2  1  0.30872700  0.66454300  0.02635300  1
  O  O3  1  0.37054800  0.21480900  0.48189200  1
  O  O4  1  0.17311700  0.83338400  0.50724300  1
  O  O5  1  0.16257500  0.82321400  0.01942600  1
  O  O6  1  0.12117500  0.12117500  0.25333900  1
  O  O7  1  0.68321200  0.32745700  0.50596700  1
  O  O8  1  0.66454300  0.30872700  0.02635300  1
  O  O9  1  0.78398000  0.62871400  0.56616400  1
  O  O10  1  0.62871400  0.78398000  0.56616400  1
  O  O11  1  0.21480900  0.37054800  0.48189200  1
  O  O12  1  0.82321400  0.16257500  0.01942600  1
  O  O13  1  0.83338400  0.17311700  0.50724300  1
loop_
_geom_bond_atom_site_label_1
_geom_bond_atom_site_label_2
_geom_bond_distance
_geom_bond_site_symmetry_2
Ga0 O10 1.865601 1_555
Ga0 O9 1.865601 1_555
Ga0 O6 1.893457 1_665
Ga0 O1 1.904124 1_554
Ga1 O3 1.866474 1_555
Ga1 O11 1.866474 1_555
Ga1 O6 1.899879 1_555
Ga1 O1 1.900596 1_445
O0 Ti1 1.880571 1_555
O0 Ti3 2.093504 1_555
O0 Sr0 2.508484 1_555
O0 Sr2 2.588708 1_555
O1 Sr1 2.496057 1_556
O1 Sr2 2.496057 1_556
O2 Ti3 1.800291 1_555
O2 Ti1 2.234516 1_554
O2 Sr2 2.511721 1_555
O2 Sr0 2.538201 1_554
O3 Ti2 2.149384 1_555
O3 Sr1 2.594419 1_555
O3 Sr3 2.689472 1_555
O4 Ti2 1.885557 1_565
O4 Ti0 2.076306 1_455
O4 Sr1 2.490708 1_456
O4 Sr3 2.582973 1_564
O5 Ti0 1.821174 1_455
O5 Ti2 2.199202 1_564
O5 Sr3 2.484520 1_564
O5 Sr1 2.532419 1_455
O6 Sr0 2.503511 1_554
O6 Sr3 2.503511 1_554
O7 Ti0 1.880571 1_555
O7 Ti2 2.093504 1_555
O7 Sr3 2.508484 1_555
O7 Sr1 2.588708 1_555
O8 Ti2 1.800291 1_555
O8 Ti0 2.234516 1_554
O8 Sr1 2.511721 1_555
O8 Sr3 2.538201 1_554
O9 Ti0 2.151860 1_555
O9 Sr3 2.564368 1_555
O9 Sr1 2.696777 1_556
O10 Ti1 2.151860 1_555
O10 Sr0 2.564368 1_555
O10 Sr2 2.696777 1_556
O11 Ti3 2.149384 1_555
O11 Sr2 2.594419 1_555
O11 Sr0 2.689472 1_555
O12 Ti1 1.821174 1_545
O12 Ti3 2.199202 1_654
O12 Sr0 2.484520 1_654
O12 Sr2 2.532419 1_545
O13 Ti3 1.885557 1_655
O13 Ti1 2.076306 1_545
O13 Sr2 2.490708 1_546
O13 Sr0 2.582973 1_654
