# generated using pymatgen
data_KNdV4O12
_symmetry_space_group_name_H-M   'P 1'
_cell_length_a   6.09552326
_cell_length_b   6.09552326
_cell_length_c   7.25154959
_cell_angle_alpha   90.00000000
_cell_angle_beta   90.00000000
_cell_angle_gamma   72.69958219
_symmetry_Int_Tables_number   1
_chemical_formula_structural   KNdV4O12
_chemical_formula_sum   'K1 Nd1 V4 O12'
_cell_volume   257.24467888
_cell_formula_units_Z   1
loop_
 _symmetry_equiv_pos_site_id
 _symmetry_equiv_pos_as_xyz
  1  'x, y, z'
loop_
 _atom_site_type_symbol
 _atom_site_label
 _atom_site_symmetry_multiplicity
 _atom_site_fract_x
 _atom_site_fract_y
 _atom_site_fract_z
 _atom_site_occupancy
  K  K0  1  0.02704071  0.02704071  -0.00000000  1
  Nd  Nd0  1  0.56470539  0.56470539  0.50000000  1
  V  V0  1  0.53426404  0.04361907  0.74806208  1
  V  V1  1  0.53426404  0.04361907  0.25193792  1
  V  V2  1  0.04361907  0.53426404  0.25193792  1
  V  V3  1  0.04361907  0.53426404  0.74806208  1
  O  O0  1  0.69476790  0.22183652  0.72137946  1
  O  O1  1  0.22183652  0.69476790  0.72137946  1
  O  O2  1  0.22183652  0.69476790  0.27862054  1
  O  O3  1  0.69476790  0.22183652  0.27862054  1
  O  O4  1  0.73401808  0.73401808  0.74040684  1
  O  O5  1  0.24097426  0.24097426  0.75117792  1
  O  O6  1  0.24097426  0.24097426  0.24882208  1
  O  O7  1  0.73401808  0.73401808  0.25959316  1
  O  O8  1  0.52038242  0.00543562  -0.00000000  1
  O  O9  1  0.47195809  0.97391805  0.50000000  1
  O  O10  1  0.00543562  0.52038242  -0.00000000  1
  O  O11  1  0.97391805  0.47195809  0.50000000  1
loop_
_geom_bond_atom_site_label_1
_geom_bond_atom_site_label_2
_geom_bond_distance
_geom_bond_site_symmetry_2
K0 O5 2.769132 1_554
K0 O6 2.769132 1_555
K0 O2 2.857240 1_545
K0 O1 2.857240 1_544
K0 O3 2.857240 1_455
K0 O0 2.857240 1_454
K0 O10 2.970675 1_555
K0 O8 2.970675 1_555
K0 O8 3.130037 1_455
K0 O10 3.130037 1_545
Nd0 O9 2.388043 1_555
Nd0 O11 2.388043 1_555
Nd0 O7 2.408926 1_555
Nd0 O4 2.408926 1_555
Nd0 O3 2.566737 1_555
Nd0 O1 2.566737 1_555
Nd0 O0 2.566737 1_555
Nd0 O2 2.566737 1_555
O0 V0 1.675366 1_555
O1 V3 1.675366 1_555
O2 V2 1.675366 1_555
O3 V1 1.675366 1_555
O4 V3 1.918442 1_655
O4 V0 1.918442 1_565
O5 V3 1.834291 1_555
O5 V0 1.834291 1_555
O6 V2 1.834291 1_555
O6 V1 1.834291 1_555
O7 V2 1.918442 1_655
O7 V1 1.918442 1_565
O8 V1 1.846823 1_555
O8 V0 1.846823 1_554
O9 V1 1.912204 1_565
O9 V0 1.912204 1_565
O10 V2 1.846823 1_555
O10 V3 1.846823 1_554
O11 V3 1.912204 1_655
O11 V2 1.912204 1_655
