# generated using pymatgen
data_Mg6SiC
_symmetry_space_group_name_H-M   'P 1'
_cell_length_a   3.72852600
_cell_length_b   8.22695200
_cell_length_c   9.58168700
_cell_angle_alpha   90.00000000
_cell_angle_beta   90.00000000
_cell_angle_gamma   90.00000000
_symmetry_Int_Tables_number   1
_chemical_formula_structural   Mg6SiC
_chemical_formula_sum   'Mg12 Si2 C2'
_cell_volume   293.91254219
_cell_formula_units_Z   2
loop_
 _symmetry_equiv_pos_site_id
 _symmetry_equiv_pos_as_xyz
  1  'x, y, z'
loop_
 _atom_site_type_symbol
 _atom_site_label
 _atom_site_symmetry_multiplicity
 _atom_site_fract_x
 _atom_site_fract_y
 _atom_site_fract_z
 _atom_site_occupancy
  Mg  Mg0  1  0.50000000  0.25758200  0.35215900  1
  Mg  Mg1  1  0.50000000  0.74241800  0.35215900  1
  Mg  Mg2  1  0.00000000  0.17463600  0.61544200  1
  Mg  Mg3  1  0.00000000  0.82536400  0.61544200  1
  Mg  Mg4  1  0.00000000  0.00000000  0.31818500  1
  Mg  Mg5  1  0.00000000  0.00000000  0.89693700  1
  Mg  Mg6  1  0.50000000  0.75758200  0.85215900  1
  Mg  Mg7  1  0.50000000  0.24241800  0.85215900  1
  Mg  Mg8  1  0.00000000  0.67463600  0.11544200  1
  Mg  Mg9  1  0.00000000  0.32536400  0.11544200  1
  Mg  Mg10  1  0.00000000  0.50000000  0.81818500  1
  Mg  Mg11  1  0.00000000  0.50000000  0.39693700  1
  Si  Si0  1  0.50000000  0.00000000  0.11600500  1
  Si  Si1  1  0.50000000  0.50000000  0.61600500  1
  C  C0  1  0.50000000  0.00000000  0.73366600  1
  C  C1  1  0.50000000  0.50000000  0.23366600  1
loop_
_geom_bond_atom_site_label_1
_geom_bond_atom_site_label_2
_geom_bond_distance
_geom_bond_site_symmetry_2
Mg4 Si0 2.688553 1_555
Mg4 Si0 2.688553 1_455
Mg5 Si0 2.807392 1_456
Mg5 Si0 2.807392 1_556
Mg10 Si1 2.688553 1_455
Mg10 Si1 2.688553 1_555
Mg11 Si1 2.807392 1_455
Mg11 Si1 2.807392 1_555
C0 Mg7 2.294891 1_555
C0 Mg6 2.294891 1_545
C0 Mg5 2.433693 1_555
C0 Mg5 2.433693 1_655
C0 Mg2 2.612058 1_555
C0 Mg2 2.612058 1_655
C0 Mg3 2.612058 1_645
C0 Mg3 2.612058 1_545
C1 Mg1 2.294891 1_555
C1 Mg0 2.294891 1_555
C1 Mg11 2.433693 1_655
C1 Mg11 2.433693 1_555
C1 Mg9 2.612058 1_655
C1 Mg8 2.612058 1_555
C1 Mg8 2.612058 1_655
C1 Mg9 2.612058 1_555
