# generated using pymatgen
data_KTcO2
_symmetry_space_group_name_H-M   'P 1'
_cell_length_a   7.73828448
_cell_length_b   7.73828448
_cell_length_c   7.73828448
_cell_angle_alpha   130.56512102
_cell_angle_beta   130.56512102
_cell_angle_gamma   72.50492760
_symmetry_Int_Tables_number   1
_chemical_formula_structural   KTcO2
_chemical_formula_sum   'K4 Tc4 O8'
_cell_volume   261.33993913
_cell_formula_units_Z   4
loop_
 _symmetry_equiv_pos_site_id
 _symmetry_equiv_pos_as_xyz
  1  'x, y, z'
loop_
 _atom_site_type_symbol
 _atom_site_label
 _atom_site_symmetry_multiplicity
 _atom_site_fract_x
 _atom_site_fract_y
 _atom_site_fract_z
 _atom_site_occupancy
  K  K0  1  0.87500000  0.62500000  0.25000000  1
  K  K1  1  0.37500000  0.62500000  0.75000000  1
  K  K2  1  0.37500000  0.62500000  0.25000000  1
  K  K3  1  0.37500000  0.12500000  0.75000000  1
  Tc  Tc0  1  0.37500000  0.12500000  0.25000000  1
  Tc  Tc1  1  0.87500000  0.12500000  0.75000000  1
  Tc  Tc2  1  0.87500000  0.12500000  0.25000000  1
  Tc  Tc3  1  0.87500000  0.62500000  0.75000000  1
  O  O0  1  0.14686600  0.33716700  0.19030100  1
  O  O1  1  0.14686600  0.95656500  0.80969900  1
  O  O2  1  0.08716700  0.39686600  0.69030100  1
  O  O3  1  0.60313400  0.91283300  0.30969900  1
  O  O4  1  0.70656500  0.39686600  0.30969900  1
  O  O5  1  0.60313400  0.29343500  0.69030100  1
  O  O6  1  0.66283300  0.85313400  0.80969900  1
  O  O7  1  0.04343500  0.85313400  0.19030100  1
loop_
_geom_bond_atom_site_label_1
_geom_bond_atom_site_label_2
_geom_bond_distance
_geom_bond_site_symmetry_2
K0 O0 2.590122 1_655
K0 O1 2.590122 1_655
K0 O5 2.590122 1_554
K0 O3 2.590122 1_555
K0 O4 2.873341 1_555
K0 O7 2.873341 1_655
K1 O3 2.590122 1_556
K1 O0 2.590122 1_555
K1 O1 2.590122 1_555
K1 O5 2.590122 1_555
K1 O2 2.873341 1_555
K1 O6 2.873341 1_555
K2 O6 2.590122 1_555
K2 O7 2.590122 1_555
K2 O2 2.590122 1_554
K2 O4 2.590122 1_555
K2 O3 2.873341 1_555
K2 O0 2.873341 1_555
K3 O4 2.590122 1_556
K3 O6 2.590122 1_545
K3 O2 2.590122 1_555
K3 O7 2.590122 1_545
K3 O5 2.873341 1_555
K3 O1 2.873341 1_545
O0 Tc0 2.051481 1_555
O0 Tc1 2.051481 1_454
O1 Tc0 2.051481 1_566
O1 Tc1 2.051481 1_465
O2 Tc3 2.051481 1_455
O2 Tc2 2.051481 1_455
O3 Tc0 2.051481 1_565
O3 Tc1 2.051481 1_565
O4 Tc2 2.051481 1_555
O4 Tc3 2.051481 1_555
O5 Tc0 2.051481 1_555
O5 Tc1 2.051481 1_555
O6 Tc3 2.051481 1_555
O6 Tc2 2.051481 1_566
O7 Tc3 2.051481 1_454
O7 Tc2 2.051481 1_465
