# generated using pymatgen
data_CaYMg14
_symmetry_space_group_name_H-M   'P 1'
_cell_length_a   6.61602663
_cell_length_b   6.61602605
_cell_length_c   10.45351956
_cell_angle_alpha   90.00000000
_cell_angle_beta   90.00000000
_cell_angle_gamma   120.00000284
_symmetry_Int_Tables_number   1
_chemical_formula_structural   CaYMg14
_chemical_formula_sum   'Ca1 Y1 Mg14'
_cell_volume   396.26672609
_cell_formula_units_Z   1
loop_
 _symmetry_equiv_pos_site_id
 _symmetry_equiv_pos_as_xyz
  1  'x, y, z'
loop_
 _atom_site_type_symbol
 _atom_site_label
 _atom_site_symmetry_multiplicity
 _atom_site_fract_x
 _atom_site_fract_y
 _atom_site_fract_z
 _atom_site_occupancy
  Ca  Ca0  1  0.16666700  0.33333300  0.12500000  1
  Y  Y0  1  0.16666700  0.33333300  0.62500000  1
  Mg  Mg0  1  0.17125238  0.83562569  0.12500000  1
  Mg  Mg1  1  0.17315711  0.83657805  0.62500000  1
  Mg  Mg2  1  0.66437431  0.32874762  0.12500000  1
  Mg  Mg3  1  0.66342195  0.32684289  0.62500000  1
  Mg  Mg4  1  0.66437431  0.83562569  0.12500000  1
  Mg  Mg5  1  0.66342195  0.83657805  0.62500000  1
  Mg  Mg6  1  0.33656618  0.16343382  0.37644248  1
  Mg  Mg7  1  0.33656618  0.16343382  0.87355752  1
  Mg  Mg8  1  0.33656618  0.67313336  0.37644248  1
  Mg  Mg9  1  0.33656618  0.67313336  0.87355752  1
  Mg  Mg10  1  0.82686664  0.16343382  0.37644248  1
  Mg  Mg11  1  0.82686664  0.16343382  0.87355752  1
  Mg  Mg12  1  0.83333300  0.66666700  0.37501158  1
  Mg  Mg13  1  0.83333300  0.66666700  0.87498842  1
loop_
_geom_bond_atom_site_label_1
_geom_bond_atom_site_label_2
_geom_bond_distance
_geom_bond_site_symmetry_2
Ca0 Mg6 3.270980 1_555
Ca0 Mg7 3.270980 1_554
Ca0 Mg9 3.270987 1_554
Ca0 Mg8 3.270987 1_555
Ca0 Mg10 3.270987 1_455
Ca0 Mg11 3.270987 1_454
Ca0 Mg0 3.308117 1_555
Ca0 Mg4 3.308117 1_555
Ca0 Mg0 3.308117 1_545
Ca0 Mg4 3.308117 1_445
Ca0 Mg2 3.308118 1_555
Ca0 Mg2 3.308118 1_455
Mg0 Mg8 3.230568 1_555
Mg0 Mg9 3.230568 1_554
Mg0 Mg6 3.230574 1_565
Mg0 Mg7 3.230574 1_564
Mg0 Mg13 3.252553 1_454
Mg0 Mg12 3.252553 1_455
Mg0 Mg2 3.262508 1_565
Mg0 Mg4 3.262508 1_555
Mg0 Mg2 3.353519 1_455
Mg0 Mg4 3.353519 1_455
Mg1 Mg9 3.202871 1_555
Mg1 Mg8 3.202871 1_555
Mg1 Mg7 3.202878 1_565
Mg1 Mg6 3.202878 1_565
Mg1 Mg3 3.243605 1_565
Mg1 Mg5 3.243605 1_555
Mg1 Mg12 3.258867 1_455
Mg1 Mg13 3.258867 1_455
Mg1 Y0 3.308222 1_555
Mg1 Y0 3.308222 1_565
Mg1 Mg3 3.372421 1_455
Mg1 Mg5 3.372421 1_455
Mg2 Mg7 3.230575 1_554
Mg2 Mg6 3.230575 1_555
Mg2 Mg4 3.262508 1_545
Mg2 Mg4 3.353519 1_555
Mg3 Mg6 3.202878 1_555
Mg3 Mg7 3.202878 1_555
Mg3 Mg5 3.243605 1_545
Mg3 Y0 3.308222 1_655
Mg3 Y0 3.308222 1_555
Mg3 Mg5 3.372421 1_555
Mg4 Mg8 3.230575 1_555
Mg4 Mg9 3.230575 1_554
Mg5 Mg8 3.202878 1_555
Mg5 Mg9 3.202878 1_555
Mg5 Y0 3.308222 1_555
Mg5 Y0 3.308222 1_665
Mg6 Mg8 3.243841 1_545
Mg6 Y0 3.246796 1_555
Mg6 Mg8 3.372185 1_555
Mg7 Mg9 3.243841 1_545
Mg7 Y0 3.246796 1_555
Mg7 Mg9 3.372185 1_555
Mg8 Y0 3.246803 1_555
Mg9 Y0 3.246803 1_555
Mg10 Mg3 3.202871 1_555
Mg10 Mg5 3.202878 1_545
Mg10 Mg2 3.230568 1_555
Mg10 Mg4 3.230574 1_545
Mg10 Mg8 3.243841 1_545
Mg10 Mg6 3.243841 1_555
Mg10 Y0 3.246803 1_655
Mg10 Mg12 3.308254 1_555
Mg10 Mg12 3.308254 1_545
Mg10 Mg8 3.372185 1_655
Mg10 Mg6 3.372186 1_655
Mg11 Mg3 3.202871 1_555
Mg11 Mg5 3.202878 1_545
Mg11 Mg2 3.230568 1_556
Mg11 Mg4 3.230574 1_546
Mg11 Mg9 3.243841 1_545
Mg11 Mg7 3.243841 1_555
Mg11 Y0 3.246803 1_655
Mg11 Mg13 3.308254 1_555
Mg11 Mg13 3.308254 1_545
Mg11 Mg9 3.372185 1_655
Mg11 Mg7 3.372186 1_655
Mg12 Mg4 3.252546 1_555
Mg12 Mg2 3.252552 1_555
Mg12 Mg5 3.258860 1_555
Mg12 Mg3 3.258867 1_555
Mg12 Mg6 3.308254 1_555
Mg12 Mg6 3.308254 1_665
Mg12 Mg8 3.308255 1_555
Mg12 Mg8 3.308255 1_655
Mg13 Mg4 3.252546 1_556
Mg13 Mg2 3.252552 1_556
Mg13 Mg5 3.258860 1_555
Mg13 Mg3 3.258867 1_555
Mg13 Mg7 3.308254 1_555
Mg13 Mg7 3.308254 1_665
Mg13 Mg9 3.308255 1_555
Mg13 Mg9 3.308255 1_655
