# generated using pymatgen
data_NaCo(N2O3)4
_symmetry_space_group_name_H-M   'P 1'
_cell_length_a   7.33138493
_cell_length_b   7.33138493
_cell_length_c   7.33138493
_cell_angle_alpha   60.00000000
_cell_angle_beta   60.00000000
_cell_angle_gamma   60.00000000
_symmetry_Int_Tables_number   1
_chemical_formula_structural   NaCo(N2O3)4
_chemical_formula_sum   'Na1 Co1 N8 O12'
_cell_volume   278.63974868
_cell_formula_units_Z   1
loop_
 _symmetry_equiv_pos_site_id
 _symmetry_equiv_pos_as_xyz
  1  'x, y, z'
loop_
 _atom_site_type_symbol
 _atom_site_label
 _atom_site_symmetry_multiplicity
 _atom_site_fract_x
 _atom_site_fract_y
 _atom_site_fract_z
 _atom_site_occupancy
  Na  Na0  1  0.50000000  0.50000000  0.50000000  1
  Co  Co0  1  0.00000000  0.00000000  0.00000000  1
  N  N0  1  0.80366500  0.19633500  0.19633500  1
  N  N1  1  0.19633500  0.80366500  0.80366500  1
  N  N2  1  0.19633500  0.80366500  0.19633500  1
  N  N3  1  0.80366500  0.19633500  0.80366500  1
  N  N4  1  0.19633500  0.19633500  0.80366500  1
  N  N5  1  0.80366500  0.80366500  0.19633500  1
  N  N6  1  0.25000000  0.25000000  0.25000000  1
  N  N7  1  0.75000000  0.75000000  0.75000000  1
  O  O0  1  0.35713000  0.14671400  0.85328600  1
  O  O1  1  0.64287000  0.85328600  0.14671400  1
  O  O2  1  0.14671400  0.35713000  0.64287000  1
  O  O3  1  0.85328600  0.64287000  0.35713000  1
  O  O4  1  0.85328600  0.35713000  0.14671400  1
  O  O5  1  0.14671400  0.64287000  0.85328600  1
  O  O6  1  0.64287000  0.14671400  0.35713000  1
  O  O7  1  0.35713000  0.85328600  0.64287000  1
  O  O8  1  0.14671400  0.85328600  0.35713000  1
  O  O9  1  0.85328600  0.14671400  0.64287000  1
  O  O10  1  0.64287000  0.35713000  0.85328600  1
  O  O11  1  0.35713000  0.64287000  0.14671400  1
loop_
_geom_bond_atom_site_label_1
_geom_bond_atom_site_label_2
_geom_bond_distance
_geom_bond_site_symmetry_2
Na0 O3 2.793853 1_555
Na0 O7 2.793853 1_555
Na0 O10 2.793853 1_555
Na0 O9 2.793853 1_555
Na0 O1 2.793853 1_555
Na0 O5 2.793853 1_555
Na0 O8 2.793853 1_555
Na0 O0 2.793853 1_555
Na0 O4 2.793853 1_555
Na0 O6 2.793853 1_555
Na0 O2 2.793853 1_555
Na0 O11 2.793853 1_555
Co0 N4 2.035630 1_554
Co0 N2 2.035630 1_545
Co0 N0 2.035630 1_455
Co0 N5 2.035630 1_445
Co0 N3 2.035630 1_454
Co0 N1 2.035630 1_544
N0 O6 1.233706 1_555
N0 O4 1.233706 1_555
N1 O5 1.233706 1_555
N1 O7 1.233706 1_555
N2 O11 1.233706 1_555
N2 O8 1.233706 1_555
N3 O9 1.233706 1_555
N3 O10 1.233706 1_555
N4 O2 1.233706 1_555
N4 O0 1.233706 1_555
N5 O1 1.233706 1_555
N5 O3 1.233706 1_555
