# generated using pymatgen
data_TmSiPt2
_symmetry_space_group_name_H-M   'P 1'
_cell_length_a   5.45436662
_cell_length_b   6.92261296
_cell_length_c   7.20648349
_cell_angle_alpha   90.00000000
_cell_angle_beta   90.00000000
_cell_angle_gamma   90.00000000
_symmetry_Int_Tables_number   1
_chemical_formula_structural   TmSiPt2
_chemical_formula_sum   'Tm4 Si4 Pt8'
_cell_volume   272.10578383
_cell_formula_units_Z   4
loop_
 _symmetry_equiv_pos_site_id
 _symmetry_equiv_pos_as_xyz
  1  'x, y, z'
loop_
 _atom_site_type_symbol
 _atom_site_label
 _atom_site_symmetry_multiplicity
 _atom_site_fract_x
 _atom_site_fract_y
 _atom_site_fract_z
 _atom_site_occupancy
  Tm  Tm0  1  0.36296494  0.75000000  0.02570098  1
  Tm  Tm1  1  0.13703506  0.75000000  0.52570098  1
  Tm  Tm2  1  0.63703506  0.25000000  0.97429802  1
  Tm  Tm3  1  0.86296494  0.25000000  0.47429802  1
  Si  Si0  1  0.63510335  0.75000000  0.37994380  1
  Si  Si1  1  0.86489665  0.75000000  0.87994380  1
  Si  Si2  1  0.36489665  0.25000000  0.62005620  1
  Si  Si3  1  0.13510335  0.25000000  0.12005620  1
  Pt  Pt0  1  0.90933532  0.55025031  0.18295796  1
  Pt  Pt1  1  0.59066468  0.94974969  0.68295796  1
  Pt  Pt2  1  0.09066468  0.05025031  0.81704204  1
  Pt  Pt3  1  0.40933532  0.44974969  0.31704204  1
  Pt  Pt4  1  0.09066468  0.44974969  0.81704204  1
  Pt  Pt5  1  0.40933532  0.05025031  0.31704204  1
  Pt  Pt6  1  0.90933532  0.94974969  0.18295796  1
  Pt  Pt7  1  0.59066468  0.55025031  0.68295796  1
loop_
_geom_bond_atom_site_label_1
_geom_bond_atom_site_label_2
_geom_bond_distance
_geom_bond_site_symmetry_2
Si0 Tm1 2.912646 1_555
Si0 Tm1 2.932310 1_655
Si0 Tm0 2.953014 1_555
Si1 Tm0 2.912646 1_656
Si1 Tm0 2.932310 1_556
Si1 Tm1 2.953014 1_655
Si2 Tm3 2.912648 1_555
Si2 Tm3 2.932313 1_455
Si2 Tm2 2.953008 1_555
Si3 Tm2 2.912648 1_454
Si3 Tm2 2.932313 1_554
Si3 Tm3 2.953008 1_455
Pt0 Si3 2.458071 1_655
Pt0 Si0 2.482862 1_555
Pt0 Si1 2.596008 1_554
Pt0 Tm2 2.964330 1_554
Pt0 Tm3 2.965174 1_555
Pt0 Tm0 3.052602 1_655
Pt0 Tm1 3.091169 1_655
Pt1 Si2 2.458071 1_565
Pt1 Si1 2.482862 1_555
Pt1 Si0 2.596008 1_555
Pt1 Tm3 2.964330 1_565
Pt1 Tm2 2.965174 1_565
Pt1 Tm1 3.052602 1_555
Pt1 Tm0 3.091169 1_556
Pt2 Si1 2.458071 1_445
Pt2 Si2 2.482862 1_555
Pt2 Si3 2.596008 1_556
Pt2 Tm0 2.964326 1_546
Pt2 Tm1 2.965179 1_545
Pt2 Tm2 3.052600 1_455
Pt2 Tm3 3.091175 1_455
Pt3 Si0 2.458071 1_555
Pt3 Si3 2.482862 1_555
Pt3 Si2 2.596008 1_555
Pt3 Tm1 2.964326 1_555
Pt3 Tm0 2.965179 1_555
Pt3 Tm3 3.052600 1_555
Pt3 Tm2 3.091175 1_554
Pt4 Si1 2.458071 1_455
Pt4 Si2 2.482862 1_555
Pt4 Si3 2.596008 1_556
Pt4 Tm0 2.964326 1_556
Pt4 Tm1 2.965179 1_555
Pt4 Tm2 3.052600 1_455
Pt4 Tm3 3.091175 1_455
Pt5 Si0 2.458071 1_545
Pt5 Si3 2.482862 1_555
Pt5 Si2 2.596008 1_555
Pt5 Tm1 2.964326 1_545
Pt5 Tm0 2.965179 1_545
Pt5 Tm3 3.052600 1_555
Pt5 Tm2 3.091175 1_554
Pt6 Si3 2.458071 1_665
Pt6 Si0 2.482862 1_555
Pt6 Si1 2.596008 1_554
Pt6 Tm2 2.964330 1_564
Pt6 Tm3 2.965174 1_565
Pt6 Tm0 3.052602 1_655
Pt6 Tm1 3.091169 1_655
Pt7 Si2 2.458071 1_555
Pt7 Si1 2.482862 1_555
Pt7 Si0 2.596008 1_555
Pt7 Tm3 2.964330 1_555
Pt7 Tm2 2.965174 1_555
Pt7 Tm1 3.052602 1_555
Pt7 Tm0 3.091169 1_556
