# generated using pymatgen
data_Er
_symmetry_space_group_name_H-M   'P 1'
_cell_length_a   7.01405494
_cell_length_b   7.01405639
_cell_length_c   7.01405738
_cell_angle_alpha   60.00000544
_cell_angle_beta   59.99999855
_cell_angle_gamma   60.00000577
_symmetry_Int_Tables_number   1
_chemical_formula_structural   Er
_chemical_formula_sum   Er8
_cell_volume   244.00165092
_cell_formula_units_Z   8
loop_
 _symmetry_equiv_pos_site_id
 _symmetry_equiv_pos_as_xyz
  1  'x, y, z'
loop_
 _atom_site_type_symbol
 _atom_site_label
 _atom_site_symmetry_multiplicity
 _atom_site_fract_x
 _atom_site_fract_y
 _atom_site_fract_z
 _atom_site_occupancy
  Er  Er0_0  1  0.00000000  0.00000000  0.00000000  1
  Er  Er0_1  1  0.00000000  0.00000000  0.50000000  1
  Er  Er0_2  1  0.00000000  0.50000000  0.00000000  1
  Er  Er0_3  1  0.00000000  0.50000000  0.50000000  1
  Er  Er0_4  1  0.50000000  0.00000000  0.00000000  1
  Er  Er0_5  1  0.50000000  0.00000000  0.50000000  1
  Er  Er0_6  1  0.50000000  0.50000000  0.00000000  1
  Er  Er0_7  1  0.50000000  0.50000000  0.50000000  1
loop_
_geom_bond_atom_site_label_1
_geom_bond_atom_site_label_2
_geom_bond_distance
_geom_bond_site_symmetry_2
Er0_0 Er0_4 3.507027 1_455
Er0_0 Er0_4 3.507027 1_555
Er0_0 Er0_5 3.507028 1_455
Er0_0 Er0_5 3.507028 1_554
Er0_0 Er0_6 3.507028 1_455
Er0_0 Er0_6 3.507028 1_545
Er0_0 Er0_2 3.507028 1_545
Er0_0 Er0_2 3.507028 1_555
Er0_0 Er0_1 3.507029 1_555
Er0_0 Er0_1 3.507029 1_554
Er0_0 Er0_3 3.507029 1_545
Er0_0 Er0_3 3.507029 1_554
Er0_1 Er0_5 3.507027 1_455
Er0_1 Er0_5 3.507027 1_555
Er0_1 Er0_4 3.507028 1_456
Er0_1 Er0_4 3.507028 1_555
Er0_1 Er0_7 3.507028 1_455
Er0_1 Er0_7 3.507028 1_545
Er0_1 Er0_3 3.507028 1_545
Er0_1 Er0_3 3.507028 1_555
Er0_1 Er0_2 3.507029 1_546
Er0_1 Er0_2 3.507029 1_555
Er0_2 Er0_6 3.507027 1_455
Er0_2 Er0_6 3.507027 1_555
Er0_2 Er0_7 3.507028 1_455
Er0_2 Er0_7 3.507028 1_554
Er0_2 Er0_4 3.507028 1_465
Er0_2 Er0_4 3.507028 1_555
Er0_2 Er0_3 3.507029 1_554
Er0_2 Er0_3 3.507029 1_555
Er0_3 Er0_7 3.507027 1_455
Er0_3 Er0_7 3.507027 1_555
Er0_3 Er0_6 3.507028 1_456
Er0_3 Er0_6 3.507028 1_555
Er0_3 Er0_5 3.507028 1_465
Er0_3 Er0_5 3.507028 1_555
Er0_4 Er0_6 3.507028 1_555
Er0_4 Er0_6 3.507028 1_545
Er0_4 Er0_5 3.507029 1_554
Er0_4 Er0_5 3.507029 1_555
Er0_4 Er0_7 3.507029 1_545
Er0_4 Er0_7 3.507029 1_554
Er0_5 Er0_7 3.507028 1_545
Er0_5 Er0_7 3.507028 1_555
Er0_5 Er0_6 3.507029 1_546
Er0_5 Er0_6 3.507029 1_555
Er0_6 Er0_7 3.507029 1_555
Er0_6 Er0_7 3.507029 1_554
