# generated using pymatgen
data_Mg6SbC
_symmetry_space_group_name_H-M   'P 1'
_cell_length_a   4.88840100
_cell_length_b   6.19420700
_cell_length_c   10.76570400
_cell_angle_alpha   90.00000000
_cell_angle_beta   90.00000000
_cell_angle_gamma   90.00000000
_symmetry_Int_Tables_number   1
_chemical_formula_structural   Mg6SbC
_chemical_formula_sum   'Mg12 Sb2 C2'
_cell_volume   325.98301617
_cell_formula_units_Z   2
loop_
 _symmetry_equiv_pos_site_id
 _symmetry_equiv_pos_as_xyz
  1  'x, y, z'
loop_
 _atom_site_type_symbol
 _atom_site_label
 _atom_site_symmetry_multiplicity
 _atom_site_fract_x
 _atom_site_fract_y
 _atom_site_fract_z
 _atom_site_occupancy
  Mg  Mg0  1  0.50000000  0.24928300  0.41654500  1
  Mg  Mg1  1  0.50000000  0.75071700  0.41654500  1
  Mg  Mg2  1  0.00000000  0.76608700  0.08635700  1
  Mg  Mg3  1  0.00000000  0.23391300  0.08635700  1
  Mg  Mg4  1  0.00000000  0.00000000  0.32509900  1
  Mg  Mg5  1  0.00000000  0.50000000  0.33508900  1
  Mg  Mg6  1  0.50000000  0.74928300  0.91654500  1
  Mg  Mg7  1  0.50000000  0.25071700  0.91654500  1
  Mg  Mg8  1  0.00000000  0.26608700  0.58635700  1
  Mg  Mg9  1  0.00000000  0.73391300  0.58635700  1
  Mg  Mg10  1  0.00000000  0.50000000  0.82509900  1
  Mg  Mg11  1  0.00000000  0.00000000  0.83508900  1
  Sb  Sb0  1  0.50000000  0.50000000  0.16732400  1
  Sb  Sb1  1  0.50000000  0.00000000  0.66732400  1
  C  C0  1  0.50000000  0.00000000  0.16667800  1
  C  C1  1  0.50000000  0.50000000  0.66667800  1
loop_
_geom_bond_atom_site_label_1
_geom_bond_atom_site_label_2
_geom_bond_distance
_geom_bond_site_symmetry_2
Mg0 Sb0 3.100079 1_555
Mg0 Sb1 3.110187 1_555
Mg1 Sb0 3.100079 1_555
Mg1 Sb1 3.110187 1_565
Mg2 Sb0 3.074163 1_455
Mg2 Sb0 3.074163 1_555
Mg3 Sb0 3.074163 1_555
Mg3 Sb0 3.074163 1_455
Mg5 Sb0 3.039102 1_555
Mg5 Sb0 3.039102 1_455
Mg6 Sb1 3.100079 1_565
Mg6 Sb0 3.110187 1_556
Mg7 Sb1 3.100079 1_555
Mg7 Sb0 3.110187 1_556
Mg8 Sb1 3.074163 1_555
Mg8 Sb1 3.074163 1_455
Mg9 Sb1 3.074163 1_465
Mg9 Sb1 3.074163 1_565
Mg11 Sb1 3.039102 1_555
Mg11 Sb1 3.039102 1_455
