# generated using pymatgen
data_KHfMg14
_symmetry_space_group_name_H-M   'P 1'
_cell_length_a   6.53913999
_cell_length_b   6.63685612
_cell_length_c   10.38873941
_cell_angle_alpha   90.00000000
_cell_angle_beta   90.00000000
_cell_angle_gamma   120.49556856
_symmetry_Int_Tables_number   1
_chemical_formula_structural   KHfMg14
_chemical_formula_sum   'K1 Hf1 Mg14'
_cell_volume   388.49556298
_cell_formula_units_Z   1
loop_
 _symmetry_equiv_pos_site_id
 _symmetry_equiv_pos_as_xyz
  1  'x, y, z'
loop_
 _atom_site_type_symbol
 _atom_site_label
 _atom_site_symmetry_multiplicity
 _atom_site_fract_x
 _atom_site_fract_y
 _atom_site_fract_z
 _atom_site_occupancy
  K  K0  1  0.16296434  0.33148167  0.12500000  1
  Hf  Hf0  1  0.18665052  0.84332476  0.12500000  1
  Mg  Mg0  1  0.16765254  0.33382577  0.62500000  1
  Mg  Mg1  1  0.16541820  0.83270860  0.62500000  1
  Mg  Mg2  1  0.66336308  0.33418483  0.12500000  1
  Mg  Mg3  1  0.66764907  0.33626367  0.62500000  1
  Mg  Mg4  1  0.66336308  0.82917725  0.12500000  1
  Mg  Mg5  1  0.66764907  0.83138440  0.62500000  1
  Mg  Mg6  1  0.33414612  0.15563015  0.38127715  1
  Mg  Mg7  1  0.33414612  0.15563015  0.86872285  1
  Mg  Mg8  1  0.33414612  0.67851697  0.38127715  1
  Mg  Mg9  1  0.33414612  0.67851697  0.86872285  1
  Mg  Mg10  1  0.81976104  0.15988102  0.38485655  1
  Mg  Mg11  1  0.81976104  0.15988102  0.86514345  1
  Mg  Mg12  1  0.83959178  0.66979639  0.37018251  1
  Mg  Mg13  1  0.83959178  0.66979639  0.87981749  1
loop_
_geom_bond_atom_site_label_1
_geom_bond_atom_site_label_2
_geom_bond_distance
_geom_bond_site_symmetry_2
K0 Mg4 3.263109 1_555
K0 Mg2 3.263110 1_555
K0 Mg4 3.276103 1_445
K0 Mg2 3.276103 1_455
K0 Mg11 3.320744 1_454
K0 Mg10 3.320744 1_455
K0 Mg7 3.321062 1_554
K0 Mg6 3.321062 1_555
K0 Mg9 3.321068 1_554
K0 Mg8 3.321068 1_555
Hf0 Mg2 3.165973 1_565
Hf0 Mg4 3.165973 1_555
Hf0 Mg9 3.207140 1_554
Hf0 Mg8 3.207140 1_555
Hf0 Mg7 3.207147 1_564
Hf0 Mg6 3.207147 1_565
Hf0 Mg12 3.211229 1_455
Hf0 Mg13 3.211229 1_454
Hf0 K0 3.321111 1_555
Hf0 K0 3.321111 1_565
Hf0 Mg2 3.375170 1_455
Hf0 Mg4 3.375171 1_455
Mg0 Mg10 3.172763 1_455
Mg0 Mg11 3.172763 1_455
Mg0 Mg6 3.209630 1_555
Mg0 Mg7 3.209630 1_555
Mg0 Mg8 3.209637 1_555
Mg0 Mg9 3.209637 1_555
Mg0 Mg5 3.261366 1_555
Mg0 Mg3 3.261366 1_555
Mg0 Mg5 3.277833 1_445
Mg0 Mg3 3.277833 1_455
Mg0 Mg1 3.318452 1_545
Mg0 Mg1 3.318452 1_555
Mg1 Mg9 3.133919 1_555
Mg1 Mg8 3.133919 1_555
Mg1 Mg7 3.133925 1_565
Mg1 Mg6 3.133925 1_565
Mg1 Mg13 3.221543 1_455
Mg1 Mg12 3.221543 1_455
Mg1 Mg3 3.250531 1_455
Mg1 Mg5 3.250531 1_455
Mg1 Mg3 3.288626 1_565
Mg1 Mg5 3.288627 1_555
Mg2 Mg7 3.246218 1_554
Mg2 Mg6 3.246218 1_555
Mg2 Mg4 3.285193 1_555
Mg2 Mg4 3.351663 1_545
Mg3 Mg6 3.154452 1_555
Mg3 Mg7 3.154452 1_555
Mg3 Mg5 3.286045 1_555
Mg3 Mg5 3.350811 1_545
Mg4 Mg8 3.246219 1_555
Mg4 Mg9 3.246219 1_554
Mg5 Mg8 3.154452 1_555
Mg5 Mg9 3.154452 1_555
Mg6 Mg8 3.166532 1_545
Mg6 Mg8 3.470325 1_555
Mg7 Mg9 3.166532 1_545
Mg7 Mg9 3.470325 1_555
Mg10 Mg3 3.124984 1_555
Mg10 Mg5 3.124991 1_545
Mg10 Mg8 3.161499 1_545
Mg10 Mg6 3.161499 1_555
Mg10 Mg2 3.297379 1_555
Mg10 Mg4 3.297385 1_545
Mg10 Mg12 3.323806 1_555
Mg10 Mg12 3.323806 1_545
Mg10 Mg8 3.378245 1_655
Mg10 Mg6 3.378245 1_655
Mg11 Mg3 3.124984 1_555
Mg11 Mg5 3.124991 1_545
Mg11 Mg9 3.161499 1_545
Mg11 Mg7 3.161499 1_555
Mg11 Mg2 3.297379 1_556
Mg11 Mg4 3.297385 1_546
Mg11 Mg13 3.323806 1_555
Mg11 Mg13 3.323806 1_545
Mg11 Mg9 3.378245 1_655
Mg11 Mg7 3.378245 1_655
Mg12 Mg4 3.189358 1_555
Mg12 Mg2 3.189365 1_555
Mg12 Mg6 3.207049 1_665
Mg12 Mg8 3.207049 1_655
Mg12 Mg5 3.262815 1_555
Mg12 Mg3 3.262821 1_555
Mg12 Mg6 3.336915 1_555
Mg12 Mg8 3.336915 1_555
Mg13 Mg4 3.189358 1_556
Mg13 Mg2 3.189365 1_556
Mg13 Mg7 3.207049 1_665
Mg13 Mg9 3.207049 1_655
Mg13 Mg5 3.262815 1_555
Mg13 Mg3 3.262821 1_555
Mg13 Mg7 3.336915 1_555
Mg13 Mg9 3.336915 1_555
