# generated using pymatgen
data_SrFeP2O7
_symmetry_space_group_name_H-M   'P 1'
_cell_length_a   5.42514203
_cell_length_b   8.39130500
_cell_length_c   12.91671937
_cell_angle_alpha   90.00000000
_cell_angle_beta   90.21390160
_cell_angle_gamma   90.00000000
_symmetry_Int_Tables_number   1
_chemical_formula_structural   SrFeP2O7
_chemical_formula_sum   'Sr4 Fe4 P8 O28'
_cell_volume   588.01691224
_cell_formula_units_Z   4
loop_
 _symmetry_equiv_pos_site_id
 _symmetry_equiv_pos_as_xyz
  1  'x, y, z'
loop_
 _atom_site_type_symbol
 _atom_site_label
 _atom_site_symmetry_multiplicity
 _atom_site_fract_x
 _atom_site_fract_y
 _atom_site_fract_z
 _atom_site_occupancy
  Sr  Sr0  1  0.71337300  0.83684600  0.77775600  1
  Sr  Sr1  1  0.78662700  0.33684600  0.72224400  1
  Sr  Sr2  1  0.28662600  0.16315500  0.22224500  1
  Sr  Sr3  1  0.21337300  0.66315500  0.27775600  1
  Fe  Fe0  1  0.68131800  0.84915700  0.10519500  1
  Fe  Fe1  1  0.31868200  0.15084300  0.89480400  1
  Fe  Fe2  1  0.81868100  0.34915700  0.39480500  1
  Fe  Fe3  1  0.18131800  0.65084300  0.60519500  1
  P  P0  1  0.68880700  0.70006800  0.48025500  1
  P  P1  1  0.81119300  0.20006800  0.01974500  1
  P  P2  1  0.31119400  0.29993100  0.51974600  1
  P  P3  1  0.18880600  0.79993100  0.98025400  1
  P  P4  1  0.24936800  0.53724800  0.83398500  1
  P  P5  1  0.74936700  0.96275100  0.33398500  1
  P  P6  1  0.75063200  0.46275100  0.16601500  1
  P  P7  1  0.25063200  0.03724900  0.66601500  1
  O  O0  1  0.05163200  0.61973100  0.76663500  1
  O  O1  1  0.44836900  0.11973200  0.73336500  1
  O  O2  1  0.94837000  0.38026900  0.23336500  1
  O  O3  1  0.55163100  0.88026900  0.26663500  1
  O  O4  1  0.41039000  0.67016200  0.47056300  1
  O  O5  1  0.08960900  0.17016200  0.02943700  1
  O  O6  1  0.58961000  0.32983800  0.52943700  1
  O  O7  1  0.91039100  0.82983800  0.97056300  1
  O  O8  1  0.74021000  0.88429500  0.44848400  1
  O  O9  1  0.75979100  0.38429500  0.05151600  1
  O  O10  1  0.25979000  0.11570500  0.55151500  1
  O  O11  1  0.24021000  0.61570500  0.94848500  1
  O  O12  1  0.79327700  0.68779200  0.59050200  1
  O  O13  1  0.70672100  0.18779200  0.90949800  1
  O  O14  1  0.20672200  0.31220700  0.40949800  1
  O  O15  1  0.29327800  0.81220800  0.09050300  1
  O  O16  1  0.82416600  0.63743800  0.15157300  1
  O  O17  1  0.67583300  0.13743900  0.34842700  1
  O  O18  1  0.17583300  0.36256100  0.84842700  1
  O  O19  1  0.32416700  0.86256100  0.65157300  1
  O  O20  1  0.66423000  0.09658900  0.09723100  1
  O  O21  1  0.83577100  0.59659000  0.40277000  1
  O  O22  1  0.50968300  0.55964800  0.79229600  1
  O  O23  1  0.16423100  0.40341100  0.59723000  1
  O  O24  1  0.00968400  0.94035100  0.29229600  1
  O  O25  1  0.49031600  0.44035100  0.20770300  1
  O  O26  1  0.99031700  0.05964800  0.70770400  1
  O  O27  1  0.33576900  0.90341000  0.90277000  1
loop_
_geom_bond_atom_site_label_1
_geom_bond_atom_site_label_2
_geom_bond_distance
_geom_bond_site_symmetry_2
Fe0 O16 2.027875 1_555
Fe0 O20 2.080873 1_565
Fe0 O15 2.135629 1_555
Fe0 O7 2.147321 1_554
Fe0 O3 2.218670 1_555
Fe1 O18 2.027866 1_555
Fe1 O27 2.080882 1_545
Fe1 O13 2.135626 1_555
Fe1 O5 2.147331 1_556
Fe1 O1 2.218657 1_555
Fe2 O17 2.027868 1_555
Fe2 O21 2.080883 1_555
Fe2 O14 2.135637 1_655
Fe2 O6 2.147315 1_555
Fe2 O2 2.218673 1_555
Fe3 O19 2.027870 1_555
Fe3 O23 2.080873 1_555
Fe3 O12 2.135636 1_455
Fe3 O4 2.147318 1_555
Fe3 O0 2.218668 1_555
O0 P4 1.542618 1_555
O0 Sr0 2.590260 1_455
O0 Sr1 2.832732 1_455
O1 P7 1.542622 1_555
O1 Sr1 2.590250 1_555
O1 Sr0 2.832737 1_545
O2 P6 1.542622 1_555
O2 Sr2 2.590242 1_655
O2 Sr3 2.832734 1_655
O3 P5 1.542614 1_555
O3 Sr3 2.590250 1_555
O3 Sr2 2.832737 1_565
O4 P0 1.535806 1_555
O4 Sr3 2.707078 1_555
O5 P1 1.535801 1_455
O5 Sr2 2.707090 1_555
O6 P2 1.535801 1_555
O6 Sr1 2.707079 1_555
O7 P3 1.535796 1_655
O7 Sr0 2.707081 1_555
O8 P5 1.619795 1_555
O8 P0 1.623839 1_555
O9 P6 1.619796 1_555
O9 P1 1.623838 1_555
O10 P7 1.619807 1_555
O10 P2 1.623826 1_555
O11 P4 1.619811 1_555
O11 P3 1.623826 1_555
O12 P0 1.534167 1_555
O12 Sr0 2.758674 1_555
O13 P1 1.534171 1_556
O13 Sr1 2.758676 1_555
O14 P2 1.534183 1_555
O14 Sr2 2.758655 1_555
O15 P3 1.534195 1_554
O15 Sr3 2.758660 1_555
O16 P6 1.530759 1_555
O16 Sr3 2.671291 1_655
O17 P5 1.530767 1_545
O17 Sr2 2.671283 1_555
O18 P4 1.530760 1_555
O18 Sr1 2.671286 1_455
O19 P7 1.530768 1_565
O19 Sr0 2.671286 1_555
O20 P1 1.548339 1_555
O20 Sr2 2.672222 1_555
O21 P0 1.548329 1_555
O21 Sr3 2.672212 1_655
O22 P4 1.524931 1_555
O22 Sr1 2.565478 1_555
O22 Sr0 2.582339 1_555
O23 P2 1.548327 1_555
O23 Sr1 2.672220 1_455
O24 P5 1.524941 1_455
O24 Sr2 2.565480 1_565
O24 Sr3 2.582321 1_555
O25 P6 1.524931 1_555
O25 Sr3 2.565492 1_555
O25 Sr2 2.582326 1_555
O26 P7 1.524930 1_655
O26 Sr0 2.565478 1_545
O26 Sr1 2.582339 1_555
O27 P3 1.548323 1_555
O27 Sr0 2.672218 1_555
