# generated using pymatgen
data_Li7Co5O12
_symmetry_space_group_name_H-M   'P 1'
_cell_length_a   5.17605986
_cell_length_b   5.17605986
_cell_length_c   14.84476373
_cell_angle_alpha   78.00667434
_cell_angle_beta   78.00667434
_cell_angle_gamma   33.67246271
_symmetry_Int_Tables_number   1
_chemical_formula_structural   Li7Co5O12
_chemical_formula_sum   'Li7 Co5 O12'
_cell_volume   215.25135086
_cell_formula_units_Z   1
loop_
 _symmetry_equiv_pos_site_id
 _symmetry_equiv_pos_as_xyz
  1  'x, y, z'
loop_
 _atom_site_type_symbol
 _atom_site_label
 _atom_site_symmetry_multiplicity
 _atom_site_fract_x
 _atom_site_fract_y
 _atom_site_fract_z
 _atom_site_occupancy
  Li  Li0  1  0.24826500  0.24826500  0.91787500  1
  Li  Li1  1  0.75173500  0.75173500  0.08212500  1
  Li  Li2  1  0.25211400  0.25211400  0.24908600  1
  Li  Li3  1  0.74963700  0.74963700  0.41670500  1
  Li  Li4  1  0.25036300  0.25036300  0.58329500  1
  Li  Li5  1  0.74788600  0.74788600  0.75091400  1
  Li  Li6  1  0.50000000  0.50000000  0.00000000  1
  Co  Co0  1  0.00081900  0.00081900  0.84036700  1
  Co  Co1  1  0.99918100  0.99918100  0.15963300  1
  Co  Co2  1  0.50008000  0.50008000  0.33160600  1
  Co  Co3  1  0.00000000  0.00000000  0.50000000  1
  Co  Co4  1  0.49992000  0.49992000  0.66839400  1
  O  O0  1  0.88310300  0.88310300  0.94636900  1
  O  O1  1  0.38604200  0.38604200  0.12810300  1
  O  O2  1  0.88935400  0.88935400  0.28397300  1
  O  O3  1  0.38418500  0.38418500  0.45424800  1
  O  O4  1  0.88338300  0.88338300  0.62155000  1
  O  O5  1  0.38704000  0.38704000  0.78858900  1
  O  O6  1  0.61395800  0.61395800  0.87189700  1
  O  O7  1  0.11689700  0.11689700  0.05363100  1
  O  O8  1  0.61296000  0.61296000  0.21141100  1
  O  O9  1  0.11661700  0.11661700  0.37845000  1
  O  O10  1  0.61581500  0.61581500  0.54575200  1
  O  O11  1  0.11064600  0.11064600  0.71602700  1
loop_
_geom_bond_atom_site_label_1
_geom_bond_atom_site_label_2
_geom_bond_distance
_geom_bond_site_symmetry_2
Li0 O5 2.104343 1_555
Li0 O0 2.111115 1_545
Li0 O0 2.111115 1_455
Li0 O7 2.148623 1_556
Li0 O6 2.208781 1_455
Li0 O6 2.208781 1_545
Li1 O8 2.104343 1_555
Li1 O7 2.111115 1_655
Li1 O7 2.111115 1_565
Li1 O0 2.148623 1_554
Li1 O1 2.208781 1_655
Li1 O1 2.208781 1_565
Li2 O1 1.987867 1_555
Li2 O9 2.090653 1_555
Li2 O2 2.161172 1_455
Li2 O2 2.161172 1_545
Li2 O8 2.190028 1_455
Li2 O8 2.190028 1_545
Li3 O10 2.079673 1_555
Li3 O2 2.148130 1_555
Li3 O9 2.152252 1_565
Li3 O9 2.152252 1_655
Li3 O3 2.158252 1_655
Li3 O3 2.158252 1_565
Li4 O3 2.079673 1_555
Li4 O11 2.148130 1_555
Li4 O4 2.152252 1_545
Li4 O4 2.152252 1_455
Li4 O10 2.158252 1_455
Li4 O10 2.158252 1_545
Li5 O6 1.987867 1_555
Li5 O4 2.090653 1_555
Li5 O11 2.161172 1_655
Li5 O11 2.161172 1_565
Li5 O5 2.190028 1_655
Li5 O5 2.190028 1_565
Li6 O6 1.989703 1_554
Li6 O1 1.989703 1_555
Li6 O0 2.150196 1_454
Li6 O0 2.150196 1_544
Li6 O7 2.150196 1_565
Li6 O7 2.150196 1_655
Co0 O0 1.743455 1_445
Co0 O11 1.928475 1_555
Co0 O6 1.987748 1_545
Co0 O6 1.987748 1_455
Co0 O5 2.117910 1_455
Co0 O5 2.117910 1_545
Co1 O7 1.743455 1_665
Co1 O2 1.928475 1_555
Co1 O1 1.987748 1_565
Co1 O1 1.987748 1_655
Co1 O8 2.117910 1_655
Co1 O8 2.117910 1_565
Co2 O8 1.888926 1_555
Co2 O3 1.930142 1_555
Co2 O2 2.070758 1_545
Co2 O2 2.070758 1_455
Co2 O9 2.100731 1_565
Co2 O9 2.100731 1_655
Co3 O9 1.919804 1_555
Co3 O4 1.919804 1_445
Co3 O10 2.089039 1_455
Co3 O3 2.089039 1_545
Co3 O10 2.089039 1_545
Co3 O3 2.089039 1_455
Co4 O5 1.888926 1_555
Co4 O10 1.930142 1_555
Co4 O11 2.070758 1_565
Co4 O11 2.070758 1_655
Co4 O4 2.100731 1_455
Co4 O4 2.100731 1_545
