# generated using pymatgen
data_Pr2FeSbO7
_symmetry_space_group_name_H-M   'P 1'
_cell_length_a   7.49050049
_cell_length_b   7.49050049
_cell_length_c   7.49050049
_cell_angle_alpha   120.27208715
_cell_angle_beta   119.50882313
_cell_angle_gamma   90.19110898
_symmetry_Int_Tables_number   1
_chemical_formula_structural   Pr2FeSbO7
_chemical_formula_sum   'Pr4 Fe2 Sb2 O14'
_cell_volume   297.65241159
_cell_formula_units_Z   2
loop_
 _symmetry_equiv_pos_site_id
 _symmetry_equiv_pos_as_xyz
  1  'x, y, z'
loop_
 _atom_site_type_symbol
 _atom_site_label
 _atom_site_symmetry_multiplicity
 _atom_site_fract_x
 _atom_site_fract_y
 _atom_site_fract_z
 _atom_site_occupancy
  Pr  Pr0  1  0.50000000  0.00000000  0.00000000  1
  Pr  Pr1  1  0.50000000  0.50000000  0.50000000  1
  Pr  Pr2  1  0.50000000  0.00000000  0.50000000  1
  Pr  Pr3  1  0.00000000  0.00000000  0.00000000  1
  Fe  Fe0  1  0.00000000  0.50000000  0.00000000  1
  Fe  Fe1  1  0.00000000  0.00000000  0.50000000  1
  Sb  Sb0  1  0.00000000  0.50000000  0.50000000  1
  Sb  Sb1  1  0.50000000  0.50000000  0.00000000  1
  O  O0  1  0.91702300  0.16702300  0.75000000  1
  O  O1  1  0.32558100  0.57558100  0.75000000  1
  O  O2  1  0.91580900  0.57386000  0.73908300  1
  O  O3  1  0.33477800  0.17672600  0.76091700  1
  O  O4  1  0.91580900  0.17672600  0.34194900  1
  O  O5  1  0.33477800  0.57386000  0.15805100  1
  O  O6  1  0.08297700  0.83297700  0.25000000  1
  O  O7  1  0.67441900  0.42441900  0.25000000  1
  O  O8  1  0.08419100  0.42614000  0.26091700  1
  O  O9  1  0.66522200  0.82327400  0.23908300  1
  O  O10  1  0.08419100  0.82327400  0.65805100  1
  O  O11  1  0.66522200  0.42614000  0.84194900  1
  O  O12  1  0.62381800  0.87381800  0.75000000  1
  O  O13  1  0.37618200  0.12618200  0.25000000  1
loop_
_geom_bond_atom_site_label_1
_geom_bond_atom_site_label_2
_geom_bond_distance
_geom_bond_site_symmetry_2
Fe0 O0 2.061059 1_454
Fe0 O6 2.061059 1_555
Fe0 O8 2.098040 1_555
Fe0 O2 2.098040 1_454
Fe0 O11 2.098047 1_454
Fe0 O5 2.098047 1_555
Fe1 O6 2.061059 1_545
Fe1 O0 2.061059 1_455
Fe1 O4 2.098040 1_455
Fe1 O10 2.098040 1_545
Fe1 O3 2.098045 1_555
Fe1 O9 2.098045 1_445
O0 Pr3 2.584359 1_656
O0 Pr2 2.584359 1_555
O1 Sb1 2.048856 1_556
O1 Sb0 2.048856 1_555
O1 Pr1 2.623041 1_555
O1 Pr0 2.623041 1_566
O2 Sb0 2.006712 1_655
O2 Pr1 2.590147 1_555
O2 Pr3 2.624685 1_666
O3 Sb1 2.006711 1_556
O3 Pr0 2.590146 1_556
O3 Pr2 2.624679 1_555
O4 Sb0 2.006712 1_655
O4 Pr0 2.590147 1_555
O4 Pr3 2.624685 1_655
O5 Sb1 2.006705 1_555
O5 Pr1 2.590147 1_555
O5 Pr2 2.624685 1_565
O6 Pr3 2.584359 1_565
O6 Pr2 2.584359 1_565
O7 Sb0 2.048856 1_655
O7 Sb1 2.048856 1_555
O7 Pr1 2.623041 1_555
O7 Pr0 2.623041 1_555
O8 Sb0 2.006712 1_555
O8 Pr1 2.590147 1_555
O8 Pr3 2.624685 1_555
O9 Sb1 2.006711 1_555
O9 Pr0 2.590146 1_565
O9 Pr2 2.624679 1_565
O10 Sb0 2.006712 1_555
O10 Pr0 2.590147 1_566
O10 Pr3 2.624685 1_566
O11 Sb1 2.006705 1_556
O11 Pr1 2.590147 1_555
O11 Pr2 2.624685 1_555
O12 Pr0 2.278715 1_566
O12 Pr1 2.278715 1_555
O12 Pr2 2.310766 1_565
O12 Pr3 2.310766 1_666
O13 Pr1 2.278715 1_555
O13 Pr0 2.278715 1_555
O13 Pr2 2.310766 1_555
O13 Pr3 2.310766 1_555
