# generated using pymatgen
data_AlH21C3(SO5)3
_symmetry_space_group_name_H-M   'P 1'
_cell_length_a   6.54218400
_cell_length_b   16.92847200
_cell_length_c   18.04778830
_cell_angle_alpha   60.86739689
_cell_angle_beta   90.00000000
_cell_angle_gamma   90.00000000
_symmetry_Int_Tables_number   1
_chemical_formula_structural   AlH21C3(SO5)3
_chemical_formula_sum   'Al4 H84 C12 S12 O60'
_cell_volume   1745.92303615
_cell_formula_units_Z   4
loop_
 _symmetry_equiv_pos_site_id
 _symmetry_equiv_pos_as_xyz
  1  'x, y, z'
loop_
 _atom_site_type_symbol
 _atom_site_label
 _atom_site_symmetry_multiplicity
 _atom_site_fract_x
 _atom_site_fract_y
 _atom_site_fract_z
 _atom_site_occupancy
  Al  Al0  1  0.00914500  0.78302500  0.12394800  1
  Al  Al1  1  0.49085500  0.78302500  0.62394800  1
  Al  Al2  1  0.99085500  0.21697500  0.87605200  1
  Al  Al3  1  0.50914500  0.21697500  0.37605200  1
  H  H0  1  0.96111600  0.61609700  0.24013400  1
  H  H1  1  0.53888400  0.61609700  0.74013400  1
  H  H2  1  0.03888400  0.38390300  0.75986600  1
  H  H3  1  0.46111600  0.38390300  0.25986600  1
  H  H4  1  0.85409800  0.63093400  0.15181600  1
  H  H5  1  0.64590200  0.63093400  0.65181600  1
  H  H6  1  0.14590200  0.36906600  0.84818400  1
  H  H7  1  0.35409800  0.36906600  0.34818400  1
  H  H8  1  0.65522400  0.79422800  0.18658300  1
  H  H9  1  0.84477600  0.79422800  0.68658300  1
  H  H10  1  0.34477600  0.20577200  0.81341700  1
  H  H11  1  0.15522400  0.20577200  0.31341700  1
  H  H12  1  0.73629500  0.89328400  0.11829800  1
  H  H13  1  0.76370500  0.89328400  0.61829800  1
  H  H14  1  0.26370500  0.10671600  0.88170200  1
  H  H15  1  0.23629500  0.10671600  0.38170200  1
  H  H16  1  0.23682000  0.76300900  0.24944600  1
  H  H17  1  0.26318000  0.76300900  0.74944600  1
  H  H18  1  0.76318000  0.23699100  0.75055400  1
  H  H19  1  0.73682000  0.23699100  0.25055400  1
  H  H20  1  0.98938600  0.76075600  0.27415900  1
  H  H21  1  0.51061400  0.76075600  0.77415900  1
  H  H22  1  0.01061400  0.23924400  0.72584100  1
  H  H23  1  0.48938600  0.23924400  0.22584100  1
  H  H24  1  0.96075500  0.77545000  0.98086400  1
  H  H25  1  0.53924500  0.77545000  0.48086400  1
  H  H26  1  0.03924500  0.22455000  0.01913600  1
  H  H27  1  0.46075500  0.22455000  0.51913600  1
  H  H28  1  0.76625500  0.82194100  0.00015600  1
  H  H29  1  0.73374500  0.82194100  0.50015600  1
  H  H30  1  0.23374500  0.17805900  0.99984400  1
  H  H31  1  0.26625500  0.17805900  0.49984400  1
  H  H32  1  0.32827000  0.68492000  0.13113800  1
  H  H33  1  0.17173000  0.68492000  0.63113800  1
  H  H34  1  0.67173000  0.31508000  0.86886200  1
  H  H35  1  0.82827000  0.31508000  0.36886200  1
  H  H36  1  0.35822500  0.79102100  0.05724500  1
  H  H37  1  0.14177500  0.79102100  0.55724500  1
  H  H38  1  0.64177500  0.20897900  0.94275500  1
  H  H39  1  0.85822500  0.20897900  0.44275500  1
  H  H40  1  0.18541800  0.93226300  0.09459100  1
  H  H41  1  0.31458200  0.93226300  0.59459100  1
  H  H42  1  0.81458200  0.06773700  0.90540900  1
  H  H43  1  0.68541800  0.06773700  0.40540900  1
  H  H44  1  0.16116300  0.93381700  0.00659500  1
  H  H45  1  0.33883700  0.93381700  0.50659500  1
  H  H46  1  0.83883700  0.06618300  0.99340500  1
  H  H47  1  0.66116300  0.06618300  0.49340500  1
  H  H48  1  0.61803100  0.57836500  0.46368700  1
  H  H49  1  0.88196900  0.57836500  0.96368700  1
  H  H50  1  0.38196900  0.42163500  0.53631300  1
  H  H51  1  0.11803100  0.42163500  0.03631300  1
  H  H52  1  0.40097400  0.58746200  0.39771500  1
  H  H53  1  0.09902600  0.58746200  0.89771500  1
  H  H54  1  0.59902600  0.41253800  0.60228500  1
  H  H55  1  0.90097400  0.41253800  0.10228500  1
  H  H56  1  0.65508200  0.58271200  0.36221000  1
  H  H57  1  0.84491800  0.58271200  0.86221000  1
  H  H58  1  0.34491800  0.41728800  0.63779000  1
  H  H59  1  0.15508200  0.41728800  0.13779000  1
  H  H60  1  0.54202700  0.89814200  0.80196900  1
  H  H61  1  0.95797300  0.89814200  0.30196900  1
  H  H62  1  0.45797300  0.10185800  0.19803100  1
  H  H63  1  0.04202700  0.10185800  0.69803100  1
  H  H64  1  0.27564400  0.88970100  0.82893500  1
  H  H65  1  0.22435600  0.88970100  0.32893500  1
  H  H66  1  0.72435600  0.11029900  0.17106500  1
  H  H67  1  0.77564400  0.11029900  0.67106500  1
  H  H68  1  0.38563400  0.99848100  0.75736700  1
  H  H69  1  0.11436600  0.99848100  0.25736700  1
  H  H70  1  0.61436600  0.00151900  0.24263300  1
  H  H71  1  0.88563400  0.00151900  0.74263300  1
  H  H72  1  0.47831400  0.57646500  0.98313200  1
  H  H73  1  0.02168600  0.57646500  0.48313200  1
  H  H74  1  0.52168600  0.42353500  0.01686800  1
  H  H75  1  0.97831400  0.42353500  0.51686800  1
  H  H76  1  0.25417600  0.58869600  0.03499500  1
  H  H77  1  0.24582400  0.58869600  0.53499500  1
  H  H78  1  0.74582400  0.41130400  0.96500500  1
  H  H79  1  0.75417600  0.41130400  0.46500500  1
  H  H80  1  0.44279000  0.67715400  0.99036700  1
  H  H81  1  0.05721000  0.67715400  0.49036700  1
  H  H82  1  0.55721000  0.32284600  0.00963300  1
  H  H83  1  0.94279000  0.32284600  0.50963300  1
  C  C0  1  0.56158300  0.60550400  0.39859300  1
  C  C1  1  0.93841700  0.60550400  0.89859300  1
  C  C2  1  0.43841700  0.39449600  0.60140700  1
  C  C3  1  0.06158300  0.39449600  0.10140700  1
  C  C4  1  0.41259400  0.93222800  0.81296900  1
  C  C5  1  0.08740600  0.93222800  0.31296900  1
  C  C6  1  0.58740600  0.06777200  0.18703100  1
  C  C7  1  0.91259400  0.06777200  0.68703100  1
  C  C8  1  0.41717100  0.60395900  0.02243700  1
  C  C9  1  0.08282900  0.60395900  0.52243700  1
  C  C10  1  0.58282900  0.39604100  0.97756300  1
  C  C11  1  0.91717100  0.39604100  0.47756300  1
  S  S0  1  0.58078200  0.72494300  0.34912400  1
  S  S1  1  0.91921800  0.72494300  0.84912400  1
  S  S2  1  0.41921800  0.27505700  0.65087600  1
  S  S3  1  0.08078200  0.27505700  0.15087600  1
  S  S4  1  0.47576000  0.94881600  0.89994800  1
  S  S5  1  0.02424000  0.94881600  0.39994800  1
  S  S6  1  0.52424000  0.05118400  0.10005200  1
  S  S7  1  0.97576000  0.05118400  0.60005200  1
  S  S8  1  0.54201300  0.55538600  0.12264600  1
  S  S9  1  0.95798700  0.55538600  0.62264600  1
  S  S10  1  0.45798700  0.44461400  0.87735400  1
  S  S11  1  0.04201300  0.44461400  0.37735400  1
  O  O0  1  0.48324800  0.75923400  0.26396700  1
  O  O1  1  0.01675200  0.75923400  0.76396700  1
  O  O2  1  0.51675200  0.24076600  0.73603300  1
  O  O3  1  0.98324800  0.24076600  0.23603300  1
  O  O4  1  0.79930900  0.74840800  0.34035500  1
  O  O5  1  0.70069100  0.74840800  0.84035500  1
  O  O6  1  0.20069100  0.25159200  0.65964500  1
  O  O7  1  0.29930900  0.25159200  0.15964500  1
  O  O8  1  0.46744500  0.75423500  0.40177100  1
  O  O9  1  0.03255500  0.75423500  0.90177100  1
  O  O10  1  0.53255500  0.24576500  0.59822900  1
  O  O11  1  0.96744500  0.24576500  0.09822900  1
  O  O12  1  0.51666500  0.85740400  0.97341600  1
  O  O13  1  0.98333500  0.85740400  0.47341600  1
  O  O14  1  0.48333500  0.14259600  0.02658400  1
  O  O15  1  0.01666500  0.14259600  0.52658400  1
  O  O16  1  0.29203800  0.98975500  0.91686100  1
  O  O17  1  0.20796200  0.98975500  0.41686100  1
  O  O18  1  0.70796200  0.01024500  0.08313900  1
  O  O19  1  0.79203800  0.01024500  0.58313900  1
  O  O20  1  0.65464800  0.00784000  0.87465000  1
  O  O21  1  0.84535200  0.00784000  0.37465000  1
  O  O22  1  0.34535200  0.99216000  0.12535000  1
  O  O23  1  0.15464800  0.99216000  0.62535000  1
  O  O24  1  0.75881400  0.58311100  0.10459900  1
  O  O25  1  0.74118600  0.58311100  0.60459900  1
  O  O26  1  0.24118600  0.41688900  0.89540100  1
  O  O27  1  0.25881400  0.41688900  0.39540100  1
  O  O28  1  0.51624400  0.45651900  0.16155400  1
  O  O29  1  0.98375600  0.45651900  0.66155400  1
  O  O30  1  0.48375600  0.54348100  0.83844600  1
  O  O31  1  0.01624400  0.54348100  0.33844600  1
  O  O32  1  0.43796000  0.59270800  0.17144900  1
  O  O33  1  0.06204000  0.59270800  0.67144900  1
  O  O34  1  0.56204000  0.40729200  0.82855100  1
  O  O35  1  0.93796000  0.40729200  0.32855100  1
  O  O36  1  0.91850600  0.66272400  0.18138600  1
  O  O37  1  0.58149400  0.66272400  0.68138600  1
  O  O38  1  0.08149400  0.33727600  0.81861400  1
  O  O39  1  0.41850600  0.33727600  0.31861400  1
  O  O40  1  0.75060300  0.82762400  0.13740700  1
  O  O41  1  0.74939700  0.82762400  0.63740700  1
  O  O42  1  0.24939700  0.17237600  0.86259300  1
  O  O43  1  0.25060300  0.17237600  0.36259300  1
  O  O44  1  0.09193800  0.77422000  0.22850100  1
  O  O45  1  0.40806200  0.77422000  0.72850100  1
  O  O46  1  0.90806200  0.22578000  0.77149900  1
  O  O47  1  0.59193800  0.22578000  0.27149900  1
  O  O48  1  0.90867500  0.79976300  0.01780900  1
  O  O49  1  0.59132500  0.79976300  0.51780900  1
  O  O50  1  0.09132500  0.20023700  0.98219100  1
  O  O51  1  0.40867500  0.20023700  0.48219100  1
  O  O52  1  0.26746700  0.74838400  0.10374400  1
  O  O53  1  0.23253300  0.74838400  0.60374400  1
  O  O54  1  0.73253300  0.25161600  0.89625600  1
  O  O55  1  0.76746700  0.25161600  0.39625600  1
  O  O56  1  0.10253200  0.90642200  0.06530000  1
  O  O57  1  0.39746800  0.90642200  0.56530000  1
  O  O58  1  0.89746800  0.09357800  0.93470000  1
  O  O59  1  0.60253200  0.09357800  0.43470000  1
loop_
_geom_bond_atom_site_label_1
_geom_bond_atom_site_label_2
_geom_bond_distance
_geom_bond_site_symmetry_2
Al0 O36 1.875658 1_455
Al0 O52 1.881785 1_555
Al0 O44 1.897980 1_555
Al0 O48 1.911351 1_455
Al0 O40 1.915336 1_455
Al0 O56 1.924679 1_555
Al1 O37 1.875658 1_555
Al1 O53 1.881785 1_555
Al1 O45 1.897980 1_555
Al1 O49 1.911351 1_555
Al1 O41 1.915336 1_555
Al1 O57 1.924679 1_555
Al2 O38 1.875658 1_655
Al2 O54 1.881785 1_555
Al2 O46 1.897980 1_555
Al2 O50 1.911351 1_655
Al2 O42 1.915336 1_655
Al2 O58 1.924679 1_555
Al3 O39 1.875658 1_555
Al3 O55 1.881785 1_555
Al3 O47 1.897980 1_555
Al3 O51 1.911351 1_555
Al3 O43 1.915336 1_555
Al3 O59 1.924679 1_555
H0 O36 1.005017 1_555
H0 O31 1.632698 1_655
H1 O37 1.005017 1_555
H1 O30 1.632698 1_555
H2 O38 1.005017 1_555
H2 O29 1.632698 1_455
H3 O39 1.005017 1_555
H3 O28 1.632698 1_555
H4 O36 1.015680 1_555
H4 O24 1.562654 1_555
H5 O37 1.015680 1_555
H5 O25 1.562654 1_555
H6 O38 1.015680 1_555
H6 O26 1.562654 1_555
H7 O39 1.015680 1_555
H7 O27 1.562654 1_555
H8 O40 1.004053 1_555
H8 O0 1.661849 1_555
H9 O41 1.004053 1_555
H9 O1 1.661849 1_655
H10 O42 1.004053 1_555
H10 O2 1.661849 1_555
H11 O43 1.004053 1_555
H11 O3 1.661849 1_455
H12 O40 0.994959 1_555
H13 O41 0.994959 1_555
H14 O42 0.994959 1_555
H15 O43 0.994959 1_555
H16 O44 1.003727 1_555
H16 O0 1.629593 1_555
H17 O45 1.003727 1_555
H17 O1 1.629593 1_555
H18 O46 1.003727 1_555
H18 O2 1.629593 1_555
H19 O47 1.003727 1_555
H19 O3 1.629593 1_555
H20 O44 0.999112 1_655
H20 O4 1.665583 1_555
H21 O45 0.999112 1_555
H21 O5 1.665583 1_555
H22 O46 0.999112 1_455
H22 O6 1.665583 1_555
H23 O47 0.999112 1_555
H23 O7 1.665583 1_555
H24 O48 0.998641 1_556
H24 O9 1.698941 1_655
H25 O49 0.998641 1_555
H25 O8 1.698941 1_555
H26 O50 0.998641 1_554
H26 O11 1.698941 1_455
H27 O51 0.998641 1_555
H27 O10 1.698941 1_555
H28 O48 0.997061 1_555
H28 O12 1.725531 1_554
H29 O49 0.997061 1_555
H29 O13 1.725531 1_555
H30 O50 0.997061 1_555
H30 O14 1.725531 1_556
H31 O51 0.997061 1_555
H31 O15 1.725531 1_555
H32 O52 1.019666 1_555
H32 O32 1.541182 1_555
H33 O53 1.019666 1_555
H33 O33 1.541182 1_555
H34 O54 1.019666 1_555
H34 O34 1.541182 1_555
H35 O55 1.019666 1_555
H35 O35 1.541182 1_555
H36 O52 0.993985 1_555
H36 O12 1.723606 1_554
H37 O53 0.993985 1_555
H37 O13 1.723606 1_455
H38 O54 0.993985 1_555
H38 O14 1.723606 1_556
H39 O55 0.993985 1_555
H39 O15 1.723606 1_655
H40 O56 0.994999 1_555
H41 O57 0.994999 1_555
H42 O58 0.994999 1_555
H43 O59 0.994999 1_555
H44 O56 1.003156 1_555
H44 O16 1.661140 1_554
H45 O57 1.003156 1_555
H45 O17 1.661140 1_555
H46 O58 1.003156 1_555
H46 O18 1.661140 1_556
H47 O59 1.003156 1_555
H47 O19 1.661140 1_555
C0 H56 1.095844 1_555
C0 H48 1.096399 1_555
C0 H52 1.096489 1_555
C1 H57 1.095844 1_555
C1 H49 1.096399 1_555
C1 H53 1.096489 1_655
C2 H58 1.095844 1_555
C2 H50 1.096399 1_555
C2 H54 1.096489 1_555
C3 H59 1.095844 1_555
C3 H51 1.096399 1_555
C3 H55 1.096489 1_455
C4 H68 1.095522 1_555
C4 H60 1.095871 1_555
C4 H64 1.096385 1_555
C5 H69 1.095522 1_555
C5 H61 1.095871 1_455
C5 H65 1.096385 1_555
C6 H70 1.095522 1_555
C6 H62 1.095871 1_555
C6 H66 1.096385 1_555
C7 H71 1.095522 1_555
C7 H63 1.095871 1_655
C7 H67 1.096385 1_555
C8 H76 1.094622 1_555
C8 H80 1.095503 1_554
C8 H72 1.096040 1_554
C9 H77 1.094622 1_555
C9 H81 1.095503 1_555
C9 H73 1.096040 1_555
C10 H78 1.094622 1_555
C10 H82 1.095503 1_556
C10 H74 1.096040 1_556
C11 H79 1.094622 1_555
C11 H83 1.095503 1_555
C11 H75 1.096040 1_555
O0 S0 1.495831 1_555
O1 S1 1.495831 1_455
O2 S2 1.495831 1_555
O3 S3 1.495831 1_655
O4 S0 1.471566 1_555
O5 S1 1.471566 1_555
O6 S2 1.471566 1_555
O7 S3 1.471566 1_555
O8 S0 1.468748 1_555
O9 S1 1.468748 1_455
O10 S2 1.468748 1_555
O11 S3 1.468748 1_655
O12 S4 1.492167 1_555
O13 S5 1.492167 1_655
O14 S6 1.492167 1_555
O15 S7 1.492167 1_455
O16 S4 1.491345 1_555
O17 S5 1.491345 1_555
O18 S6 1.491345 1_555
O19 S7 1.491345 1_555
O20 S4 1.460236 1_545
O21 S5 1.460236 1_645
O22 S6 1.460236 1_565
O23 S7 1.460236 1_465
O24 S8 1.479611 1_555
O25 S9 1.479611 1_555
O26 S10 1.479611 1_555
O27 S11 1.479611 1_555
O28 S8 1.475930 1_555
O29 S9 1.475930 1_555
O30 S10 1.475930 1_555
O31 S11 1.475930 1_555
O32 S8 1.476546 1_555
O33 S9 1.476546 1_455
O34 S10 1.476546 1_555
O35 S11 1.476546 1_655
