# generated using pymatgen
data_YbSi2
_symmetry_space_group_name_H-M   'P 1'
_cell_length_a   7.96015457
_cell_length_b   7.96015457
_cell_length_c   7.96015457
_cell_angle_alpha   152.07982227
_cell_angle_beta   152.07982227
_cell_angle_gamma   39.89674684
_symmetry_Int_Tables_number   1
_chemical_formula_structural   YbSi2
_chemical_formula_sum   'Yb2 Si4'
_cell_volume   110.37547745
_cell_formula_units_Z   2
loop_
 _symmetry_equiv_pos_site_id
 _symmetry_equiv_pos_as_xyz
  1  'x, y, z'
loop_
 _atom_site_type_symbol
 _atom_site_label
 _atom_site_symmetry_multiplicity
 _atom_site_fract_x
 _atom_site_fract_y
 _atom_site_fract_z
 _atom_site_occupancy
  Yb  Yb0  1  0.25000000  0.75000000  0.50000000  1
  Yb  Yb1  1  0.50000000  0.50000000  0.00000000  1
  Si  Si0  1  0.08061159  0.08061159  0.00000000  1
  Si  Si1  1  0.83061159  0.33061159  0.50000000  1
  Si  Si2  1  0.66938841  0.16938841  0.50000000  1
  Si  Si3  1  0.91938841  0.91938841  0.00000000  1
loop_
_geom_bond_atom_site_label_1
_geom_bond_atom_site_label_2
_geom_bond_distance
_geom_bond_site_symmetry_2
Si0 Si2 2.335127 1_454
Si0 Si2 2.335127 1_555
Si0 Si3 2.412720 1_445
Si0 Yb1 2.971672 1_545
Si0 Yb1 2.971672 1_444
Si0 Yb1 2.971672 1_455
Si0 Yb1 2.971672 1_556
Si0 Yb0 3.180181 1_544
Si0 Yb0 3.180181 1_555
Si1 Si3 2.335127 1_545
Si1 Si3 2.335127 1_556
Si1 Si2 2.412720 1_555
Si1 Yb0 2.971672 1_645
Si1 Yb0 2.971672 1_544
Si1 Yb0 2.971672 1_656
Si1 Yb0 2.971672 1_555
Si1 Yb1 3.180181 1_555
Si1 Yb1 3.180181 1_656
Si2 Yb0 2.971672 1_555
Si2 Yb0 2.971672 1_544
Si2 Yb0 2.971672 1_645
Si2 Yb0 2.971672 1_656
Si2 Yb1 3.180181 1_545
Si2 Yb1 3.180181 1_556
Si3 Yb1 2.971672 1_666
Si3 Yb1 2.971672 1_554
Si3 Yb1 2.971672 1_565
Si3 Yb1 2.971672 1_655
Si3 Yb0 3.180181 1_554
Si3 Yb0 3.180181 1_655
