# generated using pymatgen
data_Mn3(CrN2)2
_symmetry_space_group_name_H-M   'P 1'
_cell_length_a   6.17364227
_cell_length_b   6.48773526
_cell_length_c   5.38937713
_cell_angle_alpha   90.00000219
_cell_angle_beta   93.75380078
_cell_angle_gamma   121.69775267
_symmetry_Int_Tables_number   1
_chemical_formula_structural   Mn3(CrN2)2
_chemical_formula_sum   'Mn6 Cr4 N8'
_cell_volume   183.11642279
_cell_formula_units_Z   2
loop_
 _symmetry_equiv_pos_site_id
 _symmetry_equiv_pos_as_xyz
  1  'x, y, z'
loop_
 _atom_site_type_symbol
 _atom_site_label
 _atom_site_symmetry_multiplicity
 _atom_site_fract_x
 _atom_site_fract_y
 _atom_site_fract_z
 _atom_site_occupancy
  Mn  Mn0  1  0.36452900  0.08806400  0.94645500  1
  Mn  Mn1  1  0.63547100  0.72353400  0.55354500  1
  Mn  Mn2  1  0.63547100  0.91193600  0.05354500  1
  Mn  Mn3  1  0.36452900  0.27646600  0.44645500  1
  Mn  Mn4  1  0.00000000  0.67479600  0.75000000  1
  Mn  Mn5  1  0.00000000  0.32520400  0.25000000  1
  Cr  Cr0  1  0.68044600  0.19424600  0.63237000  1
  Cr  Cr1  1  0.31955400  0.51380000  0.86763000  1
  Cr  Cr2  1  0.31955400  0.80575400  0.36763000  1
  Cr  Cr3  1  0.68044600  0.48620000  0.13237000  1
  N  N0  1  0.28584000  0.99579700  0.60666500  1
  N  N1  1  0.71416000  0.70995700  0.89333500  1
  N  N2  1  0.71416000  0.00420300  0.39333500  1
  N  N3  1  0.28584000  0.29004300  0.10666500  1
  N  N4  1  0.73530200  0.24456900  0.98062100  1
  N  N5  1  0.26469800  0.50926700  0.51937900  1
  N  N6  1  0.26469800  0.75543100  0.01937900  1
  N  N7  1  0.73530200  0.49073300  0.48062100  1
loop_
_geom_bond_atom_site_label_1
_geom_bond_atom_site_label_2
_geom_bond_distance
_geom_bond_site_symmetry_2
Mn0 N3 1.850005 1_556
Mn0 N0 1.877697 1_545
Mn0 N4 1.951117 1_555
Mn0 N6 1.955871 1_546
Mn1 N2 1.850011 1_565
Mn1 N1 1.877696 1_555
Mn1 N5 1.951116 1_555
Mn1 N7 1.955865 1_555
Mn2 N1 1.850005 1_554
Mn2 N2 1.877697 1_565
Mn2 N6 1.951117 1_555
Mn2 N4 1.955871 1_564
Mn3 N0 1.850011 1_545
Mn3 N3 1.877696 1_555
Mn3 N7 1.951116 1_555
Mn3 N5 1.955865 1_555
Mn4 N7 1.960300 1_455
Mn4 N6 1.960300 1_556
Mn4 N0 2.089107 1_555
Mn4 N1 2.089107 1_455
Mn5 N5 1.960300 1_555
Mn5 N4 1.960300 1_454
Mn5 N2 2.089107 1_455
Mn5 N3 2.089107 1_555
Cr0 N2 1.878260 1_555
Cr0 N4 1.882671 1_555
Cr0 N7 1.958368 1_555
Cr0 N0 2.066733 1_545
Cr1 N3 1.878260 1_556
Cr1 N5 1.882671 1_555
Cr1 N6 1.958368 1_556
Cr1 N1 2.066733 1_555
Cr2 N0 1.878260 1_555
Cr2 N6 1.882671 1_555
Cr2 N5 1.958368 1_555
Cr2 N2 2.066733 1_565
Cr3 N1 1.878260 1_554
Cr3 N7 1.882671 1_555
Cr3 N4 1.958368 1_554
Cr3 N3 2.066733 1_555
