# generated using pymatgen
data_H3S
_symmetry_space_group_name_H-M   'P 1'
_cell_length_a   9.03786977
_cell_length_b   9.03786977
_cell_length_c   5.28225200
_cell_angle_alpha   90.00000000
_cell_angle_beta   90.00000000
_cell_angle_gamma   91.47860327
_symmetry_Int_Tables_number   1
_chemical_formula_structural   H3S
_chemical_formula_sum   'H24 S8'
_cell_volume   431.32699900
_cell_formula_units_Z   8
loop_
 _symmetry_equiv_pos_site_id
 _symmetry_equiv_pos_as_xyz
  1  'x, y, z'
loop_
 _atom_site_type_symbol
 _atom_site_label
 _atom_site_symmetry_multiplicity
 _atom_site_fract_x
 _atom_site_fract_y
 _atom_site_fract_z
 _atom_site_occupancy
  H  H0  1  0.00126800  0.33434500  0.74796100  1
  H  H1  1  0.99873200  0.66565500  0.74796100  1
  H  H2  1  0.66565500  0.99873200  0.75203900  1
  H  H3  1  0.33434500  0.00126800  0.75203900  1
  H  H4  1  0.99873200  0.66565500  0.25203900  1
  H  H5  1  0.00126800  0.33434500  0.25203900  1
  H  H6  1  0.33434500  0.00126800  0.24796100  1
  H  H7  1  0.66565500  0.99873200  0.24796100  1
  H  H8  1  0.15635800  0.47113100  0.00000000  1
  H  H9  1  0.84364200  0.52886900  0.00000000  1
  H  H10  1  0.52886900  0.84364200  0.50000000  1
  H  H11  1  0.47113100  0.15635800  0.50000000  1
  H  H12  1  0.84442700  0.46076700  0.50000000  1
  H  H13  1  0.15557300  0.53923300  0.50000000  1
  H  H14  1  0.53923300  0.15557300  0.00000000  1
  H  H15  1  0.46076700  0.84442700  0.00000000  1
  H  H16  1  0.00000000  0.00000000  0.82087300  1
  H  H17  1  0.00000000  0.00000000  0.67912700  1
  H  H18  1  0.00000000  0.00000000  0.17912700  1
  H  H19  1  0.00000000  0.00000000  0.32087300  1
  H  H20  1  0.47031000  0.47031000  0.75000000  1
  H  H21  1  0.52969000  0.52969000  0.75000000  1
  H  H22  1  0.52969000  0.52969000  0.25000000  1
  H  H23  1  0.47031000  0.47031000  0.25000000  1
  S  S0  1  0.11424900  0.32608900  0.00000000  1
  S  S1  1  0.88575100  0.67391100  0.00000000  1
  S  S2  1  0.67391100  0.88575100  0.50000000  1
  S  S3  1  0.32608900  0.11424900  0.50000000  1
  S  S4  1  0.88951900  0.31900600  0.50000000  1
  S  S5  1  0.11048100  0.68099400  0.50000000  1
  S  S6  1  0.68099400  0.11048100  0.00000000  1
  S  S7  1  0.31900600  0.88951900  0.00000000  1
loop_
_geom_bond_atom_site_label_1
_geom_bond_atom_site_label_2
_geom_bond_distance
_geom_bond_site_symmetry_2
H0 S4 1.657587 1_455
H0 S0 1.680657 1_556
H1 S5 1.657587 1_655
H1 S1 1.680657 1_556
H2 S6 1.657587 1_566
H2 S2 1.680657 1_555
H3 S7 1.657587 1_546
H3 S3 1.680657 1_555
H4 S5 1.657587 1_655
H4 S1 1.680657 1_555
H5 S4 1.657587 1_455
H5 S0 1.680657 1_555
H6 S7 1.657587 1_545
H6 S3 1.680657 1_555
H7 S6 1.657587 1_565
H7 S2 1.680657 1_555
H8 S0 1.355534 1_555
H9 S1 1.355534 1_555
H10 S2 1.355534 1_555
H11 S3 1.355534 1_555
H12 S4 1.354456 1_555
H13 S5 1.354456 1_555
H14 S6 1.354456 1_555
H15 S7 1.354456 1_555
H16 H17 0.748738 1_555
H18 H19 0.748738 1_555
H20 H21 0.749108 1_555
H22 H23 0.749108 1_555
