# generated using pymatgen
data_Sc2Cu2Ge4O13
_symmetry_space_group_name_H-M   'P 1'
_cell_length_a   8.87220500
_cell_length_b   4.98141900
_cell_length_c   12.43956707
_cell_angle_alpha   83.93631972
_cell_angle_beta   90.00000000
_cell_angle_gamma   90.00000000
_symmetry_Int_Tables_number   1
_chemical_formula_structural   Sc2Cu2Ge4O13
_chemical_formula_sum   'Sc4 Cu4 Ge8 O26'
_cell_volume   546.70525973
_cell_formula_units_Z   2
loop_
 _symmetry_equiv_pos_site_id
 _symmetry_equiv_pos_as_xyz
  1  'x, y, z'
loop_
 _atom_site_type_symbol
 _atom_site_label
 _atom_site_symmetry_multiplicity
 _atom_site_fract_x
 _atom_site_fract_y
 _atom_site_fract_z
 _atom_site_occupancy
  Sc  Sc0  1  0.06178200  0.04612900  0.62719100  1
  Sc  Sc1  1  0.56178200  0.95387100  0.37280900  1
  Sc  Sc2  1  0.93821800  0.95387100  0.37280900  1
  Sc  Sc3  1  0.43821800  0.04612900  0.62719100  1
  Cu  Cu0  1  0.99770900  0.04720000  0.87711600  1
  Cu  Cu1  1  0.49770900  0.95280000  0.12288400  1
  Cu  Cu2  1  0.00229100  0.95280000  0.12288400  1
  Cu  Cu3  1  0.50229100  0.04720000  0.87711600  1
  Ge  Ge0  1  0.75000000  0.39799800  0.51483800  1
  Ge  Ge1  1  0.25000000  0.60200200  0.48516200  1
  Ge  Ge2  1  0.75000000  0.60974300  0.99273500  1
  Ge  Ge3  1  0.25000000  0.39025700  0.00726500  1
  Ge  Ge4  1  0.75000000  0.67519400  0.75112300  1
  Ge  Ge5  1  0.25000000  0.32480600  0.24887700  1
  Ge  Ge6  1  0.75000000  0.50915900  0.23298100  1
  Ge  Ge7  1  0.25000000  0.49084100  0.76701900  1
  O  O0  1  0.41699700  0.19739700  0.00439900  1
  O  O1  1  0.91699700  0.80260300  0.99560100  1
  O  O2  1  0.58300300  0.80260300  0.99560100  1
  O  O3  1  0.08300300  0.19739700  0.00439900  1
  O  O4  1  0.75000000  0.70988900  0.43280600  1
  O  O5  1  0.25000000  0.29011100  0.56719400  1
  O  O6  1  0.41535300  0.12437700  0.25243300  1
  O  O7  1  0.91535300  0.87562300  0.74756700  1
  O  O8  1  0.58464700  0.87562300  0.74756700  1
  O  O9  1  0.08464700  0.12437700  0.25243300  1
  O  O10  1  0.41704800  0.79276800  0.49480200  1
  O  O11  1  0.91704800  0.20723200  0.50519800  1
  O  O12  1  0.58295200  0.20723200  0.50519800  1
  O  O13  1  0.08295200  0.79276800  0.49480200  1
  O  O14  1  0.75000000  0.44661200  0.87273000  1
  O  O15  1  0.25000000  0.55338800  0.12727000  1
  O  O16  1  0.25000000  0.78875700  0.67646500  1
  O  O17  1  0.75000000  0.21124300  0.32353500  1
  O  O18  1  0.25000000  0.54766200  0.34699900  1
  O  O19  1  0.75000000  0.45233800  0.65300100  1
  O  O20  1  0.25000000  0.63472300  0.89344100  1
  O  O21  1  0.75000000  0.36527700  0.10655900  1
  O  O22  1  0.08734400  0.28618500  0.75840600  1
  O  O23  1  0.58734400  0.71381500  0.24159400  1
  O  O24  1  0.91265600  0.71381500  0.24159400  1
  O  O25  1  0.41265600  0.28618500  0.75840600  1
loop_
_geom_bond_atom_site_label_1
_geom_bond_atom_site_label_2
_geom_bond_distance
_geom_bond_site_symmetry_2
Cu0 O1 1.946886 1_545
Cu0 O22 1.964416 1_655
Cu0 O3 1.972237 1_656
Cu0 O7 2.037752 1_545
Cu1 O0 1.946886 1_565
Cu1 O23 1.964416 1_555
Cu1 O2 1.972237 1_554
Cu1 O6 2.037752 1_565
Cu2 O3 1.946886 1_565
Cu2 O24 1.964416 1_455
Cu2 O1 1.972237 1_454
Cu2 O9 2.037752 1_565
Cu3 O2 1.946886 1_545
Cu3 O25 1.964416 1_555
Cu3 O0 1.972237 1_556
Cu3 O8 2.037752 1_545
Ge0 O4 1.766413 1_555
Ge0 O19 1.767894 1_555
Ge0 O11 1.771460 1_555
Ge0 O12 1.771460 1_555
Ge1 O5 1.766413 1_555
Ge1 O18 1.767894 1_555
Ge1 O10 1.771460 1_555
Ge1 O13 1.771460 1_555
Ge2 O21 1.767358 1_556
Ge2 O1 1.768252 1_555
Ge2 O2 1.768252 1_555
Ge2 O14 1.773451 1_555
Ge3 O20 1.767358 1_554
Ge3 O0 1.768252 1_555
Ge3 O3 1.768252 1_555
Ge3 O15 1.773451 1_555
Ge4 O19 1.734513 1_555
Ge4 O7 1.772482 1_555
Ge4 O8 1.772482 1_555
Ge4 O14 1.794721 1_555
Ge5 O18 1.734513 1_555
Ge5 O6 1.772482 1_555
Ge5 O9 1.772482 1_555
Ge5 O15 1.794721 1_555
Ge6 O17 1.765816 1_555
Ge6 O24 1.776648 1_555
Ge6 O23 1.776648 1_555
Ge6 O21 1.795836 1_555
Ge7 O16 1.765816 1_555
Ge7 O25 1.776648 1_555
Ge7 O22 1.776648 1_555
Ge7 O20 1.795836 1_555
O4 Sc1 2.152003 1_555
O4 Sc2 2.152003 1_555
O5 Sc0 2.152003 1_555
O5 Sc3 2.152003 1_555
O6 Sc1 2.093510 1_545
O7 Sc0 2.093510 1_665
O8 Sc3 2.093510 1_565
O9 Sc2 2.093510 1_445
O10 Sc1 2.082934 1_555
O10 Sc3 2.186193 1_565
O11 Sc0 2.082934 1_655
O11 Sc2 2.186193 1_545
O12 Sc3 2.082934 1_555
O12 Sc1 2.186193 1_545
O13 Sc2 2.082934 1_455
O13 Sc0 2.186193 1_565
O16 Sc0 2.154530 1_565
O16 Sc3 2.154530 1_565
O17 Sc1 2.154530 1_545
O17 Sc2 2.154530 1_545
O22 Sc0 2.134960 1_555
O23 Sc1 2.134960 1_555
O24 Sc2 2.134960 1_555
O25 Sc3 2.134960 1_555
