# generated using pymatgen
data_Li3MnCoO5
_symmetry_space_group_name_H-M   'P 1'
_cell_length_a   2.98139000
_cell_length_b   5.06666018
_cell_length_c   12.09852222
_cell_angle_alpha   96.31107114
_cell_angle_beta   94.78193506
_cell_angle_gamma   91.03346213
_symmetry_Int_Tables_number   1
_chemical_formula_structural   Li3MnCoO5
_chemical_formula_sum   'Li6 Mn2 Co2 O10'
_cell_volume   180.94841875
_cell_formula_units_Z   2
loop_
 _symmetry_equiv_pos_site_id
 _symmetry_equiv_pos_as_xyz
  1  'x, y, z'
loop_
 _atom_site_type_symbol
 _atom_site_label
 _atom_site_symmetry_multiplicity
 _atom_site_fract_x
 _atom_site_fract_y
 _atom_site_fract_z
 _atom_site_occupancy
  Li  Li0  1  0.89361500  0.30485400  0.79376500  1
  Li  Li1  1  0.29108800  0.11619900  0.59828500  1
  Li  Li2  1  0.70645000  0.89792600  0.40001900  1
  Li  Li3  1  0.10446500  0.69871800  0.20198100  1
  Li  Li4  1  0.50405500  0.49421900  0.00291800  1
  Li  Li5  1  0.80914400  0.58565200  0.60148900  1
  Mn  Mn0  1  0.99529400  0.00495400  0.00045600  1
  Mn  Mn1  1  0.39125000  0.79167100  0.79258700  1
  Co  Co0  1  0.20918900  0.40391100  0.40858900  1
  Co  Co1  1  0.60900100  0.20761600  0.20437000  1
  O  O0  1  0.41137900  0.12772500  0.90089100  1
  O  O1  1  0.87113700  0.92805100  0.71141600  1
  O  O2  1  0.24214900  0.71323400  0.48659300  1
  O  O3  1  0.62190500  0.52998700  0.30065900  1
  O  O4  1  0.05206900  0.33736000  0.09943700  1
  O  O5  1  0.36091700  0.46950300  0.70770800  1
  O  O6  1  0.77325300  0.25504000  0.49137500  1
  O  O7  1  0.14783400  0.08339600  0.30335600  1
  O  O8  1  0.58207600  0.87091300  0.10261000  1
  O  O9  1  0.92372900  0.67907000  0.89149700  1
loop_
_geom_bond_atom_site_label_1
_geom_bond_atom_site_label_2
_geom_bond_distance
_geom_bond_site_symmetry_2
Li0 O5 2.027771 1_655
Li0 O1 2.051334 1_545
Li0 O5 2.065264 1_555
Li0 O9 2.117628 1_555
Li0 O0 2.200048 1_655
Li0 O0 2.252142 1_555
Li1 O5 2.102354 1_555
Li1 O6 2.111323 1_455
Li1 O6 2.169774 1_555
Li1 O1 2.208904 1_445
Li1 O2 2.316382 1_545
Li1 O1 2.392588 1_545
Li2 O6 2.011407 1_565
Li2 O2 2.073507 1_555
Li2 O3 2.103275 1_555
Li2 O7 2.106188 1_665
Li2 O2 2.124631 1_655
Li2 O7 2.235577 1_565
Li3 O4 2.091332 1_555
Li3 O3 2.121542 1_555
Li3 O8 2.144675 1_455
Li3 O3 2.166196 1_455
Li3 O8 2.169192 1_555
Li3 O7 2.181430 1_565
Li4 O4 2.058855 1_555
Li4 O0 2.113955 1_554
Li4 O8 2.140709 1_555
Li4 O4 2.144169 1_655
Li4 O9 2.185499 1_554
Li4 O9 2.373824 1_454
Li5 O6 2.017759 1_555
Li5 O5 2.051294 1_555
Li5 O1 2.062216 1_555
Li5 O2 2.117396 1_655
Li5 O5 2.133704 1_655
Li5 O2 2.247867 1_555
Mn0 O0 1.939814 1_654
Mn0 O4 1.952361 1_655
Mn0 O8 1.978550 1_545
Mn0 O9 1.992844 1_544
Mn0 O0 2.173198 1_554
Mn0 O8 2.217230 1_645
Mn1 O5 1.826977 1_555
Mn1 O1 1.944320 1_455
Mn1 O1 1.958741 1_555
Mn1 O9 2.024809 1_455
Mn1 O0 2.027888 1_565
Mn1 O9 2.035623 1_555
Co0 O2 1.735028 1_555
Co0 O6 1.899761 1_455
Co0 O7 1.946148 1_555
Co0 O3 2.012488 1_555
Co0 O6 2.081162 1_555
Co0 O3 2.240849 1_455
Co1 O3 1.896930 1_555
Co1 O8 1.987282 1_545
Co1 O7 2.032180 1_555
Co1 O4 2.054395 1_655
Co1 O7 2.071834 1_655
Co1 O4 2.161546 1_555
