# generated using pymatgen
data_Nd4(LuS2)11
_symmetry_space_group_name_H-M   'P 1'
_cell_length_a   19.49365359
_cell_length_b   19.49365359
_cell_length_c   11.25439685
_cell_angle_alpha   88.61073884
_cell_angle_beta   88.61073884
_cell_angle_gamma   11.51452011
_symmetry_Int_Tables_number   1
_chemical_formula_structural   Nd4(LuS2)11
_chemical_formula_sum   'Nd4 Lu11 S22'
_cell_volume   853.44523820
_cell_formula_units_Z   1
loop_
 _symmetry_equiv_pos_site_id
 _symmetry_equiv_pos_as_xyz
  1  'x, y, z'
loop_
 _atom_site_type_symbol
 _atom_site_label
 _atom_site_symmetry_multiplicity
 _atom_site_fract_x
 _atom_site_fract_y
 _atom_site_fract_z
 _atom_site_occupancy
  Nd  Nd0  1  0.10442500  0.10442500  0.98694500  1
  Nd  Nd1  1  0.89557500  0.89557500  0.01305500  1
  Nd  Nd2  1  0.36686800  0.36686800  0.65148000  1
  Nd  Nd3  1  0.63313200  0.63313200  0.34852000  1
  Lu  Lu0  1  0.79768200  0.79768200  0.94156800  1
  Lu  Lu1  1  0.20231800  0.20231800  0.05843200  1
  Lu  Lu2  1  0.46179600  0.46179600  0.72924900  1
  Lu  Lu3  1  0.53820400  0.53820400  0.27075100  1
  Lu  Lu4  1  0.65770400  0.65770400  0.69858700  1
  Lu  Lu5  1  0.34229600  0.34229600  0.30141300  1
  Lu  Lu6  1  0.26344800  0.26344800  0.64810400  1
  Lu  Lu7  1  0.73655200  0.73655200  0.35189600  1
  Lu  Lu8  1  0.06978400  0.06978400  0.63895900  1
  Lu  Lu9  1  0.93021600  0.93021600  0.36104100  1
  Lu  Lu10  1  0.00000000  0.00000000  0.00000000  1
  S  S0  1  0.08718300  0.08718300  0.24692700  1
  S  S1  1  0.91281700  0.91281700  0.75307300  1
  S  S2  1  0.18957400  0.18957400  0.30867100  1
  S  S3  1  0.81042600  0.81042600  0.69132900  1
  S  S4  1  0.28029500  0.28029500  0.41053100  1
  S  S5  1  0.71970500  0.71970500  0.58946900  1
  S  S6  1  0.44495300  0.44495300  0.50639000  1
  S  S7  1  0.55504700  0.55504700  0.49361000  1
  S  S8  1  0.13486600  0.13486600  0.54781900  1
  S  S9  1  0.86513400  0.86513400  0.45218100  1
  S  S10  1  0.59280300  0.59280300  0.78628600  1
  S  S11  1  0.40719700  0.40719700  0.21371400  1
  S  S12  1  0.45344900  0.45344900  0.96888500  1
  S  S13  1  0.54655100  0.54655100  0.03111500  1
  S  S14  1  0.34999300  0.34999300  0.90803500  1
  S  S15  1  0.65000700  0.65000700  0.09196500  1
  S  S16  1  0.16903200  0.16903200  0.84829000  1
  S  S17  1  0.83096800  0.83096800  0.15171000  1
  S  S18  1  0.00786600  0.00786600  0.75978200  1
  S  S19  1  0.99213400  0.99213400  0.24021800  1
  S  S20  1  0.25503900  0.25503900  0.88089700  1
  S  S21  1  0.74496100  0.74496100  0.11910300  1
loop_
_geom_bond_atom_site_label_1
_geom_bond_atom_site_label_2
_geom_bond_distance
_geom_bond_site_symmetry_2
Nd0 S15 2.906740 1_546
Nd0 S15 2.906740 1_456
Nd0 S16 2.919807 1_555
Nd0 S0 2.985479 1_556
Nd0 S13 3.009411 1_546
Nd0 S13 3.009411 1_456
Nd0 S10 3.029307 1_545
Nd0 S10 3.029307 1_455
Nd1 S14 2.906740 1_564
Nd1 S14 2.906740 1_654
Nd1 S17 2.919807 1_555
Nd1 S1 2.985479 1_554
Nd1 S12 3.009411 1_654
Nd1 S12 3.009411 1_564
Nd1 S11 3.029307 1_655
Nd1 S11 3.029307 1_565
Nd2 S1 2.899563 1_455
Nd2 S1 2.899563 1_545
Nd2 S14 2.945046 1_555
Nd2 S3 2.961551 1_455
Nd2 S3 2.961551 1_545
Nd2 S9 2.977720 1_545
Nd2 S9 2.977720 1_455
Nd2 S6 3.405872 1_555
Nd3 S0 2.899563 1_565
Nd3 S0 2.899563 1_655
Nd3 S15 2.945046 1_555
Nd3 S2 2.961551 1_565
Nd3 S2 2.961551 1_655
Nd3 S8 2.977720 1_655
Nd3 S8 2.977720 1_565
Nd3 S7 3.405872 1_555
Lu0 S20 2.661096 1_565
Lu0 S20 2.661096 1_655
Lu0 S17 2.722005 1_556
Lu0 S21 2.824078 1_556
Lu0 S14 2.836654 1_565
Lu0 S14 2.836654 1_655
Lu0 S3 2.847457 1_555
Lu1 S21 2.661096 1_455
Lu1 S21 2.661096 1_545
Lu1 S16 2.722005 1_554
Lu1 S20 2.824078 1_554
Lu1 S15 2.836654 1_545
Lu1 S15 2.836654 1_455
Lu1 S2 2.847457 1_555
Lu2 S6 2.607204 1_555
Lu2 S18 2.676868 1_655
Lu2 S18 2.676868 1_565
Lu2 S12 2.708480 1_555
Lu2 S1 2.735091 1_545
Lu2 S1 2.735091 1_455
Lu3 S7 2.607204 1_555
Lu3 S19 2.676868 1_455
Lu3 S19 2.676868 1_545
Lu3 S13 2.708480 1_555
Lu3 S0 2.735091 1_565
Lu3 S0 2.735091 1_655
Lu4 S16 2.625208 1_655
Lu4 S16 2.625208 1_565
Lu4 S5 2.673666 1_555
Lu4 S10 2.681629 1_555
Lu4 S8 2.749756 1_565
Lu4 S8 2.749756 1_655
Lu5 S17 2.625208 1_455
Lu5 S17 2.625208 1_545
Lu5 S4 2.673666 1_555
Lu5 S11 2.681629 1_555
Lu5 S9 2.749756 1_455
Lu5 S9 2.749756 1_545
Lu6 S20 2.632273 1_555
Lu6 S5 2.682009 1_455
Lu6 S5 2.682009 1_545
Lu6 S3 2.724812 1_545
Lu6 S3 2.724812 1_455
Lu6 S4 2.736933 1_555
Lu7 S21 2.632273 1_555
Lu7 S4 2.682009 1_565
Lu7 S4 2.682009 1_655
Lu7 S2 2.724812 1_565
Lu7 S2 2.724812 1_655
Lu7 S5 2.736933 1_555
Lu8 S7 2.621487 1_455
Lu8 S7 2.621487 1_545
Lu8 S8 2.701737 1_555
Lu8 S10 2.728116 1_545
Lu8 S10 2.728116 1_455
Lu8 S18 2.731060 1_555
Lu9 S6 2.621487 1_565
Lu9 S6 2.621487 1_655
Lu9 S9 2.701737 1_555
Lu9 S11 2.728116 1_655
Lu9 S11 2.728116 1_565
Lu9 S19 2.731060 1_555
Lu10 S13 2.690370 1_545
Lu10 S12 2.690370 1_454
Lu10 S12 2.690370 1_544
Lu10 S13 2.690370 1_455
Lu10 S19 2.713275 1_445
Lu10 S18 2.713275 1_554
