# generated using pymatgen
data_Er3(Al3Os)4
_symmetry_space_group_name_H-M   'P 1'
_cell_length_a   8.75360688
_cell_length_b   8.75361474
_cell_length_c   9.48192772
_cell_angle_alpha   90.00000780
_cell_angle_beta   89.99998497
_cell_angle_gamma   120.00007278
_symmetry_Int_Tables_number   1
_chemical_formula_structural   Er3(Al3Os)4
_chemical_formula_sum   'Er6 Al24 Os8'
_cell_volume   629.21841009
_cell_formula_units_Z   2
loop_
 _symmetry_equiv_pos_site_id
 _symmetry_equiv_pos_as_xyz
  1  'x, y, z'
loop_
 _atom_site_type_symbol
 _atom_site_label
 _atom_site_symmetry_multiplicity
 _atom_site_fract_x
 _atom_site_fract_y
 _atom_site_fract_z
 _atom_site_occupancy
  Er  Er0  1  0.19366165  0.38732807  0.25001342  1
  Er  Er1  1  0.80633532  0.61266904  0.74998686  1
  Er  Er2  1  0.61267523  0.80633716  0.25001138  1
  Er  Er3  1  0.38733483  0.19366559  0.74998504  1
  Er  Er4  1  0.19366013  0.80633069  0.25001074  1
  Er  Er5  1  0.80633307  0.19366861  0.74998181  1
  Al  Al0  1  0.33333584  0.66666499  0.01275619  1
  Al  Al1  1  0.66666527  0.33333040  0.98717381  1
  Al  Al2  1  0.66666816  0.33333860  0.51276619  1
  Al  Al3  1  0.33332807  0.66666691  0.48729695  1
  Al  Al4  1  0.16310990  0.32621710  0.57549627  1
  Al  Al5  1  0.83689394  0.67378111  0.42455831  1
  Al  Al6  1  0.67378487  0.83689107  0.57549891  1
  Al  Al7  1  0.83688390  0.67376501  0.07543119  1
  Al  Al8  1  0.32622160  0.16310928  0.42455854  1
  Al  Al9  1  0.16311058  0.32621780  0.92451804  1
  Al  Al10  1  0.16310749  0.83689196  0.57549353  1
  Al  Al11  1  0.32622580  0.16311327  0.07542596  1
  Al  Al12  1  0.83689249  0.16311325  0.42455432  1
  Al  Al13  1  0.67377695  0.83688993  0.92451443  1
  Al  Al14  1  0.83688606  0.16311950  0.07542637  1
  Al  Al15  1  0.16311292  0.83689301  0.92451490  1
  Al  Al16  1  0.56097067  0.12195394  0.24999319  1
  Al  Al17  1  0.43901777  0.87803920  0.75000995  1
  Al  Al18  1  0.87802723  0.43901256  0.24999376  1
  Al  Al19  1  0.12195206  0.56097602  0.75001023  1
  Al  Al20  1  0.56097214  0.43901539  0.24999354  1
  Al  Al21  1  0.43901876  0.56097424  0.75000979  1
  Al  Al22  1  0.00001216  0.00000525  0.24999871  1
  Al  Al23  1  0.00001025  0.00000854  0.75000176  1
  Os  Os0  1  0.49998641  0.00001461  -0.00014062  1
  Os  Os1  1  0.00000557  0.50000611  -0.00013161  1
  Os  Os2  1  0.49999518  0.00002105  0.50014737  1
  Os  Os3  1  0.49998947  0.49997326  -0.00013929  1
  Os  Os4  1  0.00000199  0.49999742  0.50013731  1
  Os  Os5  1  0.49998857  0.49997170  0.50014402  1
  Os  Os6  1  0.00001837  0.00000729  -0.00011272  1
  Os  Os7  1  0.00002932  0.00001808  0.50011344  1
loop_
_geom_bond_atom_site_label_1
_geom_bond_atom_site_label_2
_geom_bond_distance
_geom_bond_site_symmetry_2
Er0 Os4 3.338140 1_555
Er0 Os5 3.338196 1_555
Er0 Os1 3.338305 1_555
Er0 Os3 3.338348 1_555
Er0 Er4 3.667794 1_555
Er0 Er2 3.667858 1_555
Er1 Os5 3.336322 1_555
Er1 Os4 3.336344 1_655
Er1 Os3 3.336526 1_556
Er1 Os1 3.336539 1_656
Er1 Er5 3.667758 1_555
Er1 Er3 3.667776 1_555
Er2 Os5 3.338393 1_555
Er2 Os2 3.338413 1_565
Er2 Os3 3.338506 1_555
Er2 Os0 3.338527 1_565
Er2 Er4 3.667865 1_555
Er3 Os2 3.336083 1_555
Er3 Os5 3.336118 1_555
Er3 Os0 3.336326 1_556
Er3 Os3 3.336360 1_556
Er3 Er5 3.667733 1_555
Er4 Os4 3.338177 1_555
Er4 Os1 3.338238 1_555
Er4 Os2 3.338282 1_565
Er4 Os0 3.338333 1_565
Er5 Os2 3.336221 1_555
Er5 Os4 3.336265 1_655
Er5 Os0 3.336559 1_556
Er5 Os1 3.336594 1_656
Al0 Os1 2.529877 1_555
Al0 Os3 2.529998 1_555
Al0 Os0 2.530030 1_565
Al0 Al13 2.713070 1_554
Al0 Al9 2.713106 1_554
Al0 Al15 2.713144 1_554
Al0 Al21 2.962169 1_554
Al0 Al17 2.962170 1_554
Al0 Al19 2.962206 1_554
Al0 Er2 3.089533 1_555
Al0 Er0 3.089535 1_555
Al0 Er4 3.089540 1_555
Al1 Os0 2.529677 1_556
Al1 Os3 2.529701 1_556
Al1 Os1 2.529865 1_656
Al1 Al14 2.713038 1_556
Al1 Al7 2.713072 1_556
Al1 Al11 2.713089 1_556
Al1 Al18 2.962707 1_556
Al1 Al16 2.962762 1_556
Al1 Al20 2.962772 1_556
Al1 Er3 3.089028 1_555
Al1 Er5 3.089047 1_555
Al1 Er1 3.089059 1_555
Al2 Os5 2.529627 1_555
Al2 Os2 2.529661 1_555
Al2 Os4 2.529786 1_655
Al2 Al5 2.712984 1_555
Al2 Al8 2.713010 1_555
Al2 Al20 2.962376 1_555
Al2 Er5 3.089238 1_555
Al2 Er1 3.089249 1_555
Al2 Er3 3.089250 1_555
Al3 Os4 2.529823 1_555
Al3 Os2 2.530043 1_565
Al3 Os5 2.530055 1_555
Al3 Al4 2.713012 1_555
Al3 Al6 2.713068 1_555
Al3 Er4 3.089709 1_555
Al3 Er0 3.089726 1_555
Al3 Er2 3.089782 1_555
Al4 Os7 2.574095 1_555
Al4 Os5 2.652295 1_555
Al4 Os4 2.652389 1_555
Al4 Al8 2.857291 1_555
Al4 Er0 3.120782 1_555
Al4 Er5 3.195853 1_455
Al4 Er3 3.195867 1_555
Al5 Os7 2.574825 1_665
Al5 Os4 2.652978 1_655
Al5 Os5 2.653093 1_555
Al5 Al6 2.857302 1_555
Al5 Er1 3.120274 1_555
Al5 Er4 3.196083 1_655
Al5 Er2 3.196136 1_555
Al6 Os7 2.574430 1_665
Al6 Os2 2.652598 1_565
Al6 Os5 2.652604 1_555
Al6 Er2 3.120825 1_555
Al6 Er1 3.195837 1_555
Al6 Er5 3.195848 1_565
Al7 Os6 2.574834 1_665
Al7 Os1 2.652851 1_655
Al7 Os3 2.652972 1_555
Al7 Er1 3.120404 1_554
Al7 Er4 3.196293 1_655
Al7 Er2 3.196323 1_555
Al8 Os7 2.574497 1_555
Al8 Os5 2.652778 1_555
Al8 Os2 2.652785 1_555
Al8 Er3 3.120257 1_555
Al8 Er0 3.196151 1_555
Al8 Er4 3.196160 1_545
Al9 Os6 2.574143 1_556
Al9 Os3 2.652272 1_556
Al9 Os1 2.652405 1_556
Al9 Er0 3.120899 1_556
Al9 Er3 3.196083 1_555
Al9 Er5 3.196107 1_455
Al10 Os7 2.574128 1_565
Al10 Os2 2.652345 1_565
Al10 Os4 2.652427 1_555
Al10 Al3 2.712975 1_555
Al10 Al17 2.798437 1_555
Al10 Al19 2.798458 1_555
Al10 Al5 2.857238 1_455
Al10 Al8 2.857263 1_565
Al10 Al23 2.975495 1_565
Al10 Er4 3.120785 1_555
Al10 Er1 3.195858 1_455
Al10 Er3 3.195864 1_565
Al11 Os6 2.574565 1_555
Al11 Os0 2.652707 1_555
Al11 Os3 2.652708 1_555
Al11 Al20 2.798644 1_555
Al11 Al16 2.798649 1_555
Al11 Al9 2.857152 1_554
Al11 Al15 2.857168 1_544
Al11 Al22 2.975831 1_555
Al11 Er3 3.120387 1_554
Al11 Er0 3.196355 1_555
Al11 Er4 3.196365 1_545
Al12 Os7 2.574801 1_655
Al12 Os4 2.652930 1_655
Al12 Os2 2.653053 1_555
Al12 Al2 2.713049 1_555
Al12 Al18 2.798643 1_555
Al12 Al16 2.798737 1_555
Al12 Al4 2.857295 1_655
Al12 Al6 2.857340 1_545
Al12 Al22 2.975832 1_655
Al12 Er5 3.120267 1_555
Al12 Er0 3.196065 1_655
Al12 Er2 3.196120 1_545
Al13 Os6 2.574375 1_666
Al13 Os0 2.652549 1_566
Al13 Os3 2.652561 1_556
Al13 Al17 2.798353 1_555
Al13 Al21 2.798381 1_555
Al13 Al14 2.857234 1_566
Al13 Al7 2.857273 1_556
Al13 Al23 2.975638 1_665
Al13 Er2 3.120904 1_556
Al13 Er1 3.196069 1_555
Al13 Er5 3.196092 1_565
Al14 Os6 2.574839 1_655
Al14 Os1 2.652882 1_655
Al14 Os0 2.653002 1_555
Al14 Al18 2.798620 1_555
Al14 Al16 2.798706 1_555
Al14 Al9 2.857181 1_654
Al14 Al22 2.976001 1_655
Al14 Er5 3.120413 1_554
Al14 Er0 3.196323 1_655
Al14 Er2 3.196356 1_545
Al15 Os6 2.574140 1_566
Al15 Os0 2.652237 1_566
Al15 Os1 2.652363 1_556
Al15 Al17 2.798337 1_555
Al15 Al19 2.798384 1_555
Al15 Al7 2.857249 1_456
Al15 Al23 2.975549 1_565
Al15 Er4 3.120903 1_556
Al15 Er3 3.196040 1_565
Al15 Er1 3.196062 1_455
Al16 Os0 2.545530 1_555
Al16 Os2 2.545692 1_555
Al16 Al18 2.775396 1_555
Al16 Al20 2.775427 1_555
Al16 Al8 2.798649 1_555
Al16 Al2 2.962426 1_555
Al16 Er4 3.014638 1_545
Al16 Er2 3.014679 1_545
Al17 Os0 2.543117 1_566
Al17 Os2 2.543251 1_565
Al17 Al19 2.775456 1_555
Al17 Al21 2.775469 1_555
Al17 Al6 2.798440 1_555
Al17 Al3 2.961897 1_555
Al17 Er3 3.014647 1_565
Al17 Er5 3.014684 1_565
Al18 Os1 2.545562 1_655
Al18 Os4 2.545714 1_655
Al18 Al20 2.775388 1_555
Al18 Al7 2.798607 1_555
Al18 Al5 2.798687 1_555
Al18 Al2 2.962316 1_555
Al18 Er4 3.014711 1_655
Al18 Er0 3.014723 1_655
Al19 Os1 2.543114 1_556
Al19 Os4 2.543255 1_555
Al19 Al21 2.775485 1_555
Al19 Al9 2.798406 1_555
Al19 Al4 2.798442 1_555
Al19 Al3 2.961913 1_555
Al19 Er5 3.014608 1_455
Al19 Er1 3.014615 1_455
Al20 Os3 2.545525 1_555
Al20 Os5 2.545679 1_555
Al20 Al8 2.798658 1_555
Al20 Al7 2.798664 1_555
Al20 Al5 2.798764 1_555
Al20 Er0 3.014639 1_555
Al20 Er2 3.014687 1_555
Al21 Os3 2.543121 1_556
Al21 Os5 2.543253 1_555
Al21 Al9 2.798363 1_555
Al21 Al4 2.798398 1_555
Al21 Al6 2.798442 1_555
Al21 Al3 2.961942 1_555
Al21 Er3 3.014637 1_555
Al21 Er1 3.014666 1_555
Al22 Os6 2.371539 1_555
Al22 Os7 2.371570 1_555
Al22 Er4 2.936235 1_545
Al22 Er0 2.936235 1_555
Al22 Er2 2.936339 1_445
Al22 Al8 2.975737 1_555
Al22 Al5 2.975830 1_445
Al22 Al7 2.975973 1_445
Al23 Os6 2.369396 1_556
Al23 Os7 2.369423 1_555
Al23 Er3 2.936246 1_555
Al23 Er5 2.936346 1_455
Al23 Er1 2.936362 1_445
Al23 Al4 2.975446 1_555
Al23 Al9 2.975507 1_555
Al23 Al6 2.975537 1_445
