# generated using pymatgen
data_TmCrTeO6
_symmetry_space_group_name_H-M   'P 1'
_cell_length_a   5.17427763
_cell_length_b   5.17411609
_cell_length_c   9.65199600
_cell_angle_alpha   90.00126723
_cell_angle_beta   89.99937458
_cell_angle_gamma   119.99896251
_symmetry_Int_Tables_number   1
_chemical_formula_structural   TmCrTeO6
_chemical_formula_sum   'Tm2 Cr2 Te2 O12'
_cell_volume   223.78872449
_cell_formula_units_Z   2
loop_
 _symmetry_equiv_pos_site_id
 _symmetry_equiv_pos_as_xyz
  1  'x, y, z'
loop_
 _atom_site_type_symbol
 _atom_site_label
 _atom_site_symmetry_multiplicity
 _atom_site_fract_x
 _atom_site_fract_y
 _atom_site_fract_z
 _atom_site_occupancy
  Tm  Tm0  1  0.00000000  0.00000000  0.00000000  1
  Tm  Tm1  1  0.00000000  0.00000000  0.50000000  1
  Cr  Cr0  1  0.33309400  0.66654700  0.25000000  1
  Cr  Cr1  1  0.66690600  0.33345300  0.75000000  1
  Te  Te0  1  0.33331600  0.66665800  0.75000000  1
  Te  Te1  1  0.66668400  0.33334200  0.25000000  1
  O  O0  1  0.36192700  0.35170800  0.13800600  1
  O  O1  1  0.64829100  0.01019500  0.13799600  1
  O  O2  1  0.98981200  0.63808400  0.13800200  1
  O  O3  1  0.63807300  0.64829200  0.86199400  1
  O  O4  1  0.35170900  0.98980500  0.86200400  1
  O  O5  1  0.01018800  0.36191600  0.86199800  1
  O  O6  1  0.64829100  0.63809500  0.36200400  1
  O  O7  1  0.36192700  0.01021900  0.36199400  1
  O  O8  1  0.98981200  0.35172800  0.36199800  1
  O  O9  1  0.35170900  0.36190500  0.63799600  1
  O  O10  1  0.63807300  0.98978100  0.63800600  1
  O  O11  1  0.01018800  0.64827200  0.63800200  1
loop_
_geom_bond_atom_site_label_1
_geom_bond_atom_site_label_2
_geom_bond_distance
_geom_bond_site_symmetry_2
Cr0 O2 2.020824 1_455
Cr0 O8 2.020824 1_455
Cr0 O7 2.021725 1_565
Cr0 O0 2.021725 1_555
Cr0 O1 2.022469 1_565
Cr0 O6 2.022471 1_555
Cr1 O5 2.020824 1_655
Cr1 O11 2.020824 1_655
Cr1 O10 2.021725 1_545
Cr1 O3 2.021725 1_555
Cr1 O4 2.022469 1_545
Cr1 O9 2.022471 1_555
O0 Te1 1.952949 1_555
O0 Tm0 2.277079 1_555
O1 Te1 1.952982 1_555
O1 Tm0 2.276970 1_655
O2 Te1 1.952956 1_555
O2 Tm0 2.277059 1_665
O3 Te0 1.952949 1_555
O3 Tm0 2.277079 1_666
O4 Te0 1.952982 1_555
O4 Tm0 2.276970 1_566
O5 Te0 1.952956 1_555
O5 Tm0 2.277059 1_556
O6 Te1 1.952978 1_555
O6 Tm1 2.276972 1_665
O7 Te1 1.952949 1_555
O7 Tm1 2.277079 1_555
O8 Te1 1.952955 1_555
O8 Tm1 2.277059 1_655
O9 Te0 1.952978 1_555
O9 Tm1 2.276972 1_555
O10 Te0 1.952949 1_555
O10 Tm1 2.277079 1_665
O11 Te0 1.952955 1_555
O11 Tm1 2.277059 1_565
