# generated using pymatgen
data_MgSi2
_symmetry_space_group_name_H-M   'P 1'
_cell_length_a   5.16489700
_cell_length_b   5.66529631
_cell_length_c   7.68880370
_cell_angle_alpha   84.14015206
_cell_angle_beta   85.35639746
_cell_angle_gamma   64.82232838
_symmetry_Int_Tables_number   1
_chemical_formula_structural   MgSi2
_chemical_formula_sum   'Mg4 Si8'
_cell_volume   202.36498482
_cell_formula_units_Z   4
loop_
 _symmetry_equiv_pos_site_id
 _symmetry_equiv_pos_as_xyz
  1  'x, y, z'
loop_
 _atom_site_type_symbol
 _atom_site_label
 _atom_site_symmetry_multiplicity
 _atom_site_fract_x
 _atom_site_fract_y
 _atom_site_fract_z
 _atom_site_occupancy
  Mg  Mg0  1  0.36391500  0.92116500  0.75429500  1
  Mg  Mg1  1  0.19544600  0.02091500  0.12008800  1
  Mg  Mg2  1  0.53865100  0.71380100  0.40874000  1
  Mg  Mg3  1  0.29248600  0.45956300  0.90350600  1
  Si  Si0  1  0.61473200  0.20496800  0.20098600  1
  Si  Si1  1  0.83763500  0.39689200  0.75287500  1
  Si  Si2  1  0.02649000  0.18176400  0.46439400  1
  Si  Si3  1  0.52320700  0.22875200  0.51969900  1
  Si  Si4  1  0.73531900  0.58124000  0.06230600  1
  Si  Si5  1  0.80579800  0.97742100  0.90512500  1
  Si  Si6  1  0.10995100  0.54693500  0.30253400  1
  Si  Si7  1  0.95644300  0.76635300  0.60567000  1
loop_
_geom_bond_atom_site_label_1
_geom_bond_atom_site_label_2
_geom_bond_distance
_geom_bond_site_symmetry_2
Mg0 Si3 2.702728 1_565
Mg0 Si5 2.788942 1_555
Mg0 Si2 2.820126 1_565
Mg0 Si1 2.901369 1_465
Mg0 Mg3 2.903592 1_555
Mg0 Mg1 2.914893 1_566
Mg0 Si5 2.916928 1_455
Mg0 Mg2 2.932700 1_555
Mg0 Si1 2.937247 1_555
Mg0 Si7 2.944283 1_455
Mg0 Si7 2.965712 1_555
Mg0 Si4 3.107736 1_556
Mg0 Mg3 3.231791 1_565
Mg1 Si0 2.763962 1_455
Mg1 Si5 2.808251 1_444
Mg1 Si2 2.835848 1_555
Mg1 Si4 2.879713 1_545
Mg1 Mg2 2.884342 1_545
Mg1 Si0 2.904421 1_555
Mg1 Si4 3.063686 1_455
Mg1 Si6 3.084273 1_545
Mg2 Si6 2.767898 1_655
Mg2 Si3 2.825279 1_555
Mg2 Si4 2.830582 1_555
Mg2 Si7 2.864496 1_555
Mg2 Si2 2.879314 1_565
Mg2 Si6 2.948648 1_555
Mg2 Si2 3.011000 1_655
Mg2 Si3 3.089392 1_565
Mg2 Si1 3.153072 1_555
Mg2 Si7 3.164919 1_455
Mg2 Si0 3.220255 1_565
Mg3 Si0 2.825292 1_556
Mg3 Si1 2.846158 1_555
Mg3 Si4 2.856974 1_456
Mg3 Si1 2.867168 1_455
Mg3 Si5 2.885616 1_545
Mg3 Si7 2.922583 1_455
Mg3 Si5 2.941715 1_455
Mg3 Si4 3.026999 1_556
Mg3 Si6 3.160926 1_556
Si0 Si3 2.464211 1_555
Si0 Si4 2.574290 1_555
Si0 Si6 2.615680 1_555
Si0 Si5 2.638820 1_544
Si1 Si7 2.556427 1_555
Si1 Si2 2.558683 1_655
Si1 Si5 2.603475 1_545
Si1 Si4 2.620034 1_556
Si2 Si6 2.482090 1_555
Si2 Si3 2.502793 1_455
Si2 Si7 2.643530 1_445
Si2 Si3 2.759395 1_555
Si3 Si7 2.684169 1_545
Si3 Si6 2.698511 1_555
Si4 Si5 2.588597 1_554
Si4 Si6 2.716397 1_655
Si5 Si7 2.610940 1_555
Si6 Si7 2.657077 1_455
