# generated using pymatgen
data_Ba2CoGe2O7
_symmetry_space_group_name_H-M   'P 1'
_cell_length_a   8.49288248
_cell_length_b   8.49569055
_cell_length_c   11.28445110
_cell_angle_alpha   90.01447050
_cell_angle_beta   89.99619637
_cell_angle_gamma   89.96145805
_symmetry_Int_Tables_number   1
_chemical_formula_structural   Ba2CoGe2O7
_chemical_formula_sum   'Ba8 Co4 Ge8 O28'
_cell_volume   814.20567598
_cell_formula_units_Z   4
loop_
 _symmetry_equiv_pos_site_id
 _symmetry_equiv_pos_as_xyz
  1  'x, y, z'
loop_
 _atom_site_type_symbol
 _atom_site_label
 _atom_site_symmetry_multiplicity
 _atom_site_fract_x
 _atom_site_fract_y
 _atom_site_fract_z
 _atom_site_occupancy
  Ba  Ba0  1  0.33413500  0.16560400  0.24560700  1
  Ba  Ba1  1  0.33444600  0.16563800  0.74574200  1
  Ba  Ba2  1  0.16588500  0.66545300  0.25430000  1
  Ba  Ba3  1  0.16591900  0.66550600  0.75409100  1
  Ba  Ba4  1  0.66558000  0.83430600  0.24594400  1
  Ba  Ba5  1  0.66586400  0.83439800  0.74584400  1
  Ba  Ba6  1  0.83411700  0.33443400  0.25405700  1
  Ba  Ba7  1  0.83422700  0.33434400  0.75426400  1
  Co  Co0  1  0.49991100  0.49996000  0.50010000  1
  Co  Co1  1  0.00055800  0.99970300  0.00000500  1
  Co  Co2  1  0.49986000  0.49961600  0.00009300  1
  Co  Co3  1  0.00014100  0.99978000  0.50000200  1
  Ge  Ge0  1  0.14059700  0.35960400  0.01912800  1
  Ge  Ge1  1  0.14058600  0.35905300  0.51931500  1
  Ge  Ge2  1  0.35951500  0.85916600  0.48057500  1
  Ge  Ge3  1  0.36002300  0.85875900  0.98077800  1
  Ge  Ge4  1  0.85859000  0.64088900  0.01916100  1
  Ge  Ge5  1  0.85904200  0.64088800  0.51939900  1
  Ge  Ge6  1  0.64083000  0.14076700  0.48068300  1
  Ge  Ge7  1  0.64085800  0.14076800  0.98093000  1
  O  O0  1  0.00006800  0.50084200  0.08086000  1
  O  O1  1  0.99969300  0.49990700  0.58094900  1
  O  O2  1  0.49992400  0.00022700  0.41897700  1
  O  O3  1  0.50027700  0.99995200  0.91912900  1
  O  O4  1  0.13773300  0.36196100  0.36478600  1
  O  O5  1  0.13818000  0.36268400  0.86448300  1
  O  O6  1  0.36256900  0.86182600  0.13542500  1
  O  O7  1  0.36223400  0.86207900  0.63512600  1
  O  O8  1  0.86211300  0.63779900  0.36486300  1
  O  O9  1  0.86186800  0.63737900  0.86451400  1
  O  O10  1  0.63706400  0.13827600  0.13556100  1
  O  O11  1  0.63773300  0.13790500  0.63522600  1
  O  O12  1  0.31598000  0.42047700  0.09325000  1
  O  O13  1  0.31617900  0.42027300  0.59304600  1
  O  O14  1  0.18370100  0.91985400  0.40675900  1
  O  O15  1  0.18406900  0.91921500  0.90721700  1
  O  O16  1  0.68351500  0.57931300  0.09336200  1
  O  O17  1  0.68338000  0.58026300  0.59332000  1
  O  O18  1  0.81660100  0.07990100  0.40685200  1
  O  O19  1  0.81682300  0.08037500  0.90719400  1
  O  O20  1  0.57991700  0.31648500  0.40695400  1
  O  O21  1  0.57957900  0.31604700  0.90677800  1
  O  O22  1  0.91855100  0.81689600  0.09275800  1
  O  O23  1  0.92041900  0.81641200  0.59327100  1
  O  O24  1  0.42093700  0.68366300  0.40658600  1
  O  O25  1  0.42140900  0.68347000  0.90656400  1
  O  O26  1  0.07924100  0.18427300  0.09290500  1
  O  O27  1  0.07955900  0.18361100  0.59326500  1
loop_
_geom_bond_atom_site_label_1
_geom_bond_atom_site_label_2
_geom_bond_distance
_geom_bond_site_symmetry_2
Ba0 O4 2.714524 1_555
Ba0 O12 2.769428 1_555
Ba0 O26 2.771443 1_555
Ba0 O2 2.789817 1_555
Ba0 O10 2.865940 1_555
Ba0 O6 2.874416 1_545
Ba0 O14 3.050159 1_545
Ba0 O20 3.052582 1_555
Ba1 O5 2.714972 1_555
Ba1 O27 2.769488 1_555
Ba1 O13 2.770279 1_555
Ba1 O3 2.791454 1_545
Ba1 O11 2.871247 1_555
Ba1 O7 2.874416 1_545
Ba1 O21 3.045033 1_555
Ba1 O15 3.056047 1_545
Ba2 O6 2.716179 1_555
Ba2 O14 2.766332 1_555
Ba2 O24 2.769471 1_555
Ba2 O0 2.787675 1_555
Ba2 O4 2.874376 1_555
Ba2 O8 2.875453 1_455
Ba2 O12 3.041962 1_555
Ba2 O22 3.064127 1_455
Ba3 O7 2.715800 1_555
Ba3 O15 2.766594 1_555
Ba3 O25 2.773573 1_555
Ba3 O1 2.791298 1_455
Ba3 O5 2.868517 1_555
Ba3 O9 2.877228 1_455
Ba3 O13 3.044008 1_555
Ba3 O23 3.046694 1_455
Ba4 O8 2.715065 1_555
Ba4 O22 2.761305 1_555
Ba4 O16 2.771008 1_555
Ba4 O2 2.788283 1_565
Ba4 O6 2.869212 1_555
Ba4 O10 2.877498 1_565
Ba4 O24 3.040593 1_555
Ba4 O18 3.049184 1_565
Ba5 O9 2.713597 1_555
Ba5 O17 2.764715 1_555
Ba5 O23 2.767738 1_555
Ba5 O3 2.788407 1_555
Ba5 O11 2.874847 1_565
Ba5 O7 2.875014 1_555
Ba5 O25 3.041048 1_555
Ba5 O19 3.054155 1_565
Ba6 O10 2.714573 1_555
Ba6 O20 2.767852 1_555
Ba6 O18 2.770094 1_555
Ba6 O0 2.794392 1_655
Ba6 O8 2.874314 1_555
Ba6 O4 2.875086 1_655
Ba6 O16 3.041542 1_555
Ba6 O26 3.043540 1_655
Ba7 O11 2.716134 1_555
Ba7 O19 2.767253 1_555
Ba7 O21 2.768298 1_555
Ba7 O1 2.789617 1_555
Ba7 O9 2.868826 1_555
Ba7 O5 2.875733 1_655
Ba7 O27 3.045754 1_655
Ba7 O17 3.050137 1_555
Co0 O20 1.998463 1_555
Co0 O13 1.998713 1_555
Co0 O24 1.999669 1_555
Co0 O17 2.000305 1_555
Co1 O15 1.997736 1_554
Co1 O22 1.998700 1_455
Co1 O19 2.000180 1_464
Co1 O26 2.001247 1_565
Co2 O21 1.999263 1_554
Co2 O25 1.999277 1_554
Co2 O12 1.999371 1_555
Co2 O16 2.000076 1_555
Co3 O23 1.998792 1_455
Co3 O14 1.999132 1_555
Co3 O18 1.999299 1_465
Co3 O27 2.000584 1_565
Ge0 O5 1.745409 1_554
Ge0 O26 1.784668 1_555
Ge0 O12 1.785126 1_555
Ge0 O0 1.829491 1_555
Ge1 O4 1.744126 1_555
Ge1 O13 1.785412 1_555
Ge1 O27 1.785553 1_555
Ge1 O1 1.828953 1_455
Ge2 O7 1.744347 1_555
Ge2 O14 1.785657 1_555
Ge2 O24 1.786232 1_555
Ge2 O2 1.828548 1_565
Ge3 O6 1.745430 1_556
Ge3 O15 1.784743 1_555
Ge3 O25 1.785815 1_555
Ge3 O3 1.828644 1_555
Ge4 O9 1.745574 1_554
Ge4 O22 1.784780 1_555
Ge4 O16 1.785137 1_555
Ge4 O0 1.828307 1_655
Ge5 O8 1.744238 1_555
Ge5 O17 1.785463 1_555
Ge5 O23 1.786271 1_555
Ge5 O1 1.828246 1_555
Ge6 O11 1.744305 1_555
Ge6 O20 1.785517 1_555
Ge6 O18 1.785653 1_555
Ge6 O2 1.828704 1_555
Ge7 O10 1.745355 1_556
Ge7 O19 1.785374 1_555
Ge7 O21 1.785536 1_555
Ge7 O3 1.828840 1_545
