# generated using pymatgen
data_Li4MnCo2O7
_symmetry_space_group_name_H-M   'P 1'
_cell_length_a   5.00387800
_cell_length_b   5.09205835
_cell_length_c   10.68810235
_cell_angle_alpha   85.39412122
_cell_angle_beta   76.76833447
_cell_angle_gamma   72.27822003
_symmetry_Int_Tables_number   1
_chemical_formula_structural   Li4MnCo2O7
_chemical_formula_sum   'Li8 Mn2 Co4 O14'
_cell_volume   252.50665534
_cell_formula_units_Z   2
loop_
 _symmetry_equiv_pos_site_id
 _symmetry_equiv_pos_as_xyz
  1  'x, y, z'
loop_
 _atom_site_type_symbol
 _atom_site_label
 _atom_site_symmetry_multiplicity
 _atom_site_fract_x
 _atom_site_fract_y
 _atom_site_fract_z
 _atom_site_occupancy
  Li  Li0  1  0.07312000  0.50632400  0.84499700  1
  Li  Li1  1  0.64911900  0.49905100  0.70408200  1
  Li  Li2  1  0.21459900  0.49773600  0.57277500  1
  Li  Li3  1  0.78148500  0.50073000  0.43426000  1
  Li  Li4  1  0.34887900  0.50176300  0.29299700  1
  Li  Li5  1  0.92756300  0.49869500  0.14863100  1
  Li  Li6  1  0.50645500  0.49795900  0.99864800  1
  Li  Li7  1  0.14137200  0.00201600  0.71149200  1
  Mn  Mn0  1  0.00485700  0.99444200  0.99721700  1
  Mn  Mn1  1  0.57559300  0.99837300  0.85395800  1
  Co  Co0  1  0.70684000  0.00395200  0.57882300  1
  Co  Co1  1  0.27944400  0.00344700  0.43474500  1
  Co  Co2  1  0.85849700  0.00196400  0.28916500  1
  Co  Co3  1  0.42845900  0.99790100  0.14247000  1
  O  O0  1  0.76312000  0.76876400  0.99045100  1
  O  O1  1  0.31371200  0.78033700  0.86968500  1
  O  O2  1  0.85462600  0.76893100  0.72673200  1
  O  O3  1  0.47232800  0.77225500  0.56653700  1
  O  O4  1  0.03404800  0.77241300  0.42694600  1
  O  O5  1  0.60035000  0.77689300  0.27339800  1
  O  O6  1  0.17727300  0.77629200  0.13758800  1
  O  O7  1  0.41341800  0.23517300  0.72631100  1
  O  O8  1  0.95790900  0.23269800  0.56687000  1
  O  O9  1  0.53348200  0.23293900  0.42378900  1
  O  O10  1  0.10198800  0.23745400  0.28200500  1
  O  O11  1  0.69560600  0.20968100  0.13431400  1
  O  O12  1  0.26598100  0.21151700  0.00074000  1
  O  O13  1  0.81987700  0.22030400  0.87037400  1
loop_
_geom_bond_atom_site_label_1
_geom_bond_atom_site_label_2
_geom_bond_distance
_geom_bond_site_symmetry_2
Li0 O2 2.013051 1_455
Li0 O7 2.067907 1_555
Li0 O0 2.139313 1_455
Li0 O1 2.166334 1_555
Li0 O13 2.168718 1_455
Li0 O12 2.325476 1_556
Li1 O2 2.008069 1_555
Li1 O7 2.009528 1_555
Li1 O8 2.093804 1_555
Li1 O3 2.096850 1_555
Li1 O13 2.335687 1_555
Li1 O1 2.363258 1_555
Li2 O8 2.140394 1_455
Li2 O3 2.159821 1_555
Li2 O4 2.174183 1_555
Li2 O9 2.184422 1_555
Li2 O7 2.248429 1_555
Li2 O2 2.313656 1_455
Li3 O8 2.044404 1_555
Li3 O3 2.077063 1_555
Li3 O4 2.125782 1_655
Li3 O9 2.128440 1_555
Li3 O10 2.205491 1_655
Li3 O5 2.303079 1_555
Li4 O9 2.048234 1_555
Li4 O4 2.096055 1_555
Li4 O10 2.110808 1_555
Li4 O5 2.120247 1_555
Li4 O6 2.236019 1_555
Li4 O11 2.363436 1_555
Li5 O10 2.030180 1_655
Li5 O5 2.087513 1_555
Li5 O6 2.134078 1_655
Li5 O11 2.166521 1_555
Li5 O0 2.236313 1_554
Li5 O12 2.267791 1_655
Li6 O13 2.077337 1_555
Li6 O1 2.084131 1_555
Li6 O0 2.136806 1_555
Li6 O11 2.143308 1_556
Li6 O12 2.151007 1_556
Li6 O6 2.173518 1_556
Li7 O8 2.076864 1_455
Li7 O2 2.095881 1_445
Li7 O7 2.097752 1_555
Li7 O3 2.109191 1_545
Li7 O1 2.155216 1_545
Li7 O13 2.161286 1_455
Mn0 O1 1.919275 1_555
Mn0 O0 1.920583 1_455
Mn0 O13 1.921823 1_465
Mn0 O12 1.959338 1_566
Mn0 O11 1.982516 1_466
Mn0 O6 1.992641 1_556
Mn1 O2 1.885860 1_555
Mn1 O7 1.902821 1_565
Mn1 O1 1.932107 1_555
Mn1 O13 1.942435 1_565
Mn1 O0 2.015087 1_555
Mn1 O12 2.043656 1_566
Co0 O3 1.929900 1_545
Co0 O8 1.935171 1_555
Co0 O2 2.042240 1_545
Co0 O7 2.052576 1_555
Co0 O9 2.142365 1_555
Co0 O4 2.149732 1_645
Co1 O9 1.951773 1_555
Co1 O4 1.959803 1_545
Co1 O3 1.991466 1_545
Co1 O8 2.006688 1_455
Co1 O10 2.140196 1_555
Co1 O5 2.192563 1_545
Co2 O10 1.939148 1_655
Co2 O4 1.999295 1_645
Co2 O5 2.010573 1_545
Co2 O9 2.033393 1_555
Co2 O11 2.081802 1_555
Co2 O6 2.118873 1_645
Co3 O5 1.916593 1_555
Co3 O6 1.938782 1_555
Co3 O11 1.940790 1_565
Co3 O12 1.974755 1_565
Co3 O10 2.084362 1_565
Co3 O0 2.162180 1_554
