# generated using pymatgen
data_FeO2
_symmetry_space_group_name_H-M   'P 1'
_cell_length_a   5.99055958
_cell_length_b   5.99055958
_cell_length_c   14.40006635
_cell_angle_alpha   89.66675019
_cell_angle_beta   89.66675019
_cell_angle_gamma   60.17890905
_symmetry_Int_Tables_number   1
_chemical_formula_structural   FeO2
_chemical_formula_sum   'Fe12 O24'
_cell_volume   448.33250315
_cell_formula_units_Z   12
loop_
 _symmetry_equiv_pos_site_id
 _symmetry_equiv_pos_as_xyz
  1  'x, y, z'
loop_
 _atom_site_type_symbol
 _atom_site_label
 _atom_site_symmetry_multiplicity
 _atom_site_fract_x
 _atom_site_fract_y
 _atom_site_fract_z
 _atom_site_occupancy
  Fe  Fe0  1  0.67792000  0.16025700  0.83316000  1
  Fe  Fe1  1  0.50030700  0.99903400  0.49999000  1
  Fe  Fe2  1  0.33433200  0.33433200  0.66642200  1
  Fe  Fe3  1  0.16123400  0.16123400  0.83241600  1
  Fe  Fe4  1  0.99903400  0.50030700  0.49999000  1
  Fe  Fe5  1  0.16025700  0.67792000  0.83316000  1
  Fe  Fe6  1  0.66353100  0.66353100  0.33348600  1
  Fe  Fe7  1  0.49924000  0.49924000  0.50003500  1
  Fe  Fe8  1  0.33264900  0.83243800  0.16608200  1
  Fe  Fe9  1  0.83358100  0.83358100  0.16644000  1
  Fe  Fe10  1  0.83243800  0.33264900  0.16608200  1
  Fe  Fe11  1  0.33547400  0.33547400  0.04601600  1
  O  O0  1  0.30528200  0.84477000  0.89374000  1
  O  O1  1  0.84651000  0.84651000  0.89495700  1
  O  O2  1  0.99804000  0.99804000  0.75620200  1
  O  O3  1  0.84477000  0.30528200  0.89374000  1
  O  O4  1  0.62781300  0.19690000  0.57912000  1
  O  O5  1  0.47323000  0.05426200  0.75668800  1
  O  O6  1  0.33418700  0.33418700  0.91224300  1
  O  O7  1  0.47283900  0.47283900  0.75583500  1
  O  O8  1  0.19141200  0.19141200  0.58284700  1
  O  O9  1  0.33755500  0.33755500  0.43232800  1
  O  O10  1  0.19690000  0.62781300  0.57912000  1
  O  O11  1  0.05426200  0.47323000  0.75668800  1
  O  O12  1  0.94541000  0.52377700  0.25378400  1
  O  O13  1  0.80109000  0.37592700  0.41883400  1
  O  O14  1  0.66180700  0.66180700  0.56773000  1
  O  O15  1  0.80750000  0.80750000  0.41692700  1
  O  O16  1  0.66545700  0.66545700  0.09861900  1
  O  O17  1  0.52217700  0.52217700  0.25316900  1
  O  O18  1  0.52377700  0.94541000  0.25378400  1
  O  O19  1  0.37592700  0.80109000  0.41883400  1
  O  O20  1  0.17004700  0.66402000  0.09797300  1
  O  O21  1  0.16850500  0.16850500  0.09770300  1
  O  O22  1  0.00135600  0.00135600  0.23147900  1
  O  O23  1  0.66402000  0.17004700  0.09797300  1
loop_
_geom_bond_atom_site_label_1
_geom_bond_atom_site_label_2
_geom_bond_distance
_geom_bond_site_symmetry_2
Fe0 O3 1.843220 1_555
Fe0 O1 1.856754 1_545
Fe0 O5 1.979305 1_555
Fe0 O7 1.989773 1_555
Fe0 O2 1.996082 1_545
Fe0 O6 2.115477 1_555
Fe1 O14 2.003201 1_555
Fe1 O15 2.006000 1_555
Fe1 O9 2.008481 1_565
Fe1 O8 2.011273 1_565
Fe1 O4 2.052603 1_565
Fe1 O19 2.057195 1_555
Fe2 O8 1.915063 1_555
Fe2 O7 1.935019 1_555
Fe2 O5 1.948227 1_555
Fe2 O11 1.948227 1_555
Fe2 O10 1.973813 1_555
Fe2 O4 1.973813 1_555
Fe3 O3 1.865693 1_455
Fe3 O0 1.865693 1_545
Fe3 O11 1.971365 1_555
Fe3 O5 1.971365 1_555
Fe3 O2 2.022747 1_445
Fe3 O6 2.136281 1_555
Fe4 O14 2.003201 1_555
Fe4 O15 2.006000 1_555
Fe4 O9 2.008481 1_655
Fe4 O8 2.011273 1_655
Fe4 O10 2.052603 1_655
Fe4 O13 2.057195 1_555
Fe5 O0 1.843220 1_555
Fe5 O1 1.856754 1_455
Fe5 O11 1.979305 1_555
Fe5 O7 1.989773 1_555
Fe5 O2 1.996082 1_455
Fe5 O6 2.115477 1_555
Fe6 O18 1.857995 1_555
Fe6 O12 1.857995 1_555
Fe6 O17 1.872890 1_555
Fe6 O15 1.922318 1_555
Fe6 O13 1.932104 1_555
Fe6 O19 1.932104 1_555
Fe7 O4 1.941472 1_555
Fe7 O10 1.941472 1_555
Fe7 O9 1.944724 1_555
Fe7 O14 1.952553 1_555
Fe7 O19 1.959498 1_555
Fe7 O13 1.959498 1_555
Fe8 O22 1.959976 1_565
Fe8 O16 1.981032 1_555
Fe8 O20 1.982102 1_555
Fe8 O21 2.002209 1_565
Fe8 O18 2.039938 1_555
Fe8 O17 2.051072 1_555
Fe9 O22 1.980924 1_665
Fe9 O16 2.003569 1_555
Fe9 O20 2.004689 1_655
Fe9 O23 2.004689 1_565
Fe9 O12 2.054553 1_555
Fe9 O18 2.054553 1_555
Fe10 O22 1.959976 1_655
Fe10 O16 1.981032 1_555
Fe10 O23 1.982102 1_555
Fe10 O21 2.002209 1_655
Fe10 O12 2.039938 1_555
Fe10 O17 2.051072 1_555
Fe11 O23 1.866594 1_555
Fe11 O20 1.866594 1_555
Fe11 O21 1.879539 1_555
Fe11 O6 1.926476 1_554
