# generated using pymatgen
data_Hf8Ni4N
_symmetry_space_group_name_H-M   'P 1'
_cell_length_a   8.53960630
_cell_length_b   8.53960630
_cell_length_c   8.53960630
_cell_angle_alpha   120.08230877
_cell_angle_beta   119.84366078
_cell_angle_gamma   90.06424833
_symmetry_Int_Tables_number   1
_chemical_formula_structural   Hf8Ni4N
_chemical_formula_sum   'Hf16 Ni8 N2'
_cell_volume   440.59423950
_cell_formula_units_Z   2
loop_
 _symmetry_equiv_pos_site_id
 _symmetry_equiv_pos_as_xyz
  1  'x, y, z'
loop_
 _atom_site_type_symbol
 _atom_site_label
 _atom_site_symmetry_multiplicity
 _atom_site_fract_x
 _atom_site_fract_y
 _atom_site_fract_z
 _atom_site_occupancy
  Hf  Hf0  1  0.94060600  0.19060600  0.75000000  1
  Hf  Hf1  1  0.31188700  0.56188700  0.75000000  1
  Hf  Hf2  1  0.93851700  0.56197300  0.75383200  1
  Hf  Hf3  1  0.30814100  0.18468500  0.74616800  1
  Hf  Hf4  1  0.93851700  0.18468500  0.37654400  1
  Hf  Hf5  1  0.30814100  0.56197300  0.12345600  1
  Hf  Hf6  1  0.05939400  0.80939400  0.25000000  1
  Hf  Hf7  1  0.68811300  0.43811300  0.25000000  1
  Hf  Hf8  1  0.06148300  0.43802700  0.24616800  1
  Hf  Hf9  1  0.69185900  0.81531500  0.25383200  1
  Hf  Hf10  1  0.06148300  0.81531500  0.62345600  1
  Hf  Hf11  1  0.69185900  0.43802700  0.87654400  1
  Hf  Hf12  1  0.50000000  0.00000000  0.00000000  1
  Hf  Hf13  1  0.50000000  0.50000000  0.50000000  1
  Hf  Hf14  1  0.50000000  0.00000000  0.50000000  1
  Hf  Hf15  1  0.00000000  0.00000000  0.00000000  1
  Ni  Ni0  1  0.71943600  0.77541900  0.55598300  1
  Ni  Ni1  1  0.71943600  0.16345300  0.94401700  1
  Ni  Ni2  1  0.71395700  0.77950900  0.93444800  1
  Ni  Ni3  1  0.34506200  0.77950900  0.56555200  1
  Ni  Ni4  1  0.28056400  0.22458100  0.44401700  1
  Ni  Ni5  1  0.28056400  0.83654700  0.05598300  1
  Ni  Ni6  1  0.28604300  0.22049100  0.06555200  1
  Ni  Ni7  1  0.65493800  0.22049100  0.43444800  1
  N  N0  1  0.00000000  0.50000000  0.00000000  1
  N  N1  1  0.00000000  0.00000000  0.50000000  1
loop_
_geom_bond_atom_site_label_1
_geom_bond_atom_site_label_2
_geom_bond_distance
_geom_bond_site_symmetry_2
Hf0 N0 2.249533 1_656
Hf0 N1 2.249533 1_655
Hf0 Ni6 2.725034 1_656
Hf0 Ni7 2.725038 1_555
Hf0 Ni1 3.140806 1_555
Hf0 Ni0 3.140806 1_545
Hf1 Ni5 2.636966 1_556
Hf1 Ni4 2.636966 1_555
Hf1 Ni2 3.064689 1_555
Hf1 Ni3 3.064692 1_555
Hf2 N0 2.234347 1_656
Hf2 Ni5 2.665691 1_656
Hf2 Ni7 2.691516 1_555
Hf2 Ni2 3.096239 1_555
Hf2 Ni0 3.102592 1_555
Hf3 N1 2.234347 1_555
Hf3 Ni4 2.665691 1_555
Hf3 Ni6 2.691512 1_556
Hf3 Ni3 3.096242 1_545
Hf3 Ni1 3.102592 1_555
Hf4 N1 2.234347 1_655
Hf4 Ni4 2.665691 1_655
Hf4 Ni7 2.691521 1_555
Hf4 Ni2 3.096239 1_544
Hf4 Ni1 3.102592 1_554
Hf5 N0 2.234347 1_555
Hf5 Ni5 2.665691 1_555
Hf5 Ni6 2.691512 1_555
Hf5 Ni3 3.096235 1_555
Hf5 Ni0 3.102592 1_555
Hf6 N1 2.249533 1_565
Hf6 N0 2.249533 1_555
Hf6 Ni2 2.725034 1_454
Hf6 Ni3 2.725038 1_555
Hf6 Ni4 3.140806 1_565
Hf6 Ni5 3.140806 1_555
Hf7 Ni0 2.636966 1_555
Hf7 Ni1 2.636966 1_554
Hf7 Ni6 3.064689 1_555
Hf7 Ni7 3.064692 1_555
Hf8 N0 2.234347 1_555
Hf8 Ni1 2.665691 1_454
Hf8 Ni3 2.691516 1_555
Hf8 Ni6 3.096239 1_555
Hf8 Ni4 3.102592 1_555
Hf9 N1 2.234347 1_665
Hf9 Ni0 2.665691 1_555
Hf9 Ni2 2.691512 1_554
Hf9 Ni7 3.096242 1_565
Hf9 Ni5 3.102592 1_555
Hf10 N1 2.234347 1_565
Hf10 Ni0 2.665691 1_455
Hf10 Ni3 2.691521 1_555
Hf10 Ni6 3.096239 1_566
Hf10 Ni5 3.102592 1_556
Hf11 N0 2.234347 1_656
Hf11 Ni1 2.665691 1_555
Hf11 Ni2 2.691512 1_555
Hf11 Ni7 3.096235 1_555
Hf11 Ni4 3.102592 1_555
Hf12 Ni2 2.676947 1_544
Hf12 Ni6 2.676947 1_555
Hf12 Ni7 2.676949 1_555
Hf12 Ni3 2.676949 1_544
Hf12 Ni1 2.691299 1_554
Hf12 Ni5 2.691299 1_545
Hf13 Ni7 2.676942 1_555
Hf13 Ni3 2.676942 1_555
Hf13 Ni2 2.676947 1_555
Hf13 Ni6 2.676947 1_555
Hf13 Ni4 2.691299 1_555
Hf13 Ni0 2.691299 1_555
Hf14 Ni3 2.719842 1_545
Hf14 Ni7 2.719842 1_555
Hf14 Ni5 2.730148 1_545
Hf14 Ni0 2.730148 1_545
Hf14 Ni1 2.730148 1_555
Hf14 Ni4 2.730148 1_555
Hf15 Ni2 2.719847 1_444
Hf15 Ni6 2.719847 1_555
Hf15 Ni0 2.730148 1_444
Hf15 Ni4 2.730148 1_555
Hf15 Ni1 2.730148 1_454
Hf15 Ni5 2.730148 1_545
