# generated using pymatgen
data_ErMg2
_symmetry_space_group_name_H-M   'P 1'
_cell_length_a   5.97827370
_cell_length_b   5.97820892
_cell_length_c   5.97827370
_cell_angle_alpha   59.99964152
_cell_angle_beta   60.00000000
_cell_angle_gamma   59.99964152
_symmetry_Int_Tables_number   1
_chemical_formula_structural   ErMg2
_chemical_formula_sum   'Er2 Mg4'
_cell_volume   151.07942573
_cell_formula_units_Z   2
loop_
 _symmetry_equiv_pos_site_id
 _symmetry_equiv_pos_as_xyz
  1  'x, y, z'
loop_
 _atom_site_type_symbol
 _atom_site_label
 _atom_site_symmetry_multiplicity
 _atom_site_fract_x
 _atom_site_fract_y
 _atom_site_fract_z
 _atom_site_occupancy
  Er  Er0  1  0.75000094  0.74999619  0.75000094  1
  Er  Er1  1  0.49999906  0.50000381  0.49999906  1
  Mg  Mg0  1  0.12500000  0.62500000  0.12500000  1
  Mg  Mg1  1  0.12500000  0.12500000  0.12500000  1
  Mg  Mg2  1  0.62500000  0.12500000  0.12500000  1
  Mg  Mg3  1  0.12500000  0.12500000  0.62500000  1
loop_
_geom_bond_atom_site_label_1
_geom_bond_atom_site_label_2
_geom_bond_distance
_geom_bond_site_symmetry_2
Er0 Mg3 3.505013 1_655
Er0 Mg2 3.505013 1_556
Er0 Mg1 3.505016 1_656
Er0 Mg3 3.505065 1_565
Er0 Mg2 3.505065 1_565
Er0 Mg0 3.505067 1_655
Er0 Mg0 3.505067 1_556
Er0 Mg1 3.505068 1_566
Er0 Mg1 3.505068 1_665
Er0 Mg3 3.505070 1_665
Er0 Mg2 3.505070 1_566
Er0 Mg0 3.505072 1_656
Er0 Er1 3.660905 1_555
Er0 Er1 3.660908 1_565
Er0 Er1 3.660914 1_655
Er0 Er1 3.660914 1_556
Er1 Mg2 3.505013 1_565
Er1 Mg3 3.505013 1_565
Er1 Mg1 3.505016 1_565
Er1 Mg2 3.505065 1_556
Er1 Mg3 3.505065 1_655
Er1 Mg0 3.505067 1_655
Er1 Mg0 3.505067 1_556
Er1 Mg1 3.505068 1_556
Er1 Mg1 3.505068 1_655
Er1 Mg2 3.505070 1_555
Er1 Mg3 3.505070 1_555
Er1 Mg0 3.505072 1_555
Mg0 Mg3 2.989104 1_555
Mg0 Mg3 2.989104 1_564
Mg0 Mg2 2.989104 1_555
Mg0 Mg2 2.989104 1_465
Mg0 Mg1 2.989104 1_565
Mg0 Mg1 2.989104 1_555
Mg1 Mg3 2.989137 1_554
Mg1 Mg2 2.989137 1_555
Mg1 Mg2 2.989137 1_455
Mg1 Mg3 2.989137 1_555
Mg2 Mg3 2.989137 1_654
Mg2 Mg3 2.989137 1_555
