# generated using pymatgen
data_ZrInCuS4
_symmetry_space_group_name_H-M   'P 1'
_cell_length_a   7.50562103
_cell_length_b   7.50562103
_cell_length_c   7.50562103
_cell_angle_alpha   121.35509313
_cell_angle_beta   120.25770593
_cell_angle_gamma   88.61155099
_symmetry_Int_Tables_number   1
_chemical_formula_structural   ZrInCuS4
_chemical_formula_sum   'Zr2 In2 Cu2 S8'
_cell_volume   295.20875462
_cell_formula_units_Z   2
loop_
 _symmetry_equiv_pos_site_id
 _symmetry_equiv_pos_as_xyz
  1  'x, y, z'
loop_
 _atom_site_type_symbol
 _atom_site_label
 _atom_site_symmetry_multiplicity
 _atom_site_fract_x
 _atom_site_fract_y
 _atom_site_fract_z
 _atom_site_occupancy
  Zr  Zr0  1  0.00000000  0.50000000  0.00000000  1
  Zr  Zr1  1  0.00000000  0.00000000  0.50000000  1
  In  In0  1  0.50000000  0.50000000  0.00000000  1
  In  In1  1  0.00000000  0.50000000  0.50000000  1
  Cu  Cu0  1  0.37415900  0.12415900  0.25000000  1
  Cu  Cu1  1  0.62584100  0.87584100  0.75000000  1
  S  S0  1  0.24628100  0.75490400  0.49137700  1
  S  S1  1  0.76352700  0.75490400  0.00862300  1
  S  S2  1  0.75699900  0.75423300  0.49723400  1
  S  S3  1  0.75699900  0.25976500  0.00276600  1
  S  S4  1  0.75371900  0.24509600  0.50862300  1
  S  S5  1  0.23647300  0.24509600  0.99137700  1
  S  S6  1  0.24300100  0.24576700  0.50276600  1
  S  S7  1  0.24300100  0.74023500  0.99723400  1
loop_
_geom_bond_atom_site_label_1
_geom_bond_atom_site_label_2
_geom_bond_distance
_geom_bond_site_symmetry_2
In0 S6 2.608159 1_554
In0 S7 2.608159 1_554
In0 S3 2.608159 1_555
In0 S2 2.608159 1_555
In0 S1 2.739034 1_555
In0 S5 2.739034 1_554
In1 S7 2.608159 1_555
In1 S6 2.608159 1_555
In1 S2 2.608159 1_455
In1 S3 2.608159 1_455
In1 S0 2.739034 1_555
In1 S4 2.739034 1_455
Cu0 S4 2.329474 1_555
Cu0 S5 2.329474 1_554
Cu0 S7 2.331942 1_544
Cu0 S6 2.331942 1_555
Cu1 S1 2.329474 1_556
Cu1 S0 2.329474 1_555
Cu1 S2 2.331942 1_555
Cu1 S3 2.331942 1_566
S0 Zr1 2.576257 1_565
S0 Zr0 2.576257 1_555
S1 Zr1 2.576257 1_665
S1 Zr0 2.576257 1_655
S2 Zr1 2.610488 1_665
S3 Zr0 2.610488 1_655
S4 Zr1 2.576257 1_655
S4 Zr0 2.576257 1_656
S5 Zr1 2.576257 1_555
S5 Zr0 2.576257 1_556
S6 Zr1 2.610488 1_555
S7 Zr0 2.610488 1_556
