# generated using pymatgen
data_BaO
_symmetry_space_group_name_H-M   'P 1'
_cell_length_a   3.92531500
_cell_length_b   6.83559700
_cell_length_c   52.66088300
_cell_angle_alpha   90.00000000
_cell_angle_beta   90.00000000
_cell_angle_gamma   90.00000000
_symmetry_Int_Tables_number   1
_chemical_formula_structural   BaO
_chemical_formula_sum   'Ba32 O32'
_cell_volume   1412.99004247
_cell_formula_units_Z   32
loop_
 _symmetry_equiv_pos_site_id
 _symmetry_equiv_pos_as_xyz
  1  'x, y, z'
loop_
 _atom_site_type_symbol
 _atom_site_label
 _atom_site_symmetry_multiplicity
 _atom_site_fract_x
 _atom_site_fract_y
 _atom_site_fract_z
 _atom_site_occupancy
  Ba  Ba0  1  0.74817800  0.03075200  0.25000000  1
  Ba  Ba1  1  0.24972500  0.03449200  0.56273900  1
  Ba  Ba2  1  0.24972500  0.03449200  0.93726100  1
  Ba  Ba3  1  0.74835400  0.16938300  0.62521300  1
  Ba  Ba4  1  0.74835400  0.16938300  0.87478700  1
  Ba  Ba5  1  0.25064200  0.19026300  0.18750500  1
  Ba  Ba6  1  0.25064200  0.19026300  0.31249500  1
  Ba  Ba7  1  0.75133600  0.25000000  0.00000000  1
  Ba  Ba8  1  0.75133600  0.25000000  0.50000000  1
  Ba  Ba9  1  0.25064200  0.30973700  0.68750500  1
  Ba  Ba10  1  0.25064200  0.30973700  0.81249500  1
  Ba  Ba11  1  0.74835400  0.33061700  0.12521300  1
  Ba  Ba12  1  0.74835400  0.33061700  0.37478700  1
  Ba  Ba13  1  0.24972500  0.46550800  0.06273900  1
  Ba  Ba14  1  0.24972500  0.46550800  0.43726100  1
  Ba  Ba15  1  0.74817800  0.46924800  0.75000000  1
  Ba  Ba16  1  0.25182200  0.53075200  0.25000000  1
  Ba  Ba17  1  0.75027500  0.53449200  0.93726100  1
  Ba  Ba18  1  0.75027500  0.53449200  0.56273900  1
  Ba  Ba19  1  0.25164600  0.66938300  0.62521300  1
  Ba  Ba20  1  0.25164600  0.66938300  0.87478700  1
  Ba  Ba21  1  0.74935800  0.69026300  0.18750500  1
  Ba  Ba22  1  0.74935800  0.69026300  0.31249500  1
  Ba  Ba23  1  0.24866400  0.75000000  0.00000000  1
  Ba  Ba24  1  0.24866400  0.75000000  0.50000000  1
  Ba  Ba25  1  0.74935800  0.80973700  0.68750500  1
  Ba  Ba26  1  0.74935800  0.80973700  0.81249500  1
  Ba  Ba27  1  0.25164600  0.83061700  0.12521300  1
  Ba  Ba28  1  0.25164600  0.83061700  0.37478700  1
  Ba  Ba29  1  0.75027500  0.96550800  0.43726100  1
  Ba  Ba30  1  0.75027500  0.96550800  0.06273900  1
  Ba  Ba31  1  0.25182200  0.96924800  0.75000000  1
  O  O0  1  0.25033100  0.08914800  0.03074600  1
  O  O1  1  0.24363300  0.15844300  0.09438600  1
  O  O2  1  0.76745100  0.01095200  0.15632100  1
  O  O3  1  0.24363300  0.15844300  0.40561400  1
  O  O4  1  0.76745100  0.01095200  0.34367900  1
  O  O5  1  0.25033100  0.08914800  0.46925400  1
  O  O6  1  0.75831300  0.13983000  0.71832800  1
  O  O7  1  0.75831300  0.13983000  0.78167200  1
  O  O8  1  0.75831300  0.36017000  0.21832800  1
  O  O9  1  0.25033100  0.41085200  0.53074600  1
  O  O10  1  0.25033100  0.41085200  0.96925400  1
  O  O11  1  0.76745100  0.48904800  0.65632100  1
  O  O12  1  0.75831300  0.36017000  0.28167200  1
  O  O13  1  0.24363300  0.34155700  0.59438600  1
  O  O14  1  0.24363300  0.34155700  0.90561400  1
  O  O15  1  0.76745100  0.48904800  0.84367900  1
  O  O16  1  0.23254900  0.51095200  0.15632100  1
  O  O17  1  0.23254900  0.51095200  0.34367900  1
  O  O18  1  0.24168700  0.63983000  0.71832800  1
  O  O19  1  0.74966900  0.58914800  0.03074600  1
  O  O20  1  0.24168700  0.63983000  0.78167200  1
  O  O21  1  0.75636700  0.65844300  0.40561400  1
  O  O22  1  0.74966900  0.58914800  0.46925400  1
  O  O23  1  0.75636700  0.65844300  0.09438600  1
  O  O24  1  0.24168700  0.86017000  0.21832800  1
  O  O25  1  0.24168700  0.86017000  0.28167200  1
  O  O26  1  0.75636700  0.84155700  0.59438600  1
  O  O27  1  0.23254900  0.98904800  0.65632100  1
  O  O28  1  0.23254900  0.98904800  0.84367900  1
  O  O29  1  0.75636700  0.84155700  0.90561400  1
  O  O30  1  0.74966900  0.91085200  0.96925400  1
  O  O31  1  0.74966900  0.91085200  0.53074600  1
loop_
_geom_bond_atom_site_label_1
_geom_bond_atom_site_label_2
_geom_bond_distance
_geom_bond_site_symmetry_2
Ba0 O12 2.802473 1_555
Ba0 O8 2.802473 1_555
Ba0 O25 2.809643 1_645
Ba0 O24 2.809643 1_645
Ba0 O25 2.845017 1_545
Ba0 O24 2.845017 1_545
Ba1 O13 2.680238 1_555
Ba1 O31 2.721016 1_545
Ba1 O31 2.721333 1_445
Ba1 O26 2.875254 1_445
Ba1 O26 2.910630 1_545
Ba1 O9 3.075222 1_555
Ba2 O14 2.680238 1_555
Ba2 O30 2.721016 1_545
Ba2 O30 2.721333 1_445
Ba2 O29 2.875254 1_445
Ba2 O29 2.910630 1_545
Ba2 O10 3.075222 1_555
Ba3 O11 2.732014 1_555
Ba3 O26 2.767294 1_545
Ba3 O13 2.792866 1_655
Ba3 O27 2.795623 1_645
Ba3 O13 2.818791 1_555
Ba3 O27 2.881416 1_545
Ba4 O15 2.732014 1_555
Ba4 O29 2.767294 1_545
Ba4 O14 2.792866 1_655
Ba4 O28 2.795623 1_645
Ba4 O14 2.818791 1_555
Ba4 O28 2.881416 1_545
Ba5 O16 2.739908 1_555
Ba5 O8 2.778181 1_455
Ba5 O24 2.779778 1_545
Ba5 O2 2.792215 1_455
Ba5 O8 2.820405 1_555
Ba5 O2 2.883479 1_555
Ba6 O17 2.739908 1_555
Ba6 O12 2.778181 1_455
Ba6 O25 2.779778 1_545
Ba6 O4 2.792215 1_455
Ba6 O12 2.820405 1_555
Ba6 O4 2.883479 1_555
Ba7 O10 2.768938 1_654
Ba7 O0 2.768938 1_655
Ba7 O10 2.774525 1_554
Ba7 O0 2.774525 1_555
Ba7 O19 2.827717 1_555
Ba7 O30 2.827717 1_544
Ba8 O9 2.768938 1_655
Ba8 O5 2.768938 1_655
Ba8 O9 2.774525 1_555
Ba8 O5 2.774525 1_555
Ba8 O31 2.827717 1_545
Ba8 O22 2.827717 1_555
Ba9 O27 2.739908 1_545
Ba9 O6 2.778181 1_455
Ba9 O18 2.779778 1_555
Ba9 O11 2.792215 1_455
Ba9 O6 2.820405 1_555
Ba9 O11 2.883479 1_555
Ba10 O28 2.739908 1_545
Ba10 O7 2.778181 1_455
Ba10 O20 2.779778 1_555
Ba10 O15 2.792215 1_455
Ba10 O7 2.820405 1_555
Ba10 O15 2.883479 1_555
Ba11 O2 2.732014 1_555
Ba11 O23 2.767294 1_555
Ba11 O1 2.792866 1_655
Ba11 O16 2.795623 1_655
Ba11 O1 2.818791 1_555
Ba11 O16 2.881416 1_555
Ba12 O4 2.732014 1_555
Ba12 O21 2.767294 1_555
Ba12 O3 2.792866 1_655
Ba12 O17 2.795623 1_655
Ba12 O3 2.818791 1_555
Ba12 O17 2.881416 1_555
Ba13 O1 2.680238 1_555
Ba13 O19 2.721016 1_555
Ba13 O19 2.721333 1_455
Ba13 O23 2.875254 1_455
Ba13 O23 2.910630 1_555
Ba13 O0 3.075222 1_555
Ba14 O3 2.680238 1_555
Ba14 O22 2.721016 1_555
Ba14 O22 2.721333 1_455
Ba14 O21 2.875254 1_455
Ba14 O21 2.910630 1_555
Ba14 O5 3.075222 1_555
Ba15 O7 2.802473 1_555
Ba15 O6 2.802473 1_555
Ba15 O20 2.809643 1_655
Ba15 O18 2.809643 1_655
Ba15 O20 2.845017 1_555
Ba15 O18 2.845017 1_555
Ba16 O25 2.802473 1_555
Ba16 O24 2.802473 1_555
Ba16 O12 2.809643 1_455
Ba16 O8 2.809643 1_455
Ba16 O12 2.845017 1_555
Ba16 O8 2.845017 1_555
Ba17 O29 2.680238 1_555
Ba17 O10 2.721016 1_555
Ba17 O10 2.721333 1_655
Ba17 O14 2.875254 1_655
Ba17 O14 2.910630 1_555
Ba17 O30 3.075222 1_555
Ba18 O26 2.680238 1_555
Ba18 O9 2.721016 1_555
Ba18 O9 2.721333 1_655
Ba18 O13 2.875254 1_655
Ba18 O13 2.910630 1_555
Ba18 O31 3.075222 1_555
Ba19 O27 2.732014 1_555
Ba19 O13 2.767294 1_555
Ba19 O26 2.792866 1_455
Ba19 O11 2.795623 1_455
Ba19 O26 2.818791 1_555
Ba19 O11 2.881416 1_555
Ba20 O28 2.732014 1_555
Ba20 O14 2.767294 1_555
Ba20 O29 2.792866 1_455
Ba20 O15 2.795623 1_455
Ba20 O29 2.818791 1_555
Ba20 O15 2.881416 1_555
Ba21 O2 2.739908 1_565
Ba21 O24 2.778181 1_655
Ba21 O8 2.779778 1_555
Ba21 O16 2.792215 1_655
Ba21 O24 2.820405 1_555
Ba21 O16 2.883479 1_555
Ba22 O4 2.739908 1_565
Ba22 O25 2.778181 1_655
Ba22 O12 2.779778 1_555
Ba22 O17 2.792215 1_655
Ba22 O25 2.820405 1_555
Ba22 O17 2.883479 1_555
Ba23 O19 2.768938 1_455
Ba23 O30 2.768938 1_454
Ba23 O19 2.774525 1_555
Ba23 O30 2.774525 1_554
Ba23 O0 2.827717 1_565
Ba23 O10 2.827717 1_554
Ba24 O31 2.768938 1_455
Ba24 O22 2.768938 1_455
Ba24 O31 2.774525 1_555
Ba24 O22 2.774525 1_555
Ba24 O9 2.827717 1_555
Ba24 O5 2.827717 1_565
Ba25 O11 2.739908 1_555
Ba25 O18 2.778181 1_655
Ba25 O6 2.779778 1_565
Ba25 O27 2.792215 1_655
Ba25 O18 2.820405 1_555
Ba25 O27 2.883479 1_555
Ba26 O15 2.739908 1_555
Ba26 O20 2.778181 1_655
Ba26 O7 2.779778 1_565
Ba26 O28 2.792215 1_655
Ba26 O20 2.820405 1_555
Ba26 O28 2.883479 1_555
Ba27 O16 2.732014 1_555
Ba27 O1 2.767294 1_565
Ba27 O23 2.792866 1_455
Ba27 O2 2.795623 1_465
Ba27 O23 2.818791 1_555
Ba27 O2 2.881416 1_565
Ba28 O17 2.732014 1_555
Ba28 O3 2.767294 1_565
Ba28 O21 2.792866 1_455
Ba28 O4 2.795623 1_465
Ba28 O21 2.818791 1_555
Ba28 O4 2.881416 1_565
Ba29 O21 2.680238 1_555
Ba29 O5 2.721016 1_565
Ba29 O5 2.721333 1_665
Ba29 O3 2.875254 1_665
Ba29 O3 2.910630 1_565
Ba29 O22 3.075222 1_555
Ba30 O23 2.680238 1_555
Ba30 O0 2.721016 1_565
Ba30 O0 2.721333 1_665
Ba30 O1 2.875254 1_665
Ba30 O1 2.910630 1_565
Ba30 O19 3.075222 1_555
Ba31 O20 2.802473 1_555
Ba31 O18 2.802473 1_555
Ba31 O7 2.809643 1_465
Ba31 O6 2.809643 1_465
Ba31 O7 2.845017 1_565
Ba31 O6 2.845017 1_565
