# generated using pymatgen
data_SrGa2
_symmetry_space_group_name_H-M   'P 1'
_cell_length_a   4.30785851
_cell_length_b   4.30785891
_cell_length_c   4.80054429
_cell_angle_alpha   90.00000000
_cell_angle_beta   90.00000000
_cell_angle_gamma   120.00001266
_symmetry_Int_Tables_number   1
_chemical_formula_structural   SrGa2
_chemical_formula_sum   'Sr1 Ga2'
_cell_volume   77.15142618
_cell_formula_units_Z   1
loop_
 _symmetry_equiv_pos_site_id
 _symmetry_equiv_pos_as_xyz
  1  'x, y, z'
loop_
 _atom_site_type_symbol
 _atom_site_label
 _atom_site_symmetry_multiplicity
 _atom_site_fract_x
 _atom_site_fract_y
 _atom_site_fract_z
 _atom_site_occupancy
  Sr  Sr0  1  -0.00000000  -0.00000000  0.00000000  1
  Ga  Ga0  1  0.33333300  0.66666700  0.50000000  1
  Ga  Ga1  1  0.66666700  0.33333300  0.50000000  1
loop_
_geom_bond_atom_site_label_1
_geom_bond_atom_site_label_2
_geom_bond_distance
_geom_bond_site_symmetry_2
Ga0 Ga1 2.487140 1_455
Ga0 Ga1 2.487141 1_565
Ga0 Ga1 2.487149 1_555
Ga0 Sr0 3.456469 1_566
Ga0 Sr0 3.456469 1_565
Ga0 Sr0 3.456471 1_665
Ga0 Sr0 3.456471 1_666
Ga0 Sr0 3.456471 1_555
Ga0 Sr0 3.456471 1_556
Ga1 Sr0 3.456469 1_656
Ga1 Sr0 3.456469 1_655
Ga1 Sr0 3.456471 1_555
Ga1 Sr0 3.456471 1_556
Ga1 Sr0 3.456471 1_665
Ga1 Sr0 3.456471 1_666
