# generated using pymatgen
data_SrLi2SiO4
_symmetry_space_group_name_H-M   'P 1'
_cell_length_a   5.08121365
_cell_length_b   5.08121365
_cell_length_c   12.58122400
_cell_angle_alpha   90.00000000
_cell_angle_beta   90.00000000
_cell_angle_gamma   119.99999542
_symmetry_Int_Tables_number   1
_chemical_formula_structural   SrLi2SiO4
_chemical_formula_sum   'Sr3 Li6 Si3 O12'
_cell_volume   281.31212954
_cell_formula_units_Z   3
loop_
 _symmetry_equiv_pos_site_id
 _symmetry_equiv_pos_as_xyz
  1  'x, y, z'
loop_
 _atom_site_type_symbol
 _atom_site_label
 _atom_site_symmetry_multiplicity
 _atom_site_fract_x
 _atom_site_fract_y
 _atom_site_fract_z
 _atom_site_occupancy
  Sr  Sr0  1  0.41933000  0.00000000  0.83333300  1
  Sr  Sr1  1  0.58067000  0.58067000  0.50000000  1
  Sr  Sr2  1  0.00000000  0.41933000  0.16666700  1
  Li  Li0  1  0.66408700  0.59203400  0.74538600  1
  Li  Li1  1  0.92794700  0.33591300  0.41205200  1
  Li  Li2  1  0.40796600  0.07205300  0.07871900  1
  Li  Li3  1  0.33591300  0.92794700  0.58794800  1
  Li  Li4  1  0.59203400  0.66408700  0.25461400  1
  Li  Li5  1  0.07205300  0.40796600  0.92128100  1
  Si  Si0  1  0.27731400  0.00000000  0.33333300  1
  Si  Si1  1  0.72268600  0.72268600  0.00000000  1
  Si  Si2  1  0.00000000  0.27731400  0.66666700  1
  O  O0  1  0.55061000  0.51481100  0.10638300  1
  O  O1  1  0.96420200  0.44939000  0.77305000  1
  O  O2  1  0.48518900  0.03579800  0.43971600  1
  O  O3  1  0.44939000  0.96420200  0.22695000  1
  O  O4  1  0.51481100  0.55061000  0.89361700  1
  O  O5  1  0.03579800  0.48518900  0.56028400  1
  O  O6  1  0.06662400  0.76097100  0.99602100  1
  O  O7  1  0.69434700  0.93337600  0.66268700  1
  O  O8  1  0.23902900  0.30565300  0.32935400  1
  O  O9  1  0.93337600  0.69434700  0.33731300  1
  O  O10  1  0.76097100  0.06662400  0.00397900  1
  O  O11  1  0.30565300  0.23902900  0.67064600  1
loop_
_geom_bond_atom_site_label_1
_geom_bond_atom_site_label_2
_geom_bond_distance
_geom_bond_site_symmetry_2
Li0 O7 1.961570 1_555
Li0 O4 1.984422 1_555
Li0 O1 2.019217 1_555
Li0 O11 2.037592 1_555
Li1 O8 1.961564 1_655
Li1 O5 1.984434 1_655
Li1 O2 2.019213 1_555
Li1 O9 2.037586 1_555
Li2 O6 1.961564 1_544
Li2 O3 1.984421 1_545
Li2 O0 2.019212 1_555
Li2 O10 2.037592 1_555
Li3 O11 1.961564 1_565
Li3 O2 1.984434 1_565
Li3 O5 2.019213 1_555
Li3 O7 2.037586 1_555
Li4 O9 1.961570 1_555
Li4 O0 1.984422 1_555
Li4 O3 2.019217 1_555
Li4 O8 2.037592 1_555
Li5 O10 1.961564 1_456
Li5 O1 1.984421 1_455
Li5 O4 2.019212 1_555
Li5 O6 2.037592 1_555
O0 Si1 1.657716 1_555
O0 Sr2 2.670690 1_655
O0 Sr2 2.698288 1_555
O1 Si2 1.657714 1_655
O1 Sr0 2.670690 1_555
O1 Sr0 2.698283 1_665
O2 Si0 1.657717 1_555
O2 Sr1 2.670695 1_555
O2 Sr1 2.698283 1_545
O3 Si0 1.657714 1_565
O3 Sr2 2.670690 1_555
O3 Sr2 2.698283 1_665
O4 Si1 1.657716 1_556
O4 Sr0 2.670690 1_565
O4 Sr0 2.698288 1_555
O5 Si2 1.657717 1_555
O5 Sr1 2.670695 1_555
O5 Sr1 2.698283 1_455
O6 Si1 1.659687 1_456
O6 Sr0 2.588395 1_565
O6 Sr2 2.673909 1_556
O7 Si2 1.659688 1_665
O7 Sr1 2.588385 1_555
O7 Sr0 2.673909 1_565
O8 Si0 1.659687 1_555
O8 Sr2 2.588385 1_555
O8 Sr1 2.673909 1_555
O9 Si0 1.659688 1_665
O9 Sr1 2.588385 1_555
O9 Sr2 2.673909 1_655
O10 Si1 1.659687 1_545
O10 Sr2 2.588395 1_655
O10 Sr0 2.673909 1_554
O11 Si2 1.659687 1_555
O11 Sr0 2.588385 1_555
O11 Sr1 2.673909 1_555
