# generated using pymatgen
data_Mg14NbGa
_symmetry_space_group_name_H-M   'P 1'
_cell_length_a   6.27278643
_cell_length_b   6.27278593
_cell_length_c   10.09765907
_cell_angle_alpha   90.00000000
_cell_angle_beta   90.00000000
_cell_angle_gamma   120.00000257
_symmetry_Int_Tables_number   1
_chemical_formula_structural   Mg14NbGa
_chemical_formula_sum   'Mg14 Nb1 Ga1'
_cell_volume   344.09019083
_cell_formula_units_Z   1
loop_
 _symmetry_equiv_pos_site_id
 _symmetry_equiv_pos_as_xyz
  1  'x, y, z'
loop_
 _atom_site_type_symbol
 _atom_site_label
 _atom_site_symmetry_multiplicity
 _atom_site_fract_x
 _atom_site_fract_y
 _atom_site_fract_z
 _atom_site_occupancy
  Mg  Mg0  1  0.16978180  0.83489040  0.12500000  1
  Mg  Mg1  1  0.16600339  0.83300120  0.62500000  1
  Mg  Mg2  1  0.66510960  0.33021820  0.12500000  1
  Mg  Mg3  1  0.66699880  0.33399661  0.62500000  1
  Mg  Mg4  1  0.66510960  0.83489040  0.12500000  1
  Mg  Mg5  1  0.66699880  0.83300120  0.62500000  1
  Mg  Mg6  1  0.32733825  0.17266175  0.37330047  1
  Mg  Mg7  1  0.32733825  0.17266175  0.87669953  1
  Mg  Mg8  1  0.32733825  0.65467749  0.37330047  1
  Mg  Mg9  1  0.32733825  0.65467749  0.87669953  1
  Mg  Mg10  1  0.84532251  0.17266175  0.37330047  1
  Mg  Mg11  1  0.84532251  0.17266175  0.87669953  1
  Mg  Mg12  1  0.83333300  0.66666700  0.37156340  1
  Mg  Mg13  1  0.83333300  0.66666700  0.87843660  1
  Nb  Nb0  1  0.16666700  0.33333300  0.12500000  1
  Ga  Ga0  1  0.16666700  0.33333300  0.62500000  1
loop_
_geom_bond_atom_site_label_1
_geom_bond_atom_site_label_2
_geom_bond_distance
_geom_bond_site_symmetry_2
Mg0 Mg12 3.088566 1_455
Mg0 Mg13 3.088566 1_454
Mg0 Mg2 3.107085 1_565
Mg0 Mg4 3.107086 1_555
Mg0 Mg8 3.107766 1_555
Mg0 Mg9 3.107766 1_554
Mg0 Mg7 3.107773 1_564
Mg0 Mg6 3.107773 1_565
Mg0 Nb0 3.136439 1_555
Mg0 Nb0 3.136439 1_565
Mg0 Mg2 3.165701 1_455
Mg0 Mg4 3.165701 1_455
Mg1 Mg3 3.130149 1_455
Mg1 Mg5 3.130149 1_455
Mg1 Mg12 3.132896 1_455
Mg1 Mg13 3.132896 1_455
Mg1 Mg8 3.141187 1_555
Mg1 Mg9 3.141187 1_555
Mg1 Mg7 3.141194 1_565
Mg1 Mg6 3.141194 1_565
Mg1 Mg3 3.142637 1_565
Mg1 Mg5 3.142637 1_555
Mg2 Mg4 3.107085 1_545
Mg2 Mg6 3.107773 1_555
Mg2 Mg7 3.107773 1_554
Mg2 Nb0 3.136439 1_555
Mg2 Nb0 3.136439 1_655
Mg2 Mg4 3.165701 1_555
Mg3 Mg5 3.130149 1_555
Mg3 Mg6 3.141194 1_555
Mg3 Mg7 3.141194 1_555
Mg3 Mg5 3.142637 1_545
Mg4 Mg8 3.107773 1_555
Mg4 Mg9 3.107773 1_554
Mg4 Nb0 3.136439 1_555
Mg4 Nb0 3.136439 1_665
Mg5 Mg8 3.141194 1_555
Mg5 Mg9 3.141194 1_555
Mg6 Mg8 3.023582 1_555
Mg6 Nb0 3.055101 1_555
Mg6 Mg8 3.249204 1_545
Mg7 Mg9 3.023582 1_555
Mg7 Nb0 3.055101 1_556
Mg7 Mg9 3.249204 1_545
Mg8 Nb0 3.055107 1_555
Mg9 Nb0 3.055107 1_556
Mg10 Mg8 3.023582 1_655
Mg10 Mg6 3.023582 1_655
Mg10 Nb0 3.055107 1_655
Mg10 Mg2 3.107766 1_555
Mg10 Mg4 3.107772 1_545
Mg10 Mg12 3.137118 1_545
Mg10 Mg12 3.137118 1_555
Mg10 Mg3 3.141187 1_555
Mg10 Mg5 3.141194 1_545
Mg10 Mg8 3.249204 1_545
Mg10 Mg6 3.249205 1_555
Mg11 Mg9 3.023582 1_655
Mg11 Mg7 3.023582 1_655
Mg11 Nb0 3.055107 1_656
Mg11 Mg2 3.107766 1_556
Mg11 Mg4 3.107772 1_546
Mg11 Mg13 3.137118 1_545
Mg11 Mg13 3.137118 1_555
Mg11 Mg3 3.141187 1_555
Mg11 Mg5 3.141194 1_545
Mg11 Mg9 3.249204 1_545
Mg11 Mg7 3.249205 1_555
Mg12 Mg4 3.088559 1_555
Mg12 Mg2 3.088566 1_555
Mg12 Mg5 3.132889 1_555
Mg12 Mg3 3.132895 1_555
Mg12 Mg6 3.137118 1_665
Mg12 Mg6 3.137118 1_555
Mg12 Mg8 3.137118 1_555
Mg12 Mg8 3.137118 1_655
Mg13 Mg4 3.088559 1_556
Mg13 Mg2 3.088566 1_556
Mg13 Mg5 3.132889 1_555
Mg13 Mg3 3.132895 1_555
Mg13 Mg7 3.137118 1_665
Mg13 Mg7 3.137118 1_555
Mg13 Mg9 3.137118 1_555
Mg13 Mg9 3.137118 1_655
Ga0 Mg6 3.083331 1_555
Ga0 Mg7 3.083331 1_555
Ga0 Mg9 3.083337 1_555
Ga0 Mg8 3.083337 1_555
Ga0 Mg11 3.083338 1_455
Ga0 Mg10 3.083338 1_455
Ga0 Mg1 3.136395 1_545
Ga0 Mg5 3.136395 1_445
Ga0 Mg5 3.136395 1_555
Ga0 Mg1 3.136395 1_555
Ga0 Mg3 3.136395 1_555
Ga0 Mg3 3.136395 1_455
