# generated using pymatgen
data_Cs2NaTiF6
_symmetry_space_group_name_H-M   'P 1'
_cell_length_a   11.09355233
_cell_length_b   11.09355233
_cell_length_c   11.09355250
_cell_angle_alpha   33.45975831
_cell_angle_beta   33.45975831
_cell_angle_gamma   33.45976157
_symmetry_Int_Tables_number   1
_chemical_formula_structural   Cs2NaTiF6
_chemical_formula_sum   'Cs4 Na2 Ti2 F12'
_cell_volume   369.60845261
_cell_formula_units_Z   2
loop_
 _symmetry_equiv_pos_site_id
 _symmetry_equiv_pos_as_xyz
  1  'x, y, z'
loop_
 _atom_site_type_symbol
 _atom_site_label
 _atom_site_symmetry_multiplicity
 _atom_site_fract_x
 _atom_site_fract_y
 _atom_site_fract_z
 _atom_site_occupancy
  Cs  Cs0  1  0.71844200  0.71844200  0.71844200  1
  Cs  Cs1  1  0.28155800  0.28155800  0.28155800  1
  Cs  Cs2  1  0.87201300  0.87201300  0.87201300  1
  Cs  Cs3  1  0.12798700  0.12798700  0.12798700  1
  Na  Na0  1  0.40278000  0.40278000  0.40278000  1
  Na  Na1  1  0.59722000  0.59722000  0.59722000  1
  Ti  Ti0  1  0.00000000  0.00000000  0.00000000  1
  Ti  Ti1  1  0.50000000  0.50000000  0.50000000  1
  F  F0  1  0.18552600  0.18552600  0.73935900  1
  F  F1  1  0.73935900  0.18552600  0.18552600  1
  F  F2  1  0.18552600  0.73935900  0.18552600  1
  F  F3  1  0.81447400  0.26064100  0.81447400  1
  F  F4  1  0.81447400  0.81447400  0.26064100  1
  F  F5  1  0.26064100  0.81447400  0.81447400  1
  F  F6  1  0.39551800  0.39551800  0.82522100  1
  F  F7  1  0.82522100  0.39551800  0.39551800  1
  F  F8  1  0.17477900  0.60448200  0.60448200  1
  F  F9  1  0.60448200  0.60448200  0.17477900  1
  F  F10  1  0.60448200  0.17477900  0.60448200  1
  F  F11  1  0.39551800  0.82522100  0.39551800  1
loop_
_geom_bond_atom_site_label_1
_geom_bond_atom_site_label_2
_geom_bond_distance
_geom_bond_site_symmetry_2
Cs0 F8 3.183361 1_655
Cs0 F10 3.183361 1_565
Cs0 F9 3.183361 1_556
Cs0 F1 3.233880 1_556
Cs0 F2 3.233880 1_556
Cs0 F2 3.233880 1_655
Cs0 F1 3.233880 1_565
Cs0 F0 3.233881 1_565
Cs0 F0 3.233881 1_655
Cs0 F5 3.449777 1_555
Cs0 F3 3.449777 1_555
Cs0 F4 3.449777 1_555
Cs1 F7 3.183361 1_455
Cs1 F11 3.183361 1_545
Cs1 F6 3.183361 1_554
Cs1 F5 3.233880 1_554
Cs1 F3 3.233880 1_554
Cs1 F5 3.233880 1_545
Cs1 F3 3.233880 1_455
Cs1 F4 3.233881 1_545
Cs1 F4 3.233881 1_455
Cs1 F1 3.449777 1_555
Cs1 F2 3.449777 1_555
Cs1 F0 3.449777 1_555
Cs2 F7 3.203894 1_556
Cs2 F11 3.203894 1_556
Cs2 F11 3.203894 1_655
Cs2 F7 3.203894 1_565
Cs2 F6 3.203894 1_655
Cs2 F6 3.203894 1_565
Cs2 F9 3.213941 1_556
Cs2 F10 3.213941 1_565
Cs2 F8 3.213941 1_655
Cs2 F5 3.301253 1_655
Cs2 F3 3.301253 1_565
Cs2 F4 3.301253 1_556
Cs3 F10 3.203894 1_554
Cs3 F8 3.203894 1_554
Cs3 F10 3.203894 1_455
Cs3 F8 3.203894 1_545
Cs3 F9 3.203894 1_455
Cs3 F9 3.203894 1_545
Cs3 F6 3.213941 1_554
Cs3 F11 3.213941 1_545
Cs3 F7 3.213941 1_455
Cs3 F1 3.301253 1_455
Cs3 F2 3.301253 1_545
Cs3 F0 3.301253 1_554
F0 Ti0 2.010270 1_556
F0 Na0 2.284829 1_555
F1 Ti0 2.010270 1_655
F1 Na0 2.284829 1_555
F2 Ti0 2.010270 1_565
F2 Na0 2.284829 1_555
F3 Ti0 2.010270 1_656
F3 Na1 2.284829 1_555
F4 Ti0 2.010270 1_665
F4 Na1 2.284829 1_555
F5 Ti0 2.010270 1_566
F5 Na1 2.284829 1_555
F6 Ti1 1.997542 1_555
F6 Na1 2.424579 1_555
F7 Ti1 1.997542 1_555
F7 Na1 2.424580 1_555
F8 Ti1 1.997542 1_555
F8 Na0 2.424580 1_555
F9 Ti1 1.997542 1_555
F9 Na0 2.424579 1_555
F10 Ti1 1.997542 1_555
F10 Na0 2.424580 1_555
F11 Ti1 1.997542 1_555
F11 Na1 2.424580 1_555
