# generated using pymatgen
data_CdTe
_symmetry_space_group_name_H-M   'P 1'
_cell_length_a   4.60676777
_cell_length_b   4.60676777
_cell_length_c   5.77650600
_cell_angle_alpha   90.00000000
_cell_angle_beta   90.00000000
_cell_angle_gamma   99.61168045
_symmetry_Int_Tables_number   1
_chemical_formula_structural   CdTe
_chemical_formula_sum   'Cd2 Te2'
_cell_volume   120.86986969
_cell_formula_units_Z   2
loop_
 _symmetry_equiv_pos_site_id
 _symmetry_equiv_pos_as_xyz
  1  'x, y, z'
loop_
 _atom_site_type_symbol
 _atom_site_label
 _atom_site_symmetry_multiplicity
 _atom_site_fract_x
 _atom_site_fract_y
 _atom_site_fract_z
 _atom_site_occupancy
  Cd  Cd0  1  0.35820200  0.64179800  0.75000000  1
  Cd  Cd1  1  0.64179800  0.35820200  0.25000000  1
  Te  Te0  1  0.77748200  0.22251800  0.75000000  1
  Te  Te1  1  0.22251800  0.77748200  0.25000000  1
loop_
_geom_bond_atom_site_label_1
_geom_bond_atom_site_label_2
_geom_bond_distance
_geom_bond_site_symmetry_2
Cd0 Te0 2.950837 1_555
Cd0 Te0 3.026904 1_565
Cd0 Te0 3.026904 1_455
Cd0 Te1 3.042021 1_556
Cd0 Te1 3.042021 1_555
Cd1 Te1 2.950837 1_555
Cd1 Te1 3.026904 1_545
Cd1 Te1 3.026904 1_655
Cd1 Te0 3.042021 1_554
Cd1 Te0 3.042021 1_555
