# generated using pymatgen
data_NaFeP2(O3F)2
_symmetry_space_group_name_H-M   'P 1'
_cell_length_a   14.40797100
_cell_length_b   6.55292600
_cell_length_c   6.56675407
_cell_angle_alpha   83.94683811
_cell_angle_beta   90.00000000
_cell_angle_gamma   90.00000000
_symmetry_Int_Tables_number   1
_chemical_formula_structural   NaFeP2(O3F)2
_chemical_formula_sum   'Na4 Fe4 P8 O24 F8'
_cell_volume   616.53913398
_cell_formula_units_Z   4
loop_
 _symmetry_equiv_pos_site_id
 _symmetry_equiv_pos_as_xyz
  1  'x, y, z'
loop_
 _atom_site_type_symbol
 _atom_site_label
 _atom_site_symmetry_multiplicity
 _atom_site_fract_x
 _atom_site_fract_y
 _atom_site_fract_z
 _atom_site_occupancy
  Na  Na0  1  0.42346900  0.68992700  0.49560600  1
  Na  Na1  1  0.92346900  0.31007300  0.00439400  1
  Na  Na2  1  0.57653100  0.31007300  0.50439400  1
  Na  Na3  1  0.07653100  0.68992700  0.99560600  1
  Fe  Fe0  1  0.60891400  0.72925800  0.13513100  1
  Fe  Fe1  1  0.10891400  0.27074200  0.36486900  1
  Fe  Fe2  1  0.39108600  0.27074200  0.86486900  1
  Fe  Fe3  1  0.89108600  0.72925800  0.63513100  1
  P  P0  1  0.65538700  0.77082500  0.63113900  1
  P  P1  1  0.15538700  0.22917500  0.86886100  1
  P  P2  1  0.34461300  0.22917500  0.36886100  1
  P  P3  1  0.84461300  0.77082500  0.13113900  1
  P  P4  1  0.39363400  0.75499000  0.98060400  1
  P  P5  1  0.89363400  0.24501000  0.51939600  1
  P  P6  1  0.60636600  0.24501000  0.01939600  1
  P  P7  1  0.10636600  0.75499000  0.48060400  1
  O  O0  1  0.46765900  0.74044800  0.14939000  1
  O  O1  1  0.96765900  0.25955200  0.35061000  1
  O  O2  1  0.53234100  0.25955200  0.85061000  1
  O  O3  1  0.03234100  0.74044800  0.64939000  1
  O  O4  1  0.38295000  0.96535700  0.86159400  1
  O  O5  1  0.88295000  0.03464300  0.63840600  1
  O  O6  1  0.61705000  0.03464300  0.13840600  1
  O  O7  1  0.11705000  0.96535700  0.36159400  1
  O  O8  1  0.60161300  0.74659300  0.83065700  1
  O  O9  1  0.10161300  0.25340700  0.66934300  1
  O  O10  1  0.39838700  0.25340700  0.16934300  1
  O  O11  1  0.89838700  0.74659300  0.33065700  1
  O  O12  1  0.39897200  0.58617900  0.83770500  1
  O  O13  1  0.89897200  0.41382100  0.66229500  1
  O  O14  1  0.60102800  0.41382100  0.16229500  1
  O  O15  1  0.10102800  0.58617900  0.33770500  1
  O  O16  1  0.75472500  0.69813400  0.64378400  1
  O  O17  1  0.25472500  0.30186600  0.85621600  1
  O  O18  1  0.24527500  0.30186600  0.35621600  1
  O  O19  1  0.74527500  0.69813400  0.14378400  1
  O  O20  1  0.59812600  0.68979300  0.45914500  1
  O  O21  1  0.09812600  0.31020700  0.04085500  1
  O  O22  1  0.40187400  0.31020700  0.54085500  1
  O  O23  1  0.90187400  0.68979300  0.95914500  1
  F  F0  1  0.33933400  0.98646900  0.43034300  1
  F  F1  1  0.83933400  0.01353100  0.06965700  1
  F  F2  1  0.66066600  0.01353100  0.56965700  1
  F  F3  1  0.16066600  0.98646900  0.93034300  1
  F  F4  1  0.30015000  0.71303700  0.10760300  1
  F  F5  1  0.80015000  0.28696300  0.39239700  1
  F  F6  1  0.69985000  0.28696300  0.89239700  1
  F  F7  1  0.19985000  0.71303700  0.60760300  1
loop_
_geom_bond_atom_site_label_1
_geom_bond_atom_site_label_2
_geom_bond_distance
_geom_bond_site_symmetry_2
Na0 O12 2.304635 1_555
Na0 O0 2.350554 1_555
Na0 O22 2.494131 1_555
Na0 O20 2.527827 1_555
Na1 O13 2.304635 1_554
Na1 O1 2.350554 1_555
Na1 O23 2.494131 1_554
Na1 O21 2.527827 1_655
Na2 O14 2.304635 1_555
Na2 O2 2.350554 1_555
Na2 O20 2.494131 1_555
Na2 O22 2.527827 1_555
Na3 O15 2.304635 1_556
Na3 O3 2.350554 1_555
Na3 O21 2.494131 1_556
Na3 O23 2.527827 1_455
Fe0 O19 1.975442 1_555
Fe0 O8 1.993412 1_554
Fe0 O6 2.006974 1_565
Fe0 O0 2.039025 1_555
Fe0 O14 2.059029 1_555
Fe0 O20 2.121835 1_555
Fe1 O18 1.975442 1_555
Fe1 O9 1.993412 1_555
Fe1 O7 2.006974 1_545
Fe1 O1 2.039025 1_455
Fe1 O15 2.059029 1_555
Fe1 O21 2.121835 1_555
Fe2 O17 1.975442 1_555
Fe2 O10 1.993412 1_556
Fe2 O4 2.006974 1_545
Fe2 O2 2.039025 1_555
Fe2 O12 2.059029 1_555
Fe2 O22 2.121835 1_555
Fe3 O16 1.975442 1_555
Fe3 O11 1.993412 1_555
Fe3 O5 2.006974 1_565
Fe3 O3 2.039025 1_655
Fe3 O13 2.059029 1_555
Fe3 O23 2.121835 1_555
O0 P4 1.533894 1_554
O1 P5 1.533894 1_555
O2 P6 1.533894 1_556
O3 P7 1.533894 1_555
O4 P4 1.519065 1_555
O5 P5 1.519065 1_555
O6 P6 1.519065 1_555
O7 P7 1.519065 1_555
O8 P0 1.515981 1_555
O9 P1 1.515981 1_555
O10 P2 1.515981 1_555
O11 P3 1.515981 1_555
O12 P4 1.526137 1_555
O13 P5 1.526137 1_555
O14 P6 1.526137 1_555
O15 P7 1.526137 1_555
O16 P0 1.507964 1_555
O17 P1 1.507964 1_555
O18 P2 1.507964 1_555
O19 P3 1.507964 1_555
O20 P0 1.537768 1_555
O21 P1 1.537768 1_554
O22 P2 1.537768 1_555
O23 P3 1.537768 1_556
F0 P2 1.600889 1_565
F0 Na0 2.292071 1_555
F1 P3 1.600889 1_545
F1 Na1 2.292071 1_555
F2 P0 1.600889 1_545
F2 Na2 2.292071 1_555
F3 P1 1.600889 1_565
F3 Na3 2.292071 1_555
F4 P4 1.592769 1_554
F5 P5 1.592769 1_555
F6 P6 1.592769 1_556
F7 P7 1.592769 1_555
