# generated using pymatgen
data_Mg4Si3
_symmetry_space_group_name_H-M   'P 1'
_cell_length_a   8.05295853
_cell_length_b   7.08365387
_cell_length_c   6.31275032
_cell_angle_alpha   82.27145605
_cell_angle_beta   114.82972473
_cell_angle_gamma   68.24969447
_symmetry_Int_Tables_number   1
_chemical_formula_structural   Mg4Si3
_chemical_formula_sum   'Mg8 Si6'
_cell_volume   285.01069566
_cell_formula_units_Z   2
loop_
 _symmetry_equiv_pos_site_id
 _symmetry_equiv_pos_as_xyz
  1  'x, y, z'
loop_
 _atom_site_type_symbol
 _atom_site_label
 _atom_site_symmetry_multiplicity
 _atom_site_fract_x
 _atom_site_fract_y
 _atom_site_fract_z
 _atom_site_occupancy
  Mg  Mg0  1  0.45883200  0.38248800  0.67584800  1
  Mg  Mg1  1  0.15404400  0.15475600  0.23751900  1
  Mg  Mg2  1  0.78630500  0.58243400  0.75559700  1
  Mg  Mg3  1  0.45806100  0.90707900  0.88701800  1
  Mg  Mg4  1  0.54099300  0.19081800  0.27394500  1
  Mg  Mg5  1  0.17364700  0.68278900  0.94771400  1
  Mg  Mg6  1  0.94361200  0.60252300  0.37992700  1
  Mg  Mg7  1  0.94866900  0.15200700  0.61565300  1
  Si  Si0  1  0.19836600  0.80597100  0.50972800  1
  Si  Si1  1  0.73867000  0.40353600  0.10898300  1
  Si  Si2  1  0.84520300  0.02027900  0.17084100  1
  Si  Si3  1  0.19394200  0.30876300  0.85670200  1
  Si  Si4  1  0.55506700  0.58933200  0.30111000  1
  Si  Si5  1  0.75465000  0.96707600  0.77948300  1
loop_
_geom_bond_atom_site_label_1
_geom_bond_atom_site_label_2
_geom_bond_distance
_geom_bond_site_symmetry_2
Mg0 Si0 2.672348 1_555
Mg0 Si5 2.782101 1_545
Mg0 Si1 2.785783 1_556
Mg0 Si3 2.972729 1_555
Mg0 Si2 3.128899 1_556
Mg0 Si4 3.129316 1_555
Mg1 Si0 2.621817 1_545
Mg1 Si3 2.697348 1_554
Mg1 Si1 2.814267 1_455
Mg1 Si2 2.873094 1_455
Mg2 Si1 2.654870 1_556
Mg2 Si4 2.666344 1_555
Mg2 Si5 2.671998 1_555
Mg2 Si3 2.851797 1_655
Mg3 Si3 2.771851 1_565
Mg3 Si4 2.812307 1_556
Mg3 Si0 2.818664 1_555
Mg3 Si5 2.895235 1_555
Mg3 Si1 3.132974 1_556
Mg4 Si3 2.634726 1_554
Mg4 Si2 2.691051 1_555
Mg4 Si5 2.768392 1_545
Mg4 Si4 2.891749 1_555
Mg4 Si1 2.938872 1_555
Mg5 Si4 2.681511 1_556
Mg5 Si3 2.746608 1_555
Mg5 Si5 2.819160 1_455
Mg5 Si0 2.896161 1_555
Mg6 Si2 2.731339 1_565
Mg6 Si3 2.750192 1_655
Mg6 Si1 2.763673 1_555
Mg6 Si0 2.837973 1_655
Mg6 Si4 2.994702 1_555
Mg7 Si3 2.646794 1_655
Mg7 Si5 2.781450 1_545
Mg7 Si1 2.820667 1_555
Mg7 Si0 2.901033 1_645
Mg7 Si2 2.960697 1_555
Mg7 Si4 3.060842 1_555
Si0 Si2 2.405525 1_465
Si1 Si4 2.425380 1_555
Si1 Si2 2.442604 1_555
Si2 Si5 2.391327 1_544
