# generated using pymatgen
data_Zr2S
_symmetry_space_group_name_H-M   'P 1'
_cell_length_a   3.53638270
_cell_length_b   12.37479800
_cell_length_c   15.36382059
_cell_angle_alpha   90.00087063
_cell_angle_beta   90.00000827
_cell_angle_gamma   89.99999486
_symmetry_Int_Tables_number   1
_chemical_formula_structural   Zr2S
_chemical_formula_sum   'Zr24 S12'
_cell_volume   672.35184791
_cell_formula_units_Z   12
loop_
 _symmetry_equiv_pos_site_id
 _symmetry_equiv_pos_as_xyz
  1  'x, y, z'
loop_
 _atom_site_type_symbol
 _atom_site_label
 _atom_site_symmetry_multiplicity
 _atom_site_fract_x
 _atom_site_fract_y
 _atom_site_fract_z
 _atom_site_occupancy
  Zr  Zr0  1  0.49999989  0.65588969  0.47510412  1
  Zr  Zr1  1  0.50000005  0.34411813  0.52495590  1
  Zr  Zr2  1  0.00000021  0.84412862  0.97504922  1
  Zr  Zr3  1  0.99999948  0.15588869  0.02490732  1
  Zr  Zr4  1  0.49999996  0.57422538  0.25109289  1
  Zr  Zr5  1  0.49999998  0.42575148  0.74893362  1
  Zr  Zr6  1  0.99999979  0.92575840  0.75104153  1
  Zr  Zr7  1  0.99999996  0.07422871  0.24893983  1
  Zr  Zr8  1  0.49999990  0.08579166  0.41843311  1
  Zr  Zr9  1  0.49999945  0.91419897  0.58160538  1
  Zr  Zr10  1  1.00000009  0.41419060  0.91836338  1
  Zr  Zr11  1  1.00000003  0.58579077  0.08156700  1
  Zr  Zr12  1  0.49999992  0.96610418  0.10975255  1
  Zr  Zr13  1  0.49999993  0.03393027  0.89021808  1
  Zr  Zr14  1  1.00000004  0.53391049  0.60977578  1
  Zr  Zr15  1  0.99999997  0.46608835  0.39027833  1
  Zr  Zr16  1  0.50000011  0.29727859  0.29577648  1
  Zr  Zr17  1  0.49999991  0.70271100  0.70423140  1
  Zr  Zr18  1  -0.00000013  0.20274434  0.79574196  1
  Zr  Zr19  1  0.00000018  0.79730058  0.20425003  1
  Zr  Zr20  1  0.49999997  0.37377836  0.08086737  1
  Zr  Zr21  1  0.50000006  0.62618605  0.91905209  1
  Zr  Zr22  1  0.99999974  0.12620798  0.58092223  1
  Zr  Zr23  1  -0.00000010  0.87379152  0.41913538  1
  S  S0  1  0.50000006  0.92186779  0.29079926  1
  S  S1  1  0.49999994  0.07814080  0.70922000  1
  S  S2  1  0.99999999  0.57810539  0.79075710  1
  S  S3  1  0.00000005  0.42186220  0.20922180  1
  S  S4  1  0.50000013  0.74665493  0.07887823  1
  S  S5  1  0.49999983  0.25336530  0.92108210  1
  S  S6  1  -0.00000020  0.75335853  0.57889419  1
  S  S7  1  0.99999999  0.24664624  0.42114046  1
  S  S8  1  0.49999980  0.18011961  0.15176454  1
  S  S9  1  0.50000005  0.81988408  0.84820921  1
  S  S10  1  0.00000003  0.31987924  0.65177878  1
  S  S11  1  -0.00000004  0.68012407  0.34825735  1
loop_
_geom_bond_atom_site_label_1
_geom_bond_atom_site_label_2
_geom_bond_distance
_geom_bond_site_symmetry_2
S0 Zr7 2.663646 1_565
S0 Zr7 2.663646 1_465
S0 Zr19 2.696445 1_555
S0 Zr19 2.696445 1_655
S0 Zr23 2.714445 1_655
S0 Zr23 2.714446 1_555
S0 Zr8 2.821363 1_565
S0 Zr12 2.834932 1_555
S1 Zr6 2.663693 1_545
S1 Zr6 2.663694 1_445
S1 Zr18 2.696495 1_655
S1 Zr18 2.696496 1_555
S1 Zr22 2.713993 1_555
S1 Zr22 2.713993 1_455
S1 Zr9 2.821318 1_545
S1 Zr13 2.834137 1_555
S2 Zr5 2.663437 1_655
S2 Zr5 2.663437 1_555
S2 Zr17 2.696562 1_555
S2 Zr17 2.696562 1_655
S2 Zr21 2.713985 1_555
S2 Zr21 2.713985 1_655
S2 Zr10 2.821031 1_555
S2 Zr14 2.833831 1_555
S3 Zr4 2.663695 1_555
S3 Zr4 2.663695 1_455
S3 Zr16 2.696625 1_555
S3 Zr16 2.696626 1_455
S3 Zr20 2.714657 1_555
S3 Zr20 2.714657 1_455
S3 Zr11 2.821672 1_455
S3 Zr15 2.835039 1_455
S4 Zr11 2.662882 1_555
S4 Zr11 2.662883 1_455
S4 Zr2 2.669497 1_554
S4 Zr2 2.669498 1_654
S4 Zr19 2.688766 1_655
S4 Zr19 2.688766 1_555
S4 Zr12 2.756749 1_555
S4 Zr21 2.872627 1_554
S5 Zr10 2.662529 1_455
S5 Zr10 2.662531 1_555
S5 Zr3 2.669478 1_556
S5 Zr3 2.669480 1_456
S5 Zr18 2.688346 1_555
S5 Zr18 2.688346 1_655
S5 Zr13 2.756549 1_555
S5 Zr20 2.871732 1_556
S6 Zr9 2.662667 1_555
S6 Zr9 2.662668 1_455
S6 Zr0 2.669090 1_455
S6 Zr0 2.669091 1_555
S6 Zr17 2.688404 1_455
S6 Zr17 2.688404 1_555
S6 Zr14 2.756768 1_455
S6 Zr23 2.871551 1_555
S7 Zr8 2.662797 1_655
S7 Zr8 2.662798 1_555
S7 Zr1 2.669341 1_555
S7 Zr1 2.669341 1_655
S7 Zr16 2.688654 1_555
S7 Zr16 2.688655 1_655
S7 Zr15 2.756644 1_555
S7 Zr22 2.871886 1_555
S8 Zr20 2.632433 1_555
S8 Zr16 2.645252 1_555
S8 Zr3 2.648592 1_555
S8 Zr3 2.648593 1_455
S8 Zr7 2.659446 1_455
S8 Zr7 2.659446 1_555
S8 Zr12 2.725910 1_545
S9 Zr21 2.632530 1_555
S9 Zr17 2.644909 1_555
S9 Zr2 2.648417 1_555
S9 Zr2 2.648417 1_655
S9 Zr6 2.659279 1_555
S9 Zr6 2.659280 1_455
S9 Zr13 2.726268 1_565
S10 Zr22 2.632285 1_455
S10 Zr18 2.644499 1_555
S10 Zr1 2.648222 1_455
S10 Zr1 2.648222 1_555
S10 Zr5 2.659133 1_555
S10 Zr5 2.659134 1_455
S10 Zr14 2.726086 1_455
S11 Zr23 2.632379 1_555
S11 Zr19 2.645349 1_555
S11 Zr0 2.648485 1_555
S11 Zr0 2.648486 1_455
S11 Zr4 2.659378 1_455
S11 Zr4 2.659378 1_555
S11 Zr15 2.726205 1_455
