# generated using pymatgen
data_Cu4BiSe4I
_symmetry_space_group_name_H-M   'P 1'
_cell_length_a   4.14186300
_cell_length_b   9.75664000
_cell_length_c   23.18401400
_cell_angle_alpha   90.00000000
_cell_angle_beta   90.00000000
_cell_angle_gamma   90.00000000
_symmetry_Int_Tables_number   1
_chemical_formula_structural   Cu4BiSe4I
_chemical_formula_sum   'Cu16 Bi4 Se16 I4'
_cell_volume   936.88145140
_cell_formula_units_Z   4
loop_
 _symmetry_equiv_pos_site_id
 _symmetry_equiv_pos_as_xyz
  1  'x, y, z'
loop_
 _atom_site_type_symbol
 _atom_site_label
 _atom_site_symmetry_multiplicity
 _atom_site_fract_x
 _atom_site_fract_y
 _atom_site_fract_z
 _atom_site_occupancy
  Cu  Cu0  1  0.75000000  0.35312100  0.90722500  1
  Cu  Cu1  1  0.75000000  0.85312100  0.59277500  1
  Cu  Cu2  1  0.25000000  0.64687900  0.09277500  1
  Cu  Cu3  1  0.25000000  0.14687900  0.40722500  1
  Cu  Cu4  1  0.75000000  0.46156600  0.46938900  1
  Cu  Cu5  1  0.75000000  0.96156600  0.03061100  1
  Cu  Cu6  1  0.25000000  0.53843400  0.53061100  1
  Cu  Cu7  1  0.25000000  0.03843400  0.96938900  1
  Cu  Cu8  1  0.75000000  0.35784700  0.29513900  1
  Cu  Cu9  1  0.75000000  0.85784700  0.20486100  1
  Cu  Cu10  1  0.25000000  0.64215300  0.70486100  1
  Cu  Cu11  1  0.25000000  0.14215300  0.79513900  1
  Cu  Cu12  1  0.75000000  0.47452000  0.73830600  1
  Cu  Cu13  1  0.75000000  0.97452000  0.76169400  1
  Cu  Cu14  1  0.25000000  0.52548000  0.26169400  1
  Cu  Cu15  1  0.25000000  0.02548000  0.23830600  1
  Bi  Bi0  1  0.75000000  0.28264400  0.12418000  1
  Bi  Bi1  1  0.75000000  0.78264400  0.37582000  1
  Bi  Bi2  1  0.25000000  0.71735600  0.87582000  1
  Bi  Bi3  1  0.25000000  0.21735600  0.62418000  1
  Se  Se0  1  0.75000000  0.03724300  0.65889500  1
  Se  Se1  1  0.75000000  0.53724300  0.84110500  1
  Se  Se2  1  0.25000000  0.96275700  0.34110500  1
  Se  Se3  1  0.25000000  0.46275700  0.15889500  1
  Se  Se4  1  0.75000000  0.16211400  0.23035800  1
  Se  Se5  1  0.75000000  0.66211400  0.26964200  1
  Se  Se6  1  0.25000000  0.83788600  0.76964200  1
  Se  Se7  1  0.25000000  0.33788600  0.73035800  1
  Se  Se8  1  0.75000000  0.45816700  0.57851500  1
  Se  Se9  1  0.75000000  0.95816700  0.92148500  1
  Se  Se10  1  0.25000000  0.54183300  0.42148500  1
  Se  Se11  1  0.25000000  0.04183300  0.07851500  1
  Se  Se12  1  0.75000000  0.14332400  0.84553500  1
  Se  Se13  1  0.75000000  0.64332400  0.65446500  1
  Se  Se14  1  0.25000000  0.85667600  0.15446500  1
  Se  Se15  1  0.25000000  0.35667600  0.34553500  1
  I  I0  1  0.75000000  0.18419200  0.47699300  1
  I  I1  1  0.75000000  0.68419200  0.02300700  1
  I  I2  1  0.25000000  0.81580800  0.52300700  1
  I  I3  1  0.25000000  0.31580800  0.97699300  1
loop_
_geom_bond_atom_site_label_1
_geom_bond_atom_site_label_2
_geom_bond_distance
_geom_bond_site_symmetry_2
Cu0 Se1 2.361559 1_555
Cu0 Se12 2.497076 1_555
Cu0 I3 2.652848 1_555
Cu0 I3 2.652848 1_655
Cu1 Se0 2.361559 1_565
Cu1 Se13 2.497076 1_555
Cu1 I2 2.652848 1_555
Cu1 I2 2.652848 1_655
Cu2 Se3 2.361559 1_555
Cu2 Se14 2.497076 1_555
Cu2 I1 2.652848 1_455
Cu2 I1 2.652848 1_555
Cu3 Se2 2.361559 1_545
Cu3 Se15 2.497076 1_555
Cu3 I0 2.652848 1_455
Cu3 I0 2.652848 1_555
Cu4 Se10 2.476996 1_655
Cu4 Se10 2.476996 1_555
Cu4 Se8 2.530196 1_555
Cu4 I0 2.711974 1_555
Cu5 Se11 2.476996 1_565
Cu5 Se11 2.476996 1_665
Cu5 Se9 2.530196 1_554
Cu5 I1 2.711974 1_555
Cu6 Se8 2.476996 1_555
Cu6 Se8 2.476996 1_455
Cu6 Se10 2.530196 1_555
Cu6 I2 2.711974 1_555
Cu7 Se9 2.476996 1_445
Cu7 Se9 2.476996 1_545
Cu7 Se11 2.530196 1_556
Cu7 I3 2.711974 1_555
Cu8 Se15 2.377815 1_655
Cu8 Se15 2.377815 1_555
Cu8 Se4 2.429526 1_555
Cu8 Se5 3.026905 1_555
Cu9 Se14 2.377815 1_555
Cu9 Se14 2.377815 1_655
Cu9 Se5 2.429526 1_555
Cu9 Se4 3.026905 1_565
Cu10 Se13 2.377815 1_555
Cu10 Se13 2.377815 1_455
Cu10 Se6 2.429526 1_555
Cu10 Se7 3.026905 1_555
Cu11 Se12 2.377815 1_555
Cu11 Se12 2.377815 1_455
Cu11 Se7 2.429526 1_555
Cu11 Se6 3.026905 1_545
Cu12 Se1 2.460608 1_555
Cu12 Se7 2.469785 1_655
Cu12 Se7 2.469785 1_555
Cu12 Se13 2.547690 1_555
Cu13 Se0 2.460608 1_565
Cu13 Se6 2.469785 1_655
Cu13 Se6 2.469785 1_555
Cu13 Se12 2.547690 1_565
Cu14 Se3 2.460608 1_555
Cu14 Se5 2.469785 1_455
Cu14 Se5 2.469785 1_555
Cu14 Se15 2.547690 1_555
Cu15 Se2 2.460608 1_545
Cu15 Se4 2.469785 1_555
Cu15 Se4 2.469785 1_455
Cu15 Se14 2.547690 1_545
Bi0 Se4 2.728101 1_555
Bi0 Se3 2.832774 1_555
Bi0 Se3 2.832774 1_655
Bi0 Se11 3.306022 1_655
Bi0 Se11 3.306022 1_555
Bi1 Se5 2.728101 1_555
Bi1 Se2 2.832774 1_655
Bi1 Se2 2.832774 1_555
Bi1 Se10 3.306022 1_555
Bi1 Se10 3.306022 1_655
Bi2 Se6 2.728101 1_555
Bi2 Se1 2.832774 1_455
Bi2 Se1 2.832774 1_555
Bi2 Se9 3.306022 1_555
Bi2 Se9 3.306022 1_455
Bi3 Se7 2.728101 1_555
Bi3 Se0 2.832774 1_455
Bi3 Se0 2.832774 1_555
Bi3 Se8 3.306022 1_455
Bi3 Se8 3.306022 1_555
Se10 Se15 2.522694 1_555
Se11 Se14 2.522694 1_545
Se12 Se9 2.522694 1_545
Se13 Se8 2.522694 1_555
