# generated using pymatgen
data_RbDyI3
_symmetry_space_group_name_H-M   'P 1'
_cell_length_a   8.22963600
_cell_length_b   8.72661200
_cell_length_c   11.98210300
_cell_angle_alpha   90.00000000
_cell_angle_beta   90.00000000
_cell_angle_gamma   90.00000000
_symmetry_Int_Tables_number   1
_chemical_formula_structural   RbDyI3
_chemical_formula_sum   'Rb4 Dy4 I12'
_cell_volume   860.51677729
_cell_formula_units_Z   4
loop_
 _symmetry_equiv_pos_site_id
 _symmetry_equiv_pos_as_xyz
  1  'x, y, z'
loop_
 _atom_site_type_symbol
 _atom_site_label
 _atom_site_symmetry_multiplicity
 _atom_site_fract_x
 _atom_site_fract_y
 _atom_site_fract_z
 _atom_site_occupancy
  Rb  Rb0  1  0.02800500  0.42620900  0.25000000  1
  Rb  Rb1  1  0.97199500  0.57379100  0.75000000  1
  Rb  Rb2  1  0.52800500  0.07379100  0.75000000  1
  Rb  Rb3  1  0.47199500  0.92620900  0.25000000  1
  Dy  Dy0  1  0.00000000  0.00000000  0.00000000  1
  Dy  Dy1  1  0.50000000  0.50000000  0.00000000  1
  Dy  Dy2  1  0.00000000  0.00000000  0.50000000  1
  Dy  Dy3  1  0.50000000  0.50000000  0.50000000  1
  I  I0  1  0.29836400  0.20716200  0.04175600  1
  I  I1  1  0.70163600  0.79283800  0.95824400  1
  I  I2  1  0.79836400  0.29283800  0.95824400  1
  I  I3  1  0.70163600  0.79283800  0.54175600  1
  I  I4  1  0.20163600  0.70716200  0.04175600  1
  I  I5  1  0.29836400  0.20716200  0.45824400  1
  I  I6  1  0.20163600  0.70716200  0.45824400  1
  I  I7  1  0.79836400  0.29283800  0.54175600  1
  I  I8  1  0.58656500  0.51529600  0.25000000  1
  I  I9  1  0.41343500  0.48470400  0.75000000  1
  I  I10  1  0.08656500  0.98470400  0.75000000  1
  I  I11  1  0.91343500  0.01529600  0.25000000  1
loop_
_geom_bond_atom_site_label_1
_geom_bond_atom_site_label_2
_geom_bond_distance
_geom_bond_site_symmetry_2
Dy0 I10 3.081964 1_544
Dy0 I11 3.081964 1_455
Dy0 I4 3.087782 1_545
Dy0 I2 3.087782 1_454
Dy0 I0 3.089930 1_555
Dy0 I1 3.089930 1_444
Dy1 I9 3.081964 1_554
Dy1 I8 3.081964 1_555
Dy1 I1 3.087782 1_554
Dy1 I0 3.087782 1_555
Dy1 I2 3.089930 1_554
Dy1 I4 3.089930 1_555
Dy2 I10 3.081964 1_545
Dy2 I11 3.081964 1_455
Dy2 I6 3.087782 1_545
Dy2 I7 3.087782 1_455
Dy2 I5 3.089930 1_555
Dy2 I3 3.089930 1_445
Dy3 I9 3.081964 1_555
Dy3 I8 3.081964 1_555
Dy3 I3 3.087782 1_555
Dy3 I5 3.087782 1_555
Dy3 I7 3.089930 1_555
Dy3 I6 3.089930 1_555
I0 Rb3 3.778757 1_545
I0 Rb0 3.851031 1_555
I0 Rb2 4.140913 1_554
I1 Rb2 3.778757 1_565
I1 Rb1 3.851031 1_555
I1 Rb3 4.140913 1_556
I2 Rb1 3.778757 1_555
I2 Rb2 3.851031 1_555
I2 Rb0 4.140913 1_656
I3 Rb2 3.778757 1_565
I3 Rb1 3.851031 1_555
I3 Rb3 4.140913 1_555
I4 Rb0 3.778757 1_555
I4 Rb3 3.851031 1_555
I4 Rb1 4.140913 1_454
I5 Rb3 3.778757 1_545
I5 Rb0 3.851031 1_555
I5 Rb2 4.140913 1_555
I6 Rb0 3.778757 1_555
I6 Rb3 3.851031 1_555
I6 Rb1 4.140913 1_455
I7 Rb1 3.778757 1_555
I7 Rb2 3.851031 1_555
I7 Rb0 4.140913 1_655
I8 Rb3 3.707766 1_555
I8 Rb0 3.715143 1_655
I9 Rb2 3.707766 1_555
I9 Rb1 3.715143 1_455
I10 Rb1 3.707766 1_455
I10 Rb2 3.715143 1_565
I11 Rb0 3.707766 1_655
I11 Rb3 3.715143 1_545
