# generated using pymatgen
data_Li3Mn(CoO3)2
_symmetry_space_group_name_H-M   'P 1'
_cell_length_a   7.88476216
_cell_length_b   7.88476216
_cell_length_c   5.19618144
_cell_angle_alpha   70.76276308
_cell_angle_beta   70.76276308
_cell_angle_gamma   21.17426399
_symmetry_Int_Tables_number   1
_chemical_formula_structural   Li3Mn(CoO3)2
_chemical_formula_sum   'Li3 Mn1 Co2 O6'
_cell_volume   109.93527626
_cell_formula_units_Z   1
loop_
 _symmetry_equiv_pos_site_id
 _symmetry_equiv_pos_as_xyz
  1  'x, y, z'
loop_
 _atom_site_type_symbol
 _atom_site_label
 _atom_site_symmetry_multiplicity
 _atom_site_fract_x
 _atom_site_fract_y
 _atom_site_fract_z
 _atom_site_occupancy
  Li  Li0  1  0.32536300  0.32536300  0.83926200  1
  Li  Li1  1  0.00000000  0.00000000  0.50000000  1
  Li  Li2  1  0.67463700  0.67463700  0.16073800  1
  Mn  Mn0  1  0.50000000  0.50000000  0.00000000  1
  Co  Co0  1  0.16960400  0.16960400  0.66230800  1
  Co  Co1  1  0.83039600  0.83039600  0.33769200  1
  O  O0  1  0.42035600  0.42035600  0.37934500  1
  O  O1  1  0.07354400  0.07354400  0.07331800  1
  O  O2  1  0.74987500  0.74987500  0.74096000  1
  O  O3  1  0.25012500  0.25012500  0.25904000  1
  O  O4  1  0.92645600  0.92645600  0.92668200  1
  O  O5  1  0.57964400  0.57964400  0.62065500  1
loop_
_geom_bond_atom_site_label_1
_geom_bond_atom_site_label_2
_geom_bond_distance
_geom_bond_site_symmetry_2
Li0 O2 2.032114 1_455
Li0 O2 2.032114 1_545
Li0 O3 2.100627 1_556
Li0 O4 2.288631 1_455
Li0 O4 2.288631 1_545
Li0 O0 2.349555 1_555
Li1 O1 2.126227 1_555
Li1 O4 2.126227 1_445
Li1 O5 2.129493 1_455
Li1 O5 2.129493 1_545
Li1 O0 2.129493 1_455
Li1 O0 2.129493 1_545
Li2 O3 2.032114 1_565
Li2 O3 2.032114 1_655
Li2 O2 2.100627 1_554
Li2 O1 2.288631 1_655
Li2 O1 2.288631 1_565
Li2 O5 2.349555 1_555
Mn0 O5 1.943762 1_554
Mn0 O0 1.943762 1_555
Mn0 O1 1.958206 1_565
Mn0 O4 1.958206 1_544
Mn0 O1 1.958206 1_655
Mn0 O4 1.958206 1_454
Co0 O2 2.038340 1_455
Co0 O2 2.038340 1_545
Co0 O3 2.048291 1_555
Co0 O5 2.071808 1_455
Co0 O5 2.071808 1_545
Co0 O1 2.155576 1_556
Co1 O3 2.038340 1_565
Co1 O3 2.038340 1_655
Co1 O2 2.048291 1_555
Co1 O0 2.071808 1_655
Co1 O0 2.071808 1_565
Co1 O4 2.155576 1_554
