# generated using pymatgen
data_Sr2TlBr5
_symmetry_space_group_name_H-M   'P 1'
_cell_length_a   8.35195422
_cell_length_b   9.36059218
_cell_length_c   13.40028773
_cell_angle_alpha   90.10974560
_cell_angle_beta   90.00000000
_cell_angle_gamma   90.00000000
_symmetry_Int_Tables_number   1
_chemical_formula_structural   Sr2TlBr5
_chemical_formula_sum   'Sr8 Tl4 Br20'
_cell_volume   1047.62235357
_cell_formula_units_Z   4
loop_
 _symmetry_equiv_pos_site_id
 _symmetry_equiv_pos_as_xyz
  1  'x, y, z'
loop_
 _atom_site_type_symbol
 _atom_site_label
 _atom_site_symmetry_multiplicity
 _atom_site_fract_x
 _atom_site_fract_y
 _atom_site_fract_z
 _atom_site_occupancy
  Sr  Sr0  1  0.47483796  -0.00124147  0.82163795  1
  Sr  Sr1  1  0.52516204  0.00124147  0.17836205  1
  Sr  Sr2  1  0.97483796  0.00124147  0.67836205  1
  Sr  Sr3  1  0.02516204  -0.00124147  0.32163795  1
  Sr  Sr4  1  0.42941135  0.75014427  0.50558780  1
  Sr  Sr5  1  0.57058865  0.24985573  0.49441220  1
  Sr  Sr6  1  0.92941135  0.24985573  0.99441220  1
  Sr  Sr7  1  0.07058865  0.75014427  0.00558780  1
  Tl  Tl0  1  0.46809322  0.49415916  0.82922246  1
  Tl  Tl1  1  0.53190678  0.50584084  0.17077754  1
  Tl  Tl2  1  0.96809322  0.50584084  0.67077754  1
  Tl  Tl3  1  0.03190678  0.49415916  0.32922246  1
  Br  Br0  1  0.33454588  0.46372531  0.59325457  1
  Br  Br1  1  0.66545412  0.53627469  0.40674543  1
  Br  Br2  1  0.83454588  0.53627469  0.90674543  1
  Br  Br3  1  0.16545412  0.46372531  0.09325457  1
  Br  Br4  1  0.66756176  0.78045810  0.68335263  1
  Br  Br5  1  0.33243824  0.21954190  0.31664737  1
  Br  Br6  1  0.16756176  0.21954190  0.81664737  1
  Br  Br7  1  0.83243824  0.78045810  0.18335263  1
  Br  Br8  1  0.19193393  0.77024456  0.78274480  1
  Br  Br9  1  0.80806607  0.22975544  0.21725520  1
  Br  Br10  1  0.69193393  0.22975544  0.71725520  1
  Br  Br11  1  0.30806607  0.77024456  0.28274480  1
  Br  Br12  1  0.04471587  0.78069696  0.50236682  1
  Br  Br13  1  0.95528413  0.21930304  0.49763318  1
  Br  Br14  1  0.54471587  0.21930304  0.99763318  1
  Br  Br15  1  0.45528413  0.78069696  0.00236682  1
  Br  Br16  1  0.83751079  0.95944894  0.90079142  1
  Br  Br17  1  0.16248921  0.04055106  0.09920858  1
  Br  Br18  1  0.33751079  0.04055106  0.59920858  1
  Br  Br19  1  0.66248921  0.95944894  0.40079142  1
loop_
_geom_bond_atom_site_label_1
_geom_bond_atom_site_label_2
_geom_bond_distance
_geom_bond_site_symmetry_2
Br0 Sr4 3.034455 1_555
Br0 Sr5 3.104587 1_555
Br0 Tl2 3.255804 1_455
Br0 Tl0 3.364560 1_555
Br1 Sr5 3.034455 1_555
Br1 Sr4 3.104587 1_555
Br1 Tl3 3.255804 1_655
Br1 Tl1 3.364560 1_555
Br2 Sr6 3.034455 1_555
Br2 Sr7 3.104587 1_656
Br2 Tl0 3.255804 1_555
Br2 Tl2 3.364560 1_555
Br3 Sr7 3.034455 1_555
Br3 Sr6 3.104587 1_454
Br3 Tl1 3.255804 1_555
Br3 Tl3 3.364560 1_555
Br4 Sr4 3.115852 1_555
Br4 Sr0 3.191518 1_565
Br4 Sr2 3.295798 1_565
Br5 Sr5 3.115852 1_555
Br5 Sr1 3.191518 1_555
Br5 Sr3 3.295798 1_555
Br6 Sr6 3.115852 1_455
Br6 Sr2 3.191518 1_455
Br6 Sr0 3.295798 1_555
Br7 Sr7 3.115852 1_655
Br7 Sr3 3.191518 1_665
Br7 Sr1 3.295798 1_565
Br8 Sr2 3.151368 1_465
Br8 Sr7 3.159403 1_556
Br8 Sr0 3.228873 1_565
Br9 Sr3 3.151368 1_655
Br9 Sr6 3.159403 1_554
Br9 Sr1 3.228873 1_555
Br10 Sr0 3.151368 1_555
Br10 Sr5 3.159403 1_555
Br10 Sr2 3.228873 1_555
Br11 Sr1 3.151368 1_565
Br11 Sr4 3.159403 1_555
Br11 Sr3 3.228873 1_565
Br12 Sr3 3.174469 1_565
Br12 Sr2 3.185248 1_465
Br12 Sr4 3.225958 1_555
Br13 Sr2 3.174469 1_555
Br13 Sr3 3.185248 1_655
Br13 Sr5 3.225958 1_555
Br14 Sr1 3.174469 1_556
Br14 Sr0 3.185248 1_555
Br14 Sr6 3.225958 1_555
Br15 Sr0 3.174469 1_564
Br15 Sr1 3.185248 1_565
Br15 Sr7 3.225958 1_555
Br16 Sr6 3.088614 1_565
Br16 Sr7 3.100096 1_656
Br16 Sr2 3.218242 1_565
Br16 Sr0 3.230625 1_565
Br17 Sr7 3.088614 1_545
Br17 Sr6 3.100096 1_454
Br17 Sr3 3.218242 1_555
Br17 Sr1 3.230625 1_555
Br18 Sr4 3.088614 1_545
Br18 Sr5 3.100096 1_555
Br18 Sr0 3.218242 1_555
Br18 Sr2 3.230625 1_455
Br19 Sr5 3.088614 1_565
Br19 Sr4 3.100096 1_555
Br19 Sr1 3.218242 1_565
Br19 Sr3 3.230625 1_665
