# generated using pymatgen
data_Nd13Mg2Si4B8O43
_symmetry_space_group_name_H-M   'P 1'
_cell_length_a   9.32297741
_cell_length_b   11.92831619
_cell_length_c   16.09778339
_cell_angle_alpha   90.00000000
_cell_angle_beta   90.00000000
_cell_angle_gamma   106.20361246
_symmetry_Int_Tables_number   1
_chemical_formula_structural   Nd13Mg2Si4B8O43
_chemical_formula_sum   'Nd26 Mg4 Si8 B16 O86'
_cell_volume   1719.07953717
_cell_formula_units_Z   2
loop_
 _symmetry_equiv_pos_site_id
 _symmetry_equiv_pos_as_xyz
  1  'x, y, z'
loop_
 _atom_site_type_symbol
 _atom_site_label
 _atom_site_symmetry_multiplicity
 _atom_site_fract_x
 _atom_site_fract_y
 _atom_site_fract_z
 _atom_site_occupancy
  Nd  Nd0  1  0.32140974  0.36200564  0.12707341  1
  Nd  Nd1  1  0.67859026  0.63799436  0.62707341  1
  Nd  Nd2  1  0.67859026  0.63799436  0.87292659  1
  Nd  Nd3  1  0.32140974  0.36200564  0.37292659  1
  Nd  Nd4  1  0.82204796  0.35550621  0.86932764  1
  Nd  Nd5  1  0.17795204  0.64449379  0.36932764  1
  Nd  Nd6  1  0.17795204  0.64449379  0.13067236  1
  Nd  Nd7  1  0.82204796  0.35550621  0.63067236  1
  Nd  Nd8  1  0.05371669  0.63802658  0.75000000  1
  Nd  Nd9  1  0.94628331  0.36197342  0.25000000  1
  Nd  Nd10  1  0.46142301  0.34841439  0.75000000  1
  Nd  Nd11  1  0.53857699  0.65158561  0.25000000  1
  Nd  Nd12  1  0.14221891  0.19956287  0.92176636  1
  Nd  Nd13  1  0.85778109  0.80043713  0.42176636  1
  Nd  Nd14  1  0.85778109  0.80043713  0.07823364  1
  Nd  Nd15  1  0.14221891  0.19956287  0.57823364  1
  Nd  Nd16  1  0.35886772  0.78272652  0.91364812  1
  Nd  Nd17  1  0.64113228  0.21727348  0.41364812  1
  Nd  Nd18  1  0.64113228  0.21727348  0.08635188  1
  Nd  Nd19  1  0.35886772  0.78272652  0.58635188  1
  Nd  Nd20  1  0.73938669  0.99668385  0.89326145  1
  Nd  Nd21  1  0.26061331  0.00331615  0.39326145  1
  Nd  Nd22  1  0.26061331  0.00331615  0.10673855  1
  Nd  Nd23  1  0.73938669  0.99668385  0.60673855  1
  Nd  Nd24  1  0.27182956  0.98774018  0.75000000  1
  Nd  Nd25  1  0.72817044  0.01225982  0.25000000  1
  Mg  Mg0  1  0.24571885  0.49115760  0.91731070  1
  Mg  Mg1  1  0.75428115  0.50884240  0.41731070  1
  Mg  Mg2  1  0.75428115  0.50884240  0.08268930  1
  Mg  Mg3  1  0.24571885  0.49115760  0.58268930  1
  Si  Si0  1  0.04223318  0.88567501  0.90452736  1
  Si  Si1  1  0.95776682  0.11432499  0.40452736  1
  Si  Si2  1  0.95776682  0.11432499  0.09547264  1
  Si  Si3  1  0.04223318  0.88567501  0.59547264  1
  Si  Si4  1  0.46471098  0.12052876  0.91057207  1
  Si  Si5  1  0.53528902  0.87947124  0.41057207  1
  Si  Si6  1  0.53528902  0.87947124  0.08942793  1
  Si  Si7  1  0.46471098  0.12052876  0.58942793  1
  B  B0  1  0.99055308  0.38991580  0.03279093  1
  B  B1  1  0.00944692  0.61008420  0.53279093  1
  B  B2  1  0.00944692  0.61008420  0.96720907  1
  B  B3  1  0.99055308  0.38991580  0.46720907  1
  B  B4  1  0.49235570  0.38986159  0.96742890  1
  B  B5  1  0.50764430  0.61013841  0.46742890  1
  B  B6  1  0.50764430  0.61013841  0.03257110  1
  B  B7  1  0.49235570  0.38986159  0.53257110  1
  B  B8  1  0.14212830  0.37895205  0.75000000  1
  B  B9  1  0.85787170  0.62104795  0.25000000  1
  B  B10  1  0.87005473  0.14183858  0.75000000  1
  B  B11  1  0.12994527  0.85816142  0.25000000  1
  B  B12  1  0.52832529  0.81721759  0.75000000  1
  B  B13  1  0.47167471  0.18278241  0.25000000  1
  B  B14  1  0.35088620  0.59543537  0.75000000  1
  B  B15  1  0.64911380  0.40456463  0.25000000  1
  O  O0  1  0.86112121  0.82604591  0.91679651  1
  O  O1  1  0.13887879  0.17395409  0.41679651  1
  O  O2  1  0.13887879  0.17395409  0.08320349  1
  O  O3  1  0.86112121  0.82604591  0.58320349  1
  O  O4  1  0.16049663  0.61956470  0.97202496  1
  O  O5  1  0.83950337  0.38043530  0.47202496  1
  O  O6  1  0.83950337  0.38043530  0.02797504  1
  O  O7  1  0.16049663  0.61956470  0.52797504  1
  O  O8  1  0.92473439  0.57376110  0.89614659  1
  O  O9  1  0.07526561  0.42623890  0.39614659  1
  O  O10  1  0.07526561  0.42623890  0.10385341  1
  O  O11  1  0.92473439  0.57376110  0.60385341  1
  O  O12  1  0.64500449  0.17938302  0.92778721  1
  O  O13  1  0.35499551  0.82061698  0.42778721  1
  O  O14  1  0.35499551  0.82061698  0.07221279  1
  O  O15  1  0.64500449  0.17938302  0.57221279  1
  O  O16  1  0.91979540  0.18912124  0.82721556  1
  O  O17  1  0.08020460  0.81087876  0.32721556  1
  O  O18  1  0.08020460  0.81087876  0.17278444  1
  O  O19  1  0.91979540  0.18912124  0.67278444  1
  O  O20  1  0.33855281  0.37001020  0.97162167  1
  O  O21  1  0.66144719  0.62998980  0.47162167  1
  O  O22  1  0.66144719  0.62998980  0.02837833  1
  O  O23  1  0.33855281  0.37001020  0.52837833  1
  O  O24  1  0.42420120  0.57969411  0.10449949  1
  O  O25  1  0.57579880  0.42030589  0.60449949  1
  O  O26  1  0.57579880  0.42030589  0.89550051  1
  O  O27  1  0.42420120  0.57969411  0.39550051  1
  O  O28  1  0.44359869  0.61652818  0.95559719  1
  O  O29  1  0.55640131  0.38347182  0.45559719  1
  O  O30  1  0.55640131  0.38347182  0.04440281  1
  O  O31  1  0.44359869  0.61652818  0.54440281  1
  O  O32  1  0.01919739  0.42372821  0.75000000  1
  O  O33  1  0.98080261  0.57627179  0.25000000  1
  O  O34  1  0.05338013  0.36687083  0.95875772  1
  O  O35  1  0.94661987  0.63312917  0.45875772  1
  O  O36  1  0.94661987  0.63312917  0.04124228  1
  O  O37  1  0.05338013  0.36687083  0.54124228  1
  O  O38  1  0.13198505  0.81120203  0.84730064  1
  O  O39  1  0.86801495  0.18879797  0.34730064  1
  O  O40  1  0.86801495  0.18879797  0.15269936  1
  O  O41  1  0.13198505  0.81120203  0.65269936  1
  O  O42  1  0.21418275  0.36080348  0.82203362  1
  O  O43  1  0.78581725  0.63919652  0.32203362  1
  O  O44  1  0.78581725  0.63919652  0.17796638  1
  O  O45  1  0.21418275  0.36080348  0.67796638  1
  O  O46  1  0.40959619  0.19536356  0.17369327  1
  O  O47  1  0.59040381  0.80463644  0.67369327  1
  O  O48  1  0.59040381  0.80463644  0.82630673  1
  O  O49  1  0.40959619  0.19536356  0.32630673  1
  O  O50  1  0.37456739  0.17529676  0.83964084  1
  O  O51  1  0.62543261  0.82470324  0.33964084  1
  O  O52  1  0.62543261  0.82470324  0.16035916  1
  O  O53  1  0.37456739  0.17529676  0.66035916  1
  O  O54  1  0.48354461  0.56535705  0.75000000  1
  O  O55  1  0.51645539  0.43464295  0.25000000  1
  O  O56  1  0.27703775  0.61001886  0.82218463  1
  O  O57  1  0.72296225  0.38998114  0.32218463  1
  O  O58  1  0.72296225  0.38998114  0.17781537  1
  O  O59  1  0.27703775  0.61001886  0.67781537  1
  O  O60  1  0.45133420  0.98747579  0.87784195  1
  O  O61  1  0.54866580  0.01252421  0.37784195  1
  O  O62  1  0.54866580  0.01252421  0.12215805  1
  O  O63  1  0.45133420  0.98747579  0.62215805  1
  O  O64  1  0.38479733  0.12812431  0.99977794  1
  O  O65  1  0.61520267  0.87187569  0.49977794  1
  O  O66  1  0.61520267  0.87187569  0.00022206  1
  O  O67  1  0.38479733  0.12812431  0.50022206  1
  O  O68  1  0.10278883  0.90065404  0.00097812  1
  O  O69  1  0.89721117  0.09934596  0.50097812  1
  O  O70  1  0.89721117  0.09934596  0.99902188  1
  O  O71  1  0.10278883  0.90065404  0.49902188  1
  O  O72  1  0.82033290  0.67999996  0.75000000  1
  O  O73  1  0.17966710  0.32000004  0.25000000  1
  O  O74  1  0.68783269  0.31288713  0.75000000  1
  O  O75  1  0.31216731  0.68711287  0.25000000  1
  O  O76  1  0.38776223  0.83387360  0.75000000  1
  O  O77  1  0.61223777  0.16612640  0.25000000  1
  O  O78  1  0.07706084  0.01115600  0.85514997  1
  O  O79  1  0.92293916  0.98884400  0.35514997  1
  O  O80  1  0.92293916  0.98884400  0.14485003  1
  O  O81  1  0.07706084  0.01115600  0.64485003  1
  O  O82  1  0.75819745  0.03605589  0.75000000  1
  O  O83  1  0.24180255  0.96394411  0.25000000  1
  O  O84  1  0.22764707  0.45342562  0.25000000  1
  O  O85  1  0.77235293  0.54657438  0.75000000  1
loop_
_geom_bond_atom_site_label_1
_geom_bond_atom_site_label_2
_geom_bond_distance
_geom_bond_site_symmetry_2
Nd0 O73 2.354489 1_555
Nd0 O46 2.470311 1_555
Nd0 O20 2.507647 1_554
Nd0 O2 2.509161 1_555
Nd0 O30 2.514606 1_555
Nd0 O84 2.530046 1_555
Nd0 O24 2.530664 1_555
Nd0 O10 2.640862 1_555
Nd0 O55 2.663426 1_555
Nd1 O72 2.354489 1_555
Nd1 O47 2.470311 1_555
Nd1 O21 2.507647 1_555
Nd1 O3 2.509161 1_555
Nd1 O31 2.514606 1_555
Nd1 O85 2.530046 1_555
Nd1 O25 2.530664 1_555
Nd1 O11 2.640862 1_555
Nd1 O54 2.663426 1_555
Nd2 O72 2.354489 1_555
Nd2 O48 2.470311 1_555
Nd2 O22 2.507647 1_556
Nd2 O0 2.509161 1_555
Nd2 O28 2.514606 1_555
Nd2 O85 2.530046 1_555
Nd2 O26 2.530664 1_555
Nd2 O8 2.640862 1_555
Nd2 O54 2.663426 1_555
Nd3 O73 2.354489 1_555
Nd3 O49 2.470311 1_555
Nd3 O23 2.507647 1_555
Nd3 O1 2.509161 1_555
Nd3 O29 2.514606 1_555
Nd3 O84 2.530046 1_555
Nd3 O27 2.530664 1_555
Nd3 O9 2.640862 1_555
Nd3 O55 2.663426 1_555
Nd4 O74 2.271351 1_555
Nd4 O12 2.467448 1_555
Nd4 O16 2.497687 1_555
Nd4 O8 2.547481 1_555
Nd4 O34 2.564977 1_655
Nd4 O6 2.571023 1_556
Nd4 O32 2.625960 1_655
Nd4 O26 2.652531 1_555
Nd5 O75 2.271351 1_555
Nd5 O13 2.467448 1_555
Nd5 O17 2.497687 1_555
Nd5 O9 2.547481 1_555
Nd5 O35 2.564977 1_455
Nd5 O7 2.571023 1_555
Nd5 O33 2.625960 1_455
Nd5 O27 2.652531 1_555
Nd6 O75 2.271351 1_555
Nd6 O14 2.467448 1_555
Nd6 O18 2.497687 1_555
Nd6 O10 2.547481 1_555
Nd6 O36 2.564977 1_455
Nd6 O4 2.571023 1_554
Nd6 O33 2.625960 1_455
Nd6 O24 2.652531 1_555
Nd7 O74 2.271351 1_555
Nd7 O15 2.467448 1_555
Nd7 O19 2.497687 1_555
Nd7 O11 2.547481 1_555
Nd7 O37 2.564977 1_655
Nd7 O5 2.571023 1_555
Nd7 O32 2.625960 1_655
Nd7 O25 2.652531 1_555
Nd8 O72 2.364932 1_455
Nd8 O32 2.485699 1_555
Nd8 O56 2.486942 1_555
Nd8 O59 2.486942 1_555
Nd8 O41 2.532127 1_555
Nd8 O38 2.532127 1_555
Nd8 O85 2.544383 1_455
Nd8 O8 2.655952 1_455
Nd8 O11 2.655952 1_455
Nd9 O73 2.364932 1_655
Nd9 O33 2.485699 1_555
Nd9 O58 2.486942 1_555
Nd9 O57 2.486942 1_555
Nd9 O39 2.532127 1_555
Nd9 O40 2.532127 1_555
Nd9 O84 2.544383 1_655
Nd9 O10 2.655952 1_655
Nd9 O9 2.655952 1_655
Nd10 O74 2.265911 1_555
Nd10 O53 2.463536 1_555
Nd10 O50 2.463536 1_555
Nd10 O54 2.537948 1_555
Nd10 O26 2.616898 1_555
Nd10 O25 2.616898 1_555
Nd10 O42 2.621007 1_555
Nd10 O45 2.621007 1_555
Nd11 O75 2.265911 1_555
Nd11 O51 2.463536 1_555
Nd11 O52 2.463536 1_555
Nd11 O55 2.537948 1_555
Nd11 O24 2.616898 1_555
Nd11 O27 2.616898 1_555
Nd11 O43 2.621007 1_555
Nd11 O44 2.621007 1_555
Nd12 O78 2.409934 1_555
Nd12 O34 2.438424 1_555
Nd12 O42 2.450858 1_555
Nd12 O20 2.459926 1_555
Nd12 O16 2.547165 1_455
Nd12 O70 2.582500 1_455
Nd12 O2 2.615842 1_556
Nd12 O50 2.621801 1_555
Nd12 O64 2.914342 1_555
Nd13 O79 2.409934 1_555
Nd13 O35 2.438424 1_555
Nd13 O43 2.450858 1_555
Nd13 O21 2.459926 1_555
Nd13 O17 2.547165 1_655
Nd13 O71 2.582500 1_655
Nd13 O3 2.615842 1_555
Nd13 O51 2.621801 1_555
Nd13 O65 2.914342 1_555
Nd14 O80 2.409934 1_555
Nd14 O36 2.438424 1_555
Nd14 O44 2.450858 1_555
Nd14 O22 2.459926 1_555
Nd14 O18 2.547165 1_655
Nd14 O68 2.582500 1_655
Nd14 O0 2.615842 1_554
Nd14 O52 2.621801 1_555
Nd14 O66 2.914342 1_555
Nd15 O81 2.409934 1_555
Nd15 O37 2.438424 1_555
Nd15 O45 2.450858 1_555
Nd15 O23 2.459926 1_555
Nd15 O19 2.547165 1_455
Nd15 O69 2.582500 1_455
Nd15 O1 2.615842 1_555
Nd15 O53 2.621801 1_555
Nd15 O67 2.914342 1_555
Nd16 O60 2.421826 1_555
Nd16 O28 2.425739 1_555
Nd16 O4 2.466263 1_555
Nd16 O56 2.473210 1_555
Nd16 O38 2.476134 1_555
Nd16 O48 2.527820 1_555
Nd16 O14 2.594252 1_556
Nd16 O76 2.700552 1_555
Nd16 O66 2.714024 1_556
Nd17 O61 2.421826 1_555
Nd17 O29 2.425739 1_555
Nd17 O5 2.466263 1_555
Nd17 O57 2.473210 1_555
Nd17 O39 2.476134 1_555
Nd17 O49 2.527820 1_555
Nd17 O15 2.594252 1_555
Nd17 O77 2.700552 1_555
Nd17 O67 2.714024 1_555
Nd18 O62 2.421826 1_555
Nd18 O30 2.425739 1_555
Nd18 O6 2.466263 1_555
Nd18 O58 2.473210 1_555
Nd18 O40 2.476134 1_555
Nd18 O46 2.527820 1_555
Nd18 O12 2.594252 1_554
Nd18 O77 2.700552 1_555
Nd18 O64 2.714024 1_554
Nd19 O63 2.421826 1_555
Nd19 O31 2.425739 1_555
Nd19 O7 2.466263 1_555
Nd19 O59 2.473210 1_555
Nd19 O41 2.476134 1_555
Nd19 O47 2.527820 1_555
Nd19 O13 2.594252 1_555
Nd19 O76 2.700552 1_555
Nd19 O65 2.714024 1_555
Nd20 O82 2.350292 1_565
Nd20 O70 2.357441 1_565
Nd20 O66 2.357866 1_556
Nd20 O48 2.561816 1_555
Nd20 O0 2.619885 1_555
Nd20 O12 2.627301 1_565
Nd20 O16 2.659641 1_565
Nd20 O60 2.668521 1_555
Nd21 O83 2.350292 1_545
Nd21 O71 2.357441 1_545
Nd21 O67 2.357866 1_555
Nd21 O49 2.561816 1_555
Nd21 O1 2.619885 1_555
Nd21 O13 2.627301 1_545
Nd21 O17 2.659641 1_545
Nd21 O61 2.668521 1_555
Nd22 O83 2.350292 1_545
Nd22 O68 2.357441 1_545
Nd22 O64 2.357866 1_554
Nd22 O46 2.561816 1_555
Nd22 O2 2.619885 1_555
Nd22 O14 2.627301 1_545
Nd22 O18 2.659641 1_545
Nd22 O62 2.668521 1_555
Nd23 O82 2.350292 1_565
Nd23 O69 2.357441 1_565
Nd23 O65 2.357866 1_555
Nd23 O47 2.561816 1_555
Nd23 O3 2.619885 1_555
Nd23 O15 2.627301 1_565
Nd23 O19 2.659641 1_565
Nd23 O63 2.668521 1_555
Nd24 O76 2.375694 1_555
Nd24 O78 2.554107 1_565
Nd24 O81 2.554107 1_565
Nd24 O53 2.609406 1_565
Nd24 O50 2.609406 1_565
Nd24 O63 2.653086 1_555
Nd24 O60 2.653086 1_555
Nd24 O41 2.656187 1_555
Nd24 O38 2.656187 1_555
Nd25 O77 2.375694 1_555
Nd25 O79 2.554107 1_545
Nd25 O80 2.554107 1_545
Nd25 O52 2.609406 1_545
Nd25 O51 2.609406 1_545
Nd25 O62 2.653086 1_555
Nd25 O61 2.653086 1_555
Nd25 O40 2.656187 1_555
Nd25 O39 2.656187 1_555
Mg0 O56 2.051669 1_555
Mg0 O20 2.073581 1_555
Mg0 O34 2.091612 1_555
Mg0 O4 2.105297 1_555
Mg0 O28 2.116583 1_555
Mg0 O42 2.145092 1_555
Mg1 O57 2.051669 1_555
Mg1 O21 2.073581 1_555
Mg1 O35 2.091612 1_555
Mg1 O5 2.105297 1_555
Mg1 O29 2.116583 1_555
Mg1 O43 2.145092 1_555
Mg2 O58 2.051669 1_555
Mg2 O22 2.073581 1_555
Mg2 O36 2.091612 1_555
Mg2 O6 2.105297 1_555
Mg2 O30 2.116583 1_555
Mg2 O44 2.145092 1_555
Mg3 O59 2.051669 1_555
Mg3 O23 2.073581 1_555
Mg3 O37 2.091612 1_555
Mg3 O7 2.105297 1_555
Mg3 O31 2.116583 1_555
Mg3 O45 2.145092 1_555
B0 O6 1.383127 1_555
B0 O34 1.388822 1_654
B0 O10 1.388924 1_655
B1 O7 1.383127 1_555
B1 O35 1.388822 1_455
B1 O11 1.388924 1_455
B2 O4 1.383127 1_555
B2 O36 1.388822 1_456
B2 O8 1.388924 1_455
B3 O5 1.383127 1_555
B3 O37 1.388822 1_655
B3 O9 1.388924 1_655
B4 O26 1.385677 1_555
B4 O30 1.386767 1_556
B4 O20 1.388237 1_555
B5 O27 1.385677 1_555
B5 O31 1.386767 1_555
B5 O21 1.388237 1_555
B6 O24 1.385677 1_555
B6 O28 1.386767 1_554
B6 O22 1.388237 1_555
B7 O25 1.385677 1_555
B7 O29 1.386767 1_555
B7 O23 1.388237 1_555
B8 O45 1.387054 1_555
B8 O42 1.387054 1_555
B8 O32 1.392983 1_555
B9 O44 1.387054 1_555
B9 O43 1.387054 1_555
B9 O33 1.392983 1_555
B10 O19 1.390044 1_555
B10 O16 1.390044 1_555
B10 O82 1.394738 1_555
B11 O18 1.390044 1_555
B11 O17 1.390044 1_555
B11 O83 1.394738 1_555
B12 O76 1.379168 1_555
B12 O48 1.383780 1_555
B12 O47 1.383780 1_555
B13 O77 1.379168 1_555
B13 O46 1.383780 1_555
B13 O49 1.383780 1_555
B14 O54 1.380572 1_555
B14 O56 1.386143 1_555
B14 O59 1.386143 1_555
B15 O55 1.380572 1_555
B15 O58 1.386143 1_555
B15 O57 1.386143 1_555
O0 Si0 1.650965 1_655
O1 Si1 1.650965 1_455
O2 Si2 1.650965 1_455
O3 Si3 1.650965 1_655
O12 Si4 1.654208 1_555
O13 Si5 1.654208 1_555
O14 Si6 1.654208 1_555
O15 Si7 1.654208 1_555
O38 Si0 1.659157 1_555
O39 Si1 1.659157 1_555
O40 Si2 1.659157 1_555
O41 Si3 1.659157 1_555
O50 Si4 1.656283 1_555
O51 Si5 1.656283 1_555
O52 Si6 1.656283 1_555
O53 Si7 1.656283 1_555
O60 Si4 1.643646 1_565
O61 Si5 1.643646 1_545
O62 Si6 1.643646 1_545
O63 Si7 1.643646 1_565
O64 Si4 1.631901 1_555
O65 Si5 1.631901 1_555
O66 Si6 1.631901 1_555
O67 Si7 1.631901 1_555
O68 Si0 1.644705 1_554
O69 Si1 1.644705 1_555
O70 Si2 1.644705 1_556
O71 Si3 1.644705 1_555
O72 O85 1.528324 1_555
O73 O84 1.528324 1_555
O78 Si0 1.645097 1_545
O79 Si1 1.645097 1_565
O80 Si2 1.645097 1_565
O81 Si3 1.645097 1_545
