# generated using pymatgen
data_Na3SbS3
_symmetry_space_group_name_H-M   'P 1'
_cell_length_a   8.63865924
_cell_length_b   8.63865924
_cell_length_c   8.63865924
_cell_angle_alpha   90.00000000
_cell_angle_beta   90.00000000
_cell_angle_gamma   90.00000000
_symmetry_Int_Tables_number   1
_chemical_formula_structural   Na3SbS3
_chemical_formula_sum   'Na12 Sb4 S12'
_cell_volume   644.67232900
_cell_formula_units_Z   4
loop_
 _symmetry_equiv_pos_site_id
 _symmetry_equiv_pos_as_xyz
  1  'x, y, z'
loop_
 _atom_site_type_symbol
 _atom_site_label
 _atom_site_symmetry_multiplicity
 _atom_site_fract_x
 _atom_site_fract_y
 _atom_site_fract_z
 _atom_site_occupancy
  Na  Na0  1  0.43882287  0.93882287  0.56117713  1
  Na  Na1  1  0.93882287  0.56117713  0.43882287  1
  Na  Na2  1  0.56117713  0.43882287  0.93882287  1
  Na  Na3  1  0.06117713  0.06117713  0.06117713  1
  Na  Na4  1  0.93131999  0.43131999  0.06868001  1
  Na  Na5  1  0.43131999  0.06868001  0.93131999  1
  Na  Na6  1  0.06868001  0.93131999  0.43131999  1
  Na  Na7  1  0.56868001  0.56868001  0.56868001  1
  Na  Na8  1  0.67486611  0.17486611  0.32513389  1
  Na  Na9  1  0.17486611  0.32513389  0.67486611  1
  Na  Na10  1  0.32513389  0.67486611  0.17486611  1
  Na  Na11  1  0.82513389  0.82513389  0.82513389  1
  Sb  Sb0  1  0.21433105  0.71433105  0.78566895  1
  Sb  Sb1  1  0.71433105  0.78566895  0.21433105  1
  Sb  Sb2  1  0.78566895  0.21433105  0.71433105  1
  Sb  Sb3  1  0.28566895  0.28566895  0.28566895  1
  S  S0  1  0.14174181  0.98507859  0.74989682  1
  S  S1  1  0.25010318  0.64174181  0.51492141  1
  S  S2  1  0.48507859  0.75010318  0.85825819  1
  S  S3  1  0.64174181  0.51492141  0.25010318  1
  S  S4  1  0.75010318  0.85825819  0.48507859  1
  S  S5  1  0.98507859  0.74989682  0.14174181  1
  S  S6  1  0.85825819  0.48507859  0.75010318  1
  S  S7  1  0.74989682  0.14174181  0.98507859  1
  S  S8  1  0.51492141  0.25010318  0.64174181  1
  S  S9  1  0.35825819  0.01492141  0.24989682  1
  S  S10  1  0.24989682  0.35825819  0.01492141  1
  S  S11  1  0.01492141  0.24989682  0.35825819  1
loop_
_geom_bond_atom_site_label_1
_geom_bond_atom_site_label_2
_geom_bond_distance
_geom_bond_site_symmetry_2
Na0 S9 2.854382 1_565
Na0 S8 2.854382 1_565
Na0 S4 2.854382 1_555
Na0 S1 3.066564 1_555
Na0 S2 3.066564 1_555
Na0 S0 3.066564 1_555
Na1 S6 2.854382 1_555
Na1 S11 2.854382 1_655
Na1 S1 2.854382 1_655
Na1 S4 3.066564 1_555
Na1 S5 3.066564 1_555
Na1 S3 3.066564 1_555
Na2 S3 2.854382 1_556
Na2 S10 2.854382 1_556
Na2 S2 2.854382 1_555
Na2 S7 3.066564 1_555
Na2 S8 3.066564 1_555
Na2 S6 3.066564 1_555
Na3 S7 2.854382 1_454
Na3 S0 2.854382 1_544
Na3 S5 2.854382 1_445
Na3 S9 3.066564 1_555
Na3 S10 3.066564 1_555
Na3 S11 3.066564 1_555
Na4 S6 2.861460 1_554
Na4 S10 2.861460 1_655
Na4 S5 2.861460 1_555
Na4 S11 3.039029 1_655
Na4 S3 3.039029 1_555
Na4 S7 3.039029 1_554
Na5 S2 2.861460 1_545
Na5 S7 2.861460 1_555
Na5 S9 2.861460 1_556
Na5 S10 3.039029 1_556
Na5 S8 3.039029 1_555
Na5 S0 3.039029 1_545
Na6 S4 2.861460 1_455
Na6 S11 2.861460 1_565
Na6 S0 2.861460 1_555
Na6 S9 3.039029 1_565
Na6 S1 3.039029 1_555
Na6 S5 3.039029 1_455
Na7 S3 2.861460 1_555
Na7 S1 2.861460 1_555
Na7 S8 2.861460 1_555
Na7 S6 3.039029 1_555
Na7 S4 3.039029 1_555
Na7 S2 3.039029 1_555
Na8 S7 3.021857 1_554
Na8 S11 3.021857 1_655
Na8 S3 3.021857 1_555
Na8 S4 3.132434 1_545
Na8 S8 3.132434 1_555
Na8 S9 3.132434 1_555
Na9 S10 3.021857 1_556
Na9 S0 3.021857 1_545
Na9 S8 3.021857 1_555
Na9 S1 3.132434 1_555
Na9 S6 3.132434 1_455
Na9 S11 3.132434 1_555
Na10 S5 3.021857 1_455
Na10 S9 3.021857 1_565
Na10 S1 3.021857 1_555
Na10 S2 3.132434 1_554
Na10 S3 3.132434 1_555
Na10 S10 3.132434 1_555
Na11 S2 3.021857 1_555
Na11 S6 3.021857 1_555
Na11 S4 3.021857 1_555
Na11 S5 3.132434 1_556
Na11 S0 3.132434 1_655
Na11 S7 3.132434 1_565
S0 Sb0 2.441137 1_555
S1 Sb0 2.441137 1_555
S2 Sb0 2.441137 1_555
S3 Sb1 2.441137 1_555
S4 Sb1 2.441137 1_555
S5 Sb1 2.441137 1_555
S6 Sb2 2.441137 1_555
S7 Sb2 2.441137 1_555
S8 Sb2 2.441137 1_555
S9 Sb3 2.441137 1_555
S10 Sb3 2.441137 1_555
S11 Sb3 2.441137 1_555
