# generated using pymatgen
data_KAs(OF2)2
_symmetry_space_group_name_H-M   'P 1'
_cell_length_a   5.00189912
_cell_length_b   6.53685622
_cell_length_c   8.11048139
_cell_angle_alpha   86.19845835
_cell_angle_beta   72.03956449
_cell_angle_gamma   77.58384335
_symmetry_Int_Tables_number   1
_chemical_formula_structural   KAs(OF2)2
_chemical_formula_sum   'K2 As2 O4 F8'
_cell_volume   246.36332855
_cell_formula_units_Z   2
loop_
 _symmetry_equiv_pos_site_id
 _symmetry_equiv_pos_as_xyz
  1  'x, y, z'
loop_
 _atom_site_type_symbol
 _atom_site_label
 _atom_site_symmetry_multiplicity
 _atom_site_fract_x
 _atom_site_fract_y
 _atom_site_fract_z
 _atom_site_occupancy
  K  K0  1  0.10253100  0.25000000  0.79493800  1
  K  K1  1  0.89746900  0.75000000  0.20506200  1
  As  As0  1  0.63443100  0.75000000  0.73113800  1
  As  As1  1  0.36556900  0.25000000  0.26886200  1
  O  O0  1  0.49543200  0.82930800  0.54848300  1
  O  O1  1  0.95608500  0.67069200  0.54848300  1
  O  O2  1  0.50456800  0.17069200  0.45151700  1
  O  O3  1  0.04391500  0.32930800  0.45151700  1
  F  F0  1  0.72719800  0.99764400  0.74338000  1
  F  F1  1  0.52942200  0.50235600  0.74338000  1
  F  F2  1  0.27280200  0.00235600  0.25662000  1
  F  F3  1  0.47057800  0.49764400  0.25662000  1
  F  F4  1  0.30124200  0.84698400  0.89437100  1
  F  F5  1  0.80438600  0.65301600  0.89437100  1
  F  F6  1  0.69875800  0.15301600  0.10562900  1
  F  F7  1  0.19561400  0.34698400  0.10562900  1
loop_
_geom_bond_atom_site_label_1
_geom_bond_atom_site_label_2
_geom_bond_distance
_geom_bond_site_symmetry_2
K0 O3 2.891275 1_555
K0 O2 2.891275 1_555
K1 O0 2.891275 1_555
K1 O1 2.891275 1_555
As0 F1 1.794006 1_555
As0 F0 1.794006 1_555
As0 F5 1.796754 1_555
As0 F4 1.796758 1_555
As0 O0 1.823492 1_555
As0 O1 1.823492 1_555
As1 F2 1.794006 1_555
As1 F3 1.794006 1_555
As1 F7 1.796754 1_555
As1 F6 1.796758 1_555
As1 O3 1.823492 1_555
As1 O2 1.823492 1_555
F0 K0 2.885829 1_665
F0 K0 3.118970 1_565
F1 K0 2.885829 1_555
F1 K0 3.118970 1_655
F2 K1 2.885829 1_445
F2 K1 3.118970 1_545
F3 K1 2.885829 1_555
F3 K1 3.118970 1_455
F4 K0 2.768618 1_565
F4 K1 2.833841 1_456
F5 K0 2.768619 1_655
F5 K1 2.833844 1_556
F6 K1 2.768618 1_545
F6 K0 2.833841 1_654
F7 K1 2.768619 1_455
F7 K0 2.833844 1_554
