# generated using pymatgen
data_Pr6Mn23
_symmetry_space_group_name_H-M   'P 1'
_cell_length_a   8.63856091
_cell_length_b   8.63856091
_cell_length_c   8.63856091
_cell_angle_alpha   60.00000000
_cell_angle_beta   60.00000000
_cell_angle_gamma   60.00000000
_symmetry_Int_Tables_number   1
_chemical_formula_structural   Pr6Mn23
_chemical_formula_sum   'Pr6 Mn23'
_cell_volume   455.83660956
_cell_formula_units_Z   1
loop_
 _symmetry_equiv_pos_site_id
 _symmetry_equiv_pos_as_xyz
  1  'x, y, z'
loop_
 _atom_site_type_symbol
 _atom_site_label
 _atom_site_symmetry_multiplicity
 _atom_site_fract_x
 _atom_site_fract_y
 _atom_site_fract_z
 _atom_site_occupancy
  Pr  Pr0  1  0.70492000  0.70492000  0.29508000  1
  Pr  Pr1  1  0.29508000  0.70492000  0.29508000  1
  Pr  Pr2  1  0.70492000  0.29508000  0.29508000  1
  Pr  Pr3  1  0.29508000  0.29508000  0.70492000  1
  Pr  Pr4  1  0.70492000  0.29508000  0.70492000  1
  Pr  Pr5  1  0.29508000  0.70492000  0.70492000  1
  Mn  Mn0  1  0.00000000  0.00000000  0.00000000  1
  Mn  Mn1  1  0.00000000  0.00000000  0.50000000  1
  Mn  Mn2  1  0.50000000  0.00000000  0.50000000  1
  Mn  Mn3  1  0.00000000  0.50000000  0.50000000  1
  Mn  Mn4  1  0.50000000  0.50000000  0.00000000  1
  Mn  Mn5  1  0.00000000  0.50000000  0.00000000  1
  Mn  Mn6  1  0.50000000  0.00000000  0.00000000  1
  Mn  Mn7  1  0.88000600  0.88000600  0.35998200  1
  Mn  Mn8  1  0.88000600  0.35998200  0.88000600  1
  Mn  Mn9  1  0.35998200  0.88000600  0.88000600  1
  Mn  Mn10  1  0.88000600  0.88000600  0.88000600  1
  Mn  Mn11  1  0.11999400  0.11999400  0.64001800  1
  Mn  Mn12  1  0.11999400  0.64001800  0.11999400  1
  Mn  Mn13  1  0.64001800  0.11999400  0.11999400  1
  Mn  Mn14  1  0.11999400  0.11999400  0.11999400  1
  Mn  Mn15  1  0.68119900  0.68119900  0.95640300  1
  Mn  Mn16  1  0.68119900  0.95640300  0.68119900  1
  Mn  Mn17  1  0.95640300  0.68119900  0.68119900  1
  Mn  Mn18  1  0.68119900  0.68119900  0.68119900  1
  Mn  Mn19  1  0.31880100  0.31880100  0.04359700  1
  Mn  Mn20  1  0.31880100  0.04359700  0.31880100  1
  Mn  Mn21  1  0.04359700  0.31880100  0.31880100  1
  Mn  Mn22  1  0.31880100  0.31880100  0.31880100  1
loop_
_geom_bond_atom_site_label_1
_geom_bond_atom_site_label_2
_geom_bond_distance
_geom_bond_site_symmetry_2
Mn0 Mn14 2.539081 1_555
Mn0 Mn8 2.539081 1_454
Mn0 Mn9 2.539081 1_544
Mn0 Mn7 2.539081 1_445
Mn0 Mn13 2.539081 1_455
Mn0 Mn11 2.539081 1_554
Mn0 Mn12 2.539081 1_545
Mn0 Mn10 2.539081 1_444
Mn1 Mn17 2.512626 1_445
Mn1 Mn21 2.512626 1_555
Mn1 Mn20 2.512626 1_555
Mn1 Mn16 2.512626 1_445
Mn1 Mn11 2.682177 1_555
Mn1 Mn10 2.682177 1_445
Mn1 Mn7 2.682177 1_445
Mn1 Mn14 2.682177 1_555
Mn1 Pr2 3.103449 1_455
Mn1 Pr1 3.103449 1_545
Mn1 Pr4 3.103449 1_455
Mn1 Pr5 3.103449 1_545
Mn2 Mn22 2.512626 1_555
Mn2 Mn20 2.512626 1_555
Mn2 Mn7 2.682177 1_545
Mn2 Mn9 2.682177 1_545
Mn2 Pr0 3.103449 1_545
Mn2 Pr5 3.103449 1_545
Mn2 Pr2 3.103449 1_555
Mn2 Pr3 3.103449 1_555
Mn3 Mn7 2.682177 1_455
Mn3 Mn8 2.682177 1_455
Mn3 Pr0 3.103449 1_455
Mn3 Pr4 3.103449 1_455
Mn3 Pr3 3.103449 1_555
Mn3 Pr1 3.103449 1_555
Mn4 Mn8 2.682177 1_554
Mn4 Mn9 2.682177 1_554
Mn4 Pr4 3.103449 1_554
Mn4 Pr5 3.103449 1_554
Mn4 Pr2 3.103449 1_555
Mn4 Pr1 3.103449 1_555
Mn5 Mn8 2.682177 1_454
Mn5 Pr3 3.103449 1_554
Mn5 Pr2 3.103449 1_455
Mn5 Pr0 3.103449 1_455
Mn5 Pr5 3.103449 1_554
Mn6 Mn9 2.682177 1_544
Mn6 Pr3 3.103449 1_554
Mn6 Pr1 3.103449 1_545
Mn6 Pr4 3.103449 1_554
Mn6 Pr0 3.103449 1_545
Mn7 Pr0 2.978794 1_555
Mn7 Pr1 2.978794 1_655
Mn7 Pr2 2.978794 1_565
Mn8 Pr4 2.978794 1_555
Mn8 Pr2 2.978794 1_556
Mn8 Pr3 2.978794 1_655
Mn9 Pr5 2.978794 1_555
Mn9 Pr3 2.978794 1_565
Mn9 Pr1 2.978794 1_556
Mn10 Mn17 2.648993 1_555
Mn10 Mn15 2.648993 1_555
Mn10 Mn16 2.648993 1_555
Mn10 Mn5 2.682177 1_656
Mn10 Mn6 2.682177 1_566
Mn10 Mn12 2.931878 1_656
Mn10 Mn11 2.931878 1_665
Mn10 Mn13 2.931878 1_566
Mn10 Pr4 2.978794 1_565
Mn10 Pr5 2.978794 1_655
Mn10 Pr0 2.978794 1_556
Mn11 Mn21 2.648993 1_555
Mn11 Mn20 2.648993 1_555
Mn11 Mn22 2.648993 1_555
Mn11 Mn3 2.682177 1_555
Mn11 Mn2 2.682177 1_555
Mn11 Mn8 2.931878 1_455
Mn11 Mn9 2.931878 1_545
Mn11 Pr5 2.978794 1_545
Mn11 Pr4 2.978794 1_455
Mn11 Pr3 2.978794 1_555
Mn12 Mn21 2.648993 1_555
Mn12 Mn19 2.648993 1_555
Mn12 Mn22 2.648993 1_555
Mn12 Mn5 2.682177 1_555
Mn12 Mn3 2.682177 1_555
Mn12 Mn4 2.682177 1_555
Mn12 Mn9 2.931878 1_554
Mn12 Mn7 2.931878 1_455
Mn12 Pr5 2.978794 1_554
Mn12 Pr0 2.978794 1_455
Mn12 Pr1 2.978794 1_555
Mn13 Mn20 2.648993 1_555
Mn13 Mn19 2.648993 1_555
Mn13 Mn22 2.648993 1_555
Mn13 Mn6 2.682177 1_555
Mn13 Mn4 2.682177 1_555
Mn13 Mn2 2.682177 1_555
Mn13 Mn7 2.931878 1_545
Mn13 Mn8 2.931878 1_554
Mn13 Pr0 2.978794 1_545
Mn13 Pr4 2.978794 1_554
Mn13 Pr2 2.978794 1_555
Mn14 Mn21 2.648993 1_555
Mn14 Mn19 2.648993 1_555
Mn14 Mn20 2.648993 1_555
Mn14 Mn5 2.682177 1_555
Mn14 Mn6 2.682177 1_555
Mn14 Mn8 2.931878 1_454
Mn14 Mn9 2.931878 1_544
Mn14 Mn7 2.931878 1_445
Mn14 Pr3 2.978794 1_554
Mn14 Pr1 2.978794 1_545
Mn14 Pr2 2.978794 1_455
Mn15 Mn16 2.377367 1_555
Mn15 Mn17 2.377367 1_555
Mn15 Mn18 2.377367 1_555
Mn15 Mn5 2.512626 1_656
Mn15 Mn6 2.512626 1_566
Mn15 Mn4 2.512626 1_556
Mn15 Mn9 2.648993 1_555
Mn15 Mn8 2.648993 1_555
Mn15 Pr1 3.143981 1_556
Mn15 Pr2 3.143981 1_556
Mn15 Pr0 3.143981 1_556
Mn16 Mn17 2.377367 1_555
Mn16 Mn18 2.377367 1_555
Mn16 Mn2 2.512626 1_565
Mn16 Mn6 2.512626 1_566
Mn16 Mn9 2.648993 1_555
Mn16 Mn7 2.648993 1_555
Mn16 Pr2 3.143981 1_565
Mn16 Pr3 3.143981 1_565
Mn16 Pr4 3.143981 1_565
Mn17 Mn18 2.377367 1_555
Mn17 Mn3 2.512626 1_655
Mn17 Mn5 2.512626 1_656
Mn17 Mn7 2.648993 1_555
Mn17 Mn8 2.648993 1_555
Mn17 Pr3 3.143981 1_655
Mn17 Pr1 3.143981 1_655
Mn17 Pr5 3.143981 1_655
Mn18 Mn3 2.512626 1_655
Mn18 Mn2 2.512626 1_565
Mn18 Mn4 2.512626 1_556
Mn18 Mn7 2.648993 1_555
Mn18 Mn9 2.648993 1_555
Mn18 Mn8 2.648993 1_555
Mn18 Pr5 3.143981 1_555
Mn18 Pr4 3.143981 1_555
Mn18 Pr0 3.143981 1_555
Mn19 Mn20 2.377367 1_555
Mn19 Mn22 2.377367 1_555
Mn19 Mn21 2.377367 1_555
Mn19 Mn5 2.512626 1_555
Mn19 Mn6 2.512626 1_555
Mn19 Mn4 2.512626 1_555
Mn19 Pr3 3.143981 1_554
Mn19 Pr4 3.143981 1_554
Mn19 Pr5 3.143981 1_554
Mn20 Mn22 2.377367 1_555
Mn20 Mn21 2.377367 1_555
Mn20 Mn6 2.512626 1_555
Mn20 Pr1 3.143981 1_545
Mn20 Pr5 3.143981 1_545
Mn20 Pr0 3.143981 1_545
Mn21 Mn22 2.377367 1_555
Mn21 Mn5 2.512626 1_555
Mn21 Mn3 2.512626 1_555
Mn21 Pr2 3.143981 1_455
Mn21 Pr4 3.143981 1_455
Mn21 Pr0 3.143981 1_455
Mn22 Mn3 2.512626 1_555
Mn22 Mn4 2.512626 1_555
Mn22 Pr3 3.143981 1_555
Mn22 Pr1 3.143981 1_555
Mn22 Pr2 3.143981 1_555
