# generated using pymatgen
data_Nd6TiInS12
_symmetry_space_group_name_H-M   'P 1'
_cell_length_a   3.94451800
_cell_length_b   13.89332000
_cell_length_c   16.36055000
_cell_angle_alpha   90.00000000
_cell_angle_beta   90.00000000
_cell_angle_gamma   90.00000000
_symmetry_Int_Tables_number   1
_chemical_formula_structural   Nd6TiInS12
_chemical_formula_sum   'Nd12 Ti2 In2 S24'
_cell_volume   896.59823676
_cell_formula_units_Z   2
loop_
 _symmetry_equiv_pos_site_id
 _symmetry_equiv_pos_as_xyz
  1  'x, y, z'
loop_
 _atom_site_type_symbol
 _atom_site_label
 _atom_site_symmetry_multiplicity
 _atom_site_fract_x
 _atom_site_fract_y
 _atom_site_fract_z
 _atom_site_occupancy
  Nd  Nd0  1  0.00000000  0.75961400  0.10057800  1
  Nd  Nd1  1  0.00000000  0.24038600  0.89942200  1
  Nd  Nd2  1  0.50000000  0.74038600  0.60057800  1
  Nd  Nd3  1  0.50000000  0.25961400  0.39942200  1
  Nd  Nd4  1  0.00000000  0.31717100  0.14971400  1
  Nd  Nd5  1  0.00000000  0.68282900  0.85028600  1
  Nd  Nd6  1  0.50000000  0.18282900  0.64971400  1
  Nd  Nd7  1  0.50000000  0.81717100  0.35028600  1
  Nd  Nd8  1  0.00000000  0.54897800  0.28269200  1
  Nd  Nd9  1  0.00000000  0.45102200  0.71730800  1
  Nd  Nd10  1  0.50000000  0.95102200  0.78269200  1
  Nd  Nd11  1  0.50000000  0.04897800  0.21730800  1
  Ti  Ti0  1  0.00000000  0.00000000  0.00000000  1
  Ti  Ti1  1  0.50000000  0.50000000  0.50000000  1
  In  In0  1  0.00000000  0.00000000  0.50000000  1
  In  In1  1  0.50000000  0.50000000  0.00000000  1
  S  S0  1  0.00000000  0.10257400  0.75379500  1
  S  S1  1  0.00000000  0.89742600  0.24620500  1
  S  S2  1  0.50000000  0.39742600  0.25379500  1
  S  S3  1  0.50000000  0.60257400  0.74620500  1
  S  S4  1  0.00000000  0.41698200  0.42626800  1
  S  S5  1  0.00000000  0.58301800  0.57373200  1
  S  S6  1  0.50000000  0.08301800  0.92626800  1
  S  S7  1  0.50000000  0.91698200  0.07373200  1
  S  S8  1  0.00000000  0.18820400  0.52110300  1
  S  S9  1  0.00000000  0.81179600  0.47889700  1
  S  S10  1  0.50000000  0.31179600  0.02110300  1
  S  S11  1  0.50000000  0.68820400  0.97889700  1
  S  S12  1  0.00000000  0.18694100  0.28767500  1
  S  S13  1  0.00000000  0.81305900  0.71232500  1
  S  S14  1  0.50000000  0.31305900  0.78767500  1
  S  S15  1  0.50000000  0.68694100  0.21232500  1
  S  S16  1  0.00000000  0.52329000  0.10492700  1
  S  S17  1  0.00000000  0.47671000  0.89507300  1
  S  S18  1  0.50000000  0.97671000  0.60492700  1
  S  S19  1  0.50000000  0.02329000  0.39507300  1
  S  S20  1  0.00000000  0.12030300  0.10291600  1
  S  S21  1  0.00000000  0.87969700  0.89708400  1
  S  S22  1  0.50000000  0.37969700  0.60291600  1
  S  S23  1  0.50000000  0.62030300  0.39708400  1
loop_
_geom_bond_atom_site_label_1
_geom_bond_atom_site_label_2
_geom_bond_distance
_geom_bond_site_symmetry_2
Nd0 S15 2.872579 1_455
Nd0 S15 2.872579 1_555
Nd0 S11 2.972754 1_454
Nd0 S11 2.972754 1_554
Nd0 S7 2.977063 1_455
Nd0 S7 2.977063 1_555
Nd0 S1 3.056539 1_555
Nd0 S16 3.284096 1_555
Nd1 S14 2.872579 1_455
Nd1 S14 2.872579 1_555
Nd1 S10 2.972754 1_456
Nd1 S10 2.972754 1_556
Nd1 S6 2.977063 1_555
Nd1 S6 2.977063 1_455
Nd1 S0 3.056539 1_555
Nd1 S17 3.284096 1_555
Nd2 S13 2.872579 1_555
Nd2 S13 2.872579 1_655
Nd2 S9 2.972754 1_555
Nd2 S9 2.972754 1_655
Nd2 S5 2.977063 1_555
Nd2 S5 2.977063 1_655
Nd2 S3 3.056539 1_555
Nd2 S18 3.284096 1_555
Nd3 S12 2.872579 1_555
Nd3 S12 2.872579 1_655
Nd3 S8 2.972754 1_655
Nd3 S8 2.972754 1_555
Nd3 S4 2.977063 1_655
Nd3 S4 2.977063 1_555
Nd3 S2 3.056539 1_555
Nd3 S19 3.284096 1_555
Nd4 S2 2.834194 1_455
Nd4 S2 2.834194 1_555
Nd4 S20 2.840291 1_555
Nd4 S10 2.884929 1_455
Nd4 S10 2.884929 1_555
Nd4 S12 2.892792 1_555
Nd4 S16 2.955936 1_555
Nd5 S3 2.834194 1_555
Nd5 S3 2.834194 1_455
Nd5 S21 2.840291 1_555
Nd5 S11 2.884929 1_555
Nd5 S11 2.884929 1_455
Nd5 S13 2.892792 1_555
Nd5 S17 2.955936 1_555
Nd6 S0 2.834194 1_655
Nd6 S0 2.834194 1_555
Nd6 S22 2.840291 1_555
Nd6 S8 2.884929 1_655
Nd6 S8 2.884929 1_555
Nd6 S14 2.892792 1_555
Nd6 S18 2.955936 1_545
Nd7 S1 2.834194 1_555
Nd7 S1 2.834194 1_655
Nd7 S23 2.840291 1_555
Nd7 S9 2.884929 1_555
Nd7 S9 2.884929 1_655
Nd7 S15 2.892792 1_555
Nd7 S19 2.955936 1_565
Nd8 S23 2.893846 1_455
Nd8 S23 2.893846 1_555
Nd8 S2 2.923474 1_555
Nd8 S2 2.923474 1_455
Nd8 S16 2.930149 1_555
Nd8 S4 2.980062 1_555
Nd8 S15 2.981468 1_555
Nd8 S15 2.981468 1_455
Nd9 S22 2.893846 1_455
Nd9 S22 2.893846 1_555
Nd9 S3 2.923474 1_455
Nd9 S3 2.923474 1_555
Nd9 S17 2.930149 1_555
Nd9 S5 2.980062 1_555
Nd9 S14 2.981468 1_455
Nd9 S14 2.981468 1_555
Nd10 S21 2.893846 1_655
Nd10 S21 2.893846 1_555
Nd10 S0 2.923474 1_665
Nd10 S0 2.923474 1_565
Nd10 S18 2.930149 1_555
Nd10 S6 2.980062 1_565
Nd10 S13 2.981468 1_655
Nd10 S13 2.981468 1_555
Nd11 S20 2.893846 1_655
Nd11 S20 2.893846 1_555
Nd11 S1 2.923474 1_645
Nd11 S1 2.923474 1_545
Nd11 S19 2.930149 1_555
Nd11 S7 2.980062 1_545
Nd11 S12 2.981468 1_555
Nd11 S12 2.981468 1_655
In0 S19 2.634661 1_455
In0 S18 2.634661 1_445
In0 S18 2.634661 1_545
In0 S19 2.634661 1_555
In0 S9 2.637474 1_545
In0 S8 2.637474 1_555
In1 S17 2.634661 1_654
In1 S16 2.634661 1_555
In1 S17 2.634661 1_554
In1 S16 2.634661 1_655
In1 S10 2.637474 1_555
In1 S11 2.637474 1_554
S4 Ti1 2.583656 1_555
S4 Ti1 2.583656 1_455
S5 Ti1 2.583656 1_455
S5 Ti1 2.583656 1_555
S6 Ti0 2.583656 1_556
S6 Ti0 2.583656 1_656
S7 Ti0 2.583656 1_565
S7 Ti0 2.583656 1_665
S20 Ti0 2.372480 1_555
S21 Ti0 2.372480 1_566
S22 Ti1 2.372480 1_555
S23 Ti1 2.372480 1_555
