# generated using pymatgen
data_Ce4Ni4Bi3Sb5
_symmetry_space_group_name_H-M   'P 1'
_cell_length_a   4.49298600
_cell_length_b   4.49298600
_cell_length_c   19.21027300
_cell_angle_alpha   90.00000000
_cell_angle_beta   90.00000000
_cell_angle_gamma   90.00000000
_symmetry_Int_Tables_number   1
_chemical_formula_structural   Ce4Ni4Bi3Sb5
_chemical_formula_sum   'Ce4 Ni4 Bi3 Sb5'
_cell_volume   387.79630563
_cell_formula_units_Z   1
loop_
 _symmetry_equiv_pos_site_id
 _symmetry_equiv_pos_as_xyz
  1  'x, y, z'
loop_
 _atom_site_type_symbol
 _atom_site_label
 _atom_site_symmetry_multiplicity
 _atom_site_fract_x
 _atom_site_fract_y
 _atom_site_fract_z
 _atom_site_occupancy
  Ce  Ce0  1  0.50000000  0.00000000  0.36165000  1
  Ce  Ce1  1  0.50000000  0.00000000  0.86455600  1
  Ce  Ce2  1  0.00000000  0.50000000  0.13544400  1
  Ce  Ce3  1  0.00000000  0.50000000  0.63835000  1
  Ni  Ni0  1  0.50000000  0.50000000  0.24996200  1
  Ni  Ni1  1  0.50000000  0.50000000  0.75003800  1
  Ni  Ni2  1  0.00000000  0.00000000  0.24983100  1
  Ni  Ni3  1  0.00000000  0.00000000  0.75016900  1
  Bi  Bi0  1  0.50000000  0.50000000  0.50000000  1
  Bi  Bi1  1  0.00000000  0.00000000  0.00000000  1
  Bi  Bi2  1  0.00000000  0.00000000  0.50000000  1
  Sb  Sb0  1  0.50000000  0.00000000  0.18006100  1
  Sb  Sb1  1  0.50000000  0.00000000  0.68019500  1
  Sb  Sb2  1  0.00000000  0.50000000  0.31980500  1
  Sb  Sb3  1  0.00000000  0.50000000  0.81993900  1
  Sb  Sb4  1  0.50000000  0.50000000  0.00000000  1
loop_
_geom_bond_atom_site_label_1
_geom_bond_atom_site_label_2
_geom_bond_distance
_geom_bond_site_symmetry_2
Ce0 Ni0 3.106468 1_555
Ce0 Ni0 3.106468 1_545
Ce0 Ni2 3.108207 1_555
Ce0 Ni2 3.108207 1_655
Ce0 Sb2 3.277139 1_545
Ce0 Sb2 3.277139 1_645
Ce0 Sb2 3.277139 1_655
Ce0 Sb2 3.277139 1_555
Ce1 Ni3 3.142502 1_655
Ce1 Ni3 3.142502 1_555
Ce1 Ni1 3.144263 1_555
Ce1 Ni1 3.144263 1_545
Ce1 Sb3 3.290606 1_645
Ce1 Sb3 3.290606 1_545
Ce1 Sb3 3.290606 1_555
Ce1 Sb3 3.290606 1_655
Ce1 Sb4 3.437543 1_556
Ce1 Sb4 3.437543 1_546
Ce2 Ni2 3.142502 1_555
Ce2 Ni2 3.142502 1_565
Ce2 Ni0 3.144263 1_455
Ce2 Ni0 3.144263 1_555
Ce2 Sb0 3.290606 1_455
Ce2 Sb0 3.290606 1_465
Ce2 Sb0 3.290606 1_555
Ce2 Sb0 3.290606 1_565
Ce2 Sb4 3.437543 1_455
Ce2 Sb4 3.437543 1_555
Ce3 Ni1 3.106468 1_555
Ce3 Ni1 3.106468 1_455
Ce3 Ni3 3.108207 1_565
Ce3 Ni3 3.108207 1_555
Ce3 Sb1 3.277139 1_555
Ce3 Sb1 3.277139 1_465
Ce3 Sb1 3.277139 1_565
Ce3 Sb1 3.277139 1_455
Ni0 Sb2 2.616658 1_555
Ni0 Sb2 2.616658 1_655
Ni0 Sb0 2.617229 1_555
Ni0 Sb0 2.617229 1_565
Ni1 Sb1 2.616658 1_555
Ni1 Sb1 2.616658 1_565
Ni1 Sb3 2.617229 1_655
Ni1 Sb3 2.617229 1_555
Ni2 Sb0 2.615939 1_555
Ni2 Sb0 2.615939 1_455
Ni2 Sb2 2.617949 1_545
Ni2 Sb2 2.617949 1_555
Ni3 Sb3 2.615939 1_545
Ni3 Sb3 2.615939 1_555
Ni3 Sb1 2.617949 1_555
Ni3 Sb1 2.617949 1_455
Bi0 Bi2 3.177021 1_665
Bi0 Bi2 3.177021 1_565
Bi0 Bi2 3.177021 1_655
Bi0 Bi2 3.177021 1_555
Bi0 Ce3 3.479988 1_655
Bi0 Ce3 3.479988 1_555
Bi0 Ce0 3.479988 1_555
Bi0 Ce0 3.479988 1_565
Bi1 Sb4 3.177021 1_455
Bi1 Sb4 3.177021 1_555
Bi1 Sb4 3.177021 1_445
Bi1 Sb4 3.177021 1_545
Bi1 Ce1 3.437543 1_554
Bi1 Ce2 3.437543 1_555
Bi1 Ce1 3.437543 1_454
Bi1 Ce2 3.437543 1_545
Bi2 Ce3 3.479988 1_545
Bi2 Ce3 3.479988 1_555
Bi2 Ce0 3.479988 1_555
Bi2 Ce0 3.479988 1_455
