# generated using pymatgen
data_Mg14CuC
_symmetry_space_group_name_H-M   'P 1'
_cell_length_a   6.34179524
_cell_length_b   6.69980825
_cell_length_c   9.31462377
_cell_angle_alpha   90.00000000
_cell_angle_beta   90.00000000
_cell_angle_gamma   121.88570822
_symmetry_Int_Tables_number   1
_chemical_formula_structural   Mg14CuC
_chemical_formula_sum   'Mg14 Cu1 C1'
_cell_volume   336.04738839
_cell_formula_units_Z   1
loop_
 _symmetry_equiv_pos_site_id
 _symmetry_equiv_pos_as_xyz
  1  'x, y, z'
loop_
 _atom_site_type_symbol
 _atom_site_label
 _atom_site_symmetry_multiplicity
 _atom_site_fract_x
 _atom_site_fract_y
 _atom_site_fract_z
 _atom_site_occupancy
  Mg  Mg0  1  0.18365784  0.34182842  0.62500000  1
  Mg  Mg1  1  0.17897801  0.83948851  0.62500000  1
  Mg  Mg2  1  0.78972518  0.40698528  0.12500000  1
  Mg  Mg3  1  0.65411332  0.32795211  0.62500000  1
  Mg  Mg4  1  0.78972518  0.88273890  0.12500000  1
  Mg  Mg5  1  0.65411332  0.82616021  0.62500000  1
  Mg  Mg6  1  0.30395342  0.12476069  0.30521902  1
  Mg  Mg7  1  0.30395342  0.12476069  0.94478098  1
  Mg  Mg8  1  0.30395342  0.67919373  0.30521902  1
  Mg  Mg9  1  0.30395342  0.67919373  0.94478098  1
  Mg  Mg10  1  0.82592017  0.16296059  0.37573353  1
  Mg  Mg11  1  0.82592017  0.16296059  0.87426647  1
  Mg  Mg12  1  0.81708255  0.65854177  0.37673419  1
  Mg  Mg13  1  0.81708255  0.65854177  0.87326581  1
  Cu  Cu0  1  0.15819928  0.32909914  0.12500000  1
  C  C0  1  0.08966871  0.79483386  0.12500000  1
loop_
_geom_bond_atom_site_label_1
_geom_bond_atom_site_label_2
_geom_bond_distance
_geom_bond_site_symmetry_2
Mg0 Mg10 3.016907 1_455
Mg0 Mg11 3.016907 1_455
Mg0 Mg5 3.033668 1_555
Mg0 Mg3 3.033668 1_555
Mg0 Mg5 3.310096 1_445
Mg0 Mg3 3.310096 1_455
Mg0 Mg1 3.349999 1_545
Mg0 Mg1 3.349999 1_555
Mg1 Mg13 3.024118 1_455
Mg1 Mg12 3.024118 1_455
Mg1 Mg3 3.061319 1_565
Mg1 Mg5 3.061319 1_555
Mg1 Mg3 3.282291 1_455
Mg1 Mg5 3.282291 1_455
Mg1 Mg8 3.398976 1_555
Mg1 Mg9 3.398976 1_555
Mg1 Mg6 3.398982 1_565
Mg1 Mg7 3.398982 1_565
Mg3 Mg5 3.337899 1_555
Mg3 Mg5 3.361910 1_545
Mg3 Mg7 3.530309 1_555
Mg3 Mg6 3.530309 1_555
Mg5 Mg8 3.530310 1_555
Mg5 Mg9 3.530310 1_555
Mg10 Mg3 3.012035 1_555
Mg10 Mg5 3.012043 1_545
Mg11 Mg3 3.012035 1_555
Mg11 Mg5 3.012043 1_545
Mg12 Mg5 2.983816 1_555
Mg12 Mg3 2.983823 1_555
Mg13 Mg5 2.983816 1_555
Mg13 Mg3 2.983823 1_555
Cu0 Mg6 2.623639 1_555
Cu0 Mg7 2.623639 1_554
Cu0 Mg9 2.623648 1_554
Cu0 Mg8 2.623648 1_555
Cu0 Mg4 2.649735 1_445
Cu0 Mg2 2.649736 1_455
Cu0 Mg11 2.942107 1_454
Cu0 Mg10 2.942107 1_455
C0 Mg2 2.269069 1_455
C0 Mg4 2.269069 1_455
C0 Mg9 2.525323 1_554
C0 Mg8 2.525323 1_555
C0 Mg7 2.525331 1_564
C0 Mg6 2.525331 1_565
C0 Mg13 2.766345 1_454
C0 Mg12 2.766345 1_455
