# generated using pymatgen
data_ZrCrAgS4
_symmetry_space_group_name_H-M   'P 1'
_cell_length_a   12.07489400
_cell_length_b   3.61364800
_cell_length_c   12.47187800
_cell_angle_alpha   90.00000000
_cell_angle_beta   90.00000000
_cell_angle_gamma   90.00000000
_symmetry_Int_Tables_number   1
_chemical_formula_structural   ZrCrAgS4
_chemical_formula_sum   'Zr4 Cr4 Ag4 S16'
_cell_volume   544.20311985
_cell_formula_units_Z   4
loop_
 _symmetry_equiv_pos_site_id
 _symmetry_equiv_pos_as_xyz
  1  'x, y, z'
loop_
 _atom_site_type_symbol
 _atom_site_label
 _atom_site_symmetry_multiplicity
 _atom_site_fract_x
 _atom_site_fract_y
 _atom_site_fract_z
 _atom_site_occupancy
  Zr  Zr0  1  0.15129100  0.25000000  0.71140700  1
  Zr  Zr1  1  0.84870900  0.75000000  0.28859300  1
  Zr  Zr2  1  0.34870900  0.75000000  0.21140700  1
  Zr  Zr3  1  0.65129100  0.25000000  0.78859300  1
  Cr  Cr0  1  0.10834300  0.25000000  0.07241500  1
  Cr  Cr1  1  0.89165700  0.75000000  0.92758500  1
  Cr  Cr2  1  0.39165700  0.75000000  0.57241500  1
  Cr  Cr3  1  0.60834300  0.25000000  0.42758500  1
  Ag  Ag0  1  0.13805000  0.75000000  0.41271400  1
  Ag  Ag1  1  0.86195000  0.25000000  0.58728600  1
  Ag  Ag2  1  0.36195000  0.25000000  0.91271400  1
  Ag  Ag3  1  0.63805000  0.75000000  0.08728600  1
  S  S0  1  0.04407600  0.75000000  0.61608300  1
  S  S1  1  0.95592400  0.25000000  0.38391700  1
  S  S2  1  0.45592400  0.25000000  0.11608300  1
  S  S3  1  0.54407600  0.75000000  0.88391700  1
  S  S4  1  0.02718400  0.25000000  0.88900300  1
  S  S5  1  0.97281600  0.75000000  0.11099700  1
  S  S6  1  0.47281600  0.75000000  0.38900300  1
  S  S7  1  0.52718400  0.25000000  0.61099700  1
  S  S8  1  0.19871100  0.25000000  0.25002500  1
  S  S9  1  0.80128900  0.75000000  0.74997500  1
  S  S10  1  0.30128900  0.75000000  0.75002500  1
  S  S11  1  0.69871100  0.25000000  0.24997500  1
  S  S12  1  0.23060500  0.75000000  0.03049300  1
  S  S13  1  0.76939500  0.25000000  0.96950700  1
  S  S14  1  0.26939500  0.25000000  0.53049300  1
  S  S15  1  0.73060500  0.75000000  0.46950700  1
loop_
_geom_bond_atom_site_label_1
_geom_bond_atom_site_label_2
_geom_bond_distance
_geom_bond_site_symmetry_2
Cr0 S12 2.391118 1_545
Cr0 S12 2.391118 1_555
Cr0 S8 2.469309 1_555
Cr0 S5 2.484795 1_455
Cr0 S5 2.484795 1_445
Cr0 S4 2.488573 1_554
Cr1 S13 2.391118 1_565
Cr1 S13 2.391118 1_555
Cr1 S9 2.469309 1_555
Cr1 S4 2.484795 1_655
Cr1 S4 2.484795 1_665
Cr1 S5 2.488573 1_556
Cr2 S14 2.391118 1_555
Cr2 S14 2.391118 1_565
Cr2 S10 2.469309 1_555
Cr2 S7 2.484795 1_565
Cr2 S7 2.484795 1_555
Cr2 S6 2.488573 1_555
Cr3 S15 2.391118 1_545
Cr3 S15 2.391118 1_555
Cr3 S11 2.469309 1_555
Cr3 S6 2.484795 1_545
Cr3 S6 2.484795 1_555
Cr3 S7 2.488573 1_555
Ag0 S0 2.778650 1_555
Ag0 S8 2.813916 1_555
Ag0 S8 2.813916 1_565
Ag0 S14 2.817388 1_555
Ag0 S14 2.817388 1_565
Ag0 S1 2.868776 1_465
Ag0 S1 2.868776 1_455
Ag1 S1 2.778650 1_555
Ag1 S9 2.813916 1_555
Ag1 S9 2.813916 1_545
Ag1 S15 2.817388 1_545
Ag1 S15 2.817388 1_555
Ag1 S0 2.868776 1_645
Ag1 S0 2.868776 1_655
Ag2 S2 2.778650 1_556
Ag2 S10 2.813916 1_545
Ag2 S10 2.813916 1_555
Ag2 S12 2.817388 1_546
Ag2 S12 2.817388 1_556
Ag2 S3 2.868776 1_555
Ag2 S3 2.868776 1_545
Ag3 S3 2.778650 1_554
Ag3 S11 2.813916 1_555
Ag3 S11 2.813916 1_565
Ag3 S13 2.817388 1_554
Ag3 S13 2.817388 1_564
Ag3 S2 2.868776 1_555
Ag3 S2 2.868776 1_565
S0 Zr0 2.520722 1_555
S0 Zr0 2.520722 1_565
S1 Zr1 2.520722 1_555
S1 Zr1 2.520722 1_545
S2 Zr2 2.520722 1_555
S2 Zr2 2.520722 1_545
S3 Zr3 2.520722 1_565
S3 Zr3 2.520722 1_555
S4 Zr0 2.674279 1_555
S5 Zr1 2.674279 1_555
S6 Zr2 2.674279 1_555
S7 Zr3 2.674279 1_555
S8 Zr2 2.603281 1_555
S8 Zr2 2.603281 1_545
S9 Zr3 2.603281 1_555
S9 Zr3 2.603281 1_565
S10 Zr0 2.603281 1_555
S10 Zr0 2.603281 1_565
S11 Zr1 2.603281 1_555
S11 Zr1 2.603281 1_545
S12 Zr2 2.669232 1_555
S13 Zr3 2.669232 1_555
S14 Zr0 2.669232 1_555
S15 Zr1 2.669232 1_555
