# generated using pymatgen
data_W(NF2)3
_symmetry_space_group_name_H-M   'P 1'
_cell_length_a   6.91025617
_cell_length_b   6.91025617
_cell_length_c   6.91025617
_cell_angle_alpha   60.00000000
_cell_angle_beta   60.00000000
_cell_angle_gamma   60.00000000
_symmetry_Int_Tables_number   1
_chemical_formula_structural   W(NF2)3
_chemical_formula_sum   'W1 N3 F6'
_cell_volume   233.32831514
_cell_formula_units_Z   1
loop_
 _symmetry_equiv_pos_site_id
 _symmetry_equiv_pos_as_xyz
  1  'x, y, z'
loop_
 _atom_site_type_symbol
 _atom_site_label
 _atom_site_symmetry_multiplicity
 _atom_site_fract_x
 _atom_site_fract_y
 _atom_site_fract_z
 _atom_site_occupancy
  W  W0  1  0.00000000  0.00000000  0.00000000  1
  N  N0  1  0.25000000  0.25000000  0.25000000  1
  N  N1  1  0.75000000  0.75000000  0.75000000  1
  N  N2  1  0.50000000  0.50000000  0.50000000  1
  F  F0  1  0.80761800  0.19238200  0.19238200  1
  F  F1  1  0.19238200  0.80761800  0.80761800  1
  F  F2  1  0.19238200  0.80761800  0.19238200  1
  F  F3  1  0.80761800  0.19238200  0.80761800  1
  F  F4  1  0.19238200  0.19238200  0.80761800  1
  F  F5  1  0.80761800  0.80761800  0.19238200  1
loop_
_geom_bond_atom_site_label_1
_geom_bond_atom_site_label_2
_geom_bond_distance
_geom_bond_site_symmetry_2
F0 W0 1.880068 1_655
F1 W0 1.880068 1_566
F2 W0 1.880068 1_565
F3 W0 1.880068 1_656
F4 W0 1.880068 1_556
F5 W0 1.880068 1_665
