# generated using pymatgen
data_LaPrAl6
_symmetry_space_group_name_H-M   'P 1'
_cell_length_a   6.63204507
_cell_length_b   6.63204507
_cell_length_c   4.61589752
_cell_angle_alpha   90.00000000
_cell_angle_beta   90.00000000
_cell_angle_gamma   120.00000310
_symmetry_Int_Tables_number   1
_chemical_formula_structural   LaPrAl6
_chemical_formula_sum   'La1 Pr1 Al6'
_cell_volume   175.82544058
_cell_formula_units_Z   1
loop_
 _symmetry_equiv_pos_site_id
 _symmetry_equiv_pos_as_xyz
  1  'x, y, z'
loop_
 _atom_site_type_symbol
 _atom_site_label
 _atom_site_symmetry_multiplicity
 _atom_site_fract_x
 _atom_site_fract_y
 _atom_site_fract_z
 _atom_site_occupancy
  La  La0  1  0.66666700  0.33333300  0.50000000  1
  Pr  Pr0  1  0.33333300  0.66666700  -0.00000000  1
  Al  Al0  1  0.13717519  0.27435138  0.50000000  1
  Al  Al1  1  0.72564862  0.86282481  0.50000000  1
  Al  Al2  1  0.13717519  0.86282481  0.50000000  1
  Al  Al3  1  0.86359780  0.72719560  -0.00000000  1
  Al  Al4  1  0.27280440  0.13640220  0.00000000  1
  Al  Al5  1  0.86359780  0.13640220  -0.00000000  1
loop_
_geom_bond_atom_site_label_1
_geom_bond_atom_site_label_2
_geom_bond_distance
_geom_bond_site_symmetry_2
Al0 Al1 2.729263 1_445
Al0 Al2 2.729263 1_545
Al0 Al5 2.792071 1_455
Al0 Al5 2.792071 1_456
Al0 Al4 2.792074 1_555
Al0 Al4 2.792074 1_556
Al0 Pr0 3.225502 1_555
Al0 Pr0 3.225502 1_556
Al0 La0 3.333275 1_455
Al0 La0 3.333288 1_555
Al1 Al2 2.729263 1_655
Al1 Al5 2.792071 1_566
Al1 Al5 2.792071 1_565
Al1 Al3 2.792074 1_556
Al1 Al3 2.792074 1_555
Al1 Pr0 3.225502 1_555
Al1 Pr0 3.225502 1_556
Al1 La0 3.333275 1_565
Al1 La0 3.333288 1_555
Al2 Al3 2.792071 1_456
Al2 Al4 2.792071 1_566
Al2 Al3 2.792071 1_455
Al2 Al4 2.792071 1_565
Al2 Pr0 3.225502 1_556
Al2 Pr0 3.225502 1_555
Al2 La0 3.333282 1_455
Al2 La0 3.333282 1_565
Al3 Al4 2.713876 1_665
Al3 Al5 2.713877 1_565
Al3 La0 3.231715 1_554
Al3 La0 3.231715 1_555
Al3 Pr0 3.334193 1_655
Al3 Pr0 3.334199 1_555
Al4 Al5 2.713877 1_455
Al4 La0 3.231715 1_554
Al4 La0 3.231715 1_555
Al4 Pr0 3.334193 1_545
Al4 Pr0 3.334199 1_555
Al5 La0 3.231711 1_554
Al5 La0 3.231711 1_555
Al5 Pr0 3.334197 1_655
Al5 Pr0 3.334197 1_545
