# generated using pymatgen
data_K2TcCl5O
_symmetry_space_group_name_H-M   'P 1'
_cell_length_a   7.00519800
_cell_length_b   10.19516800
_cell_length_c   13.57051800
_cell_angle_alpha   90.00000000
_cell_angle_beta   90.00000000
_cell_angle_gamma   90.00000000
_symmetry_Int_Tables_number   1
_chemical_formula_structural   K2TcCl5O
_chemical_formula_sum   'K8 Tc4 Cl20 O4'
_cell_volume   969.19513859
_cell_formula_units_Z   4
loop_
 _symmetry_equiv_pos_site_id
 _symmetry_equiv_pos_as_xyz
  1  'x, y, z'
loop_
 _atom_site_type_symbol
 _atom_site_label
 _atom_site_symmetry_multiplicity
 _atom_site_fract_x
 _atom_site_fract_y
 _atom_site_fract_z
 _atom_site_occupancy
  K  K0  1  0.16467500  0.00060200  0.14390000  1
  K  K1  1  0.33532500  0.49939800  0.64390000  1
  K  K2  1  0.83532500  0.50060200  0.85610000  1
  K  K3  1  0.66467500  0.99939800  0.35610000  1
  K  K4  1  0.83532500  0.99939800  0.85610000  1
  K  K5  1  0.66467500  0.50060200  0.35610000  1
  K  K6  1  0.16467500  0.49939800  0.14390000  1
  K  K7  1  0.33532500  0.00060200  0.64390000  1
  Tc  Tc0  1  0.66873900  0.75000000  0.09525100  1
  Tc  Tc1  1  0.83126100  0.75000000  0.59525100  1
  Tc  Tc2  1  0.33126100  0.25000000  0.90474900  1
  Tc  Tc3  1  0.16873900  0.25000000  0.40474900  1
  Cl  Cl0  1  0.89104900  0.75000000  0.24563200  1
  Cl  Cl1  1  0.60895100  0.75000000  0.74563200  1
  Cl  Cl2  1  0.10895100  0.25000000  0.75436800  1
  Cl  Cl3  1  0.39104900  0.25000000  0.25436800  1
  Cl  Cl4  1  0.68692500  0.51590100  0.10680300  1
  Cl  Cl5  1  0.81307500  0.98409900  0.60680300  1
  Cl  Cl6  1  0.31307500  0.01590100  0.89319700  1
  Cl  Cl7  1  0.18692500  0.48409900  0.39319700  1
  Cl  Cl8  1  0.31307500  0.48409900  0.89319700  1
  Cl  Cl9  1  0.18692500  0.01590100  0.39319700  1
  Cl  Cl10  1  0.68692500  0.98409900  0.10680300  1
  Cl  Cl11  1  0.81307500  0.51590100  0.60680300  1
  Cl  Cl12  1  0.42486700  0.75000000  0.21929400  1
  Cl  Cl13  1  0.07513300  0.75000000  0.71929400  1
  Cl  Cl14  1  0.57513300  0.25000000  0.78070600  1
  Cl  Cl15  1  0.92486700  0.25000000  0.28070600  1
  Cl  Cl16  1  0.96163400  0.75000000  0.00344700  1
  Cl  Cl17  1  0.53836600  0.75000000  0.50344800  1
  Cl  Cl18  1  0.03836600  0.25000000  0.99655200  1
  Cl  Cl19  1  0.46163400  0.25000000  0.49655300  1
  O  O0  1  0.52035900  0.75000000  0.99934500  1
  O  O1  1  0.97964100  0.75000000  0.49934500  1
  O  O2  1  0.47964100  0.25000000  0.00065500  1
  O  O3  1  0.02035900  0.25000000  0.50065500  1
loop_
_geom_bond_atom_site_label_1
_geom_bond_atom_site_label_2
_geom_bond_distance
_geom_bond_site_symmetry_2
Cl0 Tc0 2.567083 1_555
Cl0 K3 3.350696 1_555
Cl0 K5 3.350696 1_555
Cl0 K6 3.479618 1_655
Cl0 K0 3.479618 1_665
Cl1 Tc1 2.567083 1_555
Cl1 K2 3.350696 1_555
Cl1 K4 3.350696 1_555
Cl1 K7 3.479618 1_565
Cl1 K1 3.479618 1_555
Cl2 Tc2 2.567083 1_555
Cl2 K7 3.350696 1_555
Cl2 K1 3.350696 1_555
Cl2 K4 3.479618 1_445
Cl2 K2 3.479618 1_455
Cl3 Tc3 2.567083 1_555
Cl3 K0 3.350696 1_555
Cl3 K6 3.350696 1_555
Cl3 K3 3.479618 1_545
Cl3 K5 3.479618 1_555
Cl4 Tc0 2.395212 1_555
Cl4 K6 3.388565 1_655
Cl4 K5 3.390268 1_555
Cl4 K2 3.560870 1_554
Cl4 K6 3.696770 1_555
Cl5 Tc1 2.395212 1_555
Cl5 K7 3.388565 1_565
Cl5 K4 3.390268 1_555
Cl5 K3 3.560870 1_555
Cl5 K7 3.696770 1_665
Cl6 Tc2 2.395212 1_555
Cl6 K4 3.388565 1_445
Cl6 K7 3.390268 1_555
Cl6 K0 3.560870 1_556
Cl6 K4 3.696770 1_545
Cl7 Tc3 2.395212 1_555
Cl7 K5 3.388565 1_555
Cl7 K6 3.390268 1_555
Cl7 K1 3.560870 1_555
Cl7 K5 3.696770 1_455
Cl8 Tc2 2.395212 1_555
Cl8 K2 3.388565 1_455
Cl8 K1 3.390268 1_555
Cl8 K6 3.560870 1_556
Cl8 K2 3.696770 1_555
Cl9 Tc3 2.395212 1_555
Cl9 K3 3.388565 1_545
Cl9 K0 3.390268 1_555
Cl9 K7 3.560870 1_555
Cl9 K3 3.696770 1_445
Cl10 Tc0 2.395212 1_555
Cl10 K0 3.388565 1_665
Cl10 K3 3.390268 1_555
Cl10 K4 3.560870 1_554
Cl10 K0 3.696770 1_565
Cl11 Tc1 2.395212 1_555
Cl11 K1 3.388565 1_555
Cl11 K2 3.390268 1_555
Cl11 K5 3.560870 1_555
Cl11 K1 3.696770 1_655
Cl12 Tc0 2.398359 1_555
Cl12 K0 3.301014 1_565
Cl12 K6 3.301014 1_555
Cl12 K5 3.568454 1_555
Cl12 K3 3.568454 1_555
Cl13 Tc1 2.398359 1_455
Cl13 K1 3.301014 1_555
Cl13 K7 3.301014 1_565
Cl13 K4 3.568454 1_455
Cl13 K2 3.568454 1_455
Cl14 Tc2 2.398359 1_555
Cl14 K4 3.301014 1_545
Cl14 K2 3.301014 1_555
Cl14 K1 3.568454 1_555
Cl14 K7 3.568454 1_555
Cl15 Tc3 2.398359 1_655
Cl15 K3 3.301014 1_545
Cl15 K5 3.301014 1_555
Cl15 K0 3.568454 1_655
Cl15 K6 3.568454 1_655
Cl16 Tc0 2.400400 1_555
Cl16 K4 3.353550 1_554
Cl16 K2 3.353550 1_554
Cl16 K0 3.490506 1_665
Cl16 K6 3.490506 1_655
Cl17 Tc1 2.400393 1_555
Cl17 K5 3.353558 1_555
Cl17 K3 3.353558 1_555
Cl17 K1 3.490499 1_555
Cl17 K7 3.490499 1_565
Cl18 Tc2 2.400393 1_555
Cl18 K0 3.353558 1_556
Cl18 K6 3.353558 1_556
Cl18 K2 3.490499 1_455
Cl18 K4 3.490499 1_445
Cl19 Tc3 2.400400 1_555
Cl19 K1 3.353550 1_555
Cl19 K7 3.353550 1_555
Cl19 K3 3.490506 1_545
Cl19 K5 3.490506 1_555
O0 Tc0 1.665624 1_556
O1 Tc1 1.665624 1_555
O2 Tc2 1.665624 1_554
O3 Tc3 1.665624 1_555
