# generated using pymatgen
data_Sc2SnAu2
_symmetry_space_group_name_H-M   'P 1'
_cell_length_a   7.68438200
_cell_length_b   7.68438200
_cell_length_c   7.06654800
_cell_angle_alpha   90.00000000
_cell_angle_beta   90.00000000
_cell_angle_gamma   90.00000000
_symmetry_Int_Tables_number   1
_chemical_formula_structural   Sc2SnAu2
_chemical_formula_sum   'Sc8 Sn4 Au8'
_cell_volume   417.27772827
_cell_formula_units_Z   4
loop_
 _symmetry_equiv_pos_site_id
 _symmetry_equiv_pos_as_xyz
  1  'x, y, z'
loop_
 _atom_site_type_symbol
 _atom_site_label
 _atom_site_symmetry_multiplicity
 _atom_site_fract_x
 _atom_site_fract_y
 _atom_site_fract_z
 _atom_site_occupancy
  Sc  Sc0  1  0.15096100  0.15096100  0.00000000  1
  Sc  Sc1  1  0.84903900  0.84903900  0.00000000  1
  Sc  Sc2  1  0.65096100  0.34903900  0.50000000  1
  Sc  Sc3  1  0.34903900  0.65096100  0.50000000  1
  Sc  Sc4  1  0.68387500  0.31612500  0.00000000  1
  Sc  Sc5  1  0.31612500  0.68387500  0.00000000  1
  Sc  Sc6  1  0.81612500  0.81612500  0.50000000  1
  Sc  Sc7  1  0.18387500  0.18387500  0.50000000  1
  Sn  Sn0  1  0.50000000  0.00000000  0.25000000  1
  Sn  Sn1  1  0.50000000  0.00000000  0.75000000  1
  Sn  Sn2  1  0.00000000  0.50000000  0.25000000  1
  Sn  Sn3  1  0.00000000  0.50000000  0.75000000  1
  Au  Au0  1  0.37021700  0.37021700  0.21592800  1
  Au  Au1  1  0.62978300  0.62978300  0.78407200  1
  Au  Au2  1  0.62978300  0.62978300  0.21592800  1
  Au  Au3  1  0.87021700  0.12978300  0.71592800  1
  Au  Au4  1  0.87021700  0.12978300  0.28407200  1
  Au  Au5  1  0.37021700  0.37021700  0.78407200  1
  Au  Au6  1  0.12978300  0.87021700  0.28407200  1
  Au  Au7  1  0.12978300  0.87021700  0.71592800  1
loop_
_geom_bond_atom_site_label_1
_geom_bond_atom_site_label_2
_geom_bond_distance
_geom_bond_site_symmetry_2
Sc0 Sn0 3.414766 1_555
Sc0 Sn1 3.414766 1_554
Sc0 Sn2 3.414766 1_555
Sc0 Sn3 3.414766 1_554
Sc1 Sn1 3.414766 1_564
Sc1 Sn0 3.414766 1_565
Sc1 Sn2 3.414766 1_655
Sc1 Sn3 3.414766 1_654
Sc2 Sn1 3.414766 1_555
Sc2 Sn0 3.414766 1_555
Sc2 Sn2 3.414766 1_655
Sc2 Sn3 3.414766 1_655
Sc3 Sn0 3.414766 1_565
Sc3 Sn2 3.414766 1_555
Sc3 Sn3 3.414766 1_555
Sc3 Sn1 3.414766 1_565
Sc4 Sn0 3.319430 1_555
Sc4 Sn2 3.319430 1_655
Sc4 Sn3 3.319430 1_654
Sc4 Sn1 3.319430 1_554
Sc5 Sn0 3.319430 1_565
Sc5 Sn3 3.319430 1_554
Sc5 Sn1 3.319430 1_564
Sc5 Sn2 3.319430 1_555
Sc6 Sn2 3.319430 1_655
Sc6 Sn0 3.319430 1_565
Sc6 Sn1 3.319430 1_565
Sc6 Sn3 3.319430 1_655
Sc7 Sn0 3.319430 1_555
Sc7 Sn3 3.319430 1_555
Sc7 Sn1 3.319430 1_555
Sc7 Sn2 3.319430 1_555
Au0 Sc0 2.829432 1_555
Au0 Sc7 2.851402 1_555
Au0 Sc5 2.882782 1_555
Au0 Sc4 2.882782 1_555
Au0 Sc3 2.951323 1_555
Au0 Sc2 2.951323 1_555
Au0 Sn0 3.024231 1_555
Au0 Sn2 3.024231 1_555
Au1 Sc1 2.829432 1_556
Au1 Sc6 2.851402 1_555
Au1 Sc5 2.882782 1_556
Au1 Sc4 2.882782 1_556
Au1 Sc3 2.951323 1_555
Au1 Sc2 2.951323 1_555
Au1 Sn1 3.024231 1_565
Au1 Sn3 3.024231 1_655
Au2 Sc1 2.829432 1_555
Au2 Sc6 2.851402 1_555
Au2 Sc5 2.882782 1_555
Au2 Sc4 2.882782 1_555
Au2 Sc3 2.951323 1_555
Au2 Sc2 2.951323 1_555
Au2 Sn0 3.024231 1_565
Au2 Sn2 3.024231 1_655
Au3 Sc2 2.829432 1_555
Au3 Sc4 2.851402 1_556
Au3 Sc7 2.882782 1_655
Au3 Sc6 2.882782 1_545
Au3 Sc1 2.951323 1_546
Au3 Sc0 2.951323 1_656
Au3 Sn3 3.024231 1_655
Au3 Sn1 3.024231 1_555
Au4 Sc2 2.829432 1_555
Au4 Sc4 2.851402 1_555
Au4 Sc7 2.882782 1_655
Au4 Sc6 2.882782 1_545
Au4 Sc1 2.951323 1_545
Au4 Sc0 2.951323 1_655
Au4 Sn2 3.024231 1_655
Au4 Sn0 3.024231 1_555
Au5 Sc0 2.829432 1_556
Au5 Sc7 2.851402 1_555
Au5 Sc5 2.882782 1_556
Au5 Sc4 2.882782 1_556
Au5 Sc3 2.951323 1_555
Au5 Sc2 2.951323 1_555
Au5 Sn3 3.024231 1_555
Au5 Sn1 3.024231 1_555
Au6 Sc3 2.829432 1_555
Au6 Sc5 2.851402 1_555
Au6 Sc7 2.882782 1_565
Au6 Sc6 2.882782 1_455
Au6 Sc1 2.951323 1_455
Au6 Sc0 2.951323 1_565
Au6 Sn0 3.024231 1_565
Au6 Sn2 3.024231 1_555
Au7 Sc3 2.829432 1_555
Au7 Sc5 2.851402 1_556
Au7 Sc7 2.882782 1_565
Au7 Sc6 2.882782 1_455
Au7 Sc1 2.951323 1_456
Au7 Sc0 2.951323 1_566
Au7 Sn3 3.024231 1_555
Au7 Sn1 3.024231 1_565
