# generated using pymatgen
data_Ca3(TiS2)4
_symmetry_space_group_name_H-M   'P 1'
_cell_length_a   7.12026435
_cell_length_b   7.12026435
_cell_length_c   9.01968956
_cell_angle_alpha   54.28321450
_cell_angle_beta   54.28321450
_cell_angle_gamma   60.32951339
_symmetry_Int_Tables_number   1
_chemical_formula_structural   Ca3(TiS2)4
_chemical_formula_sum   'Ca3 Ti4 S8'
_cell_volume   293.07638661
_cell_formula_units_Z   1
loop_
 _symmetry_equiv_pos_site_id
 _symmetry_equiv_pos_as_xyz
  1  'x, y, z'
loop_
 _atom_site_type_symbol
 _atom_site_label
 _atom_site_symmetry_multiplicity
 _atom_site_fract_x
 _atom_site_fract_y
 _atom_site_fract_z
 _atom_site_occupancy
  Ca  Ca0  1  0.00000000  0.50000000  0.50000000  1
  Ca  Ca1  1  0.50000000  0.00000000  0.50000000  1
  Ca  Ca2  1  0.50000000  0.50000000  0.50000000  1
  Ti  Ti0  1  0.77871200  0.22128800  0.00000000  1
  Ti  Ti1  1  0.22128800  0.77871200  0.00000000  1
  Ti  Ti2  1  0.23930400  0.23930400  0.00565000  1
  Ti  Ti3  1  0.76069600  0.76069600  0.99435000  1
  S  S0  1  0.97397200  0.47922000  0.21468800  1
  S  S1  1  0.47922000  0.97397200  0.21468800  1
  S  S2  1  0.47831400  0.47831400  0.20909900  1
  S  S3  1  0.97002800  0.97002800  0.23311100  1
  S  S4  1  0.02997200  0.02997200  0.76688900  1
  S  S5  1  0.52168600  0.52168600  0.79090100  1
  S  S6  1  0.52078000  0.02602800  0.78531200  1
  S  S7  1  0.02602800  0.52078000  0.78531200  1
loop_
_geom_bond_atom_site_label_1
_geom_bond_atom_site_label_2
_geom_bond_distance
_geom_bond_site_symmetry_2
Ca0 S4 2.743603 1_555
Ca0 S3 2.743603 1_455
Ca0 S7 2.776203 1_555
Ca0 S0 2.776203 1_455
Ca0 S2 2.833079 1_555
Ca0 S5 2.833079 1_455
Ca1 S3 2.743603 1_545
Ca1 S4 2.743603 1_555
Ca1 S6 2.776203 1_555
Ca1 S1 2.776203 1_545
Ca1 S2 2.833079 1_555
Ca1 S5 2.833079 1_545
Ca2 S0 2.800699 1_555
Ca2 S1 2.800699 1_555
Ca2 S6 2.800699 1_555
Ca2 S7 2.800699 1_555
Ca2 S5 2.811027 1_555
Ca2 S2 2.811027 1_555
S0 Ti3 2.476407 1_554
S0 Ti1 2.512613 1_655
S0 Ti2 2.539455 1_655
S1 Ti3 2.476407 1_554
S1 Ti0 2.512613 1_565
S1 Ti2 2.539455 1_565
S2 Ti3 2.597166 1_554
S2 Ti0 2.631698 1_555
S2 Ti1 2.631698 1_555
S3 Ti2 2.452620 1_665
S3 Ti0 2.452884 1_565
S3 Ti1 2.452884 1_655
S4 Ti3 2.452620 1_445
S4 Ti0 2.452884 1_456
S4 Ti1 2.452884 1_546
S5 Ti2 2.597166 1_556
S5 Ti0 2.631698 1_556
S5 Ti1 2.631698 1_556
S6 Ti2 2.476407 1_556
S6 Ti1 2.512613 1_546
S6 Ti3 2.539455 1_545
S7 Ti2 2.476407 1_556
S7 Ti0 2.512613 1_456
S7 Ti3 2.539455 1_455
