# generated using pymatgen
data_Ca2(BeGe)3
_symmetry_space_group_name_H-M   'P 1'
_cell_length_a   2.95142800
_cell_length_b   2.95142800
_cell_length_c   20.23697200
_cell_angle_alpha   90.00000000
_cell_angle_beta   90.00000000
_cell_angle_gamma   90.00000000
_symmetry_Int_Tables_number   1
_chemical_formula_structural   Ca2(BeGe)3
_chemical_formula_sum   'Ca2 Be3 Ge3'
_cell_volume   176.28279063
_cell_formula_units_Z   1
loop_
 _symmetry_equiv_pos_site_id
 _symmetry_equiv_pos_as_xyz
  1  'x, y, z'
loop_
 _atom_site_type_symbol
 _atom_site_label
 _atom_site_symmetry_multiplicity
 _atom_site_fract_x
 _atom_site_fract_y
 _atom_site_fract_z
 _atom_site_occupancy
  Ca  Ca0  1  0.50000000  0.50000000  0.75285300  1
  Ca  Ca1  1  0.50000000  0.50000000  0.24714700  1
  Be  Be0  1  0.50000000  0.50000000  0.11023300  1
  Be  Be1  1  0.50000000  0.50000000  0.88976700  1
  Be  Be2  1  0.50000000  0.50000000  0.50000000  1
  Ge  Ge0  1  0.50000000  0.50000000  0.00000000  1
  Ge  Ge1  1  0.50000000  0.50000000  0.39071700  1
  Ge  Ge2  1  0.50000000  0.50000000  0.60928300  1
loop_
_geom_bond_atom_site_label_1
_geom_bond_atom_site_label_2
_geom_bond_distance
_geom_bond_site_symmetry_2
Ca0 Ge2 2.905422 1_555
Ca1 Ge1 2.905422 1_555
Be0 Ge0 2.230782 1_555
Be0 Ca1 2.770725 1_555
Be1 Ge0 2.230782 1_556
Be1 Ca0 2.770725 1_555
Be2 Ge1 2.211557 1_555
Be2 Ge2 2.211557 1_555
