# generated using pymatgen
data_KH3CN2O
_symmetry_space_group_name_H-M   'P 1'
_cell_length_a   7.27323400
_cell_length_b   7.58495900
_cell_length_c   13.71678100
_cell_angle_alpha   90.00000000
_cell_angle_beta   90.00000000
_cell_angle_gamma   90.00000000
_symmetry_Int_Tables_number   1
_chemical_formula_structural   KH3CN2O
_chemical_formula_sum   'K8 H24 C8 N16 O8'
_cell_volume   756.71614959
_cell_formula_units_Z   8
loop_
 _symmetry_equiv_pos_site_id
 _symmetry_equiv_pos_as_xyz
  1  'x, y, z'
loop_
 _atom_site_type_symbol
 _atom_site_label
 _atom_site_symmetry_multiplicity
 _atom_site_fract_x
 _atom_site_fract_y
 _atom_site_fract_z
 _atom_site_occupancy
  K  K0  1  0.38875500  0.95085400  0.19686000  1
  K  K1  1  0.88875500  0.54914600  0.80314000  1
  K  K2  1  0.61124500  0.45085400  0.30314000  1
  K  K3  1  0.11124500  0.04914600  0.69686000  1
  K  K4  1  0.61124500  0.04914600  0.80314000  1
  K  K5  1  0.11124500  0.45085400  0.19686000  1
  K  K6  1  0.38875500  0.54914600  0.69686000  1
  K  K7  1  0.88875500  0.95085400  0.30314000  1
  H  H0  1  0.89697300  0.89992500  0.96167000  1
  H  H1  1  0.39697300  0.60007500  0.03833000  1
  H  H2  1  0.10302700  0.39992500  0.53833000  1
  H  H3  1  0.60302700  0.10007500  0.46167000  1
  H  H4  1  0.10302700  0.10007500  0.03833000  1
  H  H5  1  0.60302700  0.39992500  0.96167000  1
  H  H6  1  0.89697300  0.60007500  0.46167000  1
  H  H7  1  0.39697300  0.89992500  0.53833000  1
  H  H8  1  0.72800400  0.74543800  0.97841300  1
  H  H9  1  0.22800400  0.75456200  0.02158700  1
  H  H10  1  0.27199600  0.24543800  0.52158700  1
  H  H11  1  0.77199600  0.25456200  0.47841300  1
  H  H12  1  0.27199600  0.25456200  0.02158700  1
  H  H13  1  0.77199600  0.24543800  0.97841300  1
  H  H14  1  0.72800400  0.75456200  0.47841300  1
  H  H15  1  0.22800400  0.74543800  0.52158700  1
  H  H16  1  0.69296300  0.63372200  0.12470900  1
  H  H17  1  0.19296300  0.86627800  0.87529100  1
  H  H18  1  0.30703700  0.13372200  0.37529100  1
  H  H19  1  0.80703700  0.36627800  0.62470900  1
  H  H20  1  0.30703700  0.36627800  0.87529100  1
  H  H21  1  0.80703700  0.13372200  0.12470900  1
  H  H22  1  0.69296300  0.86627800  0.62470900  1
  H  H23  1  0.19296300  0.63372200  0.37529100  1
  C  C0  1  0.89924300  0.78415900  0.09714000  1
  C  C1  1  0.39924300  0.71584100  0.90286000  1
  C  C2  1  0.10075700  0.28415900  0.40286000  1
  C  C3  1  0.60075700  0.21584100  0.59714000  1
  C  C4  1  0.10075700  0.21584100  0.90286000  1
  C  C5  1  0.60075700  0.28415900  0.09714000  1
  C  C6  1  0.89924300  0.71584100  0.59714000  1
  C  C7  1  0.39924300  0.78415900  0.40286000  1
  N  N0  1  0.85634300  0.78806500  0.99769000  1
  N  N1  1  0.35634300  0.71193500  0.00231000  1
  N  N2  1  0.14365700  0.28806500  0.50231000  1
  N  N3  1  0.64365700  0.21193500  0.49769000  1
  N  N4  1  0.14365700  0.21193500  0.00231000  1
  N  N5  1  0.64365700  0.28806500  0.99769000  1
  N  N6  1  0.85634300  0.71193500  0.49769000  1
  N  N7  1  0.35634300  0.78806500  0.50231000  1
  N  N8  1  0.80224000  0.68934000  0.16034300  1
  N  N9  1  0.30224000  0.81066000  0.83965700  1
  N  N10  1  0.19776000  0.18934000  0.33965700  1
  N  N11  1  0.69776000  0.31066000  0.66034300  1
  N  N12  1  0.19776000  0.31066000  0.83965700  1
  N  N13  1  0.69776000  0.18934000  0.16034300  1
  N  N14  1  0.80224000  0.81066000  0.66034300  1
  N  N15  1  0.30224000  0.68934000  0.33965700  1
  O  O0  1  0.04400500  0.87373900  0.12276500  1
  O  O1  1  0.54400500  0.62626100  0.87723500  1
  O  O2  1  0.95599500  0.37373900  0.37723500  1
  O  O3  1  0.45599500  0.12626100  0.62276500  1
  O  O4  1  0.95599500  0.12626100  0.87723500  1
  O  O5  1  0.45599500  0.37373900  0.12276500  1
  O  O6  1  0.04400500  0.62626100  0.62276500  1
  O  O7  1  0.54400500  0.87373900  0.37723500  1
loop_
_geom_bond_atom_site_label_1
_geom_bond_atom_site_label_2
_geom_bond_distance
_geom_bond_site_symmetry_2
K0 O0 2.768099 1_555
K0 O7 2.781841 1_555
K0 N15 2.857809 1_555
K0 N13 2.928163 1_565
K0 N10 3.006401 1_565
K1 O1 2.768099 1_555
K1 O6 2.781841 1_655
K1 N14 2.857809 1_555
K1 N12 2.928163 1_655
K1 N11 3.006401 1_555
K2 O2 2.768099 1_555
K2 O5 2.781841 1_555
K2 N13 2.857809 1_555
K2 N15 2.928163 1_555
K2 N8 3.006401 1_555
K3 O3 2.768099 1_555
K3 O4 2.781841 1_455
K3 N12 2.857809 1_555
K3 N14 2.928163 1_445
K3 N9 3.006401 1_545
K4 O4 2.768099 1_555
K4 O3 2.781841 1_555
K4 N11 2.857809 1_555
K4 N9 2.928163 1_545
K4 N14 3.006401 1_545
K5 O5 2.768099 1_555
K5 O2 2.781841 1_455
K5 N10 2.857809 1_555
K5 N8 2.928163 1_455
K5 N15 3.006401 1_555
K6 O6 2.768099 1_555
K6 O1 2.781841 1_555
K6 N9 2.857809 1_555
K6 N11 2.928163 1_555
K6 N12 3.006401 1_555
K7 O7 2.768099 1_555
K7 O0 2.781841 1_655
K7 N8 2.857809 1_555
K7 N10 2.928163 1_665
K7 N13 3.006401 1_565
H0 N0 1.025336 1_555
H1 N1 1.025336 1_555
H2 N2 1.025336 1_555
H3 N3 1.025336 1_555
H4 N4 1.025336 1_555
H5 N5 1.025336 1_555
H6 N6 1.025336 1_555
H7 N7 1.025336 1_555
H8 N0 1.022627 1_555
H9 N1 1.022627 1_555
H10 N2 1.022627 1_555
H11 N3 1.022627 1_555
H12 N4 1.022627 1_555
H13 N5 1.022627 1_555
H14 N6 1.022627 1_555
H15 N7 1.022627 1_555
H16 N8 1.024001 1_555
H16 K2 2.875310 1_555
H17 N9 1.024001 1_555
H17 K3 2.875310 1_565
H18 N10 1.024001 1_555
H18 K0 2.875310 1_545
H19 N11 1.024001 1_555
H19 K1 2.875310 1_555
H20 N12 1.024001 1_555
H20 K6 2.875310 1_555
H21 N13 1.024001 1_555
H21 K7 2.875310 1_545
H22 N14 1.024001 1_555
H22 K4 2.875310 1_565
H23 N15 1.024001 1_555
H23 K5 2.875310 1_555
C0 O0 1.301456 1_655
C0 N8 1.329135 1_555
C0 N0 1.399677 1_554
C1 O1 1.301456 1_555
C1 N9 1.329135 1_555
C1 N1 1.399677 1_556
C2 O2 1.301456 1_455
C2 N10 1.329135 1_555
C2 N2 1.399677 1_555
C3 O3 1.301456 1_555
C3 N11 1.329135 1_555
C3 N3 1.399677 1_555
C4 O4 1.301456 1_455
C4 N12 1.329135 1_555
C4 N4 1.399677 1_556
C5 O5 1.301456 1_555
C5 N13 1.329135 1_555
C5 N5 1.399677 1_554
C6 O6 1.301456 1_655
C6 N14 1.329135 1_555
C6 N6 1.399677 1_555
C7 O7 1.301456 1_555
C7 N15 1.329135 1_555
C7 N7 1.399677 1_555
