# generated using pymatgen
data_VB2Ru
_symmetry_space_group_name_H-M   'P 1'
_cell_length_a   2.93185000
_cell_length_b   4.33828100
_cell_length_c   5.97233100
_cell_angle_alpha   90.00000000
_cell_angle_beta   90.00000000
_cell_angle_gamma   90.00000000
_symmetry_Int_Tables_number   1
_chemical_formula_structural   VB2Ru
_chemical_formula_sum   'V2 B4 Ru2'
_cell_volume   75.96320765
_cell_formula_units_Z   2
loop_
 _symmetry_equiv_pos_site_id
 _symmetry_equiv_pos_as_xyz
  1  'x, y, z'
loop_
 _atom_site_type_symbol
 _atom_site_label
 _atom_site_symmetry_multiplicity
 _atom_site_fract_x
 _atom_site_fract_y
 _atom_site_fract_z
 _atom_site_occupancy
  V  V0  1  0.50000000  0.36849200  0.31755800  1
  V  V1  1  0.50000000  0.63150800  0.81755800  1
  B  B0  1  0.00000000  0.64324100  0.53249200  1
  B  B1  1  0.00000000  0.35675900  0.03249200  1
  B  B2  1  0.50000000  0.85321200  0.47112100  1
  B  B3  1  0.50000000  0.14678800  0.97112100  1
  Ru  Ru0  1  0.00000000  0.14244700  0.67883000  1
  Ru  Ru1  1  0.00000000  0.85755300  0.17883000  1
loop_
_geom_bond_atom_site_label_1
_geom_bond_atom_site_label_2
_geom_bond_distance
_geom_bond_site_symmetry_2
B0 B2 1.764381 1_455
B0 B2 1.764381 1_555
B0 V1 2.247234 1_455
B0 V1 2.247234 1_555
B0 V0 2.284169 1_555
B0 V0 2.284169 1_455
B0 Ru1 2.307761 1_555
B0 Ru0 2.335397 1_565
B0 Ru0 2.341787 1_555
B1 B3 1.764381 1_454
B1 B3 1.764381 1_554
B1 V0 2.247234 1_555
B1 V0 2.247234 1_455
B1 V1 2.284169 1_454
B1 V1 2.284169 1_554
B1 Ru0 2.307761 1_554
B1 Ru1 2.335397 1_545
B1 Ru1 2.341787 1_555
B2 Ru1 2.279608 1_555
B2 Ru1 2.279608 1_655
B2 V1 2.281666 1_555
B2 Ru0 2.293964 1_565
B2 Ru0 2.293964 1_665
B2 V0 2.294147 1_555
B2 V0 2.416251 1_565
B3 Ru0 2.279608 1_655
B3 Ru0 2.279608 1_555
B3 V0 2.281666 1_556
B3 Ru1 2.293964 1_546
B3 Ru1 2.293964 1_646
B3 V1 2.294147 1_555
B3 V1 2.416251 1_545
Ru0 V1 2.708679 1_555
Ru0 V1 2.708679 1_455
Ru0 V1 2.783649 1_445
Ru0 V1 2.783649 1_545
Ru0 V0 2.786754 1_555
Ru0 V0 2.786754 1_455
Ru1 V0 2.708679 1_555
Ru1 V0 2.708679 1_455
Ru1 V0 2.783649 1_465
Ru1 V0 2.783649 1_565
Ru1 V1 2.786754 1_554
Ru1 V1 2.786754 1_454
