# generated using pymatgen
data_Ba2LiHoRuO6
_symmetry_space_group_name_H-M   'P 1'
_cell_length_a   6.32438786
_cell_length_b   6.32438735
_cell_length_c   6.32195464
_cell_angle_alpha   55.46492206
_cell_angle_beta   55.46492690
_cell_angle_gamma   55.48888720
_symmetry_Int_Tables_number   1
_chemical_formula_structural   Ba2LiHoRuO6
_chemical_formula_sum   'Ba2 Li1 Ho1 Ru1 O6'
_cell_volume   160.00611513
_cell_formula_units_Z   1
loop_
 _symmetry_equiv_pos_site_id
 _symmetry_equiv_pos_as_xyz
  1  'x, y, z'
loop_
 _atom_site_type_symbol
 _atom_site_label
 _atom_site_symmetry_multiplicity
 _atom_site_fract_x
 _atom_site_fract_y
 _atom_site_fract_z
 _atom_site_occupancy
  Ba  Ba0  1  0.74695200  0.74695200  0.74795800  1
  Ba  Ba1  1  0.28774100  0.28774100  0.28735400  1
  Li  Li0  1  0.12595200  0.12595200  0.13072000  1
  Ho  Ho0  1  0.50301200  0.50301200  0.50408300  1
  Ru  Ru0  1  0.98731200  0.98731200  0.98777500  1
  O  O0  1  0.23574700  0.75857800  0.75740600  1
  O  O1  1  0.23431700  0.75316000  0.23584000  1
  O  O2  1  0.75857800  0.23574700  0.75740600  1
  O  O3  1  0.23426500  0.23426500  0.75583900  1
  O  O4  1  0.75316000  0.23431700  0.23584000  1
  O  O5  1  0.75796400  0.75796400  0.23519700  1
loop_
_geom_bond_atom_site_label_1
_geom_bond_atom_site_label_2
_geom_bond_distance
_geom_bond_site_symmetry_2
Ba0 O4 2.943196 1_565
Ba0 O1 2.943196 1_655
Ba0 O4 2.946376 1_556
Ba0 O1 2.946376 1_556
Ba0 O3 2.946491 1_655
Ba0 O3 2.946491 1_565
Ba0 O2 3.158845 1_555
Ba0 O0 3.158845 1_555
Ba0 O5 3.160685 1_556
Ba0 O5 3.164104 1_555
Ba0 O2 3.168151 1_565
Ba0 O0 3.168151 1_655
Ba1 Li0 2.560955 1_555
Ba1 O1 2.606779 1_555
Ba1 O4 2.606779 1_555
Ba1 O3 2.618941 1_555
Ba1 O0 3.000324 1_545
Ba1 O2 3.000325 1_455
Ba1 O0 3.004636 1_554
Ba1 O2 3.004637 1_554
Ba1 O5 3.004808 1_545
Ba1 O5 3.004808 1_455
Li0 O1 1.838195 1_545
Li0 O4 1.838195 1_455
Li0 O3 1.845417 1_554
Li0 Ru0 2.241032 1_444
Ho0 O2 2.191850 1_555
Ho0 O0 2.191850 1_555
Ho0 O5 2.195440 1_555
Ho0 O1 2.333578 1_555
Ho0 O4 2.333578 1_555
Ho0 O3 2.334513 1_555
O0 Ru0 1.975129 1_455
O1 Ru0 2.148473 1_454
O2 Ru0 1.975129 1_545
O3 Ru0 2.144657 1_445
O4 Ru0 2.148473 1_544
O5 Ru0 1.973222 1_554
