# generated using pymatgen
data_BaSrSi4(NO)4
_symmetry_space_group_name_H-M   'P 1'
_cell_length_a   7.34922500
_cell_length_b   7.39638877
_cell_length_c   7.44849117
_cell_angle_alpha   87.99005912
_cell_angle_beta   76.70275412
_cell_angle_gamma   83.39358872
_symmetry_Int_Tables_number   1
_chemical_formula_structural   BaSrSi4(NO)4
_chemical_formula_sum   'Ba2 Sr2 Si8 N8 O8'
_cell_volume   391.39617814
_cell_formula_units_Z   2
loop_
 _symmetry_equiv_pos_site_id
 _symmetry_equiv_pos_as_xyz
  1  'x, y, z'
loop_
 _atom_site_type_symbol
 _atom_site_label
 _atom_site_symmetry_multiplicity
 _atom_site_fract_x
 _atom_site_fract_y
 _atom_site_fract_z
 _atom_site_occupancy
  Ba  Ba0  1  0.70414800  0.82157800  0.79052900  1
  Ba  Ba1  1  0.70832200  0.31407900  0.75827800  1
  Sr  Sr0  1  0.21232400  0.81255300  0.74930500  1
  Sr  Sr1  1  0.20240900  0.31385400  0.78450400  1
  Si  Si0  1  0.37397900  0.40139300  0.21434900  1
  Si  Si1  1  0.57913000  0.64615600  0.40617500  1
  Si  Si2  1  0.98960000  0.55412100  0.41473400  1
  Si  Si3  1  0.78679600  0.30429400  0.21664600  1
  Si  Si4  1  0.27888700  0.80745400  0.21489200  1
  Si  Si5  1  0.08350700  0.14664900  0.41393400  1
  Si  Si6  1  0.87793300  0.89865000  0.21927800  1
  Si  Si7  1  0.48627100  0.05634900  0.41111000  1
  N  N0  1  0.20562500  0.59020000  0.27402200  1
  N  N1  1  0.30841800  0.21957100  0.36729200  1
  N  N2  1  0.43085000  0.83953200  0.36165600  1
  N  N3  1  0.58379100  0.46360800  0.26177500  1
  N  N4  1  0.80698800  0.71476200  0.37117500  1
  N  N5  1  0.92903300  0.33692100  0.37283200  1
  N  N6  1  0.70606100  0.08804400  0.27232600  1
  N  N7  1  0.07800000  0.96275900  0.27901500  1
  O  O0  1  0.99633000  0.56012600  0.63496700  1
  O  O1  1  0.90359000  0.31451900  0.00603100  1
  O  O2  1  0.37660100  0.82357200  0.99891500  1
  O  O3  1  0.47910000  0.06579400  0.63361300  1
  O  O4  1  0.50709800  0.59025400  0.62486400  1
  O  O5  1  0.92581000  0.83770700  0.00616800  1
  O  O6  1  0.39944000  0.34243900  0.00288100  1
  O  O7  1  0.03016200  0.08836200  0.63393200  1
loop_
_geom_bond_atom_site_label_1
_geom_bond_atom_site_label_2
_geom_bond_distance
_geom_bond_site_symmetry_2
Ba0 O2 2.545347 1_555
Ba0 O5 2.551398 1_556
Ba0 O3 2.723609 1_565
Ba0 O0 2.783934 1_555
Ba0 O4 2.843844 1_555
Ba0 N4 3.146704 1_555
Ba0 O7 3.261227 1_665
Ba1 O6 2.555627 1_556
Ba1 O1 2.585458 1_556
Ba1 O4 2.680603 1_555
Ba1 O7 2.726110 1_655
Ba1 O0 2.917264 1_555
Ba1 O3 2.936589 1_555
Ba1 N5 2.964629 1_555
N0 Si2 1.732819 1_455
N0 Si0 1.752592 1_555
N0 Si4 1.762479 1_555
N1 Si5 1.752595 1_555
N1 Si7 1.754411 1_555
N1 Si0 1.768506 1_555
N2 Si1 1.765653 1_555
N2 Si7 1.770328 1_565
N2 Si4 1.771820 1_555
N2 Sr0 2.975958 1_555
N3 Si1 1.747945 1_555
N3 Si3 1.766332 1_555
N3 Si0 1.771835 1_555
N4 Si1 1.764964 1_555
N4 Si2 1.767616 1_555
N4 Si6 1.784849 1_555
N5 Si5 1.767810 1_655
N5 Si2 1.772001 1_555
N5 Si3 1.772423 1_555
N6 Si7 1.742049 1_555
N6 Si6 1.765232 1_545
N6 Si3 1.772286 1_555
N7 Si5 1.728796 1_565
N7 Si4 1.746760 1_555
N7 Si6 1.749539 1_455
O0 Si2 1.654775 1_555
O0 Sr1 2.617485 1_655
O0 Sr0 2.854178 1_655
O1 Si3 1.609563 1_555
O1 Sr1 2.424181 1_654
O2 Si4 1.610175 1_556
O2 Sr0 2.446784 1_555
O3 Si7 1.649677 1_555
O3 Sr1 2.645623 1_555
O3 Sr0 2.837163 1_545
O4 Si1 1.646506 1_555
O4 Sr0 2.572801 1_555
O5 Si6 1.613516 1_555
O5 Sr0 2.492093 1_654
O6 Si0 1.612442 1_555
O6 Sr1 2.442390 1_554
O7 Si5 1.648805 1_555
O7 Sr0 2.543649 1_545
O7 Sr1 2.629074 1_555
