# generated using pymatgen
data_TiZnO2
_symmetry_space_group_name_H-M   'P 1'
_cell_length_a   7.79128857
_cell_length_b   7.79128857
_cell_length_c   10.85877069
_cell_angle_alpha   51.72676736
_cell_angle_beta   51.72676736
_cell_angle_gamma   21.40450270
_symmetry_Int_Tables_number   1
_chemical_formula_structural   TiZnO2
_chemical_formula_sum   'Ti4 Zn4 O8'
_cell_volume   186.74796113
_cell_formula_units_Z   4
loop_
 _symmetry_equiv_pos_site_id
 _symmetry_equiv_pos_as_xyz
  1  'x, y, z'
loop_
 _atom_site_type_symbol
 _atom_site_label
 _atom_site_symmetry_multiplicity
 _atom_site_fract_x
 _atom_site_fract_y
 _atom_site_fract_z
 _atom_site_occupancy
  Ti  Ti0  1  0.43570200  0.43570200  0.41354300  1
  Ti  Ti1  1  0.84564900  0.84564900  0.72542900  1
  Ti  Ti2  1  0.16043300  0.16043300  0.24843000  1
  Ti  Ti3  1  0.56717600  0.56717600  0.56069500  1
  Zn  Zn0  1  0.64318300  0.64318300  0.76520800  1
  Zn  Zn1  1  0.37824800  0.37824800  0.18364400  1
  Zn  Zn2  1  0.93507600  0.93507600  0.91966300  1
  Zn  Zn3  1  0.07178900  0.07178900  0.05501400  1
  O  O0  1  0.16862400  0.16862400  0.41658300  1
  O  O1  1  0.60006500  0.60006500  0.18769800  1
  O  O2  1  0.40507500  0.40507500  0.78652500  1
  O  O3  1  0.83240200  0.83240200  0.56052000  1
  O  O4  1  0.91988500  0.91988500  0.27973400  1
  O  O5  1  0.21533500  0.21533500  0.83164700  1
  O  O6  1  0.08519600  0.08519600  0.69644500  1
  O  O7  1  0.78807000  0.78807000  0.14360700  1
loop_
_geom_bond_atom_site_label_1
_geom_bond_atom_site_label_2
_geom_bond_distance
_geom_bond_site_symmetry_2
O0 Ti2 1.907481 1_555
O0 Ti3 1.972444 1_455
O0 Ti3 1.972444 1_545
O1 Ti2 2.037468 1_655
O1 Ti2 2.037468 1_565
O1 Ti0 2.136965 1_555
O1 Zn3 2.267866 1_565
O1 Zn3 2.267866 1_655
O2 Ti1 2.030416 1_545
O2 Ti1 2.030416 1_455
O2 Ti3 2.121389 1_555
O2 Zn2 2.287324 1_545
O2 Zn2 2.287324 1_455
O3 Ti1 1.925020 1_555
O3 Ti0 1.989921 1_565
O3 Ti0 1.989921 1_655
O3 Zn0 2.283738 1_555
O4 Zn3 2.051514 1_665
O4 Zn1 2.104114 1_655
O4 Zn1 2.104114 1_565
O4 Ti0 2.169558 1_655
O4 Ti0 2.169558 1_565
O5 Zn3 1.998178 1_556
O5 Ti1 2.122161 1_545
O5 Ti1 2.122161 1_455
O5 Zn0 2.199839 1_455
O5 Zn0 2.199839 1_545
O6 Zn2 2.033312 1_445
O6 Zn0 2.067641 1_455
O6 Zn0 2.067641 1_545
O6 Ti3 2.203469 1_455
O6 Ti3 2.203469 1_545
O7 Zn2 2.019666 1_554
O7 Ti2 2.098544 1_565
O7 Ti2 2.098544 1_655
O7 Zn1 2.223917 1_565
O7 Zn1 2.223917 1_655
