# generated using pymatgen
data_HfGaCu
_symmetry_space_group_name_H-M   'P 1'
_cell_length_a   4.18023947
_cell_length_b   4.17823533
_cell_length_c   6.30544613
_cell_angle_alpha   90.00000000
_cell_angle_beta   90.00000000
_cell_angle_gamma   120.01586847
_symmetry_Int_Tables_number   1
_chemical_formula_structural   HfGaCu
_chemical_formula_sum   'Hf2 Ga2 Cu2'
_cell_volume   95.36105411
_cell_formula_units_Z   2
loop_
 _symmetry_equiv_pos_site_id
 _symmetry_equiv_pos_as_xyz
  1  'x, y, z'
loop_
 _atom_site_type_symbol
 _atom_site_label
 _atom_site_symmetry_multiplicity
 _atom_site_fract_x
 _atom_site_fract_y
 _atom_site_fract_z
 _atom_site_occupancy
  Hf  Hf0  1  0.00000000  0.00000000  0.50000000  1
  Hf  Hf1  1  0.00000000  -0.00000000  0.00000000  1
  Ga  Ga0  1  0.33364294  0.66728588  0.75000000  1
  Ga  Ga1  1  0.66635706  0.33271412  0.25000000  1
  Cu  Cu0  1  0.33269537  0.66539374  0.25000000  1
  Cu  Cu1  1  0.66730463  0.33460626  0.75000000  1
loop_
_geom_bond_atom_site_label_1
_geom_bond_atom_site_label_2
_geom_bond_distance
_geom_bond_site_symmetry_2
Ga0 Hf0 2.881398 1_665
Ga0 Hf1 2.881398 1_666
Ga0 Hf0 2.881398 1_565
Ga0 Hf1 2.881398 1_566
Ga0 Hf0 2.883242 1_555
Ga0 Hf1 2.883242 1_556
Ga1 Hf1 2.881398 1_555
Ga1 Hf0 2.881398 1_555
Ga1 Hf1 2.881398 1_655
Ga1 Hf0 2.881398 1_655
Ga1 Hf1 2.883242 1_665
Ga1 Hf0 2.883242 1_665
Cu0 Ga1 2.411890 1_455
Cu0 Ga1 2.411901 1_555
Cu0 Ga1 2.414285 1_565
Cu0 Hf1 2.877512 1_555
Cu0 Hf0 2.877512 1_555
Cu0 Hf1 2.884260 1_565
Cu0 Hf0 2.884260 1_565
Cu0 Hf1 2.884269 1_665
Cu0 Hf0 2.884269 1_665
Cu1 Ga0 2.411890 1_655
Cu1 Ga0 2.411901 1_555
Cu1 Ga0 2.414285 1_545
Cu1 Hf1 2.877512 1_666
Cu1 Hf0 2.877512 1_665
Cu1 Hf1 2.884260 1_656
Cu1 Hf0 2.884260 1_655
Cu1 Hf0 2.884269 1_555
Cu1 Hf1 2.884269 1_556
