# generated using pymatgen
data_SrVZn(PO4)2
_symmetry_space_group_name_H-M   'P 1'
_cell_length_a   5.53321927
_cell_length_b   7.04323926
_cell_length_c   9.52228340
_cell_angle_alpha   110.93407687
_cell_angle_beta   101.57921933
_cell_angle_gamma   98.14936339
_symmetry_Int_Tables_number   1
_chemical_formula_structural   SrVZn(PO4)2
_chemical_formula_sum   'Sr2 V2 Zn2 P4 O16'
_cell_volume   330.18034925
_cell_formula_units_Z   2
loop_
 _symmetry_equiv_pos_site_id
 _symmetry_equiv_pos_as_xyz
  1  'x, y, z'
loop_
 _atom_site_type_symbol
 _atom_site_label
 _atom_site_symmetry_multiplicity
 _atom_site_fract_x
 _atom_site_fract_y
 _atom_site_fract_z
 _atom_site_occupancy
  Sr  Sr0  1  0.24548700  0.79805700  0.04657800  1
  Sr  Sr1  1  0.75451300  0.20194300  0.95342200  1
  V  V0  1  0.63964000  0.85070700  0.56147900  1
  V  V1  1  0.36036000  0.14929300  0.43852100  1
  Zn  Zn0  1  0.99397600  0.37847900  0.64678500  1
  Zn  Zn1  1  0.00602400  0.62152100  0.35321500  1
  P  P0  1  0.39015300  0.42250200  0.23160500  1
  P  P1  1  0.60984700  0.57749800  0.76839500  1
  P  P2  1  0.83947500  0.02176700  0.30061700  1
  P  P3  1  0.16052500  0.97823300  0.69938300  1
  O  O0  1  0.80747300  0.55483100  0.89755300  1
  O  O1  1  0.66375000  0.47564800  0.21375700  1
  O  O2  1  0.66643000  0.79914700  0.77028200  1
  O  O3  1  0.95944400  0.11824800  0.70027100  1
  O  O4  1  0.33625000  0.52435200  0.78624300  1
  O  O5  1  0.00233300  0.75385500  0.57800100  1
  O  O6  1  0.99766700  0.24614500  0.42199900  1
  O  O7  1  0.26309800  0.99336600  0.86434400  1
  O  O8  1  0.33357000  0.20085300  0.22971800  1
  O  O9  1  0.73690200  0.00663400  0.13565600  1
  O  O10  1  0.19252700  0.44516900  0.10244700  1
  O  O11  1  0.36203000  0.58294300  0.39046600  1
  O  O12  1  0.63797000  0.41705700  0.60953400  1
  O  O13  1  0.62121500  0.95070500  0.36533500  1
  O  O14  1  0.04055600  0.88175200  0.29972900  1
  O  O15  1  0.37878500  0.04929500  0.63466500  1
loop_
_geom_bond_atom_site_label_1
_geom_bond_atom_site_label_2
_geom_bond_distance
_geom_bond_site_symmetry_2
O0 P1 1.543942 1_555
O0 Sr0 2.554892 1_656
O0 Sr1 2.710619 1_555
O1 P0 1.564896 1_555
O1 Zn1 1.967127 1_655
O1 Sr1 2.733714 1_554
O2 P1 1.540971 1_555
O2 V0 2.126034 1_555
O2 Sr1 2.656815 1_565
O3 P3 1.587264 1_645
O3 Zn0 2.064499 1_555
O3 V0 2.182880 1_545
O3 Sr1 2.777689 1_555
O4 P1 1.564896 1_555
O4 Zn0 1.967127 1_455
O4 Sr0 2.733714 1_556
O5 P3 1.579879 1_555
O5 Zn1 2.011989 1_555
O5 V0 2.203549 1_455
O6 P2 1.579879 1_555
O6 Zn0 2.011989 1_555
O6 V1 2.203549 1_655
O7 P3 1.518626 1_555
O7 Sr0 2.578498 1_556
O7 Sr1 2.705982 1_565
O8 P0 1.540971 1_555
O8 V1 2.126034 1_555
O8 Sr0 2.656815 1_545
O9 P2 1.518626 1_555
O9 Sr1 2.578498 1_554
O9 Sr0 2.705982 1_545
O10 P0 1.543942 1_555
O10 Sr1 2.554892 1_454
O10 Sr0 2.710619 1_555
O11 P0 1.585030 1_555
O11 Zn1 2.005021 1_555
O11 V0 2.132603 1_555
O12 P1 1.585030 1_555
O12 Zn0 2.005021 1_555
O12 V1 2.132603 1_555
O13 P2 1.560960 1_565
O13 V1 2.192023 1_565
O13 V0 2.208806 1_555
O13 Sr0 3.031866 1_555
O14 P2 1.587264 1_465
O14 Zn1 2.064499 1_555
O14 V1 2.182880 1_565
O14 Sr0 2.777689 1_555
O15 P3 1.560960 1_545
O15 V0 2.192023 1_545
O15 V1 2.208806 1_555
O15 Sr1 3.031866 1_555
