# generated using pymatgen
data_Al2Zn2S5
_symmetry_space_group_name_H-M   'P 1'
_cell_length_a   3.72350259
_cell_length_b   3.72350259
_cell_length_c   30.03587000
_cell_angle_alpha   90.00000000
_cell_angle_beta   90.00000000
_cell_angle_gamma   120.00001042
_symmetry_Int_Tables_number   1
_chemical_formula_structural   Al2Zn2S5
_chemical_formula_sum   'Al4 Zn4 S10'
_cell_volume   360.64018881
_cell_formula_units_Z   2
loop_
 _symmetry_equiv_pos_site_id
 _symmetry_equiv_pos_as_xyz
  1  'x, y, z'
loop_
 _atom_site_type_symbol
 _atom_site_label
 _atom_site_symmetry_multiplicity
 _atom_site_fract_x
 _atom_site_fract_y
 _atom_site_fract_z
 _atom_site_occupancy
  Al  Al0  1  0.00000000  0.00000000  0.31005500  1
  Al  Al1  1  0.00000000  0.00000000  0.81005500  1
  Al  Al2  1  0.66666700  0.33333300  0.08244100  1
  Al  Al3  1  0.33333300  0.66666700  0.58244100  1
  Zn  Zn0  1  0.66666700  0.33333300  0.43310900  1
  Zn  Zn1  1  0.33333300  0.66666700  0.93310900  1
  Zn  Zn2  1  0.33333300  0.66666700  0.19089400  1
  Zn  Zn3  1  0.66666700  0.33333300  0.69089400  1
  S  S0  1  0.33333300  0.66666700  0.45853500  1
  S  S1  1  0.66666700  0.33333300  0.95853500  1
  S  S2  1  0.66666700  0.33333300  0.34857400  1
  S  S3  1  0.33333300  0.66666700  0.84857400  1
  S  S4  1  0.33333300  0.66666700  0.26534900  1
  S  S5  1  0.66666700  0.33333300  0.76534900  1
  S  S6  1  0.66666700  0.33333300  0.15797000  1
  S  S7  1  0.33333300  0.66666700  0.65797000  1
  S  S8  1  0.33333300  0.66666700  0.05507300  1
  S  S9  1  0.66666700  0.33333300  0.55507300  1
loop_
_geom_bond_atom_site_label_1
_geom_bond_atom_site_label_2
_geom_bond_distance
_geom_bond_site_symmetry_2
Al0 S2 2.441315 1_455
Al0 S2 2.441318 1_555
Al0 S2 2.441318 1_445
Al0 S4 2.534670 1_545
Al0 S4 2.534672 1_555
Al0 S4 2.534672 1_445
Al1 S3 2.441315 1_545
Al1 S3 2.441318 1_555
Al1 S3 2.441318 1_445
Al1 S5 2.534670 1_455
Al1 S5 2.534672 1_555
Al1 S5 2.534672 1_445
Al2 S6 2.268579 1_555
Al2 S8 2.301565 1_545
Al2 S8 2.301565 1_655
Al2 S8 2.301571 1_555
Al3 S7 2.268579 1_555
Al3 S9 2.301565 1_455
Al3 S9 2.301565 1_565
Al3 S9 2.301571 1_555
S0 Zn0 2.281382 1_455
S0 Zn0 2.281382 1_565
S0 Zn0 2.281389 1_555
S1 Zn1 2.281382 1_545
S1 Zn1 2.281382 1_655
S1 Zn1 2.281389 1_555
S2 Zn0 2.539082 1_555
S3 Zn1 2.539082 1_555
S4 Zn2 2.236321 1_555
S5 Zn3 2.236321 1_555
S6 Zn2 2.366306 1_545
S6 Zn2 2.366306 1_655
S6 Zn2 2.366312 1_555
S7 Zn3 2.366306 1_455
S7 Zn3 2.366306 1_565
S7 Zn3 2.366312 1_555
