# generated using pymatgen
data_Dy2MnNiO6
_symmetry_space_group_name_H-M   'P 1'
_cell_length_a   5.58809500
_cell_length_b   5.26376100
_cell_length_c   9.17388064
_cell_angle_alpha   55.41121154
_cell_angle_beta   90.00000000
_cell_angle_gamma   90.00000000
_symmetry_Int_Tables_number   1
_chemical_formula_structural   Dy2MnNiO6
_chemical_formula_sum   'Dy4 Mn2 Ni2 O12'
_cell_volume   222.14852354
_cell_formula_units_Z   2
loop_
 _symmetry_equiv_pos_site_id
 _symmetry_equiv_pos_as_xyz
  1  'x, y, z'
loop_
 _atom_site_type_symbol
 _atom_site_label
 _atom_site_symmetry_multiplicity
 _atom_site_fract_x
 _atom_site_fract_y
 _atom_site_fract_z
 _atom_site_occupancy
  Dy  Dy0  1  0.07230600  0.26935900  0.74935900  1
  Dy  Dy1  1  0.42769400  0.26935900  0.24935900  1
  Dy  Dy2  1  0.92769400  0.73064100  0.25064100  1
  Dy  Dy3  1  0.57230600  0.73064100  0.75064100  1
  Mn  Mn0  1  0.00000000  0.00000000  0.50000000  1
  Mn  Mn1  1  0.50000000  0.00000000  0.00000000  1
  Ni  Ni0  1  0.50000000  0.50000000  0.50000000  1
  Ni  Ni1  1  0.00000000  0.50000000  0.00000000  1
  O  O0  1  0.70495000  0.23829400  0.44370300  1
  O  O1  1  0.79505000  0.23829400  0.94370300  1
  O  O2  1  0.29505000  0.76170600  0.55629700  1
  O  O3  1  0.20495000  0.76170600  0.05629700  1
  O  O4  1  0.18686800  0.35269400  0.44684500  1
  O  O5  1  0.31313200  0.35269400  0.94684500  1
  O  O6  1  0.81313200  0.64730600  0.55315500  1
  O  O7  1  0.68686800  0.64730600  0.05315500  1
  O  O8  1  0.46435500  0.13482700  0.75720800  1
  O  O9  1  0.03564500  0.13482700  0.25720800  1
  O  O10  1  0.53564500  0.86517300  0.24279200  1
  O  O11  1  0.96435500  0.86517300  0.74279200  1
loop_
_geom_bond_atom_site_label_1
_geom_bond_atom_site_label_2
_geom_bond_distance
_geom_bond_site_symmetry_2
Dy0 O11 2.244877 1_445
Dy0 O6 2.286828 1_455
Dy0 O8 2.290938 1_555
Dy0 O1 2.296707 1_455
Dy0 O5 2.487586 1_555
Dy0 O2 2.488212 1_555
Dy0 O4 2.630966 1_555
Dy0 O3 2.660044 1_546
Dy1 O10 2.244877 1_545
Dy1 O7 2.286828 1_555
Dy1 O9 2.290938 1_555
Dy1 O0 2.296707 1_555
Dy1 O4 2.487586 1_555
Dy1 O3 2.488212 1_555
Dy1 O5 2.630966 1_554
Dy1 O2 2.660044 1_545
Dy2 O9 2.244877 1_665
Dy2 O4 2.286828 1_655
Dy2 O10 2.290938 1_555
Dy2 O3 2.296707 1_655
Dy2 O7 2.487586 1_555
Dy2 O0 2.488212 1_555
Dy2 O6 2.630966 1_555
Dy2 O1 2.660044 1_564
Dy3 O8 2.244877 1_565
Dy3 O5 2.286828 1_555
Dy3 O11 2.290938 1_555
Dy3 O2 2.296707 1_555
Dy3 O6 2.487586 1_555
Dy3 O1 2.488212 1_555
Dy3 O7 2.630966 1_556
Dy3 O0 2.660044 1_565
Mn0 O9 1.926056 1_555
Mn0 O11 1.926056 1_445
Mn0 O4 1.935706 1_555
Mn0 O6 1.935706 1_445
Mn0 O0 1.955247 1_455
Mn0 O2 1.955247 1_545
Mn1 O10 1.926056 1_545
Mn1 O8 1.926056 1_554
Mn1 O5 1.935706 1_554
Mn1 O7 1.935706 1_545
Mn1 O1 1.955247 1_554
Mn1 O3 1.955247 1_545
Ni0 O8 2.037798 1_555
Ni0 O10 2.037798 1_555
Ni0 O2 2.069741 1_555
Ni0 O0 2.069741 1_555
Ni0 O6 2.080899 1_555
Ni0 O4 2.080899 1_555
Ni1 O9 2.037798 1_555
Ni1 O11 2.037798 1_454
Ni1 O3 2.069741 1_555
Ni1 O1 2.069741 1_454
Ni1 O5 2.080899 1_554
Ni1 O7 2.080899 1_455
