# generated using pymatgen
data_KLa(WO4)2
_symmetry_space_group_name_H-M   'P 1'
_cell_length_a   7.20792603
_cell_length_b   7.20792603
_cell_length_c   7.20792603
_cell_angle_alpha   134.73337092
_cell_angle_beta   134.73337092
_cell_angle_gamma   65.94476432
_symmetry_Int_Tables_number   1
_chemical_formula_structural   KLa(WO4)2
_chemical_formula_sum   'K1 La1 W2 O8'
_cell_volume   186.10614626
_cell_formula_units_Z   1
loop_
 _symmetry_equiv_pos_site_id
 _symmetry_equiv_pos_as_xyz
  1  'x, y, z'
loop_
 _atom_site_type_symbol
 _atom_site_label
 _atom_site_symmetry_multiplicity
 _atom_site_fract_x
 _atom_site_fract_y
 _atom_site_fract_z
 _atom_site_occupancy
  K  K0  1  0.75000000  0.25000000  0.50000000  1
  La  La0  1  0.50000000  0.50000000  0.00000000  1
  W  W0  1  0.25000000  0.75000000  0.50000000  1
  W  W1  1  0.00000000  0.00000000  0.00000000  1
  O  O0  1  0.76903000  0.15848600  0.08352700  1
  O  O1  1  0.07495900  0.68550300  0.91647300  1
  O  O2  1  0.92373300  0.53913100  0.13801700  1
  O  O3  1  0.40111400  0.78571600  0.86198300  1
  O  O4  1  0.46086900  0.59888600  0.38460100  1
  O  O5  1  0.21428400  0.07626700  0.61539900  1
  O  O6  1  0.31449700  0.23097000  0.38945600  1
  O  O7  1  0.84151400  0.92504100  0.61054400  1
loop_
_geom_bond_atom_site_label_1
_geom_bond_atom_site_label_2
_geom_bond_distance
_geom_bond_site_symmetry_2
K0 O7 2.680286 1_545
K0 O6 2.680286 1_555
K0 O0 2.680286 1_555
K0 O1 2.680286 1_655
K0 O5 2.755138 1_655
K0 O3 2.755140 1_544
K0 O2 2.755140 1_556
K0 O4 2.755143 1_555
La0 O4 2.535340 1_555
La0 O3 2.535348 1_554
La0 O2 2.535348 1_555
La0 O5 2.535350 1_554
La0 O7 2.594916 1_555
La0 O6 2.594916 1_554
La0 O0 2.594916 1_555
La0 O1 2.594916 1_554
O0 W1 1.825213 1_655
O1 W1 1.825213 1_566
O2 W0 1.828408 1_655
O3 W0 1.828408 1_555
O4 W0 1.828412 1_555
O5 W0 1.828405 1_545
O6 W1 1.825213 1_555
O7 W1 1.825213 1_666
