# generated using pymatgen
data_SrCa(Ni2Sn)4
_symmetry_space_group_name_H-M   'P 1'
_cell_length_a   6.76515787
_cell_length_b   6.76515787
_cell_length_c   6.76515787
_cell_angle_alpha   109.58765793
_cell_angle_beta   109.58765793
_cell_angle_gamma   109.23859619
_symmetry_Int_Tables_number   1
_chemical_formula_structural   SrCa(Ni2Sn)4
_chemical_formula_sum   'Sr1 Ca1 Ni8 Sn4'
_cell_volume   238.34527599
_cell_formula_units_Z   1
loop_
 _symmetry_equiv_pos_site_id
 _symmetry_equiv_pos_as_xyz
  1  'x, y, z'
loop_
 _atom_site_type_symbol
 _atom_site_label
 _atom_site_symmetry_multiplicity
 _atom_site_fract_x
 _atom_site_fract_y
 _atom_site_fract_z
 _atom_site_occupancy
  Sr  Sr0  1  0.00000000  0.00000000  0.00000000  1
  Ca  Ca0  1  0.50000000  0.50000000  0.00000000  1
  Ni  Ni0  1  0.94758000  0.72258100  0.49689200  1
  Ni  Ni1  1  0.22568900  0.45068800  0.50310800  1
  Ni  Ni2  1  0.45068800  0.94758000  0.22499900  1
  Ni  Ni3  1  0.72258100  0.22568900  0.77500100  1
  Ni  Ni4  1  0.54931200  0.77431100  0.49689200  1
  Ni  Ni5  1  0.27741900  0.05242000  0.50310800  1
  Ni  Ni6  1  0.05242000  0.54931200  0.77500100  1
  Ni  Ni7  1  0.77431100  0.27741900  0.22499900  1
  Sn  Sn0  1  0.59066300  0.40933700  0.50000000  1
  Sn  Sn1  1  0.90933700  0.09066300  0.50000000  1
  Sn  Sn2  1  0.09066300  0.59066300  0.18132500  1
  Sn  Sn3  1  0.40933700  0.90933700  0.81867500  1
loop_
_geom_bond_atom_site_label_1
_geom_bond_atom_site_label_2
_geom_bond_distance
_geom_bond_site_symmetry_2
Ca0 Ni3 3.084243 1_554
Ca0 Ni5 3.084243 1_554
Ca0 Ni2 3.084243 1_555
Ca0 Ni4 3.084243 1_555
Ca0 Ni1 3.084243 1_554
Ca0 Ni6 3.084243 1_554
Ca0 Ni0 3.084243 1_555
Ca0 Ni7 3.084243 1_555
Ca0 Sn2 3.527340 1_555
Ca0 Sn3 3.527340 1_554
Ca0 Sn0 3.527343 1_554
Ca0 Sn1 3.527343 1_565
Ca0 Sn1 3.527343 1_454
Ca0 Sn0 3.527343 1_555
Ca0 Sn3 3.527344 1_544
Ca0 Sn2 3.527344 1_655
Ni0 Ni7 2.518094 1_555
Ni0 Ni6 2.559067 1_655
Ni0 Ni5 2.559887 1_665
Ni0 Sn1 2.580939 1_565
Ni0 Sn2 2.639789 1_655
Ni0 Sn0 2.648277 1_555
Ni0 Sn3 2.662517 1_655
Ni0 Ni4 2.829021 1_555
Ni0 Sr0 3.114750 1_666
Ni1 Ni6 2.518094 1_555
Ni1 Ni7 2.559067 1_455
Ni1 Ni4 2.559887 1_555
Ni1 Sn0 2.580939 1_555
Ni1 Sn3 2.639785 1_555
Ni1 Sn1 2.648277 1_455
Ni1 Sn2 2.662521 1_555
Ni1 Ni5 2.829021 1_555
Ni1 Sr0 3.114750 1_555
Ni2 Ni4 2.518094 1_555
Ni2 Ni5 2.559067 1_565
Ni2 Ni7 2.559887 1_565
Ni2 Sn3 2.580932 1_554
Ni2 Sn1 2.639784 1_565
Ni2 Sn2 2.648273 1_555
Ni2 Sn0 2.662516 1_565
Ni2 Ni6 2.829021 1_554
Ni2 Sr0 3.114750 1_565
Ni3 Ni5 2.518094 1_555
Ni3 Ni4 2.559067 1_545
Ni3 Ni6 2.559887 1_655
Ni3 Sn2 2.580936 1_656
Ni3 Sn0 2.639784 1_555
Ni3 Sn3 2.648281 1_545
Ni3 Sn1 2.662516 1_555
Ni3 Ni7 2.829021 1_556
Ni3 Sr0 3.114750 1_656
Ni4 Sn0 2.580939 1_555
Ni4 Sn2 2.639785 1_555
Ni4 Sn1 2.648277 1_565
Ni4 Sn3 2.662521 1_555
Ni4 Sr0 3.114750 1_666
Ni5 Sn1 2.580939 1_455
Ni5 Sn3 2.639789 1_545
Ni5 Sn0 2.648277 1_555
Ni5 Sn2 2.662517 1_545
Ni5 Sr0 3.114750 1_555
Ni6 Sn2 2.580932 1_556
Ni6 Sn1 2.639784 1_455
Ni6 Sn3 2.648273 1_555
Ni6 Sn0 2.662516 1_455
Ni6 Sr0 3.114750 1_566
Ni7 Sn3 2.580936 1_544
Ni7 Sn0 2.639784 1_555
Ni7 Sn2 2.648281 1_655
Ni7 Sn1 2.662516 1_555
Ni7 Sr0 3.114750 1_655
Sn0 Sr0 3.527343 1_555
Sn0 Sr0 3.527343 1_666
Sn1 Sr0 3.527343 1_656
Sn1 Sr0 3.527343 1_655
Sn2 Sr0 3.527340 1_565
Sn2 Sr0 3.527344 1_555
Sn3 Sr0 3.527340 1_566
Sn3 Sr0 3.527344 1_666
