# generated using pymatgen
data_Ti3Te
_symmetry_space_group_name_H-M   'P 1'
_cell_length_a   5.81917889
_cell_length_b   5.81917889
_cell_length_c   4.81887200
_cell_angle_alpha   90.00000000
_cell_angle_beta   90.00000000
_cell_angle_gamma   120.00001007
_symmetry_Int_Tables_number   1
_chemical_formula_structural   Ti3Te
_chemical_formula_sum   'Ti6 Te2'
_cell_volume   141.31862204
_cell_formula_units_Z   2
loop_
 _symmetry_equiv_pos_site_id
 _symmetry_equiv_pos_as_xyz
  1  'x, y, z'
loop_
 _atom_site_type_symbol
 _atom_site_label
 _atom_site_symmetry_multiplicity
 _atom_site_fract_x
 _atom_site_fract_y
 _atom_site_fract_z
 _atom_site_occupancy
  Ti  Ti0  1  0.16110800  0.32221500  0.25000000  1
  Ti  Ti1  1  0.67778500  0.83889200  0.25000000  1
  Ti  Ti2  1  0.16110800  0.83889200  0.25000000  1
  Ti  Ti3  1  0.83889200  0.67778500  0.75000000  1
  Ti  Ti4  1  0.32221500  0.16110800  0.75000000  1
  Ti  Ti5  1  0.83889200  0.16110800  0.75000000  1
  Te  Te0  1  0.33333300  0.66666700  0.75000000  1
  Te  Te1  1  0.66666700  0.33333300  0.25000000  1
loop_
_geom_bond_atom_site_label_1
_geom_bond_atom_site_label_2
_geom_bond_distance
_geom_bond_site_symmetry_2
Ti0 Ti1 2.812543 1_445
Ti0 Ti2 2.812543 1_545
Ti0 Ti4 2.905539 1_554
Ti0 Ti4 2.905539 1_555
Ti0 Ti5 2.905545 1_454
Ti0 Ti5 2.905545 1_455
Ti0 Ti1 3.006635 1_555
Ti0 Ti2 3.006636 1_555
Ti1 Ti2 2.812543 1_655
Ti1 Ti3 2.905539 1_555
Ti1 Ti3 2.905539 1_554
Ti1 Ti5 2.905545 1_565
Ti1 Ti5 2.905545 1_564
Ti1 Ti2 3.006636 1_555
Ti2 Ti4 2.905545 1_564
Ti2 Ti4 2.905545 1_565
Ti2 Ti3 2.905545 1_454
Ti2 Ti3 2.905545 1_455
Ti3 Ti4 2.812543 1_665
Ti3 Ti5 2.812543 1_565
Ti3 Ti4 3.006635 1_555
Ti3 Ti5 3.006636 1_555
Ti4 Ti5 2.812543 1_455
Ti4 Ti5 3.006636 1_555
Te0 Ti5 2.910128 1_565
Te0 Ti5 2.910128 1_455
Te0 Ti4 2.910129 1_555
Te0 Ti3 2.910129 1_555
Te0 Ti4 2.910129 1_565
Te0 Ti3 2.910129 1_455
Te0 Ti2 2.969620 1_556
Te0 Ti2 2.969620 1_555
Te0 Ti0 2.969626 1_556
Te0 Ti0 2.969626 1_555
Te0 Ti1 2.969626 1_555
Te0 Ti1 2.969626 1_556
Te1 Ti2 2.910128 1_545
Te1 Ti2 2.910128 1_655
Te1 Ti1 2.910129 1_555
Te1 Ti0 2.910129 1_555
Te1 Ti1 2.910129 1_545
Te1 Ti0 2.910129 1_655
Te1 Ti5 2.969620 1_555
Te1 Ti5 2.969620 1_554
Te1 Ti4 2.969626 1_554
Te1 Ti3 2.969626 1_554
Te1 Ti3 2.969626 1_555
Te1 Ti4 2.969626 1_555
