# generated using pymatgen
data_EuIn
_symmetry_space_group_name_H-M   'P 1'
_cell_length_a   7.58912800
_cell_length_b   7.58912800
_cell_length_c   8.60148400
_cell_angle_alpha   90.00000000
_cell_angle_beta   90.00000000
_cell_angle_gamma   90.00000000
_symmetry_Int_Tables_number   1
_chemical_formula_structural   EuIn
_chemical_formula_sum   'Eu8 In8'
_cell_volume   495.40129946
_cell_formula_units_Z   8
loop_
 _symmetry_equiv_pos_site_id
 _symmetry_equiv_pos_as_xyz
  1  'x, y, z'
loop_
 _atom_site_type_symbol
 _atom_site_label
 _atom_site_symmetry_multiplicity
 _atom_site_fract_x
 _atom_site_fract_y
 _atom_site_fract_z
 _atom_site_occupancy
  Eu  Eu0_0  1  0.00000000  0.00000000  0.00000000  1
  Eu  Eu0_1  1  0.00000000  0.00000000  0.50000000  1
  Eu  Eu0_2  1  0.00000000  0.50000000  0.00000000  1
  Eu  Eu0_3  1  0.00000000  0.50000000  0.50000000  1
  Eu  Eu0_4  1  0.50000000  0.00000000  0.00000000  1
  Eu  Eu0_5  1  0.50000000  0.00000000  0.50000000  1
  Eu  Eu0_6  1  0.50000000  0.50000000  0.00000000  1
  Eu  Eu0_7  1  0.50000000  0.50000000  0.50000000  1
  In  In0_0  1  0.25000000  0.25000000  0.25000000  1
  In  In0_1  1  0.25000000  0.25000000  0.75000000  1
  In  In0_2  1  0.25000000  0.75000000  0.25000000  1
  In  In0_3  1  0.25000000  0.75000000  0.75000000  1
  In  In0_4  1  0.75000000  0.25000000  0.25000000  1
  In  In0_5  1  0.75000000  0.25000000  0.75000000  1
  In  In0_6  1  0.75000000  0.75000000  0.25000000  1
  In  In0_7  1  0.75000000  0.75000000  0.75000000  1
loop_
_geom_bond_atom_site_label_1
_geom_bond_atom_site_label_2
_geom_bond_distance
_geom_bond_site_symmetry_2
Eu0_0 In0_0 3.438525 1_555
Eu0_0 In0_4 3.438525 1_455
Eu0_0 In0_7 3.438525 1_444
Eu0_0 In0_1 3.438525 1_554
Eu0_0 In0_5 3.438525 1_454
Eu0_0 In0_2 3.438525 1_545
Eu0_0 In0_6 3.438525 1_445
Eu0_0 In0_3 3.438525 1_544
Eu0_0 Eu0_4 3.794564 1_455
Eu0_0 Eu0_2 3.794564 1_555
Eu0_0 Eu0_4 3.794564 1_555
Eu0_0 Eu0_2 3.794564 1_545
Eu0_1 In0_0 3.438525 1_555
Eu0_1 In0_7 3.438525 1_445
Eu0_1 In0_3 3.438525 1_545
Eu0_1 In0_4 3.438525 1_455
Eu0_1 In0_1 3.438525 1_555
Eu0_1 In0_5 3.438525 1_455
Eu0_1 In0_2 3.438525 1_545
Eu0_1 In0_6 3.438525 1_445
Eu0_1 Eu0_5 3.794564 1_555
Eu0_1 Eu0_3 3.794564 1_545
Eu0_1 Eu0_3 3.794564 1_555
Eu0_1 Eu0_5 3.794564 1_455
Eu0_2 In0_0 3.438525 1_555
Eu0_2 In0_7 3.438525 1_454
Eu0_2 In0_4 3.438525 1_455
Eu0_2 In0_1 3.438525 1_554
Eu0_2 In0_5 3.438525 1_454
Eu0_2 In0_3 3.438525 1_554
Eu0_2 In0_6 3.438525 1_455
Eu0_2 In0_2 3.438525 1_555
Eu0_2 Eu0_6 3.794564 1_455
Eu0_2 Eu0_6 3.794564 1_555
Eu0_3 In0_0 3.438525 1_555
Eu0_3 In0_7 3.438525 1_455
Eu0_3 In0_4 3.438525 1_455
Eu0_3 In0_1 3.438525 1_555
Eu0_3 In0_6 3.438525 1_455
Eu0_3 In0_5 3.438525 1_455
Eu0_3 In0_2 3.438525 1_555
Eu0_3 In0_3 3.438525 1_555
Eu0_3 Eu0_7 3.794564 1_455
Eu0_3 Eu0_7 3.794564 1_555
Eu0_4 In0_0 3.438525 1_555
Eu0_4 In0_6 3.438525 1_545
Eu0_4 In0_1 3.438525 1_554
Eu0_4 In0_7 3.438525 1_544
Eu0_4 In0_4 3.438525 1_555
Eu0_4 In0_2 3.438525 1_545
Eu0_4 In0_5 3.438525 1_554
Eu0_4 In0_3 3.438525 1_544
Eu0_4 Eu0_6 3.794564 1_545
Eu0_4 Eu0_6 3.794564 1_555
Eu0_5 In0_0 3.438525 1_555
Eu0_5 In0_6 3.438525 1_545
Eu0_5 In0_3 3.438525 1_545
Eu0_5 In0_1 3.438525 1_555
Eu0_5 In0_4 3.438525 1_555
Eu0_5 In0_7 3.438525 1_545
Eu0_5 In0_2 3.438525 1_545
Eu0_5 In0_5 3.438525 1_555
Eu0_5 Eu0_7 3.794564 1_545
Eu0_5 Eu0_7 3.794564 1_555
Eu0_6 In0_0 3.438525 1_555
Eu0_6 In0_1 3.438525 1_554
Eu0_6 In0_4 3.438525 1_555
Eu0_6 In0_3 3.438525 1_554
Eu0_6 In0_7 3.438525 1_554
Eu0_6 In0_2 3.438525 1_555
Eu0_6 In0_6 3.438525 1_555
Eu0_6 In0_5 3.438525 1_554
Eu0_7 In0_0 3.438525 1_555
Eu0_7 In0_7 3.438525 1_555
Eu0_7 In0_1 3.438525 1_555
Eu0_7 In0_4 3.438525 1_555
Eu0_7 In0_5 3.438525 1_555
Eu0_7 In0_2 3.438525 1_555
Eu0_7 In0_6 3.438525 1_555
Eu0_7 In0_3 3.438525 1_555
