# generated using pymatgen
data_Cr2SiO4
_symmetry_space_group_name_H-M   'P 1'
_cell_length_a   5.65450592
_cell_length_b   5.68653467
_cell_length_c   6.28314659
_cell_angle_alpha   77.07504539
_cell_angle_beta   116.74266539
_cell_angle_gamma   119.81964561
_symmetry_Int_Tables_number   1
_chemical_formula_structural   Cr2SiO4
_chemical_formula_sum   'Cr4 Si2 O8'
_cell_volume   156.53296801
_cell_formula_units_Z   2
loop_
 _symmetry_equiv_pos_site_id
 _symmetry_equiv_pos_as_xyz
  1  'x, y, z'
loop_
 _atom_site_type_symbol
 _atom_site_label
 _atom_site_symmetry_multiplicity
 _atom_site_fract_x
 _atom_site_fract_y
 _atom_site_fract_z
 _atom_site_occupancy
  Cr  Cr0  1  0.52976727  0.05937673  0.75004713  1
  Cr  Cr1  1  0.77964868  0.55911912  0.25004495  1
  Cr  Cr2  1  0.22035396  0.44087846  0.74996460  1
  Cr  Cr3  1  0.47023003  -0.05937861  0.24994816  1
  Si  Si0  1  0.87493172  0.75003715  0.74998485  1
  Si  Si1  1  0.12506483  0.24996123  0.25001429  1
  O  O0  1  0.22239364  0.95588267  0.90306469  1
  O  O1  1  0.86348840  0.54411983  0.59694546  1
  O  O2  1  0.73324125  0.95573226  0.59684060  1
  O  O3  1  0.68055663  0.54416083  0.90309048  1
  O  O4  1  0.77760887  0.04411807  0.09693219  1
  O  O5  1  0.13651140  0.45587998  0.40305703  1
  O  O6  1  0.31944452  0.45584397  0.09691009  1
  O  O7  1  0.26675881  0.04426933  0.40315650  1
loop_
_geom_bond_atom_site_label_1
_geom_bond_atom_site_label_2
_geom_bond_distance
_geom_bond_site_symmetry_2
Cr0 O7 2.002280 1_555
Cr0 O4 2.002323 1_556
Cr0 O2 2.126666 1_545
Cr0 O0 2.127194 1_545
Cr1 O3 2.002425 1_554
Cr1 O1 2.002474 1_555
Cr1 O5 2.126159 1_655
Cr1 O6 2.126456 1_555
Cr2 O6 2.002378 1_556
Cr2 O5 2.002513 1_555
Cr2 O1 2.126180 1_455
Cr2 O3 2.126441 1_555
Cr3 O2 2.002291 1_545
Cr3 O0 2.002311 1_544
Cr3 O7 2.126674 1_555
Cr3 O4 2.127209 1_555
O0 Si0 1.634363 1_455
O1 Si0 1.634712 1_555
O2 Si0 1.634225 1_555
O3 Si0 1.634637 1_555
O4 Si1 1.634343 1_655
O5 Si1 1.634724 1_555
O6 Si1 1.634655 1_555
O7 Si1 1.634219 1_555
