# generated using pymatgen
data_BaSbF5
_symmetry_space_group_name_H-M   'P 1'
_cell_length_a   4.71608785
_cell_length_b   9.32623265
_cell_length_c   11.16453858
_cell_angle_alpha   90.00000000
_cell_angle_beta   90.00000000
_cell_angle_gamma   90.00000000
_symmetry_Int_Tables_number   1
_chemical_formula_structural   BaSbF5
_chemical_formula_sum   'Ba4 Sb4 F20'
_cell_volume   491.05361243
_cell_formula_units_Z   4
loop_
 _symmetry_equiv_pos_site_id
 _symmetry_equiv_pos_as_xyz
  1  'x, y, z'
loop_
 _atom_site_type_symbol
 _atom_site_label
 _atom_site_symmetry_multiplicity
 _atom_site_fract_x
 _atom_site_fract_y
 _atom_site_fract_z
 _atom_site_occupancy
  Ba  Ba0  1  0.03337881  0.25000000  0.50000000  1
  Ba  Ba1  1  0.96662119  0.75000000  0.00000000  1
  Ba  Ba2  1  0.96662119  0.75000000  0.50000000  1
  Ba  Ba3  1  0.03337881  0.25000000  0.00000000  1
  Sb  Sb0  1  0.58830378  0.95054478  0.75000000  1
  Sb  Sb1  1  0.58830378  0.54945522  0.25000000  1
  Sb  Sb2  1  0.41169622  0.45054478  0.75000000  1
  Sb  Sb3  1  0.41169622  0.04945522  0.25000000  1
  F  F0  1  0.12631852  0.98641806  0.38390152  1
  F  F1  1  0.12631852  0.51358194  0.61609848  1
  F  F2  1  0.87368148  0.48641806  0.11609848  1
  F  F3  1  0.87368148  0.01358194  0.88390152  1
  F  F4  1  0.87368148  0.01358194  0.61609848  1
  F  F5  1  0.87368148  0.48641806  0.38390152  1
  F  F6  1  0.12631852  0.51358194  0.88390152  1
  F  F7  1  0.12631852  0.98641806  0.11609848  1
  F  F8  1  0.11927665  0.20399031  0.25000000  1
  F  F9  1  0.11927665  0.29600969  0.75000000  1
  F  F10  1  0.88072335  0.70399031  0.25000000  1
  F  F11  1  0.88072335  0.79600969  0.75000000  1
  F  F12  1  0.45332210  0.68920568  0.11571257  1
  F  F13  1  0.45332210  0.81079432  0.88428743  1
  F  F14  1  0.54667790  0.18920568  0.38428743  1
  F  F15  1  0.54667790  0.31079432  0.61571257  1
  F  F16  1  0.54667790  0.31079432  0.88428743  1
  F  F17  1  0.54667790  0.18920568  0.11571257  1
  F  F18  1  0.45332210  0.81079432  0.61571257  1
  F  F19  1  0.45332210  0.68920568  0.38428743  1
loop_
_geom_bond_atom_site_label_1
_geom_bond_atom_site_label_2
_geom_bond_distance
_geom_bond_site_symmetry_2
Ba0 F5 2.666246 1_455
Ba0 F4 2.666246 1_455
Ba0 F14 2.694240 1_455
Ba0 F15 2.694240 1_455
Ba0 F14 2.801877 1_555
Ba0 F15 2.801877 1_555
Ba0 F0 2.813377 1_545
Ba0 F1 2.813377 1_555
Ba0 F8 2.852834 1_555
Ba0 F9 2.852834 1_555
Ba1 F7 2.666246 1_655
Ba1 F6 2.666246 1_654
Ba1 F12 2.694240 1_655
Ba1 F13 2.694240 1_654
Ba1 F13 2.801877 1_554
Ba1 F12 2.801877 1_555
Ba1 F3 2.813377 1_564
Ba1 F2 2.813377 1_555
Ba1 F10 2.852834 1_555
Ba1 F11 2.852834 1_554
Ba2 F0 2.666246 1_655
Ba2 F1 2.666246 1_655
Ba2 F19 2.694240 1_655
Ba2 F18 2.694240 1_655
Ba2 F19 2.801877 1_555
Ba2 F18 2.801877 1_555
Ba2 F4 2.813377 1_565
Ba2 F5 2.813377 1_555
Ba2 F11 2.852834 1_555
Ba2 F10 2.852834 1_555
Ba3 F2 2.666246 1_455
Ba3 F3 2.666246 1_454
Ba3 F16 2.694240 1_454
Ba3 F17 2.694240 1_455
Ba3 F16 2.801877 1_554
Ba3 F17 2.801877 1_555
Ba3 F6 2.813377 1_554
Ba3 F7 2.813377 1_545
Ba3 F8 2.852834 1_555
Ba3 F9 2.852834 1_554
F0 Sb3 2.095675 1_565
F1 Sb2 2.095675 1_555
F2 Sb1 2.095675 1_555
F3 Sb0 2.095675 1_545
F4 Sb0 2.095675 1_545
F5 Sb1 2.095675 1_555
F6 Sb2 2.095675 1_555
F7 Sb3 2.095675 1_565
F8 Sb3 1.994742 1_555
F9 Sb2 1.994742 1_555
F10 Sb1 1.994742 1_555
F11 Sb0 1.994742 1_555
F12 Sb1 2.086078 1_555
F13 Sb0 2.086078 1_555
F14 Sb3 2.086078 1_555
F15 Sb2 2.086078 1_555
F16 Sb2 2.086078 1_555
F17 Sb3 2.086078 1_555
F18 Sb0 2.086078 1_555
F19 Sb1 2.086078 1_555
