# generated using pymatgen
data_Cs2Pt3Se4
_symmetry_space_group_name_H-M   'P 1'
_cell_length_a   6.62406570
_cell_length_b   6.62406519
_cell_length_c   7.81662306
_cell_angle_alpha   102.48218769
_cell_angle_beta   102.48218626
_cell_angle_gamma   119.33428385
_symmetry_Int_Tables_number   1
_chemical_formula_structural   Cs2Pt3Se4
_chemical_formula_sum   'Cs2 Pt3 Se4'
_cell_volume   270.23507043
_cell_formula_units_Z   1
loop_
 _symmetry_equiv_pos_site_id
 _symmetry_equiv_pos_as_xyz
  1  'x, y, z'
loop_
 _atom_site_type_symbol
 _atom_site_label
 _atom_site_symmetry_multiplicity
 _atom_site_fract_x
 _atom_site_fract_y
 _atom_site_fract_z
 _atom_site_occupancy
  Cs  Cs0  1  0.64626359  0.64626359  0.29252817  1
  Cs  Cs1  1  0.35373641  0.35373641  0.70747183  1
  Pt  Pt0  1  0.50000000  -0.00000000  -0.00000000  1
  Pt  Pt1  1  -0.00000000  -0.00000000  -0.00000000  1
  Pt  Pt2  1  -0.00000000  0.50000000  -0.00000000  1
  Se  Se0  1  0.72135992  0.05665821  0.77801713  1
  Se  Se1  1  0.05665821  0.72135992  0.77801713  1
  Se  Se2  1  0.27864008  0.94334179  0.22198287  1
  Se  Se3  1  0.94334179  0.27864008  0.22198287  1
loop_
_geom_bond_atom_site_label_1
_geom_bond_atom_site_label_2
_geom_bond_distance
_geom_bond_site_symmetry_2
Cs0 Se3 3.832819 1_555
Cs0 Se2 3.832819 1_555
Cs0 Se2 3.887709 1_545
Cs0 Se3 3.887710 1_565
Cs0 Se2 3.887710 1_655
Cs0 Se3 3.887710 1_455
Cs0 Pt0 3.903890 1_555
Cs0 Pt2 3.903890 1_555
Cs0 Pt0 3.903893 1_565
Cs0 Pt2 3.903893 1_655
Cs0 Se0 3.929157 1_565
Cs0 Se1 3.929157 1_655
Cs0 Pt1 3.932155 1_555
Cs0 Pt1 3.932161 1_665
Cs1 Se1 3.832819 1_555
Cs1 Se0 3.832819 1_555
Cs1 Se0 3.887709 1_565
Cs1 Se1 3.887710 1_545
Cs1 Se0 3.887710 1_455
Cs1 Se1 3.887710 1_655
Cs1 Pt0 3.903890 1_566
Cs1 Pt2 3.903890 1_656
Cs1 Pt0 3.903893 1_556
Cs1 Pt2 3.903893 1_556
Cs1 Se2 3.929157 1_545
Cs1 Se3 3.929157 1_455
Cs1 Pt1 3.932155 1_666
Cs1 Pt1 3.932161 1_556
Pt0 Se3 2.478661 1_555
Pt0 Se1 2.478661 1_544
Pt0 Se0 2.478665 1_554
Pt0 Se2 2.478665 1_545
Pt1 Se1 2.476725 1_544
Pt1 Se3 2.476725 1_455
Pt1 Se2 2.476725 1_545
Pt1 Se0 2.476725 1_454
Pt2 Se0 2.478661 1_454
Pt2 Se2 2.478661 1_555
Pt2 Se3 2.478665 1_455
Pt2 Se1 2.478665 1_554
