# generated using pymatgen
data_Ag3Pd
_symmetry_space_group_name_H-M   'P 1'
_cell_length_a   5.72032969
_cell_length_b   5.72033081
_cell_length_c   4.70610493
_cell_angle_alpha   89.99999969
_cell_angle_beta   90.00000010
_cell_angle_gamma   120.00005981
_symmetry_Int_Tables_number   1
_chemical_formula_structural   Ag3Pd
_chemical_formula_sum   'Ag6 Pd2'
_cell_volume   133.36263915
_cell_formula_units_Z   2
loop_
 _symmetry_equiv_pos_site_id
 _symmetry_equiv_pos_as_xyz
  1  'x, y, z'
loop_
 _atom_site_type_symbol
 _atom_site_label
 _atom_site_symmetry_multiplicity
 _atom_site_fract_x
 _atom_site_fract_y
 _atom_site_fract_z
 _atom_site_occupancy
  Ag  Ag0  1  0.83213328  0.16786644  0.75000144  1
  Ag  Ag1  1  0.33573232  0.16786655  0.75000144  1
  Ag  Ag2  1  0.83213333  0.66426592  0.75000144  1
  Ag  Ag3  1  0.16787384  0.83212640  0.24999955  1
  Ag  Ag4  1  0.66425444  0.83212626  0.24999954  1
  Ag  Ag5  1  0.16787382  0.33574557  0.24999955  1
  Pd  Pd0  1  0.66666791  0.33333381  0.24999949  1
  Pd  Pd1  1  0.33333306  0.66666705  0.75000155  1
loop_
_geom_bond_atom_site_label_1
_geom_bond_atom_site_label_2
_geom_bond_distance
_geom_bond_site_symmetry_2
Ag0 Ag2 2.839569 1_555
Ag0 Ag1 2.839577 1_555
Ag0 Pd1 2.860186 1_545
Ag0 Pd1 2.860188 1_655
Ag0 Pd0 2.867844 1_556
Ag0 Pd0 2.867859 1_555
Ag0 Ag1 2.880752 1_655
Ag0 Ag2 2.880762 1_545
Ag0 Ag4 2.881524 1_546
Ag0 Ag5 2.881525 1_656
Ag0 Ag4 2.881539 1_545
Ag0 Ag5 2.881539 1_655
Ag1 Ag2 2.839570 1_555
Ag1 Pd1 2.860189 1_545
Ag1 Pd1 2.860191 1_555
Ag1 Pd0 2.867851 1_556
Ag1 Pd0 2.867866 1_555
Ag1 Ag2 2.880755 1_445
Ag1 Ag5 2.881517 1_556
Ag1 Ag3 2.881524 1_546
Ag1 Ag5 2.881532 1_555
Ag1 Ag3 2.881538 1_545
Ag2 Pd1 2.860185 1_655
Ag2 Pd1 2.860194 1_555
Ag2 Pd0 2.867841 1_556
Ag2 Pd0 2.867856 1_555
Ag2 Ag4 2.881522 1_556
Ag2 Ag3 2.881525 1_656
Ag2 Ag4 2.881537 1_555
Ag2 Ag3 2.881539 1_655
Ag3 Ag4 2.839461 1_555
Ag3 Ag5 2.839462 1_555
Ag3 Pd0 2.860183 1_455
Ag3 Pd0 2.860192 1_565
Ag3 Pd1 2.867803 1_554
Ag3 Pd1 2.867819 1_555
Ag3 Ag5 2.880868 1_565
Ag3 Ag4 2.880869 1_455
Ag4 Ag5 2.839459 1_555
Ag4 Pd0 2.860186 1_555
Ag4 Pd0 2.860195 1_565
Ag4 Pd1 2.867810 1_554
Ag4 Pd1 2.867826 1_555
Ag4 Ag5 2.880866 1_665
Ag5 Pd0 2.860190 1_555
Ag5 Pd0 2.860190 1_455
Ag5 Pd1 2.867811 1_554
Ag5 Pd1 2.867826 1_555
