# generated using pymatgen
data_AgPd2Au
_symmetry_space_group_name_H-M   'P 1'
_cell_length_a   18.82203444
_cell_length_b   18.82203444
_cell_length_c   18.82203437
_cell_angle_alpha   17.33277803
_cell_angle_beta   17.33277803
_cell_angle_gamma   17.33277977
_symmetry_Int_Tables_number   1
_chemical_formula_structural   AgPd2Au
_chemical_formula_sum   'Ag8 Pd16 Au8'
_cell_volume   516.45397435
_cell_formula_units_Z   8
loop_
 _symmetry_equiv_pos_site_id
 _symmetry_equiv_pos_as_xyz
  1  'x, y, z'
loop_
 _atom_site_type_symbol
 _atom_site_label
 _atom_site_symmetry_multiplicity
 _atom_site_fract_x
 _atom_site_fract_y
 _atom_site_fract_z
 _atom_site_occupancy
  Ag  Ag0_0  1  0.49897073  0.49897073  0.49897073  1
  Ag  Ag0_1  1  0.49897073  0.49897073  0.99897073  1
  Ag  Ag0_2  1  0.49897073  0.99897073  0.49897073  1
  Ag  Ag0_3  1  0.49897073  0.99897073  0.99897073  1
  Ag  Ag0_4  1  0.99897073  0.49897073  0.49897073  1
  Ag  Ag0_5  1  0.99897073  0.49897073  0.99897073  1
  Ag  Ag0_6  1  0.99897073  0.99897073  0.49897073  1
  Ag  Ag0_7  1  0.99897073  0.99897073  0.99897073  1
  Pd  Pd0_0  1  0.25083538  0.25083538  0.25083538  1
  Pd  Pd0_1  1  0.25083538  0.25083538  0.75083538  1
  Pd  Pd0_2  1  0.25083538  0.75083538  0.25083538  1
  Pd  Pd0_3  1  0.25083538  0.75083538  0.75083538  1
  Pd  Pd0_4  1  0.75083538  0.25083538  0.25083538  1
  Pd  Pd0_5  1  0.75083538  0.25083538  0.75083538  1
  Pd  Pd0_6  1  0.75083538  0.75083538  0.25083538  1
  Pd  Pd0_7  1  0.75083538  0.75083538  0.75083538  1
  Pd  Pd1_0  1  0.12443579  0.12443579  0.12443579  1
  Pd  Pd1_1  1  0.12443579  0.12443579  0.62443579  1
  Pd  Pd1_2  1  0.12443579  0.62443579  0.12443579  1
  Pd  Pd1_3  1  0.12443579  0.62443579  0.62443579  1
  Pd  Pd1_4  1  0.62443579  0.12443579  0.12443579  1
  Pd  Pd1_5  1  0.62443579  0.12443579  0.62443579  1
  Pd  Pd1_6  1  0.62443579  0.62443579  0.12443579  1
  Pd  Pd1_7  1  0.62443579  0.62443579  0.62443579  1
  Au  Au0_0  1  0.37575809  0.37575809  0.37575810  1
  Au  Au0_1  1  0.37575809  0.37575809  0.87575810  1
  Au  Au0_2  1  0.37575810  0.87575809  0.37575810  1
  Au  Au0_3  1  0.37575809  0.87575809  0.87575810  1
  Au  Au0_4  1  0.87575809  0.37575810  0.37575810  1
  Au  Au0_5  1  0.87575809  0.37575809  0.87575810  1
  Au  Au0_6  1  0.87575810  0.87575810  0.37575810  1
  Au  Au0_7  1  0.87575810  0.87575810  0.87575809  1
loop_
_geom_bond_atom_site_label_1
_geom_bond_atom_site_label_2
_geom_bond_distance
_geom_bond_site_symmetry_2
Ag0_0 Pd1_6 2.816011 1_555
Ag0_0 Pd1_5 2.816011 1_555
Ag0_0 Pd1_3 2.816011 1_555
Ag0_0 Ag0_5 2.836121 1_455
Ag0_0 Ag0_3 2.836121 1_545
Ag0_0 Ag0_5 2.836121 1_554
Ag0_0 Ag0_3 2.836121 1_554
Ag0_0 Ag0_6 2.836122 1_455
Ag0_0 Ag0_6 2.836122 1_545
Ag0_0 Au0_1 2.918815 1_555
Ag0_0 Au0_2 2.918815 1_555
Ag0_0 Au0_4 2.918815 1_555
Ag0_1 Pd1_7 2.816011 1_555
Ag0_1 Pd1_4 2.816011 1_556
Ag0_1 Pd1_2 2.816011 1_556
Ag0_1 Ag0_4 2.836121 1_555
Ag0_1 Ag0_2 2.836121 1_546
Ag0_1 Ag0_4 2.836121 1_456
Ag0_1 Ag0_2 2.836121 1_555
Ag0_1 Ag0_7 2.836122 1_545
Ag0_1 Ag0_7 2.836122 1_455
Ag0_1 Au0_0 2.918815 1_556
Ag0_1 Au0_3 2.918815 1_555
Ag0_1 Au0_5 2.918815 1_555
Ag0_2 Pd1_4 2.816011 1_565
Ag0_2 Pd1_7 2.816011 1_555
Ag0_2 Pd1_1 2.816011 1_565
Ag0_2 Ag0_7 2.836121 1_554
Ag0_2 Ag0_7 2.836121 1_455
Ag0_2 Ag0_4 2.836122 1_465
Ag0_2 Ag0_4 2.836122 1_555
Ag0_2 Au0_3 2.918815 1_555
Ag0_2 Au0_0 2.918815 1_565
Ag0_2 Au0_6 2.918815 1_555
Ag0_3 Pd1_5 2.816011 1_565
Ag0_3 Pd1_6 2.816011 1_556
Ag0_3 Pd1_0 2.816011 1_566
Ag0_3 Ag0_6 2.836121 1_555
Ag0_3 Ag0_6 2.836121 1_456
Ag0_3 Ag0_5 2.836122 1_555
Ag0_3 Ag0_5 2.836122 1_465
Ag0_3 Au0_2 2.918815 1_556
Ag0_3 Au0_1 2.918815 1_565
Ag0_3 Au0_7 2.918815 1_555
Ag0_4 Pd1_2 2.816011 1_655
Ag0_4 Pd1_7 2.816011 1_555
Ag0_4 Pd1_1 2.816011 1_655
Ag0_4 Ag0_7 2.836121 1_554
Ag0_4 Ag0_7 2.836121 1_545
Ag0_4 Au0_5 2.918815 1_555
Ag0_4 Au0_0 2.918815 1_655
Ag0_4 Au0_6 2.918815 1_555
Ag0_5 Pd1_3 2.816011 1_655
Ag0_5 Pd1_6 2.816011 1_556
Ag0_5 Pd1_0 2.816011 1_656
Ag0_5 Ag0_6 2.836121 1_546
Ag0_5 Ag0_6 2.836121 1_555
Ag0_5 Au0_4 2.918815 1_556
Ag0_5 Au0_1 2.918815 1_655
Ag0_5 Au0_7 2.918815 1_555
Ag0_6 Pd1_0 2.816011 1_665
Ag0_6 Pd1_3 2.816011 1_655
Ag0_6 Pd1_5 2.816011 1_565
Ag0_6 Au0_7 2.918815 1_555
Ag0_6 Au0_4 2.918815 1_565
Ag0_6 Au0_2 2.918815 1_655
Ag0_7 Pd1_1 2.816011 1_665
Ag0_7 Pd1_4 2.816011 1_566
Ag0_7 Pd1_2 2.816011 1_656
Ag0_7 Au0_6 2.918815 1_556
Ag0_7 Au0_3 2.918815 1_655
Ag0_7 Au0_5 2.918815 1_565
Pd0_0 Pd1_1 2.773899 1_555
Pd0_0 Pd1_4 2.773899 1_555
Pd0_0 Pd1_2 2.773899 1_555
Pd0_0 Pd0_5 2.836121 1_554
Pd0_0 Pd0_3 2.836121 1_554
Pd0_0 Pd0_3 2.836121 1_545
Pd0_0 Pd0_5 2.836121 1_455
Pd0_0 Pd0_6 2.836122 1_455
Pd0_0 Pd0_6 2.836122 1_545
Pd0_1 Pd1_0 2.773899 1_556
Pd0_1 Pd1_5 2.773899 1_555
Pd0_1 Pd1_3 2.773899 1_555
Pd0_1 Pd0_2 2.836121 1_555
Pd0_1 Pd0_4 2.836121 1_456
Pd0_1 Pd0_2 2.836121 1_546
Pd0_1 Pd0_4 2.836121 1_555
Pd0_1 Pd0_7 2.836122 1_455
Pd0_1 Pd0_7 2.836122 1_545
Pd0_2 Pd1_3 2.773899 1_555
Pd0_2 Pd1_0 2.773899 1_565
Pd0_2 Pd1_6 2.773899 1_555
Pd0_2 Pd0_7 2.836121 1_455
Pd0_2 Pd0_7 2.836121 1_554
Pd0_2 Pd0_4 2.836122 1_465
Pd0_2 Pd0_4 2.836122 1_555
Pd0_3 Pd1_2 2.773899 1_556
Pd0_3 Pd1_1 2.773899 1_565
Pd0_3 Pd1_7 2.773899 1_555
Pd0_3 Pd0_6 2.836121 1_456
Pd0_3 Pd0_6 2.836121 1_555
Pd0_3 Pd0_5 2.836122 1_555
Pd0_3 Pd0_5 2.836122 1_465
Pd0_4 Pd1_5 2.773899 1_555
Pd0_4 Pd1_0 2.773899 1_655
Pd0_4 Pd1_6 2.773899 1_555
Pd0_4 Pd0_7 2.836121 1_545
Pd0_4 Pd0_7 2.836121 1_554
Pd0_5 Pd1_4 2.773899 1_556
Pd0_5 Pd1_1 2.773899 1_655
Pd0_5 Pd1_7 2.773899 1_555
Pd0_5 Pd0_6 2.836121 1_546
Pd0_5 Pd0_6 2.836121 1_555
Pd0_6 Pd1_7 2.773899 1_555
Pd0_6 Pd1_2 2.773899 1_655
Pd0_6 Pd1_4 2.773899 1_565
Pd0_7 Pd1_6 2.773899 1_556
Pd0_7 Pd1_3 2.773899 1_655
Pd0_7 Pd1_5 2.773899 1_565
Pd1_0 Pd1_3 2.836121 1_554
Pd1_0 Pd1_5 2.836121 1_455
Pd1_0 Pd1_3 2.836121 1_545
Pd1_0 Pd1_5 2.836121 1_554
Pd1_0 Pd1_6 2.836122 1_545
Pd1_0 Pd1_6 2.836122 1_455
Pd1_1 Pd1_2 2.836121 1_555
Pd1_1 Pd1_4 2.836121 1_555
Pd1_1 Pd1_4 2.836121 1_456
Pd1_1 Pd1_2 2.836121 1_546
Pd1_1 Pd1_7 2.836122 1_545
Pd1_1 Pd1_7 2.836122 1_455
Pd1_2 Pd1_7 2.836121 1_455
Pd1_2 Pd1_7 2.836121 1_554
Pd1_2 Pd1_4 2.836122 1_465
Pd1_2 Pd1_4 2.836122 1_555
Pd1_3 Pd1_6 2.836121 1_456
Pd1_3 Pd1_6 2.836121 1_555
Pd1_3 Pd1_5 2.836122 1_465
Pd1_3 Pd1_5 2.836122 1_555
Pd1_4 Pd1_7 2.836121 1_545
Pd1_4 Pd1_7 2.836121 1_554
Pd1_5 Pd1_6 2.836121 1_555
Pd1_5 Pd1_6 2.836121 1_546
Au0_0 Au0_3 2.836121 1_554
Au0_0 Au0_5 2.836121 1_554
Au0_0 Au0_3 2.836121 1_545
Au0_0 Au0_5 2.836121 1_455
Au0_0 Au0_6 2.836122 1_455
Au0_0 Au0_6 2.836122 1_545
Au0_0 Pd0_1 2.840599 1_555
Au0_0 Pd0_2 2.840599 1_555
Au0_0 Pd0_4 2.840599 1_555
Au0_1 Au0_2 2.836121 1_555
Au0_1 Au0_4 2.836121 1_456
Au0_1 Au0_2 2.836121 1_546
Au0_1 Au0_4 2.836121 1_555
Au0_1 Au0_7 2.836122 1_545
Au0_1 Au0_7 2.836122 1_455
Au0_1 Pd0_0 2.840599 1_556
Au0_1 Pd0_5 2.840599 1_555
Au0_1 Pd0_3 2.840599 1_555
Au0_2 Au0_7 2.836121 1_455
Au0_2 Au0_7 2.836121 1_554
Au0_2 Au0_4 2.836122 1_555
Au0_2 Au0_4 2.836122 1_465
Au0_2 Pd0_3 2.840599 1_555
Au0_2 Pd0_0 2.840599 1_565
Au0_2 Pd0_6 2.840599 1_555
Au0_3 Au0_6 2.836121 1_456
Au0_3 Au0_6 2.836121 1_555
Au0_3 Au0_5 2.836122 1_465
Au0_3 Au0_5 2.836122 1_555
Au0_3 Pd0_2 2.840599 1_556
Au0_3 Pd0_7 2.840599 1_555
Au0_3 Pd0_1 2.840599 1_565
Au0_4 Au0_7 2.836121 1_545
Au0_4 Au0_7 2.836121 1_554
Au0_4 Pd0_5 2.840599 1_555
Au0_4 Pd0_0 2.840599 1_655
Au0_4 Pd0_6 2.840599 1_555
Au0_5 Au0_6 2.836121 1_546
Au0_5 Au0_6 2.836121 1_555
Au0_5 Pd0_4 2.840599 1_556
Au0_5 Pd0_7 2.840599 1_555
Au0_5 Pd0_1 2.840599 1_655
Au0_6 Pd0_7 2.840599 1_555
Au0_6 Pd0_2 2.840599 1_655
Au0_6 Pd0_4 2.840599 1_565
Au0_7 Pd0_6 2.840599 1_556
Au0_7 Pd0_5 2.840599 1_565
Au0_7 Pd0_3 2.840599 1_655
