# generated using pymatgen
data_YAlNi
_symmetry_space_group_name_H-M   'P 1'
_cell_length_a   6.93797313
_cell_length_b   6.93797358
_cell_length_c   3.88788944
_cell_angle_alpha   90.00000000
_cell_angle_beta   90.00000000
_cell_angle_gamma   120.00001248
_symmetry_Int_Tables_number   1
_chemical_formula_structural   YAlNi
_chemical_formula_sum   'Y3 Al3 Ni3'
_cell_volume   162.07265204
_cell_formula_units_Z   3
loop_
 _symmetry_equiv_pos_site_id
 _symmetry_equiv_pos_as_xyz
  1  'x, y, z'
loop_
 _atom_site_type_symbol
 _atom_site_label
 _atom_site_symmetry_multiplicity
 _atom_site_fract_x
 _atom_site_fract_y
 _atom_site_fract_z
 _atom_site_occupancy
  Y  Y0  1  -0.00000000  0.58303951  -0.00000000  1
  Y  Y1  1  0.58303951  -0.00000000  0.00000000  1
  Y  Y2  1  0.41696049  0.41696049  0.00000000  1
  Al  Al0  1  0.23254466  0.00000000  0.50000000  1
  Al  Al1  1  0.76745534  0.76745534  0.50000000  1
  Al  Al2  1  0.00000000  0.23254466  0.50000000  1
  Ni  Ni0  1  0.66666700  0.33333300  0.50000000  1
  Ni  Ni1  1  0.00000000  0.00000000  0.00000000  1
  Ni  Ni2  1  0.33333300  0.66666700  0.50000000  1
loop_
_geom_bond_atom_site_label_1
_geom_bond_atom_site_label_2
_geom_bond_distance
_geom_bond_site_symmetry_2
Al0 Ni1 2.526251 1_556
Al0 Ni1 2.526251 1_555
Al0 Ni2 2.730296 1_545
Al0 Ni0 2.730300 1_555
Al0 Al1 2.794471 1_445
Al0 Al2 2.794471 1_555
Al0 Y1 3.113230 1_555
Al0 Y1 3.113230 1_556
Al0 Y0 3.175418 1_545
Al0 Y0 3.175418 1_546
Al0 Y2 3.175418 1_556
Al0 Y2 3.175418 1_555
Al1 Ni1 2.526251 1_665
Al1 Ni1 2.526251 1_666
Al1 Ni2 2.730302 1_555
Al1 Ni0 2.730302 1_555
Al1 Al2 2.794471 1_665
Al1 Y2 3.113230 1_556
Al1 Y2 3.113230 1_555
Al1 Y0 3.175418 1_656
Al1 Y0 3.175418 1_655
Al1 Y1 3.175418 1_565
Al1 Y1 3.175418 1_566
Al2 Ni1 2.526251 1_556
Al2 Ni1 2.526251 1_555
Al2 Ni0 2.730295 1_455
Al2 Ni2 2.730300 1_555
Al2 Y0 3.113230 1_556
Al2 Y0 3.113230 1_555
Al2 Y1 3.175418 1_456
Al2 Y1 3.175418 1_455
Al2 Y2 3.175418 1_555
Al2 Y2 3.175418 1_556
Ni0 Y1 2.849933 1_556
Ni0 Y1 2.849933 1_555
Ni0 Y0 2.849934 1_655
Ni0 Y0 2.849934 1_656
Ni0 Y2 2.849938 1_555
Ni0 Y2 2.849938 1_556
Ni1 Y2 2.892860 1_555
Ni1 Y1 2.892861 1_455
Ni1 Y0 2.892861 1_545
Ni2 Y0 2.849933 1_556
Ni2 Y0 2.849933 1_555
Ni2 Y1 2.849934 1_566
Ni2 Y1 2.849934 1_565
Ni2 Y2 2.849938 1_556
Ni2 Y2 2.849938 1_555
