# generated using pymatgen
data_K2MnV14O40
_symmetry_space_group_name_H-M   'P 1'
_cell_length_a   12.95563776
_cell_length_b   12.95563776
_cell_length_c   12.95563776
_cell_angle_alpha   127.00734550
_cell_angle_beta   127.00734550
_cell_angle_gamma   78.23870146
_symmetry_Int_Tables_number   1
_chemical_formula_structural   K2MnV14O40
_chemical_formula_sum   'K2 Mn1 V14 O40'
_cell_volume   1343.22270766
_cell_formula_units_Z   1
loop_
 _symmetry_equiv_pos_site_id
 _symmetry_equiv_pos_as_xyz
  1  'x, y, z'
loop_
 _atom_site_type_symbol
 _atom_site_label
 _atom_site_symmetry_multiplicity
 _atom_site_fract_x
 _atom_site_fract_y
 _atom_site_fract_z
 _atom_site_occupancy
  K  K0  1  0.50000000  0.00000000  0.50000000  1
  K  K1  1  0.00000000  0.50000000  0.50000000  1
  Mn  Mn0  1  0.50000000  0.50000000  0.00000000  1
  V  V0  1  0.28287300  0.28287300  0.00000000  1
  V  V1  1  0.71712700  0.71712700  0.00000000  1
  V  V2  1  0.70137100  0.29862900  0.00000000  1
  V  V3  1  0.29862900  0.70137100  0.00000000  1
  V  V4  1  0.70137100  0.70137100  0.40274100  1
  V  V5  1  0.29862900  0.29862900  0.59725900  1
  V  V6  1  0.39227200  0.19318900  0.80091700  1
  V  V7  1  0.39227200  0.59135500  0.19908300  1
  V  V8  1  0.19318900  0.39227200  0.80091700  1
  V  V9  1  0.59135500  0.39227200  0.19908300  1
  V  V10  1  0.60772800  0.80681100  0.19908300  1
  V  V11  1  0.60772800  0.40864500  0.80091700  1
  V  V12  1  0.80681100  0.60772800  0.19908300  1
  V  V13  1  0.40864500  0.60772800  0.80091700  1
  O  O0  1  0.57231600  0.24604300  0.00000000  1
  O  O1  1  0.24604300  0.57231600  0.00000000  1
  O  O2  1  0.57231600  0.57231600  0.32627300  1
  O  O3  1  0.24604300  0.24604300  0.67372700  1
  O  O4  1  0.42768400  0.75395700  0.00000000  1
  O  O5  1  0.75395700  0.42768400  0.00000000  1
  O  O6  1  0.42768400  0.42768400  0.67372700  1
  O  O7  1  0.75395700  0.75395700  0.32627300  1
  O  O8  1  0.50000000  0.66889900  0.16889900  1
  O  O9  1  0.50000000  0.33110100  0.83110100  1
  O  O10  1  0.66889900  0.50000000  0.16889900  1
  O  O11  1  0.33110100  0.50000000  0.83110100  1
  O  O12  1  0.20297000  0.20297000  0.00000000  1
  O  O13  1  0.79703000  0.79703000  0.00000000  1
  O  O14  1  0.30798500  0.14723500  0.83925000  1
  O  O15  1  0.30798500  0.46873400  0.16075000  1
  O  O16  1  0.14723500  0.30798500  0.83925000  1
  O  O17  1  0.46873400  0.30798500  0.16075000  1
  O  O18  1  0.69201500  0.85276500  0.16075000  1
  O  O19  1  0.69201500  0.53126600  0.83925000  1
  O  O20  1  0.85276500  0.69201500  0.16075000  1
  O  O21  1  0.53126600  0.69201500  0.83925000  1
  O  O22  1  0.39630200  0.05651500  0.66021300  1
  O  O23  1  0.39630200  0.73608800  0.33978700  1
  O  O24  1  0.05651500  0.39630200  0.66021300  1
  O  O25  1  0.73608800  0.39630200  0.33978700  1
  O  O26  1  0.60369800  0.94348500  0.33978700  1
  O  O27  1  0.60369800  0.26391200  0.66021300  1
  O  O28  1  0.94348500  0.60369800  0.33978700  1
  O  O29  1  0.26391200  0.60369800  0.66021300  1
  O  O30  1  0.40675600  0.40675600  0.00000000  1
  O  O31  1  0.59324400  0.59324400  0.00000000  1
  O  O32  1  0.84595200  0.31015800  0.15611000  1
  O  O33  1  0.15404800  0.68984200  0.84389000  1
  O  O34  1  0.84595200  0.68984200  0.53579400  1
  O  O35  1  0.15404800  0.31015800  0.46420600  1
  O  O36  1  0.31015800  0.15404800  0.46420600  1
  O  O37  1  0.68984200  0.84595200  0.53579400  1
  O  O38  1  0.31015800  0.84595200  0.15611000  1
  O  O39  1  0.68984200  0.15404800  0.84389000  1
loop_
_geom_bond_atom_site_label_1
_geom_bond_atom_site_label_2
_geom_bond_distance
_geom_bond_site_symmetry_2
K0 O26 2.788518 1_545
K0 O22 2.788518 1_555
K0 O27 2.788529 1_555
K0 O23 2.788529 1_545
K0 O37 2.826213 1_545
K0 O39 2.826213 1_555
K0 O36 2.826213 1_555
K0 O38 2.826213 1_545
K1 O28 2.788518 1_455
K1 O24 2.788518 1_555
K1 O29 2.788529 1_555
K1 O25 2.788529 1_455
K1 O34 2.826213 1_455
K1 O35 2.826213 1_555
K1 O33 2.826213 1_555
K1 O32 2.826213 1_455
Mn0 O30 1.874468 1_555
Mn0 O31 1.874468 1_555
Mn0 O8 1.952484 1_555
Mn0 O10 1.952484 1_555
Mn0 O11 1.952484 1_554
Mn0 O9 1.952484 1_554
O0 V2 1.929787 1_555
O0 V6 1.960791 1_554
O0 V9 1.960791 1_555
O1 V3 1.929787 1_555
O1 V8 1.960791 1_554
O1 V7 1.960791 1_555
O2 V4 1.929794 1_555
O2 V9 1.960791 1_555
O2 V7 1.960791 1_555
O3 V5 1.929775 1_555
O3 V8 1.960791 1_555
O3 V6 1.960791 1_555
O4 V3 1.929787 1_555
O4 V13 1.960791 1_554
O4 V10 1.960791 1_555
O5 V2 1.929787 1_555
O5 V11 1.960791 1_554
O5 V12 1.960791 1_555
O6 V5 1.929794 1_555
O6 V11 1.960791 1_555
O6 V13 1.960791 1_555
O7 V4 1.929775 1_555
O7 V12 1.960791 1_555
O7 V10 1.960791 1_555
O8 V10 2.193568 1_555
O8 V7 2.193568 1_555
O8 V4 2.357927 1_555
O8 V3 2.357934 1_555
O9 V6 2.193568 1_555
O9 V11 2.193568 1_555
O9 V5 2.357927 1_555
O9 V2 2.357934 1_556
O10 V12 2.193568 1_555
O10 V9 2.193568 1_555
O10 V4 2.357927 1_555
O10 V2 2.357934 1_555
O11 V8 2.193568 1_555
O11 V13 2.193568 1_555
O11 V5 2.357927 1_555
O11 V3 2.357934 1_556
O12 V0 1.606277 1_555
O13 V1 1.606277 1_555
O14 V6 1.751394 1_555
O14 V0 1.925631 1_556
O15 V7 1.751406 1_555
O15 V0 1.925622 1_555
O16 V8 1.751394 1_555
O16 V0 1.925631 1_556
O17 V9 1.751406 1_555
O17 V0 1.925622 1_555
O18 V10 1.751394 1_555
O18 V1 1.925631 1_555
O19 V11 1.751406 1_555
O19 V1 1.925622 1_556
O20 V12 1.751394 1_555
O20 V1 1.925631 1_555
O21 V13 1.751406 1_555
O21 V1 1.925622 1_556
O22 V6 1.628564 1_555
O23 V7 1.628558 1_555
O24 V8 1.628564 1_555
O25 V9 1.628558 1_555
O26 V10 1.628564 1_555
O27 V11 1.628558 1_555
O28 V12 1.628564 1_555
O29 V13 1.628558 1_555
O30 V9 2.319759 1_555
O30 V7 2.319759 1_555
O30 V8 2.319759 1_554
O30 V6 2.319759 1_554
O30 V0 2.490399 1_555
O31 V12 2.319759 1_555
O31 V10 2.319759 1_555
O31 V11 2.319759 1_554
O31 V13 2.319759 1_554
O31 V1 2.490399 1_555
O32 V2 1.676672 1_555
O33 V3 1.676672 1_556
O34 V4 1.676677 1_555
O35 V5 1.676677 1_555
O36 V5 1.676677 1_555
O37 V4 1.676677 1_555
O38 V3 1.676672 1_555
O39 V2 1.676672 1_556
