# generated using pymatgen
data_HfAu
_symmetry_space_group_name_H-M   'P 1'
_cell_length_a   6.96772512
_cell_length_b   6.96772512
_cell_length_c   12.64104424
_cell_angle_alpha   90.00000000
_cell_angle_beta   90.00000000
_cell_angle_gamma   90.00000000
_symmetry_Int_Tables_number   1
_chemical_formula_structural   HfAu
_chemical_formula_sum   'Hf16 Au16'
_cell_volume   613.71250093
_cell_formula_units_Z   16
loop_
 _symmetry_equiv_pos_site_id
 _symmetry_equiv_pos_as_xyz
  1  'x, y, z'
loop_
 _atom_site_type_symbol
 _atom_site_label
 _atom_site_symmetry_multiplicity
 _atom_site_fract_x
 _atom_site_fract_y
 _atom_site_fract_z
 _atom_site_occupancy
  Hf  Hf0_0  1  0.37500000  0.37500000  0.42578984  1
  Hf  Hf0_1  1  0.37500000  0.37500000  0.92578984  1
  Hf  Hf0_2  1  0.37500000  0.87500000  0.42578984  1
  Hf  Hf0_3  1  0.37500000  0.87500000  0.92578984  1
  Hf  Hf0_4  1  0.87500000  0.37500000  0.42578984  1
  Hf  Hf0_5  1  0.87500000  0.37500000  0.92578984  1
  Hf  Hf0_6  1  0.87500000  0.87500000  0.42578984  1
  Hf  Hf0_7  1  0.87500000  0.87500000  0.92578984  1
  Hf  Hf1_0  1  0.12500000  0.12500000  0.07421016  1
  Hf  Hf1_1  1  0.12500000  0.12500000  0.57421016  1
  Hf  Hf1_2  1  0.12500000  0.62500000  0.07421016  1
  Hf  Hf1_3  1  0.12500000  0.62500000  0.57421016  1
  Hf  Hf1_4  1  0.62500000  0.12500000  0.07421016  1
  Hf  Hf1_5  1  0.62500000  0.12500000  0.57421016  1
  Hf  Hf1_6  1  0.62500000  0.62500000  0.07421016  1
  Hf  Hf1_7  1  0.62500000  0.62500000  0.57421016  1
  Au  Au0_0  1  0.37500000  0.37500000  0.18571679  1
  Au  Au0_1  1  0.37500000  0.37500000  0.68571679  1
  Au  Au0_2  1  0.37500000  0.87500000  0.18571679  1
  Au  Au0_3  1  0.37500000  0.87500000  0.68571679  1
  Au  Au0_4  1  0.87500000  0.37500000  0.18571679  1
  Au  Au0_5  1  0.87500000  0.37500000  0.68571679  1
  Au  Au0_6  1  0.87500000  0.87500000  0.18571679  1
  Au  Au0_7  1  0.87500000  0.87500000  0.68571679  1
  Au  Au1_0  1  0.12500000  0.12500000  0.31428321  1
  Au  Au1_1  1  0.12500000  0.12500000  0.81428320  1
  Au  Au1_2  1  0.12500000  0.62500000  0.31428321  1
  Au  Au1_3  1  0.12500000  0.62500000  0.81428320  1
  Au  Au1_4  1  0.62500000  0.12500000  0.31428321  1
  Au  Au1_5  1  0.62500000  0.12500000  0.81428320  1
  Au  Au1_6  1  0.62500000  0.62500000  0.31428321  1
  Au  Au1_7  1  0.62500000  0.62500000  0.81428320  1
loop_
_geom_bond_atom_site_label_1
_geom_bond_atom_site_label_2
_geom_bond_distance
_geom_bond_site_symmetry_2
Hf0_0 Hf1_1 3.096567 1_555
Hf0_0 Hf1_5 3.096567 1_555
Hf0_0 Hf1_3 3.096567 1_555
Hf0_0 Hf1_7 3.096567 1_555
Hf0_0 Hf0_2 3.483863 1_555
Hf0_0 Hf0_4 3.483863 1_555
Hf0_0 Hf0_2 3.483863 1_545
Hf0_0 Hf0_4 3.483863 1_455
Hf0_1 Hf1_0 3.096567 1_556
Hf0_1 Hf1_2 3.096567 1_556
Hf0_1 Hf1_4 3.096567 1_556
Hf0_1 Hf1_6 3.096567 1_556
Hf0_1 Hf0_5 3.483863 1_555
Hf0_1 Hf0_3 3.483863 1_555
Hf0_1 Hf0_3 3.483863 1_545
Hf0_1 Hf0_5 3.483863 1_455
Hf0_2 Hf1_3 3.096567 1_555
Hf0_2 Hf1_7 3.096567 1_555
Hf0_2 Hf1_1 3.096567 1_565
Hf0_2 Hf1_5 3.096567 1_565
Hf0_2 Hf0_6 3.483863 1_555
Hf0_2 Hf0_6 3.483863 1_455
Hf0_3 Hf1_2 3.096567 1_556
Hf0_3 Hf1_6 3.096567 1_556
Hf0_3 Hf1_0 3.096567 1_566
Hf0_3 Hf1_4 3.096567 1_566
Hf0_3 Hf0_7 3.483863 1_555
Hf0_3 Hf0_7 3.483863 1_455
Hf0_4 Hf1_5 3.096567 1_555
Hf0_4 Hf1_7 3.096567 1_555
Hf0_4 Hf1_1 3.096567 1_655
Hf0_4 Hf1_3 3.096567 1_655
Hf0_4 Hf0_6 3.483863 1_555
Hf0_4 Hf0_6 3.483863 1_545
Hf0_5 Hf1_4 3.096567 1_556
Hf0_5 Hf1_6 3.096567 1_556
Hf0_5 Hf1_0 3.096567 1_656
Hf0_5 Hf1_2 3.096567 1_656
Hf0_5 Hf0_7 3.483863 1_555
Hf0_5 Hf0_7 3.483863 1_545
Hf0_6 Hf1_7 3.096567 1_555
Hf0_6 Hf1_3 3.096567 1_655
Hf0_6 Hf1_5 3.096567 1_565
Hf0_6 Hf1_1 3.096567 1_665
Hf0_7 Hf1_6 3.096567 1_556
Hf0_7 Hf1_4 3.096567 1_566
Hf0_7 Hf1_2 3.096567 1_656
Hf0_7 Hf1_0 3.096567 1_666
Hf1_0 Hf1_2 3.483863 1_555
Hf1_0 Hf1_4 3.483863 1_455
Hf1_0 Hf1_2 3.483863 1_545
Hf1_0 Hf1_4 3.483863 1_555
Hf1_1 Hf1_5 3.483863 1_455
Hf1_1 Hf1_5 3.483863 1_555
Hf1_1 Hf1_3 3.483863 1_555
Hf1_1 Hf1_3 3.483863 1_545
Hf1_2 Hf1_6 3.483863 1_455
Hf1_2 Hf1_6 3.483863 1_555
Hf1_3 Hf1_7 3.483863 1_555
Hf1_3 Hf1_7 3.483863 1_455
Hf1_4 Hf1_6 3.483863 1_555
Hf1_4 Hf1_6 3.483863 1_545
Hf1_5 Hf1_7 3.483863 1_545
Hf1_5 Hf1_7 3.483863 1_555
Au0_0 Hf1_0 2.838223 1_555
Au0_0 Hf1_2 2.838223 1_555
Au0_0 Hf1_4 2.838223 1_555
Au0_0 Hf1_6 2.838223 1_555
Au0_0 Au1_0 2.951266 1_555
Au0_0 Au1_4 2.951266 1_555
Au0_0 Au1_2 2.951266 1_555
Au0_0 Au1_6 2.951266 1_555
Au0_0 Hf0_0 3.034774 1_555
Au0_0 Hf0_1 3.285748 1_554
Au0_1 Hf1_1 2.838223 1_555
Au0_1 Hf1_5 2.838223 1_555
Au0_1 Hf1_3 2.838223 1_555
Au0_1 Hf1_7 2.838223 1_555
Au0_1 Au1_1 2.951266 1_555
Au0_1 Au1_5 2.951266 1_555
Au0_1 Au1_3 2.951266 1_555
Au0_1 Au1_7 2.951266 1_555
Au0_1 Hf0_1 3.034774 1_555
Au0_1 Hf0_0 3.285748 1_555
Au0_2 Hf1_2 2.838223 1_555
Au0_2 Hf1_6 2.838223 1_555
Au0_2 Hf1_0 2.838223 1_565
Au0_2 Hf1_4 2.838223 1_565
Au0_2 Au1_2 2.951266 1_555
Au0_2 Au1_6 2.951266 1_555
Au0_2 Au1_0 2.951266 1_565
Au0_2 Au1_4 2.951266 1_565
Au0_2 Hf0_2 3.034774 1_555
Au0_2 Hf0_3 3.285748 1_554
Au0_3 Hf1_3 2.838223 1_555
Au0_3 Hf1_7 2.838223 1_555
Au0_3 Hf1_1 2.838223 1_565
Au0_3 Hf1_5 2.838223 1_565
Au0_3 Au1_3 2.951266 1_555
Au0_3 Au1_7 2.951266 1_555
Au0_3 Au1_1 2.951266 1_565
Au0_3 Au1_5 2.951266 1_565
Au0_3 Hf0_3 3.034774 1_555
Au0_3 Hf0_2 3.285748 1_555
Au0_4 Hf1_4 2.838223 1_555
Au0_4 Hf1_6 2.838223 1_555
Au0_4 Hf1_0 2.838223 1_655
Au0_4 Hf1_2 2.838223 1_655
Au0_4 Au1_4 2.951266 1_555
Au0_4 Au1_6 2.951266 1_555
Au0_4 Au1_0 2.951266 1_655
Au0_4 Au1_2 2.951266 1_655
Au0_4 Hf0_4 3.034774 1_555
Au0_4 Hf0_5 3.285748 1_554
Au0_5 Hf1_5 2.838223 1_555
Au0_5 Hf1_7 2.838223 1_555
Au0_5 Hf1_1 2.838223 1_655
Au0_5 Hf1_3 2.838223 1_655
Au0_5 Au1_5 2.951266 1_555
Au0_5 Au1_7 2.951266 1_555
Au0_5 Au1_1 2.951266 1_655
Au0_5 Au1_3 2.951266 1_655
Au0_5 Hf0_5 3.034774 1_555
Au0_5 Hf0_4 3.285748 1_555
Au0_6 Hf1_6 2.838223 1_555
Au0_6 Hf1_2 2.838223 1_655
Au0_6 Hf1_4 2.838223 1_565
Au0_6 Hf1_0 2.838223 1_665
Au0_6 Au1_6 2.951266 1_555
Au0_6 Au1_4 2.951266 1_565
Au0_6 Au1_2 2.951266 1_655
Au0_6 Au1_0 2.951266 1_665
Au0_6 Hf0_6 3.034774 1_555
Au0_6 Hf0_7 3.285748 1_554
Au0_7 Hf1_7 2.838223 1_555
Au0_7 Hf1_3 2.838223 1_655
Au0_7 Hf1_5 2.838223 1_565
Au0_7 Hf1_1 2.838223 1_665
Au0_7 Au1_7 2.951266 1_555
Au0_7 Au1_3 2.951266 1_655
Au0_7 Au1_5 2.951266 1_565
Au0_7 Au1_1 2.951266 1_665
Au0_7 Hf0_7 3.034774 1_555
Au0_7 Hf0_6 3.285748 1_555
Au1_0 Hf0_0 2.838223 1_555
Au1_0 Hf0_4 2.838223 1_455
Au1_0 Hf0_2 2.838223 1_545
Au1_0 Hf0_6 2.838223 1_445
Au1_0 Hf1_0 3.034774 1_555
Au1_0 Hf1_1 3.285748 1_555
Au1_1 Hf0_1 2.838223 1_555
Au1_1 Hf0_3 2.838223 1_545
Au1_1 Hf0_5 2.838223 1_455
Au1_1 Hf0_7 2.838223 1_445
Au1_1 Hf1_1 3.034774 1_555
Au1_1 Hf1_0 3.285748 1_556
Au1_2 Hf0_2 2.838223 1_555
Au1_2 Hf0_6 2.838223 1_455
Au1_2 Hf0_0 2.838223 1_555
Au1_2 Hf0_4 2.838223 1_455
Au1_2 Hf1_2 3.034774 1_555
Au1_2 Hf1_3 3.285748 1_555
Au1_3 Hf0_3 2.838223 1_555
Au1_3 Hf0_1 2.838223 1_555
Au1_3 Hf0_7 2.838223 1_455
Au1_3 Hf0_5 2.838223 1_455
Au1_3 Hf1_3 3.034774 1_555
Au1_3 Hf1_2 3.285748 1_556
Au1_4 Hf0_4 2.838223 1_555
Au1_4 Hf0_6 2.838223 1_545
Au1_4 Hf0_0 2.838223 1_555
Au1_4 Hf0_2 2.838223 1_545
Au1_4 Hf1_4 3.034774 1_555
Au1_4 Hf1_5 3.285748 1_555
Au1_5 Hf0_5 2.838223 1_555
Au1_5 Hf0_7 2.838223 1_545
Au1_5 Hf0_1 2.838223 1_555
Au1_5 Hf0_3 2.838223 1_545
Au1_5 Hf1_5 3.034774 1_555
Au1_5 Hf1_4 3.285748 1_556
Au1_6 Hf0_6 2.838223 1_555
Au1_6 Hf0_2 2.838223 1_555
Au1_6 Hf0_4 2.838223 1_555
Au1_6 Hf0_0 2.838223 1_555
Au1_6 Hf1_6 3.034774 1_555
Au1_6 Hf1_7 3.285748 1_555
Au1_7 Hf0_7 2.838223 1_555
Au1_7 Hf0_5 2.838223 1_555
Au1_7 Hf0_3 2.838223 1_555
Au1_7 Hf0_1 2.838223 1_555
Au1_7 Hf1_7 3.034774 1_555
Au1_7 Hf1_6 3.285748 1_556
