# generated using pymatgen
data_ZnCu2(BiO4)2
_symmetry_space_group_name_H-M   'P 1'
_cell_length_a   8.60732700
_cell_length_b   6.43188500
_cell_length_c   13.79293636
_cell_angle_alpha   86.65625955
_cell_angle_beta   90.00000000
_cell_angle_gamma   90.00000000
_symmetry_Int_Tables_number   1
_chemical_formula_structural   ZnCu2(BiO4)2
_chemical_formula_sum   'Zn4 Cu8 Bi8 O32'
_cell_volume   762.29544436
_cell_formula_units_Z   4
loop_
 _symmetry_equiv_pos_site_id
 _symmetry_equiv_pos_as_xyz
  1  'x, y, z'
loop_
 _atom_site_type_symbol
 _atom_site_label
 _atom_site_symmetry_multiplicity
 _atom_site_fract_x
 _atom_site_fract_y
 _atom_site_fract_z
 _atom_site_occupancy
  Zn  Zn0  1  0.85232500  0.89483900  0.04814900  1
  Zn  Zn1  1  0.14767500  0.10516100  0.95185100  1
  Zn  Zn2  1  0.35232500  0.10516100  0.45185100  1
  Zn  Zn3  1  0.64767500  0.89483900  0.54814900  1
  Cu  Cu0  1  0.80532700  0.25048400  0.88986200  1
  Cu  Cu1  1  0.93677900  0.64446700  0.61326200  1
  Cu  Cu2  1  0.06322100  0.35553300  0.38673800  1
  Cu  Cu3  1  0.19467300  0.74951600  0.11013800  1
  Cu  Cu4  1  0.69467300  0.25048400  0.38986200  1
  Cu  Cu5  1  0.56322100  0.64446700  0.11326200  1
  Cu  Cu6  1  0.30532700  0.74951600  0.61013800  1
  Cu  Cu7  1  0.43677900  0.35553300  0.88673800  1
  Bi  Bi0  1  0.55933600  0.89713600  0.83359700  1
  Bi  Bi1  1  0.94066400  0.89713600  0.33359700  1
  Bi  Bi2  1  0.90134100  0.37002200  0.13778900  1
  Bi  Bi3  1  0.05933600  0.10286400  0.66640300  1
  Bi  Bi4  1  0.09865900  0.62997800  0.86221100  1
  Bi  Bi5  1  0.40134100  0.62997800  0.36221100  1
  Bi  Bi6  1  0.59865900  0.37002200  0.63778900  1
  Bi  Bi7  1  0.44066400  0.10286400  0.16640300  1
  O  O0  1  0.73607100  0.96688400  0.40770900  1
  O  O1  1  0.96035400  0.36407000  0.59425700  1
  O  O2  1  0.43034300  0.80263700  0.49613800  1
  O  O3  1  0.93034300  0.19736300  0.00386200  1
  O  O4  1  0.76392900  0.96688400  0.90770900  1
  O  O5  1  0.26392900  0.03311600  0.59229100  1
  O  O6  1  0.88084500  0.92228400  0.60936000  1
  O  O7  1  0.12857300  0.48576700  0.14325600  1
  O  O8  1  0.37142700  0.48576700  0.64325600  1
  O  O9  1  0.11833700  0.71473200  0.68121000  1
  O  O10  1  0.61833700  0.28526800  0.81879000  1
  O  O11  1  0.87142700  0.51423300  0.85674400  1
  O  O12  1  0.11915500  0.07771600  0.39064000  1
  O  O13  1  0.45823700  0.11730100  0.31381900  1
  O  O14  1  0.73811100  0.61082700  0.56468800  1
  O  O15  1  0.76188900  0.61082700  0.06468800  1
  O  O16  1  0.95823700  0.88269900  0.18618100  1
  O  O17  1  0.62857300  0.51423300  0.35674400  1
  O  O18  1  0.54176300  0.88269900  0.68618100  1
  O  O19  1  0.56965700  0.19736300  0.50386200  1
  O  O20  1  0.53964600  0.36407000  0.09425700  1
  O  O21  1  0.88166300  0.28526800  0.31879000  1
  O  O22  1  0.23607100  0.03311600  0.09229100  1
  O  O23  1  0.61915500  0.92228400  0.10936000  1
  O  O24  1  0.06965700  0.80263700  0.99613800  1
  O  O25  1  0.23811100  0.38917300  0.93531200  1
  O  O26  1  0.03964600  0.63593000  0.40574300  1
  O  O27  1  0.46035400  0.63593000  0.90574300  1
  O  O28  1  0.38084500  0.07771600  0.89064000  1
  O  O29  1  0.26188900  0.38917300  0.43531200  1
  O  O30  1  0.38166300  0.71473200  0.18121000  1
  O  O31  1  0.04176300  0.11730100  0.81381900  1
loop_
_geom_bond_atom_site_label_1
_geom_bond_atom_site_label_2
_geom_bond_distance
_geom_bond_site_symmetry_2
Cu0 O11 1.822018 1_555
Cu0 O4 1.860769 1_545
Cu0 O10 1.891000 1_555
Cu0 O3 1.919475 1_556
Cu0 O31 2.465818 1_655
Cu1 O6 1.848359 1_555
Cu1 O1 1.848671 1_555
Cu1 O14 1.853833 1_555
Cu1 O9 1.890536 1_655
Cu2 O12 1.848359 1_555
Cu2 O26 1.848671 1_555
Cu2 O29 1.853833 1_555
Cu2 O21 1.890536 1_455
Cu3 O7 1.822018 1_555
Cu3 O22 1.860769 1_565
Cu3 O30 1.891000 1_555
Cu3 O24 1.919475 1_554
Cu3 O16 2.465818 1_455
Cu4 O17 1.822018 1_555
Cu4 O0 1.860769 1_545
Cu4 O21 1.891000 1_555
Cu4 O19 1.919475 1_555
Cu4 O13 2.465818 1_555
Cu5 O23 1.848359 1_555
Cu5 O20 1.848671 1_555
Cu5 O15 1.853833 1_555
Cu5 O30 1.890536 1_555
Cu6 O8 1.822018 1_555
Cu6 O5 1.860769 1_565
Cu6 O9 1.891000 1_555
Cu6 O2 1.919475 1_555
Cu6 O18 2.465818 1_555
Cu7 O28 1.848359 1_555
Cu7 O27 1.848671 1_555
Cu7 O25 1.853833 1_555
Cu7 O10 1.890536 1_555
Bi0 O18 2.046419 1_555
Bi0 O27 2.084136 1_555
Bi0 O4 2.097809 1_555
Bi0 O28 2.105935 1_565
Bi0 O10 2.544062 1_565
Bi1 O16 2.046419 1_555
Bi1 O26 2.084136 1_655
Bi1 O0 2.097809 1_555
Bi1 O12 2.105935 1_665
Bi1 O21 2.544062 1_565
Bi2 O7 2.095672 1_655
Bi2 O15 2.161960 1_555
Bi2 O3 2.224230 1_555
Bi2 O21 2.529780 1_555
Bi3 O31 2.046419 1_555
Bi3 O1 2.084136 1_455
Bi3 O5 2.097809 1_555
Bi3 O6 2.105935 1_445
Bi3 O9 2.544062 1_545
Bi4 O11 2.095672 1_455
Bi4 O25 2.161960 1_555
Bi4 O24 2.224230 1_555
Bi4 O9 2.529780 1_555
Bi5 O17 2.095672 1_555
Bi5 O29 2.161960 1_555
Bi5 O2 2.224230 1_555
Bi5 O30 2.529780 1_555
Bi6 O8 2.095672 1_555
Bi6 O14 2.161960 1_555
Bi6 O19 2.224230 1_555
Bi6 O10 2.529780 1_555
Bi7 O13 2.046419 1_555
Bi7 O20 2.084136 1_555
Bi7 O22 2.097809 1_555
Bi7 O23 2.105935 1_545
Bi7 O30 2.544062 1_545
O0 Zn3 2.107414 1_555
O2 Zn3 2.101256 1_555
O2 Zn2 2.114608 1_565
O3 Zn1 2.101256 1_654
O3 Zn0 2.114608 1_545
O4 Zn0 2.107414 1_556
O5 Zn2 2.107414 1_555
O6 Zn3 2.188443 1_555
O12 Zn2 2.188443 1_555
O13 Zn2 2.108201 1_555
O14 Zn3 1.986531 1_555
O15 Zn0 1.986531 1_555
O16 Zn0 2.108201 1_555
O18 Zn3 2.108201 1_555
O19 Zn2 2.101256 1_555
O19 Zn3 2.114608 1_545
O22 Zn1 2.107414 1_554
O23 Zn0 2.188443 1_555
O24 Zn0 2.101256 1_456
O24 Zn1 2.114608 1_565
O25 Zn1 1.986531 1_555
O28 Zn1 2.188443 1_555
O29 Zn2 1.986531 1_555
O31 Zn1 2.108201 1_555
