# generated using pymatgen
data_Ce5Mg
_symmetry_space_group_name_H-M   'P 1'
_cell_length_a   6.40171094
_cell_length_b   6.40171094
_cell_length_c   35.31454600
_cell_angle_alpha   90.00000000
_cell_angle_beta   90.00000000
_cell_angle_gamma   119.99998908
_symmetry_Int_Tables_number   1
_chemical_formula_structural   Ce5Mg
_chemical_formula_sum   'Ce40 Mg8'
_cell_volume   1253.36172453
_cell_formula_units_Z   8
loop_
 _symmetry_equiv_pos_site_id
 _symmetry_equiv_pos_as_xyz
  1  'x, y, z'
loop_
 _atom_site_type_symbol
 _atom_site_label
 _atom_site_symmetry_multiplicity
 _atom_site_fract_x
 _atom_site_fract_y
 _atom_site_fract_z
 _atom_site_occupancy
  Ce  Ce0_0  1  0.00000000  0.00000000  0.41643000  1
  Ce  Ce0_1  1  0.00000000  0.00000000  0.91643000  1
  Ce  Ce0_2  1  1.00000000  0.50000000  0.41643000  1
  Ce  Ce0_3  1  1.00000000  0.50000000  0.91643000  1
  Ce  Ce0_4  1  0.50000000  0.00000000  0.41643000  1
  Ce  Ce0_5  1  0.50000000  0.00000000  0.91643000  1
  Ce  Ce0_6  1  0.50000000  0.50000000  0.41643000  1
  Ce  Ce0_7  1  0.50000000  0.50000000  0.91643000  1
  Ce  Ce1_0  1  0.33333350  0.16666650  0.33240900  1
  Ce  Ce1_1  1  0.33333350  0.16666650  0.83240900  1
  Ce  Ce1_2  1  0.33333350  0.66666650  0.33240900  1
  Ce  Ce1_3  1  0.33333350  0.66666650  0.83240900  1
  Ce  Ce1_4  1  0.83333350  0.16666650  0.33240900  1
  Ce  Ce1_5  1  0.83333350  0.16666650  0.83240900  1
  Ce  Ce1_6  1  0.83333350  0.66666650  0.33240900  1
  Ce  Ce1_7  1  0.83333350  0.66666650  0.83240900  1
  Ce  Ce2_0  1  0.00000000  0.00000000  0.25000000  1
  Ce  Ce2_1  1  0.00000000  0.00000000  0.75000000  1
  Ce  Ce2_2  1  1.00000000  0.50000000  0.25000000  1
  Ce  Ce2_3  1  1.00000000  0.50000000  0.75000000  1
  Ce  Ce2_4  1  0.50000000  0.00000000  0.25000000  1
  Ce  Ce2_5  1  0.50000000  0.00000000  0.75000000  1
  Ce  Ce2_6  1  0.50000000  0.50000000  0.25000000  1
  Ce  Ce2_7  1  0.50000000  0.50000000  0.75000000  1
  Ce  Ce3_0  1  0.33333350  0.16666650  0.16759100  1
  Ce  Ce3_1  1  0.33333350  0.16666650  0.66759100  1
  Ce  Ce3_2  1  0.33333350  0.66666650  0.16759100  1
  Ce  Ce3_3  1  0.33333350  0.66666650  0.66759100  1
  Ce  Ce3_4  1  0.83333350  0.16666650  0.16759100  1
  Ce  Ce3_5  1  0.83333350  0.16666650  0.66759100  1
  Ce  Ce3_6  1  0.83333350  0.66666650  0.16759100  1
  Ce  Ce3_7  1  0.83333350  0.66666650  0.66759100  1
  Ce  Ce4_0  1  0.00000000  0.00000000  0.08357000  1
  Ce  Ce4_1  1  0.00000000  0.00000000  0.58357000  1
  Ce  Ce4_2  1  1.00000000  0.50000000  0.08357000  1
  Ce  Ce4_3  1  1.00000000  0.50000000  0.58357000  1
  Ce  Ce4_4  1  0.50000000  0.00000000  0.08357000  1
  Ce  Ce4_5  1  0.50000000  0.00000000  0.58357000  1
  Ce  Ce4_6  1  0.50000000  0.50000000  0.08357000  1
  Ce  Ce4_7  1  0.50000000  0.50000000  0.58357000  1
  Mg  Mg0_0  1  0.33333350  0.16666650  0.00000000  1
  Mg  Mg0_1  1  0.33333350  0.16666650  0.50000000  1
  Mg  Mg0_2  1  0.33333350  0.66666650  0.00000000  1
  Mg  Mg0_3  1  0.33333350  0.66666650  0.50000000  1
  Mg  Mg0_4  1  0.83333350  0.16666650  0.00000000  1
  Mg  Mg0_5  1  0.83333350  0.16666650  0.50000000  1
  Mg  Mg0_6  1  0.83333350  0.66666650  0.00000000  1
  Mg  Mg0_7  1  0.83333350  0.66666650  0.50000000  1
loop_
_geom_bond_atom_site_label_1
_geom_bond_atom_site_label_2
_geom_bond_distance
_geom_bond_site_symmetry_2
Ce0_0 Ce0_4 3.200855 1_555
Ce0_0 Ce0_2 3.200855 1_445
Ce0_0 Ce0_4 3.200855 1_455
Ce0_0 Ce0_2 3.200855 1_455
Ce0_0 Ce0_6 3.200856 1_555
Ce0_0 Ce0_6 3.200856 1_445
Ce0_0 Mg0_5 3.482090 1_455
Ce0_0 Mg0_7 3.482091 1_445
Ce0_0 Mg0_1 3.482091 1_555
Ce0_0 Ce1_4 3.495599 1_455
Ce0_0 Ce1_6 3.495600 1_445
Ce0_0 Ce1_0 3.495600 1_555
Ce0_1 Ce0_3 3.200855 1_445
Ce0_1 Ce0_5 3.200855 1_555
Ce0_1 Ce0_5 3.200855 1_455
Ce0_1 Ce0_3 3.200855 1_455
Ce0_1 Ce0_7 3.200856 1_555
Ce0_1 Ce0_7 3.200856 1_445
Ce0_1 Mg0_4 3.482090 1_456
Ce0_1 Mg0_0 3.482091 1_556
Ce0_1 Mg0_6 3.482091 1_446
Ce0_1 Ce1_5 3.495599 1_455
Ce0_1 Ce1_7 3.495600 1_445
Ce0_1 Ce1_1 3.495600 1_555
Ce0_2 Ce0_6 3.200855 1_555
Ce0_2 Ce0_6 3.200855 1_655
Ce0_2 Ce0_4 3.200856 1_555
Ce0_2 Ce0_4 3.200856 1_665
Ce0_2 Mg0_7 3.482090 1_555
Ce0_2 Mg0_5 3.482091 1_555
Ce0_2 Mg0_3 3.482091 1_655
Ce0_2 Ce1_6 3.495599 1_555
Ce0_2 Ce1_2 3.495600 1_655
Ce0_2 Ce1_4 3.495600 1_555
Ce0_3 Ce0_7 3.200855 1_555
Ce0_3 Ce0_7 3.200855 1_655
Ce0_3 Ce0_5 3.200856 1_555
Ce0_3 Ce0_5 3.200856 1_665
Ce0_3 Mg0_6 3.482090 1_556
Ce0_3 Mg0_4 3.482091 1_556
Ce0_3 Mg0_2 3.482091 1_656
Ce0_3 Ce1_7 3.495599 1_555
Ce0_3 Ce1_5 3.495600 1_555
Ce0_3 Ce1_3 3.495600 1_655
Ce0_4 Ce0_6 3.200855 1_545
Ce0_4 Ce0_6 3.200855 1_555
Ce0_4 Mg0_1 3.482090 1_555
Ce0_4 Mg0_3 3.482091 1_545
Ce0_4 Mg0_5 3.482091 1_555
Ce0_4 Ce1_0 3.495599 1_555
Ce0_4 Ce1_2 3.495600 1_545
Ce0_4 Ce1_4 3.495600 1_555
Ce0_5 Ce0_7 3.200855 1_545
Ce0_5 Ce0_7 3.200855 1_555
Ce0_5 Mg0_0 3.482090 1_556
Ce0_5 Mg0_2 3.482091 1_546
Ce0_5 Mg0_4 3.482091 1_556
Ce0_5 Ce1_1 3.495599 1_555
Ce0_5 Ce1_5 3.495600 1_555
Ce0_5 Ce1_3 3.495600 1_545
Ce0_6 Mg0_3 3.482090 1_555
Ce0_6 Mg0_1 3.482091 1_555
Ce0_6 Mg0_7 3.482091 1_555
Ce0_6 Ce1_2 3.495599 1_555
Ce0_6 Ce1_6 3.495600 1_555
Ce0_6 Ce1_0 3.495600 1_555
Ce0_7 Mg0_2 3.482090 1_556
Ce0_7 Mg0_6 3.482091 1_556
Ce0_7 Mg0_0 3.482091 1_556
Ce0_7 Ce1_3 3.495599 1_555
Ce0_7 Ce1_7 3.495600 1_555
Ce0_7 Ce1_1 3.495600 1_555
Ce1_0 Ce1_2 3.200855 1_545
Ce1_0 Ce1_4 3.200855 1_455
Ce1_0 Ce1_4 3.200855 1_555
Ce1_0 Ce1_2 3.200855 1_555
Ce1_0 Ce1_6 3.200856 1_555
Ce1_0 Ce1_6 3.200856 1_445
Ce1_0 Ce2_4 3.447409 1_555
Ce1_0 Ce2_0 3.447410 1_555
Ce1_0 Ce2_6 3.447410 1_555
Ce1_1 Ce1_3 3.200855 1_545
Ce1_1 Ce1_5 3.200855 1_455
Ce1_1 Ce1_5 3.200855 1_555
Ce1_1 Ce1_3 3.200855 1_555
Ce1_1 Ce1_7 3.200856 1_555
Ce1_1 Ce1_7 3.200856 1_445
Ce1_1 Ce2_5 3.447409 1_555
Ce1_1 Ce2_1 3.447410 1_555
Ce1_1 Ce2_7 3.447410 1_555
Ce1_2 Ce1_6 3.200855 1_555
Ce1_2 Ce1_6 3.200855 1_455
Ce1_2 Ce1_4 3.200856 1_565
Ce1_2 Ce1_4 3.200856 1_455
Ce1_2 Ce2_6 3.447409 1_555
Ce1_2 Ce2_4 3.447410 1_565
Ce1_2 Ce2_2 3.447410 1_455
Ce1_3 Ce1_7 3.200855 1_555
Ce1_3 Ce1_7 3.200855 1_455
Ce1_3 Ce1_5 3.200856 1_455
Ce1_3 Ce1_5 3.200856 1_565
Ce1_3 Ce2_7 3.447409 1_555
Ce1_3 Ce2_5 3.447410 1_565
Ce1_3 Ce2_3 3.447410 1_455
Ce1_4 Ce1_6 3.200855 1_545
Ce1_4 Ce1_6 3.200855 1_555
Ce1_4 Ce2_0 3.447409 1_655
Ce1_4 Ce2_4 3.447410 1_555
Ce1_4 Ce2_2 3.447410 1_555
Ce1_5 Ce1_7 3.200855 1_545
Ce1_5 Ce1_7 3.200855 1_555
Ce1_5 Ce2_1 3.447409 1_655
Ce1_5 Ce2_5 3.447410 1_555
Ce1_5 Ce2_3 3.447410 1_555
Ce1_6 Ce2_2 3.447409 1_555
Ce1_6 Ce2_0 3.447410 1_665
Ce1_6 Ce2_6 3.447410 1_555
Ce1_7 Ce2_3 3.447409 1_555
Ce1_7 Ce2_1 3.447410 1_665
Ce1_7 Ce2_7 3.447410 1_555
Ce2_0 Ce2_2 3.200855 1_445
Ce2_0 Ce2_4 3.200855 1_555
Ce2_0 Ce2_4 3.200855 1_455
Ce2_0 Ce2_2 3.200855 1_455
Ce2_0 Ce2_6 3.200856 1_555
Ce2_0 Ce2_6 3.200856 1_445
Ce2_0 Ce3_4 3.447409 1_455
Ce2_0 Ce3_6 3.447410 1_445
Ce2_0 Ce3_0 3.447410 1_555
Ce2_1 Ce2_5 3.200855 1_555
Ce2_1 Ce2_3 3.200855 1_445
Ce2_1 Ce2_3 3.200855 1_455
Ce2_1 Ce2_5 3.200855 1_455
Ce2_1 Ce2_7 3.200856 1_555
Ce2_1 Ce2_7 3.200856 1_445
Ce2_1 Ce3_5 3.447409 1_455
Ce2_1 Ce3_1 3.447410 1_555
Ce2_1 Ce3_7 3.447410 1_445
Ce2_2 Ce2_6 3.200855 1_555
Ce2_2 Ce2_6 3.200855 1_655
Ce2_2 Ce2_4 3.200856 1_555
Ce2_2 Ce2_4 3.200856 1_665
Ce2_2 Ce3_6 3.447409 1_555
Ce2_2 Ce3_4 3.447410 1_555
Ce2_2 Ce3_2 3.447410 1_655
Ce2_3 Ce2_7 3.200855 1_555
Ce2_3 Ce2_7 3.200855 1_655
Ce2_3 Ce2_5 3.200856 1_555
Ce2_3 Ce2_5 3.200856 1_665
Ce2_3 Ce3_7 3.447409 1_555
Ce2_3 Ce3_5 3.447410 1_555
Ce2_3 Ce3_3 3.447410 1_655
Ce2_4 Ce2_6 3.200855 1_545
Ce2_4 Ce2_6 3.200855 1_555
Ce2_4 Ce3_0 3.447409 1_555
Ce2_4 Ce3_2 3.447410 1_545
Ce2_4 Ce3_4 3.447410 1_555
Ce2_5 Ce2_7 3.200855 1_545
Ce2_5 Ce2_7 3.200855 1_555
Ce2_5 Ce3_1 3.447409 1_555
Ce2_5 Ce3_5 3.447410 1_555
Ce2_5 Ce3_3 3.447410 1_545
Ce2_6 Ce3_2 3.447409 1_555
Ce2_6 Ce3_6 3.447410 1_555
Ce2_6 Ce3_0 3.447410 1_555
Ce2_7 Ce3_3 3.447409 1_555
Ce2_7 Ce3_7 3.447410 1_555
Ce2_7 Ce3_1 3.447410 1_555
Ce3_0 Ce3_2 3.200855 1_545
Ce3_0 Ce3_4 3.200855 1_455
Ce3_0 Ce3_4 3.200855 1_555
Ce3_0 Ce3_2 3.200855 1_555
Ce3_0 Ce3_6 3.200856 1_555
Ce3_0 Ce3_6 3.200856 1_445
Ce3_0 Ce4_4 3.495599 1_555
Ce3_0 Ce4_6 3.495600 1_555
Ce3_0 Ce4_0 3.495600 1_555
Ce3_1 Ce3_3 3.200855 1_545
Ce3_1 Ce3_3 3.200855 1_555
Ce3_1 Ce3_5 3.200855 1_455
Ce3_1 Ce3_5 3.200855 1_555
Ce3_1 Ce3_7 3.200856 1_555
Ce3_1 Ce3_7 3.200856 1_445
Ce3_1 Ce4_5 3.495599 1_555
Ce3_1 Ce4_1 3.495600 1_555
Ce3_1 Ce4_7 3.495600 1_555
Ce3_2 Ce3_6 3.200855 1_555
Ce3_2 Ce3_6 3.200855 1_455
Ce3_2 Ce3_4 3.200856 1_455
Ce3_2 Ce3_4 3.200856 1_565
Ce3_2 Ce4_6 3.495599 1_555
Ce3_2 Ce4_4 3.495600 1_565
Ce3_2 Ce4_2 3.495600 1_455
Ce3_3 Ce3_7 3.200855 1_555
Ce3_3 Ce3_7 3.200855 1_455
Ce3_3 Ce3_5 3.200856 1_565
Ce3_3 Ce3_5 3.200856 1_455
Ce3_3 Ce4_7 3.495599 1_555
Ce3_3 Ce4_3 3.495600 1_455
Ce3_3 Ce4_5 3.495600 1_565
Ce3_4 Ce3_6 3.200855 1_545
Ce3_4 Ce3_6 3.200855 1_555
Ce3_4 Ce4_0 3.495599 1_655
Ce3_4 Ce4_2 3.495600 1_555
Ce3_4 Ce4_4 3.495600 1_555
Ce3_5 Ce3_7 3.200855 1_545
Ce3_5 Ce3_7 3.200855 1_555
Ce3_5 Ce4_1 3.495599 1_655
Ce3_5 Ce4_5 3.495600 1_555
Ce3_5 Ce4_3 3.495600 1_555
Ce3_6 Ce4_2 3.495599 1_555
Ce3_6 Ce4_0 3.495600 1_665
Ce3_6 Ce4_6 3.495600 1_555
Ce3_7 Ce4_3 3.495599 1_555
Ce3_7 Ce4_1 3.495600 1_665
Ce3_7 Ce4_7 3.495600 1_555
Ce4_0 Ce4_4 3.200855 1_555
Ce4_0 Ce4_2 3.200855 1_445
Ce4_0 Ce4_2 3.200855 1_455
Ce4_0 Ce4_4 3.200855 1_455
Ce4_0 Ce4_6 3.200856 1_555
Ce4_0 Ce4_6 3.200856 1_445
Ce4_0 Mg0_4 3.482090 1_455
Ce4_0 Mg0_6 3.482091 1_445
Ce4_0 Mg0_0 3.482091 1_555
Ce4_1 Ce4_3 3.200855 1_445
Ce4_1 Ce4_5 3.200855 1_555
Ce4_1 Ce4_3 3.200855 1_455
Ce4_1 Ce4_5 3.200855 1_455
Ce4_1 Ce4_7 3.200856 1_555
Ce4_1 Ce4_7 3.200856 1_445
Ce4_1 Mg0_5 3.482090 1_455
Ce4_1 Mg0_7 3.482091 1_445
Ce4_1 Mg0_1 3.482091 1_555
Ce4_2 Ce4_6 3.200855 1_555
Ce4_2 Ce4_6 3.200855 1_655
Ce4_2 Ce4_4 3.200856 1_555
Ce4_2 Ce4_4 3.200856 1_665
Ce4_2 Mg0_6 3.482090 1_555
Ce4_2 Mg0_4 3.482091 1_555
Ce4_2 Mg0_2 3.482091 1_655
Ce4_3 Ce4_7 3.200855 1_555
Ce4_3 Ce4_7 3.200855 1_655
Ce4_3 Ce4_5 3.200856 1_555
Ce4_3 Ce4_5 3.200856 1_665
Ce4_3 Mg0_7 3.482090 1_555
Ce4_3 Mg0_5 3.482091 1_555
Ce4_3 Mg0_3 3.482091 1_655
Ce4_4 Ce4_6 3.200855 1_545
Ce4_4 Ce4_6 3.200855 1_555
Ce4_4 Mg0_0 3.482090 1_555
Ce4_4 Mg0_2 3.482091 1_545
Ce4_4 Mg0_4 3.482091 1_555
Ce4_5 Ce4_7 3.200855 1_545
Ce4_5 Ce4_7 3.200855 1_555
Ce4_5 Mg0_1 3.482090 1_555
Ce4_5 Mg0_3 3.482091 1_545
Ce4_5 Mg0_5 3.482091 1_555
Ce4_6 Mg0_2 3.482090 1_555
Ce4_6 Mg0_0 3.482091 1_555
Ce4_6 Mg0_6 3.482091 1_555
Ce4_7 Mg0_3 3.482090 1_555
Ce4_7 Mg0_1 3.482091 1_555
Ce4_7 Mg0_7 3.482091 1_555
Mg0_0 Mg0_2 3.200855 1_545
Mg0_0 Mg0_4 3.200855 1_555
Mg0_0 Mg0_2 3.200855 1_555
Mg0_0 Mg0_4 3.200855 1_455
Mg0_0 Mg0_6 3.200856 1_555
Mg0_0 Mg0_6 3.200856 1_445
Mg0_1 Mg0_3 3.200855 1_545
Mg0_1 Mg0_5 3.200855 1_455
Mg0_1 Mg0_3 3.200855 1_555
Mg0_1 Mg0_5 3.200855 1_555
Mg0_1 Mg0_7 3.200856 1_555
Mg0_1 Mg0_7 3.200856 1_445
Mg0_2 Mg0_6 3.200855 1_555
Mg0_2 Mg0_6 3.200855 1_455
Mg0_2 Mg0_4 3.200856 1_455
Mg0_2 Mg0_4 3.200856 1_565
Mg0_3 Mg0_7 3.200855 1_555
Mg0_3 Mg0_7 3.200855 1_455
Mg0_3 Mg0_5 3.200856 1_455
Mg0_3 Mg0_5 3.200856 1_565
Mg0_4 Mg0_6 3.200855 1_545
Mg0_4 Mg0_6 3.200855 1_555
Mg0_5 Mg0_7 3.200855 1_545
Mg0_5 Mg0_7 3.200855 1_555
