# generated using pymatgen
data_Tb2SiSeO4
_symmetry_space_group_name_H-M   'P 1'
_cell_length_a   6.08868800
_cell_length_b   7.01891200
_cell_length_c   10.88897200
_cell_angle_alpha   90.00000000
_cell_angle_beta   90.00000000
_cell_angle_gamma   90.00000000
_symmetry_Int_Tables_number   1
_chemical_formula_structural   Tb2SiSeO4
_chemical_formula_sum   'Tb8 Si4 Se4 O16'
_cell_volume   465.35072919
_cell_formula_units_Z   4
loop_
 _symmetry_equiv_pos_site_id
 _symmetry_equiv_pos_as_xyz
  1  'x, y, z'
loop_
 _atom_site_type_symbol
 _atom_site_label
 _atom_site_symmetry_multiplicity
 _atom_site_fract_x
 _atom_site_fract_y
 _atom_site_fract_z
 _atom_site_occupancy
  Tb  Tb0  1  0.39045600  0.75000000  0.50000000  1
  Tb  Tb1  1  0.39045600  0.75000000  0.00000000  1
  Tb  Tb2  1  0.60954400  0.25000000  0.50000000  1
  Tb  Tb3  1  0.60954400  0.25000000  0.00000000  1
  Tb  Tb4  1  0.86665500  0.97036800  0.75000000  1
  Tb  Tb5  1  0.86665500  0.52963200  0.25000000  1
  Tb  Tb6  1  0.13334500  0.47036800  0.75000000  1
  Tb  Tb7  1  0.13334500  0.02963200  0.25000000  1
  Si  Si0  1  0.11462000  0.25000000  0.00000000  1
  Si  Si1  1  0.88538000  0.75000000  0.00000000  1
  Si  Si2  1  0.88538000  0.75000000  0.50000000  1
  Si  Si3  1  0.11462000  0.25000000  0.50000000  1
  Se  Se0  1  0.57125400  0.62874200  0.75000000  1
  Se  Se1  1  0.57125400  0.87125800  0.25000000  1
  Se  Se2  1  0.42874600  0.12874200  0.75000000  1
  Se  Se3  1  0.42874600  0.37125800  0.25000000  1
  O  O0  1  0.27693900  0.06941400  0.46829400  1
  O  O1  1  0.27693900  0.43058600  0.53170600  1
  O  O2  1  0.72306100  0.56941400  0.03170600  1
  O  O3  1  0.72306100  0.93058600  0.96829400  1
  O  O4  1  0.72306100  0.93058600  0.53170600  1
  O  O5  1  0.72306100  0.56941400  0.46829400  1
  O  O6  1  0.27693900  0.43058600  0.96829400  1
  O  O7  1  0.27693900  0.06941400  0.03170600  1
  O  O8  1  0.05120000  0.76097300  0.37975400  1
  O  O9  1  0.05120000  0.76097300  0.12024600  1
  O  O10  1  0.94880000  0.26097300  0.12024600  1
  O  O11  1  0.94880000  0.23902700  0.87975400  1
  O  O12  1  0.94880000  0.23902700  0.62024600  1
  O  O13  1  0.94880000  0.26097300  0.37975400  1
  O  O14  1  0.05120000  0.73902700  0.87975400  1
  O  O15  1  0.05120000  0.73902700  0.62024600  1
loop_
_geom_bond_atom_site_label_1
_geom_bond_atom_site_label_2
_geom_bond_distance
_geom_bond_site_symmetry_2
Se0 Tb6 2.888736 1_555
Se0 Tb4 2.997437 1_555
Se0 Tb0 3.057252 1_555
Se0 Tb1 3.057252 1_556
Se1 Tb7 2.888736 1_565
Se1 Tb5 2.997437 1_555
Se1 Tb0 3.057252 1_555
Se1 Tb1 3.057252 1_555
Se2 Tb4 2.888736 1_545
Se2 Tb6 2.997437 1_555
Se2 Tb2 3.057252 1_555
Se2 Tb3 3.057252 1_556
Se3 Tb5 2.888736 1_555
Se3 Tb7 2.997437 1_555
Se3 Tb2 3.057252 1_555
Se3 Tb3 3.057252 1_555
O0 Si3 1.643944 1_555
O0 Tb0 2.371329 1_545
O0 Tb2 2.413905 1_555
O0 Tb7 2.548035 1_555
O1 Si3 1.643944 1_555
O1 Tb0 2.371329 1_555
O1 Tb2 2.413905 1_555
O1 Tb6 2.548035 1_555
O2 Si1 1.643944 1_555
O2 Tb3 2.371329 1_555
O2 Tb1 2.413905 1_555
O2 Tb5 2.548035 1_555
O3 Si1 1.643944 1_556
O3 Tb3 2.371329 1_566
O3 Tb1 2.413905 1_556
O3 Tb4 2.548035 1_555
O4 Si2 1.643944 1_555
O4 Tb2 2.371329 1_565
O4 Tb0 2.413905 1_555
O4 Tb4 2.548035 1_555
O5 Si2 1.643944 1_555
O5 Tb2 2.371329 1_555
O5 Tb0 2.413905 1_555
O5 Tb5 2.548035 1_555
O6 Si0 1.643944 1_556
O6 Tb1 2.371329 1_556
O6 Tb3 2.413905 1_556
O6 Tb6 2.548035 1_555
O7 Si0 1.643944 1_555
O7 Tb1 2.371329 1_545
O7 Tb3 2.413905 1_555
O7 Tb7 2.548035 1_555
O8 Si2 1.655200 1_455
O8 Tb7 2.408786 1_565
O8 Tb5 2.428048 1_455
O8 Tb0 2.446864 1_555
O9 Si1 1.655200 1_455
O9 Tb7 2.408786 1_565
O9 Tb5 2.428048 1_455
O9 Tb1 2.446864 1_555
O10 Si0 1.655200 1_655
O10 Tb5 2.408786 1_555
O10 Tb7 2.428048 1_655
O10 Tb3 2.446864 1_555
O11 Si0 1.655200 1_656
O11 Tb4 2.408786 1_545
O11 Tb6 2.428048 1_655
O11 Tb3 2.446864 1_556
O12 Si3 1.655200 1_655
O12 Tb4 2.408786 1_545
O12 Tb6 2.428048 1_655
O12 Tb2 2.446864 1_555
O13 Si3 1.655200 1_655
O13 Tb5 2.408786 1_555
O13 Tb7 2.428048 1_655
O13 Tb2 2.446864 1_555
O14 Si1 1.655200 1_456
O14 Tb6 2.408786 1_555
O14 Tb4 2.428048 1_455
O14 Tb1 2.446864 1_556
O15 Si2 1.655200 1_455
O15 Tb6 2.408786 1_555
O15 Tb4 2.428048 1_455
O15 Tb0 2.446864 1_555
