# generated using pymatgen
data_SrNp(PO4)2
_symmetry_space_group_name_H-M   'P 1'
_cell_length_a   6.97722498
_cell_length_b   6.97722498
_cell_length_c   13.39068800
_cell_angle_alpha   90.00000000
_cell_angle_beta   90.00000000
_cell_angle_gamma   99.23259073
_symmetry_Int_Tables_number   1
_chemical_formula_structural   SrNp(PO4)2
_chemical_formula_sum   'Sr4 Np4 P8 O32'
_cell_volume   643.43601981
_cell_formula_units_Z   4
loop_
 _symmetry_equiv_pos_site_id
 _symmetry_equiv_pos_as_xyz
  1  'x, y, z'
loop_
 _atom_site_type_symbol
 _atom_site_label
 _atom_site_symmetry_multiplicity
 _atom_site_fract_x
 _atom_site_fract_y
 _atom_site_fract_z
 _atom_site_occupancy
  Sr  Sr0  1  0.26894600  0.76894600  0.75000000  1
  Sr  Sr1  1  0.23105400  0.73105400  0.25000000  1
  Sr  Sr2  1  0.73105400  0.23105400  0.25000000  1
  Sr  Sr3  1  0.76894600  0.26894600  0.75000000  1
  Np  Np0  1  0.22818900  0.22818900  0.59120200  1
  Np  Np1  1  0.77181100  0.77181100  0.40879800  1
  Np  Np2  1  0.27181100  0.27181100  0.09120200  1
  Np  Np3  1  0.72818900  0.72818900  0.90879800  1
  P  P0  1  0.32017700  0.32017700  0.81719700  1
  P  P1  1  0.67982300  0.67982300  0.18280300  1
  P  P2  1  0.17982300  0.17982300  0.31719700  1
  P  P3  1  0.82017700  0.82017700  0.68280300  1
  P  P4  1  0.22716600  0.77283400  0.00000000  1
  P  P5  1  0.72716600  0.27283400  0.50000000  1
  P  P6  1  0.77283400  0.22716600  0.00000000  1
  P  P7  1  0.27283400  0.72716600  0.50000000  1
  O  O0  1  0.37889100  0.14699900  0.75759000  1
  O  O1  1  0.85300100  0.62110900  0.24241000  1
  O  O2  1  0.35300100  0.12110900  0.25759000  1
  O  O3  1  0.87889100  0.64699900  0.74241000  1
  O  O4  1  0.62110900  0.85300100  0.24241000  1
  O  O5  1  0.14699900  0.37889100  0.75759000  1
  O  O6  1  0.64699900  0.87889100  0.74241000  1
  O  O7  1  0.12110900  0.35300100  0.25759000  1
  O  O8  1  0.26605600  0.26605600  0.92653600  1
  O  O9  1  0.73394400  0.73394400  0.07346400  1
  O  O10  1  0.23394400  0.23394400  0.42653600  1
  O  O11  1  0.76605600  0.76605600  0.57346400  1
  O  O12  1  0.49175200  0.49175200  0.81234000  1
  O  O13  1  0.50824800  0.50824800  0.18766000  1
  O  O14  1  0.00824800  0.00824800  0.31234000  1
  O  O15  1  0.99175200  0.99175200  0.68766000  1
  O  O16  1  0.22620100  0.93978800  0.07690400  1
  O  O17  1  0.06021200  0.77379900  0.92309600  1
  O  O18  1  0.56021200  0.27379900  0.57690400  1
  O  O19  1  0.72620100  0.43978800  0.42309600  1
  O  O20  1  0.77379900  0.06021200  0.92309600  1
  O  O21  1  0.93978800  0.22620100  0.07690400  1
  O  O22  1  0.43978800  0.72620100  0.42309600  1
  O  O23  1  0.27379900  0.56021200  0.57690400  1
  O  O24  1  0.41407200  0.79392500  0.93566900  1
  O  O25  1  0.20607500  0.58592800  0.06433100  1
  O  O26  1  0.70607500  0.08592800  0.43566900  1
  O  O27  1  0.91407200  0.29392500  0.56433100  1
  O  O28  1  0.58592800  0.20607500  0.06433100  1
  O  O29  1  0.79392500  0.41407200  0.93566900  1
  O  O30  1  0.29392500  0.91407200  0.56433100  1
  O  O31  1  0.08592800  0.70607500  0.43566900  1
loop_
_geom_bond_atom_site_label_1
_geom_bond_atom_site_label_2
_geom_bond_distance
_geom_bond_site_symmetry_2
Np0 O10 2.205605 1_555
Np0 O23 2.295212 1_555
Np0 O18 2.295212 1_555
Np0 O27 2.337903 1_455
Np0 O30 2.337903 1_545
Np0 O15 2.497582 1_445
Np0 O5 2.565512 1_555
Np0 O0 2.565512 1_555
Np1 O11 2.205605 1_555
Np1 O22 2.295212 1_555
Np1 O19 2.295212 1_555
Np1 O26 2.337903 1_565
Np1 O31 2.337903 1_655
Np1 O14 2.497582 1_665
Np1 O4 2.565512 1_555
Np1 O1 2.565512 1_555
Np2 O8 2.205605 1_554
Np2 O16 2.295212 1_545
Np2 O21 2.295212 1_455
Np2 O28 2.337903 1_555
Np2 O25 2.337903 1_555
Np2 O13 2.497582 1_555
Np2 O7 2.565512 1_555
Np2 O2 2.565512 1_555
Np3 O9 2.205605 1_556
Np3 O20 2.295212 1_565
Np3 O17 2.295212 1_655
Np3 O24 2.337903 1_555
Np3 O29 2.337903 1_555
Np3 O12 2.497582 1_555
Np3 O3 2.565512 1_555
Np3 O6 2.565512 1_555
O0 P0 1.556837 1_555
O0 Sr0 2.628169 1_545
O0 Sr3 2.719891 1_555
O1 P1 1.556837 1_555
O1 Sr1 2.628169 1_655
O1 Sr2 2.719891 1_555
O2 P2 1.556837 1_555
O2 Sr2 2.628169 1_555
O2 Sr1 2.719891 1_545
O3 P3 1.556837 1_555
O3 Sr3 2.628169 1_555
O3 Sr0 2.719891 1_655
O4 P1 1.556837 1_555
O4 Sr2 2.628169 1_565
O4 Sr1 2.719891 1_555
O5 P0 1.556837 1_555
O5 Sr3 2.628169 1_455
O5 Sr0 2.719891 1_555
O6 P3 1.556837 1_555
O6 Sr0 2.628169 1_555
O6 Sr3 2.719891 1_565
O7 P2 1.556837 1_555
O7 Sr1 2.628169 1_555
O7 Sr2 2.719891 1_455
O8 P0 1.543726 1_555
O9 P1 1.543726 1_555
O10 P2 1.543726 1_555
O11 P3 1.543726 1_555
O12 P0 1.552595 1_555
O12 Sr3 2.796218 1_555
O12 Sr0 2.796218 1_555
O13 P1 1.552595 1_555
O13 Sr1 2.796218 1_555
O13 Sr2 2.796218 1_555
O14 P2 1.552595 1_555
O14 Sr2 2.796218 1_455
O14 Sr1 2.796218 1_545
O15 P3 1.552595 1_555
O15 Sr3 2.796218 1_565
O15 Sr0 2.796218 1_655
O16 P4 1.555629 1_555
O16 Sr1 2.740541 1_555
O17 P4 1.555629 1_556
O17 Sr0 2.740541 1_555
O18 P5 1.555629 1_555
O18 Sr3 2.740541 1_555
O19 P5 1.555629 1_555
O19 Sr2 2.740541 1_555
O20 P6 1.555629 1_556
O20 Sr3 2.740541 1_555
O21 P6 1.555629 1_555
O21 Sr2 2.740541 1_555
O22 P7 1.555629 1_555
O22 Sr1 2.740541 1_555
O23 P7 1.555629 1_555
O23 Sr0 2.740541 1_555
O24 P4 1.550092 1_556
O24 Sr0 2.679632 1_555
O25 P4 1.550092 1_555
O25 Sr1 2.679632 1_555
O26 P5 1.550092 1_555
O26 Sr2 2.679632 1_555
O27 P5 1.550092 1_555
O27 Sr3 2.679632 1_555
O28 P6 1.550092 1_555
O28 Sr2 2.679632 1_555
O29 P6 1.550092 1_556
O29 Sr3 2.679632 1_555
O30 P7 1.550092 1_555
O30 Sr0 2.679632 1_555
O31 P7 1.550092 1_555
O31 Sr1 2.679632 1_555
