# generated using pymatgen
data_CuBi3PbS6
_symmetry_space_group_name_H-M   'P 1'
_cell_length_a   4.05491300
_cell_length_b   11.36912900
_cell_length_c   11.68717900
_cell_angle_alpha   90.00000000
_cell_angle_beta   90.00000000
_cell_angle_gamma   90.00000000
_symmetry_Int_Tables_number   1
_chemical_formula_structural   CuBi3PbS6
_chemical_formula_sum   'Cu2 Bi6 Pb2 S12'
_cell_volume   538.78864035
_cell_formula_units_Z   2
loop_
 _symmetry_equiv_pos_site_id
 _symmetry_equiv_pos_as_xyz
  1  'x, y, z'
loop_
 _atom_site_type_symbol
 _atom_site_label
 _atom_site_symmetry_multiplicity
 _atom_site_fract_x
 _atom_site_fract_y
 _atom_site_fract_z
 _atom_site_occupancy
  Cu  Cu0  1  0.00000000  0.04181900  0.73616300  1
  Cu  Cu1  1  0.00000000  0.95818100  0.23616300  1
  Bi  Bi0  1  0.00000000  0.57167100  0.52493000  1
  Bi  Bi1  1  0.00000000  0.42832900  0.02493000  1
  Bi  Bi2  1  0.50000000  0.92636100  0.48506200  1
  Bi  Bi3  1  0.50000000  0.07363900  0.98506200  1
  Bi  Bi4  1  0.00000000  0.76333700  0.84889600  1
  Bi  Bi5  1  0.00000000  0.23666300  0.34889600  1
  Pb  Pb0  1  0.50000000  0.71406000  0.17095000  1
  Pb  Pb1  1  0.50000000  0.28594000  0.67095000  1
  S  S0  1  0.00000000  0.45015700  0.71393600  1
  S  S1  1  0.00000000  0.54984300  0.21393600  1
  S  S2  1  0.50000000  0.05282300  0.27907000  1
  S  S3  1  0.50000000  0.94717700  0.77907000  1
  S  S4  1  0.00000000  0.10623100  0.54077900  1
  S  S5  1  0.00000000  0.89376900  0.04077900  1
  S  S6  1  0.50000000  0.37466700  0.44131700  1
  S  S7  1  0.50000000  0.62533300  0.94131700  1
  S  S8  1  0.00000000  0.19044100  0.87450500  1
  S  S9  1  0.00000000  0.80955900  0.37450500  1
  S  S10  1  0.50000000  0.30182900  0.11409200  1
  S  S11  1  0.50000000  0.69817100  0.61409200  1
loop_
_geom_bond_atom_site_label_1
_geom_bond_atom_site_label_2
_geom_bond_distance
_geom_bond_site_symmetry_2
Cu0 S8 2.338638 1_555
Cu0 S3 2.349428 1_445
Cu0 S3 2.349428 1_545
Cu0 S4 2.398039 1_555
Cu1 S9 2.338638 1_555
Cu1 S2 2.349428 1_465
Cu1 S2 2.349428 1_565
Cu1 S5 2.398039 1_555
Bi0 S0 2.605381 1_555
Bi0 S11 2.695340 1_455
Bi0 S11 2.695340 1_555
Bi0 S6 3.175223 1_455
Bi0 S6 3.175223 1_555
Bi0 S9 3.225751 1_555
Bi1 S1 2.605381 1_555
Bi1 S10 2.695340 1_455
Bi1 S10 2.695340 1_555
Bi1 S7 3.175223 1_554
Bi1 S7 3.175223 1_454
Bi1 S8 3.225751 1_554
Bi2 S9 2.746546 1_655
Bi2 S9 2.746546 1_555
Bi2 S2 2.804113 1_565
Bi2 S4 2.952370 1_565
Bi2 S4 2.952370 1_665
Bi2 S11 3.000760 1_555
Bi3 S8 2.746546 1_555
Bi3 S8 2.746546 1_655
Bi3 S3 2.804113 1_545
Bi3 S5 2.952370 1_646
Bi3 S5 2.952370 1_546
Bi3 S10 3.000760 1_556
Bi4 S5 2.688515 1_556
Bi4 S7 2.781906 1_455
Bi4 S7 2.781906 1_555
Bi4 S3 3.024082 1_555
Bi4 S3 3.024082 1_455
Bi5 S4 2.688515 1_555
Bi5 S6 2.781906 1_555
Bi5 S6 2.781906 1_455
Bi5 S2 3.024082 1_555
Bi5 S2 3.024082 1_455
Pb0 S1 2.801549 1_555
Pb0 S1 2.801549 1_655
Pb0 S7 2.867081 1_554
Pb1 S0 2.801549 1_655
Pb1 S0 2.801549 1_555
Pb1 S6 2.867081 1_555
