# generated using pymatgen
data_Li7Fe4(PO4)6
_symmetry_space_group_name_H-M   'P 1'
_cell_length_a   8.48585900
_cell_length_b   8.49246840
_cell_length_c   9.00535242
_cell_angle_alpha   62.09801638
_cell_angle_beta   62.36523949
_cell_angle_gamma   60.08918461
_symmetry_Int_Tables_number   1
_chemical_formula_structural   Li7Fe4(PO4)6
_chemical_formula_sum   'Li7 Fe4 P6 O24'
_cell_volume   474.10486585
_cell_formula_units_Z   1
loop_
 _symmetry_equiv_pos_site_id
 _symmetry_equiv_pos_as_xyz
  1  'x, y, z'
loop_
 _atom_site_type_symbol
 _atom_site_label
 _atom_site_symmetry_multiplicity
 _atom_site_fract_x
 _atom_site_fract_y
 _atom_site_fract_z
 _atom_site_occupancy
  Li  Li0  1  0.07978300  0.84583600  0.35798000  1
  Li  Li1  1  0.26079500  0.27740400  0.86609600  1
  Li  Li2  1  0.79462800  0.64636700  0.55661000  1
  Li  Li3  1  0.59782400  0.79157800  0.85657700  1
  Li  Li4  1  0.33760400  0.23814100  0.35007500  1
  Li  Li5  1  0.76702800  0.64394100  0.16152700  1
  Li  Li6  1  0.90260900  0.16415300  0.64787300  1
  Fe  Fe0  1  0.14729100  0.64533300  0.06372600  1
  Fe  Fe1  1  0.63744400  0.15785600  0.54780500  1
  Fe  Fe2  1  0.35564100  0.84997200  0.45498100  1
  Fe  Fe3  1  0.84728300  0.35523800  0.94037600  1
  P  P0  1  0.23166500  0.04729300  0.75139000  1
  P  P1  1  0.04675200  0.24670000  0.25452700  1
  P  P2  1  0.45783600  0.55486700  0.24405100  1
  P  P3  1  0.53144400  0.46842100  0.75550100  1
  P  P4  1  0.95893900  0.74809000  0.75161700  1
  P  P5  1  0.74842400  0.96001000  0.25441700  1
  O  O0  1  0.10335200  0.24671500  0.77858100  1
  O  O1  1  0.25688200  0.66167500  0.21803700  1
  O  O2  1  0.01404000  0.30076700  0.07848700  1
  O  O3  1  0.43502600  0.01508200  0.73344000  1
  O  O4  1  0.14237900  0.74337700  0.59247700  1
  O  O5  1  0.47463700  0.35187000  0.36929400  1
  O  O6  1  0.18979300  0.03680600  0.28985200  1
  O  O7  1  0.13564500  0.38052000  0.23445900  1
  O  O8  1  0.79248700  0.12499500  0.09193300  1
  O  O9  1  0.61960300  0.55247600  0.06222100  1
  O  O10  1  0.79542200  0.93965500  0.41212700  1
  O  O11  1  0.49328200  0.67308100  0.30758100  1
  O  O12  1  0.48828500  0.34056800  0.71430400  1
  O  O13  1  0.21341700  0.05998700  0.58038800  1
  O  O14  1  0.39597800  0.49745200  0.93448800  1
  O  O15  1  0.16231000  0.89266200  0.90592000  1
  O  O16  1  0.86922700  0.62412800  0.75208500  1
  O  O17  1  0.80661500  0.95178000  0.73635800  1
  O  O18  1  0.52271000  0.66687500  0.60924000  1
  O  O19  1  0.86002100  0.26915700  0.40856800  1
  O  O20  1  0.53556700  0.99442200  0.30323300  1
  O  O21  1  0.99781000  0.66219600  0.93000900  1
  O  O22  1  0.74348300  0.37824000  0.75787500  1
  O  O23  1  0.87126600  0.76033100  0.22310200  1
loop_
_geom_bond_atom_site_label_1
_geom_bond_atom_site_label_2
_geom_bond_distance
_geom_bond_site_symmetry_2
Li0 O6 1.981288 1_565
Li0 O1 2.009088 1_555
Li0 O10 2.012474 1_455
Li0 O4 2.087718 1_555
Li1 O12 1.944591 1_555
Li1 O0 1.997577 1_555
Li1 O2 2.075504 1_556
Li1 O3 2.478593 1_555
Li2 O16 2.034327 1_555
Li2 O18 2.059435 1_555
Li2 O10 2.207319 1_555
Li2 O22 2.247584 1_555
Li2 O23 2.544624 1_555
Li3 O3 1.891293 1_565
Li3 O9 2.002667 1_556
Li3 O16 2.046365 1_555
Li3 O17 2.325575 1_555
Li4 O5 1.943771 1_555
Li4 O7 1.973204 1_555
Li4 O20 1.994015 1_545
Li4 O13 2.080129 1_555
Li5 O23 1.976577 1_555
Li5 O11 2.020978 1_555
Li5 O21 2.102069 1_554
Li5 O9 2.371771 1_555
Li6 O17 2.017270 1_545
Li6 O22 2.026469 1_555
Li6 O19 2.042656 1_555
Li6 O13 2.190322 1_655
Fe0 O15 1.937239 1_554
Fe0 O14 1.957447 1_554
Fe0 O21 2.038129 1_454
Fe0 O7 2.067816 1_555
Fe0 O1 2.079236 1_555
Fe0 O23 2.100473 1_455
Fe1 O19 2.123045 1_555
Fe1 O5 2.125752 1_555
Fe1 O12 2.171667 1_555
Fe1 O3 2.175197 1_555
Fe1 O10 2.201352 1_545
Fe1 O17 2.231874 1_545
Fe2 O18 1.991068 1_555
Fe2 O11 2.015208 1_555
Fe2 O20 2.016672 1_555
Fe2 O4 2.033162 1_555
Fe2 O6 2.053211 1_565
Fe2 O13 2.094524 1_565
Fe3 O8 1.929414 1_556
Fe3 O0 2.004136 1_655
Fe3 O2 2.050532 1_656
Fe3 O9 2.066056 1_556
Fe3 O22 2.094259 1_555
Fe3 O16 2.152123 1_555
O0 P0 1.554183 1_555
O1 P2 1.553924 1_555
O2 P1 1.549490 1_555
O3 P0 1.546219 1_555
O4 P4 1.549394 1_455
O5 P2 1.532531 1_555
O6 P1 1.556151 1_555
O7 P1 1.558686 1_555
O8 P5 1.529756 1_545
O9 P2 1.576123 1_555
O10 P5 1.559781 1_555
O11 P2 1.556922 1_555
O12 P3 1.533083 1_555
O13 P0 1.567222 1_555
O14 P3 1.533195 1_555
O15 P0 1.519238 1_565
O16 P4 1.574797 1_555
O17 P4 1.547374 1_555
O18 P3 1.571358 1_555
O19 P1 1.542289 1_655
O20 P5 1.548698 1_555
O21 P4 1.541604 1_555
O22 P3 1.571827 1_555
O23 P5 1.566437 1_555
