# generated using pymatgen
data_Mg2U4S2O27
_symmetry_space_group_name_H-M   'P 1'
_cell_length_a   8.33539514
_cell_length_b   8.33539514
_cell_length_c   8.86313279
_cell_angle_alpha   97.01174338
_cell_angle_beta   97.01174338
_cell_angle_gamma   116.79927714
_symmetry_Int_Tables_number   1
_chemical_formula_structural   Mg2U4S2O27
_chemical_formula_sum   'Mg2 U4 S2 O27'
_cell_volume   534.53373915
_cell_formula_units_Z   1
loop_
 _symmetry_equiv_pos_site_id
 _symmetry_equiv_pos_as_xyz
  1  'x, y, z'
loop_
 _atom_site_type_symbol
 _atom_site_label
 _atom_site_symmetry_multiplicity
 _atom_site_fract_x
 _atom_site_fract_y
 _atom_site_fract_z
 _atom_site_occupancy
  Mg  Mg0  1  0.14843300  0.14843300  0.20677000  1
  Mg  Mg1  1  0.85156700  0.85156700  0.79323000  1
  U  U0  1  0.43952600  0.89433900  0.16916400  1
  U  U1  1  0.89433900  0.43952600  0.16916400  1
  U  U2  1  0.56047400  0.10566100  0.83083600  1
  U  U3  1  0.10566100  0.56047400  0.83083600  1
  S  S0  1  0.74763700  0.25236300  0.50000000  1
  S  S1  1  0.25236300  0.74763700  0.50000000  1
  O  O0  1  0.15098900  0.64012700  0.08667400  1
  O  O1  1  0.64012700  0.15098900  0.08667400  1
  O  O2  1  0.84901100  0.35987300  0.91332600  1
  O  O3  1  0.35987300  0.84901100  0.91332600  1
  O  O4  1  0.61071400  0.61071400  0.73721300  1
  O  O5  1  0.38928600  0.38928600  0.26278700  1
  O  O6  1  0.57132200  0.77650200  0.13530700  1
  O  O7  1  0.77650200  0.57132200  0.13530700  1
  O  O8  1  0.42867800  0.22349800  0.86469300  1
  O  O9  1  0.22349800  0.42867800  0.86469300  1
  O  O10  1  0.31231700  0.02183800  0.22316300  1
  O  O11  1  0.02183800  0.31231700  0.22316300  1
  O  O12  1  0.68768300  0.97816200  0.77683700  1
  O  O13  1  0.97816200  0.68768300  0.77683700  1
  O  O14  1  0.69070200  0.07285900  0.39713400  1
  O  O15  1  0.07285900  0.69070200  0.39713400  1
  O  O16  1  0.30929800  0.92714100  0.60286600  1
  O  O17  1  0.92714100  0.30929800  0.60286600  1
  O  O18  1  0.61186900  0.23913600  0.59900500  1
  O  O19  1  0.23913600  0.61186900  0.59900500  1
  O  O20  1  0.38813100  0.76086400  0.40099500  1
  O  O21  1  0.76086400  0.38813100  0.40099500  1
  O  O22  1  0.28464100  0.28464100  0.46534900  1
  O  O23  1  0.71535900  0.71535900  0.53465100  1
  O  O24  1  0.01720400  0.01720400  0.38797800  1
  O  O25  1  0.98279600  0.98279600  0.61202200  1
  O  O26  1  0.00000000  0.00000000  0.00000000  1
loop_
_geom_bond_atom_site_label_1
_geom_bond_atom_site_label_2
_geom_bond_distance
_geom_bond_site_symmetry_2
Mg0 O26 1.983074 1_555
Mg0 O5 2.046054 1_555
Mg0 O10 2.071099 1_555
Mg0 O11 2.071099 1_555
Mg0 O24 2.179762 1_555
Mg0 O22 2.323270 1_555
Mg1 O26 1.983074 1_666
Mg1 O4 2.046054 1_555
Mg1 O12 2.071099 1_555
Mg1 O13 2.071099 1_555
Mg1 O25 2.179762 1_555
Mg1 O23 2.323270 1_555
O0 U3 2.218628 1_554
O0 U1 2.315535 1_455
O0 U0 2.325058 1_555
O1 U2 2.218628 1_554
O1 U0 2.315535 1_545
O1 U1 2.325058 1_555
O2 U1 2.218628 1_556
O2 U3 2.315535 1_655
O2 U2 2.325058 1_555
O3 U0 2.218628 1_556
O3 U2 2.315535 1_565
O3 U3 2.325058 1_555
O6 U0 1.800885 1_555
O7 U1 1.800885 1_555
O8 U2 1.800885 1_555
O9 U3 1.800885 1_555
O10 U0 1.870476 1_545
O11 U1 1.870476 1_455
O12 U2 1.870476 1_565
O13 U3 1.870476 1_655
O14 S0 1.488686 1_555
O14 U0 2.470632 1_545
O15 S1 1.488686 1_555
O15 U1 2.470632 1_455
O16 S1 1.488686 1_555
O16 U2 2.470632 1_565
O17 S0 1.488686 1_555
O17 U3 2.470632 1_655
O18 S0 1.488761 1_555
O18 U2 2.446748 1_555
O19 S1 1.488761 1_555
O19 U3 2.446748 1_555
O20 S1 1.488761 1_555
O20 U0 2.446748 1_555
O21 S0 1.488761 1_555
O21 U1 2.446748 1_555
