# generated using pymatgen
data_ZnCo2O5
_symmetry_space_group_name_H-M   'P 1'
_cell_length_a   5.26984494
_cell_length_b   5.26984494
_cell_length_c   10.99505922
_cell_angle_alpha   89.99375737
_cell_angle_beta   90.00624263
_cell_angle_gamma   140.46084184
_symmetry_Int_Tables_number   1
_chemical_formula_structural   ZnCo2O5
_chemical_formula_sum   'Zn2 Co4 O10'
_cell_volume   194.38537279
_cell_formula_units_Z   2
loop_
 _symmetry_equiv_pos_site_id
 _symmetry_equiv_pos_as_xyz
  1  'x, y, z'
loop_
 _atom_site_type_symbol
 _atom_site_label
 _atom_site_symmetry_multiplicity
 _atom_site_fract_x
 _atom_site_fract_y
 _atom_site_fract_z
 _atom_site_occupancy
  Zn  Zn0  1  0.09760318  0.90239682  0.75003389  1
  Zn  Zn1  1  0.90241652  0.09758348  0.24986941  1
  Co  Co0  1  0.79225866  0.20774034  0.59758544  1
  Co  Co1  1  0.20761367  0.79238633  0.40242733  1
  Co  Co2  1  0.20776791  0.79223209  0.09749269  1
  Co  Co3  1  0.79235791  0.20764109  0.90244277  1
  O  O0  1  0.31220192  0.68779808  0.25001494  1
  O  O1  1  0.68779393  0.31220607  0.75004998  1
  O  O2  1  0.75401080  0.24598920  0.07587203  1
  O  O3  1  0.24616241  0.75383759  0.92410202  1
  O  O4  1  0.24603311  0.75396689  0.57592621  1
  O  O5  1  0.75377436  0.24622564  0.42415858  1
  O  O6  1  0.95777790  0.04222210  0.62327435  1
  O  O7  1  0.04209868  0.95790132  0.37678244  1
  O  O8  1  0.95787296  0.04212704  0.87679403  1
  O  O9  1  0.04225606  0.95774394  0.12317388  1
loop_
_geom_bond_atom_site_label_1
_geom_bond_atom_site_label_2
_geom_bond_distance
_geom_bond_site_symmetry_2
Co0 O6 1.665783 1_555
Co0 O4 1.855821 1_545
Co0 O4 1.855825 1_655
Co0 O5 1.944625 1_555
Co0 O1 1.970826 1_555
Co1 O7 1.665665 1_555
Co1 O5 1.855765 1_455
Co1 O5 1.855765 1_565
Co1 O4 1.945275 1_555
Co1 O0 1.970980 1_555
Co2 O9 1.665766 1_555
Co2 O2 1.855823 1_565
Co2 O2 1.855823 1_455
Co2 O3 1.944146 1_554
Co2 O0 1.970999 1_555
Co3 O8 1.665732 1_555
Co3 O3 1.855761 1_545
Co3 O3 1.855765 1_655
Co3 O2 1.944471 1_556
Co3 O1 1.970468 1_555
O0 Zn1 1.994450 1_455
O0 Zn1 1.994450 1_565
O1 Zn0 1.994343 1_655
O1 Zn0 1.994343 1_545
O2 Zn1 2.413713 1_555
O3 Zn0 2.415258 1_555
O4 Zn0 2.415091 1_555
O5 Zn1 2.417956 1_555
O6 Zn0 1.966062 1_645
O7 Zn1 1.966258 1_465
O8 Zn0 1.965629 1_645
O9 Zn1 1.965890 1_465
