# generated using pymatgen
data_V3Pb5F19
_symmetry_space_group_name_H-M   'P 1'
_cell_length_a   11.12671822
_cell_length_b   11.12671822
_cell_length_c   11.12671822
_cell_angle_alpha   97.00169910
_cell_angle_beta   97.00169910
_cell_angle_gamma   139.13054801
_symmetry_Int_Tables_number   1
_chemical_formula_structural   V3Pb5F19
_chemical_formula_sum   'V6 Pb10 F38'
_cell_volume   844.64754077
_cell_formula_units_Z   2
loop_
 _symmetry_equiv_pos_site_id
 _symmetry_equiv_pos_as_xyz
  1  'x, y, z'
loop_
 _atom_site_type_symbol
 _atom_site_label
 _atom_site_symmetry_multiplicity
 _atom_site_fract_x
 _atom_site_fract_y
 _atom_site_fract_z
 _atom_site_occupancy
  V  V0  1  0.71725600  0.21725600  0.82457800  1
  V  V1  1  0.39267700  0.89267700  0.17542200  1
  V  V2  1  0.89267700  0.71725600  0.50000000  1
  V  V3  1  0.21725600  0.39267700  0.50000000  1
  V  V4  1  0.24832100  0.24832100  0.00000000  1
  V  V5  1  0.74832100  0.74832100  0.00000000  1
  Pb  Pb0  1  0.33046300  0.17034700  0.29844300  1
  Pb  Pb1  1  0.87190400  0.03202000  0.70155700  1
  Pb  Pb2  1  0.03202000  0.33046300  0.16011600  1
  Pb  Pb3  1  0.83046300  0.53202000  0.16011600  1
  Pb  Pb4  1  0.17034700  0.87190400  0.83988400  1
  Pb  Pb5  1  0.37190400  0.67034700  0.83988400  1
  Pb  Pb6  1  0.53202000  0.37190400  0.70155700  1
  Pb  Pb7  1  0.67034700  0.83046300  0.29844300  1
  Pb  Pb8  1  0.71287400  0.21287400  0.50000000  1
  Pb  Pb9  1  0.21287400  0.71287400  0.50000000  1
  F  F0  1  0.53927600  0.03927600  0.64660300  1
  F  F1  1  0.39267300  0.89267300  0.35339700  1
  F  F2  1  0.89267300  0.53927600  0.50000000  1
  F  F3  1  0.03927600  0.39267300  0.50000000  1
  F  F4  1  0.28796400  0.53001300  0.37202300  1
  F  F5  1  0.15799000  0.91594100  0.62797700  1
  F  F6  1  0.91594100  0.28796400  0.75795100  1
  F  F7  1  0.78796400  0.41594100  0.75795100  1
  F  F8  1  0.53001300  0.15799000  0.24204900  1
  F  F9  1  0.65799000  0.03001300  0.24204900  1
  F  F10  1  0.41594100  0.65799000  0.62797700  1
  F  F11  1  0.03001300  0.78796400  0.37202300  1
  F  F12  1  0.36418400  0.86418400  0.99400700  1
  F  F13  1  0.87017700  0.37017700  0.00599300  1
  F  F14  1  0.37017700  0.36418400  0.50000000  1
  F  F15  1  0.86418400  0.87017700  0.50000000  1
  F  F16  1  0.21026700  0.71026700  0.72757100  1
  F  F17  1  0.98269700  0.48269700  0.27242900  1
  F  F18  1  0.48269700  0.21026700  0.50000000  1
  F  F19  1  0.71026700  0.98269700  0.50000000  1
  F  F20  1  0.99731900  0.99731900  0.00000000  1
  F  F21  1  0.49731900  0.49731900  0.00000000  1
  F  F22  1  0.29747000  0.35995600  0.17854000  1
  F  F23  1  0.18141600  0.11893000  0.82146000  1
  F  F24  1  0.11893000  0.29747000  0.93751400  1
  F  F25  1  0.79747000  0.61893000  0.93751400  1
  F  F26  1  0.35995600  0.18141600  0.06248600  1
  F  F27  1  0.68141600  0.85995600  0.06248600  1
  F  F28  1  0.61893000  0.68141600  0.82146000  1
  F  F29  1  0.85995600  0.79747000  0.17854000  1
  F  F30  1  0.64582900  0.50357900  0.35112300  1
  F  F31  1  0.15245600  0.29470500  0.64887700  1
  F  F32  1  0.29470500  0.64582900  0.14225000  1
  F  F33  1  0.14582900  0.79470500  0.14225000  1
  F  F34  1  0.50357900  0.15245600  0.85775000  1
  F  F35  1  0.65245600  0.00357900  0.85775000  1
  F  F36  1  0.79470500  0.65245600  0.64887700  1
  F  F37  1  0.00357900  0.14582900  0.35112300  1
loop_
_geom_bond_atom_site_label_1
_geom_bond_atom_site_label_2
_geom_bond_distance
_geom_bond_site_symmetry_2
F0 V0 1.980291 1_555
F0 Pb8 2.452830 1_555
F0 Pb9 2.490691 1_545
F1 V1 1.980289 1_555
F1 Pb8 2.452830 1_565
F1 Pb9 2.490691 1_555
F2 V2 1.980300 1_555
F2 Pb9 2.452830 1_655
F2 Pb8 2.490691 1_555
F3 V3 1.980300 1_555
F3 Pb9 2.452830 1_555
F3 Pb8 2.490691 1_455
F4 V3 1.991757 1_555
F4 Pb2 2.474443 1_555
F5 V2 1.991757 1_455
F5 Pb4 2.474443 1_555
F6 V0 1.991751 1_555
F6 Pb1 2.474443 1_555
F7 V0 1.991751 1_555
F7 Pb6 2.474443 1_555
F8 V1 1.991756 1_545
F8 Pb0 2.474443 1_555
F9 V1 1.991756 1_545
F9 Pb7 2.474443 1_545
F10 V3 1.991757 1_555
F10 Pb5 2.474443 1_555
F11 V2 1.991757 1_455
F11 Pb3 2.474443 1_455
F12 V1 1.952314 1_556
F12 Pb5 2.648443 1_555
F12 Pb4 2.648443 1_555
F13 V0 1.952312 1_554
F13 Pb2 2.648443 1_655
F13 Pb3 2.648443 1_555
F14 V3 1.952303 1_555
F14 Pb0 2.648443 1_555
F14 Pb6 2.648443 1_555
F15 V2 1.952303 1_555
F15 Pb1 2.648443 1_565
F15 Pb7 2.648443 1_555
F16 Pb4 2.406058 1_555
F16 Pb5 2.406058 1_555
F16 Pb9 2.539261 1_555
F17 Pb3 2.406058 1_555
F17 Pb2 2.406058 1_655
F17 Pb9 2.539258 1_655
F18 Pb6 2.406063 1_555
F18 Pb0 2.406063 1_555
F18 Pb8 2.539250 1_555
F19 Pb7 2.406063 1_555
F19 Pb1 2.406063 1_565
F19 Pb8 2.539250 1_565
F20 V5 1.934606 1_555
F20 V4 1.950177 1_665
F21 V4 1.934606 1_555
F21 V5 1.950177 1_555
F22 V4 1.973473 1_555
F22 Pb2 2.691371 1_555
F23 V4 1.973473 1_556
F23 Pb4 2.691371 1_545
F24 V4 1.973473 1_556
F24 Pb1 2.691371 1_455
F25 V5 1.973473 1_556
F25 Pb6 2.691371 1_555
F26 V4 1.973473 1_555
F26 Pb0 2.691371 1_555
F27 V5 1.973473 1_555
F27 Pb7 2.691371 1_555
F28 V5 1.973473 1_556
F28 Pb5 2.691371 1_555
F29 V5 1.973473 1_555
F29 Pb3 2.691371 1_555
F30 V2 1.998728 1_555
F30 Pb0 2.386562 1_555
F31 V3 1.998732 1_555
F31 Pb1 2.386559 1_455
F32 V1 1.998722 1_555
F32 Pb2 2.386561 1_555
F33 V1 1.998722 1_555
F33 Pb3 2.386561 1_455
F34 V0 1.998732 1_555
F34 Pb4 2.386562 1_545
F35 V0 1.998732 1_555
F35 Pb5 2.386562 1_545
F36 V2 1.998732 1_555
F36 Pb6 2.386559 1_555
F37 V3 1.998728 1_555
F37 Pb7 2.386562 1_445
