# generated using pymatgen
data_Lu4CdPt
_symmetry_space_group_name_H-M   'P 1'
_cell_length_a   9.41096622
_cell_length_b   9.41096463
_cell_length_c   9.41097355
_cell_angle_alpha   59.99992665
_cell_angle_beta   59.99989362
_cell_angle_gamma   59.99984558
_symmetry_Int_Tables_number   1
_chemical_formula_structural   Lu4CdPt
_chemical_formula_sum   'Lu16 Cd4 Pt4'
_cell_volume   589.36835613
_cell_formula_units_Z   4
loop_
 _symmetry_equiv_pos_site_id
 _symmetry_equiv_pos_as_xyz
  1  'x, y, z'
loop_
 _atom_site_type_symbol
 _atom_site_label
 _atom_site_symmetry_multiplicity
 _atom_site_fract_x
 _atom_site_fract_y
 _atom_site_fract_z
 _atom_site_occupancy
  Lu  Lu0  1  0.60309115  0.60304216  0.60307323  1
  Lu  Lu1  1  0.60306298  0.60301234  0.19081639  1
  Lu  Lu2  1  0.60304713  0.19082728  0.60303079  1
  Lu  Lu3  1  0.19081193  0.60301988  0.60305249  1
  Lu  Lu4  1  0.05984782  0.44016625  0.44018250  1
  Lu  Lu5  1  0.44015435  0.05985062  0.05981761  1
  Lu  Lu6  1  0.44017507  0.05987580  0.44016799  1
  Lu  Lu7  1  0.05981991  0.44014582  0.05983951  1
  Lu  Lu8  1  0.44018655  0.44016088  0.05985837  1
  Lu  Lu9  1  0.05980602  0.05985740  0.44015177  1
  Lu  Lu10  1  0.18619014  0.81381861  0.81383366  1
  Lu  Lu11  1  0.81378936  0.18621229  0.18618883  1
  Lu  Lu12  1  0.81381528  0.18622203  0.81380930  1
  Lu  Lu13  1  0.18618243  0.81379343  0.18619532  1
  Lu  Lu14  1  0.81382981  0.81381314  0.18620181  1
  Lu  Lu15  1  0.18617839  0.18621512  0.81379133  1
  Cd  Cd0  1  0.83196348  0.83195893  0.83195872  1
  Cd  Cd1  1  0.83196226  0.83195577  0.50411897  1
  Cd  Cd2  1  0.83196389  0.50411665  0.83195624  1
  Cd  Cd3  1  0.50411928  0.83195411  0.83195842  1
  Pt  Pt0  1  0.39332189  0.39331495  0.39332088  1
  Pt  Pt1  1  0.39331872  0.39331148  0.82004634  1
  Pt  Pt2  1  0.39331729  0.82004680  0.39331240  1
  Pt  Pt3  1  0.82004386  0.39331128  0.39331815  1
loop_
_geom_bond_atom_site_label_1
_geom_bond_atom_site_label_2
_geom_bond_distance
_geom_bond_site_symmetry_2
Lu0 Pt3 2.792315 1_555
Lu0 Pt1 2.792434 1_555
Lu0 Pt2 2.792647 1_555
Lu0 Lu12 3.409927 1_555
Lu0 Lu14 3.410344 1_555
Lu0 Lu10 3.410573 1_555
Lu1 Pt0 2.792003 1_555
Lu1 Pt3 2.792301 1_555
Lu1 Pt2 2.792625 1_555
Lu1 Lu11 3.409728 1_555
Lu1 Lu13 3.410367 1_555
Lu1 Lu14 3.410947 1_555
Lu2 Pt0 2.791983 1_555
Lu2 Pt3 2.792293 1_555
Lu2 Pt1 2.792420 1_555
Lu3 Pt0 2.791986 1_555
Lu3 Pt1 2.792422 1_555
Lu3 Pt2 2.792637 1_555
Lu4 Pt0 2.768497 1_555
Lu4 Pt3 2.768933 1_455
Lu5 Pt1 2.768447 1_554
Lu5 Pt2 2.768756 1_545
Lu6 Pt0 2.768216 1_555
Lu6 Pt2 2.769126 1_545
Lu7 Pt3 2.768571 1_455
Lu7 Pt1 2.768744 1_554
Lu8 Pt0 2.768402 1_555
Lu8 Pt1 2.768995 1_554
Lu9 Pt3 2.768373 1_455
Lu9 Pt2 2.768872 1_545
Lu10 Pt1 3.410640 1_555
Lu10 Pt2 3.410720 1_555
Lu10 Lu3 3.411008 1_555
Lu10 Lu13 3.504131 1_556
Lu10 Lu14 3.504303 1_456
Lu10 Lu15 3.504356 1_565
Lu10 Lu12 3.504533 1_465
Lu10 Lu8 3.525216 1_556
Lu10 Lu6 3.525341 1_565
Lu10 Lu7 3.525373 1_556
Lu10 Lu9 3.525509 1_565
Lu11 Lu2 3.410040 1_555
Lu11 Pt0 3.410263 1_555
Lu11 Pt3 3.410341 1_555
Lu11 Lu12 3.504286 1_554
Lu11 Lu14 3.504384 1_545
Lu11 Lu15 3.504576 1_654
Lu11 Lu13 3.504691 1_645
Lu11 Lu8 3.524631 1_555
Lu11 Lu6 3.524753 1_555
Lu11 Lu7 3.524815 1_655
Lu11 Lu9 3.524922 1_655
Lu12 Pt3 3.410475 1_555
Lu12 Pt1 3.410491 1_555
Lu12 Lu2 3.410827 1_555
Lu12 Lu15 3.504180 1_655
Lu12 Lu14 3.504648 1_546
Lu12 Lu4 3.524910 1_655
Lu12 Lu8 3.524963 1_556
Lu12 Lu9 3.525227 1_655
Lu12 Lu5 3.525284 1_556
Lu13 Lu3 3.410205 1_555
Lu13 Pt0 3.410405 1_555
Lu13 Pt2 3.410529 1_555
Lu13 Lu14 3.504075 1_455
Lu13 Lu15 3.504762 1_564
Lu13 Lu4 3.524846 1_555
Lu13 Lu8 3.524897 1_555
Lu13 Lu9 3.525171 1_565
Lu13 Lu5 3.525237 1_565
Lu14 Pt3 3.410597 1_555
Lu14 Pt2 3.410632 1_555
Lu14 Lu4 3.525076 1_655
Lu14 Lu6 3.525238 1_565
Lu14 Lu7 3.525290 1_655
Lu14 Lu5 3.525455 1_565
Lu15 Lu3 3.409786 1_555
Lu15 Lu2 3.410247 1_555
Lu15 Pt0 3.410308 1_555
Lu15 Pt1 3.410413 1_555
Lu15 Lu4 3.524682 1_555
Lu15 Lu6 3.524839 1_555
Lu15 Lu7 3.524901 1_556
Lu15 Lu5 3.525070 1_556
Cd0 Cd1 3.085312 1_555
Cd0 Cd2 3.085322 1_555
Cd0 Cd3 3.085355 1_555
Cd0 Lu10 3.172161 1_655
Cd0 Lu14 3.172260 1_556
Cd0 Lu12 3.172368 1_565
Cd0 Lu3 3.282949 1_655
Cd0 Lu1 3.282994 1_556
Cd0 Lu2 3.283016 1_565
Cd0 Lu9 3.402620 1_665
Cd0 Lu7 3.402628 1_656
Cd0 Lu5 3.402660 1_566
Cd1 Cd2 3.085272 1_555
Cd1 Cd3 3.085299 1_555
Cd1 Lu14 3.171801 1_555
Cd1 Lu13 3.171967 1_655
Cd1 Lu11 3.172184 1_565
Cd1 Lu0 3.282626 1_555
Cd1 Lu3 3.282681 1_655
Cd1 Lu2 3.282757 1_565
Cd1 Lu4 3.402485 1_655
Cd1 Lu9 3.402517 1_665
Cd1 Lu6 3.402522 1_565
Cd2 Cd3 3.085293 1_555
Cd2 Lu12 3.171694 1_555
Cd2 Lu15 3.171841 1_655
Cd2 Lu11 3.171953 1_556
Cd2 Lu0 3.282497 1_555
Cd2 Lu3 3.282536 1_655
Cd2 Lu1 3.282599 1_556
Cd2 Lu4 3.402415 1_655
Cd2 Lu7 3.402453 1_656
Cd2 Lu8 3.402463 1_556
Cd3 Lu10 3.171835 1_555
Cd3 Lu13 3.172110 1_556
Cd3 Lu15 3.172248 1_565
Cd3 Lu0 3.282662 1_555
Cd3 Lu1 3.282796 1_556
Cd3 Lu2 3.282845 1_565
Cd3 Lu8 3.402504 1_556
Cd3 Lu6 3.402527 1_565
Cd3 Lu5 3.402610 1_566
