# generated using pymatgen
data_PrSiI
_symmetry_space_group_name_H-M   'P 1'
_cell_length_a   4.21334276
_cell_length_b   4.21334276
_cell_length_c   11.98836716
_cell_angle_alpha   90.00000000
_cell_angle_beta   90.00000000
_cell_angle_gamma   119.99998738
_symmetry_Int_Tables_number   1
_chemical_formula_structural   PrSiI
_chemical_formula_sum   'Pr2 Si2 I2'
_cell_volume   184.30804959
_cell_formula_units_Z   2
loop_
 _symmetry_equiv_pos_site_id
 _symmetry_equiv_pos_as_xyz
  1  'x, y, z'
loop_
 _atom_site_type_symbol
 _atom_site_label
 _atom_site_symmetry_multiplicity
 _atom_site_fract_x
 _atom_site_fract_y
 _atom_site_fract_z
 _atom_site_occupancy
  Pr  Pr0  1  -0.00000000  -0.00000000  0.16738072  1
  Pr  Pr1  1  -0.00000000  0.00000000  0.83261928  1
  Si  Si0  1  0.33333300  0.66666700  0.00593660  1
  Si  Si1  1  0.66666700  0.33333300  0.99406340  1
  I  I0  1  0.33333300  0.66666700  0.65309067  1
  I  I1  1  0.66666700  0.33333300  0.34690933  1
loop_
_geom_bond_atom_site_label_1
_geom_bond_atom_site_label_2
_geom_bond_distance
_geom_bond_site_symmetry_2
Pr0 Si0 3.108598 1_545
Pr0 Si0 3.108601 1_555
Pr0 Si0 3.108601 1_445
Pr0 Si1 3.199160 1_454
Pr0 Si1 3.199163 1_444
Pr0 Si1 3.199163 1_554
Pr1 Si1 3.108598 1_455
Pr1 Si1 3.108601 1_555
Pr1 Si1 3.108601 1_445
Pr1 Si0 3.199160 1_546
Pr1 Si0 3.199163 1_556
Pr1 Si0 3.199163 1_446
Si0 Si1 2.436733 1_454
Si0 Si1 2.436733 1_564
Si0 Si1 2.436740 1_554
I0 Pr1 3.248016 1_565
I0 Pr1 3.248019 1_555
I0 Pr1 3.248019 1_665
I1 Pr0 3.248016 1_655
I1 Pr0 3.248019 1_665
I1 Pr0 3.248019 1_555
