# generated using pymatgen
data_Gd(FeP3)4
_symmetry_space_group_name_H-M   'P 1'
_cell_length_a   6.71537768
_cell_length_b   6.71538121
_cell_length_c   6.71538189
_cell_angle_alpha   109.47125484
_cell_angle_beta   109.47122663
_cell_angle_gamma   109.47126160
_symmetry_Int_Tables_number   1
_chemical_formula_structural   Gd(FeP3)4
_chemical_formula_sum   'Gd1 Fe4 P12'
_cell_volume   233.12535127
_cell_formula_units_Z   1
loop_
 _symmetry_equiv_pos_site_id
 _symmetry_equiv_pos_as_xyz
  1  'x, y, z'
loop_
 _atom_site_type_symbol
 _atom_site_label
 _atom_site_symmetry_multiplicity
 _atom_site_fract_x
 _atom_site_fract_y
 _atom_site_fract_z
 _atom_site_occupancy
  Gd  Gd0  1  -0.00000000  -0.00000000  -0.00000000  1
  Fe  Fe0  1  0.50000000  0.50000000  0.50000000  1
  Fe  Fe1  1  0.50000000  -0.00000000  -0.00000000  1
  Fe  Fe2  1  -0.00000000  0.50000000  -0.00000000  1
  Fe  Fe3  1  -0.00000000  -0.00000000  0.50000000  1
  P  P0  1  0.84997485  0.64739542  0.49736927  1
  P  P1  1  0.15002515  0.35260458  0.50263073  1
  P  P2  1  0.15002680  0.64739532  0.79741812  1
  P  P3  1  0.84997320  0.35260468  0.20258188  1
  P  P4  1  0.64739253  0.49736898  0.84997385  1
  P  P5  1  0.35260747  0.50263102  0.15002615  1
  P  P6  1  0.64739513  0.79741968  0.15002615  1
  P  P7  1  0.35260487  0.20258032  0.84997385  1
  P  P8  1  0.49736911  0.84997356  0.64739283  1
  P  P9  1  0.50263089  0.15002644  0.35260717  1
  P  P10  1  0.20258073  0.84997628  0.35260717  1
  P  P11  1  0.79741927  0.15002372  0.64739283  1
loop_
_geom_bond_atom_site_label_1
_geom_bond_atom_site_label_2
_geom_bond_distance
_geom_bond_site_symmetry_2
Gd0 P0 2.971386 1_444
Gd0 P1 2.971386 1_555
Gd0 P9 2.971388 1_555
Gd0 P8 2.971388 1_444
Gd0 P6 2.971390 1_445
Gd0 P7 2.971390 1_554
Gd0 P4 2.971390 1_444
Gd0 P5 2.971390 1_555
Gd0 P11 2.971392 1_454
Gd0 P10 2.971392 1_545
Gd0 P2 2.971396 1_544
Gd0 P3 2.971396 1_455
Fe0 P8 2.234278 1_555
Fe0 P9 2.234278 1_555
Fe0 P4 2.234281 1_555
Fe0 P5 2.234281 1_555
Fe0 P1 2.234286 1_555
Fe0 P0 2.234286 1_555
Fe1 P2 2.234274 1_544
Fe1 P3 2.234274 1_555
Fe1 P7 2.234292 1_554
Fe1 P6 2.234292 1_545
Fe1 P8 2.234296 1_544
Fe1 P9 2.234296 1_555
Fe2 P11 2.234294 1_454
Fe2 P10 2.234294 1_555
Fe2 P4 2.234297 1_454
Fe2 P5 2.234297 1_555
Fe2 P2 2.234304 1_554
Fe2 P3 2.234304 1_455
Fe3 P10 2.234278 1_545
Fe3 P11 2.234278 1_455
Fe3 P6 2.234279 1_445
Fe3 P7 2.234279 1_555
Fe3 P0 2.234280 1_445
Fe3 P1 2.234280 1_555
P0 P3 2.285862 1_555
P0 P2 2.326667 1_655
P1 P2 2.285862 1_555
P1 P3 2.326667 1_455
P4 P7 2.285861 1_555
P4 P6 2.326665 1_556
P5 P6 2.285861 1_555
P5 P7 2.326665 1_554
P10 P8 2.285863 1_555
P10 P9 2.326663 1_565
P11 P9 2.285863 1_555
P11 P8 2.326663 1_545
