# generated using pymatgen
data_Li5Cl3O
_symmetry_space_group_name_H-M   'P 1'
_cell_length_a   7.72754080
_cell_length_b   7.72754080
_cell_length_c   7.72754080
_cell_angle_alpha   125.76662956
_cell_angle_beta   125.76662956
_cell_angle_gamma   80.27203950
_symmetry_Int_Tables_number   1
_chemical_formula_structural   Li5Cl3O
_chemical_formula_sum   'Li10 Cl6 O2'
_cell_volume   293.17516434
_cell_formula_units_Z   2
loop_
 _symmetry_equiv_pos_site_id
 _symmetry_equiv_pos_as_xyz
  1  'x, y, z'
loop_
 _atom_site_type_symbol
 _atom_site_label
 _atom_site_symmetry_multiplicity
 _atom_site_fract_x
 _atom_site_fract_y
 _atom_site_fract_z
 _atom_site_occupancy
  Li  Li0  1  0.00000000  0.00000000  0.00000000  1
  Li  Li1  1  0.50000000  0.50000000  0.00000000  1
  Li  Li2  1  0.80221500  0.30221500  0.78522800  1
  Li  Li3  1  0.51698800  0.01698800  0.21477200  1
  Li  Li4  1  0.30221500  0.51698800  0.50000000  1
  Li  Li5  1  0.01698800  0.80221500  0.50000000  1
  Li  Li6  1  0.19778500  0.69778500  0.21477200  1
  Li  Li7  1  0.48301200  0.98301200  0.78522800  1
  Li  Li8  1  0.69778500  0.48301200  0.50000000  1
  Li  Li9  1  0.98301200  0.19778500  0.50000000  1
  Cl  Cl0  1  0.75000000  0.75000000  0.00000000  1
  Cl  Cl1  1  0.25000000  0.25000000  0.00000000  1
  Cl  Cl2  1  0.20852600  0.70852600  0.91705300  1
  Cl  Cl3  1  0.79147400  0.29147400  0.08294700  1
  Cl  Cl4  1  0.70852600  0.79147400  0.50000000  1
  Cl  Cl5  1  0.29147400  0.20852600  0.50000000  1
  O  O0  1  0.75000000  0.25000000  0.50000000  1
  O  O1  1  0.25000000  0.75000000  0.50000000  1
loop_
_geom_bond_atom_site_label_1
_geom_bond_atom_site_label_2
_geom_bond_distance
_geom_bond_site_symmetry_2
Li2 O0 1.777499 1_555
Li3 O0 1.777492 1_555
Li4 O1 1.777492 1_555
Li5 O1 1.777492 1_555
Li6 O1 1.777499 1_555
Li7 O1 1.777492 1_555
Li8 O0 1.777492 1_555
Li9 O0 1.777492 1_555
Cl0 Li3 2.913502 1_565
Cl0 Li7 2.913502 1_554
Cl0 Li8 2.913506 1_554
Cl0 Li5 2.913506 1_655
Cl0 Li9 2.913506 1_565
Cl0 Li4 2.913506 1_554
Cl0 Li2 2.913506 1_554
Cl0 Li6 2.913506 1_655
Cl0 Li1 2.953915 1_555
Cl0 Li0 2.953915 1_665
Cl1 Li3 2.913502 1_555
Cl1 Li7 2.913502 1_544
Cl1 Li4 2.913506 1_555
Cl1 Li8 2.913506 1_555
Cl1 Li9 2.913506 1_454
Cl1 Li5 2.913506 1_544
Cl1 Li2 2.913506 1_454
Cl1 Li6 2.913506 1_555
Cl1 Li0 2.953915 1_555
Cl1 Li1 2.953915 1_555
Cl2 Li6 2.399057 1_556
Cl2 Li3 2.399076 1_566
Cl2 Li1 2.524642 1_556
Cl2 Li0 2.524642 1_566
Cl3 Li2 2.399057 1_554
Cl3 Li7 2.399076 1_544
Cl3 Li0 2.524642 1_655
Cl3 Li1 2.524642 1_555
Cl4 Li5 2.399073 1_655
Cl4 Li8 2.399073 1_555
Cl4 Li0 2.524643 1_666
Cl4 Li1 2.524643 1_555
Cl5 Li9 2.399073 1_455
Cl5 Li4 2.399073 1_555
Cl5 Li0 2.524643 1_555
Cl5 Li1 2.524643 1_556
