# generated using pymatgen
data_Ba2Sr(IrO3)3
_symmetry_space_group_name_H-M   'P 1'
_cell_length_a   5.77706024
_cell_length_b   5.77706024
_cell_length_c   29.69039600
_cell_angle_alpha   90.00000000
_cell_angle_beta   90.00000000
_cell_angle_gamma   120.00000279
_symmetry_Int_Tables_number   1
_chemical_formula_structural   Ba2Sr(IrO3)3
_chemical_formula_sum   'Ba8 Sr4 Ir12 O36'
_cell_volume   858.14445856
_cell_formula_units_Z   4
loop_
 _symmetry_equiv_pos_site_id
 _symmetry_equiv_pos_as_xyz
  1  'x, y, z'
loop_
 _atom_site_type_symbol
 _atom_site_label
 _atom_site_symmetry_multiplicity
 _atom_site_fract_x
 _atom_site_fract_y
 _atom_site_fract_z
 _atom_site_occupancy
  Ba  Ba0  1  0.66666700  0.33333300  0.16681000  1
  Ba  Ba1  1  0.66666700  0.33333300  0.83319000  1
  Ba  Ba2  1  0.00000000  0.00000000  0.41656900  1
  Ba  Ba3  1  0.00000000  0.00000000  0.08170900  1
  Ba  Ba4  1  0.00000000  0.00000000  0.74868200  1
  Ba  Ba5  1  0.00000000  0.00000000  0.58343100  1
  Ba  Ba6  1  0.00000000  0.00000000  0.25131800  1
  Ba  Ba7  1  0.00000000  0.00000000  0.91829100  1
  Sr  Sr0  1  0.33333300  0.66666700  0.33260700  1
  Sr  Sr1  1  0.33333300  0.66666700  0.00000000  1
  Sr  Sr2  1  0.33333300  0.66666700  0.66739300  1
  Sr  Sr3  1  0.66666700  0.33333300  0.50000000  1
  Ir  Ir0  1  0.33333300  0.66666700  0.45491200  1
  Ir  Ir1  1  0.33333300  0.66666700  0.12138500  1
  Ir  Ir2  1  0.33333300  0.66666700  0.78811100  1
  Ir  Ir3  1  0.66666700  0.33333300  0.37878300  1
  Ir  Ir4  1  0.66666700  0.33333300  0.04516600  1
  Ir  Ir5  1  0.66666700  0.33333300  0.71140800  1
  Ir  Ir6  1  0.66666700  0.33333300  0.28859200  1
  Ir  Ir7  1  0.66666700  0.33333300  0.95483400  1
  Ir  Ir8  1  0.66666700  0.33333300  0.62121700  1
  Ir  Ir9  1  0.33333300  0.66666700  0.54508800  1
  Ir  Ir10  1  0.33333300  0.66666700  0.21188900  1
  Ir  Ir11  1  0.33333300  0.66666700  0.87861500  1
  O  O0  1  0.82007200  0.17992800  0.33376000  1
  O  O1  1  0.81988600  0.18011400  0.00000000  1
  O  O2  1  0.82007200  0.17992800  0.66624000  1
  O  O3  1  0.82007200  0.64014500  0.33376000  1
  O  O4  1  0.81988600  0.63977200  0.00000000  1
  O  O5  1  0.82007200  0.64014500  0.66624000  1
  O  O6  1  0.35985500  0.17992800  0.33376000  1
  O  O7  1  0.36022800  0.18011400  0.00000000  1
  O  O8  1  0.35985500  0.17992800  0.66624000  1
  O  O9  1  0.17975700  0.82024300  0.50000000  1
  O  O10  1  0.18053200  0.81946800  0.16660600  1
  O  O11  1  0.18053200  0.81946800  0.83339400  1
  O  O12  1  0.17975700  0.35951400  0.50000000  1
  O  O13  1  0.18053200  0.36106400  0.16660600  1
  O  O14  1  0.18053200  0.36106400  0.83339400  1
  O  O15  1  0.64048600  0.82024300  0.50000000  1
  O  O16  1  0.63893600  0.81946800  0.16660600  1
  O  O17  1  0.63893600  0.81946800  0.83339400  1
  O  O18  1  0.50003000  0.49997000  0.41684700  1
  O  O19  1  0.49649100  0.50350900  0.08142100  1
  O  O20  1  0.49659400  0.50340600  0.74790200  1
  O  O21  1  0.50003000  0.00006100  0.41684700  1
  O  O22  1  0.49649100  0.99298300  0.08142100  1
  O  O23  1  0.49659400  0.99318800  0.74790200  1
  O  O24  1  0.99993900  0.49997000  0.41684700  1
  O  O25  1  0.00701700  0.50350900  0.08142100  1
  O  O26  1  0.00681200  0.50340600  0.74790200  1
  O  O27  1  0.50003000  0.49997000  0.58315300  1
  O  O28  1  0.49659400  0.50340600  0.25209800  1
  O  O29  1  0.49649100  0.50350900  0.91857900  1
  O  O30  1  0.50003000  0.00006100  0.58315300  1
  O  O31  1  0.49659400  0.99318800  0.25209800  1
  O  O32  1  0.49649100  0.99298300  0.91857900  1
  O  O33  1  0.00681200  0.50340600  0.25209800  1
  O  O34  1  0.00701700  0.50350900  0.91857900  1
  O  O35  1  0.99993900  0.49997000  0.58315300  1
loop_
_geom_bond_atom_site_label_1
_geom_bond_atom_site_label_2
_geom_bond_distance
_geom_bond_site_symmetry_2
Ba0 O13 2.891864 1_655
Ba0 O16 2.891864 1_545
Ba0 O10 2.891866 1_655
Ba0 O10 2.891866 1_545
Ba0 O13 2.891869 1_555
Ba0 O16 2.891869 1_555
Ba0 O33 3.050941 1_655
Ba0 O31 3.050941 1_545
Ba0 O28 3.050944 1_555
Ba0 O25 3.054002 1_655
Ba0 O22 3.054002 1_545
Ba0 O19 3.054008 1_555
Ba1 O14 2.891864 1_655
Ba1 O17 2.891864 1_545
Ba1 O11 2.891866 1_655
Ba1 O11 2.891866 1_545
Ba1 O17 2.891869 1_555
Ba1 O14 2.891869 1_555
Ba1 O26 3.050941 1_655
Ba1 O23 3.050941 1_545
Ba1 O20 3.050944 1_555
Ba1 O34 3.054002 1_655
Ba1 O32 3.054002 1_545
Ba1 O29 3.054008 1_555
Ba2 O24 2.888539 1_445
Ba2 O21 2.888539 1_555
Ba2 O18 2.888542 1_445
Ba2 O18 2.888542 1_555
Ba2 O21 2.888545 1_455
Ba2 O24 2.888545 1_455
Ba2 O6 3.047335 1_555
Ba2 O3 3.047335 1_445
Ba2 O0 3.047338 1_455
Ba2 O12 3.061252 1_555
Ba2 O15 3.061252 1_445
Ba2 O9 3.061252 1_545
Ba3 O22 2.888753 1_545
Ba3 O25 2.888753 1_545
Ba3 O19 2.888756 1_555
Ba3 O19 2.888756 1_445
Ba3 O25 2.888759 1_555
Ba3 O22 2.888759 1_445
Ba3 O7 3.022159 1_555
Ba3 O4 3.022159 1_445
Ba3 O1 3.022159 1_455
Ba3 O13 3.101089 1_555
Ba3 O16 3.101089 1_445
Ba3 O10 3.101089 1_545
Ba4 O20 2.888824 1_445
Ba4 O20 2.888824 1_555
Ba4 O23 2.888824 1_445
Ba4 O26 2.888824 1_555
Ba4 O26 2.888824 1_545
Ba4 O23 2.888824 1_545
Ba4 O8 3.038551 1_555
Ba4 O5 3.038551 1_445
Ba4 O2 3.038554 1_455
Ba4 O14 3.096626 1_555
Ba4 O17 3.096626 1_445
Ba4 O11 3.096626 1_545
Ba5 O35 2.888539 1_445
Ba5 O30 2.888539 1_555
Ba5 O27 2.888542 1_445
Ba5 O27 2.888542 1_555
Ba5 O30 2.888545 1_455
Ba5 O35 2.888545 1_455
Ba5 O8 3.047335 1_555
Ba5 O5 3.047335 1_445
Ba5 O2 3.047338 1_455
Ba5 O12 3.061252 1_555
Ba5 O15 3.061252 1_445
Ba5 O9 3.061252 1_545
Ba6 O28 2.888824 1_555
Ba6 O28 2.888824 1_445
Ba6 O31 2.888824 1_445
Ba6 O33 2.888824 1_555
Ba6 O33 2.888824 1_545
Ba6 O31 2.888824 1_545
Ba6 O6 3.038551 1_555
Ba6 O3 3.038551 1_445
Ba6 O0 3.038554 1_455
Ba6 O13 3.096626 1_555
Ba6 O16 3.096626 1_445
Ba6 O10 3.096626 1_545
Ba7 O32 2.888753 1_545
Ba7 O34 2.888753 1_545
Ba7 O29 2.888756 1_555
Ba7 O29 2.888756 1_445
Ba7 O34 2.888759 1_555
Ba7 O32 2.888759 1_445
Ba7 O7 3.022159 1_556
Ba7 O4 3.022159 1_446
Ba7 O1 3.022159 1_456
Ba7 O14 3.101089 1_555
Ba7 O17 3.101089 1_445
Ba7 O11 3.101089 1_545
Ir0 O21 2.014817 1_565
Ir0 O24 2.014817 1_455
Ir0 O18 2.014817 1_555
Ir0 O9 2.038022 1_555
Ir0 O12 2.038025 1_555
Ir0 O15 2.038025 1_555
Ir1 O25 2.018224 1_555
Ir1 O22 2.018224 1_555
Ir1 O19 2.018224 1_555
Ir1 O10 2.034784 1_555
Ir1 O16 2.034788 1_555
Ir1 O13 2.034788 1_555
Ir2 O23 2.023337 1_555
Ir2 O26 2.023337 1_555
Ir2 O20 2.023341 1_555
Ir2 O11 2.035999 1_555
Ir2 O14 2.036003 1_555
Ir2 O17 2.036003 1_555
Ir3 O24 2.014295 1_555
Ir3 O21 2.014295 1_555
Ir3 O18 2.014303 1_555
Ir3 O0 2.035464 1_555
Ir3 O3 2.035471 1_555
Ir3 O6 2.035471 1_555
Ir4 O22 2.014501 1_545
Ir4 O25 2.014501 1_655
Ir4 O19 2.014510 1_555
Ir4 O1 2.036853 1_555
Ir4 O4 2.036857 1_555
Ir4 O7 2.036857 1_555
Ir5 O26 2.017436 1_655
Ir5 O23 2.017436 1_545
Ir5 O20 2.017441 1_555
Ir5 O2 2.038294 1_555
Ir5 O5 2.038301 1_555
Ir5 O8 2.038301 1_555
Ir6 O33 2.017436 1_655
Ir6 O31 2.017436 1_545
Ir6 O28 2.017441 1_555
Ir6 O0 2.038294 1_555
Ir6 O3 2.038301 1_555
Ir6 O6 2.038301 1_555
Ir7 O32 2.014501 1_545
Ir7 O34 2.014501 1_655
Ir7 O29 2.014510 1_555
Ir7 O1 2.036853 1_556
Ir7 O7 2.036857 1_556
Ir7 O4 2.036857 1_556
Ir8 O35 2.014295 1_555
Ir8 O30 2.014295 1_555
Ir8 O27 2.014303 1_555
Ir8 O2 2.035464 1_555
Ir8 O5 2.035471 1_555
Ir8 O8 2.035471 1_555
Ir9 O30 2.014817 1_565
Ir9 O35 2.014817 1_455
Ir9 O27 2.014817 1_555
Ir9 O9 2.038022 1_555
Ir9 O12 2.038025 1_555
Ir9 O15 2.038025 1_555
Ir10 O31 2.023337 1_555
Ir10 O33 2.023337 1_555
Ir10 O28 2.023341 1_555
Ir10 O10 2.035999 1_555
Ir10 O13 2.036003 1_555
Ir10 O16 2.036003 1_555
Ir11 O32 2.018224 1_555
Ir11 O34 2.018224 1_555
Ir11 O29 2.018224 1_555
Ir11 O11 2.034784 1_555
Ir11 O17 2.034788 1_555
Ir11 O14 2.034788 1_555
O0 Sr0 2.891779 1_545
O0 Sr0 2.891779 1_655
O1 Sr1 2.891662 1_655
O1 Sr1 2.891662 1_545
O2 Sr2 2.891779 1_545
O2 Sr2 2.891779 1_655
O3 Sr0 2.891779 1_655
O3 Sr0 2.891779 1_555
O4 Sr1 2.891660 1_655
O4 Sr1 2.891665 1_555
O5 Sr2 2.891779 1_655
O5 Sr2 2.891779 1_555
O6 Sr0 2.891779 1_545
O6 Sr0 2.891779 1_555
O7 Sr1 2.891660 1_545
O7 Sr1 2.891665 1_555
O8 Sr2 2.891779 1_545
O8 Sr2 2.891779 1_555
O9 Sr3 2.891498 1_455
O9 Sr3 2.891498 1_565
O12 Sr3 2.891496 1_455
O12 Sr3 2.891501 1_555
O15 Sr3 2.891496 1_565
O15 Sr3 2.891501 1_555
O18 Sr3 2.979163 1_555
O18 Sr0 3.006295 1_555
O19 Sr1 2.917064 1_555
O20 Sr2 2.895245 1_555
O21 Sr3 2.979157 1_555
O21 Sr0 3.006295 1_545
O22 Sr1 2.917064 1_555
O23 Sr2 2.895243 1_555
O24 Sr3 2.979157 1_555
O24 Sr0 3.006295 1_655
O25 Sr1 2.917064 1_555
O26 Sr2 2.895243 1_555
O27 Sr3 2.979163 1_555
O27 Sr2 3.006295 1_555
O28 Sr0 2.895245 1_555
O29 Sr1 2.917064 1_556
O30 Sr3 2.979157 1_555
O30 Sr2 3.006295 1_545
O31 Sr0 2.895243 1_555
O32 Sr1 2.917064 1_556
O33 Sr0 2.895243 1_555
O34 Sr1 2.917064 1_556
O35 Sr3 2.979157 1_555
O35 Sr2 3.006295 1_655
