# generated using pymatgen
data_Zr6Al16Pd7
_symmetry_space_group_name_H-M   'P 1'
_cell_length_a   8.79868100
_cell_length_b   8.79868100
_cell_length_c   8.79868100
_cell_angle_alpha   60.00000000
_cell_angle_beta   60.00000000
_cell_angle_gamma   60.00000000
_symmetry_Int_Tables_number   1
_chemical_formula_structural   Zr6Al16Pd7
_chemical_formula_sum   'Zr6 Al16 Pd7'
_cell_volume   481.65682594
_cell_formula_units_Z   1
loop_
 _symmetry_equiv_pos_site_id
 _symmetry_equiv_pos_as_xyz
  1  'x, y, z'
loop_
 _atom_site_type_symbol
 _atom_site_label
 _atom_site_symmetry_multiplicity
 _atom_site_fract_x
 _atom_site_fract_y
 _atom_site_fract_z
 _atom_site_occupancy
  Zr  Zr0  1  0.68690900  0.68690900  0.31309100  1
  Zr  Zr1  1  0.31309100  0.68690900  0.31309100  1
  Zr  Zr2  1  0.68690900  0.31309100  0.31309100  1
  Zr  Zr3  1  0.31309100  0.31309100  0.68690900  1
  Zr  Zr4  1  0.68690900  0.31309100  0.68690900  1
  Zr  Zr5  1  0.31309100  0.68690900  0.68690900  1
  Al  Al0  1  0.87947200  0.87947200  0.36158500  1
  Al  Al1  1  0.87947200  0.36158500  0.87947200  1
  Al  Al2  1  0.36158500  0.87947200  0.87947200  1
  Al  Al3  1  0.87947200  0.87947200  0.87947200  1
  Al  Al4  1  0.12052800  0.12052800  0.63841500  1
  Al  Al5  1  0.12052800  0.63841500  0.12052800  1
  Al  Al6  1  0.63841500  0.12052800  0.12052800  1
  Al  Al7  1  0.12052800  0.12052800  0.12052800  1
  Al  Al8  1  0.66570500  0.66570500  0.00288500  1
  Al  Al9  1  0.66570500  0.00288500  0.66570500  1
  Al  Al10  1  0.00288500  0.66570500  0.66570500  1
  Al  Al11  1  0.66570500  0.66570500  0.66570500  1
  Al  Al12  1  0.33429500  0.33429500  0.99711500  1
  Al  Al13  1  0.33429500  0.99711500  0.33429500  1
  Al  Al14  1  0.99711500  0.33429500  0.33429500  1
  Al  Al15  1  0.33429500  0.33429500  0.33429500  1
  Pd  Pd0  1  0.00000000  0.00000000  0.00000000  1
  Pd  Pd1  1  0.00000000  0.00000000  0.50000000  1
  Pd  Pd2  1  0.50000000  0.00000000  0.50000000  1
  Pd  Pd3  1  0.00000000  0.50000000  0.50000000  1
  Pd  Pd4  1  0.50000000  0.50000000  0.00000000  1
  Pd  Pd5  1  0.00000000  0.50000000  0.00000000  1
  Pd  Pd6  1  0.50000000  0.00000000  0.00000000  1
loop_
_geom_bond_atom_site_label_1
_geom_bond_atom_site_label_2
_geom_bond_distance
_geom_bond_site_symmetry_2
Zr0 Zr5 3.289105 1_555
Zr0 Zr2 3.289105 1_555
Zr0 Zr1 3.289105 1_555
Zr0 Zr4 3.289105 1_555
Zr1 Zr5 3.289105 1_555
Zr1 Zr2 3.289105 1_555
Zr1 Zr3 3.289105 1_555
Zr2 Zr3 3.289105 1_555
Zr2 Zr4 3.289105 1_555
Zr3 Zr5 3.289105 1_555
Zr3 Zr4 3.289105 1_555
Zr4 Zr5 3.289105 1_555
Al0 Pd0 2.597660 1_665
Al0 Pd1 2.727669 1_665
Al0 Pd3 2.727676 1_655
Al0 Pd2 2.727676 1_565
Al0 Zr2 3.199974 1_565
Al0 Zr1 3.199974 1_655
Al0 Zr0 3.199981 1_555
Al1 Pd0 2.597660 1_656
Al1 Pd5 2.727669 1_656
Al1 Pd3 2.727676 1_655
Al1 Pd4 2.727676 1_556
Al1 Zr2 3.199974 1_556
Al1 Zr3 3.199974 1_655
Al1 Zr4 3.199981 1_555
Al2 Pd0 2.597660 1_566
Al2 Pd6 2.727669 1_566
Al2 Pd2 2.727676 1_565
Al2 Pd4 2.727676 1_556
Al2 Zr1 3.199974 1_556
Al2 Zr3 3.199974 1_565
Al2 Zr5 3.199981 1_555
Al3 Pd0 2.597653 1_666
Al3 Pd5 2.727676 1_656
Al3 Pd6 2.727676 1_566
Al3 Pd1 2.727676 1_665
Al3 Zr4 3.199975 1_565
Al3 Zr5 3.199975 1_655
Al3 Zr0 3.199975 1_556
Al4 Pd0 2.597660 1_556
Al4 Pd1 2.727669 1_555
Al4 Pd2 2.727676 1_555
Al4 Pd3 2.727676 1_555
Al4 Zr5 3.199974 1_545
Al4 Zr4 3.199974 1_455
Al4 Zr3 3.199981 1_555
Al5 Pd0 2.597660 1_565
Al5 Pd5 2.727669 1_555
Al5 Pd4 2.727676 1_555
Al5 Pd3 2.727676 1_555
Al5 Zr5 3.199974 1_554
Al5 Zr0 3.199974 1_455
Al5 Zr1 3.199981 1_555
Al6 Pd0 2.597660 1_655
Al6 Pd6 2.727669 1_555
Al6 Pd4 2.727676 1_555
Al6 Pd2 2.727676 1_555
Al6 Zr4 3.199974 1_554
Al6 Zr0 3.199974 1_545
Al6 Zr2 3.199981 1_555
Al7 Pd0 2.597653 1_555
Al7 Pd6 2.727676 1_555
Al7 Pd5 2.727676 1_555
Al7 Pd1 2.727676 1_555
Al7 Zr3 3.199975 1_554
Al7 Zr1 3.199975 1_545
Al7 Zr2 3.199975 1_455
Al8 Pd4 2.540045 1_555
Al8 Pd6 2.540045 1_565
Al8 Pd5 2.540045 1_655
Al8 Zr0 2.927883 1_555
Al8 Zr2 2.927883 1_555
Al8 Zr1 2.927883 1_555
Al9 Pd1 2.540045 1_655
Al9 Pd2 2.540045 1_555
Al9 Pd6 2.540045 1_556
Al9 Zr2 2.927883 1_555
Al9 Zr3 2.927883 1_555
Al9 Zr4 2.927883 1_555
Al10 Pd3 2.540045 1_555
Al10 Pd1 2.540045 1_565
Al10 Pd5 2.540045 1_556
Al10 Zr1 2.927883 1_555
Al10 Zr3 2.927883 1_555
Al10 Zr5 2.927883 1_555
Al11 Pd4 2.540045 1_556
Al11 Pd3 2.540045 1_655
Al11 Pd2 2.540045 1_565
Al11 Zr0 2.927883 1_555
Al11 Zr4 2.927883 1_555
Al11 Zr5 2.927883 1_555
Al12 Pd4 2.540045 1_556
Al12 Pd5 2.540045 1_556
Al12 Pd6 2.540045 1_556
Al12 Zr3 2.927883 1_555
Al12 Zr4 2.927883 1_555
Al12 Zr5 2.927883 1_555
Al13 Pd6 2.540045 1_565
Al13 Pd1 2.540045 1_565
Al13 Pd2 2.540045 1_565
Al13 Zr0 2.927883 1_555
Al13 Zr1 2.927883 1_555
Al13 Zr5 2.927883 1_555
Al14 Pd3 2.540045 1_655
Al14 Pd1 2.540045 1_655
Al14 Pd5 2.540045 1_655
Al14 Zr0 2.927883 1_555
Al14 Zr2 2.927883 1_555
Al14 Zr4 2.927883 1_555
Al15 Pd3 2.540045 1_555
Al15 Pd4 2.540045 1_555
Al15 Pd2 2.540045 1_555
Al15 Zr2 2.927883 1_555
Al15 Zr1 2.927883 1_555
Al15 Zr3 2.927883 1_555
Pd1 Zr5 3.208334 1_545
Pd1 Zr4 3.208334 1_455
Pd1 Zr1 3.208334 1_545
Pd1 Zr2 3.208334 1_455
Pd2 Zr3 3.208334 1_555
Pd2 Zr5 3.208334 1_545
Pd2 Zr0 3.208334 1_545
Pd2 Zr2 3.208334 1_555
Pd3 Zr3 3.208334 1_555
Pd3 Zr1 3.208334 1_555
Pd3 Zr4 3.208334 1_455
Pd3 Zr0 3.208334 1_455
Pd4 Zr1 3.208334 1_555
Pd4 Zr4 3.208334 1_554
Pd4 Zr5 3.208334 1_554
Pd4 Zr2 3.208334 1_555
Pd5 Zr2 3.208334 1_455
Pd5 Zr5 3.208334 1_554
Pd5 Zr0 3.208334 1_455
Pd5 Zr3 3.208334 1_554
Pd6 Zr4 3.208334 1_554
Pd6 Zr1 3.208334 1_545
Pd6 Zr0 3.208334 1_545
Pd6 Zr3 3.208334 1_554
