# generated using pymatgen
data_Mg2Si
_symmetry_space_group_name_H-M   'P 1'
_cell_length_a   5.92322900
_cell_length_b   6.69828649
_cell_length_c   6.92730244
_cell_angle_alpha   72.41326511
_cell_angle_beta   68.39114062
_cell_angle_gamma   74.23085457
_symmetry_Int_Tables_number   1
_chemical_formula_structural   Mg2Si
_chemical_formula_sum   'Mg8 Si4'
_cell_volume   239.55759337
_cell_formula_units_Z   4
loop_
 _symmetry_equiv_pos_site_id
 _symmetry_equiv_pos_as_xyz
  1  'x, y, z'
loop_
 _atom_site_type_symbol
 _atom_site_label
 _atom_site_symmetry_multiplicity
 _atom_site_fract_x
 _atom_site_fract_y
 _atom_site_fract_z
 _atom_site_occupancy
  Mg  Mg0  1  0.87723200  0.80690400  0.10525000  1
  Mg  Mg1  1  0.93710400  0.21742600  0.19007500  1
  Mg  Mg2  1  0.43719200  0.14394200  0.22205400  1
  Mg  Mg3  1  0.29041100  0.52577200  0.85733800  1
  Mg  Mg4  1  0.05408500  0.89956500  0.57674800  1
  Mg  Mg5  1  0.03734700  0.45820200  0.46453100  1
  Mg  Mg6  1  0.73223400  0.59100400  0.89041000  1
  Mg  Mg7  1  0.38692500  0.08377100  0.76909500  1
  Si  Si0  1  0.52808300  0.51135100  0.39988600  1
  Si  Si1  1  0.60488100  0.79601300  0.52445600  1
  Si  Si2  1  0.30600300  0.77458900  0.16375000  1
  Si  Si3  1  0.80840400  0.19192100  0.83639700  1
loop_
_geom_bond_atom_site_label_1
_geom_bond_atom_site_label_2
_geom_bond_distance
_geom_bond_site_symmetry_2
Mg0 Si2 2.658467 1_655
Mg0 Si3 2.714978 1_564
Mg0 Si1 2.743404 1_555
Mg0 Mg3 2.972991 1_654
Mg0 Si0 3.006096 1_555
Mg1 Si3 2.883114 1_554
Mg1 Si0 2.898505 1_555
Mg1 Mg3 3.142896 1_654
Mg1 Si2 3.180722 1_645
Mg2 Si3 2.759318 1_554
Mg2 Si1 2.851382 1_545
Mg2 Si2 2.961030 1_545
Mg2 Mg3 3.191371 1_554
Mg3 Si1 2.865358 1_555
Mg3 Mg6 2.866321 1_555
Mg3 Si0 2.976313 1_555
Mg3 Mg4 3.027308 1_555
Mg3 Mg7 3.063049 1_555
Mg3 Si2 3.107660 1_556
Mg3 Mg6 3.145130 1_455
Mg3 Si3 3.251855 1_555
Mg4 Si3 2.799914 1_465
Mg4 Si2 2.955757 1_555
Mg4 Si1 3.050837 1_555
Mg4 Si1 3.091389 1_455
Mg5 Si3 2.760679 1_455
Mg5 Si2 2.843831 1_555
Mg5 Si0 2.878159 1_555
Mg5 Si1 2.913445 1_455
Mg5 Si0 3.121119 1_455
Mg6 Si3 2.704435 1_555
Mg6 Si1 2.761001 1_555
Mg6 Si2 2.769503 1_556
Mg7 Si1 2.695155 1_545
Mg7 Si2 2.854092 1_546
Mg7 Si3 3.003180 1_555
Si0 Si2 2.469088 1_555
Si0 Si1 2.518360 1_555
