# generated using pymatgen
data_KGa3
_symmetry_space_group_name_H-M   'P 1'
_cell_length_a   6.23285871
_cell_length_b   6.23285833
_cell_length_c   8.57491528
_cell_angle_alpha   111.31133847
_cell_angle_beta   111.31133898
_cell_angle_gamma   90.00000013
_symmetry_Int_Tables_number   1
_chemical_formula_structural   KGa3
_chemical_formula_sum   'K3 Ga9'
_cell_volume   285.75435797
_cell_formula_units_Z   3
loop_
 _symmetry_equiv_pos_site_id
 _symmetry_equiv_pos_as_xyz
  1  'x, y, z'
loop_
 _atom_site_type_symbol
 _atom_site_label
 _atom_site_symmetry_multiplicity
 _atom_site_fract_x
 _atom_site_fract_y
 _atom_site_fract_z
 _atom_site_occupancy
  K  K0  1  0.12654546  0.62654546  0.25308892  1
  K  K1  1  0.37345454  0.87345454  0.74691108  1
  K  K2  1  -0.00000000  -0.00000000  -0.00000000  1
  Ga  Ga0  1  0.77816955  0.98387620  0.55633810  1
  Ga  Ga1  1  0.01612380  0.22183045  0.44366190  1
  Ga  Ga2  1  0.69826190  0.39220230  0.78440561  1
  Ga  Ga3  1  0.60779770  0.30173810  0.21559439  1
  Ga  Ga4  1  0.60779770  0.91385829  0.21559439  1
  Ga  Ga5  1  0.08614171  0.39220230  0.78440561  1
  Ga  Ga6  1  0.77816955  0.57246090  0.55633810  1
  Ga  Ga7  1  0.42753910  0.22183045  0.44366190  1
  Ga  Ga8  1  0.50000000  0.50000000  -0.00000000  1
loop_
_geom_bond_atom_site_label_1
_geom_bond_atom_site_label_2
_geom_bond_distance
_geom_bond_site_symmetry_2
K0 K2 3.630114 1_565
K0 K2 3.630125 1_555
K0 K1 3.632360 1_555
K1 K2 3.630114 1_566
K1 K2 3.630125 1_666
Ga0 Ga6 2.564293 1_555
Ga0 Ga4 2.583246 1_555
Ga0 Ga7 2.723251 1_565
Ga0 Ga1 2.723251 1_665
Ga0 Ga5 2.764059 1_665
Ga0 Ga2 2.764067 1_565
Ga0 K2 3.506234 1_666
Ga0 K1 3.649790 1_655
Ga0 K1 3.649806 1_555
Ga1 Ga7 2.564293 1_555
Ga1 Ga5 2.583246 1_555
Ga1 Ga6 2.723251 1_455
Ga1 Ga4 2.764059 1_445
Ga1 Ga3 2.764067 1_455
Ga1 K2 3.506234 1_555
Ga1 K0 3.649790 1_545
Ga1 K0 3.649806 1_555
Ga2 Ga5 2.417600 1_655
Ga2 Ga8 2.480700 1_556
Ga2 Ga7 2.583241 1_555
Ga2 Ga6 2.764067 1_555
Ga2 K0 3.653236 1_656
Ga2 K1 3.664318 1_555
Ga2 K1 3.664323 1_545
Ga2 K2 3.699753 1_656
Ga2 K2 3.699758 1_666
Ga3 Ga4 2.417600 1_545
Ga3 Ga8 2.480700 1_555
Ga3 Ga6 2.583241 1_555
Ga3 Ga7 2.764067 1_555
Ga3 K1 3.653236 1_544
Ga3 K0 3.664318 1_555
Ga3 K0 3.664323 1_655
Ga3 K2 3.699753 1_655
Ga3 K2 3.699758 1_555
Ga4 Ga8 2.480710 1_555
Ga4 Ga7 2.764059 1_565
Ga4 K1 3.653227 1_554
Ga4 K0 3.664318 1_555
Ga4 K0 3.664323 1_655
Ga4 K2 3.699749 1_665
Ga4 K2 3.699754 1_565
Ga5 Ga8 2.480710 1_556
Ga5 Ga6 2.764059 1_455
Ga5 K0 3.653227 1_556
Ga5 K1 3.664318 1_555
Ga5 K1 3.664323 1_545
Ga5 K2 3.699749 1_556
Ga5 K2 3.699754 1_566
Ga6 Ga7 2.723251 1_555
Ga6 K2 3.506237 1_666
Ga6 K1 3.649788 1_655
Ga6 K1 3.649804 1_555
Ga7 K2 3.506237 1_555
Ga7 K0 3.649788 1_545
Ga7 K0 3.649804 1_555
Ga8 K1 3.630114 1_554
Ga8 K0 3.630114 1_555
Ga8 K1 3.630125 1_544
Ga8 K0 3.630125 1_655
