# generated using pymatgen
data_CoC8(SF3)4
_symmetry_space_group_name_H-M   'P 1'
_cell_length_a   8.13386400
_cell_length_b   10.05654558
_cell_length_c   10.31828641
_cell_angle_alpha   103.95130140
_cell_angle_beta   98.79021368
_cell_angle_gamma   100.51083646
_symmetry_Int_Tables_number   1
_chemical_formula_structural   CoC8(SF3)4
_chemical_formula_sum   'Co2 C16 S8 F24'
_cell_volume   788.06417272
_cell_formula_units_Z   2
loop_
 _symmetry_equiv_pos_site_id
 _symmetry_equiv_pos_as_xyz
  1  'x, y, z'
loop_
 _atom_site_type_symbol
 _atom_site_label
 _atom_site_symmetry_multiplicity
 _atom_site_fract_x
 _atom_site_fract_y
 _atom_site_fract_z
 _atom_site_occupancy
  Co  Co0  1  0.36893600  0.40238200  0.52718500  1
  Co  Co1  1  0.63106400  0.59761800  0.47281500  1
  C  C0  1  0.08370400  0.13908100  0.36683500  1
  C  C1  1  0.91629600  0.86091900  0.63316500  1
  C  C2  1  0.23401800  0.09353900  0.34972800  1
  C  C3  1  0.76598200  0.90646100  0.65027200  1
  C  C4  1  0.90245800  0.05071100  0.30263100  1
  C  C5  1  0.09754200  0.94928900  0.69736900  1
  C  C6  1  0.24073200  0.94595700  0.26870300  1
  C  C7  1  0.75926800  0.05404300  0.73129700  1
  C  C8  1  0.63351400  0.57063800  0.79445000  1
  C  C9  1  0.36648600  0.42936200  0.20555000  1
  C  C10  1  0.48349300  0.61298600  0.81586900  1
  C  C11  1  0.51650700  0.38701400  0.18413100  1
  C  C12  1  0.80515100  0.61878400  0.89483400  1
  C  C13  1  0.19484900  0.38121600  0.10516600  1
  C  C14  1  0.46844700  0.71990000  0.94495600  1
  C  C15  1  0.53155300  0.28010000  0.05504400  1
  S  S0  1  0.09918700  0.30384300  0.46492600  1
  S  S1  1  0.90081300  0.69615700  0.53507400  1
  S  S2  1  0.42477200  0.20554600  0.42532100  1
  S  S3  1  0.57522800  0.79445400  0.57467900  1
  S  S4  1  0.63201000  0.46254300  0.63698600  1
  S  S5  1  0.36799000  0.53745700  0.36301400  1
  S  S6  1  0.30403600  0.55331900  0.69170500  1
  S  S7  1  0.69596400  0.44668100  0.30829500  1
  F  F0  1  0.86997700  0.02550000  0.16514600  1
  F  F1  1  0.13002300  0.97450000  0.83485400  1
  F  F2  1  0.87562100  0.92377900  0.33140300  1
  F  F3  1  0.12437900  0.07622100  0.66859700  1
  F  F4  1  0.78288800  0.11717300  0.34999900  1
  F  F5  1  0.21711200  0.88282700  0.65000100  1
  F  F6  1  0.15142200  0.91294700  0.13887800  1
  F  F7  1  0.84857800  0.08705300  0.86112200  1
  F  F8  1  0.17527400  0.84538800  0.32718400  1
  F  F9  1  0.82472600  0.15461200  0.67281600  1
  F  F10  1  0.40397400  0.93537900  0.26240600  1
  F  F11  1  0.59602600  0.06462100  0.73759400  1
  F  F12  1  0.92139200  0.54835400  0.84674600  1
  F  F13  1  0.07860800  0.45164600  0.15325400  1
  F  F14  1  0.79556000  0.59834500  0.01922800  1
  F  F15  1  0.20444000  0.40165500  0.98077200  1
  F  F16  1  0.87252600  0.75872100  0.91498700  1
  F  F17  1  0.12747400  0.24127900  0.08501300  1
  F  F18  1  0.51625600  0.68107500  0.06008900  1
  F  F19  1  0.48374400  0.31892500  0.93991100  1
  F  F20  1  0.56857200  0.84898500  0.95908600  1
  F  F21  1  0.43142800  0.15101500  0.04091400  1
  F  F22  1  0.30556100  0.73534300  0.94058300  1
  F  F23  1  0.69443900  0.26465700  0.05941700  1
loop_
_geom_bond_atom_site_label_1
_geom_bond_atom_site_label_2
_geom_bond_distance
_geom_bond_site_symmetry_2
Co0 S0 2.162810 1_555
Co0 S4 2.164396 1_555
Co0 S2 2.167956 1_555
Co0 S6 2.188187 1_555
Co0 S5 2.413333 1_555
Co1 S1 2.162810 1_555
Co1 S5 2.164396 1_555
Co1 S3 2.167956 1_555
Co1 S7 2.188187 1_555
Co1 S4 2.413333 1_555
C0 C2 1.402507 1_555
C0 C4 1.530239 1_455
C0 S0 1.691733 1_555
C1 C3 1.402507 1_555
C1 C5 1.530239 1_655
C1 S1 1.691733 1_555
C2 C6 1.532938 1_545
C2 S2 1.689192 1_555
C3 C7 1.532938 1_565
C3 S3 1.689192 1_555
C4 F0 1.354295 1_555
C4 F4 1.362506 1_555
C4 F2 1.366057 1_545
C5 F1 1.354295 1_555
C5 F5 1.362506 1_555
C5 F3 1.366057 1_565
C6 F6 1.353711 1_555
C6 F10 1.361296 1_555
C6 F8 1.366196 1_555
C7 F7 1.353711 1_555
C7 F11 1.361296 1_555
C7 F9 1.366196 1_555
C8 S4 1.720206 1_555
C9 S5 1.720206 1_555
C10 C8 1.394942 1_555
C10 C14 1.533749 1_555
C10 S6 1.694190 1_555
C11 C9 1.394942 1_555
C11 C15 1.533749 1_555
C11 S7 1.694190 1_555
C12 F14 1.359323 1_556
C12 F12 1.363840 1_555
C12 F16 1.366272 1_555
C12 C8 1.525094 1_555
C13 F15 1.359323 1_554
C13 F13 1.363840 1_555
C13 F17 1.366272 1_555
C13 C9 1.525094 1_555
C14 F22 1.357083 1_555
C14 F18 1.361182 1_556
C14 F20 1.362508 1_555
C15 F23 1.357083 1_555
C15 F19 1.361182 1_554
C15 F21 1.362508 1_555
