# generated using pymatgen
data_Sm2Fe17
_symmetry_space_group_name_H-M   'P 1'
_cell_length_a   6.43828244
_cell_length_b   6.43828244
_cell_length_c   6.43828281
_cell_angle_alpha   82.95100544
_cell_angle_beta   82.95100544
_cell_angle_gamma   82.95100664
_symmetry_Int_Tables_number   1
_chemical_formula_structural   Sm2Fe17
_chemical_formula_sum   'Sm2 Fe17'
_cell_volume   261.28231809
_cell_formula_units_Z   1
loop_
 _symmetry_equiv_pos_site_id
 _symmetry_equiv_pos_as_xyz
  1  'x, y, z'
loop_
 _atom_site_type_symbol
 _atom_site_label
 _atom_site_symmetry_multiplicity
 _atom_site_fract_x
 _atom_site_fract_y
 _atom_site_fract_z
 _atom_site_occupancy
  Sm  Sm0  1  0.65881000  0.65881000  0.65881000  1
  Sm  Sm1  1  0.34119000  0.34119000  0.34119000  1
  Fe  Fe0  1  0.00000000  0.00000000  0.50000000  1
  Fe  Fe1  1  0.50000000  0.00000000  0.00000000  1
  Fe  Fe2  1  0.00000000  0.50000000  0.00000000  1
  Fe  Fe3  1  0.70869300  0.29130700  0.00000000  1
  Fe  Fe4  1  0.00000000  0.70869300  0.29130700  1
  Fe  Fe5  1  0.29130700  0.00000000  0.70869300  1
  Fe  Fe6  1  0.00000000  0.29130700  0.70869300  1
  Fe  Fe7  1  0.70869300  0.00000000  0.29130700  1
  Fe  Fe8  1  0.29130700  0.70869300  0.00000000  1
  Fe  Fe9  1  0.34279000  0.34279000  0.84536200  1
  Fe  Fe10  1  0.84536200  0.34279000  0.34279000  1
  Fe  Fe11  1  0.34279000  0.84536200  0.34279000  1
  Fe  Fe12  1  0.65721000  0.65721000  0.15463800  1
  Fe  Fe13  1  0.15463800  0.65721000  0.65721000  1
  Fe  Fe14  1  0.65721000  0.15463800  0.65721000  1
  Fe  Fe15  1  0.90348800  0.90348800  0.90348800  1
  Fe  Fe16  1  0.09651200  0.09651200  0.09651200  1
loop_
_geom_bond_atom_site_label_1
_geom_bond_atom_site_label_2
_geom_bond_distance
_geom_bond_site_symmetry_2
Fe0 Fe4 2.437496 1_545
Fe0 Fe7 2.437496 1_455
Fe0 Fe5 2.437496 1_555
Fe0 Fe6 2.437496 1_555
Fe0 Fe14 2.458909 1_455
Fe0 Fe13 2.458909 1_545
Fe0 Fe10 2.458909 1_455
Fe0 Fe11 2.458909 1_545
Fe0 Fe15 2.612091 1_445
Fe0 Fe16 2.612091 1_555
Fe0 Sm0 3.282991 1_445
Fe0 Sm1 3.282991 1_555
Fe1 Fe3 2.437496 1_555
Fe1 Fe8 2.437496 1_545
Fe1 Fe7 2.437496 1_555
Fe1 Fe5 2.437496 1_554
Fe1 Fe12 2.458909 1_545
Fe1 Fe9 2.458909 1_554
Fe1 Fe14 2.458909 1_554
Fe1 Fe11 2.458909 1_545
Fe1 Fe15 2.612091 1_544
Fe1 Fe16 2.612091 1_555
Fe1 Sm0 3.282991 1_544
Fe1 Sm1 3.282991 1_555
Fe2 Fe8 2.437496 1_555
Fe2 Fe3 2.437496 1_455
Fe2 Fe4 2.437496 1_555
Fe2 Fe6 2.437496 1_554
Fe2 Fe9 2.458909 1_554
Fe2 Sm0 3.282991 1_454
Fe2 Sm1 3.282991 1_555
Fe3 Fe7 2.484309 1_555
Fe3 Fe6 2.484309 1_654
Fe3 Fe9 2.637012 1_554
Fe3 Sm0 3.039390 1_554
Fe3 Sm1 3.039390 1_555
Fe4 Fe7 2.484309 1_465
Fe4 Fe8 2.484309 1_555
Fe4 Sm1 3.039390 1_555
Fe4 Sm0 3.039390 1_455
Fe5 Fe6 2.484309 1_555
Fe5 Fe8 2.484309 1_546
Fe5 Fe9 2.546100 1_555
Fe5 Sm0 3.039390 1_545
Fe5 Sm1 3.039390 1_555
Fe6 Fe9 2.546100 1_555
Fe6 Sm0 3.039390 1_455
Fe6 Sm1 3.039390 1_555
Fe7 Sm1 3.039390 1_555
Fe7 Sm0 3.039390 1_545
Fe8 Fe9 2.637012 1_554
Fe8 Sm0 3.039390 1_554
Fe8 Sm1 3.039390 1_555
Fe9 Sm0 3.088439 1_555
Fe9 Sm1 3.189789 1_556
Fe9 Sm1 3.248566 1_555
Fe10 Fe2 2.458909 1_655
Fe10 Fe12 2.487808 1_555
Fe10 Fe14 2.487808 1_555
Fe10 Fe7 2.546099 1_555
Fe10 Fe3 2.546100 1_555
Fe10 Fe4 2.637012 1_655
Fe10 Fe6 2.637012 1_655
Fe10 Fe16 2.646022 1_655
Fe10 Sm0 3.088439 1_555
Fe10 Sm1 3.189789 1_655
Fe10 Sm1 3.248566 1_555
Fe11 Fe12 2.487808 1_555
Fe11 Fe13 2.487808 1_555
Fe11 Fe4 2.546099 1_555
Fe11 Fe8 2.546100 1_555
Fe11 Fe7 2.637012 1_565
Fe11 Fe5 2.637012 1_565
Fe11 Fe16 2.646022 1_565
Fe11 Sm0 3.088439 1_555
Fe11 Sm1 3.189789 1_565
Fe11 Sm1 3.248566 1_555
Fe12 Fe2 2.458909 1_655
Fe12 Fe7 2.546100 1_565
Fe12 Fe4 2.546100 1_655
Fe12 Fe8 2.637012 1_555
Fe12 Fe3 2.637012 1_555
Fe12 Fe15 2.646022 1_554
Fe12 Sm1 3.088439 1_555
Fe12 Sm0 3.189789 1_554
Fe12 Sm0 3.248566 1_555
Fe13 Fe2 2.458909 1_556
Fe13 Fe9 2.487808 1_555
Fe13 Fe5 2.546099 1_565
Fe13 Fe8 2.546100 1_556
Fe13 Fe6 2.637012 1_555
Fe13 Fe4 2.637012 1_555
Fe13 Fe15 2.646022 1_455
Fe13 Sm1 3.088439 1_555
Fe13 Sm0 3.189789 1_455
Fe13 Sm0 3.248566 1_555
Fe14 Fe9 2.487808 1_555
Fe14 Fe6 2.546099 1_655
Fe14 Fe3 2.546100 1_556
Fe14 Fe5 2.637012 1_555
Fe14 Fe7 2.637012 1_555
Fe14 Fe15 2.646022 1_545
Fe14 Sm1 3.088439 1_555
Fe14 Sm0 3.189789 1_545
Fe14 Sm0 3.248566 1_555
Fe15 Fe16 2.402164 1_666
Fe15 Fe2 2.612091 1_656
Fe15 Fe5 2.759418 1_665
Fe15 Fe6 2.759418 1_665
Fe15 Fe3 2.759418 1_566
Fe15 Fe8 2.759418 1_656
Fe15 Fe7 2.759418 1_566
Fe15 Fe4 2.759418 1_656
Fe15 Sm0 3.044993 1_555
Fe16 Fe2 2.612091 1_555
Fe16 Fe9 2.646022 1_554
Fe16 Fe7 2.759418 1_455
Fe16 Fe4 2.759418 1_545
Fe16 Fe3 2.759418 1_455
Fe16 Fe8 2.759418 1_545
Fe16 Fe5 2.759418 1_554
Fe16 Fe6 2.759418 1_554
Fe16 Sm1 3.044993 1_555
