# generated using pymatgen
data_NaH9Rh2C5O12
_symmetry_space_group_name_H-M   'P 1'
_cell_length_a   6.95119300
_cell_length_b   11.33636400
_cell_length_c   18.05815812
_cell_angle_alpha   90.00000000
_cell_angle_beta   109.14919563
_cell_angle_gamma   90.00000000
_symmetry_Int_Tables_number   1
_chemical_formula_structural   NaH9Rh2C5O12
_chemical_formula_sum   'Na4 H36 Rh8 C20 O48'
_cell_volume   1344.26720494
_cell_formula_units_Z   4
loop_
 _symmetry_equiv_pos_site_id
 _symmetry_equiv_pos_as_xyz
  1  'x, y, z'
loop_
 _atom_site_type_symbol
 _atom_site_label
 _atom_site_symmetry_multiplicity
 _atom_site_fract_x
 _atom_site_fract_y
 _atom_site_fract_z
 _atom_site_occupancy
  Na  Na0  1  0.72098600  0.00991500  0.40642500  1
  Na  Na1  1  0.72098600  0.49008500  0.90642500  1
  Na  Na2  1  0.27901400  0.99008500  0.59357500  1
  Na  Na3  1  0.27901400  0.50991500  0.09357500  1
  H  H0  1  0.55474200  0.16922800  0.50231000  1
  H  H1  1  0.55474200  0.33077200  0.00231000  1
  H  H2  1  0.44525800  0.83077200  0.49769000  1
  H  H3  1  0.44525800  0.66922800  0.99769000  1
  H  H4  1  0.67827100  0.39340000  0.15675300  1
  H  H5  1  0.67827100  0.10660000  0.65675300  1
  H  H6  1  0.32172900  0.60660000  0.84324700  1
  H  H7  1  0.32172900  0.89340000  0.34324700  1
  H  H8  1  0.76055500  0.50839400  0.12461900  1
  H  H9  1  0.76055500  0.99160600  0.62461900  1
  H  H10  1  0.23944500  0.49160600  0.87538100  1
  H  H11  1  0.23944500  0.00839400  0.37538100  1
  H  H12  1  0.77597700  0.21682200  0.51667400  1
  H  H13  1  0.77597700  0.28317800  0.01667400  1
  H  H14  1  0.22402300  0.78317800  0.48332600  1
  H  H15  1  0.22402300  0.71682200  0.98332600  1
  H  H16  1  0.15762700  0.70407800  0.22614700  1
  H  H17  1  0.15762700  0.79592200  0.72614700  1
  H  H18  1  0.84237300  0.29592200  0.77385300  1
  H  H19  1  0.84237300  0.20407800  0.27385300  1
  H  H20  1  0.85458100  0.90532100  0.24383900  1
  H  H21  1  0.85458100  0.59467900  0.74383900  1
  H  H22  1  0.14541900  0.09467900  0.75616100  1
  H  H23  1  0.14541900  0.40532100  0.25616100  1
  H  H24  1  0.94383800  0.73829900  0.56068600  1
  H  H25  1  0.94383800  0.76170100  0.06068600  1
  H  H26  1  0.05616200  0.26170100  0.43931400  1
  H  H27  1  0.05616200  0.23829900  0.93931400  1
  H  H28  1  0.56262100  0.35793900  0.40979800  1
  H  H29  1  0.56262100  0.14206100  0.90979800  1
  H  H30  1  0.43737900  0.64206100  0.59020200  1
  H  H31  1  0.43737900  0.85793900  0.09020200  1
  H  H32  1  0.25387700  0.55539100  0.42668000  1
  H  H33  1  0.25387700  0.94460900  0.92668000  1
  H  H34  1  0.74612300  0.44460900  0.57332000  1
  H  H35  1  0.74612300  0.05539100  0.07332000  1
  Rh  Rh0  1  0.70633200  0.68862900  0.38432600  1
  Rh  Rh1  1  0.70633200  0.81137100  0.88432600  1
  Rh  Rh2  1  0.29366800  0.31137100  0.61567400  1
  Rh  Rh3  1  0.29366800  0.18862900  0.11567400  1
  Rh  Rh4  1  0.70781100  0.57602500  0.27009800  1
  Rh  Rh5  1  0.70781100  0.92397500  0.77009800  1
  Rh  Rh6  1  0.29218900  0.42397500  0.72990200  1
  Rh  Rh7  1  0.29218900  0.07602500  0.22990200  1
  C  C0  1  0.31915700  0.68375700  0.25631400  1
  C  C1  1  0.31915700  0.81624300  0.75631400  1
  C  C2  1  0.68084300  0.31624300  0.74368600  1
  C  C3  1  0.68084300  0.18375700  0.24368600  1
  C  C4  1  0.09349300  0.57947100  0.39672900  1
  C  C5  1  0.09349300  0.92052900  0.89672900  1
  C  C6  1  0.90650800  0.42052900  0.60327100  1
  C  C7  1  0.90650800  0.07947100  0.10327100  1
  C  C8  1  0.81102200  0.82526700  0.26907500  1
  C  C9  1  0.81102200  0.67473300  0.76907500  1
  C  C10  1  0.18897800  0.17473300  0.73092500  1
  C  C11  1  0.18897800  0.32526700  0.23092500  1
  C  C12  1  0.60455400  0.43902300  0.38490600  1
  C  C13  1  0.60455400  0.06097700  0.88490600  1
  C  C14  1  0.39544600  0.56097700  0.61509400  1
  C  C15  1  0.39544600  0.93902300  0.11509400  1
  C  C16  1  0.86264500  0.82355700  0.54236500  1
  C  C17  1  0.86264500  0.67644300  0.04236500  1
  C  C18  1  0.13735500  0.17644300  0.45763500  1
  C  C19  1  0.13735500  0.32355700  0.95763500  1
  O  O0  1  0.40139300  0.72733800  0.32513800  1
  O  O1  1  0.40139300  0.77266200  0.82513800  1
  O  O2  1  0.59860700  0.27266200  0.67486200  1
  O  O3  1  0.59860700  0.22733800  0.17486200  1
  O  O4  1  0.40415400  0.61746100  0.21930900  1
  O  O5  1  0.40415400  0.88253900  0.71930900  1
  O  O6  1  0.59584600  0.38253900  0.78069100  1
  O  O7  1  0.59584600  0.11746100  0.28069100  1
  O  O8  1  0.01336700  0.64922800  0.43427300  1
  O  O9  1  0.01336700  0.85077200  0.93427300  1
  O  O10  1  0.98663300  0.35077200  0.56572700  1
  O  O11  1  0.98663300  0.14922800  0.06572700  1
  O  O12  1  0.00900500  0.53504300  0.32903100  1
  O  O13  1  0.00900500  0.96495700  0.82903100  1
  O  O14  1  0.99099500  0.46495700  0.67096900  1
  O  O15  1  0.99099500  0.03504300  0.17096900  1
  O  O16  1  0.70691900  0.82063900  0.47939400  1
  O  O17  1  0.70691900  0.67936100  0.97939400  1
  O  O18  1  0.29308100  0.17936100  0.52060600  1
  O  O19  1  0.29308100  0.32063900  0.02060600  1
  O  O20  1  0.92771700  0.91438400  0.58263000  1
  O  O21  1  0.92771700  0.58561600  0.08263000  1
  O  O22  1  0.07228300  0.08561600  0.41737000  1
  O  O23  1  0.07228300  0.41438400  0.91737000  1
  O  O24  1  0.79371900  0.73128600  0.22911100  1
  O  O25  1  0.79371900  0.76871400  0.72911100  1
  O  O26  1  0.20628100  0.26871400  0.77088900  1
  O  O27  1  0.20628100  0.23128600  0.27088900  1
  O  O28  1  0.62704100  0.42744400  0.31783600  1
  O  O29  1  0.62704100  0.07255600  0.81783600  1
  O  O30  1  0.37295900  0.57255600  0.68216400  1
  O  O31  1  0.37295900  0.92744400  0.18216400  1
  O  O32  1  0.78562200  0.83735700  0.33591900  1
  O  O33  1  0.78562200  0.66264300  0.83591900  1
  O  O34  1  0.21437800  0.16264300  0.66408100  1
  O  O35  1  0.21437800  0.33735700  0.16408100  1
  O  O36  1  0.62455300  0.53244800  0.42623900  1
  O  O37  1  0.62455300  0.96755200  0.92623900  1
  O  O38  1  0.37544700  0.46755200  0.57376100  1
  O  O39  1  0.37544700  0.03244800  0.07376100  1
  O  O40  1  0.66522600  0.47947300  0.15139200  1
  O  O41  1  0.66522600  0.02052700  0.65139200  1
  O  O42  1  0.33477400  0.52052700  0.84860800  1
  O  O43  1  0.33477400  0.97947300  0.34860800  1
  O  O44  1  0.67361200  0.16152600  0.48492100  1
  O  O45  1  0.67361200  0.33847400  0.98492100  1
  O  O46  1  0.32638800  0.83847400  0.51507900  1
  O  O47  1  0.32638800  0.66152600  0.01507900  1
loop_
_geom_bond_atom_site_label_1
_geom_bond_atom_site_label_2
_geom_bond_distance
_geom_bond_site_symmetry_2
Na0 O44 2.319043 1_555
Na0 O32 2.454560 1_545
Na0 O7 2.470344 1_555
Na0 O22 2.534152 1_655
Na0 O16 2.536617 1_545
Na0 O43 2.564672 1_545
Na1 O45 2.319043 1_555
Na1 O33 2.454560 1_555
Na1 O6 2.470344 1_555
Na1 O23 2.534152 1_655
Na1 O17 2.536617 1_555
Na1 O42 2.564672 1_555
Na2 O46 2.319043 1_555
Na2 O34 2.454560 1_565
Na2 O5 2.470344 1_555
Na2 O20 2.534152 1_455
Na2 O18 2.536617 1_565
Na2 O41 2.564672 1_565
Na3 O47 2.319043 1_555
Na3 O35 2.454560 1_555
Na3 O4 2.470344 1_555
Na3 O21 2.534152 1_455
Na3 O19 2.536617 1_555
Na3 O40 2.564672 1_555
H0 O44 0.979390 1_555
H1 O45 0.979390 1_554
H2 O46 0.979390 1_555
H3 O47 0.979390 1_556
H4 O40 0.981801 1_555
H5 O41 0.981801 1_555
H6 O42 0.981801 1_555
H7 O43 0.981801 1_555
H8 O40 0.995251 1_555
H9 O41 0.995251 1_565
H10 O42 0.995251 1_555
H11 O43 0.995251 1_545
H12 O44 0.979987 1_555
H13 O45 0.979987 1_554
H14 O46 0.979987 1_555
H15 O47 0.979987 1_556
C0 H16 1.099672 1_555
C0 O4 1.272591 1_555
C0 O0 1.284288 1_555
C1 H17 1.099672 1_555
C1 O5 1.272591 1_555
C1 O1 1.284288 1_555
C2 H18 1.099672 1_555
C2 O6 1.272591 1_555
C2 O2 1.284288 1_555
C3 H19 1.099672 1_555
C3 O7 1.272591 1_555
C3 O3 1.284288 1_555
C4 H32 1.101984 1_555
C4 O12 1.273601 1_555
C4 O8 1.281778 1_555
C5 H33 1.101984 1_555
C5 O13 1.273601 1_555
C5 O9 1.281778 1_555
C6 H34 1.101990 1_555
C6 O14 1.273600 1_555
C6 O10 1.281773 1_555
C7 H35 1.101990 1_555
C7 O15 1.273600 1_555
C7 O11 1.281773 1_555
C8 H20 1.101580 1_555
C8 O24 1.270205 1_555
C8 O32 1.283285 1_555
C9 H21 1.101580 1_555
C9 O25 1.270205 1_555
C9 O33 1.283285 1_555
C10 H22 1.101580 1_555
C10 O26 1.270205 1_555
C10 O34 1.283285 1_555
C11 H23 1.101580 1_555
C11 O27 1.270205 1_555
C11 O35 1.283285 1_555
C12 H28 1.103585 1_555
C12 O36 1.276736 1_555
C12 O28 1.277802 1_555
C13 H29 1.103585 1_555
C13 O37 1.276736 1_545
C13 O29 1.277802 1_555
C14 H30 1.103585 1_555
C14 O38 1.276736 1_555
C14 O30 1.277802 1_555
C15 H31 1.103585 1_555
C15 O39 1.276736 1_565
C15 O31 1.277802 1_555
C16 H24 1.113392 1_555
C16 O20 1.256063 1_555
C16 O16 1.287783 1_555
C17 H25 1.113392 1_555
C17 O21 1.256063 1_555
C17 O17 1.287783 1_554
C18 H26 1.113392 1_555
C18 O22 1.256063 1_555
C18 O18 1.287783 1_555
C19 H27 1.113392 1_555
C19 O23 1.256063 1_555
C19 O19 1.287783 1_556
O0 Rh0 2.083671 1_555
O1 Rh1 2.083671 1_555
O2 Rh2 2.083671 1_555
O3 Rh3 2.083671 1_555
O4 Rh4 2.060859 1_555
O5 Rh5 2.060859 1_555
O6 Rh6 2.060859 1_555
O7 Rh7 2.060859 1_555
O8 Rh0 2.074892 1_455
O9 Rh1 2.074892 1_455
O10 Rh2 2.074892 1_655
O11 Rh3 2.074892 1_655
O12 Rh4 2.066407 1_455
O13 Rh5 2.066407 1_455
O14 Rh6 2.066407 1_655
O15 Rh7 2.066407 1_655
O16 Rh0 2.276448 1_555
O17 Rh1 2.276448 1_555
O18 Rh2 2.276448 1_555
O19 Rh3 2.276448 1_555
O24 Rh4 2.071794 1_555
O25 Rh5 2.071794 1_555
O26 Rh6 2.071794 1_555
O27 Rh7 2.071794 1_555
O28 Rh4 2.052560 1_555
O29 Rh5 2.052560 1_545
O30 Rh6 2.052560 1_555
O31 Rh7 2.052560 1_565
O32 Rh0 2.055893 1_555
O33 Rh1 2.055893 1_555
O34 Rh2 2.055893 1_555
O35 Rh3 2.055893 1_555
O36 Rh0 2.076784 1_555
O37 Rh1 2.076784 1_555
O38 Rh2 2.076784 1_555
O39 Rh3 2.076784 1_555
O40 Rh4 2.337613 1_555
O41 Rh5 2.337613 1_545
O42 Rh6 2.337613 1_555
O43 Rh7 2.337613 1_565
