# generated using pymatgen
data_BaP2
_symmetry_space_group_name_H-M   'P 1'
_cell_length_a   6.44328016
_cell_length_b   6.48734428
_cell_length_c   12.30666191
_cell_angle_alpha   90.00000000
_cell_angle_beta   90.00000000
_cell_angle_gamma   106.19430568
_symmetry_Int_Tables_number   1
_chemical_formula_structural   BaP2
_chemical_formula_sum   'Ba6 P12'
_cell_volume   494.00442837
_cell_formula_units_Z   6
loop_
 _symmetry_equiv_pos_site_id
 _symmetry_equiv_pos_as_xyz
  1  'x, y, z'
loop_
 _atom_site_type_symbol
 _atom_site_label
 _atom_site_symmetry_multiplicity
 _atom_site_fract_x
 _atom_site_fract_y
 _atom_site_fract_z
 _atom_site_occupancy
  Ba  Ba0  1  0.10525819  0.33288517  0.16025517  1
  Ba  Ba1  1  0.39474181  0.16711483  0.66025517  1
  Ba  Ba2  1  0.89474181  0.66711483  0.83974483  1
  Ba  Ba3  1  0.60525819  0.83288517  0.33974483  1
  Ba  Ba4  1  0.00000000  0.50000000  0.50000000  1
  Ba  Ba5  1  0.50000000  0.00000000  -0.00000000  1
  P  P0  1  0.36852443  0.30023854  0.39027581  1
  P  P1  1  0.13147557  0.19976146  0.89027581  1
  P  P2  1  0.63147557  0.69976146  0.60972419  1
  P  P3  1  0.86852443  0.80023854  0.10972419  1
  P  P4  1  0.64932084  0.46605155  0.12957610  1
  P  P5  1  0.85067916  0.03394845  0.62957610  1
  P  P6  1  0.35067916  0.53394845  0.87042390  1
  P  P7  1  0.14932084  0.96605155  0.37042390  1
  P  P8  1  0.66842074  0.34840467  0.29660103  1
  P  P9  1  0.83157926  0.15159533  0.79660103  1
  P  P10  1  0.33157926  0.65159533  0.70339897  1
  P  P11  1  0.16842074  0.84840467  0.20339897  1
loop_
_geom_bond_atom_site_label_1
_geom_bond_atom_site_label_2
_geom_bond_distance
_geom_bond_site_symmetry_2
Ba0 P11 3.297430 1_555
Ba0 P8 3.302440 1_455
Ba0 P4 3.306774 1_455
Ba0 P11 3.322562 1_545
Ba0 P0 3.337068 1_555
Ba0 P4 3.389469 1_555
Ba0 P3 3.422517 1_445
Ba0 P1 3.448920 1_554
Ba1 P10 3.297430 1_545
Ba1 P9 3.302440 1_555
Ba1 P5 3.306774 1_555
Ba1 P10 3.322562 1_555
Ba1 P1 3.337068 1_555
Ba1 P5 3.389469 1_455
Ba1 P2 3.422517 1_555
Ba1 P0 3.448920 1_555
Ba2 P9 3.297430 1_555
Ba2 P10 3.302440 1_655
Ba2 P6 3.306774 1_655
Ba2 P9 3.322562 1_565
Ba2 P2 3.337068 1_555
Ba2 P6 3.389469 1_555
Ba2 P1 3.422517 1_665
Ba2 P3 3.448920 1_556
Ba3 P8 3.297430 1_565
Ba3 P11 3.302440 1_555
Ba3 P7 3.306774 1_555
Ba3 P8 3.322562 1_555
Ba3 P3 3.337068 1_555
Ba3 P7 3.389469 1_655
Ba3 P0 3.422517 1_555
Ba3 P2 3.448920 1_555
Ba4 P8 3.259674 1_455
Ba4 P10 3.259674 1_555
Ba4 P0 3.295076 1_555
Ba4 P2 3.295076 1_455
Ba4 P5 3.314692 1_455
Ba4 P7 3.314692 1_555
Ba5 P9 3.259674 1_554
Ba5 P11 3.259674 1_545
Ba5 P1 3.295076 1_554
Ba5 P3 3.295076 1_545
Ba5 P4 3.314692 1_555
Ba5 P6 3.314692 1_544
P0 P8 2.196291 1_555
P0 P7 2.246490 1_545
P1 P9 2.196291 1_455
P1 P6 2.246490 1_555
P2 P5 2.246490 1_565
P3 P4 2.246490 1_555
P4 P8 2.207984 1_555
P5 P9 2.207984 1_555
P10 P2 2.196291 1_555
P10 P6 2.207984 1_555
P11 P3 2.196291 1_455
P11 P7 2.207984 1_555
