# generated using pymatgen
data_Mo
_symmetry_space_group_name_H-M   'P 1'
_cell_length_a   10.06938086
_cell_length_b   5.19348200
_cell_length_c   5.03927701
_cell_angle_alpha   90.00000000
_cell_angle_beta   97.75433845
_cell_angle_gamma   90.00000000
_symmetry_Int_Tables_number   1
_chemical_formula_structural   Mo
_chemical_formula_sum   Mo16
_cell_volume   261.11993879
_cell_formula_units_Z   16
loop_
 _symmetry_equiv_pos_site_id
 _symmetry_equiv_pos_as_xyz
  1  'x, y, z'
loop_
 _atom_site_type_symbol
 _atom_site_label
 _atom_site_symmetry_multiplicity
 _atom_site_fract_x
 _atom_site_fract_y
 _atom_site_fract_z
 _atom_site_occupancy
  Mo  Mo0  1  0.56267400  0.51764000  0.97809900  1
  Mo  Mo1  1  0.43732600  0.01764000  0.02190100  1
  Mo  Mo2  1  0.56203200  0.26578300  0.47923400  1
  Mo  Mo3  1  0.43796800  0.76578300  0.52076600  1
  Mo  Mo4  1  0.80821900  0.29126800  0.36654500  1
  Mo  Mo5  1  0.19178100  0.79126800  0.63345500  1
  Mo  Mo6  1  0.80904000  0.47226100  0.86411000  1
  Mo  Mo7  1  0.19096000  0.97226100  0.13589000  1
  Mo  Mo8  1  0.68677500  0.77550600  0.42841800  1
  Mo  Mo9  1  0.31322500  0.27550600  0.57158200  1
  Mo  Mo10  1  0.93557200  0.83140100  0.31713400  1
  Mo  Mo11  1  0.06442800  0.33140100  0.68286600  1
  Mo  Mo12  1  0.93612300  0.92746900  0.81691300  1
  Mo  Mo13  1  0.06387700  0.42746900  0.18308700  1
  Mo  Mo14  1  0.68847700  0.99867400  0.92512400  1
  Mo  Mo15  1  0.31152300  0.49867400  0.07487600  1
loop_
_geom_bond_atom_site_label_1
_geom_bond_atom_site_label_2
_geom_bond_distance
_geom_bond_site_symmetry_2
Mo0 Mo6 2.631383 1_555
Mo0 Mo15 2.641187 1_556
Mo0 Mo8 2.781992 1_556
Mo0 Mo3 2.787113 1_555
Mo0 Mo14 2.829913 1_555
Mo0 Mo2 2.833081 1_555
Mo0 Mo2 2.844782 1_556
Mo0 Mo1 2.908618 1_556
Mo0 Mo1 2.908618 1_566
Mo0 Mo14 3.005249 1_545
Mo0 Mo4 3.165608 1_556
Mo1 Mo7 2.631383 1_545
Mo1 Mo14 2.641187 1_544
Mo1 Mo9 2.781992 1_554
Mo1 Mo2 2.787113 1_555
Mo1 Mo15 2.829913 1_555
Mo1 Mo3 2.833081 1_545
Mo1 Mo3 2.844782 1_544
Mo1 Mo15 3.005249 1_545
Mo1 Mo5 3.165608 1_544
Mo2 Mo9 2.609680 1_555
Mo2 Mo4 2.620128 1_555
Mo2 Mo8 2.865918 1_545
Mo2 Mo3 2.901386 1_545
Mo2 Mo3 2.901386 1_555
Mo2 Mo8 2.956009 1_555
Mo2 Mo6 3.129866 1_555
Mo3 Mo8 2.609680 1_555
Mo3 Mo5 2.620128 1_555
Mo3 Mo9 2.865918 1_555
Mo3 Mo9 2.956009 1_565
Mo3 Mo7 3.129866 1_555
Mo4 Mo6 2.676740 1_555
Mo4 Mo6 2.701824 1_554
Mo4 Mo8 2.831984 1_555
Mo4 Mo8 2.978323 1_545
Mo5 Mo7 2.676740 1_555
Mo5 Mo7 2.701824 1_556
Mo5 Mo9 2.831984 1_565
Mo5 Mo9 2.978323 1_555
Mo6 Mo8 2.843784 1_555
Mo7 Mo9 2.843784 1_565
Mo10 Mo12 2.566740 1_555
Mo10 Mo12 2.570394 1_554
Mo10 Mo13 2.600339 1_655
Mo10 Mo8 2.655948 1_555
Mo10 Mo4 2.738002 1_565
Mo10 Mo5 2.851376 1_655
Mo10 Mo7 2.935352 1_655
Mo10 Mo14 3.085667 1_554
Mo10 Mo6 3.086914 1_554
Mo10 Mo4 3.108313 1_555
Mo10 Mo11 3.343353 1_655
Mo10 Mo11 3.343353 1_665
Mo10 Mo13 3.456025 1_665
Mo11 Mo13 2.566740 1_555
Mo11 Mo13 2.570394 1_556
Mo11 Mo12 2.600339 1_445
Mo11 Mo9 2.655948 1_555
Mo11 Mo5 2.738002 1_555
Mo11 Mo4 2.851376 1_455
Mo11 Mo6 2.935352 1_455
Mo11 Mo15 3.085667 1_556
Mo11 Mo7 3.086914 1_546
Mo11 Mo5 3.108313 1_545
Mo11 Mo12 3.456025 1_455
Mo12 Mo14 2.649397 1_555
Mo12 Mo6 2.713896 1_555
Mo12 Mo7 2.847710 1_656
Mo12 Mo5 2.936731 1_655
Mo12 Mo8 3.071345 1_555
Mo12 Mo4 3.096852 1_565
Mo12 Mo6 3.127541 1_565
Mo12 Mo13 3.341002 1_666
Mo12 Mo13 3.341002 1_656
Mo13 Mo15 2.649397 1_555
Mo13 Mo7 2.713896 1_545
Mo13 Mo6 2.847710 1_454
Mo13 Mo4 2.936731 1_455
Mo13 Mo9 3.071345 1_555
Mo13 Mo5 3.096852 1_555
Mo13 Mo7 3.127541 1_555
Mo14 Mo8 2.756311 1_555
Mo14 Mo6 2.778220 1_565
Mo14 Mo8 2.790672 1_556
Mo14 Mo2 2.796841 1_565
Mo14 Mo4 2.826180 1_566
Mo14 Mo6 3.023796 1_555
Mo15 Mo9 2.756311 1_555
Mo15 Mo7 2.778220 1_555
Mo15 Mo9 2.790672 1_554
Mo15 Mo3 2.796841 1_555
Mo15 Mo5 2.826180 1_554
Mo15 Mo7 3.023796 1_545
