# generated using pymatgen
data_Ce2H8S3O16
_symmetry_space_group_name_H-M   'P 1'
_cell_length_a   12.63296300
_cell_length_b   7.20169600
_cell_length_c   18.93743002
_cell_angle_alpha   90.00000000
_cell_angle_beta   130.84857062
_cell_angle_gamma   90.00000000
_symmetry_Int_Tables_number   1
_chemical_formula_structural   Ce2H8S3O16
_chemical_formula_sum   'Ce8 H32 S12 O64'
_cell_volume   1303.27490921
_cell_formula_units_Z   4
loop_
 _symmetry_equiv_pos_site_id
 _symmetry_equiv_pos_as_xyz
  1  'x, y, z'
loop_
 _atom_site_type_symbol
 _atom_site_label
 _atom_site_symmetry_multiplicity
 _atom_site_fract_x
 _atom_site_fract_y
 _atom_site_fract_z
 _atom_site_occupancy
  Ce  Ce0  1  0.21730800  0.62596200  0.41185300  1
  Ce  Ce1  1  0.21730800  0.87403800  0.91185300  1
  Ce  Ce2  1  0.78269200  0.37403800  0.58814700  1
  Ce  Ce3  1  0.78269200  0.12596200  0.08814700  1
  Ce  Ce4  1  0.19724300  0.12287900  0.69759600  1
  Ce  Ce5  1  0.19724300  0.37712100  0.19759600  1
  Ce  Ce6  1  0.80275700  0.87712100  0.30240400  1
  Ce  Ce7  1  0.80275700  0.62287900  0.80240400  1
  H  H0  1  0.01118600  0.45736800  0.43133500  1
  H  H1  1  0.01118600  0.04263200  0.93133500  1
  H  H2  1  0.98881400  0.54263200  0.56866500  1
  H  H3  1  0.98881400  0.95736800  0.06866500  1
  H  H4  1  0.13194800  0.30797700  0.47718600  1
  H  H5  1  0.13194800  0.19202300  0.97718600  1
  H  H6  1  0.86805200  0.69202300  0.52281400  1
  H  H7  1  0.86805200  0.80797700  0.02281400  1
  H  H8  1  0.45476700  0.12833100  0.70461000  1
  H  H9  1  0.45476700  0.37166900  0.20461000  1
  H  H10  1  0.54523300  0.87166900  0.29539000  1
  H  H11  1  0.54523300  0.62833100  0.79539000  1
  H  H12  1  0.51628800  0.15707100  0.80824500  1
  H  H13  1  0.51628800  0.34292900  0.30824500  1
  H  H14  1  0.48371200  0.84292900  0.19175500  1
  H  H15  1  0.48371200  0.65707100  0.69175500  1
  H  H16  1  0.18885700  0.45410600  0.58905100  1
  H  H17  1  0.18885700  0.04589400  0.08905100  1
  H  H18  1  0.81114300  0.54589400  0.41094900  1
  H  H19  1  0.81114300  0.95410600  0.91094900  1
  H  H20  1  0.24062100  0.55410000  0.68162000  1
  H  H21  1  0.24062100  0.94590000  0.18162000  1
  H  H22  1  0.75937900  0.44590000  0.31838000  1
  H  H23  1  0.75937900  0.05410000  0.81838000  1
  H  H24  1  0.41536200  0.29320800  0.90032400  1
  H  H25  1  0.41536200  0.20679200  0.40032400  1
  H  H26  1  0.58463800  0.70679200  0.09967600  1
  H  H27  1  0.58463800  0.79320800  0.59967600  1
  H  H28  1  0.40012400  0.45145900  0.83705900  1
  H  H29  1  0.40012400  0.04854100  0.33705900  1
  H  H30  1  0.59987600  0.54854100  0.16294100  1
  H  H31  1  0.59987600  0.95145900  0.66294100  1
  S  S0  1  0.91660600  0.61324600  0.19652300  1
  S  S1  1  0.91660600  0.88675400  0.69652300  1
  S  S2  1  0.08339400  0.38675400  0.80347700  1
  S  S3  1  0.08339400  0.11324600  0.30347700  1
  S  S4  1  0.17866400  0.88978000  0.54427300  1
  S  S5  1  0.17866400  0.61022000  0.04427300  1
  S  S6  1  0.82133600  0.11022000  0.45572700  1
  S  S7  1  0.82133600  0.38978000  0.95572700  1
  S  S8  1  0.46491500  0.67854300  0.40509600  1
  S  S9  1  0.46491500  0.82145700  0.90509600  1
  S  S10  1  0.53508500  0.32145700  0.59490400  1
  S  S11  1  0.53508500  0.17854300  0.09490400  1
  O  O0  1  0.11337700  0.44261400  0.47360100  1
  O  O1  1  0.11337700  0.05738600  0.97360100  1
  O  O2  1  0.88662300  0.55738600  0.52639900  1
  O  O3  1  0.88662300  0.94261400  0.02639900  1
  O  O4  1  0.43875600  0.10142900  0.74802700  1
  O  O5  1  0.43875600  0.39857100  0.24802700  1
  O  O6  1  0.56124400  0.89857100  0.25197300  1
  O  O7  1  0.56124400  0.60142900  0.75197300  1
  O  O8  1  0.20396300  0.43705100  0.64725800  1
  O  O9  1  0.20396300  0.06294900  0.14725800  1
  O  O10  1  0.79603700  0.56294900  0.35274200  1
  O  O11  1  0.79603700  0.93705100  0.85274200  1
  O  O12  1  0.36789400  0.32478900  0.83496200  1
  O  O13  1  0.36789400  0.17521100  0.33496200  1
  O  O14  1  0.63210600  0.67521100  0.16503800  1
  O  O15  1  0.63210600  0.82478900  0.66503800  1
  O  O16  1  0.83130400  0.44513500  0.14915800  1
  O  O17  1  0.83130400  0.05486500  0.64915800  1
  O  O18  1  0.16869600  0.55486500  0.85084200  1
  O  O19  1  0.16869600  0.94513500  0.35084200  1
  O  O20  1  0.94948700  0.64132400  0.28859500  1
  O  O21  1  0.94948700  0.85867600  0.78859500  1
  O  O22  1  0.05051300  0.35867600  0.71140500  1
  O  O23  1  0.05051300  0.14132400  0.21140500  1
  O  O24  1  0.05817500  0.59050200  0.22437300  1
  O  O25  1  0.05817500  0.90949800  0.72437300  1
  O  O26  1  0.94182500  0.40949800  0.77562700  1
  O  O27  1  0.94182500  0.09050200  0.27562700  1
  O  O28  1  0.84329500  0.77880700  0.13796700  1
  O  O29  1  0.84329500  0.72119300  0.63796700  1
  O  O30  1  0.15670500  0.22119300  0.86203300  1
  O  O31  1  0.15670500  0.27880700  0.36203300  1
  O  O32  1  0.04840100  0.84022100  0.44778100  1
  O  O33  1  0.04840100  0.65977900  0.94778100  1
  O  O34  1  0.95159900  0.15977900  0.55221900  1
  O  O35  1  0.95159900  0.34022100  0.05221900  1
  O  O36  1  0.19721900  0.09483300  0.55604600  1
  O  O37  1  0.19721900  0.40516700  0.05604600  1
  O  O38  1  0.80278100  0.90516700  0.44395400  1
  O  O39  1  0.80278100  0.59483300  0.94395400  1
  O  O40  1  0.17014000  0.82481500  0.61575300  1
  O  O41  1  0.17014000  0.67518500  0.11575300  1
  O  O42  1  0.82986000  0.17518500  0.38424700  1
  O  O43  1  0.82986000  0.32481500  0.88424700  1
  O  O44  1  0.29637300  0.79588200  0.55834600  1
  O  O45  1  0.29637300  0.70411800  0.05834600  1
  O  O46  1  0.70362700  0.20411800  0.44165400  1
  O  O47  1  0.70362700  0.29588200  0.94165400  1
  O  O48  1  0.59269000  0.56508200  0.45322700  1
  O  O49  1  0.59269000  0.93491800  0.95322700  1
  O  O50  1  0.40731000  0.43491800  0.54677300  1
  O  O51  1  0.40731000  0.06508200  0.04677300  1
  O  O52  1  0.45393900  0.76186600  0.47232700  1
  O  O53  1  0.45393900  0.73813400  0.97232700  1
  O  O54  1  0.54606100  0.23813400  0.52767300  1
  O  O55  1  0.54606100  0.26186600  0.02767300  1
  O  O56  1  0.33601900  0.55249700  0.34549600  1
  O  O57  1  0.33601900  0.94750300  0.84549600  1
  O  O58  1  0.66398100  0.44750300  0.65450400  1
  O  O59  1  0.66398100  0.05249700  0.15450400  1
  O  O60  1  0.45520400  0.81830500  0.34444200  1
  O  O61  1  0.45520400  0.68169500  0.84444200  1
  O  O62  1  0.54479600  0.18169500  0.65555800  1
  O  O63  1  0.54479600  0.31830500  0.15555800  1
loop_
_geom_bond_atom_site_label_1
_geom_bond_atom_site_label_2
_geom_bond_distance
_geom_bond_site_symmetry_2
Ce0 O19 2.463209 1_555
Ce0 O50 2.481943 1_555
Ce0 O44 2.562534 1_555
Ce0 O56 2.563837 1_555
Ce0 O20 2.564580 1_455
Ce0 O52 2.593715 1_555
Ce0 O31 2.604210 1_555
Ce0 O0 2.615932 1_555
Ce0 O24 2.715738 1_555
Ce1 O18 2.463209 1_555
Ce1 O51 2.481943 1_566
Ce1 O45 2.562534 1_556
Ce1 O57 2.563837 1_555
Ce1 O21 2.564580 1_455
Ce1 O53 2.593715 1_555
Ce1 O30 2.604210 1_565
Ce1 O1 2.615932 1_565
Ce1 O25 2.715738 1_555
Ce2 O17 2.463209 1_555
Ce2 O48 2.481943 1_555
Ce2 O46 2.562534 1_555
Ce2 O58 2.563837 1_555
Ce2 O22 2.564580 1_655
Ce2 O54 2.593715 1_555
Ce2 O29 2.604210 1_555
Ce2 O2 2.615932 1_555
Ce2 O26 2.715738 1_555
Ce3 O16 2.463209 1_555
Ce3 O49 2.481943 1_544
Ce3 O47 2.562534 1_554
Ce3 O59 2.563837 1_555
Ce3 O23 2.564580 1_655
Ce3 O55 2.593715 1_555
Ce3 O28 2.604210 1_545
Ce3 O3 2.615932 1_545
Ce3 O27 2.715738 1_555
Ce4 O57 2.467826 1_545
Ce4 O34 2.470659 1_455
Ce4 O8 2.478109 1_555
Ce4 O12 2.488571 1_555
Ce4 O40 2.536331 1_545
Ce4 O4 2.536346 1_555
Ce4 O25 2.621157 1_545
Ce4 O22 2.649928 1_555
Ce4 O36 2.687994 1_555
Ce5 O56 2.467826 1_555
Ce5 O35 2.470659 1_455
Ce5 O9 2.478109 1_555
Ce5 O13 2.488571 1_555
Ce5 O41 2.536331 1_555
Ce5 O5 2.536346 1_555
Ce5 O24 2.621157 1_555
Ce5 O23 2.649928 1_555
Ce5 O37 2.687994 1_555
Ce6 O59 2.467826 1_565
Ce6 O32 2.470659 1_655
Ce6 O10 2.478109 1_555
Ce6 O14 2.488571 1_555
Ce6 O42 2.536331 1_565
Ce6 O6 2.536346 1_555
Ce6 O27 2.621157 1_565
Ce6 O20 2.649928 1_555
Ce6 O38 2.687994 1_555
Ce7 O58 2.467826 1_555
Ce7 O33 2.470659 1_655
Ce7 O11 2.478109 1_555
Ce7 O15 2.488571 1_555
Ce7 O43 2.536331 1_555
Ce7 O7 2.536346 1_555
Ce7 O26 2.621157 1_555
Ce7 O21 2.649928 1_555
Ce7 O39 2.687994 1_555
H0 O0 0.983293 1_555
H1 O1 0.983293 1_555
H2 O2 0.983293 1_555
H3 O3 0.983293 1_555
H4 O0 0.989428 1_555
H5 O1 0.989428 1_555
H6 O2 0.989428 1_555
H7 O3 0.989428 1_555
H8 O4 0.985909 1_555
H9 O5 0.985909 1_555
H10 O6 0.985909 1_555
H11 O7 0.985909 1_555
H12 O4 0.979417 1_555
H13 O5 0.979417 1_555
H14 O6 0.979417 1_555
H15 O7 0.979417 1_555
H16 O8 0.995680 1_555
H17 O9 0.995680 1_555
H18 O10 0.995680 1_555
H19 O11 0.995680 1_555
H20 O8 0.976867 1_555
H21 O9 0.976867 1_565
H22 O10 0.976867 1_555
H23 O11 0.976867 1_545
H24 O12 0.986144 1_555
H25 O13 0.986144 1_555
H26 O14 0.986144 1_555
H27 O15 0.986144 1_555
H28 O12 0.989134 1_555
H29 O13 0.989134 1_555
H30 O14 0.989134 1_555
H31 O15 0.989134 1_555
O16 S0 1.472125 1_555
O17 S1 1.472125 1_545
O18 S2 1.472125 1_555
O19 S3 1.472125 1_565
O20 S0 1.518607 1_555
O21 S1 1.518607 1_555
O22 S2 1.518607 1_555
O23 S3 1.518607 1_555
O24 S0 1.506527 1_455
O25 S1 1.506527 1_455
O26 S2 1.506527 1_655
O27 S3 1.506527 1_655
O28 S0 1.471591 1_555
O29 S1 1.471591 1_555
O30 S2 1.471591 1_555
O31 S3 1.471591 1_555
O32 S4 1.496962 1_555
O33 S5 1.496962 1_556
O34 S6 1.496962 1_555
O35 S7 1.496962 1_554
O36 S4 1.488966 1_545
O37 S5 1.488966 1_555
O38 S6 1.488966 1_565
O39 S7 1.488966 1_555
O40 S4 1.501175 1_555
O41 S5 1.501175 1_555
O42 S6 1.501175 1_555
O43 S7 1.501175 1_555
O44 S4 1.490338 1_555
O45 S5 1.490338 1_555
O46 S6 1.490338 1_555
O47 S7 1.490338 1_555
O48 S8 1.476281 1_555
O49 S9 1.476281 1_555
O50 S10 1.476281 1_555
O51 S11 1.476281 1_555
O52 S8 1.493732 1_555
O53 S9 1.493732 1_555
O54 S10 1.493732 1_555
O55 S11 1.493732 1_555
O56 S8 1.531417 1_555
O57 S9 1.531417 1_555
O58 S10 1.531417 1_555
O59 S11 1.531417 1_555
O60 S8 1.470769 1_555
O61 S9 1.470769 1_555
O62 S10 1.470769 1_555
O63 S11 1.470769 1_555
