# generated using pymatgen
data_MnCuF6
_symmetry_space_group_name_H-M   'P 1'
_cell_length_a   4.83324510
_cell_length_b   4.90268005
_cell_length_c   5.32501399
_cell_angle_alpha   60.95217900
_cell_angle_beta   61.54215903
_cell_angle_gamma   60.85040180
_symmetry_Int_Tables_number   1
_chemical_formula_structural   MnCuF6
_chemical_formula_sum   'Mn1 Cu1 F6'
_cell_volume   91.45466047
_cell_formula_units_Z   1
loop_
 _symmetry_equiv_pos_site_id
 _symmetry_equiv_pos_as_xyz
  1  'x, y, z'
loop_
 _atom_site_type_symbol
 _atom_site_label
 _atom_site_symmetry_multiplicity
 _atom_site_fract_x
 _atom_site_fract_y
 _atom_site_fract_z
 _atom_site_occupancy
  Mn  Mn0  1  0.50000000  0.50000000  0.50000000  1
  Cu  Cu0  1  0.00000000  0.00000000  -0.00000000  1
  F  F0  1  0.73436268  0.39251330  0.73764405  1
  F  F1  1  0.26563732  0.60748670  0.26235595  1
  F  F2  1  0.61396308  0.87722480  0.25526342  1
  F  F3  1  0.38603692  0.12277520  0.74473658  1
  F  F4  1  0.13349999  0.72806753  0.73239225  1
  F  F5  1  0.86650001  0.27193247  0.26760775  1
loop_
_geom_bond_atom_site_label_1
_geom_bond_atom_site_label_2
_geom_bond_distance
_geom_bond_site_symmetry_2
Cu0 F2 1.890437 1_445
Cu0 F3 1.890437 1_554
Cu0 F1 1.998783 1_545
Cu0 F0 1.998783 1_454
Cu0 F5 2.086863 1_455
Cu0 F4 2.086863 1_544
F0 Mn0 1.816362 1_555
F1 Mn0 1.816362 1_555
F2 Mn0 1.841165 1_555
F3 Mn0 1.841165 1_555
F4 Mn0 1.801244 1_555
F5 Mn0 1.801244 1_555
