# generated using pymatgen
data_Sr4Ca4TiMn7O24
_symmetry_space_group_name_H-M   'P 1'
_cell_length_a   7.70135735
_cell_length_b   7.70135735
_cell_length_c   7.70349581
_cell_angle_alpha   89.98143440
_cell_angle_beta   89.98143440
_cell_angle_gamma   89.99614920
_symmetry_Int_Tables_number   1
_chemical_formula_structural   Sr4Ca4TiMn7O24
_chemical_formula_sum   'Sr4 Ca4 Ti1 Mn7 O24'
_cell_volume   456.90125875
_cell_formula_units_Z   1
loop_
 _symmetry_equiv_pos_site_id
 _symmetry_equiv_pos_as_xyz
  1  'x, y, z'
loop_
 _atom_site_type_symbol
 _atom_site_label
 _atom_site_symmetry_multiplicity
 _atom_site_fract_x
 _atom_site_fract_y
 _atom_site_fract_z
 _atom_site_occupancy
  Sr  Sr0  1  0.24834900  0.75185300  0.75184200  1
  Sr  Sr1  1  0.75170400  0.75170400  0.75191500  1
  Sr  Sr2  1  0.75185300  0.24834900  0.75184200  1
  Sr  Sr3  1  0.24820100  0.24820100  0.24809700  1
  Ca  Ca0  1  0.24749300  0.75219900  0.24764900  1
  Ca  Ca1  1  0.75247500  0.75247500  0.24765800  1
  Ca  Ca2  1  0.24770600  0.24770600  0.75224100  1
  Ca  Ca3  1  0.75219900  0.24749300  0.24764900  1
  Ti  Ti0  1  0.50000300  0.50000300  0.49739300  1
  Mn  Mn0  1  0.00010900  0.49994600  0.00081700  1
  Mn  Mn1  1  0.49994600  0.49994600  0.00036200  1
  Mn  Mn2  1  0.00007100  0.49991900  0.49879100  1
  Mn  Mn3  1  0.00006800  0.00006800  0.00088500  1
  Mn  Mn4  1  0.49994600  0.00010900  0.00081700  1
  Mn  Mn5  1  0.00009800  0.00009800  0.49905500  1
  Mn  Mn6  1  0.49991900  0.00007100  0.49879100  1
  O  O0  1  0.99999800  0.75017600  0.00663600  1
  O  O1  1  0.49994200  0.74990300  0.00685800  1
  O  O2  1  0.00001200  0.74987900  0.49333000  1
  O  O3  1  0.49997100  0.75267200  0.49547500  1
  O  O4  1  0.99998100  0.24984000  0.00092900  1
  O  O5  1  0.50006800  0.25005400  0.00077600  1
  O  O6  1  0.99997600  0.25011900  0.49930000  1
  O  O7  1  0.50005700  0.24733300  0.49868300  1
  O  O8  1  0.00303500  0.49703700  0.74997100  1
  O  O9  1  0.49830200  0.49830200  0.75272700  1
  O  O10  1  0.99701600  0.50290300  0.25013100  1
  O  O11  1  0.50152100  0.50152100  0.24733500  1
  O  O12  1  0.00286700  0.00286700  0.75016400  1
  O  O13  1  0.49703700  0.00303500  0.74997100  1
  O  O14  1  0.99720200  0.99720200  0.24979100  1
  O  O15  1  0.50290300  0.99701600  0.25013100  1
  O  O16  1  0.25005400  0.50006800  0.00077600  1
  O  O17  1  0.74990300  0.49994200  0.00685800  1
  O  O18  1  0.24733300  0.50005700  0.49868300  1
  O  O19  1  0.75267200  0.49997100  0.49547500  1
  O  O20  1  0.24984000  0.99998100  0.00092900  1
  O  O21  1  0.75017600  0.99999800  0.00663600  1
  O  O22  1  0.25011900  0.99997600  0.49930000  1
  O  O23  1  0.74987900  0.00001200  0.49333000  1
loop_
_geom_bond_atom_site_label_1
_geom_bond_atom_site_label_2
_geom_bond_distance
_geom_bond_site_symmetry_2
Ca0 O0 2.661334 1_455
Ca0 O2 2.685612 1_555
Ca0 O1 2.686760 1_555
Ca0 O20 2.692900 1_555
Ca0 O14 2.697327 1_455
Ca0 O16 2.718444 1_555
Ca0 O22 2.720713 1_555
Ca0 O10 2.721762 1_455
Ca0 O15 2.724855 1_555
Ca0 O3 2.725430 1_555
Ca0 O18 2.740078 1_555
Ca0 O11 2.748438 1_555
Ca1 O0 2.660687 1_555
Ca1 O21 2.660687 1_555
Ca1 O14 2.665559 1_555
Ca1 O23 2.686753 1_565
Ca1 O2 2.686753 1_655
Ca1 O1 2.688163 1_555
Ca1 O17 2.688163 1_555
Ca1 O10 2.690899 1_555
Ca1 O15 2.690899 1_555
Ca1 O19 2.724639 1_555
Ca1 O3 2.724639 1_555
Ca1 O11 2.733325 1_555
Ca2 O12 2.666776 1_555
Ca2 O13 2.690264 1_555
Ca2 O8 2.690264 1_555
Ca2 O20 2.703304 1_546
Ca2 O4 2.703304 1_456
Ca2 O22 2.727529 1_545
Ca2 O6 2.727529 1_455
Ca2 O5 2.728685 1_556
Ca2 O16 2.728685 1_556
Ca2 O9 2.729428 1_555
Ca2 O18 2.754967 1_555
Ca2 O7 2.754967 1_555
Ca3 O21 2.661334 1_545
Ca3 O23 2.685612 1_555
Ca3 O17 2.686760 1_555
Ca3 O4 2.692900 1_555
Ca3 O14 2.697327 1_545
Ca3 O5 2.718444 1_555
Ca3 O6 2.720713 1_555
Ca3 O15 2.721762 1_545
Ca3 O10 2.724855 1_555
Ca3 O19 2.725430 1_555
Ca3 O7 2.740078 1_555
Ca3 O11 2.748438 1_555
Mn0 O10 1.920872 1_455
Mn0 O16 1.924916 1_555
Mn0 O4 1.926156 1_455
Mn0 O17 1.927473 1_455
Mn0 O0 1.927647 1_455
Mn0 O8 1.932652 1_554
Mn1 O11 1.902641 1_555
Mn1 O9 1.907747 1_554
Mn1 O16 1.924509 1_555
Mn1 O5 1.924509 1_555
Mn1 O17 1.925675 1_555
Mn1 O1 1.925675 1_555
Mn2 O18 1.904253 1_555
Mn2 O19 1.905488 1_455
Mn2 O10 1.915834 1_455
Mn2 O6 1.923802 1_455
Mn2 O2 1.925477 1_555
Mn2 O8 1.935226 1_555
Mn3 O14 1.917686 1_445
Mn3 O20 1.923584 1_545
Mn3 O4 1.923584 1_455
Mn3 O21 1.925003 1_445
Mn3 O0 1.925003 1_445
Mn3 O12 1.931655 1_554
Mn4 O15 1.920872 1_545
Mn4 O5 1.924916 1_555
Mn4 O20 1.926156 1_545
Mn4 O1 1.927473 1_545
Mn4 O21 1.927647 1_545
Mn4 O13 1.932652 1_554
Mn5 O14 1.920478 1_445
Mn5 O6 1.925503 1_455
Mn5 O22 1.925503 1_545
Mn5 O2 1.927545 1_545
Mn5 O23 1.927545 1_455
Mn5 O12 1.934666 1_555
Mn6 O7 1.904253 1_555
Mn6 O3 1.905488 1_545
Mn6 O15 1.915834 1_545
Mn6 O22 1.923802 1_545
Mn6 O23 1.925477 1_555
Mn6 O13 1.935226 1_555
O0 Sr0 2.740167 1_654
O0 Sr1 2.740339 1_554
O1 Sr1 2.759382 1_554
O1 Sr0 2.759766 1_554
O2 Sr1 2.760936 1_455
O2 Sr0 2.761586 1_555
O3 Ti0 1.945946 1_555
O3 Sr0 2.766416 1_555
O3 Sr1 2.768315 1_555
O4 Sr3 2.698568 1_655
O4 Sr2 2.708523 1_554
O5 Sr3 2.718497 1_555
O5 Sr2 2.726767 1_554
O6 Sr3 2.719759 1_655
O6 Sr2 2.726544 1_555
O7 Ti0 1.945924 1_555
O7 Sr3 2.736976 1_555
O7 Sr2 2.750677 1_555
O8 Sr2 2.722290 1_455
O8 Sr0 2.724177 1_555
O8 Sr1 2.755512 1_455
O9 Ti0 1.967043 1_555
O9 Sr2 2.741909 1_555
O9 Sr0 2.741909 1_555
O9 Sr1 2.759990 1_555
O10 Sr3 2.754918 1_655
O11 Ti0 1.926384 1_555
O11 Sr3 2.759097 1_555
O12 Sr2 2.703867 1_455
O12 Sr0 2.703867 1_545
O12 Sr1 2.735627 1_445
O13 Sr0 2.722290 1_545
O13 Sr2 2.724177 1_555
O13 Sr1 2.755512 1_545
O14 Sr3 2.733839 1_665
O15 Sr3 2.754918 1_565
O16 Sr3 2.718497 1_555
O16 Sr0 2.726767 1_554
O17 Sr1 2.759382 1_554
O17 Sr2 2.759766 1_554
O18 Ti0 1.945924 1_555
O18 Sr3 2.736976 1_555
O18 Sr0 2.750677 1_555
O19 Ti0 1.945946 1_555
O19 Sr2 2.766416 1_555
O19 Sr1 2.768315 1_555
O20 Sr3 2.698568 1_565
O20 Sr0 2.708523 1_554
O21 Sr2 2.740167 1_564
O21 Sr1 2.740339 1_554
O22 Sr3 2.719759 1_565
O22 Sr0 2.726544 1_555
O23 Sr1 2.760936 1_545
O23 Sr2 2.761586 1_555
