# generated using pymatgen
data_CsCu5S3
_symmetry_space_group_name_H-M   'P 1'
_cell_length_a   13.08411200
_cell_length_b   13.08411200
_cell_length_c   7.80643000
_cell_angle_alpha   90.00000000
_cell_angle_beta   90.00000000
_cell_angle_gamma   90.00000000
_symmetry_Int_Tables_number   1
_chemical_formula_structural   CsCu5S3
_chemical_formula_sum   'Cs8 Cu40 S24'
_cell_volume   1336.41387460
_cell_formula_units_Z   8
loop_
 _symmetry_equiv_pos_site_id
 _symmetry_equiv_pos_as_xyz
  1  'x, y, z'
loop_
 _atom_site_type_symbol
 _atom_site_label
 _atom_site_symmetry_multiplicity
 _atom_site_fract_x
 _atom_site_fract_y
 _atom_site_fract_z
 _atom_site_occupancy
  Cs  Cs0  1  0.61527200  0.11129300  0.62580100  1
  Cs  Cs1  1  0.11527200  0.38870700  0.87419900  1
  Cs  Cs2  1  0.38472800  0.88870700  0.62580100  1
  Cs  Cs3  1  0.88472800  0.61129300  0.87419900  1
  Cs  Cs4  1  0.88870700  0.61527200  0.37419900  1
  Cs  Cs5  1  0.61129300  0.11527200  0.12580100  1
  Cs  Cs6  1  0.11129300  0.38472800  0.37419900  1
  Cs  Cs7  1  0.38870700  0.88472800  0.12580100  1
  Cu  Cu0  1  0.50828600  0.38449200  0.60272600  1
  Cu  Cu1  1  0.00828600  0.11550800  0.89727400  1
  Cu  Cu2  1  0.49171400  0.61550800  0.60272600  1
  Cu  Cu3  1  0.99171400  0.88449200  0.89727400  1
  Cu  Cu4  1  0.61550800  0.50828600  0.39727400  1
  Cu  Cu5  1  0.88449200  0.00828600  0.10272600  1
  Cu  Cu6  1  0.38449200  0.49171400  0.39727400  1
  Cu  Cu7  1  0.11550800  0.99171400  0.10272600  1
  Cu  Cu8  1  0.90054400  0.02199800  0.63691900  1
  Cu  Cu9  1  0.40054400  0.47800200  0.86308100  1
  Cu  Cu10  1  0.09945600  0.97800200  0.63691900  1
  Cu  Cu11  1  0.59945600  0.52199800  0.86308100  1
  Cu  Cu12  1  0.97800200  0.90054400  0.36308100  1
  Cu  Cu13  1  0.52199800  0.40054400  0.13691900  1
  Cu  Cu14  1  0.02199800  0.09945600  0.36308100  1
  Cu  Cu15  1  0.47800200  0.59945600  0.13691900  1
  Cu  Cu16  1  0.64779900  0.78066200  0.63474900  1
  Cu  Cu17  1  0.14779900  0.71933800  0.86525100  1
  Cu  Cu18  1  0.35220100  0.21933800  0.63474900  1
  Cu  Cu19  1  0.85220100  0.28066200  0.86525100  1
  Cu  Cu20  1  0.21933800  0.64779900  0.36525100  1
  Cu  Cu21  1  0.28066200  0.14779900  0.13474900  1
  Cu  Cu22  1  0.78066200  0.35220100  0.36525100  1
  Cu  Cu23  1  0.71933800  0.85220100  0.13474900  1
  Cu  Cu24  1  0.89121400  0.21981900  0.53599300  1
  Cu  Cu25  1  0.39121400  0.28018100  0.96400700  1
  Cu  Cu26  1  0.10878600  0.78018100  0.53599300  1
  Cu  Cu27  1  0.60878600  0.71981900  0.96400700  1
  Cu  Cu28  1  0.78018100  0.89121400  0.46400700  1
  Cu  Cu29  1  0.71981900  0.39121400  0.03599300  1
  Cu  Cu30  1  0.21981900  0.10878600  0.46400700  1
  Cu  Cu31  1  0.28018100  0.60878600  0.03599300  1
  Cu  Cu32  1  0.71499300  0.39717200  0.68425500  1
  Cu  Cu33  1  0.21499300  0.10282800  0.81574500  1
  Cu  Cu34  1  0.28500700  0.60282800  0.68425500  1
  Cu  Cu35  1  0.78500700  0.89717200  0.81574500  1
  Cu  Cu36  1  0.60282800  0.71499300  0.31574500  1
  Cu  Cu37  1  0.89717200  0.21499300  0.18425500  1
  Cu  Cu38  1  0.39717200  0.28500700  0.31574500  1
  Cu  Cu39  1  0.10282800  0.78500700  0.18425500  1
  S  S0  1  0.88072500  0.38086100  0.62033000  1
  S  S1  1  0.38072500  0.11913900  0.87967000  1
  S  S2  1  0.11927500  0.61913900  0.62033000  1
  S  S3  1  0.61927500  0.88086100  0.87967000  1
  S  S4  1  0.61913900  0.88072500  0.37967000  1
  S  S5  1  0.88086100  0.38072500  0.12033000  1
  S  S6  1  0.38086100  0.11927500  0.37967000  1
  S  S7  1  0.11913900  0.61927500  0.12033000  1
  S  S8  1  0.91041600  0.84079800  0.63115100  1
  S  S9  1  0.41041600  0.65920200  0.86884900  1
  S  S10  1  0.08958400  0.15920200  0.63115100  1
  S  S11  1  0.58958400  0.34079800  0.86884900  1
  S  S12  1  0.15920200  0.91041600  0.36884900  1
  S  S13  1  0.34079800  0.41041600  0.13115100  1
  S  S14  1  0.84079800  0.08958400  0.36884900  1
  S  S15  1  0.65920200  0.58958400  0.13115100  1
  S  S16  1  0.66555600  0.60560100  0.62700000  1
  S  S17  1  0.16555600  0.89439900  0.87300000  1
  S  S18  1  0.33444400  0.39439900  0.62700000  1
  S  S19  1  0.83444400  0.10560100  0.87300000  1
  S  S20  1  0.39439900  0.66555600  0.37300000  1
  S  S21  1  0.10560100  0.16555600  0.12700000  1
  S  S22  1  0.60560100  0.33444400  0.37300000  1
  S  S23  1  0.89439900  0.83444400  0.12700000  1
loop_
_geom_bond_atom_site_label_1
_geom_bond_atom_site_label_2
_geom_bond_distance
_geom_bond_site_symmetry_2
Cs0 S19 3.457309 1_555
Cs0 S22 3.526393 1_555
Cs0 S11 3.567923 1_555
Cs0 S4 3.577052 1_545
Cs0 S14 3.579314 1_555
Cs0 S3 3.608397 1_545
Cs0 S6 3.620712 1_555
Cs0 S1 3.654571 1_555
Cs1 S18 3.457309 1_555
Cs1 S21 3.526393 1_556
Cs1 S10 3.567923 1_555
Cs1 S7 3.577052 1_556
Cs1 S13 3.579314 1_556
Cs1 S2 3.608397 1_555
Cs1 S5 3.620712 1_456
Cs1 S0 3.654571 1_455
Cs2 S17 3.457309 1_555
Cs2 S20 3.526393 1_555
Cs2 S9 3.567923 1_555
Cs2 S6 3.577052 1_565
Cs2 S12 3.579314 1_555
Cs2 S1 3.608397 1_565
Cs2 S4 3.620712 1_555
Cs2 S3 3.654571 1_555
Cs3 S16 3.457309 1_555
Cs3 S23 3.526393 1_556
Cs3 S8 3.567923 1_555
Cs3 S5 3.577052 1_556
Cs3 S15 3.579314 1_556
Cs3 S0 3.608397 1_555
Cs3 S7 3.620712 1_656
Cs3 S2 3.654571 1_655
Cs4 S23 3.457309 1_555
Cs4 S16 3.526393 1_555
Cs4 S15 3.567923 1_555
Cs4 S2 3.577052 1_655
Cs4 S8 3.579314 1_555
Cs4 S7 3.608397 1_655
Cs4 S0 3.620712 1_555
Cs4 S5 3.654571 1_555
Cs5 S22 3.457309 1_555
Cs5 S19 3.526393 1_554
Cs5 S14 3.567923 1_555
Cs5 S1 3.577052 1_554
Cs5 S11 3.579314 1_554
Cs5 S6 3.608397 1_555
Cs5 S3 3.620712 1_544
Cs5 S4 3.654571 1_545
Cs6 S21 3.457309 1_555
Cs6 S18 3.526393 1_555
Cs6 S13 3.567923 1_555
Cs6 S0 3.577052 1_455
Cs6 S10 3.579314 1_555
Cs6 S5 3.608397 1_455
Cs6 S2 3.620712 1_555
Cs6 S7 3.654571 1_555
Cs7 S20 3.457309 1_555
Cs7 S17 3.526393 1_554
Cs7 S12 3.567923 1_555
Cs7 S3 3.577052 1_554
Cs7 S9 3.579314 1_554
Cs7 S4 3.608397 1_555
Cs7 S1 3.620712 1_564
Cs7 S6 3.654571 1_565
Cu0 S18 2.286126 1_555
Cu0 S22 2.294802 1_555
Cu0 S11 2.402958 1_555
Cu1 S19 2.286126 1_455
Cu1 S21 2.294802 1_556
Cu1 S10 2.402958 1_555
Cu2 S16 2.286126 1_555
Cu2 S20 2.294802 1_555
Cu2 S9 2.402958 1_555
Cu3 S17 2.286126 1_655
Cu3 S23 2.294802 1_556
Cu3 S8 2.402958 1_555
Cu4 S22 2.286126 1_555
Cu4 S16 2.294802 1_555
Cu4 S15 2.402958 1_555
Cu5 S23 2.286126 1_545
Cu5 S19 2.294802 1_554
Cu5 S14 2.402958 1_555
Cu6 S20 2.286126 1_555
Cu6 S18 2.294802 1_555
Cu6 S13 2.402958 1_555
Cu7 S21 2.286126 1_565
Cu7 S17 2.294802 1_554
Cu7 S12 2.402958 1_555
Cu8 S19 2.311060 1_555
Cu8 S8 2.374784 1_545
Cu8 S14 2.402571 1_555
Cu9 S18 2.311060 1_555
Cu9 S9 2.374784 1_555
Cu9 S13 2.402571 1_556
Cu10 S17 2.311060 1_555
Cu10 S10 2.374784 1_565
Cu10 S12 2.402571 1_555
Cu11 S16 2.311060 1_555
Cu11 S11 2.374784 1_555
Cu11 S15 2.402571 1_556
Cu12 S23 2.311060 1_555
Cu12 S12 2.374784 1_655
Cu12 S8 2.402571 1_555
Cu13 S22 2.311060 1_555
Cu13 S13 2.374784 1_555
Cu13 S11 2.402571 1_554
Cu14 S21 2.311060 1_555
Cu14 S14 2.374784 1_455
Cu14 S10 2.402571 1_555
Cu15 S20 2.311060 1_555
Cu15 S15 2.374784 1_555
Cu15 S9 2.402571 1_554
Cu16 S16 2.303065 1_555
Cu16 S3 2.348113 1_555
Cu16 S4 2.412430 1_555
Cu17 S17 2.303065 1_555
Cu17 S2 2.348113 1_555
Cu17 S7 2.412430 1_556
Cu18 S18 2.303065 1_555
Cu18 S1 2.348113 1_555
Cu18 S6 2.412430 1_555
Cu19 S19 2.303065 1_555
Cu19 S0 2.348113 1_555
Cu19 S5 2.412430 1_556
Cu20 S20 2.303065 1_555
Cu20 S7 2.348113 1_555
Cu20 S2 2.412430 1_555
Cu21 S21 2.303065 1_555
Cu21 S6 2.348113 1_555
Cu21 S1 2.412430 1_554
Cu22 S22 2.303065 1_555
Cu22 S5 2.348113 1_555
Cu22 S0 2.412430 1_555
Cu23 S23 2.303065 1_555
Cu23 S4 2.348113 1_555
Cu23 S3 2.412430 1_554
Cu24 S0 2.211814 1_555
Cu24 S14 2.245280 1_555
Cu24 S10 2.813797 1_655
Cu25 S1 2.211814 1_555
Cu25 S13 2.245280 1_556
Cu25 S11 2.813797 1_555
Cu26 S2 2.211814 1_555
Cu26 S12 2.245280 1_555
Cu26 S8 2.813797 1_455
Cu27 S3 2.211814 1_555
Cu27 S15 2.245280 1_556
Cu27 S9 2.813797 1_555
Cu28 S4 2.211814 1_555
Cu28 S8 2.245280 1_555
Cu28 S14 2.813797 1_565
Cu29 S5 2.211814 1_555
Cu29 S11 2.245280 1_554
Cu29 S15 2.813797 1_555
Cu30 S6 2.211814 1_555
Cu30 S10 2.245280 1_555
Cu30 S12 2.813797 1_545
Cu31 S7 2.211814 1_555
Cu31 S9 2.245280 1_554
Cu31 S13 2.813797 1_555
Cu32 S0 2.235347 1_555
Cu32 S11 2.305003 1_555
Cu33 S1 2.235347 1_555
Cu33 S10 2.305003 1_555
Cu34 S2 2.235347 1_555
Cu34 S9 2.305003 1_555
Cu35 S3 2.235347 1_555
Cu35 S8 2.305003 1_555
Cu36 S4 2.235347 1_555
Cu36 S15 2.305003 1_555
Cu37 S5 2.235347 1_555
Cu37 S14 2.305003 1_555
Cu38 S6 2.235347 1_555
Cu38 S13 2.305003 1_555
Cu39 S7 2.235347 1_555
Cu39 S12 2.305003 1_555
