# generated using pymatgen
data_Te2As2SI6(OF6)2
_symmetry_space_group_name_H-M   'P 1'
_cell_length_a   14.30521100
_cell_length_b   14.43874349
_cell_length_c   14.61288198
_cell_angle_alpha   85.13097640
_cell_angle_beta   89.39973707
_cell_angle_gamma   83.90550993
_symmetry_Int_Tables_number   1
_chemical_formula_structural   Te2As2SI6(OF6)2
_chemical_formula_sum   'Te8 As8 S4 I24 O8 F48'
_cell_volume   2990.38761157
_cell_formula_units_Z   4
loop_
 _symmetry_equiv_pos_site_id
 _symmetry_equiv_pos_as_xyz
  1  'x, y, z'
loop_
 _atom_site_type_symbol
 _atom_site_label
 _atom_site_symmetry_multiplicity
 _atom_site_fract_x
 _atom_site_fract_y
 _atom_site_fract_z
 _atom_site_occupancy
  Te  Te0  1  0.66061700  0.29719500  0.19679500  1
  Te  Te1  1  0.58621500  0.20818000  0.77871300  1
  Te  Te2  1  0.07610500  0.22092300  0.61755400  1
  Te  Te3  1  0.06551600  0.24806900  0.40909300  1
  Te  Te4  1  0.84049400  0.80935700  0.36002900  1
  Te  Te5  1  0.89145300  0.70894600  0.52959500  1
  Te  Te6  1  0.44248100  0.68409500  0.13184200  1
  Te  Te7  1  0.43072200  0.75805800  0.93347800  1
  As  As0  1  0.49445500  0.03405300  0.99651400  1
  As  As1  1  0.34696700  0.29386500  0.47835400  1
  As  As2  1  0.84313500  0.14530900  0.01224800  1
  As  As3  1  0.06889900  0.52039300  0.39003200  1
  As  As4  1  0.35685400  0.48099700  0.00223500  1
  As  As5  1  0.16128300  0.76216000  0.91308000  1
  As  As6  1  0.62534400  0.66769500  0.53317700  1
  As  As7  1  0.93540800  0.96892500  0.55202000  1
  S  S0  1  0.30616000  0.10377300  0.12997600  1
  S  S1  1  0.73800800  0.30424800  0.48767800  1
  S  S2  1  0.27582200  0.79845600  0.49845500  1
  S  S3  1  0.76462000  0.66444200  0.94070000  1
  I  I0  1  0.15899400  0.04023300  0.16731200  1
  I  I1  1  0.11220600  0.11640600  0.80653600  1
  I  I2  1  0.74281700  0.13023700  0.69713200  1
  I  I3  1  0.70550300  0.17299100  0.39046100  1
  I  I4  1  0.40768400  0.09853900  0.26132500  1
  I  I5  1  0.34375000  0.16951100  0.69694300  1
  I  I6  1  0.92238400  0.35617200  0.74840100  1
  I  I7  1  0.87028800  0.41731800  0.15406200  1
  I  I8  1  0.16545700  0.38408700  0.19677800  1
  I  I9  1  0.17768000  0.38171000  0.91512800  1
  I  I10  1  0.56009000  0.43772300  0.27541800  1
  I  I11  1  0.57615700  0.38008000  0.68837300  1
  I  I12  1  0.40566400  0.62844600  0.31989000  1
  I  I13  1  0.29084700  0.63139800  0.67780900  1
  I  I14  1  0.81541200  0.61903800  0.09838800  1
  I  I15  1  0.86129100  0.58360200  0.83086000  1
  I  I16  1  0.05552500  0.65460700  0.77271500  1
  I  I17  1  0.06912500  0.69295600  0.18009100  1
  I  I18  1  0.60327900  0.90926400  0.32463400  1
  I  I19  1  0.59109400  0.91690000  0.63597400  1
  I  I20  1  0.22960200  0.88784300  0.35469800  1
  I  I21  1  0.30374300  0.91284500  0.60124200  1
  I  I22  1  0.91760400  0.95766400  0.16552400  1
  I  I23  1  0.98112000  0.99141400  0.89291300  1
  O  O0  1  0.20269200  0.20742700  0.71474500  1
  O  O1  1  0.74380000  0.39187200  0.42928100  1
  O  O2  1  0.11521100  0.62626000  0.28800300  1
  O  O3  1  0.18750600  0.70589000  0.74065400  1
  O  O4  1  0.69776000  0.80341500  0.35312800  1
  O  O5  1  0.63550700  0.79290900  0.64736800  1
  O  O6  1  0.86183100  0.06449200  0.92197600  1
  O  O7  1  0.82821700  0.06946800  0.11313700  1
  F  F0  1  0.63469200  0.90699900  0.19237800  1
  F  F1  1  0.58961100  0.93801700  0.76649300  1
  F  F2  1  0.45738600  0.22655400  0.47457900  1
  F  F3  1  0.95919800  0.16608600  0.60090200  1
  F  F4  1  0.01476500  0.13122000  0.40244200  1
  F  F5  1  0.51303200  0.14345100  0.67414700  1
  F  F6  1  0.19151600  0.17250200  0.40200600  1
  F  F7  1  0.13651300  0.10252400  0.58541800  1
  F  F8  1  0.46104100  0.15666500  0.98955600  1
  F  F9  1  0.91413200  0.28683200  0.20958500  1
  F  F10  1  0.90515000  0.22445900  0.80269500  1
  F  F11  1  0.59644300  0.04908800  0.92815400  1
  F  F12  1  0.07669800  0.41877200  0.48185300  1
  F  F13  1  0.35920900  0.35039200  0.36736700  1
  F  F14  1  0.38540500  0.38480800  0.53712400  1
  F  F15  1  0.93396700  0.29713400  0.43441500  1
  F  F16  1  0.63933700  0.35444000  0.07146800  1
  F  F17  1  0.66479300  0.24914700  0.87408200  1
  F  F18  1  0.15440400  0.32600100  0.07623600  1
  F  F19  1  0.38292200  0.37529800  0.07143200  1
  F  F20  1  0.43288800  0.44841200  0.91316100  1
  F  F21  1  0.96368900  0.16171500  0.02551700  1
  F  F22  1  0.17248500  0.44887600  0.34051600  1
  F  F23  1  0.19681600  0.42179400  0.78514100  1
  F  F24  1  0.93559300  0.50114300  0.70112400  1
  F  F25  1  0.84461600  0.68549200  0.30909700  1
  F  F26  1  0.06658200  0.78890100  0.99181600  1
  F  F27  1  0.44918000  0.53772700  0.06524800  1
  F  F28  1  0.53412500  0.67074300  0.90458900  1
  F  F29  1  0.11410800  0.60055300  0.09086100  1
  F  F30  1  0.31241400  0.66946200  0.11591600  1
  F  F31  1  0.35021100  0.65204400  0.91272100  1
  F  F32  1  0.13374200  0.58112700  0.46144500  1
  F  F33  1  0.63444400  0.58549500  0.44828300  1
  F  F34  1  0.66259900  0.58315400  0.62467200  1
  F  F35  1  0.91123200  0.58821400  0.47681900  1
  F  F36  1  0.24268600  0.82604600  0.97144200  1
  F  F37  1  0.00503900  0.81742400  0.24693700  1
  F  F38  1  0.12419300  0.86622700  0.84033400  1
  F  F39  1  0.52847000  0.83555800  0.97691300  1
  F  F40  1  0.80860800  0.92475300  0.43224600  1
  F  F41  1  0.87946100  0.86833800  0.60109500  1
  F  F42  1  0.57188300  0.91126900  0.46472600  1
  F  F43  1  0.01882900  0.95486100  0.64103200  1
  F  F44  1  0.00746500  0.90567700  0.47539800  1
  F  F45  1  0.50322200  0.65997500  0.55328200  1
  F  F46  1  0.41301800  0.81240100  0.15759200  1
  F  F47  1  0.42059800  0.01537500  0.90528300  1
loop_
_geom_bond_atom_site_label_1
_geom_bond_atom_site_label_2
_geom_bond_distance
_geom_bond_site_symmetry_2
As0 F47 1.765599 1_555
As0 F8 1.778702 1_555
As0 F11 1.781423 1_555
As1 F14 1.766003 1_555
As1 F2 1.767468 1_555
As1 F13 1.768296 1_555
As2 F21 1.780261 1_555
As2 O7 1.785258 1_555
As2 O6 1.833285 1_554
As3 F32 1.751219 1_555
As3 F22 1.888148 1_555
As3 F12 1.897332 1_555
As3 O2 2.192222 1_555
As4 F20 1.750508 1_554
As4 F19 1.765156 1_555
As4 F27 1.909557 1_555
As5 F26 1.799948 1_555
As5 F38 1.800201 1_555
As5 F36 1.821176 1_555
As6 F34 1.778027 1_555
As6 F45 1.782054 1_555
As6 F33 1.782779 1_555
As7 F43 1.758817 1_655
As7 F44 1.760589 1_655
As7 F41 1.822665 1_555
I0 S0 2.423318 1_555
I1 O0 2.286369 1_555
I2 Te1 2.709755 1_555
I3 S1 2.546392 1_555
I3 Te0 3.251064 1_555
I4 S0 2.410286 1_555
I5 O0 2.053721 1_555
I10 Te0 2.691948 1_555
I11 Te1 2.701072 1_555
I12 Te6 2.856362 1_555
I13 O3 1.996806 1_555
I14 S3 2.438217 1_554
I14 I7 2.981092 1_555
I15 S3 2.404141 1_555
I16 O3 2.133497 1_555
I17 O2 1.864896 1_555
I18 O4 1.949628 1_555
I19 O5 1.829359 1_555
I20 S2 2.429716 1_555
I21 S2 2.391077 1_555
I22 O7 2.049271 1_565
I23 O6 1.970853 1_565
O0 Te2 2.294826 1_555
O1 S1 1.474195 1_555
O4 Te4 2.056604 1_555
F0 I18 1.981796 1_555
F1 I19 1.956412 1_555
F3 Te2 1.950737 1_655
F4 Te3 1.916354 1_555
F5 Te1 2.188150 1_555
F5 I5 2.434679 1_555
F6 Te3 2.011899 1_555
F7 Te2 1.924545 1_555
F9 I7 2.025236 1_555
F10 I6 2.036247 1_555
F15 Te3 1.981651 1_655
F16 Te0 1.957325 1_555
F17 Te1 1.967115 1_555
F18 I8 2.028778 1_555
F18 I9 2.453438 1_554
F22 I8 2.378015 1_555
F23 I9 1.963178 1_555
F24 I6 2.174909 1_555
F24 I15 2.492722 1_555
F25 Te4 1.989629 1_555
F27 Te6 2.393044 1_555
F28 Te7 1.907078 1_555
F29 I17 1.997433 1_555
F30 Te6 1.913547 1_555
F31 Te7 2.054757 1_555
F35 Te5 1.957689 1_555
F37 I17 2.225716 1_555
F37 I22 2.482823 1_455
F39 Te7 2.020320 1_555
F40 Te4 2.055449 1_555
F41 Te5 2.595808 1_555
F42 I18 2.093180 1_555
F42 I19 2.529420 1_555
F46 Te6 1.923665 1_555
