# generated using pymatgen
data_NiSn3(ClO)6
_symmetry_space_group_name_H-M   'P 1'
_cell_length_a   8.28313108
_cell_length_b   5.87903746
_cell_length_c   10.70814171
_cell_angle_alpha   77.69670647
_cell_angle_beta   106.69971139
_cell_angle_gamma   134.14311499
_symmetry_Int_Tables_number   1
_chemical_formula_structural   NiSn3(ClO)6
_chemical_formula_sum   'Ni1 Sn3 Cl6 O6'
_cell_volume   358.34989203
_cell_formula_units_Z   1
loop_
 _symmetry_equiv_pos_site_id
 _symmetry_equiv_pos_as_xyz
  1  'x, y, z'
loop_
 _atom_site_type_symbol
 _atom_site_label
 _atom_site_symmetry_multiplicity
 _atom_site_fract_x
 _atom_site_fract_y
 _atom_site_fract_z
 _atom_site_occupancy
  Ni  Ni0  1  0.00000000  0.00000000  0.00000000  1
  Sn  Sn0  1  0.00000000  0.00000000  0.50000000  1
  Sn  Sn1  1  0.50000000  0.50000000  0.00000000  1
  Sn  Sn2  1  0.00000000  0.50000000  0.00000000  1
  Cl  Cl0  1  0.69863100  0.00089100  0.48919900  1
  Cl  Cl1  1  0.30136900  0.99910900  0.51080100  1
  Cl  Cl2  1  0.40005100  0.53684400  0.76552600  1
  Cl  Cl3  1  0.59994900  0.46315600  0.23447400  1
  Cl  Cl4  1  0.80468000  0.53398400  0.69825300  1
  Cl  Cl5  1  0.19532000  0.46601600  0.30174700  1
  O  O0  1  0.98495800  0.50995700  0.79978000  1
  O  O1  1  0.01504200  0.49004300  0.20022000  1
  O  O2  1  0.77667300  0.56455400  0.97871700  1
  O  O3  1  0.22332700  0.43544600  0.02128300  1
  O  O4  1  0.78417800  0.99943300  0.00482500  1
  O  O5  1  0.21582200  0.00056700  0.99517500  1
loop_
_geom_bond_atom_site_label_1
_geom_bond_atom_site_label_2
_geom_bond_distance
_geom_bond_site_symmetry_2
Ni0 O5 1.800888 1_554
Ni0 O4 1.800888 1_445
Ni0 O2 1.854070 1_444
Ni0 O3 1.854070 1_555
Cl0 Sn0 2.469178 1_655
Cl1 Sn0 2.469178 1_565
Cl2 Sn1 2.420687 1_556
Cl3 Sn1 2.420687 1_555
Cl4 O0 1.651389 1_555
Cl4 Sn0 2.819840 1_665
Cl5 O1 1.651389 1_555
Cl5 Sn0 2.819840 1_555
O0 Sn2 2.102087 1_656
O1 Sn2 2.102087 1_555
O2 Sn2 2.077652 1_656
O2 Sn1 2.121268 1_556
O3 Sn2 2.077652 1_555
O3 Sn1 2.121268 1_555
O4 Sn2 2.125846 1_665
O4 Sn1 2.128942 1_555
O5 Sn2 2.125846 1_546
O5 Sn1 2.128942 1_556
