# generated using pymatgen
data_CrB2(PbO2)6
_symmetry_space_group_name_H-M   'P 1'
_cell_length_a   6.57327100
_cell_length_b   11.94938900
_cell_length_c   18.60945600
_cell_angle_alpha   90.00000000
_cell_angle_beta   90.00000000
_cell_angle_gamma   90.00000000
_symmetry_Int_Tables_number   1
_chemical_formula_structural   CrB2(PbO2)6
_chemical_formula_sum   'Cr4 B8 Pb24 O48'
_cell_volume   1461.70897896
_cell_formula_units_Z   4
loop_
 _symmetry_equiv_pos_site_id
 _symmetry_equiv_pos_as_xyz
  1  'x, y, z'
loop_
 _atom_site_type_symbol
 _atom_site_label
 _atom_site_symmetry_multiplicity
 _atom_site_fract_x
 _atom_site_fract_y
 _atom_site_fract_z
 _atom_site_occupancy
  Cr  Cr0  1  0.74160700  0.25000000  0.00463800  1
  Cr  Cr1  1  0.24160700  0.25000000  0.49536200  1
  Cr  Cr2  1  0.25839300  0.75000000  0.99536200  1
  Cr  Cr3  1  0.75839300  0.75000000  0.50463800  1
  B  B0  1  0.54305300  0.49795600  0.74604900  1
  B  B1  1  0.04305300  0.00204400  0.75395100  1
  B  B2  1  0.45694700  0.99795600  0.25395100  1
  B  B3  1  0.95694700  0.50204400  0.24604900  1
  B  B4  1  0.45694700  0.50204400  0.25395100  1
  B  B5  1  0.95694700  0.99795600  0.24604900  1
  B  B6  1  0.54305300  0.00204400  0.74604900  1
  B  B7  1  0.04305300  0.49795600  0.75395100  1
  Pb  Pb0  1  0.70674300  0.09390600  0.39303700  1
  Pb  Pb1  1  0.20674300  0.40609400  0.10696300  1
  Pb  Pb2  1  0.29325700  0.59390600  0.60696300  1
  Pb  Pb3  1  0.79325700  0.90609400  0.89303700  1
  Pb  Pb4  1  0.29325700  0.90609400  0.60696300  1
  Pb  Pb5  1  0.79325700  0.59390600  0.89303700  1
  Pb  Pb6  1  0.70674300  0.40609400  0.39303700  1
  Pb  Pb7  1  0.20674300  0.09390600  0.10696300  1
  Pb  Pb8  1  0.18671400  0.59367200  0.39208300  1
  Pb  Pb9  1  0.68671400  0.90632800  0.10791700  1
  Pb  Pb10  1  0.81328600  0.09367200  0.60791700  1
  Pb  Pb11  1  0.31328600  0.40632800  0.89208300  1
  Pb  Pb12  1  0.81328600  0.40632800  0.60791700  1
  Pb  Pb13  1  0.31328600  0.09367200  0.89208300  1
  Pb  Pb14  1  0.18671400  0.90632800  0.39208300  1
  Pb  Pb15  1  0.68671400  0.59367200  0.10791700  1
  Pb  Pb16  1  0.85883900  0.25000000  0.79688400  1
  Pb  Pb17  1  0.35883900  0.25000000  0.70311600  1
  Pb  Pb18  1  0.14116100  0.75000000  0.20311600  1
  Pb  Pb19  1  0.64116100  0.75000000  0.29688400  1
  Pb  Pb20  1  0.76107300  0.25000000  0.20887800  1
  Pb  Pb21  1  0.26107300  0.25000000  0.29112200  1
  Pb  Pb22  1  0.23892700  0.75000000  0.79112200  1
  Pb  Pb23  1  0.73892700  0.75000000  0.70887800  1
  O  O0  1  0.60269900  0.59352900  0.78192100  1
  O  O1  1  0.10269900  0.90647100  0.71807900  1
  O  O2  1  0.39730100  0.09352900  0.21807900  1
  O  O3  1  0.89730100  0.40647100  0.28192100  1
  O  O4  1  0.39730100  0.40647100  0.21807900  1
  O  O5  1  0.89730100  0.09352900  0.28192100  1
  O  O6  1  0.60269900  0.90647100  0.78192100  1
  O  O7  1  0.10269900  0.59352900  0.71807900  1
  O  O8  1  0.54117000  0.49493600  0.67074500  1
  O  O9  1  0.04117000  0.00506400  0.82925500  1
  O  O10  1  0.45883000  0.99493600  0.32925500  1
  O  O11  1  0.95883000  0.50506400  0.17074500  1
  O  O12  1  0.45883000  0.50506400  0.32925500  1
  O  O13  1  0.95883000  0.99493600  0.17074500  1
  O  O14  1  0.54117000  0.00506400  0.67074500  1
  O  O15  1  0.04117000  0.49493600  0.82925500  1
  O  O16  1  0.48458400  0.40216100  0.78303700  1
  O  O17  1  0.98458400  0.09783900  0.71696300  1
  O  O18  1  0.51541600  0.90216100  0.21696300  1
  O  O19  1  0.01541600  0.59783900  0.28303700  1
  O  O20  1  0.51541600  0.59783900  0.21696300  1
  O  O21  1  0.01541600  0.90216100  0.28303700  1
  O  O22  1  0.48458400  0.09783900  0.78303700  1
  O  O23  1  0.98458400  0.40216100  0.71696300  1
  O  O24  1  0.59821900  0.25000000  0.34098500  1
  O  O25  1  0.09821900  0.25000000  0.15901500  1
  O  O26  1  0.40178100  0.75000000  0.65901500  1
  O  O27  1  0.90178100  0.75000000  0.84098500  1
  O  O28  1  0.82039200  0.75000000  0.14958400  1
  O  O29  1  0.32039200  0.75000000  0.35041600  1
  O  O30  1  0.17960800  0.25000000  0.85041600  1
  O  O31  1  0.67960800  0.25000000  0.64958400  1
  O  O32  1  0.62199500  0.25000000  0.92378100  1
  O  O33  1  0.12199500  0.25000000  0.57621900  1
  O  O34  1  0.37800500  0.75000000  0.07621900  1
  O  O35  1  0.87800500  0.75000000  0.42378100  1
  O  O36  1  0.56535000  0.25000000  0.06947900  1
  O  O37  1  0.06535000  0.25000000  0.43052100  1
  O  O38  1  0.43465000  0.75000000  0.93052100  1
  O  O39  1  0.93465000  0.75000000  0.56947900  1
  O  O40  1  0.61381500  0.63584500  0.51215300  1
  O  O41  1  0.11381500  0.86415500  0.98784700  1
  O  O42  1  0.38618500  0.13584500  0.48784700  1
  O  O43  1  0.88618500  0.36415500  0.01215300  1
  O  O44  1  0.38618500  0.36415500  0.48784700  1
  O  O45  1  0.88618500  0.13584500  0.01215300  1
  O  O46  1  0.61381500  0.86415500  0.51215300  1
  O  O47  1  0.11381500  0.63584500  0.98784700  1
loop_
_geom_bond_atom_site_label_1
_geom_bond_atom_site_label_2
_geom_bond_distance
_geom_bond_site_symmetry_2
Cr0 O45 1.668366 1_555
Cr0 O43 1.668366 1_555
Cr0 O36 1.672823 1_555
Cr0 O32 1.697738 1_554
Cr1 O42 1.668366 1_555
Cr1 O44 1.668366 1_555
Cr1 O37 1.672823 1_555
Cr1 O33 1.697738 1_555
Cr2 O47 1.668366 1_555
Cr2 O41 1.668366 1_555
Cr2 O38 1.672823 1_555
Cr2 O34 1.697738 1_556
Cr3 O40 1.668366 1_555
Cr3 O46 1.668366 1_555
Cr3 O39 1.672823 1_555
Cr3 O35 1.697738 1_555
B0 O0 1.379712 1_555
B0 O16 1.389901 1_555
B0 O8 1.401886 1_555
B1 O1 1.379712 1_545
B1 O17 1.389901 1_455
B1 O9 1.401886 1_555
B2 O2 1.379712 1_565
B2 O18 1.389901 1_555
B2 O10 1.401886 1_555
B3 O3 1.379712 1_555
B3 O19 1.389901 1_655
B3 O11 1.401886 1_555
B4 O4 1.379712 1_555
B4 O20 1.389901 1_555
B4 O12 1.401886 1_555
B5 O5 1.379712 1_565
B5 O21 1.389901 1_655
B5 O13 1.401886 1_555
B6 O6 1.379712 1_545
B6 O22 1.389901 1_555
B6 O14 1.401886 1_555
B7 O7 1.379712 1_555
B7 O23 1.389901 1_455
B7 O15 1.401886 1_555
O0 Pb5 2.417609 1_555
O0 Pb23 2.478997 1_555
O1 Pb4 2.417609 1_555
O1 Pb22 2.478997 1_555
O2 Pb7 2.417609 1_555
O2 Pb21 2.478997 1_555
O3 Pb6 2.417609 1_555
O3 Pb20 2.478997 1_555
O4 Pb1 2.417609 1_555
O4 Pb21 2.478997 1_555
O5 Pb0 2.417609 1_555
O5 Pb20 2.478997 1_555
O6 Pb3 2.417609 1_555
O6 Pb23 2.478997 1_555
O7 Pb2 2.417609 1_555
O7 Pb22 2.478997 1_555
O8 Pb2 2.337318 1_555
O8 Pb12 2.384852 1_555
O9 Pb3 2.337318 1_445
O9 Pb13 2.384852 1_555
O10 Pb0 2.337318 1_565
O10 Pb14 2.384852 1_555
O11 Pb1 2.337318 1_655
O11 Pb15 2.384852 1_555
O12 Pb6 2.337318 1_555
O12 Pb8 2.384852 1_555
O13 Pb7 2.337318 1_665
O13 Pb9 2.384852 1_555
O14 Pb4 2.337318 1_545
O14 Pb10 2.384852 1_555
O15 Pb5 2.337318 1_455
O15 Pb11 2.384852 1_555
O16 Pb11 2.321278 1_555
O16 Pb17 2.490217 1_555
O17 Pb10 2.321278 1_555
O17 Pb16 2.490217 1_555
O18 Pb9 2.321278 1_555
O18 Pb19 2.490217 1_555
O19 Pb8 2.321278 1_555
O19 Pb18 2.490217 1_555
O20 Pb15 2.321278 1_555
O20 Pb19 2.490217 1_555
O21 Pb14 2.321278 1_555
O21 Pb18 2.490217 1_555
O22 Pb13 2.321278 1_555
O22 Pb17 2.490217 1_555
O23 Pb12 2.321278 1_555
O23 Pb16 2.490217 1_555
O24 Pb6 2.219517 1_555
O24 Pb0 2.219517 1_555
O24 Pb21 2.402576 1_555
O24 Pb20 2.681391 1_555
O25 Pb7 2.219517 1_555
O25 Pb1 2.219517 1_555
O25 Pb20 2.402576 1_455
O25 Pb21 2.681391 1_555
O26 Pb2 2.219517 1_555
O26 Pb4 2.219517 1_555
O26 Pb23 2.402576 1_555
O26 Pb22 2.681391 1_555
O27 Pb5 2.219517 1_555
O27 Pb3 2.219517 1_555
O27 Pb22 2.402576 1_655
O27 Pb23 2.681391 1_555
O28 Pb9 2.205193 1_555
O28 Pb15 2.205193 1_555
O28 Pb18 2.331994 1_655
O29 Pb8 2.205193 1_555
O29 Pb14 2.205193 1_555
O29 Pb19 2.331994 1_555
O30 Pb13 2.205193 1_555
O30 Pb11 2.205193 1_555
O30 Pb16 2.331994 1_455
O31 Pb10 2.205193 1_555
O31 Pb12 2.205193 1_555
O31 Pb17 2.331994 1_555
O40 Pb2 2.793574 1_555
O41 Pb3 2.793574 1_455
O42 Pb0 2.793574 1_555
O43 Pb1 2.793574 1_655
O44 Pb6 2.793574 1_555
O45 Pb7 2.793574 1_655
O46 Pb4 2.793574 1_555
O47 Pb5 2.793574 1_455
