# generated using pymatgen
data_KNa3Al12H24(SO7)8
_symmetry_space_group_name_H-M   'P 1'
_cell_length_a   7.05387100
_cell_length_b   12.07637100
_cell_length_c   12.21795515
_cell_angle_alpha   70.29133654
_cell_angle_beta   90.00000000
_cell_angle_gamma   90.00000000
_symmetry_Int_Tables_number   1
_chemical_formula_structural   KNa3Al12H24(SO7)8
_chemical_formula_sum   'K1 Na3 Al12 H24 S8 O56'
_cell_volume   979.81865803
_cell_formula_units_Z   1
loop_
 _symmetry_equiv_pos_site_id
 _symmetry_equiv_pos_as_xyz
  1  'x, y, z'
loop_
 _atom_site_type_symbol
 _atom_site_label
 _atom_site_symmetry_multiplicity
 _atom_site_fract_x
 _atom_site_fract_y
 _atom_site_fract_z
 _atom_site_occupancy
  K  K0  1  0.50000000  0.00000000  0.50000000  1
  Na  Na0  1  0.00000000  0.00000000  0.00000000  1
  Na  Na1  1  0.50000000  0.50000000  0.00000000  1
  Na  Na2  1  0.00000000  0.50000000  0.50000000  1
  Al  Al0  1  0.75034500  0.74871000  0.50021300  1
  Al  Al1  1  0.24965500  0.25129000  0.49978700  1
  Al  Al2  1  0.75005000  0.25009100  0.99985700  1
  Al  Al3  1  0.24995000  0.74990900  0.00014300  1
  Al  Al4  1  0.00000000  0.74982700  0.24985200  1
  Al  Al5  1  0.50000000  0.25122800  0.24917100  1
  Al  Al6  1  0.00000000  0.25017300  0.75014800  1
  Al  Al7  1  0.50000000  0.74877200  0.75082900  1
  Al  Al8  1  0.75034500  0.25129000  0.49978700  1
  Al  Al9  1  0.24965500  0.74871000  0.50021300  1
  Al  Al10  1  0.75005000  0.74990900  0.00014300  1
  Al  Al11  1  0.24995000  0.25009100  0.99985700  1
  H  H0  1  0.70533700  0.16656400  0.84626500  1
  H  H1  1  0.20530200  0.16739600  0.34596500  1
  H  H2  1  0.70523100  0.66657300  0.34612700  1
  H  H3  1  0.20512400  0.66654800  0.84629200  1
  H  H4  1  0.29466300  0.16656400  0.84626500  1
  H  H5  1  0.79469800  0.16739600  0.34596500  1
  H  H6  1  0.29476900  0.66657300  0.34612700  1
  H  H7  1  0.79487600  0.66654800  0.84629200  1
  H  H8  1  0.50000000  0.16739600  0.64065000  1
  H  H9  1  0.00000000  0.16657300  0.14092800  1
  H  H10  1  0.50000000  0.66655900  0.14098000  1
  H  H11  1  0.00000000  0.66657200  0.64106200  1
  H  H12  1  0.29476900  0.33342700  0.65387300  1
  H  H13  1  0.79487600  0.33345200  0.15370800  1
  H  H14  1  0.29466300  0.83343600  0.15373500  1
  H  H15  1  0.79469800  0.83260400  0.65403500  1
  H  H16  1  0.70523100  0.33342700  0.65387300  1
  H  H17  1  0.20512400  0.33345200  0.15370800  1
  H  H18  1  0.70533700  0.83343600  0.15373500  1
  H  H19  1  0.20530200  0.83260400  0.65403500  1
  H  H20  1  0.50000000  0.33344100  0.85902000  1
  H  H21  1  0.00000000  0.33342800  0.35893800  1
  H  H22  1  0.50000000  0.83260400  0.35935000  1
  H  H23  1  0.00000000  0.83342700  0.85907200  1
  S  S0  1  0.50000000  0.54111900  0.65298700  1
  S  S1  1  0.00000000  0.54153800  0.15279600  1
  S  S2  1  0.50000000  0.04188000  0.15217600  1
  S  S3  1  0.00000000  0.04218000  0.65315500  1
  S  S4  1  0.50000000  0.95812000  0.84782400  1
  S  S5  1  0.00000000  0.95782000  0.34684500  1
  S  S6  1  0.50000000  0.45888100  0.34701300  1
  S  S7  1  0.00000000  0.45846200  0.84720400  1
  O  O0  1  0.81167900  0.20760600  0.86803000  1
  O  O1  1  0.31019100  0.21029800  0.36662500  1
  O  O2  1  0.81206800  0.70719500  0.36799200  1
  O  O3  1  0.31163900  0.70719500  0.86845400  1
  O  O4  1  0.18832100  0.20760600  0.86803000  1
  O  O5  1  0.68980900  0.21029800  0.36662500  1
  O  O6  1  0.18793200  0.70719500  0.36799200  1
  O  O7  1  0.68836100  0.70719500  0.86845400  1
  O  O8  1  0.50000000  0.21039600  0.55642400  1
  O  O9  1  0.00000000  0.20753000  0.05635500  1
  O  O10  1  0.50000000  0.70754600  0.05637300  1
  O  O11  1  0.00000000  0.70688700  0.55634400  1
  O  O12  1  0.18793200  0.29280500  0.63200800  1
  O  O13  1  0.68836100  0.29280500  0.13154600  1
  O  O14  1  0.18832100  0.79239400  0.13197000  1
  O  O15  1  0.68980900  0.78970200  0.63337500  1
  O  O16  1  0.81206800  0.29280500  0.63200800  1
  O  O17  1  0.31163900  0.29280500  0.13154600  1
  O  O18  1  0.81167900  0.79239400  0.13197000  1
  O  O19  1  0.31019100  0.78970200  0.63337500  1
  O  O20  1  0.50000000  0.29245400  0.94362700  1
  O  O21  1  0.00000000  0.29311300  0.44365600  1
  O  O22  1  0.50000000  0.78960400  0.44357600  1
  O  O23  1  0.00000000  0.79247000  0.94364500  1
  O  O24  1  0.67319000  0.91410600  0.92017700  1
  O  O25  1  0.17266000  0.91294400  0.41937900  1
  O  O26  1  0.67309700  0.41468200  0.41946200  1
  O  O27  1  0.17307100  0.41408900  0.91963400  1
  O  O28  1  0.32681000  0.91410600  0.92017700  1
  O  O29  1  0.82734000  0.91294400  0.41937900  1
  O  O30  1  0.32690300  0.41468200  0.41946200  1
  O  O31  1  0.82692900  0.41408900  0.91963400  1
  O  O32  1  0.50000000  0.91289000  0.74785400  1
  O  O33  1  0.00000000  0.91413200  0.24592700  1
  O  O34  1  0.50000000  0.41462100  0.24638400  1
  O  O35  1  0.00000000  0.41411400  0.74662800  1
  O  O36  1  0.32690300  0.58531800  0.58053800  1
  O  O37  1  0.82692900  0.58591100  0.08036600  1
  O  O38  1  0.32681000  0.08589400  0.07982300  1
  O  O39  1  0.82734000  0.08705600  0.58062100  1
  O  O40  1  0.67309700  0.58531800  0.58053800  1
  O  O41  1  0.17307100  0.58591100  0.08036600  1
  O  O42  1  0.67319000  0.08589400  0.07982300  1
  O  O43  1  0.17266000  0.08705600  0.58062100  1
  O  O44  1  0.50000000  0.58537900  0.75361600  1
  O  O45  1  0.00000000  0.58588600  0.25337200  1
  O  O46  1  0.50000000  0.08711000  0.25214600  1
  O  O47  1  0.00000000  0.08586800  0.75407300  1
  O  O48  1  0.50000000  0.41223000  0.69596800  1
  O  O49  1  0.00000000  0.41258600  0.19575900  1
  O  O50  1  0.50000000  0.91289700  0.19582500  1
  O  O51  1  0.00000000  0.91318700  0.69548100  1
  O  O52  1  0.50000000  0.08710300  0.80417500  1
  O  O53  1  0.00000000  0.08681300  0.30451900  1
  O  O54  1  0.50000000  0.58777000  0.30403200  1
  O  O55  1  0.00000000  0.58741400  0.80424100  1
loop_
_geom_bond_atom_site_label_1
_geom_bond_atom_site_label_2
_geom_bond_distance
_geom_bond_site_symmetry_2
K0 O25 2.847027 1_545
K0 O29 2.847027 1_545
K0 O39 2.847027 1_555
K0 O43 2.847027 1_555
K0 O15 2.847200 1_545
K0 O19 2.847200 1_545
K0 O1 2.847200 1_555
K0 O5 2.847200 1_555
K0 O8 2.848234 1_555
K0 O22 2.848234 1_545
K0 O46 2.851037 1_555
K0 O32 2.851037 1_545
Na0 O9 2.814085 1_555
Na0 O23 2.814085 1_544
Na0 O14 2.814887 1_545
Na0 O18 2.814887 1_445
Na0 O4 2.814887 1_554
Na0 O0 2.814887 1_454
Na0 O47 2.828806 1_554
Na0 O33 2.828806 1_545
Na0 O28 2.832622 1_544
Na0 O24 2.832622 1_444
Na0 O38 2.832622 1_555
Na0 O42 2.832622 1_455
Na1 O13 2.810149 1_555
Na1 O17 2.810149 1_555
Na1 O3 2.810149 1_554
Na1 O7 2.810149 1_554
Na1 O20 2.814393 1_554
Na1 O10 2.814393 1_555
Na1 O34 2.834008 1_555
Na1 O44 2.834008 1_554
Na1 O41 2.836513 1_555
Na1 O37 2.836513 1_555
Na1 O27 2.836513 1_554
Na1 O31 2.836513 1_554
Na2 O11 2.806456 1_555
Na2 O21 2.806456 1_555
Na2 O16 2.810259 1_455
Na2 O6 2.810259 1_555
Na2 O2 2.810259 1_455
Na2 O12 2.810259 1_555
Na2 O36 2.833902 1_555
Na2 O30 2.833902 1_555
Na2 O40 2.833902 1_455
Na2 O26 2.833902 1_455
Na2 O35 2.836848 1_555
Na2 O45 2.836848 1_555
Al0 O11 1.895532 1_655
Al0 O2 1.896556 1_555
Al0 O22 1.900171 1_555
Al0 O15 1.902012 1_555
Al0 O40 1.961480 1_555
Al0 O29 1.970505 1_555
Al1 O21 1.895532 1_555
Al1 O12 1.896556 1_555
Al1 O8 1.900171 1_555
Al1 O1 1.902012 1_555
Al1 O30 1.961480 1_555
Al1 O43 1.970505 1_555
Al2 O0 1.898368 1_555
Al2 O13 1.898421 1_556
Al2 O20 1.899400 1_555
Al2 O9 1.899987 1_656
Al2 O31 1.966694 1_555
Al2 O42 1.968179 1_556
Al3 O14 1.898368 1_555
Al3 O3 1.898421 1_554
Al3 O10 1.899400 1_555
Al3 O23 1.899987 1_554
Al3 O41 1.966694 1_555
Al3 O28 1.968179 1_554
Al4 O18 1.898396 1_455
Al4 O14 1.898396 1_555
Al4 O6 1.898595 1_555
Al4 O2 1.898595 1_455
Al4 O45 1.965726 1_555
Al4 O33 1.968554 1_555
Al5 O13 1.896352 1_555
Al5 O17 1.896352 1_555
Al5 O1 1.902073 1_555
Al5 O5 1.902073 1_555
Al5 O34 1.961973 1_555
Al5 O46 1.969989 1_555
Al6 O0 1.898396 1_455
Al6 O4 1.898396 1_555
Al6 O16 1.898595 1_455
Al6 O12 1.898595 1_555
Al6 O35 1.965726 1_555
Al6 O47 1.968554 1_555
Al7 O3 1.896352 1_555
Al7 O7 1.896352 1_555
Al7 O15 1.902073 1_555
Al7 O19 1.902073 1_555
Al7 O44 1.961973 1_555
Al7 O32 1.969989 1_555
Al8 O21 1.895532 1_655
Al8 O16 1.896556 1_555
Al8 O8 1.900171 1_555
Al8 O5 1.902012 1_555
Al8 O26 1.961480 1_555
Al8 O39 1.970505 1_555
Al9 O11 1.895532 1_555
Al9 O6 1.896556 1_555
Al9 O22 1.900171 1_555
Al9 O19 1.902012 1_555
Al9 O36 1.961480 1_555
Al9 O25 1.970505 1_555
Al10 O18 1.898368 1_555
Al10 O7 1.898421 1_554
Al10 O10 1.899400 1_555
Al10 O23 1.899987 1_654
Al10 O37 1.966694 1_555
Al10 O24 1.968179 1_554
Al11 O4 1.898368 1_555
Al11 O17 1.898421 1_556
Al11 O20 1.899400 1_555
Al11 O9 1.899987 1_556
Al11 O27 1.966694 1_555
Al11 O38 1.968179 1_556
H0 O0 0.983847 1_555
H1 O1 0.983751 1_555
H2 O2 0.984047 1_555
H3 O3 0.984091 1_555
H4 O4 0.983847 1_555
H5 O5 0.983751 1_555
H6 O6 0.984047 1_555
H7 O7 0.984091 1_555
H8 O8 0.983979 1_555
H9 O9 0.983694 1_555
H10 O10 0.984113 1_555
H11 O11 0.984139 1_555
H12 O12 0.984047 1_555
H13 O13 0.984091 1_555
H14 O14 0.983847 1_555
H15 O15 0.983751 1_555
H16 O16 0.984047 1_555
H17 O17 0.984091 1_555
H18 O18 0.983847 1_555
H19 O19 0.983751 1_555
H20 O20 0.984113 1_555
H21 O21 0.984139 1_555
H22 O22 0.983979 1_555
H23 O23 0.983694 1_555
O24 S4 1.496504 1_555
O25 S5 1.496154 1_555
O26 S6 1.496871 1_555
O27 S7 1.496944 1_555
O28 S4 1.496504 1_555
O29 S5 1.496154 1_655
O30 S6 1.496871 1_555
O31 S7 1.496944 1_655
O32 S4 1.496737 1_555
O33 S5 1.495806 1_555
O34 S6 1.496847 1_555
O35 S7 1.496911 1_555
O36 S0 1.496871 1_555
O37 S1 1.496944 1_655
O38 S2 1.496504 1_555
O39 S3 1.496154 1_655
O40 S0 1.496871 1_555
O41 S1 1.496944 1_555
O42 S2 1.496504 1_555
O43 S3 1.496154 1_555
O44 S0 1.496847 1_555
O45 S1 1.496911 1_555
O46 S2 1.496737 1_555
O47 S3 1.495806 1_555
O48 S0 1.465330 1_555
O49 S1 1.466047 1_555
O50 S2 1.466421 1_565
O51 S3 1.466536 1_565
O52 S4 1.466421 1_545
O53 S5 1.466536 1_545
O54 S6 1.465330 1_555
O55 S7 1.466047 1_555
