# generated using pymatgen
data_Ga2B3O8
_symmetry_space_group_name_H-M   'P 1'
_cell_length_a   6.48587919
_cell_length_b   6.48587919
_cell_length_c   10.78434400
_cell_angle_alpha   90.00000000
_cell_angle_beta   90.00000000
_cell_angle_gamma   108.85457950
_symmetry_Int_Tables_number   1
_chemical_formula_structural   Ga2B3O8
_chemical_formula_sum   'Ga8 B12 O32'
_cell_volume   429.31838351
_cell_formula_units_Z   4
loop_
 _symmetry_equiv_pos_site_id
 _symmetry_equiv_pos_as_xyz
  1  'x, y, z'
loop_
 _atom_site_type_symbol
 _atom_site_label
 _atom_site_symmetry_multiplicity
 _atom_site_fract_x
 _atom_site_fract_y
 _atom_site_fract_z
 _atom_site_occupancy
  Ga  Ga0  1  0.79350500  0.79350500  0.86846900  1
  Ga  Ga1  1  0.20649500  0.20649500  0.13153100  1
  Ga  Ga2  1  0.70649500  0.70649500  0.36846900  1
  Ga  Ga3  1  0.29350500  0.29350500  0.63153100  1
  Ga  Ga4  1  0.64750200  0.35249800  0.00000000  1
  Ga  Ga5  1  0.14750200  0.85249800  0.50000000  1
  Ga  Ga6  1  0.35249800  0.64750200  0.00000000  1
  Ga  Ga7  1  0.85249800  0.14750200  0.50000000  1
  B  B0  1  0.27564300  0.02623500  0.86694700  1
  B  B1  1  0.97376500  0.72435700  0.13305300  1
  B  B2  1  0.47376500  0.22435700  0.36694700  1
  B  B3  1  0.77564300  0.52623500  0.63305300  1
  B  B4  1  0.72435700  0.97376500  0.13305300  1
  B  B5  1  0.02623500  0.27564300  0.86694700  1
  B  B6  1  0.52623500  0.77564300  0.63305300  1
  B  B7  1  0.22435700  0.47376500  0.36694700  1
  B  B8  1  0.64873500  0.14873500  0.75000000  1
  B  B9  1  0.85126500  0.35126500  0.25000000  1
  B  B10  1  0.35126500  0.85126500  0.25000000  1
  B  B11  1  0.14873500  0.64873500  0.75000000  1
  O  O0  1  0.75737600  0.21370600  0.13935100  1
  O  O1  1  0.78629400  0.24262400  0.86064900  1
  O  O2  1  0.28629400  0.74262400  0.63935100  1
  O  O3  1  0.25737600  0.71370600  0.36064900  1
  O  O4  1  0.24262400  0.78629400  0.86064900  1
  O  O5  1  0.21370600  0.75737600  0.13935100  1
  O  O6  1  0.71370600  0.25737600  0.36064900  1
  O  O7  1  0.74262400  0.28629400  0.63935100  1
  O  O8  1  0.36711100  0.10894000  0.98750200  1
  O  O9  1  0.89106000  0.63288900  0.01249800  1
  O  O10  1  0.39106000  0.13288900  0.48750200  1
  O  O11  1  0.86711100  0.60894000  0.51249800  1
  O  O12  1  0.63288900  0.89106000  0.01249800  1
  O  O13  1  0.10894000  0.36711100  0.98750200  1
  O  O14  1  0.60894000  0.86711100  0.51249800  1
  O  O15  1  0.13288900  0.39106000  0.48750200  1
  O  O16  1  0.05514600  0.05514600  0.85479900  1
  O  O17  1  0.94485400  0.94485400  0.14520100  1
  O  O18  1  0.44485400  0.44485400  0.35479900  1
  O  O19  1  0.55514600  0.55514600  0.64520100  1
  O  O20  1  0.42046800  0.14765200  0.76519300  1
  O  O21  1  0.85234800  0.57953200  0.23480700  1
  O  O22  1  0.35234800  0.07953200  0.26519300  1
  O  O23  1  0.92046800  0.64765200  0.73480700  1
  O  O24  1  0.57953200  0.85234800  0.23480700  1
  O  O25  1  0.14765200  0.42046800  0.76519300  1
  O  O26  1  0.64765200  0.92046800  0.73480700  1
  O  O27  1  0.07953200  0.35234800  0.26519300  1
  O  O28  1  0.54070500  0.54070500  0.88833500  1
  O  O29  1  0.45929500  0.45929500  0.11166500  1
  O  O30  1  0.95929500  0.95929500  0.38833500  1
  O  O31  1  0.04070500  0.04070500  0.61166500  1
loop_
_geom_bond_atom_site_label_1
_geom_bond_atom_site_label_2
_geom_bond_distance
_geom_bond_site_symmetry_2
Ga0 O28 1.919655 1_555
Ga0 O16 1.979874 1_665
Ga0 O23 2.038203 1_555
Ga0 O26 2.038203 1_555
Ga0 O12 2.079470 1_556
Ga0 O9 2.079470 1_556
Ga1 O29 1.919655 1_555
Ga1 O17 1.979874 1_445
Ga1 O27 2.038203 1_555
Ga1 O22 2.038203 1_555
Ga1 O8 2.079470 1_554
Ga1 O13 2.079470 1_554
Ga2 O30 1.919655 1_555
Ga2 O18 1.979874 1_555
Ga2 O21 2.038203 1_555
Ga2 O24 2.038203 1_555
Ga2 O14 2.079470 1_555
Ga2 O11 2.079470 1_555
Ga3 O31 1.919655 1_555
Ga3 O19 1.979874 1_555
Ga3 O25 2.038203 1_555
Ga3 O20 2.038203 1_555
Ga3 O15 2.079470 1_555
Ga3 O10 2.079470 1_555
Ga4 O9 1.990989 1_555
Ga4 O8 1.990989 1_554
Ga4 O29 1.991621 1_555
Ga4 O28 1.991621 1_554
Ga4 O0 1.997809 1_555
Ga4 O1 1.997809 1_554
Ga5 O11 1.990989 1_455
Ga5 O10 1.990989 1_565
Ga5 O30 1.991621 1_455
Ga5 O31 1.991621 1_565
Ga5 O3 1.997809 1_555
Ga5 O2 1.997809 1_555
Ga6 O13 1.990989 1_554
Ga6 O12 1.990989 1_555
Ga6 O29 1.991621 1_555
Ga6 O28 1.991621 1_554
Ga6 O5 1.997809 1_555
Ga6 O4 1.997809 1_554
Ga7 O14 1.990989 1_545
Ga7 O15 1.990989 1_655
Ga7 O30 1.991621 1_545
Ga7 O31 1.991621 1_655
Ga7 O6 1.997809 1_555
Ga7 O7 1.997809 1_555
B0 O8 1.457492 1_555
B0 O20 1.492831 1_555
B0 O4 1.502303 1_545
B0 O16 1.506945 1_555
B1 O9 1.457492 1_555
B1 O21 1.492831 1_555
B1 O5 1.502303 1_655
B1 O17 1.506945 1_555
B2 O10 1.457492 1_555
B2 O22 1.492831 1_555
B2 O6 1.502303 1_555
B2 O18 1.506945 1_555
B3 O11 1.457492 1_555
B3 O23 1.492831 1_555
B3 O7 1.502303 1_555
B3 O19 1.506945 1_555
B4 O12 1.457492 1_555
B4 O24 1.492831 1_555
B4 O0 1.502303 1_565
B4 O17 1.506945 1_555
B5 O13 1.457492 1_555
B5 O25 1.492831 1_555
B5 O1 1.502303 1_455
B5 O16 1.506945 1_555
B6 O14 1.457492 1_555
B6 O26 1.492831 1_555
B6 O2 1.502303 1_555
B6 O19 1.506945 1_555
B7 O15 1.457492 1_555
B7 O27 1.492831 1_555
B7 O3 1.502303 1_555
B7 O18 1.506945 1_555
B8 O20 1.487310 1_555
B8 O26 1.487310 1_545
B8 O7 1.496524 1_555
B8 O1 1.496524 1_555
B9 O27 1.487310 1_655
B9 O21 1.487310 1_555
B9 O0 1.496524 1_555
B9 O6 1.496524 1_555
B10 O22 1.487310 1_565
B10 O24 1.487310 1_555
B10 O5 1.496524 1_555
B10 O3 1.496524 1_555
B11 O25 1.487310 1_555
B11 O23 1.487310 1_455
B11 O2 1.496524 1_555
B11 O4 1.496524 1_555
