# generated using pymatgen
data_NaGa6AgTe10
_symmetry_space_group_name_H-M   'P 1'
_cell_length_a   10.46144576
_cell_length_b   10.43214066
_cell_length_c   10.43208448
_cell_angle_alpha   90.28426882
_cell_angle_beta   89.56567448
_cell_angle_gamma   89.56537379
_symmetry_Int_Tables_number   1
_chemical_formula_structural   NaGa6AgTe10
_chemical_formula_sum   'Na2 Ga12 Ag2 Te20'
_cell_volume   1138.42858963
_cell_formula_units_Z   2
loop_
 _symmetry_equiv_pos_site_id
 _symmetry_equiv_pos_as_xyz
  1  'x, y, z'
loop_
 _atom_site_type_symbol
 _atom_site_label
 _atom_site_symmetry_multiplicity
 _atom_site_fract_x
 _atom_site_fract_y
 _atom_site_fract_z
 _atom_site_occupancy
  Na  Na0  1  0.49996852  0.50090556  0.49909882  1
  Na  Na1  1  0.99999549  0.76095227  0.23906949  1
  Ga  Ga0  1  0.12101390  0.57438313  0.84002017  1
  Ga  Ga1  1  0.42475682  0.84038283  0.87891506  1
  Ga  Ga2  1  0.15994483  0.87750100  0.57317431  1
  Ga  Ga3  1  0.57524142  0.12108277  0.15961492  1
  Ga  Ga4  1  0.84005242  0.42682638  0.12249940  1
  Ga  Ga5  1  0.87898195  0.15997793  0.42561701  1
  Ga  Ga6  1  0.83432224  0.33822758  0.74927698  1
  Ga  Ga7  1  0.66038722  0.74746719  0.16706736  1
  Ga  Ga8  1  0.25050971  0.16662391  0.33987987  1
  Ga  Ga9  1  0.33961053  0.83293071  0.25253110  1
  Ga  Ga10  1  0.74948705  0.66011794  0.83337414  1
  Ga  Ga11  1  0.16567483  0.25071806  0.66177234  1
  Ag  Ag0  1  0.30088488  0.30109735  0.99989573  1
  Ag  Ag1  1  0.69909538  0.00012569  0.69893168  1
  Te  Te0  1  0.17068046  0.82952179  0.82911131  1
  Te  Te1  1  0.82931735  0.17088764  0.17047732  1
  Te  Te2  1  0.92970554  0.56848092  0.67112022  1
  Te  Te3  1  0.43198434  0.67174679  0.07028093  1
  Te  Te4  1  0.32809494  0.07044926  0.56818395  1
  Te  Te5  1  0.56801332  0.92971831  0.32825290  1
  Te  Te6  1  0.67190244  0.43181554  0.92954889  1
  Te  Te7  1  0.07029190  0.32887790  0.43151783  1
  Te  Te8  1  0.31716470  0.42999895  0.75818550  1
  Te  Te9  1  0.57087302  0.75884758  0.68352814  1
  Te  Te10  1  0.24461153  0.68266469  0.43074505  1
  Te  Te11  1  0.42912303  0.31647017  0.24114737  1
  Te  Te12  1  0.75538201  0.56925168  0.31733675  1
  Te  Te13  1  0.68283218  0.24181165  0.57000029  1
  Te  Te14  1  0.17379650  0.00259727  0.16789544  1
  Te  Te15  1  0.99999884  0.17065760  0.82934179  1
  Te  Te16  1  0.82620304  0.83210252  0.99740234  1
  Te  Te17  1  0.08201707  0.49748935  0.07897355  1
  Te  Te18  1  0.49999837  0.08116466  0.91883351  1
  Te  Te19  1  0.91798122  0.92102646  0.50251255  1
loop_
_geom_bond_atom_site_label_1
_geom_bond_atom_site_label_2
_geom_bond_distance
_geom_bond_site_symmetry_2
Na0 Te10 3.347484 1_555
Na0 Te12 3.347960 1_555
Na0 Te8 3.387116 1_555
Na0 Te13 3.387515 1_555
Na0 Te11 3.390149 1_555
Na0 Te9 3.390183 1_555
Na1 Te14 3.206187 1_665
Na1 Te16 3.206242 1_554
Na1 Te19 3.312805 1_555
Na1 Te17 3.313114 1_655
Na1 Te10 3.357984 1_655
Na1 Te12 3.358087 1_555
Ga0 Te17 2.652029 1_556
Ga0 Te8 2.668734 1_555
Ga0 Te2 2.677324 1_455
Ga0 Te0 2.718520 1_555
Ga1 Te3 2.668546 1_556
Ga1 Te18 2.669658 1_565
Ga1 Te9 2.670309 1_555
Ga1 Te0 2.715271 1_555
Ga2 Te10 2.654486 1_555
Ga2 Te19 2.677902 1_455
Ga2 Te4 2.683674 1_565
Ga2 Te0 2.721904 1_555
Ga3 Te5 2.668551 1_545
Ga3 Te18 2.669643 1_554
Ga3 Te11 2.670320 1_555
Ga3 Te1 2.715272 1_555
Ga4 Te12 2.654481 1_555
Ga4 Te17 2.677924 1_655
Ga4 Te6 2.683676 1_554
Ga4 Te1 2.721933 1_555
Ga5 Te19 2.652028 1_545
Ga5 Te13 2.668717 1_555
Ga5 Te7 2.677349 1_655
Ga5 Te1 2.718510 1_555
Ga6 Te15 2.597699 1_555
Ga6 Te13 2.659230 1_555
Ga6 Te6 2.699106 1_555
Ga6 Te2 2.733809 1_555
Ga7 Te16 2.629374 1_554
Ga7 Te12 2.631742 1_555
Ga7 Te5 2.700352 1_555
Ga7 Te3 2.722148 1_555
Ga8 Te14 2.608310 1_555
Ga8 Te11 2.650872 1_555
Ga8 Te7 2.691037 1_555
Ga8 Te4 2.716341 1_555
Ga9 Te14 2.629369 1_565
Ga9 Te10 2.631730 1_555
Ga9 Te3 2.700333 1_555
Ga9 Te5 2.722158 1_555
Ga10 Te16 2.608332 1_555
Ga10 Te9 2.650852 1_555
Ga10 Te2 2.691037 1_555
Ga10 Te6 2.716338 1_555
Ga11 Te15 2.597681 1_455
Ga11 Te8 2.659256 1_555
Ga11 Te4 2.699089 1_555
Ga11 Te7 2.733812 1_555
Ag0 Te11 2.865311 1_556
Ag0 Te8 2.868111 1_555
Ag0 Te17 3.162926 1_556
Ag0 Te18 3.193703 1_555
Ag1 Te9 2.865512 1_545
Ag1 Te13 2.868032 1_555
Ag1 Te19 3.163298 1_545
Ag1 Te18 3.193297 1_555
