# generated using pymatgen
data_V2Zn3(GeO4)3
_symmetry_space_group_name_H-M   'P 1'
_cell_length_a   10.55075459
_cell_length_b   10.55075459
_cell_length_c   10.55075459
_cell_angle_alpha   109.47122063
_cell_angle_beta   109.47122063
_cell_angle_gamma   109.47122063
_symmetry_Int_Tables_number   1
_chemical_formula_structural   V2Zn3(GeO4)3
_chemical_formula_sum   'V8 Zn12 Ge12 O48'
_cell_volume   904.12540602
_cell_formula_units_Z   4
loop_
 _symmetry_equiv_pos_site_id
 _symmetry_equiv_pos_as_xyz
  1  'x, y, z'
loop_
 _atom_site_type_symbol
 _atom_site_label
 _atom_site_symmetry_multiplicity
 _atom_site_fract_x
 _atom_site_fract_y
 _atom_site_fract_z
 _atom_site_occupancy
  V  V0  1  0.50000000  0.50000000  0.50000000  1
  V  V1  1  0.50000000  0.00000000  0.50000000  1
  V  V2  1  0.00000000  0.50000000  0.50000000  1
  V  V3  1  0.50000000  0.50000000  0.00000000  1
  V  V4  1  0.00000000  0.00000000  0.50000000  1
  V  V5  1  0.00000000  0.50000000  0.00000000  1
  V  V6  1  0.50000000  0.00000000  0.00000000  1
  V  V7  1  0.00000000  0.00000000  0.00000000  1
  Zn  Zn0  1  0.25000000  0.87500000  0.62500000  1
  Zn  Zn1  1  0.75000000  0.62500000  0.87500000  1
  Zn  Zn2  1  0.62500000  0.87500000  0.75000000  1
  Zn  Zn3  1  0.87500000  0.62500000  0.25000000  1
  Zn  Zn4  1  0.62500000  0.25000000  0.87500000  1
  Zn  Zn5  1  0.87500000  0.75000000  0.62500000  1
  Zn  Zn6  1  0.75000000  0.12500000  0.37500000  1
  Zn  Zn7  1  0.25000000  0.37500000  0.12500000  1
  Zn  Zn8  1  0.37500000  0.12500000  0.25000000  1
  Zn  Zn9  1  0.12500000  0.37500000  0.75000000  1
  Zn  Zn10  1  0.37500000  0.75000000  0.12500000  1
  Zn  Zn11  1  0.12500000  0.25000000  0.37500000  1
  Ge  Ge0  1  0.12500000  0.75000000  0.87500000  1
  Ge  Ge1  1  0.87500000  0.25000000  0.12500000  1
  Ge  Ge2  1  0.62500000  0.37500000  0.25000000  1
  Ge  Ge3  1  0.75000000  0.87500000  0.12500000  1
  Ge  Ge4  1  0.87500000  0.12500000  0.75000000  1
  Ge  Ge5  1  0.25000000  0.62500000  0.37500000  1
  Ge  Ge6  1  0.75000000  0.37500000  0.62500000  1
  Ge  Ge7  1  0.25000000  0.12500000  0.87500000  1
  Ge  Ge8  1  0.12500000  0.87500000  0.25000000  1
  Ge  Ge9  1  0.37500000  0.62500000  0.75000000  1
  Ge  Ge10  1  0.62500000  0.75000000  0.37500000  1
  Ge  Ge11  1  0.37500000  0.25000000  0.62500000  1
  O  O0  1  0.41879000  0.81722900  0.79176400  1
  O  O1  1  0.87297500  0.39844000  0.08121000  1
  O  O2  1  0.10156000  0.97453500  0.68277100  1
  O  O3  1  0.52546500  0.62702500  0.70823600  1
  O  O4  1  0.68277100  0.08121000  0.70823600  1
  O  O5  1  0.62702500  0.70823600  0.52546500  1
  O  O6  1  0.62702500  0.41879000  0.10156000  1
  O  O7  1  0.70823600  0.52546500  0.62702500  1
  O  O8  1  0.81722900  0.52546500  0.39844000  1
  O  O9  1  0.97453500  0.79176400  0.87297500  1
  O  O10  1  0.79176400  0.87297500  0.97453500  1
  O  O11  1  0.70823600  0.68277100  0.08121000  1
  O  O12  1  0.41879000  0.10156000  0.62702500  1
  O  O13  1  0.39844000  0.81722900  0.52546500  1
  O  O14  1  0.08121000  0.70823600  0.68277100  1
  O  O15  1  0.10156000  0.62702500  0.41879000  1
  O  O16  1  0.52546500  0.39844000  0.81722900  1
  O  O17  1  0.08121000  0.87297500  0.39844000  1
  O  O18  1  0.97453500  0.68277100  0.10156000  1
  O  O19  1  0.18277100  0.47453500  0.60156000  1
  O  O20  1  0.68277100  0.10156000  0.97453500  1
  O  O21  1  0.79176400  0.41879000  0.81722900  1
  O  O22  1  0.39844000  0.08121000  0.87297500  1
  O  O23  1  0.87297500  0.97453500  0.79176400  1
  O  O24  1  0.58121000  0.18277100  0.20823600  1
  O  O25  1  0.12702500  0.60156000  0.91879000  1
  O  O26  1  0.89844000  0.02546500  0.31722900  1
  O  O27  1  0.47453500  0.37297500  0.29176400  1
  O  O28  1  0.31722900  0.91879000  0.29176400  1
  O  O29  1  0.37297500  0.29176400  0.47453500  1
  O  O30  1  0.37297500  0.58121000  0.89844000  1
  O  O31  1  0.29176400  0.47453500  0.37297500  1
  O  O32  1  0.12702500  0.02546500  0.20823600  1
  O  O33  1  0.60156000  0.91879000  0.12702500  1
  O  O34  1  0.20823600  0.58121000  0.18277100  1
  O  O35  1  0.18277100  0.20823600  0.58121000  1
  O  O36  1  0.31722900  0.89844000  0.02546500  1
  O  O37  1  0.02546500  0.31722900  0.89844000  1
  O  O38  1  0.91879000  0.12702500  0.60156000  1
  O  O39  1  0.47453500  0.60156000  0.18277100  1
  O  O40  1  0.89844000  0.37297500  0.58121000  1
  O  O41  1  0.91879000  0.29176400  0.31722900  1
  O  O42  1  0.60156000  0.18277100  0.47453500  1
  O  O43  1  0.58121000  0.89844000  0.37297500  1
  O  O44  1  0.29176400  0.31722900  0.91879000  1
  O  O45  1  0.20823600  0.12702500  0.02546500  1
  O  O46  1  0.02546500  0.20823600  0.12702500  1
  O  O47  1  0.81722900  0.79176400  0.41879000  1
loop_
_geom_bond_atom_site_label_1
_geom_bond_atom_site_label_2
_geom_bond_distance
_geom_bond_site_symmetry_2
Ge0 O14 1.779002 1_555
Ge0 O36 1.779004 1_556
Ge0 O9 1.779004 1_455
Ge0 O25 1.779010 1_555
Ge1 O41 1.779002 1_555
Ge1 O46 1.779004 1_655
Ge1 O20 1.779004 1_554
Ge1 O1 1.779010 1_555
Ge2 O24 1.779002 1_555
Ge2 O27 1.779004 1_555
Ge2 O8 1.779004 1_555
Ge2 O6 1.779010 1_555
Ge3 O11 1.779002 1_555
Ge3 O26 1.779004 1_565
Ge3 O10 1.779004 1_554
Ge3 O33 1.779010 1_555
Ge4 O4 1.779002 1_555
Ge4 O37 1.779004 1_655
Ge4 O23 1.779004 1_545
Ge4 O38 1.779010 1_555
Ge5 O34 1.779002 1_555
Ge5 O31 1.779004 1_555
Ge5 O13 1.779004 1_555
Ge5 O15 1.779010 1_555
Ge6 O21 1.779002 1_555
Ge6 O42 1.779004 1_555
Ge6 O7 1.779004 1_555
Ge6 O40 1.779010 1_555
Ge7 O44 1.779002 1_555
Ge7 O45 1.779004 1_556
Ge7 O2 1.779004 1_545
Ge7 O22 1.779010 1_555
Ge8 O28 1.779002 1_555
Ge8 O32 1.779004 1_565
Ge8 O18 1.779004 1_455
Ge8 O17 1.779010 1_555
Ge9 O0 1.779002 1_555
Ge9 O19 1.779004 1_555
Ge9 O3 1.779004 1_555
Ge9 O30 1.779010 1_555
Ge10 O47 1.779002 1_555
Ge10 O39 1.779004 1_555
Ge10 O5 1.779004 1_555
Ge10 O43 1.779010 1_555
Ge11 O35 1.779002 1_555
Ge11 O29 1.779004 1_555
Ge11 O16 1.779004 1_555
Ge11 O12 1.779010 1_555
O0 V6 2.024547 1_566
O0 Zn2 2.287647 1_555
O0 Zn0 2.447136 1_555
O1 V5 2.024536 1_655
O1 Zn4 2.287653 1_554
O1 Zn3 2.447135 1_555
O2 V4 2.024544 1_565
O2 Zn0 2.287657 1_555
O2 Zn5 2.447130 1_455
O3 V0 2.024544 1_555
O3 Zn2 2.287657 1_555
O3 Zn1 2.447130 1_555
O4 V1 2.024547 1_555
O4 Zn2 2.287647 1_545
O4 Zn4 2.447136 1_555
O5 V0 2.024544 1_555
O5 Zn5 2.287657 1_555
O5 Zn2 2.447130 1_555
O6 V3 2.024536 1_555
O6 Zn3 2.287653 1_555
O6 Zn4 2.447135 1_554
O7 V0 2.024544 1_555
O7 Zn1 2.287657 1_555
O7 Zn5 2.447130 1_555
O8 V2 2.024544 1_655
O8 Zn3 2.287657 1_555
O8 Zn5 2.447130 1_555
O9 V7 2.024544 1_666
O9 Zn5 2.287657 1_555
O9 Zn1 2.447130 1_555
O10 V7 2.024544 1_666
O10 Zn1 2.287657 1_555
O10 Zn2 2.447130 1_555
O11 V3 2.024547 1_555
O11 Zn1 2.287647 1_554
O11 Zn3 2.447136 1_555
O12 V1 2.024536 1_555
O12 Zn4 2.287653 1_555
O12 Zn0 2.447135 1_545
O13 V1 2.024544 1_565
O13 Zn0 2.287657 1_555
O13 Zn2 2.447130 1_555
O14 V2 2.024547 1_555
O14 Zn5 2.287647 1_455
O14 Zn0 2.447136 1_555
O15 V2 2.024536 1_555
O15 Zn0 2.287653 1_555
O15 Zn3 2.447135 1_455
O16 V3 2.024544 1_556
O16 Zn4 2.287657 1_555
O16 Zn1 2.447130 1_555
O17 V4 2.024536 1_565
O17 Zn3 2.287653 1_455
O17 Zn0 2.447135 1_555
O18 V5 2.024544 1_655
O18 Zn3 2.287657 1_555
O18 Zn1 2.447130 1_554
O19 V2 2.024544 1_555
O19 Zn9 2.287657 1_555
O19 Zn11 2.447130 1_555
O20 V6 2.024544 1_556
O20 Zn4 2.287657 1_555
O20 Zn2 2.447130 1_545
O21 V5 2.024547 1_656
O21 Zn1 2.287647 1_555
O21 Zn4 2.447136 1_555
O22 V6 2.024536 1_556
O22 Zn0 2.287653 1_545
O22 Zn4 2.447135 1_555
O23 V7 2.024544 1_666
O23 Zn2 2.287657 1_555
O23 Zn5 2.447130 1_555
O24 V6 2.024547 1_555
O24 Zn8 2.287647 1_555
O24 Zn6 2.447136 1_555
O25 V5 2.024536 1_556
O25 Zn10 2.287653 1_556
O25 Zn9 2.447135 1_555
O26 V4 2.024544 1_655
O26 Zn6 2.287657 1_555
O26 Zn11 2.447130 1_655
O27 V0 2.024544 1_555
O27 Zn8 2.287657 1_555
O27 Zn7 2.447130 1_555
O28 V1 2.024547 1_565
O28 Zn8 2.287647 1_565
O28 Zn10 2.447136 1_555
O29 V0 2.024544 1_555
O29 Zn11 2.287657 1_555
O29 Zn8 2.447130 1_555
O30 V3 2.024536 1_556
O30 Zn9 2.287653 1_555
O30 Zn10 2.447135 1_556
O31 V0 2.024544 1_555
O31 Zn7 2.287657 1_555
O31 Zn11 2.447130 1_555
O32 V7 2.024544 1_555
O32 Zn8 2.287657 1_555
O32 Zn11 2.447130 1_555
O33 V6 2.024536 1_565
O33 Zn6 2.287653 1_565
O33 Zn10 2.447135 1_555
O34 V5 2.024547 1_555
O34 Zn7 2.287647 1_555
O34 Zn10 2.447136 1_555
O35 V4 2.024547 1_555
O35 Zn11 2.287647 1_555
O35 Zn9 2.447136 1_555
O36 V6 2.024544 1_565
O36 Zn10 2.287657 1_555
O36 Zn8 2.447130 1_565
O37 V5 2.024544 1_556
O37 Zn9 2.287657 1_555
O37 Zn7 2.447130 1_556
O38 V4 2.024536 1_655
O38 Zn9 2.287653 1_655
O38 Zn6 2.447135 1_555
O39 V3 2.024544 1_555
O39 Zn10 2.287657 1_555
O39 Zn7 2.447130 1_555
O40 V2 2.024536 1_655
O40 Zn6 2.287653 1_555
O40 Zn9 2.447135 1_655
O41 V2 2.024547 1_655
O41 Zn11 2.287647 1_655
O41 Zn6 2.447136 1_555
O42 V1 2.024544 1_555
O42 Zn6 2.287657 1_555
O42 Zn8 2.447130 1_555
O43 V1 2.024536 1_565
O43 Zn10 2.287653 1_555
O43 Zn6 2.447135 1_565
O44 V3 2.024547 1_556
O44 Zn7 2.287647 1_556
O44 Zn9 2.447136 1_555
O45 V7 2.024544 1_555
O45 Zn7 2.287657 1_555
O45 Zn8 2.447130 1_555
O46 V7 2.024544 1_555
O46 Zn11 2.287657 1_555
O46 Zn7 2.447130 1_555
O47 V4 2.024547 1_665
O47 Zn5 2.287647 1_555
O47 Zn3 2.447136 1_555
