# generated using pymatgen
data_La4Fe(CoO4)3
_symmetry_space_group_name_H-M   'P 1'
_cell_length_a   5.46941700
_cell_length_b   5.54494140
_cell_length_c   7.88373830
_cell_angle_alpha   90.44726059
_cell_angle_beta   91.43887247
_cell_angle_gamma   90.18971390
_symmetry_Int_Tables_number   1
_chemical_formula_structural   La4Fe(CoO4)3
_chemical_formula_sum   'La4 Fe1 Co3 O12'
_cell_volume   239.01069196
_cell_formula_units_Z   1
loop_
 _symmetry_equiv_pos_site_id
 _symmetry_equiv_pos_as_xyz
  1  'x, y, z'
loop_
 _atom_site_type_symbol
 _atom_site_label
 _atom_site_symmetry_multiplicity
 _atom_site_fract_x
 _atom_site_fract_y
 _atom_site_fract_z
 _atom_site_occupancy
  La  La0  1  0.49511000  0.00086700  0.24575500  1
  La  La1  1  0.00389700  0.49765800  0.75587800  1
  La  La2  1  0.50489000  0.99913300  0.75424500  1
  La  La3  1  0.99610300  0.50234200  0.24412200  1
  Fe  Fe0  1  0.50000000  0.50000000  0.50000000  1
  Co  Co0  1  0.00000000  0.00000000  0.50000000  1
  Co  Co1  1  0.50000000  0.50000000  0.00000000  1
  Co  Co2  1  0.00000000  0.00000000  0.00000000  1
  O  O0  1  0.21319200  0.27488000  0.53273900  1
  O  O1  1  0.72367300  0.78924000  0.03141900  1
  O  O2  1  0.27653500  0.78895400  0.46871300  1
  O  O3  1  0.78904900  0.27241700  0.96625100  1
  O  O4  1  0.99786900  0.93223100  0.75707200  1
  O  O5  1  0.50021000  0.43854400  0.25251100  1
  O  O6  1  0.72346500  0.21104600  0.53128700  1
  O  O7  1  0.21095100  0.72758300  0.03374900  1
  O  O8  1  0.00213100  0.06776900  0.24292800  1
  O  O9  1  0.49979000  0.56145600  0.74748900  1
  O  O10  1  0.78680800  0.72512000  0.46726100  1
  O  O11  1  0.27632700  0.21076000  0.96858100  1
loop_
_geom_bond_atom_site_label_1
_geom_bond_atom_site_label_2
_geom_bond_distance
_geom_bond_site_symmetry_2
La0 O1 2.424858 1_545
La0 O5 2.427115 1_555
La0 O2 2.455205 1_545
La0 O7 2.705501 1_545
La0 O8 2.722485 1_555
La0 O11 2.734774 1_554
La0 O6 2.791707 1_555
La0 O8 2.797261 1_655
La0 O10 2.801905 1_545
La1 O4 2.409965 1_455
La1 O3 2.410792 1_455
La1 O0 2.451036 1_555
La1 O9 2.736570 1_555
La1 O11 2.737661 1_555
La1 O7 2.743929 1_556
La1 O9 2.780140 1_455
La1 O6 2.795866 1_455
La1 O10 2.845520 1_455
La2 O11 2.424858 1_565
La2 O9 2.427115 1_555
La2 O6 2.455205 1_565
La2 O3 2.705501 1_565
La2 O4 2.722485 1_555
La2 O1 2.734774 1_556
La2 O2 2.791707 1_555
La2 O4 2.797261 1_455
La2 O0 2.801905 1_565
La3 O8 2.409965 1_655
La3 O7 2.410792 1_655
La3 O10 2.451036 1_555
La3 O5 2.736570 1_555
La3 O1 2.737661 1_555
La3 O3 2.743929 1_554
La3 O5 2.780140 1_655
La3 O2 2.795866 1_655
La3 O0 2.845520 1_655
Fe0 O9 1.978080 1_555
Fe0 O5 1.978080 1_555
Fe0 O10 2.024338 1_555
Fe0 O0 2.024338 1_555
Fe0 O6 2.031211 1_555
Fe0 O2 2.031211 1_555
Co0 O0 1.927796 1_555
Co0 O10 1.927796 1_445
Co0 O2 1.934905 1_545
Co0 O6 1.934905 1_455
Co0 O8 2.064426 1_555
Co0 O4 2.064426 1_445
Co1 O5 2.022279 1_555
Co1 O9 2.022279 1_554
Co1 O11 2.023805 1_554
Co1 O1 2.023805 1_555
Co1 O3 2.047365 1_554
Co1 O7 2.047365 1_555
Co2 O7 1.919926 1_545
Co2 O3 1.919926 1_454
Co2 O11 1.929481 1_554
Co2 O1 1.929481 1_445
Co2 O8 1.948557 1_555
Co2 O4 1.948557 1_444
