# generated using pymatgen
data_CdPd
_symmetry_space_group_name_H-M   'P 1'
_cell_length_a   3.69349435
_cell_length_b   4.29533680
_cell_length_c   4.29533680
_cell_angle_alpha   90.00000000
_cell_angle_beta   90.00000000
_cell_angle_gamma   90.00000000
_symmetry_Int_Tables_number   1
_chemical_formula_structural   CdPd
_chemical_formula_sum   'Cd2 Pd2'
_cell_volume   68.14466872
_cell_formula_units_Z   2
loop_
 _symmetry_equiv_pos_site_id
 _symmetry_equiv_pos_as_xyz
  1  'x, y, z'
loop_
 _atom_site_type_symbol
 _atom_site_label
 _atom_site_symmetry_multiplicity
 _atom_site_fract_x
 _atom_site_fract_y
 _atom_site_fract_z
 _atom_site_occupancy
  Cd  Cd0  1  0.00000000  0.50000000  0.50000000  1
  Cd  Cd1  1  0.00000000  -0.00000000  -0.00000000  1
  Pd  Pd0  1  0.50000000  0.50000000  0.00000000  1
  Pd  Pd1  1  0.50000000  0.00000000  0.50000000  1
loop_
_geom_bond_atom_site_label_1
_geom_bond_atom_site_label_2
_geom_bond_distance
_geom_bond_site_symmetry_2
Cd0 Pd1 2.832482 1_455
Cd0 Pd1 2.832482 1_555
Cd0 Pd1 2.832482 1_565
Cd0 Pd0 2.832482 1_455
Cd0 Pd0 2.832482 1_456
Cd0 Pd0 2.832482 1_556
Cd0 Pd1 2.832482 1_465
Cd0 Pd0 2.832482 1_555
Cd0 Cd1 3.037262 1_555
Cd0 Cd1 3.037262 1_566
Cd0 Cd1 3.037262 1_556
Cd0 Cd1 3.037262 1_565
Cd1 Pd1 2.832482 1_455
Cd1 Pd1 2.832482 1_454
Cd1 Pd0 2.832482 1_445
Cd1 Pd1 2.832482 1_555
Cd1 Pd0 2.832482 1_545
Cd1 Pd0 2.832482 1_455
Cd1 Pd1 2.832482 1_554
Cd1 Pd0 2.832482 1_555
Pd0 Pd1 3.037262 1_565
Pd0 Pd1 3.037262 1_564
Pd0 Pd1 3.037262 1_554
Pd0 Pd1 3.037262 1_555
