# generated using pymatgen
data_Lu2Co17
_symmetry_space_group_name_H-M   'P 1'
_cell_length_a   8.23136954
_cell_length_b   8.23136954
_cell_length_c   8.06512400
_cell_angle_alpha   90.00000000
_cell_angle_beta   90.00000000
_cell_angle_gamma   119.99999633
_symmetry_Int_Tables_number   1
_chemical_formula_structural   Lu2Co17
_chemical_formula_sum   'Lu4 Co34'
_cell_volume   473.24484924
_cell_formula_units_Z   2
loop_
 _symmetry_equiv_pos_site_id
 _symmetry_equiv_pos_as_xyz
  1  'x, y, z'
loop_
 _atom_site_type_symbol
 _atom_site_label
 _atom_site_symmetry_multiplicity
 _atom_site_fract_x
 _atom_site_fract_y
 _atom_site_fract_z
 _atom_site_occupancy
  Lu  Lu0  1  0.00000000  0.00000000  0.25000000  1
  Lu  Lu1  1  0.00000000  0.00000000  0.75000000  1
  Lu  Lu2  1  0.33333300  0.66666700  0.75000000  1
  Lu  Lu3  1  0.66666700  0.33333300  0.25000000  1
  Co  Co0  1  0.33333300  0.66666700  0.39335100  1
  Co  Co1  1  0.66666700  0.33333300  0.60664900  1
  Co  Co2  1  0.66666700  0.33333300  0.89335100  1
  Co  Co3  1  0.33333300  0.66666700  0.10664900  1
  Co  Co4  1  0.50000000  0.50000000  0.50000000  1
  Co  Co5  1  0.50000000  0.00000000  0.50000000  1
  Co  Co6  1  0.00000000  0.50000000  0.50000000  1
  Co  Co7  1  0.50000000  0.50000000  0.00000000  1
  Co  Co8  1  0.50000000  0.00000000  0.00000000  1
  Co  Co9  1  0.00000000  0.50000000  0.00000000  1
  Co  Co10  1  0.32787900  0.37223700  0.25000000  1
  Co  Co11  1  0.62776300  0.95564100  0.25000000  1
  Co  Co12  1  0.04435900  0.67212100  0.25000000  1
  Co  Co13  1  0.62776300  0.67212100  0.25000000  1
  Co  Co14  1  0.04435900  0.37223700  0.25000000  1
  Co  Co15  1  0.32787900  0.95564100  0.25000000  1
  Co  Co16  1  0.67212100  0.62776300  0.75000000  1
  Co  Co17  1  0.37223700  0.04435900  0.75000000  1
  Co  Co18  1  0.95564100  0.32787900  0.75000000  1
  Co  Co19  1  0.37223700  0.32787900  0.75000000  1
  Co  Co20  1  0.95564100  0.62776300  0.75000000  1
  Co  Co21  1  0.67212100  0.04435900  0.75000000  1
  Co  Co22  1  0.16624800  0.83375200  0.52219800  1
  Co  Co23  1  0.16624800  0.33249500  0.52219800  1
  Co  Co24  1  0.66750500  0.83375200  0.52219800  1
  Co  Co25  1  0.83375200  0.16624800  0.47780200  1
  Co  Co26  1  0.83375200  0.66750500  0.47780200  1
  Co  Co27  1  0.33249500  0.16624800  0.47780200  1
  Co  Co28  1  0.83375200  0.16624800  0.02219800  1
  Co  Co29  1  0.83375200  0.66750500  0.02219800  1
  Co  Co30  1  0.33249500  0.16624800  0.02219800  1
  Co  Co31  1  0.16624800  0.83375200  0.97780200  1
  Co  Co32  1  0.16624800  0.33249500  0.97780200  1
  Co  Co33  1  0.66750500  0.83375200  0.97780200  1
loop_
_geom_bond_atom_site_label_1
_geom_bond_atom_site_label_2
_geom_bond_distance
_geom_bond_site_symmetry_2
Co0 Co3 2.312287 1_555
Co0 Co6 2.527076 1_555
Co0 Co5 2.527076 1_565
Co0 Co4 2.527082 1_555
Co0 Co22 2.598949 1_555
Co0 Co24 2.598962 1_555
Co0 Co23 2.598962 1_555
Co0 Co15 2.665231 1_555
Co0 Co12 2.665231 1_555
Co0 Co11 2.665238 1_555
Co0 Co14 2.665238 1_555
Co0 Co13 2.665246 1_555
Co0 Co10 2.665246 1_555
Co0 Lu2 2.876418 1_555
Co1 Co2 2.312287 1_555
Co1 Co5 2.527076 1_555
Co1 Co6 2.527076 1_655
Co1 Co4 2.527082 1_555
Co1 Co25 2.598949 1_555
Co1 Co27 2.598962 1_555
Co1 Co26 2.598962 1_555
Co1 Co18 2.665231 1_555
Co1 Co21 2.665231 1_555
Co1 Co20 2.665238 1_555
Co1 Co17 2.665238 1_555
Co1 Co19 2.665246 1_555
Co1 Co16 2.665246 1_555
Co1 Lu3 2.876418 1_555
Co2 Co8 2.527076 1_556
Co2 Co9 2.527076 1_656
Co2 Co7 2.527082 1_556
Co2 Co28 2.598949 1_556
Co2 Co29 2.598962 1_556
Co2 Co30 2.598962 1_556
Co2 Co21 2.665231 1_555
Co2 Co20 2.665238 1_555
Co2 Lu3 2.876418 1_556
Co3 Co9 2.527076 1_555
Co3 Co8 2.527076 1_565
Co3 Co7 2.527082 1_555
Co3 Co31 2.598949 1_554
Co3 Co32 2.598962 1_554
Co3 Co33 2.598962 1_554
Co3 Lu2 2.876418 1_554
Co4 Lu2 3.116360 1_555
Co4 Lu3 3.116360 1_555
Co5 Lu2 3.116354 1_545
Co5 Lu3 3.116354 1_555
Co6 Lu2 3.116354 1_555
Co6 Lu3 3.116354 1_455
Co7 Lu2 3.116360 1_554
Co7 Lu3 3.116360 1_555
Co8 Lu2 3.116354 1_544
Co8 Lu3 3.116354 1_555
Co9 Lu2 3.116354 1_554
Co9 Lu3 3.116354 1_455
Co10 Co14 2.333758 1_555
Co10 Co7 2.385099 1_555
Co10 Co4 2.385099 1_555
Co10 Co13 2.468456 1_555
Co10 Co23 2.502250 1_555
Co10 Co32 2.502250 1_554
Co10 Co30 2.513230 1_555
Co10 Co27 2.513230 1_555
Co10 Co3 2.665246 1_555
Co10 Lu0 2.898755 1_555
Co10 Lu3 2.961818 1_555
Co11 Co13 2.333758 1_555
Co11 Co5 2.385102 1_565
Co11 Co8 2.385102 1_565
Co11 Co15 2.468456 1_555
Co11 Co24 2.502250 1_555
Co11 Co33 2.502250 1_554
Co11 Co28 2.513236 1_565
Co11 Co25 2.513236 1_565
Co11 Co3 2.665238 1_555
Co11 Lu0 2.898752 1_665
Co11 Lu3 2.961818 1_565
Co12 Co15 2.333758 1_555
Co12 Co9 2.385098 1_555
Co12 Co6 2.385098 1_555
Co12 Co14 2.468456 1_555
Co12 Co22 2.502250 1_555
Co12 Co31 2.502250 1_554
Co12 Co29 2.513241 1_455
Co12 Co26 2.513241 1_455
Co12 Co3 2.665231 1_555
Co12 Lu0 2.898760 1_565
Co12 Lu3 2.961818 1_455
Co13 Co7 2.385099 1_555
Co13 Co4 2.385099 1_555
Co13 Co24 2.502250 1_555
Co13 Co33 2.502250 1_554
Co13 Co29 2.513230 1_555
Co13 Co26 2.513230 1_555
Co13 Co3 2.665246 1_555
Co13 Lu0 2.898755 1_665
Co13 Lu3 2.961818 1_555
Co14 Co6 2.385102 1_555
Co14 Co9 2.385102 1_555
Co14 Co23 2.502250 1_555
Co14 Co32 2.502250 1_554
Co14 Co25 2.513236 1_455
Co14 Co28 2.513236 1_455
Co14 Co3 2.665238 1_555
Co14 Lu0 2.898752 1_555
Co14 Lu3 2.961818 1_455
Co15 Co5 2.385098 1_565
Co15 Co8 2.385098 1_565
Co15 Co22 2.502250 1_555
Co15 Co31 2.502250 1_554
Co15 Co27 2.513241 1_565
Co15 Co30 2.513241 1_565
Co15 Co3 2.665231 1_555
Co15 Lu0 2.898760 1_565
Co15 Lu3 2.961818 1_565
Co16 Co20 2.333758 1_555
Co16 Co7 2.385099 1_556
Co16 Co4 2.385099 1_555
Co16 Co19 2.468456 1_555
Co16 Co29 2.502250 1_556
Co16 Co26 2.502250 1_555
Co16 Co33 2.513230 1_555
Co16 Co24 2.513230 1_555
Co16 Co2 2.665246 1_555
Co16 Lu1 2.898755 1_665
Co16 Lu2 2.961818 1_555
Co17 Co19 2.333758 1_555
Co17 Co8 2.385102 1_556
Co17 Co5 2.385102 1_555
Co17 Co21 2.468456 1_555
Co17 Co27 2.502250 1_555
Co17 Co30 2.502250 1_556
Co17 Co31 2.513236 1_545
Co17 Co22 2.513236 1_545
Co17 Co2 2.665238 1_555
Co17 Lu1 2.898752 1_555
Co17 Lu2 2.961818 1_545
Co18 Co21 2.333758 1_555
Co18 Co6 2.385098 1_655
Co18 Co9 2.385098 1_656
Co18 Co20 2.468456 1_555
Co18 Co28 2.502250 1_556
Co18 Co25 2.502250 1_555
Co18 Co32 2.513241 1_655
Co18 Co23 2.513241 1_655
Co18 Co2 2.665231 1_555
Co18 Lu1 2.898760 1_655
Co18 Lu2 2.961818 1_655
Co19 Co7 2.385099 1_556
Co19 Co4 2.385099 1_555
Co19 Co30 2.502250 1_556
Co19 Co27 2.502250 1_555
Co19 Co32 2.513230 1_555
Co19 Co23 2.513230 1_555
Co19 Co2 2.665246 1_555
Co19 Lu1 2.898755 1_555
Co19 Lu2 2.961818 1_555
Co20 Co6 2.385102 1_655
Co20 Co9 2.385102 1_656
Co20 Co29 2.502250 1_556
Co20 Co26 2.502250 1_555
Co20 Co31 2.513236 1_655
Co20 Co22 2.513236 1_655
Co20 Lu1 2.898752 1_665
Co20 Lu2 2.961818 1_655
Co21 Co8 2.385098 1_556
Co21 Co5 2.385098 1_555
Co21 Co28 2.502250 1_556
Co21 Co25 2.502250 1_555
Co21 Co33 2.513241 1_545
Co21 Co24 2.513241 1_545
Co21 Lu1 2.898760 1_655
Co21 Lu2 2.961818 1_545
Co22 Co6 2.385908 1_555
Co22 Co5 2.385908 1_565
Co22 Co26 2.397115 1_455
Co22 Co27 2.397115 1_565
Co22 Lu1 2.998908 1_565
Co22 Lu2 3.008348 1_555
Co22 Lu0 3.230688 1_565
Co23 Co4 2.385908 1_555
Co23 Co6 2.385915 1_555
Co23 Co27 2.397101 1_555
Co23 Co25 2.397115 1_455
Co23 Lu1 2.998902 1_555
Co23 Lu2 3.008360 1_555
Co23 Lu0 3.230683 1_555
Co24 Co4 2.385908 1_555
Co24 Co5 2.385915 1_565
Co24 Co26 2.397101 1_555
Co24 Co25 2.397115 1_565
Co24 Lu1 2.998902 1_665
Co24 Lu2 3.008360 1_555
Co24 Lu0 3.230683 1_665
Co25 Co5 2.385908 1_555
Co25 Co6 2.385908 1_655
Co25 Lu0 2.998908 1_655
Co25 Lu3 3.008348 1_555
Co25 Lu1 3.230688 1_655
Co26 Co4 2.385908 1_555
Co26 Co6 2.385915 1_655
Co26 Lu0 2.998902 1_665
Co26 Lu3 3.008360 1_555
Co26 Lu1 3.230683 1_665
Co27 Co4 2.385908 1_555
Co27 Co5 2.385915 1_555
Co27 Lu0 2.998902 1_555
Co27 Lu3 3.008360 1_555
Co27 Lu1 3.230683 1_555
Co28 Co8 2.385908 1_555
Co28 Co9 2.385908 1_655
Co28 Co33 2.397115 1_544
Co28 Co32 2.397115 1_654
Co28 Lu0 2.998908 1_655
Co28 Lu3 3.008348 1_555
Co28 Lu1 3.230688 1_654
Co29 Co7 2.385908 1_555
Co29 Co9 2.385915 1_655
Co29 Co33 2.397101 1_554
Co29 Co31 2.397115 1_654
Co29 Lu0 2.998902 1_665
Co29 Lu3 3.008360 1_555
Co29 Lu1 3.230683 1_664
Co30 Co7 2.385908 1_555
Co30 Co8 2.385915 1_555
Co30 Co32 2.397101 1_554
Co30 Co31 2.397115 1_544
Co30 Lu0 2.998902 1_555
Co30 Lu3 3.008360 1_555
Co30 Lu1 3.230683 1_554
Co31 Co9 2.385908 1_556
Co31 Co8 2.385908 1_566
Co31 Lu1 2.998908 1_565
Co31 Lu2 3.008348 1_555
Co31 Lu0 3.230688 1_566
Co32 Co7 2.385908 1_556
Co32 Co9 2.385915 1_556
Co32 Lu1 2.998902 1_555
Co32 Lu2 3.008360 1_555
Co32 Lu0 3.230683 1_556
Co33 Co7 2.385908 1_556
Co33 Co8 2.385915 1_566
Co33 Lu1 2.998902 1_665
Co33 Lu2 3.008360 1_555
Co33 Lu0 3.230683 1_666
