# generated using pymatgen
data_Sr3Fe2TeO9
_symmetry_space_group_name_H-M   'P 1'
_cell_length_a   5.64433705
_cell_length_b   5.64431513
_cell_length_c   6.94942028
_cell_angle_alpha   89.99991817
_cell_angle_beta   89.99997662
_cell_angle_gamma   119.99930793
_symmetry_Int_Tables_number   1
_chemical_formula_structural   Sr3Fe2TeO9
_chemical_formula_sum   'Sr3 Fe2 Te1 O9'
_cell_volume   191.73722133
_cell_formula_units_Z   1
loop_
 _symmetry_equiv_pos_site_id
 _symmetry_equiv_pos_as_xyz
  1  'x, y, z'
loop_
 _atom_site_type_symbol
 _atom_site_label
 _atom_site_symmetry_multiplicity
 _atom_site_fract_x
 _atom_site_fract_y
 _atom_site_fract_z
 _atom_site_occupancy
  Sr  Sr0  1  0.66665800  0.33333700  0.66664900  1
  Sr  Sr1  1  0.33333500  0.66666200  0.34548500  1
  Sr  Sr2  1  0.00000500  0.99999500  0.98780200  1
  Fe  Fe0  1  0.00000000  0.99999800  0.51622600  1
  Fe  Fe1  1  0.33332700  0.66667700  0.81719600  1
  Te  Te0  1  0.66667100  0.33333500  0.16667900  1
  O  O0  1  0.66661600  0.83331200  0.66669500  1
  O  O1  1  0.16669200  0.83330400  0.66668900  1
  O  O2  1  0.16669600  0.33338600  0.66669300  1
  O  O3  1  0.34131100  0.17065800  0.32755900  1
  O  O4  1  0.99198600  0.49598800  0.00573600  1
  O  O5  1  0.82933700  0.17065600  0.32755800  1
  O  O6  1  0.50400800  0.49599200  0.00573300  1
  O  O7  1  0.82934100  0.65868100  0.32755900  1
  O  O8  1  0.50401600  0.00801800  0.00574000  1
loop_
_geom_bond_atom_site_label_1
_geom_bond_atom_site_label_2
_geom_bond_distance
_geom_bond_site_symmetry_2
Fe0 O1 1.936241 1_555
Fe0 O0 1.936272 1_455
Fe0 O2 1.936278 1_565
Fe0 O3 2.121924 1_565
Fe0 O7 2.121946 1_455
Fe0 O5 2.121951 1_465
Fe1 O1 1.935896 1_555
Fe1 O0 1.936001 1_555
Fe1 O2 1.936014 1_555
Fe1 O4 2.121494 1_456
Fe1 O8 2.121510 1_566
Fe1 O6 2.121562 1_556
O0 Sr2 2.763230 1_655
O0 Sr1 2.763496 1_555
O0 Sr0 2.822135 1_555
O0 Sr0 2.822180 1_565
O1 Sr2 2.763219 1_555
O1 Sr1 2.763461 1_555
O1 Sr0 2.822190 1_565
O1 Sr0 2.822195 1_455
O2 Sr2 2.763239 1_545
O2 Sr1 2.763463 1_555
O2 Sr0 2.822092 1_555
O2 Sr0 2.822245 1_455
O3 Te0 1.944066 1_555
O3 Sr1 2.825129 1_555
O3 Sr1 2.825220 1_545
O3 Sr0 2.842925 1_555
O3 Sr2 2.891073 1_544
O4 Te0 1.944138 1_555
O4 Sr2 2.825166 1_654
O4 Sr2 2.825194 1_644
O4 Sr0 2.842856 1_554
O4 Sr1 2.891149 1_655
O5 Te0 1.943987 1_555
O5 Sr1 2.825199 1_545
O5 Sr1 2.825223 1_655
O5 Sr0 2.842955 1_555
O5 Sr2 2.891120 1_644
O6 Te0 1.944155 1_555
O6 Sr2 2.825213 1_654
O6 Sr2 2.825214 1_544
O6 Sr0 2.842764 1_554
O6 Sr1 2.891136 1_555
O7 Te0 1.944008 1_555
O7 Sr1 2.825166 1_555
O7 Sr1 2.825206 1_655
O7 Sr0 2.842909 1_555
O7 Sr2 2.891088 1_654
O8 Te0 1.944128 1_555
O8 Sr2 2.825190 1_544
O8 Sr2 2.825195 1_644
O8 Sr0 2.842847 1_554
O8 Sr1 2.891138 1_545
