# generated using pymatgen
data_TaNbCN
_symmetry_space_group_name_H-M   'P 1'
_cell_length_a   5.50394634
_cell_length_b   5.50394634
_cell_length_c   5.50394659
_cell_angle_alpha   33.41816395
_cell_angle_beta   33.41816395
_cell_angle_gamma   33.41815311
_symmetry_Int_Tables_number   1
_chemical_formula_structural   TaNbCN
_chemical_formula_sum   'Ta1 Nb1 C1 N1'
_cell_volume   45.03684624
_cell_formula_units_Z   1
loop_
 _symmetry_equiv_pos_site_id
 _symmetry_equiv_pos_as_xyz
  1  'x, y, z'
loop_
 _atom_site_type_symbol
 _atom_site_label
 _atom_site_symmetry_multiplicity
 _atom_site_fract_x
 _atom_site_fract_y
 _atom_site_fract_z
 _atom_site_occupancy
  Ta  Ta0  1  0.74409800  0.74409800  0.74409800  1
  Nb  Nb0  1  0.25754900  0.25754900  0.25754900  1
  C  C0  1  0.00228300  0.00228300  0.00228300  1
  N  N0  1  0.49606900  0.49606900  0.49606900  1
loop_
_geom_bond_atom_site_label_1
_geom_bond_atom_site_label_2
_geom_bond_distance
_geom_bond_site_symmetry_2
C0 Ta0 2.169989 1_544
C0 Ta0 2.169989 1_454
C0 Ta0 2.169989 1_445
C0 Nb0 2.194845 1_455
C0 Nb0 2.194845 1_545
C0 Nb0 2.194846 1_554
N0 Ta0 2.259240 1_455
N0 Ta0 2.259240 1_545
N0 Ta0 2.259241 1_554
N0 Nb0 2.349396 1_565
N0 Nb0 2.349396 1_655
N0 Nb0 2.349396 1_556
