# generated using pymatgen
data_NaMgBP2O11
_symmetry_space_group_name_H-M   'P 1'
_cell_length_a   9.98637488
_cell_length_b   9.98637488
_cell_length_c   14.92608872
_cell_angle_alpha   90.00000000
_cell_angle_beta   90.00000000
_cell_angle_gamma   119.99999564
_symmetry_Int_Tables_number   1
_chemical_formula_structural   NaMgBP2O11
_chemical_formula_sum   'Na6 Mg6 B6 P12 O66'
_cell_volume   1289.11719058
_cell_formula_units_Z   6
loop_
 _symmetry_equiv_pos_site_id
 _symmetry_equiv_pos_as_xyz
  1  'x, y, z'
loop_
 _atom_site_type_symbol
 _atom_site_label
 _atom_site_symmetry_multiplicity
 _atom_site_fract_x
 _atom_site_fract_y
 _atom_site_fract_z
 _atom_site_occupancy
  Na  Na0  1  0.74330164  0.25669836  0.75000000  1
  Na  Na1  1  0.51339672  0.25669836  0.41666700  1
  Na  Na2  1  0.25669836  0.74330164  0.25000000  1
  Na  Na3  1  0.48660328  0.74330164  0.91666700  1
  Na  Na4  1  0.74330164  0.48660328  0.08333300  1
  Na  Na5  1  0.25669836  0.51339672  0.58333300  1
  Mg  Mg0  1  0.48917675  0.51082325  0.75000000  1
  Mg  Mg1  1  0.02164651  0.51082325  0.41666700  1
  Mg  Mg2  1  0.51082325  0.48917675  0.25000000  1
  Mg  Mg3  1  0.97835349  0.48917675  0.91666700  1
  Mg  Mg4  1  0.48917675  0.97835349  0.08333300  1
  Mg  Mg5  1  0.51082325  0.02164651  0.58333300  1
  B  B0  1  0.15946388  0.84053612  0.75000000  1
  B  B1  1  0.68107224  0.84053612  0.41666700  1
  B  B2  1  0.84053612  0.15946388  0.25000000  1
  B  B3  1  0.31892776  0.15946388  0.91666700  1
  B  B4  1  0.15946388  0.31892776  0.08333300  1
  B  B5  1  0.84053612  0.68107224  0.58333300  1
  P  P0  1  0.61869852  0.77188503  0.59484509  1
  P  P1  1  0.15318651  0.38130148  0.26151209  1
  P  P2  1  0.38130148  0.22811497  0.09484509  1
  P  P3  1  0.84681349  0.22811497  0.07182191  1
  P  P4  1  0.22811497  0.84681349  0.92817809  1
  P  P5  1  0.84681349  0.61869852  0.76151209  1
  P  P6  1  0.77188503  0.61869852  0.40515491  1
  P  P7  1  0.15318651  0.77188503  0.57182191  1
  P  P8  1  0.77188503  0.15318651  0.42817809  1
  P  P9  1  0.22811497  0.38130148  0.90515491  1
  P  P10  1  0.38130148  0.15318651  0.73848791  1
  P  P11  1  0.61869852  0.84681349  0.23848791  1
  O  O0  1  0.37168414  0.50759082  0.85693541  1
  O  O1  1  0.13590668  0.62831586  0.52360241  1
  O  O2  1  0.62831586  0.49240918  0.35693541  1
  O  O3  1  0.86409332  0.49240918  0.80973159  1
  O  O4  1  0.49240918  0.86409332  0.19026841  1
  O  O5  1  0.86409332  0.37168414  0.02360241  1
  O  O6  1  0.50759082  0.37168414  0.14306459  1
  O  O7  1  0.13590668  0.50759082  0.30973159  1
  O  O8  1  0.50759082  0.13590668  0.69026841  1
  O  O9  1  0.49240918  0.62831586  0.64306459  1
  O  O10  1  0.62831586  0.13590668  0.47639759  1
  O  O11  1  0.37168414  0.86409332  0.97639759  1
  O  O12  1  0.78066590  0.78611412  0.60694203  1
  O  O13  1  0.00544821  0.21933410  0.27360903  1
  O  O14  1  0.21933410  0.21388588  0.10694203  1
  O  O15  1  0.99455179  0.21388588  0.05972497  1
  O  O16  1  0.21388588  0.99455179  0.94027503  1
  O  O17  1  0.99455179  0.78066590  0.77360903  1
  O  O18  1  0.78611412  0.78066590  0.39305797  1
  O  O19  1  0.00544821  0.78611412  0.55972497  1
  O  O20  1  0.78611412  0.00544821  0.44027503  1
  O  O21  1  0.21388588  0.21933410  0.89305797  1
  O  O22  1  0.21933410  0.00544821  0.72639097  1
  O  O23  1  0.78066590  0.99455179  0.22639097  1
  O  O24  1  0.57568263  0.75193810  0.49166617  1
  O  O25  1  0.17625547  0.42431737  0.15833317  1
  O  O26  1  0.42431737  0.24806190  0.99166617  1
  O  O27  1  0.82374453  0.24806190  0.17500083  1
  O  O28  1  0.24806190  0.82374453  0.82499917  1
  O  O29  1  0.82374453  0.57568263  0.65833317  1
  O  O30  1  0.75193810  0.57568263  0.50833383  1
  O  O31  1  0.17625547  0.75193810  0.67500083  1
  O  O32  1  0.75193810  0.17625547  0.32499917  1
  O  O33  1  0.24806190  0.42431737  0.00833383  1
  O  O34  1  0.42431737  0.17625547  0.84166683  1
  O  O35  1  0.57568263  0.82374453  0.34166683  1
  O  O36  1  0.62216302  0.91886587  0.62687929  1
  O  O37  1  0.29670285  0.37783698  0.29354629  1
  O  O38  1  0.37783698  0.08113413  0.12687929  1
  O  O39  1  0.70329715  0.08113413  0.03978771  1
  O  O40  1  0.08113413  0.70329715  0.96021229  1
  O  O41  1  0.70329715  0.62216302  0.79354629  1
  O  O42  1  0.91886587  0.62216302  0.37312071  1
  O  O43  1  0.29670285  0.91886587  0.53978771  1
  O  O44  1  0.91886587  0.29670285  0.46021229  1
  O  O45  1  0.08113413  0.37783698  0.87312071  1
  O  O46  1  0.37783698  0.29670285  0.70645371  1
  O  O47  1  0.62216302  0.70329715  0.20645371  1
  O  O48  1  0.78330343  0.78330343  -0.00000000  1
  O  O49  1  1.00000000  0.21669657  0.66666700  1
  O  O50  1  0.21669657  0.21669657  0.50000000  1
  O  O51  1  0.21669657  1.00000000  0.33333300  1
  O  O52  1  0.00000000  0.78330343  0.16666700  1
  O  O53  1  0.78330343  0.00000000  0.83333300  1
  O  O54  1  0.76902014  0.10949669  0.87136803  1
  O  O55  1  0.34047655  0.23097986  0.53803503  1
  O  O56  1  0.23097986  0.89050331  0.37136803  1
  O  O57  1  0.65952345  0.89050331  0.79529897  1
  O  O58  1  0.89050331  0.65952345  0.20470103  1
  O  O59  1  0.65952345  0.76902014  0.03803503  1
  O  O60  1  0.10949669  0.76902014  0.12863197  1
  O  O61  1  0.34047655  0.10949669  0.29529897  1
  O  O62  1  0.10949669  0.34047655  0.70470103  1
  O  O63  1  0.89050331  0.23097986  0.62863197  1
  O  O64  1  0.23097986  0.34047655  0.46196497  1
  O  O65  1  0.76902014  0.65952345  0.96196497  1
loop_
_geom_bond_atom_site_label_1
_geom_bond_atom_site_label_2
_geom_bond_distance
_geom_bond_site_symmetry_2
Na0 O8 2.225165 1_555
Na0 O3 2.225165 1_555
Na0 O54 2.426141 1_555
Na0 O63 2.426141 1_555
Na1 O10 2.225159 1_555
Na1 O2 2.225165 1_555
Na1 O55 2.426141 1_555
Na1 O61 2.426141 1_555
Na2 O7 2.225165 1_555
Na2 O4 2.225165 1_555
Na2 O60 2.426141 1_555
Na2 O56 2.426141 1_555
Na3 O11 2.225159 1_555
Na3 O0 2.225165 1_555
Na3 O59 2.426141 1_556
Na3 O57 2.426141 1_555
Na4 O5 2.225159 1_555
Na4 O6 2.225165 1_555
Na4 O65 2.426141 1_554
Na4 O58 2.426141 1_555
Na5 O1 2.225159 1_555
Na5 O9 2.225165 1_555
Na5 O64 2.426141 1_555
Na5 O62 2.426141 1_555
Mg0 O46 1.963033 1_555
Mg0 O41 1.963033 1_555
Mg0 O9 1.971670 1_555
Mg0 O0 1.971670 1_555
Mg1 O44 1.963028 1_455
Mg1 O42 1.963033 1_455
Mg1 O7 1.971670 1_555
Mg1 O1 1.971670 1_555
Mg2 O37 1.963033 1_555
Mg2 O47 1.963033 1_555
Mg2 O2 1.971670 1_555
Mg2 O6 1.971670 1_555
Mg3 O40 1.963028 1_655
Mg3 O45 1.963033 1_655
Mg3 O3 1.971670 1_555
Mg3 O5 1.971670 1_556
Mg4 O39 1.963028 1_565
Mg4 O38 1.963033 1_565
Mg4 O4 1.971670 1_555
Mg4 O11 1.971670 1_554
Mg5 O43 1.963028 1_545
Mg5 O36 1.963033 1_545
Mg5 O8 1.971670 1_555
Mg5 O10 1.971670 1_555
B0 O22 1.486337 1_565
B0 O17 1.486337 1_455
B0 O31 1.487435 1_555
B0 O28 1.487435 1_555
B1 O20 1.486333 1_565
B1 O18 1.486337 1_555
B1 O24 1.487435 1_555
B1 O35 1.487446 1_555
B2 O13 1.486337 1_655
B2 O23 1.486337 1_545
B2 O32 1.487435 1_555
B2 O27 1.487435 1_555
B3 O16 1.486333 1_545
B3 O21 1.486337 1_555
B3 O26 1.487435 1_555
B3 O34 1.487446 1_555
B4 O15 1.486333 1_455
B4 O14 1.486337 1_555
B4 O33 1.487435 1_555
B4 O25 1.487446 1_555
B5 O19 1.486333 1_655
B5 O12 1.486337 1_555
B5 O30 1.487435 1_555
B5 O29 1.487446 1_555
O0 P9 1.534919 1_555
O1 P7 1.534919 1_555
O2 P6 1.534919 1_555
O3 P5 1.534919 1_555
O4 P11 1.534919 1_555
O5 P3 1.534919 1_555
O6 P2 1.534919 1_555
O7 P1 1.534919 1_555
O8 P10 1.534919 1_555
O9 P0 1.534919 1_555
O10 P8 1.534919 1_555
O11 P4 1.534919 1_555
O12 P0 1.561780 1_555
O13 P1 1.561780 1_555
O14 P2 1.561780 1_555
O15 P3 1.561780 1_555
O16 P4 1.561780 1_555
O17 P5 1.561780 1_555
O18 P6 1.561780 1_555
O19 P7 1.561780 1_555
O20 P8 1.561780 1_555
O21 P9 1.561780 1_555
O22 P10 1.561780 1_555
O23 P11 1.561780 1_555
O24 P0 1.584431 1_555
O25 P1 1.584431 1_555
O26 P2 1.584431 1_556
O27 P3 1.584431 1_555
O28 P4 1.584431 1_555
O29 P5 1.584431 1_555
O30 P6 1.584431 1_555
O31 P7 1.584431 1_555
O32 P8 1.584431 1_555
O33 P9 1.584431 1_554
O34 P10 1.584431 1_555
O35 P11 1.584431 1_555
O36 P0 1.527577 1_555
O37 P1 1.527577 1_555
O38 P2 1.527577 1_555
O39 P3 1.527577 1_555
O40 P4 1.527577 1_555
O41 P5 1.527577 1_555
O42 P6 1.527577 1_555
O43 P7 1.527577 1_555
O44 P8 1.527577 1_555
O45 P9 1.527577 1_555
O46 P10 1.527577 1_555
O47 P11 1.527577 1_555
O48 O65 1.301654 1_554
O48 O59 1.301654 1_555
O49 O62 1.301648 1_655
O49 O63 1.301654 1_555
O50 O55 1.301654 1_555
O50 O64 1.301654 1_555
O51 O61 1.301648 1_565
O51 O56 1.301654 1_555
O52 O58 1.301648 1_455
O52 O60 1.301654 1_555
O53 O57 1.301648 1_545
O53 O54 1.301654 1_555
