# generated using pymatgen
data_Ba2CdN2
_symmetry_space_group_name_H-M   'P 1'
_cell_length_a   4.24101100
_cell_length_b   4.24018500
_cell_length_c   7.56739611
_cell_angle_alpha   106.26984340
_cell_angle_beta   106.27309298
_cell_angle_gamma   90.00000000
_symmetry_Int_Tables_number   1
_chemical_formula_structural   Ba2CdN2
_chemical_formula_sum   'Ba2 Cd1 N2'
_cell_volume   124.94288038
_cell_formula_units_Z   1
loop_
 _symmetry_equiv_pos_site_id
 _symmetry_equiv_pos_as_xyz
  1  'x, y, z'
loop_
 _atom_site_type_symbol
 _atom_site_label
 _atom_site_symmetry_multiplicity
 _atom_site_fract_x
 _atom_site_fract_y
 _atom_site_fract_z
 _atom_site_occupancy
  Ba  Ba0  1  0.83872300  0.83872300  0.17744600  1
  Ba  Ba1  1  0.16127700  0.16127700  0.82255400  1
  Cd  Cd0  1  0.50000000  0.50000000  0.50000000  1
  N  N0  1  0.35052400  0.35052400  0.20104800  1
  N  N1  1  0.64947600  0.64947600  0.79895200  1
loop_
_geom_bond_atom_site_label_1
_geom_bond_atom_site_label_2
_geom_bond_distance
_geom_bond_site_symmetry_2
Ba0 N1 2.629761 1_554
Ba0 N0 3.003036 1_565
Ba0 N0 3.003036 1_555
Ba0 N0 3.003036 1_665
Ba0 N0 3.003036 1_655
Ba1 N0 2.629761 1_556
Ba1 N1 3.003036 1_545
Ba1 N1 3.003036 1_555
Ba1 N1 3.003036 1_445
Ba1 N1 3.003036 1_455
Cd0 N0 2.077107 1_555
Cd0 N1 2.077107 1_555
