# generated using pymatgen
data_Sm2Ga2Co5
_symmetry_space_group_name_H-M   'P 1'
_cell_length_a   5.24852390
_cell_length_b   5.24852400
_cell_length_c   12.03740428
_cell_angle_alpha   77.40788344
_cell_angle_beta   77.40788493
_cell_angle_gamma   59.99999936
_symmetry_Int_Tables_number   1
_chemical_formula_structural   Sm2Ga2Co5
_chemical_formula_sum   'Sm4 Ga4 Co10'
_cell_volume   277.92124731
_cell_formula_units_Z   2
loop_
 _symmetry_equiv_pos_site_id
 _symmetry_equiv_pos_as_xyz
  1  'x, y, z'
loop_
 _atom_site_type_symbol
 _atom_site_label
 _atom_site_symmetry_multiplicity
 _atom_site_fract_x
 _atom_site_fract_y
 _atom_site_fract_z
 _atom_site_occupancy
  Sm  Sm0  1  0.95063900  0.95063900  0.14808400  1
  Sm  Sm1  1  0.04936100  0.04936100  0.85191600  1
  Sm  Sm2  1  0.85266600  0.85266600  0.44200300  1
  Sm  Sm3  1  0.14733400  0.14733400  0.55799700  1
  Ga  Ga0  1  0.72196900  0.72196900  0.83409200  1
  Ga  Ga1  1  0.27803100  0.27803100  0.16590800  1
  Ga  Ga2  1  0.61181200  0.61181200  0.16456500  1
  Ga  Ga3  1  0.38818800  0.38818800  0.83543500  1
  Co  Co0  1  0.50000000  0.50000000  0.50000000  1
  Co  Co1  1  0.00000000  0.50000000  0.00000000  1
  Co  Co2  1  0.50000000  0.00000000  0.00000000  1
  Co  Co3  1  0.50000000  0.50000000  0.00000000  1
  Co  Co4  1  0.39026100  0.39026100  0.33243900  1
  Co  Co5  1  0.88703900  0.39026100  0.33243900  1
  Co  Co6  1  0.39026100  0.88703900  0.33243900  1
  Co  Co7  1  0.60973900  0.60973900  0.66756100  1
  Co  Co8  1  0.11296100  0.60973900  0.66756100  1
  Co  Co9  1  0.60973900  0.11296100  0.66756100  1
loop_
_geom_bond_atom_site_label_1
_geom_bond_atom_site_label_2
_geom_bond_distance
_geom_bond_site_symmetry_2
Ga0 Sm1 3.037343 1_565
Ga0 Sm1 3.037343 1_655
Ga0 Sm1 3.037343 1_665
Ga1 Sm0 3.037343 1_545
Ga1 Sm0 3.037343 1_445
Ga1 Sm0 3.037343 1_455
Ga2 Sm0 3.036313 1_455
Ga2 Sm0 3.036313 1_545
Ga2 Sm0 3.036313 1_555
Ga3 Sm1 3.036313 1_655
Ga3 Sm1 3.036313 1_565
Ga3 Sm1 3.036313 1_555
Co0 Co9 2.465070 1_555
Co0 Co7 2.465070 1_555
Co0 Co4 2.465070 1_555
Co0 Co6 2.465070 1_555
Co0 Co8 2.465070 1_555
Co0 Co5 2.465070 1_555
Co0 Sm3 3.104646 1_655
Co0 Sm2 3.104646 1_455
Co0 Sm2 3.104646 1_545
Co0 Sm3 3.104646 1_565
Co0 Sm3 3.104651 1_555
Co0 Sm2 3.104651 1_555
Co1 Ga3 2.443565 1_554
Co1 Ga2 2.443565 1_455
Co1 Ga1 2.455861 1_555
Co1 Ga0 2.455861 1_454
Co1 Co3 2.624262 1_555
Co1 Co2 2.624262 1_555
Co1 Co3 2.624262 1_455
Co1 Co2 2.624262 1_465
Co1 Sm1 3.140518 1_564
Co1 Sm0 3.140518 1_445
Co1 Sm1 3.140522 1_554
Co1 Sm0 3.140522 1_455
Co2 Ga3 2.443565 1_554
Co2 Ga2 2.443565 1_545
Co2 Ga1 2.455861 1_555
Co2 Ga0 2.455861 1_544
Co2 Co3 2.624262 1_545
Co2 Co3 2.624262 1_555
Co2 Sm0 3.140518 1_445
Co2 Sm1 3.140518 1_654
Co2 Sm0 3.140522 1_545
Co2 Sm1 3.140522 1_554
Co3 Ga3 2.443568 1_554
Co3 Ga2 2.443568 1_555
Co3 Ga0 2.455859 1_554
Co3 Ga1 2.455859 1_555
Co3 Sm0 3.140520 1_545
Co3 Sm1 3.140520 1_564
Co3 Sm1 3.140520 1_654
Co3 Sm0 3.140520 1_455
Co4 Ga1 2.467596 1_555
Co4 Ga2 2.467961 1_555
Co4 Co5 2.607351 1_555
Co4 Co6 2.607351 1_555
Co4 Co5 2.641173 1_455
Co4 Co6 2.641173 1_545
Co4 Sm2 2.918223 1_545
Co4 Sm2 2.918223 1_455
Co4 Sm3 3.038101 1_555
Co4 Sm0 3.391079 1_455
Co4 Sm0 3.391080 1_545
Co5 Ga1 2.467599 1_655
Co5 Ga2 2.467958 1_555
Co5 Co6 2.607351 1_555
Co5 Co6 2.641173 1_645
Co5 Sm2 2.918221 1_545
Co5 Sm2 2.918226 1_555
Co5 Sm3 3.038098 1_655
Co5 Sm0 3.391078 1_545
Co5 Sm0 3.391082 1_555
Co6 Ga1 2.467599 1_565
Co6 Ga2 2.467958 1_555
Co6 Sm2 2.918221 1_455
Co6 Sm2 2.918226 1_555
Co6 Sm3 3.038098 1_565
Co6 Sm0 3.391077 1_455
Co6 Sm0 3.391082 1_555
Co7 Ga0 2.467596 1_555
Co7 Ga3 2.467961 1_555
Co7 Co8 2.607351 1_555
Co7 Co9 2.607351 1_555
Co7 Co8 2.641173 1_655
Co7 Co9 2.641173 1_565
Co7 Sm3 2.918223 1_565
Co7 Sm3 2.918223 1_655
Co7 Sm2 3.038101 1_555
Co7 Sm1 3.391079 1_655
Co7 Sm1 3.391080 1_565
Co8 Ga0 2.467599 1_455
Co8 Ga3 2.467958 1_555
Co8 Co9 2.607351 1_555
Co8 Co9 2.641173 1_465
Co8 Sm3 2.918221 1_565
Co8 Sm3 2.918226 1_555
Co8 Sm2 3.038098 1_455
Co8 Sm1 3.391078 1_565
Co8 Sm1 3.391082 1_555
Co9 Ga0 2.467599 1_545
Co9 Ga3 2.467958 1_555
Co9 Sm3 2.918221 1_655
Co9 Sm3 2.918226 1_555
Co9 Sm2 3.038098 1_545
Co9 Sm1 3.391077 1_655
Co9 Sm1 3.391082 1_555
