# generated using pymatgen
data_Al2Cd3N4
_symmetry_space_group_name_H-M   'P 1'
_cell_length_a   6.63705956
_cell_length_b   9.17256233
_cell_length_c   5.60980401
_cell_angle_alpha   90.00000349
_cell_angle_beta   92.51732933
_cell_angle_gamma   133.71018468
_symmetry_Int_Tables_number   1
_chemical_formula_structural   Al2Cd3N4
_chemical_formula_sum   'Al4 Cd6 N8'
_cell_volume   246.40848057
_cell_formula_units_Z   2
loop_
 _symmetry_equiv_pos_site_id
 _symmetry_equiv_pos_as_xyz
  1  'x, y, z'
loop_
 _atom_site_type_symbol
 _atom_site_label
 _atom_site_symmetry_multiplicity
 _atom_site_fract_x
 _atom_site_fract_y
 _atom_site_fract_z
 _atom_site_occupancy
  Al  Al0  1  0.54890400  0.16028900  0.59653300  1
  Al  Al1  1  0.45109600  0.61138600  0.90346700  1
  Al  Al2  1  0.45109600  0.83971100  0.40346700  1
  Al  Al3  1  0.54890400  0.38861400  0.09653300  1
  Cd  Cd0  1  0.22125500  0.94810000  0.06781000  1
  Cd  Cd1  1  0.77874500  0.72684500  0.43219000  1
  Cd  Cd2  1  0.77874500  0.05190000  0.93219000  1
  Cd  Cd3  1  0.22125500  0.27315500  0.56781000  1
  Cd  Cd4  1  0.00000000  0.60629000  0.75000000  1
  Cd  Cd5  1  0.00000000  0.39371000  0.25000000  1
  N  N0  1  0.22464500  0.89097700  0.49332800  1
  N  N1  1  0.77535500  0.66633200  0.00667200  1
  N  N2  1  0.77535500  0.10902300  0.50667200  1
  N  N3  1  0.22464500  0.33366800  0.99332800  1
  N  N4  1  0.60784400  0.24197600  0.92700100  1
  N  N5  1  0.39215600  0.63413100  0.57299900  1
  N  N6  1  0.39215600  0.75802400  0.07299900  1
  N  N7  1  0.60784400  0.36586900  0.42700100  1
loop_
_geom_bond_atom_site_label_1
_geom_bond_atom_site_label_2
_geom_bond_distance
_geom_bond_site_symmetry_2
Al0 N0 1.900620 1_545
Al0 N7 1.904356 1_555
Al0 N4 1.918973 1_555
Al0 N2 1.943571 1_555
Al1 N1 1.900625 1_556
Al1 N6 1.904340 1_556
Al1 N5 1.918969 1_555
Al1 N3 1.943578 1_555
Al2 N2 1.900620 1_565
Al2 N5 1.904356 1_555
Al2 N6 1.918973 1_555
Al2 N0 1.943571 1_555
Al3 N3 1.900625 1_554
Al3 N4 1.904340 1_554
Al3 N7 1.918969 1_555
Al3 N1 1.943578 1_555
Cd0 N1 2.212658 1_455
Cd0 N4 2.256773 1_564
Cd0 N0 2.446372 1_555
Cd0 N6 2.656569 1_555
Cd1 N0 2.212658 1_655
Cd1 N5 2.256769 1_555
Cd1 N1 2.446372 1_555
Cd1 N7 2.656561 1_555
Cd2 N3 2.212658 1_655
Cd2 N6 2.256773 1_546
Cd2 N2 2.446372 1_555
Cd2 N4 2.656569 1_555
Cd3 N2 2.212658 1_455
Cd3 N7 2.256769 1_555
Cd3 N3 2.446372 1_555
Cd3 N5 2.656561 1_555
Cd4 N1 2.433725 1_456
Cd4 N0 2.433725 1_555
Cd4 N7 2.563981 1_455
Cd4 N6 2.563982 1_556
Cd4 N4 2.670940 1_455
Cd4 N5 2.670945 1_555
Cd5 N3 2.433725 1_554
Cd5 N2 2.433725 1_455
Cd5 N5 2.563981 1_555
Cd5 N4 2.563982 1_454
Cd5 N6 2.670940 1_555
Cd5 N7 2.670945 1_455
