# generated using pymatgen
data_Pr2MnNiO6
_symmetry_space_group_name_H-M   'P 1'
_cell_length_a   5.58823600
_cell_length_b   5.47519900
_cell_length_c   9.51389385
_cell_angle_alpha   54.87853960
_cell_angle_beta   90.00000000
_cell_angle_gamma   90.00000000
_symmetry_Int_Tables_number   1
_chemical_formula_structural   Pr2MnNiO6
_chemical_formula_sum   'Pr4 Mn2 Ni2 O12'
_cell_volume   238.09559662
_cell_formula_units_Z   2
loop_
 _symmetry_equiv_pos_site_id
 _symmetry_equiv_pos_as_xyz
  1  'x, y, z'
loop_
 _atom_site_type_symbol
 _atom_site_label
 _atom_site_symmetry_multiplicity
 _atom_site_fract_x
 _atom_site_fract_y
 _atom_site_fract_z
 _atom_site_occupancy
  Pr  Pr0  1  0.45012900  0.23978100  0.74952900  1
  Pr  Pr1  1  0.54987100  0.76021900  0.25047100  1
  Pr  Pr2  1  0.95012900  0.76021900  0.75047100  1
  Pr  Pr3  1  0.04987100  0.23978100  0.24952900  1
  Mn  Mn0  1  0.00000000  0.00000000  0.00000000  1
  Mn  Mn1  1  0.50000000  0.00000000  0.50000000  1
  Ni  Ni0  1  0.00000000  0.50000000  0.50000000  1
  Ni  Ni1  1  0.50000000  0.50000000  0.00000000  1
  O  O0  1  0.01770700  0.32175700  0.75777400  1
  O  O1  1  0.98229300  0.67824300  0.24222600  1
  O  O2  1  0.51770700  0.67824300  0.74222600  1
  O  O3  1  0.48229300  0.32175700  0.25777400  1
  O  O4  1  0.71710500  0.84304900  0.95673500  1
  O  O5  1  0.28289500  0.15695100  0.04326500  1
  O  O6  1  0.21710500  0.15695100  0.54326500  1
  O  O7  1  0.78289500  0.84304900  0.45673500  1
  O  O8  1  0.20156200  0.75890500  0.95826000  1
  O  O9  1  0.79843800  0.24109500  0.04174000  1
  O  O10  1  0.70156200  0.24109500  0.54174000  1
  O  O11  1  0.29843800  0.75890500  0.45826000  1
loop_
_geom_bond_atom_site_label_1
_geom_bond_atom_site_label_2
_geom_bond_distance
_geom_bond_site_symmetry_2
Mn0 O1 1.937207 1_445
Mn0 O0 1.937207 1_554
Mn0 O8 1.942188 1_544
Mn0 O9 1.942188 1_455
Mn0 O4 1.952968 1_444
Mn0 O5 1.952968 1_555
Mn1 O3 1.937207 1_555
Mn1 O2 1.937207 1_545
Mn1 O11 1.942188 1_545
Mn1 O10 1.942188 1_555
Mn1 O6 1.952968 1_555
Mn1 O7 1.952968 1_545
Ni0 O0 2.054938 1_555
Ni0 O1 2.054938 1_455
Ni0 O6 2.068733 1_555
Ni0 O7 2.068733 1_455
Ni0 O10 2.073840 1_455
Ni0 O11 2.073840 1_555
Ni1 O2 2.054938 1_554
Ni1 O3 2.054938 1_555
Ni1 O5 2.068733 1_555
Ni1 O4 2.068733 1_554
Ni1 O9 2.073840 1_555
Ni1 O8 2.073840 1_554
O0 Pr2 2.391384 1_455
O0 Pr0 2.467281 1_555
O1 Pr3 2.391384 1_655
O1 Pr1 2.467281 1_555
O2 Pr0 2.391384 1_555
O2 Pr2 2.467281 1_555
O3 Pr1 2.391384 1_555
O3 Pr3 2.467281 1_555
O4 Pr0 2.429672 1_565
O4 Pr2 2.603132 1_555
O4 Pr1 2.725879 1_556
O5 Pr1 2.429672 1_545
O5 Pr3 2.603132 1_555
O5 Pr0 2.725879 1_554
O6 Pr2 2.429672 1_445
O6 Pr0 2.603132 1_555
O6 Pr3 2.725879 1_555
O7 Pr3 2.429672 1_665
O7 Pr1 2.603132 1_555
O7 Pr2 2.725879 1_555
O8 Pr2 2.421975 1_455
O8 Pr0 2.605592 1_565
O8 Pr3 2.722794 1_556
O9 Pr3 2.421975 1_655
O9 Pr1 2.605592 1_545
O9 Pr2 2.722794 1_554
O10 Pr0 2.421975 1_555
O10 Pr2 2.605592 1_545
O10 Pr1 2.722794 1_555
O11 Pr1 2.421975 1_555
O11 Pr3 2.605592 1_565
O11 Pr0 2.722794 1_555
