# generated using pymatgen
data_LiTi2P2O9
_symmetry_space_group_name_H-M   'P 1'
_cell_length_a   6.41052500
_cell_length_b   7.64232100
_cell_length_c   14.06062700
_cell_angle_alpha   90.00000000
_cell_angle_beta   90.00000000
_cell_angle_gamma   90.00000000
_symmetry_Int_Tables_number   1
_chemical_formula_structural   LiTi2P2O9
_chemical_formula_sum   'Li4 Ti8 P8 O36'
_cell_volume   688.84825253
_cell_formula_units_Z   4
loop_
 _symmetry_equiv_pos_site_id
 _symmetry_equiv_pos_as_xyz
  1  'x, y, z'
loop_
 _atom_site_type_symbol
 _atom_site_label
 _atom_site_symmetry_multiplicity
 _atom_site_fract_x
 _atom_site_fract_y
 _atom_site_fract_z
 _atom_site_occupancy
  Li  Li0  1  0.75000000  0.95230600  0.77361100  1
  Li  Li1  1  0.75000000  0.54769400  0.27361100  1
  Li  Li2  1  0.25000000  0.45230600  0.72638900  1
  Li  Li3  1  0.25000000  0.04769400  0.22638900  1
  Ti  Ti0  1  0.75000000  0.35312800  0.87954900  1
  Ti  Ti1  1  0.25000000  0.64687200  0.12045100  1
  Ti  Ti2  1  0.25000000  0.85312800  0.62045100  1
  Ti  Ti3  1  0.75000000  0.14687200  0.37954900  1
  Ti  Ti4  1  0.50000000  0.00000000  0.00000000  1
  Ti  Ti5  1  0.50000000  0.50000000  0.50000000  1
  Ti  Ti6  1  0.00000000  0.50000000  0.50000000  1
  Ti  Ti7  1  0.00000000  0.00000000  0.00000000  1
  P  P0  1  0.25000000  0.35822600  0.93197800  1
  P  P1  1  0.75000000  0.64177400  0.06802200  1
  P  P2  1  0.75000000  0.85822600  0.56802200  1
  P  P3  1  0.25000000  0.14177400  0.43197800  1
  P  P4  1  0.75000000  0.37704400  0.68995500  1
  P  P5  1  0.75000000  0.12295600  0.18995500  1
  P  P6  1  0.25000000  0.87704400  0.81004500  1
  P  P7  1  0.25000000  0.62295600  0.31004500  1
  O  O0  1  0.05031300  0.60813600  0.37259000  1
  O  O1  1  0.55031300  0.39186400  0.62741000  1
  O  O2  1  0.94968700  0.10813600  0.12741000  1
  O  O3  1  0.44968700  0.89186400  0.87259000  1
  O  O4  1  0.94968700  0.39186400  0.62741000  1
  O  O5  1  0.44968700  0.60813600  0.37259000  1
  O  O6  1  0.05031300  0.89186400  0.87259000  1
  O  O7  1  0.55031300  0.10813600  0.12741000  1
  O  O8  1  0.25000000  0.32977900  0.47822700  1
  O  O9  1  0.75000000  0.67022100  0.52177300  1
  O  O10  1  0.75000000  0.82977900  0.02177300  1
  O  O11  1  0.25000000  0.17022100  0.97822700  1
  O  O12  1  0.75000000  0.13317200  0.94146800  1
  O  O13  1  0.25000000  0.86682800  0.05853200  1
  O  O14  1  0.25000000  0.63317200  0.55853200  1
  O  O15  1  0.75000000  0.36682800  0.44146800  1
  O  O16  1  0.75000000  0.20713100  0.75071500  1
  O  O17  1  0.25000000  0.79286900  0.24928500  1
  O  O18  1  0.25000000  0.70713100  0.74928500  1
  O  O19  1  0.75000000  0.29286900  0.25071500  1
  O  O20  1  0.44111200  0.12537400  0.36709200  1
  O  O21  1  0.94111200  0.87462600  0.63290800  1
  O  O22  1  0.55888800  0.62537400  0.13290800  1
  O  O23  1  0.05888800  0.37462600  0.86709200  1
  O  O24  1  0.55888800  0.87462600  0.63290800  1
  O  O25  1  0.05888800  0.12537400  0.36709200  1
  O  O26  1  0.44111200  0.37462600  0.86709200  1
  O  O27  1  0.94111200  0.62537400  0.13290800  1
  O  O28  1  0.75000000  0.50570600  0.98819900  1
  O  O29  1  0.25000000  0.02094600  0.73218100  1
  O  O30  1  0.25000000  0.47905400  0.23218100  1
  O  O31  1  0.75000000  0.52094600  0.76781900  1
  O  O32  1  0.75000000  0.99429400  0.48819900  1
  O  O33  1  0.25000000  0.00570600  0.51180100  1
  O  O34  1  0.25000000  0.49429400  0.01180100  1
  O  O35  1  0.75000000  0.97905400  0.26781900  1
loop_
_geom_bond_atom_site_label_1
_geom_bond_atom_site_label_2
_geom_bond_distance
_geom_bond_site_symmetry_2
Li0 O16 1.973884 1_565
Li0 O24 2.401525 1_555
Li0 O21 2.401525 1_555
Li0 O3 2.420015 1_555
Li0 O6 2.420015 1_655
Li1 O19 1.973884 1_555
Li1 O27 2.401525 1_555
Li1 O22 2.401525 1_555
Li1 O5 2.420015 1_555
Li1 O0 2.420015 1_655
Li2 O18 1.973884 1_555
Li2 O23 2.401525 1_555
Li2 O26 2.401525 1_555
Li2 O1 2.420015 1_555
Li2 O4 2.420015 1_455
Li3 O17 1.973884 1_545
Li3 O25 2.401525 1_555
Li3 O20 2.401525 1_555
Li3 O7 2.420015 1_555
Li3 O2 2.420015 1_455
O0 P7 1.557197 1_555
O0 Ti6 1.999081 1_555
O1 P4 1.557197 1_555
O1 Ti5 1.999081 1_555
O2 P5 1.557197 1_555
O2 Ti7 1.999081 1_655
O3 P6 1.557197 1_555
O3 Ti4 1.999081 1_566
O4 P4 1.557197 1_555
O4 Ti6 1.999081 1_655
O5 P7 1.557197 1_555
O5 Ti5 1.999081 1_555
O6 P6 1.557197 1_555
O6 Ti7 1.999081 1_566
O7 P5 1.557197 1_555
O7 Ti4 1.999081 1_555
O8 P3 1.577104 1_555
O8 Ti6 2.086731 1_555
O8 Ti5 2.086731 1_555
O9 P2 1.577104 1_555
O9 Ti6 2.086731 1_655
O9 Ti5 2.086731 1_555
O10 P1 1.577104 1_555
O10 Ti4 2.086731 1_565
O10 Ti7 2.086731 1_665
O11 P0 1.577104 1_555
O11 Ti4 2.086731 1_556
O11 Ti7 2.086731 1_556
O12 Ti0 1.893054 1_555
O12 Ti4 2.069191 1_556
O12 Ti7 2.069191 1_656
O13 Ti1 1.893054 1_555
O13 Ti4 2.069191 1_565
O13 Ti7 2.069191 1_565
O14 Ti2 1.893054 1_555
O14 Ti6 2.069191 1_555
O14 Ti5 2.069191 1_555
O15 Ti3 1.893054 1_555
O15 Ti6 2.069191 1_655
O15 Ti5 2.069191 1_555
O16 P4 1.554364 1_555
O16 Ti0 2.127533 1_555
O17 P7 1.554364 1_555
O17 Ti1 2.127533 1_555
O18 P6 1.554364 1_555
O18 Ti2 2.127533 1_555
O19 P5 1.554364 1_555
O19 Ti3 2.127533 1_555
O20 P3 1.532647 1_555
O20 Ti3 1.994644 1_555
O21 P2 1.532647 1_555
O21 Ti2 1.994644 1_655
O22 P1 1.532647 1_555
O22 Ti1 1.994644 1_555
O23 P0 1.532647 1_555
O23 Ti0 1.994644 1_455
O24 P2 1.532647 1_555
O24 Ti2 1.994644 1_555
O25 P3 1.532647 1_555
O25 Ti3 1.994644 1_455
O26 P0 1.532647 1_555
O26 Ti0 1.994644 1_555
O27 P1 1.532647 1_555
O27 Ti1 1.994644 1_655
O28 P1 1.530044 1_556
O28 Ti0 1.921848 1_555
O29 P6 1.551794 1_545
O29 Ti2 2.028023 1_545
O30 P7 1.551794 1_555
O30 Ti1 2.028023 1_555
O31 P4 1.551794 1_555
O31 Ti0 2.028023 1_555
O32 P2 1.530044 1_555
O32 Ti3 1.921848 1_565
O33 P3 1.530044 1_555
O33 Ti2 1.921848 1_545
O34 P0 1.530044 1_554
O34 Ti1 1.921848 1_555
O35 P5 1.551794 1_565
O35 Ti3 2.028023 1_565
