# generated using pymatgen
data_Rb2BaBr4
_symmetry_space_group_name_H-M   'P 1'
_cell_length_a   8.72445123
_cell_length_b   8.72443771
_cell_length_c   8.72446568
_cell_angle_alpha   109.84770765
_cell_angle_beta   109.84780348
_cell_angle_gamma   108.72078244
_symmetry_Int_Tables_number   1
_chemical_formula_structural   Rb2BaBr4
_chemical_formula_sum   'Rb4 Ba2 Br8'
_cell_volume   511.13607034
_cell_formula_units_Z   2
loop_
 _symmetry_equiv_pos_site_id
 _symmetry_equiv_pos_as_xyz
  1  'x, y, z'
loop_
 _atom_site_type_symbol
 _atom_site_label
 _atom_site_symmetry_multiplicity
 _atom_site_fract_x
 _atom_site_fract_y
 _atom_site_fract_z
 _atom_site_occupancy
  Rb  Rb0  1  0.37499962  0.50842551  0.63342409  1
  Rb  Rb1  1  0.87499921  0.74157357  0.36657330  1
  Rb  Rb2  1  0.49157310  0.12499953  0.86657316  1
  Rb  Rb3  1  0.25842553  0.62500035  0.13342444  1
  Ba  Ba0  1  0.74999876  0.24999929  0.49999884  1
  Ba  Ba1  1  0.00000012  0.00000015  0.99999830  1
  Br  Br0  1  0.97276732  0.36193239  0.25031296  1
  Br  Br1  1  0.11160713  0.72244136  0.74968232  1
  Br  Br2  1  0.63838203  0.88806956  0.11082639  1
  Br  Br3  1  0.77723513  0.52755903  0.88917231  1
  Br  Br4  1  0.11193997  0.22276746  0.75032679  1
  Br  Br5  1  0.47244105  0.36160732  0.24968027  1
  Br  Br6  1  0.63807220  0.88838879  0.61083461  1
  Br  Br7  1  0.27755883  0.02723570  0.38917222  1
loop_
_geom_bond_atom_site_label_1
_geom_bond_atom_site_label_2
_geom_bond_distance
_geom_bond_site_symmetry_2
Ba0 Br5 3.308756 1_555
Ba0 Br2 3.308780 1_545
Ba0 Br3 3.308830 1_555
Ba0 Br4 3.308843 1_655
Ba0 Br1 3.546356 1_655
Ba0 Br7 3.546366 1_555
Ba0 Br6 3.546388 1_545
Ba0 Br0 3.546464 1_555
Ba1 Br6 3.308743 1_445
Ba1 Br1 3.308745 1_545
Ba1 Br0 3.308747 1_456
Ba1 Br7 3.308832 1_556
Ba1 Br5 3.546349 1_556
Ba1 Br4 3.546360 1_555
Ba1 Br3 3.546373 1_445
Ba1 Br2 3.546410 1_446
Br0 Rb0 3.372771 1_655
Br0 Rb3 3.487422 1_655
Br0 Rb1 3.584202 1_555
Br0 Rb2 3.645835 1_554
Br1 Rb1 3.372788 1_455
Br1 Rb2 3.487514 1_565
Br1 Rb0 3.584222 1_555
Br1 Rb3 3.645790 1_556
Br2 Rb1 3.372825 1_555
Br2 Rb3 3.487466 1_555
Br2 Rb0 3.584176 1_554
Br2 Rb2 3.645771 1_564
Br3 Rb0 3.372760 1_555
Br3 Rb2 3.487474 1_555
Br3 Rb1 3.584151 1_556
Br3 Rb3 3.645834 1_656
Br4 Rb3 3.372733 1_556
Br4 Rb0 3.487476 1_555
Br4 Rb2 3.584133 1_555
Br4 Rb1 3.645863 1_445
Br5 Rb2 3.372777 1_554
Br5 Rb1 3.487509 1_555
Br5 Rb3 3.584214 1_555
Br5 Rb0 3.645809 1_555
Br6 Rb2 3.372779 1_565
Br6 Rb0 3.487474 1_555
Br6 Rb3 3.584224 1_555
Br6 Rb1 3.645818 1_555
Br7 Rb3 3.372758 1_545
Br7 Rb1 3.487478 1_445
Br7 Rb2 3.584150 1_555
Br7 Rb0 3.645828 1_555
