# generated using pymatgen
data_LiMg30CoO32
_symmetry_space_group_name_H-M   'P 1'
_cell_length_a   8.50190300
_cell_length_b   8.50190300
_cell_length_c   8.51076900
_cell_angle_alpha   90.00000000
_cell_angle_beta   90.00000000
_cell_angle_gamma   90.00000000
_symmetry_Int_Tables_number   1
_chemical_formula_structural   LiMg30CoO32
_chemical_formula_sum   'Li1 Mg30 Co1 O32'
_cell_volume   615.17842296
_cell_formula_units_Z   1
loop_
 _symmetry_equiv_pos_site_id
 _symmetry_equiv_pos_as_xyz
  1  'x, y, z'
loop_
 _atom_site_type_symbol
 _atom_site_label
 _atom_site_symmetry_multiplicity
 _atom_site_fract_x
 _atom_site_fract_y
 _atom_site_fract_z
 _atom_site_occupancy
  Li  Li0  1  0.50000000  0.50000000  0.00000000  1
  Mg  Mg0  1  0.00000000  0.50000000  0.00000000  1
  Mg  Mg1  1  0.50000000  0.00000000  0.00000000  1
  Mg  Mg2  1  0.00000000  0.00000000  0.50000000  1
  Mg  Mg3  1  0.00000000  0.50000000  0.50000000  1
  Mg  Mg4  1  0.50000000  0.00000000  0.50000000  1
  Mg  Mg5  1  0.50000000  0.50000000  0.50000000  1
  Mg  Mg6  1  0.25516500  0.25516500  0.00000000  1
  Mg  Mg7  1  0.25516500  0.74483500  0.00000000  1
  Mg  Mg8  1  0.74483500  0.25516500  0.00000000  1
  Mg  Mg9  1  0.74483500  0.74483500  0.00000000  1
  Mg  Mg10  1  0.25117000  0.25117000  0.50000000  1
  Mg  Mg11  1  0.25117000  0.74883000  0.50000000  1
  Mg  Mg12  1  0.74883000  0.25117000  0.50000000  1
  Mg  Mg13  1  0.74883000  0.74883000  0.50000000  1
  Mg  Mg14  1  0.00000000  0.25145600  0.25082200  1
  Mg  Mg15  1  0.00000000  0.74854400  0.25082200  1
  Mg  Mg16  1  0.50000000  0.25361200  0.24717700  1
  Mg  Mg17  1  0.50000000  0.74638800  0.24717700  1
  Mg  Mg18  1  0.00000000  0.25145600  0.74917800  1
  Mg  Mg19  1  0.00000000  0.74854400  0.74917800  1
  Mg  Mg20  1  0.50000000  0.25361200  0.75282300  1
  Mg  Mg21  1  0.50000000  0.74638800  0.75282300  1
  Mg  Mg22  1  0.25145600  0.00000000  0.25082200  1
  Mg  Mg23  1  0.25361200  0.50000000  0.24717700  1
  Mg  Mg24  1  0.74854400  0.00000000  0.25082200  1
  Mg  Mg25  1  0.74638800  0.50000000  0.24717700  1
  Mg  Mg26  1  0.25145600  0.00000000  0.74917800  1
  Mg  Mg27  1  0.25361200  0.50000000  0.75282300  1
  Mg  Mg28  1  0.74854400  0.00000000  0.74917800  1
  Mg  Mg29  1  0.74638800  0.50000000  0.75282300  1
  Co  Co0  1  0.00000000  0.00000000  0.00000000  1
  O  O0  1  0.00000000  0.00000000  0.24788500  1
  O  O1  1  0.00000000  0.50000000  0.24956700  1
  O  O2  1  0.50000000  0.00000000  0.24956700  1
  O  O3  1  0.50000000  0.50000000  0.25594700  1
  O  O4  1  0.00000000  0.00000000  0.75211500  1
  O  O5  1  0.00000000  0.50000000  0.75043300  1
  O  O6  1  0.50000000  0.00000000  0.75043300  1
  O  O7  1  0.50000000  0.50000000  0.74405300  1
  O  O8  1  0.24917900  0.24917900  0.24920900  1
  O  O9  1  0.24917900  0.75082100  0.24920900  1
  O  O10  1  0.75082100  0.24917900  0.24920900  1
  O  O11  1  0.75082100  0.75082100  0.24920900  1
  O  O12  1  0.24917900  0.24917900  0.75079100  1
  O  O13  1  0.24917900  0.75082100  0.75079100  1
  O  O14  1  0.75082100  0.24917900  0.75079100  1
  O  O15  1  0.75082100  0.75082100  0.75079100  1
  O  O16  1  0.00000000  0.24142900  0.00000000  1
  O  O17  1  0.00000000  0.75857100  0.00000000  1
  O  O18  1  0.50000000  0.24143500  0.00000000  1
  O  O19  1  0.50000000  0.75856500  0.00000000  1
  O  O20  1  0.00000000  0.24832700  0.50000000  1
  O  O21  1  0.00000000  0.75167300  0.50000000  1
  O  O22  1  0.50000000  0.24812700  0.50000000  1
  O  O23  1  0.50000000  0.75187300  0.50000000  1
  O  O24  1  0.24142900  0.00000000  0.00000000  1
  O  O25  1  0.24143500  0.50000000  0.00000000  1
  O  O26  1  0.75857100  0.00000000  0.00000000  1
  O  O27  1  0.75856500  0.50000000  0.00000000  1
  O  O28  1  0.24832700  0.00000000  0.50000000  1
  O  O29  1  0.24812700  0.50000000  0.50000000  1
  O  O30  1  0.75167300  0.00000000  0.50000000  1
  O  O31  1  0.75187300  0.50000000  0.50000000  1
loop_
_geom_bond_atom_site_label_1
_geom_bond_atom_site_label_2
_geom_bond_distance
_geom_bond_site_symmetry_2
Li0 O3 2.178306 1_555
Li0 O7 2.178306 1_554
Li0 O25 2.198295 1_555
Li0 O18 2.198295 1_555
Li0 O19 2.198295 1_555
Li0 O27 2.198295 1_555
Mg0 O27 2.052657 1_455
Mg0 O25 2.052657 1_555
Mg0 O5 2.124007 1_554
Mg0 O1 2.124007 1_555
Mg0 O17 2.198346 1_555
Mg0 O16 2.198346 1_555
Mg1 O19 2.052657 1_545
Mg1 O18 2.052657 1_555
Mg1 O6 2.124007 1_554
Mg1 O2 2.124007 1_555
Mg1 O24 2.198346 1_555
Mg1 O26 2.198346 1_555
Mg2 O30 2.111252 1_455
Mg2 O21 2.111252 1_545
Mg2 O28 2.111252 1_555
Mg2 O20 2.111252 1_555
Mg2 O0 2.145693 1_555
Mg2 O4 2.145693 1_555
Mg3 O29 2.109552 1_555
Mg3 O31 2.109552 1_455
Mg3 O1 2.131377 1_555
Mg3 O5 2.131377 1_555
Mg3 O20 2.139699 1_555
Mg3 O21 2.139699 1_555
Mg4 O23 2.109552 1_545
Mg4 O22 2.109552 1_555
Mg4 O2 2.131377 1_555
Mg4 O6 2.131377 1_555
Mg4 O28 2.139699 1_555
Mg4 O30 2.139699 1_555
Mg5 O7 2.077079 1_555
Mg5 O3 2.077079 1_555
Mg5 O23 2.141400 1_555
Mg5 O22 2.141400 1_555
Mg5 O29 2.141400 1_555
Mg5 O31 2.141400 1_555
Mg6 O25 2.084834 1_555
Mg6 O18 2.084834 1_555
Mg6 O8 2.122181 1_555
Mg6 O12 2.122181 1_554
Mg6 O24 2.172529 1_555
Mg6 O16 2.172529 1_555
Mg7 O25 2.084834 1_555
Mg7 O19 2.084834 1_555
Mg7 O9 2.122181 1_555
Mg7 O13 2.122181 1_554
Mg7 O24 2.172529 1_565
Mg7 O17 2.172529 1_555
Mg8 O27 2.084834 1_555
Mg8 O18 2.084834 1_555
Mg8 O10 2.122181 1_555
Mg8 O14 2.122181 1_554
Mg8 O26 2.172529 1_555
Mg8 O16 2.172529 1_655
Mg9 O27 2.084834 1_555
Mg9 O19 2.084834 1_555
Mg9 O11 2.122181 1_555
Mg9 O15 2.122181 1_554
Mg9 O26 2.172529 1_565
Mg9 O17 2.172529 1_655
Mg10 O22 2.115687 1_555
Mg10 O29 2.115687 1_555
Mg10 O8 2.134559 1_555
Mg10 O12 2.134559 1_555
Mg10 O20 2.135560 1_555
Mg10 O28 2.135560 1_555
Mg11 O23 2.115687 1_555
Mg11 O29 2.115687 1_555
Mg11 O9 2.134559 1_555
Mg11 O13 2.134559 1_555
Mg11 O28 2.135560 1_565
Mg11 O21 2.135560 1_555
Mg12 O22 2.115687 1_555
Mg12 O31 2.115687 1_555
Mg12 O14 2.134559 1_555
Mg12 O10 2.134559 1_555
Mg12 O30 2.135560 1_555
Mg12 O20 2.135560 1_655
Mg13 O23 2.115687 1_555
Mg13 O31 2.115687 1_555
Mg13 O11 2.134559 1_555
Mg13 O15 2.134559 1_555
Mg13 O30 2.135560 1_565
Mg13 O21 2.135560 1_655
Mg14 O1 2.113124 1_555
Mg14 O8 2.118629 1_555
Mg14 O10 2.118629 1_455
Mg14 O20 2.120863 1_555
Mg14 O16 2.136390 1_555
Mg14 O0 2.138001 1_555
Mg15 O1 2.113124 1_555
Mg15 O9 2.118629 1_555
Mg15 O11 2.118629 1_455
Mg15 O21 2.120863 1_555
Mg15 O17 2.136390 1_555
Mg15 O0 2.138001 1_565
Mg16 O3 2.096096 1_555
Mg16 O18 2.106212 1_555
Mg16 O8 2.132859 1_555
Mg16 O10 2.132859 1_555
Mg16 O22 2.152223 1_555
Mg16 O2 2.156281 1_555
Mg17 O3 2.096096 1_555
Mg17 O19 2.106212 1_555
Mg17 O11 2.132859 1_555
Mg17 O9 2.132859 1_555
Mg17 O23 2.152223 1_555
Mg17 O2 2.156281 1_565
Mg18 O5 2.113124 1_555
Mg18 O12 2.118629 1_555
Mg18 O14 2.118629 1_455
Mg18 O20 2.120863 1_555
Mg18 O16 2.136390 1_556
Mg18 O4 2.138001 1_555
Mg19 O5 2.113124 1_555
Mg19 O13 2.118629 1_555
Mg19 O15 2.118629 1_455
Mg19 O21 2.120863 1_555
Mg19 O17 2.136390 1_556
Mg19 O4 2.138001 1_565
Mg20 O7 2.096096 1_555
Mg20 O18 2.106212 1_556
Mg20 O12 2.132859 1_555
Mg20 O14 2.132859 1_555
Mg20 O22 2.152223 1_555
Mg20 O6 2.156281 1_555
Mg21 O7 2.096096 1_555
Mg21 O19 2.106212 1_556
Mg21 O15 2.132859 1_555
Mg21 O13 2.132859 1_555
Mg21 O23 2.152223 1_555
Mg21 O6 2.156281 1_565
Mg22 O2 2.113124 1_555
Mg22 O8 2.118629 1_555
Mg22 O9 2.118629 1_545
Mg22 O28 2.120863 1_555
Mg22 O24 2.136390 1_555
Mg22 O0 2.138001 1_555
Mg23 O3 2.096096 1_555
Mg23 O25 2.106212 1_555
Mg23 O8 2.132859 1_555
Mg23 O9 2.132859 1_555
Mg23 O29 2.152223 1_555
Mg23 O1 2.156281 1_555
Mg24 O2 2.113124 1_555
Mg24 O10 2.118629 1_555
Mg24 O11 2.118629 1_545
Mg24 O30 2.120863 1_555
Mg24 O26 2.136390 1_555
Mg24 O0 2.138001 1_655
Mg25 O3 2.096096 1_555
Mg25 O27 2.106212 1_555
Mg25 O11 2.132859 1_555
Mg25 O10 2.132859 1_555
Mg25 O31 2.152223 1_555
Mg25 O1 2.156281 1_655
Mg26 O6 2.113124 1_555
Mg26 O12 2.118629 1_555
Mg26 O13 2.118629 1_545
Mg26 O28 2.120863 1_555
Mg26 O24 2.136390 1_556
Mg26 O4 2.138001 1_555
Mg27 O7 2.096096 1_555
Mg27 O25 2.106212 1_556
Mg27 O12 2.132859 1_555
Mg27 O13 2.132859 1_555
Mg27 O29 2.152223 1_555
Mg27 O5 2.156281 1_555
Mg28 O6 2.113124 1_555
Mg28 O14 2.118629 1_555
Mg28 O15 2.118629 1_545
Mg28 O30 2.120863 1_555
Mg28 O26 2.136390 1_556
Mg28 O4 2.138001 1_655
Mg29 O7 2.096096 1_555
Mg29 O27 2.106212 1_556
Mg29 O14 2.132859 1_555
Mg29 O15 2.132859 1_555
Mg29 O31 2.152223 1_555
Mg29 O5 2.156281 1_655
Co0 O24 2.052606 1_555
Co0 O16 2.052606 1_555
Co0 O26 2.052606 1_455
Co0 O17 2.052606 1_545
Co0 O0 2.109692 1_555
Co0 O4 2.109692 1_554
