# generated using pymatgen
data_Sr2MgMoO6
_symmetry_space_group_name_H-M   'P 1'
_cell_length_a   5.66223711
_cell_length_b   5.66223711
_cell_length_c   5.66223711
_cell_angle_alpha   120.26609747
_cell_angle_beta   120.26609747
_cell_angle_gamma   89.53972028
_symmetry_Int_Tables_number   1
_chemical_formula_structural   Sr2MgMoO6
_chemical_formula_sum   'Sr2 Mg1 Mo1 O6'
_cell_volume   127.84498277
_cell_formula_units_Z   1
loop_
 _symmetry_equiv_pos_site_id
 _symmetry_equiv_pos_as_xyz
  1  'x, y, z'
loop_
 _atom_site_type_symbol
 _atom_site_label
 _atom_site_symmetry_multiplicity
 _atom_site_fract_x
 _atom_site_fract_y
 _atom_site_fract_z
 _atom_site_occupancy
  Sr  Sr0  1  0.75000000  0.25000000  0.50000000  1
  Sr  Sr1  1  0.25000000  0.75000000  0.50000000  1
  Mg  Mg0  1  0.50000000  0.50000000  0.00000000  1
  Mo  Mo0  1  0.00000000  0.00000000  0.00000000  1
  O  O0  1  0.75817700  0.75817700  0.00000000  1
  O  O1  1  0.24182300  0.24182300  0.00000000  1
  O  O2  1  0.79117400  0.72617300  0.51734700  1
  O  O3  1  0.20882600  0.27382700  0.48265300  1
  O  O4  1  0.72617300  0.20882600  0.93500000  1
  O  O5  1  0.27382700  0.79117400  0.06500000  1
loop_
_geom_bond_atom_site_label_1
_geom_bond_atom_site_label_2
_geom_bond_distance
_geom_bond_site_symmetry_2
Mg0 O0 2.075669 1_555
Mg0 O1 2.075669 1_555
Mg0 O5 2.079240 1_555
Mg0 O4 2.079240 1_554
Mg0 O2 2.079240 1_555
Mg0 O3 2.079240 1_554
Mo0 O4 1.942047 1_454
Mo0 O5 1.942047 1_545
Mo0 O2 1.942047 1_444
Mo0 O3 1.942047 1_555
Mo0 O1 1.944187 1_555
Mo0 O0 1.944187 1_445
O0 Sr0 2.820490 1_554
O0 Sr1 2.820490 1_554
O0 Sr0 2.820490 1_565
O0 Sr1 2.820490 1_655
O1 Sr0 2.820490 1_555
O1 Sr1 2.820490 1_555
O1 Sr1 2.820490 1_544
O1 Sr0 2.820490 1_454
O2 Sr0 2.655857 1_555
O2 Sr1 2.655857 1_655
O2 Sr1 3.020071 1_555
O2 Sr0 3.020071 1_565
O3 Sr0 2.655857 1_455
O3 Sr1 2.655857 1_555
O3 Sr1 3.020071 1_545
O3 Sr0 3.020071 1_555
O4 Sr1 2.655857 1_545
O4 Sr0 2.655863 1_555
O4 Sr0 3.020065 1_556
O4 Sr1 3.020071 1_656
O5 Sr0 2.655857 1_565
O5 Sr1 2.655863 1_555
O5 Sr1 3.020065 1_554
O5 Sr0 3.020071 1_454
