# generated using pymatgen
data_Li2V3BiO8
_symmetry_space_group_name_H-M   'P 1'
_cell_length_a   8.76468556
_cell_length_b   8.76468556
_cell_length_c   8.73847259
_cell_angle_alpha   89.98508060
_cell_angle_beta   89.98508060
_cell_angle_gamma   90.17940622
_symmetry_Int_Tables_number   1
_chemical_formula_structural   Li2V3BiO8
_chemical_formula_sum   'Li8 V12 Bi4 O32'
_cell_volume   671.28362020
_cell_formula_units_Z   4
loop_
 _symmetry_equiv_pos_site_id
 _symmetry_equiv_pos_as_xyz
  1  'x, y, z'
loop_
 _atom_site_type_symbol
 _atom_site_label
 _atom_site_symmetry_multiplicity
 _atom_site_fract_x
 _atom_site_fract_y
 _atom_site_fract_z
 _atom_site_occupancy
  Li  Li0  1  0.00012200  0.24735500  0.62256800  1
  Li  Li1  1  0.75264500  0.99987800  0.37743200  1
  Li  Li2  1  0.74784800  0.49935800  0.88073700  1
  Li  Li3  1  0.50064200  0.25215200  0.11926300  1
  Li  Li4  1  0.49574100  0.75535400  0.62768800  1
  Li  Li5  1  0.25160700  0.99627000  0.87214600  1
  Li  Li6  1  0.24464600  0.50425900  0.37231200  1
  Li  Li7  1  0.00373000  0.74839300  0.12785400  1
  V  V0  1  0.89391600  0.10608400  0.00000000  1
  V  V1  1  0.87652500  0.85834800  0.76855900  1
  V  V2  1  0.85913800  0.62360000  0.51738700  1
  V  V3  1  0.64139800  0.87652300  0.01377200  1
  V  V4  1  0.62577400  0.63980100  0.26815000  1
  V  V5  1  0.60335100  0.39664900  0.50000000  1
  V  V6  1  0.39008800  0.89165900  0.25135300  1
  V  V7  1  0.37640000  0.14086200  0.48261300  1
  V  V8  1  0.36019900  0.37422600  0.73185000  1
  V  V9  1  0.14165200  0.12347500  0.23144100  1
  V  V10  1  0.12347700  0.35860200  0.98622800  1
  V  V11  1  0.10834100  0.60991200  0.74864700  1
  Bi  Bi0  1  0.87607000  0.36794000  0.25030300  1
  Bi  Bi1  1  0.63206000  0.12393000  0.74969700  1
  Bi  Bi2  1  0.37435900  0.62564100  0.00000000  1
  Bi  Bi3  1  0.12304000  0.87696000  0.50000000  1
  O  O0  1  0.91225200  0.11402800  0.24074600  1
  O  O1  1  0.89927500  0.33944700  0.98392100  1
  O  O2  1  0.87657400  0.62714300  0.73895400  1
  O  O3  1  0.88597200  0.08774800  0.75925400  1
  O  O4  1  0.86178300  0.85361800  0.53887600  1
  O  O5  1  0.86948200  0.87750300  0.99849600  1
  O  O6  1  0.85281100  0.64331900  0.29713600  1
  O  O7  1  0.83676800  0.39832800  0.51499500  1
  O  O8  1  0.66055300  0.10072500  0.01607900  1
  O  O9  1  0.63548100  0.86183700  0.79804700  1
  O  O10  1  0.62911000  0.62508100  0.49654200  1
  O  O11  1  0.63875600  0.64531100  0.03834200  1
  O  O12  1  0.60978000  0.42674300  0.25902300  1
  O  O13  1  0.62252700  0.86372200  0.24344000  1
  O  O14  1  0.60167200  0.16323200  0.48500500  1
  O  O15  1  0.57325700  0.39022000  0.74097700  1
  O  O16  1  0.41433200  0.88707200  0.01635300  1
  O  O17  1  0.39609700  0.66416900  0.26227900  1
  O  O18  1  0.37491900  0.37089000  0.50345800  1
  O  O19  1  0.38583900  0.91623200  0.48869100  1
  O  O20  1  0.35668100  0.14718900  0.70286400  1
  O  O21  1  0.37285700  0.12342600  0.26104600  1
  O  O22  1  0.35468900  0.36124400  0.96165800  1
  O  O23  1  0.33583100  0.60390300  0.73772100  1
  O  O24  1  0.16498400  0.88875600  0.23950200  1
  O  O25  1  0.14638200  0.13821700  0.46112400  1
  O  O26  1  0.13627800  0.37747300  0.75656000  1
  O  O27  1  0.13816300  0.36451900  0.20195300  1
  O  O28  1  0.11292800  0.58566800  0.98364700  1
  O  O29  1  0.12249700  0.13051800  0.00150400  1
  O  O30  1  0.11124400  0.83501600  0.76049800  1
  O  O31  1  0.08376800  0.61416100  0.51130900  1
loop_
_geom_bond_atom_site_label_1
_geom_bond_atom_site_label_2
_geom_bond_distance
_geom_bond_site_symmetry_2
Li0 O26 2.022029 1_555
Li0 O3 2.091486 1_455
Li0 O25 2.134492 1_555
Li0 O7 2.167118 1_455
Li1 O13 2.022029 1_555
Li1 O0 2.091486 1_565
Li1 O4 2.134492 1_555
Li1 O14 2.167118 1_565
Li2 O2 2.013206 1_555
Li2 O11 2.110762 1_556
Li2 O1 2.133192 1_555
Li2 O15 2.177289 1_555
Li3 O21 2.013206 1_555
Li3 O22 2.110762 1_554
Li3 O8 2.133192 1_555
Li3 O12 2.177289 1_555
Li4 O10 1.997954 1_555
Li4 O19 2.097527 1_555
Li4 O9 2.140510 1_555
Li4 O23 2.153583 1_555
Li5 O29 1.987756 1_566
Li5 O30 2.110292 1_555
Li5 O16 2.132367 1_556
Li5 O20 2.185564 1_565
Li6 O18 1.997954 1_555
Li6 O31 2.097527 1_555
Li6 O27 2.140510 1_555
Li6 O17 2.153583 1_555
Li7 O5 1.987756 1_454
Li7 O24 2.110292 1_555
Li7 O28 2.132367 1_554
Li7 O6 2.185564 1_455
Bi0 O0 2.250491 1_555
Bi0 O27 2.335872 1_655
Bi0 O1 2.350027 1_554
Bi0 O7 2.353734 1_555
Bi0 O12 2.392950 1_555
Bi0 O6 2.457257 1_555
Bi1 O3 2.250491 1_555
Bi1 O9 2.335872 1_545
Bi1 O8 2.350027 1_556
Bi1 O14 2.353734 1_555
Bi1 O15 2.392950 1_555
Bi1 O20 2.457257 1_555
Bi2 O16 2.321351 1_555
Bi2 O28 2.321351 1_554
Bi2 O17 2.324532 1_555
Bi2 O23 2.324532 1_554
Bi2 O11 2.347351 1_555
Bi2 O22 2.347351 1_554
Bi3 O30 2.307993 1_555
Bi3 O24 2.307993 1_555
Bi3 O25 2.323195 1_565
Bi3 O4 2.323195 1_455
Bi3 O19 2.329929 1_555
Bi3 O31 2.329929 1_555
O0 V9 2.013684 1_655
O0 V0 2.111074 1_555
O1 V10 1.971804 1_655
O1 V0 2.050528 1_556
O2 V2 1.942467 1_555
O2 V11 2.039223 1_655
O2 V1 2.042954 1_555
O3 V1 2.013684 1_545
O3 V0 2.111074 1_556
O4 V1 2.011697 1_555
O4 V2 2.024872 1_555
O5 V3 2.003493 1_556
O5 V0 2.014234 1_566
O5 V1 2.017288 1_555
O6 V2 1.933182 1_555
O6 V4 2.006172 1_555
O7 V2 1.983654 1_555
O7 V5 2.050060 1_555
O8 V3 1.971804 1_545
O8 V0 2.050528 1_555
O9 V3 1.890244 1_556
O9 V1 2.128580 1_555
O10 V4 2.000157 1_555
O10 V5 2.014339 1_555
O10 V2 2.024464 1_555
O11 V4 2.011921 1_555
O11 V3 2.037846 1_555
O12 V4 1.873923 1_555
O12 V5 2.122869 1_555
O13 V4 1.974678 1_555
O13 V3 2.016774 1_555
O13 V6 2.053827 1_555
O14 V7 1.983654 1_555
O14 V5 2.050060 1_555
O15 V8 1.873923 1_555
O15 V5 2.122869 1_555
O16 V3 1.992720 1_555
O16 V6 2.064865 1_555
O17 V6 1.996998 1_555
O17 V4 2.025672 1_555
O18 V8 2.000157 1_555
O18 V5 2.014339 1_555
O18 V7 2.024464 1_555
O19 V7 1.971510 1_565
O19 V6 2.085515 1_555
O20 V7 1.933182 1_555
O20 V8 2.006172 1_555
O21 V7 1.942467 1_555
O21 V6 2.039223 1_545
O21 V9 2.042954 1_555
O22 V8 2.011921 1_555
O22 V10 2.037846 1_555
O23 V11 1.996998 1_555
O23 V8 2.025672 1_555
O24 V6 1.975793 1_555
O24 V9 2.069197 1_565
O25 V9 2.011697 1_555
O25 V7 2.024872 1_555
O26 V8 1.974678 1_555
O26 V10 2.016774 1_555
O26 V11 2.053827 1_555
O27 V10 1.890244 1_554
O27 V9 2.128580 1_555
O28 V10 1.992720 1_555
O28 V11 2.064865 1_555
O29 V10 2.003493 1_554
O29 V0 2.014234 1_455
O29 V9 2.017288 1_555
O30 V11 1.975793 1_555
O30 V1 2.069197 1_455
O31 V2 1.971510 1_455
O31 V11 2.085515 1_555
