# generated using pymatgen
data_Rb5V3O10
_symmetry_space_group_name_H-M   'P 1'
_cell_length_a   8.41962413
_cell_length_b   8.41962413
_cell_length_c   19.44672557
_cell_angle_alpha   90.00000000
_cell_angle_beta   90.00000000
_cell_angle_gamma   90.00000000
_symmetry_Int_Tables_number   1
_chemical_formula_structural   Rb5V3O10
_chemical_formula_sum   'Rb20 V12 O40'
_cell_volume   1378.57974647
_cell_formula_units_Z   4
loop_
 _symmetry_equiv_pos_site_id
 _symmetry_equiv_pos_as_xyz
  1  'x, y, z'
loop_
 _atom_site_type_symbol
 _atom_site_label
 _atom_site_symmetry_multiplicity
 _atom_site_fract_x
 _atom_site_fract_y
 _atom_site_fract_z
 _atom_site_occupancy
  Rb  Rb0  1  0.47740444  0.01291550  0.13463271  1
  Rb  Rb1  1  0.52259556  0.98708450  0.63463271  1
  Rb  Rb2  1  0.48708450  0.97740444  0.38463271  1
  Rb  Rb3  1  0.02259556  0.51291550  0.11536729  1
  Rb  Rb4  1  0.51291550  0.02259556  0.88463271  1
  Rb  Rb5  1  0.97740444  0.48708450  0.61536729  1
  Rb  Rb6  1  0.01291550  0.47740444  0.86536729  1
  Rb  Rb7  1  0.98708450  0.52259556  0.36536729  1
  Rb  Rb8  1  0.00123178  0.02723877  0.11222702  1
  Rb  Rb9  1  -0.00123178  0.97276123  0.61222702  1
  Rb  Rb10  1  0.47276123  0.50123178  0.36222702  1
  Rb  Rb11  1  0.49876822  0.52723877  0.13777298  1
  Rb  Rb12  1  0.52723877  0.49876822  0.86222702  1
  Rb  Rb13  1  0.50123178  0.47276123  0.63777298  1
  Rb  Rb14  1  0.02723877  0.00123178  0.88777298  1
  Rb  Rb15  1  0.97276123  -0.00123178  0.38777298  1
  Rb  Rb16  1  0.76059152  0.76059152  0.00000000  1
  Rb  Rb17  1  0.23940848  0.23940848  0.50000000  1
  Rb  Rb18  1  0.73940848  0.26059152  0.25000000  1
  Rb  Rb19  1  0.26059152  0.73940848  0.75000000  1
  V  V0  1  0.23043970  0.23246467  0.26771279  1
  V  V1  1  0.76956030  0.76753533  0.76771279  1
  V  V2  1  0.26753533  0.73043970  0.51771279  1
  V  V3  1  0.26956030  0.73246467  0.98228721  1
  V  V4  1  0.73246467  0.26956030  0.01771279  1
  V  V5  1  0.73043970  0.26753533  0.48228721  1
  V  V6  1  0.23246467  0.23043970  0.73228721  1
  V  V7  1  0.76753533  0.76956030  0.23228721  1
  V  V8  1  0.31344455  0.31344455  0.00000000  1
  V  V9  1  0.68655545  0.68655545  0.50000000  1
  V  V10  1  0.18655545  0.81344455  0.25000000  1
  V  V11  1  0.81344455  0.18655545  0.75000000  1
  O  O0  1  0.06894288  0.32780422  0.23705886  1
  O  O1  1  0.93105712  0.67219578  0.73705886  1
  O  O2  1  0.17219578  0.56894288  0.48705886  1
  O  O3  1  0.43105712  0.82780422  0.01294114  1
  O  O4  1  0.82780422  0.43105712  0.98705886  1
  O  O5  1  0.56894288  0.17219578  0.51294114  1
  O  O6  1  0.32780422  0.06894288  0.76294114  1
  O  O7  1  0.67219578  0.93105712  0.26294114  1
  O  O8  1  0.24312357  0.22951590  0.07117409  1
  O  O9  1  0.75687643  0.77048410  0.57117409  1
  O  O10  1  0.27048410  0.74312357  0.32117409  1
  O  O11  1  0.25687643  0.72951590  0.17882591  1
  O  O12  1  0.72951590  0.25687643  0.82117409  1
  O  O13  1  0.74312357  0.27048410  0.67882591  1
  O  O14  1  0.22951590  0.24312357  0.92882591  1
  O  O15  1  0.77048410  0.75687643  0.42882591  1
  O  O16  1  0.23141848  0.24494538  0.35490750  1
  O  O17  1  0.76858152  0.75505462  0.85490750  1
  O  O18  1  0.25505462  0.73141848  0.60490750  1
  O  O19  1  0.26858152  0.74494538  0.89509250  1
  O  O20  1  0.74494538  0.26858152  0.10490750  1
  O  O21  1  0.73141848  0.25505462  0.39509250  1
  O  O22  1  0.24494538  0.23141848  0.64509250  1
  O  O23  1  0.75505462  0.76858152  0.14509250  1
  O  O24  1  0.21798606  0.02193259  0.24252400  1
  O  O25  1  0.78201394  0.97806741  0.74252400  1
  O  O26  1  0.47806741  0.71798606  0.49252400  1
  O  O27  1  0.28201394  0.52193259  0.00747600  1
  O  O28  1  0.52193259  0.28201394  0.99252400  1
  O  O29  1  0.71798606  0.47806741  0.50747600  1
  O  O30  1  0.02193259  0.21798606  0.75747600  1
  O  O31  1  0.97806741  0.78201394  0.25747600  1
  O  O32  1  0.40279184  0.30592815  0.23695458  1
  O  O33  1  0.59720816  0.69407185  0.73695458  1
  O  O34  1  0.19407185  0.90279184  0.48695458  1
  O  O35  1  0.09720816  0.80592815  0.01304542  1
  O  O36  1  0.80592815  0.09720816  0.98695458  1
  O  O37  1  0.90279184  0.19407185  0.51304542  1
  O  O38  1  0.30592815  0.40279184  0.76304542  1
  O  O39  1  0.69407185  0.59720816  0.26304542  1
loop_
_geom_bond_atom_site_label_1
_geom_bond_atom_site_label_2
_geom_bond_distance
_geom_bond_site_symmetry_2
O0 V0 1.687786 1_555
O0 Rb18 2.842841 1_455
O0 Rb3 2.860375 1_555
O0 Rb7 3.064436 1_455
O1 V1 1.687786 1_555
O1 Rb19 2.842841 1_655
O1 Rb5 2.860375 1_555
O1 Rb6 3.064436 1_655
O2 V2 1.687786 1_555
O2 Rb17 2.842841 1_555
O2 Rb7 2.860375 1_455
O2 Rb5 3.064436 1_455
O3 V3 1.687786 1_554
O3 Rb16 2.842841 1_555
O3 Rb0 2.860375 1_565
O3 Rb4 3.064436 1_564
O4 V4 1.687786 1_556
O4 Rb16 2.842841 1_556
O4 Rb6 2.860375 1_655
O4 Rb3 3.064436 1_656
O5 V5 1.687786 1_555
O5 Rb17 2.842841 1_555
O5 Rb1 2.860375 1_545
O5 Rb2 3.064436 1_545
O6 V6 1.687786 1_555
O6 Rb19 2.842841 1_545
O6 Rb4 2.860375 1_555
O6 Rb1 3.064436 1_545
O7 V7 1.687786 1_555
O7 Rb18 2.842841 1_565
O7 Rb2 2.860375 1_555
O7 Rb0 3.064436 1_565
O8 V8 1.663023 1_555
O8 Rb8 2.772326 1_555
O8 Rb0 2.956307 1_555
O8 Rb3 3.143202 1_555
O9 V9 1.663023 1_555
O9 Rb9 2.772326 1_655
O9 Rb1 2.956307 1_555
O9 Rb5 3.143202 1_555
O10 V10 1.663023 1_555
O10 Rb10 2.772326 1_555
O10 Rb2 2.956307 1_555
O10 Rb7 3.143202 1_455
O11 V10 1.663023 1_555
O11 Rb11 2.772326 1_555
O11 Rb3 2.956307 1_555
O11 Rb0 3.143202 1_565
O12 V11 1.663023 1_555
O12 Rb12 2.772326 1_555
O12 Rb4 2.956307 1_555
O12 Rb6 3.143202 1_655
O13 V11 1.663023 1_555
O13 Rb13 2.772326 1_555
O13 Rb5 2.956307 1_555
O13 Rb1 3.143202 1_545
O14 V8 1.663023 1_556
O14 Rb14 2.772326 1_555
O14 Rb6 2.956307 1_555
O14 Rb4 3.143202 1_555
O15 V9 1.663023 1_555
O15 Rb15 2.772326 1_565
O15 Rb7 2.956307 1_555
O15 Rb2 3.143202 1_555
O16 V0 1.698925 1_555
O16 Rb17 2.822761 1_555
O16 Rb10 2.967423 1_555
O16 Rb15 3.073670 1_455
O16 Rb7 3.120631 1_455
O16 Rb2 3.168922 1_545
O17 V1 1.698925 1_555
O17 Rb16 2.822761 1_556
O17 Rb12 2.967423 1_555
O17 Rb14 3.073670 1_665
O17 Rb6 3.120631 1_655
O17 Rb4 3.168922 1_565
O18 V2 1.698925 1_555
O18 Rb19 2.822761 1_555
O18 Rb9 2.967423 1_555
O18 Rb13 3.073670 1_555
O18 Rb5 3.120631 1_455
O18 Rb1 3.168922 1_555
O19 V3 1.698925 1_555
O19 Rb19 2.822761 1_555
O19 Rb14 2.967423 1_565
O19 Rb12 3.073670 1_555
O19 Rb4 3.120631 1_565
O19 Rb6 3.168922 1_555
O20 V4 1.698925 1_555
O20 Rb18 2.822761 1_555
O20 Rb8 2.967423 1_655
O20 Rb11 3.073670 1_555
O20 Rb3 3.120631 1_655
O20 Rb0 3.168922 1_555
O21 V5 1.698925 1_555
O21 Rb18 2.822761 1_555
O21 Rb15 2.967423 1_555
O21 Rb10 3.073670 1_555
O21 Rb2 3.120631 1_545
O21 Rb7 3.168922 1_555
O22 V6 1.698925 1_555
O22 Rb17 2.822761 1_555
O22 Rb13 2.967423 1_555
O22 Rb9 3.073670 1_545
O22 Rb1 3.120631 1_545
O22 Rb5 3.168922 1_455
O23 V7 1.698925 1_555
O23 Rb16 2.822761 1_555
O23 Rb11 2.967423 1_555
O23 Rb8 3.073670 1_665
O23 Rb0 3.120631 1_565
O23 Rb3 3.168922 1_655
O24 V10 1.781170 1_545
O24 V0 1.842024 1_555
O24 Rb0 3.029633 1_555
O24 Rb8 3.122976 1_555
O25 V11 1.781170 1_565
O25 V1 1.842024 1_555
O25 Rb1 3.029633 1_555
O25 Rb9 3.122976 1_655
O26 V9 1.781170 1_555
O26 V2 1.842024 1_555
O26 Rb2 3.029633 1_555
O26 Rb10 3.122976 1_555
O27 V8 1.781170 1_555
O27 V3 1.842024 1_554
O27 Rb3 3.029633 1_555
O27 Rb11 3.122976 1_555
O28 V8 1.781170 1_556
O28 V4 1.842024 1_556
O28 Rb4 3.029633 1_555
O28 Rb12 3.122976 1_555
O29 V9 1.781170 1_555
O29 V5 1.842024 1_555
O29 Rb5 3.029633 1_555
O29 Rb13 3.122976 1_555
O30 V11 1.781170 1_455
O30 V6 1.842024 1_555
O30 Rb6 3.029633 1_555
O30 Rb14 3.122976 1_555
O31 V10 1.781170 1_655
O31 V7 1.842024 1_555
O31 Rb7 3.029633 1_555
O31 Rb15 3.122976 1_565
O32 V0 1.687060 1_555
O32 Rb11 2.800926 1_555
O32 Rb18 2.871006 1_555
O32 Rb10 2.997637 1_555
O32 Rb0 3.231164 1_555
O33 V1 1.687060 1_555
O33 Rb13 2.800926 1_555
O33 Rb19 2.871006 1_555
O33 Rb12 2.997637 1_555
O33 Rb1 3.231164 1_555
O34 V2 1.687060 1_555
O34 Rb15 2.800926 1_465
O34 Rb17 2.871006 1_565
O34 Rb9 2.997637 1_555
O34 Rb2 3.231164 1_555
O35 V3 1.687060 1_554
O35 Rb8 2.800926 1_565
O35 Rb16 2.871006 1_455
O35 Rb14 2.997637 1_564
O35 Rb3 3.231164 1_555
O36 V4 1.687060 1_556
O36 Rb14 2.800926 1_655
O36 Rb16 2.871006 1_546
O36 Rb8 2.997637 1_656
O36 Rb4 3.231164 1_555
O37 V5 1.687060 1_555
O37 Rb9 2.800926 1_645
O37 Rb17 2.871006 1_655
O37 Rb15 2.997637 1_555
O37 Rb5 3.231164 1_555
O38 V6 1.687060 1_555
O38 Rb12 2.800926 1_555
O38 Rb19 2.871006 1_555
O38 Rb13 2.997637 1_555
O38 Rb6 3.231164 1_555
O39 V7 1.687060 1_555
O39 Rb10 2.800926 1_555
O39 Rb18 2.871006 1_555
O39 Rb11 2.997637 1_555
O39 Rb7 3.231164 1_555
