# generated using pymatgen
data_MgCr(GeO3)2
_symmetry_space_group_name_H-M   'P 1'
_cell_length_a   5.31260677
_cell_length_b   6.66786623
_cell_length_c   6.66803836
_cell_angle_alpha   85.11086896
_cell_angle_beta   84.43719856
_cell_angle_gamma   84.43678525
_symmetry_Int_Tables_number   1
_chemical_formula_structural   MgCr(GeO3)2
_chemical_formula_sum   'Mg2 Cr2 Ge4 O12'
_cell_volume   233.30061868
_cell_formula_units_Z   2
loop_
 _symmetry_equiv_pos_site_id
 _symmetry_equiv_pos_as_xyz
  1  'x, y, z'
loop_
 _atom_site_type_symbol
 _atom_site_label
 _atom_site_symmetry_multiplicity
 _atom_site_fract_x
 _atom_site_fract_y
 _atom_site_fract_z
 _atom_site_occupancy
  Mg  Mg0  1  0.74999300  0.27090300  0.72908600  1
  Mg  Mg1  1  0.24999300  0.72909900  0.27090000  1
  Cr  Cr0  1  0.25006200  0.08917700  0.91087600  1
  Cr  Cr1  1  0.74999000  0.91083200  0.08919700  1
  Ge  Ge0  1  0.77753300  0.39816500  0.20957000  1
  Ge  Ge1  1  0.72246600  0.79042500  0.60182200  1
  Ge  Ge2  1  0.22247100  0.60183100  0.79043000  1
  Ge  Ge3  1  0.27752000  0.20956400  0.39818100  1
  O  O0  1  0.59127400  0.29117500  0.43355900  1
  O  O1  1  0.90872600  0.56644200  0.70881700  1
  O  O2  1  0.40872200  0.70882100  0.56643700  1
  O  O3  1  0.09127200  0.43355400  0.29117400  1
  O  O4  1  0.11164000  0.14603700  0.62795900  1
  O  O5  1  0.38835800  0.37203800  0.85395400  1
  O  O6  1  0.88835300  0.85396200  0.37202600  1
  O  O7  1  0.61163500  0.62796600  0.14603800  1
  O  O8  1  0.83950500  0.21637200  0.03117400  1
  O  O9  1  0.66048000  0.96881900  0.78361800  1
  O  O10  1  0.16048400  0.78363700  0.96881600  1
  O  O11  1  0.33952300  0.03118200  0.21636600  1
loop_
_geom_bond_atom_site_label_1
_geom_bond_atom_site_label_2
_geom_bond_distance
_geom_bond_site_symmetry_2
Mg0 O5 2.091291 1_555
Mg0 O4 2.091323 1_655
Mg0 O9 2.107829 1_545
Mg0 O8 2.107898 1_556
Mg0 O0 2.206156 1_555
Mg0 O1 2.206224 1_555
Mg1 O6 2.091283 1_455
Mg1 O7 2.091306 1_555
Mg1 O11 2.107850 1_565
Mg1 O10 2.107870 1_554
Mg1 O3 2.206230 1_555
Mg1 O2 2.206240 1_555
Cr0 O5 2.081765 1_555
Cr0 O4 2.082403 1_555
Cr0 O11 2.131351 1_556
Cr0 O10 2.131783 1_545
Cr0 O9 2.352938 1_545
Cr0 O8 2.353332 1_456
Cr1 O6 2.081733 1_555
Cr1 O7 2.081891 1_555
Cr1 O8 2.131726 1_565
Cr1 O9 2.131996 1_554
Cr1 O11 2.352968 1_565
Cr1 O10 2.353201 1_654
Ge0 O7 1.733214 1_555
Ge0 O8 1.756493 1_555
Ge0 O0 1.840529 1_555
Ge0 O3 1.844959 1_655
Ge1 O6 1.733205 1_555
Ge1 O9 1.756503 1_555
Ge1 O1 1.840485 1_555
Ge1 O2 1.844976 1_555
Ge2 O5 1.733133 1_555
Ge2 O10 1.756513 1_555
Ge2 O2 1.840527 1_555
Ge2 O1 1.845013 1_455
Ge3 O4 1.733076 1_555
Ge3 O11 1.756543 1_555
Ge3 O3 1.840517 1_555
Ge3 O0 1.845033 1_555
