# generated using pymatgen
data_Mn3Bi3N5
_symmetry_space_group_name_H-M   'P 1'
_cell_length_a   5.62216429
_cell_length_b   7.56112213
_cell_length_c   8.57546742
_cell_angle_alpha   105.35899997
_cell_angle_beta   96.70004548
_cell_angle_gamma   95.82444468
_symmetry_Int_Tables_number   1
_chemical_formula_structural   Mn3Bi3N5
_chemical_formula_sum   'Mn6 Bi6 N10'
_cell_volume   345.77023113
_cell_formula_units_Z   2
loop_
 _symmetry_equiv_pos_site_id
 _symmetry_equiv_pos_as_xyz
  1  'x, y, z'
loop_
 _atom_site_type_symbol
 _atom_site_label
 _atom_site_symmetry_multiplicity
 _atom_site_fract_x
 _atom_site_fract_y
 _atom_site_fract_z
 _atom_site_occupancy
  Mn  Mn0  1  0.93875300  0.31684600  0.97419600  1
  Mn  Mn1  1  0.06124700  0.68315400  0.02580400  1
  Mn  Mn2  1  0.67633600  0.99008600  0.59726800  1
  Mn  Mn3  1  0.32366400  0.00991400  0.40273200  1
  Mn  Mn4  1  0.07071500  0.92657300  0.72166200  1
  Mn  Mn5  1  0.92928500  0.07342700  0.27833800  1
  Bi  Bi0  1  0.75313300  0.47266200  0.56057200  1
  Bi  Bi1  1  0.24686700  0.52733800  0.43942800  1
  Bi  Bi2  1  0.50074500  0.81424000  0.86706200  1
  Bi  Bi3  1  0.49925400  0.18576000  0.13293800  1
  Bi  Bi4  1  0.54287000  0.68025200  0.19567700  1
  Bi  Bi5  1  0.45713000  0.31974800  0.80432300  1
  N  N0  1  0.91673600  0.13541800  0.77534900  1
  N  N1  1  0.08326400  0.86458200  0.22465100  1
  N  N2  1  0.81881600  0.78716000  0.58157300  1
  N  N3  1  0.18118400  0.21284000  0.41842700  1
  N  N4  1  0.77640600  0.52682600  0.00545100  1
  N  N5  1  0.22359400  0.47317400  0.99454900  1
  N  N6  1  0.33810900  0.95374000  0.59815400  1
  N  N7  1  0.66189100  0.04626000  0.40184600  1
  N  N8  1  0.07499400  0.79713400  0.87446000  1
  N  N9  1  0.92500600  0.20286600  0.12554000  1
loop_
_geom_bond_atom_site_label_1
_geom_bond_atom_site_label_2
_geom_bond_distance
_geom_bond_site_symmetry_2
Mn0 N9 1.742269 1_556
Mn0 N5 1.852966 1_655
Mn0 N0 1.866016 1_555
Mn0 N4 1.884532 1_556
Mn1 N8 1.742269 1_554
Mn1 N4 1.852966 1_455
Mn1 N1 1.866016 1_555
Mn1 N5 1.884532 1_554
Mn2 N2 1.783040 1_555
Mn2 N7 1.829679 1_565
Mn2 N6 1.894718 1_555
Mn2 N0 1.922072 1_565
Mn3 N3 1.783040 1_555
Mn3 N6 1.829679 1_545
Mn3 N7 1.894718 1_555
Mn3 N1 1.922072 1_545
Mn4 N2 1.785838 1_455
Mn4 N8 1.830880 1_555
Mn4 N0 1.854802 1_465
Mn4 N6 1.961655 1_555
Mn5 N3 1.785838 1_655
Mn5 N9 1.830880 1_555
Mn5 N1 1.854802 1_645
Mn5 N7 1.961655 1_555
Bi0 N2 2.324409 1_555
Bi1 N3 2.324409 1_555
Bi2 N8 2.393161 1_555
Bi3 N9 2.393167 1_555
Bi4 N4 2.353126 1_555
Bi4 N5 2.434142 1_554
Bi5 N5 2.353126 1_555
Bi5 N4 2.434142 1_556
