# generated using pymatgen
data_Sr4SeS3
_symmetry_space_group_name_H-M   'P 1'
_cell_length_a   7.47752687
_cell_length_b   7.47752687
_cell_length_c   7.48165318
_cell_angle_alpha   80.39329640
_cell_angle_beta   80.39329640
_cell_angle_gamma   33.55629298
_symmetry_Int_Tables_number   1
_chemical_formula_structural   Sr4SeS3
_chemical_formula_sum   'Sr4 Se1 S3'
_cell_volume   227.69177699
_cell_formula_units_Z   1
loop_
 _symmetry_equiv_pos_site_id
 _symmetry_equiv_pos_as_xyz
  1  'x, y, z'
loop_
 _atom_site_type_symbol
 _atom_site_label
 _atom_site_symmetry_multiplicity
 _atom_site_fract_x
 _atom_site_fract_y
 _atom_site_fract_z
 _atom_site_occupancy
  Sr  Sr0  1  0.62572361  0.62572361  0.11961551  1
  Sr  Sr1  1  0.37427639  0.37427639  0.88038449  1
  Sr  Sr2  1  0.12841359  0.12841359  0.62907997  1
  Sr  Sr3  1  0.87158641  0.87158641  0.37092003  1
  Se  Se0  1  0.50000000  0.50000000  0.50000000  1
  S  S0  1  0.24897807  0.24897807  0.24920512  1
  S  S1  1  -0.00000000  -0.00000000  0.00000000  1
  S  S2  1  0.75102193  0.75102193  0.75079488  1
loop_
_geom_bond_atom_site_label_1
_geom_bond_atom_site_label_2
_geom_bond_distance
_geom_bond_site_symmetry_2
Se0 Sr0 3.090923 1_555
Se0 Sr1 3.090923 1_555
Se0 Sr3 3.097026 1_455
Se0 Sr3 3.097026 1_545
Se0 Sr2 3.097026 1_655
Se0 Sr2 3.097026 1_565
S0 Sr1 3.017800 1_554
S0 Sr3 3.021210 1_455
S0 Sr3 3.021210 1_545
S0 Sr0 3.051267 1_545
S0 Sr0 3.051267 1_455
S0 Sr2 3.057319 1_555
S1 Sr1 3.043396 1_454
S1 Sr0 3.043396 1_545
S1 Sr1 3.043396 1_544
S1 Sr0 3.043396 1_455
S1 Sr2 3.050101 1_554
S1 Sr3 3.050101 1_445
S2 Sr0 3.017800 1_556
S2 Sr2 3.021210 1_655
S2 Sr2 3.021210 1_565
S2 Sr1 3.051267 1_655
S2 Sr1 3.051267 1_565
S2 Sr3 3.057319 1_555
