# generated using pymatgen
data_BaPrEuWO6
_symmetry_space_group_name_H-M   'P 1'
_cell_length_a   6.02871834
_cell_length_b   6.08637675
_cell_length_c   8.59586678
_cell_angle_alpha   90.14752596
_cell_angle_beta   90.46120786
_cell_angle_gamma   89.90257089
_symmetry_Int_Tables_number   1
_chemical_formula_structural   BaPrEuWO6
_chemical_formula_sum   'Ba2 Pr2 Eu2 W2 O12'
_cell_volume   315.39687040
_cell_formula_units_Z   2
loop_
 _symmetry_equiv_pos_site_id
 _symmetry_equiv_pos_as_xyz
  1  'x, y, z'
loop_
 _atom_site_type_symbol
 _atom_site_label
 _atom_site_symmetry_multiplicity
 _atom_site_fract_x
 _atom_site_fract_y
 _atom_site_fract_z
 _atom_site_occupancy
  Ba  Ba0  1  0.50791117  0.53185636  0.25035791  1
  Ba  Ba1  1  0.49208883  0.46814364  0.74964209  1
  Pr  Pr0  1  -0.00000000  0.50000000  0.00000000  1
  Pr  Pr1  1  0.50000000  -0.00000000  0.50000000  1
  Eu  Eu0  1  0.99118085  0.04447103  0.25210125  1
  Eu  Eu1  1  0.00881915  0.95552897  0.74789875  1
  W  W0  1  0.50000000  -0.00000000  0.00000000  1
  W  W1  1  -0.00000000  0.50000000  0.50000000  1
  O  O0  1  0.22692246  0.18802975  0.95041339  1
  O  O1  1  0.26534492  0.69939604  0.53554436  1
  O  O2  1  0.77307754  0.81197025  0.04958661  1
  O  O3  1  0.73465508  0.30060396  0.46445564  1
  O  O4  1  0.30697798  0.73900727  0.95456816  1
  O  O5  1  0.17934124  0.22685661  0.54502391  1
  O  O6  1  0.69302202  0.26099273  0.04543184  1
  O  O7  1  0.82065876  0.77314339  0.45497609  1
  O  O8  1  0.40453667  0.99616846  0.22890567  1
  O  O9  1  0.07107877  0.46021439  0.26858127  1
  O  O10  1  0.59546333  0.00383154  0.77109433  1
  O  O11  1  0.92892123  0.53978561  0.73141873  1
loop_
_geom_bond_atom_site_label_1
_geom_bond_atom_site_label_2
_geom_bond_distance
_geom_bond_site_symmetry_2
Ba0 O6 2.660189 1_555
Ba0 O9 2.676023 1_555
Ba0 O3 2.683813 1_555
Ba0 O8 2.898862 1_555
Ba0 O2 2.917089 1_555
Ba0 O7 2.957705 1_555
Ba0 O1 3.037691 1_555
Ba0 O4 3.079516 1_554
Ba1 O4 2.660189 1_555
Ba1 O11 2.676023 1_555
Ba1 O1 2.683813 1_555
Ba1 O10 2.898862 1_555
Ba1 O0 2.917089 1_555
Ba1 O5 2.957705 1_555
Ba1 O3 3.037691 1_555
Ba1 O6 3.079516 1_556
Eu0 O8 2.518230 1_645
Eu0 O9 2.579934 1_655
Eu0 O2 2.592013 1_545
Eu0 O7 2.621941 1_545
Eu0 O6 2.841883 1_555
Eu0 O3 2.859464 1_555
Eu0 O5 2.966965 1_655
Eu0 O0 3.095735 1_654
Eu1 O10 2.518230 1_465
Eu1 O11 2.579934 1_455
Eu1 O0 2.592013 1_565
Eu1 O5 2.621941 1_565
Eu1 O4 2.841883 1_555
Eu1 O1 2.859464 1_555
Eu1 O7 2.966965 1_455
Eu1 O2 3.095735 1_456
O0 W0 2.046097 1_556
O0 Pr0 2.378015 1_556
O1 W1 2.030273 1_555
O1 Pr1 2.336809 1_565
O2 W0 2.046097 1_565
O2 Pr0 2.378015 1_655
O3 W1 2.030273 1_655
O3 Pr1 2.336809 1_555
O4 W0 2.006430 1_566
O4 Pr0 2.391103 1_556
O5 W1 2.018165 1_555
O5 Pr1 2.406978 1_555
O6 W0 2.006430 1_555
O6 Pr0 2.391103 1_655
O7 W1 2.018165 1_655
O7 Pr1 2.406978 1_565
O8 W0 2.054726 1_565
O8 Pr1 2.395871 1_565
O9 W1 2.051888 1_555
O9 Pr0 2.357733 1_555
O10 W0 2.054726 1_556
O10 Pr1 2.395871 1_555
O11 W1 2.051888 1_655
O11 Pr0 2.357733 1_656
