# generated using pymatgen
data_KOsNO3
_symmetry_space_group_name_H-M   'P 1'
_cell_length_a   5.81097300
_cell_length_b   5.81193016
_cell_length_c   7.83849473
_cell_angle_alpha   110.99055045
_cell_angle_beta   111.55788861
_cell_angle_gamma   89.98648426
_symmetry_Int_Tables_number   1
_chemical_formula_structural   KOsNO3
_chemical_formula_sum   'K2 Os2 N2 O6'
_cell_volume   227.22527378
_cell_formula_units_Z   2
loop_
 _symmetry_equiv_pos_site_id
 _symmetry_equiv_pos_as_xyz
  1  'x, y, z'
loop_
 _atom_site_type_symbol
 _atom_site_label
 _atom_site_symmetry_multiplicity
 _atom_site_fract_x
 _atom_site_fract_y
 _atom_site_fract_z
 _atom_site_occupancy
  K  K0  1  0.37447600  0.12477800  0.24951800  1
  K  K1  1  0.62476900  0.87699800  0.74950500  1
  Os  Os0  1  0.87688100  0.62421000  0.25170100  1
  Os  Os1  1  0.12378200  0.37548400  0.75162800  1
  N  N0  1  0.70440600  0.77084700  0.10527500  1
  N  N1  1  0.27000500  0.40213200  0.60520300  1
  O  O0  1  0.90196400  0.32534800  0.09763900  1
  O  O1  1  0.82470300  0.19675000  0.59773200  1
  O  O2  1  0.30715700  0.22056000  0.89839600  1
  O  O3  1  0.09746100  0.67865500  0.89746200  1
  O  O4  1  0.71844600  0.59792300  0.39898200  1
  O  O5  1  0.17594900  0.80631500  0.39695900  1
loop_
_geom_bond_atom_site_label_1
_geom_bond_atom_site_label_2
_geom_bond_distance
_geom_bond_site_symmetry_2
K0 O2 2.888640 1_554
K0 O1 2.899060 1_555
K0 O3 2.922444 1_544
K0 O5 2.933537 1_545
K0 N1 2.960354 1_555
K0 O4 2.983829 1_555
K0 O0 2.984265 1_455
K0 N0 3.018329 1_545
K1 O4 2.895207 1_555
K1 O5 2.915151 1_555
K1 O0 2.916966 1_566
K1 N0 2.942057 1_556
K1 O2 2.944001 1_565
K1 O1 2.969741 1_565
K1 O3 2.972213 1_655
K1 N1 3.032961 1_555
N0 Os0 1.703876 1_555
N1 Os1 1.705113 1_555
O0 Os0 1.767227 1_555
O1 Os1 1.765537 1_655
O2 Os1 1.763662 1_555
O3 Os1 1.766389 1_555
O4 Os0 1.763874 1_555
O5 Os0 1.766400 1_455
