# generated using pymatgen
data_Na4Mn9O18
_symmetry_space_group_name_H-M   'P 1'
_cell_length_a   2.92020000
_cell_length_b   9.22362500
_cell_length_c   26.52522400
_cell_angle_alpha   90.00000000
_cell_angle_beta   90.00000000
_cell_angle_gamma   90.00000000
_symmetry_Int_Tables_number   1
_chemical_formula_structural   Na4Mn9O18
_chemical_formula_sum   'Na8 Mn18 O36'
_cell_volume   714.45239186
_cell_formula_units_Z   2
loop_
 _symmetry_equiv_pos_site_id
 _symmetry_equiv_pos_as_xyz
  1  'x, y, z'
loop_
 _atom_site_type_symbol
 _atom_site_label
 _atom_site_symmetry_multiplicity
 _atom_site_fract_x
 _atom_site_fract_y
 _atom_site_fract_z
 _atom_site_occupancy
  Na  Na0  1  0.00000000  0.46921500  0.29742300  1
  Na  Na1  1  0.00000000  0.03372600  0.70602500  1
  Na  Na2  1  0.00000000  0.96627400  0.20602500  1
  Na  Na3  1  0.00000000  0.53078500  0.79742300  1
  Na  Na4  1  0.50000000  0.46407600  0.07911600  1
  Na  Na5  1  0.50000000  0.53592400  0.57911600  1
  Na  Na6  1  0.00000000  0.12307800  0.49766700  1
  Na  Na7  1  0.00000000  0.87692200  0.99766700  1
  Mn  Mn0  1  0.00000000  0.28771700  0.19549400  1
  Mn  Mn1  1  0.00000000  0.20753500  0.80842800  1
  Mn  Mn2  1  0.00000000  0.79246500  0.30842800  1
  Mn  Mn3  1  0.00000000  0.71228300  0.69549400  1
  Mn  Mn4  1  0.50000000  0.60671900  0.41332600  1
  Mn  Mn5  1  0.50000000  0.88731200  0.58849700  1
  Mn  Mn6  1  0.50000000  0.11268800  0.08849700  1
  Mn  Mn7  1  0.50000000  0.39328100  0.91332600  1
  Mn  Mn8  1  0.00000000  0.24266500  0.99872200  1
  Mn  Mn9  1  0.00000000  0.75733500  0.49872200  1
  Mn  Mn10  1  0.50000000  0.61530700  0.19319000  1
  Mn  Mn11  1  0.50000000  0.88327600  0.80790200  1
  Mn  Mn12  1  0.50000000  0.11672400  0.30790200  1
  Mn  Mn13  1  0.50000000  0.38469300  0.69319000  1
  Mn  Mn14  1  0.00000000  0.26854100  0.39041500  1
  Mn  Mn15  1  0.00000000  0.22786200  0.61071700  1
  Mn  Mn16  1  0.00000000  0.77213800  0.11071700  1
  Mn  Mn17  1  0.00000000  0.73145900  0.89041500  1
  O  O0  1  0.50000000  0.61983100  0.49682600  1
  O  O1  1  0.50000000  0.89716500  0.50543700  1
  O  O2  1  0.50000000  0.10283500  0.00543700  1
  O  O3  1  0.50000000  0.38016900  0.99682600  1
  O  O4  1  0.00000000  0.47320000  0.40292200  1
  O  O5  1  0.00000000  0.02549300  0.59344700  1
  O  O6  1  0.00000000  0.97450700  0.09344700  1
  O  O7  1  0.00000000  0.52680000  0.90292200  1
  O  O8  1  0.50000000  0.30472200  0.34032900  1
  O  O9  1  0.50000000  0.19429100  0.66050700  1
  O  O10  1  0.50000000  0.80570900  0.16050700  1
  O  O11  1  0.50000000  0.69527800  0.84032900  1
  O  O12  1  0.50000000  0.67358500  0.33340800  1
  O  O13  1  0.50000000  0.82560400  0.66649600  1
  O  O14  1  0.50000000  0.17439600  0.16649600  1
  O  O15  1  0.50000000  0.32641500  0.83340800  1
  O  O16  1  0.50000000  0.41767600  0.21808400  1
  O  O17  1  0.50000000  0.08224400  0.78324100  1
  O  O18  1  0.50000000  0.91775600  0.28324100  1
  O  O19  1  0.50000000  0.58232400  0.71808400  1
  O  O20  1  0.00000000  0.66797600  0.23661500  1
  O  O21  1  0.00000000  0.83201600  0.76354800  1
  O  O22  1  0.00000000  0.16798400  0.26354800  1
  O  O23  1  0.00000000  0.33202400  0.73661500  1
  O  O24  1  0.00000000  0.57237200  0.14402600  1
  O  O25  1  0.00000000  0.92345900  0.85477500  1
  O  O26  1  0.00000000  0.07654100  0.35477500  1
  O  O27  1  0.00000000  0.42762800  0.64402600  1
  O  O28  1  0.00000000  0.74589500  0.42645800  1
  O  O29  1  0.00000000  0.74698200  0.57415100  1
  O  O30  1  0.00000000  0.25301800  0.07415100  1
  O  O31  1  0.00000000  0.25410500  0.92645800  1
  O  O32  1  0.50000000  0.72741300  0.06708800  1
  O  O33  1  0.50000000  0.77706100  0.93302000  1
  O  O34  1  0.50000000  0.22293900  0.43302000  1
  O  O35  1  0.50000000  0.27258700  0.56708800  1
loop_
_geom_bond_atom_site_label_1
_geom_bond_atom_site_label_2
_geom_bond_distance
_geom_bond_site_symmetry_2
Na0 O8 2.393555 1_455
Na0 O8 2.393555 1_555
Na0 O20 2.441838 1_555
Na0 O12 2.568332 1_455
Na0 O12 2.568332 1_555
Na0 O16 2.605135 1_555
Na0 O16 2.605135 1_455
Na0 O4 2.798626 1_555
Na0 O22 2.920123 1_555
Na1 O9 2.404783 1_455
Na1 O9 2.404783 1_555
Na1 O21 2.406148 1_545
Na1 O17 2.554832 1_555
Na1 O17 2.554832 1_455
Na1 O13 2.629884 1_445
Na1 O13 2.629884 1_545
Na2 O10 2.404783 1_455
Na2 O10 2.404783 1_555
Na2 O22 2.406148 1_565
Na2 O18 2.554832 1_555
Na2 O18 2.554832 1_455
Na2 O14 2.629884 1_565
Na2 O14 2.629884 1_465
Na3 O11 2.393555 1_455
Na3 O11 2.393555 1_555
Na3 O23 2.441838 1_555
Na3 O15 2.568332 1_455
Na3 O15 2.568332 1_555
Na3 O19 2.605135 1_455
Na3 O19 2.605135 1_555
Na3 O7 2.798626 1_555
Na3 O21 2.920123 1_555
Na4 O3 2.315903 1_554
Na4 O30 2.436997 1_555
Na4 O30 2.436997 1_655
Na4 O32 2.449786 1_555
Na4 O24 2.468621 1_555
Na4 O24 2.468621 1_655
Na5 O0 2.315903 1_555
Na5 O29 2.436997 1_655
Na5 O29 2.436997 1_555
Na5 O35 2.449786 1_555
Na5 O27 2.468621 1_555
Na5 O27 2.468621 1_655
Na6 O34 2.433257 1_455
Na6 O34 2.433257 1_555
Na6 O1 2.552710 1_445
Na6 O1 2.552710 1_545
Na6 O5 2.695317 1_555
Na6 O35 2.724767 1_555
Na6 O35 2.724767 1_455
Na7 O33 2.433257 1_555
Na7 O33 2.433257 1_455
Na7 O2 2.552710 1_466
Na7 O2 2.552710 1_566
Na7 O6 2.695317 1_556
Na7 O32 2.724767 1_456
Na7 O32 2.724767 1_556
Mn0 O14 1.953467 1_455
Mn0 O14 1.953467 1_555
Mn0 O16 1.981869 1_555
Mn0 O16 1.981869 1_455
Mn0 O22 2.116175 1_555
Mn1 O15 1.942486 1_555
Mn1 O15 1.942486 1_455
Mn1 O17 1.978316 1_555
Mn1 O17 1.978316 1_455
Mn1 O23 2.224170 1_555
Mn2 O12 1.942486 1_555
Mn2 O12 1.942486 1_455
Mn2 O18 1.978316 1_555
Mn2 O18 1.978316 1_455
Mn2 O20 2.224170 1_555
Mn3 O13 1.953467 1_455
Mn3 O13 1.953467 1_555
Mn3 O19 1.981869 1_455
Mn3 O19 1.981869 1_555
Mn3 O21 2.116175 1_555
Mn4 O4 1.929952 1_555
Mn4 O4 1.929952 1_655
Mn4 O28 1.975128 1_555
Mn4 O28 1.975128 1_655
Mn4 O12 2.207739 1_555
Mn4 O0 2.218156 1_555
Mn5 O5 1.942565 1_665
Mn5 O5 1.942565 1_565
Mn5 O29 1.987974 1_555
Mn5 O29 1.987974 1_655
Mn5 O13 2.145804 1_555
Mn5 O1 2.205059 1_555
Mn6 O6 1.942565 1_545
Mn6 O6 1.942565 1_645
Mn6 O30 1.987974 1_555
Mn6 O30 1.987974 1_655
Mn6 O14 2.145804 1_555
Mn6 O2 2.205059 1_555
Mn7 O7 1.929952 1_555
Mn7 O7 1.929952 1_655
Mn7 O31 1.975128 1_555
Mn7 O31 1.975128 1_655
Mn7 O15 2.207739 1_555
Mn7 O3 2.218156 1_555
Mn8 O31 1.919721 1_555
Mn8 O3 1.934675 1_455
Mn8 O3 1.934675 1_555
Mn8 O2 1.956284 1_456
Mn8 O2 1.956284 1_556
Mn8 O30 2.003049 1_556
Mn9 O28 1.919721 1_555
Mn9 O0 1.934675 1_455
Mn9 O0 1.934675 1_555
Mn9 O1 1.956284 1_455
Mn9 O1 1.956284 1_555
Mn9 O29 2.003049 1_555
Mn10 O20 1.922152 1_655
Mn10 O20 1.922152 1_555
Mn10 O16 1.938786 1_555
Mn10 O10 1.958516 1_555
Mn10 O24 1.997339 1_555
Mn10 O24 1.997339 1_655
Mn11 O21 1.933801 1_555
Mn11 O21 1.933801 1_655
Mn11 O11 1.935631 1_555
Mn11 O17 1.948302 1_565
Mn11 O25 1.953227 1_555
Mn11 O25 1.953227 1_655
Mn12 O22 1.933801 1_555
Mn12 O22 1.933801 1_655
Mn12 O8 1.935631 1_555
Mn12 O18 1.948302 1_545
Mn12 O26 1.953227 1_555
Mn12 O26 1.953227 1_655
Mn13 O23 1.922152 1_555
Mn13 O23 1.922152 1_655
Mn13 O19 1.938786 1_555
Mn13 O9 1.958516 1_555
Mn13 O27 1.997339 1_555
Mn13 O27 1.997339 1_655
Mn14 O34 1.893661 1_455
Mn14 O34 1.893661 1_555
Mn14 O4 1.916628 1_555
Mn14 O8 2.002070 1_455
Mn14 O8 2.002070 1_555
Mn14 O26 2.007466 1_555
Mn15 O35 1.908230 1_455
Mn15 O35 1.908230 1_555
Mn15 O5 1.921966 1_555
Mn15 O9 1.992987 1_455
Mn15 O9 1.992987 1_555
Mn15 O27 2.043447 1_555
Mn16 O32 1.908230 1_555
Mn16 O32 1.908230 1_455
Mn16 O6 1.921966 1_555
Mn16 O10 1.992987 1_555
Mn16 O10 1.992987 1_455
Mn16 O24 2.043447 1_555
Mn17 O33 1.893661 1_555
Mn17 O33 1.893661 1_455
Mn17 O7 1.916628 1_555
Mn17 O11 2.002070 1_555
Mn17 O11 2.002070 1_455
Mn17 O25 2.007466 1_555
