# generated using pymatgen
data_Gd2Fe17C
_symmetry_space_group_name_H-M   'P 1'
_cell_length_a   6.37140720
_cell_length_b   6.32294927
_cell_length_c   6.37140720
_cell_angle_alpha   83.31189030
_cell_angle_beta   83.39731488
_cell_angle_gamma   83.31189030
_symmetry_Int_Tables_number   1
_chemical_formula_structural   Gd2Fe17C
_chemical_formula_sum   'Gd2 Fe17 C1'
_cell_volume   251.85564990
_cell_formula_units_Z   1
loop_
 _symmetry_equiv_pos_site_id
 _symmetry_equiv_pos_as_xyz
  1  'x, y, z'
loop_
 _atom_site_type_symbol
 _atom_site_label
 _atom_site_symmetry_multiplicity
 _atom_site_fract_x
 _atom_site_fract_y
 _atom_site_fract_z
 _atom_site_occupancy
  Gd  Gd0  1  0.65730800  0.64801000  0.65730800  1
  Gd  Gd1  1  0.34269200  0.35199000  0.34269200  1
  Fe  Fe0  1  0.90294300  0.90183700  0.90294300  1
  Fe  Fe1  1  0.09705700  0.09816300  0.09705700  1
  Fe  Fe2  1  0.34574600  0.85034900  0.34574600  1
  Fe  Fe3  1  0.85207800  0.34863900  0.34269800  1
  Fe  Fe4  1  0.34269800  0.34863900  0.85207800  1
  Fe  Fe5  1  0.65425400  0.14965100  0.65425400  1
  Fe  Fe6  1  0.14792200  0.65136100  0.65730200  1
  Fe  Fe7  1  0.65730200  0.65136100  0.14792200  1
  Fe  Fe8  1  0.71928400  0.00000000  0.28071600  1
  Fe  Fe9  1  0.99711600  0.28477400  0.71434500  1
  Fe  Fe10  1  0.28565500  0.71522600  0.00288400  1
  Fe  Fe11  1  0.00288400  0.71522600  0.28565500  1
  Fe  Fe12  1  0.71434500  0.28477400  0.99711600  1
  Fe  Fe13  1  0.28071600  0.00000000  0.71928400  1
  Fe  Fe14  1  0.00000000  0.50000000  0.00000000  1
  Fe  Fe15  1  0.50000000  0.00000000  0.00000000  1
  Fe  Fe16  1  0.00000000  0.00000000  0.50000000  1
  C  C0  1  0.50000000  0.00000000  0.50000000  1
loop_
_geom_bond_atom_site_label_1
_geom_bond_atom_site_label_2
_geom_bond_distance
_geom_bond_site_symmetry_2
Fe0 Fe1 2.380590 1_666
Fe0 Fe14 2.564456 1_656
Fe0 Fe16 2.590731 1_665
Fe0 Fe15 2.590731 1_566
Fe0 Fe7 2.614152 1_556
Fe0 Fe6 2.614152 1_655
Fe0 Fe5 2.626260 1_565
Fe0 Fe13 2.660642 1_665
Fe0 Fe8 2.660642 1_566
Fe0 Fe9 2.676094 1_565
Fe0 Fe12 2.676094 1_565
Fe0 Fe11 2.693596 1_656
Fe0 Fe10 2.693596 1_656
Fe0 Gd0 3.034457 1_555
Fe1 Fe14 2.564456 1_555
Fe1 Fe15 2.590731 1_555
Fe1 Fe16 2.590731 1_555
Fe1 Fe3 2.614152 1_455
Fe1 Fe4 2.614152 1_554
Fe1 Fe2 2.626260 1_545
Fe1 Fe13 2.660642 1_554
Fe1 Fe8 2.660642 1_455
Fe1 Fe10 2.676094 1_545
Fe1 Fe11 2.676094 1_545
Fe1 Fe12 2.693596 1_454
Fe1 Fe9 2.693596 1_454
Fe1 Gd1 3.034457 1_555
Fe2 Fe6 2.514831 1_555
Fe2 Fe7 2.514831 1_555
Fe3 Fe7 2.447751 1_555
Fe3 Fe5 2.514831 1_555
Fe3 Fe8 2.538774 1_555
Fe3 Fe9 2.611054 1_555
Fe3 Gd0 2.984249 1_555
Fe3 Gd1 3.128436 1_655
Fe3 Gd1 3.243111 1_555
Fe4 Fe6 2.447751 1_555
Fe4 Fe5 2.514831 1_555
Fe4 Fe9 2.552505 1_455
Fe4 Gd0 2.984249 1_555
Fe4 Gd1 3.128436 1_556
Fe4 Gd1 3.243111 1_555
Fe5 Fe9 2.520300 1_555
Fe6 Fe9 2.582685 1_455
Fe6 Gd1 2.984249 1_555
Fe6 Gd0 3.128436 1_455
Fe6 Gd0 3.243111 1_555
Fe7 Fe8 2.538774 1_565
Fe7 Gd1 2.984249 1_555
Fe7 Gd0 3.128436 1_554
Fe7 Gd0 3.243111 1_555
Fe9 Gd0 2.987095 1_555
Fe9 Gd1 3.069255 1_655
Fe10 Fe15 2.380531 1_565
Fe10 Fe11 2.396960 1_555
Fe10 Fe13 2.397961 1_564
Fe10 Fe14 2.399002 1_555
Fe10 Fe2 2.520300 1_555
Fe10 Fe6 2.552505 1_554
Fe10 Fe4 2.582685 1_554
Fe10 Fe7 2.611054 1_555
Fe10 Gd1 2.987095 1_555
Fe10 Gd0 3.069255 1_554
Fe11 Fe16 2.380531 1_565
Fe11 Fe8 2.397961 1_465
Fe11 Fe14 2.399002 1_555
Fe11 Fe2 2.520300 1_555
Fe11 Fe7 2.552505 1_455
Fe11 Fe3 2.582685 1_455
Fe11 Fe6 2.611054 1_555
Fe11 Gd1 2.987095 1_555
Fe11 Gd0 3.069255 1_455
Fe12 Fe15 2.380531 1_556
Fe12 Fe9 2.396960 1_555
Fe12 Fe8 2.397961 1_556
Fe12 Fe14 2.399002 1_656
Fe12 Fe5 2.520300 1_555
Fe12 Fe3 2.552505 1_556
Fe12 Fe7 2.582685 1_556
Fe12 Fe4 2.611054 1_555
Fe12 Gd0 2.987095 1_555
Fe12 Gd1 3.069255 1_556
Fe13 Fe15 2.392826 1_556
Fe13 Fe16 2.392826 1_555
Fe13 Fe9 2.397961 1_455
Fe13 Fe4 2.538774 1_555
Fe13 Fe6 2.538774 1_545
Fe14 Fe9 2.399002 1_454
Fe14 Fe6 2.412849 1_554
Fe14 Fe7 2.412849 1_455
Fe14 Fe4 2.412849 1_554
Fe14 Fe3 2.412849 1_455
Fe14 Gd0 3.248843 1_454
Fe14 Gd1 3.248843 1_555
Fe15 Fe8 2.392826 1_555
Fe15 Fe2 2.438690 1_545
Fe15 Fe5 2.438690 1_554
Fe15 Fe4 2.443540 1_554
Fe15 Fe7 2.443540 1_545
Fe15 Gd0 3.291557 1_544
Fe15 Gd1 3.291557 1_555
Fe16 Fe9 2.380531 1_455
Fe16 Fe8 2.392826 1_455
Fe16 Fe2 2.438690 1_545
Fe16 Fe5 2.438690 1_455
Fe16 Fe3 2.443540 1_455
Fe16 Fe6 2.443540 1_545
Fe16 Gd0 3.291557 1_445
Fe16 Gd1 3.291557 1_555
C0 Fe8 1.858801 1_555
C0 Fe13 1.858801 1_555
C0 Fe2 1.866167 1_545
C0 Fe5 1.866167 1_555
C0 Gd0 2.480786 1_545
C0 Gd1 2.480786 1_555
