# generated using pymatgen
data_Ba2YInSe5
_symmetry_space_group_name_H-M   'P 1'
_cell_length_a   9.80231590
_cell_length_b   9.80231590
_cell_length_c   13.55904600
_cell_angle_alpha   90.00000000
_cell_angle_beta   90.00000000
_cell_angle_gamma   154.56881748
_symmetry_Int_Tables_number   1
_chemical_formula_structural   Ba2YInSe5
_chemical_formula_sum   'Ba4 Y2 In2 Se10'
_cell_volume   559.46840486
_cell_formula_units_Z   2
loop_
 _symmetry_equiv_pos_site_id
 _symmetry_equiv_pos_as_xyz
  1  'x, y, z'
loop_
 _atom_site_type_symbol
 _atom_site_label
 _atom_site_symmetry_multiplicity
 _atom_site_fract_x
 _atom_site_fract_y
 _atom_site_fract_z
 _atom_site_occupancy
  Ba  Ba0  1  0.86743200  0.13256800  0.18641400  1
  Ba  Ba1  1  0.13256800  0.86743200  0.68641400  1
  Ba  Ba2  1  0.88261000  0.11739000  0.81910900  1
  Ba  Ba3  1  0.11739000  0.88261000  0.31910900  1
  Y  Y0  1  0.78870900  0.21129100  0.48174800  1
  Y  Y1  1  0.21129100  0.78870900  0.98174800  1
  In  In0  1  0.55272600  0.44727400  0.06359900  1
  In  In1  1  0.44727400  0.55272600  0.56359900  1
  Se  Se0  1  0.64433300  0.35566700  0.49971800  1
  Se  Se1  1  0.35566700  0.64433300  0.99971800  1
  Se  Se2  1  0.70915200  0.29084800  0.84294400  1
  Se  Se3  1  0.29084800  0.70915200  0.34294400  1
  Se  Se4  1  0.68675200  0.31324800  0.12901600  1
  Se  Se5  1  0.31324800  0.68675200  0.62901600  1
  Se  Se6  1  0.49520000  0.50480000  0.23351300  1
  Se  Se7  1  0.50480000  0.49520000  0.73351300  1
  Se  Se8  1  0.94907700  0.05092300  0.45083000  1
  Se  Se9  1  0.05092300  0.94907700  0.95083000  1
loop_
_geom_bond_atom_site_label_1
_geom_bond_atom_site_label_2
_geom_bond_distance
_geom_bond_site_symmetry_2
Ba0 Se6 3.321649 1_545
Ba0 Se6 3.321649 1_655
Ba0 Se1 3.333761 1_654
Ba0 Se1 3.333761 1_544
Ba0 Se3 3.362264 1_655
Ba0 Se3 3.362264 1_545
Ba0 Se4 3.541855 1_555
Ba0 Se8 3.910463 1_555
Ba1 Se7 3.321649 1_455
Ba1 Se7 3.321649 1_565
Ba1 Se0 3.333761 1_565
Ba1 Se0 3.333761 1_455
Ba1 Se2 3.362264 1_565
Ba1 Se2 3.362264 1_455
Ba1 Se5 3.541855 1_555
Ba1 Se9 3.910463 1_555
Ba2 Se1 3.304207 1_655
Ba2 Se1 3.304207 1_545
Ba2 Se2 3.332886 1_555
Ba2 Se7 3.385646 1_655
Ba2 Se7 3.385646 1_545
Ba2 Se5 3.613609 1_655
Ba2 Se5 3.613609 1_545
Ba2 Se9 3.681091 1_645
Ba3 Se0 3.304207 1_565
Ba3 Se0 3.304207 1_455
Ba3 Se3 3.332886 1_555
Ba3 Se6 3.385646 1_565
Ba3 Se6 3.385646 1_455
Ba3 Se4 3.613609 1_565
Ba3 Se4 3.613609 1_455
Ba3 Se8 3.681091 1_465
In0 Se6 2.553054 1_555
In0 Se9 2.644694 1_654
In0 Se9 2.644694 1_544
In0 Se4 2.712228 1_555
In1 Se7 2.553054 1_555
In1 Se8 2.644694 1_455
In1 Se8 2.644694 1_565
In1 Se5 2.712228 1_555
Se0 Y0 2.771751 1_555
Se1 Y1 2.771751 1_555
Se2 Y1 2.863397 1_655
Se2 Y1 2.863397 1_545
Se3 Y0 2.863397 1_565
Se3 Y0 2.863397 1_455
Se4 Y1 2.977036 1_544
Se4 Y1 2.977036 1_654
Se5 Y0 2.977036 1_455
Se5 Y0 2.977036 1_565
Se8 Y0 3.095369 1_555
Se9 Y1 3.095369 1_555
