# generated using pymatgen
data_Ba2CeCrO6
_symmetry_space_group_name_H-M   'P 1'
_cell_length_a   5.96282450
_cell_length_b   5.96282450
_cell_length_c   5.96282450
_cell_angle_alpha   60.00000000
_cell_angle_beta   60.00000000
_cell_angle_gamma   60.00000000
_symmetry_Int_Tables_number   1
_chemical_formula_structural   Ba2CeCrO6
_chemical_formula_sum   'Ba2 Ce1 Cr1 O6'
_cell_volume   149.91361753
_cell_formula_units_Z   1
loop_
 _symmetry_equiv_pos_site_id
 _symmetry_equiv_pos_as_xyz
  1  'x, y, z'
loop_
 _atom_site_type_symbol
 _atom_site_label
 _atom_site_symmetry_multiplicity
 _atom_site_fract_x
 _atom_site_fract_y
 _atom_site_fract_z
 _atom_site_occupancy
  Ba  Ba0  1  0.25000000  0.25000000  0.25000000  1
  Ba  Ba1  1  0.75000000  0.75000000  0.75000000  1
  Ce  Ce0  1  0.00000000  -0.00000000  0.00000000  1
  Cr  Cr0  1  0.50000000  0.50000000  0.50000000  1
  O  O0  1  0.73439851  0.26560149  0.26560149  1
  O  O1  1  0.26560149  0.73439851  0.73439851  1
  O  O2  1  0.73439851  0.26560149  0.73439851  1
  O  O3  1  0.26560149  0.73439851  0.26560149  1
  O  O4  1  0.73439851  0.73439851  0.26560149  1
  O  O5  1  0.26560149  0.26560149  0.73439851  1
loop_
_geom_bond_atom_site_label_1
_geom_bond_atom_site_label_2
_geom_bond_distance
_geom_bond_site_symmetry_2
Ba0 O3 2.984314 1_545
Ba0 O2 2.984314 1_455
Ba0 O2 2.984314 1_554
Ba0 O4 2.984314 1_545
Ba0 O5 2.984314 1_555
Ba0 O5 2.984314 1_554
Ba0 O0 2.984314 1_455
Ba0 O1 2.984314 1_545
Ba0 O3 2.984314 1_555
Ba0 O0 2.984314 1_555
Ba0 O4 2.984314 1_455
Ba0 O1 2.984314 1_554
Ba1 O3 2.984314 1_556
Ba1 O0 2.984314 1_556
Ba1 O2 2.984314 1_565
Ba1 O3 2.984314 1_655
Ba1 O4 2.984314 1_556
Ba1 O0 2.984314 1_565
Ba1 O5 2.984314 1_655
Ba1 O5 2.984314 1_565
Ba1 O1 2.984314 1_655
Ba1 O2 2.984314 1_555
Ba1 O4 2.984314 1_555
Ba1 O1 2.984314 1_555
Ce0 O0 2.239740 1_455
Ce0 O4 2.239740 1_445
Ce0 O3 2.239740 1_545
Ce0 O5 2.239740 1_554
Ce0 O2 2.239740 1_454
Ce0 O1 2.239740 1_544
Cr0 O5 1.976614 1_555
Cr0 O3 1.976614 1_555
Cr0 O0 1.976614 1_555
Cr0 O2 1.976614 1_555
Cr0 O4 1.976614 1_555
Cr0 O1 1.976614 1_555
