# generated using pymatgen
data_Mg6TiCd
_symmetry_space_group_name_H-M   'P 1'
_cell_length_a   4.97437900
_cell_length_b   6.34512600
_cell_length_c   10.94793500
_cell_angle_alpha   90.00000000
_cell_angle_beta   90.00000000
_cell_angle_gamma   90.00000000
_symmetry_Int_Tables_number   1
_chemical_formula_structural   Mg6TiCd
_chemical_formula_sum   'Mg12 Ti2 Cd2'
_cell_volume   345.55034600
_cell_formula_units_Z   2
loop_
 _symmetry_equiv_pos_site_id
 _symmetry_equiv_pos_as_xyz
  1  'x, y, z'
loop_
 _atom_site_type_symbol
 _atom_site_label
 _atom_site_symmetry_multiplicity
 _atom_site_fract_x
 _atom_site_fract_y
 _atom_site_fract_z
 _atom_site_occupancy
  Mg  Mg0  1  0.00000000  0.25201200  0.08222600  1
  Mg  Mg1  1  0.00000000  0.74798800  0.08222600  1
  Mg  Mg2  1  0.00000000  0.50000000  0.83472700  1
  Mg  Mg3  1  0.50000000  0.24480900  0.91474700  1
  Mg  Mg4  1  0.50000000  0.75519100  0.91474700  1
  Mg  Mg5  1  0.50000000  0.50000000  0.66703700  1
  Mg  Mg6  1  0.00000000  0.75201200  0.58222600  1
  Mg  Mg7  1  0.00000000  0.24798800  0.58222600  1
  Mg  Mg8  1  0.00000000  0.00000000  0.33472700  1
  Mg  Mg9  1  0.50000000  0.74480900  0.41474700  1
  Mg  Mg10  1  0.50000000  0.25519100  0.41474700  1
  Mg  Mg11  1  0.50000000  0.00000000  0.16703700  1
  Ti  Ti0  1  0.00000000  0.50000000  0.33257900  1
  Ti  Ti1  1  0.00000000  0.00000000  0.83257900  1
  Cd  Cd0  1  0.50000000  0.50000000  0.17171000  1
  Cd  Cd1  1  0.50000000  0.00000000  0.67171000  1
loop_
_geom_bond_atom_site_label_1
_geom_bond_atom_site_label_2
_geom_bond_distance
_geom_bond_site_symmetry_2
Mg0 Mg3 3.090324 1_554
Mg0 Mg3 3.090324 1_454
Mg0 Mg11 3.099224 1_455
Mg0 Mg11 3.099224 1_555
Mg0 Mg2 3.133353 1_554
Mg0 Mg1 3.147030 1_555
Mg0 Ti0 3.160411 1_555
Mg0 Ti1 3.166527 1_554
Mg0 Mg8 3.193535 1_555
Mg0 Mg1 3.198096 1_545
Mg1 Mg4 3.090324 1_554
Mg1 Mg4 3.090324 1_454
Mg1 Mg11 3.099224 1_565
Mg1 Mg11 3.099224 1_465
Mg1 Mg2 3.133353 1_554
Mg1 Ti0 3.160411 1_555
Mg1 Ti1 3.166527 1_564
Mg1 Mg8 3.193535 1_565
Mg2 Mg5 3.091357 1_455
Mg2 Mg5 3.091357 1_555
Mg2 Mg4 3.094423 1_455
Mg2 Mg4 3.094423 1_555
Mg2 Mg3 3.094423 1_555
Mg2 Mg3 3.094423 1_455
Mg2 Ti1 3.172650 1_555
Mg2 Ti1 3.172650 1_565
Mg2 Mg6 3.193535 1_555
Mg2 Mg7 3.193535 1_555
Mg3 Ti1 3.067281 1_655
Mg3 Ti1 3.067281 1_555
Mg3 Mg4 3.106688 1_545
Mg3 Mg5 3.158535 1_555
Mg3 Mg4 3.238438 1_555
Mg4 Ti1 3.067281 1_565
Mg4 Ti1 3.067281 1_665
Mg4 Mg5 3.158535 1_555
Mg5 Mg7 3.099224 1_655
Mg5 Mg6 3.099224 1_555
Mg5 Mg6 3.099224 1_655
Mg5 Mg7 3.099224 1_555
Mg5 Mg9 3.168883 1_555
Mg6 Mg9 3.090324 1_455
Mg6 Mg9 3.090324 1_555
Mg6 Mg8 3.133353 1_565
Mg6 Mg7 3.147030 1_565
Mg6 Ti1 3.160411 1_565
Mg6 Ti0 3.166527 1_555
Mg6 Mg7 3.198096 1_555
Mg7 Mg8 3.133353 1_555
Mg7 Ti1 3.160411 1_555
Mg7 Ti0 3.166527 1_555
Mg8 Mg9 3.094423 1_545
Mg8 Mg9 3.094423 1_445
Mg8 Ti0 3.172650 1_545
Mg8 Ti0 3.172650 1_555
Mg9 Ti0 3.067281 1_655
Mg9 Ti0 3.067281 1_555
Mg10 Ti0 3.067281 1_655
Mg10 Ti0 3.067281 1_555
Mg10 Mg7 3.090324 1_555
Mg10 Mg7 3.090324 1_655
Mg10 Mg8 3.094423 1_655
Mg10 Mg8 3.094423 1_555
Mg10 Mg9 3.106688 1_555
Mg10 Mg11 3.158535 1_555
Mg10 Mg5 3.168883 1_555
Mg10 Mg9 3.238438 1_545
Mg11 Mg8 3.091357 1_655
Mg11 Mg8 3.091357 1_555
Mg11 Mg9 3.158535 1_545
Mg11 Mg3 3.168883 1_554
Mg11 Mg4 3.168883 1_544
Cd0 Ti0 3.047602 1_555
Cd0 Ti0 3.047602 1_655
Cd0 Mg10 3.080988 1_555
Cd0 Mg9 3.080988 1_555
Cd0 Mg0 3.101903 1_555
Cd0 Mg0 3.101903 1_655
Cd0 Mg1 3.101903 1_655
Cd0 Mg1 3.101903 1_555
Cd0 Mg11 3.172975 1_565
Cd0 Mg11 3.172975 1_555
Cd0 Mg4 3.245927 1_554
Cd0 Mg3 3.245927 1_554
Cd1 Ti1 3.047602 1_655
Cd1 Ti1 3.047602 1_555
Cd1 Mg3 3.080988 1_555
Cd1 Mg4 3.080988 1_545
Cd1 Mg6 3.101903 1_545
Cd1 Mg7 3.101903 1_555
Cd1 Mg7 3.101903 1_655
Cd1 Mg6 3.101903 1_645
Cd1 Mg5 3.172975 1_545
Cd1 Mg5 3.172975 1_555
Cd1 Mg9 3.245927 1_545
Cd1 Mg10 3.245927 1_555
