# generated using pymatgen
data_CsSiSbO5
_symmetry_space_group_name_H-M   'P 1'
_cell_length_a   7.29214693
_cell_length_b   7.29214693
_cell_length_c   19.94927900
_cell_angle_alpha   90.00000000
_cell_angle_beta   90.00000000
_cell_angle_gamma   90.01543421
_symmetry_Int_Tables_number   1
_chemical_formula_structural   CsSiSbO5
_chemical_formula_sum   'Cs8 Si8 Sb8 O40'
_cell_volume   1060.81098997
_cell_formula_units_Z   8
loop_
 _symmetry_equiv_pos_site_id
 _symmetry_equiv_pos_as_xyz
  1  'x, y, z'
loop_
 _atom_site_type_symbol
 _atom_site_label
 _atom_site_symmetry_multiplicity
 _atom_site_fract_x
 _atom_site_fract_y
 _atom_site_fract_z
 _atom_site_occupancy
  Cs  Cs0  1  0.99972200  0.49893200  0.61346300  1
  Cs  Cs1  1  0.49893200  0.99972200  0.11346300  1
  Cs  Cs2  1  0.99972200  0.49893200  0.88653700  1
  Cs  Cs3  1  0.49893200  0.99972200  0.38653700  1
  Cs  Cs4  1  0.50006800  0.50006800  0.00000000  1
  Cs  Cs5  1  0.50006800  0.50006800  0.50000000  1
  Cs  Cs6  1  0.97524100  0.02730000  0.25000000  1
  Cs  Cs7  1  0.02730000  0.97524100  0.75000000  1
  Si  Si0  1  0.72465500  0.50035600  0.16934900  1
  Si  Si1  1  0.27483500  0.50025100  0.16939700  1
  Si  Si2  1  0.50035600  0.72465500  0.66934900  1
  Si  Si3  1  0.50025100  0.27483500  0.66939700  1
  Si  Si4  1  0.72465500  0.50035600  0.33065100  1
  Si  Si5  1  0.27483500  0.50025100  0.33060300  1
  Si  Si6  1  0.50025100  0.27483500  0.83060300  1
  Si  Si7  1  0.50035600  0.72465500  0.83065100  1
  Sb  Sb0  1  0.00010600  0.24840200  0.06578900  1
  Sb  Sb1  1  0.00008100  0.75189900  0.06603600  1
  Sb  Sb2  1  0.75189900  0.00008100  0.56603600  1
  Sb  Sb3  1  0.24840200  0.00010600  0.56578900  1
  Sb  Sb4  1  0.00008100  0.75189900  0.43396400  1
  Sb  Sb5  1  0.00010600  0.24840200  0.43421100  1
  Sb  Sb6  1  0.75189900  0.00008100  0.93396400  1
  Sb  Sb7  1  0.24840200  0.00010600  0.93421100  1
  O  O0  1  0.80414500  0.31152700  0.13596600  1
  O  O1  1  0.19609900  0.68845200  0.13559200  1
  O  O2  1  0.68875700  0.80384900  0.63579900  1
  O  O3  1  0.31149400  0.19545900  0.63591000  1
  O  O4  1  0.80384900  0.68875700  0.36420100  1
  O  O5  1  0.19545900  0.31149400  0.36409000  1
  O  O6  1  0.68845200  0.19609900  0.86440800  1
  O  O7  1  0.31152700  0.80414500  0.86403400  1
  O  O8  1  0.19609900  0.68845200  0.36440800  1
  O  O9  1  0.80414500  0.31152700  0.36403400  1
  O  O10  1  0.31149400  0.19545900  0.86409000  1
  O  O11  1  0.68875700  0.80384900  0.86420100  1
  O  O12  1  0.19545900  0.31149400  0.13591000  1
  O  O13  1  0.80384900  0.68875700  0.13579900  1
  O  O14  1  0.31152700  0.80414500  0.63596600  1
  O  O15  1  0.68845200  0.19609900  0.63559200  1
  O  O16  1  0.99976800  0.50013900  0.03116900  1
  O  O17  1  0.50013900  0.99976800  0.53116900  1
  O  O18  1  0.99976800  0.50013900  0.46883100  1
  O  O19  1  0.50013900  0.99976800  0.96883100  1
  O  O20  1  0.76663800  0.49884200  0.25000000  1
  O  O21  1  0.23321800  0.49923100  0.25000000  1
  O  O22  1  0.49884200  0.76663800  0.75000000  1
  O  O23  1  0.49923100  0.23321800  0.75000000  1
  O  O24  1  0.49985600  0.49999300  0.15957300  1
  O  O25  1  0.49999300  0.49985600  0.65957300  1
  O  O26  1  0.49985600  0.49999300  0.34042700  1
  O  O27  1  0.49999300  0.49985600  0.84042700  1
  O  O28  1  0.80070000  0.19940400  0.99998000  1
  O  O29  1  0.19940400  0.80070000  0.00002000  1
  O  O30  1  0.80087900  0.80087900  0.50000000  1
  O  O31  1  0.19961200  0.19961200  0.50000000  1
  O  O32  1  0.19940400  0.80070000  0.49998000  1
  O  O33  1  0.80070000  0.19940400  0.50002000  1
  O  O34  1  0.19961200  0.19961200  0.00000000  1
  O  O35  1  0.80087900  0.80087900  0.00000000  1
  O  O36  1  0.00012900  0.00024800  0.10624900  1
  O  O37  1  0.00024800  0.00012900  0.60624900  1
  O  O38  1  0.00012900  0.00024800  0.39375100  1
  O  O39  1  0.00024800  0.00012900  0.89375100  1
loop_
_geom_bond_atom_site_label_1
_geom_bond_atom_site_label_2
_geom_bond_distance
_geom_bond_site_symmetry_2
Cs0 O18 2.885318 1_555
Cs0 O15 3.197014 1_555
Cs0 O3 3.204562 1_655
Cs0 O2 3.207372 1_555
Cs0 O14 3.212817 1_655
Cs1 O19 2.885318 1_554
Cs1 O1 3.197014 1_555
Cs1 O12 3.204562 1_565
Cs1 O13 3.207372 1_555
Cs1 O0 3.212817 1_565
Cs2 O16 2.885318 1_556
Cs2 O6 3.197014 1_555
Cs2 O10 3.204562 1_655
Cs2 O11 3.207372 1_555
Cs2 O7 3.212817 1_655
Cs3 O17 2.885318 1_555
Cs3 O8 3.197014 1_555
Cs3 O5 3.204562 1_565
Cs3 O4 3.207372 1_555
Cs3 O9 3.212817 1_565
Cs4 O34 3.098081 1_555
Cs4 O28 3.100896 1_554
Cs4 O29 3.100896 1_555
Cs4 O35 3.101742 1_555
Cs4 O24 3.183367 1_555
Cs4 O27 3.183367 1_554
Cs5 O31 3.098081 1_555
Cs5 O33 3.100896 1_555
Cs5 O32 3.100896 1_555
Cs5 O30 3.101742 1_555
Cs5 O25 3.183367 1_555
Cs5 O26 3.183367 1_555
Cs6 O38 2.880233 1_655
Cs6 O36 2.880233 1_655
Cs7 O39 2.880233 1_565
Cs7 O37 2.880233 1_565
O0 Si0 1.635843 1_555
O0 Sb0 2.052843 1_655
O1 Si1 1.633501 1_555
O1 Sb1 2.045236 1_555
O2 Si2 1.633551 1_555
O2 Sb2 2.048454 1_565
O3 Si3 1.635690 1_555
O3 Sb3 2.048770 1_555
O4 Si4 1.633551 1_555
O4 Sb4 2.048454 1_655
O5 Si5 1.635690 1_555
O5 Sb5 2.048770 1_555
O6 Si6 1.633501 1_555
O6 Sb6 2.045236 1_555
O7 Si7 1.635843 1_555
O7 Sb7 2.052843 1_565
O8 Si5 1.633501 1_555
O8 Sb4 2.045236 1_555
O9 Si4 1.635843 1_555
O9 Sb5 2.052843 1_655
O10 Si6 1.635690 1_555
O10 Sb7 2.048770 1_555
O11 Si7 1.633551 1_555
O11 Sb6 2.048454 1_565
O12 Si1 1.635690 1_555
O12 Sb0 2.048770 1_555
O13 Si0 1.633551 1_555
O13 Sb1 2.048454 1_655
O14 Si2 1.635843 1_555
O14 Sb3 2.052843 1_565
O15 Si3 1.633501 1_555
O15 Sb2 2.045236 1_555
O16 Sb0 1.961327 1_655
O16 Sb1 1.963223 1_655
O17 Sb3 1.961327 1_565
O17 Sb2 1.963223 1_565
O18 Sb5 1.961327 1_655
O18 Sb4 1.963223 1_655
O19 Sb7 1.961327 1_565
O19 Sb6 1.963223 1_565
O20 Si4 1.637835 1_555
O20 Si0 1.637835 1_555
O21 Si5 1.636376 1_555
O21 Si1 1.636376 1_555
O22 Si7 1.637835 1_555
O22 Si2 1.637835 1_555
O23 Si3 1.636376 1_555
O23 Si6 1.636376 1_555
O24 Si0 1.650829 1_555
O24 Si1 1.652550 1_555
O25 Si2 1.650829 1_555
O25 Si3 1.652550 1_555
O26 Si4 1.650829 1_555
O26 Si5 1.652550 1_555
O27 Si7 1.650829 1_555
O27 Si6 1.652550 1_555
O28 Sb0 1.991316 1_656
O28 Sb6 1.993343 1_555
O29 Sb7 1.991316 1_564
O29 Sb1 1.993343 1_555
O30 Sb2 1.993337 1_565
O30 Sb4 1.993337 1_655
O31 Sb3 1.991454 1_555
O31 Sb5 1.991454 1_555
O32 Sb3 1.991316 1_565
O32 Sb4 1.993343 1_555
O33 Sb5 1.991316 1_655
O33 Sb2 1.993343 1_555
O34 Sb0 1.991454 1_555
O34 Sb7 1.991454 1_554
O35 Sb1 1.993337 1_655
O35 Sb6 1.993337 1_564
O36 Sb1 1.980724 1_545
O36 Sb0 1.981427 1_555
O37 Sb2 1.980724 1_455
O37 Sb3 1.981427 1_555
O38 Sb4 1.980724 1_545
O38 Sb5 1.981427 1_555
O39 Sb6 1.980724 1_455
O39 Sb7 1.981427 1_555
