# generated using pymatgen
data_TiGeOs
_symmetry_space_group_name_H-M   'P 1'
_cell_length_a   6.58299703
_cell_length_b   7.22627933
_cell_length_c   7.49021791
_cell_angle_alpha   118.84081578
_cell_angle_beta   116.06818100
_cell_angle_gamma   90.00008452
_symmetry_Int_Tables_number   1
_chemical_formula_structural   TiGeOs
_chemical_formula_sum   'Ti6 Ge6 Os6'
_cell_volume   270.00117323
_cell_formula_units_Z   6
loop_
 _symmetry_equiv_pos_site_id
 _symmetry_equiv_pos_as_xyz
  1  'x, y, z'
loop_
 _atom_site_type_symbol
 _atom_site_label
 _atom_site_symmetry_multiplicity
 _atom_site_fract_x
 _atom_site_fract_y
 _atom_site_fract_z
 _atom_site_occupancy
  Ti  Ti0  1  0.24052667  0.47869042  0.45736570  1
  Ti  Ti1  1  0.78313040  0.52130323  0.54262246  1
  Ti  Ti2  1  0.66604923  0.74919870  0.99837858  1
  Ti  Ti3  1  0.66763562  0.25079204  0.00160180  1
  Ti  Ti4  1  0.85220190  0.05508803  0.61016753  1
  Ti  Ti5  1  0.24204275  0.94490781  0.38982365  1
  Ge  Ge0  1  0.29450706  0.28813893  0.07628092  1
  Ge  Ge1  1  0.21819920  0.71186594  0.92372807  1
  Ge  Ge2  1  0.57909794  0.83910749  0.66568239  1
  Ge  Ge3  1  0.91341562  0.16089919  0.33432465  1
  Ge  Ge4  1  0.91340707  0.67343015  0.33432260  1
  Ge  Ge5  1  0.57909131  0.32656860  0.66568430  1
  Os  Os0  1  0.99636640  0.00002450  0.00001400  1
  Os  Os1  1  0.99637328  0.49999080  0.00001386  1
  Os  Os2  1  0.50107322  0.66754693  0.25297296  1
  Os  Os3  1  0.24810067  0.33246191  0.74702201  1
  Os  Os4  1  0.24810475  0.91457219  0.74702491  1
  Os  Os5  1  0.50107490  0.08541512  0.25297062  1
loop_
_geom_bond_atom_site_label_1
_geom_bond_atom_site_label_2
_geom_bond_distance
_geom_bond_site_symmetry_2
Ge0 Os2 2.456678 1_555
Ge0 Os5 2.456716 1_555
Ge0 Os4 2.525426 1_544
Ge0 Os3 2.525483 1_554
Ge0 Os1 2.525907 1_455
Ge0 Os0 2.525913 1_455
Ge0 Ti0 2.696206 1_555
Ge0 Ti3 2.735154 1_555
Ge0 Ti4 2.982695 1_454
Ge0 Ti1 3.135887 1_555
Ge1 Os3 2.456717 1_555
Ge1 Os4 2.456750 1_555
Ge1 Os5 2.525377 1_566
Ge1 Os2 2.525434 1_556
Ge1 Os1 2.525951 1_456
Ge1 Os0 2.525975 1_466
Ge1 Ti1 2.696269 1_455
Ge1 Ti2 2.735495 1_555
Ge1 Ti5 2.982476 1_556
Ge1 Ti0 3.136190 1_555
Ge2 Os4 2.502509 1_555
Ge2 Os2 2.502800 1_555
Ge2 Os0 2.512693 1_566
Ge2 Ti1 2.640764 1_555
Ge2 Ti3 2.647728 1_566
Ge2 Ti4 2.669114 1_565
Ge2 Ti0 2.684850 1_555
Ge2 Ti2 2.695924 1_555
Ge2 Ti5 2.696628 1_555
Ge3 Os5 2.502523 1_555
Ge3 Os3 2.502741 1_655
Ge3 Os0 2.512627 1_555
Ge3 Ti0 2.640835 1_655
Ge3 Ti2 2.647810 1_544
Ge3 Ti5 2.669200 1_645
Ge3 Ti1 2.684871 1_555
Ge3 Ti3 2.696045 1_555
Ge3 Ti4 2.696620 1_555
Ge4 Os2 2.502478 1_555
Ge4 Os4 2.502795 1_655
Ge4 Os1 2.512682 1_555
Ge4 Ti0 2.640823 1_655
Ge4 Ti2 2.647847 1_554
Ge4 Ti5 2.669170 1_655
Ge4 Ti1 2.684947 1_555
Ge4 Ti3 2.696151 1_555
Ge4 Ti4 2.696626 1_565
Ge5 Os3 2.502458 1_555
Ge5 Os5 2.502849 1_555
Ge5 Os1 2.512749 1_556
Ge5 Ti1 2.640749 1_555
Ge5 Ti3 2.647751 1_556
Ge5 Ti4 2.669083 1_555
Ge5 Ti0 2.684935 1_555
Ge5 Ti2 2.696046 1_555
Ge5 Ti5 2.696619 1_545
Os0 Ti3 2.822904 1_555
Os0 Ti2 2.822933 1_544
Os0 Ti4 2.875931 1_554
Os0 Ti5 2.875937 1_645
Os1 Ti3 2.823024 1_555
Os1 Ti2 2.823053 1_554
Os1 Ti5 2.875899 1_655
Os1 Ti4 2.875903 1_554
Os2 Ti5 2.744031 1_555
Os2 Ti4 2.771274 1_565
Os2 Ti1 2.818310 1_555
Os2 Ti2 2.840751 1_554
Os3 Ti4 2.744157 1_455
Os3 Ti5 2.771365 1_545
Os3 Ti0 2.818315 1_555
Os3 Ti3 2.840624 1_556
Os4 Ti4 2.744167 1_465
Os4 Ti5 2.771287 1_555
Os4 Ti0 2.818305 1_555
Os4 Ti3 2.840497 1_566
Os5 Ti5 2.744037 1_545
Os5 Ti4 2.771198 1_555
Os5 Ti1 2.818284 1_555
Os5 Ti2 2.840630 1_544
