# generated using pymatgen
data_Y(VS2)2
_symmetry_space_group_name_H-M   'P 1'
_cell_length_a   7.43890420
_cell_length_b   7.43890420
_cell_length_c   7.43890420
_cell_angle_alpha   120.69979257
_cell_angle_beta   118.10619660
_cell_angle_gamma   91.05160353
_symmetry_Int_Tables_number   1
_chemical_formula_structural   Y(VS2)2
_chemical_formula_sum   'Y2 V4 S8'
_cell_volume   293.46888978
_cell_formula_units_Z   2
loop_
 _symmetry_equiv_pos_site_id
 _symmetry_equiv_pos_as_xyz
  1  'x, y, z'
loop_
 _atom_site_type_symbol
 _atom_site_label
 _atom_site_symmetry_multiplicity
 _atom_site_fract_x
 _atom_site_fract_y
 _atom_site_fract_z
 _atom_site_occupancy
  Y  Y0  1  0.50000000  0.50000000  0.00000000  1
  Y  Y1  1  0.00000000  0.50000000  0.50000000  1
  V  V0  1  0.88682400  0.13682400  0.75000000  1
  V  V1  1  0.11317600  0.86317600  0.25000000  1
  V  V2  1  0.50000000  0.50000000  0.50000000  1
  V  V3  1  0.50000000  0.00000000  0.00000000  1
  S  S0  1  0.28657500  0.76086500  0.52571100  1
  S  S1  1  0.73515400  0.76086500  0.97428900  1
  S  S2  1  0.26101800  0.77097900  0.00996100  1
  S  S3  1  0.71342500  0.23913500  0.47428900  1
  S  S4  1  0.73898200  0.74894300  0.50996100  1
  S  S5  1  0.26484600  0.23913500  0.02571100  1
  S  S6  1  0.26101800  0.25105700  0.49003900  1
  S  S7  1  0.73898200  0.22902100  0.99003900  1
loop_
_geom_bond_atom_site_label_1
_geom_bond_atom_site_label_2
_geom_bond_distance
_geom_bond_site_symmetry_2
S0 V1 2.363652 1_555
S0 V3 2.518558 1_566
S0 V2 2.518563 1_555
S0 Y1 2.726152 1_555
S1 V1 2.363653 1_656
S1 V3 2.518558 1_566
S1 V2 2.518558 1_555
S1 Y0 2.726158 1_556
S2 V1 2.344333 1_555
S2 V3 2.492039 1_565
S2 Y0 2.707854 1_555
S2 Y1 2.707854 1_554
S3 V0 2.363652 1_555
S3 V3 2.518558 1_555
S3 V2 2.518563 1_555
S3 Y1 2.726152 1_655
S4 V0 2.344333 1_565
S4 V2 2.492039 1_555
S4 Y1 2.707854 1_655
S4 Y0 2.707854 1_555
S5 V0 2.363653 1_454
S5 V3 2.518558 1_555
S5 V2 2.518558 1_555
S5 Y0 2.726158 1_555
S6 V1 2.344333 1_545
S6 V2 2.492039 1_555
S6 Y1 2.707854 1_555
S6 Y0 2.707854 1_556
S7 V0 2.344333 1_555
S7 V3 2.492039 1_556
S7 Y0 2.707854 1_556
S7 Y1 2.707854 1_656
