# generated using pymatgen
data_In3NF10
_symmetry_space_group_name_H-M   'P 1'
_cell_length_a   6.84611500
_cell_length_b   8.14814200
_cell_length_c   8.36581400
_cell_angle_alpha   90.00000000
_cell_angle_beta   90.00000000
_cell_angle_gamma   90.00000000
_symmetry_Int_Tables_number   1
_chemical_formula_structural   In3NF10
_chemical_formula_sum   'In6 N2 F20'
_cell_volume   466.67118257
_cell_formula_units_Z   2
loop_
 _symmetry_equiv_pos_site_id
 _symmetry_equiv_pos_as_xyz
  1  'x, y, z'
loop_
 _atom_site_type_symbol
 _atom_site_label
 _atom_site_symmetry_multiplicity
 _atom_site_fract_x
 _atom_site_fract_y
 _atom_site_fract_z
 _atom_site_occupancy
  In  In0  1  0.00000000  0.01029400  0.25000000  1
  In  In1  1  0.00000000  0.98970600  0.75000000  1
  In  In2  1  0.50000000  0.74359900  0.25000000  1
  In  In3  1  0.50000000  0.25640100  0.75000000  1
  In  In4  1  0.50000000  0.27627500  0.25000000  1
  In  In5  1  0.50000000  0.72372500  0.75000000  1
  N  N0  1  0.98048200  0.50000000  0.00000000  1
  N  N1  1  0.01951800  0.50000000  0.50000000  1
  F  F0  1  0.33065000  0.50938000  0.24377600  1
  F  F1  1  0.66935000  0.49062000  0.74377600  1
  F  F2  1  0.66935000  0.50938000  0.25622400  1
  F  F3  1  0.33065000  0.49062000  0.75622400  1
  F  F4  1  0.50000000  0.00998000  0.25000000  1
  F  F5  1  0.50000000  0.99002000  0.75000000  1
  F  F6  1  0.20060300  0.18539800  0.73081500  1
  F  F7  1  0.79939700  0.81460200  0.23081500  1
  F  F8  1  0.79939700  0.18539800  0.76918500  1
  F  F9  1  0.20060300  0.81460200  0.26918500  1
  F  F10  1  0.49207900  0.27749300  0.99978900  1
  F  F11  1  0.50792100  0.72250700  0.49978900  1
  F  F12  1  0.50792100  0.27749300  0.50021100  1
  F  F13  1  0.49207900  0.72250700  0.00021100  1
  F  F14  1  0.02706700  0.00000000  0.00000000  1
  F  F15  1  0.97293300  0.00000000  0.50000000  1
  F  F16  1  0.19754700  0.20885200  0.24829400  1
  F  F17  1  0.80245300  0.79114800  0.74829400  1
  F  F18  1  0.80245300  0.20885200  0.25170600  1
  F  F19  1  0.19754700  0.79114800  0.75170600  1
loop_
_geom_bond_atom_site_label_1
_geom_bond_atom_site_label_2
_geom_bond_distance
_geom_bond_site_symmetry_2
F0 In4 2.225873 1_555
F0 In2 2.233624 1_555
F1 In5 2.225873 1_555
F1 In3 2.233624 1_555
F2 In4 2.225873 1_555
F2 In2 2.233624 1_555
F3 In5 2.225873 1_555
F3 In3 2.233624 1_555
F4 In4 2.169809 1_555
F4 In2 2.170510 1_545
F5 In5 2.169809 1_555
F5 In3 2.170510 1_565
F6 In1 2.110537 1_545
F6 In3 2.135829 1_555
F7 In0 2.110537 1_665
F7 In2 2.135829 1_555
F8 In1 2.110537 1_645
F8 In3 2.135829 1_555
F9 In0 2.110537 1_565
F9 In2 2.135829 1_555
F10 In4 2.093945 1_556
F10 In3 2.097445 1_555
F11 In5 2.093945 1_555
F11 In2 2.097445 1_555
F12 In4 2.093945 1_555
F12 In3 2.097445 1_555
F13 In5 2.093945 1_554
F13 In2 2.097445 1_555
F14 In1 2.101321 1_544
F14 In0 2.101321 1_555
F15 In0 2.101321 1_655
F15 In1 2.101321 1_645
F16 In0 2.108744 1_555
F16 In4 2.142315 1_555
F17 In1 2.108744 1_655
F17 In5 2.142315 1_555
F18 In0 2.108744 1_655
F18 In4 2.142315 1_555
F19 In1 2.108744 1_555
F19 In5 2.142315 1_555
