# generated using pymatgen
data_ZnAgPO4
_symmetry_space_group_name_H-M   'P 1'
_cell_length_a   8.39080600
_cell_length_b   10.29286582
_cell_length_c   10.29904956
_cell_angle_alpha   119.86696045
_cell_angle_beta   90.54050729
_cell_angle_gamma   89.74266297
_symmetry_Int_Tables_number   1
_chemical_formula_structural   ZnAgPO4
_chemical_formula_sum   'Zn8 Ag8 P8 O32'
_cell_volume   771.31022146
_cell_formula_units_Z   8
loop_
 _symmetry_equiv_pos_site_id
 _symmetry_equiv_pos_as_xyz
  1  'x, y, z'
loop_
 _atom_site_type_symbol
 _atom_site_label
 _atom_site_symmetry_multiplicity
 _atom_site_fract_x
 _atom_site_fract_y
 _atom_site_fract_z
 _atom_site_occupancy
  Zn  Zn0  1  0.74413400  0.33176400  0.66523300  1
  Zn  Zn1  1  0.24404200  0.66612100  0.33444000  1
  Zn  Zn2  1  0.69479000  0.32833000  0.14743800  1
  Zn  Zn3  1  0.69554200  0.85175400  0.18014300  1
  Zn  Zn4  1  0.69232800  0.81947100  0.67243200  1
  Zn  Zn5  1  0.19514200  0.67143900  0.85252900  1
  Zn  Zn6  1  0.19251600  0.14884500  0.82093800  1
  Zn  Zn7  1  0.19499400  0.18145500  0.32772700  1
  Ag  Ag0  1  0.02340800  0.97461800  0.48362500  1
  Ag  Ag1  1  0.02765400  0.51432900  0.49066800  1
  Ag  Ag2  1  0.02150700  0.50973100  0.02979100  1
  Ag  Ag3  1  0.52478400  0.02534800  0.51653600  1
  Ag  Ag4  1  0.52276800  0.48267600  0.50873100  1
  Ag  Ag5  1  0.52498300  0.48952000  0.97270400  1
  Ag  Ag6  1  0.01745900  0.99937700  0.00019800  1
  Ag  Ag7  1  0.51748000  0.99945000  0.00060500  1
  P  P0  1  0.32587600  0.33212900  0.66442900  1
  P  P1  1  0.82587100  0.66440400  0.33325900  1
  P  P2  1  0.31580000  0.32296700  0.13839200  1
  P  P3  1  0.31217700  0.86037100  0.18568500  1
  P  P4  1  0.31172900  0.81641000  0.67767100  1
  P  P5  1  0.81270200  0.67458100  0.85995400  1
  P  P6  1  0.81245700  0.13884300  0.81619300  1
  P  P7  1  0.81452500  0.18464900  0.32256300  1
  O  O0  1  0.30551500  0.18381900  0.15999600  1
  O  O1  1  0.30276500  0.84114200  0.02599400  1
  O  O2  1  0.30340000  0.97653500  0.81676400  1
  O  O3  1  0.80504200  0.81490000  0.84021300  1
  O  O4  1  0.80428700  0.15982700  0.97650600  1
  O  O5  1  0.80204900  0.02446700  0.18339700  1
  O  O6  1  0.30458800  0.46681900  0.29424400  1
  O  O7  1  0.29018300  0.70437200  0.17229400  1
  O  O8  1  0.29366200  0.82932700  0.53407500  1
  O  O9  1  0.79065500  0.53244900  0.70379400  1
  O  O10  1  0.79542000  0.29508400  0.82855600  1
  O  O11  1  0.80263700  0.17274700  0.46654300  1
  O  O12  1  0.28522200  0.47949500  0.81144900  1
  O  O13  1  0.25633100  0.19379200  0.66641300  1
  O  O14  1  0.26077200  0.34024000  0.52656100  1
  O  O15  1  0.76095300  0.52690300  0.18774000  1
  O  O16  1  0.78386700  0.81187000  0.33307100  1
  O  O17  1  0.75745900  0.66613600  0.47347400  1
  O  O18  1  0.47717000  0.31698900  0.06133000  1
  O  O19  1  0.47761000  0.92932900  0.25711400  1
  O  O20  1  0.47502200  0.74427100  0.68002000  1
  O  O21  1  0.97759700  0.67203100  0.93059900  1
  O  O22  1  0.97511500  0.06463500  0.74513200  1
  O  O23  1  0.97704100  0.25492000  0.31685500  1
  O  O24  1  0.17953700  0.31642800  0.03037100  1
  O  O25  1  0.18131300  0.97275400  0.28769200  1
  O  O26  1  0.17798300  0.71549600  0.68629400  1
  O  O27  1  0.68087400  0.68446700  0.97097400  1
  O  O28  1  0.67794200  0.02931300  0.71487300  1
  O  O29  1  0.67991300  0.28670200  0.31521200  1
  O  O30  1  0.50941800  0.31416600  0.65073800  1
  O  O31  1  0.00965300  0.65009500  0.33672900  1
loop_
_geom_bond_atom_site_label_1
_geom_bond_atom_site_label_2
_geom_bond_distance
_geom_bond_site_symmetry_2
Ag0 O22 2.410029 1_465
Ag0 O25 2.416512 1_555
Ag0 O16 2.575791 1_455
Ag1 O23 2.397802 1_455
Ag1 O26 2.399633 1_555
Ag1 O31 2.586378 1_555
Ag2 O21 2.378476 1_454
Ag2 O24 2.388508 1_555
Ag3 O19 2.371829 1_545
Ag3 O28 2.386140 1_555
Ag3 O30 2.583010 1_555
Ag4 O20 2.407336 1_555
Ag4 O29 2.408601 1_555
Ag5 O18 2.403206 1_556
Ag5 O27 2.407745 1_555
Ag5 O12 2.565980 1_555
Ag6 O4 2.520503 1_464
Ag6 O3 2.521119 1_454
Ag6 O5 2.543303 1_465
Ag7 O2 2.522323 1_554
Ag7 O0 2.526135 1_565
Ag7 O1 2.535537 1_555
O0 P2 1.557917 1_555
O0 Zn7 1.979150 1_555
O1 P3 1.556862 1_555
O1 Zn5 1.983416 1_554
O2 P4 1.556516 1_555
O2 Zn6 1.980664 1_565
O3 P5 1.556537 1_555
O3 Zn4 1.983015 1_555
O4 P6 1.556990 1_555
O4 Zn2 1.981557 1_556
O5 P7 1.558428 1_555
O5 Zn3 1.978488 1_545
O6 P2 1.553106 1_555
O6 Zn1 1.945883 1_555
O7 P3 1.553352 1_555
O7 Zn1 1.939597 1_555
O8 P4 1.555388 1_555
O8 Zn1 1.942363 1_555
O9 P5 1.553863 1_555
O9 Zn0 1.940147 1_555
O10 P6 1.554732 1_555
O10 Zn0 1.942799 1_555
O11 P7 1.551661 1_555
O11 Zn0 1.945053 1_555
O12 P0 1.558020 1_555
O12 Zn5 1.952850 1_555
O13 P0 1.550821 1_555
O13 Zn6 1.945532 1_555
O14 P0 1.557096 1_555
O14 Zn7 1.955158 1_555
O15 P1 1.557184 1_555
O15 Zn2 1.954189 1_555
O16 P1 1.557624 1_555
O16 Zn3 1.953885 1_555
O17 P1 1.550841 1_555
O17 Zn4 1.944403 1_555
O18 P2 1.561397 1_555
O18 Zn2 2.000664 1_555
O19 P3 1.562488 1_555
O19 Zn3 1.998413 1_555
O20 P4 1.561212 1_555
O20 Zn4 2.001379 1_555
O21 P5 1.563365 1_555
O21 Zn5 2.000311 1_655
O22 P6 1.560296 1_555
O22 Zn6 2.000440 1_655
O23 P7 1.561679 1_555
O23 Zn7 1.999220 1_655
O24 P2 1.565757 1_555
O24 Zn6 1.984139 1_554
O25 P3 1.564445 1_555
O25 Zn7 1.979096 1_565
O26 P4 1.565380 1_555
O26 Zn5 1.981297 1_555
O27 P5 1.564687 1_555
O27 Zn3 1.980716 1_556
O28 P6 1.565674 1_555
O28 Zn4 1.982185 1_545
O29 P7 1.565829 1_555
O29 Zn2 1.981612 1_555
O30 P0 1.549659 1_555
O30 Zn0 1.976001 1_555
O31 P1 1.550206 1_455
O31 Zn1 1.975699 1_555
