# generated using pymatgen
data_Li9Mn2Co5O16
_symmetry_space_group_name_H-M   'P 1'
_cell_length_a   5.75184100
_cell_length_b   5.18266400
_cell_length_c   9.72992499
_cell_angle_alpha   81.78286421
_cell_angle_beta   90.00000000
_cell_angle_gamma   90.00000000
_symmetry_Int_Tables_number   1
_chemical_formula_structural   Li9Mn2Co5O16
_chemical_formula_sum   'Li9 Mn2 Co5 O16'
_cell_volume   287.06992863
_cell_formula_units_Z   1
loop_
 _symmetry_equiv_pos_site_id
 _symmetry_equiv_pos_as_xyz
  1  'x, y, z'
loop_
 _atom_site_type_symbol
 _atom_site_label
 _atom_site_symmetry_multiplicity
 _atom_site_fract_x
 _atom_site_fract_y
 _atom_site_fract_z
 _atom_site_occupancy
  Li  Li0  1  0.74889100  0.50000000  0.00000000  1
  Li  Li1  1  0.50000000  0.24187900  0.26056100  1
  Li  Li2  1  0.25215100  0.00000000  0.50000000  1
  Li  Li3  1  0.50000000  0.75812100  0.73943900  1
  Li  Li4  1  0.25110900  0.50000000  0.00000000  1
  Li  Li5  1  0.00000000  0.25645500  0.25413600  1
  Li  Li6  1  0.00000000  0.74354500  0.74586400  1
  Li  Li7  1  0.74784900  0.00000000  0.50000000  1
  Li  Li8  1  0.50000000  0.50000000  0.50000000  1
  Mn  Mn0  1  0.00000000  0.00000000  0.00000000  1
  Mn  Mn1  1  0.50000000  0.00000000  0.00000000  1
  Co  Co0  1  0.74826600  0.73597100  0.25874800  1
  Co  Co1  1  0.25173400  0.26402900  0.74125200  1
  Co  Co2  1  0.25173400  0.73597100  0.25874800  1
  Co  Co3  1  0.00000000  0.50000000  0.50000000  1
  Co  Co4  1  0.74826600  0.26402900  0.74125200  1
  O  O0  1  0.74731800  0.88897200  0.88527200  1
  O  O1  1  0.50000000  0.65780000  0.11868800  1
  O  O2  1  0.23243600  0.39584200  0.38117900  1
  O  O3  1  0.50000000  0.12577600  0.64025800  1
  O  O4  1  0.25268200  0.88897200  0.88527200  1
  O  O5  1  0.00000000  0.62921800  0.14042300  1
  O  O6  1  0.00000000  0.16261300  0.61436900  1
  O  O7  1  0.76756400  0.39584200  0.38117900  1
  O  O8  1  0.74731800  0.11102800  0.11472800  1
  O  O9  1  0.50000000  0.87422400  0.35974200  1
  O  O10  1  0.23243600  0.60415800  0.61882100  1
  O  O11  1  0.50000000  0.34220000  0.88131200  1
  O  O12  1  0.25268200  0.11102800  0.11472800  1
  O  O13  1  0.00000000  0.83738700  0.38563100  1
  O  O14  1  0.00000000  0.37078200  0.85957700  1
  O  O15  1  0.76756400  0.60415800  0.61882100  1
loop_
_geom_bond_atom_site_label_1
_geom_bond_atom_site_label_2
_geom_bond_distance
_geom_bond_site_symmetry_2
Li0 O1 2.078907 1_555
Li0 O11 2.078907 1_554
Li0 O5 2.159386 1_655
Li0 O14 2.159386 1_654
Li0 O0 2.160285 1_554
Li0 O8 2.160285 1_555
Li1 O9 2.009061 1_545
Li1 O7 2.156436 1_555
Li1 O2 2.156436 1_555
Li1 O8 2.184483 1_555
Li1 O12 2.184483 1_555
Li1 O1 2.387779 1_555
Li2 O6 2.078492 1_555
Li2 O13 2.078492 1_545
Li2 O3 2.138670 1_555
Li2 O9 2.138670 1_545
Li2 O2 2.209120 1_555
Li2 O10 2.209120 1_545
Li3 O3 2.009061 1_565
Li3 O15 2.156436 1_555
Li3 O10 2.156436 1_555
Li3 O0 2.184483 1_555
Li3 O4 2.184483 1_555
Li3 O11 2.387779 1_555
Li4 O1 2.078907 1_555
Li4 O11 2.078907 1_554
Li4 O5 2.159386 1_555
Li4 O14 2.159386 1_554
Li4 O12 2.160285 1_555
Li4 O4 2.160285 1_554
Li5 O2 2.022992 1_555
Li5 O7 2.022992 1_455
Li5 O5 2.084567 1_555
Li5 O12 2.193748 1_555
Li5 O8 2.193748 1_455
Li5 O13 2.357910 1_545
Li6 O10 2.022992 1_555
Li6 O15 2.022992 1_455
Li6 O14 2.084567 1_555
Li6 O4 2.193748 1_555
Li6 O0 2.193748 1_455
Li6 O6 2.357910 1_565
Li7 O6 2.078492 1_655
Li7 O13 2.078492 1_645
Li7 O3 2.138670 1_555
Li7 O9 2.138670 1_545
Li7 O7 2.209120 1_555
Li7 O15 2.209120 1_545
Li8 O15 2.043254 1_555
Li8 O7 2.043254 1_555
Li8 O10 2.043254 1_555
Li8 O2 2.043254 1_555
Li8 O9 2.206216 1_555
Li8 O3 2.206216 1_555
Mn0 O12 1.968037 1_555
Mn0 O4 1.968037 1_544
Mn0 O8 1.968037 1_455
Mn0 O0 1.968037 1_444
Mn0 O5 2.192937 1_545
Mn0 O14 2.192937 1_554
Mn1 O8 1.945363 1_555
Mn1 O0 1.945363 1_544
Mn1 O12 1.945363 1_555
Mn1 O4 1.945363 1_544
Mn1 O1 1.973196 1_545
Mn1 O11 1.973196 1_554
Co0 O9 1.928585 1_555
Co0 O5 1.977415 1_655
Co0 O7 1.984566 1_555
Co0 O13 2.020496 1_655
Co0 O1 2.053838 1_555
Co0 O8 2.227871 1_565
Co1 O3 1.928585 1_555
Co1 O14 1.977415 1_555
Co1 O10 1.984566 1_555
Co1 O6 2.020496 1_555
Co1 O11 2.053838 1_555
Co1 O4 2.227871 1_545
Co2 O9 1.928585 1_555
Co2 O5 1.977415 1_555
Co2 O2 1.984566 1_555
Co2 O13 2.020496 1_555
Co2 O1 2.053838 1_555
Co2 O12 2.227871 1_565
Co3 O10 1.895733 1_555
Co3 O2 1.895733 1_555
Co3 O15 1.895733 1_455
Co3 O7 1.895733 1_455
Co3 O13 1.933803 1_555
Co3 O6 1.933803 1_555
Co4 O3 1.928585 1_555
Co4 O14 1.977415 1_655
Co4 O15 1.984566 1_555
Co4 O6 2.020496 1_655
Co4 O11 2.053838 1_555
Co4 O0 2.227871 1_545
