# generated using pymatgen
data_ThCu6
_symmetry_space_group_name_H-M   'P 1'
_cell_length_a   5.04011191
_cell_length_b   8.02552918
_cell_length_c   10.07291680
_cell_angle_alpha   90.00000000
_cell_angle_beta   90.00000000
_cell_angle_gamma   90.00000000
_symmetry_Int_Tables_number   1
_chemical_formula_structural   ThCu6
_chemical_formula_sum   'Th4 Cu24'
_cell_volume   407.44510490
_cell_formula_units_Z   4
loop_
 _symmetry_equiv_pos_site_id
 _symmetry_equiv_pos_as_xyz
  1  'x, y, z'
loop_
 _atom_site_type_symbol
 _atom_site_label
 _atom_site_symmetry_multiplicity
 _atom_site_fract_x
 _atom_site_fract_y
 _atom_site_fract_z
 _atom_site_occupancy
  Th  Th0  1  0.25000000  0.76073010  0.06565005  1
  Th  Th1  1  0.75000000  0.23926990  0.93434995  1
  Th  Th2  1  0.25000000  0.26073010  0.43434995  1
  Th  Th3  1  0.75000000  0.73926990  0.56565005  1
  Cu  Cu0  1  0.99577286  0.06472785  0.69006221  1
  Cu  Cu1  1  0.49577286  0.93527215  0.30993779  1
  Cu  Cu2  1  0.50422714  0.56472785  0.80993779  1
  Cu  Cu3  1  0.00422714  0.43527215  0.19006221  1
  Cu  Cu4  1  0.75000000  0.85460158  0.85928027  1
  Cu  Cu5  1  0.25000000  0.14539842  0.14071973  1
  Cu  Cu6  1  0.75000000  0.35460158  0.64071973  1
  Cu  Cu7  1  0.25000000  0.64539842  0.35928027  1
  Cu  Cu8  1  0.75000000  0.18193257  0.24474277  1
  Cu  Cu9  1  0.25000000  0.81806743  0.75525723  1
  Cu  Cu10  1  0.75000000  0.68193257  0.25525723  1
  Cu  Cu11  1  0.25000000  0.31806743  0.74474277  1
  Cu  Cu12  1  0.75000000  0.43839905  0.40023040  1
  Cu  Cu13  1  0.25000000  0.56160095  0.59976960  1
  Cu  Cu14  1  0.75000000  0.93839905  0.09976960  1
  Cu  Cu15  1  0.25000000  0.06160095  0.90023040  1
  Cu  Cu16  1  0.75000000  0.09912944  0.48470024  1
  Cu  Cu17  1  0.25000000  0.90087056  0.51529976  1
  Cu  Cu18  1  0.75000000  0.59912944  0.01529976  1
  Cu  Cu19  1  0.25000000  0.40087056  0.98470024  1
  Cu  Cu20  1  0.99577286  0.56472785  0.80993779  1
  Cu  Cu21  1  0.49577286  0.43527215  0.19006221  1
  Cu  Cu22  1  0.50422714  0.06472785  0.69006221  1
  Cu  Cu23  1  0.00422714  0.93527215  0.30993779  1
loop_
_geom_bond_atom_site_label_1
_geom_bond_atom_site_label_2
_geom_bond_distance
_geom_bond_site_symmetry_2
Cu0 Cu16 2.426879 1_555
Cu0 Cu9 2.447818 1_645
Cu0 Cu11 2.465568 1_655
Cu0 Cu15 2.474704 1_655
Cu0 Cu22 2.477445 1_555
Cu0 Cu17 2.543628 1_645
Cu0 Cu22 2.562666 1_655
Cu0 Cu6 2.682081 1_555
Cu0 Cu4 2.698829 1_545
Cu0 Th1 3.090574 1_555
Cu0 Th3 3.150766 1_545
Cu0 Th2 3.278840 1_655
Cu1 Cu17 2.426879 1_555
Cu1 Cu8 2.447818 1_565
Cu1 Cu10 2.465568 1_555
Cu1 Cu14 2.474704 1_555
Cu1 Cu23 2.477445 1_555
Cu1 Cu16 2.543628 1_565
Cu1 Cu23 2.562666 1_655
Cu1 Cu7 2.682081 1_555
Cu1 Cu5 2.698829 1_565
Cu1 Th0 3.090574 1_555
Cu1 Th2 3.150766 1_565
Cu1 Th3 3.278840 1_555
Cu2 Cu9 2.465568 1_555
Cu2 Cu20 2.477445 1_555
Cu2 Cu20 2.562666 1_455
Cu2 Cu4 2.682081 1_555
Cu2 Cu6 2.698829 1_555
Cu2 Th3 3.090574 1_555
Cu2 Th1 3.150766 1_555
Cu2 Th0 3.278840 1_556
Cu3 Cu8 2.465568 1_455
Cu3 Cu5 2.682081 1_555
Cu3 Cu7 2.698829 1_555
Cu3 Th2 3.090574 1_555
Cu3 Th0 3.150766 1_555
Cu3 Th1 3.278840 1_454
Cu4 Cu9 2.744917 1_655
Cu4 Cu9 2.744917 1_555
Cu4 Th3 3.099161 1_555
Cu4 Th1 3.178426 1_565
Cu4 Th0 3.352526 1_656
Cu4 Th0 3.352526 1_556
Cu5 Cu8 2.744917 1_555
Cu5 Cu8 2.744917 1_455
Cu5 Th2 3.099161 1_555
Cu5 Th0 3.178426 1_545
Cu5 Th1 3.352526 1_554
Cu5 Th1 3.352526 1_454
Cu6 Th1 3.099161 1_555
Cu6 Th3 3.178426 1_555
Cu6 Th2 3.352526 1_655
Cu6 Th2 3.352526 1_555
Cu7 Th0 3.099161 1_555
Cu7 Th2 3.178426 1_555
Cu7 Th3 3.352526 1_555
Cu7 Th3 3.352526 1_455
Cu8 Th1 3.160243 1_554
Cu8 Th2 3.224641 1_655
Cu8 Th2 3.224641 1_555
Cu9 Th0 3.160243 1_556
Cu9 Th3 3.224641 1_555
Cu9 Th3 3.224641 1_455
Cu10 Cu12 2.439774 1_555
Cu10 Cu21 2.447818 1_555
Cu10 Cu3 2.447818 1_655
Cu10 Cu23 2.465568 1_655
Cu10 Cu18 2.506760 1_555
Cu10 Cu14 2.586414 1_555
Cu10 Cu7 2.744917 1_655
Cu10 Cu7 2.744917 1_555
Cu10 Th3 3.160243 1_555
Cu10 Th0 3.224641 1_555
Cu10 Th0 3.224641 1_655
Cu11 Cu13 2.439774 1_555
Cu11 Cu20 2.447818 1_455
Cu11 Cu2 2.447818 1_555
Cu11 Cu22 2.465568 1_555
Cu11 Cu19 2.506760 1_555
Cu11 Cu15 2.586414 1_555
Cu11 Cu6 2.744917 1_555
Cu11 Cu6 2.744917 1_455
Cu11 Th2 3.160243 1_555
Cu11 Th1 3.224641 1_455
Cu11 Th1 3.224641 1_555
Cu12 Cu21 2.474704 1_555
Cu12 Cu3 2.474704 1_655
Cu12 Cu6 2.514049 1_555
Cu12 Cu8 2.586414 1_555
Cu12 Cu16 2.852665 1_555
Cu12 Th2 2.915811 1_555
Cu12 Th2 2.915811 1_655
Cu12 Th3 2.933759 1_555
Cu12 Cu7 3.046420 1_655
Cu12 Cu7 3.046420 1_555
Cu13 Cu20 2.474704 1_455
Cu13 Cu2 2.474704 1_555
Cu13 Cu7 2.514049 1_555
Cu13 Cu9 2.586414 1_555
Cu13 Cu17 2.852665 1_555
Cu13 Th3 2.915811 1_555
Cu13 Th3 2.915811 1_455
Cu13 Th2 2.933759 1_555
Cu13 Cu6 3.046420 1_555
Cu13 Cu6 3.046420 1_455
Cu14 Cu8 2.439774 1_565
Cu14 Cu23 2.474704 1_655
Cu14 Cu4 2.514049 1_554
Cu14 Cu18 2.852665 1_555
Cu14 Th0 2.915811 1_555
Cu14 Th0 2.915811 1_655
Cu14 Th1 2.933759 1_564
Cu14 Cu5 3.046420 1_565
Cu14 Cu5 3.046420 1_665
Cu15 Cu9 2.439774 1_545
Cu15 Cu22 2.474704 1_555
Cu15 Cu5 2.514049 1_556
Cu15 Cu19 2.852665 1_555
Cu15 Th1 2.915811 1_455
Cu15 Th1 2.915811 1_555
Cu15 Th0 2.933759 1_546
Cu15 Cu4 3.046420 1_445
Cu15 Cu4 3.046420 1_545
Cu16 Cu22 2.426879 1_555
Cu16 Cu8 2.506760 1_555
Cu16 Cu23 2.543628 1_645
Cu16 Cu6 2.583324 1_555
Cu16 Th2 2.879225 1_655
Cu16 Th2 2.879225 1_555
Cu16 Cu17 2.996229 1_645
Cu16 Cu17 2.996229 1_545
Cu16 Th3 3.000964 1_545
Cu17 Cu23 2.426879 1_555
Cu17 Cu9 2.506760 1_555
Cu17 Cu22 2.543628 1_565
Cu17 Cu7 2.583324 1_555
Cu17 Th3 2.879225 1_555
Cu17 Th3 2.879225 1_455
Cu17 Th2 3.000964 1_565
Cu18 Cu20 2.426879 1_554
Cu18 Cu2 2.426879 1_554
Cu18 Cu3 2.543628 1_655
Cu18 Cu21 2.543628 1_555
Cu18 Cu4 2.583324 1_554
Cu18 Th0 2.879225 1_655
Cu18 Th0 2.879225 1_555
Cu18 Cu19 2.996229 1_654
Cu18 Cu19 2.996229 1_554
Cu18 Th1 3.000964 1_554
Cu19 Cu3 2.426879 1_556
Cu19 Cu21 2.426879 1_556
Cu19 Cu20 2.543628 1_455
Cu19 Cu2 2.543628 1_555
Cu19 Cu5 2.583324 1_556
Cu19 Th1 2.879225 1_455
Cu19 Th1 2.879225 1_555
Cu19 Th0 3.000964 1_556
Cu20 Cu9 2.465568 1_655
Cu20 Cu4 2.682081 1_555
Cu20 Cu6 2.698829 1_555
Cu20 Th3 3.090574 1_555
Cu20 Th1 3.150766 1_555
Cu20 Th0 3.278840 1_656
Cu21 Cu8 2.465568 1_555
Cu21 Cu3 2.477445 1_555
Cu21 Cu3 2.562666 1_655
Cu21 Cu5 2.682081 1_555
Cu21 Cu7 2.698829 1_555
Cu21 Th2 3.090574 1_555
Cu21 Th0 3.150766 1_555
Cu21 Th1 3.278840 1_554
Cu22 Cu9 2.447818 1_545
Cu22 Cu6 2.682081 1_555
Cu22 Cu4 2.698829 1_545
Cu22 Th1 3.090574 1_555
Cu22 Th3 3.150766 1_545
Cu22 Th2 3.278840 1_555
Cu23 Cu8 2.447818 1_465
Cu23 Cu7 2.682081 1_555
Cu23 Cu5 2.698829 1_565
Cu23 Th0 3.090574 1_555
Cu23 Th2 3.150766 1_565
Cu23 Th3 3.278840 1_455
