# generated using pymatgen
data_Tm2Re3Si5
_symmetry_space_group_name_H-M   'P 1'
_cell_length_a   10.91820298
_cell_length_b   10.91820298
_cell_length_c   5.45045703
_cell_angle_alpha   90.00000000
_cell_angle_beta   90.00000000
_cell_angle_gamma   90.00000000
_symmetry_Int_Tables_number   1
_chemical_formula_structural   Tm2Re3Si5
_chemical_formula_sum   'Tm8 Re12 Si20'
_cell_volume   649.73348315
_cell_formula_units_Z   4
loop_
 _symmetry_equiv_pos_site_id
 _symmetry_equiv_pos_as_xyz
  1  'x, y, z'
loop_
 _atom_site_type_symbol
 _atom_site_label
 _atom_site_symmetry_multiplicity
 _atom_site_fract_x
 _atom_site_fract_y
 _atom_site_fract_z
 _atom_site_occupancy
  Tm  Tm0  1  0.57843053  0.73743557  0.50000000  1
  Tm  Tm1  1  0.42156947  0.26256443  0.50000000  1
  Tm  Tm2  1  0.07843053  0.76256443  0.00000000  1
  Tm  Tm3  1  0.92156947  0.23743557  0.00000000  1
  Tm  Tm4  1  0.26256443  0.57843053  0.50000000  1
  Tm  Tm5  1  0.73743557  0.42156947  0.50000000  1
  Tm  Tm6  1  0.23743557  0.07843053  0.00000000  1
  Tm  Tm7  1  0.76256443  0.92156947  0.00000000  1
  Re  Re0  1  0.87554096  0.85261792  0.50000000  1
  Re  Re1  1  0.12445904  0.14738208  0.50000000  1
  Re  Re2  1  0.37554096  0.64738208  0.00000000  1
  Re  Re3  1  0.62445904  0.35261792  0.00000000  1
  Re  Re4  1  0.14738208  0.87554096  0.50000000  1
  Re  Re5  1  0.85261792  0.12445904  0.50000000  1
  Re  Re6  1  0.35261792  0.37554096  0.00000000  1
  Re  Re7  1  0.64738208  0.62445904  0.00000000  1
  Re  Re8  1  0.50000000  0.00000000  0.25000000  1
  Re  Re9  1  -0.00000000  0.50000000  0.75000000  1
  Re  Re10  1  -0.00000000  0.50000000  0.25000000  1
  Re  Re11  1  0.50000000  0.00000000  0.75000000  1
  Si  Si0  1  0.67214423  0.17214423  0.25000000  1
  Si  Si1  1  0.32785577  0.82785577  0.25000000  1
  Si  Si2  1  0.17214423  0.32785577  0.75000000  1
  Si  Si3  1  0.82785577  0.67214423  0.75000000  1
  Si  Si4  1  0.82785577  0.67214423  0.25000000  1
  Si  Si5  1  0.17214423  0.32785577  0.25000000  1
  Si  Si6  1  0.67214423  0.17214423  0.75000000  1
  Si  Si7  1  0.32785577  0.82785577  0.75000000  1
  Si  Si8  1  0.50000000  0.50000000  0.25791578  1
  Si  Si9  1  -0.00000000  0.00000000  0.75791578  1
  Si  Si10  1  0.50000000  0.50000000  0.74208422  1
  Si  Si11  1  -0.00000000  0.00000000  0.24208422  1
  Si  Si12  1  0.68641395  0.97215016  0.50000000  1
  Si  Si13  1  0.31358605  0.02784984  0.50000000  1
  Si  Si14  1  0.18641395  0.52784984  0.00000000  1
  Si  Si15  1  0.81358605  0.47215016  0.00000000  1
  Si  Si16  1  0.02784984  0.68641395  0.50000000  1
  Si  Si17  1  0.97215016  0.31358605  0.50000000  1
  Si  Si18  1  0.47215016  0.18641395  0.00000000  1
  Si  Si19  1  0.52784984  0.81358605  0.00000000  1
loop_
_geom_bond_atom_site_label_1
_geom_bond_atom_site_label_2
_geom_bond_distance
_geom_bond_site_symmetry_2
Re0 Si12 2.442775 1_555
Re0 Si3 2.451621 1_555
Re0 Si4 2.451621 1_555
Re0 Si16 2.461365 1_655
Re0 Si11 2.532200 1_665
Re0 Si9 2.532200 1_665
Re0 Tm7 3.084663 1_555
Re0 Tm7 3.084663 1_556
Re1 Si13 2.442775 1_555
Re1 Si2 2.451621 1_555
Re1 Si5 2.451621 1_555
Re1 Si17 2.461365 1_455
Re1 Si11 2.532200 1_555
Re1 Si9 2.532200 1_555
Re1 Tm6 3.084663 1_556
Re1 Tm6 3.084663 1_555
Re2 Si14 2.442775 1_555
Re2 Si1 2.451621 1_555
Re2 Si7 2.451621 1_554
Re2 Si19 2.461365 1_555
Re2 Si8 2.532200 1_555
Re2 Si10 2.532200 1_554
Re2 Tm4 3.084663 1_555
Re2 Tm4 3.084663 1_554
Re3 Si15 2.442775 1_555
Re3 Si0 2.451621 1_555
Re3 Si6 2.451621 1_554
Re3 Si18 2.461365 1_555
Re3 Si8 2.532200 1_555
Re3 Si10 2.532200 1_554
Re3 Tm5 3.084663 1_554
Re3 Tm5 3.084663 1_555
Re4 Si16 2.442775 1_555
Re4 Si7 2.451621 1_555
Re4 Si1 2.451621 1_555
Re4 Si13 2.461365 1_565
Re4 Si9 2.532200 1_565
Re4 Si11 2.532200 1_565
Re4 Tm2 3.084663 1_555
Re4 Tm2 3.084663 1_556
Re5 Si17 2.442775 1_555
Re5 Si6 2.451621 1_555
Re5 Si0 2.451621 1_555
Re5 Si12 2.461365 1_545
Re5 Si11 2.532200 1_655
Re5 Si9 2.532200 1_655
Re5 Tm3 3.084663 1_555
Re5 Tm3 3.084663 1_556
Re6 Si18 2.442775 1_555
Re6 Si2 2.451621 1_554
Re6 Si5 2.451621 1_555
Re6 Si14 2.461365 1_555
Re6 Si8 2.532200 1_555
Re6 Si10 2.532200 1_554
Re6 Tm1 3.084663 1_555
Re6 Tm1 3.084663 1_554
Re7 Si19 2.442775 1_555
Re7 Si4 2.451621 1_555
Re7 Si3 2.451621 1_554
Re7 Si15 2.461365 1_555
Re7 Si8 2.532200 1_555
Re7 Si10 2.532200 1_554
Re7 Tm0 3.084663 1_555
Re7 Tm0 3.084663 1_554
Re8 Si19 2.468126 1_545
Re8 Si18 2.468126 1_555
Re8 Si13 2.468126 1_555
Re8 Si12 2.468126 1_545
Re8 Si0 2.658022 1_555
Re8 Si1 2.658022 1_545
Re8 Tm6 3.287576 1_555
Re8 Tm0 3.287576 1_545
Re8 Tm1 3.287576 1_555
Re8 Tm7 3.287576 1_545
Re9 Si15 2.468126 1_456
Re9 Si17 2.468126 1_455
Re9 Si14 2.468126 1_556
Re9 Si16 2.468126 1_555
Re9 Si2 2.658022 1_555
Re9 Si3 2.658022 1_455
Re9 Tm5 3.287576 1_455
Re9 Tm3 3.287576 1_456
Re9 Tm4 3.287576 1_555
Re9 Tm2 3.287576 1_556
Re10 Si15 2.468126 1_455
Re10 Si14 2.468126 1_555
Re10 Si17 2.468126 1_455
Re10 Si16 2.468126 1_555
Re10 Si4 2.658022 1_455
Re10 Si5 2.658022 1_555
Re10 Re9 2.725229 1_555
Re10 Re9 2.725229 1_554
Re10 Tm5 3.287576 1_455
Re10 Tm3 3.287576 1_455
Re10 Tm4 3.287576 1_555
Re10 Tm2 3.287576 1_555
Re11 Si19 2.468126 1_546
Re11 Si13 2.468126 1_555
Re11 Si18 2.468126 1_556
Re11 Si12 2.468126 1_545
Re11 Si6 2.658022 1_555
Re11 Si7 2.658022 1_545
Re11 Re8 2.725229 1_556
Re11 Re8 2.725229 1_555
Re11 Tm0 3.287576 1_545
Re11 Tm6 3.287576 1_556
Re11 Tm1 3.287576 1_555
Re11 Tm7 3.287576 1_546
Si0 Si12 2.578564 1_545
Si0 Si18 2.578564 1_555
Si0 Si6 2.725229 1_555
Si0 Si6 2.725229 1_554
Si0 Tm3 3.127478 1_555
Si0 Tm5 3.127478 1_555
Si0 Tm1 3.211865 1_555
Si0 Tm7 3.211865 1_545
Si1 Si19 2.578564 1_555
Si1 Si13 2.578564 1_565
Si1 Si7 2.725229 1_555
Si1 Si7 2.725229 1_554
Si1 Tm2 3.127478 1_555
Si1 Tm4 3.127478 1_555
Si1 Tm6 3.211865 1_565
Si1 Tm0 3.211865 1_555
Si2 Si5 2.725229 1_555
Si2 Si5 2.725229 1_556
Si2 Tm6 3.127478 1_556
Si2 Tm1 3.127478 1_555
Si2 Tm4 3.211865 1_555
Si2 Tm3 3.211865 1_456
Si3 Si4 2.725229 1_555
Si3 Si4 2.725229 1_556
Si3 Tm7 3.127478 1_556
Si3 Tm0 3.127478 1_555
Si3 Tm2 3.211865 1_656
Si3 Tm5 3.211865 1_555
Si4 Tm7 3.127478 1_555
Si4 Tm0 3.127478 1_555
Si4 Tm2 3.211865 1_655
Si4 Tm5 3.211865 1_555
Si5 Tm6 3.127478 1_555
Si5 Tm1 3.127478 1_555
Si5 Tm4 3.211865 1_555
Si5 Tm3 3.211865 1_455
Si6 Tm3 3.127478 1_556
Si6 Tm5 3.127478 1_555
Si6 Tm1 3.211865 1_555
Si6 Tm7 3.211865 1_546
Si7 Tm2 3.127478 1_556
Si7 Tm4 3.127478 1_555
Si7 Tm6 3.211865 1_566
Si7 Tm0 3.211865 1_555
Si8 Tm5 3.032271 1_555
Si8 Tm1 3.032271 1_555
Si8 Tm4 3.032271 1_555
Si8 Tm0 3.032271 1_555
Si9 Tm2 3.032271 1_546
Si9 Tm7 3.032271 1_446
Si9 Tm3 3.032271 1_456
Si9 Tm6 3.032271 1_556
Si10 Si8 2.638939 1_555
Si10 Tm4 3.032271 1_555
Si10 Tm1 3.032271 1_555
Si10 Tm5 3.032271 1_555
Si10 Tm0 3.032271 1_555
Si11 Si9 2.638939 1_554
Si11 Tm2 3.032271 1_545
Si11 Tm7 3.032271 1_445
Si11 Tm6 3.032271 1_555
Si11 Tm3 3.032271 1_455
Si12 Si6 2.578564 1_565
Si12 Tm0 2.820858 1_555
Si12 Tm7 2.902261 1_555
Si12 Tm7 2.902261 1_556
Si13 Si7 2.578564 1_545
Si13 Tm1 2.820858 1_555
Si13 Tm6 2.902261 1_556
Si13 Tm6 2.902261 1_555
Si14 Si5 2.578564 1_555
Si14 Si2 2.578564 1_554
Si14 Tm2 2.820858 1_555
Si14 Tm4 2.902261 1_555
Si14 Tm4 2.902261 1_554
Si15 Si4 2.578564 1_555
Si15 Si3 2.578564 1_554
Si15 Tm3 2.820858 1_555
Si15 Tm5 2.902261 1_554
Si15 Tm5 2.902261 1_555
Si16 Si3 2.578564 1_455
Si16 Si4 2.578564 1_455
Si16 Tm4 2.820858 1_555
Si16 Tm2 2.902261 1_556
Si16 Tm2 2.902261 1_555
Si17 Si5 2.578564 1_655
Si17 Si2 2.578564 1_655
Si17 Tm5 2.820858 1_555
Si17 Tm3 2.902261 1_555
Si17 Tm3 2.902261 1_556
Si18 Si6 2.578564 1_554
Si18 Tm6 2.820858 1_555
Si18 Tm1 2.902261 1_554
Si18 Tm1 2.902261 1_555
Si19 Si7 2.578564 1_554
Si19 Tm7 2.820858 1_555
Si19 Tm0 2.902261 1_555
Si19 Tm0 2.902261 1_554
