# generated using pymatgen
data_K2NdAgI6
_symmetry_space_group_name_H-M   'P 1'
_cell_length_a   8.66859739
_cell_length_b   8.66859739
_cell_length_c   8.66859739
_cell_angle_alpha   60.00000000
_cell_angle_beta   60.00000000
_cell_angle_gamma   60.00000000
_symmetry_Int_Tables_number   1
_chemical_formula_structural   K2NdAgI6
_chemical_formula_sum   'K2 Nd1 Ag1 I6'
_cell_volume   460.60802571
_cell_formula_units_Z   1
loop_
 _symmetry_equiv_pos_site_id
 _symmetry_equiv_pos_as_xyz
  1  'x, y, z'
loop_
 _atom_site_type_symbol
 _atom_site_label
 _atom_site_symmetry_multiplicity
 _atom_site_fract_x
 _atom_site_fract_y
 _atom_site_fract_z
 _atom_site_occupancy
  K  K0  1  0.75000000  0.75000000  0.75000000  1
  K  K1  1  0.25000000  0.25000000  0.25000000  1
  Nd  Nd0  1  0.50000000  0.50000000  0.50000000  1
  Ag  Ag0  1  0.00000000  0.00000000  0.00000000  1
  I  I0  1  0.75303100  0.24696900  0.24696900  1
  I  I1  1  0.24696900  0.24696900  0.75303100  1
  I  I2  1  0.24696900  0.75303100  0.75303100  1
  I  I3  1  0.24696900  0.75303100  0.24696900  1
  I  I4  1  0.75303100  0.24696900  0.75303100  1
  I  I5  1  0.75303100  0.75303100  0.24696900  1
loop_
_geom_bond_atom_site_label_1
_geom_bond_atom_site_label_2
_geom_bond_distance
_geom_bond_site_symmetry_2
Ag0 I3 3.027654 1_545
Ag0 I0 3.027654 1_455
Ag0 I5 3.027654 1_445
Ag0 I2 3.027654 1_544
Ag0 I4 3.027654 1_454
Ag0 I1 3.027654 1_554
I0 Nd0 3.101970 1_555
I1 Nd0 3.101970 1_555
I2 Nd0 3.101970 1_555
I3 Nd0 3.101970 1_555
I4 Nd0 3.101970 1_555
I5 Nd0 3.101970 1_555
