# generated using pymatgen
data_ScCuSi
_symmetry_space_group_name_H-M   'P 1'
_cell_length_a   6.38308431
_cell_length_b   6.38308385
_cell_length_c   3.94264007
_cell_angle_alpha   90.00000000
_cell_angle_beta   90.00000000
_cell_angle_gamma   120.00000764
_symmetry_Int_Tables_number   1
_chemical_formula_structural   ScCuSi
_chemical_formula_sum   'Sc3 Cu3 Si3'
_cell_volume   139.11656948
_cell_formula_units_Z   3
loop_
 _symmetry_equiv_pos_site_id
 _symmetry_equiv_pos_as_xyz
  1  'x, y, z'
loop_
 _atom_site_type_symbol
 _atom_site_label
 _atom_site_symmetry_multiplicity
 _atom_site_fract_x
 _atom_site_fract_y
 _atom_site_fract_z
 _atom_site_occupancy
  Sc  Sc0  1  0.43085184  0.43085184  0.50000000  1
  Sc  Sc1  1  0.56914816  0.00000000  0.50000000  1
  Sc  Sc2  1  0.00000000  0.56914816  0.50000000  1
  Cu  Cu0  1  0.00000000  0.24184346  -0.00000000  1
  Cu  Cu1  1  0.24184346  0.00000000  0.00000000  1
  Cu  Cu2  1  0.75815654  0.75815654  0.00000000  1
  Si  Si0  1  0.66666700  0.33333300  0.00000000  1
  Si  Si1  1  0.33333300  0.66666700  0.00000000  1
  Si  Si2  1  -0.00000000  0.00000000  0.50000000  1
loop_
_geom_bond_atom_site_label_1
_geom_bond_atom_site_label_2
_geom_bond_distance
_geom_bond_site_symmetry_2
Sc0 Si1 2.734272 1_555
Sc0 Si1 2.734272 1_556
Sc0 Si0 2.734272 1_556
Sc0 Si0 2.734272 1_555
Sc0 Si2 2.750163 1_555
Sc1 Si0 2.734268 1_556
Sc1 Si0 2.734268 1_555
Sc1 Si1 2.734269 1_545
Sc1 Si1 2.734269 1_546
Sc1 Si2 2.750164 1_655
Sc2 Si1 2.734268 1_555
Sc2 Si1 2.734268 1_556
Sc2 Si0 2.734269 1_456
Sc2 Si0 2.734269 1_455
Sc2 Si2 2.750163 1_565
Cu0 Si0 2.471974 1_455
Cu0 Si1 2.471978 1_555
Cu0 Si2 2.503824 1_555
Cu0 Si2 2.503824 1_554
Cu0 Cu2 2.673779 1_445
Cu0 Cu1 2.673779 1_555
Cu0 Sc2 2.872441 1_555
Cu0 Sc2 2.872441 1_554
Cu0 Sc1 3.096302 1_454
Cu0 Sc1 3.096302 1_455
Cu0 Sc0 3.096302 1_555
Cu0 Sc0 3.096302 1_554
Cu1 Si1 2.471974 1_545
Cu1 Si0 2.471978 1_555
Cu1 Si2 2.503824 1_554
Cu1 Si2 2.503824 1_555
Cu1 Cu2 2.673779 1_445
Cu1 Sc1 2.872441 1_554
Cu1 Sc1 2.872441 1_555
Cu1 Sc2 3.096302 1_545
Cu1 Sc2 3.096302 1_544
Cu1 Sc0 3.096302 1_555
Cu1 Sc0 3.096302 1_554
Cu2 Si0 2.471980 1_555
Cu2 Si1 2.471980 1_555
Cu2 Si2 2.503824 1_664
Cu2 Si2 2.503824 1_665
Cu2 Sc0 2.872440 1_555
Cu2 Sc0 2.872440 1_554
Cu2 Sc1 3.096302 1_565
Cu2 Sc1 3.096302 1_564
Cu2 Sc2 3.096302 1_654
Cu2 Sc2 3.096302 1_655
