# generated using pymatgen
data_K2VO2F3
_symmetry_space_group_name_H-M   'P 1'
_cell_length_a   5.77548000
_cell_length_b   7.51780700
_cell_length_c   11.57112100
_cell_angle_alpha   90.00000000
_cell_angle_beta   90.00000000
_cell_angle_gamma   90.00000000
_symmetry_Int_Tables_number   1
_chemical_formula_structural   K2VO2F3
_chemical_formula_sum   'K8 V4 O8 F12'
_cell_volume   502.40585440
_cell_formula_units_Z   4
loop_
 _symmetry_equiv_pos_site_id
 _symmetry_equiv_pos_as_xyz
  1  'x, y, z'
loop_
 _atom_site_type_symbol
 _atom_site_label
 _atom_site_symmetry_multiplicity
 _atom_site_fract_x
 _atom_site_fract_y
 _atom_site_fract_z
 _atom_site_occupancy
  K  K0  1  0.25000000  0.47326900  0.28383700  1
  K  K1  1  0.75000000  0.52673100  0.71616300  1
  K  K2  1  0.25000000  0.97326900  0.21616300  1
  K  K3  1  0.75000000  0.02673100  0.78383700  1
  K  K4  1  0.25000000  0.18586000  0.58749500  1
  K  K5  1  0.75000000  0.81414000  0.41250500  1
  K  K6  1  0.25000000  0.68586000  0.91250500  1
  K  K7  1  0.75000000  0.31414000  0.08749500  1
  V  V0  1  0.25000000  0.20007000  0.93036100  1
  V  V1  1  0.75000000  0.79993000  0.06963900  1
  V  V2  1  0.25000000  0.70007000  0.56963900  1
  V  V3  1  0.75000000  0.29993000  0.43036100  1
  O  O0  1  0.47702800  0.82174700  0.61150800  1
  O  O1  1  0.97702800  0.17825300  0.38849200  1
  O  O2  1  0.52297200  0.67825300  0.11150800  1
  O  O3  1  0.47702800  0.32174700  0.88849200  1
  O  O4  1  0.97702800  0.67825300  0.11150800  1
  O  O5  1  0.02297200  0.82174700  0.61150800  1
  O  O6  1  0.52297200  0.17825300  0.38849200  1
  O  O7  1  0.02297200  0.32174700  0.88849200  1
  F  F0  1  0.75000000  0.46433400  0.30623100  1
  F  F1  1  0.50000000  0.00000000  0.00000000  1
  F  F2  1  0.00000000  0.50000000  0.50000000  1
  F  F3  1  0.50000000  0.50000000  0.50000000  1
  F  F4  1  0.25000000  0.53566600  0.69376900  1
  F  F5  1  0.75000000  0.96433400  0.19376900  1
  F  F6  1  0.25000000  0.03566600  0.80623100  1
  F  F7  1  0.75000000  0.23103100  0.59103500  1
  F  F8  1  0.25000000  0.26896900  0.09103500  1
  F  F9  1  0.75000000  0.73103100  0.90896500  1
  F  F10  1  0.00000000  0.00000000  0.00000000  1
  F  F11  1  0.25000000  0.76896900  0.40896500  1
loop_
_geom_bond_atom_site_label_1
_geom_bond_atom_site_label_2
_geom_bond_distance
_geom_bond_site_symmetry_2
K0 O2 2.972618 1_555
K0 O4 2.972618 1_455
K0 O6 2.978408 1_555
K0 O1 2.978408 1_455
K1 O3 2.972618 1_555
K1 O7 2.972618 1_655
K1 O0 2.978408 1_555
K1 O5 2.978408 1_655
K2 O6 2.972618 1_565
K2 O1 2.972618 1_465
K2 O2 2.978408 1_555
K2 O4 2.978408 1_455
K3 O0 2.972618 1_545
K3 O5 2.972618 1_645
K3 O3 2.978408 1_555
K3 O7 2.978408 1_655
K4 O6 2.791260 1_555
K4 O1 2.791260 1_455
K4 O0 3.047855 1_545
K4 O5 3.047855 1_545
K5 O5 2.791260 1_655
K5 O0 2.791260 1_555
K5 O1 3.047855 1_565
K5 O6 3.047855 1_565
K6 O4 2.791260 1_456
K6 O2 2.791260 1_556
K6 O7 3.047855 1_555
K6 O3 3.047855 1_555
K7 O7 2.791260 1_654
K7 O3 2.791260 1_554
K7 O2 3.047855 1_555
K7 O4 3.047855 1_555
O0 V2 1.670540 1_555
O1 V3 1.670540 1_555
O2 V1 1.670540 1_555
O3 V0 1.670540 1_555
O4 V1 1.670540 1_555
O5 V2 1.670540 1_555
O6 V3 1.670540 1_555
O7 V0 1.670540 1_555
F0 V3 1.894892 1_555
F0 K7 2.771462 1_555
F0 K0 2.900121 1_555
F0 K0 2.900121 1_655
F0 K5 2.903084 1_555
F1 V0 2.235253 1_554
F1 V1 2.235253 1_545
F1 K2 2.895063 1_545
F1 K3 2.895063 1_554
F1 K7 2.947390 1_555
F1 K6 2.947390 1_544
F2 V3 2.235253 1_455
F2 V2 2.235253 1_555
F2 K1 2.895063 1_455
F2 K0 2.895063 1_555
F2 K5 2.947390 1_455
F2 K4 2.947390 1_555
F3 V2 2.235253 1_555
F3 V3 2.235253 1_555
F3 K1 2.895063 1_555
F3 K0 2.895063 1_555
F3 K5 2.947390 1_555
F3 K4 2.947390 1_555
F4 V2 1.894892 1_555
F4 K6 2.771462 1_555
F4 K1 2.900121 1_455
F4 K1 2.900121 1_555
F4 K4 2.903084 1_555
F5 V1 1.894892 1_555
F5 K5 2.771462 1_555
F5 K2 2.900121 1_655
F5 K2 2.900121 1_555
F5 K7 2.903084 1_565
F6 V0 1.894892 1_555
F6 K4 2.771462 1_555
F6 K3 2.900121 1_555
F6 K3 2.900121 1_455
F6 K6 2.903084 1_545
F7 V3 1.929983 1_555
F7 K1 2.652947 1_555
F7 K3 2.708510 1_555
F7 K4 2.907927 1_655
F7 K4 2.907927 1_555
F8 V0 1.929983 1_554
F8 K2 2.652947 1_545
F8 K0 2.708510 1_555
F8 K7 2.907927 1_555
F8 K7 2.907927 1_455
F9 V1 1.929983 1_556
F9 K3 2.652947 1_565
F9 K1 2.708510 1_555
F9 K6 2.907927 1_655
F9 K6 2.907927 1_555
F10 V0 2.235253 1_554
F10 V1 2.235253 1_445
F10 K2 2.895063 1_545
F10 K3 2.895063 1_454
F10 K6 2.947390 1_544
F10 K7 2.947390 1_455
F11 V2 1.929983 1_555
F11 K0 2.652947 1_555
F11 K2 2.708510 1_555
F11 K5 2.907927 1_455
F11 K5 2.907927 1_555
