# generated using pymatgen
data_ThUSe2
_symmetry_space_group_name_H-M   'P 1'
_cell_length_a   4.17854414
_cell_length_b   4.17854414
_cell_length_c   5.91915646
_cell_angle_alpha   90.00000000
_cell_angle_beta   90.00000000
_cell_angle_gamma   90.00000000
_symmetry_Int_Tables_number   1
_chemical_formula_structural   ThUSe2
_chemical_formula_sum   'Th1 U1 Se2'
_cell_volume   103.34983989
_cell_formula_units_Z   1
loop_
 _symmetry_equiv_pos_site_id
 _symmetry_equiv_pos_as_xyz
  1  'x, y, z'
loop_
 _atom_site_type_symbol
 _atom_site_label
 _atom_site_symmetry_multiplicity
 _atom_site_fract_x
 _atom_site_fract_y
 _atom_site_fract_z
 _atom_site_occupancy
  Th  Th0  1  0.50000000  0.50000000  0.00000000  1
  U  U0  1  0.00000000  0.00000000  0.50000000  1
  Se  Se0  1  0.00000000  0.00000000  -0.00000000  1
  Se  Se1  1  0.50000000  0.50000000  0.50000000  1
loop_
_geom_bond_atom_site_label_1
_geom_bond_atom_site_label_2
_geom_bond_distance
_geom_bond_site_symmetry_2
Se0 Th0 2.954677 1_455
Se0 Th0 2.954677 1_445
Se0 Th0 2.954677 1_555
Se0 Th0 2.954677 1_545
Se0 U0 2.959578 1_554
Se0 U0 2.959578 1_555
Se1 U0 2.954677 1_655
Se1 U0 2.954677 1_665
Se1 U0 2.954677 1_555
Se1 U0 2.954677 1_565
Se1 Th0 2.959578 1_555
Se1 Th0 2.959578 1_556
