# generated using pymatgen
data_KNa2NiO2
_symmetry_space_group_name_H-M   'P 1'
_cell_length_a   6.27965102
_cell_length_b   11.45349157
_cell_length_c   6.30151302
_cell_angle_alpha   74.03484852
_cell_angle_beta   90.00821558
_cell_angle_gamma   74.09271686
_symmetry_Int_Tables_number   1
_chemical_formula_structural   KNa2NiO2
_chemical_formula_sum   'K4 Na8 Ni4 O8'
_cell_volume   417.66126461
_cell_formula_units_Z   4
loop_
 _symmetry_equiv_pos_site_id
 _symmetry_equiv_pos_as_xyz
  1  'x, y, z'
loop_
 _atom_site_type_symbol
 _atom_site_label
 _atom_site_symmetry_multiplicity
 _atom_site_fract_x
 _atom_site_fract_y
 _atom_site_fract_z
 _atom_site_occupancy
  K  K0  1  0.97302400  0.55395200  0.97302400  1
  K  K1  1  0.47302600  0.55395000  0.47302600  1
  K  K2  1  0.72302200  0.05395400  0.22302300  1
  K  K3  1  0.22302100  0.05395800  0.72302200  1
  Na  Na0  1  0.11732100  0.76532600  0.11732300  1
  Na  Na1  1  0.61735300  0.76532600  0.61735000  1
  Na  Na2  1  0.86732500  0.26533200  0.36733700  1
  Na  Na3  1  0.36734300  0.26533200  0.86733000  1
  Na  Na4  1  0.61735300  0.76532600  0.11732300  1
  Na  Na5  1  0.11732200  0.76532600  0.61735100  1
  Na  Na6  1  0.36734400  0.26533100  0.36733700  1
  Na  Na7  1  0.86732600  0.26533200  0.86733000  1
  Ni  Ni0  1  0.75336300  0.99327400  0.75336400  1
  Ni  Ni1  1  0.50336400  0.49327400  0.00336400  1
  Ni  Ni2  1  0.25336300  0.99327800  0.25336200  1
  Ni  Ni3  1  0.00336000  0.49327900  0.50336200  1
  O  O0  1  0.83840600  0.82318800  0.83840600  1
  O  O1  1  0.33835900  0.82328200  0.33835800  1
  O  O2  1  0.58840100  0.32319700  0.08840100  1
  O  O3  1  0.08837600  0.32325500  0.58837300  1
  O  O4  1  0.91822200  0.66354600  0.41822500  1
  O  O5  1  0.41818500  0.66362800  0.91818600  1
  O  O6  1  0.66818200  0.16363700  0.66818100  1
  O  O7  1  0.16823600  0.16352100  0.16823900  1
loop_
_geom_bond_atom_site_label_1
_geom_bond_atom_site_label_2
_geom_bond_distance
_geom_bond_site_symmetry_2
K0 O0 2.841692 1_555
K0 Ni1 3.204458 1_556
K0 Ni1 3.204492 1_656
K0 Ni3 3.215167 1_655
K0 Ni3 3.215185 1_656
K1 O1 2.842705 1_555
K1 Ni3 3.204459 1_555
K1 Ni3 3.204462 1_655
K1 Ni1 3.215182 1_556
K1 Ni1 3.215183 1_555
K2 O2 2.841766 1_555
K2 Ni2 3.204442 1_545
K2 Ni2 3.204500 1_645
K2 Ni0 3.215185 1_544
K2 Ni0 3.215196 1_545
K3 O3 2.842336 1_555
K3 Ni0 3.204477 1_445
K3 Ni0 3.204499 1_545
K3 Ni2 3.215190 1_546
K3 Ni2 3.215191 1_545
Na0 O0 2.306110 1_454
Na0 O1 2.306612 1_555
Na0 O5 2.469694 1_554
Na0 O4 2.470047 1_455
Na1 O0 2.306100 1_555
Na1 O1 2.306630 1_555
Na1 O5 2.469682 1_555
Na1 O4 2.470043 1_555
Na2 O2 2.306226 1_555
Na2 O3 2.306438 1_655
Na2 O6 2.469600 1_555
Na2 O7 2.470245 1_655
Na3 O2 2.306207 1_556
Na3 O3 2.306413 1_555
Na3 O6 2.469629 1_555
Na3 O7 2.470249 1_556
Na4 O0 2.306403 1_554
Na4 O1 2.306934 1_555
Na4 O5 2.469391 1_554
Na4 O4 2.469743 1_555
Na5 O0 2.306422 1_455
Na5 O1 2.306923 1_555
Na5 O5 2.469402 1_555
Na5 O4 2.469780 1_455
Na6 O2 2.306513 1_555
Na6 O3 2.306737 1_555
Na6 O6 2.469336 1_555
Na6 O7 2.469958 1_555
Na7 O2 2.306538 1_556
Na7 O3 2.306732 1_655
Na7 O6 2.469318 1_555
Na7 O7 2.469953 1_656
Ni0 O0 1.795198 1_555
Ni0 O6 1.798122 1_565
Ni1 O2 1.795103 1_555
Ni1 O5 1.798027 1_554
Ni2 O1 1.794248 1_555
Ni2 O7 1.796855 1_565
Ni3 O3 1.794544 1_555
Ni3 O4 1.797109 1_455
