# generated using pymatgen
data_Li2CrCuF6
_symmetry_space_group_name_H-M   'P 1'
_cell_length_a   5.71234400
_cell_length_b   5.71234398
_cell_length_c   5.71234463
_cell_angle_alpha   60.00000033
_cell_angle_beta   60.00000364
_cell_angle_gamma   59.99999990
_symmetry_Int_Tables_number   1
_chemical_formula_structural   Li2CrCuF6
_chemical_formula_sum   'Li2 Cr1 Cu1 F6'
_cell_volume   131.80385733
_cell_formula_units_Z   1
loop_
 _symmetry_equiv_pos_site_id
 _symmetry_equiv_pos_as_xyz
  1  'x, y, z'
loop_
 _atom_site_type_symbol
 _atom_site_label
 _atom_site_symmetry_multiplicity
 _atom_site_fract_x
 _atom_site_fract_y
 _atom_site_fract_z
 _atom_site_occupancy
  Li  Li0  1  0.25000000  0.25000000  0.25000000  1
  Li  Li1  1  0.75000000  0.75000000  0.75000000  1
  Cr  Cr0  1  0.00000000  0.00000000  0.00000000  1
  Cu  Cu0  1  0.50000000  0.50000000  0.50000000  1
  F  F0  1  0.24046000  0.75954000  0.24046000  1
  F  F1  1  0.75954000  0.75954000  0.24046000  1
  F  F2  1  0.75954000  0.24046000  0.75954000  1
  F  F3  1  0.75954000  0.24046000  0.24046000  1
  F  F4  1  0.24046000  0.75954000  0.75954000  1
  F  F5  1  0.24046000  0.24046000  0.75954000  1
loop_
_geom_bond_atom_site_label_1
_geom_bond_atom_site_label_2
_geom_bond_distance
_geom_bond_site_symmetry_2
Cr0 F0 1.942550 1_545
Cr0 F2 1.942550 1_454
Cr0 F5 1.942550 1_554
Cr0 F1 1.942550 1_445
Cr0 F3 1.942550 1_455
Cr0 F4 1.942550 1_544
Cu0 F1 2.096687 1_555
Cu0 F5 2.096687 1_555
Cu0 F2 2.096687 1_555
Cu0 F0 2.096687 1_555
Cu0 F3 2.096687 1_555
Cu0 F4 2.096687 1_555
