# generated using pymatgen
data_Ir4Os
_symmetry_space_group_name_H-M   'P 1'
_cell_length_a   22.60771669
_cell_length_b   22.60771669
_cell_length_c   22.60771766
_cell_angle_alpha   13.90108449
_cell_angle_beta   13.90108449
_cell_angle_gamma   13.90108944
_symmetry_Int_Tables_number   1
_chemical_formula_structural   Ir4Os
_chemical_formula_sum   'Ir32 Os8'
_cell_volume   580.41646235
_cell_formula_units_Z   8
loop_
 _symmetry_equiv_pos_site_id
 _symmetry_equiv_pos_as_xyz
  1  'x, y, z'
loop_
 _atom_site_type_symbol
 _atom_site_label
 _atom_site_symmetry_multiplicity
 _atom_site_fract_x
 _atom_site_fract_y
 _atom_site_fract_z
 _atom_site_occupancy
  Ir  Ir0_0  1  0.30039550  0.30039550  0.30039550  1
  Ir  Ir0_1  1  0.30039550  0.30039550  0.80039550  1
  Ir  Ir0_2  1  0.30039550  0.80039550  0.30039550  1
  Ir  Ir0_3  1  0.30039550  0.80039550  0.80039550  1
  Ir  Ir0_4  1  0.80039550  0.30039550  0.30039550  1
  Ir  Ir0_5  1  0.80039550  0.30039550  0.80039550  1
  Ir  Ir0_6  1  0.80039550  0.80039550  0.30039550  1
  Ir  Ir0_7  1  0.80039550  0.80039550  0.80039550  1
  Ir  Ir1_0  1  0.09985550  0.09985550  0.09985550  1
  Ir  Ir1_1  1  0.09985550  0.09985550  0.59985550  1
  Ir  Ir1_2  1  0.09985550  0.59985550  0.09985550  1
  Ir  Ir1_3  1  0.09985550  0.59985550  0.59985550  1
  Ir  Ir1_4  1  0.59985550  0.09985550  0.09985550  1
  Ir  Ir1_5  1  0.59985550  0.09985550  0.59985550  1
  Ir  Ir1_6  1  0.59985550  0.59985550  0.09985550  1
  Ir  Ir1_7  1  0.59985550  0.59985550  0.59985550  1
  Ir  Ir2_0  1  0.40014450  0.40014450  0.40014450  1
  Ir  Ir2_1  1  0.40014450  0.40014450  0.90014450  1
  Ir  Ir2_2  1  0.40014450  0.90014450  0.40014450  1
  Ir  Ir2_3  1  0.40014450  0.90014450  0.90014450  1
  Ir  Ir2_4  1  0.90014450  0.40014450  0.40014450  1
  Ir  Ir2_5  1  0.90014450  0.40014450  0.90014450  1
  Ir  Ir2_6  1  0.90014450  0.90014450  0.40014450  1
  Ir  Ir2_7  1  0.90014450  0.90014450  0.90014450  1
  Ir  Ir3_0  1  0.19960450  0.19960450  0.19960450  1
  Ir  Ir3_1  1  0.19960450  0.19960450  0.69960450  1
  Ir  Ir3_2  1  0.19960450  0.69960450  0.19960450  1
  Ir  Ir3_3  1  0.19960450  0.69960450  0.69960450  1
  Ir  Ir3_4  1  0.69960450  0.19960450  0.19960450  1
  Ir  Ir3_5  1  0.69960450  0.19960450  0.69960450  1
  Ir  Ir3_6  1  0.69960450  0.69960450  0.19960450  1
  Ir  Ir3_7  1  0.69960450  0.69960450  0.69960450  1
  Os  Os0_0  1  0.00000000  0.00000000  0.00000000  1
  Os  Os0_1  1  0.00000000  0.00000000  0.50000000  1
  Os  Os0_2  1  0.00000000  0.50000000  0.00000000  1
  Os  Os0_3  1  0.00000000  0.50000000  0.50000000  1
  Os  Os0_4  1  0.50000000  0.00000000  0.00000000  1
  Os  Os0_5  1  0.50000000  0.00000000  0.50000000  1
  Os  Os0_6  1  0.50000000  0.50000000  0.00000000  1
  Os  Os0_7  1  0.50000000  0.50000000  0.50000000  1
loop_
_geom_bond_atom_site_label_1
_geom_bond_atom_site_label_2
_geom_bond_distance
_geom_bond_site_symmetry_2
Ir0_0 Os0_6 2.718083 1_555
Ir0_0 Os0_3 2.718084 1_555
Ir0_0 Os0_5 2.718084 1_555
Ir0_0 Ir0_3 2.735817 1_554
Ir0_0 Ir0_5 2.735817 1_554
Ir0_0 Ir0_3 2.735817 1_545
Ir0_0 Ir0_5 2.735817 1_455
Ir0_0 Ir0_6 2.735818 1_545
Ir0_0 Ir0_6 2.735818 1_455
Ir0_0 Ir1_1 2.769453 1_555
Ir0_0 Ir1_4 2.769454 1_555
Ir0_0 Ir1_2 2.769454 1_555
Ir0_1 Os0_7 2.718083 1_555
Ir0_1 Os0_2 2.718084 1_556
Ir0_1 Os0_4 2.718084 1_556
Ir0_1 Ir0_2 2.735817 1_555
Ir0_1 Ir0_4 2.735817 1_555
Ir0_1 Ir0_4 2.735817 1_456
Ir0_1 Ir0_2 2.735817 1_546
Ir0_1 Ir0_7 2.735818 1_545
Ir0_1 Ir0_7 2.735818 1_455
Ir0_1 Ir1_0 2.769453 1_556
Ir0_1 Ir1_3 2.769454 1_555
Ir0_1 Ir1_5 2.769454 1_555
Ir0_2 Os0_4 2.718083 1_565
Ir0_2 Os0_7 2.718084 1_555
Ir0_2 Os0_1 2.718084 1_565
Ir0_2 Ir0_7 2.735817 1_554
Ir0_2 Ir0_7 2.735817 1_455
Ir0_2 Ir0_4 2.735818 1_555
Ir0_2 Ir0_4 2.735818 1_465
Ir0_2 Ir1_3 2.769453 1_555
Ir0_2 Ir1_0 2.769454 1_565
Ir0_2 Ir1_6 2.769454 1_555
Ir0_3 Os0_5 2.718083 1_565
Ir0_3 Os0_0 2.718084 1_566
Ir0_3 Os0_6 2.718084 1_556
Ir0_3 Ir0_6 2.735817 1_555
Ir0_3 Ir0_6 2.735817 1_456
Ir0_3 Ir0_5 2.735818 1_555
Ir0_3 Ir0_5 2.735818 1_465
Ir0_3 Ir1_2 2.769453 1_556
Ir0_3 Ir1_1 2.769454 1_565
Ir0_3 Ir1_7 2.769454 1_555
Ir0_4 Os0_2 2.718083 1_655
Ir0_4 Os0_7 2.718084 1_555
Ir0_4 Os0_1 2.718084 1_655
Ir0_4 Ir0_7 2.735817 1_554
Ir0_4 Ir0_7 2.735817 1_545
Ir0_4 Ir1_5 2.769453 1_555
Ir0_4 Ir1_0 2.769454 1_655
Ir0_4 Ir1_6 2.769454 1_555
Ir0_5 Os0_3 2.718083 1_655
Ir0_5 Os0_6 2.718084 1_556
Ir0_5 Os0_0 2.718084 1_656
Ir0_5 Ir0_6 2.735817 1_555
Ir0_5 Ir0_6 2.735817 1_546
Ir0_5 Ir1_4 2.769453 1_556
Ir0_5 Ir1_1 2.769454 1_655
Ir0_5 Ir1_7 2.769454 1_555
Ir0_6 Os0_0 2.718083 1_665
Ir0_6 Os0_5 2.718084 1_565
Ir0_6 Os0_3 2.718084 1_655
Ir0_6 Ir1_7 2.769453 1_555
Ir0_6 Ir1_4 2.769454 1_565
Ir0_6 Ir1_2 2.769454 1_655
Ir0_7 Os0_1 2.718083 1_665
Ir0_7 Os0_4 2.718084 1_566
Ir0_7 Os0_2 2.718084 1_656
Ir0_7 Ir1_6 2.769453 1_556
Ir0_7 Ir1_3 2.769454 1_655
Ir0_7 Ir1_5 2.769454 1_565
Ir1_0 Ir2_6 2.723907 1_445
Ir1_0 Ir2_3 2.723908 1_544
Ir1_0 Ir2_5 2.723908 1_454
Ir1_0 Ir1_3 2.735817 1_554
Ir1_0 Ir1_5 2.735817 1_554
Ir1_0 Ir1_3 2.735817 1_545
Ir1_0 Ir1_5 2.735817 1_455
Ir1_0 Ir1_6 2.735818 1_455
Ir1_0 Ir1_6 2.735818 1_545
Ir1_1 Ir2_7 2.723907 1_445
Ir1_1 Ir2_2 2.723908 1_545
Ir1_1 Ir2_4 2.723908 1_455
Ir1_1 Ir1_2 2.735817 1_546
Ir1_1 Ir1_4 2.735817 1_456
Ir1_1 Ir1_4 2.735817 1_555
Ir1_1 Ir1_2 2.735817 1_555
Ir1_1 Ir1_7 2.735818 1_455
Ir1_1 Ir1_7 2.735818 1_545
Ir1_2 Ir2_4 2.723907 1_455
Ir1_2 Ir2_1 2.723908 1_554
Ir1_2 Ir2_7 2.723908 1_454
Ir1_2 Ir1_7 2.735817 1_554
Ir1_2 Ir1_7 2.735817 1_455
Ir1_2 Ir1_4 2.735818 1_465
Ir1_2 Ir1_4 2.735818 1_555
Ir1_3 Ir2_5 2.723907 1_455
Ir1_3 Ir2_6 2.723908 1_455
Ir1_3 Ir2_0 2.723908 1_555
Ir1_3 Ir1_6 2.735817 1_456
Ir1_3 Ir1_6 2.735817 1_555
Ir1_3 Ir1_5 2.735818 1_555
Ir1_3 Ir1_5 2.735818 1_465
Ir1_4 Ir2_2 2.723907 1_545
Ir1_4 Ir2_1 2.723908 1_554
Ir1_4 Ir2_7 2.723908 1_544
Ir1_4 Ir1_7 2.735817 1_554
Ir1_4 Ir1_7 2.735817 1_545
Ir1_5 Ir2_3 2.723907 1_545
Ir1_5 Ir2_6 2.723908 1_545
Ir1_5 Ir2_0 2.723908 1_555
Ir1_5 Ir1_6 2.735817 1_546
Ir1_5 Ir1_6 2.735817 1_555
Ir1_6 Ir2_0 2.723907 1_555
Ir1_6 Ir2_3 2.723908 1_554
Ir1_6 Ir2_5 2.723908 1_554
Ir1_7 Ir2_1 2.723907 1_555
Ir1_7 Ir2_4 2.723908 1_555
Ir1_7 Ir2_2 2.723908 1_555
Ir2_0 Ir2_5 2.735817 1_554
Ir2_0 Ir2_5 2.735817 1_455
Ir2_0 Ir2_3 2.735817 1_554
Ir2_0 Ir2_3 2.735817 1_545
Ir2_0 Ir2_6 2.735818 1_455
Ir2_0 Ir2_6 2.735818 1_545
Ir2_0 Ir3_1 2.769453 1_555
Ir2_0 Ir3_2 2.769454 1_555
Ir2_0 Ir3_4 2.769454 1_555
Ir2_1 Ir2_4 2.735817 1_456
Ir2_1 Ir2_2 2.735817 1_546
Ir2_1 Ir2_4 2.735817 1_555
Ir2_1 Ir2_2 2.735817 1_555
Ir2_1 Ir2_7 2.735818 1_545
Ir2_1 Ir2_7 2.735818 1_455
Ir2_1 Ir3_0 2.769453 1_556
Ir2_1 Ir3_5 2.769454 1_555
Ir2_1 Ir3_3 2.769454 1_555
Ir2_2 Ir2_7 2.735817 1_554
Ir2_2 Ir2_7 2.735817 1_455
Ir2_2 Ir2_4 2.735818 1_465
Ir2_2 Ir2_4 2.735818 1_555
Ir2_2 Ir3_3 2.769453 1_555
Ir2_2 Ir3_0 2.769454 1_565
Ir2_2 Ir3_6 2.769454 1_555
Ir2_3 Ir2_6 2.735817 1_456
Ir2_3 Ir2_6 2.735817 1_555
Ir2_3 Ir2_5 2.735818 1_465
Ir2_3 Ir2_5 2.735818 1_555
Ir2_3 Ir3_2 2.769453 1_556
Ir2_3 Ir3_1 2.769454 1_565
Ir2_3 Ir3_7 2.769454 1_555
Ir2_4 Ir2_7 2.735817 1_554
Ir2_4 Ir2_7 2.735817 1_545
Ir2_4 Ir3_5 2.769453 1_555
Ir2_4 Ir3_0 2.769454 1_655
Ir2_4 Ir3_6 2.769454 1_555
Ir2_5 Ir2_6 2.735817 1_546
Ir2_5 Ir2_6 2.735817 1_555
Ir2_5 Ir3_4 2.769453 1_556
Ir2_5 Ir3_1 2.769454 1_655
Ir2_5 Ir3_7 2.769454 1_555
Ir2_6 Ir3_7 2.769453 1_555
Ir2_6 Ir3_4 2.769454 1_565
Ir2_6 Ir3_2 2.769454 1_655
Ir2_7 Ir3_6 2.769453 1_556
Ir2_7 Ir3_3 2.769454 1_655
Ir2_7 Ir3_5 2.769454 1_565
Ir3_0 Os0_1 2.718083 1_555
Ir3_0 Os0_4 2.718084 1_555
Ir3_0 Os0_2 2.718084 1_555
Ir3_0 Ir3_3 2.735817 1_545
Ir3_0 Ir3_5 2.735817 1_455
Ir3_0 Ir3_5 2.735817 1_554
Ir3_0 Ir3_3 2.735817 1_554
Ir3_0 Ir3_6 2.735818 1_455
Ir3_0 Ir3_6 2.735818 1_545
Ir3_1 Os0_0 2.718083 1_556
Ir3_1 Os0_3 2.718084 1_555
Ir3_1 Os0_5 2.718084 1_555
Ir3_1 Ir3_4 2.735817 1_555
Ir3_1 Ir3_4 2.735817 1_456
Ir3_1 Ir3_2 2.735817 1_546
Ir3_1 Ir3_2 2.735817 1_555
Ir3_1 Ir3_7 2.735818 1_455
Ir3_1 Ir3_7 2.735818 1_545
Ir3_2 Os0_3 2.718083 1_555
Ir3_2 Os0_6 2.718084 1_555
Ir3_2 Os0_0 2.718084 1_565
Ir3_2 Ir3_7 2.735817 1_554
Ir3_2 Ir3_7 2.735817 1_455
Ir3_2 Ir3_4 2.735818 1_465
Ir3_2 Ir3_4 2.735818 1_555
Ir3_3 Os0_2 2.718083 1_556
Ir3_3 Os0_1 2.718084 1_565
Ir3_3 Os0_7 2.718084 1_555
Ir3_3 Ir3_6 2.735817 1_555
Ir3_3 Ir3_6 2.735817 1_456
Ir3_3 Ir3_5 2.735818 1_555
Ir3_3 Ir3_5 2.735818 1_465
Ir3_4 Os0_5 2.718083 1_555
Ir3_4 Os0_6 2.718084 1_555
Ir3_4 Os0_0 2.718084 1_655
Ir3_4 Ir3_7 2.735817 1_554
Ir3_4 Ir3_7 2.735817 1_545
Ir3_5 Os0_4 2.718083 1_556
Ir3_5 Os0_1 2.718084 1_655
Ir3_5 Os0_7 2.718084 1_555
Ir3_5 Ir3_6 2.735817 1_555
Ir3_5 Ir3_6 2.735817 1_546
Ir3_6 Os0_7 2.718083 1_555
Ir3_6 Os0_4 2.718084 1_565
Ir3_6 Os0_2 2.718084 1_655
Ir3_7 Os0_6 2.718083 1_556
Ir3_7 Os0_3 2.718084 1_655
Ir3_7 Os0_5 2.718084 1_565
Os0_0 Os0_5 2.735817 1_554
Os0_0 Os0_3 2.735817 1_554
Os0_0 Os0_3 2.735817 1_545
Os0_0 Os0_5 2.735817 1_455
Os0_0 Os0_6 2.735818 1_545
Os0_0 Os0_6 2.735818 1_455
Os0_1 Os0_4 2.735817 1_555
Os0_1 Os0_2 2.735817 1_546
Os0_1 Os0_2 2.735817 1_555
Os0_1 Os0_4 2.735817 1_456
Os0_1 Os0_7 2.735818 1_455
Os0_1 Os0_7 2.735818 1_545
Os0_2 Os0_7 2.735817 1_554
Os0_2 Os0_7 2.735817 1_455
Os0_2 Os0_4 2.735818 1_555
Os0_2 Os0_4 2.735818 1_465
Os0_3 Os0_6 2.735817 1_555
Os0_3 Os0_6 2.735817 1_456
Os0_3 Os0_5 2.735818 1_555
Os0_3 Os0_5 2.735818 1_465
Os0_4 Os0_7 2.735817 1_545
Os0_4 Os0_7 2.735817 1_554
Os0_5 Os0_6 2.735817 1_555
Os0_5 Os0_6 2.735817 1_546
