# generated using pymatgen
data_Pr23Cd4Pt7
_symmetry_space_group_name_H-M   'P 1'
_cell_length_a   10.17547042
_cell_length_b   10.17547042
_cell_length_c   23.02334900
_cell_angle_alpha   90.00000000
_cell_angle_beta   90.00000000
_cell_angle_gamma   120.00000273
_symmetry_Int_Tables_number   1
_chemical_formula_structural   Pr23Cd4Pt7
_chemical_formula_sum   'Pr46 Cd8 Pt14'
_cell_volume   2064.46777785
_cell_formula_units_Z   2
loop_
 _symmetry_equiv_pos_site_id
 _symmetry_equiv_pos_as_xyz
  1  'x, y, z'
loop_
 _atom_site_type_symbol
 _atom_site_label
 _atom_site_symmetry_multiplicity
 _atom_site_fract_x
 _atom_site_fract_y
 _atom_site_fract_z
 _atom_site_occupancy
  Pr  Pr0  1  0.20525400  0.41050800  0.72089300  1
  Pr  Pr1  1  0.20525400  0.79474600  0.72089300  1
  Pr  Pr2  1  0.79474600  0.58949200  0.22089300  1
  Pr  Pr3  1  0.58949200  0.79474600  0.72089300  1
  Pr  Pr4  1  0.79474600  0.20525400  0.22089300  1
  Pr  Pr5  1  0.41050800  0.20525400  0.22089300  1
  Pr  Pr6  1  0.79444600  0.58889200  0.94531900  1
  Pr  Pr7  1  0.79444600  0.20555400  0.94531900  1
  Pr  Pr8  1  0.20555400  0.41110800  0.44531900  1
  Pr  Pr9  1  0.41110800  0.20555400  0.94531900  1
  Pr  Pr10  1  0.20555400  0.79444600  0.44531900  1
  Pr  Pr11  1  0.58889200  0.79444600  0.44531900  1
  Pr  Pr12  1  0.21115500  0.42231100  0.98954800  1
  Pr  Pr13  1  0.21115500  0.78884500  0.98954800  1
  Pr  Pr14  1  0.78884500  0.57768900  0.48954800  1
  Pr  Pr15  1  0.57768900  0.78884500  0.98954800  1
  Pr  Pr16  1  0.78884500  0.21115500  0.48954800  1
  Pr  Pr17  1  0.42231100  0.21115500  0.48954800  1
  Pr  Pr18  1  0.87144000  0.74288000  0.63632800  1
  Pr  Pr19  1  0.87144000  0.12856000  0.63632800  1
  Pr  Pr20  1  0.12856000  0.25712000  0.13632800  1
  Pr  Pr21  1  0.25712000  0.12856000  0.63632800  1
  Pr  Pr22  1  0.12856000  0.87144000  0.13632800  1
  Pr  Pr23  1  0.74288000  0.87144000  0.13632800  1
  Pr  Pr24  1  0.45661500  0.91322900  0.85622200  1
  Pr  Pr25  1  0.45661500  0.54338500  0.85622200  1
  Pr  Pr26  1  0.54338500  0.08677100  0.35622200  1
  Pr  Pr27  1  0.08677100  0.54338500  0.85622200  1
  Pr  Pr28  1  0.54338500  0.45661500  0.35622200  1
  Pr  Pr29  1  0.91322900  0.45661500  0.35622200  1
  Pr  Pr30  1  0.00000000  0.00000000  0.99615300  1
  Pr  Pr31  1  0.00000000  0.00000000  0.49615300  1
  Pr  Pr32  1  0.46122700  0.92245300  0.58489300  1
  Pr  Pr33  1  0.46122700  0.53877300  0.58489300  1
  Pr  Pr34  1  0.53877300  0.07754700  0.08489300  1
  Pr  Pr35  1  0.07754700  0.53877300  0.58489300  1
  Pr  Pr36  1  0.53877300  0.46122700  0.08489300  1
  Pr  Pr37  1  0.92245300  0.46122700  0.08489300  1
  Pr  Pr38  1  0.80098800  0.60197500  0.78393100  1
  Pr  Pr39  1  0.80098800  0.19901200  0.78393100  1
  Pr  Pr40  1  0.19901200  0.39802500  0.28393100  1
  Pr  Pr41  1  0.39802500  0.19901200  0.78393100  1
  Pr  Pr42  1  0.19901200  0.80098800  0.28393100  1
  Pr  Pr43  1  0.60197500  0.80098800  0.28393100  1
  Pr  Pr44  1  0.66666700  0.33333300  0.64277900  1
  Pr  Pr45  1  0.33333300  0.66666700  0.14277900  1
  Cd  Cd0  1  0.00000000  0.00000000  0.74897200  1
  Cd  Cd1  1  0.00000000  0.00000000  0.24897200  1
  Cd  Cd2  1  0.10723700  0.21447400  0.86324700  1
  Cd  Cd3  1  0.10723700  0.89276300  0.86324700  1
  Cd  Cd4  1  0.89276300  0.78552600  0.36324700  1
  Cd  Cd5  1  0.78552600  0.89276300  0.86324700  1
  Cd  Cd6  1  0.89276300  0.10723700  0.36324700  1
  Cd  Cd7  1  0.21447400  0.10723700  0.36324700  1
  Pt  Pt0  1  0.52270200  0.04540500  0.71079900  1
  Pt  Pt1  1  0.52270200  0.47729800  0.71079900  1
  Pt  Pt2  1  0.47729800  0.95459500  0.21079900  1
  Pt  Pt3  1  0.95459500  0.47729800  0.71079900  1
  Pt  Pt4  1  0.47729800  0.52270200  0.21079900  1
  Pt  Pt5  1  0.04540500  0.52270200  0.21079900  1
  Pt  Pt6  1  0.66666700  0.33333300  0.86143000  1
  Pt  Pt7  1  0.33333300  0.66666700  0.36143000  1
  Pt  Pt8  1  0.14273600  0.28547200  0.56461600  1
  Pt  Pt9  1  0.14273600  0.85726400  0.56461600  1
  Pt  Pt10  1  0.85726400  0.71452800  0.06461600  1
  Pt  Pt11  1  0.71452800  0.85726400  0.56461600  1
  Pt  Pt12  1  0.85726400  0.14273600  0.06461600  1
  Pt  Pt13  1  0.28547200  0.14273600  0.06461600  1
loop_
_geom_bond_atom_site_label_1
_geom_bond_atom_site_label_2
_geom_bond_distance
_geom_bond_site_symmetry_2
Pr0 Pt1 2.958830 1_555
Pr0 Pt3 2.958840 1_455
Pr1 Pt3 2.958833 1_455
Pr1 Pt0 2.958833 1_565
Pr2 Pt4 2.958830 1_555
Pr2 Pt5 2.958840 1_655
Pr3 Pt1 2.958830 1_555
Pr3 Pt0 2.958840 1_565
Pr4 Pt2 2.958833 1_545
Pr4 Pt5 2.958833 1_655
Pr5 Pt4 2.958830 1_555
Pr5 Pt2 2.958840 1_545
Pr6 Pt10 2.961358 1_556
Pr6 Pt6 2.966819 1_555
Pr7 Pt12 2.961358 1_556
Pr7 Pt6 2.966813 1_555
Pr8 Pt8 2.961358 1_555
Pr8 Pt7 2.966819 1_555
Pr9 Pt13 2.961358 1_556
Pr9 Pt6 2.966819 1_555
Pr10 Pt9 2.961358 1_555
Pr10 Pt7 2.966813 1_555
Pr11 Pt11 2.961358 1_555
Pr11 Pt7 2.966819 1_555
Pr12 Pt12 3.715251 1_456
Pr12 Pt13 3.715257 1_556
Pr13 Pt10 3.715248 1_456
Pr13 Pt13 3.715248 1_566
Pr14 Pt9 3.715251 1_655
Pr14 Pt11 3.715257 1_555
Pr15 Pt12 3.715251 1_566
Pr15 Pt10 3.715257 1_556
Pr16 Pt11 3.715248 1_545
Pr16 Pt8 3.715248 1_655
Pr17 Pt9 3.715251 1_545
Pr17 Pt8 3.715257 1_555
Pr18 Pt9 2.913472 1_655
Pr18 Pt11 2.913472 1_555
Pr18 Pt3 3.639427 1_555
Pr18 Pt1 3.639433 1_555
Pr19 Pt8 2.913472 1_655
Pr19 Pt11 2.913472 1_545
Pr19 Pt3 3.639435 1_555
Pr19 Pt0 3.639435 1_555
Pr20 Pt12 2.913472 1_455
Pr20 Pt13 2.913472 1_555
Pr20 Pt5 3.639427 1_555
Pr20 Pt4 3.639433 1_555
Pr21 Pt9 2.913472 1_545
Pr21 Pt8 2.913472 1_555
Pr21 Pt0 3.639427 1_555
Pr21 Pt1 3.639433 1_555
Pr22 Pt10 2.913472 1_455
Pr22 Pt13 2.913472 1_565
Pr22 Pt5 3.639435 1_555
Pr22 Pt2 3.639435 1_555
Pr23 Pt12 2.913472 1_565
Pr23 Pt10 2.913472 1_555
Pr23 Pt2 3.639427 1_555
Pr23 Pt4 3.639433 1_555
Pr24 Pt0 3.544942 1_565
Pr24 Pt6 3.703988 1_565
Pr25 Pt1 3.544936 1_555
Pr25 Pt6 3.703988 1_555
Pr26 Pt2 3.544942 1_545
Pr26 Pt7 3.703988 1_545
Pr27 Pt3 3.544942 1_455
Pr27 Pt6 3.703988 1_455
Pr28 Pt4 3.544936 1_555
Pr28 Pt7 3.703988 1_555
Pr29 Pt5 3.544942 1_655
Pr29 Pt7 3.703988 1_655
Pr30 Pt10 2.968671 1_446
Pr30 Pt13 2.968671 1_556
Pr30 Pt12 2.968671 1_456
Pr31 Pt11 2.968671 1_445
Pr31 Pt8 2.968671 1_555
Pr31 Pt9 2.968671 1_545
Pr32 Pt11 3.001822 1_555
Pr32 Pt9 3.001832 1_555
Pr32 Pt0 3.094647 1_565
Pr33 Pt8 3.001828 1_555
Pr33 Pt11 3.001828 1_555
Pr33 Pt1 3.094641 1_555
Pr34 Pt13 3.001822 1_555
Pr34 Pt12 3.001832 1_555
Pr34 Pt2 3.094647 1_545
Pr35 Pt8 3.001822 1_555
Pr35 Pt9 3.001832 1_555
Pr35 Pt3 3.094647 1_455
Pr36 Pt13 3.001828 1_555
Pr36 Pt10 3.001828 1_555
Pr36 Pt4 3.094641 1_555
Pr37 Pt10 3.001822 1_555
Pr37 Pt12 3.001832 1_555
Pr37 Pt5 3.094647 1_655
Pr38 Pt6 2.964445 1_555
Pr38 Pt3 2.978326 1_555
Pr38 Pt1 2.978341 1_555
Pr39 Pt6 2.964445 1_555
Pr39 Pt3 2.978340 1_555
Pr39 Pt0 2.978340 1_555
Pr40 Pt7 2.964445 1_555
Pr40 Pt5 2.978326 1_555
Pr40 Pt4 2.978341 1_555
Pr41 Pt6 2.964445 1_555
Pr41 Pt0 2.978326 1_555
Pr41 Pt1 2.978341 1_555
Pr42 Pt7 2.964445 1_555
Pr42 Pt5 2.978340 1_555
Pr42 Pt2 2.978340 1_555
Pr43 Pt7 2.964445 1_555
Pr43 Pt2 2.978326 1_555
Pr43 Pt4 2.978341 1_555
Pr44 Pt0 2.981663 1_555
Pr44 Pt3 2.981663 1_555
Pr44 Pt1 2.981678 1_555
Pr45 Pt2 2.981663 1_555
Pr45 Pt5 2.981663 1_555
Pr45 Pt4 2.981678 1_555
Cd0 Cd2 3.239474 1_555
Cd0 Cd5 3.239474 1_445
Cd0 Cd3 3.239474 1_545
Cd0 Pr21 3.443803 1_555
Cd0 Pr18 3.443803 1_445
Cd0 Pr19 3.443803 1_455
Cd0 Pr39 3.598637 1_455
Cd0 Pr38 3.598646 1_445
Cd0 Pr41 3.598646 1_555
Cd0 Pr0 3.674796 1_555
Cd0 Pr3 3.674796 1_445
Cd0 Pr1 3.674796 1_545
Cd1 Cd7 3.239474 1_555
Cd1 Cd4 3.239474 1_445
Cd1 Cd6 3.239474 1_455
Cd1 Pr20 3.443803 1_555
Cd1 Pr23 3.443803 1_445
Cd1 Pr22 3.443803 1_545
Cd1 Pr42 3.598637 1_545
Cd1 Pr43 3.598646 1_445
Cd1 Pr40 3.598646 1_555
Cd1 Pr2 3.674796 1_445
Cd1 Pr5 3.674796 1_555
Cd1 Pr4 3.674796 1_455
Cd2 Cd5 3.273561 1_445
Cd2 Cd3 3.273561 1_545
Cd2 Pr12 3.436587 1_555
Cd2 Pr27 3.459442 1_555
Cd2 Pr25 3.459448 1_555
Cd2 Pr39 3.546838 1_455
Cd2 Pr41 3.546846 1_555
Cd2 Pr30 3.596569 1_555
Cd2 Pr7 3.663335 1_455
Cd2 Pr9 3.663335 1_555
Cd2 Pr0 3.704864 1_555
Cd3 Cd5 3.273561 1_455
Cd3 Pr13 3.436582 1_555
Cd3 Pr27 3.459452 1_555
Cd3 Pr24 3.459452 1_555
Cd3 Pr38 3.546841 1_455
Cd3 Pr41 3.546841 1_565
Cd3 Pr30 3.596569 1_565
Cd3 Pr9 3.663335 1_565
Cd3 Pr6 3.663335 1_455
Cd3 Pr1 3.704864 1_555
Cd4 Cd7 3.273561 1_665
Cd4 Cd6 3.273561 1_565
Cd4 Pr14 3.436587 1_555
Cd4 Pr29 3.459442 1_555
Cd4 Pr28 3.459448 1_555
Cd4 Pr42 3.546838 1_655
Cd4 Pr43 3.546846 1_555
Cd4 Pr31 3.596569 1_665
Cd4 Pr10 3.663335 1_655
Cd4 Pr11 3.663335 1_555
Cd4 Pr2 3.704864 1_555
Cd5 Pr15 3.436587 1_555
Cd5 Pr24 3.459442 1_555
Cd5 Pr25 3.459448 1_555
Cd5 Pr39 3.546838 1_565
Cd5 Pr38 3.546846 1_555
Cd5 Pr30 3.596569 1_665
Cd5 Pr7 3.663335 1_565
Cd5 Pr6 3.663335 1_555
Cd5 Pr3 3.704864 1_555
Cd6 Cd7 3.273561 1_655
Cd6 Pr16 3.436582 1_555
Cd6 Pr29 3.459452 1_555
Cd6 Pr26 3.459452 1_555
Cd6 Pr43 3.546841 1_545
Cd6 Pr40 3.546841 1_655
Cd6 Pr31 3.596569 1_655
Cd6 Pr11 3.663335 1_545
Cd6 Pr8 3.663335 1_655
Cd6 Pr4 3.704864 1_555
Cd7 Pr17 3.436587 1_555
Cd7 Pr26 3.459442 1_555
Cd7 Pr28 3.459448 1_555
Cd7 Pr42 3.546838 1_545
Cd7 Pr40 3.546846 1_555
Cd7 Pr31 3.596569 1_555
Cd7 Pr10 3.663335 1_545
Cd7 Pr8 3.663335 1_555
Cd7 Pr5 3.704864 1_555
