# generated using pymatgen
data_Ho2MgSe4
_symmetry_space_group_name_H-M   'P 1'
_cell_length_a   4.00565800
_cell_length_b   13.10396100
_cell_length_c   14.04556500
_cell_angle_alpha   90.00000000
_cell_angle_beta   90.00000000
_cell_angle_gamma   90.00000000
_symmetry_Int_Tables_number   1
_chemical_formula_structural   Ho2MgSe4
_chemical_formula_sum   'Ho8 Mg4 Se16'
_cell_volume   737.25151318
_cell_formula_units_Z   4
loop_
 _symmetry_equiv_pos_site_id
 _symmetry_equiv_pos_as_xyz
  1  'x, y, z'
loop_
 _atom_site_type_symbol
 _atom_site_label
 _atom_site_symmetry_multiplicity
 _atom_site_fract_x
 _atom_site_fract_y
 _atom_site_fract_z
 _atom_site_occupancy
  Ho  Ho0  1  0.25000000  0.11529700  0.07426900  1
  Ho  Ho1  1  0.75000000  0.88470300  0.92573100  1
  Ho  Ho2  1  0.75000000  0.38470300  0.57426900  1
  Ho  Ho3  1  0.25000000  0.61529700  0.42573100  1
  Ho  Ho4  1  0.25000000  0.14321000  0.70285900  1
  Ho  Ho5  1  0.75000000  0.85679000  0.29714100  1
  Ho  Ho6  1  0.75000000  0.35679000  0.20285900  1
  Ho  Ho7  1  0.25000000  0.64321000  0.79714100  1
  Mg  Mg0  1  0.75000000  0.11297300  0.45266800  1
  Mg  Mg1  1  0.25000000  0.88702700  0.54733200  1
  Mg  Mg2  1  0.25000000  0.38702700  0.95266800  1
  Mg  Mg3  1  0.75000000  0.61297300  0.04733200  1
  Se  Se0  1  0.75000000  0.01091400  0.61711900  1
  Se  Se1  1  0.25000000  0.98908600  0.38288100  1
  Se  Se2  1  0.25000000  0.48908600  0.11711900  1
  Se  Se3  1  0.75000000  0.51091400  0.88288100  1
  Se  Se4  1  0.25000000  0.02902600  0.88107000  1
  Se  Se5  1  0.75000000  0.97097400  0.11893000  1
  Se  Se6  1  0.75000000  0.47097400  0.38107000  1
  Se  Se7  1  0.25000000  0.52902600  0.61893000  1
  Se  Se8  1  0.25000000  0.22065800  0.24958200  1
  Se  Se9  1  0.75000000  0.77934200  0.75041800  1
  Se  Se10  1  0.75000000  0.27934200  0.74958200  1
  Se  Se11  1  0.25000000  0.72065800  0.25041800  1
  Se  Se12  1  0.75000000  0.25903700  0.01401100  1
  Se  Se13  1  0.25000000  0.74096300  0.98598900  1
  Se  Se14  1  0.25000000  0.24096300  0.51401100  1
  Se  Se15  1  0.75000000  0.75903700  0.48598900  1
loop_
_geom_bond_atom_site_label_1
_geom_bond_atom_site_label_2
_geom_bond_distance
_geom_bond_site_symmetry_2
Ho0 Se8 2.823022 1_555
Ho0 Se5 2.825149 1_445
Ho0 Se5 2.825149 1_545
Ho0 Se12 2.876709 1_455
Ho0 Se12 2.876709 1_555
Ho0 Se4 2.939656 1_554
Ho1 Se9 2.823022 1_555
Ho1 Se4 2.825149 1_565
Ho1 Se4 2.825149 1_665
Ho1 Se13 2.876709 1_655
Ho1 Se13 2.876709 1_555
Ho1 Se5 2.939656 1_556
Ho2 Se10 2.823022 1_555
Ho2 Se7 2.825149 1_555
Ho2 Se7 2.825149 1_655
Ho2 Se14 2.876709 1_555
Ho2 Se14 2.876709 1_655
Ho2 Se6 2.939656 1_555
Ho3 Se11 2.823022 1_555
Ho3 Se6 2.825149 1_555
Ho3 Se6 2.825149 1_455
Ho3 Se15 2.876709 1_555
Ho3 Se15 2.876709 1_455
Ho3 Se7 2.939656 1_555
Ho4 Se10 2.761191 1_455
Ho4 Se10 2.761191 1_555
Ho4 Se0 2.909804 1_455
Ho4 Se0 2.909804 1_555
Ho4 Se4 2.916193 1_555
Ho4 Se14 2.945585 1_555
Ho5 Se11 2.761191 1_555
Ho5 Se11 2.761191 1_655
Ho5 Se1 2.909804 1_655
Ho5 Se1 2.909804 1_555
Ho5 Se5 2.916193 1_555
Ho5 Se15 2.945585 1_555
Ho6 Se8 2.761191 1_655
Ho6 Se8 2.761191 1_555
Ho6 Se2 2.909804 1_655
Ho6 Se2 2.909804 1_555
Ho6 Se6 2.916193 1_555
Ho6 Se12 2.945585 1_555
Ho7 Se9 2.761191 1_455
Ho7 Se9 2.761191 1_555
Ho7 Se3 2.909804 1_455
Ho7 Se3 2.909804 1_555
Ho7 Se7 2.916193 1_555
Ho7 Se13 2.945585 1_555
Mg0 Se0 2.669042 1_555
Mg0 Se14 2.750744 1_555
Mg0 Se14 2.750744 1_655
Mg0 Se1 2.758183 1_645
Mg0 Se1 2.758183 1_545
Mg1 Se1 2.669042 1_555
Mg1 Se15 2.750744 1_555
Mg1 Se15 2.750744 1_455
Mg1 Se0 2.758183 1_465
Mg1 Se0 2.758183 1_565
Mg2 Se2 2.669042 1_556
Mg2 Se12 2.750744 1_556
Mg2 Se12 2.750744 1_456
Mg2 Se3 2.758183 1_555
Mg2 Se3 2.758183 1_455
Mg3 Se3 2.669042 1_554
Mg3 Se13 2.750744 1_554
Mg3 Se13 2.750744 1_654
Mg3 Se2 2.758183 1_655
Mg3 Se2 2.758183 1_555
