# generated using pymatgen
data_Ce7Ti4(Se2O)6
_symmetry_space_group_name_H-M   'P 1'
_cell_length_a   3.84622091
_cell_length_b   11.12449999
_cell_length_c   14.20660221
_cell_angle_alpha   90.35452892
_cell_angle_beta   82.22013606
_cell_angle_gamma   90.00000000
_symmetry_Int_Tables_number   1
_chemical_formula_structural   Ce7Ti4(Se2O)6
_chemical_formula_sum   'Ce7 Ti4 Se12 O6'
_cell_volume   602.25510483
_cell_formula_units_Z   1
loop_
 _symmetry_equiv_pos_site_id
 _symmetry_equiv_pos_as_xyz
  1  'x, y, z'
loop_
 _atom_site_type_symbol
 _atom_site_label
 _atom_site_symmetry_multiplicity
 _atom_site_fract_x
 _atom_site_fract_y
 _atom_site_fract_z
 _atom_site_occupancy
  Ce  Ce0  1  0.19770649  0.42147015  0.60458703  1
  Ce  Ce1  1  0.79977486  0.57681321  0.40045028  1
  Ce  Ce2  1  0.56773809  0.77096796  0.86452382  1
  Ce  Ce3  1  0.43673695  0.23270118  0.12652610  1
  Ce  Ce4  1  0.05609559  0.26787411  0.88780882  1
  Ce  Ce5  1  0.94698429  0.73185652  0.10603142  1
  Ce  Ce6  1  0.32312057  0.95506269  0.35375886  1
  Ti  Ti0  1  0.50062004  0.50041396  0.99875992  1
  Ti  Ti1  1  0.20885949  0.73380974  0.58228103  1
  Ti  Ti2  1  0.78768826  0.26836903  0.42462348  1
  Ti  Ti3  1  0.00062625  0.00066493  0.99874750  1
  Se  Se0  1  0.36331877  0.70939966  0.27336246  1
  Se  Se1  1  0.63636709  0.29339870  0.72726583  1
  Se  Se2  1  0.13934105  0.86830191  0.72131791  1
  Se  Se3  1  0.86075520  0.12576859  0.27848959  1
  Se  Se4  1  0.43714776  0.95103748  0.12570448  1
  Se  Se5  1  0.56051081  0.04774245  0.87897839  1
  Se  Se6  1  0.33858562  0.38059276  0.32282875  1
  Se  Se7  1  0.66245176  0.61779552  0.67509647  1
  Se  Se8  1  0.06383214  0.54089285  0.87233573  1
  Se  Se9  1  0.93619479  0.46039539  0.12761042  1
  Se  Se10  1  0.75663033  0.84252021  0.48673933  1
  Se  Se11  1  0.24644440  0.15574302  0.50711121  1
  O  O0  1  0.48498778  0.67096935  0.03002443  1
  O  O1  1  0.51499464  0.32866559  0.97001072  1
  O  O2  1  0.02200400  0.83287168  0.95599199  1
  O  O3  1  0.97730162  0.16825503  0.04539676  1
  O  O4  1  0.25286956  0.59480665  0.49426088  1
  O  O5  1  0.74649181  0.40553971  0.50701638  1
loop_
_geom_bond_atom_site_label_1
_geom_bond_atom_site_label_2
_geom_bond_distance
_geom_bond_site_symmetry_2
Ce0 O5 2.369159 1_555
Ce0 O5 2.369159 1_455
Ce0 O4 2.483400 1_555
Ce0 Se1 2.956485 1_555
Ce0 Se1 2.956485 1_455
Ce0 Se7 3.070219 1_555
Ce0 Se7 3.070219 1_455
Ce0 Se11 3.251198 1_555
Ce1 O4 2.340671 1_655
Ce1 O4 2.340671 1_555
Ce1 O5 2.432285 1_555
Ce1 Se0 3.017757 1_555
Ce1 Se0 3.017757 1_655
Ce1 Se6 3.102768 1_655
Ce1 Se6 3.102768 1_555
Ce1 Se10 3.188649 1_555
Ce2 O2 2.412291 1_655
Ce2 O2 2.412291 1_555
Ce2 O0 2.587804 1_556
Ce2 Se2 2.993539 1_555
Ce2 Se2 2.993539 1_655
Ce2 Se5 3.084425 1_565
Ce2 Se7 3.155340 1_555
Ce2 Se8 3.203880 1_555
Ce2 Se8 3.203880 1_655
Ce3 O3 2.346529 1_455
Ce3 O3 2.346529 1_555
Ce3 O1 2.454106 1_554
Ce3 Se3 3.117787 1_555
Ce3 Se3 3.117787 1_455
Ce3 Se4 3.133317 1_545
Ce3 Se9 3.180269 1_555
Ce3 Se9 3.180269 1_455
Ce3 Se6 3.206996 1_555
Ce4 O1 2.341947 1_555
Ce4 O1 2.341947 1_455
Ce4 O3 2.485794 1_456
Ce4 Se1 2.982212 1_455
Ce4 Se1 2.982212 1_555
Ce4 Se8 3.046352 1_555
Ce4 Se5 3.115588 1_455
Ce4 Se5 3.115588 1_555
Ce5 O0 2.300586 1_655
Ce5 O0 2.300586 1_555
Ce5 O2 2.398477 1_654
Ce5 Se9 3.036993 1_555
Ce5 Se0 3.052158 1_655
Ce5 Se0 3.052158 1_555
Ce5 Se4 3.116377 1_655
Ce5 Se4 3.116377 1_555
Ce6 Se3 2.907275 1_565
Ce6 Se3 2.907275 1_465
Ce6 Se0 2.951376 1_555
Ce6 Se10 2.966269 1_555
Ce6 Se10 2.966269 1_455
Ce6 Se11 3.095661 1_565
Ce6 Se4 3.210089 1_555
Se2 Ti1 2.456014 1_555
Se3 Ti2 2.589758 1_555
Se4 Ti3 2.684945 1_564
Se4 Ti3 2.684945 1_664
Se5 Ti3 2.612614 1_655
Se5 Ti3 2.612614 1_555
Se6 Ti2 2.707827 1_455
Se6 Ti2 2.707827 1_555
Se7 Ti1 2.663060 1_555
Se7 Ti1 2.663060 1_655
Se8 Ti0 2.660424 1_555
Se8 Ti0 2.660424 1_455
Se9 Ti0 2.682547 1_554
Se9 Ti0 2.682547 1_654
Se10 Ti1 2.643815 1_555
Se10 Ti1 2.643816 1_655
Se11 Ti2 2.575736 1_555
Se11 Ti2 2.575736 1_455
O0 Ti0 1.945032 1_554
O1 Ti0 1.950525 1_555
O2 Ti3 1.957654 1_565
O3 Ti3 1.972737 1_654
O4 Ti1 1.975412 1_555
O5 Ti2 1.910878 1_555
