# generated using pymatgen
data_LiB12PC
_symmetry_space_group_name_H-M   'P 1'
_cell_length_a   7.12658813
_cell_length_b   7.12658813
_cell_length_c   7.12658813
_cell_angle_alpha   132.21526944
_cell_angle_beta   110.33698480
_cell_angle_gamma   88.88501197
_symmetry_Int_Tables_number   1
_chemical_formula_structural   LiB12PC
_chemical_formula_sum   'Li2 B24 P2 C2'
_cell_volume   239.11822622
_cell_formula_units_Z   2
loop_
 _symmetry_equiv_pos_site_id
 _symmetry_equiv_pos_as_xyz
  1  'x, y, z'
loop_
 _atom_site_type_symbol
 _atom_site_label
 _atom_site_symmetry_multiplicity
 _atom_site_fract_x
 _atom_site_fract_y
 _atom_site_fract_z
 _atom_site_occupancy
  Li  Li0  1  0.06544500  0.74825200  0.81719400  1
  Li  Li1  1  0.93105800  0.24825200  0.18280600  1
  B  B0  1  0.86610300  0.83236200  0.53374100  1
  B  B1  1  0.29862100  0.33236200  0.46625900  1
  B  B2  1  0.14318200  0.16631400  0.47686700  1
  B  B3  1  0.68944700  0.66631400  0.52313300  1
  B  B4  1  0.26959100  0.08971100  0.67988000  1
  B  B5  1  0.40983100  0.58971100  0.32012000  1
  B  B6  1  0.75222600  0.91154000  0.34068600  1
  B  B7  1  0.57085300  0.41154000  0.65931400  1
  B  B8  1  0.10520400  0.78011700  0.50844800  1
  B  B9  1  0.27166900  0.59675600  0.49155200  1
  B  B10  1  0.27166900  0.28011700  0.17491400  1
  B  B11  1  0.10520400  0.09675600  0.82508600  1
  B  B12  1  0.90130100  0.22283200  0.50284700  1
  B  B13  1  0.71998500  0.39845400  0.49715300  1
  B  B14  1  0.71998500  0.72283200  0.82153100  1
  B  B15  1  0.90130100  0.89845400  0.17846900  1
  B  B16  1  0.13402300  0.82477400  0.29552200  1
  B  B17  1  0.52925200  0.83850100  0.70447800  1
  B  B18  1  0.52925200  0.32477400  0.19075100  1
  B  B19  1  0.13402300  0.33850100  0.80924900  1
  B  B20  1  0.88262400  0.16233700  0.70492200  1
  B  B21  1  0.45741500  0.17770200  0.29507800  1
  B  B22  1  0.45741500  0.66233700  0.77971300  1
  B  B23  1  0.88262400  0.67770200  0.22028700  1
  P  P0  1  0.45850700  0.82833700  0.13017000  1
  P  P1  1  0.69816700  0.32833700  0.86983000  1
  C  C0  1  0.51752500  0.14494100  0.87258400  1
  C  C1  1  0.27235700  0.64494100  0.12741600  1
loop_
_geom_bond_atom_site_label_1
_geom_bond_atom_site_label_2
_geom_bond_distance
_geom_bond_site_symmetry_2
Li0 P0 2.675076 1_556
Li1 P1 2.675070 1_554
B0 B3 1.691927 1_555
B0 B20 1.757230 1_565
B0 B23 1.757230 1_555
B0 B6 1.766142 1_555
B0 B11 1.781364 1_665
B0 B8 1.781365 1_655
B0 Li0 2.461187 1_655
B1 B2 1.691922 1_555
B1 B22 1.757230 1_555
B1 B21 1.757230 1_555
B1 B7 1.766136 1_555
B1 B10 1.781358 1_555
B1 B9 1.781365 1_555
B1 Li1 2.461189 1_455
B2 B4 1.827321 1_555
B2 Li1 2.534981 1_455
B3 B5 1.827323 1_555
B3 Li0 2.534974 1_655
B4 C0 1.666423 1_555
B4 B8 1.793434 1_545
B5 C1 1.666423 1_555
B5 B9 1.793434 1_555
B6 P0 1.911533 1_555
B7 P1 1.911534 1_555
B8 B9 1.719578 1_555
B8 Li0 2.465871 1_555
B8 Li1 2.766437 1_455
B9 Li1 2.465868 1_455
B9 Li0 2.766443 1_555
B10 B11 1.719588 1_554
B10 B21 1.741475 1_555
B10 B5 1.793437 1_555
B10 B18 1.820503 1_555
B10 B9 1.827896 1_555
B10 Li1 2.465864 1_455
B10 Li0 2.766437 1_544
B11 B20 1.741476 1_455
B11 B4 1.793428 1_555
B11 B19 1.820495 1_555
B11 B8 1.827896 1_545
B11 Li0 2.465873 1_545
B11 Li1 2.766443 1_456
B12 B6 1.782918 1_545
B12 B13 1.790717 1_555
B12 B20 1.802025 1_555
B12 B2 1.806254 1_655
B12 B19 1.820807 1_655
B12 B15 1.872575 1_545
B12 Li1 2.484509 1_555
B12 Li0 2.735732 1_655
B13 B7 1.782924 1_555
B13 B21 1.802025 1_555
B13 B3 1.806247 1_555
B13 B18 1.820807 1_555
B13 B14 1.872575 1_555
B13 Li0 2.484504 1_655
B13 Li1 2.735733 1_555
B14 B7 1.782921 1_555
B14 B15 1.790717 1_556
B14 B22 1.802025 1_555
B14 B3 1.806247 1_555
B14 B17 1.820807 1_555
B14 Li0 2.484502 1_655
B14 Li1 2.735733 1_566
B15 B6 1.782918 1_555
B15 B23 1.802025 1_555
B15 B2 1.806251 1_665
B15 B16 1.820807 1_655
B15 Li1 2.484509 1_565
B15 Li0 2.735727 1_654
B16 C1 1.660757 1_555
B16 B23 1.801697 1_455
B16 B8 1.820500 1_555
B16 B2 1.821873 1_565
B17 C0 1.660757 1_565
B17 B22 1.801697 1_555
B17 B9 1.820500 1_555
B17 B3 1.821875 1_555
B18 C0 1.660757 1_554
B18 B21 1.801697 1_555
B18 B3 1.821875 1_555
B19 C1 1.660757 1_556
B19 B20 1.801697 1_455
B19 B2 1.821878 1_555
B20 B6 1.717368 1_545
B20 P1 1.911461 1_555
B21 B7 1.717368 1_555
B21 P0 1.911461 1_545
B22 B7 1.717364 1_555
B22 B9 1.741478 1_555
B22 P0 1.911461 1_556
B23 B6 1.717368 1_555
B23 B8 1.741478 1_655
B23 P1 1.911461 1_554
C0 P1 1.866391 1_555
C0 Li1 2.735570 1_556
C1 P0 1.866391 1_555
C1 Li0 2.735572 1_554
