# generated using pymatgen
data_RbAl6H20N5F24
_symmetry_space_group_name_H-M   'P 1'
_cell_length_a   5.13117100
_cell_length_b   5.18956058
_cell_length_c   22.80949957
_cell_angle_alpha   89.74986186
_cell_angle_beta   88.60360759
_cell_angle_gamma   89.09274626
_symmetry_Int_Tables_number   1
_chemical_formula_structural   RbAl6H20N5F24
_chemical_formula_sum   'Rb1 Al6 H20 N5 F24'
_cell_volume   607.12196800
_cell_formula_units_Z   1
loop_
 _symmetry_equiv_pos_site_id
 _symmetry_equiv_pos_as_xyz
  1  'x, y, z'
loop_
 _atom_site_type_symbol
 _atom_site_label
 _atom_site_symmetry_multiplicity
 _atom_site_fract_x
 _atom_site_fract_y
 _atom_site_fract_z
 _atom_site_occupancy
  Rb  Rb0  1  0.57955600  0.05367300  0.85877000  1
  Al  Al0  1  0.77191300  0.85886800  0.33661500  1
  Al  Al1  1  0.02064400  0.99846400  0.98329700  1
  Al  Al2  1  0.13158900  0.15204200  0.68287400  1
  Al  Al3  1  0.26621700  0.35858600  0.33639200  1
  Al  Al4  1  0.52021800  0.49984100  0.98982300  1
  Al  Al5  1  0.64382000  0.64721600  0.66360400  1
  H  H0  1  0.91116000  0.49434800  0.17493000  1
  H  H1  1  0.46858100  0.78642000  0.10852600  1
  H  H2  1  0.07074300  0.89189900  0.51996300  1
  H  H3  1  0.22939900  0.75949400  0.21939200  1
  H  H4  1  0.57710700  0.93840100  0.16815000  1
  H  H5  1  0.69947000  0.00889300  0.09969200  1
  H  H6  1  0.14780900  0.87425800  0.21092200  1
  H  H7  1  0.52687500  0.12317100  0.25605100  1
  H  H8  1  0.38951700  0.10221800  0.12100500  1
  H  H9  1  0.33624500  0.15583500  0.58426500  1
  H  H10  1  0.10716500  0.16287200  0.61260400  1
  H  H11  1  0.92967300  0.38124300  0.45590600  1
  H  H12  1  0.66130200  0.19801800  0.46630600  1
  H  H13  1  0.72273300  0.42508000  0.51613400  1
  H  H14  1  0.63491800  0.51271800  0.44890700  1
  H  H15  1  0.52505200  0.54799100  0.85444900  1
  H  H16  1  0.15962800  0.46406600  0.78856500  1
  H  H17  1  0.87819000  0.62090400  0.79707500  1
  H  H18  1  0.11114800  0.67819900  0.84567500  1
  H  H19  1  0.14315300  0.78963300  0.77657900  1
  N  N0  1  0.06184800  0.39090000  0.15345600  1
  N  N1  1  0.19700600  0.73159400  0.51763300  1
  N  N2  1  0.53152100  0.96063000  0.12467800  1
  N  N3  1  0.73809200  0.37761600  0.47243600  1
  N  N4  1  0.07681100  0.63798700  0.80219800  1
  F  F0  1  0.56142700  0.48415900  0.06476000  1
  F  F1  1  0.38118500  0.28912400  0.25668000  1
  F  F2  1  0.01610700  0.60286100  0.31242100  1
  F  F3  1  0.51658700  0.61254400  0.33369100  1
  F  F4  1  0.81767600  0.82477100  0.41104500  1
  F  F5  1  0.71098600  0.63186200  0.59184900  1
  F  F6  1  0.96011800  0.01778200  0.05882300  1
  F  F7  1  0.38853800  0.88152500  0.68249500  1
  F  F8  1  0.67893400  0.94560200  0.25497700  1
  F  F9  1  0.86783800  0.89224100  0.69134100  1
  F  F10  1  0.02523000  0.10345200  0.32540400  1
  F  F11  1  0.15764400  0.13999400  0.76239000  1
  F  F12  1  0.52187500  0.11295900  0.35203200  1
  F  F13  1  0.07536500  0.97434600  0.90445000  1
  F  F14  1  0.20141800  0.39028200  0.41079700  1
  F  F15  1  0.77158600  0.25931700  0.96757200  1
  F  F16  1  0.51135500  0.13401100  0.56641200  1
  F  F17  1  0.27984900  0.24350900  0.98607200  1
  F  F18  1  0.39432400  0.40939100  0.68238800  1
  F  F19  1  0.87298200  0.41386000  0.69520100  1
  F  F20  1  0.57494200  0.55871200  0.80776100  1
  F  F21  1  0.45275300  0.53154200  0.90440900  1
  F  F22  1  0.75819300  0.75449300  0.97438400  1
  F  F23  1  0.26426000  0.74324900  0.99524000  1
loop_
_geom_bond_atom_site_label_1
_geom_bond_atom_site_label_2
_geom_bond_distance
_geom_bond_site_symmetry_2
Al0 F4 1.727473 1_555
Al0 F10 1.843691 1_665
Al0 F3 1.847428 1_555
Al0 F12 1.853905 1_565
Al0 F2 1.886695 1_655
Al0 F8 1.981639 1_555
Al1 F6 1.746047 1_466
Al1 F13 1.818022 1_555
Al1 F23 1.830845 1_555
Al1 F17 1.857014 1_565
Al1 F22 1.878159 1_455
Al1 F15 1.886182 1_465
Al2 H10 1.611424 1_555
Al2 F11 1.822615 1_555
Al2 F19 1.901065 1_455
Al2 F7 1.910538 1_545
Al2 F18 1.912432 1_555
Al2 F9 1.931169 1_445
Al3 F14 1.729479 1_555
Al3 F10 1.847911 1_555
Al3 F12 1.854423 1_555
Al3 F3 1.854783 1_555
Al3 F2 1.878723 1_555
Al3 F1 1.931445 1_555
Al4 F0 1.728818 1_556
Al4 F23 1.810175 1_555
Al4 F17 1.831992 1_555
Al4 F22 1.840544 1_555
Al4 F15 1.844420 1_555
Al4 F21 1.992699 1_555
Al5 F5 1.666336 1_555
Al5 F7 1.818429 1_555
Al5 F19 1.832277 1_555
Al5 F18 1.834245 1_555
Al5 F9 1.851273 1_555
H0 N0 1.047216 1_655
H1 N2 1.036984 1_555
H2 N1 1.047037 1_555
H3 H6 0.749897 1_555
H4 N2 1.029899 1_555
H5 N2 1.054441 1_545
H8 N2 1.031178 1_545
H11 N3 1.044668 1_555
H12 N3 1.029051 1_555
H13 N3 1.028617 1_555
H14 N3 1.028920 1_555
H15 Rb0 2.577804 1_555
H15 Rb0 2.646045 1_565
H16 N4 1.037199 1_555
H17 N4 1.033902 1_655
H17 Rb0 3.030820 1_565
H18 N4 1.034178 1_555
H19 N4 1.035112 1_555
F1 H7 1.131351 1_555
F6 H5 1.612656 1_555
F8 H7 1.197933 1_565
F11 Rb0 3.148492 1_555
F13 Rb0 2.796380 1_465
F13 Rb0 2.801205 1_565
F15 Rb0 2.905916 1_555
F16 H9 0.982516 1_555
F20 H15 1.090574 1_555
F20 Rb0 2.825154 1_565
F20 Rb0 2.862918 1_555
F21 H15 1.192922 1_555
F21 Rb0 2.755996 1_555
F21 Rb0 2.974444 1_565
F22 Rb0 3.200323 1_565
