# generated using pymatgen
data_RbTaV2O8
_symmetry_space_group_name_H-M   'P 1'
_cell_length_a   5.68633500
_cell_length_b   9.20923300
_cell_length_c   15.20270800
_cell_angle_alpha   90.00000000
_cell_angle_beta   90.00000000
_cell_angle_gamma   90.00000000
_symmetry_Int_Tables_number   1
_chemical_formula_structural   RbTaV2O8
_chemical_formula_sum   'Rb4 Ta4 V8 O32'
_cell_volume   796.11692500
_cell_formula_units_Z   4
loop_
 _symmetry_equiv_pos_site_id
 _symmetry_equiv_pos_as_xyz
  1  'x, y, z'
loop_
 _atom_site_type_symbol
 _atom_site_label
 _atom_site_symmetry_multiplicity
 _atom_site_fract_x
 _atom_site_fract_y
 _atom_site_fract_z
 _atom_site_occupancy
  Rb  Rb0  1  0.25000000  0.44754300  0.61379400  1
  Rb  Rb1  1  0.25000000  0.05245700  0.11379400  1
  Rb  Rb2  1  0.75000000  0.55245700  0.38620600  1
  Rb  Rb3  1  0.75000000  0.94754300  0.88620600  1
  Ta  Ta0  1  0.25000000  0.99596100  0.65878900  1
  Ta  Ta1  1  0.25000000  0.50403900  0.15878900  1
  Ta  Ta2  1  0.75000000  0.00403900  0.34121100  1
  Ta  Ta3  1  0.75000000  0.49596100  0.84121100  1
  V  V0  1  0.25000000  0.24735900  0.83792600  1
  V  V1  1  0.25000000  0.25264100  0.33792600  1
  V  V2  1  0.75000000  0.75264100  0.16207400  1
  V  V3  1  0.75000000  0.74735900  0.66207400  1
  V  V4  1  0.25000000  0.81936600  0.43835900  1
  V  V5  1  0.25000000  0.68063400  0.93835900  1
  V  V6  1  0.75000000  0.18063400  0.56164100  1
  V  V7  1  0.75000000  0.31936600  0.06164100  1
  O  O0  1  0.99728900  0.35080900  0.80939200  1
  O  O1  1  0.50271100  0.14919100  0.30939200  1
  O  O2  1  0.49728900  0.64919100  0.19060800  1
  O  O3  1  0.00271100  0.85080900  0.69060800  1
  O  O4  1  0.00271100  0.64919100  0.19060800  1
  O  O5  1  0.49728900  0.85080900  0.69060800  1
  O  O6  1  0.50271100  0.35080900  0.80939200  1
  O  O7  1  0.99728900  0.14919100  0.30939200  1
  O  O8  1  0.99612500  0.86132600  0.37448900  1
  O  O9  1  0.50387500  0.63867400  0.87448900  1
  O  O10  1  0.49612500  0.13867400  0.62551100  1
  O  O11  1  0.00387500  0.36132600  0.12551100  1
  O  O12  1  0.00387500  0.13867400  0.62551100  1
  O  O13  1  0.49612500  0.36132600  0.12551100  1
  O  O14  1  0.50387500  0.86132600  0.37448900  1
  O  O15  1  0.99612500  0.63867400  0.87448900  1
  O  O16  1  0.25000000  0.07720500  0.78038900  1
  O  O17  1  0.25000000  0.42279500  0.28038900  1
  O  O18  1  0.75000000  0.92279500  0.21961100  1
  O  O19  1  0.75000000  0.57720500  0.71961100  1
  O  O20  1  0.25000000  0.92102700  0.53666600  1
  O  O21  1  0.25000000  0.57897300  0.03666600  1
  O  O22  1  0.75000000  0.07897300  0.46333400  1
  O  O23  1  0.75000000  0.42102700  0.96333400  1
  O  O24  1  0.25000000  0.21370500  0.94393200  1
  O  O25  1  0.25000000  0.28629500  0.44393200  1
  O  O26  1  0.75000000  0.78629500  0.05606800  1
  O  O27  1  0.75000000  0.71370500  0.55606800  1
  O  O28  1  0.25000000  0.64346500  0.45958900  1
  O  O29  1  0.25000000  0.85653500  0.95958900  1
  O  O30  1  0.75000000  0.35653500  0.54041100  1
  O  O31  1  0.75000000  0.14346500  0.04041100  1
loop_
_geom_bond_atom_site_label_1
_geom_bond_atom_site_label_2
_geom_bond_distance
_geom_bond_site_symmetry_2
O0 V0 1.777856 1_655
O0 Ta3 1.999545 1_555
O0 Rb0 3.420670 1_655
O1 V1 1.777856 1_555
O1 Ta2 1.999545 1_555
O1 Rb1 3.420670 1_555
O2 V2 1.777856 1_555
O2 Ta1 1.999545 1_555
O2 Rb2 3.420670 1_555
O3 V3 1.777856 1_455
O3 Ta0 1.999545 1_555
O3 Rb3 3.420670 1_455
O4 V2 1.777856 1_455
O4 Ta1 1.999545 1_555
O4 Rb2 3.420670 1_455
O5 V3 1.777856 1_555
O5 Ta0 1.999545 1_555
O5 Rb3 3.420670 1_555
O6 V0 1.777856 1_555
O6 Ta3 1.999545 1_555
O6 Rb0 3.420670 1_555
O7 V1 1.777856 1_655
O7 Ta2 1.999545 1_555
O7 Rb1 3.420670 1_655
O8 V4 1.782187 1_655
O8 Ta2 1.985450 1_565
O8 Rb2 3.175113 1_555
O9 V5 1.782187 1_555
O9 Ta3 1.985450 1_555
O9 Rb3 3.175113 1_555
O10 V6 1.782187 1_555
O10 Ta0 1.985450 1_545
O10 Rb0 3.175113 1_555
O11 V7 1.782187 1_455
O11 Ta1 1.985450 1_555
O11 Rb1 3.175113 1_555
O12 V6 1.782187 1_455
O12 Ta0 1.985450 1_545
O12 Rb0 3.175113 1_555
O13 V7 1.782187 1_555
O13 Ta1 1.985450 1_555
O13 Rb1 3.175113 1_555
O14 V4 1.782187 1_555
O14 Ta2 1.985450 1_565
O14 Rb2 3.175113 1_555
O15 V5 1.782187 1_655
O15 Ta3 1.985450 1_555
O15 Rb3 3.175113 1_555
O16 V0 1.794598 1_555
O16 Ta0 1.994317 1_545
O16 Rb3 3.478129 1_545
O16 Rb3 3.478129 1_445
O17 V1 1.794598 1_555
O17 Ta1 1.994317 1_555
O17 Rb2 3.478129 1_555
O17 Rb2 3.478129 1_455
O18 V2 1.794598 1_555
O18 Ta2 1.994317 1_565
O18 Rb1 3.478129 1_565
O18 Rb1 3.478129 1_665
O19 V3 1.794598 1_555
O19 Ta3 1.994317 1_555
O19 Rb0 3.478129 1_655
O19 Rb0 3.478129 1_555
O20 V4 1.763558 1_555
O20 Ta0 1.980702 1_555
O21 V5 1.763558 1_554
O21 Ta1 1.980702 1_555
O22 V6 1.763558 1_555
O22 Ta2 1.980702 1_555
O23 V7 1.763558 1_556
O23 Ta3 1.980702 1_555
O24 V0 1.641109 1_555
O24 Rb1 2.978881 1_556
O25 V1 1.641109 1_555
O25 Rb0 2.978881 1_555
O26 V2 1.641109 1_555
O26 Rb3 2.978881 1_554
O27 V3 1.641109 1_555
O27 Rb2 2.978881 1_555
O28 V4 1.651753 1_555
O28 Rb0 2.958271 1_555
O28 Rb2 3.167119 1_455
O28 Rb2 3.167119 1_555
O29 V5 1.651753 1_555
O29 Rb1 2.958271 1_566
O29 Rb3 3.167119 1_555
O29 Rb3 3.167119 1_455
O30 V6 1.651753 1_555
O30 Rb2 2.958271 1_555
O30 Rb0 3.167119 1_555
O30 Rb0 3.167119 1_655
O31 V7 1.651753 1_555
O31 Rb3 2.958271 1_544
O31 Rb1 3.167119 1_655
O31 Rb1 3.167119 1_555
