# generated using pymatgen
data_La2Mg
_symmetry_space_group_name_H-M   'P 1'
_cell_length_a   6.25426504
_cell_length_b   6.25426649
_cell_length_c   5.60551165
_cell_angle_alpha   90.00000000
_cell_angle_beta   90.00000000
_cell_angle_gamma   119.58839048
_symmetry_Int_Tables_number   1
_chemical_formula_structural   La2Mg
_chemical_formula_sum   'La4 Mg2'
_cell_volume   190.67113683
_cell_formula_units_Z   2
loop_
 _symmetry_equiv_pos_site_id
 _symmetry_equiv_pos_as_xyz
  1  'x, y, z'
loop_
 _atom_site_type_symbol
 _atom_site_label
 _atom_site_symmetry_multiplicity
 _atom_site_fract_x
 _atom_site_fract_y
 _atom_site_fract_z
 _atom_site_occupancy
  La  La0  1  0.00094640  0.30354576  0.75000000  1
  La  La1  1  0.30354576  0.00094640  0.75000000  1
  La  La2  1  0.69645424  -0.00094640  0.25000000  1
  La  La3  1  -0.00094640  0.69645424  0.25000000  1
  Mg  Mg0  1  0.64622393  0.64622393  0.75000000  1
  Mg  Mg1  1  0.35377607  0.35377607  0.25000000  1
loop_
_geom_bond_atom_site_label_1
_geom_bond_atom_site_label_2
_geom_bond_distance
_geom_bond_site_symmetry_2
La0 La1 3.271151 1_555
La0 La2 3.395188 1_455
La0 La2 3.395188 1_456
La0 Mg1 3.484109 1_556
La0 Mg1 3.484109 1_555
La0 Mg0 3.512682 1_555
La0 Mg0 3.579935 1_445
La0 La3 3.731340 1_556
La0 La3 3.731340 1_555
La0 Mg0 3.769701 1_455
La0 La1 3.801916 1_455
La0 La1 3.801917 1_565
La1 La3 3.395188 1_545
La1 La3 3.395188 1_546
La1 Mg1 3.484110 1_555
La1 Mg1 3.484110 1_556
La1 Mg0 3.512682 1_555
La1 Mg0 3.579934 1_445
La1 La2 3.731340 1_556
La1 La2 3.731340 1_555
La1 Mg0 3.769701 1_545
La2 La3 3.271151 1_645
La2 Mg0 3.484110 1_544
La2 Mg0 3.484110 1_545
La2 Mg1 3.512682 1_545
La2 Mg1 3.579934 1_655
La2 Mg1 3.769701 1_555
La2 La3 3.801916 1_545
La2 La3 3.801917 1_655
La3 Mg0 3.484109 1_455
La3 Mg0 3.484109 1_454
La3 Mg1 3.512682 1_455
La3 Mg1 3.579935 1_565
La3 Mg1 3.769701 1_555
Mg0 Mg1 3.352993 1_556
Mg0 Mg1 3.352993 1_555
