# generated using pymatgen
data_Ba2FeP4HO14
_symmetry_space_group_name_H-M   'P 1'
_cell_length_a   4.94323767
_cell_length_b   7.70685473
_cell_length_c   8.97661865
_cell_angle_alpha   109.40797437
_cell_angle_beta   98.76853251
_cell_angle_gamma   103.43422822
_symmetry_Int_Tables_number   1
_chemical_formula_structural   Ba2FeP4HO14
_chemical_formula_sum   'Ba2 Fe1 P4 H1 O14'
_cell_volume   303.73353778
_cell_formula_units_Z   1
loop_
 _symmetry_equiv_pos_site_id
 _symmetry_equiv_pos_as_xyz
  1  'x, y, z'
loop_
 _atom_site_type_symbol
 _atom_site_label
 _atom_site_symmetry_multiplicity
 _atom_site_fract_x
 _atom_site_fract_y
 _atom_site_fract_z
 _atom_site_occupancy
  Ba  Ba0  1  0.38258500  0.05020300  0.76695800  1
  Ba  Ba1  1  0.60788700  0.98925300  0.24411600  1
  Fe  Fe0  1  0.49343100  0.50526100  0.49993600  1
  P  P0  1  0.91604000  0.69160600  0.86792100  1
  P  P1  1  0.10498100  0.31245000  0.12927300  1
  P  P2  1  0.96364900  0.32536300  0.64275100  1
  P  P3  1  0.03279200  0.68243900  0.35946800  1
  H  H0  1  0.73761300  0.58423500  0.03839400  1
  O  O0  1  0.86025400  0.12726600  0.64978400  1
  O  O1  1  0.11776700  0.87838300  0.34492000  1
  O  O2  1  0.93639500  0.47506800  0.81387100  1
  O  O3  1  0.05339000  0.52946600  0.18947000  1
  O  O4  1  0.72894600  0.68770500  0.99819200  1
  O  O5  1  0.30081800  0.31830100  0.01716800  1
  O  O6  1  0.20877700  0.83819900  0.94811400  1
  O  O7  1  0.80732400  0.16411200  0.05165100  1
  O  O8  1  0.74918200  0.71980700  0.72529600  1
  O  O9  1  0.23726500  0.29348900  0.29078000  1
  O  O10  1  0.76094000  0.34552400  0.50518500  1
  O  O11  1  0.24624700  0.67675900  0.50165700  1
  O  O12  1  0.27707500  0.37847000  0.63461200  1
  O  O13  1  0.72204100  0.62923900  0.37398400  1
loop_
_geom_bond_atom_site_label_1
_geom_bond_atom_site_label_2
_geom_bond_distance
_geom_bond_site_symmetry_2
Ba0 O5 2.656669 1_556
Ba0 O0 2.748680 1_555
Ba0 O6 2.755296 1_545
Ba0 O7 2.779671 1_556
Ba0 O0 2.902675 1_455
Ba0 O11 2.909177 1_545
Ba1 O7 2.687411 1_565
Ba1 O6 2.754365 1_554
Ba1 O1 2.763893 1_555
Ba1 O10 2.796657 1_565
Ba1 O4 2.876074 1_554
Ba1 O1 2.953101 1_655
Fe0 O11 1.995688 1_555
Fe0 O10 2.010564 1_555
Fe0 O9 2.017582 1_555
Fe0 O13 2.018437 1_555
Fe0 O12 2.062495 1_555
Fe0 O8 2.109652 1_555
H0 O4 0.985074 1_554
O0 P2 1.519000 1_555
O1 P3 1.525443 1_555
O2 P0 1.607891 1_555
O2 P2 1.632894 1_555
O3 P3 1.623725 1_555
O3 P1 1.671498 1_555
O4 P0 1.601223 1_555
O5 P1 1.502920 1_555
O6 P0 1.506935 1_455
O7 P1 1.527697 1_655
O8 P0 1.520845 1_555
O9 P1 1.564286 1_555
O10 P2 1.541344 1_555
O11 P3 1.546736 1_555
O12 P2 1.527429 1_455
O13 P3 1.532521 1_655
