# generated using pymatgen
data_Sr5Ti8O21
_symmetry_space_group_name_H-M   'P 1'
_cell_length_a   5.65100865
_cell_length_b   15.71211447
_cell_length_c   32.01610516
_cell_angle_alpha   90.00000000
_cell_angle_beta   90.80366041
_cell_angle_gamma   90.00000000
_symmetry_Int_Tables_number   1
_chemical_formula_structural   Sr5Ti8O21
_chemical_formula_sum   'Sr20 Ti32 O84'
_cell_volume   2842.40776112
_cell_formula_units_Z   4
loop_
 _symmetry_equiv_pos_site_id
 _symmetry_equiv_pos_as_xyz
  1  'x, y, z'
loop_
 _atom_site_type_symbol
 _atom_site_label
 _atom_site_symmetry_multiplicity
 _atom_site_fract_x
 _atom_site_fract_y
 _atom_site_fract_z
 _atom_site_occupancy
  Sr  Sr0  1  0.51228036  -0.00000000  0.17856084  1
  Sr  Sr1  1  0.48771964  -0.00000000  0.82143916  1
  Sr  Sr2  1  0.50862298  0.74537505  0.17807602  1
  Sr  Sr3  1  0.50862298  0.25462495  0.17807602  1
  Sr  Sr4  1  0.49137702  0.25462495  0.82192398  1
  Sr  Sr5  1  0.49137702  0.74537505  0.82192398  1
  Sr  Sr6  1  0.49938436  0.50000000  0.18232921  1
  Sr  Sr7  1  0.50061564  0.50000000  0.81767079  1
  Sr  Sr8  1  0.00340730  -0.00000000  0.08834718  1
  Sr  Sr9  1  0.99659270  -0.00000000  0.91165282  1
  Sr  Sr10  1  0.00240091  0.75517974  0.08554741  1
  Sr  Sr11  1  0.00240091  0.24482026  0.08554741  1
  Sr  Sr12  1  0.99759909  0.24482026  0.91445259  1
  Sr  Sr13  1  0.99759909  0.75517974  0.91445259  1
  Sr  Sr14  1  0.99856249  0.50000000  0.08344526  1
  Sr  Sr15  1  0.00143751  0.50000000  0.91655474  1
  Sr  Sr16  1  0.50000000  -0.00000000  0.00000000  1
  Sr  Sr17  1  0.50000000  0.75365564  0.00000000  1
  Sr  Sr18  1  0.50000000  0.24634436  0.00000000  1
  Sr  Sr19  1  0.50000000  0.50000000  0.00000000  1
  Ti  Ti0  1  0.34228709  0.89342900  0.27089905  1
  Ti  Ti1  1  0.34228709  0.10657100  0.27089905  1
  Ti  Ti2  1  0.65771291  0.10657100  0.72910095  1
  Ti  Ti3  1  0.65771291  0.89342900  0.72910095  1
  Ti  Ti4  1  0.84612773  0.81606691  0.27580746  1
  Ti  Ti5  1  0.84612773  0.18393309  0.27580746  1
  Ti  Ti6  1  0.15387227  0.18393309  0.72419254  1
  Ti  Ti7  1  0.15387227  0.81606691  0.72419254  1
  Ti  Ti8  1  0.99302161  0.60889430  0.25430403  1
  Ti  Ti9  1  0.99302161  0.39110570  0.25430403  1
  Ti  Ti10  1  0.00697839  0.39110570  0.74569597  1
  Ti  Ti11  1  0.00697839  0.60889430  0.74569597  1
  Ti  Ti12  1  0.00772365  0.87290302  0.17477223  1
  Ti  Ti13  1  0.00772365  0.12709698  0.17477223  1
  Ti  Ti14  1  0.99227635  0.12709698  0.82522777  1
  Ti  Ti15  1  0.99227635  0.87290302  0.82522777  1
  Ti  Ti16  1  0.01886898  0.62422062  0.16642934  1
  Ti  Ti17  1  0.01886898  0.37577938  0.16642934  1
  Ti  Ti18  1  0.98113102  0.37577938  0.83357066  1
  Ti  Ti19  1  0.98113102  0.62422062  0.83357066  1
  Ti  Ti20  1  0.50098081  0.87600853  0.08835671  1
  Ti  Ti21  1  0.50098081  0.12399147  0.08835671  1
  Ti  Ti22  1  0.49901919  0.12399147  0.91164329  1
  Ti  Ti23  1  0.49901919  0.87600853  0.91164329  1
  Ti  Ti24  1  0.50345381  0.62483539  0.08585467  1
  Ti  Ti25  1  0.50345381  0.37516461  0.08585467  1
  Ti  Ti26  1  0.49654619  0.37516461  0.91414533  1
  Ti  Ti27  1  0.49654619  0.62483539  0.91414533  1
  Ti  Ti28  1  0.00000000  0.87655469  0.00000000  1
  Ti  Ti29  1  0.00000000  0.12344531  0.00000000  1
  Ti  Ti30  1  0.00000000  0.62754902  0.00000000  1
  Ti  Ti31  1  0.00000000  0.37245098  0.00000000  1
  O  O0  1  0.06086728  0.89271556  0.29705735  1
  O  O1  1  0.06086728  0.10728444  0.29705735  1
  O  O2  1  0.93913272  0.10728444  0.70294265  1
  O  O3  1  0.93913272  0.89271556  0.70294265  1
  O  O4  1  0.55334581  0.82398161  0.29827064  1
  O  O5  1  0.55334581  0.17601839  0.29827064  1
  O  O6  1  0.44665419  0.17601839  0.70172936  1
  O  O7  1  0.44665419  0.82398161  0.70172936  1
  O  O8  1  0.96412350  0.70884660  0.28393495  1
  O  O9  1  0.96412350  0.29115340  0.28393495  1
  O  O10  1  0.03587650  0.29115340  0.71606505  1
  O  O11  1  0.03587650  0.70884660  0.71606505  1
  O  O12  1  0.47160775  -0.00000000  0.26337678  1
  O  O13  1  0.52839225  -0.00000000  0.73662322  1
  O  O14  1  0.98230652  0.50000000  0.27698369  1
  O  O15  1  0.01769348  0.50000000  0.72301631  1
  O  O16  1  0.27986689  0.86185796  0.21720018  1
  O  O17  1  0.27986689  0.13814204  0.21720018  1
  O  O18  1  0.72013311  0.13814204  0.78279982  1
  O  O19  1  0.72013311  0.86185796  0.78279982  1
  O  O20  1  0.78590670  0.84757258  0.22113282  1
  O  O21  1  0.78590670  0.15242742  0.22113282  1
  O  O22  1  0.21409330  0.15242742  0.77886718  1
  O  O23  1  0.21409330  0.84757258  0.77886718  1
  O  O24  1  0.23809496  0.61834114  0.21923532  1
  O  O25  1  0.23809496  0.38165886  0.21923532  1
  O  O26  1  0.76190504  0.38165886  0.78076468  1
  O  O27  1  0.76190504  0.61834114  0.78076468  1
  O  O28  1  0.77164714  0.61904154  0.21187023  1
  O  O29  1  0.77164714  0.38095846  0.21187023  1
  O  O30  1  0.22835286  0.38095846  0.78812977  1
  O  O31  1  0.22835286  0.61904154  0.78812977  1
  O  O32  1  0.99959073  -0.00000000  0.17921463  1
  O  O33  1  0.00040927  -0.00000000  0.82078537  1
  O  O34  1  0.02880278  0.74846207  0.16601131  1
  O  O35  1  0.02880278  0.25153793  0.16601131  1
  O  O36  1  0.97119722  0.25153793  0.83398869  1
  O  O37  1  0.97119722  0.74846207  0.83398869  1
  O  O38  1  0.01890346  0.50000000  0.16375725  1
  O  O39  1  0.98109654  0.50000000  0.83624275  1
  O  O40  1  0.25691239  0.88344028  0.13136498  1
  O  O41  1  0.25691239  0.11655972  0.13136498  1
  O  O42  1  0.74308761  0.11655972  0.86863502  1
  O  O43  1  0.74308761  0.88344028  0.86863502  1
  O  O44  1  0.75212196  0.87828024  0.13404847  1
  O  O45  1  0.75212196  0.12171976  0.13404847  1
  O  O46  1  0.24787804  0.12171976  0.86595153  1
  O  O47  1  0.24787804  0.87828024  0.86595153  1
  O  O48  1  0.31160699  0.62204842  0.13505651  1
  O  O49  1  0.31160699  0.37795158  0.13505651  1
  O  O50  1  0.68839301  0.37795158  0.86494349  1
  O  O51  1  0.68839301  0.62204842  0.86494349  1
  O  O52  1  0.79357638  0.62699619  0.12236067  1
  O  O53  1  0.79357638  0.37300381  0.12236067  1
  O  O54  1  0.20642362  0.37300381  0.87763933  1
  O  O55  1  0.20642362  0.62699619  0.87763933  1
  O  O56  1  0.50303843  0.75234676  0.08799260  1
  O  O57  1  0.50303843  0.24765324  0.08799260  1
  O  O58  1  0.49696157  0.24765324  0.91200740  1
  O  O59  1  0.49696157  0.75234676  0.91200740  1
  O  O60  1  0.51505978  -0.00000000  0.08559762  1
  O  O61  1  0.48494022  -0.00000000  0.91440238  1
  O  O62  1  0.51132130  0.50000000  0.08323553  1
  O  O63  1  0.48867870  0.50000000  0.91676447  1
  O  O64  1  0.25572886  0.87611779  0.04343974  1
  O  O65  1  0.25572886  0.12388221  0.04343974  1
  O  O66  1  0.74427114  0.12388221  0.95656026  1
  O  O67  1  0.74427114  0.87611779  0.95656026  1
  O  O68  1  0.75860991  0.87471098  0.04461090  1
  O  O69  1  0.75860991  0.12528902  0.04461090  1
  O  O70  1  0.24139009  0.12528902  0.95538910  1
  O  O71  1  0.24139009  0.87471098  0.95538910  1
  O  O72  1  0.22667992  0.62762713  0.04833889  1
  O  O73  1  0.22667992  0.37237287  0.04833889  1
  O  O74  1  0.77332008  0.37237287  0.95166111  1
  O  O75  1  0.77332008  0.62762713  0.95166111  1
  O  O76  1  0.72670601  0.62793692  0.03791980  1
  O  O77  1  0.72670601  0.37206308  0.03791980  1
  O  O78  1  0.27329399  0.37206308  0.96208020  1
  O  O79  1  0.27329399  0.62793692  0.96208020  1
  O  O80  1  0.00000000  -0.00000000  0.00000000  1
  O  O81  1  0.00000000  0.75110529  0.00000000  1
  O  O82  1  0.00000000  0.24889471  0.00000000  1
  O  O83  1  0.00000000  0.50000000  0.00000000  1
loop_
_geom_bond_atom_site_label_1
_geom_bond_atom_site_label_2
_geom_bond_distance
_geom_bond_site_symmetry_2
O0 Ti0 1.807746 1_555
O0 Ti4 1.833750 1_455
O1 Ti1 1.807746 1_555
O1 Ti5 1.833750 1_455
O2 Ti2 1.807746 1_555
O2 Ti6 1.833750 1_655
O3 Ti3 1.807746 1_555
O3 Ti7 1.833750 1_655
O4 Ti4 1.817548 1_555
O4 Ti0 1.830792 1_555
O5 Ti5 1.817548 1_555
O5 Ti1 1.830792 1_555
O6 Ti6 1.817548 1_555
O6 Ti2 1.830792 1_555
O7 Ti7 1.817548 1_555
O7 Ti3 1.830792 1_555
O8 Ti4 1.829079 1_555
O8 Ti8 1.843186 1_555
O9 Ti5 1.829079 1_555
O9 Ti9 1.843186 1_555
O10 Ti6 1.829079 1_555
O10 Ti10 1.843186 1_555
O11 Ti7 1.829079 1_555
O11 Ti11 1.843186 1_555
O12 Ti1 1.844125 1_555
O12 Ti0 1.844125 1_545
O12 Sr0 2.728396 1_555
O13 Ti2 1.844125 1_555
O13 Ti3 1.844125 1_545
O13 Sr1 2.728396 1_555
O14 Ti8 1.859980 1_555
O14 Ti9 1.859980 1_555
O15 Ti11 1.859980 1_555
O15 Ti10 1.859980 1_555
O16 Ti0 1.819127 1_555
O16 Ti12 2.044943 1_555
O16 Sr2 2.575873 1_555
O16 Sr0 2.830543 1_565
O17 Ti1 1.819127 1_555
O17 Ti13 2.044943 1_555
O17 Sr3 2.575873 1_555
O17 Sr0 2.830543 1_555
O18 Ti2 1.819127 1_555
O18 Ti14 2.044943 1_555
O18 Sr4 2.575873 1_555
O18 Sr1 2.830543 1_555
O19 Ti3 1.819127 1_555
O19 Ti15 2.044943 1_555
O19 Sr5 2.575873 1_555
O19 Sr1 2.830543 1_565
O20 Ti4 1.846155 1_555
O20 Ti12 1.996229 1_655
O20 Sr2 2.621712 1_555
O20 Sr0 3.150456 1_565
O21 Ti5 1.846155 1_555
O21 Ti13 1.996229 1_655
O21 Sr3 2.621712 1_555
O21 Sr0 3.150456 1_555
O22 Ti6 1.846155 1_555
O22 Ti14 1.996229 1_455
O22 Sr4 2.621712 1_555
O22 Sr1 3.150456 1_555
O23 Ti7 1.846155 1_555
O23 Ti15 1.996229 1_455
O23 Sr5 2.621712 1_555
O23 Sr1 3.150456 1_565
O24 Ti8 1.801174 1_455
O24 Ti16 2.083937 1_555
O24 Sr6 2.661320 1_555
O24 Sr2 2.848509 1_555
O25 Ti9 1.801174 1_455
O25 Ti17 2.083937 1_555
O25 Sr6 2.661320 1_555
O25 Sr3 2.848509 1_555
O26 Ti10 1.801174 1_655
O26 Ti18 2.083937 1_555
O26 Sr7 2.661320 1_555
O26 Sr4 2.848509 1_555
O27 Ti11 1.801174 1_655
O27 Ti19 2.083937 1_555
O27 Sr7 2.661320 1_555
O27 Sr5 2.848509 1_555
O28 Ti8 1.840765 1_555
O28 Ti16 2.032721 1_655
O28 Sr6 2.592149 1_555
O28 Sr2 2.697194 1_555
O29 Ti9 1.840765 1_555
O29 Ti17 2.032721 1_655
O29 Sr6 2.592149 1_555
O29 Sr3 2.697194 1_555
O30 Ti10 1.840765 1_555
O30 Ti18 2.032721 1_455
O30 Sr7 2.592149 1_555
O30 Sr4 2.697194 1_555
O31 Ti11 1.840765 1_555
O31 Ti19 2.032721 1_455
O31 Sr7 2.592149 1_555
O31 Sr5 2.697194 1_555
O32 Ti13 2.002594 1_655
O32 Ti12 2.002594 1_645
O32 Sr0 2.753581 1_555
O32 Sr0 2.897583 1_655
O32 Sr8 2.909604 1_655
O33 Ti14 2.002594 1_455
O33 Ti15 2.002594 1_445
O33 Sr1 2.753581 1_555
O33 Sr1 2.897583 1_455
O33 Sr9 2.909604 1_455
O34 Ti16 1.952954 1_555
O34 Ti12 1.979072 1_555
O34 Sr10 2.580527 1_555
O34 Sr2 2.733904 1_555
O34 Sr2 2.970573 1_455
O35 Ti17 1.952954 1_555
O35 Ti13 1.979072 1_555
O35 Sr11 2.580527 1_555
O35 Sr3 2.733904 1_555
O35 Sr3 2.970573 1_455
O36 Ti18 1.952954 1_555
O36 Ti14 1.979072 1_555
O36 Sr12 2.580527 1_555
O36 Sr4 2.733904 1_555
O36 Sr4 2.970573 1_655
O37 Ti19 1.952954 1_555
O37 Ti15 1.979072 1_555
O37 Sr13 2.580527 1_555
O37 Sr5 2.733904 1_555
O37 Sr5 2.970573 1_655
O38 Ti17 1.953643 1_555
O38 Ti16 1.953643 1_555
O38 Sr14 2.572234 1_455
O38 Sr6 2.771386 1_555
O38 Sr6 3.003578 1_455
O39 Ti18 1.953643 1_555
O39 Ti19 1.953643 1_555
O39 Sr15 2.572234 1_655
O39 Sr7 2.771386 1_555
O39 Sr7 3.003578 1_655
O40 Ti20 1.966012 1_555
O40 Ti12 1.999149 1_555
O40 Sr8 2.692166 1_565
O40 Sr0 2.767410 1_565
O40 Sr10 2.867468 1_555
O40 Sr2 2.984290 1_555
O41 Ti21 1.966012 1_555
O41 Ti13 1.999149 1_555
O41 Sr8 2.692166 1_555
O41 Sr0 2.767410 1_555
O41 Sr11 2.867468 1_555
O41 Sr3 2.984290 1_555
O42 Ti22 1.966012 1_555
O42 Ti14 1.999149 1_555
O42 Sr9 2.692166 1_555
O42 Sr1 2.767410 1_555
O42 Sr12 2.867468 1_555
O42 Sr4 2.984290 1_555
O43 Ti23 1.966012 1_555
O43 Ti15 1.999149 1_555
O43 Sr9 2.692166 1_565
O43 Sr1 2.767410 1_565
O43 Sr13 2.867468 1_555
O43 Sr5 2.984290 1_555
O44 Ti12 1.934052 1_655
O44 Ti20 2.024144 1_555
O44 Sr0 2.753117 1_565
O44 Sr8 2.805918 1_665
O44 Sr10 2.866039 1_655
O44 Sr2 2.880181 1_555
O45 Ti13 1.934052 1_655
O45 Ti21 2.024144 1_555
O45 Sr0 2.753117 1_555
O45 Sr8 2.805918 1_655
O45 Sr11 2.866039 1_655
O45 Sr3 2.880181 1_555
O46 Ti14 1.934052 1_455
O46 Ti22 2.024144 1_555
O46 Sr1 2.753117 1_555
O46 Sr9 2.805918 1_455
O46 Sr12 2.866039 1_455
O46 Sr4 2.880181 1_555
O47 Ti15 1.934052 1_455
O47 Ti23 2.024144 1_555
O47 Sr1 2.753117 1_565
O47 Sr9 2.805918 1_465
O47 Sr13 2.866039 1_455
O47 Sr5 2.880181 1_555
O48 Ti24 1.925247 1_555
O48 Ti16 1.947629 1_555
O48 Sr2 2.616921 1_555
O48 Sr6 2.654982 1_555
O48 Sr14 3.074924 1_455
O48 Sr10 3.140618 1_555
O49 Ti25 1.925247 1_555
O49 Ti17 1.947629 1_555
O49 Sr3 2.616921 1_555
O49 Sr6 2.654982 1_555
O49 Sr14 3.074924 1_455
O49 Sr11 3.140618 1_555
O50 Ti26 1.925247 1_555
O50 Ti18 1.947629 1_555
O50 Sr4 2.616921 1_555
O50 Sr7 2.654982 1_555
O50 Sr15 3.074924 1_655
O50 Sr12 3.140618 1_555
O51 Ti27 1.925247 1_555
O51 Ti19 1.947629 1_555
O51 Sr5 2.616921 1_555
O51 Sr7 2.654982 1_555
O51 Sr15 3.074924 1_655
O51 Sr13 3.140618 1_555
O52 Ti16 1.887600 1_655
O52 Ti24 2.000339 1_555
O52 Sr10 2.622414 1_655
O52 Sr14 2.629863 1_555
O52 Sr2 3.052048 1_555
O52 Sr6 3.243634 1_555
O53 Ti17 1.887600 1_655
O53 Ti25 2.000339 1_555
O53 Sr11 2.622414 1_655
O53 Sr14 2.629863 1_555
O53 Sr3 3.052048 1_555
O53 Sr6 3.243634 1_555
O54 Ti18 1.887600 1_455
O54 Ti26 2.000339 1_555
O54 Sr12 2.622414 1_455
O54 Sr15 2.629863 1_555
O54 Sr4 3.052048 1_555
O54 Sr7 3.243634 1_555
O55 Ti19 1.887600 1_455
O55 Ti27 2.000339 1_555
O55 Sr13 2.622414 1_455
O55 Sr15 2.629863 1_555
O55 Sr5 3.052048 1_555
O55 Sr7 3.243634 1_555
O56 Ti20 1.943059 1_555
O56 Ti24 2.004645 1_555
O56 Sr17 2.817067 1_555
O56 Sr10 2.824436 1_655
O56 Sr10 2.829442 1_555
O56 Sr2 2.885930 1_555
O57 Ti21 1.943059 1_555
O57 Ti25 2.004645 1_555
O57 Sr18 2.817067 1_555
O57 Sr11 2.824436 1_655
O57 Sr11 2.829442 1_555
O57 Sr3 2.885930 1_555
O58 Ti22 1.943059 1_555
O58 Ti26 2.004645 1_555
O58 Sr18 2.817067 1_556
O58 Sr12 2.824436 1_455
O58 Sr12 2.829442 1_555
O58 Sr4 2.885930 1_555
O59 Ti23 1.943059 1_555
O59 Ti27 2.004645 1_555
O59 Sr17 2.817067 1_556
O59 Sr13 2.824436 1_455
O59 Sr13 2.829442 1_555
O59 Sr5 2.885930 1_555
O60 Ti20 1.951843 1_545
O60 Ti21 1.951843 1_555
O60 Sr16 2.740630 1_555
O60 Sr8 2.759825 1_655
O60 Sr8 2.893926 1_555
O60 Sr0 2.976582 1_555
O61 Ti23 1.951843 1_545
O61 Ti22 1.951843 1_555
O61 Sr16 2.740630 1_556
O61 Sr9 2.759825 1_455
O61 Sr9 2.893926 1_555
O61 Sr1 2.976582 1_555
O62 Ti25 1.963750 1_555
O62 Ti24 1.963750 1_555
O62 Sr19 2.664748 1_555
O62 Sr14 2.753318 1_555
O62 Sr14 2.897706 1_455
O62 Sr6 3.174257 1_555
O63 Ti26 1.963750 1_555
O63 Ti27 1.963750 1_555
O63 Sr19 2.664748 1_556
O63 Sr15 2.753318 1_555
O63 Sr15 2.897706 1_655
O63 Sr7 3.174257 1_555
O64 Ti20 1.983155 1_555
O64 Ti28 1.991557 1_555
O64 Sr10 2.744388 1_555
O64 Sr17 2.756058 1_555
O64 Sr16 2.771681 1_565
O64 Sr8 2.818945 1_565
O65 Ti21 1.983155 1_555
O65 Ti29 1.991557 1_555
O65 Sr11 2.744388 1_555
O65 Sr18 2.756058 1_555
O65 Sr16 2.771681 1_555
O65 Sr8 2.818945 1_555
O66 Ti22 1.983155 1_555
O66 Ti29 1.991557 1_656
O66 Sr12 2.744388 1_555
O66 Sr18 2.756058 1_556
O66 Sr16 2.771681 1_556
O66 Sr9 2.818945 1_555
O67 Ti23 1.983155 1_555
O67 Ti28 1.991557 1_656
O67 Sr13 2.744388 1_555
O67 Sr17 2.756058 1_556
O67 Sr16 2.771681 1_566
O67 Sr9 2.818945 1_565
O68 Ti28 1.989020 1_655
O68 Ti20 2.034393 1_555
O68 Sr10 2.663132 1_655
O68 Sr8 2.774036 1_665
O68 Sr17 2.781159 1_555
O68 Sr16 2.827068 1_565
O69 Ti29 1.989020 1_655
O69 Ti21 2.034393 1_555
O69 Sr11 2.663132 1_655
O69 Sr8 2.774036 1_655
O69 Sr18 2.781159 1_555
O69 Sr16 2.827068 1_555
O70 Ti29 1.989020 1_556
O70 Ti22 2.034393 1_555
O70 Sr12 2.663132 1_455
O70 Sr9 2.774036 1_455
O70 Sr18 2.781159 1_556
O70 Sr16 2.827068 1_556
O71 Ti28 1.989020 1_556
O71 Ti23 2.034393 1_555
O71 Sr13 2.663132 1_455
O71 Sr9 2.774036 1_465
O71 Sr17 2.781159 1_556
O71 Sr16 2.827068 1_566
O72 Ti24 1.959119 1_555
O72 Ti30 1.995097 1_555
O72 Sr14 2.643276 1_455
O72 Sr10 2.661634 1_555
O72 Sr17 2.961227 1_555
O72 Sr19 2.978082 1_555
O73 Ti25 1.959119 1_555
O73 Ti31 1.995097 1_555
O73 Sr14 2.643276 1_455
O73 Sr11 2.661634 1_555
O73 Sr18 2.961227 1_555
O73 Sr19 2.978082 1_555
O74 Ti26 1.959119 1_555
O74 Ti31 1.995097 1_656
O74 Sr15 2.643276 1_655
O74 Sr12 2.661634 1_555
O74 Sr18 2.961227 1_556
O74 Sr19 2.978082 1_556
O75 Ti27 1.959119 1_555
O75 Ti30 1.995097 1_656
O75 Sr15 2.643276 1_655
O75 Sr13 2.661634 1_555
O75 Sr17 2.961227 1_556
O75 Sr19 2.978082 1_556
O76 Ti30 1.977794 1_655
O76 Ti24 2.000897 1_555
O76 Sr17 2.640714 1_555
O76 Sr19 2.666885 1_555
O76 Sr14 2.909034 1_555
O76 Sr10 2.946653 1_655
O77 Ti31 1.977794 1_655
O77 Ti25 2.000897 1_555
O77 Sr18 2.640714 1_555
O77 Sr19 2.666885 1_555
O77 Sr14 2.909034 1_555
O77 Sr11 2.946653 1_655
O78 Ti31 1.977794 1_556
O78 Ti26 2.000897 1_555
O78 Sr18 2.640714 1_556
O78 Sr19 2.666885 1_556
O78 Sr15 2.909034 1_555
O78 Sr12 2.946653 1_455
O79 Ti30 1.977794 1_556
O79 Ti27 2.000897 1_555
O79 Sr17 2.640714 1_556
O79 Sr19 2.666885 1_556
O79 Sr15 2.909034 1_555
O79 Sr13 2.946653 1_455
O80 Ti29 1.939587 1_555
O80 Ti28 1.939587 1_545
O80 Sr16 2.825504 1_455
O80 Sr16 2.825504 1_555
O80 Sr9 2.828328 1_454
O80 Sr8 2.828328 1_555
O81 Ti30 1.941330 1_555
O81 Ti28 1.971075 1_555
O81 Sr13 2.739486 1_454
O81 Sr10 2.739486 1_555
O81 Sr17 2.825788 1_555
O81 Sr17 2.825788 1_455
O82 Ti31 1.941330 1_555
O82 Ti29 1.971075 1_555
O82 Sr12 2.739486 1_454
O82 Sr11 2.739486 1_555
O82 Sr18 2.825788 1_455
O82 Sr18 2.825788 1_555
O83 Ti30 2.004065 1_555
O83 Ti31 2.004065 1_555
O83 Sr15 2.671719 1_554
O83 Sr14 2.671719 1_455
O83 Sr19 2.825504 1_555
O83 Sr19 2.825504 1_455
