# generated using pymatgen
data_GaCuTe2
_symmetry_space_group_name_H-M   'P 1'
_cell_length_a   4.04168200
_cell_length_b   4.04168200
_cell_length_c   5.63776100
_cell_angle_alpha   90.00000000
_cell_angle_beta   90.00000000
_cell_angle_gamma   90.00000000
_symmetry_Int_Tables_number   1
_chemical_formula_structural   GaCuTe2
_chemical_formula_sum   'Ga1 Cu1 Te2'
_cell_volume   92.09391622
_cell_formula_units_Z   1
loop_
 _symmetry_equiv_pos_site_id
 _symmetry_equiv_pos_as_xyz
  1  'x, y, z'
loop_
 _atom_site_type_symbol
 _atom_site_label
 _atom_site_symmetry_multiplicity
 _atom_site_fract_x
 _atom_site_fract_y
 _atom_site_fract_z
 _atom_site_occupancy
  Ga  Ga0  1  0.50000000  0.50000000  0.50000000  1
  Cu  Cu0  1  0.00000000  0.00000000  0.00000000  1
  Te  Te0  1  0.00000000  0.00000000  0.50000000  1
  Te  Te1  1  0.50000000  0.50000000  0.00000000  1
loop_
_geom_bond_atom_site_label_1
_geom_bond_atom_site_label_2
_geom_bond_distance
_geom_bond_site_symmetry_2
Ga0 Te1 2.818881 1_556
Ga0 Te1 2.818881 1_555
Ga0 Te0 2.857901 1_565
Ga0 Te0 2.857901 1_655
Ga0 Te0 2.857901 1_665
Ga0 Te0 2.857901 1_555
Cu0 Te0 2.818881 1_555
Cu0 Te0 2.818881 1_554
Cu0 Te1 2.857901 1_545
Cu0 Te1 2.857901 1_555
Cu0 Te1 2.857901 1_455
Cu0 Te1 2.857901 1_445
