# generated using pymatgen
data_ZrCrAgS4
_symmetry_space_group_name_H-M   'P 1'
_cell_length_a   7.23215700
_cell_length_b   13.24053800
_cell_length_c   6.13227200
_cell_angle_alpha   90.00000000
_cell_angle_beta   90.00000000
_cell_angle_gamma   90.00000000
_symmetry_Int_Tables_number   1
_chemical_formula_structural   ZrCrAgS4
_chemical_formula_sum   'Zr4 Cr4 Ag4 S16'
_cell_volume   587.21195331
_cell_formula_units_Z   4
loop_
 _symmetry_equiv_pos_site_id
 _symmetry_equiv_pos_as_xyz
  1  'x, y, z'
loop_
 _atom_site_type_symbol
 _atom_site_label
 _atom_site_symmetry_multiplicity
 _atom_site_fract_x
 _atom_site_fract_y
 _atom_site_fract_z
 _atom_site_occupancy
  Zr  Zr0  1  0.25000000  0.25000000  0.50000000  1
  Zr  Zr1  1  0.75000000  0.75000000  0.50000000  1
  Zr  Zr2  1  0.75000000  0.25000000  0.50000000  1
  Zr  Zr3  1  0.25000000  0.75000000  0.50000000  1
  Cr  Cr0  1  0.00000000  0.24702600  0.99871100  1
  Cr  Cr1  1  0.00000000  0.75297400  0.99871100  1
  Cr  Cr2  1  0.50000000  0.25297400  0.00128900  1
  Cr  Cr3  1  0.50000000  0.74702600  0.00128900  1
  Ag  Ag0  1  0.00000000  0.00000000  0.34206700  1
  Ag  Ag1  1  0.50000000  0.50000000  0.65793300  1
  Ag  Ag2  1  0.00000000  0.50000000  0.01167900  1
  Ag  Ag3  1  0.50000000  0.00000000  0.98832100  1
  S  S0  1  0.25165000  0.35585400  0.85016900  1
  S  S1  1  0.74835000  0.64414600  0.85016900  1
  S  S2  1  0.75165000  0.14414600  0.14983100  1
  S  S3  1  0.24835000  0.85585400  0.14983100  1
  S  S4  1  0.24835000  0.14414600  0.14983100  1
  S  S5  1  0.75165000  0.85585400  0.14983100  1
  S  S6  1  0.74835000  0.35585400  0.85016900  1
  S  S7  1  0.25165000  0.64414600  0.85016900  1
  S  S8  1  0.00000000  0.13974700  0.67701300  1
  S  S9  1  0.00000000  0.86025300  0.67701300  1
  S  S10  1  0.50000000  0.36025300  0.32298700  1
  S  S11  1  0.50000000  0.63974700  0.32298700  1
  S  S12  1  0.00000000  0.35742100  0.31740300  1
  S  S13  1  0.00000000  0.64257900  0.31740300  1
  S  S14  1  0.50000000  0.14257900  0.68259700  1
  S  S15  1  0.50000000  0.85742100  0.68259700  1
loop_
_geom_bond_atom_site_label_1
_geom_bond_atom_site_label_2
_geom_bond_distance
_geom_bond_site_symmetry_2
Cr0 S8 2.430911 1_555
Cr0 S2 2.437281 1_456
Cr0 S4 2.437281 1_556
Cr0 S12 2.440460 1_556
Cr0 S6 2.493662 1_455
Cr0 S0 2.493662 1_555
Cr1 S9 2.430911 1_555
Cr1 S3 2.437281 1_556
Cr1 S5 2.437281 1_456
Cr1 S13 2.440460 1_556
Cr1 S1 2.493662 1_455
Cr1 S7 2.493662 1_555
Cr2 S10 2.430911 1_555
Cr2 S0 2.437281 1_554
Cr2 S6 2.437281 1_554
Cr2 S14 2.440460 1_554
Cr2 S4 2.493662 1_555
Cr2 S2 2.493662 1_555
Cr3 S11 2.430911 1_555
Cr3 S7 2.437281 1_554
Cr3 S1 2.437281 1_554
Cr3 S15 2.440460 1_554
Cr3 S3 2.493662 1_555
Cr3 S5 2.493662 1_555
Ag0 S8 2.764514 1_555
Ag0 S9 2.764514 1_545
Ag0 S2 2.873728 1_455
Ag0 S5 2.873728 1_445
Ag0 S4 2.873728 1_555
Ag0 S3 2.873728 1_545
Ag1 S11 2.764514 1_555
Ag1 S10 2.764514 1_555
Ag1 S0 2.873728 1_555
Ag1 S7 2.873728 1_555
Ag1 S6 2.873728 1_555
Ag1 S1 2.873728 1_555
Ag2 S12 2.660580 1_555
Ag2 S13 2.660580 1_555
Ag2 S1 2.817069 1_454
Ag2 S6 2.817069 1_454
Ag2 S0 2.817069 1_554
Ag2 S7 2.817069 1_554
Ag3 S14 2.660580 1_555
Ag3 S15 2.660580 1_545
Ag3 S2 2.817069 1_556
Ag3 S5 2.817069 1_546
Ag3 S3 2.817069 1_546
Ag3 S4 2.817069 1_556
S0 Zr0 2.564285 1_555
S1 Zr1 2.564285 1_555
S2 Zr2 2.564285 1_555
S3 Zr3 2.564285 1_555
S4 Zr0 2.564285 1_555
S5 Zr1 2.564285 1_555
S6 Zr2 2.564285 1_555
S7 Zr3 2.564285 1_555
S8 Zr2 2.564828 1_455
S8 Zr0 2.564828 1_555
S9 Zr3 2.564828 1_555
S9 Zr1 2.564828 1_455
S10 Zr2 2.564828 1_555
S10 Zr0 2.564828 1_555
S11 Zr1 2.564828 1_555
S11 Zr3 2.564828 1_555
S12 Zr2 2.558473 1_455
S12 Zr0 2.558473 1_555
S13 Zr3 2.558473 1_555
S13 Zr1 2.558473 1_455
S14 Zr0 2.558473 1_555
S14 Zr2 2.558473 1_555
S15 Zr1 2.558473 1_555
S15 Zr3 2.558473 1_555
