# generated using pymatgen
data_Ba2YTlCo2O7
_symmetry_space_group_name_H-M   'P 1'
_cell_length_a   5.64486257
_cell_length_b   12.62093216
_cell_length_c   5.56570410
_cell_angle_alpha   90.00125965
_cell_angle_beta   89.92819188
_cell_angle_gamma   90.00996789
_symmetry_Int_Tables_number   1
_chemical_formula_structural   Ba2YTlCo2O7
_chemical_formula_sum   'Ba4 Y2 Tl2 Co4 O14'
_cell_volume   396.51951885
_cell_formula_units_Z   2
loop_
 _symmetry_equiv_pos_site_id
 _symmetry_equiv_pos_as_xyz
  1  'x, y, z'
loop_
 _atom_site_type_symbol
 _atom_site_label
 _atom_site_symmetry_multiplicity
 _atom_site_fract_x
 _atom_site_fract_y
 _atom_site_fract_z
 _atom_site_occupancy
  Ba  Ba0  1  0.99704700  0.20828800  0.50311300  1
  Ba  Ba1  1  0.50306500  0.20830000  0.00282300  1
  Ba  Ba2  1  0.99693900  0.79174900  0.50297500  1
  Ba  Ba3  1  0.50309900  0.79174100  0.00271700  1
  Y  Y0  1  0.99988800  0.49995900  0.50214700  1
  Y  Y1  1  0.50042500  0.49996200  0.00213400  1
  Tl  Tl0  1  0.04056800  0.00004800  0.03714900  1
  Tl  Tl1  1  0.46026900  0.00004000  0.53524100  1
  Co  Co0  1  0.50003600  0.36982400  0.50223400  1
  Co  Co1  1  0.50001000  0.63002600  0.50216700  1
  Co  Co2  1  0.00023100  0.36845900  0.00230500  1
  Co  Co3  1  0.00039600  0.63133900  0.00222800  1
  O  O0  1  0.05871100  0.00006900  0.45043400  1
  O  O1  1  0.43951700  0.00005100  0.94983700  1
  O  O2  1  0.98909500  0.16903300  0.99556500  1
  O  O3  1  0.51033200  0.16821700  0.49512200  1
  O  O4  1  0.51014700  0.83193100  0.49499700  1
  O  O5  1  0.98872800  0.83126900  0.99540500  1
  O  O6  1  0.25014800  0.38580800  0.25251700  1
  O  O7  1  0.74972400  0.38650100  0.75287700  1
  O  O8  1  0.25038300  0.38567500  0.75241500  1
  O  O9  1  0.75080400  0.38637900  0.25301600  1
  O  O10  1  0.25018800  0.61388400  0.75234600  1
  O  O11  1  0.75070200  0.61355200  0.25304500  1
  O  O12  1  0.25004800  0.61411800  0.25238500  1
  O  O13  1  0.74950600  0.61378300  0.75280500  1
loop_
_geom_bond_atom_site_label_1
_geom_bond_atom_site_label_2
_geom_bond_distance
_geom_bond_site_symmetry_2
Ba0 O0 2.667041 1_655
Ba0 O2 2.785575 1_555
Ba0 O3 2.793920 1_555
Ba0 O2 2.868373 1_554
Ba0 O3 2.941597 1_655
Ba0 O9 2.987943 1_555
Ba0 O7 2.989410 1_555
Ba0 O8 2.997700 1_655
Ba0 O6 3.000046 1_655
Ba1 O1 2.668987 1_554
Ba1 O3 2.786665 1_555
Ba1 O2 2.788301 1_554
Ba1 O3 2.870873 1_554
Ba1 O2 2.943555 1_454
Ba1 O7 2.987702 1_554
Ba1 O9 2.991611 1_555
Ba1 O6 2.997436 1_555
Ba1 O8 2.999102 1_554
Ba2 O0 2.668186 1_665
Ba2 O5 2.786055 1_555
Ba2 O4 2.794774 1_555
Ba2 O5 2.869123 1_554
Ba2 O4 2.941236 1_655
Ba2 O13 2.987207 1_555
Ba2 O11 2.988091 1_555
Ba2 O12 3.001424 1_655
Ba2 O10 3.002569 1_655
Ba3 O1 2.669842 1_564
Ba3 O5 2.786496 1_554
Ba3 O4 2.786762 1_555
Ba3 O4 2.871219 1_554
Ba3 O5 2.946517 1_454
Ba3 O13 2.984962 1_554
Ba3 O11 2.993057 1_555
Ba3 O12 2.998489 1_555
Ba3 O10 3.003748 1_554
Co0 O8 1.989991 1_555
Co0 O9 1.991583 1_555
Co0 O6 1.991771 1_555
Co0 O7 1.995423 1_555
Co0 O3 2.545448 1_555
Co1 O11 1.990845 1_555
Co1 O10 1.990987 1_555
Co1 O12 1.992168 1_555
Co1 O13 1.994124 1_555
Co1 O4 2.549174 1_555
Co2 O8 1.992614 1_554
Co2 O9 1.993948 1_455
Co2 O6 1.995572 1_555
Co2 O7 1.995928 1_454
Co2 O2 2.517996 1_454
Co3 O10 1.991524 1_554
Co3 O12 1.994183 1_555
Co3 O11 1.995186 1_455
Co3 O13 1.996691 1_454
Co3 O5 2.524462 1_454
O0 Tl0 2.302629 1_555
O0 Tl1 2.315942 1_555
O1 Tl0 2.303251 1_556
O1 Tl1 2.310344 1_555
O2 Tl0 2.164951 1_656
O3 Tl1 2.152811 1_555
O4 Tl1 2.151987 1_565
O5 Tl0 2.162655 1_666
O6 Y0 2.448940 1_455
O6 Y1 2.451142 1_555
O7 Y1 2.439518 1_556
O7 Y0 2.446722 1_555
O8 Y1 2.451240 1_556
O8 Y0 2.454753 1_455
O9 Y0 2.441019 1_555
O9 Y1 2.451133 1_555
O10 Y1 2.449711 1_556
O10 Y0 2.450914 1_455
O11 Y0 2.441678 1_555
O11 Y1 2.450621 1_555
O12 Y0 2.448838 1_455
O12 Y1 2.451318 1_555
O13 Y1 2.441456 1_556
O13 Y0 2.450161 1_555
