# generated using pymatgen
data_Li7Mn4CoO12
_symmetry_space_group_name_H-M   'P 1'
_cell_length_a   5.93713900
_cell_length_b   5.97365317
_cell_length_c   6.51325860
_cell_angle_alpha   103.38430916
_cell_angle_beta   104.50400056
_cell_angle_gamma   86.71774972
_symmetry_Int_Tables_number   1
_chemical_formula_structural   Li7Mn4CoO12
_chemical_formula_sum   'Li7 Mn4 Co1 O12'
_cell_volume   217.56562244
_cell_formula_units_Z   1
loop_
 _symmetry_equiv_pos_site_id
 _symmetry_equiv_pos_as_xyz
  1  'x, y, z'
loop_
 _atom_site_type_symbol
 _atom_site_label
 _atom_site_symmetry_multiplicity
 _atom_site_fract_x
 _atom_site_fract_y
 _atom_site_fract_z
 _atom_site_occupancy
  Li  Li0  1  0.16555600  0.17286600  0.67630400  1
  Li  Li1  1  0.83503000  0.33895800  0.32902700  1
  Li  Li2  1  0.49928000  0.50287600  0.00370400  1
  Li  Li3  1  0.16581100  0.66269700  0.66899700  1
  Li  Li4  1  0.83647300  0.82288800  0.32122100  1
  Li  Li5  1  0.50153000  0.00110600  0.00384200  1
  Li  Li6  1  0.00013800  0.50023900  0.00410500  1
  Mn  Mn0  1  0.00187900  0.99925500  0.00035600  1
  Mn  Mn1  1  0.67134500  0.66855300  0.66554100  1
  Mn  Mn2  1  0.67006700  0.17204200  0.66791900  1
  Mn  Mn3  1  0.32676500  0.33376400  0.33281900  1
  Co  Co0  1  0.32431700  0.82441600  0.32608000  1
  O  O0  1  0.92055000  0.94294200  0.68370500  1
  O  O1  1  0.57481000  0.09801200  0.35244000  1
  O  O2  1  0.23127900  0.22973700  0.01656200  1
  O  O3  1  0.88057300  0.40456700  0.66292900  1
  O  O4  1  0.57766800  0.60423600  0.34277200  1
  O  O5  1  0.24562000  0.76555600  0.01184500  1
  O  O6  1  0.42055600  0.39632000  0.66239300  1
  O  O7  1  0.10345000  0.57821700  0.34329300  1
  O  O8  1  0.76836200  0.76776200  0.97961600  1
  O  O9  1  0.44477100  0.92631800  0.64974900  1
  O  O10  1  0.07994600  0.05465400  0.31245500  1
  O  O11  1  0.75422500  0.23201900  0.98232500  1
loop_
_geom_bond_atom_site_label_1
_geom_bond_atom_site_label_2
_geom_bond_distance
_geom_bond_site_symmetry_2
Li0 O0 2.073477 1_445
Li0 O2 2.100624 1_556
Li0 O6 2.106708 1_555
Li0 O3 2.121311 1_455
Li0 O9 2.166388 1_545
Li0 O10 2.244137 1_555
Li1 O3 2.068672 1_555
Li1 O11 2.135915 1_554
Li1 O4 2.139990 1_555
Li1 O7 2.171697 1_655
Li1 O10 2.172868 1_655
Li1 O1 2.226228 1_555
Li2 O4 2.087771 1_555
Li2 O6 2.103348 1_554
Li2 O5 2.112824 1_555
Li2 O11 2.156218 1_554
Li2 O8 2.368672 1_554
Li2 O2 2.372412 1_555
Li3 O7 2.006094 1_555
Li3 O5 2.111095 1_556
Li3 O6 2.132309 1_555
Li3 O0 2.156060 1_455
Li3 O3 2.341896 1_455
Li3 O9 2.394326 1_555
Li4 O10 2.077678 1_665
Li4 O7 2.094567 1_655
Li4 O8 2.108978 1_554
Li4 O4 2.123555 1_555
Li4 O1 2.206133 1_565
Li4 O0 2.237048 1_555
Li5 O2 2.051807 1_555
Li5 O8 2.061108 1_544
Li5 O11 2.145930 1_554
Li5 O1 2.145959 1_555
Li5 O5 2.146989 1_545
Li5 O9 2.187030 1_544
Li6 O8 2.056500 1_454
Li6 O2 2.062018 1_555
Li6 O7 2.086000 1_555
Li6 O3 2.106402 1_454
Li6 O11 2.185841 1_454
Li6 O5 2.197589 1_555
Mn0 O10 1.921128 1_565
Mn0 O0 1.948976 1_454
Mn0 O5 1.952299 1_555
Mn0 O2 1.958877 1_565
Mn0 O11 1.965729 1_464
Mn0 O8 1.972806 1_454
Mn1 O8 1.937862 1_555
Mn1 O3 1.950396 1_555
Mn1 O4 1.985292 1_555
Mn1 O9 1.989461 1_555
Mn1 O0 2.233836 1_555
Mn1 O6 2.260222 1_555
Mn2 O3 1.931965 1_555
Mn2 O11 1.933869 1_555
Mn2 O6 1.938838 1_555
Mn2 O1 1.939965 1_555
Mn2 O0 1.962310 1_545
Mn2 O9 2.005735 1_545
Mn3 O7 1.916359 1_555
Mn3 O2 1.952791 1_555
Mn3 O1 1.979895 1_555
Mn3 O6 2.027644 1_555
Mn3 O4 2.238861 1_555
Mn3 O10 2.241637 1_555
Co0 O5 1.933272 1_555
Co0 O4 1.939608 1_555
Co0 O10 1.941138 1_565
Co0 O9 2.006692 1_555
Co0 O7 2.065410 1_555
Co0 O1 2.221027 1_565
