# generated using pymatgen
data_SrLiNdCoO4
_symmetry_space_group_name_H-M   'P 1'
_cell_length_a   3.74718402
_cell_length_b   3.74279431
_cell_length_c   9.31464509
_cell_angle_alpha   79.35438032
_cell_angle_beta   79.24065536
_cell_angle_gamma   90.68546660
_symmetry_Int_Tables_number   1
_chemical_formula_structural   SrLiNdCoO4
_chemical_formula_sum   'Sr1 Li1 Nd1 Co1 O4'
_cell_volume   125.98574127
_cell_formula_units_Z   1
loop_
 _symmetry_equiv_pos_site_id
 _symmetry_equiv_pos_as_xyz
  1  'x, y, z'
loop_
 _atom_site_type_symbol
 _atom_site_label
 _atom_site_symmetry_multiplicity
 _atom_site_fract_x
 _atom_site_fract_y
 _atom_site_fract_z
 _atom_site_occupancy
  Sr  Sr0  1  0.28615700  0.28458400  0.40755300  1
  Li  Li0  1  0.50385700  0.50476200  0.00832200  1
  Nd  Nd0  1  0.64518000  0.64432900  0.70790800  1
  Co  Co0  1  0.03710200  0.03778300  0.93780200  1
  O  O0  1  0.16811600  0.16901000  0.66167700  1
  O  O1  1  0.76842400  0.76736200  0.44673200  1
  O  O2  1  0.54659400  0.04683100  0.91775300  1
  O  O3  1  0.04457000  0.54534100  0.92151000  1
loop_
_geom_bond_atom_site_label_1
_geom_bond_atom_site_label_2
_geom_bond_distance
_geom_bond_site_symmetry_2
Li0 O3 2.029227 1_654
Li0 O3 2.029625 1_554
Li0 O2 2.040341 1_564
Li0 O2 2.040901 1_554
Nd0 O1 2.346314 1_555
Nd0 O0 2.653377 1_555
Nd0 O2 2.655894 1_555
Nd0 O2 2.656727 1_565
Nd0 O0 2.676202 1_665
Nd0 O3 2.681107 1_655
Nd0 O3 2.682699 1_555
Nd0 O0 2.691011 1_655
Nd0 O0 2.701203 1_565
Co0 O3 1.877031 1_555
Co0 O3 1.877193 1_545
Co0 O2 1.881931 1_455
Co0 O2 1.882528 1_555
Co0 O0 2.480629 1_555
O0 Sr0 2.282981 1_555
O1 Sr0 2.651274 1_665
O1 Sr0 2.660021 1_555
O1 Sr0 2.686151 1_565
O1 Sr0 2.687961 1_655
