# generated using pymatgen
data_Zr(ClO4)4
_symmetry_space_group_name_H-M   'P 1'
_cell_length_a   8.92932458
_cell_length_b   8.92932458
_cell_length_c   13.44014041
_cell_angle_alpha   71.96327493
_cell_angle_beta   71.96327493
_cell_angle_gamma   61.74497716
_symmetry_Int_Tables_number   1
_chemical_formula_structural   Zr(ClO4)4
_chemical_formula_sum   'Zr2 Cl8 O32'
_cell_volume   880.37783772
_cell_formula_units_Z   2
loop_
 _symmetry_equiv_pos_site_id
 _symmetry_equiv_pos_as_xyz
  1  'x, y, z'
loop_
 _atom_site_type_symbol
 _atom_site_label
 _atom_site_symmetry_multiplicity
 _atom_site_fract_x
 _atom_site_fract_y
 _atom_site_fract_z
 _atom_site_occupancy
  Zr  Zr0  1  0.36808100  0.34947900  0.09467200  1
  Zr  Zr1  1  0.34947900  0.36808100  0.59467200  1
  Cl  Cl0  1  0.72686800  0.99159200  0.86128600  1
  Cl  Cl1  1  0.99159200  0.72686800  0.36128600  1
  Cl  Cl2  1  0.54880900  0.06309500  0.25458100  1
  Cl  Cl3  1  0.06309500  0.54880900  0.75458100  1
  Cl  Cl4  1  0.00895900  0.39455300  0.17543800  1
  Cl  Cl5  1  0.39455300  0.00895900  0.67543800  1
  Cl  Cl6  1  0.39273100  0.76454500  0.04189200  1
  Cl  Cl7  1  0.76454500  0.39273100  0.54189200  1
  O  O0  1  0.83042500  0.91815700  0.94360100  1
  O  O1  1  0.91815700  0.83042500  0.44360100  1
  O  O2  1  0.60508900  0.24575500  0.86283200  1
  O  O3  1  0.24575500  0.60508900  0.36283200  1
  O  O4  1  0.46694100  0.01793600  0.36321500  1
  O  O5  1  0.01793600  0.46694100  0.86321500  1
  O  O6  1  0.00816200  0.82123900  0.25157200  1
  O  O7  1  0.82123900  0.00816200  0.75157200  1
  O  O8  1  0.95907800  0.25686600  0.23110400  1
  O  O9  1  0.25686600  0.95907800  0.73110400  1
  O  O10  1  0.59082400  0.34081800  0.56298900  1
  O  O11  1  0.34081800  0.59082400  0.06298900  1
  O  O12  1  0.34643700  0.75479900  0.53379000  1
  O  O13  1  0.75479900  0.34643700  0.03379000  1
  O  O14  1  0.35008200  0.13571800  0.56917000  1
  O  O15  1  0.13571800  0.35008200  0.06917000  1
  O  O16  1  0.40555700  0.12672700  0.73082400  1
  O  O17  1  0.12672700  0.40555700  0.23082400  1
  O  O18  1  0.06440700  0.45239300  0.67557200  1
  O  O19  1  0.45239300  0.06440700  0.17557200  1
  O  O20  1  0.26308400  0.50479500  0.72745300  1
  O  O21  1  0.50479500  0.26308400  0.22745300  1
  O  O22  1  0.20226100  0.87265000  0.52297500  1
  O  O23  1  0.87265000  0.20226100  0.02297500  1
  O  O24  1  0.27664000  0.52023100  0.46198500  1
  O  O25  1  0.52023100  0.27664000  0.96198500  1
  O  O26  1  0.91327100  0.22998700  0.52981600  1
  O  O27  1  0.22998700  0.91327100  0.02981600  1
  O  O28  1  0.74901200  0.52237400  0.44363300  1
  O  O29  1  0.52237400  0.74901200  0.94363300  1
  O  O30  1  0.55898600  0.86798800  0.65450000  1
  O  O31  1  0.86798800  0.55898600  0.15450000  1
loop_
_geom_bond_atom_site_label_1
_geom_bond_atom_site_label_2
_geom_bond_distance
_geom_bond_site_symmetry_2
Cl0 O0 1.455739 1_555
Cl0 O7 1.455959 1_565
Cl0 O2 2.003042 1_565
Cl1 O1 1.455739 1_555
Cl1 O6 1.455959 1_655
Cl1 O3 2.003042 1_655
Cl2 O4 1.443025 1_555
Cl2 O19 1.554937 1_555
Cl2 O21 1.580319 1_555
Cl3 O5 1.443025 1_555
Cl3 O18 1.554937 1_555
Cl3 O20 1.580319 1_555
Cl4 O8 1.418515 1_455
Cl4 O31 1.425882 1_455
Cl4 O17 1.515748 1_555
Cl4 O15 1.550263 1_555
Cl5 O9 1.418515 1_545
Cl5 O30 1.425882 1_545
Cl5 O16 1.515748 1_555
Cl5 O14 1.550263 1_555
Cl6 O27 1.444696 1_555
Cl6 O29 1.455357 1_554
Cl6 O11 1.740278 1_555
Cl7 O26 1.444696 1_555
Cl7 O28 1.455357 1_555
Cl7 O10 1.740278 1_555
O2 O25 1.352975 1_555
O10 Zr1 1.970795 1_555
O11 Zr0 1.970795 1_555
O12 O22 1.234661 1_555
O13 O23 1.234661 1_555
O14 Zr1 2.202533 1_555
O15 Zr0 2.202533 1_555
O16 Zr1 2.312447 1_555
O17 Zr0 2.312447 1_555
O18 Zr1 2.281918 1_555
O19 Zr0 2.281918 1_555
O20 Zr1 2.207957 1_555
O21 Zr0 2.207957 1_555
O24 O3 1.352975 1_555
O24 Zr1 1.957135 1_555
O25 Zr0 1.957135 1_556
