# generated using pymatgen
data_Ga2FeN3
_symmetry_space_group_name_H-M   'P 1'
_cell_length_a   5.58788655
_cell_length_b   5.58239177
_cell_length_c   5.23482800
_cell_angle_alpha   90.00000000
_cell_angle_beta   90.00000000
_cell_angle_gamma   119.96746961
_symmetry_Int_Tables_number   1
_chemical_formula_structural   Ga2FeN3
_chemical_formula_sum   'Ga4 Fe2 N6'
_cell_volume   141.46311194
_cell_formula_units_Z   2
loop_
 _symmetry_equiv_pos_site_id
 _symmetry_equiv_pos_as_xyz
  1  'x, y, z'
loop_
 _atom_site_type_symbol
 _atom_site_label
 _atom_site_symmetry_multiplicity
 _atom_site_fract_x
 _atom_site_fract_y
 _atom_site_fract_z
 _atom_site_occupancy
  Ga  Ga0  1  0.33341900  0.32735000  0.49476700  1
  Ga  Ga1  1  0.66658100  0.99393100  0.49476700  1
  Ga  Ga2  1  0.66658100  0.67265000  0.99476700  1
  Ga  Ga3  1  0.33341900  0.00606900  0.99476700  1
  Fe  Fe0  1  0.00000000  0.65992200  0.48710000  1
  Fe  Fe1  1  0.00000000  0.34007800  0.98710000  1
  N  N0  1  0.33662000  0.33944700  0.87084000  1
  N  N1  1  0.66338000  0.00282700  0.87084000  1
  N  N2  1  0.66338000  0.66055300  0.37084000  1
  N  N3  1  0.33662000  0.99717300  0.37084000  1
  N  N4  1  0.00000000  0.67996600  0.86968800  1
  N  N5  1  0.00000000  0.32003400  0.36968800  1
loop_
_geom_bond_atom_site_label_1
_geom_bond_atom_site_label_2
_geom_bond_distance
_geom_bond_site_symmetry_2
Ga0 N5 1.955899 1_555
Ga0 N3 1.962503 1_545
Ga0 N2 1.963177 1_555
Ga0 N0 1.969610 1_555
Ga1 N5 1.955899 1_665
Ga1 N2 1.962503 1_555
Ga1 N3 1.963177 1_555
Ga1 N1 1.969610 1_565
Ga2 N4 1.955899 1_655
Ga2 N1 1.962503 1_565
Ga2 N0 1.963177 1_555
Ga2 N2 1.969610 1_556
Ga3 N4 1.955899 1_545
Ga3 N0 1.962503 1_555
Ga3 N1 1.963177 1_555
Ga3 N3 1.969610 1_546
Fe0 N2 1.978678 1_455
Fe0 N3 1.978678 1_555
Fe0 N5 1.994456 1_555
Fe0 N4 2.005906 1_555
Fe1 N0 1.978678 1_555
Fe1 N1 1.978678 1_455
Fe1 N4 1.994456 1_555
Fe1 N5 2.005906 1_556
