# generated using pymatgen
data_U2(PdAu)5
_symmetry_space_group_name_H-M   'P 1'
_cell_length_a   5.43585877
_cell_length_b   5.43585877
_cell_length_c   9.41404868
_cell_angle_alpha   73.47283737
_cell_angle_beta   73.47283737
_cell_angle_gamma   59.72774293
_symmetry_Int_Tables_number   1
_chemical_formula_structural   U2(PdAu)5
_chemical_formula_sum   'U2 Pd5 Au5'
_cell_volume   226.94703796
_cell_formula_units_Z   1
loop_
 _symmetry_equiv_pos_site_id
 _symmetry_equiv_pos_as_xyz
  1  'x, y, z'
loop_
 _atom_site_type_symbol
 _atom_site_label
 _atom_site_symmetry_multiplicity
 _atom_site_fract_x
 _atom_site_fract_y
 _atom_site_fract_z
 _atom_site_occupancy
  U  U0  1  0.00137600  0.00137600  0.00156500  1
  U  U1  1  0.50199100  0.50199100  0.49956400  1
  Pd  Pd0  1  0.31236900  0.31236900  0.06222200  1
  Pd  Pd1  1  0.56197200  0.56197200  0.81285800  1
  Pd  Pd2  1  0.06275900  0.06275900  0.31204300  1
  Pd  Pd3  1  0.12460100  0.12460100  0.62458900  1
  Pd  Pd4  1  0.62424800  0.62424800  0.12564500  1
  Au  Au0  1  0.06197400  0.56203000  0.81396300  1
  Au  Au1  1  0.56074800  0.06384600  0.31022900  1
  Au  Au2  1  0.56203000  0.06197400  0.81396300  1
  Au  Au3  1  0.06384600  0.56074800  0.31022900  1
  Au  Au4  1  0.81208600  0.81208600  0.56312900  1
loop_
_geom_bond_atom_site_label_1
_geom_bond_atom_site_label_2
_geom_bond_distance
_geom_bond_site_symmetry_2
Pd0 Pd1 2.724789 1_554
Pd0 Pd2 2.727317 1_555
Pd0 U0 3.165676 1_555
Pd0 Pd4 3.183377 1_545
Pd0 Pd4 3.183377 1_455
Pd0 Pd4 3.186587 1_555
Pd0 U0 3.187530 1_655
Pd0 U0 3.187530 1_565
Pd1 U1 3.180059 1_555
Pd1 Pd3 3.182735 1_565
Pd1 Pd3 3.182735 1_655
Pd1 U0 3.184793 1_656
Pd1 U0 3.184793 1_566
Pd1 Pd4 3.185846 1_556
Pd2 U0 3.160338 1_555
Pd2 Pd4 3.174003 1_455
Pd2 Pd4 3.174003 1_545
Pd2 U1 3.179234 1_545
Pd2 U1 3.179234 1_455
Pd2 Pd3 3.181618 1_555
Pd3 U1 3.307662 1_545
Pd3 U1 3.307662 1_455
Pd3 U0 3.352505 1_556
Pd3 U1 3.361199 1_555
Pd4 U0 3.304637 1_565
Pd4 U0 3.304637 1_655
Pd4 U1 3.325318 1_555
Pd4 U0 3.358852 1_665
Au0 Pd0 2.701754 1_556
Au0 Au2 2.706434 1_465
Au0 Au2 2.707040 1_555
Au0 Pd1 2.714819 1_555
Au0 Pd1 2.721077 1_455
Au0 Au4 2.721398 1_455
Au0 U0 3.183485 1_556
Au0 Pd4 3.188507 1_456
Au0 Pd3 3.193507 1_555
Au0 U0 3.194802 1_566
Au0 Pd3 3.201320 1_565
Au0 U1 3.212877 1_555
Au1 Au3 2.689966 1_555
Au1 Pd0 2.694253 1_555
Au1 Pd2 2.705168 1_555
Au1 Au3 2.723508 1_645
Au1 Pd2 2.730789 1_655
Au1 Au4 2.742178 1_545
Au1 Pd4 3.168346 1_545
Au1 U0 3.174491 1_655
Au1 Pd4 3.182085 1_555
Au1 U1 3.188941 1_545
Au1 Pd3 3.203559 1_555
Au1 U1 3.205597 1_555
Au2 Pd0 2.701754 1_556
Au2 Pd1 2.714819 1_555
Au2 Pd1 2.721077 1_545
Au2 Au4 2.721398 1_545
Au2 U0 3.183485 1_556
Au2 Pd4 3.188507 1_546
Au2 Pd3 3.193507 1_555
Au2 U0 3.194802 1_656
Au2 Pd3 3.201320 1_655
Au2 U1 3.212877 1_555
Au3 Pd0 2.694253 1_555
Au3 Pd2 2.705168 1_555
Au3 Pd2 2.730789 1_565
Au3 Au4 2.742178 1_455
Au3 Pd4 3.168346 1_455
Au3 U0 3.174491 1_565
Au3 Pd4 3.182085 1_555
Au3 U1 3.188941 1_455
Au3 Pd3 3.203559 1_555
Au3 U1 3.205597 1_555
Au4 Pd1 2.729575 1_555
Au4 Pd2 2.740029 1_665
Au4 U1 3.170691 1_555
Au4 Pd3 3.180363 1_655
Au4 Pd3 3.180363 1_565
Au4 Pd3 3.183479 1_665
Au4 U1 3.191752 1_565
Au4 U1 3.191752 1_655
