# generated using pymatgen
data_NdZnPd
_symmetry_space_group_name_H-M   'P 1'
_cell_length_a   7.39549923
_cell_length_b   7.39549923
_cell_length_c   3.96475639
_cell_angle_alpha   90.00000000
_cell_angle_beta   90.00000000
_cell_angle_gamma   119.99999975
_symmetry_Int_Tables_number   1
_chemical_formula_structural   NdZnPd
_chemical_formula_sum   'Nd3 Zn3 Pd3'
_cell_volume   187.79418188
_cell_formula_units_Z   3
loop_
 _symmetry_equiv_pos_site_id
 _symmetry_equiv_pos_as_xyz
  1  'x, y, z'
loop_
 _atom_site_type_symbol
 _atom_site_label
 _atom_site_symmetry_multiplicity
 _atom_site_fract_x
 _atom_site_fract_y
 _atom_site_fract_z
 _atom_site_occupancy
  Nd  Nd0  1  0.40821164  0.40821164  0.00000000  1
  Nd  Nd1  1  0.59178836  0.00000000  0.00000000  1
  Nd  Nd2  1  0.00000000  0.59178836  0.00000000  1
  Zn  Zn0  1  0.75819623  0.75819623  0.50000000  1
  Zn  Zn1  1  0.24180377  0.00000000  0.50000000  1
  Zn  Zn2  1  -0.00000000  0.24180377  0.50000000  1
  Pd  Pd0  1  0.00000000  0.00000000  -0.00000000  1
  Pd  Pd1  1  0.66666700  0.33333300  0.50000000  1
  Pd  Pd2  1  0.33333300  0.66666700  0.50000000  1
loop_
_geom_bond_atom_site_label_1
_geom_bond_atom_site_label_2
_geom_bond_distance
_geom_bond_site_symmetry_2
Nd0 Pd1 2.991392 1_555
Nd0 Pd2 2.991392 1_555
Nd0 Pd1 2.991392 1_554
Nd0 Pd2 2.991392 1_554
Nd0 Pd0 3.018929 1_555
Nd0 Zn0 3.260242 1_554
Nd0 Zn0 3.260242 1_555
Nd0 Zn2 3.292871 1_554
Nd0 Zn1 3.292871 1_555
Nd0 Zn1 3.292871 1_554
Nd0 Zn2 3.292871 1_555
Nd1 Pd1 2.991386 1_554
Nd1 Pd1 2.991386 1_555
Nd1 Pd2 2.991388 1_544
Nd1 Pd2 2.991388 1_545
Nd1 Pd0 3.018929 1_655
Nd1 Zn1 3.260242 1_555
Nd1 Zn1 3.260242 1_554
Nd1 Zn0 3.292871 1_544
Nd1 Zn0 3.292871 1_545
Nd1 Zn2 3.292871 1_655
Nd1 Zn2 3.292871 1_654
Nd2 Pd2 2.991386 1_554
Nd2 Pd2 2.991386 1_555
Nd2 Pd1 2.991388 1_455
Nd2 Pd1 2.991388 1_454
Nd2 Pd0 3.018929 1_565
Nd2 Zn2 3.260242 1_554
Nd2 Zn2 3.260242 1_555
Nd2 Zn0 3.292871 1_455
Nd2 Zn0 3.292871 1_454
Nd2 Zn1 3.292871 1_565
Nd2 Zn1 3.292871 1_564
Zn0 Zn2 3.097356 1_665
Zn0 Zn1 3.097356 1_665
Zn1 Zn2 3.097356 1_555
Pd0 Zn2 2.669774 1_554
Pd0 Zn1 2.669774 1_555
Pd0 Zn1 2.669774 1_554
Pd0 Zn2 2.669774 1_555
Pd0 Zn0 2.669774 1_444
Pd0 Zn0 2.669774 1_445
Pd1 Zn2 2.864247 1_655
Pd1 Zn1 2.864252 1_555
Pd1 Zn0 2.864255 1_555
Pd2 Zn1 2.864247 1_565
Pd2 Zn2 2.864252 1_555
Pd2 Zn0 2.864255 1_555
