# generated using pymatgen
data_LaMnO3
_symmetry_space_group_name_H-M   'P 1'
_cell_length_a   4.02144000
_cell_length_b   7.88923353
_cell_length_c   7.82282296
_cell_angle_alpha   89.61046359
_cell_angle_beta   89.99960279
_cell_angle_gamma   89.99956265
_symmetry_Int_Tables_number   1
_chemical_formula_structural   LaMnO3
_chemical_formula_sum   'La4 Mn4 O12'
_cell_volume   248.18176561
_cell_formula_units_Z   4
loop_
 _symmetry_equiv_pos_site_id
 _symmetry_equiv_pos_as_xyz
  1  'x, y, z'
loop_
 _atom_site_type_symbol
 _atom_site_label
 _atom_site_symmetry_multiplicity
 _atom_site_fract_x
 _atom_site_fract_y
 _atom_site_fract_z
 _atom_site_occupancy
  La  La0  1  0.49999900  0.24989100  0.24999800  1
  La  La1  1  0.50000200  0.75010600  0.75000100  1
  La  La2  1  0.49999800  0.25003400  0.75002300  1
  La  La3  1  0.50000200  0.74996000  0.24997900  1
  Mn  Mn0  1  0.00002000  0.99999400  0.50000500  1
  Mn  Mn1  1  0.99999900  0.49999300  0.49998600  1
  Mn  Mn2  1  0.99998500  0.50002400  0.99999400  1
  Mn  Mn3  1  0.00000000  0.99998900  0.00000800  1
  O  O0  1  0.49995100  0.50001100  0.99999500  1
  O  O1  1  0.50004400  0.99999600  0.50000700  1
  O  O2  1  0.49999800  0.99999700  0.00000300  1
  O  O3  1  0.50000200  0.50000500  0.49999800  1
  O  O4  1  0.99999900  0.24228500  0.05799000  1
  O  O5  1  0.00000600  0.74239100  0.55801700  1
  O  O6  1  0.00000200  0.43981600  0.74018300  1
  O  O7  1  0.00000000  0.93974100  0.24016200  1
  O  O8  1  0.99998700  0.75772800  0.94200300  1
  O  O9  1  0.00000600  0.25759700  0.44199000  1
  O  O10  1  0.99999700  0.56018600  0.25981000  1
  O  O11  1  0.00000100  0.06025400  0.75984700  1
loop_
_geom_bond_atom_site_label_1
_geom_bond_atom_site_label_2
_geom_bond_distance
_geom_bond_site_symmetry_2
La0 O9 2.510685 1_555
La0 O9 2.510747 1_655
La0 O4 2.510760 1_555
La0 O4 2.510777 1_455
La0 O1 2.767556 1_545
La0 O0 2.768779 1_554
La0 O2 2.786352 1_545
La0 O3 2.787617 1_555
La1 O5 2.510676 1_555
La1 O5 2.510685 1_655
La1 O8 2.510704 1_555
La1 O8 2.510784 1_455
La1 O1 2.767446 1_555
La1 O0 2.768590 1_555
La1 O2 2.786374 1_556
La1 O3 2.787560 1_555
La2 O6 2.507779 1_555
La2 O11 2.507787 1_555
La2 O11 2.507789 1_655
La2 O6 2.507822 1_655
La2 O3 2.768068 1_555
La2 O2 2.768190 1_546
La2 O0 2.786692 1_555
La2 O1 2.787278 1_545
La3 O10 2.507736 1_555
La3 O10 2.507786 1_455
La3 O7 2.507789 1_555
La3 O7 2.507794 1_655
La3 O3 2.767946 1_555
La3 O2 2.768168 1_555
La3 O0 2.786601 1_554
La3 O1 2.787333 1_555
Mn0 O1 2.010623 1_455
Mn0 O1 2.010817 1_555
Mn0 O5 2.079330 1_555
Mn0 O9 2.079335 1_565
Mn0 O7 2.090691 1_555
Mn0 O11 2.090696 1_565
Mn1 O10 1.934805 1_555
Mn1 O6 1.934934 1_655
Mn1 O9 1.968399 1_655
Mn1 O5 1.968480 1_655
Mn1 O3 2.010708 1_555
Mn1 O3 2.010732 1_655
Mn2 O0 2.010583 1_655
Mn2 O0 2.010857 1_555
Mn2 O8 2.080073 1_555
Mn2 O4 2.080351 1_556
Mn2 O10 2.090317 1_556
Mn2 O6 2.090364 1_655
Mn3 O7 1.934742 1_555
Mn3 O11 1.934827 1_564
Mn3 O8 1.967380 1_454
Mn3 O4 1.967606 1_465
Mn3 O2 2.010712 1_555
Mn3 O2 2.010728 1_455
