# generated using pymatgen
data_YCo3
_symmetry_space_group_name_H-M   'P 1'
_cell_length_a   5.01134039
_cell_length_b   5.01133893
_cell_length_c   16.07480262
_cell_angle_alpha   90.00000000
_cell_angle_beta   90.00000000
_cell_angle_gamma   119.99996740
_symmetry_Int_Tables_number   1
_chemical_formula_structural   YCo3
_chemical_formula_sum   'Y6 Co18'
_cell_volume   349.61020608
_cell_formula_units_Z   6
loop_
 _symmetry_equiv_pos_site_id
 _symmetry_equiv_pos_as_xyz
  1  'x, y, z'
loop_
 _atom_site_type_symbol
 _atom_site_label
 _atom_site_symmetry_multiplicity
 _atom_site_fract_x
 _atom_site_fract_y
 _atom_site_fract_z
 _atom_site_occupancy
  Y  Y0  1  0.33333300  0.66666700  0.96249354  1
  Y  Y1  1  0.66666700  0.33333300  0.03750646  1
  Y  Y2  1  0.66666700  0.33333300  0.46249354  1
  Y  Y3  1  0.33333300  0.66666700  0.53750646  1
  Y  Y4  1  0.33333400  0.66666700  0.75000000  1
  Y  Y5  1  0.66666600  0.33333300  0.25000000  1
  Co  Co0  1  0.16371168  0.83628732  0.37129854  1
  Co  Co1  1  0.16371268  0.32742436  0.37129854  1
  Co  Co2  1  0.67257564  0.83628732  0.37129854  1
  Co  Co3  1  0.83628832  0.16371268  0.62870146  1
  Co  Co4  1  0.83628732  0.67257564  0.62870146  1
  Co  Co5  1  0.32742436  0.16371268  0.62870146  1
  Co  Co6  1  0.83628832  0.16371268  0.87129854  1
  Co  Co7  1  0.83628732  0.67257564  0.87129854  1
  Co  Co8  1  0.32742436  0.16371268  0.87129854  1
  Co  Co9  1  0.16371168  0.83628732  0.12870146  1
  Co  Co10  1  0.16371268  0.32742436  0.12870146  1
  Co  Co11  1  0.67257564  0.83628732  0.12870146  1
  Co  Co12  1  0.33333300  0.66666600  0.25000000  1
  Co  Co13  1  0.66666700  0.33333400  0.75000000  1
  Co  Co14  1  -0.00000000  0.99999900  0.25000000  1
  Co  Co15  1  -0.00000000  0.00000100  0.75000000  1
  Co  Co16  1  -0.00000000  -0.00000000  0.50000000  1
  Co  Co17  1  -0.00000000  -0.00000000  -0.00000000  1
loop_
_geom_bond_atom_site_label_1
_geom_bond_atom_site_label_2
_geom_bond_distance
_geom_bond_site_symmetry_2
Y0 Y1 3.134511 1_566
Y0 Y1 3.134512 1_456
Y0 Y1 3.134518 1_556
Y0 Y4 3.415792 1_555
Y1 Y5 3.415792 1_555
Y2 Y3 3.134511 1_545
Y2 Y3 3.134512 1_655
Y2 Y3 3.134518 1_555
Y2 Y5 3.415792 1_555
Y3 Y4 3.415792 1_555
Co0 Co14 2.412707 1_555
Co0 Co12 2.443270 1_555
Co0 Co2 2.461250 1_455
Co0 Co1 2.461252 1_565
Co0 Co16 2.509860 1_565
Co0 Co1 2.550087 1_555
Co0 Co2 2.550091 1_555
Co0 Y2 2.903105 1_455
Co0 Y2 2.903109 1_565
Co0 Y3 3.050564 1_555
Co0 Y5 3.175053 1_455
Co0 Y5 3.175053 1_565
Co1 Co14 2.412713 1_545
Co1 Co12 2.443268 1_555
Co1 Co2 2.461256 1_445
Co1 Co16 2.509860 1_555
Co1 Co2 2.550086 1_555
Co1 Y2 2.903106 1_455
Co1 Y2 2.903106 1_555
Co1 Y3 3.050566 1_555
Co1 Y5 3.175048 1_555
Co1 Y5 3.175056 1_455
Co2 Y2 2.903106 1_565
Co2 Y2 2.903106 1_555
Co2 Y3 3.050566 1_555
Co2 Y5 3.175050 1_555
Co2 Y5 3.175054 1_565
Co3 Co5 2.461250 1_655
Co3 Co4 2.461252 1_545
Co3 Co4 2.550087 1_555
Co3 Co5 2.550091 1_555
Co3 Y3 2.903105 1_655
Co3 Y3 2.903109 1_545
Co3 Y2 3.050564 1_555
Co3 Y4 3.175053 1_655
Co3 Y4 3.175053 1_545
Co4 Co5 2.461256 1_665
Co4 Co5 2.550086 1_555
Co4 Y3 2.903106 1_655
Co4 Y3 2.903106 1_555
Co4 Y2 3.050566 1_555
Co4 Y4 3.175048 1_555
Co4 Y4 3.175056 1_655
Co5 Y3 2.903106 1_545
Co5 Y3 2.903106 1_555
Co5 Y2 3.050566 1_555
Co5 Y4 3.175050 1_555
Co5 Y4 3.175054 1_545
Co6 Co8 2.461250 1_655
Co6 Co7 2.461252 1_545
Co6 Co7 2.550087 1_555
Co6 Co8 2.550091 1_555
Co6 Y0 2.903105 1_655
Co6 Y0 2.903109 1_545
Co6 Y1 3.050564 1_556
Co6 Y4 3.175053 1_655
Co6 Y4 3.175053 1_545
Co7 Co8 2.461256 1_665
Co7 Co8 2.550086 1_555
Co7 Y0 2.903106 1_655
Co7 Y0 2.903106 1_555
Co7 Y1 3.050566 1_556
Co7 Y4 3.175048 1_555
Co7 Y4 3.175056 1_655
Co8 Y0 2.903106 1_545
Co8 Y0 2.903106 1_555
Co8 Y1 3.050566 1_556
Co8 Y4 3.175050 1_555
Co8 Y4 3.175054 1_545
Co9 Y1 2.903105 1_455
Co9 Y1 2.903109 1_565
Co9 Y0 3.050564 1_554
Co9 Y5 3.175053 1_455
Co9 Y5 3.175053 1_565
Co10 Co14 2.412713 1_545
Co10 Co12 2.443268 1_555
Co10 Co9 2.461252 1_545
Co10 Co11 2.461256 1_445
Co10 Co17 2.509860 1_555
Co10 Co11 2.550086 1_555
Co10 Co9 2.550087 1_555
Co10 Y1 2.903106 1_455
Co10 Y1 2.903106 1_555
Co10 Y0 3.050566 1_554
Co10 Y5 3.175048 1_555
Co10 Y5 3.175056 1_455
Co11 Co14 2.412710 1_655
Co11 Co12 2.443270 1_555
Co11 Co9 2.461250 1_655
Co11 Co17 2.509860 1_665
Co11 Co9 2.550091 1_555
Co11 Y1 2.903106 1_565
Co11 Y1 2.903106 1_555
Co11 Y0 3.050566 1_554
Co11 Y5 3.175050 1_555
Co11 Y5 3.175054 1_565
Co12 Co9 2.443270 1_555
Co12 Co2 2.443270 1_555
Co12 Co14 2.893295 1_555
Co12 Y5 2.893295 1_555
Co12 Co14 2.893300 1_545
Co12 Y5 2.893300 1_565
Co12 Co14 2.893301 1_655
Co12 Y5 2.893301 1_455
Co13 Co4 2.443268 1_555
Co13 Co7 2.443268 1_555
Co13 Co3 2.443270 1_555
Co13 Co6 2.443270 1_555
Co13 Co5 2.443270 1_555
Co13 Co8 2.443270 1_555
Co13 Co15 2.893295 1_655
Co13 Y4 2.893295 1_555
Co13 Y4 2.893300 1_545
Co13 Co15 2.893300 1_665
Co13 Y4 2.893301 1_655
Co13 Co15 2.893301 1_555
Co14 Co9 2.412707 1_555
Co14 Co2 2.412710 1_455
Co14 Y5 2.893296 1_455
Co14 Y5 2.893297 1_565
Co14 Y5 2.893304 1_465
Co15 Co3 2.412707 1_455
Co15 Co6 2.412707 1_455
Co15 Co5 2.412710 1_555
Co15 Co8 2.412710 1_555
Co15 Co4 2.412713 1_445
Co15 Co7 2.412713 1_445
Co15 Y4 2.893296 1_555
Co15 Y4 2.893297 1_445
Co15 Y4 2.893304 1_545
Co16 Co3 2.509860 1_455
Co16 Co4 2.509860 1_445
Co16 Co2 2.509860 1_445
Co16 Co5 2.509860 1_555
Co16 Y2 2.955445 1_455
Co16 Y3 2.955445 1_545
Co16 Y2 2.955450 1_445
Co16 Y3 2.955450 1_555
Co16 Y2 2.955451 1_555
Co16 Y3 2.955451 1_445
Co17 Co6 2.509860 1_454
Co17 Co9 2.509860 1_545
Co17 Co7 2.509860 1_444
Co17 Co8 2.509860 1_554
Co17 Y1 2.955445 1_455
Co17 Y0 2.955445 1_544
Co17 Y1 2.955450 1_445
Co17 Y0 2.955450 1_554
Co17 Y1 2.955451 1_555
Co17 Y0 2.955451 1_444
