# generated using pymatgen
data_Mn3Co4P6(HO6)4
_symmetry_space_group_name_H-M   'P 1'
_cell_length_a   6.60130246
_cell_length_b   8.04509893
_cell_length_c   9.68495777
_cell_angle_alpha   104.61262484
_cell_angle_beta   108.96788663
_cell_angle_gamma   101.44909531
_symmetry_Int_Tables_number   1
_chemical_formula_structural   Mn3Co4P6(HO6)4
_chemical_formula_sum   'Mn3 Co4 P6 H4 O24'
_cell_volume   448.03057323
_cell_formula_units_Z   1
loop_
 _symmetry_equiv_pos_site_id
 _symmetry_equiv_pos_as_xyz
  1  'x, y, z'
loop_
 _atom_site_type_symbol
 _atom_site_label
 _atom_site_symmetry_multiplicity
 _atom_site_fract_x
 _atom_site_fract_y
 _atom_site_fract_z
 _atom_site_occupancy
  Mn  Mn0  1  0.00000000  0.50000000  0.50000000  1
  Mn  Mn1  1  0.27961500  0.31074600  0.78465600  1
  Mn  Mn2  1  0.72038500  0.68925400  0.21534400  1
  Co  Co0  1  0.61345900  0.04331500  0.39266100  1
  Co  Co1  1  0.38654100  0.95668500  0.60733900  1
  Co  Co2  1  0.05400500  0.20987600  0.01615200  1
  Co  Co3  1  0.94599500  0.79012400  0.98384800  1
  P  P0  1  0.22623800  0.64941400  0.27562700  1
  P  P1  1  0.77376200  0.35058600  0.72437300  1
  P  P2  1  0.09092000  0.08312000  0.32676400  1
  P  P3  1  0.90908000  0.91688000  0.67323600  1
  P  P4  1  0.58641700  0.26132800  0.12933800  1
  P  P5  1  0.41358300  0.73867200  0.87066200  1
  H  H0  1  0.18203000  0.37851700  0.30617100  1
  H  H1  1  0.81797000  0.62148300  0.69382900  1
  H  H2  1  0.36912900  0.91850600  0.06072500  1
  H  H3  1  0.63087100  0.08149400  0.93927500  1
  O  O0  1  0.11939400  0.03051100  0.66267200  1
  O  O1  1  0.88060600  0.96948900  0.33732800  1
  O  O2  1  0.44785700  0.74889400  0.27152200  1
  O  O3  1  0.55214300  0.25110600  0.72847800  1
  O  O4  1  0.12111000  0.28735700  0.39894800  1
  O  O5  1  0.87889000  0.71264300  0.60105200  1
  O  O6  1  0.01929600  0.67416100  0.16015300  1
  O  O7  1  0.98070400  0.32583900  0.83984700  1
  O  O8  1  0.20367100  0.43904200  0.22304800  1
  O  O9  1  0.79632900  0.56095800  0.77695200  1
  O  O10  1  0.05805600  0.04303200  0.15290800  1
  O  O11  1  0.94194400  0.95696800  0.84709200  1
  O  O12  1  0.37800500  0.28540500  0.01318000  1
  O  O13  1  0.62199500  0.71459500  0.98682000  1
  O  O14  1  0.22123300  0.69266200  0.44060400  1
  O  O15  1  0.77876700  0.30733800  0.55939600  1
  O  O16  1  0.52081100  0.10914400  0.18940900  1
  O  O17  1  0.47918900  0.89085600  0.81059100  1
  O  O18  1  0.73456400  0.44121900  0.25984500  1
  O  O19  1  0.26543600  0.55878100  0.74015500  1
  O  O20  1  0.30423200  0.03803300  0.41302200  1
  O  O21  1  0.69576800  0.96196700  0.58697800  1
  O  O22  1  0.72689500  0.20218700  0.02682700  1
  O  O23  1  0.27310500  0.79781300  0.97317300  1
loop_
_geom_bond_atom_site_label_1
_geom_bond_atom_site_label_2
_geom_bond_distance
_geom_bond_site_symmetry_2
Mn0 O5 2.174959 1_455
Mn0 O4 2.174959 1_555
Mn0 O15 2.227907 1_455
Mn0 O14 2.227907 1_555
Mn0 O19 2.273847 1_555
Mn0 O18 2.273847 1_455
Mn1 O0 2.119997 1_555
Mn1 O3 2.147105 1_555
Mn1 O19 2.158301 1_555
Mn1 O12 2.169704 1_556
Mn1 O7 2.223062 1_455
Mn2 O1 2.119997 1_555
Mn2 O2 2.147105 1_555
Mn2 O18 2.158301 1_555
Mn2 O13 2.169704 1_554
Mn2 O6 2.223062 1_655
Co0 O21 2.088817 1_545
Co0 O16 2.097959 1_555
Co0 O20 2.106910 1_555
Co0 O15 2.124575 1_555
Co0 O1 2.149309 1_545
Co0 O2 2.217682 1_545
Co1 O20 2.088817 1_565
Co1 O17 2.097959 1_555
Co1 O21 2.106910 1_555
Co1 O14 2.124575 1_555
Co1 O0 2.149309 1_565
Co1 O3 2.217682 1_565
Co2 O11 2.074160 1_444
Co2 O10 2.108295 1_555
Co2 O7 2.113281 1_454
Co2 O12 2.116013 1_555
Co2 O8 2.125144 1_555
Co2 O22 2.184638 1_455
Co3 O10 2.074160 1_666
Co3 O11 2.108295 1_555
Co3 O6 2.113281 1_656
Co3 O13 2.116013 1_555
Co3 O9 2.125144 1_555
Co3 O23 2.184638 1_655
H0 O8 1.072632 1_555
H0 O4 1.399029 1_555
H1 O9 1.072632 1_555
H1 O5 1.399029 1_555
H2 O23 1.026857 1_554
H2 O16 1.588315 1_565
H3 O22 1.026857 1_556
H3 O17 1.588315 1_545
O0 P3 1.552210 1_445
O1 P2 1.552210 1_665
O2 P0 1.539947 1_555
O3 P1 1.539947 1_555
O4 P2 1.558234 1_555
O5 P3 1.558234 1_555
O6 P0 1.543926 1_555
O7 P1 1.543926 1_555
O8 P0 1.600522 1_555
O9 P1 1.600522 1_555
O10 P2 1.564282 1_555
O11 P3 1.564282 1_555
O12 P4 1.550970 1_555
O13 P5 1.550970 1_555
O14 P0 1.559961 1_555
O15 P1 1.559961 1_555
O16 P4 1.528963 1_555
O17 P5 1.528963 1_555
O18 P4 1.536255 1_555
O19 P5 1.536255 1_555
O20 P2 1.550248 1_555
O21 P3 1.550248 1_555
O22 P4 1.614727 1_555
O23 P5 1.614727 1_555
