# generated using pymatgen
data_Co2H2CO5
_symmetry_space_group_name_H-M   'P 1'
_cell_length_a   3.19535090
_cell_length_b   11.30583517
_cell_length_c   12.30609000
_cell_angle_alpha   90.00000000
_cell_angle_beta   90.00000000
_cell_angle_gamma   121.31252120
_symmetry_Int_Tables_number   1
_chemical_formula_structural   Co2H2CO5
_chemical_formula_sum   'Co8 H8 C4 O20'
_cell_volume   379.81727776
_cell_formula_units_Z   4
loop_
 _symmetry_equiv_pos_site_id
 _symmetry_equiv_pos_as_xyz
  1  'x, y, z'
loop_
 _atom_site_type_symbol
 _atom_site_label
 _atom_site_symmetry_multiplicity
 _atom_site_fract_x
 _atom_site_fract_y
 _atom_site_fract_z
 _atom_site_occupancy
  Co  Co0  1  0.78317100  0.98270900  0.21350700  1
  Co  Co1  1  0.21682900  0.51729100  0.71350700  1
  Co  Co2  1  0.21682900  0.01729100  0.78649300  1
  Co  Co3  1  0.78317100  0.48270900  0.28649300  1
  Co  Co4  1  0.93877100  0.71467500  0.11283400  1
  Co  Co5  1  0.06122900  0.78532500  0.61283400  1
  Co  Co6  1  0.06122900  0.28532500  0.88716600  1
  Co  Co7  1  0.93877100  0.21467500  0.38716600  1
  H  H0  1  0.24796400  0.10815300  0.98141700  1
  H  H1  1  0.75203600  0.39184700  0.48141700  1
  H  H2  1  0.75203600  0.89184700  0.01858300  1
  H  H3  1  0.24796400  0.60815300  0.51858300  1
  H  H4  1  0.93538600  0.50054500  0.89925500  1
  H  H5  1  0.06461400  0.99945500  0.39925500  1
  H  H6  1  0.06461400  0.49945500  0.10074500  1
  H  H7  1  0.93538600  0.00054500  0.60074500  1
  C  C0  1  0.02127300  0.75883600  0.36808200  1
  C  C1  1  0.97872700  0.74116400  0.86808200  1
  C  C2  1  0.97872700  0.24116400  0.63191800  1
  C  C3  1  0.02127300  0.25883600  0.13191800  1
  O  O0  1  0.75086300  0.62516400  0.37980600  1
  O  O1  1  0.24913700  0.87483600  0.87980600  1
  O  O2  1  0.24913700  0.37483600  0.62019400  1
  O  O3  1  0.75086300  0.12516400  0.12019400  1
  O  O4  1  0.14771900  0.81021700  0.26922100  1
  O  O5  1  0.85228100  0.68978300  0.76922100  1
  O  O6  1  0.85228100  0.18978300  0.73077900  1
  O  O7  1  0.14771900  0.31021700  0.23077900  1
  O  O8  1  0.16183600  0.84170400  0.44883100  1
  O  O9  1  0.83816400  0.65829600  0.94883100  1
  O  O10  1  0.83816400  0.15829600  0.55116900  1
  O  O11  1  0.16183600  0.34170400  0.05116900  1
  O  O12  1  0.16685300  0.57496100  0.15376900  1
  O  O13  1  0.83314700  0.92503900  0.65376900  1
  O  O14  1  0.83314700  0.42503900  0.84623100  1
  O  O15  1  0.16685300  0.07496100  0.34623100  1
  O  O16  1  0.69748900  0.85615500  0.09261900  1
  O  O17  1  0.30251100  0.64384500  0.59261900  1
  O  O18  1  0.30251100  0.14384500  0.90738100  1
  O  O19  1  0.69748900  0.35615500  0.40738100  1
loop_
_geom_bond_atom_site_label_1
_geom_bond_atom_site_label_2
_geom_bond_distance
_geom_bond_site_symmetry_2
Co0 O16 1.981944 1_555
Co0 O15 1.982299 1_665
Co0 O3 2.023872 1_565
Co0 O4 2.068880 1_555
Co1 O17 1.981944 1_555
Co1 O14 1.982299 1_455
Co1 O2 2.023872 1_555
Co1 O5 2.068880 1_555
Co2 O18 1.981944 1_555
Co2 O13 1.982299 1_445
Co2 O1 2.023872 1_545
Co2 O6 2.068880 1_555
Co3 O19 1.981944 1_555
Co3 O12 1.982299 1_655
Co3 O0 2.023872 1_555
Co3 O7 2.068880 1_555
Co4 O9 2.090437 1_554
Co4 O16 2.113594 1_655
Co4 O12 2.115792 1_655
Co4 O16 2.120538 1_555
Co4 O4 2.136983 1_655
Co4 O12 2.187016 1_555
Co5 O8 2.090437 1_555
Co5 O17 2.113594 1_455
Co5 O13 2.115792 1_455
Co5 O17 2.120538 1_555
Co5 O5 2.136983 1_455
Co5 O13 2.187016 1_555
Co6 O11 2.090437 1_556
Co6 O18 2.113594 1_455
Co6 O14 2.115792 1_455
Co6 O18 2.120538 1_555
Co6 O6 2.136983 1_455
Co6 O14 2.187016 1_555
Co7 O10 2.090437 1_555
Co7 O19 2.113594 1_655
Co7 O15 2.115792 1_655
Co7 O19 2.120538 1_555
Co7 O7 2.136983 1_655
Co7 O15 2.187016 1_555
H0 O18 0.974782 1_555
H1 O19 0.974782 1_555
H2 O16 0.974782 1_555
H3 O17 0.974782 1_555
H4 O14 0.985579 1_555
H5 O15 0.985579 1_565
H6 O12 0.985579 1_555
H7 O13 0.985579 1_545
C0 O8 1.276543 1_555
C0 O0 1.301563 1_455
C0 O4 1.317891 1_555
C1 O9 1.276543 1_555
C1 O1 1.301563 1_655
C1 O5 1.317891 1_555
C2 O10 1.276543 1_555
C2 O2 1.301563 1_655
C2 O6 1.317891 1_555
C3 O11 1.276543 1_555
C3 O3 1.301563 1_455
C3 O7 1.317891 1_555
