# generated using pymatgen
data_CeHfF7
_symmetry_space_group_name_H-M   'P 1'
_cell_length_a   5.82544217
_cell_length_b   6.23507996
_cell_length_c   8.43986948
_cell_angle_alpha   102.12410435
_cell_angle_beta   90.00000000
_cell_angle_gamma   90.00000000
_symmetry_Int_Tables_number   1
_chemical_formula_structural   CeHfF7
_chemical_formula_sum   'Ce2 Hf2 F14'
_cell_volume   299.71607118
_cell_formula_units_Z   2
loop_
 _symmetry_equiv_pos_site_id
 _symmetry_equiv_pos_as_xyz
  1  'x, y, z'
loop_
 _atom_site_type_symbol
 _atom_site_label
 _atom_site_symmetry_multiplicity
 _atom_site_fract_x
 _atom_site_fract_y
 _atom_site_fract_z
 _atom_site_occupancy
  Ce  Ce0  1  0.70038809  0.66104337  0.68748475  1
  Ce  Ce1  1  0.20038809  0.33895663  0.31251525  1
  Hf  Hf0  1  0.71003288  0.80832619  0.22294662  1
  Hf  Hf1  1  0.21003288  0.19167381  0.77705338  1
  F  F0  1  0.87650501  0.43859495  0.47314175  1
  F  F1  1  0.37650501  0.56140505  0.52685825  1
  F  F2  1  0.42708257  0.94419186  0.77529602  1
  F  F3  1  0.92708257  0.05580814  0.22470398  1
  F  F4  1  0.95596565  0.97263224  0.76030833  1
  F  F5  1  0.45596565  0.02736776  0.23969167  1
  F  F6  1  0.00091442  0.44624811  0.78789471  1
  F  F7  1  0.50091442  0.55375189  0.21210529  1
  F  F8  1  0.70270477  0.75599689  0.98295175  1
  F  F9  1  0.20270477  0.24400311  0.01704825  1
  F  F10  1  0.71514117  0.86001080  0.46400925  1
  F  F11  1  0.21514117  0.13998920  0.53599075  1
  F  F12  1  0.48762345  0.38175912  0.78500901  1
  F  F13  1  0.98762345  0.61824088  0.21499099  1
loop_
_geom_bond_atom_site_label_1
_geom_bond_atom_site_label_2
_geom_bond_distance
_geom_bond_site_symmetry_2
Ce0 F0 2.279238 1_555
Ce0 F1 2.330210 1_555
Ce0 F2 2.377253 1_555
Ce0 F12 2.418288 1_555
Ce0 F4 2.422242 1_555
Ce0 F8 2.439074 1_555
Ce0 F6 2.460385 1_655
Ce0 F10 2.467122 1_555
Ce1 F1 2.279238 1_555
Ce1 F0 2.330210 1_455
Ce1 F3 2.377253 1_455
Ce1 F13 2.418288 1_455
Ce1 F5 2.422242 1_555
Ce1 F9 2.439074 1_555
Ce1 F7 2.460385 1_555
Ce1 F11 2.467122 1_555
F2 Hf1 1.992587 1_565
F3 Hf0 1.992587 1_545
F4 Hf1 1.998676 1_665
F5 Hf0 1.998676 1_545
F6 Hf1 1.987684 1_555
F7 Hf0 1.987684 1_555
F8 Hf0 1.983286 1_556
F9 Hf1 1.983286 1_554
F10 Hf0 1.992151 1_555
F11 Hf1 1.992151 1_555
F12 Hf1 1.997685 1_555
F13 Hf0 1.997685 1_555
