# generated using pymatgen
data_Zn2Mo2NO10
_symmetry_space_group_name_H-M   'P 1'
_cell_length_a   5.96907395
_cell_length_b   5.96907395
_cell_length_c   7.88829745
_cell_angle_alpha   66.99978554
_cell_angle_beta   66.99978554
_cell_angle_gamma   63.32307005
_symmetry_Int_Tables_number   1
_chemical_formula_structural   Zn2Mo2NO10
_chemical_formula_sum   'Zn2 Mo2 N1 O10'
_cell_volume   223.11483761
_cell_formula_units_Z   1
loop_
 _symmetry_equiv_pos_site_id
 _symmetry_equiv_pos_as_xyz
  1  'x, y, z'
loop_
 _atom_site_type_symbol
 _atom_site_label
 _atom_site_symmetry_multiplicity
 _atom_site_fract_x
 _atom_site_fract_y
 _atom_site_fract_z
 _atom_site_occupancy
  Zn  Zn0  1  0.00000000  0.50000000  0.00000000  1
  Zn  Zn1  1  0.50000000  0.00000000  0.00000000  1
  Mo  Mo0  1  0.08785800  0.08785800  0.72589700  1
  Mo  Mo1  1  0.91214200  0.91214200  0.27410300  1
  N  N0  1  0.50000000  0.50000000  0.50000000  1
  O  O0  1  0.20326000  0.73776600  0.81283000  1
  O  O1  1  0.22412100  0.22412100  0.82222900  1
  O  O2  1  0.73776600  0.20326000  0.81283000  1
  O  O3  1  0.79674000  0.26223400  0.18717000  1
  O  O4  1  0.77587900  0.77587900  0.17777100  1
  O  O5  1  0.26223400  0.79674000  0.18717000  1
  O  O6  1  0.29845800  0.29845800  0.11597500  1
  O  O7  1  0.70154200  0.70154200  0.88402500  1
  O  O8  1  0.17695800  0.17695800  0.47724900  1
  O  O9  1  0.82304200  0.82304200  0.52275100  1
loop_
_geom_bond_atom_site_label_1
_geom_bond_atom_site_label_2
_geom_bond_distance
_geom_bond_site_symmetry_2
Mo0 O8 1.742534 1_555
Mo0 O0 1.807883 1_545
Mo0 O2 1.807883 1_455
Mo0 O1 1.860268 1_555
Mo1 O9 1.742534 1_555
Mo1 O3 1.807883 1_565
Mo1 O5 1.807883 1_655
Mo1 O4 1.860268 1_555
O0 Zn0 2.043268 1_556
O1 Zn1 2.197357 1_556
O1 Zn0 2.197357 1_556
O2 Zn1 2.043268 1_556
O3 Zn0 2.043268 1_655
O4 Zn1 2.197357 1_565
O4 Zn0 2.197357 1_655
O5 Zn1 2.043268 1_565
O6 Zn0 1.986748 1_555
O6 Zn1 1.986748 1_555
O7 Zn0 1.986748 1_656
O7 Zn1 1.986748 1_566
