# generated using pymatgen
data_Mg(SnO2)2
_symmetry_space_group_name_H-M   'P 1'
_cell_length_a   10.75709600
_cell_length_b   3.17652700
_cell_length_c   12.09013312
_cell_angle_alpha   76.53596299
_cell_angle_beta   90.00000000
_cell_angle_gamma   90.00000000
_symmetry_Int_Tables_number   1
_chemical_formula_structural   Mg(SnO2)2
_chemical_formula_sum   'Mg4 Sn8 O16'
_cell_volume   401.76818944
_cell_formula_units_Z   4
loop_
 _symmetry_equiv_pos_site_id
 _symmetry_equiv_pos_as_xyz
  1  'x, y, z'
loop_
 _atom_site_type_symbol
 _atom_site_label
 _atom_site_symmetry_multiplicity
 _atom_site_fract_x
 _atom_site_fract_y
 _atom_site_fract_z
 _atom_site_occupancy
  Mg  Mg0  1  0.16119500  0.55782700  0.69027100  1
  Mg  Mg1  1  0.33880500  0.55782700  0.19027100  1
  Mg  Mg2  1  0.66119500  0.44217300  0.80972900  1
  Mg  Mg3  1  0.83880500  0.44217300  0.30972900  1
  Sn  Sn0  1  0.39362600  0.17985000  0.57622700  1
  Sn  Sn1  1  0.10637400  0.17985000  0.07622700  1
  Sn  Sn2  1  0.61940300  0.91079500  0.11197800  1
  Sn  Sn3  1  0.11940300  0.08920500  0.38802200  1
  Sn  Sn4  1  0.60637400  0.82015000  0.42377300  1
  Sn  Sn5  1  0.38059700  0.08920500  0.88802200  1
  Sn  Sn6  1  0.89362600  0.82015000  0.92377300  1
  Sn  Sn7  1  0.88059700  0.91079500  0.61197800  1
  O  O0  1  0.55098900  0.91796300  0.83903800  1
  O  O1  1  0.44901100  0.08203700  0.16096200  1
  O  O2  1  0.22567100  0.71481600  0.03745400  1
  O  O3  1  0.02444900  0.33683600  0.90303700  1
  O  O4  1  0.05098900  0.08203700  0.66096200  1
  O  O5  1  0.20576800  0.04289000  0.23180500  1
  O  O6  1  0.97555100  0.66316400  0.09696300  1
  O  O7  1  0.70576800  0.95711000  0.26819500  1
  O  O8  1  0.27432900  0.71481600  0.53745400  1
  O  O9  1  0.77432900  0.28518400  0.96254600  1
  O  O10  1  0.52444900  0.66316400  0.59696300  1
  O  O11  1  0.79423200  0.95711000  0.76819500  1
  O  O12  1  0.29423200  0.04289000  0.73180500  1
  O  O13  1  0.72567100  0.28518400  0.46254600  1
  O  O14  1  0.94901100  0.91796300  0.33903800  1
  O  O15  1  0.47555100  0.33683600  0.40303700  1
loop_
_geom_bond_atom_site_label_1
_geom_bond_atom_site_label_2
_geom_bond_distance
_geom_bond_site_symmetry_2
Mg0 O4 2.007232 1_565
Mg0 O4 2.016076 1_555
Mg0 O12 2.143185 1_555
Mg0 O8 2.171233 1_555
Mg0 O12 2.243790 1_565
Mg1 O1 2.007232 1_565
Mg1 O1 2.016076 1_555
Mg1 O5 2.143185 1_555
Mg1 O2 2.171233 1_555
Mg1 O5 2.243790 1_565
Mg2 O0 2.007232 1_545
Mg2 O0 2.016076 1_555
Mg2 O11 2.143185 1_555
Mg2 O9 2.171233 1_555
Mg2 O11 2.243790 1_545
Mg3 O14 2.007232 1_545
Mg3 O14 2.016076 1_555
Mg3 O7 2.143185 1_555
Mg3 O13 2.171233 1_555
Mg3 O7 2.243790 1_545
O0 Sn5 2.038684 1_565
O1 Sn2 2.038684 1_545
O2 Sn1 2.090726 1_565
O2 Sn1 2.093648 1_555
O2 Sn5 2.540709 1_564
O3 Sn6 2.132000 1_445
O3 Sn6 2.139984 1_455
O3 Sn1 2.218887 1_556
O4 Sn7 2.038684 1_445
O5 Sn1 2.118816 1_555
O5 Sn3 2.140391 1_555
O6 Sn1 2.132000 1_665
O6 Sn1 2.139984 1_655
O6 Sn6 2.218887 1_554
O7 Sn4 2.118816 1_555
O7 Sn2 2.140391 1_555
O8 Sn0 2.090726 1_565
O8 Sn0 2.093648 1_555
O8 Sn3 2.540709 1_565
O9 Sn6 2.090726 1_545
O9 Sn6 2.093648 1_555
O9 Sn2 2.540709 1_546
O10 Sn0 2.132000 1_565
O10 Sn0 2.139984 1_555
O10 Sn4 2.218887 1_555
O11 Sn6 2.118816 1_555
O11 Sn7 2.140391 1_555
O12 Sn0 2.118816 1_555
O12 Sn5 2.140391 1_555
O13 Sn4 2.090726 1_545
O13 Sn4 2.093648 1_555
O13 Sn7 2.540709 1_545
O14 Sn3 2.038684 1_665
O15 Sn4 2.132000 1_545
O15 Sn4 2.139984 1_555
O15 Sn0 2.218887 1_555
