# generated using pymatgen
data_KH3CN
_symmetry_space_group_name_H-M   'P 1'
_cell_length_a   7.25932500
_cell_length_b   5.66449900
_cell_length_c   8.64324092
_cell_angle_alpha   90.00000000
_cell_angle_beta   117.08905132
_cell_angle_gamma   90.00000000
_symmetry_Int_Tables_number   1
_chemical_formula_structural   KH3CN
_chemical_formula_sum   'K4 H12 C4 N4'
_cell_volume   316.42490482
_cell_formula_units_Z   4
loop_
 _symmetry_equiv_pos_site_id
 _symmetry_equiv_pos_as_xyz
  1  'x, y, z'
loop_
 _atom_site_type_symbol
 _atom_site_label
 _atom_site_symmetry_multiplicity
 _atom_site_fract_x
 _atom_site_fract_y
 _atom_site_fract_z
 _atom_site_occupancy
  K  K0  1  0.68227900  0.41812400  0.40128800  1
  K  K1  1  0.68227900  0.08187600  0.90128800  1
  K  K2  1  0.31772100  0.58187600  0.59871200  1
  K  K3  1  0.31772100  0.91812400  0.09871200  1
  H  H0  1  0.81770400  0.74091000  0.21805100  1
  H  H1  1  0.81770400  0.75909000  0.71805100  1
  H  H2  1  0.18229600  0.25909000  0.78194900  1
  H  H3  1  0.18229600  0.24091000  0.28194900  1
  H  H4  1  0.82786100  0.87136700  0.39426700  1
  H  H5  1  0.82786100  0.62863300  0.89426700  1
  H  H6  1  0.17213900  0.12863300  0.60573300  1
  H  H7  1  0.17213900  0.37136700  0.10573300  1
  H  H8  1  0.01600600  0.91865600  0.33793900  1
  H  H9  1  0.01600600  0.58134400  0.83793900  1
  H  H10  1  0.98399400  0.08134400  0.66206100  1
  H  H11  1  0.98399400  0.41865600  0.16206100  1
  C  C0  1  0.44355300  0.42221100  0.00982300  1
  C  C1  1  0.44355300  0.07778900  0.50982300  1
  C  C2  1  0.55644700  0.57778900  0.99017700  1
  C  C3  1  0.55644700  0.92221100  0.49017700  1
  N  N0  1  0.91746600  0.79365800  0.34378700  1
  N  N1  1  0.91746600  0.70634200  0.84378700  1
  N  N2  1  0.08253400  0.20634200  0.65621300  1
  N  N3  1  0.08253400  0.29365800  0.15621300  1
loop_
_geom_bond_atom_site_label_1
_geom_bond_atom_site_label_2
_geom_bond_distance
_geom_bond_site_symmetry_2
K0 N0 2.908555 1_555
K0 N2 2.984243 1_655
K1 N1 2.908555 1_545
K1 N3 2.984243 1_656
K2 N2 2.908555 1_555
K2 N0 2.984243 1_455
K3 N3 2.908555 1_565
K3 N1 2.984243 1_454
H0 N0 1.038274 1_555
H0 K0 2.869830 1_555
H0 K1 3.121107 1_564
H1 N1 1.038274 1_555
H1 K1 2.869830 1_565
H1 K0 3.121107 1_555
H2 N2 1.038274 1_555
H2 K2 2.869830 1_555
H2 K3 3.121107 1_546
H3 N3 1.038274 1_555
H3 K3 2.869830 1_545
H3 K2 3.121107 1_555
H4 N0 1.032337 1_555
H4 K0 2.787560 1_555
H5 N1 1.032337 1_555
H5 K1 2.787560 1_565
H6 N2 1.032337 1_555
H6 K2 2.787560 1_555
H7 N3 1.032337 1_555
H7 K3 2.787560 1_545
H8 N0 1.023974 1_455
H8 K2 3.003429 1_555
H9 N1 1.023974 1_455
H9 K3 3.003429 1_556
H10 N2 1.023974 1_655
H10 K0 3.003429 1_555
H11 N3 1.023974 1_655
H11 K1 3.003429 1_554
C0 C2 1.266432 1_554
C0 K1 3.013371 1_554
C0 K0 3.018568 1_555
C0 K3 3.155133 1_555
C0 K3 3.196426 1_545
C1 C3 1.266432 1_545
C1 K0 3.013371 1_555
C1 K1 3.018568 1_555
C1 K2 3.155133 1_545
C1 K2 3.196426 1_555
C2 K3 3.013371 1_556
C2 K2 3.018568 1_555
C2 K1 3.155133 1_555
C2 K1 3.196426 1_565
C3 K2 3.013371 1_555
C3 K3 3.018568 1_555
C3 K0 3.155133 1_565
C3 K0 3.196426 1_555
