# generated using pymatgen
data_CaZrSi6H2O15
_symmetry_space_group_name_H-M   'P 1'
_cell_length_a   10.05803507
_cell_length_b   10.05803507
_cell_length_c   7.91884337
_cell_angle_alpha   76.71994602
_cell_angle_beta   76.71994602
_cell_angle_gamma   90.45598414
_symmetry_Int_Tables_number   1
_chemical_formula_structural   CaZrSi6H2O15
_chemical_formula_sum   'Ca2 Zr2 Si12 H4 O30'
_cell_volume   757.26960528
_cell_formula_units_Z   2
loop_
 _symmetry_equiv_pos_site_id
 _symmetry_equiv_pos_as_xyz
  1  'x, y, z'
loop_
 _atom_site_type_symbol
 _atom_site_label
 _atom_site_symmetry_multiplicity
 _atom_site_fract_x
 _atom_site_fract_y
 _atom_site_fract_z
 _atom_site_occupancy
  Ca  Ca0  1  0.47077500  0.02148400  0.54864900  1
  Ca  Ca1  1  0.97851600  0.52922500  0.45135100  1
  Zr  Zr0  1  0.72519300  0.77789300  0.49609800  1
  Zr  Zr1  1  0.22210700  0.27480700  0.50390200  1
  Si  Si0  1  0.48852900  0.82390300  0.22712800  1
  Si  Si1  1  0.17609700  0.51147100  0.77287200  1
  Si  Si2  1  0.79745100  0.57774600  0.16320900  1
  Si  Si3  1  0.42225400  0.20254900  0.83679100  1
  Si  Si4  1  0.27322700  0.04672000  0.23049400  1
  Si  Si5  1  0.95328000  0.72677300  0.76950600  1
  Si  Si6  1  0.02449300  0.34801400  0.16154100  1
  Si  Si7  1  0.65198600  0.97550800  0.83845900  1
  Si  Si8  1  0.97028200  0.03801000  0.19608400  1
  Si  Si9  1  0.96199000  0.02971800  0.80391600  1
  Si  Si10  1  0.48548600  0.51869300  0.20236300  1
  Si  Si11  1  0.48130700  0.51451400  0.79763700  1
  H  H0  1  0.18611500  0.69457700  0.31542000  1
  H  H1  1  0.30542300  0.81388500  0.68458000  1
  H  H2  1  0.64900800  0.17114000  0.26675900  1
  H  H3  1  0.82886000  0.35099200  0.73324100  1
  O  O0  1  0.64888900  0.89898200  0.67952200  1
  O  O1  1  0.10101800  0.35111100  0.32047800  1
  O  O2  1  0.59978100  0.87464500  0.03585800  1
  O  O3  1  0.12535500  0.40021900  0.96414200  1
  O  O4  1  0.30726800  0.10585000  0.39206700  1
  O  O5  1  0.89415000  0.69273200  0.60793300  1
  O  O6  1  0.34914100  0.90497000  0.22032900  1
  O  O7  1  0.09503000  0.65085900  0.77967100  1
  O  O8  1  0.44326500  0.66319500  0.25699400  1
  O  O9  1  0.33680500  0.55673500  0.74300600  1
  O  O10  1  0.33865600  0.18777000  0.68891100  1
  O  O11  1  0.81223000  0.66134400  0.31108900  1
  O  O12  1  0.11095700  0.00943300  0.26625100  1
  O  O13  1  0.99056700  0.88904300  0.73374900  1
  O  O14  1  0.55189100  0.85469900  0.38744900  1
  O  O15  1  0.14530100  0.44810900  0.61255100  1
  O  O16  1  0.84149600  0.94807200  0.33431200  1
  O  O17  1  0.05192800  0.15850400  0.66568800  1
  O  O18  1  0.99640800  0.00359200  0.00000000  1
  O  O19  1  0.50012800  0.35234600  0.79574000  1
  O  O20  1  0.64765400  0.49987200  0.20426000  1
  O  O21  1  0.32981500  0.15926100  0.04031700  1
  O  O22  1  0.84073900  0.67018500  0.95968300  1
  O  O23  1  0.94725600  0.20251700  0.17653700  1
  O  O24  1  0.79748300  0.05274400  0.82346300  1
  O  O25  1  0.39016000  0.39480600  0.34287000  1
  O  O26  1  0.60519400  0.60984000  0.65713000  1
  O  O27  1  0.90765300  0.45953600  0.19607700  1
  O  O28  1  0.54046400  0.09234700  0.80392300  1
  O  O29  1  0.46893900  0.53106100  0.00000000  1
loop_
_geom_bond_atom_site_label_1
_geom_bond_atom_site_label_2
_geom_bond_distance
_geom_bond_site_symmetry_2
Ca0 O4 2.331900 1_555
Ca0 O14 2.374101 1_545
Ca0 O10 2.451035 1_555
Ca0 O0 2.470432 1_545
Ca0 H1 2.524718 1_545
Ca0 O28 2.527967 1_555
Ca0 H2 2.652781 1_555
Ca1 O5 2.331900 1_555
Ca1 O15 2.374101 1_655
Ca1 O11 2.451035 1_555
Ca1 O1 2.470432 1_655
Ca1 H0 2.524718 1_655
Ca1 O27 2.527967 1_555
Ca1 H3 2.652781 1_555
O0 Si7 1.624860 1_555
O0 Zr0 2.120748 1_555
O1 Si6 1.624853 1_555
O1 Zr1 2.120748 1_555
O2 Si7 1.623043 1_554
O2 Si0 1.632124 1_555
O3 Si6 1.623039 1_556
O3 Si1 1.632124 1_555
O4 Si4 1.629599 1_555
O4 Zr1 2.184476 1_555
O5 Si5 1.629599 1_555
O5 Zr0 2.184476 1_555
O6 Si4 1.632174 1_565
O6 Si0 1.632776 1_555
O7 Si5 1.632174 1_455
O7 Si1 1.632776 1_555
O8 Si0 1.624550 1_555
O8 Si10 1.641393 1_555
O9 Si1 1.624550 1_555
O9 Si11 1.641393 1_555
O10 Si3 1.621967 1_555
O10 Zr1 2.122042 1_555
O11 Si2 1.621967 1_555
O11 Zr0 2.122042 1_555
O12 Si4 1.616721 1_555
O12 Si8 1.639398 1_455
O13 Si5 1.616721 1_555
O13 Si9 1.639398 1_565
O14 Si0 1.631900 1_555
O14 Zr0 2.186417 1_555
O15 Si1 1.631900 1_555
O15 Zr1 2.186417 1_555
O16 Si8 1.602931 1_565
O16 Zr0 2.052239 1_555
O17 Si9 1.602931 1_455
O17 Zr1 2.052239 1_555
O18 Si9 1.631224 1_554
O18 Si8 1.631224 1_555
O19 Si3 1.621243 1_555
O19 Si11 1.646628 1_555
O20 Si2 1.621243 1_555
O20 Si10 1.646628 1_555
O21 Si3 1.623051 1_554
O21 Si4 1.638903 1_555
O22 Si2 1.623051 1_556
O22 Si5 1.638903 1_555
O23 Si6 1.618291 1_655
O23 Si8 1.649320 1_555
O24 Si7 1.618286 1_545
O24 Si9 1.649320 1_555
O25 Si10 1.601205 1_555
O25 Zr1 2.051849 1_555
O26 Si11 1.601205 1_555
O26 Zr0 2.051849 1_555
O27 Si2 1.649636 1_555
O27 Si6 1.651756 1_655
O28 Si3 1.649636 1_555
O28 Si7 1.651749 1_545
O29 Si10 1.625544 1_555
O29 Si11 1.625544 1_554
