# generated using pymatgen
data_Ti2Be17
_symmetry_space_group_name_H-M   'P 1'
_cell_length_a   5.54789431
_cell_length_b   5.54789575
_cell_length_c   5.54789622
_cell_angle_alpha   82.87583624
_cell_angle_beta   82.87584100
_cell_angle_gamma   82.87584391
_symmetry_Int_Tables_number   1
_chemical_formula_structural   Ti2Be17
_chemical_formula_sum   'Ti2 Be17'
_cell_volume   167.10646690
_cell_formula_units_Z   1
loop_
 _symmetry_equiv_pos_site_id
 _symmetry_equiv_pos_as_xyz
  1  'x, y, z'
loop_
 _atom_site_type_symbol
 _atom_site_label
 _atom_site_symmetry_multiplicity
 _atom_site_fract_x
 _atom_site_fract_y
 _atom_site_fract_z
 _atom_site_occupancy
  Ti  Ti0  1  0.16363020  0.16363020  0.16362920  1
  Ti  Ti1  1  0.83636980  0.83636980  0.83637080  1
  Be  Be0  1  0.40090154  0.40090154  0.40090154  1
  Be  Be1  1  0.59909846  0.59909846  0.59909846  1
  Be  Be2  1  0.50000000  0.50000000  -0.00000000  1
  Be  Be3  1  -0.00000000  0.50000000  0.50000000  1
  Be  Be4  1  0.50000000  0.00000000  0.50000000  1
  Be  Be5  1  0.79558268  0.50000000  0.20441732  1
  Be  Be6  1  0.20441732  0.79558268  0.50000000  1
  Be  Be7  1  0.50000000  0.20441732  0.79558268  1
  Be  Be8  1  0.20441732  0.50000000  0.79558268  1
  Be  Be9  1  0.79558268  0.20441732  0.50000000  1
  Be  Be10  1  0.50000000  0.79558268  0.20441732  1
  Be  Be11  1  0.15293866  0.66038910  0.15293766  1
  Be  Be12  1  0.15293766  0.15293766  0.66038910  1
  Be  Be13  1  0.66038910  0.15293766  0.15293766  1
  Be  Be14  1  0.33961090  0.84706234  0.84706234  1
  Be  Be15  1  0.84706134  0.33961090  0.84706234  1
  Be  Be16  1  0.84706234  0.84706234  0.33961090  1
loop_
_geom_bond_atom_site_label_1
_geom_bond_atom_site_label_2
_geom_bond_distance
_geom_bond_site_symmetry_2
Be0 Be1 2.127649 1_555
Be0 Be3 2.240486 1_555
Be0 Be4 2.240487 1_555
Be0 Be2 2.240487 1_555
Be0 Be11 2.311795 1_555
Be0 Be12 2.311798 1_555
Be0 Be13 2.311799 1_555
Be0 Be5 2.417230 1_555
Be0 Be9 2.417230 1_555
Be0 Be10 2.417230 1_555
Be0 Be6 2.417230 1_555
Be0 Be7 2.417230 1_555
Be0 Be8 2.417230 1_555
Be0 Ti0 2.547118 1_555
Be1 Be3 2.240486 1_655
Be1 Be4 2.240487 1_565
Be1 Be2 2.240487 1_556
Be1 Be15 2.311795 1_555
Be1 Be16 2.311798 1_555
Be1 Be14 2.311799 1_555
Be1 Be8 2.417230 1_555
Be1 Be6 2.417230 1_555
Be1 Be7 2.417230 1_555
Be1 Be9 2.417230 1_555
Be1 Be10 2.417230 1_555
Be1 Be5 2.417230 1_555
Be1 Ti1 2.547118 1_555
Be2 Be5 2.106321 1_555
Be2 Be8 2.106321 1_554
Be2 Be7 2.106321 1_554
Be2 Ti1 2.795082 1_554
Be2 Ti0 2.795082 1_555
Be3 Be6 2.106321 1_555
Be3 Be9 2.106321 1_455
Be3 Be8 2.106321 1_555
Be3 Be5 2.106321 1_455
Be3 Ti1 2.795088 1_455
Be3 Ti0 2.795088 1_555
Be4 Be6 2.106321 1_545
Be4 Be9 2.106321 1_555
Be4 Be7 2.106321 1_555
Be4 Ti1 2.795087 1_545
Be4 Ti0 2.795087 1_555
Be5 Be9 2.170548 1_555
Be5 Ti1 2.597688 1_554
Be5 Ti0 2.597692 1_655
Be6 Be8 2.170548 1_555
Be6 Ti1 2.597695 1_455
Be6 Ti0 2.597695 1_565
Be7 Be8 2.170548 1_555
Be7 Be9 2.170548 1_555
Be7 Ti0 2.597688 1_556
Be7 Ti1 2.597692 1_545
Be8 Ti0 2.597688 1_556
Be8 Ti1 2.597692 1_455
Be9 Ti0 2.597695 1_655
Be9 Ti1 2.597695 1_545
Be10 Be2 2.106321 1_555
Be10 Be4 2.106321 1_565
Be10 Be5 2.170548 1_555
Be10 Be6 2.170548 1_555
Be10 Be11 2.213430 1_555
Be10 Be16 2.213435 1_555
Be10 Be13 2.244553 1_565
Be10 Be14 2.244554 1_554
Be10 Ti1 2.597688 1_554
Be10 Ti0 2.597692 1_565
Be11 Be14 2.102140 1_554
Be11 Be16 2.102147 1_455
Be11 Be2 2.139199 1_555
Be11 Be3 2.139206 1_555
Be11 Be6 2.213434 1_555
Be11 Be8 2.244554 1_554
Be11 Be5 2.244558 1_455
Be11 Ti1 2.652686 1_454
Be11 Ti0 2.742657 1_555
Be11 Ti0 2.808012 1_565
Be12 Be14 2.102143 1_545
Be12 Be15 2.102147 1_455
Be12 Be4 2.139203 1_555
Be12 Be3 2.139204 1_555
Be12 Be7 2.213435 1_555
Be12 Be8 2.213435 1_555
Be12 Be9 2.244553 1_455
Be12 Be6 2.244554 1_545
Be12 Ti1 2.652687 1_445
Be12 Ti0 2.742661 1_555
Be12 Ti0 2.808008 1_556
Be13 Be15 2.102140 1_554
Be13 Be16 2.102143 1_545
Be13 Be2 2.139204 1_555
Be13 Be4 2.139204 1_555
Be13 Be5 2.213435 1_555
Be13 Be9 2.213435 1_555
Be13 Be7 2.244554 1_554
Be13 Ti1 2.652682 1_544
Be13 Ti0 2.742656 1_555
Be13 Ti0 2.808012 1_655
Be14 Be2 2.139204 1_556
Be14 Be4 2.139204 1_565
Be14 Be8 2.213435 1_555
Be14 Be6 2.213435 1_555
Be14 Be7 2.244553 1_565
Be14 Ti0 2.652682 1_566
Be14 Ti1 2.742656 1_555
Be14 Ti1 2.808012 1_455
Be15 Be2 2.139199 1_556
Be15 Be3 2.139206 1_655
Be15 Be7 2.213430 1_555
Be15 Be9 2.213434 1_555
Be15 Be5 2.244554 1_556
Be15 Be8 2.244558 1_655
Be15 Ti0 2.652686 1_656
Be15 Ti1 2.742657 1_555
Be15 Ti1 2.808012 1_545
Be16 Be4 2.139203 1_565
Be16 Be3 2.139204 1_655
Be16 Be5 2.213435 1_555
Be16 Be6 2.244553 1_655
Be16 Be9 2.244554 1_565
Be16 Ti0 2.652687 1_665
Be16 Ti1 2.742661 1_555
Be16 Ti1 2.808008 1_554
