# generated using pymatgen
data_NdU2S5
_symmetry_space_group_name_H-M   'P 1'
_cell_length_a   7.50337968
_cell_length_b   8.09139957
_cell_length_c   11.90287783
_cell_angle_alpha   90.00000000
_cell_angle_beta   90.00000000
_cell_angle_gamma   90.00000000
_symmetry_Int_Tables_number   1
_chemical_formula_structural   NdU2S5
_chemical_formula_sum   'Nd4 U8 S20'
_cell_volume   722.65755433
_cell_formula_units_Z   4
loop_
 _symmetry_equiv_pos_site_id
 _symmetry_equiv_pos_as_xyz
  1  'x, y, z'
loop_
 _atom_site_type_symbol
 _atom_site_label
 _atom_site_symmetry_multiplicity
 _atom_site_fract_x
 _atom_site_fract_y
 _atom_site_fract_z
 _atom_site_occupancy
  Nd  Nd0  1  0.02336077  0.49997495  0.82254431  1
  Nd  Nd1  1  0.97663923  -0.00002505  0.17745569  1
  Nd  Nd2  1  0.52336077  -0.00002505  0.67745569  1
  Nd  Nd3  1  0.47663923  0.49997495  0.32254431  1
  U  U0  1  0.57245119  0.25105654  0.99093867  1
  U  U1  1  0.92754881  0.25105654  0.49093867  1
  U  U2  1  0.42754881  0.75105654  0.00906133  1
  U  U3  1  0.07245119  0.75105654  0.50906133  1
  U  U4  1  0.48059440  0.00009331  0.32234687  1
  U  U5  1  0.51940560  0.50009331  0.67765313  1
  U  U6  1  0.98059440  0.50009331  0.17765313  1
  U  U7  1  0.01940560  0.00009331  0.82234687  1
  S  S0  1  0.34151186  0.03992023  0.09928353  1
  S  S1  1  0.16550795  0.45643649  0.59577451  1
  S  S2  1  0.65848814  0.53992023  0.90071647  1
  S  S3  1  0.83449205  0.95643649  0.40422549  1
  S  S4  1  0.66550795  0.95643649  0.90422549  1
  S  S5  1  0.84151186  0.53992023  0.40071647  1
  S  S6  1  0.33449205  0.45643649  0.09577451  1
  S  S7  1  0.15848814  0.03992023  0.59928353  1
  S  S8  1  0.69810266  0.25006998  0.21521607  1
  S  S9  1  0.80189734  0.25006998  0.71521607  1
  S  S10  1  0.30189734  0.75006998  0.78478393  1
  S  S11  1  0.19810266  0.75006998  0.28478393  1
  S  S12  1  0.32955372  0.25145646  0.81338731  1
  S  S13  1  0.17044628  0.25145646  0.31338731  1
  S  S14  1  0.67044628  0.75145646  0.18661269  1
  S  S15  1  0.82955372  0.75145646  0.68661269  1
  S  S16  1  0.95761938  0.25099205  -0.00037681  1
  S  S17  1  0.54238062  0.25099205  0.49962319  1
  S  S18  1  0.04238062  0.75099205  0.00037681  1
  S  S19  1  0.45761938  0.75099205  0.50037681  1
loop_
_geom_bond_atom_site_label_1
_geom_bond_atom_site_label_2
_geom_bond_distance
_geom_bond_site_symmetry_2
Nd0 S2 2.909583 1_455
Nd0 S9 2.912419 1_455
Nd0 S1 2.923604 1_555
Nd0 S18 2.937031 1_556
Nd0 S10 2.943637 1_555
Nd0 S16 2.957131 1_456
Nd0 S15 2.978781 1_455
Nd0 S12 3.055138 1_555
Nd1 S0 2.909583 1_655
Nd1 S11 2.912419 1_645
Nd1 S3 2.923604 1_545
Nd1 S16 2.937031 1_555
Nd1 S8 2.943637 1_555
Nd1 S18 2.957131 1_645
Nd1 S13 2.978781 1_655
Nd1 S14 3.055138 1_545
Nd2 S7 2.909583 1_555
Nd2 S10 2.912419 1_545
Nd2 S4 2.923604 1_545
Nd2 S17 2.937031 1_555
Nd2 S9 2.943637 1_555
Nd2 S19 2.957131 1_545
Nd2 S12 2.978781 1_555
Nd2 S15 3.055138 1_545
Nd3 S5 2.909583 1_555
Nd3 S8 2.912419 1_555
Nd3 S6 2.923604 1_555
Nd3 S19 2.937031 1_555
Nd3 S11 2.943637 1_555
Nd3 S17 2.957131 1_555
Nd3 S14 2.978781 1_555
Nd3 S13 3.055138 1_555
S0 U2 2.651990 1_545
S0 U0 2.753976 1_554
S0 U4 2.870968 1_555
S1 U3 2.689939 1_555
S1 U1 2.739844 1_455
S1 U5 2.850598 1_555
S2 U0 2.651990 1_555
S2 U2 2.753976 1_556
S2 U5 2.870968 1_555
S3 U1 2.689939 1_565
S3 U3 2.739844 1_655
S3 U4 2.850598 1_565
S4 U0 2.689939 1_565
S4 U2 2.739844 1_556
S4 U7 2.850598 1_665
S5 U1 2.651990 1_555
S5 U3 2.753976 1_655
S5 U6 2.870968 1_555
S6 U2 2.689939 1_555
S6 U0 2.739844 1_554
S6 U6 2.850598 1_455
S7 U3 2.651990 1_545
S7 U1 2.753976 1_455
S7 U7 2.870968 1_555
S8 U0 2.831154 1_554
S8 U4 2.894958 1_555
S8 U6 2.964030 1_555
S9 U1 2.831154 1_555
S9 U7 2.894958 1_655
S9 U5 2.964030 1_555
S10 U2 2.831154 1_556
S10 U5 2.894958 1_555
S10 U7 2.964030 1_565
S11 U3 2.831154 1_555
S11 U6 2.894958 1_455
S11 U4 2.964030 1_565
S12 U0 2.790707 1_555
S12 U5 2.947365 1_555
S12 U7 3.092525 1_555
S13 U1 2.790707 1_455
S13 U6 2.947365 1_455
S13 U4 3.092525 1_555
S14 U2 2.790707 1_555
S14 U4 2.947365 1_565
S14 U6 3.092525 1_555
S15 U3 2.790707 1_655
S15 U7 2.947365 1_665
S15 U5 3.092525 1_555
S16 U0 2.891911 1_554
S16 U6 2.929629 1_555
S16 U7 2.964598 1_654
S17 U1 2.891911 1_555
S17 U5 2.929629 1_555
S17 U4 2.964598 1_555
S18 U2 2.891911 1_555
S18 U7 2.929629 1_564
S18 U6 2.964598 1_455
S19 U3 2.891911 1_555
S19 U4 2.929629 1_565
S19 U5 2.964598 1_555
