# generated using pymatgen
data_Pr2Cu4Sn5
_symmetry_space_group_name_H-M   'P 1'
_cell_length_a   12.71135397
_cell_length_b   12.71135397
_cell_length_c   12.71135397
_cell_angle_alpha   159.46683038
_cell_angle_beta   159.46683038
_cell_angle_gamma   29.19806168
_symmetry_Int_Tables_number   1
_chemical_formula_structural   Pr2Cu4Sn5
_chemical_formula_sum   'Pr2 Cu4 Sn5'
_cell_volume   252.54333335
_cell_formula_units_Z   1
loop_
 _symmetry_equiv_pos_site_id
 _symmetry_equiv_pos_as_xyz
  1  'x, y, z'
loop_
 _atom_site_type_symbol
 _atom_site_label
 _atom_site_symmetry_multiplicity
 _atom_site_fract_x
 _atom_site_fract_y
 _atom_site_fract_z
 _atom_site_occupancy
  Pr  Pr0  1  0.99838100  0.99838100  0.00000000  1
  Pr  Pr1  1  0.68148700  0.68148700  0.00000000  1
  Cu  Cu0  1  0.59112200  0.09112200  0.50000000  1
  Cu  Cu1  1  0.09112200  0.59112200  0.50000000  1
  Cu  Cu2  1  0.13038700  0.13038700  0.00000000  1
  Cu  Cu3  1  0.22713800  0.22713800  0.00000000  1
  Sn  Sn0  1  0.78509000  0.28509000  0.50000000  1
  Sn  Sn1  1  0.28509000  0.78509000  0.50000000  1
  Sn  Sn2  1  0.90194900  0.40194900  0.50000000  1
  Sn  Sn3  1  0.40194900  0.90194900  0.50000000  1
  Sn  Sn4  1  0.53228400  0.53228400  0.00000000  1
loop_
_geom_bond_atom_site_label_1
_geom_bond_atom_site_label_2
_geom_bond_distance
_geom_bond_site_symmetry_2
Pr0 Sn2 3.280385 1_565
Pr0 Sn3 3.280385 1_655
Pr0 Sn3 3.280385 1_554
Pr0 Sn2 3.280385 1_554
Pr0 Sn4 3.310723 1_655
Pr0 Sn4 3.310723 1_666
Pr0 Sn4 3.310723 1_554
Pr0 Sn4 3.310723 1_565
Pr1 Sn1 3.410152 1_554
Pr1 Sn0 3.410152 1_554
Pr1 Sn1 3.410152 1_655
Pr1 Sn0 3.410152 1_565
Cu0 Cu2 2.462873 1_656
Cu0 Cu2 2.462873 1_555
Cu0 Sn4 2.688481 1_545
Cu0 Sn4 2.688481 1_556
Cu0 Pr1 3.174113 1_556
Cu0 Pr1 3.174113 1_545
Cu0 Pr0 3.215325 1_445
Cu0 Pr0 3.215325 1_546
Cu1 Cu2 2.462873 1_555
Cu1 Cu2 2.462873 1_566
Cu1 Sn4 2.688481 1_556
Cu1 Sn4 2.688481 1_455
Cu1 Pr1 3.174113 1_556
Cu1 Pr1 3.174113 1_455
Cu1 Pr0 3.215325 1_445
Cu1 Pr0 3.215325 1_456
Cu2 Cu3 2.380258 1_555
Cu2 Pr0 3.247598 1_445
Cu2 Pr1 3.441750 1_455
Cu2 Pr1 3.441750 1_545
Cu2 Pr1 3.441750 1_444
Cu2 Pr1 3.441750 1_556
Cu3 Sn1 2.676808 1_544
Cu3 Sn1 2.676808 1_555
Cu3 Sn0 2.676808 1_454
Cu3 Sn0 2.676808 1_555
Cu3 Pr1 3.395078 1_455
Cu3 Pr1 3.395078 1_545
Cu3 Pr1 3.395078 1_444
Cu3 Pr1 3.395078 1_556
Sn0 Sn2 2.874953 1_555
Sn0 Sn1 3.203935 1_555
Sn0 Sn1 3.203935 1_645
Sn0 Sn1 3.203935 1_656
Sn0 Sn1 3.203935 1_544
Sn1 Sn3 2.874953 1_555
Sn2 Sn3 3.203935 1_645
Sn2 Sn3 3.203935 1_656
Sn2 Sn3 3.203935 1_544
Sn2 Sn3 3.203935 1_555
