# generated using pymatgen
data_Li4Mn3O7
_symmetry_space_group_name_H-M   'P 1'
_cell_length_a   10.40068240
_cell_length_b   10.40068240
_cell_length_c   5.27936363
_cell_angle_alpha   84.18929623
_cell_angle_beta   84.18929623
_cell_angle_gamma   150.29098800
_symmetry_Int_Tables_number   1
_chemical_formula_structural   Li4Mn3O7
_chemical_formula_sum   'Li8 Mn6 O14'
_cell_volume   260.02480743
_cell_formula_units_Z   2
loop_
 _symmetry_equiv_pos_site_id
 _symmetry_equiv_pos_as_xyz
  1  'x, y, z'
loop_
 _atom_site_type_symbol
 _atom_site_label
 _atom_site_symmetry_multiplicity
 _atom_site_fract_x
 _atom_site_fract_y
 _atom_site_fract_z
 _atom_site_occupancy
  Li  Li0  1  0.85851900  0.14148100  0.50000000  1
  Li  Li1  1  0.28442600  0.71557400  0.50000000  1
  Li  Li2  1  0.71557400  0.28442600  0.50000000  1
  Li  Li3  1  0.14148100  0.85851900  0.50000000  1
  Li  Li4  1  0.56941500  0.43058500  0.50000000  1
  Li  Li5  1  0.00000000  0.00000000  0.50000000  1
  Li  Li6  1  0.43058500  0.56941500  0.50000000  1
  Li  Li7  1  0.50000000  0.50000000  0.00000000  1
  Mn  Mn0  1  0.92933300  0.07066700  0.00000000  1
  Mn  Mn1  1  0.07066700  0.92933300  0.00000000  1
  Mn  Mn2  1  0.35900100  0.64099900  0.00000000  1
  Mn  Mn3  1  0.78603900  0.21396100  0.00000000  1
  Mn  Mn4  1  0.21396100  0.78603900  0.00000000  1
  Mn  Mn5  1  0.64099900  0.35900100  0.00000000  1
  O  O0  1  0.63369900  0.91576500  0.23531600  1
  O  O1  1  0.06321000  0.49302800  0.23278000  1
  O  O2  1  0.49302800  0.06321000  0.23278000  1
  O  O3  1  0.91576500  0.63369900  0.23531600  1
  O  O4  1  0.31100200  0.16230300  0.20899500  1
  O  O5  1  0.78003300  0.78003300  0.23583500  1
  O  O6  1  0.16230300  0.31100200  0.20899500  1
  O  O7  1  0.08423500  0.36630100  0.76468400  1
  O  O8  1  0.50697200  0.93679000  0.76722000  1
  O  O9  1  0.93679000  0.50697200  0.76722000  1
  O  O10  1  0.36630100  0.08423500  0.76468400  1
  O  O11  1  0.83769700  0.68899800  0.79100500  1
  O  O12  1  0.21996700  0.21996700  0.76416500  1
  O  O13  1  0.68899800  0.83769700  0.79100500  1
loop_
_geom_bond_atom_site_label_1
_geom_bond_atom_site_label_2
_geom_bond_distance
_geom_bond_site_symmetry_2
Li0 O13 2.059961 1_545
Li0 O6 2.059961 1_655
Li0 O1 2.171857 1_655
Li0 O8 2.171857 1_545
Li0 O7 2.172939 1_655
Li0 O0 2.172939 1_545
Li1 O9 2.119188 1_455
Li1 O2 2.119188 1_565
Li1 O8 2.169992 1_555
Li1 O1 2.169992 1_555
Li1 O0 2.174468 1_555
Li1 O7 2.174468 1_555
Li2 O1 2.119188 1_655
Li2 O8 2.119188 1_545
Li2 O9 2.169992 1_555
Li2 O2 2.169992 1_555
Li2 O3 2.174468 1_555
Li2 O10 2.174468 1_555
Li3 O11 2.059961 1_455
Li3 O4 2.059961 1_565
Li3 O9 2.171857 1_455
Li3 O2 2.171857 1_565
Li3 O3 2.172939 1_455
Li3 O10 2.172939 1_565
Li4 O12 2.116132 1_555
Li4 O5 2.116132 1_555
Li4 O10 2.134386 1_555
Li4 O3 2.134386 1_555
Li4 O11 2.458957 1_555
Li4 O4 2.458957 1_555
Li5 O12 2.147807 1_555
Li5 O5 2.147807 1_445
Li5 O4 2.157840 1_555
Li5 O11 2.157840 1_445
Li5 O6 2.157840 1_555
Li5 O13 2.157840 1_445
Li6 O5 2.116132 1_555
Li6 O12 2.116132 1_555
Li6 O7 2.134386 1_555
Li6 O0 2.134386 1_555
Li6 O13 2.458957 1_555
Li6 O6 2.458957 1_555
Li7 O4 2.049506 1_555
Li7 O13 2.049506 1_554
Li7 O6 2.049506 1_555
Li7 O11 2.049506 1_554
Li7 O12 2.291022 1_554
Li7 O5 2.291022 1_555
Mn0 O5 1.947160 1_545
Mn0 O12 1.947160 1_654
Mn0 O7 1.951762 1_654
Mn0 O0 1.951762 1_545
Mn0 O13 1.978724 1_544
Mn0 O6 1.978724 1_655
Mn1 O5 1.947160 1_455
Mn1 O12 1.947160 1_564
Mn1 O10 1.951762 1_564
Mn1 O3 1.951762 1_455
Mn1 O11 1.978724 1_454
Mn1 O4 1.978724 1_565
Mn2 O13 1.939478 1_554
Mn2 O6 1.939478 1_555
Mn2 O1 1.992525 1_555
Mn2 O8 1.992525 1_554
Mn2 O7 2.264369 1_554
Mn2 O0 2.264369 1_555
Mn3 O2 1.951193 1_555
Mn3 O9 1.951193 1_554
Mn3 O0 1.989418 1_545
Mn3 O7 1.989418 1_654
Mn3 O1 2.269346 1_655
Mn3 O8 2.269346 1_544
Mn4 O8 1.951193 1_554
Mn4 O1 1.951193 1_555
Mn4 O3 1.989418 1_455
Mn4 O10 1.989418 1_564
Mn4 O2 2.269346 1_565
Mn4 O9 2.269346 1_454
Mn5 O4 1.939478 1_555
Mn5 O11 1.939478 1_554
Mn5 O9 1.992525 1_554
Mn5 O2 1.992525 1_555
Mn5 O10 2.264369 1_554
Mn5 O3 2.264369 1_555
