# generated using pymatgen
data_TmGa2Ni3
_symmetry_space_group_name_H-M   'P 1'
_cell_length_a   8.88329000
_cell_length_b   8.88329017
_cell_length_c   3.88581400
_cell_angle_alpha   90.00000000
_cell_angle_beta   90.00000000
_cell_angle_gamma   119.99999938
_symmetry_Int_Tables_number   1
_chemical_formula_structural   TmGa2Ni3
_chemical_formula_sum   'Tm3 Ga6 Ni9'
_cell_volume   265.55857612
_cell_formula_units_Z   3
loop_
 _symmetry_equiv_pos_site_id
 _symmetry_equiv_pos_as_xyz
  1  'x, y, z'
loop_
 _atom_site_type_symbol
 _atom_site_label
 _atom_site_symmetry_multiplicity
 _atom_site_fract_x
 _atom_site_fract_y
 _atom_site_fract_z
 _atom_site_occupancy
  Tm  Tm0  1  0.00000000  0.00000000  0.00000000  1
  Tm  Tm1  1  0.66666700  0.33333300  0.50000000  1
  Tm  Tm2  1  0.33333300  0.66666700  0.50000000  1
  Ga  Ga0  1  0.68302400  0.68302400  0.50000000  1
  Ga  Ga1  1  0.31697600  0.00000000  0.50000000  1
  Ga  Ga2  1  0.00000000  0.31697600  0.50000000  1
  Ga  Ga3  1  0.31697600  0.31697600  0.50000000  1
  Ga  Ga4  1  0.68302400  0.00000000  0.50000000  1
  Ga  Ga5  1  0.00000000  0.68302400  0.50000000  1
  Ni  Ni0  1  0.50000000  0.50000000  0.00000000  1
  Ni  Ni1  1  0.50000000  0.00000000  0.00000000  1
  Ni  Ni2  1  0.00000000  0.50000000  0.00000000  1
  Ni  Ni3  1  0.81911400  0.18088600  0.00000000  1
  Ni  Ni4  1  0.81911400  0.63822700  0.00000000  1
  Ni  Ni5  1  0.36177300  0.18088600  0.00000000  1
  Ni  Ni6  1  0.18088600  0.81911400  0.00000000  1
  Ni  Ni7  1  0.63822700  0.81911400  0.00000000  1
  Ni  Ni8  1  0.18088600  0.36177300  0.00000000  1
loop_
_geom_bond_atom_site_label_1
_geom_bond_atom_site_label_2
_geom_bond_distance
_geom_bond_site_symmetry_2
Ga0 Ni4 2.424013 1_555
Ga0 Ni4 2.424013 1_556
Ga0 Ni7 2.424013 1_555
Ga0 Ni7 2.424013 1_556
Ga0 Ni0 2.533435 1_555
Ga0 Ni0 2.533435 1_556
Ga0 Tm2 3.036363 1_555
Ga0 Tm1 3.036363 1_555
Ga1 Ni5 2.424008 1_556
Ga1 Ni5 2.424008 1_555
Ga1 Ni6 2.424009 1_545
Ga1 Ni6 2.424009 1_546
Ga1 Ni1 2.533435 1_556
Ga1 Ni1 2.533435 1_555
Ga1 Tm2 3.036354 1_545
Ga1 Tm1 3.036359 1_555
Ga2 Ni8 2.424008 1_556
Ga2 Ni8 2.424008 1_555
Ga2 Ni3 2.424009 1_455
Ga2 Ni3 2.424009 1_456
Ga2 Ni2 2.533435 1_555
Ga2 Ni2 2.533435 1_556
Ga2 Tm1 3.036354 1_455
Ga2 Tm2 3.036359 1_555
Ga3 Ni8 2.424013 1_556
Ga3 Ni8 2.424013 1_555
Ga3 Ni5 2.424013 1_555
Ga3 Ni5 2.424013 1_556
Ga3 Ni0 2.533435 1_555
Ga3 Ni0 2.533435 1_556
Ga3 Tm1 3.036363 1_555
Ga3 Tm2 3.036363 1_555
Ga4 Ni7 2.424008 1_545
Ga4 Ni7 2.424008 1_546
Ga4 Ni3 2.424009 1_556
Ga4 Ni3 2.424009 1_555
Ga4 Ni1 2.533435 1_556
Ga4 Ni1 2.533435 1_555
Ga4 Tm1 3.036354 1_555
Ga4 Tm2 3.036359 1_545
Ga5 Ni4 2.424008 1_456
Ga5 Ni4 2.424008 1_455
Ga5 Ni6 2.424009 1_556
Ga5 Ni6 2.424009 1_555
Ga5 Ni2 2.533435 1_555
Ga5 Ni2 2.533435 1_556
Ga5 Tm2 3.036354 1_555
Ga5 Tm1 3.036359 1_455
Ni0 Ni4 2.462295 1_555
Ni0 Ni8 2.462295 1_555
Ni0 Ni5 2.462295 1_555
Ni0 Ni7 2.462295 1_555
Ni0 Tm2 3.217295 1_555
Ni0 Tm1 3.217295 1_554
Ni0 Tm1 3.217295 1_555
Ni0 Tm2 3.217295 1_554
Ni1 Ni7 2.462287 1_545
Ni1 Ni5 2.462287 1_555
Ni1 Ni6 2.462294 1_545
Ni1 Ni3 2.462294 1_555
Ni1 Tm1 3.217288 1_555
Ni1 Tm2 3.217288 1_544
Ni1 Tm2 3.217288 1_545
Ni1 Tm1 3.217288 1_554
Ni2 Ni4 2.462287 1_455
Ni2 Ni8 2.462287 1_555
Ni2 Ni6 2.462294 1_555
Ni2 Ni3 2.462294 1_455
Ni2 Tm2 3.217288 1_555
Ni2 Tm1 3.217288 1_455
Ni2 Tm1 3.217288 1_454
Ni2 Tm2 3.217288 1_554
Ni3 Tm0 2.783168 1_655
Ni3 Tm1 3.045769 1_555
Ni3 Tm1 3.045769 1_554
Ni4 Tm0 2.783176 1_665
Ni4 Tm1 3.045770 1_554
Ni4 Tm1 3.045770 1_555
Ni5 Tm0 2.783176 1_555
Ni5 Tm1 3.045769 1_555
Ni5 Tm1 3.045769 1_554
Ni6 Tm0 2.783168 1_565
Ni6 Tm2 3.045769 1_554
Ni6 Tm2 3.045769 1_555
Ni7 Tm0 2.783176 1_665
Ni7 Tm2 3.045769 1_554
Ni7 Tm2 3.045769 1_555
Ni8 Tm0 2.783176 1_555
Ni8 Tm2 3.045770 1_555
Ni8 Tm2 3.045770 1_554
