# generated using pymatgen
data_Bi20(PtI12)3
_symmetry_space_group_name_H-M   'P 1'
_cell_length_a   12.09230800
_cell_length_b   12.12292056
_cell_length_c   19.50830255
_cell_angle_alpha   105.61848850
_cell_angle_beta   105.53825979
_cell_angle_gamma   86.31462046
_symmetry_Int_Tables_number   1
_chemical_formula_structural   Bi20(PtI12)3
_chemical_formula_sum   'Bi20 Pt3 I36'
_cell_volume   2653.44965440
_cell_formula_units_Z   1
loop_
 _symmetry_equiv_pos_site_id
 _symmetry_equiv_pos_as_xyz
  1  'x, y, z'
loop_
 _atom_site_type_symbol
 _atom_site_label
 _atom_site_symmetry_multiplicity
 _atom_site_fract_x
 _atom_site_fract_y
 _atom_site_fract_z
 _atom_site_occupancy
  Bi  Bi0  1  0.09636500  0.13975700  0.94050400  1
  Bi  Bi1  1  0.90363500  0.86024300  0.05949600  1
  Bi  Bi2  1  0.96976300  0.18328800  0.11312700  1
  Bi  Bi3  1  0.03023700  0.81671200  0.88687300  1
  Bi  Bi4  1  0.57725200  0.53732100  0.39787800  1
  Bi  Bi5  1  0.42274800  0.46267900  0.60212200  1
  Bi  Bi6  1  0.46468500  0.72359800  0.25307300  1
  Bi  Bi7  1  0.53531500  0.27640200  0.74692700  1
  Bi  Bi8  1  0.77968600  0.81866400  0.28466200  1
  Bi  Bi9  1  0.22031400  0.18133600  0.71533800  1
  Bi  Bi10  1  0.64872100  0.86200400  0.45085000  1
  Bi  Bi11  1  0.35127900  0.13799600  0.54915000  1
  Bi  Bi12  1  0.34056500  0.33935600  0.16899500  1
  Bi  Bi13  1  0.65943500  0.66064400  0.83100500  1
  Bi  Bi14  1  0.21350400  0.95408400  0.08322200  1
  Bi  Bi15  1  0.78649600  0.04591600  0.91677800  1
  Bi  Bi16  1  0.71165200  0.49348700  0.22600600  1
  Bi  Bi17  1  0.28834800  0.50651300  0.77399400  1
  Bi  Bi18  1  0.88847900  0.63684300  0.42508800  1
  Bi  Bi19  1  0.11152100  0.36315700  0.57491200  1
  Pt  Pt0  1  0.00000000  0.00000000  0.00000000  1
  Pt  Pt1  1  0.67491800  0.67499800  0.33771500  1
  Pt  Pt2  1  0.32508200  0.32500200  0.66228500  1
  I  I0  1  0.72537100  0.25054900  0.03565400  1
  I  I1  1  0.27462900  0.74945100  0.96434600  1
  I  I2  1  0.86485000  0.04744100  0.19505400  1
  I  I3  1  0.13515000  0.95255900  0.80494600  1
  I  I4  1  0.09151900  0.37823000  0.06864700  1
  I  I5  1  0.90848100  0.62177000  0.93135300  1
  I  I6  1  0.22055000  0.16967600  0.22803600  1
  I  I7  1  0.77945000  0.83032400  0.77196400  1
  I  I8  1  0.44975600  0.49573900  0.10473800  1
  I  I9  1  0.55024400  0.50426100  0.89526200  1
  I  I10  1  0.30365000  0.54186600  0.29334800  1
  I  I11  1  0.69635000  0.45813400  0.70665200  1
  I  I12  1  0.54144000  0.88042800  0.17579500  1
  I  I13  1  0.45856000  0.11957200  0.82420500  1
  I  I14  1  0.39180200  0.91865600  0.36744200  1
  I  I15  1  0.60819800  0.08134400  0.63255800  1
  I  I16  1  0.52500200  0.71718900  0.52659400  1
  I  I17  1  0.47499800  0.28281100  0.47340600  1
  I  I18  1  0.75217700  0.04377600  0.40004800  1
  I  I19  1  0.24782300  0.95622400  0.59995200  1
  I  I20  1  0.87958700  0.83309600  0.56174500  1
  I  I21  1  0.12041300  0.16690400  0.43825500  1
  I  I22  1  0.13034700  0.78708900  0.15516400  1
  I  I23  1  0.86965300  0.21291100  0.84483600  1
  I  I24  1  0.36299900  0.12347400  0.03533000  1
  I  I25  1  0.63700100  0.87652600  0.96467000  1
  I  I26  1  0.57466100  0.28929000  0.26276300  1
  I  I27  1  0.42533900  0.71071000  0.73723700  1
  I  I28  1  0.80945200  0.62306000  0.14058100  1
  I  I29  1  0.19054800  0.37694000  0.85941900  1
  I  I30  1  0.94374700  0.41383500  0.30223500  1
  I  I31  1  0.05625300  0.58616500  0.69776500  1
  I  I32  1  0.79561800  0.45502600  0.49007500  1
  I  I33  1  0.20438200  0.54497400  0.50992500  1
  I  I34  1  0.02875500  0.78479600  0.36891900  1
  I  I35  1  0.97124500  0.21520400  0.63108100  1
loop_
_geom_bond_atom_site_label_1
_geom_bond_atom_site_label_2
_geom_bond_distance
_geom_bond_site_symmetry_2
Bi0 Pt0 2.759136 1_556
Bi0 I23 3.102057 1_455
Bi0 I3 3.107995 1_545
Bi0 I4 3.282642 1_556
Bi0 I24 3.282672 1_556
Bi1 Pt0 2.759136 1_665
Bi1 I22 3.102057 1_655
Bi1 I2 3.107995 1_565
Bi1 I5 3.282642 1_554
Bi1 I25 3.282672 1_554
Bi2 Pt0 2.762027 1_655
Bi2 I0 3.105400 1_555
Bi2 I2 3.106159 1_555
Bi2 I6 3.277447 1_655
Bi2 I4 3.277449 1_655
Bi3 Pt0 2.762027 1_566
Bi3 I1 3.105400 1_555
Bi3 I3 3.106159 1_555
Bi3 I7 3.277447 1_455
Bi3 I5 3.277449 1_455
Bi4 Pt1 2.758416 1_555
Bi4 I16 3.030476 1_555
Bi4 I32 3.047268 1_555
Bi4 I10 3.395566 1_555
Bi4 I26 3.419089 1_555
Bi5 Pt2 2.758416 1_555
Bi5 I17 3.030476 1_555
Bi5 I33 3.047268 1_555
Bi5 I11 3.395566 1_555
Bi5 I27 3.419089 1_555
Bi6 Pt1 2.760208 1_555
Bi6 I12 3.044466 1_555
Bi6 I14 3.048134 1_555
Bi6 I8 3.393655 1_555
Bi6 I10 3.400923 1_555
Bi7 Pt2 2.760208 1_555
Bi7 I13 3.044466 1_555
Bi7 I15 3.048134 1_555
Bi7 I9 3.393655 1_555
Bi7 I11 3.400923 1_555
Bi8 Pt1 2.768805 1_555
Bi8 I34 3.081154 1_655
Bi8 I18 3.098681 1_565
Bi8 I28 3.239818 1_555
Bi8 I12 3.266788 1_555
Bi9 Pt2 2.768805 1_555
Bi9 I35 3.081154 1_455
Bi9 I19 3.098681 1_545
Bi9 I29 3.239818 1_555
Bi9 I13 3.266788 1_555
Bi10 Pt1 2.774727 1_555
Bi10 I18 3.098024 1_565
Bi10 I20 3.105370 1_555
Bi10 I14 3.223388 1_555
Bi10 I16 3.228385 1_555
Bi11 Pt2 2.774727 1_555
Bi11 I19 3.098024 1_545
Bi11 I21 3.105370 1_555
Bi11 I15 3.223388 1_555
Bi11 I17 3.228385 1_555
Bi12 I26 3.054577 1_555
Bi12 I10 3.056767 1_555
Bi12 I8 3.065469 1_555
Bi12 I6 3.196743 1_555
Bi12 I4 3.206164 1_555
Bi12 I24 3.214879 1_555
Bi13 I27 3.054577 1_555
Bi13 I11 3.056767 1_555
Bi13 I9 3.065469 1_555
Bi13 I7 3.196743 1_555
Bi13 I5 3.206164 1_555
Bi13 I25 3.214879 1_555
Bi14 Pt0 2.768993 1_565
Bi14 I22 3.102750 1_555
Bi14 I1 3.108599 1_554
Bi14 I6 3.277668 1_565
Bi14 I24 3.282205 1_565
Bi15 Pt0 2.768993 1_656
Bi15 I23 3.102750 1_555
Bi15 I0 3.108599 1_556
Bi15 I7 3.277668 1_545
Bi15 I25 3.282205 1_545
Bi16 Pt1 2.756681 1_555
Bi16 I30 3.034701 1_555
Bi16 I28 3.057370 1_555
Bi16 I26 3.391991 1_555
Bi16 I8 3.411236 1_555
Bi17 Pt2 2.756681 1_555
Bi17 I31 3.034701 1_555
Bi17 I29 3.057370 1_555
Bi17 I27 3.391991 1_555
Bi17 I9 3.411236 1_555
Bi18 Pt1 2.775059 1_555
Bi18 I20 3.079711 1_555
Bi18 I34 3.120946 1_655
Bi18 I32 3.211239 1_555
Bi18 I30 3.261370 1_555
Bi19 Pt2 2.775059 1_555
Bi19 I21 3.079711 1_555
Bi19 I35 3.120946 1_455
Bi19 I33 3.211239 1_555
Bi19 I31 3.261370 1_555
