# generated using pymatgen
data_PrTi2ZnO6
_symmetry_space_group_name_H-M   'P 1'
_cell_length_a   5.38051000
_cell_length_b   5.64058900
_cell_length_c   7.71976300
_cell_angle_alpha   90.00000000
_cell_angle_beta   90.00000000
_cell_angle_gamma   90.00000000
_symmetry_Int_Tables_number   1
_chemical_formula_structural   PrTi2ZnO6
_chemical_formula_sum   'Pr2 Ti4 Zn2 O12'
_cell_volume   234.28898265
_cell_formula_units_Z   2
loop_
 _symmetry_equiv_pos_site_id
 _symmetry_equiv_pos_as_xyz
  1  'x, y, z'
loop_
 _atom_site_type_symbol
 _atom_site_label
 _atom_site_symmetry_multiplicity
 _atom_site_fract_x
 _atom_site_fract_y
 _atom_site_fract_z
 _atom_site_occupancy
  Pr  Pr0  1  0.01462300  0.69008400  0.00000000  1
  Pr  Pr1  1  0.51462300  0.30991600  0.50000000  1
  Ti  Ti0  1  0.00415400  0.22686800  0.74837000  1
  Ti  Ti1  1  0.00415400  0.22686800  0.25163000  1
  Ti  Ti2  1  0.50415400  0.77313200  0.24837000  1
  Ti  Ti3  1  0.50415400  0.77313200  0.75163000  1
  Zn  Zn0  1  0.50627100  0.29572100  0.00000000  1
  Zn  Zn1  1  0.00627100  0.70427900  0.50000000  1
  O  O0  1  0.07835000  0.23401200  0.50000000  1
  O  O1  1  0.20318000  0.95775500  0.79705800  1
  O  O2  1  0.20318000  0.95775500  0.20294200  1
  O  O3  1  0.30623400  0.44311800  0.19484800  1
  O  O4  1  0.30623400  0.44311800  0.80515200  1
  O  O5  1  0.37337900  0.72736600  0.50000000  1
  O  O6  1  0.57835000  0.76598800  0.00000000  1
  O  O7  1  0.70318000  0.04224500  0.70294200  1
  O  O8  1  0.70318000  0.04224500  0.29705800  1
  O  O9  1  0.80623400  0.55688200  0.69484800  1
  O  O10  1  0.80623400  0.55688200  0.30515200  1
  O  O11  1  0.87337900  0.27263400  0.00000000  1
loop_
_geom_bond_atom_site_label_1
_geom_bond_atom_site_label_2
_geom_bond_distance
_geom_bond_site_symmetry_2
O0 Ti1 1.958891 1_555
O0 Ti0 1.958891 1_555
O0 Pr1 2.386097 1_555
O1 Ti0 1.895311 1_565
O1 Ti3 1.957013 1_555
O1 Pr0 2.400682 1_556
O2 Ti1 1.895311 1_565
O2 Ti2 1.957013 1_555
O2 Pr0 2.400682 1_555
O3 Zn0 2.027861 1_555
O3 Ti1 2.078881 1_555
O3 Ti2 2.183995 1_555
O3 Pr0 2.581649 1_555
O3 Pr1 2.714961 1_555
O4 Zn0 2.027861 1_556
O4 Ti0 2.078881 1_555
O4 Ti3 2.183995 1_555
O4 Pr0 2.581649 1_556
O4 Pr1 2.714961 1_555
O5 Zn1 1.979516 1_555
O5 Ti3 2.082101 1_555
O5 Ti2 2.082101 1_555
O5 Pr1 2.474265 1_555
O6 Ti3 1.958891 1_554
O6 Ti2 1.958891 1_555
O6 Pr0 2.386097 1_655
O7 Ti3 1.895311 1_545
O7 Ti0 1.957013 1_655
O7 Pr1 2.400682 1_555
O8 Ti2 1.895311 1_545
O8 Ti1 1.957013 1_655
O8 Pr1 2.400682 1_555
O9 Zn1 2.027861 1_655
O9 Ti3 2.078881 1_555
O9 Ti0 2.183995 1_655
O9 Pr1 2.581649 1_555
O9 Pr0 2.714961 1_656
O10 Zn1 2.027861 1_655
O10 Ti2 2.078881 1_555
O10 Ti1 2.183995 1_655
O10 Pr1 2.581649 1_555
O10 Pr0 2.714961 1_655
O11 Zn0 1.979516 1_555
O11 Ti1 2.082101 1_655
O11 Ti0 2.082101 1_654
O11 Pr0 2.474265 1_655
