# generated using pymatgen
data_Sr2ErCu3(PbO4)2
_symmetry_space_group_name_H-M   'P 1'
_cell_length_a   3.82512200
_cell_length_b   3.82512200
_cell_length_c   15.98158600
_cell_angle_alpha   90.00000000
_cell_angle_beta   90.00000000
_cell_angle_gamma   90.00000000
_symmetry_Int_Tables_number   1
_chemical_formula_structural   Sr2ErCu3(PbO4)2
_chemical_formula_sum   'Sr2 Er1 Cu3 Pb2 O8'
_cell_volume   233.83550752
_cell_formula_units_Z   1
loop_
 _symmetry_equiv_pos_site_id
 _symmetry_equiv_pos_as_xyz
  1  'x, y, z'
loop_
 _atom_site_type_symbol
 _atom_site_label
 _atom_site_symmetry_multiplicity
 _atom_site_fract_x
 _atom_site_fract_y
 _atom_site_fract_z
 _atom_site_occupancy
  Sr  Sr0  1  0.00000000  0.00000000  0.77959100  1
  Sr  Sr1  1  0.00000000  0.00000000  0.22040900  1
  Er  Er0  1  0.00000000  0.00000000  0.00000000  1
  Cu  Cu0  1  0.00000000  0.00000000  0.50000000  1
  Cu  Cu1  1  0.50000000  0.50000000  0.89731300  1
  Cu  Cu2  1  0.50000000  0.50000000  0.10268700  1
  Pb  Pb0  1  0.50000000  0.50000000  0.38728600  1
  Pb  Pb1  1  0.50000000  0.50000000  0.61271400  1
  O  O0  1  0.00000000  0.50000000  0.91028500  1
  O  O1  1  0.50000000  0.00000000  0.08971500  1
  O  O2  1  0.00000000  0.50000000  0.08971500  1
  O  O3  1  0.50000000  0.00000000  0.91028500  1
  O  O4  1  0.00000000  0.00000000  0.38339100  1
  O  O5  1  0.50000000  0.50000000  0.74957000  1
  O  O6  1  0.50000000  0.50000000  0.25043000  1
  O  O7  1  0.00000000  0.00000000  0.61660900  1
loop_
_geom_bond_atom_site_label_1
_geom_bond_atom_site_label_2
_geom_bond_distance
_geom_bond_site_symmetry_2
Er0 O0 2.390322 1_544
Er0 O2 2.390322 1_555
Er0 O0 2.390322 1_554
Er0 O2 2.390322 1_545
Er0 O3 2.390322 1_554
Er0 O1 2.390322 1_455
Er0 O3 2.390322 1_454
Er0 O1 2.390322 1_555
Cu0 O7 1.863597 1_555
Cu0 O4 1.863597 1_555
Cu1 O3 1.923764 1_555
Cu1 O0 1.923764 1_555
Cu1 O3 1.923764 1_565
Cu1 O0 1.923764 1_655
Cu1 O5 2.361167 1_555
Cu2 O2 1.923764 1_655
Cu2 O1 1.923764 1_555
Cu2 O1 1.923764 1_565
Cu2 O2 1.923764 1_555
Cu2 O6 2.361167 1_555
O0 Sr0 2.832057 1_555
O0 Sr0 2.832057 1_565
O1 Sr1 2.832057 1_655
O1 Sr1 2.832057 1_555
O2 Sr1 2.832057 1_555
O2 Sr1 2.832057 1_565
O3 Sr0 2.832057 1_555
O3 Sr0 2.832057 1_655
O4 Sr1 2.604711 1_555
O4 Pb0 2.705486 1_445
O4 Pb0 2.705486 1_455
O4 Pb0 2.705486 1_555
O4 Pb0 2.705486 1_545
O5 Pb1 2.187176 1_555
O5 Sr0 2.746993 1_565
O5 Sr0 2.746993 1_665
O5 Sr0 2.746993 1_655
O5 Sr0 2.746993 1_555
O6 Pb0 2.187176 1_555
O6 Sr1 2.746993 1_665
O6 Sr1 2.746993 1_655
O6 Sr1 2.746993 1_565
O6 Sr1 2.746993 1_555
O7 Sr0 2.604711 1_555
O7 Pb1 2.705486 1_445
O7 Pb1 2.705486 1_555
O7 Pb1 2.705486 1_455
O7 Pb1 2.705486 1_545
