# generated using pymatgen
data_Co(SiO3)2
_symmetry_space_group_name_H-M   'P 1'
_cell_length_a   5.10495300
_cell_length_b   10.79096400
_cell_length_c   18.47232400
_cell_angle_alpha   90.00000000
_cell_angle_beta   90.00000000
_cell_angle_gamma   90.00000000
_symmetry_Int_Tables_number   1
_chemical_formula_structural   Co(SiO3)2
_chemical_formula_sum   'Co8 Si16 O48'
_cell_volume   1017.59163694
_cell_formula_units_Z   8
loop_
 _symmetry_equiv_pos_site_id
 _symmetry_equiv_pos_as_xyz
  1  'x, y, z'
loop_
 _atom_site_type_symbol
 _atom_site_label
 _atom_site_symmetry_multiplicity
 _atom_site_fract_x
 _atom_site_fract_y
 _atom_site_fract_z
 _atom_site_occupancy
  Co  Co0  1  0.43936400  0.54235600  0.37386500  1
  Co  Co1  1  0.56063600  0.45764400  0.62613500  1
  Co  Co2  1  0.93936400  0.45764400  0.12613500  1
  Co  Co3  1  0.06063600  0.54235600  0.87386500  1
  Co  Co4  1  0.43936400  0.04235600  0.12613500  1
  Co  Co5  1  0.56063600  0.95764400  0.87386500  1
  Co  Co6  1  0.93936400  0.95764400  0.37386500  1
  Co  Co7  1  0.06063600  0.04235600  0.62613500  1
  Si  Si0  1  0.62510500  0.16857200  0.27644400  1
  Si  Si1  1  0.76690800  0.32946900  0.97426200  1
  Si  Si2  1  0.73309200  0.32946900  0.47426200  1
  Si  Si3  1  0.87489500  0.66857200  0.72355600  1
  Si  Si4  1  0.12510500  0.83142800  0.22355600  1
  Si  Si5  1  0.37489500  0.33142800  0.77644400  1
  Si  Si6  1  0.26690800  0.17053100  0.97426200  1
  Si  Si7  1  0.76690800  0.82946900  0.52573800  1
  Si  Si8  1  0.73309200  0.82946900  0.02573800  1
  Si  Si9  1  0.87489500  0.16857200  0.77644400  1
  Si  Si10  1  0.37489500  0.83142800  0.72355600  1
  Si  Si11  1  0.62510500  0.66857200  0.22355600  1
  Si  Si12  1  0.23309200  0.67053100  0.02573800  1
  Si  Si13  1  0.12510500  0.33142800  0.27644400  1
  Si  Si14  1  0.23309200  0.17053100  0.47426200  1
  Si  Si15  1  0.26690800  0.67053100  0.52573800  1
  O  O0  1  0.79649500  0.04613600  0.82440300  1
  O  O1  1  0.33691000  0.54908100  0.57513200  1
  O  O2  1  0.20350500  0.95386400  0.17559700  1
  O  O3  1  0.77757100  0.86180200  0.43924100  1
  O  O4  1  0.27757100  0.63819800  0.43924100  1
  O  O5  1  0.97073900  0.71711500  0.54500300  1
  O  O6  1  0.87591800  0.13260800  0.69009400  1
  O  O7  1  0.12408200  0.36739200  0.19009400  1
  O  O8  1  0.77757100  0.36180200  0.06075900  1
  O  O9  1  0.87591800  0.63260800  0.80990600  1
  O  O10  1  0.29649500  0.95386400  0.67559700  1
  O  O11  1  0.72242900  0.86180200  0.93924100  1
  O  O12  1  0.66309000  0.45091900  0.42486800  1
  O  O13  1  0.37591800  0.36739200  0.69009400  1
  O  O14  1  0.70350500  0.54613600  0.17559700  1
  O  O15  1  0.33691000  0.04908100  0.92486800  1
  O  O16  1  0.29649500  0.45386400  0.82440300  1
  O  O17  1  0.16762100  0.22035300  0.79535100  1
  O  O18  1  0.33237900  0.22035300  0.29535100  1
  O  O19  1  0.52926100  0.21711500  0.45499700  1
  O  O20  1  0.72242900  0.36180200  0.56075900  1
  O  O21  1  0.62408200  0.13260800  0.19009400  1
  O  O22  1  0.83691000  0.95091900  0.57513200  1
  O  O23  1  0.16762100  0.72035300  0.70464900  1
  O  O24  1  0.22242900  0.63819800  0.93924100  1
  O  O25  1  0.62408200  0.63260800  0.30990600  1
  O  O26  1  0.66309000  0.95091900  0.07513200  1
  O  O27  1  0.27757100  0.13819800  0.06075900  1
  O  O28  1  0.16309000  0.04908100  0.42486800  1
  O  O29  1  0.66762100  0.27964700  0.79535100  1
  O  O30  1  0.20350500  0.45386400  0.32440300  1
  O  O31  1  0.83237900  0.27964700  0.29535100  1
  O  O32  1  0.83237900  0.77964700  0.20464900  1
  O  O33  1  0.83691000  0.45091900  0.92486800  1
  O  O34  1  0.22242900  0.13819800  0.56075900  1
  O  O35  1  0.16309000  0.54908100  0.07513200  1
  O  O36  1  0.33237900  0.72035300  0.20464900  1
  O  O37  1  0.02926100  0.28288500  0.45499700  1
  O  O38  1  0.47073900  0.28288500  0.95499700  1
  O  O39  1  0.66762100  0.77964700  0.70464900  1
  O  O40  1  0.47073900  0.78288500  0.54500300  1
  O  O41  1  0.52926100  0.71711500  0.04500300  1
  O  O42  1  0.02926100  0.78288500  0.04500300  1
  O  O43  1  0.37591800  0.86739200  0.80990600  1
  O  O44  1  0.70350500  0.04613600  0.32440300  1
  O  O45  1  0.97073900  0.21711500  0.95499700  1
  O  O46  1  0.12408200  0.86739200  0.30990600  1
  O  O47  1  0.79649500  0.54613600  0.67559700  1
loop_
_geom_bond_atom_site_label_1
_geom_bond_atom_site_label_2
_geom_bond_distance
_geom_bond_site_symmetry_2
Co0 O12 1.779218 1_555
Co0 O30 1.787849 1_555
Co0 O4 1.791710 1_555
Co0 O25 1.798214 1_555
Co1 O1 1.779218 1_555
Co1 O47 1.787849 1_555
Co1 O20 1.791710 1_555
Co1 O13 1.798214 1_555
Co2 O35 1.779218 1_655
Co2 O14 1.787849 1_555
Co2 O8 1.791710 1_555
Co2 O7 1.798214 1_655
Co3 O33 1.779218 1_455
Co3 O16 1.787849 1_555
Co3 O24 1.791710 1_555
Co3 O9 1.798214 1_455
Co4 O26 1.779218 1_545
Co4 O2 1.787849 1_545
Co4 O27 1.791710 1_555
Co4 O21 1.798214 1_555
Co5 O15 1.779218 1_565
Co5 O0 1.787849 1_565
Co5 O11 1.791710 1_555
Co5 O43 1.798214 1_555
Co6 O28 1.779218 1_665
Co6 O44 1.787849 1_565
Co6 O3 1.791710 1_555
Co6 O46 1.798214 1_655
Co7 O22 1.779218 1_445
Co7 O10 1.787849 1_545
Co7 O34 1.791710 1_555
Co7 O6 1.798214 1_455
O0 Si9 1.640306 1_555
O1 Si15 1.636396 1_555
O2 Si4 1.640306 1_555
O3 Si7 1.636357 1_555
O4 Si15 1.636357 1_555
O5 Si15 1.632564 1_655
O5 Si7 1.636861 1_555
O6 Si9 1.641626 1_555
O7 Si13 1.641626 1_555
O8 Si1 1.636357 1_554
O9 Si3 1.641626 1_555
O10 Si10 1.640306 1_555
O11 Si8 1.636357 1_556
O12 Si2 1.636396 1_555
O13 Si5 1.641626 1_555
O14 Si11 1.640306 1_555
O15 Si6 1.636396 1_555
O16 Si5 1.640306 1_555
O17 Si9 1.633184 1_455
O17 Si5 1.636540 1_555
O18 Si0 1.633184 1_555
O18 Si13 1.636540 1_555
O19 Si14 1.632564 1_555
O19 Si2 1.636861 1_555
O20 Si2 1.636357 1_555
O21 Si0 1.641626 1_555
O22 Si7 1.636396 1_555
O23 Si3 1.633184 1_455
O23 Si10 1.636540 1_555
O24 Si12 1.636357 1_556
O25 Si11 1.641626 1_555
O26 Si8 1.636396 1_555
O27 Si6 1.636357 1_554
O28 Si14 1.636396 1_555
O29 Si5 1.633184 1_555
O29 Si9 1.636540 1_555
O30 Si13 1.640306 1_555
O31 Si13 1.633184 1_655
O31 Si0 1.636540 1_555
O32 Si4 1.633184 1_655
O32 Si11 1.636540 1_555
O33 Si1 1.636396 1_555
O34 Si14 1.636357 1_555
O35 Si12 1.636396 1_555
O36 Si11 1.633184 1_555
O36 Si4 1.636540 1_555
O37 Si2 1.632564 1_455
O37 Si14 1.636861 1_555
O38 Si1 1.632564 1_555
O38 Si6 1.636861 1_555
O39 Si10 1.633184 1_555
O39 Si3 1.636540 1_555
O40 Si7 1.632564 1_555
O40 Si15 1.636861 1_555
O41 Si12 1.632564 1_555
O41 Si8 1.636861 1_555
O42 Si8 1.632564 1_455
O42 Si12 1.636861 1_555
O43 Si10 1.641626 1_555
O44 Si0 1.640306 1_555
O45 Si6 1.632564 1_655
O45 Si1 1.636861 1_555
O46 Si4 1.641626 1_555
O47 Si3 1.640306 1_555
