# generated using pymatgen
data_Mg2Ti
_symmetry_space_group_name_H-M   'P 1'
_cell_length_a   6.04812484
_cell_length_b   6.04812484
_cell_length_c   30.73912800
_cell_angle_alpha   90.00000000
_cell_angle_beta   90.00000000
_cell_angle_gamma   120.00000920
_symmetry_Int_Tables_number   1
_chemical_formula_structural   Mg2Ti
_chemical_formula_sum   'Mg32 Ti16'
_cell_volume   973.78622934
_cell_formula_units_Z   16
loop_
 _symmetry_equiv_pos_site_id
 _symmetry_equiv_pos_as_xyz
  1  'x, y, z'
loop_
 _atom_site_type_symbol
 _atom_site_label
 _atom_site_symmetry_multiplicity
 _atom_site_fract_x
 _atom_site_fract_y
 _atom_site_fract_z
 _atom_site_occupancy
  Mg  Mg0_0  1  0.16666650  0.33333350  0.45679950  1
  Mg  Mg0_1  1  0.16666650  0.33333350  0.95679950  1
  Mg  Mg0_2  1  0.16666650  0.83333350  0.45679950  1
  Mg  Mg0_3  1  0.16666650  0.83333350  0.95679950  1
  Mg  Mg0_4  1  0.66666650  0.33333350  0.45679950  1
  Mg  Mg0_5  1  0.66666650  0.33333350  0.95679950  1
  Mg  Mg0_6  1  0.66666650  0.83333350  0.45679950  1
  Mg  Mg0_7  1  0.66666650  0.83333350  0.95679950  1
  Mg  Mg1_0  1  0.16666650  0.33333350  0.29320050  1
  Mg  Mg1_1  1  0.16666650  0.33333350  0.79320050  1
  Mg  Mg1_2  1  0.16666650  0.83333350  0.29320050  1
  Mg  Mg1_3  1  0.16666650  0.83333350  0.79320050  1
  Mg  Mg1_4  1  0.66666650  0.33333350  0.29320050  1
  Mg  Mg1_5  1  0.66666650  0.33333350  0.79320050  1
  Mg  Mg1_6  1  0.66666650  0.83333350  0.29320050  1
  Mg  Mg1_7  1  0.66666650  0.83333350  0.79320050  1
  Mg  Mg2_0  1  0.33333350  0.16666650  0.20679950  1
  Mg  Mg2_1  1  0.33333350  0.16666650  0.70679950  1
  Mg  Mg2_2  1  0.33333350  0.66666650  0.20679950  1
  Mg  Mg2_3  1  0.33333350  0.66666650  0.70679950  1
  Mg  Mg2_4  1  0.83333350  0.16666650  0.20679950  1
  Mg  Mg2_5  1  0.83333350  0.16666650  0.70679950  1
  Mg  Mg2_6  1  0.83333350  0.66666650  0.20679950  1
  Mg  Mg2_7  1  0.83333350  0.66666650  0.70679950  1
  Mg  Mg3_0  1  0.33333350  0.16666650  0.04320050  1
  Mg  Mg3_1  1  0.33333350  0.16666650  0.54320050  1
  Mg  Mg3_2  1  0.33333350  0.66666650  0.04320050  1
  Mg  Mg3_3  1  0.33333350  0.66666650  0.54320050  1
  Mg  Mg3_4  1  0.83333350  0.16666650  0.04320050  1
  Mg  Mg3_5  1  0.83333350  0.16666650  0.54320050  1
  Mg  Mg3_6  1  0.83333350  0.66666650  0.04320050  1
  Mg  Mg3_7  1  0.83333350  0.66666650  0.54320050  1
  Ti  Ti0_0  1  0.33333350  0.16666650  0.37500000  1
  Ti  Ti0_1  1  0.33333350  0.16666650  0.87500000  1
  Ti  Ti0_2  1  0.33333350  0.66666650  0.37500000  1
  Ti  Ti0_3  1  0.33333350  0.66666650  0.87500000  1
  Ti  Ti0_4  1  0.83333350  0.16666650  0.37500000  1
  Ti  Ti0_5  1  0.83333350  0.16666650  0.87500000  1
  Ti  Ti0_6  1  0.83333350  0.66666650  0.37500000  1
  Ti  Ti0_7  1  0.83333350  0.66666650  0.87500000  1
  Ti  Ti1_0  1  0.16666650  0.33333350  0.12500000  1
  Ti  Ti1_1  1  0.16666650  0.33333350  0.62500000  1
  Ti  Ti1_2  1  0.16666650  0.83333350  0.12500000  1
  Ti  Ti1_3  1  0.16666650  0.83333350  0.62500000  1
  Ti  Ti1_4  1  0.66666650  0.33333350  0.12500000  1
  Ti  Ti1_5  1  0.66666650  0.33333350  0.62500000  1
  Ti  Ti1_6  1  0.66666650  0.83333350  0.12500000  1
  Ti  Ti1_7  1  0.66666650  0.83333350  0.62500000  1
loop_
_geom_bond_atom_site_label_1
_geom_bond_atom_site_label_2
_geom_bond_distance
_geom_bond_site_symmetry_2
Mg0_0 Mg0_6 3.024062 1_555
Mg0_0 Mg0_6 3.024062 1_445
Mg0_0 Mg0_2 3.024062 1_555
Mg0_0 Mg0_4 3.024062 1_555
Mg0_0 Mg0_2 3.024062 1_545
Mg0_0 Mg0_4 3.024062 1_455
Mg0_0 Ti0_2 3.061167 1_555
Mg0_0 Ti0_4 3.061167 1_455
Mg0_0 Ti0_0 3.061171 1_555
Mg0_0 Mg3_5 3.178375 1_455
Mg0_0 Mg3_3 3.178375 1_555
Mg0_0 Mg3_1 3.178378 1_555
Mg0_1 Mg0_7 3.024062 1_555
Mg0_1 Mg0_7 3.024062 1_445
Mg0_1 Mg0_5 3.024062 1_455
Mg0_1 Mg0_5 3.024062 1_555
Mg0_1 Mg0_3 3.024062 1_545
Mg0_1 Mg0_3 3.024062 1_555
Mg0_1 Ti0_5 3.061167 1_455
Mg0_1 Ti0_3 3.061167 1_555
Mg0_1 Ti0_1 3.061171 1_555
Mg0_1 Mg3_4 3.178375 1_456
Mg0_1 Mg3_2 3.178375 1_556
Mg0_1 Mg3_0 3.178378 1_556
Mg0_2 Mg0_4 3.024062 1_565
Mg0_2 Mg0_4 3.024062 1_455
Mg0_2 Mg0_6 3.024062 1_455
Mg0_2 Mg0_6 3.024062 1_555
Mg0_2 Ti0_0 3.061167 1_565
Mg0_2 Ti0_6 3.061167 1_455
Mg0_2 Ti0_2 3.061171 1_555
Mg0_2 Mg3_1 3.178375 1_565
Mg0_2 Mg3_7 3.178375 1_455
Mg0_2 Mg3_3 3.178378 1_555
Mg0_3 Mg0_5 3.024062 1_565
Mg0_3 Mg0_5 3.024062 1_455
Mg0_3 Mg0_7 3.024062 1_455
Mg0_3 Mg0_7 3.024062 1_555
Mg0_3 Ti0_1 3.061167 1_565
Mg0_3 Ti0_7 3.061167 1_455
Mg0_3 Ti0_3 3.061171 1_555
Mg0_3 Mg3_0 3.178375 1_566
Mg0_3 Mg3_6 3.178375 1_456
Mg0_3 Mg3_2 3.178378 1_556
Mg0_4 Mg0_6 3.024062 1_555
Mg0_4 Mg0_6 3.024062 1_545
Mg0_4 Ti0_6 3.061167 1_555
Mg0_4 Ti0_0 3.061167 1_555
Mg0_4 Ti0_4 3.061171 1_555
Mg0_4 Mg3_7 3.178375 1_555
Mg0_4 Mg3_1 3.178375 1_555
Mg0_4 Mg3_5 3.178378 1_555
Mg0_5 Mg0_7 3.024062 1_555
Mg0_5 Mg0_7 3.024062 1_545
Mg0_5 Ti0_7 3.061167 1_555
Mg0_5 Ti0_1 3.061167 1_555
Mg0_5 Ti0_5 3.061171 1_555
Mg0_5 Mg3_6 3.178375 1_556
Mg0_5 Mg3_0 3.178375 1_556
Mg0_5 Mg3_4 3.178378 1_556
Mg0_6 Ti0_2 3.061167 1_555
Mg0_6 Ti0_4 3.061167 1_565
Mg0_6 Ti0_6 3.061171 1_555
Mg0_6 Mg3_3 3.178375 1_555
Mg0_6 Mg3_5 3.178375 1_565
Mg0_6 Mg3_7 3.178378 1_555
Mg0_7 Ti0_3 3.061167 1_555
Mg0_7 Ti0_5 3.061167 1_565
Mg0_7 Ti0_7 3.061171 1_555
Mg0_7 Mg3_2 3.178375 1_556
Mg0_7 Mg3_4 3.178375 1_566
Mg0_7 Mg3_6 3.178378 1_556
Mg1_0 Mg1_6 3.024062 1_555
Mg1_0 Mg1_6 3.024062 1_445
Mg1_0 Mg1_4 3.024062 1_555
Mg1_0 Mg1_2 3.024062 1_555
Mg1_0 Mg1_4 3.024062 1_455
Mg1_0 Mg1_2 3.024062 1_545
Mg1_0 Ti0_4 3.061167 1_455
Mg1_0 Ti0_2 3.061167 1_555
Mg1_0 Ti0_0 3.061171 1_555
Mg1_0 Mg2_4 3.178375 1_455
Mg1_0 Mg2_2 3.178375 1_555
Mg1_0 Mg2_0 3.178378 1_555
Mg1_1 Mg1_7 3.024062 1_555
Mg1_1 Mg1_7 3.024062 1_445
Mg1_1 Mg1_3 3.024062 1_545
Mg1_1 Mg1_3 3.024062 1_555
Mg1_1 Mg1_5 3.024062 1_455
Mg1_1 Mg1_5 3.024062 1_555
Mg1_1 Ti0_5 3.061167 1_455
Mg1_1 Ti0_3 3.061167 1_555
Mg1_1 Ti0_1 3.061171 1_555
Mg1_1 Mg2_5 3.178375 1_455
Mg1_1 Mg2_3 3.178375 1_555
Mg1_1 Mg2_1 3.178378 1_555
Mg1_2 Mg1_4 3.024062 1_565
Mg1_2 Mg1_4 3.024062 1_455
Mg1_2 Mg1_6 3.024062 1_455
Mg1_2 Mg1_6 3.024062 1_555
Mg1_2 Ti0_0 3.061167 1_565
Mg1_2 Ti0_6 3.061167 1_455
Mg1_2 Ti0_2 3.061171 1_555
Mg1_2 Mg2_0 3.178375 1_565
Mg1_2 Mg2_6 3.178375 1_455
Mg1_2 Mg2_2 3.178378 1_555
Mg1_3 Mg1_5 3.024062 1_565
Mg1_3 Mg1_5 3.024062 1_455
Mg1_3 Mg1_7 3.024062 1_455
Mg1_3 Mg1_7 3.024062 1_555
Mg1_3 Ti0_1 3.061167 1_565
Mg1_3 Ti0_7 3.061167 1_455
Mg1_3 Ti0_3 3.061171 1_555
Mg1_3 Mg2_1 3.178375 1_565
Mg1_3 Mg2_7 3.178375 1_455
Mg1_3 Mg2_3 3.178378 1_555
Mg1_4 Mg1_6 3.024062 1_555
Mg1_4 Mg1_6 3.024062 1_545
Mg1_4 Ti0_6 3.061167 1_555
Mg1_4 Ti0_0 3.061167 1_555
Mg1_4 Ti0_4 3.061171 1_555
Mg1_4 Mg2_6 3.178375 1_555
Mg1_4 Mg2_0 3.178375 1_555
Mg1_4 Mg2_4 3.178378 1_555
Mg1_5 Mg1_7 3.024062 1_555
Mg1_5 Mg1_7 3.024062 1_545
Mg1_5 Ti0_7 3.061167 1_555
Mg1_5 Ti0_1 3.061167 1_555
Mg1_5 Ti0_5 3.061171 1_555
Mg1_5 Mg2_7 3.178375 1_555
Mg1_5 Mg2_1 3.178375 1_555
Mg1_5 Mg2_5 3.178378 1_555
Mg1_6 Ti0_2 3.061167 1_555
Mg1_6 Ti0_4 3.061167 1_565
Mg1_6 Ti0_6 3.061171 1_555
Mg1_6 Mg2_2 3.178375 1_555
Mg1_6 Mg2_4 3.178375 1_565
Mg1_6 Mg2_6 3.178378 1_555
Mg1_7 Ti0_3 3.061167 1_555
Mg1_7 Ti0_5 3.061167 1_565
Mg1_7 Ti0_7 3.061171 1_555
Mg1_7 Mg2_3 3.178375 1_555
Mg1_7 Mg2_5 3.178375 1_565
Mg1_7 Mg2_7 3.178378 1_555
Mg2_0 Mg2_6 3.024062 1_555
Mg2_0 Mg2_6 3.024062 1_445
Mg2_0 Mg2_4 3.024062 1_555
Mg2_0 Mg2_2 3.024062 1_545
Mg2_0 Mg2_2 3.024062 1_555
Mg2_0 Mg2_4 3.024062 1_455
Mg2_0 Ti1_2 3.061167 1_545
Mg2_0 Ti1_4 3.061167 1_555
Mg2_0 Ti1_0 3.061171 1_555
Mg2_1 Mg2_7 3.024062 1_555
Mg2_1 Mg2_7 3.024062 1_445
Mg2_1 Mg2_5 3.024062 1_455
Mg2_1 Mg2_3 3.024062 1_555
Mg2_1 Mg2_5 3.024062 1_555
Mg2_1 Mg2_3 3.024062 1_545
Mg2_1 Ti1_3 3.061167 1_545
Mg2_1 Ti1_5 3.061167 1_555
Mg2_1 Ti1_1 3.061171 1_555
Mg2_2 Mg2_4 3.024062 1_565
Mg2_2 Mg2_4 3.024062 1_455
Mg2_2 Mg2_6 3.024062 1_555
Mg2_2 Mg2_6 3.024062 1_455
Mg2_2 Ti1_0 3.061167 1_555
Mg2_2 Ti1_6 3.061167 1_555
Mg2_2 Ti1_2 3.061171 1_555
Mg2_3 Mg2_5 3.024062 1_455
Mg2_3 Mg2_5 3.024062 1_565
Mg2_3 Mg2_7 3.024062 1_555
Mg2_3 Mg2_7 3.024062 1_455
Mg2_3 Ti1_7 3.061167 1_555
Mg2_3 Ti1_1 3.061167 1_555
Mg2_3 Ti1_3 3.061171 1_555
Mg2_4 Mg2_6 3.024062 1_545
Mg2_4 Mg2_6 3.024062 1_555
Mg2_4 Ti1_0 3.061167 1_655
Mg2_4 Ti1_6 3.061167 1_545
Mg2_4 Ti1_4 3.061171 1_555
Mg2_5 Mg2_7 3.024062 1_545
Mg2_5 Mg2_7 3.024062 1_555
Mg2_5 Ti1_1 3.061167 1_655
Mg2_5 Ti1_7 3.061167 1_545
Mg2_5 Ti1_5 3.061171 1_555
Mg2_6 Ti1_4 3.061167 1_555
Mg2_6 Ti1_2 3.061167 1_655
Mg2_6 Ti1_6 3.061171 1_555
Mg2_7 Ti1_5 3.061167 1_555
Mg2_7 Ti1_3 3.061167 1_655
Mg2_7 Ti1_7 3.061171 1_555
Mg3_0 Mg3_6 3.024062 1_555
Mg3_0 Mg3_6 3.024062 1_445
Mg3_0 Mg3_2 3.024062 1_545
Mg3_0 Mg3_4 3.024062 1_555
Mg3_0 Mg3_2 3.024062 1_555
Mg3_0 Mg3_4 3.024062 1_455
Mg3_0 Ti1_2 3.061167 1_545
Mg3_0 Ti1_4 3.061167 1_555
Mg3_0 Ti1_0 3.061171 1_555
Mg3_1 Mg3_7 3.024062 1_555
Mg3_1 Mg3_7 3.024062 1_445
Mg3_1 Mg3_5 3.024062 1_555
Mg3_1 Mg3_3 3.024062 1_545
Mg3_1 Mg3_3 3.024062 1_555
Mg3_1 Mg3_5 3.024062 1_455
Mg3_1 Ti1_3 3.061167 1_545
Mg3_1 Ti1_5 3.061167 1_555
Mg3_1 Ti1_1 3.061171 1_555
Mg3_2 Mg3_4 3.024062 1_455
Mg3_2 Mg3_4 3.024062 1_565
Mg3_2 Mg3_6 3.024062 1_555
Mg3_2 Mg3_6 3.024062 1_455
Mg3_2 Ti1_6 3.061167 1_555
Mg3_2 Ti1_0 3.061167 1_555
Mg3_2 Ti1_2 3.061171 1_555
Mg3_3 Mg3_5 3.024062 1_565
Mg3_3 Mg3_5 3.024062 1_455
Mg3_3 Mg3_7 3.024062 1_555
Mg3_3 Mg3_7 3.024062 1_455
Mg3_3 Ti1_7 3.061167 1_555
Mg3_3 Ti1_1 3.061167 1_555
Mg3_3 Ti1_3 3.061171 1_555
Mg3_4 Mg3_6 3.024062 1_545
Mg3_4 Mg3_6 3.024062 1_555
Mg3_4 Ti1_0 3.061167 1_655
Mg3_4 Ti1_6 3.061167 1_545
Mg3_4 Ti1_4 3.061171 1_555
Mg3_5 Mg3_7 3.024062 1_545
Mg3_5 Mg3_7 3.024062 1_555
Mg3_5 Ti1_1 3.061167 1_655
Mg3_5 Ti1_7 3.061167 1_545
Mg3_5 Ti1_5 3.061171 1_555
Mg3_6 Ti1_4 3.061167 1_555
Mg3_6 Ti1_2 3.061167 1_655
Mg3_6 Ti1_6 3.061171 1_555
Mg3_7 Ti1_5 3.061167 1_555
Mg3_7 Ti1_3 3.061167 1_655
Mg3_7 Ti1_7 3.061171 1_555
Ti0_0 Ti0_6 3.024062 1_555
Ti0_0 Ti0_6 3.024062 1_445
Ti0_0 Ti0_4 3.024062 1_555
Ti0_0 Ti0_2 3.024062 1_545
Ti0_0 Ti0_2 3.024062 1_555
Ti0_0 Ti0_4 3.024062 1_455
Ti0_1 Ti0_7 3.024062 1_555
Ti0_1 Ti0_7 3.024062 1_445
Ti0_1 Ti0_5 3.024062 1_455
Ti0_1 Ti0_3 3.024062 1_545
Ti0_1 Ti0_5 3.024062 1_555
Ti0_1 Ti0_3 3.024062 1_555
Ti0_2 Ti0_4 3.024062 1_565
Ti0_2 Ti0_4 3.024062 1_455
Ti0_2 Ti0_6 3.024062 1_555
Ti0_2 Ti0_6 3.024062 1_455
Ti0_3 Ti0_5 3.024062 1_455
Ti0_3 Ti0_5 3.024062 1_565
Ti0_3 Ti0_7 3.024062 1_555
Ti0_3 Ti0_7 3.024062 1_455
Ti0_4 Ti0_6 3.024062 1_545
Ti0_4 Ti0_6 3.024062 1_555
Ti0_5 Ti0_7 3.024062 1_545
Ti0_5 Ti0_7 3.024062 1_555
Ti1_0 Ti1_6 3.024062 1_555
Ti1_0 Ti1_6 3.024062 1_445
Ti1_0 Ti1_2 3.024062 1_545
Ti1_0 Ti1_4 3.024062 1_455
Ti1_0 Ti1_2 3.024062 1_555
Ti1_0 Ti1_4 3.024062 1_555
Ti1_1 Ti1_7 3.024062 1_555
Ti1_1 Ti1_7 3.024062 1_445
Ti1_1 Ti1_5 3.024062 1_455
Ti1_1 Ti1_3 3.024062 1_545
Ti1_1 Ti1_3 3.024062 1_555
Ti1_1 Ti1_5 3.024062 1_555
Ti1_2 Ti1_4 3.024062 1_565
Ti1_2 Ti1_4 3.024062 1_455
Ti1_2 Ti1_6 3.024062 1_455
Ti1_2 Ti1_6 3.024062 1_555
Ti1_3 Ti1_5 3.024062 1_565
Ti1_3 Ti1_5 3.024062 1_455
Ti1_3 Ti1_7 3.024062 1_455
Ti1_3 Ti1_7 3.024062 1_555
Ti1_4 Ti1_6 3.024062 1_555
Ti1_4 Ti1_6 3.024062 1_545
Ti1_5 Ti1_7 3.024062 1_555
Ti1_5 Ti1_7 3.024062 1_545
