# generated using pymatgen
data_Ba3AsP
_symmetry_space_group_name_H-M   'P 1'
_cell_length_a   6.07090400
_cell_length_b   6.07090400
_cell_length_c   6.07090400
_cell_angle_alpha   90.00000000
_cell_angle_beta   90.00000000
_cell_angle_gamma   90.00000000
_symmetry_Int_Tables_number   1
_chemical_formula_structural   Ba3AsP
_chemical_formula_sum   'Ba3 As1 P1'
_cell_volume   223.74848125
_cell_formula_units_Z   1
loop_
 _symmetry_equiv_pos_site_id
 _symmetry_equiv_pos_as_xyz
  1  'x, y, z'
loop_
 _atom_site_type_symbol
 _atom_site_label
 _atom_site_symmetry_multiplicity
 _atom_site_fract_x
 _atom_site_fract_y
 _atom_site_fract_z
 _atom_site_occupancy
  Ba  Ba0  1  0.00000000  0.50000000  0.50000000  1
  Ba  Ba1  1  0.50000000  0.00000000  0.50000000  1
  Ba  Ba2  1  0.50000000  0.50000000  0.00000000  1
  As  As0  1  0.00000000  0.00000000  0.00000000  1
  P  P0  1  0.50000000  0.50000000  0.50000000  1
loop_
_geom_bond_atom_site_label_1
_geom_bond_atom_site_label_2
_geom_bond_distance
_geom_bond_site_symmetry_2
Ba0 P0 3.035452 1_555
Ba0 P0 3.035452 1_455
Ba1 P0 3.035452 1_545
Ba1 P0 3.035452 1_555
Ba2 P0 3.035452 1_555
Ba2 P0 3.035452 1_554
