# generated using pymatgen
data_InAsO6
_symmetry_space_group_name_H-M   'P 1'
_cell_length_a   8.97851100
_cell_length_b   10.53760700
_cell_length_c   10.55114600
_cell_angle_alpha   90.00000000
_cell_angle_beta   90.00000000
_cell_angle_gamma   90.00000000
_symmetry_Int_Tables_number   1
_chemical_formula_structural   InAsO6
_chemical_formula_sum   'In8 As8 O48'
_cell_volume   998.26524021
_cell_formula_units_Z   8
loop_
 _symmetry_equiv_pos_site_id
 _symmetry_equiv_pos_as_xyz
  1  'x, y, z'
loop_
 _atom_site_type_symbol
 _atom_site_label
 _atom_site_symmetry_multiplicity
 _atom_site_fract_x
 _atom_site_fract_y
 _atom_site_fract_z
 _atom_site_occupancy
  In  In0  1  0.35813200  0.18226500  0.12400800  1
  In  In1  1  0.64186800  0.81773500  0.87599200  1
  In  In2  1  0.14186800  0.81773500  0.62400800  1
  In  In3  1  0.64186800  0.68226500  0.37599200  1
  In  In4  1  0.85813200  0.18226500  0.37599200  1
  In  In5  1  0.35813200  0.31773500  0.62400800  1
  In  In6  1  0.85813200  0.31773500  0.87599200  1
  In  In7  1  0.14186800  0.68226500  0.12400800  1
  As  As0  1  0.04204000  0.37051800  0.16403300  1
  As  As1  1  0.95796000  0.62948200  0.83596700  1
  As  As2  1  0.45796000  0.62948200  0.66403300  1
  As  As3  1  0.95796000  0.87051800  0.33596700  1
  As  As4  1  0.54204000  0.37051800  0.33596700  1
  As  As5  1  0.04204000  0.12948200  0.66403300  1
  As  As6  1  0.54204000  0.12948200  0.83596700  1
  As  As7  1  0.45796000  0.87051800  0.16403300  1
  O  O0  1  0.50337600  0.02738900  0.17273300  1
  O  O1  1  0.49662400  0.97261100  0.82726700  1
  O  O2  1  0.99662400  0.97261100  0.67273300  1
  O  O3  1  0.49662400  0.52738900  0.32726700  1
  O  O4  1  0.00337600  0.02738900  0.32726700  1
  O  O5  1  0.50337600  0.47261100  0.67273300  1
  O  O6  1  0.00337600  0.47261100  0.82726700  1
  O  O7  1  0.99662400  0.52738900  0.17273300  1
  O  O8  1  0.22199900  0.35577100  0.10343200  1
  O  O9  1  0.77800100  0.64422900  0.89656800  1
  O  O10  1  0.27800100  0.64422900  0.60343200  1
  O  O11  1  0.77800100  0.85577100  0.39656800  1
  O  O12  1  0.72199900  0.35577100  0.39656800  1
  O  O13  1  0.22199900  0.14422900  0.60343200  1
  O  O14  1  0.72199900  0.14422900  0.89656800  1
  O  O15  1  0.27800100  0.85577100  0.10343200  1
  O  O16  1  0.41569300  0.28848800  0.42794900  1
  O  O17  1  0.58430700  0.71151200  0.57205100  1
  O  O18  1  0.08430700  0.71151200  0.92794900  1
  O  O19  1  0.58430700  0.78848800  0.07205100  1
  O  O20  1  0.91569300  0.28848800  0.07205100  1
  O  O21  1  0.41569300  0.21151200  0.92794900  1
  O  O22  1  0.91569300  0.21151200  0.57205100  1
  O  O23  1  0.08430700  0.78848800  0.42794900  1
  O  O24  1  0.18434300  0.03719900  0.06367500  1
  O  O25  1  0.81565700  0.96280100  0.93632500  1
  O  O26  1  0.31565700  0.96280100  0.56367500  1
  O  O27  1  0.81565700  0.53719900  0.43632500  1
  O  O28  1  0.68434300  0.03719900  0.43632500  1
  O  O29  1  0.18434300  0.46280100  0.56367500  1
  O  O30  1  0.68434300  0.46280100  0.93632500  1
  O  O31  1  0.31565700  0.53719900  0.06367500  1
  O  O32  1  0.24238900  0.16881800  0.31322100  1
  O  O33  1  0.75761100  0.83118200  0.68677900  1
  O  O34  1  0.25761100  0.83118200  0.81322100  1
  O  O35  1  0.75761100  0.66881800  0.18677900  1
  O  O36  1  0.74238900  0.16881800  0.18677900  1
  O  O37  1  0.24238900  0.33118200  0.81322100  1
  O  O38  1  0.74238900  0.33118200  0.68677900  1
  O  O39  1  0.25761100  0.66881800  0.31322100  1
  O  O40  1  0.04295900  0.29996800  0.31228300  1
  O  O41  1  0.95704100  0.70003200  0.68771700  1
  O  O42  1  0.45704100  0.70003200  0.81228300  1
  O  O43  1  0.95704100  0.79996800  0.18771700  1
  O  O44  1  0.54295900  0.29996800  0.18771700  1
  O  O45  1  0.04295900  0.20003200  0.81228300  1
  O  O46  1  0.54295900  0.20003200  0.68771700  1
  O  O47  1  0.45704100  0.79996800  0.31228300  1
loop_
_geom_bond_atom_site_label_1
_geom_bond_atom_site_label_2
_geom_bond_distance
_geom_bond_site_symmetry_2
In0 O0 2.151374 1_555
In0 O21 2.154386 1_554
In0 O44 2.178088 1_555
In0 O8 2.209955 1_555
In0 O32 2.255146 1_555
In0 O24 2.275247 1_555
In1 O1 2.151374 1_555
In1 O19 2.154386 1_556
In1 O42 2.178088 1_555
In1 O9 2.209955 1_555
In1 O33 2.255146 1_555
In1 O25 2.275247 1_555
In2 O2 2.151374 1_455
In2 O23 2.154386 1_555
In2 O41 2.178088 1_455
In2 O10 2.209955 1_555
In2 O34 2.255146 1_555
In2 O26 2.275247 1_555
In3 O3 2.151374 1_555
In3 O17 2.154386 1_555
In3 O47 2.178088 1_555
In3 O11 2.209955 1_555
In3 O35 2.255146 1_555
In3 O27 2.275247 1_555
In4 O4 2.151374 1_655
In4 O22 2.154386 1_555
In4 O40 2.178088 1_655
In4 O12 2.209955 1_555
In4 O36 2.255146 1_555
In4 O28 2.275247 1_555
In5 O5 2.151374 1_555
In5 O16 2.154386 1_555
In5 O46 2.178088 1_555
In5 O13 2.209955 1_555
In5 O37 2.255146 1_555
In5 O29 2.275247 1_555
In6 O6 2.151374 1_655
In6 O20 2.154386 1_556
In6 O45 2.178088 1_655
In6 O14 2.209955 1_555
In6 O38 2.255146 1_555
In6 O30 2.275247 1_555
In7 O7 2.151374 1_455
In7 O18 2.154386 1_554
In7 O43 2.178088 1_455
In7 O15 2.209955 1_555
In7 O39 2.255146 1_555
In7 O31 2.275247 1_555
As0 O7 1.705069 1_455
As0 O20 1.725100 1_455
As0 O40 1.731906 1_555
As0 O8 1.744616 1_555
As1 O6 1.705069 1_655
As1 O18 1.725100 1_655
As1 O41 1.731906 1_555
As1 O9 1.744616 1_555
As2 O5 1.705069 1_555
As2 O17 1.725100 1_555
As2 O42 1.731906 1_555
As2 O10 1.744616 1_555
As3 O4 1.705069 1_665
As3 O23 1.725100 1_655
As3 O43 1.731906 1_555
As3 O11 1.744616 1_555
As4 O3 1.705069 1_555
As4 O16 1.725100 1_555
As4 O44 1.731906 1_555
As4 O12 1.744616 1_555
As5 O2 1.705069 1_445
As5 O22 1.725100 1_455
As5 O45 1.731906 1_555
As5 O13 1.744616 1_555
As6 O1 1.705069 1_545
As6 O21 1.725100 1_555
As6 O46 1.731906 1_555
As6 O14 1.744616 1_555
As7 O0 1.705069 1_565
As7 O19 1.725100 1_555
As7 O47 1.731906 1_555
As7 O15 1.744616 1_555
