# generated using pymatgen
data_Cr2O3
_symmetry_space_group_name_H-M   'P 1'
_cell_length_a   9.93737922
_cell_length_b   9.06728658
_cell_length_c   10.48481459
_cell_angle_alpha   90.98175448
_cell_angle_beta   92.64275441
_cell_angle_gamma   92.01838324
_symmetry_Int_Tables_number   1
_chemical_formula_structural   Cr2O3
_chemical_formula_sum   'Cr32 O48'
_cell_volume   942.97810875
_cell_formula_units_Z   16
loop_
 _symmetry_equiv_pos_site_id
 _symmetry_equiv_pos_as_xyz
  1  'x, y, z'
loop_
 _atom_site_type_symbol
 _atom_site_label
 _atom_site_symmetry_multiplicity
 _atom_site_fract_x
 _atom_site_fract_y
 _atom_site_fract_z
 _atom_site_occupancy
  Cr  Cr0  1  0.54848300  0.46895600  0.51824700  1
  Cr  Cr1  1  0.52382700  0.11695200  0.64539200  1
  Cr  Cr2  1  0.72314900  0.09420400  0.91630700  1
  Cr  Cr3  1  0.27097100  0.97347600  0.44317300  1
  Cr  Cr4  1  0.50575000  0.32867400  0.09484600  1
  Cr  Cr5  1  0.86892300  0.87165000  0.16622600  1
  Cr  Cr6  1  0.40975100  0.95896900  0.87160700  1
  Cr  Cr7  1  0.94368000  0.72922400  0.40400200  1
  Cr  Cr8  1  0.35744900  0.73854500  0.64362800  1
  Cr  Cr9  1  0.67752400  0.66058300  0.05654100  1
  Cr  Cr10  1  0.89183900  0.59761700  0.62447500  1
  Cr  Cr11  1  0.18813400  0.41240900  0.06572500  1
  Cr  Cr12  1  0.62600900  0.82468100  0.37594100  1
  Cr  Cr13  1  0.82664300  0.34618000  0.06484700  1
  Cr  Cr14  1  0.93986000  0.89074400  0.89828100  1
  Cr  Cr15  1  0.88996700  0.19677900  0.73879700  1
  Cr  Cr16  1  0.66661600  0.75310900  0.72092300  1
  Cr  Cr17  1  0.06725100  0.50805500  0.84747300  1
  Cr  Cr18  1  0.84192400  0.99539000  0.52126900  1
  Cr  Cr19  1  0.40100200  0.61761800  0.92190800  1
  Cr  Cr20  1  0.30348700  0.91227700  0.13903000  1
  Cr  Cr21  1  0.09042500  0.86578500  0.67906400  1
  Cr  Cr22  1  0.14362400  0.11375600  0.96471100  1
  Cr  Cr23  1  0.76685700  0.42152100  0.32371600  1
  Cr  Cr24  1  0.61667900  0.42268000  0.79718800  1
  Cr  Cr25  1  0.32898900  0.33573000  0.76393300  1
  Cr  Cr26  1  0.07723100  0.69071200  0.08834200  1
  Cr  Cr27  1  0.04543600  0.34629000  0.53794100  1
  Cr  Cr28  1  0.30807600  0.29618200  0.32677100  1
  Cr  Cr29  1  0.36149000  0.62533300  0.32313400  1
  Cr  Cr30  1  0.03197500  0.14744800  0.26796600  1
  Cr  Cr31  1  0.55420500  0.12165500  0.36384400  1
  O  O0  1  0.20516000  0.33445200  0.62386900  1
  O  O1  1  0.38414500  0.12989500  0.76359800  1
  O  O2  1  0.98509900  0.70850600  0.78614200  1
  O  O3  1  0.86000500  0.02160600  0.03402200  1
  O  O4  1  0.95965000  0.41528300  0.70410400  1
  O  O5  1  0.90797100  0.96665400  0.34598100  1
  O  O6  1  0.05803700  0.03653600  0.80286100  1
  O  O7  1  0.00318600  0.48287000  0.03320400  1
  O  O8  1  0.64913500  0.00770000  0.49810000  1
  O  O9  1  0.81291200  0.97551600  0.76236800  1
  O  O10  1  0.10715100  0.90508300  0.04485000  1
  O  O11  1  0.12657100  0.99062800  0.53608000  1
  O  O12  1  0.45754700  0.21963000  0.23883300  1
  O  O13  1  0.13391700  0.22355500  0.12812300  1
  O  O14  1  0.32791900  0.78501800  0.46437700  1
  O  O15  1  0.20892800  0.59765400  0.96677200  1
  O  O16  1  0.40494700  0.80123800  0.00840300  1
  O  O17  1  0.96746000  0.70081200  0.23411300  1
  O  O18  1  0.55338100  0.63112300  0.39523600  1
  O  O19  1  0.68159700  0.21227100  0.76222400  1
  O  O20  1  0.87266700  0.28431400  0.23708800  1
  O  O21  1  0.65999800  0.22280800  0.04134200  1
  O  O22  1  0.34992900  0.56669700  0.74594800  1
  O  O23  1  0.88005100  0.25781900  0.91380800  1
  O  O24  1  0.79567800  0.77717300  0.52956800  1
  O  O25  1  0.36561000  0.46015300  0.44044800  1
  O  O26  1  0.05701100  0.70038300  0.55574900  1
  O  O27  1  0.25786100  0.84120300  0.76428700  1
  O  O28  1  0.17542100  0.32183300  0.89137600  1
  O  O29  1  0.49726500  0.34166700  0.65744800  1
  O  O30  1  0.48588700  0.93143400  0.28618900  1
  O  O31  1  0.59743000  0.95752400  0.92231600  1
  O  O32  1  0.86752600  0.74313400  0.01133300  1
  O  O33  1  0.33004800  0.07391100  0.01035300  1
  O  O34  1  0.70964900  0.77091900  0.22011400  1
  O  O35  1  0.23594400  0.72209000  0.21179200  1
  O  O36  1  0.46019100  0.40021100  0.92022600  1
  O  O37  1  0.34067700  0.44814400  0.18992100  1
  O  O38  1  0.20725200  0.02730500  0.28410800  1
  O  O39  1  0.11988000  0.29675900  0.37486800  1
  O  O40  1  0.66756600  0.46122100  0.15187700  1
  O  O41  1  0.89772000  0.50732900  0.44977000  1
  O  O42  1  0.60407200  0.62752500  0.87244100  1
  O  O43  1  0.64421200  0.31790800  0.42862900  1
  O  O44  1  0.50170100  0.88420100  0.69396500  1
  O  O45  1  0.70172000  0.53711900  0.65710600  1
  O  O46  1  0.90583600  0.18824500  0.55455100  1
  O  O47  1  0.40163300  0.12591000  0.47840900  1
loop_
_geom_bond_atom_site_label_1
_geom_bond_atom_site_label_2
_geom_bond_distance
_geom_bond_site_symmetry_2
Cr0 O43 1.947758 1_555
Cr0 O29 1.950931 1_555
Cr0 O25 1.955787 1_555
Cr0 O18 1.973239 1_555
Cr0 O45 2.125778 1_555
Cr1 O1 1.908320 1_555
Cr1 O29 2.066257 1_555
Cr1 O47 2.088568 1_555
Cr1 O19 2.096842 1_555
Cr1 O44 2.185418 1_545
Cr1 O8 2.264661 1_555
Cr2 O31 1.732496 1_545
Cr2 O21 1.883417 1_556
Cr2 O3 1.934503 1_556
Cr2 O19 1.988820 1_555
Cr2 O23 2.115382 1_555
Cr2 O9 2.167895 1_545
Cr3 O11 1.780903 1_555
Cr3 O14 1.832819 1_555
Cr3 O38 1.836544 1_565
Cr3 O47 1.882725 1_565
Cr4 O12 1.889615 1_555
Cr4 O21 1.936535 1_555
Cr4 O36 1.990653 1_554
Cr4 O40 2.034281 1_555
Cr4 O37 2.257658 1_555
Cr5 O34 1.912308 1_555
Cr5 O3 1.959524 1_565
Cr5 O32 1.981788 1_555
Cr5 O17 1.986287 1_555
Cr5 O5 2.073185 1_555
Cr6 O31 1.916176 1_555
Cr6 O1 1.952060 1_565
Cr6 O33 1.985498 1_566
Cr6 O16 2.043695 1_556
Cr6 O27 2.091245 1_555
Cr6 O44 2.218312 1_555
Cr7 O17 1.822761 1_555
Cr7 O26 1.933369 1_655
Cr7 O24 2.071084 1_555
Cr7 O41 2.115543 1_555
Cr7 O5 2.282439 1_555
Cr8 O27 1.893746 1_555
Cr8 O22 1.908126 1_555
Cr8 O14 1.944444 1_555
Cr8 O44 1.962315 1_555
Cr9 O34 1.977969 1_555
Cr9 O42 2.045323 1_554
Cr9 O40 2.082084 1_555
Cr9 O32 2.084487 1_555
Cr10 O4 1.989561 1_555
Cr10 O45 1.995093 1_555
Cr10 O41 1.997697 1_555
Cr10 O26 2.026318 1_655
Cr10 O2 2.115212 1_555
Cr10 O24 2.152073 1_555
Cr11 O13 1.912197 1_555
Cr11 O37 1.966580 1_555
Cr11 O7 1.983609 1_555
Cr11 O28 1.987977 1_554
Cr11 O15 1.998860 1_554
Cr12 O18 1.891670 1_555
Cr12 O34 1.929844 1_555
Cr12 O30 1.940803 1_555
Cr12 O8 2.078545 1_565
Cr12 O24 2.333964 1_555
Cr13 O23 1.869602 1_554
Cr13 O20 1.939536 1_555
Cr13 O21 1.968990 1_555
Cr13 O40 2.153192 1_555
Cr13 O7 2.153749 1_655
Cr14 O32 1.943768 1_556
Cr14 O9 2.037900 1_555
Cr14 O6 2.042523 1_665
Cr14 O3 2.043480 1_566
Cr14 O2 2.085531 1_555
Cr14 O10 2.210096 1_656
Cr15 O23 1.915416 1_555
Cr15 O46 1.945888 1_555
Cr15 O19 2.105676 1_555
Cr15 O4 2.118588 1_555
Cr15 O9 2.144458 1_545
Cr15 O6 2.335105 1_655
Cr16 O44 2.069911 1_555
Cr16 O42 2.076031 1_555
Cr16 O45 2.104671 1_555
Cr16 O24 2.439348 1_555
Cr16 O9 2.464619 1_555
Cr17 O4 1.963577 1_455
Cr17 O15 1.982166 1_555
Cr17 O28 2.080226 1_555
Cr17 O7 2.090209 1_556
Cr17 O2 2.116509 1_455
Cr18 O46 1.861026 1_565
Cr18 O8 1.927408 1_565
Cr18 O5 1.995814 1_555
Cr18 O24 2.019729 1_555
Cr18 O9 2.566110 1_555
Cr19 O16 1.880523 1_556
Cr19 O22 1.934531 1_555
Cr19 O15 1.989621 1_555
Cr19 O36 2.076945 1_555
Cr19 O42 2.105866 1_555
Cr20 O35 2.004276 1_555
Cr20 O16 2.014361 1_555
Cr20 O33 2.027601 1_565
Cr20 O38 2.113343 1_565
Cr20 O10 2.144097 1_555
Cr20 O30 2.325295 1_555
Cr21 O27 1.874149 1_555
Cr21 O11 1.933150 1_555
Cr21 O26 1.972324 1_555
Cr21 O6 2.046997 1_565
Cr21 O2 2.108975 1_455
Cr22 O33 1.939808 1_556
Cr22 O6 1.969150 1_555
Cr22 O13 1.974737 1_556
Cr22 O28 2.069008 1_555
Cr22 O10 2.109897 1_546
Cr23 O20 1.902586 1_555
Cr23 O43 1.912175 1_555
Cr23 O41 1.943772 1_555
Cr23 O40 2.057322 1_555
Cr24 O29 1.958520 1_555
Cr24 O45 2.013202 1_555
Cr24 O42 2.015792 1_555
Cr24 O19 2.067595 1_555
Cr24 O36 2.072594 1_555
Cr25 O0 1.871562 1_555
Cr25 O1 1.963609 1_555
Cr25 O29 2.052713 1_555
Cr25 O28 2.076172 1_555
Cr25 O36 2.107969 1_555
Cr25 O22 2.109780 1_555
Cr26 O17 1.921002 1_455
Cr26 O35 2.002833 1_555
Cr26 O10 2.019091 1_555
Cr26 O15 2.060144 1_554
Cr26 O7 2.062273 1_555
Cr26 O32 2.268996 1_455
Cr27 O0 1.796102 1_555
Cr27 O39 1.945787 1_555
Cr27 O46 1.974642 1_455
Cr27 O4 2.071348 1_455
Cr27 O41 2.283337 1_455
Cr28 O12 1.927475 1_555
Cr28 O25 1.942811 1_555
Cr28 O39 1.959453 1_555
Cr28 O37 2.035061 1_555
Cr28 O47 2.413440 1_555
Cr28 O38 2.626205 1_555
Cr28 O13 2.703191 1_555
Cr29 O35 1.914918 1_555
Cr29 O25 1.954643 1_555
Cr29 O18 2.017214 1_555
Cr29 O14 2.099268 1_555
Cr29 O37 2.109000 1_555
Cr30 O39 1.904385 1_555
Cr30 O13 1.942855 1_555
Cr30 O20 2.063011 1_455
Cr30 O38 2.088543 1_555
Cr30 O5 2.207154 1_445
Cr31 O12 1.847620 1_555
Cr31 O47 1.978279 1_555
Cr31 O30 1.979177 1_545
Cr31 O8 1.983702 1_555
Cr31 O43 2.053874 1_555
