# generated using pymatgen
data_NpPO4F
_symmetry_space_group_name_H-M   'P 1'
_cell_length_a   6.41705800
_cell_length_b   6.99804900
_cell_length_c   8.67139300
_cell_angle_alpha   90.00000000
_cell_angle_beta   90.00000000
_cell_angle_gamma   90.00000000
_symmetry_Int_Tables_number   1
_chemical_formula_structural   NpPO4F
_chemical_formula_sum   'Np4 P4 O16 F4'
_cell_volume   389.40525969
_cell_formula_units_Z   4
loop_
 _symmetry_equiv_pos_site_id
 _symmetry_equiv_pos_as_xyz
  1  'x, y, z'
loop_
 _atom_site_type_symbol
 _atom_site_label
 _atom_site_symmetry_multiplicity
 _atom_site_fract_x
 _atom_site_fract_y
 _atom_site_fract_z
 _atom_site_occupancy
  Np  Np0  1  0.65126900  0.25000000  0.94329900  1
  Np  Np1  1  0.15126900  0.75000000  0.55670100  1
  Np  Np2  1  0.34873100  0.75000000  0.05670100  1
  Np  Np3  1  0.84873100  0.25000000  0.44329900  1
  P  P0  1  0.17891200  0.25000000  0.09954400  1
  P  P1  1  0.67891200  0.75000000  0.40045600  1
  P  P2  1  0.82108800  0.75000000  0.90045600  1
  P  P3  1  0.32108800  0.25000000  0.59954400  1
  O  O0  1  0.10459800  0.25000000  0.26720600  1
  O  O1  1  0.60459800  0.75000000  0.23279400  1
  O  O2  1  0.89540200  0.75000000  0.73279400  1
  O  O3  1  0.39540200  0.25000000  0.76720600  1
  O  O4  1  0.67421800  0.57562500  0.93296700  1
  O  O5  1  0.17421800  0.42437500  0.56703300  1
  O  O6  1  0.32578200  0.07562500  0.06703300  1
  O  O7  1  0.82578200  0.92437500  0.43296700  1
  O  O8  1  0.32578200  0.42437500  0.06703300  1
  O  O9  1  0.82578200  0.57562500  0.43296700  1
  O  O10  1  0.67421800  0.92437500  0.93296700  1
  O  O11  1  0.17421800  0.07562500  0.56703300  1
  O  O12  1  0.50613300  0.25000000  0.48742200  1
  O  O13  1  0.00613300  0.75000000  0.01257800  1
  O  O14  1  0.49386700  0.75000000  0.51257800  1
  O  O15  1  0.99386700  0.25000000  0.98742200  1
  F  F0  1  0.69221600  0.25000000  0.20590000  1
  F  F1  1  0.19221600  0.75000000  0.29410000  1
  F  F2  1  0.30778400  0.75000000  0.79410000  1
  F  F3  1  0.80778400  0.25000000  0.70590000  1
loop_
_geom_bond_atom_site_label_1
_geom_bond_atom_site_label_2
_geom_bond_distance
_geom_bond_site_symmetry_2
Np0 O15 2.231516 1_555
Np0 O3 2.242214 1_555
Np0 O4 2.285250 1_555
Np0 O10 2.285250 1_545
Np0 O8 2.646289 1_556
Np0 O6 2.646289 1_556
Np1 O14 2.231516 1_555
Np1 O2 2.242214 1_455
Np1 O5 2.285250 1_555
Np1 O11 2.285250 1_565
Np1 O7 2.646289 1_455
Np1 O9 2.646289 1_455
Np2 O13 2.231516 1_555
Np2 O1 2.242214 1_555
Np2 O8 2.285250 1_555
Np2 O6 2.285250 1_565
Np2 O10 2.646289 1_554
Np2 O4 2.646289 1_554
Np3 O12 2.231516 1_555
Np3 O0 2.242214 1_655
Np3 O9 2.285250 1_555
Np3 O7 2.285250 1_545
Np3 O11 2.646289 1_655
Np3 O5 2.646289 1_655
O0 P0 1.530075 1_555
O1 P1 1.530075 1_555
O2 P2 1.530075 1_555
O3 P3 1.530075 1_555
O4 P2 1.567427 1_555
O5 P3 1.567427 1_555
O6 P0 1.567427 1_555
O7 P1 1.567427 1_555
O8 P0 1.567427 1_555
O9 P1 1.567427 1_555
O10 P2 1.567427 1_555
O11 P3 1.567427 1_555
O12 P3 1.534699 1_555
O13 P2 1.534699 1_454
O14 P1 1.534699 1_555
O15 P0 1.534699 1_656
F0 Np3 2.290524 1_555
F0 Np0 2.292226 1_554
F1 Np2 2.290524 1_555
F1 Np1 2.292226 1_555
F2 Np1 2.290524 1_555
F2 Np2 2.292226 1_556
F3 Np0 2.290524 1_555
F3 Np3 2.292226 1_555
