# generated using pymatgen
data_Ca3(CoO3)2
_symmetry_space_group_name_H-M   'P 1'
_cell_length_a   6.34989867
_cell_length_b   6.40136072
_cell_length_c   6.37185999
_cell_angle_alpha   92.09264976
_cell_angle_beta   92.23790183
_cell_angle_gamma   91.89351465
_symmetry_Int_Tables_number   1
_chemical_formula_structural   Ca3(CoO3)2
_chemical_formula_sum   'Ca6 Co4 O12'
_cell_volume   258.47905233
_cell_formula_units_Z   2
loop_
 _symmetry_equiv_pos_site_id
 _symmetry_equiv_pos_as_xyz
  1  'x, y, z'
loop_
 _atom_site_type_symbol
 _atom_site_label
 _atom_site_symmetry_multiplicity
 _atom_site_fract_x
 _atom_site_fract_y
 _atom_site_fract_z
 _atom_site_occupancy
  Ca  Ca0  1  0.61748800  0.88172400  0.25157900  1
  Ca  Ca1  1  0.24728100  0.61478000  0.88478700  1
  Ca  Ca2  1  0.88446700  0.25601300  0.61573500  1
  Ca  Ca3  1  0.38350000  0.11692000  0.74861100  1
  Ca  Ca4  1  0.11494400  0.74455100  0.38365000  1
  Ca  Ca5  1  0.75258700  0.38636300  0.11432400  1
  Co  Co0  1  0.74382000  0.75315300  0.75167400  1
  Co  Co1  1  0.00094600  0.00282100  0.00049800  1
  Co  Co2  1  0.49840700  0.49828600  0.49874200  1
  Co  Co3  1  0.25658300  0.24528100  0.24863200  1
  O  O0  1  0.78386600  0.57976200  0.45532600  1
  O  O1  1  0.58317500  0.45541300  0.78415300  1
  O  O2  1  0.45590000  0.78505800  0.58102800  1
  O  O3  1  0.04287100  0.91495400  0.71492900  1
  O  O4  1  0.91299100  0.70717000  0.04910000  1
  O  O5  1  0.71245600  0.04527200  0.91703400  1
  O  O6  1  0.21463700  0.41944600  0.54506100  1
  O  O7  1  0.41560200  0.54327600  0.21434000  1
  O  O8  1  0.54390600  0.21310600  0.41842300  1
  O  O9  1  0.95825800  0.08648100  0.28704000  1
  O  O10  1  0.28953200  0.95511700  0.08496200  1
  O  O11  1  0.08678400  0.29505300  0.95037300  1
loop_
_geom_bond_atom_site_label_1
_geom_bond_atom_site_label_2
_geom_bond_distance
_geom_bond_site_symmetry_2
Ca0 O10 2.369181 1_555
Ca0 O8 2.405826 1_565
Ca0 O2 2.462417 1_555
Ca0 O7 2.479660 1_555
Ca0 O9 2.490798 1_565
Ca0 O5 2.495076 1_564
Ca0 O4 2.579990 1_555
Ca0 O0 2.597898 1_555
Ca1 O11 2.315190 1_555
Ca1 O7 2.385072 1_556
Ca1 O6 2.458149 1_555
Ca1 O4 2.482568 1_456
Ca1 O10 2.485345 1_556
Ca1 O1 2.490777 1_555
Ca1 O3 2.599114 1_555
Ca1 O2 2.635920 1_555
Ca2 O6 2.378237 1_655
Ca2 O9 2.393334 1_555
Ca2 O0 2.436995 1_555
Ca2 O11 2.446504 1_655
Ca2 O8 2.460859 1_555
Ca2 O3 2.524681 1_645
Ca2 O1 2.581243 1_555
Ca2 O5 2.637081 1_555
Ca3 O5 2.376862 1_555
Ca3 O2 2.408680 1_545
Ca3 O8 2.462427 1_555
Ca3 O1 2.472685 1_555
Ca3 O3 2.480851 1_545
Ca3 O10 2.498641 1_546
Ca3 O11 2.593649 1_555
Ca3 O6 2.606591 1_555
Ca4 O0 2.388446 1_455
Ca4 O3 2.407351 1_555
Ca4 O4 2.444362 1_455
Ca4 O6 2.445832 1_555
Ca4 O2 2.462270 1_555
Ca4 O9 2.520765 1_465
Ca4 O7 2.586630 1_555
Ca4 O10 2.630861 1_555
Ca5 O4 2.320475 1_555
Ca5 O1 2.387716 1_554
Ca5 O0 2.459037 1_555
Ca5 O11 2.479291 1_654
Ca5 O5 2.480009 1_554
Ca5 O7 2.489114 1_555
Ca5 O9 2.609510 1_555
Ca5 O8 2.645921 1_555
Co0 O2 2.110021 1_555
Co0 O5 2.131595 1_565
Co0 O1 2.152397 1_555
Co0 O3 2.157784 1_655
Co0 O4 2.175972 1_556
Co0 O0 2.182967 1_555
Co1 O9 1.915901 1_455
Co1 O3 1.916035 1_544
Co1 O5 1.918290 1_454
Co1 O10 1.926886 1_545
Co1 O11 1.971904 1_554
Co1 O4 1.994018 1_445
Co2 O6 1.892355 1_555
Co2 O7 1.901862 1_555
Co2 O0 1.903004 1_555
Co2 O1 1.908433 1_555
Co2 O8 1.912108 1_555
Co2 O2 1.921242 1_555
Co3 O8 2.104411 1_555
Co3 O10 2.117246 1_545
Co3 O9 2.146825 1_455
Co3 O7 2.150945 1_555
Co3 O11 2.186938 1_554
Co3 O6 2.187838 1_555
