# generated using pymatgen
data_K2VCuS2
_symmetry_space_group_name_H-M   'P 1'
_cell_length_a   5.50845100
_cell_length_b   7.45159837
_cell_length_c   20.89031559
_cell_angle_alpha   87.20681709
_cell_angle_beta   82.42393869
_cell_angle_gamma   68.30809599
_symmetry_Int_Tables_number   1
_chemical_formula_structural   K2VCuS2
_chemical_formula_sum   'K8 V4 Cu4 S8'
_cell_volume   789.80213895
_cell_formula_units_Z   4
loop_
 _symmetry_equiv_pos_site_id
 _symmetry_equiv_pos_as_xyz
  1  'x, y, z'
loop_
 _atom_site_type_symbol
 _atom_site_label
 _atom_site_symmetry_multiplicity
 _atom_site_fract_x
 _atom_site_fract_y
 _atom_site_fract_z
 _atom_site_occupancy
  K  K0  1  0.67785900  0.26978100  0.59844600  1
  K  K1  1  0.72369500  0.73021900  0.59844600  1
  K  K2  1  0.05236000  0.26978100  0.40155400  1
  K  K3  1  0.07214100  0.23021900  0.90155400  1
  K  K4  1  0.54608600  0.73021900  0.40155400  1
  K  K5  1  0.02630500  0.76978100  0.90155400  1
  K  K6  1  0.69764000  0.23021900  0.09844600  1
  K  K7  1  0.20391400  0.76978100  0.09844600  1
  V  V0  1  0.87500000  0.25000000  0.25000000  1
  V  V1  1  0.87500000  0.75000000  0.25000000  1
  V  V2  1  0.87500000  0.25000000  0.75000000  1
  V  V3  1  0.37500000  0.75000000  0.75000000  1
  Cu  Cu0  1  0.37500000  0.25000000  0.25000000  1
  Cu  Cu1  1  0.37500000  0.75000000  0.25000000  1
  Cu  Cu2  1  0.37500000  0.25000000  0.75000000  1
  Cu  Cu3  1  0.87500000  0.75000000  0.75000000  1
  S  S0  1  0.17756500  0.25096400  0.16438000  1
  S  S1  1  0.65805500  0.74903600  0.16438000  1
  S  S2  1  0.57147100  0.25096400  0.83562000  1
  S  S3  1  0.57243500  0.24903600  0.33562000  1
  S  S4  1  0.59290900  0.74903600  0.83562000  1
  S  S5  1  0.09194500  0.75096400  0.33562000  1
  S  S6  1  0.17852900  0.24903600  0.66438000  1
  S  S7  1  0.15709100  0.75096400  0.66438000  1
loop_
_geom_bond_atom_site_label_1
_geom_bond_atom_site_label_2
_geom_bond_distance
_geom_bond_site_symmetry_2
K0 S6 2.963292 1_555
K0 S6 3.192637 1_655
K1 S7 2.963292 1_655
K1 S7 3.192637 1_555
K2 S3 2.963292 1_555
K2 S3 3.192637 1_455
K3 S2 2.963292 1_555
K3 S2 3.192637 1_455
K4 S5 2.963292 1_555
K4 S5 3.192637 1_655
K5 S4 2.963292 1_455
K5 S4 3.192637 1_555
K6 S0 2.963292 1_555
K6 S0 3.192637 1_655
K7 S1 2.963292 1_555
K7 S1 3.192637 1_455
Cu0 S3 2.210868 1_555
Cu0 S0 2.210868 1_555
Cu1 S5 2.210868 1_555
Cu1 S1 2.210868 1_555
Cu2 S6 2.210868 1_555
Cu2 S2 2.210868 1_555
Cu3 S4 2.210868 1_555
Cu3 S7 2.210868 1_655
S0 V0 2.280035 1_455
S1 V1 2.280035 1_555
S2 V2 2.280035 1_555
S3 V0 2.280035 1_555
S4 V3 2.280035 1_555
S5 V1 2.280035 1_455
S6 V2 2.280035 1_455
S7 V3 2.280035 1_555
