# generated using pymatgen
data_Nb3AlSnMo3
_symmetry_space_group_name_H-M   'P 1'
_cell_length_a   5.15808452
_cell_length_b   5.15808452
_cell_length_c   5.15808447
_cell_angle_alpha   90.01725376
_cell_angle_beta   90.01725376
_cell_angle_gamma   90.01726422
_symmetry_Int_Tables_number   1
_chemical_formula_structural   Nb3AlSnMo3
_chemical_formula_sum   'Nb3 Al1 Sn1 Mo3'
_cell_volume   137.23513026
_cell_formula_units_Z   1
loop_
 _symmetry_equiv_pos_site_id
 _symmetry_equiv_pos_as_xyz
  1  'x, y, z'
loop_
 _atom_site_type_symbol
 _atom_site_label
 _atom_site_symmetry_multiplicity
 _atom_site_fract_x
 _atom_site_fract_y
 _atom_site_fract_z
 _atom_site_occupancy
  Nb  Nb0  1  0.25427000  0.99854100  0.50229600  1
  Nb  Nb1  1  0.99854100  0.50229600  0.25427000  1
  Nb  Nb2  1  0.50229600  0.25427000  0.99854100  1
  Al  Al0  1  0.50118700  0.50118700  0.50118700  1
  Sn  Sn0  1  0.99861000  0.99861000  0.99861000  1
  Mo  Mo0  1  0.74598200  0.99966900  0.49944500  1
  Mo  Mo1  1  0.99966900  0.49944500  0.74598200  1
  Mo  Mo2  1  0.49944500  0.74598200  0.99966900  1
loop_
_geom_bond_atom_site_label_1
_geom_bond_atom_site_label_2
_geom_bond_distance
_geom_bond_site_symmetry_2
Nb0 Sn0 2.880069 1_455
Nb0 Sn0 2.913218 1_454
Nb1 Sn0 2.880069 1_554
Nb1 Sn0 2.913218 1_544
Nb2 Sn0 2.880069 1_545
Nb2 Sn0 2.913218 1_445
Al0 Mo0 2.864196 1_555
Al0 Mo2 2.864197 1_555
Al0 Mo1 2.864197 1_555
Al0 Nb2 2.864498 1_555
Al0 Nb1 2.864498 1_555
Al0 Nb0 2.864498 1_555
Al0 Mo2 2.878939 1_554
Al0 Mo1 2.878939 1_455
Al0 Mo0 2.878940 1_545
Al0 Nb0 2.888288 1_545
Al0 Nb2 2.888288 1_554
Al0 Nb1 2.888288 1_455
Mo0 Nb0 2.536344 1_555
Mo0 Nb0 2.621837 1_655
Mo0 Sn0 2.885358 1_555
Mo0 Sn0 2.893744 1_554
Mo1 Nb1 2.536344 1_555
Mo1 Nb1 2.621837 1_556
Mo1 Sn0 2.885358 1_555
Mo1 Sn0 2.893744 1_545
Mo2 Nb2 2.536344 1_555
Mo2 Nb2 2.621837 1_565
Mo2 Sn0 2.885358 1_555
Mo2 Sn0 2.893744 1_455
