# generated using pymatgen
data_Eu(BiS2)2
_symmetry_space_group_name_H-M   'P 1'
_cell_length_a   4.07492010
_cell_length_b   11.65193009
_cell_length_c   14.58904181
_cell_angle_alpha   90.00000000
_cell_angle_beta   90.00000000
_cell_angle_gamma   90.00000000
_symmetry_Int_Tables_number   1
_chemical_formula_structural   Eu(BiS2)2
_chemical_formula_sum   'Eu4 Bi8 S16'
_cell_volume   692.69768590
_cell_formula_units_Z   4
loop_
 _symmetry_equiv_pos_site_id
 _symmetry_equiv_pos_as_xyz
  1  'x, y, z'
loop_
 _atom_site_type_symbol
 _atom_site_label
 _atom_site_symmetry_multiplicity
 _atom_site_fract_x
 _atom_site_fract_y
 _atom_site_fract_z
 _atom_site_occupancy
  Eu  Eu0  1  0.25000000  0.26395834  0.34725169  1
  Eu  Eu1  1  0.25000000  0.76395834  0.15274831  1
  Eu  Eu2  1  0.75000000  0.73604166  0.65274831  1
  Eu  Eu3  1  0.75000000  0.23604166  0.84725169  1
  Bi  Bi0  1  0.25000000  0.06584647  0.60739999  1
  Bi  Bi1  1  0.25000000  0.56584647  0.89260001  1
  Bi  Bi2  1  0.75000000  0.93415353  0.39260001  1
  Bi  Bi3  1  0.75000000  0.43415353  0.10739999  1
  Bi  Bi4  1  0.25000000  0.10611192  0.10046194  1
  Bi  Bi5  1  0.25000000  0.60611192  0.39953806  1
  Bi  Bi6  1  0.75000000  0.89388808  0.89953806  1
  Bi  Bi7  1  0.75000000  0.39388808  0.60046194  1
  S  S0  1  0.25000000  0.33118095  0.98547469  1
  S  S1  1  0.25000000  0.83118095  0.51452531  1
  S  S2  1  0.75000000  0.66881905  0.01452531  1
  S  S3  1  0.75000000  0.16881905  0.48547469  1
  S  S4  1  0.25000000  0.26263809  0.69921046  1
  S  S5  1  0.25000000  0.76263809  0.80078954  1
  S  S6  1  0.75000000  0.73736191  0.30078954  1
  S  S7  1  0.75000000  0.23736191  0.19921046  1
  S  S8  1  0.25000000  0.05886500  0.91109814  1
  S  S9  1  0.25000000  0.55886500  0.58890186  1
  S  S10  1  0.75000000  0.94113500  0.08890186  1
  S  S11  1  0.75000000  0.44113500  0.41109814  1
  S  S12  1  0.25000000  0.01262023  0.28634504  1
  S  S13  1  0.25000000  0.51262023  0.21365496  1
  S  S14  1  0.75000000  0.98737977  0.71365496  1
  S  S15  1  0.75000000  0.48737977  0.78634504  1
loop_
_geom_bond_atom_site_label_1
_geom_bond_atom_site_label_2
_geom_bond_distance
_geom_bond_site_symmetry_2
Eu0 S7 2.985286 1_455
Eu0 S7 2.985286 1_555
Eu0 S11 3.046443 1_455
Eu0 S11 3.046443 1_555
Eu0 S12 3.060409 1_555
Eu0 S3 3.073529 1_455
Eu0 S3 3.073529 1_555
Eu0 S13 3.491943 1_555
Eu1 S6 2.985286 1_555
Eu1 S6 2.985286 1_455
Eu1 S10 3.046443 1_555
Eu1 S10 3.046443 1_455
Eu1 S13 3.060409 1_555
Eu1 S2 3.073529 1_555
Eu1 S2 3.073529 1_455
Eu1 S12 3.491943 1_565
Eu2 S5 2.985286 1_555
Eu2 S5 2.985286 1_655
Eu2 S9 3.046443 1_555
Eu2 S9 3.046443 1_655
Eu2 S14 3.060409 1_555
Eu2 S1 3.073529 1_555
Eu2 S1 3.073529 1_655
Eu2 S15 3.491943 1_555
Eu3 S4 2.985286 1_555
Eu3 S4 2.985286 1_655
Eu3 S8 3.046443 1_655
Eu3 S8 3.046443 1_555
Eu3 S15 3.060409 1_555
Eu3 S0 3.073529 1_555
Eu3 S0 3.073529 1_655
Eu3 S14 3.491943 1_545
Bi0 S4 2.655546 1_555
Bi0 S14 2.718484 1_445
Bi0 S14 2.718484 1_545
Bi0 S3 2.958863 1_455
Bi0 S3 2.958863 1_555
Bi0 S1 3.051611 1_545
Bi1 S5 2.655546 1_555
Bi1 S15 2.718484 1_455
Bi1 S15 2.718484 1_555
Bi1 S2 2.958863 1_556
Bi1 S2 2.958863 1_456
Bi1 S0 3.051611 1_555
Bi2 S6 2.655546 1_555
Bi2 S12 2.718484 1_565
Bi2 S12 2.718484 1_665
Bi2 S1 2.958863 1_555
Bi2 S1 2.958863 1_655
Bi2 S3 3.051611 1_565
Bi3 S7 2.655546 1_555
Bi3 S13 2.718484 1_555
Bi3 S13 2.718484 1_655
Bi3 S0 2.958863 1_654
Bi3 S0 2.958863 1_554
Bi3 S2 3.051611 1_555
Bi4 S10 2.806229 1_445
Bi4 S10 2.806229 1_545
Bi4 S8 2.816954 1_554
Bi4 S12 2.922476 1_555
Bi4 S7 2.926690 1_455
Bi4 S7 2.926690 1_555
Bi4 S0 3.113139 1_554
Bi5 S11 2.806229 1_455
Bi5 S11 2.806229 1_555
Bi5 S9 2.816954 1_555
Bi5 S13 2.922476 1_555
Bi5 S6 2.926690 1_555
Bi5 S6 2.926690 1_455
Bi5 S1 3.113139 1_555
Bi6 S8 2.806229 1_665
Bi6 S8 2.806229 1_565
Bi6 S10 2.816954 1_556
Bi6 S14 2.922476 1_555
Bi6 S5 2.926690 1_555
Bi6 S5 2.926690 1_655
Bi6 S2 3.113139 1_556
Bi7 S9 2.806229 1_655
Bi7 S9 2.806229 1_555
Bi7 S11 2.816954 1_555
Bi7 S15 2.922476 1_555
Bi7 S4 2.926690 1_555
Bi7 S4 2.926690 1_655
Bi7 S3 3.113139 1_555
