# generated using pymatgen
data_LaMg14Mo
_symmetry_space_group_name_H-M   'P 1'
_cell_length_a   6.49368083
_cell_length_b   6.49368028
_cell_length_c   10.17145673
_cell_angle_alpha   90.00000000
_cell_angle_beta   90.00000000
_cell_angle_gamma   120.00000275
_symmetry_Int_Tables_number   1
_chemical_formula_structural   LaMg14Mo
_chemical_formula_sum   'La1 Mg14 Mo1'
_cell_volume   371.44594062
_cell_formula_units_Z   1
loop_
 _symmetry_equiv_pos_site_id
 _symmetry_equiv_pos_as_xyz
  1  'x, y, z'
loop_
 _atom_site_type_symbol
 _atom_site_label
 _atom_site_symmetry_multiplicity
 _atom_site_fract_x
 _atom_site_fract_y
 _atom_site_fract_z
 _atom_site_occupancy
  La  La0  1  0.16666700  0.33333300  0.12500000  1
  Mg  Mg0  1  0.17923611  0.83961755  0.12500000  1
  Mg  Mg1  1  0.16383073  0.83191486  0.62500000  1
  Mg  Mg2  1  0.66038245  0.32076389  0.12500000  1
  Mg  Mg3  1  0.66808514  0.33616927  0.62500000  1
  Mg  Mg4  1  0.66038245  0.83961755  0.12500000  1
  Mg  Mg5  1  0.66808514  0.83191486  0.62500000  1
  Mg  Mg6  1  0.33175137  0.16824863  0.39162337  1
  Mg  Mg7  1  0.33175137  0.16824863  0.85837663  1
  Mg  Mg8  1  0.33175137  0.66350374  0.39162337  1
  Mg  Mg9  1  0.33175137  0.66350374  0.85837663  1
  Mg  Mg10  1  0.83649626  0.16824863  0.39162337  1
  Mg  Mg11  1  0.83649626  0.16824863  0.85837663  1
  Mg  Mg12  1  0.83333300  0.66666700  0.36718680  1
  Mg  Mg13  1  0.83333300  0.66666700  0.88281320  1
  Mo  Mo0  1  0.16666700  0.33333300  0.62500000  1
loop_
_geom_bond_atom_site_label_1
_geom_bond_atom_site_label_2
_geom_bond_distance
_geom_bond_site_symmetry_2
La0 Mg0 3.247609 1_555
La0 Mg4 3.247609 1_555
La0 Mg4 3.247609 1_445
La0 Mg0 3.247610 1_545
La0 Mg2 3.247610 1_455
La0 Mg2 3.247610 1_555
La0 Mg7 3.286677 1_554
La0 Mg6 3.286677 1_555
La0 Mg9 3.286684 1_554
La0 Mg8 3.286684 1_555
La0 Mg11 3.286684 1_454
La0 Mg10 3.286684 1_455
Mg0 Mg2 3.124411 1_565
Mg0 Mg4 3.124411 1_555
Mg0 Mg12 3.138839 1_455
Mg0 Mg13 3.138839 1_454
Mg0 Mg9 3.282688 1_554
Mg0 Mg8 3.282688 1_555
Mg0 Mg6 3.282694 1_565
Mg0 Mg7 3.282694 1_564
Mg0 Mg2 3.369270 1_455
Mg0 Mg4 3.369270 1_455
Mg1 Mg9 3.035182 1_555
Mg1 Mg8 3.035182 1_555
Mg1 Mg6 3.035189 1_565
Mg1 Mg7 3.035189 1_565
Mg1 Mg12 3.214204 1_455
Mg1 Mg13 3.214204 1_455
Mg1 Mg3 3.219213 1_455
Mg1 Mg5 3.219214 1_455
Mg1 Mo0 3.246879 1_555
Mg1 Mo0 3.246879 1_565
Mg1 Mg3 3.274467 1_565
Mg1 Mg5 3.274467 1_555
Mg2 Mg4 3.124410 1_545
Mg2 Mg6 3.282694 1_555
Mg2 Mg7 3.282694 1_554
Mg2 Mg4 3.369270 1_555
Mg3 Mg6 3.035189 1_555
Mg3 Mg7 3.035189 1_555
Mg3 Mg5 3.219213 1_555
Mg3 Mo0 3.246880 1_655
Mg3 Mo0 3.246880 1_555
Mg3 Mg5 3.274467 1_545
Mg4 Mg9 3.282694 1_554
Mg4 Mg8 3.282694 1_555
Mg5 Mg9 3.035189 1_555
Mg5 Mg8 3.035189 1_555
Mg5 Mo0 3.246879 1_665
Mg5 Mo0 3.246879 1_555
Mg6 Mo0 3.013705 1_555
Mg7 Mo0 3.013705 1_555
Mg8 Mo0 3.013712 1_555
Mg9 Mo0 3.013712 1_555
Mg10 Mo0 3.013712 1_655
Mg10 Mg3 3.035182 1_555
Mg10 Mg5 3.035189 1_545
Mg10 Mg12 3.256389 1_545
Mg10 Mg12 3.256389 1_555
Mg10 Mg2 3.282688 1_555
Mg10 Mg4 3.282694 1_545
Mg11 Mo0 3.013712 1_655
Mg11 Mg3 3.035182 1_555
Mg11 Mg5 3.035189 1_545
Mg11 Mg13 3.256389 1_545
Mg11 Mg13 3.256389 1_555
Mg11 Mg2 3.282688 1_556
Mg11 Mg4 3.282694 1_546
Mg12 Mg4 3.138832 1_555
Mg12 Mg2 3.138839 1_555
Mg12 Mg5 3.214197 1_555
Mg12 Mg3 3.214203 1_555
Mg12 Mg6 3.256389 1_665
Mg12 Mg6 3.256389 1_555
Mg12 Mg8 3.256389 1_655
Mg12 Mg8 3.256389 1_555
Mg13 Mg4 3.138832 1_556
Mg13 Mg2 3.138839 1_556
Mg13 Mg5 3.214197 1_555
Mg13 Mg3 3.214203 1_555
Mg13 Mg7 3.256389 1_665
Mg13 Mg7 3.256389 1_555
Mg13 Mg9 3.256389 1_655
Mg13 Mg9 3.256389 1_555
