# generated using pymatgen
data_TmU3
_symmetry_space_group_name_H-M   'P 1'
_cell_length_a   6.36930300
_cell_length_b   6.36930307
_cell_length_c   5.34569600
_cell_angle_alpha   90.00000000
_cell_angle_beta   90.00000000
_cell_angle_gamma   120.00000481
_symmetry_Int_Tables_number   1
_chemical_formula_structural   TmU3
_chemical_formula_sum   'Tm2 U6'
_cell_volume   187.80999129
_cell_formula_units_Z   2
loop_
 _symmetry_equiv_pos_site_id
 _symmetry_equiv_pos_as_xyz
  1  'x, y, z'
loop_
 _atom_site_type_symbol
 _atom_site_label
 _atom_site_symmetry_multiplicity
 _atom_site_fract_x
 _atom_site_fract_y
 _atom_site_fract_z
 _atom_site_occupancy
  Tm  Tm0  1  0.33333400  0.66666800  0.75000000  1
  Tm  Tm1  1  0.66666800  0.33333400  0.24999900  1
  U  U0  1  0.14729000  0.29457900  0.24999900  1
  U  U1  1  0.70542100  0.85271000  0.24999900  1
  U  U2  1  0.14729100  0.85271000  0.24999900  1
  U  U3  1  0.85271000  0.70542000  0.75000000  1
  U  U4  1  0.29458100  0.14729200  0.75000000  1
  U  U5  1  0.85271100  0.14729200  0.75000000  1
loop_
_geom_bond_atom_site_label_1
_geom_bond_atom_site_label_2
_geom_bond_distance
_geom_bond_site_symmetry_2
Tm0 U5 3.191814 1_455
Tm0 U4 3.191814 1_555
Tm0 U3 3.191817 1_555
Tm0 U3 3.191817 1_455
Tm0 U5 3.191820 1_565
Tm0 U4 3.191821 1_565
Tm0 U2 3.369939 1_556
Tm0 U1 3.369945 1_556
Tm0 U2 3.369947 1_555
Tm0 U0 3.369952 1_556
Tm0 U1 3.369954 1_555
Tm0 U0 3.369960 1_555
Tm1 U2 3.191814 1_655
Tm1 U1 3.191814 1_555
Tm1 U0 3.191815 1_655
Tm1 U2 3.191820 1_545
Tm1 U1 3.191821 1_545
Tm1 U0 3.191821 1_555
Tm1 U5 3.369939 1_554
Tm1 U3 3.369942 1_554
Tm1 U4 3.369945 1_554
Tm1 U5 3.369947 1_555
Tm1 U3 3.369950 1_555
Tm1 U4 3.369954 1_555
U0 U1 2.814397 1_445
U0 U2 2.814401 1_545
U0 U4 3.127993 1_554
U0 U5 3.127996 1_454
U0 U4 3.128002 1_555
U0 U5 3.128005 1_455
U0 U2 3.554902 1_555
U0 U1 3.554905 1_555
U1 U2 2.814404 1_655
U1 U3 3.127996 1_554
U1 U5 3.128005 1_564
U1 U3 3.128005 1_555
U1 U5 3.128014 1_565
U1 U2 3.554899 1_555
U2 U3 3.128002 1_454
U2 U4 3.128005 1_564
U2 U3 3.128011 1_455
U2 U4 3.128014 1_565
U3 U4 2.814413 1_665
U3 U5 2.814414 1_565
U3 U4 3.554889 1_555
U3 U5 3.554890 1_555
U4 U5 2.814404 1_455
U4 U5 3.554899 1_555
