# generated using pymatgen
data_Ca7PbN6
_symmetry_space_group_name_H-M   'P 1'
_cell_length_a   6.42672353
_cell_length_b   9.34599729
_cell_length_c   9.34599729
_cell_angle_alpha   80.45024846
_cell_angle_beta   69.89008554
_cell_angle_gamma   69.89008554
_symmetry_Int_Tables_number   1
_chemical_formula_structural   Ca7PbN6
_chemical_formula_sum   'Ca14 Pb2 N12'
_cell_volume   494.27446027
_cell_formula_units_Z   2
loop_
 _symmetry_equiv_pos_site_id
 _symmetry_equiv_pos_as_xyz
  1  'x, y, z'
loop_
 _atom_site_type_symbol
 _atom_site_label
 _atom_site_symmetry_multiplicity
 _atom_site_fract_x
 _atom_site_fract_y
 _atom_site_fract_z
 _atom_site_occupancy
  Ca  Ca0  1  0.28918868  0.94931035  0.05068965  1
  Ca  Ca1  1  0.71081132  0.05068965  0.94931035  1
  Ca  Ca2  1  0.21081132  0.44931035  0.55068965  1
  Ca  Ca3  1  0.78918868  0.55068965  0.44931035  1
  Ca  Ca4  1  0.75048910  0.15241942  0.59202593  1
  Ca  Ca5  1  0.50506555  0.59202593  0.15241942  1
  Ca  Ca6  1  0.74951090  0.90797407  0.34758058  1
  Ca  Ca7  1  0.99493445  0.34758058  0.90797407  1
  Ca  Ca8  1  0.24951090  0.84758058  0.40797407  1
  Ca  Ca9  1  0.49493445  0.40797407  0.84758058  1
  Ca  Ca10  1  0.25048910  0.09202593  0.65241942  1
  Ca  Ca11  1  0.00506555  0.65241942  0.09202593  1
  Ca  Ca12  1  0.25000000  0.25000000  0.25000000  1
  Ca  Ca13  1  0.75000000  0.75000000  0.75000000  1
  Pb  Pb0  1  0.75000000  0.25000000  0.25000000  1
  Pb  Pb1  1  0.25000000  0.75000000  0.75000000  1
  N  N0  1  0.03522688  0.05666044  0.29612459  1
  N  N1  1  0.61198710  0.29612459  0.05666044  1
  N  N2  1  0.46477312  0.20387541  0.44333956  1
  N  N3  1  0.88801290  0.44333956  0.20387541  1
  N  N4  1  0.96477312  0.94333956  0.70387541  1
  N  N5  1  0.38801290  0.70387541  0.94333956  1
  N  N6  1  0.53522688  0.79612459  0.55666044  1
  N  N7  1  0.11198710  0.55666044  0.79612459  1
  N  N8  1  0.87142573  0.35273938  0.64726062  1
  N  N9  1  0.12857427  0.64726062  0.35273938  1
  N  N10  1  0.62857427  0.85273938  0.14726062  1
  N  N11  1  0.37142573  0.14726062  0.85273938  1
loop_
_geom_bond_atom_site_label_1
_geom_bond_atom_site_label_2
_geom_bond_distance
_geom_bond_site_symmetry_2
Ca0 N11 2.447239 1_564
Ca0 N5 2.448530 1_554
Ca0 N0 2.448531 1_565
Ca0 N10 2.473109 1_555
Ca1 N10 2.447239 1_546
Ca1 N1 2.448530 1_556
Ca1 N4 2.448531 1_545
Ca1 N11 2.473109 1_555
Ca2 N9 2.447239 1_555
Ca2 N7 2.448530 1_555
Ca2 N2 2.448531 1_555
Ca2 N8 2.473109 1_455
Ca3 N8 2.447239 1_555
Ca3 N3 2.448530 1_555
Ca3 N6 2.448531 1_555
Ca3 N9 2.473109 1_655
Ca4 N4 2.295498 1_545
Ca4 N8 2.443940 1_555
Ca4 N2 2.541590 1_555
Ca4 N11 2.798963 1_555
Ca4 N0 2.830668 1_655
Ca5 N5 2.295495 1_554
Ca5 N9 2.443940 1_555
Ca5 N3 2.541595 1_555
Ca5 N10 2.798963 1_555
Ca5 N1 2.830670 1_555
Ca6 N6 2.295498 1_555
Ca6 N10 2.443940 1_555
Ca6 N0 2.541590 1_665
Ca6 N9 2.798963 1_655
Ca6 N2 2.830668 1_565
Ca7 N7 2.295495 1_655
Ca7 N11 2.443940 1_655
Ca7 N1 2.541595 1_556
Ca7 N8 2.798963 1_555
Ca7 N3 2.830670 1_556
Ca8 N0 2.295498 1_565
Ca8 N9 2.443940 1_555
Ca8 N6 2.541590 1_555
Ca8 N10 2.798963 1_555
Ca8 N4 2.830668 1_455
Ca9 N1 2.295495 1_556
Ca9 N8 2.443940 1_555
Ca9 N7 2.541595 1_555
Ca9 N11 2.798963 1_555
Ca9 N5 2.830670 1_555
Ca10 N2 2.295498 1_555
Ca10 N11 2.443940 1_555
Ca10 N4 2.541590 1_445
Ca10 N8 2.798963 1_455
Ca10 N6 2.830668 1_545
Ca11 N3 2.295495 1_455
Ca11 N10 2.443940 1_455
Ca11 N5 2.541595 1_554
Ca11 N9 2.798963 1_555
Ca11 N7 2.830670 1_554
Ca12 N1 2.530517 1_555
Ca12 N3 2.530517 1_455
Ca12 N0 2.530522 1_555
Ca12 N2 2.530522 1_555
Ca13 N7 2.530517 1_655
Ca13 N5 2.530517 1_555
Ca13 N4 2.530522 1_555
Ca13 N6 2.530522 1_555
N0 Pb0 2.195066 1_455
N1 Pb0 2.195070 1_555
N2 Pb0 2.195066 1_555
N3 Pb0 2.195070 1_555
N4 Pb1 2.195066 1_655
N5 Pb1 2.195070 1_555
N6 Pb1 2.195066 1_555
N7 Pb1 2.195070 1_555
