# generated using pymatgen
data_ScAg(PSe3)2
_symmetry_space_group_name_H-M   'P 1'
_cell_length_a   6.53503224
_cell_length_b   6.53503224
_cell_length_c   15.16892300
_cell_angle_alpha   90.00000000
_cell_angle_beta   90.00000000
_cell_angle_gamma   120.00000240
_symmetry_Int_Tables_number   1
_chemical_formula_structural   ScAg(PSe3)2
_chemical_formula_sum   'Sc2 Ag2 P4 Se12'
_cell_volume   561.02322003
_cell_formula_units_Z   2
loop_
 _symmetry_equiv_pos_site_id
 _symmetry_equiv_pos_as_xyz
  1  'x, y, z'
loop_
 _atom_site_type_symbol
 _atom_site_label
 _atom_site_symmetry_multiplicity
 _atom_site_fract_x
 _atom_site_fract_y
 _atom_site_fract_z
 _atom_site_occupancy
  Sc  Sc0  1  0.00000000  0.00000000  0.25000000  1
  Sc  Sc1  1  0.00000000  0.00000000  0.75000000  1
  Ag  Ag0  1  0.33333300  0.66666700  0.75000000  1
  Ag  Ag1  1  0.66666700  0.33333300  0.25000000  1
  P  P0  1  0.66666700  0.33333300  0.67575000  1
  P  P1  1  0.66666700  0.33333300  0.82425000  1
  P  P2  1  0.33333300  0.66666700  0.32425000  1
  P  P3  1  0.33333300  0.66666700  0.17575000  1
  Se  Se0  1  0.67141000  0.69545300  0.13306700  1
  Se  Se1  1  0.02404300  0.69545300  0.36693300  1
  Se  Se2  1  0.02404300  0.32859000  0.13306700  1
  Se  Se3  1  0.32859000  0.30454700  0.86693300  1
  Se  Se4  1  0.69545300  0.02404300  0.86693300  1
  Se  Se5  1  0.32859000  0.02404300  0.63306700  1
  Se  Se6  1  0.69545300  0.67141000  0.63306700  1
  Se  Se7  1  0.97595700  0.30454700  0.63306700  1
  Se  Se8  1  0.30454700  0.97595700  0.13306700  1
  Se  Se9  1  0.67141000  0.97595700  0.36693300  1
  Se  Se10  1  0.97595700  0.67141000  0.86693300  1
  Se  Se11  1  0.30454700  0.32859000  0.36693300  1
loop_
_geom_bond_atom_site_label_1
_geom_bond_atom_site_label_2
_geom_bond_distance
_geom_bond_site_symmetry_2
Sc0 Se11 2.728474 1_555
Sc0 Se0 2.728474 1_445
Sc0 Se2 2.728474 1_555
Sc0 Se9 2.728474 1_445
Sc0 Se1 2.728474 1_545
Sc0 Se8 2.728474 1_545
Sc1 Se6 2.728474 1_445
Sc1 Se3 2.728474 1_555
Sc1 Se5 2.728474 1_555
Sc1 Se10 2.728474 1_445
Sc1 Se4 2.728474 1_455
Sc1 Se7 2.728474 1_455
Ag0 Se10 2.945152 1_455
Ag0 Se5 2.945152 1_565
Ag0 Se7 2.945155 1_455
Ag0 Se4 2.945155 1_565
Ag0 Se6 2.945157 1_555
Ag0 Se3 2.945157 1_555
Ag1 Se2 2.945152 1_655
Ag1 Se9 2.945152 1_545
Ag1 Se1 2.945155 1_655
Ag1 Se8 2.945155 1_545
Ag1 Se11 2.945157 1_555
Ag1 Se0 2.945157 1_555
P0 Se7 2.218140 1_555
P0 Se5 2.218143 1_555
P0 Se6 2.218146 1_555
P0 P1 2.252585 1_555
P1 Se4 2.218140 1_555
P1 Se10 2.218143 1_555
P1 Se3 2.218146 1_555
P2 Se1 2.218140 1_555
P2 Se9 2.218143 1_555
P2 Se11 2.218146 1_555
P2 P3 2.252585 1_555
P3 Se8 2.218140 1_555
P3 Se2 2.218143 1_555
P3 Se0 2.218146 1_555
