# generated using pymatgen
data_Na3NdTi2Nb2O12
_symmetry_space_group_name_H-M   'P 1'
_cell_length_a   5.53543100
_cell_length_b   5.62889000
_cell_length_c   15.58607900
_cell_angle_alpha   90.00000000
_cell_angle_beta   90.00000000
_cell_angle_gamma   90.00000000
_symmetry_Int_Tables_number   1
_chemical_formula_structural   Na3NdTi2Nb2O12
_chemical_formula_sum   'Na6 Nd2 Ti4 Nb4 O24'
_cell_volume   485.63622720
_cell_formula_units_Z   2
loop_
 _symmetry_equiv_pos_site_id
 _symmetry_equiv_pos_as_xyz
  1  'x, y, z'
loop_
 _atom_site_type_symbol
 _atom_site_label
 _atom_site_symmetry_multiplicity
 _atom_site_fract_x
 _atom_site_fract_y
 _atom_site_fract_z
 _atom_site_occupancy
  Na  Na0  1  0.99888200  0.99076200  0.37185200  1
  Na  Na1  1  0.99888200  0.99076200  0.87814800  1
  Na  Na2  1  0.50111800  0.49076200  0.87814800  1
  Na  Na3  1  0.50111800  0.49076200  0.37185200  1
  Na  Na4  1  0.50566400  0.53096100  0.62500000  1
  Na  Na5  1  0.99433600  0.03096100  0.62500000  1
  Nd  Nd0  1  0.50699700  0.54361000  0.12500000  1
  Nd  Nd1  1  0.99300300  0.04361000  0.12500000  1
  Ti  Ti0  1  0.00832200  0.52121700  0.99614000  1
  Ti  Ti1  1  0.00832200  0.52121700  0.25386000  1
  Ti  Ti2  1  0.49167800  0.02121700  0.25386000  1
  Ti  Ti3  1  0.49167800  0.02121700  0.99614000  1
  Nb  Nb0  1  0.00560800  0.52087900  0.49874300  1
  Nb  Nb1  1  0.00560800  0.52087900  0.75125700  1
  Nb  Nb2  1  0.49439200  0.02087900  0.75125700  1
  Nb  Nb3  1  0.49439200  0.02087900  0.49874300  1
  O  O0  1  0.07371000  0.47019900  0.12500000  1
  O  O1  1  0.06755700  0.47325200  0.62500000  1
  O  O2  1  0.20686000  0.20091600  0.48119700  1
  O  O3  1  0.21416800  0.20270400  0.26047600  1
  O  O4  1  0.20686000  0.20091600  0.76880300  1
  O  O5  1  0.21416800  0.20270400  0.98952400  1
  O  O6  1  0.28583200  0.70270400  0.26047600  1
  O  O7  1  0.29314000  0.70091600  0.48119700  1
  O  O8  1  0.29314000  0.70091600  0.76880300  1
  O  O9  1  0.28583200  0.70270400  0.98952400  1
  O  O10  1  0.42629000  0.97019900  0.12500000  1
  O  O11  1  0.43244300  0.97325200  0.62500000  1
  O  O12  1  0.56777900  0.00446800  0.87795000  1
  O  O13  1  0.56777900  0.00446800  0.37205000  1
  O  O14  1  0.71384300  0.26865300  0.02568200  1
  O  O15  1  0.71384300  0.26865300  0.22431800  1
  O  O16  1  0.70911000  0.28138800  0.51665200  1
  O  O17  1  0.70911000  0.28138800  0.73334800  1
  O  O18  1  0.78615700  0.76865300  0.02568200  1
  O  O19  1  0.78615700  0.76865300  0.22431800  1
  O  O20  1  0.79089000  0.78138800  0.51665200  1
  O  O21  1  0.79089000  0.78138800  0.73334800  1
  O  O22  1  0.93222100  0.50446800  0.37205000  1
  O  O23  1  0.93222100  0.50446800  0.87795000  1
loop_
_geom_bond_atom_site_label_1
_geom_bond_atom_site_label_2
_geom_bond_distance
_geom_bond_site_symmetry_2
Na0 O2 2.372595 1_665
Na0 O13 2.387590 1_565
Na0 O3 2.420082 1_665
Na0 O22 2.762056 1_555
Na0 O20 2.794271 1_555
Na0 O6 2.857530 1_655
Na0 O7 2.866961 1_655
Na0 O19 2.870057 1_555
Na0 O22 2.915045 1_565
Na1 O4 2.372595 1_665
Na1 O12 2.387590 1_565
Na1 O5 2.420082 1_665
Na1 O23 2.762056 1_555
Na1 O21 2.794271 1_555
Na1 O9 2.857530 1_655
Na1 O8 2.866961 1_655
Na1 O18 2.870057 1_556
Na1 O23 2.915045 1_565
Na2 O8 2.372595 1_555
Na2 O23 2.387590 1_555
Na2 O9 2.420082 1_555
Na2 O12 2.762056 1_555
Na2 O17 2.794271 1_555
Na2 O5 2.857530 1_555
Na2 O4 2.866961 1_555
Na2 O14 2.870057 1_556
Na2 O12 2.915045 1_565
Na3 O7 2.372595 1_555
Na3 O22 2.387590 1_555
Na3 O6 2.420082 1_555
Na3 O13 2.762056 1_555
Na3 O16 2.794271 1_555
Na3 O3 2.857530 1_555
Na3 O2 2.866961 1_555
Na3 O15 2.870057 1_555
Na3 O13 2.915045 1_565
Na4 O1 2.446770 1_555
Na4 O17 2.468508 1_555
Na4 O16 2.468508 1_555
Na4 O11 2.522384 1_555
Na4 O8 2.706045 1_555
Na4 O7 2.706045 1_555
Na4 O21 2.707690 1_555
Na4 O20 2.707690 1_555
Na5 O11 2.446770 1_645
Na5 O20 2.468508 1_545
Na5 O21 2.468508 1_545
Na5 O1 2.522384 1_655
Na5 O2 2.706045 1_655
Na5 O4 2.706045 1_655
Na5 O17 2.707690 1_555
Na5 O16 2.707690 1_555
Nd0 O0 2.433767 1_555
Nd0 O10 2.442428 1_555
Nd0 O14 2.470345 1_555
Nd0 O15 2.470345 1_555
Nd0 O18 2.527595 1_555
Nd0 O19 2.527595 1_555
Nd0 O9 2.599872 1_554
Nd0 O6 2.599872 1_555
Nd1 O10 2.433767 1_645
Nd1 O0 2.442428 1_655
Nd1 O19 2.470345 1_545
Nd1 O18 2.470345 1_545
Nd1 O14 2.527595 1_555
Nd1 O15 2.527595 1_555
Nd1 O3 2.599872 1_655
Nd1 O5 2.599872 1_654
Nb0 O7 1.906572 1_555
Nb0 O20 1.908099 1_455
Nb0 O1 2.015416 1_555
Nb0 O22 2.018115 1_455
Nb0 O2 2.135311 1_555
Nb0 O16 2.142168 1_455
Nb1 O8 1.906572 1_555
Nb1 O21 1.908099 1_455
Nb1 O1 2.015416 1_555
Nb1 O23 2.018115 1_455
Nb1 O4 2.135311 1_555
Nb1 O17 2.142168 1_455
Nb2 O4 1.906572 1_555
Nb2 O17 1.908099 1_555
Nb2 O11 2.015416 1_545
Nb2 O12 2.018115 1_555
Nb2 O8 2.135311 1_545
Nb2 O21 2.142168 1_545
Nb3 O2 1.906572 1_555
Nb3 O16 1.908099 1_555
Nb3 O11 2.015416 1_545
Nb3 O13 2.018115 1_555
Nb3 O7 2.135311 1_545
Nb3 O20 2.142168 1_545
O0 Ti0 2.060883 1_554
O0 Ti1 2.060883 1_555
O3 Ti2 1.847690 1_555
O3 Ti1 2.126822 1_555
O5 Ti3 1.847690 1_555
O5 Ti0 2.126822 1_555
O6 Ti1 1.847690 1_555
O6 Ti2 2.126822 1_565
O9 Ti0 1.847690 1_555
O9 Ti3 2.126822 1_565
O10 Ti3 2.060883 1_564
O10 Ti2 2.060883 1_565
O12 Ti3 1.892021 1_555
O13 Ti2 1.892021 1_555
O14 Ti3 1.914218 1_554
O14 Ti0 2.211387 1_654
O15 Ti2 1.914218 1_555
O15 Ti1 2.211387 1_655
O18 Ti0 1.914218 1_654
O18 Ti3 2.211387 1_564
O19 Ti1 1.914218 1_655
O19 Ti2 2.211387 1_565
O22 Ti1 1.892021 1_655
O23 Ti0 1.892021 1_655
