# generated using pymatgen
data_CsLi3I4
_symmetry_space_group_name_H-M   'P 1'
_cell_length_a   4.64215389
_cell_length_b   11.06888160
_cell_length_c   11.57798489
_cell_angle_alpha   86.80775631
_cell_angle_beta   90.00000000
_cell_angle_gamma   90.00000000
_symmetry_Int_Tables_number   1
_chemical_formula_structural   CsLi3I4
_chemical_formula_sum   'Cs2 Li6 I8'
_cell_volume   593.99370266
_cell_formula_units_Z   2
loop_
 _symmetry_equiv_pos_site_id
 _symmetry_equiv_pos_as_xyz
  1  'x, y, z'
loop_
 _atom_site_type_symbol
 _atom_site_label
 _atom_site_symmetry_multiplicity
 _atom_site_fract_x
 _atom_site_fract_y
 _atom_site_fract_z
 _atom_site_occupancy
  Cs  Cs0  1  0.50000000  0.86755736  0.15312389  1
  Cs  Cs1  1  0.50000000  0.41962885  0.30026117  1
  Li  Li0  1  0.00000000  0.00981419  0.44395253  1
  Li  Li1  1  0.00000000  0.64110504  0.61058239  1
  Li  Li2  1  0.50000000  0.28959808  0.66440218  1
  Li  Li3  1  0.50000000  0.92671614  0.76933365  1
  Li  Li4  1  0.50000000  0.54459631  0.93780520  1
  Li  Li5  1  -0.00000000  0.19026175  0.99018601  1
  I  I0  1  0.00000000  0.58504581  0.06809473  1
  I  I1  1  -0.00000000  0.14721169  0.23001593  1
  I  I2  1  0.00000000  0.76681370  0.40223597  1
  I  I3  1  0.50000000  0.06555087  0.56485291  1
  I  I4  1  0.00000000  0.39649167  0.57098573  1
  I  I5  1  0.50000000  0.68293583  0.73406820  1
  I  I6  1  0.00000000  0.96719920  0.89425304  1
  I  I7  1  0.50000000  0.29953753  0.90408348  1
loop_
_geom_bond_atom_site_label_1
_geom_bond_atom_site_label_2
_geom_bond_distance
_geom_bond_site_symmetry_2
Cs0 I2 3.819868 1_555
Cs0 I2 3.819868 1_655
Cs0 I6 3.901141 1_554
Cs0 I6 3.901141 1_654
Cs0 I1 4.008584 1_565
Cs0 I1 4.008584 1_665
Cs0 I0 4.059323 1_655
Cs0 I0 4.059323 1_555
Cs1 I4 3.897221 1_555
Cs1 I4 3.897221 1_655
Cs1 I1 3.926110 1_655
Cs1 I1 3.926110 1_555
Cs1 I0 3.926473 1_655
Cs1 I0 3.926473 1_555
I0 Li4 2.817556 1_554
I0 Li4 2.817556 1_454
I1 Li5 2.791062 1_554
I1 Li0 2.833497 1_555
I2 Li1 2.716833 1_555
I2 Li0 2.759111 1_565
I3 Li3 2.749787 1_545
I3 Li2 2.792301 1_555
I3 Li0 2.797068 1_655
I3 Li0 2.797068 1_555
I4 Li1 2.771191 1_555
I4 Li2 2.795464 1_555
I4 Li2 2.795464 1_455
I5 Li4 2.739840 1_555
I5 Li3 2.751481 1_555
I5 Li1 2.778417 1_555
I5 Li1 2.778417 1_655
I6 Li5 2.763210 1_565
I6 Li3 2.784277 1_555
I6 Li3 2.784277 1_455
I7 Li4 2.761917 1_555
I7 Li5 2.776678 1_655
I7 Li5 2.776678 1_555
I7 Li2 2.783322 1_555
