# generated using pymatgen
data_Mg14FeW
_symmetry_space_group_name_H-M   'P 1'
_cell_length_a   6.23440470
_cell_length_b   6.23440470
_cell_length_c   9.90912500
_cell_angle_alpha   90.00000000
_cell_angle_beta   90.00000000
_cell_angle_gamma   122.54933811
_symmetry_Int_Tables_number   1
_chemical_formula_structural   Mg14FeW
_chemical_formula_sum   'Mg14 Fe1 W1'
_cell_volume   324.65044644
_cell_formula_units_Z   1
loop_
 _symmetry_equiv_pos_site_id
 _symmetry_equiv_pos_as_xyz
  1  'x, y, z'
loop_
 _atom_site_type_symbol
 _atom_site_label
 _atom_site_symmetry_multiplicity
 _atom_site_fract_x
 _atom_site_fract_y
 _atom_site_fract_z
 _atom_site_occupancy
  Mg  Mg0  1  0.83344100  0.16655900  0.00000000  1
  Mg  Mg1  1  0.33374500  0.66625500  0.00000000  1
  Mg  Mg2  1  0.32796200  0.16614100  0.50000000  1
  Mg  Mg3  1  0.33156800  0.16996000  0.00000000  1
  Mg  Mg4  1  0.83385900  0.67203800  0.50000000  1
  Mg  Mg5  1  0.83004000  0.66843200  0.00000000  1
  Mg  Mg6  1  0.16307000  0.33563900  0.27092800  1
  Mg  Mg7  1  0.16307000  0.33563900  0.72907200  1
  Mg  Mg8  1  0.66436100  0.83693000  0.27092800  1
  Mg  Mg9  1  0.66436100  0.83693000  0.72907200  1
  Mg  Mg10  1  0.67782800  0.32217200  0.26426500  1
  Mg  Mg11  1  0.67782800  0.32217200  0.73573500  1
  Mg  Mg12  1  0.17424100  0.82575900  0.25470400  1
  Mg  Mg13  1  0.17424100  0.82575900  0.74529600  1
  Fe  Fe0  1  0.82803000  0.17197000  0.50000000  1
  W  W0  1  0.32235800  0.67764200  0.50000000  1
loop_
_geom_bond_atom_site_label_1
_geom_bond_atom_site_label_2
_geom_bond_distance
_geom_bond_site_symmetry_2
Mg0 Mg1 2.996327 1_655
Mg0 Mg1 2.996327 1_545
Mg0 Mg3 3.094169 1_655
Mg0 Mg5 3.094169 1_545
Mg0 Mg10 3.122888 1_555
Mg0 Mg11 3.122888 1_554
Mg0 Mg5 3.140338 1_555
Mg0 Mg3 3.140338 1_555
Mg0 Mg8 3.195427 1_545
Mg0 Mg6 3.195427 1_655
Mg0 Mg9 3.195427 1_544
Mg0 Mg7 3.195427 1_654
Mg1 Mg12 3.067868 1_555
Mg1 Mg13 3.067868 1_554
Mg1 Mg3 3.086823 1_555
Mg1 Mg5 3.086823 1_555
Mg1 Mg5 3.147624 1_455
Mg1 Mg3 3.147624 1_565
Mg1 Mg6 3.198141 1_555
Mg1 Mg8 3.198141 1_555
Mg1 Mg7 3.198141 1_554
Mg1 Mg9 3.198141 1_554
Mg2 Mg7 2.914590 1_555
Mg2 Mg6 2.914590 1_555
Mg2 Mg4 2.960986 1_445
Mg2 W0 3.026846 1_545
Mg2 Mg4 3.031664 1_555
Mg2 W0 3.207837 1_555
Mg3 Mg5 2.987168 1_555
Mg3 Mg5 3.005482 1_445
Mg3 Mg6 3.247367 1_555
Mg3 Mg7 3.247367 1_554
Mg4 Mg9 2.914590 1_555
Mg4 Mg8 2.914590 1_555
Mg4 W0 3.026846 1_655
Mg4 W0 3.207837 1_555
Mg5 Mg8 3.247367 1_555
Mg5 Mg9 3.247367 1_554
Mg6 W0 2.899383 1_555
Mg6 Mg8 2.988588 1_445
Mg6 Mg8 3.004062 1_555
Mg7 W0 2.899383 1_555
Mg7 Mg9 2.988588 1_445
Mg7 Mg9 3.004062 1_555
Mg8 W0 2.899383 1_555
Mg9 W0 2.899383 1_555
Mg10 Mg2 2.979484 1_555
Mg10 Mg4 2.979484 1_555
Mg10 Mg8 2.981594 1_545
Mg10 Mg6 2.981594 1_655
Mg10 Mg12 2.998079 1_655
Mg10 Mg12 2.998079 1_545
Mg10 Mg5 3.195862 1_555
Mg10 Mg3 3.195862 1_555
Mg10 Mg6 3.255821 1_555
Mg10 Mg8 3.255821 1_555
Mg11 Mg2 2.979484 1_555
Mg11 Mg4 2.979484 1_555
Mg11 Mg9 2.981594 1_545
Mg11 Mg7 2.981594 1_655
Mg11 Mg13 2.998079 1_655
Mg11 Mg13 2.998079 1_545
Mg11 Mg5 3.195862 1_556
Mg11 Mg3 3.195862 1_556
Mg11 Mg7 3.255821 1_555
Mg11 Mg9 3.255821 1_555
Mg12 W0 2.920808 1_555
Mg12 Mg8 3.022985 1_555
Mg12 Mg6 3.022985 1_555
Mg12 Mg4 3.023482 1_455
Mg12 Mg2 3.023482 1_565
Mg12 Mg5 3.109997 1_455
Mg12 Mg3 3.109997 1_565
Mg12 Mg6 3.220819 1_565
Mg12 Mg8 3.220819 1_455
Mg13 W0 2.920808 1_555
Mg13 Mg9 3.022985 1_555
Mg13 Mg7 3.022985 1_555
Mg13 Mg4 3.023482 1_455
Mg13 Mg2 3.023482 1_565
Mg13 Mg5 3.109997 1_456
Mg13 Mg3 3.109997 1_566
Mg13 Mg7 3.220819 1_565
Mg13 Mg9 3.220819 1_455
Fe0 Mg11 2.855502 1_555
Fe0 Mg10 2.855502 1_555
Fe0 Mg9 2.874575 1_545
Fe0 Mg7 2.874575 1_655
Fe0 Mg8 2.874575 1_545
Fe0 Mg6 2.874575 1_655
Fe0 W0 2.996967 1_655
Fe0 W0 2.996967 1_545
Fe0 Mg2 3.098226 1_555
Fe0 Mg4 3.098226 1_555
Fe0 Mg4 3.136480 1_545
Fe0 Mg2 3.136480 1_655
