# generated using pymatgen
data_Lu3Sc
_symmetry_space_group_name_H-M   'P 1'
_cell_length_a   6.95300106
_cell_length_b   6.95300500
_cell_length_c   5.37776986
_cell_angle_alpha   90.00000000
_cell_angle_beta   90.00000000
_cell_angle_gamma   119.99996362
_symmetry_Int_Tables_number   1
_chemical_formula_structural   Lu3Sc
_chemical_formula_sum   'Lu6 Sc2'
_cell_volume   225.15305317
_cell_formula_units_Z   2
loop_
 _symmetry_equiv_pos_site_id
 _symmetry_equiv_pos_as_xyz
  1  'x, y, z'
loop_
 _atom_site_type_symbol
 _atom_site_label
 _atom_site_symmetry_multiplicity
 _atom_site_fract_x
 _atom_site_fract_y
 _atom_site_fract_z
 _atom_site_occupancy
  Lu  Lu0  1  0.83178201  0.16821699  0.75000000  1
  Lu  Lu1  1  0.33643598  0.16821799  0.75000000  1
  Lu  Lu2  1  0.83178201  0.66356502  0.75000000  1
  Lu  Lu3  1  0.16821799  0.83178301  0.25000000  1
  Lu  Lu4  1  0.66356402  0.83178201  0.25000000  1
  Lu  Lu5  1  0.16821799  0.33643498  0.25000000  1
  Sc  Sc0  1  0.66666700  0.33333300  0.25000000  1
  Sc  Sc1  1  0.33333300  0.66666700  0.75000000  1
loop_
_geom_bond_atom_site_label_1
_geom_bond_atom_site_label_2
_geom_bond_distance
_geom_bond_site_symmetry_2
Lu0 Sc0 3.344271 1_555
Lu0 Sc0 3.344271 1_556
Lu0 Lu4 3.366618 1_545
Lu0 Lu4 3.366618 1_546
Lu0 Lu5 3.366621 1_656
Lu0 Lu5 3.366621 1_655
Lu0 Lu1 3.444145 1_555
Lu0 Lu2 3.444157 1_555
Lu0 Sc1 3.476550 1_545
Lu0 Sc1 3.476557 1_655
Lu0 Lu2 3.508848 1_545
Lu0 Lu1 3.508856 1_655
Lu1 Sc0 3.344271 1_555
Lu1 Sc0 3.344271 1_556
Lu1 Lu5 3.366617 1_556
Lu1 Lu5 3.366617 1_555
Lu1 Lu3 3.366618 1_546
Lu1 Lu3 3.366618 1_545
Lu1 Lu2 3.444148 1_555
Lu1 Sc1 3.476549 1_545
Lu1 Sc1 3.476556 1_555
Lu1 Lu2 3.508859 1_445
Lu2 Sc0 3.344275 1_555
Lu2 Sc0 3.344275 1_556
Lu2 Lu4 3.366617 1_555
Lu2 Lu4 3.366617 1_556
Lu2 Lu3 3.366621 1_655
Lu2 Lu3 3.366621 1_656
Lu2 Sc1 3.476551 1_555
Lu2 Sc1 3.476551 1_655
Lu3 Sc1 3.344271 1_555
Lu3 Sc1 3.344271 1_554
Lu3 Lu4 3.444145 1_555
Lu3 Lu5 3.444157 1_555
Lu3 Sc0 3.476550 1_565
Lu3 Sc0 3.476557 1_455
Lu3 Lu5 3.508848 1_565
Lu3 Lu4 3.508856 1_455
Lu4 Sc1 3.344271 1_554
Lu4 Sc1 3.344271 1_555
Lu4 Lu5 3.444148 1_555
Lu4 Sc0 3.476549 1_565
Lu4 Sc0 3.476556 1_555
Lu4 Lu5 3.508859 1_665
Lu5 Sc1 3.344275 1_554
Lu5 Sc1 3.344275 1_555
Lu5 Sc0 3.476551 1_555
Lu5 Sc0 3.476551 1_455
