# generated using pymatgen
data_Tb4Al2O9
_symmetry_space_group_name_H-M   'P 1'
_cell_length_a   10.59832400
_cell_length_b   7.46525000
_cell_length_c   11.28477834
_cell_angle_alpha   71.44645075
_cell_angle_beta   90.00000000
_cell_angle_gamma   90.00000000
_symmetry_Int_Tables_number   1
_chemical_formula_structural   Tb4Al2O9
_chemical_formula_sum   'Tb16 Al8 O36'
_cell_volume   846.43798219
_cell_formula_units_Z   4
loop_
 _symmetry_equiv_pos_site_id
 _symmetry_equiv_pos_as_xyz
  1  'x, y, z'
loop_
 _atom_site_type_symbol
 _atom_site_label
 _atom_site_symmetry_multiplicity
 _atom_site_fract_x
 _atom_site_fract_y
 _atom_site_fract_z
 _atom_site_occupancy
  Tb  Tb0  1  0.60995400  0.47580400  0.28432500  1
  Tb  Tb1  1  0.10995400  0.52419600  0.21567500  1
  Tb  Tb2  1  0.39004600  0.52419600  0.71567500  1
  Tb  Tb3  1  0.89004600  0.47580400  0.78432500  1
  Tb  Tb4  1  0.59566000  0.97622600  0.30530700  1
  Tb  Tb5  1  0.09566000  0.02377400  0.19469300  1
  Tb  Tb6  1  0.40434000  0.02377400  0.69469300  1
  Tb  Tb7  1  0.90434000  0.97622600  0.80530700  1
  Tb  Tb8  1  0.62640200  0.66150900  0.93645500  1
  Tb  Tb9  1  0.12640200  0.33849100  0.56354500  1
  Tb  Tb10  1  0.37359800  0.33849100  0.06354500  1
  Tb  Tb11  1  0.87359800  0.66150900  0.43645500  1
  Tb  Tb12  1  0.62184500  0.16192400  0.91665700  1
  Tb  Tb13  1  0.12184500  0.83807600  0.58334300  1
  Tb  Tb14  1  0.37815500  0.83807600  0.08334300  1
  Tb  Tb15  1  0.87815500  0.16192400  0.41665700  1
  Al  Al0  1  0.68000800  0.78105700  0.62727300  1
  Al  Al1  1  0.18000800  0.21894300  0.87272700  1
  Al  Al2  1  0.31999200  0.21894300  0.37272700  1
  Al  Al3  1  0.81999200  0.78105700  0.12727300  1
  Al  Al4  1  0.67662000  0.34560600  0.61346000  1
  Al  Al5  1  0.17662000  0.65439400  0.88654000  1
  Al  Al6  1  0.32338000  0.65439400  0.38654000  1
  Al  Al7  1  0.82338000  0.34560600  0.11346000  1
  O  O0  1  0.73809100  0.20952200  0.24677600  1
  O  O1  1  0.23809100  0.79047800  0.25322400  1
  O  O2  1  0.26190900  0.79047800  0.75322400  1
  O  O3  1  0.76190900  0.20952200  0.74677600  1
  O  O4  1  0.73742300  0.76710200  0.26731100  1
  O  O5  1  0.23742300  0.23289800  0.23268900  1
  O  O6  1  0.26257700  0.23289800  0.73268900  1
  O  O7  1  0.76257700  0.76710200  0.76731100  1
  O  O8  1  0.51849900  0.78723400  0.65723800  1
  O  O9  1  0.01849900  0.21276600  0.84276200  1
  O  O10  1  0.48150100  0.21276600  0.34276200  1
  O  O11  1  0.98150100  0.78723400  0.15723800  1
  O  O12  1  0.73296700  0.92581100  0.48035900  1
  O  O13  1  0.23296700  0.07418900  0.01964100  1
  O  O14  1  0.26703300  0.07418900  0.51964100  1
  O  O15  1  0.76703300  0.92581100  0.98035900  1
  O  O16  1  0.74013800  0.56575100  0.61449500  1
  O  O17  1  0.24013800  0.43424900  0.88550500  1
  O  O18  1  0.25986200  0.43424900  0.38550500  1
  O  O19  1  0.75986200  0.56575100  0.11449500  1
  O  O20  1  0.72920700  0.35846400  0.46285500  1
  O  O21  1  0.22920700  0.64153600  0.03714500  1
  O  O22  1  0.27079300  0.64153600  0.53714500  1
  O  O23  1  0.77079300  0.35846400  0.96285500  1
  O  O24  1  0.51694700  0.30717600  0.65901200  1
  O  O25  1  0.01694700  0.69282400  0.84098800  1
  O  O26  1  0.48305300  0.69282400  0.34098800  1
  O  O27  1  0.98305300  0.30717600  0.15901200  1
  O  O28  1  0.49393000  0.92255700  0.89342200  1
  O  O29  1  0.99393000  0.07744300  0.60657800  1
  O  O30  1  0.50607000  0.07744300  0.10657800  1
  O  O31  1  0.00607000  0.92255700  0.39342200  1
  O  O32  1  0.50831500  0.43493100  0.89309700  1
  O  O33  1  0.00831500  0.56506900  0.60690300  1
  O  O34  1  0.49168500  0.56506900  0.10690300  1
  O  O35  1  0.99168500  0.43493100  0.39309700  1
loop_
_geom_bond_atom_site_label_1
_geom_bond_atom_site_label_2
_geom_bond_distance
_geom_bond_site_symmetry_2
Al0 O8 1.748255 1_555
Al0 O12 1.758201 1_555
Al0 O16 1.777038 1_555
Al0 O7 1.780228 1_555
Al1 O9 1.748255 1_555
Al1 O13 1.758201 1_556
Al1 O17 1.777038 1_555
Al1 O6 1.780228 1_555
Al2 O10 1.748255 1_555
Al2 O14 1.758201 1_555
Al2 O18 1.777038 1_555
Al2 O5 1.780228 1_555
Al3 O11 1.748255 1_555
Al3 O15 1.758201 1_554
Al3 O19 1.777038 1_555
Al3 O4 1.780228 1_555
Al4 O20 1.761950 1_555
Al4 O24 1.765350 1_555
Al4 O3 1.771962 1_555
Al4 O16 1.779442 1_555
Al5 O21 1.761950 1_556
Al5 O25 1.765350 1_555
Al5 O2 1.771962 1_555
Al5 O17 1.779442 1_555
Al6 O22 1.761950 1_555
Al6 O26 1.765350 1_555
Al6 O1 1.771962 1_555
Al6 O18 1.779442 1_555
Al7 O23 1.761950 1_554
Al7 O27 1.765350 1_555
Al7 O0 1.771962 1_555
Al7 O19 1.779442 1_555
O0 Tb4 2.239667 1_545
O0 Tb15 2.360400 1_555
O0 Tb0 2.551754 1_555
O1 Tb5 2.239667 1_565
O1 Tb14 2.360400 1_555
O1 Tb1 2.551754 1_555
O2 Tb6 2.239667 1_565
O2 Tb13 2.360400 1_555
O2 Tb2 2.551754 1_555
O3 Tb7 2.239667 1_545
O3 Tb12 2.360400 1_555
O3 Tb3 2.551754 1_555
O4 Tb4 2.303133 1_555
O4 Tb11 2.321660 1_555
O4 Tb0 2.514992 1_555
O5 Tb5 2.303133 1_555
O5 Tb10 2.321660 1_555
O5 Tb1 2.514992 1_555
O6 Tb6 2.303133 1_555
O6 Tb9 2.321660 1_555
O6 Tb2 2.514992 1_555
O7 Tb7 2.303133 1_555
O7 Tb8 2.321660 1_555
O7 Tb3 2.514992 1_555
O8 Tb6 2.288149 1_565
O8 Tb2 2.306530 1_555
O9 Tb7 2.288149 1_445
O9 Tb3 2.306530 1_455
O10 Tb4 2.288149 1_545
O10 Tb0 2.306530 1_555
O11 Tb5 2.288149 1_665
O11 Tb1 2.306530 1_655
O12 Tb15 2.277074 1_565
O12 Tb4 2.385055 1_555
O12 Tb11 2.642359 1_555
O13 Tb14 2.277074 1_545
O13 Tb5 2.385055 1_555
O13 Tb10 2.642359 1_555
O14 Tb13 2.277074 1_545
O14 Tb6 2.385055 1_555
O14 Tb9 2.642359 1_555
O15 Tb12 2.277074 1_565
O15 Tb7 2.385055 1_555
O15 Tb8 2.642359 1_555
O16 Tb11 2.373677 1_555
O16 Tb3 2.414350 1_555
O17 Tb10 2.373677 1_556
O17 Tb2 2.414350 1_555
O18 Tb9 2.373677 1_555
O18 Tb1 2.414350 1_555
O19 Tb8 2.373677 1_554
O19 Tb0 2.414350 1_555
O20 Tb0 2.302291 1_555
O20 Tb15 2.324495 1_555
O20 Tb11 2.668277 1_555
O21 Tb1 2.302291 1_555
O21 Tb14 2.324495 1_555
O21 Tb10 2.668277 1_555
O22 Tb2 2.302291 1_555
O22 Tb13 2.324495 1_555
O22 Tb9 2.668277 1_555
O23 Tb3 2.302291 1_555
O23 Tb12 2.324495 1_555
O23 Tb8 2.668277 1_555
O24 Tb2 2.345578 1_555
O24 Tb6 2.349546 1_555
O25 Tb3 2.345578 1_455
O25 Tb7 2.349546 1_455
O26 Tb0 2.345578 1_555
O26 Tb4 2.349546 1_555
O27 Tb1 2.345578 1_655
O27 Tb5 2.349546 1_655
O28 Tb12 2.323345 1_565
O28 Tb8 2.324331 1_555
O28 Tb6 2.328828 1_565
O28 Tb14 2.374137 1_556
O29 Tb13 2.323345 1_645
O29 Tb9 2.324331 1_655
O29 Tb7 2.328828 1_545
O29 Tb15 2.374137 1_555
O30 Tb14 2.323345 1_545
O30 Tb10 2.324331 1_555
O30 Tb4 2.328828 1_545
O30 Tb12 2.374137 1_554
O31 Tb15 2.323345 1_465
O31 Tb11 2.324331 1_455
O31 Tb5 2.328828 1_565
O31 Tb13 2.374137 1_555
O32 Tb2 2.274823 1_555
O32 Tb8 2.278910 1_555
O32 Tb12 2.308100 1_555
O32 Tb10 2.318477 1_556
O33 Tb3 2.274823 1_455
O33 Tb9 2.278910 1_555
O33 Tb13 2.308100 1_555
O33 Tb11 2.318477 1_455
O34 Tb0 2.274823 1_555
O34 Tb10 2.278910 1_555
O34 Tb14 2.308100 1_555
O34 Tb8 2.318477 1_554
O35 Tb1 2.274823 1_655
O35 Tb11 2.278910 1_555
O35 Tb15 2.308100 1_555
O35 Tb9 2.318477 1_655
