# generated using pymatgen
data_Ba3Ta4TiO15
_symmetry_space_group_name_H-M   'P 1'
_cell_length_a   12.76002100
_cell_length_b   4.01854500
_cell_length_c   12.68451842
_cell_angle_alpha   89.95216512
_cell_angle_beta   90.00000000
_cell_angle_gamma   90.00000000
_symmetry_Int_Tables_number   1
_chemical_formula_structural   Ba3Ta4TiO15
_chemical_formula_sum   'Ba6 Ta8 Ti2 O30'
_cell_volume   650.42025482
_cell_formula_units_Z   2
loop_
 _symmetry_equiv_pos_site_id
 _symmetry_equiv_pos_as_xyz
  1  'x, y, z'
loop_
 _atom_site_type_symbol
 _atom_site_label
 _atom_site_symmetry_multiplicity
 _atom_site_fract_x
 _atom_site_fract_y
 _atom_site_fract_z
 _atom_site_occupancy
  Ba  Ba0  1  0.74757100  0.70500600  0.49435800  1
  Ba  Ba1  1  0.25242900  0.70500600  0.99435800  1
  Ba  Ba2  1  0.57262400  0.70847400  0.82854400  1
  Ba  Ba3  1  0.91667600  0.70649000  0.17372000  1
  Ba  Ba4  1  0.08332400  0.70649000  0.67372000  1
  Ba  Ba5  1  0.42737600  0.70847400  0.32854400  1
  Ta  Ta0  1  0.75128400  0.19955700  0.00416600  1
  Ta  Ta1  1  0.24871600  0.19955700  0.50416600  1
  Ta  Ta2  1  0.82395100  0.20944000  0.71406800  1
  Ta  Ta3  1  0.17604900  0.20944000  0.21406800  1
  Ta  Ta4  1  0.96030600  0.20848500  0.42354600  1
  Ta  Ta5  1  0.53597100  0.20675400  0.57401100  1
  Ta  Ta6  1  0.03969400  0.20848500  0.92354600  1
  Ta  Ta7  1  0.46402900  0.20675400  0.07401100  1
  Ti  Ti0  1  0.67032000  0.23989500  0.28403100  1
  Ti  Ti1  1  0.32968000  0.23989500  0.78403100  1
  O  O0  1  0.46848300  0.19873400  0.71702300  1
  O  O1  1  0.03382700  0.20045100  0.28251800  1
  O  O2  1  0.96617300  0.20045100  0.78251800  1
  O  O3  1  0.53151700  0.19873400  0.21702300  1
  O  O4  1  0.60815500  0.19460800  0.43275000  1
  O  O5  1  0.89187100  0.19775500  0.56825900  1
  O  O6  1  0.10812900  0.19775500  0.06825900  1
  O  O7  1  0.39184500  0.19460800  0.93275000  1
  O  O8  1  0.82150200  0.19504700  0.35876500  1
  O  O9  1  0.68254300  0.19854500  0.64111600  1
  O  O10  1  0.17849800  0.19504700  0.85876500  1
  O  O11  1  0.31745700  0.19854500  0.14111600  1
  O  O12  1  0.40595900  0.19159200  0.49395600  1
  O  O13  1  0.09450600  0.18984100  0.50661900  1
  O  O14  1  0.90549400  0.18984100  0.00661900  1
  O  O15  1  0.59404100  0.19159200  0.99395600  1
  O  O16  1  0.75449400  0.18745000  0.15751900  1
  O  O17  1  0.74472000  0.19057800  0.84430300  1
  O  O18  1  0.24550600  0.18745000  0.65751900  1
  O  O19  1  0.25528000  0.19057800  0.34430300  1
  O  O20  1  0.74933000  0.68989400  0.00007100  1
  O  O21  1  0.25067000  0.68989400  0.50007100  1
  O  O22  1  0.67165800  0.68054900  0.29315200  1
  O  O23  1  0.82853100  0.69753100  0.70594500  1
  O  O24  1  0.17146900  0.69753100  0.20594500  1
  O  O25  1  0.32834200  0.68054900  0.79315200  1
  O  O26  1  0.95923300  0.69709500  0.42229500  1
  O  O27  1  0.54398200  0.69723200  0.57926500  1
  O  O28  1  0.04076700  0.69709500  0.92229500  1
  O  O29  1  0.45601800  0.69723200  0.07926500  1
loop_
_geom_bond_atom_site_label_1
_geom_bond_atom_site_label_2
_geom_bond_distance
_geom_bond_site_symmetry_2
Ba0 O22 2.731684 1_555
Ba0 O4 2.764742 1_565
Ba0 O8 2.778560 1_565
Ba0 O27 2.812370 1_555
Ba0 O4 2.825751 1_555
Ba0 O8 2.837884 1_555
Ba0 O9 2.844919 1_565
Ba0 O26 2.851490 1_555
Ba0 O5 2.862346 1_565
Ba0 O23 2.875964 1_555
Ba0 O9 2.879192 1_555
Ba0 O5 2.901883 1_555
Ba1 O25 2.731684 1_555
Ba1 O7 2.764742 1_565
Ba1 O10 2.778560 1_565
Ba1 O29 2.812370 1_556
Ba1 O7 2.825751 1_555
Ba1 O10 2.837884 1_555
Ba1 O11 2.844919 1_566
Ba1 O28 2.851490 1_555
Ba1 O6 2.862346 1_566
Ba1 O24 2.875964 1_556
Ba1 O11 2.879192 1_556
Ba1 O6 2.901883 1_556
Ba2 O0 2.764715 1_565
Ba2 O0 2.822715 1_555
Ba2 O15 2.872797 1_565
Ba2 O17 2.935327 1_565
Ba2 O15 2.963803 1_555
Ba2 O17 3.031963 1_555
Ba3 O16 2.838967 1_565
Ba3 O1 2.843225 1_665
Ba3 O1 2.875711 1_655
Ba3 O14 2.877319 1_565
Ba3 O16 2.945514 1_555
Ba3 O14 2.971684 1_555
Ba4 O18 2.838967 1_565
Ba4 O2 2.843225 1_465
Ba4 O2 2.875711 1_455
Ba4 O13 2.877319 1_565
Ba4 O18 2.945514 1_555
Ba4 O13 2.971684 1_555
Ba5 O3 2.764715 1_565
Ba5 O3 2.822715 1_555
Ba5 O12 2.872797 1_565
Ba5 O19 2.935327 1_565
Ba5 O12 2.963803 1_555
Ba5 O19 3.031963 1_555
O0 Ti1 1.971530 1_555
O0 Ta5 2.008296 1_555
O1 Ta3 2.012078 1_555
O1 Ta4 2.020220 1_455
O2 Ta2 2.012078 1_555
O2 Ta6 2.020220 1_655
O3 Ti0 1.971530 1_555
O3 Ta7 2.008296 1_555
O4 Ta5 2.015327 1_555
O4 Ti0 2.054354 1_555
O5 Ta4 2.033161 1_555
O5 Ta2 2.043077 1_555
O6 Ta6 2.033161 1_554
O6 Ta3 2.043077 1_555
O7 Ta7 2.015327 1_556
O7 Ti1 2.054354 1_555
O8 Ta4 1.953241 1_555
O8 Ti0 2.156897 1_555
O9 Ta2 2.028306 1_555
O9 Ta5 2.055104 1_555
O10 Ta6 1.953241 1_555
O10 Ti1 2.156897 1_555
O11 Ta3 2.028306 1_555
O11 Ta7 2.055104 1_555
O12 Ta5 1.946049 1_555
O12 Ta1 2.010856 1_555
O13 Ta1 1.968356 1_555
O13 Ta4 2.012001 1_455
O14 Ta0 1.968356 1_555
O14 Ta6 2.012001 1_654
O15 Ta7 1.946049 1_556
O15 Ta0 2.010856 1_556
O16 Ti0 1.942625 1_555
O16 Ta0 1.946208 1_555
O17 Ta2 1.938204 1_555
O17 Ta0 2.029865 1_556
O18 Ti1 1.942625 1_555
O18 Ta1 1.946208 1_555
O19 Ta3 1.938204 1_555
O19 Ta1 2.029865 1_555
O20 Ta0 1.971240 1_555
O20 Ta0 2.048957 1_565
O21 Ta1 1.971240 1_555
O21 Ta1 2.048957 1_565
O22 Ti0 1.774742 1_555
O22 Ti0 2.250701 1_565
O23 Ta2 1.964903 1_555
O23 Ta2 2.060623 1_565
O24 Ta3 1.964903 1_555
O24 Ta3 2.060623 1_565
O25 Ti1 1.774742 1_555
O25 Ti1 2.250701 1_565
O26 Ta4 1.963600 1_555
O26 Ta4 2.055164 1_565
O27 Ta5 1.974837 1_555
O27 Ta5 2.051115 1_565
O28 Ta6 1.963600 1_555
O28 Ta6 2.055164 1_565
O29 Ta7 1.974837 1_555
O29 Ta7 2.051115 1_565
