# generated using pymatgen
data_Nd6Co2Sn
_symmetry_space_group_name_H-M   'P 1'
_cell_length_a   8.69196826
_cell_length_b   8.69196826
_cell_length_c   8.69196826
_cell_angle_alpha   113.30110214
_cell_angle_beta   108.55310333
_cell_angle_gamma   106.63378354
_symmetry_Int_Tables_number   1
_chemical_formula_structural   Nd6Co2Sn
_chemical_formula_sum   'Nd12 Co4 Sn2'
_cell_volume   503.67530052
_cell_formula_units_Z   2
loop_
 _symmetry_equiv_pos_site_id
 _symmetry_equiv_pos_as_xyz
  1  'x, y, z'
loop_
 _atom_site_type_symbol
 _atom_site_label
 _atom_site_symmetry_multiplicity
 _atom_site_fract_x
 _atom_site_fract_y
 _atom_site_fract_z
 _atom_site_occupancy
  Nd  Nd0  1  0.43564200  0.23090900  0.20473200  1
  Nd  Nd1  1  0.56435800  0.76909100  0.79526800  1
  Nd  Nd2  1  0.02617700  0.23090900  0.79526800  1
  Nd  Nd3  1  0.97382300  0.76909100  0.20473200  1
  Nd  Nd4  1  0.18432500  0.28854200  0.47286700  1
  Nd  Nd5  1  0.81567500  0.71145800  0.52713300  1
  Nd  Nd6  1  0.18432500  0.71145800  0.89578400  1
  Nd  Nd7  1  0.81567500  0.28854200  0.10421600  1
  Nd  Nd8  1  0.32296800  0.63658900  0.31362100  1
  Nd  Nd9  1  0.67703200  0.36341100  0.68637900  1
  Nd  Nd10  1  0.32296800  0.00934700  0.68637900  1
  Nd  Nd11  1  0.67703200  0.99065300  0.31362100  1
  Co  Co0  1  0.35086800  0.00000000  0.35086800  1
  Co  Co1  1  0.64913200  0.00000000  0.64913200  1
  Co  Co2  1  0.10889300  0.60889300  0.50000000  1
  Co  Co3  1  0.89110700  0.39110700  0.50000000  1
  Sn  Sn0  1  0.50000000  0.50000000  0.00000000  1
  Sn  Sn1  1  0.00000000  0.00000000  0.00000000  1
loop_
_geom_bond_atom_site_label_1
_geom_bond_atom_site_label_2
_geom_bond_distance
_geom_bond_site_symmetry_2
Nd0 Sn1 3.173104 1_555
Nd0 Sn0 3.482450 1_555
Nd0 Nd11 3.530927 1_545
Nd0 Nd9 3.530932 1_555
Nd0 Nd7 3.627818 1_555
Nd0 Nd5 3.627819 1_555
Nd0 Nd6 3.660205 1_544
Nd0 Nd4 3.660213 1_555
Nd0 Nd10 3.770322 1_554
Nd0 Nd8 3.770329 1_555
Nd1 Sn1 3.173104 1_666
Nd1 Sn0 3.482450 1_556
Nd1 Nd10 3.530927 1_565
Nd1 Nd8 3.530932 1_555
Nd1 Nd6 3.627818 1_555
Nd1 Nd4 3.627819 1_555
Nd1 Nd7 3.660205 1_566
Nd1 Nd5 3.660213 1_555
Nd1 Nd11 3.770322 1_556
Nd1 Nd9 3.770329 1_555
Nd2 Sn1 3.173097 1_556
Nd2 Sn0 3.482451 1_556
Nd2 Nd9 3.530933 1_455
Nd2 Nd6 3.627819 1_555
Nd2 Nd4 3.627822 1_555
Nd2 Nd7 3.660198 1_456
Nd2 Nd5 3.660205 1_445
Nd2 Nd8 3.770324 1_556
Nd3 Sn1 3.173097 1_665
Nd3 Sn0 3.482451 1_555
Nd3 Nd8 3.530933 1_655
Nd3 Nd7 3.627819 1_555
Nd3 Nd5 3.627822 1_555
Nd3 Nd6 3.660198 1_654
Nd3 Nd4 3.660205 1_665
Nd3 Nd9 3.770324 1_554
Nd4 Sn1 3.332290 1_555
Nd4 Sn0 3.788154 1_556
Nd5 Sn1 3.332290 1_666
Nd5 Sn0 3.788154 1_555
Nd6 Sn1 3.332289 1_566
Nd6 Sn0 3.788153 1_556
Nd7 Sn1 3.332289 1_655
Nd7 Sn0 3.788153 1_555
Nd8 Sn0 3.516120 1_555
Nd9 Sn0 3.516120 1_556
Nd10 Sn0 3.516120 1_556
Nd10 Nd3 3.530933 1_445
Nd10 Nd2 3.770324 1_555
Nd11 Sn0 3.516120 1_555
Nd11 Nd2 3.530933 1_665
Nd11 Nd3 3.770324 1_555
Co0 Nd3 2.819654 1_445
Co0 Nd0 2.819656 1_555
Co0 Nd11 2.973855 1_545
Co0 Nd9 2.973855 1_555
Co0 Nd10 2.973855 1_555
Co0 Nd8 2.973855 1_545
Co0 Co1 3.027386 1_555
Co0 Nd6 3.234399 1_544
Co0 Nd4 3.234406 1_555
Co1 Nd2 2.819654 1_655
Co1 Nd1 2.819656 1_545
Co1 Nd8 2.973855 1_545
Co1 Nd11 2.973855 1_545
Co1 Nd9 2.973855 1_555
Co1 Nd10 2.973855 1_555
Co1 Nd7 3.234399 1_556
Co1 Nd5 3.234406 1_545
Co2 Co3 2.261701 1_455
Co2 Nd10 2.848687 1_565
Co2 Nd8 2.848687 1_555
Co2 Nd5 2.977064 1_455
Co2 Nd4 2.977064 1_555
Co2 Nd7 2.977068 1_455
Co2 Nd6 2.977072 1_555
Co2 Nd1 3.427762 1_555
Co2 Nd3 3.427769 1_455
Co3 Nd9 2.848687 1_555
Co3 Nd11 2.848687 1_545
Co3 Nd5 2.977064 1_555
Co3 Nd4 2.977064 1_655
Co3 Nd6 2.977068 1_655
Co3 Nd7 2.977072 1_555
Co3 Nd0 3.427762 1_555
Co3 Nd2 3.427769 1_655
