# generated using pymatgen
data_CeSe2
_symmetry_space_group_name_H-M   'P 1'
_cell_length_a   5.53425653
_cell_length_b   9.20900146
_cell_length_c   11.16575488
_cell_angle_alpha   109.50879173
_cell_angle_beta   89.69690170
_cell_angle_gamma   107.87615082
_symmetry_Int_Tables_number   1
_chemical_formula_structural   CeSe2
_chemical_formula_sum   'Ce6 Se12'
_cell_volume   507.49019524
_cell_formula_units_Z   6
loop_
 _symmetry_equiv_pos_site_id
 _symmetry_equiv_pos_as_xyz
  1  'x, y, z'
loop_
 _atom_site_type_symbol
 _atom_site_label
 _atom_site_symmetry_multiplicity
 _atom_site_fract_x
 _atom_site_fract_y
 _atom_site_fract_z
 _atom_site_occupancy
  Ce  Ce0  1  0.82166200  0.15548100  0.87712000  1
  Ce  Ce1  1  0.17833800  0.84451900  0.12288000  1
  Ce  Ce2  1  0.48752200  0.49108100  0.74954400  1
  Ce  Ce3  1  0.51247800  0.50891900  0.25045600  1
  Ce  Ce4  1  0.14980600  0.81283700  0.60910600  1
  Ce  Ce5  1  0.85019400  0.18716300  0.39089400  1
  Se  Se0  1  0.90126700  0.82581300  0.85976000  1
  Se  Se1  1  0.09873300  0.17418700  0.14024000  1
  Se  Se2  1  0.96499100  0.44229700  0.64618500  1
  Se  Se3  1  0.03500900  0.55770300  0.35381500  1
  Se  Se4  1  0.67552200  0.85994400  0.55979400  1
  Se  Se5  1  0.32447800  0.14005600  0.44020600  1
  Se  Se6  1  0.40288700  0.82575000  0.85887600  1
  Se  Se7  1  0.59711300  0.17425000  0.14112400  1
  Se  Se8  1  0.32358800  0.15866600  0.77381800  1
  Se  Se9  1  0.67641200  0.84133400  0.22618200  1
  Se  Se10  1  0.24500800  0.50021800  0.00038900  1
  Se  Se11  1  0.75499200  0.49978200  0.99961100  1
loop_
_geom_bond_atom_site_label_1
_geom_bond_atom_site_label_2
_geom_bond_distance
_geom_bond_site_symmetry_2
Ce0 Se8 2.997678 1_655
Ce0 Se8 3.005876 1_555
Ce0 Se0 3.142546 1_545
Ce0 Se11 3.142671 1_555
Ce0 Se6 3.147149 1_545
Ce0 Se10 3.164109 1_656
Ce0 Se7 3.164895 1_556
Ce0 Se1 3.249594 1_656
Ce0 Se4 3.585203 1_545
Ce1 Se9 2.997678 1_455
Ce1 Se9 3.005876 1_555
Ce1 Se1 3.142546 1_565
Ce1 Se10 3.142671 1_555
Ce1 Se7 3.147149 1_565
Ce1 Se11 3.164109 1_454
Ce1 Se6 3.164895 1_554
Ce1 Se0 3.249594 1_454
Ce1 Se5 3.585203 1_565
Ce2 Se2 2.964422 1_455
Ce2 Se2 2.977657 1_555
Ce2 Se8 3.018957 1_555
Ce2 Se0 3.069608 1_555
Ce2 Se10 3.086333 1_556
Ce2 Se6 3.094427 1_555
Ce2 Se11 3.132945 1_555
Ce2 Se5 3.738821 1_555
Ce3 Se3 2.964422 1_655
Ce3 Se3 2.977657 1_555
Ce3 Se9 3.018957 1_555
Ce3 Se1 3.069608 1_555
Ce3 Se11 3.086333 1_554
Ce3 Se7 3.094427 1_555
Ce3 Se10 3.132945 1_555
Ce3 Se4 3.738821 1_555
Ce4 Se4 2.873126 1_455
Ce4 Se4 2.885129 1_555
Ce4 Se8 2.945547 1_565
Ce4 Se3 2.946002 1_555
Ce4 Se6 3.077537 1_555
Ce4 Se0 3.094508 1_455
Ce4 Se2 3.414351 1_455
Ce5 Se5 2.873126 1_655
Ce5 Se5 2.885129 1_555
Ce5 Se9 2.945547 1_545
Ce5 Se2 2.946002 1_555
Ce5 Se7 3.077537 1_555
Ce5 Se1 3.094508 1_655
Ce5 Se3 3.414351 1_655
Se0 Se6 2.758054 1_555
Se0 Se6 2.776237 1_655
Se1 Se7 2.758054 1_555
Se1 Se7 2.776237 1_455
Se10 Se11 2.710700 1_454
Se10 Se11 2.823581 1_554
