# generated using pymatgen
data_SiSbO4
_symmetry_space_group_name_H-M   'P 1'
_cell_length_a   10.33250060
_cell_length_b   10.33250060
_cell_length_c   10.33250060
_cell_angle_alpha   109.47122063
_cell_angle_beta   109.47122063
_cell_angle_gamma   109.47122063
_symmetry_Int_Tables_number   1
_chemical_formula_structural   SiSbO4
_chemical_formula_sum   'Si12 Sb12 O48'
_cell_volume   849.16957651
_cell_formula_units_Z   12
loop_
 _symmetry_equiv_pos_site_id
 _symmetry_equiv_pos_as_xyz
  1  'x, y, z'
loop_
 _atom_site_type_symbol
 _atom_site_label
 _atom_site_symmetry_multiplicity
 _atom_site_fract_x
 _atom_site_fract_y
 _atom_site_fract_z
 _atom_site_occupancy
  Si  Si0  1  0.12500000  0.87500000  0.25000000  1
  Si  Si1  1  0.25000000  0.12500000  0.87500000  1
  Si  Si2  1  0.75000000  0.37500000  0.62500000  1
  Si  Si3  1  0.62500000  0.37500000  0.25000000  1
  Si  Si4  1  0.62500000  0.75000000  0.37500000  1
  Si  Si5  1  0.37500000  0.62500000  0.75000000  1
  Si  Si6  1  0.12500000  0.75000000  0.87500000  1
  Si  Si7  1  0.75000000  0.87500000  0.12500000  1
  Si  Si8  1  0.87500000  0.25000000  0.12500000  1
  Si  Si9  1  0.37500000  0.25000000  0.62500000  1
  Si  Si10  1  0.25000000  0.62500000  0.37500000  1
  Si  Si11  1  0.87500000  0.12500000  0.75000000  1
  Sb  Sb0  1  0.87500000  0.62500000  0.25000000  1
  Sb  Sb1  1  0.62500000  0.25000000  0.87500000  1
  Sb  Sb2  1  0.87500000  0.75000000  0.62500000  1
  Sb  Sb3  1  0.75000000  0.62500000  0.87500000  1
  Sb  Sb4  1  0.25000000  0.87500000  0.62500000  1
  Sb  Sb5  1  0.62500000  0.87500000  0.75000000  1
  Sb  Sb6  1  0.12500000  0.37500000  0.75000000  1
  Sb  Sb7  1  0.37500000  0.75000000  0.12500000  1
  Sb  Sb8  1  0.12500000  0.25000000  0.37500000  1
  Sb  Sb9  1  0.25000000  0.37500000  0.12500000  1
  Sb  Sb10  1  0.75000000  0.12500000  0.37500000  1
  Sb  Sb11  1  0.37500000  0.12500000  0.25000000  1
  O  O0  1  0.47314600  0.37047400  0.27550400  1
  O  O1  1  0.30235900  0.89732900  0.02685400  1
  O  O2  1  0.60267100  0.90503000  0.12952600  1
  O  O3  1  0.59497000  0.19764100  0.22449600  1
  O  O4  1  0.12952600  0.02685400  0.22449600  1
  O  O5  1  0.19764100  0.22449600  0.59497000  1
  O  O6  1  0.19764100  0.47314600  0.60267100  1
  O  O7  1  0.22449600  0.59497000  0.19764100  1
  O  O8  1  0.37047400  0.59497000  0.89732900  1
  O  O9  1  0.90503000  0.27550400  0.30235900  1
  O  O10  1  0.27550400  0.30235900  0.90503000  1
  O  O11  1  0.22449600  0.12952600  0.02685400  1
  O  O12  1  0.47314600  0.60267100  0.19764100  1
  O  O13  1  0.89732900  0.37047400  0.59497000  1
  O  O14  1  0.02685400  0.22449600  0.12952600  1
  O  O15  1  0.60267100  0.19764100  0.47314600  1
  O  O16  1  0.59497000  0.89732900  0.37047400  1
  O  O17  1  0.02685400  0.30235900  0.89732900  1
  O  O18  1  0.90503000  0.12952600  0.60267100  1
  O  O19  1  0.62952600  0.40503000  0.10267100  1
  O  O20  1  0.37047400  0.27550400  0.47314600  1
  O  O21  1  0.27550400  0.47314600  0.37047400  1
  O  O22  1  0.89732900  0.02685400  0.30235900  1
  O  O23  1  0.30235900  0.90503000  0.27550400  1
  O  O24  1  0.52685400  0.62952600  0.72449600  1
  O  O25  1  0.69764100  0.10267100  0.97314600  1
  O  O26  1  0.39732900  0.09497000  0.87047400  1
  O  O27  1  0.40503000  0.80235900  0.77550400  1
  O  O28  1  0.87047400  0.97314600  0.77550400  1
  O  O29  1  0.80235900  0.77550400  0.40503000  1
  O  O30  1  0.80235900  0.52685400  0.39732900  1
  O  O31  1  0.77550400  0.40503000  0.80235900  1
  O  O32  1  0.69764100  0.09497000  0.72449600  1
  O  O33  1  0.10267100  0.97314600  0.69764100  1
  O  O34  1  0.72449600  0.52685400  0.62952600  1
  O  O35  1  0.62952600  0.72449600  0.52685400  1
  O  O36  1  0.87047400  0.39732900  0.09497000  1
  O  O37  1  0.09497000  0.87047400  0.39732900  1
  O  O38  1  0.97314600  0.69764100  0.10267100  1
  O  O39  1  0.40503000  0.10267100  0.62952600  1
  O  O40  1  0.39732900  0.80235900  0.52685400  1
  O  O41  1  0.97314600  0.77550400  0.87047400  1
  O  O42  1  0.10267100  0.62952600  0.40503000  1
  O  O43  1  0.52685400  0.39732900  0.80235900  1
  O  O44  1  0.77550400  0.87047400  0.97314600  1
  O  O45  1  0.72449600  0.69764100  0.09497000  1
  O  O46  1  0.09497000  0.72449600  0.69764100  1
  O  O47  1  0.12952600  0.60267100  0.90503000  1
loop_
_geom_bond_atom_site_label_1
_geom_bond_atom_site_label_2
_geom_bond_distance
_geom_bond_site_symmetry_2
O0 Si3 1.663862 1_555
O0 Sb11 2.278699 1_555
O0 Sb9 2.338068 1_555
O1 Si6 1.663869 1_554
O1 Sb7 2.278705 1_555
O1 Sb11 2.338065 1_565
O2 Si7 1.663872 1_555
O2 Sb10 2.278699 1_565
O2 Sb7 2.338060 1_555
O3 Si3 1.663872 1_555
O3 Sb11 2.278699 1_555
O3 Sb10 2.338060 1_555
O4 Si0 1.663862 1_545
O4 Sb11 2.278699 1_555
O4 Sb8 2.338068 1_555
O5 Si9 1.663872 1_555
O5 Sb8 2.278699 1_555
O5 Sb6 2.338060 1_555
O6 Si5 1.663869 1_555
O6 Sb6 2.278705 1_555
O6 Sb8 2.338065 1_555
O7 Si10 1.663872 1_555
O7 Sb9 2.278699 1_555
O7 Sb7 2.338060 1_555
O8 Si5 1.663872 1_555
O8 Sb6 2.278699 1_555
O8 Sb7 2.338060 1_556
O9 Si8 1.663872 1_555
O9 Sb8 2.278699 1_655
O9 Sb10 2.338060 1_555
O10 Si1 1.663872 1_555
O10 Sb9 2.278699 1_556
O10 Sb6 2.338060 1_555
O11 Si1 1.663862 1_554
O11 Sb9 2.278699 1_555
O11 Sb11 2.338068 1_555
O12 Si4 1.663869 1_555
O12 Sb7 2.278705 1_555
O12 Sb9 2.338065 1_555
O13 Si2 1.663872 1_555
O13 Sb10 2.278699 1_555
O13 Sb6 2.338060 1_655
O14 Si8 1.663862 1_455
O14 Sb8 2.278699 1_555
O14 Sb9 2.338068 1_555
O15 Si2 1.663869 1_555
O15 Sb10 2.278705 1_555
O15 Sb11 2.338065 1_555
O16 Si4 1.663872 1_555
O16 Sb7 2.278699 1_555
O16 Sb10 2.338060 1_565
O17 Si11 1.663869 1_455
O17 Sb6 2.278705 1_555
O17 Sb9 2.338065 1_556
O18 Si11 1.663872 1_555
O18 Sb6 2.278699 1_655
O18 Sb10 2.338060 1_555
O19 Si3 1.663872 1_555
O19 Sb0 2.278699 1_555
O19 Sb1 2.338060 1_554
O20 Si9 1.663862 1_555
O20 Sb8 2.278699 1_555
O20 Sb11 2.338068 1_555
O21 Si10 1.663862 1_555
O21 Sb9 2.278699 1_555
O21 Sb8 2.338068 1_555
O22 Si7 1.663869 1_545
O22 Sb10 2.278705 1_555
O22 Sb8 2.338065 1_655
O23 Si0 1.663872 1_555
O23 Sb11 2.278699 1_565
O23 Sb7 2.338060 1_555
O24 Si5 1.663862 1_555
O24 Sb5 2.278699 1_555
O24 Sb3 2.338068 1_555
O25 Si8 1.663869 1_556
O25 Sb1 2.278705 1_555
O25 Sb5 2.338065 1_545
O26 Si1 1.663872 1_555
O26 Sb4 2.278699 1_545
O26 Sb1 2.338060 1_555
O27 Si5 1.663872 1_555
O27 Sb5 2.278699 1_555
O27 Sb4 2.338060 1_555
O28 Si11 1.663862 1_565
O28 Sb5 2.278699 1_555
O28 Sb2 2.338068 1_555
O29 Si4 1.663872 1_555
O29 Sb2 2.278699 1_555
O29 Sb0 2.338060 1_555
O30 Si3 1.663869 1_555
O30 Sb0 2.278705 1_555
O30 Sb2 2.338065 1_555
O31 Si2 1.663872 1_555
O31 Sb3 2.278699 1_555
O31 Sb1 2.338060 1_555
O32 Si11 1.663872 1_555
O32 Sb5 2.278699 1_545
O32 Sb1 2.338060 1_555
O33 Si1 1.663869 1_565
O33 Sb4 2.278705 1_555
O33 Sb2 2.338065 1_455
O34 Si2 1.663862 1_555
O34 Sb3 2.278699 1_555
O34 Sb2 2.338068 1_555
O35 Si4 1.663862 1_555
O35 Sb2 2.278699 1_555
O35 Sb5 2.338068 1_555
O36 Si8 1.663872 1_555
O36 Sb1 2.278699 1_554
O36 Sb0 2.338060 1_555
O37 Si0 1.663872 1_555
O37 Sb0 2.278699 1_455
O37 Sb4 2.338060 1_555
O38 Si0 1.663869 1_655
O38 Sb0 2.278705 1_555
O38 Sb3 2.338065 1_554
O39 Si9 1.663872 1_555
O39 Sb1 2.278699 1_555
O39 Sb4 2.338060 1_545
O40 Si10 1.663869 1_555
O40 Sb4 2.278705 1_555
O40 Sb5 2.338065 1_555
O41 Si6 1.663862 1_655
O41 Sb2 2.278699 1_555
O41 Sb3 2.338068 1_555
O42 Si10 1.663872 1_555
O42 Sb4 2.278699 1_555
O42 Sb0 2.338060 1_455
O43 Si9 1.663869 1_555
O43 Sb1 2.278705 1_555
O43 Sb3 2.338065 1_555
O44 Si7 1.663862 1_556
O44 Sb3 2.278699 1_555
O44 Sb5 2.338068 1_555
O45 Si7 1.663872 1_555
O45 Sb3 2.278699 1_554
O45 Sb0 2.338060 1_555
O46 Si6 1.663872 1_555
O46 Sb2 2.278699 1_455
O46 Sb4 2.338060 1_555
O47 Si6 1.663872 1_555
O47 Sb7 2.278699 1_556
O47 Sb6 2.338060 1_555
