# generated using pymatgen
data_U7Se12
_symmetry_space_group_name_H-M   'P 1'
_cell_length_a   4.02697686
_cell_length_b   11.62553936
_cell_length_c   11.62553991
_cell_angle_alpha   120.00000200
_cell_angle_beta   90.00000000
_cell_angle_gamma   90.00000000
_symmetry_Int_Tables_number   1
_chemical_formula_structural   U7Se12
_chemical_formula_sum   'U7 Se12'
_cell_volume   471.34184672
_cell_formula_units_Z   1
loop_
 _symmetry_equiv_pos_site_id
 _symmetry_equiv_pos_as_xyz
  1  'x, y, z'
loop_
 _atom_site_type_symbol
 _atom_site_label
 _atom_site_symmetry_multiplicity
 _atom_site_fract_x
 _atom_site_fract_y
 _atom_site_fract_z
 _atom_site_occupancy
  U  U0  1  0.75000000  -0.00000000  -0.00000000  1
  U  U1  1  0.75000000  0.42844227  0.27922134  1
  U  U2  1  0.75000000  0.72077866  0.14922092  1
  U  U3  1  0.75000000  0.85077908  0.57155773  1
  U  U4  1  0.25000000  0.55921966  0.70881983  1
  U  U5  1  0.25000000  0.29118017  0.85039982  1
  U  U6  1  0.25000000  0.14960018  0.44078034  1
  Se  Se0  1  0.75000000  0.24871937  0.99530709  1
  Se  Se1  1  0.75000000  0.00469291  0.25341229  1
  Se  Se2  1  0.75000000  0.74658771  0.75128063  1
  Se  Se3  1  0.25000000  0.79221233  0.00218102  1
  Se  Se4  1  0.25000000  -0.00218102  0.79003131  1
  Se  Se5  1  0.25000000  0.20996869  0.20778767  1
  Se  Se6  1  0.75000000  0.14077185  0.62940523  1
  Se  Se7  1  0.75000000  0.37059477  0.51136662  1
  Se  Se8  1  0.75000000  0.48863338  0.85922815  1
  Se  Se9  1  0.25000000  0.86006121  0.38582550  1
  Se  Se10  1  0.25000000  0.61417450  0.47423572  1
  Se  Se11  1  0.25000000  0.52576428  0.13993879  1
loop_
_geom_bond_atom_site_label_1
_geom_bond_atom_site_label_2
_geom_bond_distance
_geom_bond_site_symmetry_2
Se0 U5 2.822649 1_555
Se0 U5 2.822649 1_655
Se0 U1 2.891974 1_556
Se0 U0 2.919158 1_556
Se1 U6 2.822649 1_655
Se1 U6 2.822649 1_555
Se1 U2 2.891974 1_545
Se1 U0 2.919158 1_555
Se2 U4 2.822649 1_555
Se2 U4 2.822649 1_655
Se2 U3 2.891974 1_555
Se2 U0 2.919158 1_566
Se3 U2 3.014216 1_455
Se3 U2 3.014216 1_555
Se3 U4 3.119359 1_554
Se3 U0 3.154578 1_465
Se3 U0 3.154578 1_565
Se4 U3 3.014216 1_545
Se4 U3 3.014216 1_445
Se4 U5 3.119359 1_555
Se4 U0 3.154578 1_456
Se4 U0 3.154578 1_556
Se5 U1 3.014216 1_555
Se5 U1 3.014216 1_455
Se5 U6 3.119359 1_555
Se5 U0 3.154578 1_455
Se5 U0 3.154578 1_555
Se6 U6 3.016354 1_555
Se6 U6 3.016354 1_655
Se6 U5 3.036435 1_655
Se6 U5 3.036435 1_555
Se6 U3 3.090443 1_545
Se7 U4 3.016354 1_555
Se7 U4 3.016354 1_655
Se7 U6 3.036435 1_555
Se7 U6 3.036435 1_655
Se7 U1 3.090443 1_555
Se8 U5 3.016354 1_655
Se8 U5 3.016354 1_555
Se8 U4 3.036435 1_655
Se8 U4 3.036435 1_555
Se8 U2 3.090443 1_556
Se9 U3 2.993508 1_455
Se9 U3 2.993508 1_555
Se9 U6 3.096440 1_565
Se9 U2 3.128611 1_555
Se9 U2 3.128611 1_455
Se10 U1 2.993508 1_455
Se10 U1 2.993508 1_555
Se10 U4 3.096440 1_555
Se10 U3 3.128611 1_455
Se10 U3 3.128611 1_555
Se11 U2 2.993508 1_455
Se11 U2 2.993508 1_555
Se11 U5 3.096440 1_554
Se11 U1 3.128611 1_555
Se11 U1 3.128611 1_455
