# generated using pymatgen
data_MgSi2
_symmetry_space_group_name_H-M   'P 1'
_cell_length_a   4.61344194
_cell_length_b   3.57433689
_cell_length_c   14.39938157
_cell_angle_alpha   91.00349015
_cell_angle_beta   72.59201982
_cell_angle_gamma   70.01748785
_symmetry_Int_Tables_number   1
_chemical_formula_structural   MgSi2
_chemical_formula_sum   'Mg4 Si8'
_cell_volume   211.02310525
_cell_formula_units_Z   4
loop_
 _symmetry_equiv_pos_site_id
 _symmetry_equiv_pos_as_xyz
  1  'x, y, z'
loop_
 _atom_site_type_symbol
 _atom_site_label
 _atom_site_symmetry_multiplicity
 _atom_site_fract_x
 _atom_site_fract_y
 _atom_site_fract_z
 _atom_site_occupancy
  Mg  Mg0  1  0.49904200  0.83306300  0.87517000  1
  Mg  Mg1  1  0.13645900  0.51051800  0.05376300  1
  Mg  Mg2  1  0.50086100  0.83360400  0.37504600  1
  Mg  Mg3  1  0.86252700  0.15607600  0.69617600  1
  Si  Si0  1  0.44954100  0.84113400  0.16290900  1
  Si  Si1  1  0.87133700  0.14904000  0.93638400  1
  Si  Si2  1  0.55039800  0.82573900  0.58698600  1
  Si  Si3  1  0.85136100  0.18256200  0.46853400  1
  Si  Si4  1  0.12823300  0.51751000  0.81351700  1
  Si  Si5  1  0.79383600  0.18744900  0.21455000  1
  Si  Si6  1  0.14982500  0.48379800  0.28143200  1
  Si  Si7  1  0.20649900  0.47947600  0.53552200  1
loop_
_geom_bond_atom_site_label_1
_geom_bond_atom_site_label_2
_geom_bond_distance
_geom_bond_site_symmetry_2
Mg0 Si1 2.577029 1_465
Mg0 Si4 2.582927 1_655
Mg0 Si4 2.679397 1_555
Mg0 Si1 2.683155 1_565
Mg0 Si1 2.795691 1_555
Mg0 Si4 2.797161 1_565
Mg1 Si1 2.874495 1_454
Mg1 Si0 2.881787 1_455
Mg1 Si5 2.888553 1_455
Mg1 Si0 2.900448 1_555
Mg1 Si5 2.951829 1_465
Mg1 Si1 3.004295 1_464
Mg1 Si0 3.067389 1_545
Mg1 Si1 3.085659 1_554
Mg2 Si6 2.704035 1_655
Mg2 Si3 2.705501 1_465
Mg2 Si5 2.858172 1_565
Mg2 Si7 2.861055 1_555
Mg2 Si7 2.882024 1_565
Mg2 Si5 2.883122 1_555
Mg2 Si3 2.933388 1_565
Mg2 Si6 2.938404 1_555
Mg2 Si3 2.946597 1_555
Mg2 Si6 2.946931 1_565
Mg2 Si2 3.127693 1_555
Mg2 Si0 3.133509 1_555
Mg3 Si4 2.876050 1_655
Mg3 Si2 2.885398 1_645
Mg3 Si7 2.890801 1_655
Mg3 Si2 2.896801 1_545
Mg3 Si7 2.950062 1_645
Mg3 Si4 3.004864 1_645
Mg3 Si2 3.066869 1_555
Mg3 Si4 3.083405 1_555
Si0 Si6 2.515421 1_555
Si0 Si6 2.526080 1_565
Si0 Si5 2.574192 1_565
Si0 Si5 2.601184 1_555
Si0 Si5 2.701613 1_465
Si1 Si4 2.482568 1_655
Si1 Si4 2.531237 1_645
Si2 Si3 2.516588 1_565
Si2 Si3 2.527081 1_555
Si2 Si7 2.571295 1_555
Si2 Si7 2.599369 1_565
Si2 Si7 2.703384 1_655
Si3 Si7 2.615201 1_655
Si3 Si7 2.645129 1_555
Si3 Si7 2.854244 1_645
Si5 Si6 2.616563 1_655
Si5 Si6 2.641626 1_555
Si5 Si6 2.856308 1_645
