# generated using pymatgen
data_Na2Mg(SO6)2
_symmetry_space_group_name_H-M   'P 1'
_cell_length_a   8.64399400
_cell_length_b   5.17771600
_cell_length_c   11.43829419
_cell_angle_alpha   82.97006383
_cell_angle_beta   90.00000000
_cell_angle_gamma   90.00000000
_symmetry_Int_Tables_number   1
_chemical_formula_structural   Na2Mg(SO6)2
_chemical_formula_sum   'Na4 Mg2 S4 O24'
_cell_volume   508.08542044
_cell_formula_units_Z   2
loop_
 _symmetry_equiv_pos_site_id
 _symmetry_equiv_pos_as_xyz
  1  'x, y, z'
loop_
 _atom_site_type_symbol
 _atom_site_label
 _atom_site_symmetry_multiplicity
 _atom_site_fract_x
 _atom_site_fract_y
 _atom_site_fract_z
 _atom_site_occupancy
  Na  Na0  1  0.43395900  0.11547700  0.13909600  1
  Na  Na1  1  0.93395900  0.88452300  0.36090400  1
  Na  Na2  1  0.56604100  0.88452300  0.86090400  1
  Na  Na3  1  0.06604100  0.11547700  0.63909600  1
  Mg  Mg0  1  0.50000000  0.00000000  0.50000000  1
  Mg  Mg1  1  0.00000000  0.00000000  0.00000000  1
  S  S0  1  0.20939900  0.36824900  0.36263900  1
  S  S1  1  0.70939900  0.63175100  0.13736100  1
  S  S2  1  0.79060100  0.63175100  0.63736100  1
  S  S3  1  0.29060100  0.36824900  0.86263900  1
  O  O0  1  0.21357500  0.32229000  0.23437700  1
  O  O1  1  0.71357500  0.67771000  0.26562300  1
  O  O2  1  0.78642500  0.67771000  0.76562300  1
  O  O3  1  0.28642500  0.32229000  0.73437700  1
  O  O4  1  0.36167800  0.29806000  0.41820400  1
  O  O5  1  0.86167800  0.70194000  0.08179600  1
  O  O6  1  0.63832200  0.70194000  0.58179600  1
  O  O7  1  0.13832200  0.29806000  0.91820400  1
  O  O8  1  0.08351400  0.22272900  0.42658400  1
  O  O9  1  0.58351400  0.77727100  0.07341600  1
  O  O10  1  0.91648600  0.77727100  0.57341600  1
  O  O11  1  0.41648600  0.22272900  0.92658400  1
  O  O12  1  0.18315000  0.65360700  0.35506800  1
  O  O13  1  0.68315000  0.34639300  0.14493200  1
  O  O14  1  0.81685000  0.34639300  0.64493200  1
  O  O15  1  0.31685000  0.65360700  0.85506800  1
  O  O16  1  0.50193800  0.90871100  0.33028300  1
  O  O17  1  0.00193800  0.09128900  0.16971700  1
  O  O18  1  0.49806200  0.09128900  0.66971700  1
  O  O19  1  0.99806200  0.90871100  0.83028300  1
  O  O20  1  0.19809100  0.89211100  0.09771200  1
  O  O21  1  0.69809100  0.10788900  0.40228800  1
  O  O22  1  0.80190900  0.10788900  0.90228800  1
  O  O23  1  0.30190900  0.89211100  0.59771200  1
loop_
_geom_bond_atom_site_label_1
_geom_bond_atom_site_label_2
_geom_bond_distance
_geom_bond_site_symmetry_2
Na0 O9 2.371519 1_545
Na0 O16 2.387609 1_545
Na0 O20 2.419195 1_545
Na0 O11 2.430935 1_554
Na0 O13 2.468447 1_555
Na0 O0 2.499822 1_555
Na1 O8 2.371519 1_665
Na1 O17 2.387609 1_665
Na1 O21 2.419195 1_565
Na1 O10 2.430935 1_555
Na1 O12 2.468447 1_655
Na1 O1 2.499822 1_555
Na2 O11 2.371519 1_565
Na2 O18 2.387609 1_565
Na2 O22 2.419195 1_565
Na2 O9 2.430935 1_556
Na2 O15 2.468447 1_555
Na2 O2 2.499822 1_555
Na3 O10 2.371519 1_445
Na3 O19 2.387609 1_445
Na3 O23 2.419195 1_545
Na3 O8 2.430935 1_555
Na3 O14 2.468447 1_455
Na3 O3 2.499822 1_555
Mg0 O18 2.053494 1_555
Mg0 O16 2.053494 1_545
Mg0 O6 2.081634 1_545
Mg0 O4 2.081634 1_555
Mg0 O21 2.083351 1_555
Mg0 O23 2.083351 1_545
Mg1 O17 2.053494 1_555
Mg1 O19 2.053494 1_444
Mg1 O7 2.081634 1_554
Mg1 O5 2.081634 1_445
Mg1 O20 2.083351 1_545
Mg1 O22 2.083351 1_454
O0 S0 1.515177 1_555
O1 S1 1.515177 1_555
O2 S2 1.515177 1_555
O3 S3 1.515177 1_555
O4 S0 1.487322 1_555
O5 S1 1.487322 1_555
O6 S2 1.487322 1_555
O7 S3 1.487322 1_555
O8 S0 1.466920 1_555
O9 S1 1.466920 1_555
O10 S2 1.466920 1_555
O11 S3 1.466920 1_555
O12 S0 1.486834 1_555
O13 S1 1.486834 1_555
O14 S2 1.486834 1_555
O15 S3 1.486834 1_555
