# generated using pymatgen
data_BaSr4Cl10
_symmetry_space_group_name_H-M   'P 1'
_cell_length_a   20.76512313
_cell_length_b   20.76512313
_cell_length_c   20.76512304
_cell_angle_alpha   13.96695576
_cell_angle_beta   13.96695576
_cell_angle_gamma   13.96695294
_symmetry_Int_Tables_number   1
_chemical_formula_structural   BaSr4Cl10
_chemical_formula_sum   'Ba1 Sr4 Cl10'
_cell_volume   453.96040971
_cell_formula_units_Z   1
loop_
 _symmetry_equiv_pos_site_id
 _symmetry_equiv_pos_as_xyz
  1  'x, y, z'
loop_
 _atom_site_type_symbol
 _atom_site_label
 _atom_site_symmetry_multiplicity
 _atom_site_fract_x
 _atom_site_fract_y
 _atom_site_fract_z
 _atom_site_occupancy
  Ba  Ba0  1  0.00000000  0.00000000  0.00000000  1
  Sr  Sr0  1  0.59849700  0.59849700  0.59849700  1
  Sr  Sr1  1  0.19995000  0.19995000  0.19995000  1
  Sr  Sr2  1  0.80005000  0.80005000  0.80005000  1
  Sr  Sr3  1  0.40150300  0.40150300  0.40150300  1
  Cl  Cl0  1  0.05221600  0.05221600  0.05221600  1
  Cl  Cl1  1  0.85003500  0.85003500  0.85003500  1
  Cl  Cl2  1  0.45047800  0.45047800  0.45047800  1
  Cl  Cl3  1  0.64789800  0.64789800  0.64789800  1
  Cl  Cl4  1  0.24934200  0.24934200  0.24934200  1
  Cl  Cl5  1  0.35210200  0.35210200  0.35210200  1
  Cl  Cl6  1  0.14996500  0.14996500  0.14996500  1
  Cl  Cl7  1  0.75065800  0.75065800  0.75065800  1
  Cl  Cl8  1  0.94778400  0.94778400  0.94778400  1
  Cl  Cl9  1  0.54952200  0.54952200  0.54952200  1
loop_
_geom_bond_atom_site_label_1
_geom_bond_atom_site_label_2
_geom_bond_distance
_geom_bond_site_symmetry_2
Ba0 Cl5 3.136689 1_545
Ba0 Cl5 3.136689 1_455
Ba0 Cl3 3.136689 1_454
Ba0 Cl3 3.136689 1_544
Ba0 Cl5 3.136690 1_554
Ba0 Cl3 3.136690 1_445
Ba0 Cl0 3.220599 1_555
Ba0 Cl8 3.220599 1_444
Cl0 Sr3 3.076846 1_455
Cl0 Sr3 3.076846 1_545
Cl0 Sr3 3.076847 1_554
Cl1 Sr2 3.082995 1_555
Cl1 Sr1 3.089452 1_656
Cl1 Sr1 3.089452 1_566
Cl1 Sr1 3.089452 1_665
Cl2 Sr3 3.020699 1_555
Cl2 Sr2 3.082513 1_545
Cl2 Sr2 3.082513 1_455
Cl2 Sr2 3.082514 1_554
Cl3 Sr0 3.046974 1_555
Cl4 Sr1 3.046419 1_555
Cl4 Sr0 3.074252 1_455
Cl4 Sr0 3.074252 1_545
Cl4 Sr0 3.074253 1_554
Cl5 Sr3 3.046974 1_555
Cl6 Sr1 3.082995 1_555
Cl6 Sr2 3.089452 1_454
Cl6 Sr2 3.089452 1_544
Cl6 Sr2 3.089452 1_445
Cl7 Sr2 3.046419 1_555
Cl7 Sr3 3.074252 1_655
Cl7 Sr3 3.074252 1_565
Cl7 Sr3 3.074253 1_556
Cl8 Sr0 3.076846 1_655
Cl8 Sr0 3.076846 1_565
Cl8 Sr0 3.076847 1_556
Cl9 Sr0 3.020699 1_555
Cl9 Sr1 3.082513 1_565
Cl9 Sr1 3.082513 1_655
Cl9 Sr1 3.082514 1_556
