# generated using pymatgen
data_SrLa3(Cu2O5)2
_symmetry_space_group_name_H-M   'P 1'
_cell_length_a   3.90308400
_cell_length_b   5.48735300
_cell_length_c   10.62791545
_cell_angle_alpha   89.85411763
_cell_angle_beta   90.00000000
_cell_angle_gamma   90.00000000
_symmetry_Int_Tables_number   1
_chemical_formula_structural   SrLa3(Cu2O5)2
_chemical_formula_sum   'Sr1 La3 Cu4 O10'
_cell_volume   227.62370088
_cell_formula_units_Z   1
loop_
 _symmetry_equiv_pos_site_id
 _symmetry_equiv_pos_as_xyz
  1  'x, y, z'
loop_
 _atom_site_type_symbol
 _atom_site_label
 _atom_site_symmetry_multiplicity
 _atom_site_fract_x
 _atom_site_fract_y
 _atom_site_fract_z
 _atom_site_occupancy
  Sr  Sr0  1  0.50000000  0.19776800  0.13830300  1
  La  La0  1  0.50000000  0.80645400  0.86583300  1
  La  La1  1  0.50000000  0.68981200  0.35628700  1
  La  La2  1  0.50000000  0.30703700  0.63870900  1
  Cu  Cu0  1  0.00000000  0.21077200  0.39232600  1
  Cu  Cu1  1  0.00000000  0.79073400  0.60567200  1
  Cu  Cu2  1  0.00000000  0.71178200  0.10868500  1
  Cu  Cu3  1  0.00000000  0.28988100  0.89377900  1
  O  O0  1  0.50000000  0.21338900  0.40194500  1
  O  O1  1  0.50000000  0.78516300  0.60327600  1
  O  O2  1  0.50000000  0.70976200  0.10158000  1
  O  O3  1  0.50000000  0.28843300  0.88822700  1
  O  O4  1  0.00000000  0.49741300  0.50211500  1
  O  O5  1  0.00000000  0.98539800  0.99043900  1
  O  O6  1  0.00000000  0.45244600  0.22638900  1
  O  O7  1  0.00000000  0.56528800  0.78498800  1
  O  O8  1  0.00000000  0.93205000  0.28950000  1
  O  O9  1  0.00000000  0.06642000  0.71194700  1
loop_
_geom_bond_atom_site_label_1
_geom_bond_atom_site_label_2
_geom_bond_distance
_geom_bond_site_symmetry_2
La0 O7 2.510746 1_655
La0 O7 2.510746 1_555
La0 O5 2.555993 1_655
La0 O5 2.555993 1_555
La0 O2 2.559741 1_556
La0 O3 2.656080 1_565
La0 O1 2.793175 1_555
La0 O3 2.851906 1_555
La0 O9 2.916578 1_565
La0 O9 2.916578 1_665
La1 O8 2.464636 1_555
La1 O8 2.464636 1_655
La1 O0 2.657739 1_555
La1 O1 2.677922 1_555
La1 O4 2.704966 1_555
La1 O4 2.704966 1_655
La1 O2 2.708939 1_555
La1 O6 2.723988 1_655
La1 O6 2.723988 1_555
La1 O0 2.914960 1_565
La2 O9 2.480416 1_555
La2 O9 2.480416 1_655
La2 O0 2.569526 1_555
La2 O4 2.645670 1_555
La2 O4 2.645670 1_655
La2 O1 2.649585 1_555
La2 O3 2.653561 1_555
La2 O7 2.871386 1_555
La2 O7 2.871386 1_655
La2 O1 2.889311 1_545
Cu0 O8 1.882016 1_545
Cu0 O0 1.954272 1_455
Cu0 O0 1.954272 1_555
Cu0 O4 1.960829 1_555
Cu0 O6 2.203843 1_555
Cu1 O9 1.890226 1_565
Cu1 O1 1.951949 1_555
Cu1 O1 1.951949 1_455
Cu1 O4 1.952178 1_555
Cu1 O7 2.269431 1_555
Cu2 O6 1.892334 1_555
Cu2 O2 1.953035 1_555
Cu2 O2 1.953035 1_455
Cu2 O5 1.955503 1_554
Cu2 O8 2.272803 1_555
Cu3 O7 1.900485 1_555
Cu3 O3 1.952451 1_455
Cu3 O3 1.952451 1_555
Cu3 O5 1.959129 1_545
Cu3 O9 2.291330 1_555
O0 Sr0 2.803494 1_555
O2 Sr0 2.707137 1_565
O2 Sr0 2.835487 1_555
O3 Sr0 2.702705 1_556
O5 Sr0 2.765040 1_566
O5 Sr0 2.765040 1_466
O6 Sr0 2.577717 1_555
O6 Sr0 2.577717 1_455
O8 Sr0 2.916293 1_565
O8 Sr0 2.916293 1_465
