# generated using pymatgen
data_MoPt
_symmetry_space_group_name_H-M   'P 1'
_cell_length_a   5.64598200
_cell_length_b   5.64598200
_cell_length_c   4.50379500
_cell_angle_alpha   90.00000000
_cell_angle_beta   90.00000000
_cell_angle_gamma   119.66984056
_symmetry_Int_Tables_number   1
_chemical_formula_structural   MoPt
_chemical_formula_sum   'Mo4 Pt4'
_cell_volume   124.74509807
_cell_formula_units_Z   4
loop_
 _symmetry_equiv_pos_site_id
 _symmetry_equiv_pos_as_xyz
  1  'x, y, z'
loop_
 _atom_site_type_symbol
 _atom_site_label
 _atom_site_symmetry_multiplicity
 _atom_site_fract_x
 _atom_site_fract_y
 _atom_site_fract_z
 _atom_site_occupancy
  Mo  Mo0  1  0.33481100  0.66518900  0.00000000  1
  Mo  Mo1  1  0.66674600  0.33325400  0.50000000  1
  Mo  Mo2  1  0.82054900  0.66092700  0.00000000  1
  Mo  Mo3  1  0.33907300  0.17945100  0.00000000  1
  Pt  Pt0  1  0.83507000  0.16493000  0.00000000  1
  Pt  Pt1  1  0.16612500  0.32958500  0.50000000  1
  Pt  Pt2  1  0.67041500  0.83387500  0.50000000  1
  Pt  Pt3  1  0.16746000  0.83254000  0.50000000  1
loop_
_geom_bond_atom_site_label_1
_geom_bond_atom_site_label_2
_geom_bond_distance
_geom_bond_site_symmetry_2
Mo0 Mo3 2.754459 1_555
Mo0 Mo2 2.754459 1_555
Mo0 Pt3 2.782158 1_554
Mo0 Pt3 2.782158 1_555
Mo0 Pt1 2.789597 1_555
Mo0 Pt2 2.789597 1_554
Mo0 Pt2 2.789597 1_555
Mo0 Pt1 2.789597 1_554
Mo0 Pt0 2.837068 1_455
Mo0 Pt0 2.837068 1_565
Mo0 Mo3 2.891678 1_565
Mo0 Mo2 2.891678 1_455
Mo1 Mo3 2.767180 1_556
Mo1 Mo3 2.767180 1_555
Mo1 Mo2 2.767180 1_556
Mo1 Mo2 2.767180 1_555
Mo1 Pt0 2.787747 1_556
Mo1 Pt0 2.787747 1_555
Mo1 Pt2 2.816301 1_555
Mo1 Pt1 2.816301 1_555
Mo1 Pt2 2.829796 1_545
Mo1 Pt1 2.829796 1_655
Mo1 Pt3 2.837076 1_655
Mo1 Pt3 2.837076 1_545
Mo2 Mo3 2.731959 1_555
Mo2 Pt2 2.749993 1_554
Mo2 Pt2 2.749993 1_555
Mo2 Pt0 2.805913 1_565
Mo2 Pt3 2.822652 1_654
Mo2 Pt3 2.822652 1_655
Mo2 Pt0 2.841866 1_555
Mo2 Mo3 2.942175 1_665
Mo3 Pt1 2.749993 1_554
Mo3 Pt1 2.749993 1_555
Mo3 Pt0 2.805913 1_455
Mo3 Pt3 2.822652 1_545
Mo3 Pt3 2.822652 1_544
Mo3 Pt0 2.841866 1_555
Pt0 Pt1 2.776450 1_655
Pt0 Pt1 2.776450 1_654
Pt0 Pt2 2.776450 1_544
Pt0 Pt2 2.776450 1_545
Pt1 Pt3 2.810046 1_545
Pt1 Pt2 2.812725 1_445
Pt1 Pt3 2.835951 1_555
Pt1 Pt2 2.861409 1_555
Pt2 Pt3 2.810046 1_655
Pt2 Pt3 2.835951 1_555
