# generated using pymatgen
data_HoAl
_symmetry_space_group_name_H-M   'P 1'
_cell_length_a   5.57376455
_cell_length_b   5.79178241
_cell_length_c   11.33294718
_cell_angle_alpha   89.99741096
_cell_angle_beta   90.00000000
_cell_angle_gamma   90.00000000
_symmetry_Int_Tables_number   1
_chemical_formula_structural   HoAl
_chemical_formula_sum   'Ho8 Al8'
_cell_volume   365.85055742
_cell_formula_units_Z   8
loop_
 _symmetry_equiv_pos_site_id
 _symmetry_equiv_pos_as_xyz
  1  'x, y, z'
loop_
 _atom_site_type_symbol
 _atom_site_label
 _atom_site_symmetry_multiplicity
 _atom_site_fract_x
 _atom_site_fract_y
 _atom_site_fract_z
 _atom_site_occupancy
  Ho  Ho0  1  0.75000000  0.16222286  0.48443636  1
  Ho  Ho1  1  0.25000000  0.83777714  0.51556364  1
  Ho  Ho2  1  0.25000000  0.16222041  0.01556042  1
  Ho  Ho3  1  0.75000000  0.83777959  0.98443958  1
  Ho  Ho4  1  0.75000000  0.40030700  0.16754701  1
  Ho  Ho5  1  0.25000000  0.59969300  0.83245299  1
  Ho  Ho6  1  0.25000000  0.40030494  0.33245113  1
  Ho  Ho7  1  0.75000000  0.59969506  0.66754887  1
  Al  Al0  1  0.50000303  0.93077286  0.24999408  1
  Al  Al1  1  0.00000303  0.06922714  0.75000592  1
  Al  Al2  1  0.49999697  0.06922714  0.75000592  1
  Al  Al3  1  -0.00000303  0.93077286  0.24999408  1
  Al  Al4  1  0.75000000  0.66160170  0.40181833  1
  Al  Al5  1  0.25000000  0.33839830  0.59818167  1
  Al  Al6  1  0.25000000  0.66158234  0.09816700  1
  Al  Al7  1  0.75000000  0.33841766  0.90183300  1
loop_
_geom_bond_atom_site_label_1
_geom_bond_atom_site_label_2
_geom_bond_distance
_geom_bond_site_symmetry_2
Al0 Al4 2.707828 1_555
Al0 Al6 2.708019 1_555
Al0 Al3 2.786848 1_655
Al0 Al3 2.786916 1_555
Al0 Ho4 3.195277 1_565
Al0 Ho6 3.195387 1_565
Al0 Ho2 3.285885 1_565
Al0 Ho0 3.286054 1_565
Al0 Ho3 3.359917 1_554
Al0 Ho1 3.360043 1_555
Al0 Ho6 3.500584 1_555
Al0 Ho4 3.500604 1_555
Al1 Al5 2.707828 1_555
Al1 Al7 2.708019 1_455
Al1 Al2 2.786848 1_555
Al1 Al2 2.786916 1_455
Al1 Ho5 3.195277 1_545
Al1 Ho7 3.195387 1_445
Al1 Ho3 3.285885 1_445
Al1 Ho1 3.286054 1_545
Al1 Ho2 3.359917 1_556
Al1 Ho0 3.360043 1_455
Al1 Ho7 3.500584 1_455
Al1 Ho5 3.500604 1_555
Al2 Al5 2.707828 1_555
Al2 Al7 2.708019 1_555
Al2 Ho5 3.195277 1_545
Al2 Ho7 3.195387 1_545
Al2 Ho3 3.285885 1_545
Al2 Ho1 3.286054 1_545
Al2 Ho2 3.359917 1_556
Al2 Ho0 3.360043 1_555
Al2 Ho7 3.500584 1_555
Al2 Ho5 3.500604 1_555
Al3 Al4 2.707828 1_455
Al3 Al6 2.708019 1_555
Al3 Ho4 3.195277 1_465
Al3 Ho6 3.195387 1_565
Al3 Ho2 3.285885 1_565
Al3 Ho0 3.286054 1_465
Al3 Ho3 3.359917 1_454
Al3 Ho1 3.360043 1_555
Al3 Ho6 3.500584 1_555
Al3 Ho4 3.500604 1_455
Al4 Ho7 3.032763 1_555
Al4 Ho0 3.040031 1_555
Al4 Ho0 3.046957 1_565
Al4 Ho4 3.056071 1_555
Al4 Ho1 3.235690 1_655
Al4 Ho1 3.235690 1_555
Al4 Ho6 3.267282 1_655
Al4 Ho6 3.267282 1_555
Al5 Ho6 3.032763 1_555
Al5 Ho1 3.040031 1_555
Al5 Ho1 3.046957 1_545
Al5 Ho5 3.056071 1_555
Al5 Ho0 3.235690 1_555
Al5 Ho0 3.235690 1_455
Al5 Ho7 3.267282 1_555
Al5 Ho7 3.267282 1_455
Al6 Ho5 3.032598 1_554
Al6 Ho2 3.039978 1_555
Al6 Ho2 3.046930 1_565
Al6 Ho6 3.056029 1_555
Al6 Ho3 3.235612 1_554
Al6 Ho3 3.235612 1_454
Al6 Ho4 3.267226 1_555
Al6 Ho4 3.267226 1_455
Al7 Ho4 3.032598 1_556
Al7 Ho3 3.039978 1_555
Al7 Ho3 3.046930 1_545
Al7 Ho7 3.056029 1_555
Al7 Ho2 3.235612 1_556
Al7 Ho2 3.235612 1_656
Al7 Ho5 3.267226 1_555
Al7 Ho5 3.267226 1_655
