# generated using pymatgen
data_Y5Tl3
_symmetry_space_group_name_H-M   'P 1'
_cell_length_a   6.69616580
_cell_length_b   8.99975008
_cell_length_c   8.99973662
_cell_angle_alpha   119.99981167
_cell_angle_beta   90.00000000
_cell_angle_gamma   90.00000000
_symmetry_Int_Tables_number   1
_chemical_formula_structural   Y5Tl3
_chemical_formula_sum   'Y10 Tl6'
_cell_volume   469.69712700
_cell_formula_units_Z   2
loop_
 _symmetry_equiv_pos_site_id
 _symmetry_equiv_pos_as_xyz
  1  'x, y, z'
loop_
 _atom_site_type_symbol
 _atom_site_label
 _atom_site_symmetry_multiplicity
 _atom_site_fract_x
 _atom_site_fract_y
 _atom_site_fract_z
 _atom_site_occupancy
  Y  Y0  1  0.50000012  0.33336761  0.66673017  1
  Y  Y1  1  0.49999988  0.66663239  0.33326883  1
  Y  Y2  1  0.00000012  0.66663239  0.33326983  1
  Y  Y3  1  -0.00000012  0.33336761  0.66673117  1
  Y  Y4  1  0.74999800  0.23846998  0.00000151  1
  Y  Y5  1  0.75000000  0.76155625  0.76158993  1
  Y  Y6  1  0.75000100  0.99996792  0.23840863  1
  Y  Y7  1  0.24999800  0.76153002  0.99999849  1
  Y  Y8  1  0.25000000  0.23844475  0.23841007  1
  Y  Y9  1  0.25000100  0.00003208  0.76159137  1
  Tl  Tl0  1  0.75000000  0.59848971  0.00000184  1
  Tl  Tl1  1  0.75000000  0.40151886  0.40153736  1
  Tl  Tl2  1  0.75000000  -0.00001648  0.59846176  1
  Tl  Tl3  1  0.25000000  0.40151029  -0.00000184  1
  Tl  Tl4  1  0.25000000  0.59848114  0.59846264  1
  Tl  Tl5  1  0.25000000  0.00001648  0.40153824  1
loop_
_geom_bond_atom_site_label_1
_geom_bond_atom_site_label_2
_geom_bond_distance
_geom_bond_site_symmetry_2
Y0 Y3 3.348081 1_655
Y0 Y3 3.348085 1_555
Y1 Y2 3.348081 1_555
Y1 Y2 3.348085 1_655
Tl0 Y5 3.147437 1_554
Tl0 Y6 3.147442 1_555
Tl0 Y1 3.214815 1_555
Tl0 Y2 3.214822 1_655
Tl0 Y3 3.214833 1_654
Tl0 Y0 3.214838 1_554
Tl0 Y4 3.240086 1_555
Tl0 Y7 3.655496 1_654
Tl0 Y7 3.655520 1_554
Tl1 Y4 3.147932 1_555
Tl1 Y6 3.147984 1_545
Tl1 Y2 3.215365 1_655
Tl1 Y1 3.215370 1_555
Tl1 Y0 3.215372 1_555
Tl1 Y3 3.215379 1_655
Tl1 Y5 3.240322 1_555
Tl1 Y8 3.655721 1_655
Tl1 Y8 3.655721 1_555
Tl2 Y4 3.147963 1_556
Tl2 Y5 3.148012 1_545
Tl2 Y3 3.215386 1_655
Tl2 Y0 3.215389 1_555
Tl2 Y2 3.215416 1_645
Tl2 Y1 3.215418 1_545
Tl2 Y6 3.240313 1_545
Tl2 Y9 3.655730 1_555
Tl2 Y9 3.655742 1_655
Tl3 Y8 3.147429 1_555
Tl3 Y9 3.147442 1_554
Tl3 Y3 3.214815 1_554
Tl3 Y0 3.214822 1_554
Tl3 Y1 3.214833 1_555
Tl3 Y2 3.214838 1_555
Tl3 Y7 3.240086 1_554
Tl3 Y4 3.655496 1_555
Tl3 Y4 3.655520 1_455
Tl4 Y7 3.147932 1_555
Tl4 Y9 3.147984 1_565
Tl4 Y0 3.215365 1_555
Tl4 Y3 3.215370 1_555
Tl4 Y2 3.215372 1_555
Tl4 Y1 3.215379 1_555
Tl4 Y8 3.240317 1_555
Tl4 Y5 3.655723 1_555
Tl4 Y5 3.655723 1_455
Tl5 Y7 3.147963 1_544
Tl5 Y8 3.148020 1_555
Tl5 Y1 3.215386 1_545
Tl5 Y2 3.215389 1_545
Tl5 Y0 3.215416 1_555
Tl5 Y3 3.215418 1_555
Tl5 Y9 3.240313 1_555
Tl5 Y6 3.655730 1_445
Tl5 Y6 3.655742 1_545
