# generated using pymatgen
data_Na5Cu3(PO4)4
_symmetry_space_group_name_H-M   'P 1'
_cell_length_a   5.15331100
_cell_length_b   8.50180228
_cell_length_c   9.19285883
_cell_angle_alpha   116.13220198
_cell_angle_beta   89.51196592
_cell_angle_gamma   106.14481032
_symmetry_Int_Tables_number   1
_chemical_formula_structural   Na5Cu3(PO4)4
_chemical_formula_sum   'Na5 Cu3 P4 O16'
_cell_volume   344.28507919
_cell_formula_units_Z   1
loop_
 _symmetry_equiv_pos_site_id
 _symmetry_equiv_pos_as_xyz
  1  'x, y, z'
loop_
 _atom_site_type_symbol
 _atom_site_label
 _atom_site_symmetry_multiplicity
 _atom_site_fract_x
 _atom_site_fract_y
 _atom_site_fract_z
 _atom_site_occupancy
  Na  Na0  1  0.50000000  0.50000000  0.50000000  1
  Na  Na1  1  0.78774600  0.78071300  0.75567200  1
  Na  Na2  1  0.21225400  0.21928700  0.24432800  1
  Na  Na3  1  0.16445800  0.48812300  0.86441200  1
  Na  Na4  1  0.83554200  0.51187700  0.13558800  1
  Cu  Cu0  1  0.00000000  0.00000000  0.00000000  1
  Cu  Cu1  1  0.34805500  0.04308200  0.70726700  1
  Cu  Cu2  1  0.65194500  0.95691800  0.29273300  1
  P  P0  1  0.57072400  0.25223300  0.93118400  1
  P  P1  1  0.42927600  0.74776700  0.06881600  1
  P  P2  1  0.77780500  0.21762100  0.47656800  1
  P  P3  1  0.22219500  0.78237900  0.52343200  1
  O  O0  1  0.76276500  0.11267100  0.06162300  1
  O  O1  1  0.23723500  0.88732900  0.93837700  1
  O  O2  1  0.52758600  0.24414100  0.76595900  1
  O  O3  1  0.47241400  0.75585900  0.23404100  1
  O  O4  1  0.29756200  0.19820900  0.00277500  1
  O  O5  1  0.70243800  0.80179100  0.99722500  1
  O  O6  1  0.70296900  0.44676500  0.90905000  1
  O  O7  1  0.29703100  0.55323500  0.09095000  1
  O  O8  1  0.47171500  0.19908400  0.49585000  1
  O  O9  1  0.52828500  0.80091600  0.50415000  1
  O  O10  1  0.76145800  0.17559000  0.32488300  1
  O  O11  1  0.23854200  0.82441000  0.67511700  1
  O  O12  1  0.91767500  0.09029100  0.63688400  1
  O  O13  1  0.08232500  0.90970900  0.36311600  1
  O  O14  1  0.91293400  0.41859700  0.40711100  1
  O  O15  1  0.08706600  0.58140300  0.59288900  1
loop_
_geom_bond_atom_site_label_1
_geom_bond_atom_site_label_2
_geom_bond_distance
_geom_bond_site_symmetry_2
Na0 O14 2.450288 1_555
Na0 O15 2.450288 1_555
Na0 O9 2.504891 1_555
Na0 O8 2.504891 1_555
Na1 O5 2.198392 1_555
Na1 O11 2.411686 1_655
Na1 O1 2.562352 1_655
Na1 O15 2.582732 1_655
Na1 O9 2.773774 1_555
Na2 O4 2.198392 1_555
Na2 O10 2.411686 1_455
Na2 O0 2.562352 1_455
Na2 O14 2.582732 1_455
Na2 O8 2.773774 1_555
Na3 O7 1.977000 1_556
Na3 O6 2.365009 1_455
Na3 O12 2.975477 1_455
Na3 O15 2.992481 1_555
Na4 O6 1.977000 1_554
Na4 O7 2.365009 1_655
Na4 O13 2.975477 1_655
Na4 O14 2.992481 1_555
Cu0 O0 1.701348 1_455
Cu0 O1 1.701348 1_544
Cu0 O4 1.928074 1_555
Cu0 O5 1.928074 1_444
Cu0 Na1 2.221739 1_444
Cu0 Na2 2.221739 1_555
Cu1 O2 1.544527 1_555
Cu1 O11 1.672561 1_545
Cu1 O12 2.499397 1_455
Cu2 O3 1.544527 1_555
Cu2 O10 1.672561 1_565
Cu2 O13 2.499397 1_655
O2 P0 1.505449 1_555
O3 P1 1.505449 1_555
O4 P0 1.586379 1_554
O5 P1 1.586379 1_556
O6 P0 1.705400 1_555
O7 P1 1.705400 1_555
O8 P2 1.557553 1_555
O9 P3 1.557553 1_555
O10 P2 1.274960 1_555
O10 O14 1.785094 1_555
O11 P3 1.274960 1_555
O11 O15 1.785094 1_555
O12 P2 2.391820 1_555
O13 P3 2.391820 1_555
O14 O15 1.700243 1_655
O14 P2 2.025804 1_555
O15 P3 2.025804 1_555
