# generated using pymatgen
data_TeN2
_symmetry_space_group_name_H-M   'P 1'
_cell_length_a   3.73276154
_cell_length_b   3.73276154
_cell_length_c   3.73276154
_cell_angle_alpha   60.00000000
_cell_angle_beta   60.00000000
_cell_angle_gamma   60.00000000
_symmetry_Int_Tables_number   1
_chemical_formula_structural   TeN2
_chemical_formula_sum   'Te1 N2'
_cell_volume   36.77695292
_cell_formula_units_Z   1
loop_
 _symmetry_equiv_pos_site_id
 _symmetry_equiv_pos_as_xyz
  1  'x, y, z'
loop_
 _atom_site_type_symbol
 _atom_site_label
 _atom_site_symmetry_multiplicity
 _atom_site_fract_x
 _atom_site_fract_y
 _atom_site_fract_z
 _atom_site_occupancy
  Te  Te0  1  0.00000000  0.00000000  0.00000000  1
  N  N0  1  0.75000000  0.75000000  0.75000000  1
  N  N1  1  0.25000000  0.25000000  0.25000000  1
loop_
_geom_bond_atom_site_label_1
_geom_bond_atom_site_label_2
_geom_bond_distance
_geom_bond_site_symmetry_2
N0 Te0 2.285840 1_665
N0 Te0 2.285840 1_566
N0 Te0 2.285840 1_656
N0 Te0 2.285840 1_666
N1 Te0 2.285840 1_555
N1 Te0 2.285840 1_565
N1 Te0 2.285840 1_556
N1 Te0 2.285840 1_655
