# generated using pymatgen
data_Sr3PrMn4O12
_symmetry_space_group_name_H-M   'P 1'
_cell_length_a   6.72794871
_cell_length_b   6.72794871
_cell_length_c   6.72794871
_cell_angle_alpha   109.47122063
_cell_angle_beta   109.47122063
_cell_angle_gamma   109.47122063
_symmetry_Int_Tables_number   1
_chemical_formula_structural   Sr3PrMn4O12
_chemical_formula_sum   'Sr3 Pr1 Mn4 O12'
_cell_volume   234.43698401
_cell_formula_units_Z   1
loop_
 _symmetry_equiv_pos_site_id
 _symmetry_equiv_pos_as_xyz
  1  'x, y, z'
loop_
 _atom_site_type_symbol
 _atom_site_label
 _atom_site_symmetry_multiplicity
 _atom_site_fract_x
 _atom_site_fract_y
 _atom_site_fract_z
 _atom_site_occupancy
  Sr  Sr0  1  0.50000000  0.50000000  0.00000000  1
  Sr  Sr1  1  0.00000000  0.50000000  0.50000000  1
  Sr  Sr2  1  0.50000000  0.00000000  0.50000000  1
  Pr  Pr0  1  0.00000000  0.00000000  0.00000000  1
  Mn  Mn0  1  0.00000000  0.00000000  0.50000000  1
  Mn  Mn1  1  0.50000000  0.50000000  0.50000000  1
  Mn  Mn2  1  0.50000000  0.00000000  0.00000000  1
  Mn  Mn3  1  0.00000000  0.50000000  0.00000000  1
  O  O0  1  0.49036100  0.24518100  0.24518100  1
  O  O1  1  0.00000000  0.75481900  0.24518100  1
  O  O2  1  0.00000000  0.24518100  0.75481900  1
  O  O3  1  0.50963900  0.75481900  0.75481900  1
  O  O4  1  0.75481900  0.50963900  0.75481900  1
  O  O5  1  0.24518100  0.00000000  0.75481900  1
  O  O6  1  0.24518100  0.49036100  0.24518100  1
  O  O7  1  0.75481900  0.00000000  0.24518100  1
  O  O8  1  0.75481900  0.75481900  0.50963900  1
  O  O9  1  0.24518100  0.24518100  0.49036100  1
  O  O10  1  0.24518100  0.75481900  0.00000000  1
  O  O11  1  0.75481900  0.24518100  0.00000000  1
loop_
_geom_bond_atom_site_label_1
_geom_bond_atom_site_label_2
_geom_bond_distance
_geom_bond_site_symmetry_2
Mn0 O5 1.942913 1_555
Mn0 O2 1.942913 1_555
Mn0 O1 1.942913 1_545
Mn0 O7 1.942913 1_455
Mn0 O8 1.942917 1_445
Mn0 O9 1.942917 1_555
Mn1 O9 1.942909 1_555
Mn1 O6 1.942909 1_555
Mn1 O0 1.942909 1_555
Mn1 O4 1.942909 1_555
Mn1 O8 1.942909 1_555
Mn1 O3 1.942909 1_555
Mn2 O5 1.942913 1_554
Mn2 O10 1.942913 1_545
Mn2 O7 1.942913 1_555
Mn2 O11 1.942913 1_555
Mn2 O3 1.942917 1_544
Mn2 O0 1.942917 1_555
Mn3 O10 1.942913 1_555
Mn3 O11 1.942913 1_455
Mn3 O2 1.942913 1_554
Mn3 O1 1.942913 1_555
Mn3 O4 1.942917 1_454
Mn3 O6 1.942917 1_555
O0 Pr0 2.693723 1_555
O0 Sr0 2.747184 1_555
O0 Sr2 2.747184 1_555
O0 Sr1 2.799624 1_655
O1 Pr0 2.693729 1_565
O1 Sr2 2.747184 1_565
O1 Sr0 2.747184 1_455
O1 Sr1 2.799618 1_555
O2 Pr0 2.693729 1_556
O2 Sr0 2.747184 1_556
O2 Sr2 2.747184 1_455
O2 Sr1 2.799618 1_555
O3 Pr0 2.693723 1_666
O3 Sr2 2.747184 1_565
O3 Sr0 2.747184 1_556
O3 Sr1 2.799624 1_555
O4 Pr0 2.693723 1_666
O4 Sr1 2.747184 1_655
O4 Sr0 2.747184 1_556
O4 Sr2 2.799624 1_555
O5 Pr0 2.693729 1_556
O5 Sr0 2.747184 1_556
O5 Sr1 2.747184 1_545
O5 Sr2 2.799618 1_555
O6 Pr0 2.693723 1_555
O6 Sr0 2.747184 1_555
O6 Sr1 2.747184 1_555
O6 Sr2 2.799624 1_565
O7 Pr0 2.693729 1_655
O7 Sr0 2.747184 1_545
O7 Sr1 2.747184 1_655
O7 Sr2 2.799618 1_555
O8 Pr0 2.693723 1_666
O8 Sr1 2.747184 1_655
O8 Sr2 2.747184 1_565
O8 Sr0 2.799624 1_555
O9 Pr0 2.693723 1_555
O9 Sr1 2.747184 1_555
O9 Sr2 2.747184 1_555
O9 Sr0 2.799624 1_556
O10 Pr0 2.693729 1_565
O10 Sr2 2.747184 1_565
O10 Sr1 2.747184 1_554
O10 Sr0 2.799618 1_555
O11 Pr0 2.693729 1_655
O11 Sr2 2.747184 1_554
O11 Sr1 2.747184 1_655
O11 Sr0 2.799618 1_555
