# generated using pymatgen
data_Dy2Fe6Co8B
_symmetry_space_group_name_H-M   'P 1'
_cell_length_a   8.68036200
_cell_length_b   8.68036200
_cell_length_c   11.64387200
_cell_angle_alpha   90.00000000
_cell_angle_beta   90.00000000
_cell_angle_gamma   90.00000000
_symmetry_Int_Tables_number   1
_chemical_formula_structural   Dy2Fe6Co8B
_chemical_formula_sum   'Dy8 Fe24 Co32 B4'
_cell_volume   877.35043712
_cell_formula_units_Z   4
loop_
 _symmetry_equiv_pos_site_id
 _symmetry_equiv_pos_as_xyz
  1  'x, y, z'
loop_
 _atom_site_type_symbol
 _atom_site_label
 _atom_site_symmetry_multiplicity
 _atom_site_fract_x
 _atom_site_fract_y
 _atom_site_fract_z
 _atom_site_occupancy
  Dy  Dy0  1  0.23016000  0.76984000  0.50000000  1
  Dy  Dy1  1  0.76984000  0.23016000  0.50000000  1
  Dy  Dy2  1  0.26984000  0.26984000  0.00000000  1
  Dy  Dy3  1  0.73016000  0.73016000  0.00000000  1
  Dy  Dy4  1  0.64470600  0.64470600  0.50000000  1
  Dy  Dy5  1  0.35529400  0.35529400  0.50000000  1
  Dy  Dy6  1  0.85529400  0.14470600  0.00000000  1
  Dy  Dy7  1  0.14470600  0.85529400  0.00000000  1
  Fe  Fe0  1  0.00000000  0.50000000  0.50000000  1
  Fe  Fe1  1  0.50000000  0.00000000  0.00000000  1
  Fe  Fe2  1  0.50000000  0.00000000  0.50000000  1
  Fe  Fe3  1  0.00000000  0.50000000  0.00000000  1
  Fe  Fe4  1  0.50000000  0.50000000  0.11586700  1
  Fe  Fe5  1  0.00000000  0.00000000  0.61586700  1
  Fe  Fe6  1  0.50000000  0.50000000  0.88413300  1
  Fe  Fe7  1  0.00000000  0.00000000  0.38413300  1
  Fe  Fe8  1  0.93298000  0.72321700  0.37157500  1
  Fe  Fe9  1  0.06702000  0.27678300  0.37157500  1
  Fe  Fe10  1  0.56702000  0.22321700  0.87157500  1
  Fe  Fe11  1  0.43298000  0.77678300  0.87157500  1
  Fe  Fe12  1  0.06702000  0.27678300  0.62842500  1
  Fe  Fe13  1  0.93298000  0.72321700  0.62842500  1
  Fe  Fe14  1  0.43298000  0.77678300  0.12842500  1
  Fe  Fe15  1  0.56702000  0.22321700  0.12842500  1
  Fe  Fe16  1  0.72321700  0.93298000  0.37157500  1
  Fe  Fe17  1  0.27678300  0.06702000  0.37157500  1
  Fe  Fe18  1  0.22321700  0.56702000  0.87157500  1
  Fe  Fe19  1  0.77678300  0.43298000  0.87157500  1
  Fe  Fe20  1  0.27678300  0.06702000  0.62842500  1
  Fe  Fe21  1  0.72321700  0.93298000  0.62842500  1
  Fe  Fe22  1  0.77678300  0.43298000  0.12842500  1
  Fe  Fe23  1  0.22321700  0.56702000  0.12842500  1
  Co  Co0  1  0.18249400  0.81750600  0.25255100  1
  Co  Co1  1  0.81750600  0.18249400  0.25255100  1
  Co  Co2  1  0.31750600  0.31750600  0.75255100  1
  Co  Co3  1  0.68249400  0.68249400  0.75255100  1
  Co  Co4  1  0.81750600  0.18249400  0.74744900  1
  Co  Co5  1  0.18249400  0.81750600  0.74744900  1
  Co  Co6  1  0.68249400  0.68249400  0.24744900  1
  Co  Co7  1  0.31750600  0.31750600  0.24744900  1
  Co  Co8  1  0.40166100  0.59833900  0.29714600  1
  Co  Co9  1  0.59833900  0.40166100  0.29714600  1
  Co  Co10  1  0.09833900  0.09833900  0.79714500  1
  Co  Co11  1  0.90166100  0.90166100  0.79714500  1
  Co  Co12  1  0.59833900  0.40166100  0.70285500  1
  Co  Co13  1  0.40166100  0.59833900  0.70285500  1
  Co  Co14  1  0.90166100  0.90166100  0.20285400  1
  Co  Co15  1  0.09833900  0.09833900  0.20285400  1
  Co  Co16  1  0.14219300  0.53695500  0.32327400  1
  Co  Co17  1  0.85780700  0.46304500  0.32327400  1
  Co  Co18  1  0.35780700  0.03695500  0.82327400  1
  Co  Co19  1  0.64219300  0.96304500  0.82327400  1
  Co  Co20  1  0.85780700  0.46304500  0.67672600  1
  Co  Co21  1  0.14219300  0.53695500  0.67672600  1
  Co  Co22  1  0.64219300  0.96304500  0.17672600  1
  Co  Co23  1  0.35780700  0.03695500  0.17672600  1
  Co  Co24  1  0.53695500  0.14219300  0.32327400  1
  Co  Co25  1  0.46304500  0.85780700  0.32327400  1
  Co  Co26  1  0.03695500  0.35780700  0.82327400  1
  Co  Co27  1  0.96304500  0.64219300  0.82327400  1
  Co  Co28  1  0.46304500  0.85780700  0.67672600  1
  Co  Co29  1  0.53695500  0.14219300  0.67672600  1
  Co  Co30  1  0.96304500  0.64219300  0.17672600  1
  Co  Co31  1  0.03695500  0.35780700  0.17672600  1
  B  B0  1  0.87387200  0.87387200  0.50000000  1
  B  B1  1  0.12612800  0.12612800  0.50000000  1
  B  B2  1  0.62612800  0.37387200  0.00000000  1
  B  B3  1  0.37387200  0.62612800  0.00000000  1
loop_
_geom_bond_atom_site_label_1
_geom_bond_atom_site_label_2
_geom_bond_distance
_geom_bond_site_symmetry_2
Dy0 Fe13 3.009051 1_455
Dy0 Fe8 3.009051 1_455
Dy0 Fe20 3.009051 1_565
Dy0 Fe17 3.009051 1_565
Dy0 Fe2 3.078620 1_565
Dy0 Fe0 3.078620 1_555
Dy0 Fe5 3.131001 1_565
Dy0 Fe7 3.131001 1_565
Dy1 Fe16 3.009051 1_545
Dy1 Fe21 3.009051 1_545
Dy1 Fe12 3.009051 1_655
Dy1 Fe9 3.009051 1_655
Dy1 Fe2 3.078620 1_555
Dy1 Fe0 3.078620 1_655
Dy1 Fe5 3.131001 1_655
Dy1 Fe7 3.131001 1_655
Dy2 Fe23 3.009051 1_555
Dy2 Fe15 3.009051 1_555
Dy2 Fe18 3.009051 1_554
Dy2 Fe10 3.009051 1_554
Dy2 Fe1 3.078620 1_555
Dy2 Fe3 3.078620 1_555
Dy2 Fe6 3.131001 1_554
Dy2 Fe4 3.131001 1_555
Dy3 Fe14 3.009051 1_555
Dy3 Fe11 3.009051 1_554
Dy3 Fe22 3.009051 1_555
Dy3 Fe19 3.009051 1_554
Dy3 Fe1 3.078620 1_565
Dy3 Fe3 3.078620 1_655
Dy3 Fe4 3.131001 1_555
Dy3 Fe6 3.131001 1_554
Dy4 Fe13 2.993690 1_555
Dy4 Fe16 2.993690 1_555
Dy4 Fe8 2.993690 1_555
Dy4 Fe21 2.993690 1_555
Dy4 Fe2 3.330066 1_565
Dy4 Fe0 3.330066 1_655
Dy5 Fe17 2.993690 1_555
Dy5 Fe20 2.993690 1_555
Dy5 Fe12 2.993690 1_555
Dy5 Fe9 2.993690 1_555
Dy5 Fe0 3.330066 1_555
Dy5 Fe2 3.330066 1_555
Dy6 Fe22 2.993690 1_555
Dy6 Fe19 2.993690 1_554
Dy6 Fe10 2.993690 1_554
Dy6 Fe15 2.993690 1_555
Dy6 Fe1 3.330066 1_555
Dy6 Fe3 3.330066 1_655
Dy7 Fe14 2.993690 1_555
Dy7 Fe11 2.993690 1_554
Dy7 Fe23 2.993690 1_555
Dy7 Fe18 2.993690 1_554
Dy7 Fe1 3.330066 1_565
Dy7 Fe3 3.330066 1_555
Fe0 Fe12 2.515724 1_555
Fe0 Fe9 2.515724 1_555
Fe0 Fe13 2.515724 1_455
Fe0 Fe8 2.515724 1_455
Fe1 Fe15 2.515724 1_555
Fe1 Fe14 2.515724 1_545
Fe1 Fe11 2.515724 1_544
Fe1 Fe10 2.515724 1_554
Fe2 Fe21 2.515724 1_545
Fe2 Fe20 2.515724 1_555
Fe16 Fe2 2.515724 1_565
Fe17 Fe2 2.515724 1_555
Fe18 Fe3 2.515724 1_556
Fe19 Fe3 2.515724 1_656
Fe22 Fe3 2.515724 1_655
Fe23 Fe3 2.515724 1_555
Co0 Co30 2.593059 1_455
Co0 Co23 2.593059 1_565
Co0 Co25 2.594441 1_555
Co0 Co16 2.594441 1_555
Co0 Co15 2.609792 1_565
Co0 Co14 2.609792 1_455
Co0 Fe14 2.634671 1_555
Co0 Fe23 2.634671 1_555
Co0 Fe8 2.698444 1_455
Co0 Fe17 2.698444 1_565
Co0 Fe7 2.714081 1_565
Co0 Co8 2.740119 1_555
Co0 Dy0 2.940081 1_555
Co0 Dy7 2.977035 1_555
Co1 Co22 2.593059 1_545
Co1 Co31 2.593059 1_655
Co1 Co17 2.594441 1_555
Co1 Co24 2.594441 1_555
Co1 Co15 2.609792 1_655
Co1 Co14 2.609792 1_545
Co1 Fe15 2.634671 1_555
Co1 Fe22 2.634671 1_555
Co1 Fe16 2.698444 1_545
Co1 Fe9 2.698444 1_655
Co1 Fe7 2.714081 1_655
Co1 Co9 2.740119 1_555
Co1 Dy1 2.940081 1_555
Co1 Dy6 2.977035 1_555
Co2 Co29 2.593059 1_555
Co2 Co21 2.593059 1_555
Co2 Co26 2.594441 1_555
Co2 Fe12 2.634671 1_555
Co2 Fe20 2.634671 1_555
Co2 Fe10 2.698444 1_555
Co2 Fe18 2.698444 1_555
Co2 Fe6 2.714081 1_555
Co2 Dy2 2.940081 1_556
Co2 Dy5 2.977035 1_555
Co3 Fe21 2.634671 1_555
Co3 Fe13 2.634671 1_555
Co3 Fe19 2.698444 1_555
Co3 Fe11 2.698444 1_555
Co3 Fe6 2.714081 1_555
Co3 Dy3 2.940081 1_556
Co3 Dy4 2.977035 1_555
Co4 Fe19 2.634671 1_555
Co4 Fe10 2.634671 1_555
Co4 Fe21 2.698444 1_545
Co4 Fe12 2.698444 1_655
Co4 Fe5 2.714081 1_655
Co4 Dy1 2.940081 1_555
Co4 Dy6 2.977035 1_556
Co5 Fe18 2.634671 1_555
Co5 Fe11 2.634671 1_555
Co5 Fe13 2.698444 1_455
Co5 Fe20 2.698444 1_565
Co5 Fe5 2.714081 1_565
Co5 Dy0 2.940081 1_555
Co5 Dy7 2.977035 1_556
Co6 Co8 2.609792 1_555
Co6 Co9 2.609792 1_555
Co6 Fe16 2.634671 1_555
Co6 Fe8 2.634671 1_555
Co6 Fe14 2.698444 1_555
Co6 Fe22 2.698444 1_555
Co6 Fe4 2.714081 1_555
Co6 Dy3 2.940081 1_555
Co6 Dy4 2.977035 1_555
Co7 Co8 2.609792 1_555
Co7 Co9 2.609792 1_555
Co7 Fe17 2.634671 1_555
Co7 Fe9 2.634671 1_555
Co7 Fe15 2.698444 1_555
Co7 Fe23 2.698444 1_555
Co7 Fe4 2.714081 1_555
Co7 Dy2 2.940081 1_555
Co7 Dy5 2.977035 1_555
Co8 Co9 2.414397 1_555
Co8 Fe4 2.431617 1_555
Co8 Fe23 2.516485 1_555
Co8 Fe14 2.516485 1_555
Co8 Dy0 3.164091 1_555
Co8 Dy5 3.192488 1_555
Co8 Dy4 3.192488 1_555
Co9 Fe4 2.431617 1_555
Co9 Fe15 2.516485 1_555
Co9 Fe22 2.516485 1_555
Co9 Dy1 3.164091 1_555
Co9 Dy5 3.192488 1_555
Co9 Dy4 3.192488 1_555
Co10 Co26 2.334358 1_555
Co10 Co18 2.334358 1_555
Co10 Co11 2.414397 1_445
Co10 Fe5 2.431607 1_555
Co10 Fe12 2.516476 1_555
Co10 Fe20 2.516476 1_555
Co10 Co5 2.609790 1_545
Co10 Co4 2.609790 1_455
Co10 Co2 2.740117 1_555
Co10 Dy2 3.164100 1_556
Co10 Dy6 3.192496 1_456
Co10 Dy7 3.192496 1_546
Co11 Co19 2.334358 1_555
Co11 Co27 2.334358 1_555
Co11 Fe5 2.431607 1_665
Co11 Fe21 2.516476 1_555
Co11 Fe13 2.516476 1_555
Co11 Co5 2.609790 1_655
Co11 Co4 2.609790 1_565
Co11 Co3 2.740117 1_555
Co11 Dy3 3.164100 1_556
Co11 Dy7 3.192496 1_656
Co11 Dy6 3.192496 1_566
Co12 Co29 2.334358 1_555
Co12 Co20 2.334358 1_555
Co12 Co13 2.414397 1_555
Co12 Fe6 2.431607 1_555
Co12 Fe10 2.516476 1_555
Co12 Fe19 2.516476 1_555
Co12 Co2 2.609790 1_555
Co12 Co3 2.609790 1_555
Co12 Co4 2.740117 1_555
Co12 Dy1 3.164100 1_555
Co12 Dy4 3.192496 1_555
Co12 Dy5 3.192496 1_555
Co13 Co21 2.334358 1_555
Co13 Co28 2.334358 1_555
Co13 Fe6 2.431607 1_555
Co13 Fe18 2.516476 1_555
Co13 Fe11 2.516476 1_555
Co13 Co2 2.609790 1_555
Co13 Co3 2.609790 1_555
Co13 Co5 2.740117 1_555
Co13 Dy0 3.164100 1_555
Co13 Dy4 3.192496 1_555
Co13 Dy5 3.192496 1_555
Co14 Co22 2.334356 1_555
Co14 Co30 2.334356 1_555
Co14 Co15 2.414397 1_665
Co14 Fe7 2.431617 1_665
Co14 Fe8 2.516485 1_555
Co14 Fe16 2.516485 1_555
Co14 Co6 2.740119 1_555
Co14 Dy3 3.164091 1_555
Co14 Dy7 3.192488 1_655
Co14 Dy6 3.192488 1_565
Co15 Co31 2.334356 1_555
Co15 Co23 2.334356 1_555
Co15 Fe7 2.431617 1_555
Co15 Fe17 2.516485 1_555
Co15 Fe9 2.516485 1_555
Co15 Co7 2.740119 1_555
Co15 Dy2 3.164091 1_555
Co15 Dy6 3.192488 1_455
Co15 Dy7 3.192488 1_545
Co16 Co8 2.334356 1_555
Co16 Fe23 2.389603 1_555
Co16 Fe9 2.417108 1_555
Co16 Fe0 2.420910 1_555
Co16 Co31 2.482838 1_555
Co16 Co30 2.482838 1_455
Co16 Fe8 2.495683 1_455
Co16 Co17 2.550581 1_455
Co16 Co7 2.593059 1_555
Co16 Dy0 2.983969 1_555
Co16 Dy5 3.184766 1_555
Co17 Co9 2.334356 1_555
Co17 Fe22 2.389603 1_555
Co17 Fe8 2.417108 1_555
Co17 Fe0 2.420910 1_655
Co17 Co31 2.482838 1_655
Co17 Co30 2.482838 1_555
Co17 Fe9 2.495683 1_655
Co17 Co6 2.593059 1_555
Co17 Dy1 2.983969 1_555
Co17 Dy4 3.184766 1_555
Co18 Fe20 2.389603 1_555
Co18 Fe11 2.417108 1_545
Co18 Fe1 2.420910 1_556
Co18 Co29 2.482838 1_555
Co18 Co28 2.482838 1_545
Co18 Fe10 2.495683 1_555
Co18 Co19 2.550581 1_545
Co18 Co5 2.593059 1_545
Co18 Co2 2.594441 1_555
Co18 Dy2 2.983969 1_556
Co18 Dy7 3.184766 1_546
Co19 Fe21 2.389603 1_555
Co19 Fe10 2.417108 1_565
Co19 Fe1 2.420910 1_566
Co19 Co29 2.482838 1_565
Co19 Co28 2.482838 1_555
Co19 Fe11 2.495683 1_555
Co19 Co4 2.593059 1_565
Co19 Co3 2.594441 1_555
Co19 Dy3 2.983969 1_556
Co19 Dy6 3.184766 1_566
Co20 Fe19 2.389603 1_555
Co20 Fe13 2.417108 1_555
Co20 Fe0 2.420910 1_655
Co20 Co26 2.482838 1_655
Co20 Co27 2.482838 1_555
Co20 Fe12 2.495683 1_655
Co20 Co21 2.550581 1_655
Co20 Co3 2.593059 1_555
Co20 Co4 2.594441 1_555
Co20 Dy1 2.983969 1_555
Co20 Dy4 3.184766 1_555
Co21 Fe18 2.389603 1_555
Co21 Fe12 2.417108 1_555
Co21 Fe0 2.420910 1_555
Co21 Co27 2.482838 1_455
Co21 Co26 2.482838 1_555
Co21 Fe13 2.495683 1_455
Co21 Co5 2.594441 1_555
Co21 Dy0 2.983969 1_555
Co21 Dy5 3.184766 1_555
Co22 Fe16 2.389603 1_555
Co22 Fe15 2.417108 1_565
Co22 Fe1 2.420910 1_565
Co22 Co24 2.482838 1_565
Co22 Co25 2.482838 1_555
Co22 Fe14 2.495683 1_555
Co22 Co23 2.550581 1_565
Co22 Co6 2.594441 1_555
Co22 Dy3 2.983969 1_555
Co22 Dy6 3.184766 1_565
Co23 Fe17 2.389603 1_555
Co23 Fe14 2.417108 1_545
Co23 Fe1 2.420910 1_555
Co23 Co24 2.482838 1_555
Co23 Co25 2.482838 1_545
Co23 Fe15 2.495683 1_555
Co23 Co7 2.594441 1_555
Co23 Dy2 2.983969 1_555
Co23 Dy7 3.184766 1_545
Co24 Co9 2.334356 1_555
Co24 Fe15 2.389603 1_555
Co24 Fe17 2.417108 1_555
Co24 Fe2 2.420910 1_555
Co24 Fe16 2.495683 1_545
Co24 Co25 2.550581 1_545
Co24 Co7 2.593059 1_555
Co24 Dy1 2.983969 1_555
Co24 Dy5 3.184766 1_555
Co25 Co8 2.334356 1_555
Co25 Fe14 2.389603 1_555
Co25 Fe16 2.417108 1_555
Co25 Fe2 2.420910 1_565
Co25 Fe17 2.495683 1_565
Co25 Co6 2.593059 1_555
Co25 Dy0 2.983969 1_555
Co25 Dy4 3.184766 1_555
Co26 Fe12 2.389603 1_555
Co26 Fe19 2.417108 1_455
Co26 Fe3 2.420910 1_556
Co26 Fe18 2.495683 1_555
Co26 Co27 2.550581 1_455
Co26 Co4 2.593059 1_455
Co26 Dy2 2.983969 1_556
Co26 Dy6 3.184766 1_456
Co27 Fe13 2.389603 1_555
Co27 Fe18 2.417108 1_655
Co27 Fe3 2.420910 1_656
Co27 Fe19 2.495683 1_555
Co27 Co5 2.593059 1_655
Co27 Co3 2.594441 1_555
Co27 Dy3 2.983969 1_556
Co27 Dy7 3.184766 1_656
Co28 Fe11 2.389603 1_555
Co28 Fe21 2.417108 1_555
Co28 Fe2 2.420910 1_565
Co28 Fe20 2.495683 1_565
Co28 Co29 2.550581 1_565
Co28 Co3 2.593059 1_555
Co28 Co5 2.594441 1_555
Co28 Dy0 2.983969 1_555
Co28 Dy4 3.184766 1_555
Co29 Fe10 2.389603 1_555
Co29 Fe20 2.417108 1_555
Co29 Fe2 2.420910 1_555
Co29 Fe21 2.495683 1_545
Co29 Co4 2.594441 1_555
Co29 Dy1 2.983969 1_555
Co29 Dy5 3.184766 1_555
Co30 Fe8 2.389603 1_555
Co30 Fe23 2.417108 1_655
Co30 Fe3 2.420910 1_655
Co30 Fe22 2.495683 1_555
Co30 Co31 2.550581 1_655
Co30 Co6 2.594441 1_555
Co30 Dy3 2.983969 1_555
Co30 Dy7 3.184766 1_655
Co31 Fe9 2.389603 1_555
Co31 Fe22 2.417108 1_455
Co31 Fe3 2.420910 1_555
Co31 Fe23 2.495683 1_555
Co31 Co7 2.594441 1_555
Co31 Dy2 2.983969 1_555
Co31 Dy6 3.184766 1_455
B0 Fe16 2.051718 1_555
B0 Fe13 2.051718 1_555
B0 Fe8 2.051718 1_555
B0 Fe21 2.051718 1_555
B0 Fe7 2.053659 1_665
B0 Fe5 2.053659 1_665
B0 Dy4 2.813216 1_555
B1 Fe9 2.051718 1_555
B1 Fe17 2.051718 1_555
B1 Fe20 2.051718 1_555
B1 Fe12 2.051718 1_555
B1 Fe7 2.053659 1_555
B1 Fe5 2.053659 1_555
B1 Dy5 2.813216 1_555
B2 Fe19 2.051718 1_554
B2 Fe22 2.051718 1_555
B2 Fe10 2.051718 1_554
B2 Fe15 2.051718 1_555
B2 Fe4 2.053659 1_555
B2 Fe6 2.053659 1_554
B2 Dy6 2.813216 1_555
B3 Fe23 2.051718 1_555
B3 Fe11 2.051718 1_554
B3 Fe14 2.051718 1_555
B3 Fe18 2.051718 1_554
B3 Fe4 2.053659 1_555
B3 Fe6 2.053659 1_554
B3 Dy7 2.813216 1_555
