# generated using pymatgen
data_Lu11Ge10
_symmetry_space_group_name_H-M   'P 1'
_cell_length_a   10.64904378
_cell_length_b   10.64904378
_cell_length_c   10.95030727
_cell_angle_alpha   119.09400909
_cell_angle_beta   119.09400909
_cell_angle_gamma   90.00000000
_symmetry_Int_Tables_number   1
_chemical_formula_structural   Lu11Ge10
_chemical_formula_sum   'Lu22 Ge20'
_cell_volume   901.58742490
_cell_formula_units_Z   2
loop_
 _symmetry_equiv_pos_site_id
 _symmetry_equiv_pos_as_xyz
  1  'x, y, z'
loop_
 _atom_site_type_symbol
 _atom_site_label
 _atom_site_symmetry_multiplicity
 _atom_site_fract_x
 _atom_site_fract_y
 _atom_site_fract_z
 _atom_site_occupancy
  Lu  Lu0  1  0.93779660  0.18988179  0.37976459  1
  Lu  Lu1  1  0.44196798  0.18988179  0.37976459  1
  Lu  Lu2  1  0.18988179  0.44196798  0.37976459  1
  Lu  Lu3  1  0.18988179  0.93779660  0.37976459  1
  Lu  Lu4  1  0.06220340  0.81011821  0.62023541  1
  Lu  Lu5  1  0.55803202  0.81011821  0.62023541  1
  Lu  Lu6  1  0.81011821  0.55803202  0.62023541  1
  Lu  Lu7  1  0.81011821  0.06220340  0.62023541  1
  Lu  Lu8  1  0.82284423  0.17715577  0.00000000  1
  Lu  Lu9  1  0.17715577  0.82284423  0.00000000  1
  Lu  Lu10  1  0.17715577  0.17715577  0.00000000  1
  Lu  Lu11  1  0.82284423  0.82284423  -0.00000000  1
  Lu  Lu12  1  0.34012909  0.34012909  0.68025819  1
  Lu  Lu13  1  0.65987091  0.65987091  0.31974181  1
  Lu  Lu14  1  0.07294164  0.39858148  0.79716296  1
  Lu  Lu15  1  0.72422032  0.39858148  0.79716296  1
  Lu  Lu16  1  0.39858148  0.72422032  0.79716296  1
  Lu  Lu17  1  0.39858148  0.07294164  0.79716296  1
  Lu  Lu18  1  0.92705836  0.60141852  0.20283704  1
  Lu  Lu19  1  0.27577968  0.60141852  0.20283704  1
  Lu  Lu20  1  0.60141852  0.27577968  0.20283704  1
  Lu  Lu21  1  0.60141852  0.92705836  0.20283704  1
  Ge  Ge0  1  -0.00000000  0.35607298  -0.00000000  1
  Ge  Ge1  1  0.00000000  0.64392702  0.00000000  1
  Ge  Ge2  1  0.35607298  -0.00000000  -0.00000000  1
  Ge  Ge3  1  0.64392702  0.00000000  0.00000000  1
  Ge  Ge4  1  0.11707660  0.11707660  0.23415320  1
  Ge  Ge5  1  0.88292340  0.88292340  0.76584680  1
  Ge  Ge6  1  0.62152856  0.37847144  0.00000000  1
  Ge  Ge7  1  0.37847144  0.62152856  0.00000000  1
  Ge  Ge8  1  0.37847144  0.37847144  -0.00000000  1
  Ge  Ge9  1  0.62152856  0.62152856  0.00000000  1
  Ge  Ge10  1  0.75000000  0.25000000  0.50000000  1
  Ge  Ge11  1  0.25000000  0.75000000  0.50000000  1
  Ge  Ge12  1  0.11109504  0.52754316  0.63863920  1
  Ge  Ge13  1  0.52754316  0.11109504  0.63863920  1
  Ge  Ge14  1  0.52754316  0.52754316  0.63863920  1
  Ge  Ge15  1  0.11109504  0.11109504  0.63863920  1
  Ge  Ge16  1  0.88890496  0.47245684  0.36136080  1
  Ge  Ge17  1  0.47245684  0.88890496  0.36136080  1
  Ge  Ge18  1  0.47245684  0.47245684  0.36136080  1
  Ge  Ge19  1  0.88890496  0.88890496  0.36136080  1
loop_
_geom_bond_atom_site_label_1
_geom_bond_atom_site_label_2
_geom_bond_distance
_geom_bond_site_symmetry_2
Ge0 Lu10 2.681266 1_555
Ge0 Lu8 2.681266 1_455
Ge0 Lu14 2.897806 1_554
Ge0 Lu18 2.897806 1_455
Ge0 Lu15 2.897813 1_454
Ge0 Lu19 2.897813 1_555
Ge0 Lu2 3.215931 1_555
Ge0 Lu7 3.215931 1_454
Ge1 Lu9 2.681266 1_555
Ge1 Lu11 2.681266 1_455
Ge1 Lu18 2.897806 1_455
Ge1 Lu14 2.897806 1_554
Ge1 Lu19 2.897813 1_555
Ge1 Lu15 2.897813 1_454
Ge1 Lu6 3.215931 1_454
Ge1 Lu3 3.215931 1_555
Ge2 Lu10 2.681266 1_555
Ge2 Lu9 2.681266 1_545
Ge2 Lu17 2.897806 1_554
Ge2 Lu21 2.897806 1_545
Ge2 Lu16 2.897813 1_544
Ge2 Lu20 2.897813 1_555
Ge2 Lu1 3.215931 1_555
Ge2 Lu4 3.215931 1_544
Ge3 Lu8 2.681266 1_555
Ge3 Lu11 2.681266 1_545
Ge3 Lu21 2.897806 1_545
Ge3 Lu17 2.897806 1_554
Ge3 Lu20 2.897813 1_555
Ge3 Lu16 2.897813 1_544
Ge3 Lu5 3.215931 1_544
Ge3 Lu0 3.215931 1_555
Ge4 Lu0 2.923452 1_455
Ge4 Lu3 2.923452 1_545
Ge4 Lu2 2.923452 1_555
Ge4 Lu1 2.923452 1_555
Ge4 Lu10 3.253248 1_555
Ge4 Lu8 3.253248 1_455
Ge4 Lu9 3.253248 1_545
Ge4 Lu11 3.253248 1_445
Ge4 Lu12 3.546694 1_555
Ge5 Lu4 2.923452 1_655
Ge5 Lu7 2.923452 1_565
Ge5 Lu5 2.923452 1_555
Ge5 Lu6 2.923452 1_555
Ge5 Lu11 3.253248 1_556
Ge5 Lu8 3.253248 1_566
Ge5 Lu9 3.253248 1_656
Ge5 Lu10 3.253248 1_666
Ge5 Lu13 3.546694 1_555
Ge6 Ge8 2.588326 1_555
Ge6 Ge9 2.588326 1_555
Ge6 Lu20 2.999978 1_555
Ge6 Lu15 2.999978 1_554
Ge6 Lu18 2.999986 1_555
Ge6 Lu17 2.999986 1_554
Ge6 Lu8 3.031818 1_555
Ge6 Lu13 3.132378 1_555
Ge6 Lu12 3.132378 1_554
Ge7 Ge8 2.588326 1_555
Ge7 Ge9 2.588326 1_555
Ge7 Lu19 2.999978 1_555
Ge7 Lu16 2.999978 1_554
Ge7 Lu14 2.999986 1_554
Ge7 Lu21 2.999986 1_555
Ge7 Lu9 3.031818 1_555
Ge7 Lu13 3.132378 1_555
Ge7 Lu12 3.132378 1_554
Ge8 Lu19 2.999978 1_555
Ge8 Lu20 2.999978 1_555
Ge8 Lu17 2.999986 1_554
Ge8 Lu14 2.999986 1_554
Ge8 Lu10 3.031818 1_555
Ge8 Lu12 3.132378 1_554
Ge8 Lu13 3.132378 1_555
Ge9 Lu15 2.999978 1_554
Ge9 Lu16 2.999978 1_554
Ge9 Lu18 2.999986 1_555
Ge9 Lu21 2.999986 1_555
Ge9 Lu11 3.031818 1_555
Ge9 Lu13 3.132378 1_555
Ge9 Lu12 3.132378 1_554
Ge10 Lu0 2.807782 1_555
Ge10 Lu7 2.807782 1_555
Ge10 Lu6 2.807782 1_555
Ge10 Lu1 2.807782 1_555
Ge10 Lu14 3.004870 1_655
Ge10 Lu21 3.004870 1_545
Ge10 Lu15 3.004876 1_555
Ge10 Lu20 3.004876 1_555
Ge11 Lu3 2.807782 1_555
Ge11 Lu4 2.807782 1_555
Ge11 Lu5 2.807782 1_555
Ge11 Lu2 2.807782 1_555
Ge11 Lu17 3.004870 1_565
Ge11 Lu18 3.004870 1_455
Ge11 Lu16 3.004876 1_555
Ge11 Lu19 3.004876 1_555
Ge12 Ge16 2.538298 1_455
Ge12 Lu14 2.840526 1_555
Ge12 Lu16 2.840535 1_555
Ge12 Lu0 3.061198 1_455
Ge12 Lu2 3.061199 1_555
Ge12 Lu6 3.139152 1_455
Ge12 Lu4 3.139172 1_555
Ge12 Lu12 3.153268 1_555
Ge12 Lu9 3.351646 1_556
Ge13 Ge17 2.538298 1_545
Ge13 Lu17 2.840526 1_555
Ge13 Lu15 2.840535 1_555
Ge13 Lu3 3.061198 1_545
Ge13 Lu1 3.061199 1_555
Ge13 Lu5 3.139152 1_545
Ge13 Lu7 3.139172 1_555
Ge13 Lu12 3.153268 1_555
Ge13 Lu8 3.351646 1_556
Ge14 Ge18 2.538305 1_555
Ge14 Lu15 2.840527 1_555
Ge14 Lu16 2.840527 1_555
Ge14 Lu1 3.061199 1_555
Ge14 Lu2 3.061199 1_555
Ge14 Lu5 3.139173 1_555
Ge14 Lu6 3.139173 1_555
Ge14 Lu12 3.153260 1_555
Ge14 Lu11 3.351650 1_556
Ge15 Ge19 2.538290 1_445
Ge15 Lu14 2.840535 1_555
Ge15 Lu17 2.840535 1_555
Ge15 Lu0 3.061198 1_455
Ge15 Lu3 3.061198 1_545
Ge15 Lu7 3.139151 1_455
Ge15 Lu4 3.139151 1_545
Ge15 Lu12 3.153275 1_555
Ge15 Lu10 3.351642 1_556
Ge16 Lu18 2.840526 1_555
Ge16 Lu20 2.840535 1_555
Ge16 Lu4 3.061198 1_655
Ge16 Lu6 3.061199 1_555
Ge16 Lu2 3.139152 1_655
Ge16 Lu0 3.139172 1_555
Ge16 Lu13 3.153268 1_555
Ge16 Lu8 3.351646 1_555
Ge17 Lu21 2.840526 1_555
Ge17 Lu19 2.840535 1_555
Ge17 Lu7 3.061198 1_565
Ge17 Lu5 3.061199 1_555
Ge17 Lu1 3.139152 1_565
Ge17 Lu3 3.139172 1_555
Ge17 Lu13 3.153268 1_555
Ge17 Lu9 3.351646 1_555
Ge18 Lu19 2.840527 1_555
Ge18 Lu20 2.840527 1_555
Ge18 Lu5 3.061199 1_555
Ge18 Lu6 3.061199 1_555
Ge18 Lu1 3.139173 1_555
Ge18 Lu2 3.139173 1_555
Ge18 Lu13 3.153260 1_555
Ge18 Lu10 3.351650 1_555
Ge19 Lu18 2.840535 1_555
Ge19 Lu21 2.840535 1_555
Ge19 Lu7 3.061198 1_565
Ge19 Lu4 3.061198 1_655
Ge19 Lu0 3.139151 1_565
Ge19 Lu3 3.139151 1_655
Ge19 Lu13 3.153275 1_555
Ge19 Lu11 3.351642 1_555
