# generated using pymatgen
data_MgSi2NiO6
_symmetry_space_group_name_H-M   'P 1'
_cell_length_a   7.44426558
_cell_length_b   9.41718874
_cell_length_c   7.44376296
_cell_angle_alpha   76.60819326
_cell_angle_beta   74.43334678
_cell_angle_gamma   110.28975542
_symmetry_Int_Tables_number   1
_chemical_formula_structural   MgSi2NiO6
_chemical_formula_sum   'Mg4 Si8 Ni4 O24'
_cell_volume   440.01382374
_cell_formula_units_Z   4
loop_
 _symmetry_equiv_pos_site_id
 _symmetry_equiv_pos_as_xyz
  1  'x, y, z'
loop_
 _atom_site_type_symbol
 _atom_site_label
 _atom_site_symmetry_multiplicity
 _atom_site_fract_x
 _atom_site_fract_y
 _atom_site_fract_z
 _atom_site_occupancy
  Mg  Mg0  1  0.75400100  0.87501500  0.37098300  1
  Mg  Mg1  1  0.75400000  0.37501600  0.87098700  1
  Mg  Mg2  1  0.24600000  0.62498500  0.12901700  1
  Mg  Mg3  1  0.24600300  0.12498400  0.62901000  1
  Si  Si0  1  0.38728300  0.42182000  0.78745600  1
  Si  Si1  1  0.38727400  0.92181100  0.28745600  1
  Si  Si2  1  0.79073800  0.82819300  0.78451800  1
  Si  Si3  1  0.79073300  0.32819300  0.28452600  1
  Si  Si4  1  0.20926200  0.67180700  0.71548200  1
  Si  Si5  1  0.20926800  0.17180600  0.21547400  1
  Si  Si6  1  0.61271700  0.07818100  0.71254400  1
  Si  Si7  1  0.61272600  0.57818900  0.21254500  1
  Ni  Ni0  1  0.90241900  0.12506900  0.97253000  1
  Ni  Ni1  1  0.09758000  0.37493100  0.52747000  1
  Ni  Ni2  1  0.90241700  0.62506500  0.47255600  1
  Ni  Ni3  1  0.09758200  0.87493400  0.02744400  1
  O  O0  1  0.38473000  0.60112200  0.72126100  1
  O  O1  1  0.38473100  0.10111800  0.22126000  1
  O  O2  1  0.67763000  0.64888500  0.96637500  1
  O  O3  1  0.67762500  0.14888200  0.46637900  1
  O  O4  1  0.61527000  0.89887800  0.77873900  1
  O  O5  1  0.61526900  0.39888100  0.27874100  1
  O  O6  1  0.32237000  0.85111400  0.53362500  1
  O  O7  1  0.32237500  0.35111800  0.03362100  1
  O  O8  1  0.62109200  0.44318200  0.68904600  1
  O  O9  1  0.62107500  0.94316600  0.18904000  1
  O  O10  1  0.86776300  0.80681300  0.57206900  1
  O  O11  1  0.86774600  0.30680300  0.07208300  1
  O  O12  1  0.37890900  0.05681800  0.81095400  1
  O  O13  1  0.37892500  0.55683400  0.31096100  1
  O  O14  1  0.13223700  0.69318700  0.92793200  1
  O  O15  1  0.13225400  0.19319700  0.42791700  1
  O  O16  1  0.03135300  0.54638500  0.66312800  1
  O  O17  1  0.03135700  0.04638400  0.16311700  1
  O  O18  1  0.79043900  0.20360300  0.76507300  1
  O  O19  1  0.79045200  0.70360300  0.26507800  1
  O  O20  1  0.20956100  0.29639700  0.73492800  1
  O  O21  1  0.20954700  0.79639700  0.23492200  1
  O  O22  1  0.96864700  0.95361400  0.83687300  1
  O  O23  1  0.96864300  0.45361600  0.33688300  1
loop_
_geom_bond_atom_site_label_1
_geom_bond_atom_site_label_2
_geom_bond_distance
_geom_bond_site_symmetry_2
Mg0 O9 1.995602 1_555
Mg0 O10 1.995619 1_555
Mg0 O19 2.019712 1_555
Mg0 O17 2.019733 1_665
Mg1 O8 1.995533 1_555
Mg1 O11 1.995620 1_556
Mg1 O16 2.019705 1_655
Mg1 O18 2.019729 1_555
Mg2 O13 1.995602 1_555
Mg2 O14 1.995618 1_554
Mg2 O21 2.019716 1_555
Mg2 O23 2.019737 1_455
Mg3 O12 1.995537 1_555
Mg3 O15 1.995619 1_555
Mg3 O22 2.019729 1_445
Mg3 O20 2.019752 1_555
Ni0 O18 2.053307 1_555
Ni0 O17 2.054319 1_656
Ni0 O11 2.082289 1_556
Ni0 O9 2.083175 1_546
Ni0 O20 2.215484 1_655
Ni0 O22 2.215829 1_545
Ni1 O20 2.053318 1_555
Ni1 O23 2.054313 1_455
Ni1 O15 2.082291 1_555
Ni1 O13 2.083176 1_555
Ni1 O18 2.215482 1_455
Ni1 O16 2.215822 1_555
Ni2 O19 2.053359 1_555
Ni2 O16 2.054208 1_655
Ni2 O10 2.082216 1_555
Ni2 O8 2.083000 1_555
Ni2 O21 2.215524 1_655
Ni2 O23 2.215840 1_555
Ni3 O21 2.053356 1_555
Ni3 O22 2.054197 1_454
Ni3 O14 2.082206 1_554
Ni3 O12 2.083010 1_564
Ni3 O19 2.215523 1_455
Ni3 O17 2.215846 1_565
O0 Si0 1.654128 1_555
O0 Si4 1.664664 1_555
O1 Si1 1.654141 1_545
O1 Si5 1.664656 1_555
O2 Si2 1.654119 1_555
O2 Si7 1.664662 1_556
O3 Si3 1.654124 1_555
O3 Si6 1.664625 1_555
O4 Si6 1.654137 1_565
O4 Si2 1.664664 1_555
O5 Si7 1.654150 1_555
O5 Si3 1.664661 1_555
O6 Si4 1.654112 1_555
O6 Si1 1.664655 1_555
O7 Si5 1.654130 1_555
O7 Si0 1.664625 1_554
O8 Si0 1.615899 1_555
O9 Si1 1.615874 1_555
O10 Si2 1.615884 1_555
O11 Si3 1.615876 1_555
O12 Si6 1.615889 1_555
O13 Si7 1.615874 1_555
O14 Si4 1.615890 1_555
O15 Si5 1.615881 1_555
O16 Si4 1.645088 1_555
O17 Si5 1.645112 1_555
O18 Si6 1.645033 1_555
O19 Si7 1.645033 1_555
O20 Si0 1.645033 1_555
O21 Si1 1.645042 1_555
O22 Si2 1.645088 1_555
O23 Si3 1.645112 1_555
