# generated using pymatgen
data_Li5Ni9As7
_symmetry_space_group_name_H-M   'P 1'
_cell_length_a   9.30009659
_cell_length_b   9.29980762
_cell_length_c   3.76105125
_cell_angle_alpha   90.00018230
_cell_angle_beta   89.99960665
_cell_angle_gamma   119.99634259
_symmetry_Int_Tables_number   1
_chemical_formula_structural   Li5Ni9As7
_chemical_formula_sum   'Li5 Ni9 As7'
_cell_volume   281.71976110
_cell_formula_units_Z   1
loop_
 _symmetry_equiv_pos_site_id
 _symmetry_equiv_pos_as_xyz
  1  'x, y, z'
loop_
 _atom_site_type_symbol
 _atom_site_label
 _atom_site_symmetry_multiplicity
 _atom_site_fract_x
 _atom_site_fract_y
 _atom_site_fract_z
 _atom_site_occupancy
  Li  Li0  1  0.76760334  0.54727771  0.49999608  1
  Li  Li1  1  0.45271283  0.22033948  0.49999758  1
  Li  Li2  1  0.77965367  0.23239159  0.49999553  1
  Li  Li3  1  0.33333183  0.66665151  -0.00000703  1
  Li  Li4  1  0.00000104  0.00001400  0.49999408  1
  Ni  Ni0  1  0.27554543  0.37507668  0.50000206  1
  Ni  Ni1  1  0.62502444  0.90053994  0.49999817  1
  Ni  Ni2  1  0.09955442  0.72449757  0.49999712  1
  Ni  Ni3  1  0.49501126  0.45247460  0.99998394  1
  Ni  Ni4  1  0.54759236  0.04267402  0.99999325  1
  Ni  Ni5  1  0.95728497  0.50471930  -0.00000700  1
  Ni  Ni6  1  0.71310959  0.76094880  0.99998928  1
  Ni  Ni7  1  0.23910261  0.95219445  0.99999859  1
  Ni  Ni8  1  0.04782279  0.28686859  0.99999550  1
  As  As0  1  0.96233790  0.75686247  0.00000333  1
  As  As1  1  0.24308860  0.20542782  1.00000271  1
  As  As2  1  0.79457730  0.03768707  0.99999442  1
  As  As3  1  0.66665160  0.33334172  1.00006524  1
  As  As4  1  0.53700700  0.62087160  0.50000139  1
  As  As5  1  0.37914059  0.91616369  0.50000278  1
  As  As6  1  0.08384744  0.46297641  0.50000199  1
loop_
_geom_bond_atom_site_label_1
_geom_bond_atom_site_label_2
_geom_bond_distance
_geom_bond_site_symmetry_2
Li0 Ni2 2.675721 1_655
Li0 Ni5 2.739165 1_555
Li0 Ni5 2.739167 1_556
Li0 Ni3 2.916419 1_555
Li0 Ni3 2.916497 1_554
Li0 Ni6 2.957803 1_555
Li0 Ni6 2.957848 1_554
Li1 Ni0 2.675147 1_555
Li1 Ni3 2.739023 1_555
Li1 Ni3 2.739099 1_554
Li1 Ni4 2.915936 1_555
Li1 Ni4 2.915942 1_554
Li1 Ni7 2.957708 1_545
Li1 Ni7 2.957711 1_544
Li2 Ni1 2.674844 1_545
Li2 Ni4 2.738546 1_555
Li2 Ni4 2.738570 1_554
Li2 Ni5 2.914807 1_556
Li2 Ni5 2.914815 1_555
Li2 Ni8 2.957978 1_654
Li2 Ni8 2.957998 1_655
Li3 Ni3 3.036909 1_554
Li3 Ni4 3.038391 1_564
Li3 Ni5 3.038531 1_455
Li3 Ni0 3.117799 1_554
Li3 Ni0 3.117846 1_555
Li3 Ni2 3.118041 1_555
Li3 Ni2 3.118043 1_554
Li3 Ni1 3.118745 1_554
Li3 Ni1 3.118783 1_555
Li3 Ni7 3.185355 1_554
Li3 Ni6 3.185410 1_554
Li3 Ni8 3.185543 1_554
Ni0 Ni3 2.598306 1_555
Ni0 Ni3 2.598388 1_554
Ni1 Ni4 2.598814 1_565
Ni1 Ni4 2.598854 1_564
Ni2 Ni5 2.600085 1_456
Ni2 Ni5 2.600112 1_455
Ni3 Ni6 2.554551 1_555
Ni4 Ni7 2.554463 1_545
Ni5 Ni8 2.553279 1_654
As0 Ni7 2.291253 1_654
As0 Ni5 2.321746 1_555
As0 Ni6 2.337078 1_554
As0 Ni2 2.374758 1_655
As0 Ni2 2.374779 1_654
As0 Li0 2.661881 1_555
As0 Li0 2.661929 1_554
As0 Li4 2.824935 1_665
As0 Li4 2.824988 1_664
As1 Ni8 2.290568 1_555
As1 Ni3 2.320658 1_555
As1 Ni7 2.336709 1_545
As1 Ni0 2.374960 1_556
As1 Ni0 2.374968 1_555
As1 Li1 2.661938 1_556
As1 Li1 2.661947 1_555
As1 Li4 2.824572 1_556
As1 Li4 2.824627 1_555
As2 Ni6 2.290813 1_545
As2 Ni4 2.320518 1_555
As2 Ni8 2.336633 1_655
As2 Ni1 2.374577 1_545
As2 Ni1 2.374588 1_546
As2 Li2 2.661879 1_556
As2 Li2 2.661883 1_555
As2 Li4 2.824570 1_655
As2 Li4 2.824587 1_656
As3 Ni5 2.353406 1_556
As3 Ni4 2.353784 1_555
As3 Ni3 2.354546 1_555
As3 Li0 2.550981 1_556
As3 Li2 2.551035 1_556
As3 Li1 2.551037 1_556
As3 Li0 2.551364 1_555
As3 Li2 2.551407 1_555
As3 Li1 2.551427 1_555
As4 Ni1 2.303429 1_555
As4 Ni3 2.351519 1_555
As4 Ni3 2.351620 1_554
As4 Ni0 2.362238 1_555
As4 Ni6 2.404632 1_555
As4 Ni6 2.404692 1_554
As4 Li0 2.556401 1_555
As4 Li3 2.848123 1_556
As4 Li3 2.848184 1_555
As5 Ni2 2.303017 1_555
As5 Ni4 2.351979 1_565
As5 Ni4 2.352025 1_564
As5 Ni1 2.362738 1_555
As5 Ni7 2.404384 1_555
As5 Ni7 2.404425 1_554
As5 Li1 2.556331 1_565
As5 Li3 2.848444 1_556
As5 Li3 2.848487 1_555
As6 Ni0 2.303005 1_555
As6 Ni5 2.351430 1_456
As6 Ni5 2.351499 1_455
As6 Ni2 2.362456 1_555
As6 Ni8 2.404617 1_555
As6 Ni8 2.404651 1_554
As6 Li2 2.556552 1_455
As6 Li3 2.848361 1_556
As6 Li3 2.848393 1_555
