# generated using pymatgen
data_K2Th3Mg(MoO4)8
_symmetry_space_group_name_H-M   'P 1'
_cell_length_a   9.54673554
_cell_length_b   13.13943413
_cell_length_c   13.13943413
_cell_angle_alpha   88.43753567
_cell_angle_beta   90.30048193
_cell_angle_gamma   90.30048193
_symmetry_Int_Tables_number   1
_chemical_formula_structural   K2Th3Mg(MoO4)8
_chemical_formula_sum   'K4 Th6 Mg2 Mo16 O64'
_cell_volume   1647.53664987
_cell_formula_units_Z   2
loop_
 _symmetry_equiv_pos_site_id
 _symmetry_equiv_pos_as_xyz
  1  'x, y, z'
loop_
 _atom_site_type_symbol
 _atom_site_label
 _atom_site_symmetry_multiplicity
 _atom_site_fract_x
 _atom_site_fract_y
 _atom_site_fract_z
 _atom_site_occupancy
  K  K0  1  0.43749325  0.14333738  0.62228081  1
  K  K1  1  0.06250675  0.37771919  0.85666262  1
  K  K2  1  0.56250675  0.85666262  0.37771919  1
  K  K3  1  0.93749325  0.62228081  0.14333738  1
  Th  Th0  1  0.75000000  0.13087854  0.86912146  1
  Th  Th1  1  0.25000000  0.86912146  0.13087854  1
  Th  Th2  1  0.16058245  0.87047868  0.63194510  1
  Th  Th3  1  0.33941755  0.36805490  0.12952132  1
  Th  Th4  1  0.83941755  0.12952132  0.36805490  1
  Th  Th5  1  0.66058245  0.63194510  0.87047868  1
  Mg  Mg0  1  0.75000000  0.58874902  0.41125098  1
  Mg  Mg1  1  0.25000000  0.41125098  0.58874902  1
  Mo  Mo0  1  0.45215980  0.90611649  0.85881166  1
  Mo  Mo1  1  0.04784020  0.14118834  0.09388351  1
  Mo  Mo2  1  0.54784020  0.09388351  0.14118834  1
  Mo  Mo3  1  0.95215980  0.85881166  0.90611649  1
  Mo  Mo4  1  0.03127297  0.16883819  0.64959939  1
  Mo  Mo5  1  0.46872703  0.35040061  0.83116181  1
  Mo  Mo6  1  0.96872703  0.83116181  0.35040061  1
  Mo  Mo7  1  0.53127297  0.64959939  0.16883819  1
  Mo  Mo8  1  0.46452034  0.65570024  0.58734190  1
  Mo  Mo9  1  0.03547966  0.41265810  0.34429976  1
  Mo  Mo10  1  0.53547966  0.34429976  0.41265810  1
  Mo  Mo11  1  0.96452034  0.58734190  0.65570024  1
  Mo  Mo12  1  0.74318924  0.96545764  0.60796434  1
  Mo  Mo13  1  0.75681076  0.39203566  0.03454236  1
  Mo  Mo14  1  0.25681076  0.03454236  0.39203566  1
  Mo  Mo15  1  0.24318924  0.60796434  0.96545764  1
  O  O0  1  0.70351997  0.06057482  0.70238014  1
  O  O1  1  0.79648003  0.29761986  0.93942518  1
  O  O2  1  0.29648003  0.93942518  0.29761986  1
  O  O3  1  0.20351997  0.70238014  0.06057482  1
  O  O4  1  0.15312800  0.26709213  0.61929119  1
  O  O5  1  0.34687200  0.38070881  0.73290787  1
  O  O6  1  0.84687200  0.73290787  0.38070881  1
  O  O7  1  0.65312800  0.61929119  0.26709213  1
  O  O8  1  0.34335416  0.76210698  0.58269354  1
  O  O9  1  0.15664584  0.41730646  0.23789302  1
  O  O10  1  0.65664584  0.23789302  0.41730646  1
  O  O11  1  0.84335416  0.58269354  0.76210698  1
  O  O12  1  0.70357258  0.01502659  0.48006408  1
  O  O13  1  0.79642742  0.51993592  0.98497341  1
  O  O14  1  0.29642742  0.98497341  0.51993592  1
  O  O15  1  0.20357258  0.48006408  0.01502659  1
  O  O16  1  0.93226108  0.20229174  0.76223053  1
  O  O17  1  0.56773892  0.23776947  0.79770826  1
  O  O18  1  0.06773892  0.79770826  0.23776947  1
  O  O19  1  0.43226108  0.76223053  0.20229174  1
  O  O20  1  0.36417695  0.54404888  0.57040998  1
  O  O21  1  0.13582305  0.42959002  0.45595112  1
  O  O22  1  0.63582305  0.45595112  0.42959002  1
  O  O23  1  0.86417695  0.57040998  0.54404888  1
  O  O24  1  0.58541394  0.66804217  0.48397216  1
  O  O25  1  0.91458606  0.51602784  0.33195783  1
  O  O26  1  0.41458606  0.33195783  0.51602784  1
  O  O27  1  0.08541394  0.48397216  0.66804217  1
  O  O28  1  0.53501956  0.02650941  0.87802830  1
  O  O29  1  0.96498044  0.12197170  0.97349059  1
  O  O30  1  0.46498044  0.97349059  0.12197170  1
  O  O31  1  0.03501956  0.87802830  0.02650941  1
  O  O32  1  0.35565469  0.91365818  0.74121418  1
  O  O33  1  0.14434531  0.25878582  0.08634182  1
  O  O34  1  0.64434531  0.08634182  0.25878582  1
  O  O35  1  0.85565469  0.74121418  0.91365818  1
  O  O36  1  0.57854582  0.80624245  0.85762999  1
  O  O37  1  0.92145418  0.14237001  0.19375755  1
  O  O38  1  0.42145418  0.19375755  0.14237001  1
  O  O39  1  0.07854582  0.85762999  0.80624245  1
  O  O40  1  0.91336860  0.14871364  0.54488470  1
  O  O41  1  0.58663140  0.45511530  0.85128636  1
  O  O42  1  0.08663140  0.85128636  0.45511530  1
  O  O43  1  0.41336860  0.54488470  0.14871364  1
  O  O44  1  0.55460462  0.64310280  0.70877087  1
  O  O45  1  0.94539538  0.29122913  0.35689720  1
  O  O46  1  0.44539538  0.35689720  0.29122913  1
  O  O47  1  0.05460462  0.70877087  0.64310280  1
  O  O48  1  0.12987496  0.05597257  0.67691615  1
  O  O49  1  0.37012504  0.32308385  0.94402743  1
  O  O50  1  0.87012504  0.94402743  0.32308385  1
  O  O51  1  0.62987496  0.67691615  0.05597257  1
  O  O52  1  0.92050522  0.91867230  0.61759800  1
  O  O53  1  0.57949478  0.38240200  0.08132770  1
  O  O54  1  0.07949478  0.08132770  0.38240200  1
  O  O55  1  0.42050522  0.61759800  0.91867230  1
  O  O56  1  0.33185958  0.87855117  0.96113856  1
  O  O57  1  0.16814042  0.03886144  0.12144883  1
  O  O58  1  0.66814042  0.12144883  0.03886144  1
  O  O59  1  0.83185958  0.96113856  0.87855117  1
  O  O60  1  0.63104121  0.86190048  0.62606309  1
  O  O61  1  0.86895879  0.37393691  0.13809952  1
  O  O62  1  0.36895879  0.13809952  0.37393691  1
  O  O63  1  0.13104121  0.62606309  0.86190048  1
loop_
_geom_bond_atom_site_label_1
_geom_bond_atom_site_label_2
_geom_bond_distance
_geom_bond_site_symmetry_2
K0 O26 2.820110 1_555
K0 O14 2.838310 1_545
K0 O17 2.916928 1_555
K0 O0 2.945972 1_555
K1 O27 2.820110 1_555
K1 O15 2.838310 1_556
K1 O16 2.916928 1_455
K1 O1 2.945972 1_455
K2 O24 2.820110 1_555
K2 O12 2.838310 1_565
K2 O19 2.916928 1_555
K2 O2 2.945972 1_555
K3 O25 2.820110 1_555
K3 O13 2.838310 1_554
K3 O18 2.916928 1_655
K3 O3 2.945972 1_655
Mg0 O22 2.061727 1_555
Mg0 O23 2.061727 1_555
Mg0 O7 2.132663 1_555
Mg0 O6 2.132663 1_555
Mg0 O25 2.134142 1_555
Mg0 O24 2.134142 1_555
Mg1 O20 2.061727 1_555
Mg1 O21 2.061727 1_555
Mg1 O4 2.132663 1_555
Mg1 O5 2.132663 1_555
Mg1 O26 2.134142 1_555
Mg1 O27 2.134142 1_555
Mo0 O36 1.787758 1_555
Mo0 O28 1.788422 1_565
Mo0 O32 1.795505 1_555
Mo0 O56 1.800883 1_555
Mo1 O37 1.787758 1_455
Mo1 O29 1.788422 1_454
Mo1 O33 1.795505 1_555
Mo1 O57 1.800883 1_555
Mo2 O38 1.787758 1_555
Mo2 O30 1.788422 1_545
Mo2 O34 1.795505 1_555
Mo2 O58 1.800883 1_555
Mo3 O39 1.787758 1_655
Mo3 O31 1.788422 1_656
Mo3 O35 1.795505 1_555
Mo3 O59 1.800883 1_555
Mo4 O4 1.771906 1_555
Mo4 O48 1.787808 1_555
Mo4 O40 1.797346 1_455
Mo4 O16 1.825193 1_455
Mo5 O5 1.771906 1_555
Mo5 O49 1.787808 1_555
Mo5 O41 1.797346 1_555
Mo5 O17 1.825193 1_555
Mo6 O6 1.771906 1_555
Mo6 O50 1.787808 1_555
Mo6 O42 1.797346 1_655
Mo6 O18 1.825193 1_655
Mo7 O7 1.771906 1_555
Mo7 O51 1.787808 1_555
Mo7 O43 1.797346 1_555
Mo7 O19 1.825193 1_555
Mo8 O20 1.766404 1_555
Mo8 O24 1.790409 1_555
Mo8 O44 1.812557 1_555
Mo8 O8 1.818818 1_555
Mo9 O21 1.766404 1_555
Mo9 O25 1.790409 1_455
Mo9 O45 1.812557 1_455
Mo9 O9 1.818818 1_555
Mo10 O22 1.766404 1_555
Mo10 O26 1.790409 1_555
Mo10 O46 1.812557 1_555
Mo10 O10 1.818818 1_555
Mo11 O23 1.766404 1_555
Mo11 O27 1.790409 1_655
Mo11 O47 1.812557 1_655
Mo11 O11 1.818818 1_555
Mo12 O60 1.738977 1_555
Mo12 O52 1.806620 1_555
Mo12 O12 1.824192 1_565
Mo12 O0 1.827251 1_565
Mo13 O61 1.738977 1_555
Mo13 O53 1.806620 1_555
Mo13 O13 1.824192 1_554
Mo13 O1 1.827251 1_554
Mo14 O62 1.738977 1_555
Mo14 O54 1.806620 1_555
Mo14 O14 1.824192 1_545
Mo14 O2 1.827251 1_545
Mo15 O63 1.738977 1_555
Mo15 O55 1.806620 1_555
Mo15 O15 1.824192 1_556
Mo15 O3 1.827251 1_556
O0 Th0 2.438456 1_555
O1 Th0 2.438456 1_555
O2 Th1 2.438456 1_555
O3 Th1 2.438456 1_555
O8 Th2 2.362020 1_555
O9 Th3 2.362020 1_555
O10 Th4 2.362020 1_555
O11 Th5 2.362020 1_555
O12 Th4 2.447431 1_555
O13 Th5 2.447431 1_555
O14 Th2 2.447431 1_555
O15 Th3 2.447431 1_555
O16 Th0 2.411903 1_555
O17 Th0 2.411903 1_555
O18 Th1 2.411903 1_555
O19 Th1 2.411903 1_555
O28 Th0 2.463886 1_555
O29 Th0 2.463886 1_555
O30 Th1 2.463886 1_555
O31 Th1 2.463886 1_555
O32 Th2 2.420060 1_555
O33 Th3 2.420060 1_555
O34 Th4 2.420060 1_555
O35 Th5 2.420060 1_555
O36 Th5 2.425508 1_555
O37 Th4 2.425508 1_555
O38 Th3 2.425508 1_555
O39 Th2 2.425508 1_555
O40 Th4 2.444031 1_555
O41 Th5 2.444031 1_555
O42 Th2 2.444031 1_555
O43 Th3 2.444031 1_555
O44 Th5 2.349829 1_555
O45 Th4 2.349829 1_555
O46 Th3 2.349829 1_555
O47 Th2 2.349829 1_555
O48 Th2 2.542303 1_545
O49 Th3 2.542303 1_556
O50 Th4 2.542303 1_565
O51 Th5 2.542303 1_554
O52 Th2 2.386160 1_655
O53 Th3 2.386160 1_555
O54 Th4 2.386160 1_455
O55 Th5 2.386160 1_555
O56 Th1 2.366951 1_556
O57 Th1 2.366951 1_545
O58 Th0 2.366951 1_554
O59 Th0 2.366951 1_565
