# generated using pymatgen
data_La4MgNi3WO12
_symmetry_space_group_name_H-M   'P 1'
_cell_length_a   5.47691501
_cell_length_b   8.97363100
_cell_length_c   5.61206531
_cell_angle_alpha   90.00000000
_cell_angle_beta   90.62077327
_cell_angle_gamma   90.00000000
_symmetry_Int_Tables_number   1
_chemical_formula_structural   La4MgNi3WO12
_chemical_formula_sum   'La4 Mg1 Ni3 W1 O12'
_cell_volume   275.80455503
_cell_formula_units_Z   1
loop_
 _symmetry_equiv_pos_site_id
 _symmetry_equiv_pos_as_xyz
  1  'x, y, z'
loop_
 _atom_site_type_symbol
 _atom_site_label
 _atom_site_symmetry_multiplicity
 _atom_site_fract_x
 _atom_site_fract_y
 _atom_site_fract_z
 _atom_site_occupancy
  La  La0  1  0.50000000  0.19328300  0.00000000  1
  La  La1  1  0.00000000  0.70620900  0.50000000  1
  La  La2  1  0.50000000  0.80671700  0.00000000  1
  La  La3  1  0.00000000  0.29379100  0.50000000  1
  Mg  Mg0  1  0.50000000  0.50000000  0.00000000  1
  Ni  Ni0  1  0.00000000  0.00000000  0.00000000  1
  Ni  Ni1  1  0.50000000  0.50000000  0.50000000  1
  Ni  Ni2  1  0.00000000  0.50000000  0.00000000  1
  W  W0  1  0.50000000  0.00000000  0.50000000  1
  O  O0  1  0.00000000  0.24630900  0.00000000  1
  O  O1  1  0.50000000  0.76501800  0.50000000  1
  O  O2  1  0.24865600  0.50000000  0.25444300  1
  O  O3  1  0.68529000  0.00000000  0.82387300  1
  O  O4  1  0.24517700  0.50000000  0.74183300  1
  O  O5  1  0.79906800  0.00000000  0.29913200  1
  O  O6  1  0.00000000  0.75369100  0.00000000  1
  O  O7  1  0.50000000  0.23498200  0.50000000  1
  O  O8  1  0.75134400  0.50000000  0.74555700  1
  O  O9  1  0.31471000  0.00000000  0.17612700  1
  O  O10  1  0.75482300  0.50000000  0.25816700  1
  O  O11  1  0.20093200  0.00000000  0.70086800  1
loop_
_geom_bond_atom_site_label_1
_geom_bond_atom_site_label_2
_geom_bond_distance
_geom_bond_site_symmetry_2
La0 O9 2.244307 1_555
La0 O3 2.244307 1_554
La0 O0 2.779491 1_555
La0 O0 2.779491 1_655
La0 O7 2.830872 1_555
La0 O7 2.830872 1_554
La1 O4 2.651366 1_555
La1 O10 2.651366 1_455
La1 O8 2.686746 1_455
La1 O2 2.686746 1_555
La1 O1 2.788844 1_555
La1 O1 2.788844 1_455
La1 O6 2.838198 1_555
La1 O6 2.838198 1_556
La1 O11 3.066826 1_565
La1 O5 3.066826 1_465
La2 O9 2.244307 1_565
La2 O3 2.244307 1_564
La2 O6 2.779491 1_555
La2 O6 2.779491 1_655
La2 O1 2.830872 1_555
La2 O1 2.830872 1_554
La3 O4 2.651366 1_555
La3 O10 2.651366 1_455
La3 O8 2.686746 1_455
La3 O2 2.686746 1_555
La3 O7 2.788844 1_455
La3 O7 2.788844 1_555
La3 O0 2.838198 1_555
La3 O0 2.838198 1_556
La3 O11 3.066826 1_555
La3 O5 3.066826 1_455
Mg0 O2 1.994151 1_555
Mg0 O8 1.994151 1_554
Mg0 O10 2.000793 1_555
Mg0 O4 2.000793 1_554
Ni0 O3 1.977631 1_454
Ni0 O9 1.977631 1_555
Ni0 O5 2.017251 1_455
Ni0 O11 2.017251 1_554
Ni0 O6 2.210286 1_545
Ni0 O0 2.210286 1_555
Ni1 O8 1.937267 1_555
Ni1 O2 1.937267 1_555
Ni1 O10 1.957246 1_555
Ni1 O4 1.957246 1_555
Ni1 O1 2.378174 1_555
Ni1 O7 2.378174 1_555
Ni2 O2 1.962546 1_555
Ni2 O8 1.962546 1_454
Ni2 O4 1.986069 1_554
Ni2 O10 1.986069 1_455
Ni2 O6 2.276529 1_555
Ni2 O0 2.276529 1_555
O1 W0 2.108642 1_565
O3 W0 2.072087 1_555
O5 W0 1.998431 1_555
O7 W0 2.108642 1_555
O9 W0 2.072087 1_555
O11 W0 1.998431 1_555
