# generated using pymatgen
data_TiZnCu(PO4)3
_symmetry_space_group_name_H-M   'P 1'
_cell_length_a   8.51200098
_cell_length_b   8.51200098
_cell_length_c   8.51200114
_cell_angle_alpha   60.70419064
_cell_angle_beta   60.70419064
_cell_angle_gamma   60.70419031
_symmetry_Int_Tables_number   1
_chemical_formula_structural   TiZnCu(PO4)3
_chemical_formula_sum   'Ti2 Zn2 Cu2 P6 O24'
_cell_volume   443.02484765
_cell_formula_units_Z   2
loop_
 _symmetry_equiv_pos_site_id
 _symmetry_equiv_pos_as_xyz
  1  'x, y, z'
loop_
 _atom_site_type_symbol
 _atom_site_label
 _atom_site_symmetry_multiplicity
 _atom_site_fract_x
 _atom_site_fract_y
 _atom_site_fract_z
 _atom_site_occupancy
  Ti  Ti0  1  0.85671100  0.85671100  0.85671100  1
  Ti  Ti1  1  0.35671100  0.35671100  0.35671100  1
  Zn  Zn0  1  0.00404700  0.00404700  0.00404700  1
  Zn  Zn1  1  0.50404700  0.50404700  0.50404700  1
  Cu  Cu0  1  0.64507600  0.64507600  0.64507600  1
  Cu  Cu1  1  0.14507600  0.14507600  0.14507600  1
  P  P0  1  0.24991800  0.95521700  0.54294700  1
  P  P1  1  0.95521700  0.54294700  0.24991800  1
  P  P2  1  0.54294700  0.24991800  0.95521700  1
  P  P3  1  0.45521700  0.74991800  0.04294700  1
  P  P4  1  0.04294700  0.45521700  0.74991800  1
  P  P5  1  0.74991800  0.04294700  0.45521700  1
  O  O0  1  0.69179200  0.88637700  0.48269100  1
  O  O1  1  0.48269100  0.69179200  0.88637700  1
  O  O2  1  0.08675300  0.94539200  0.74060500  1
  O  O3  1  0.88637700  0.48269100  0.69179200  1
  O  O4  1  0.19179200  0.98269100  0.38637700  1
  O  O5  1  0.41394100  0.76061800  0.55845100  1
  O  O6  1  0.94539200  0.74060500  0.08675300  1
  O  O7  1  0.76061800  0.55845100  0.41394100  1
  O  O8  1  0.62181200  0.81038100  0.99727400  1
  O  O9  1  0.55845100  0.41394100  0.76061800  1
  O  O10  1  0.26061800  0.91394100  0.05845100  1
  O  O11  1  0.99727400  0.62181200  0.81038100  1
  O  O12  1  0.98269100  0.38637700  0.19179200  1
  O  O13  1  0.74060500  0.08675300  0.94539200  1
  O  O14  1  0.44539200  0.58675300  0.24060500  1
  O  O15  1  0.38637700  0.19179200  0.98269100  1
  O  O16  1  0.24060500  0.44539200  0.58675300  1
  O  O17  1  0.05845100  0.26061800  0.91394100  1
  O  O18  1  0.58675300  0.24060500  0.44539200  1
  O  O19  1  0.81038100  0.99727400  0.62181200  1
  O  O20  1  0.12181200  0.49727400  0.31038100  1
  O  O21  1  0.91394100  0.05845100  0.26061800  1
  O  O22  1  0.49727400  0.31038100  0.12181200  1
  O  O23  1  0.31038100  0.12181200  0.49727400  1
loop_
_geom_bond_atom_site_label_1
_geom_bond_atom_site_label_2
_geom_bond_distance
_geom_bond_site_symmetry_2
Cu0 O3 1.941758 1_555
Cu0 O0 1.941758 1_555
Cu0 O1 1.941758 1_555
Cu0 O9 2.048923 1_555
Cu0 O5 2.048923 1_555
Cu0 O7 2.048923 1_555
Cu1 O12 1.941758 1_455
Cu1 O15 1.941758 1_554
Cu1 O4 1.941758 1_545
Cu1 O21 2.048923 1_455
Cu1 O10 2.048923 1_545
Cu1 O17 2.048923 1_554
O0 P5 1.517464 1_565
O1 P3 1.517464 1_556
O2 P0 1.567098 1_555
O2 Ti0 2.050203 1_455
O2 Zn0 2.231609 1_566
O3 P4 1.517464 1_655
O4 P0 1.517464 1_555
O5 P0 1.553572 1_555
O5 Zn1 2.138965 1_555
O6 P1 1.567098 1_555
O6 Ti0 2.050203 1_554
O6 Zn0 2.231609 1_665
O7 P1 1.553572 1_555
O7 Zn1 2.138965 1_555
O8 P3 1.551065 1_556
O8 Ti0 1.885104 1_555
O9 P2 1.553572 1_555
O9 Zn1 2.138965 1_555
O10 P3 1.553572 1_555
O10 Zn0 2.138965 1_565
O11 P4 1.551065 1_655
O11 Ti0 1.885104 1_555
O12 P1 1.517464 1_555
O13 P2 1.567098 1_555
O13 Ti0 2.050203 1_545
O13 Zn0 2.231609 1_656
O14 P3 1.567098 1_555
O14 Ti1 2.050203 1_555
O14 Zn1 2.231609 1_555
O15 P2 1.517464 1_555
O16 P4 1.567098 1_555
O16 Ti1 2.050203 1_555
O16 Zn1 2.231609 1_555
O17 P4 1.553572 1_555
O17 Zn0 2.138965 1_556
O18 P5 1.567098 1_555
O18 Ti1 2.050203 1_555
O18 Zn1 2.231609 1_555
O19 P5 1.551065 1_565
O19 Ti0 1.885104 1_555
O20 P1 1.551065 1_455
O20 Ti1 1.885104 1_555
O21 P5 1.553572 1_555
O21 Zn0 2.138965 1_655
O22 P2 1.551065 1_554
O22 Ti1 1.885104 1_555
O23 P0 1.551065 1_545
O23 Ti1 1.885104 1_555
