# generated using pymatgen
data_La(ClO3)3
_symmetry_space_group_name_H-M   'P 1'
_cell_length_a   8.89764810
_cell_length_b   8.89764810
_cell_length_c   10.25438000
_cell_angle_alpha   90.00000000
_cell_angle_beta   90.00000000
_cell_angle_gamma   121.74719783
_symmetry_Int_Tables_number   1
_chemical_formula_structural   La(ClO3)3
_chemical_formula_sum   'La2 Cl6 O18'
_cell_volume   690.35401227
_cell_formula_units_Z   2
loop_
 _symmetry_equiv_pos_site_id
 _symmetry_equiv_pos_as_xyz
  1  'x, y, z'
loop_
 _atom_site_type_symbol
 _atom_site_label
 _atom_site_symmetry_multiplicity
 _atom_site_fract_x
 _atom_site_fract_y
 _atom_site_fract_z
 _atom_site_occupancy
  La  La0  1  0.32991900  0.66383600  0.25000000  1
  La  La1  1  0.66383600  0.32991900  0.75000000  1
  Cl  Cl0  1  0.74340400  0.00214500  0.00118700  1
  Cl  Cl1  1  0.00214500  0.74340400  0.99881300  1
  Cl  Cl2  1  0.25813600  0.25813600  0.00000000  1
  Cl  Cl3  1  0.74340400  0.00214500  0.49881300  1
  Cl  Cl4  1  0.00214500  0.74340400  0.50118700  1
  Cl  Cl5  1  0.25813600  0.25813600  0.50000000  1
  O  O0  1  0.57276500  0.82864900  0.01080200  1
  O  O1  1  0.16733500  0.73995700  0.00584800  1
  O  O2  1  0.26294500  0.42833200  0.00865600  1
  O  O3  1  0.57276500  0.82864900  0.48919800  1
  O  O4  1  0.16733500  0.73995700  0.49415200  1
  O  O5  1  0.26294500  0.42833200  0.49134400  1
  O  O6  1  0.82864900  0.57276500  0.51080200  1
  O  O7  1  0.73995700  0.16733500  0.50584800  1
  O  O8  1  0.42833200  0.26294500  0.50865600  1
  O  O9  1  0.82864900  0.57276500  0.98919800  1
  O  O10  1  0.73995700  0.16733500  0.99415200  1
  O  O11  1  0.42833200  0.26294500  0.99134400  1
  O  O12  1  0.39705100  0.92931200  0.25000000  1
  O  O13  1  0.06666800  0.46490000  0.25000000  1
  O  O14  1  0.53280600  0.60806900  0.25000000  1
  O  O15  1  0.92931200  0.39705100  0.75000000  1
  O  O16  1  0.46490000  0.06666800  0.75000000  1
  O  O17  1  0.60806900  0.53280600  0.75000000  1
loop_
_geom_bond_atom_site_label_1
_geom_bond_atom_site_label_2
_geom_bond_distance
_geom_bond_site_symmetry_2
La0 O13 2.063127 1_555
La0 O14 2.108944 1_555
La0 O12 2.109876 1_555
La1 O16 2.063127 1_555
La1 O17 2.108944 1_555
La1 O15 2.109876 1_555
Cl0 O10 1.487919 1_554
Cl0 O0 1.493811 1_545
Cl1 O1 1.487919 1_556
Cl1 O9 1.493811 1_455
Cl2 O2 1.494911 1_555
Cl2 O11 1.494911 1_554
Cl3 O7 1.487919 1_555
Cl3 O3 1.493811 1_545
Cl4 O4 1.487919 1_555
Cl4 O6 1.493811 1_455
Cl5 O5 1.494911 1_555
Cl5 O8 1.494911 1_555
