# generated using pymatgen
data_HfSiRh
_symmetry_space_group_name_H-M   'P 1'
_cell_length_a   3.89685120
_cell_length_b   6.48218953
_cell_length_c   7.40207273
_cell_angle_alpha   90.00000000
_cell_angle_beta   90.00000000
_cell_angle_gamma   90.00000000
_symmetry_Int_Tables_number   1
_chemical_formula_structural   HfSiRh
_chemical_formula_sum   'Hf4 Si4 Rh4'
_cell_volume   186.97730498
_cell_formula_units_Z   4
loop_
 _symmetry_equiv_pos_site_id
 _symmetry_equiv_pos_as_xyz
  1  'x, y, z'
loop_
 _atom_site_type_symbol
 _atom_site_label
 _atom_site_symmetry_multiplicity
 _atom_site_fract_x
 _atom_site_fract_y
 _atom_site_fract_z
 _atom_site_occupancy
  Hf  Hf0  1  0.25000000  0.52003760  0.81448887  1
  Hf  Hf1  1  0.75000000  0.47996240  0.18551113  1
  Hf  Hf2  1  0.25000000  0.02003760  0.68551113  1
  Hf  Hf3  1  0.75000000  0.97996240  0.31448887  1
  Si  Si0  1  0.25000000  0.77360489  0.11631943  1
  Si  Si1  1  0.75000000  0.22639511  0.88368057  1
  Si  Si2  1  0.25000000  0.27360489  0.38368057  1
  Si  Si3  1  0.75000000  0.72639511  0.61631943  1
  Rh  Rh0  1  0.75000000  0.85065982  0.93334086  1
  Rh  Rh1  1  0.25000000  0.14934018  0.06665914  1
  Rh  Rh2  1  0.75000000  0.35065982  0.56665914  1
  Rh  Rh3  1  0.25000000  0.64934018  0.43334086  1
loop_
_geom_bond_atom_site_label_1
_geom_bond_atom_site_label_2
_geom_bond_distance
_geom_bond_site_symmetry_2
Hf0 Si1 2.771602 1_555
Hf0 Si1 2.771602 1_455
Hf0 Si0 2.773658 1_556
Hf0 Si3 2.781611 1_555
Hf0 Si3 2.781611 1_455
Hf0 Rh2 2.892586 1_455
Hf0 Rh2 2.892586 1_555
Hf0 Rh3 2.943156 1_555
Hf0 Rh0 3.027118 1_555
Hf0 Rh0 3.027118 1_455
Hf0 Rh1 3.042730 1_556
Hf1 Si0 2.771602 1_655
Hf1 Si0 2.771602 1_555
Hf1 Si1 2.773658 1_554
Hf1 Si2 2.781611 1_555
Hf1 Si2 2.781611 1_655
Hf1 Rh3 2.892586 1_655
Hf1 Rh3 2.892586 1_555
Hf1 Rh2 2.943156 1_555
Hf1 Rh1 3.027118 1_655
Hf1 Rh1 3.027118 1_555
Hf1 Rh0 3.042730 1_554
Hf2 Si3 2.771602 1_545
Hf2 Si3 2.771602 1_445
Hf2 Si2 2.773658 1_555
Hf2 Si1 2.781611 1_455
Hf2 Si1 2.781611 1_555
Hf2 Rh0 2.892586 1_445
Hf2 Rh0 2.892586 1_545
Hf2 Rh1 2.943156 1_556
Hf2 Rh2 3.027118 1_555
Hf2 Rh2 3.027118 1_455
Hf2 Rh3 3.042730 1_545
Hf3 Si2 2.771602 1_565
Hf3 Si2 2.771602 1_665
Hf3 Si3 2.773658 1_555
Hf3 Si0 2.781611 1_655
Hf3 Si0 2.781611 1_555
Hf3 Rh1 2.892586 1_565
Hf3 Rh1 2.892586 1_665
Hf3 Rh0 2.943156 1_554
Hf3 Rh3 3.027118 1_655
Hf3 Rh3 3.027118 1_555
Hf3 Rh2 3.042730 1_565
Rh0 Si0 2.424934 1_556
Rh0 Si0 2.424934 1_656
Rh0 Si1 2.463170 1_565
Rh0 Si3 2.481017 1_555
Rh1 Si1 2.424934 1_554
Rh1 Si1 2.424934 1_454
Rh1 Si0 2.463170 1_545
Rh1 Si2 2.481017 1_555
Rh2 Si2 2.424934 1_555
Rh2 Si2 2.424934 1_655
Rh2 Si3 2.463170 1_555
Rh2 Si1 2.481017 1_555
Rh3 Si3 2.424934 1_455
Rh3 Si3 2.424934 1_555
Rh3 Si2 2.463170 1_555
Rh3 Si0 2.481017 1_555
