# generated using pymatgen
data_K2Se4O
_symmetry_space_group_name_H-M   'P 1'
_cell_length_a   6.37465301
_cell_length_b   6.37465301
_cell_length_c   11.30852920
_cell_angle_alpha   82.94948088
_cell_angle_beta   82.94948088
_cell_angle_gamma   85.74481507
_symmetry_Int_Tables_number   1
_chemical_formula_structural   K2Se4O
_chemical_formula_sum   'K4 Se8 O2'
_cell_volume   451.79576454
_cell_formula_units_Z   2
loop_
 _symmetry_equiv_pos_site_id
 _symmetry_equiv_pos_as_xyz
  1  'x, y, z'
loop_
 _atom_site_type_symbol
 _atom_site_label
 _atom_site_symmetry_multiplicity
 _atom_site_fract_x
 _atom_site_fract_y
 _atom_site_fract_z
 _atom_site_occupancy
  K  K0  1  0.09448600  0.64836700  0.67083600  1
  K  K1  1  0.64836700  0.09448600  0.17083600  1
  K  K2  1  0.12543100  0.50476800  0.05754700  1
  K  K3  1  0.50476800  0.12543100  0.55754700  1
  Se  Se0  1  0.57979900  0.52403600  0.80762300  1
  Se  Se1  1  0.52403600  0.57979900  0.30762300  1
  Se  Se2  1  0.66943100  0.14312400  0.84599900  1
  Se  Se3  1  0.14312400  0.66943100  0.34599900  1
  Se  Se4  1  0.61803000  0.61015900  0.59428500  1
  Se  Se5  1  0.61015900  0.61803000  0.09428500  1
  Se  Se6  1  0.04383300  0.08748800  0.84507000  1
  Se  Se7  1  0.08748800  0.04383300  0.34507000  1
  O  O0  1  0.15748500  0.05778300  0.69893900  1
  O  O1  1  0.05778300  0.15748500  0.19893900  1
loop_
_geom_bond_atom_site_label_1
_geom_bond_atom_site_label_2
_geom_bond_distance
_geom_bond_site_symmetry_2
K0 O0 2.732081 1_565
K0 Se4 3.292500 1_455
K0 Se4 3.341994 1_555
K0 Se0 3.553111 1_455
K0 Se0 3.619653 1_555
K0 Se3 3.635070 1_555
K1 O1 2.732081 1_655
K1 Se5 3.292500 1_545
K1 Se5 3.341994 1_555
K1 Se1 3.553111 1_545
K1 Se1 3.619653 1_555
K1 Se2 3.635070 1_554
K2 O1 2.597487 1_555
K2 Se5 3.296926 1_455
K2 Se5 3.310842 1_555
K2 Se3 3.564183 1_555
K2 Se0 3.788170 1_554
K3 O0 2.597487 1_555
K3 Se4 3.296926 1_545
K3 Se4 3.310842 1_555
K3 Se2 3.564183 1_555
K3 Se1 3.788170 1_555
Se0 Se4 2.394058 1_555
Se0 Se2 2.450952 1_555
Se1 Se5 2.394058 1_555
Se1 Se3 2.450952 1_555
Se2 Se6 2.385644 1_655
Se3 Se7 2.385644 1_565
O0 Se6 1.747610 1_555
O1 Se7 1.747610 1_555
