# generated using pymatgen
data_Mg6SiMo
_symmetry_space_group_name_H-M   'P 1'
_cell_length_a   5.02535100
_cell_length_b   5.68018400
_cell_length_c   10.72073500
_cell_angle_alpha   90.00000000
_cell_angle_beta   90.00000000
_cell_angle_gamma   90.00000000
_symmetry_Int_Tables_number   1
_chemical_formula_structural   Mg6SiMo
_chemical_formula_sum   'Mg12 Si2 Mo2'
_cell_volume   306.02250517
_cell_formula_units_Z   2
loop_
 _symmetry_equiv_pos_site_id
 _symmetry_equiv_pos_as_xyz
  1  'x, y, z'
loop_
 _atom_site_type_symbol
 _atom_site_label
 _atom_site_symmetry_multiplicity
 _atom_site_fract_x
 _atom_site_fract_y
 _atom_site_fract_z
 _atom_site_occupancy
  Mg  Mg0  1  0.00000000  0.25079800  0.42230000  1
  Mg  Mg1  1  0.00000000  0.74920200  0.42230000  1
  Mg  Mg2  1  0.50000000  0.74253500  0.08199000  1
  Mg  Mg3  1  0.50000000  0.25746500  0.08199000  1
  Mg  Mg4  1  0.50000000  0.00000000  0.32412300  1
  Mg  Mg5  1  0.50000000  0.50000000  0.32285800  1
  Mg  Mg6  1  0.00000000  0.75079800  0.92230000  1
  Mg  Mg7  1  0.00000000  0.24920200  0.92230000  1
  Mg  Mg8  1  0.50000000  0.24253500  0.58199000  1
  Mg  Mg9  1  0.50000000  0.75746500  0.58199000  1
  Mg  Mg10  1  0.50000000  0.50000000  0.82412300  1
  Mg  Mg11  1  0.50000000  0.00000000  0.82285800  1
  Si  Si0  1  0.00000000  0.00000000  0.16987600  1
  Si  Si1  1  0.00000000  0.50000000  0.66987600  1
  Mo  Mo0  1  0.00000000  0.50000000  0.17455900  1
  Mo  Mo1  1  0.00000000  0.00000000  0.67455900  1
loop_
_geom_bond_atom_site_label_1
_geom_bond_atom_site_label_2
_geom_bond_distance
_geom_bond_site_symmetry_2
Mg0 Mg1 2.831026 1_555
Mg0 Mg1 2.849158 1_545
Mg0 Si1 3.008062 1_555
Mg0 Mo0 3.009623 1_555
Mg0 Mg8 3.040833 1_555
Mg0 Mg8 3.040833 1_455
Mg0 Mo1 3.056667 1_555
Mg0 Si0 3.058232 1_555
Mg0 Mg4 3.074212 1_455
Mg0 Mg4 3.074212 1_555
Mg0 Mg5 3.074698 1_455
Mg0 Mg5 3.074698 1_555
Mg1 Si1 3.008062 1_555
Mg1 Mo0 3.009623 1_555
Mg1 Mg9 3.040833 1_455
Mg1 Mg9 3.040833 1_555
Mg1 Mo1 3.056667 1_565
Mg1 Si0 3.058232 1_565
Mg1 Mg4 3.074212 1_565
Mg1 Mg4 3.074212 1_465
Mg1 Mg5 3.074698 1_555
Mg1 Mg5 3.074698 1_455
Mg2 Mg3 2.755287 1_555
Mg2 Mg3 2.924897 1_565
Mg2 Mg5 2.926787 1_555
Mg2 Mg4 2.979456 1_565
Mg2 Mo0 3.032542 1_655
Mg2 Mo0 3.032542 1_555
Mg2 Mg6 3.040833 1_554
Mg2 Mg6 3.040833 1_654
Mg2 Si0 3.056148 1_665
Mg2 Si0 3.056148 1_565
Mg3 Mg5 2.926787 1_555
Mg3 Mg4 2.979456 1_555
Mg3 Mo0 3.032542 1_655
Mg3 Mo0 3.032542 1_555
Mg3 Mg7 3.040833 1_654
Mg3 Mg7 3.040833 1_554
Mg3 Si0 3.056148 1_655
Mg3 Si0 3.056148 1_555
Mg4 Mg5 2.840124 1_555
Mg4 Mg5 2.840124 1_545
Mg4 Si0 3.008001 1_655
Mg4 Si0 3.008001 1_555
Mg4 Mg8 3.088769 1_555
Mg4 Mg9 3.088769 1_545
Mg5 Mo0 2.973422 1_655
Mg5 Mo0 2.973422 1_555
Mg5 Mg9 3.139509 1_555
Mg5 Mg8 3.139509 1_555
Mg6 Mg7 2.831026 1_565
Mg6 Mg7 2.849158 1_555
Mg6 Si0 3.008062 1_566
Mg6 Mo1 3.009623 1_565
Mg6 Mo0 3.056667 1_556
Mg6 Si1 3.058232 1_555
Mg7 Si0 3.008062 1_556
Mg7 Mo1 3.009623 1_555
Mg7 Mo0 3.056667 1_556
Mg7 Si1 3.058232 1_555
Mg8 Mg9 2.755287 1_545
Mg8 Mg9 2.924897 1_555
Mg8 Mo1 3.032542 1_655
Mg8 Mo1 3.032542 1_555
Mg8 Si1 3.056148 1_655
Mg8 Si1 3.056148 1_555
Mg9 Mo1 3.032542 1_565
Mg9 Mo1 3.032542 1_665
Mg9 Si1 3.056148 1_555
Mg9 Si1 3.056148 1_655
Mg10 Mg11 2.840124 1_555
Mg10 Mg11 2.840124 1_565
Mg10 Mg9 2.979456 1_555
Mg10 Mg8 2.979456 1_555
Mg10 Si1 3.008001 1_555
Mg10 Si1 3.008001 1_655
Mg10 Mg6 3.074212 1_655
Mg10 Mg6 3.074212 1_555
Mg10 Mg7 3.074212 1_655
Mg10 Mg7 3.074212 1_555
Mg10 Mg2 3.088769 1_556
Mg10 Mg3 3.088769 1_556
Mg11 Mg8 2.926787 1_555
Mg11 Mg9 2.926787 1_545
Mg11 Mo1 2.973422 1_655
Mg11 Mo1 2.973422 1_555
Mg11 Mg7 3.074698 1_655
Mg11 Mg7 3.074698 1_555
Mg11 Mg6 3.074698 1_545
Mg11 Mg6 3.074698 1_645
Mg11 Mg3 3.139509 1_556
Mg11 Mg2 3.139509 1_546
Mo0 Si0 2.840536 1_555
Mo0 Si0 2.840536 1_565
Mo1 Si1 2.840536 1_545
Mo1 Si1 2.840536 1_555
