# generated using pymatgen
data_HoCo3P2
_symmetry_space_group_name_H-M   'P 1'
_cell_length_a   3.67247555
_cell_length_b   10.40016097
_cell_length_c   12.07218463
_cell_angle_alpha   90.00000000
_cell_angle_beta   90.00000000
_cell_angle_gamma   90.00000000
_symmetry_Int_Tables_number   1
_chemical_formula_structural   HoCo3P2
_chemical_formula_sum   'Ho6 Co18 P12'
_cell_volume   461.08908662
_cell_formula_units_Z   6
loop_
 _symmetry_equiv_pos_site_id
 _symmetry_equiv_pos_as_xyz
  1  'x, y, z'
loop_
 _atom_site_type_symbol
 _atom_site_label
 _atom_site_symmetry_multiplicity
 _atom_site_fract_x
 _atom_site_fract_y
 _atom_site_fract_z
 _atom_site_occupancy
  Ho  Ho0  1  0.00000000  0.50000000  0.52171852  1
  Ho  Ho1  1  0.50000000  0.00000000  0.47828148  1
  Ho  Ho2  1  0.50000000  0.81759504  0.20596133  1
  Ho  Ho3  1  0.50000000  0.18240496  0.20596133  1
  Ho  Ho4  1  -0.00000000  0.68240496  0.79403867  1
  Ho  Ho5  1  0.00000000  0.31759504  0.79403867  1
  Co  Co0  1  0.00000000  0.50000000  0.98683658  1
  Co  Co1  1  0.50000000  0.00000000  0.01316342  1
  Co  Co2  1  0.50000000  0.29670446  0.43085977  1
  Co  Co3  1  0.50000000  0.70329554  0.43085977  1
  Co  Co4  1  0.00000000  0.20329554  0.56914023  1
  Co  Co5  1  -0.00000000  0.79670446  0.56914023  1
  Co  Co6  1  0.50000000  0.87987971  0.70975975  1
  Co  Co7  1  0.50000000  0.12012029  0.70975975  1
  Co  Co8  1  0.00000000  0.62012029  0.29024025  1
  Co  Co9  1  0.00000000  0.37987971  0.29024025  1
  Co  Co10  1  0.50000000  0.33317211  0.99515591  1
  Co  Co11  1  0.50000000  0.66682789  0.99515591  1
  Co  Co12  1  -0.00000000  0.16682789  0.00484409  1
  Co  Co13  1  0.00000000  0.83317211  0.00484409  1
  Co  Co14  1  0.50000000  0.50000000  0.15562265  1
  Co  Co15  1  0.00000000  0.00000000  0.84437735  1
  Co  Co16  1  0.50000000  0.50000000  0.70331329  1
  Co  Co17  1  -0.00000000  0.00000000  0.29668671  1
  P  P0  1  0.50000000  0.31078858  0.61553759  1
  P  P1  1  0.50000000  0.68921142  0.61553759  1
  P  P2  1  0.00000000  0.18921142  0.38446241  1
  P  P3  1  -0.00000000  0.81078858  0.38446241  1
  P  P4  1  0.50000000  0.50000000  0.88205552  1
  P  P5  1  -0.00000000  0.00000000  0.11794448  1
  P  P6  1  0.50000000  0.84621415  0.89337915  1
  P  P7  1  0.50000000  0.15378585  0.89337915  1
  P  P8  1  0.00000000  0.65378585  0.10662085  1
  P  P9  1  -0.00000000  0.34621415  0.10662085  1
  P  P10  1  0.50000000  0.50000000  0.34370157  1
  P  P11  1  -0.00000000  0.00000000  0.65629843  1
loop_
_geom_bond_atom_site_label_1
_geom_bond_atom_site_label_2
_geom_bond_distance
_geom_bond_site_symmetry_2
Ho0 P10 2.826694 1_555
Ho0 P10 2.826694 1_455
Ho0 P0 2.920087 1_555
Ho0 P0 2.920087 1_455
Ho0 P1 2.920087 1_555
Ho0 P1 2.920087 1_455
Ho1 P11 2.826694 1_555
Ho1 P11 2.826694 1_655
Ho1 P2 2.920087 1_655
Ho1 P2 2.920087 1_555
Ho1 P3 2.920087 1_545
Ho1 P3 2.920087 1_645
Ho2 P8 2.777117 1_655
Ho2 P8 2.777117 1_555
Ho2 P3 2.832025 1_555
Ho2 P3 2.832025 1_655
Ho2 P5 2.845972 1_565
Ho2 P5 2.845972 1_665
Ho3 P9 2.777117 1_555
Ho3 P9 2.777117 1_655
Ho3 P2 2.832025 1_655
Ho3 P2 2.832025 1_555
Ho3 P5 2.845972 1_655
Ho3 P5 2.845972 1_555
Ho4 P6 2.777117 1_555
Ho4 P6 2.777117 1_455
Ho4 P1 2.832025 1_455
Ho4 P1 2.832025 1_555
Ho4 P4 2.845972 1_555
Ho4 P4 2.845972 1_455
Ho5 P7 2.777117 1_555
Ho5 P7 2.777117 1_455
Ho5 P0 2.832025 1_455
Ho5 P0 2.832025 1_555
Ho5 P4 2.845972 1_555
Ho5 P4 2.845972 1_455
Co0 P8 2.156190 1_556
Co0 P9 2.156190 1_556
Co0 P4 2.229761 1_555
Co0 P4 2.229761 1_455
Co0 Ho5 3.002663 1_555
Co0 Ho4 3.002663 1_555
Co1 P7 2.156190 1_554
Co1 P6 2.156190 1_544
Co1 P5 2.229761 1_555
Co1 P5 2.229761 1_655
Co1 Ho2 3.002663 1_545
Co1 Ho3 3.002663 1_555
Co2 P2 2.221554 1_655
Co2 P2 2.221554 1_555
Co2 P0 2.234271 1_555
Co2 P10 2.361651 1_555
Co2 Ho3 2.963848 1_555
Co2 Ho0 3.007519 1_655
Co2 Ho0 3.007519 1_555
Co2 Ho1 3.138429 1_555
Co3 P3 2.221554 1_655
Co3 P3 2.221554 1_555
Co3 P1 2.234271 1_555
Co3 P10 2.361651 1_555
Co3 Ho2 2.963848 1_555
Co3 Ho0 3.007519 1_555
Co3 Ho0 3.007519 1_655
Co3 Ho1 3.138429 1_565
Co4 P0 2.221554 1_555
Co4 P0 2.221554 1_455
Co4 P2 2.234271 1_555
Co4 P11 2.361651 1_555
Co4 Ho5 2.963848 1_555
Co4 Ho1 3.007519 1_555
Co4 Ho1 3.007519 1_455
Co4 Ho0 3.138429 1_555
Co5 P1 2.221554 1_455
Co5 P1 2.221554 1_555
Co5 P3 2.234271 1_555
Co5 P11 2.361651 1_565
Co5 Ho4 2.963848 1_555
Co5 Ho1 3.007519 1_465
Co5 Ho1 3.007519 1_565
Co5 Ho0 3.138429 1_555
Co6 P6 2.244168 1_555
Co6 P1 2.286054 1_555
Co6 P11 2.312786 1_665
Co6 P11 2.312786 1_565
Co6 Ho4 2.936818 1_655
Co6 Ho4 2.936818 1_555
Co6 Ho1 3.060983 1_565
Co7 P7 2.244168 1_555
Co7 P0 2.286054 1_555
Co7 P11 2.312786 1_655
Co7 P11 2.312786 1_555
Co7 Ho5 2.936818 1_655
Co7 Ho5 2.936818 1_555
Co7 Ho1 3.060983 1_555
Co8 P8 2.244168 1_555
Co8 P3 2.286054 1_555
Co8 P10 2.312786 1_555
Co8 P10 2.312786 1_455
Co8 Ho2 2.936818 1_455
Co8 Ho2 2.936818 1_555
Co8 Ho0 3.060983 1_555
Co9 P9 2.244168 1_555
Co9 P2 2.286054 1_555
Co9 P10 2.312786 1_555
Co9 P10 2.312786 1_455
Co9 Ho3 2.936818 1_555
Co9 Ho3 2.936818 1_455
Co9 Ho0 3.060983 1_555
Co10 P4 2.207846 1_555
Co10 P7 2.233889 1_555
Co10 P9 2.280543 1_556
Co10 P9 2.280543 1_656
Co10 Ho3 2.989156 1_556
Co10 Ho5 3.048415 1_655
Co10 Ho5 3.048415 1_555
Co11 P4 2.207846 1_555
Co11 P6 2.233889 1_555
Co11 P8 2.280543 1_656
Co11 P8 2.280543 1_556
Co11 Ho2 2.989156 1_556
Co11 Ho4 3.048415 1_655
Co11 Ho4 3.048415 1_555
Co12 P5 2.207846 1_555
Co12 P9 2.233889 1_555
Co12 P7 2.280543 1_554
Co12 P7 2.280543 1_454
Co12 Ho5 2.989156 1_554
Co12 Ho3 3.048415 1_455
Co12 Ho3 3.048415 1_555
Co13 P5 2.207846 1_565
Co13 P8 2.233889 1_555
Co13 P6 2.280543 1_554
Co13 P6 2.280543 1_454
Co13 Ho4 2.989156 1_554
Co13 Ho2 3.048415 1_455
Co13 Ho2 3.048415 1_555
Co14 P10 2.270523 1_555
Co14 P9 2.505950 1_655
Co14 P8 2.505950 1_555
Co14 P8 2.505950 1_655
Co14 P9 2.505950 1_555
Co15 P11 2.270523 1_555
Co15 P7 2.505950 1_555
Co15 P7 2.505950 1_455
Co15 P6 2.505950 1_545
Co15 P6 2.505950 1_445
Co16 P4 2.157809 1_555
Co16 P0 2.234994 1_555
Co16 P1 2.234994 1_555
Co16 Ho5 2.858341 1_655
Co16 Ho5 2.858341 1_555
Co16 Ho4 2.858341 1_655
Co16 Ho4 2.858341 1_555
Co16 Ho0 2.859670 1_655
Co16 Ho0 2.859670 1_555
Co17 P5 2.157809 1_555
Co17 P2 2.234994 1_555
Co17 P3 2.234994 1_545
Co17 Ho2 2.858341 1_545
Co17 Ho2 2.858341 1_445
Co17 Ho3 2.858341 1_455
Co17 Ho3 2.858341 1_555
Co17 Ho1 2.859670 1_555
Co17 Ho1 2.859670 1_455
