# generated using pymatgen
data_HfMg14TiO16
_symmetry_space_group_name_H-M   'P 1'
_cell_length_a   8.68342203
_cell_length_b   8.63009150
_cell_length_c   4.31104872
_cell_angle_alpha   90.00000000
_cell_angle_beta   90.00000000
_cell_angle_gamma   90.00000000
_symmetry_Int_Tables_number   1
_chemical_formula_structural   HfMg14TiO16
_chemical_formula_sum   'Hf1 Mg14 Ti1 O16'
_cell_volume   323.06450161
_cell_formula_units_Z   1
loop_
 _symmetry_equiv_pos_site_id
 _symmetry_equiv_pos_as_xyz
  1  'x, y, z'
loop_
 _atom_site_type_symbol
 _atom_site_label
 _atom_site_symmetry_multiplicity
 _atom_site_fract_x
 _atom_site_fract_y
 _atom_site_fract_z
 _atom_site_occupancy
  Hf  Hf0  1  0.00000000  0.50000000  0.00000000  1
  Mg  Mg0  1  0.50000000  0.00000000  0.00000000  1
  Mg  Mg1  1  0.50000000  0.50000000  0.00000000  1
  Mg  Mg2  1  0.00000000  0.24290523  0.50000000  1
  Mg  Mg3  1  0.00000000  0.75709477  0.50000000  1
  Mg  Mg4  1  0.50000000  0.24878348  0.50000000  1
  Mg  Mg5  1  0.50000000  0.75121652  0.50000000  1
  Mg  Mg6  1  0.25232698  0.00000000  0.50000000  1
  Mg  Mg7  1  0.25661498  0.50000000  0.50000000  1
  Mg  Mg8  1  0.74767302  -0.00000000  0.50000000  1
  Mg  Mg9  1  0.74338502  0.50000000  0.50000000  1
  Mg  Mg10  1  0.25589139  0.24470525  -0.00000000  1
  Mg  Mg11  1  0.25589139  0.75529475  -0.00000000  1
  Mg  Mg12  1  0.74410861  0.24470525  0.00000000  1
  Mg  Mg13  1  0.74410861  0.75529475  0.00000000  1
  Ti  Ti0  1  0.00000000  0.00000000  0.00000000  1
  O  O0  1  0.25976541  0.00000000  0.00000000  1
  O  O1  1  0.25599544  0.50000000  0.00000000  1
  O  O2  1  0.74023459  0.00000000  0.00000000  1
  O  O3  1  0.74400456  0.50000000  -0.00000000  1
  O  O4  1  0.24878500  0.25047792  0.50000000  1
  O  O5  1  0.24878500  0.74952208  0.50000000  1
  O  O6  1  0.75121500  0.25047792  0.50000000  1
  O  O7  1  0.75121500  0.74952208  0.50000000  1
  O  O8  1  0.00000000  0.00000000  0.50000000  1
  O  O9  1  0.00000000  0.50000000  0.50000000  1
  O  O10  1  0.50000000  0.00000000  0.50000000  1
  O  O11  1  0.50000000  0.50000000  0.50000000  1
  O  O12  1  0.00000000  0.25404136  -0.00000000  1
  O  O13  1  0.00000000  0.74595864  0.00000000  1
  O  O14  1  0.50000000  0.25128110  0.00000000  1
  O  O15  1  0.50000000  0.74871890  -0.00000000  1
loop_
_geom_bond_atom_site_label_1
_geom_bond_atom_site_label_2
_geom_bond_distance
_geom_bond_site_symmetry_2
Hf0 O13 2.122646 1_555
Hf0 O12 2.122646 1_555
Hf0 O9 2.155524 1_554
Hf0 O9 2.155524 1_555
Hf0 O3 2.222916 1_455
Hf0 O1 2.222916 1_555
Mg0 O0 2.086058 1_555
Mg0 O2 2.086058 1_555
Mg0 O10 2.155524 1_555
Mg0 O10 2.155524 1_554
Mg0 O14 2.168579 1_555
Mg0 O15 2.168579 1_545
Mg1 O1 2.118795 1_555
Mg1 O3 2.118795 1_555
Mg1 O15 2.146467 1_555
Mg1 O14 2.146467 1_555
Mg1 O11 2.155524 1_554
Mg1 O11 2.155524 1_555
Mg2 O8 2.096294 1_555
Mg2 O12 2.157666 1_556
Mg2 O12 2.157666 1_555
Mg2 O4 2.161293 1_555
Mg2 O6 2.161293 1_455
Mg2 O9 2.218751 1_555
Mg3 O8 2.096294 1_565
Mg3 O13 2.157666 1_555
Mg3 O13 2.157666 1_556
Mg3 O5 2.161293 1_555
Mg3 O7 2.161293 1_455
Mg3 O9 2.218751 1_555
Mg4 O10 2.147024 1_555
Mg4 O14 2.155632 1_556
Mg4 O14 2.155632 1_555
Mg4 O11 2.168022 1_555
Mg4 O6 2.181455 1_555
Mg4 O4 2.181455 1_555
Mg5 O10 2.147024 1_565
Mg5 O15 2.155632 1_556
Mg5 O15 2.155632 1_555
Mg5 O11 2.168022 1_555
Mg5 O7 2.181455 1_555
Mg5 O5 2.181455 1_555
Mg6 O10 2.150649 1_555
Mg6 O0 2.156492 1_555
Mg6 O0 2.156492 1_556
Mg6 O4 2.161866 1_555
Mg6 O5 2.161866 1_545
Mg6 O8 2.191062 1_555
Mg7 O11 2.113415 1_555
Mg7 O4 2.154471 1_555
Mg7 O5 2.154471 1_555
Mg7 O1 2.155531 1_556
Mg7 O1 2.155531 1_555
Mg7 O9 2.228296 1_555
Mg8 O10 2.150649 1_555
Mg8 O2 2.156492 1_556
Mg8 O2 2.156492 1_555
Mg8 O6 2.161866 1_555
Mg8 O7 2.161866 1_545
Mg8 O8 2.191062 1_655
Mg9 O11 2.113415 1_555
Mg9 O6 2.154471 1_555
Mg9 O7 2.154471 1_555
Mg9 O3 2.155531 1_556
Mg9 O3 2.155531 1_555
Mg9 O9 2.228296 1_655
Mg10 O0 2.112097 1_555
Mg10 O14 2.120458 1_555
Mg10 O4 2.156983 1_554
Mg10 O4 2.156983 1_555
Mg10 O1 2.203217 1_555
Mg10 O12 2.223473 1_555
Mg11 O0 2.112097 1_565
Mg11 O15 2.120458 1_555
Mg11 O5 2.156983 1_555
Mg11 O5 2.156983 1_554
Mg11 O1 2.203217 1_555
Mg11 O13 2.223473 1_555
Mg12 O2 2.112097 1_555
Mg12 O14 2.120458 1_555
Mg12 O6 2.156983 1_555
Mg12 O6 2.156983 1_554
Mg12 O3 2.203217 1_555
Mg12 O12 2.223473 1_655
Mg13 O2 2.112097 1_565
Mg13 O15 2.120458 1_555
Mg13 O7 2.156983 1_555
Mg13 O7 2.156983 1_554
Mg13 O3 2.203217 1_555
Mg13 O13 2.223473 1_655
O0 Ti0 2.255653 1_555
O2 Ti0 2.255653 1_655
O8 Ti0 2.155524 1_555
O8 Ti0 2.155524 1_556
O12 Ti0 2.192400 1_555
O13 Ti0 2.192400 1_565
