# generated using pymatgen
data_YbGdS3
_symmetry_space_group_name_H-M   'P 1'
_cell_length_a   3.95578000
_cell_length_b   10.07027200
_cell_length_c   11.10951100
_cell_angle_alpha   90.00000000
_cell_angle_beta   90.00000000
_cell_angle_gamma   90.00000000
_symmetry_Int_Tables_number   1
_chemical_formula_structural   YbGdS3
_chemical_formula_sum   'Yb4 Gd4 S12'
_cell_volume   442.55604246
_cell_formula_units_Z   4
loop_
 _symmetry_equiv_pos_site_id
 _symmetry_equiv_pos_as_xyz
  1  'x, y, z'
loop_
 _atom_site_type_symbol
 _atom_site_label
 _atom_site_symmetry_multiplicity
 _atom_site_fract_x
 _atom_site_fract_y
 _atom_site_fract_z
 _atom_site_occupancy
  Yb  Yb0  1  0.25000000  0.18186300  0.50151600  1
  Yb  Yb1  1  0.25000000  0.31813700  0.00151600  1
  Yb  Yb2  1  0.75000000  0.81813700  0.49848400  1
  Yb  Yb3  1  0.75000000  0.68186300  0.99848400  1
  Gd  Gd0  1  0.75000000  0.50450900  0.67774600  1
  Gd  Gd1  1  0.75000000  0.99549100  0.17774600  1
  Gd  Gd2  1  0.25000000  0.49549100  0.32225400  1
  Gd  Gd3  1  0.25000000  0.00450900  0.82225400  1
  S  S0  1  0.25000000  0.30934800  0.73901000  1
  S  S1  1  0.25000000  0.19065200  0.23901000  1
  S  S2  1  0.75000000  0.69065200  0.26099000  1
  S  S3  1  0.75000000  0.80934800  0.76099000  1
  S  S4  1  0.75000000  0.05109900  0.64429500  1
  S  S5  1  0.75000000  0.44890100  0.14429500  1
  S  S6  1  0.25000000  0.94890100  0.35570500  1
  S  S7  1  0.25000000  0.55109900  0.85570500  1
  S  S8  1  0.25000000  0.63479900  0.53947800  1
  S  S9  1  0.25000000  0.86520100  0.03947800  1
  S  S10  1  0.75000000  0.36520100  0.46052200  1
  S  S11  1  0.75000000  0.13479900  0.96052200  1
loop_
_geom_bond_atom_site_label_1
_geom_bond_atom_site_label_2
_geom_bond_distance
_geom_bond_site_symmetry_2
Gd0 S10 2.791385 1_555
Gd0 S8 2.827209 1_655
Gd0 S8 2.827209 1_555
Gd0 S7 2.835639 1_555
Gd0 S7 2.835639 1_655
Gd0 S0 2.870154 1_555
Gd0 S0 2.870154 1_655
Gd0 S3 3.206088 1_555
Gd1 S11 2.791385 1_564
Gd1 S9 2.827209 1_555
Gd1 S9 2.827209 1_655
Gd1 S6 2.835639 1_555
Gd1 S6 2.835639 1_655
Gd1 S1 2.870154 1_565
Gd1 S1 2.870154 1_665
Gd1 S2 3.206088 1_555
Gd2 S8 2.791385 1_555
Gd2 S10 2.827209 1_455
Gd2 S10 2.827209 1_555
Gd2 S5 2.835639 1_455
Gd2 S5 2.835639 1_555
Gd2 S2 2.870154 1_555
Gd2 S2 2.870154 1_455
Gd2 S1 3.206088 1_555
Gd3 S9 2.791385 1_546
Gd3 S11 2.827209 1_455
Gd3 S11 2.827209 1_555
Gd3 S4 2.835639 1_455
Gd3 S4 2.835639 1_555
Gd3 S3 2.870154 1_445
Gd3 S3 2.870154 1_545
Gd3 S0 3.206088 1_555
S0 Yb1 2.917656 1_556
S0 Yb0 2.934202 1_555
S1 Yb0 2.917656 1_555
S1 Yb1 2.934202 1_555
S2 Yb3 2.917656 1_554
S2 Yb2 2.934202 1_555
S3 Yb2 2.917656 1_555
S3 Yb3 2.934202 1_555
S4 Yb2 2.850914 1_545
S4 Yb0 2.856945 1_555
S4 Yb0 2.856945 1_655
S5 Yb3 2.850914 1_554
S5 Yb1 2.856945 1_555
S5 Yb1 2.856945 1_655
S6 Yb0 2.850914 1_565
S6 Yb2 2.856945 1_555
S6 Yb2 2.856945 1_455
S7 Yb1 2.850914 1_556
S7 Yb3 2.856945 1_555
S7 Yb3 2.856945 1_455
S8 Yb2 2.743747 1_455
S8 Yb2 2.743747 1_555
S9 Yb3 2.743747 1_554
S9 Yb3 2.743747 1_454
S10 Yb0 2.743747 1_555
S10 Yb0 2.743747 1_655
S11 Yb1 2.743747 1_556
S11 Yb1 2.743747 1_656
