# generated using pymatgen
data_NaCaCeSbO6
_symmetry_space_group_name_H-M   'P 1'
_cell_length_a   5.92876318
_cell_length_b   5.92876318
_cell_length_c   5.92876318
_cell_angle_alpha   60.00000000
_cell_angle_beta   60.00000000
_cell_angle_gamma   60.00000000
_symmetry_Int_Tables_number   1
_chemical_formula_structural   NaCaCeSbO6
_chemical_formula_sum   'Na1 Ca1 Ce1 Sb1 O6'
_cell_volume   147.35921929
_cell_formula_units_Z   1
loop_
 _symmetry_equiv_pos_site_id
 _symmetry_equiv_pos_as_xyz
  1  'x, y, z'
loop_
 _atom_site_type_symbol
 _atom_site_label
 _atom_site_symmetry_multiplicity
 _atom_site_fract_x
 _atom_site_fract_y
 _atom_site_fract_z
 _atom_site_occupancy
  Na  Na0  1  0.25000000  0.25000000  0.25000000  1
  Ca  Ca0  1  0.75000000  0.75000000  0.75000000  1
  Ce  Ce0  1  -0.00000000  -0.00000000  -0.00000000  1
  Sb  Sb0  1  0.50000000  0.50000000  0.50000000  1
  O  O0  1  0.73752289  0.26247711  0.26247711  1
  O  O1  1  0.26247711  0.73752289  0.73752289  1
  O  O2  1  0.73752289  0.26247711  0.73752289  1
  O  O3  1  0.26247711  0.73752289  0.26247711  1
  O  O4  1  0.73752289  0.73752289  0.26247711  1
  O  O5  1  0.26247711  0.26247711  0.73752289  1
loop_
_geom_bond_atom_site_label_1
_geom_bond_atom_site_label_2
_geom_bond_distance
_geom_bond_site_symmetry_2
Na0 O5 2.966227 1_554
Na0 O0 2.966227 1_455
Na0 O3 2.966227 1_545
Na0 O1 2.966227 1_554
Na0 O2 2.966227 1_455
Na0 O2 2.966227 1_554
Na0 O4 2.966227 1_545
Na0 O1 2.966227 1_545
Na0 O4 2.966227 1_455
Na0 O5 2.966227 1_555
Na0 O3 2.966227 1_555
Na0 O0 2.966227 1_555
Ca0 O2 2.966227 1_555
Ca0 O1 2.966227 1_555
Ca0 O4 2.966227 1_555
Ca0 O0 2.966227 1_565
Ca0 O3 2.966227 1_655
Ca0 O5 2.966227 1_655
Ca0 O0 2.966227 1_556
Ca0 O5 2.966227 1_565
Ca0 O3 2.966227 1_556
Ca0 O4 2.966227 1_556
Ca0 O1 2.966227 1_655
Ca0 O2 2.966227 1_565
Ce0 O1 2.200749 1_544
Ce0 O2 2.200749 1_454
Ce0 O4 2.200749 1_445
Ce0 O3 2.200749 1_545
Ce0 O5 2.200749 1_554
Ce0 O0 2.200749 1_455
O0 Sb0 1.991520 1_555
O1 Sb0 1.991520 1_555
O2 Sb0 1.991520 1_555
O3 Sb0 1.991520 1_555
O4 Sb0 1.991520 1_555
O5 Sb0 1.991520 1_555
