# generated using pymatgen
data_Zr2InTc
_symmetry_space_group_name_H-M   'P 1'
_cell_length_a   10.82291390
_cell_length_b   10.82291390
_cell_length_c   10.82291390
_cell_angle_alpha   121.74236085
_cell_angle_beta   120.12405266
_cell_angle_gamma   88.39697440
_symmetry_Int_Tables_number   1
_chemical_formula_structural   Zr2InTc
_chemical_formula_sum   'Zr2 In1 Tc1'
_cell_volume   883.18467697
_cell_formula_units_Z   1
loop_
 _symmetry_equiv_pos_site_id
 _symmetry_equiv_pos_as_xyz
  1  'x, y, z'
loop_
 _atom_site_type_symbol
 _atom_site_label
 _atom_site_symmetry_multiplicity
 _atom_site_fract_x
 _atom_site_fract_y
 _atom_site_fract_z
 _atom_site_occupancy
  Zr  Zr0  1  0.00000000  0.21274100  0.21274100  1
  Zr  Zr1  1  0.00000000  0.78725900  0.78725900  1
  In  In0  1  0.00000000  0.50000000  0.50000000  1
  Tc  Tc0  1  0.00000000  0.00000000  0.00000000  1
loop_
_geom_bond_atom_site_label_1
_geom_bond_atom_site_label_2
_geom_bond_distance
_geom_bond_site_symmetry_2
In0 Zr1 3.026746 1_555
In0 Zr0 3.026746 1_555
Tc0 Zr0 2.241576 1_555
Tc0 Zr1 2.241576 1_544
