# generated using pymatgen
data_TmAl3Ni2
_symmetry_space_group_name_H-M   'P 1'
_cell_length_a   8.89713641
_cell_length_b   8.89713641
_cell_length_c   4.02623636
_cell_angle_alpha   90.00000000
_cell_angle_beta   90.00000000
_cell_angle_gamma   120.00000287
_symmetry_Int_Tables_number   1
_chemical_formula_structural   TmAl3Ni2
_chemical_formula_sum   'Tm3 Al9 Ni6'
_cell_volume   276.01353777
_cell_formula_units_Z   3
loop_
 _symmetry_equiv_pos_site_id
 _symmetry_equiv_pos_as_xyz
  1  'x, y, z'
loop_
 _atom_site_type_symbol
 _atom_site_label
 _atom_site_symmetry_multiplicity
 _atom_site_fract_x
 _atom_site_fract_y
 _atom_site_fract_z
 _atom_site_occupancy
  Tm  Tm0  1  0.00000000  0.00000000  -0.00000000  1
  Tm  Tm1  1  0.66666700  0.33333300  0.50000000  1
  Tm  Tm2  1  0.33333300  0.66666700  0.50000000  1
  Al  Al0  1  0.50000000  0.50000000  -0.00000000  1
  Al  Al1  1  0.50000000  0.00000000  -0.00000000  1
  Al  Al2  1  0.00000000  0.50000000  -0.00000000  1
  Al  Al3  1  0.70229882  0.70229882  0.50000000  1
  Al  Al4  1  0.29770118  -0.00000000  0.50000000  1
  Al  Al5  1  -0.00000000  0.29770118  0.50000000  1
  Al  Al6  1  0.29770118  0.29770118  0.50000000  1
  Al  Al7  1  0.70229882  0.00000000  0.50000000  1
  Al  Al8  1  0.00000000  0.70229882  0.50000000  1
  Ni  Ni0  1  0.81927235  0.18072765  -0.00000000  1
  Ni  Ni1  1  0.81927235  0.63854369  0.00000000  1
  Ni  Ni2  1  0.36145631  0.18072765  -0.00000000  1
  Ni  Ni3  1  0.18072765  0.81927235  0.00000000  1
  Ni  Ni4  1  0.63854369  0.81927235  0.00000000  1
  Ni  Ni5  1  0.18072765  0.36145631  -0.00000000  1
loop_
_geom_bond_atom_site_label_1
_geom_bond_atom_site_label_2
_geom_bond_distance
_geom_bond_site_symmetry_2
Al0 Ni2 2.467188 1_555
Al0 Ni4 2.467188 1_555
Al0 Ni5 2.467188 1_555
Al0 Ni1 2.467188 1_555
Al0 Tm1 3.263320 1_555
Al0 Tm2 3.263320 1_554
Al0 Tm2 3.263320 1_555
Al0 Tm1 3.263320 1_554
Al1 Ni4 2.467180 1_545
Al1 Ni2 2.467180 1_555
Al1 Ni3 2.467187 1_545
Al1 Ni0 2.467187 1_555
Al1 Tm1 3.263314 1_555
Al1 Tm2 3.263314 1_544
Al1 Tm2 3.263314 1_545
Al1 Tm1 3.263314 1_554
Al2 Ni5 2.467180 1_555
Al2 Ni1 2.467180 1_455
Al2 Ni0 2.467187 1_455
Al2 Ni3 2.467187 1_555
Al2 Tm1 3.263314 1_454
Al2 Tm2 3.263314 1_554
Al2 Tm2 3.263314 1_555
Al2 Tm1 3.263314 1_455
Al3 Ni4 2.459240 1_555
Al3 Ni1 2.459240 1_555
Al3 Ni4 2.459240 1_556
Al3 Ni1 2.459240 1_556
Al3 Tm1 3.136269 1_555
Al3 Tm2 3.136269 1_555
Al4 Ni2 2.459235 1_555
Al4 Ni2 2.459235 1_556
Al4 Ni3 2.459236 1_546
Al4 Ni3 2.459236 1_545
Al4 Tm2 3.136260 1_545
Al4 Tm1 3.136265 1_555
Al5 Ni5 2.459235 1_555
Al5 Ni5 2.459235 1_556
Al5 Ni0 2.459236 1_455
Al5 Ni0 2.459236 1_456
Al5 Tm1 3.136260 1_455
Al5 Tm2 3.136265 1_555
Al6 Ni5 2.459240 1_556
Al6 Ni2 2.459240 1_556
Al6 Ni5 2.459240 1_555
Al6 Ni2 2.459240 1_555
Al6 Tm1 3.136269 1_555
Al6 Tm2 3.136269 1_555
Al7 Ni4 2.459235 1_546
Al7 Ni4 2.459235 1_545
Al7 Ni0 2.459236 1_556
Al7 Ni0 2.459236 1_555
Al7 Tm1 3.136260 1_555
Al7 Tm2 3.136265 1_545
Al8 Ni1 2.459235 1_455
Al8 Ni1 2.459235 1_456
Al8 Ni3 2.459236 1_556
Al8 Ni3 2.459236 1_555
Al8 Tm2 3.136260 1_555
Al8 Tm1 3.136265 1_455
Ni0 Tm0 2.785066 1_655
Ni0 Tm1 3.095659 1_554
Ni0 Tm1 3.095659 1_555
Ni1 Tm0 2.785074 1_665
Ni1 Tm1 3.095659 1_555
Ni1 Tm1 3.095659 1_554
Ni2 Tm0 2.785074 1_555
Ni2 Tm1 3.095659 1_555
Ni2 Tm1 3.095659 1_554
Ni3 Tm0 2.785066 1_565
Ni3 Tm2 3.095659 1_554
Ni3 Tm2 3.095659 1_555
Ni4 Tm0 2.785074 1_665
Ni4 Tm2 3.095659 1_555
Ni4 Tm2 3.095659 1_554
Ni5 Tm0 2.785074 1_555
Ni5 Tm2 3.095659 1_555
Ni5 Tm2 3.095659 1_554
