# generated using pymatgen
data_CsMg14Cd
_symmetry_space_group_name_H-M   'P 1'
_cell_length_a   6.60828468
_cell_length_b   6.60828410
_cell_length_c   10.76184588
_cell_angle_alpha   90.00000000
_cell_angle_beta   90.00000000
_cell_angle_gamma   120.00000290
_symmetry_Int_Tables_number   1
_chemical_formula_structural   CsMg14Cd
_chemical_formula_sum   'Cs1 Mg14 Cd1'
_cell_volume   407.00040072
_cell_formula_units_Z   1
loop_
 _symmetry_equiv_pos_site_id
 _symmetry_equiv_pos_as_xyz
  1  'x, y, z'
loop_
 _atom_site_type_symbol
 _atom_site_label
 _atom_site_symmetry_multiplicity
 _atom_site_fract_x
 _atom_site_fract_y
 _atom_site_fract_z
 _atom_site_occupancy
  Cs  Cs0  1  0.16666700  0.33333300  0.12500000  1
  Mg  Mg0  1  0.17253582  0.83626741  0.12500000  1
  Mg  Mg1  1  0.16163989  0.83081944  0.62500000  1
  Mg  Mg2  1  0.66373259  0.32746418  0.12500000  1
  Mg  Mg3  1  0.66918056  0.33836011  0.62500000  1
  Mg  Mg4  1  0.66373259  0.83626741  0.12500000  1
  Mg  Mg5  1  0.66918056  0.83081944  0.62500000  1
  Mg  Mg6  1  0.33967532  0.16032468  0.39486825  1
  Mg  Mg7  1  0.33967532  0.16032468  0.85513175  1
  Mg  Mg8  1  0.33967532  0.67935165  0.39486825  1
  Mg  Mg9  1  0.33967532  0.67935165  0.85513175  1
  Mg  Mg10  1  0.82064835  0.16032468  0.39486825  1
  Mg  Mg11  1  0.82064835  0.16032468  0.85513175  1
  Mg  Mg12  1  0.83333300  0.66666700  0.37195861  1
  Mg  Mg13  1  0.83333300  0.66666700  0.87804139  1
  Cd  Cd0  1  0.16666700  0.33333300  0.62500000  1
loop_
_geom_bond_atom_site_label_1
_geom_bond_atom_site_label_2
_geom_bond_distance
_geom_bond_site_symmetry_2
Cs0 Mg4 3.304313 1_555
Cs0 Mg0 3.304313 1_555
Cs0 Mg4 3.304313 1_445
Cs0 Mg0 3.304313 1_545
Cs0 Mg2 3.304313 1_555
Cs0 Mg2 3.304313 1_455
Cs0 Mg6 3.515134 1_555
Cs0 Mg7 3.515134 1_554
Cs0 Mg8 3.515141 1_555
Cs0 Mg9 3.515141 1_554
Cs0 Mg10 3.515141 1_455
Cs0 Mg11 3.515141 1_454
Mg0 Mg13 3.291191 1_454
Mg0 Mg12 3.291191 1_455
Mg0 Mg8 3.446062 1_555
Mg0 Mg9 3.446062 1_554
Mg0 Mg6 3.446068 1_565
Mg0 Mg7 3.446068 1_564
Mg1 Mg9 3.114070 1_555
Mg1 Mg8 3.114070 1_555
Mg1 Mg7 3.114077 1_565
Mg1 Mg6 3.114077 1_565
Mg1 Mg3 3.254311 1_455
Mg1 Mg5 3.254311 1_455
Mg1 Mg12 3.308470 1_455
Mg1 Mg13 3.308470 1_455
Mg1 Mg3 3.353973 1_565
Mg1 Mg5 3.353973 1_555
Mg2 Mg6 3.446068 1_555
Mg2 Mg7 3.446068 1_554
Mg3 Mg7 3.114077 1_555
Mg3 Mg6 3.114077 1_555
Mg3 Mg5 3.254311 1_555
Mg3 Mg5 3.353973 1_545
Mg4 Mg8 3.446068 1_555
Mg4 Mg9 3.446068 1_554
Mg5 Mg9 3.114077 1_555
Mg5 Mg8 3.114077 1_555
Mg6 Mg8 3.178406 1_545
Mg6 Mg8 3.429878 1_555
Mg7 Mg9 3.178406 1_545
Mg7 Mg9 3.429878 1_555
Mg10 Mg3 3.114070 1_555
Mg10 Mg5 3.114077 1_545
Mg10 Mg8 3.178406 1_545
Mg10 Mg6 3.178407 1_555
Mg10 Mg12 3.314123 1_555
Mg10 Mg12 3.314123 1_545
Mg10 Mg8 3.429878 1_655
Mg10 Mg6 3.429878 1_655
Mg10 Mg2 3.446062 1_555
Mg10 Mg4 3.446068 1_545
Mg11 Mg3 3.114070 1_555
Mg11 Mg5 3.114077 1_545
Mg11 Mg9 3.178406 1_545
Mg11 Mg7 3.178407 1_555
Mg11 Mg13 3.314123 1_555
Mg11 Mg13 3.314123 1_545
Mg11 Mg9 3.429878 1_655
Mg11 Mg7 3.429878 1_655
Mg11 Mg2 3.446062 1_556
Mg11 Mg4 3.446068 1_546
Mg12 Mg4 3.291184 1_555
Mg12 Mg2 3.291191 1_555
Mg12 Mg5 3.308463 1_555
Mg12 Mg3 3.308470 1_555
Mg12 Mg6 3.314123 1_555
Mg12 Mg6 3.314123 1_665
Mg12 Mg8 3.314123 1_655
Mg12 Mg8 3.314123 1_555
Mg13 Mg4 3.291184 1_556
Mg13 Mg2 3.291191 1_556
Mg13 Mg5 3.308463 1_555
Mg13 Mg3 3.308470 1_555
Mg13 Mg7 3.314123 1_555
Mg13 Mg7 3.314123 1_665
Mg13 Mg9 3.314123 1_655
Mg13 Mg9 3.314123 1_555
Cd0 Mg7 3.170975 1_555
Cd0 Mg6 3.170975 1_555
Cd0 Mg9 3.170982 1_555
Cd0 Mg8 3.170982 1_555
Cd0 Mg11 3.170982 1_455
Cd0 Mg10 3.170982 1_455
Cd0 Mg1 3.304267 1_555
Cd0 Mg5 3.304267 1_445
Cd0 Mg5 3.304267 1_555
Cd0 Mg1 3.304267 1_545
Cd0 Mg3 3.304268 1_455
Cd0 Mg3 3.304268 1_555
