# generated using pymatgen
data_FeOF
_symmetry_space_group_name_H-M   'P 1'
_cell_length_a   3.00845977
_cell_length_b   4.90753574
_cell_length_c   9.56093506
_cell_angle_alpha   90.00006629
_cell_angle_beta   90.00000000
_cell_angle_gamma   90.00000000
_symmetry_Int_Tables_number   1
_chemical_formula_structural   FeOF
_chemical_formula_sum   'Fe4 O4 F4'
_cell_volume   141.15882929
_cell_formula_units_Z   4
loop_
 _symmetry_equiv_pos_site_id
 _symmetry_equiv_pos_as_xyz
  1  'x, y, z'
loop_
 _atom_site_type_symbol
 _atom_site_label
 _atom_site_symmetry_multiplicity
 _atom_site_fract_x
 _atom_site_fract_y
 _atom_site_fract_z
 _atom_site_occupancy
  Fe  Fe0  1  0.75000000  0.47420902  0.34313033  1
  Fe  Fe1  1  0.75000000  0.02579098  0.84313233  1
  Fe  Fe2  1  0.25000000  0.97420771  0.15686688  1
  Fe  Fe3  1  0.24999900  0.52579129  0.65686888  1
  O  O0  1  0.75000000  0.17169390  0.22795503  1
  O  O1  1  0.25000000  0.67169410  0.27204395  1
  O  O2  1  0.75000000  0.32830510  0.72795503  1
  O  O3  1  0.25000000  0.82830690  0.77204395  1
  F  F0  1  0.75000000  0.80276549  0.03077532  1
  F  F1  1  0.25000000  0.30277371  0.46922448  1
  F  F2  1  0.75000000  0.69723551  0.53077532  1
  F  F3  1  0.25000000  0.19722829  0.96922448  1
loop_
_geom_bond_atom_site_label_1
_geom_bond_atom_site_label_2
_geom_bond_distance
_geom_bond_site_symmetry_2
Fe0 O0 1.848418 1_555
Fe0 O1 1.914136 1_655
Fe0 O1 1.914136 1_555
Fe1 O2 1.848428 1_555
Fe1 O3 1.914140 1_645
Fe1 O3 1.914140 1_545
Fe2 O1 1.848424 1_555
Fe2 O0 1.914144 1_565
Fe2 O0 1.914144 1_465
Fe3 O3 1.848419 1_555
Fe3 O2 1.914136 1_455
Fe3 O2 1.914141 1_555
F0 Fe1 2.101555 1_564
F0 Fe2 2.103318 1_555
F0 Fe2 2.103318 1_655
F1 Fe3 2.101545 1_555
F1 Fe0 2.103320 1_455
F1 Fe0 2.103320 1_555
F2 Fe0 2.101572 1_555
F2 Fe3 2.103332 1_655
F2 Fe3 2.103337 1_555
F3 Fe2 2.101538 1_546
F3 Fe1 2.103312 1_555
F3 Fe1 2.103312 1_455
