# generated using pymatgen
data_La6Co13Bi
_symmetry_space_group_name_H-M   'P 1'
_cell_length_a   12.97341663
_cell_length_b   12.97341663
_cell_length_c   12.97341663
_cell_angle_alpha   143.57416955
_cell_angle_beta   143.57416955
_cell_angle_gamma   52.46453569
_symmetry_Int_Tables_number   1
_chemical_formula_structural   La6Co13Bi
_chemical_formula_sum   'La12 Co26 Bi2'
_cell_volume   765.34372470
_cell_formula_units_Z   2
loop_
 _symmetry_equiv_pos_site_id
 _symmetry_equiv_pos_as_xyz
  1  'x, y, z'
loop_
 _atom_site_type_symbol
 _atom_site_label
 _atom_site_symmetry_multiplicity
 _atom_site_fract_x
 _atom_site_fract_y
 _atom_site_fract_z
 _atom_site_occupancy
  La  La0  1  0.59930300  0.59930300  0.00000000  1
  La  La1  1  0.09930300  0.09930300  0.00000000  1
  La  La2  1  0.40069700  0.40069700  0.00000000  1
  La  La3  1  0.90069700  0.90069700  0.00000000  1
  La  La4  1  0.48084900  0.98084900  0.81915100  1
  La  La5  1  0.16169700  0.66169700  0.18084900  1
  La  La6  1  0.98084900  0.16169700  0.50000000  1
  La  La7  1  0.66169700  0.48084900  0.50000000  1
  La  La8  1  0.51915100  0.01915100  0.18084900  1
  La  La9  1  0.83830300  0.33830300  0.81915100  1
  La  La10  1  0.01915100  0.83830300  0.50000000  1
  La  La11  1  0.33830300  0.51915100  0.50000000  1
  Co  Co0  1  0.50000000  0.00000000  0.50000000  1
  Co  Co1  1  0.00000000  0.50000000  0.50000000  1
  Co  Co2  1  0.56524500  0.71312200  0.27836700  1
  Co  Co3  1  0.43475500  0.28687800  0.72163300  1
  Co  Co4  1  0.06524500  0.78687800  0.85212400  1
  Co  Co5  1  0.93475500  0.21312200  0.14787600  1
  Co  Co6  1  0.28687800  0.56524500  0.85212400  1
  Co  Co7  1  0.71312200  0.43475500  0.14787600  1
  Co  Co8  1  0.21312200  0.06524500  0.27836700  1
  Co  Co9  1  0.78687800  0.93475500  0.72163300  1
  Co  Co10  1  0.62097600  0.12097600  0.85332900  1
  Co  Co11  1  0.26764700  0.76764700  0.14667100  1
  Co  Co12  1  0.12097600  0.26764700  0.50000000  1
  Co  Co13  1  0.76764700  0.62097600  0.50000000  1
  Co  Co14  1  0.37902400  0.87902400  0.14667100  1
  Co  Co15  1  0.73235300  0.23235300  0.85332900  1
  Co  Co16  1  0.87902400  0.73235300  0.50000000  1
  Co  Co17  1  0.23235300  0.37902400  0.50000000  1
  Co  Co18  1  0.79772000  0.29772000  0.27144200  1
  Co  Co19  1  0.02627900  0.52627900  0.72855800  1
  Co  Co20  1  0.29772000  0.02627900  0.50000000  1
  Co  Co21  1  0.52627900  0.79772000  0.50000000  1
  Co  Co22  1  0.20228000  0.70228000  0.72855800  1
  Co  Co23  1  0.97372100  0.47372100  0.27144200  1
  Co  Co24  1  0.70228000  0.97372100  0.50000000  1
  Co  Co25  1  0.47372100  0.20228000  0.50000000  1
  Bi  Bi0  1  0.25000000  0.25000000  0.00000000  1
  Bi  Bi1  1  0.75000000  0.75000000  0.00000000  1
loop_
_geom_bond_atom_site_label_1
_geom_bond_atom_site_label_2
_geom_bond_distance
_geom_bond_site_symmetry_2
Co0 Co9 2.385892 1_545
Co0 Co3 2.385892 1_555
Co0 Co2 2.385892 1_545
Co0 Co8 2.385892 1_555
Co0 Co10 2.405231 1_555
Co0 Co15 2.405231 1_555
Co0 Co11 2.405231 1_545
Co0 Co14 2.405231 1_545
Co0 Co24 2.431627 1_545
Co0 Co25 2.431627 1_555
Co0 Co21 2.431627 1_545
Co0 Co20 2.431627 1_555
Co1 Co7 2.385897 1_455
Co1 Co5 2.385897 1_455
Co1 Co4 2.385897 1_555
Co1 Co6 2.385897 1_555
Co1 Co12 2.405231 1_555
Co1 Co17 2.405231 1_555
Co1 Co16 2.405231 1_455
Co1 Co13 2.405231 1_455
Co1 Co23 2.431614 1_455
Co1 Co19 2.431614 1_555
Co1 Co18 2.431633 1_455
Co1 Co22 2.431633 1_555
Co2 Co24 2.512437 1_555
Co2 Co21 2.512437 1_555
Co2 Co9 2.541862 1_555
Co2 Co6 2.556220 1_554
Co2 Co7 2.556227 1_555
Co2 La0 2.934100 1_555
Co2 La2 2.934100 1_555
Co3 Co8 2.541862 1_555
Co3 Co7 2.556220 1_556
Co3 Co6 2.556227 1_555
Co3 La2 2.934100 1_556
Co3 La0 2.934100 1_556
Co4 Co6 2.541862 1_555
Co4 Co8 2.556220 1_566
Co4 Co9 2.556227 1_455
Co4 La3 2.934089 1_456
Co4 La1 2.934108 1_566
Co5 Co7 2.541862 1_555
Co5 Co9 2.556220 1_544
Co5 Co8 2.556227 1_655
Co5 La1 2.934089 1_655
Co5 La3 2.934108 1_545
Co6 La2 2.934089 1_556
Co6 La0 2.934108 1_556
Co7 La0 2.934089 1_555
Co7 La2 2.934108 1_555
Co8 La1 2.934100 1_555
Co8 La3 2.934100 1_445
Co9 La1 2.934100 1_666
Co9 La3 2.934100 1_556
Co10 Co7 2.479541 1_556
Co10 Co5 2.479541 1_556
Co10 Co18 2.512807 1_556
Co10 Co3 2.515448 1_555
Co10 Co9 2.515448 1_545
Co10 Co20 2.527561 1_555
Co10 Co21 2.527561 1_545
Co10 Co15 2.592250 1_555
Co10 La4 2.870354 1_545
Co10 La2 3.155735 1_556
Co10 La3 3.155735 1_546
Co11 Co4 2.479528 1_554
Co11 Co6 2.479528 1_554
Co11 Co19 2.512800 1_554
Co11 Co2 2.515448 1_555
Co11 Co8 2.515448 1_565
Co11 Co21 2.527561 1_555
Co11 Co20 2.527561 1_565
Co11 Co14 2.592250 1_555
Co11 La5 2.870377 1_555
Co11 La2 3.155735 1_555
Co11 La3 3.155735 1_455
Co12 Co3 2.479538 1_555
Co12 Co8 2.479538 1_555
Co12 Co20 2.512798 1_555
Co12 Co6 2.515447 1_555
Co12 Co5 2.515459 1_455
Co12 Co19 2.527555 1_555
Co12 Co18 2.527562 1_455
Co12 Co17 2.592250 1_555
Co12 La6 2.870365 1_455
Co12 La2 3.155735 1_556
Co12 La3 3.155735 1_445
Co13 Co2 2.479538 1_555
Co13 Co9 2.479538 1_555
Co13 Co21 2.512798 1_555
Co13 Co4 2.515447 1_655
Co13 Co7 2.515459 1_555
Co13 Co19 2.527555 1_655
Co13 Co18 2.527562 1_555
Co13 Co16 2.592250 1_555
Co13 La7 2.870365 1_555
Co13 La2 3.155735 1_555
Co13 La3 3.155735 1_556
Co14 Co4 2.479541 1_554
Co14 Co6 2.479541 1_554
Co14 Co22 2.512807 1_554
Co14 Co2 2.515448 1_555
Co14 Co8 2.515448 1_565
Co14 Co25 2.527561 1_565
Co14 Co24 2.527561 1_555
Co14 La8 2.870354 1_565
Co14 La1 3.155735 1_565
Co14 La0 3.155735 1_555
Co15 Co7 2.479528 1_556
Co15 Co5 2.479528 1_556
Co15 Co23 2.512800 1_556
Co15 Co3 2.515448 1_555
Co15 Co9 2.515448 1_545
Co15 Co25 2.527561 1_555
Co15 Co24 2.527561 1_545
Co15 La9 2.870377 1_555
Co15 La1 3.155735 1_656
Co15 La0 3.155735 1_556
Co16 Co2 2.479538 1_555
Co16 Co9 2.479538 1_555
Co16 Co24 2.512798 1_555
Co16 Co7 2.515447 1_555
Co16 Co4 2.515459 1_655
Co16 Co23 2.527555 1_555
Co16 Co22 2.527562 1_655
Co16 La10 2.870365 1_655
Co16 La1 3.155735 1_666
Co16 La0 3.155735 1_555
Co17 Co3 2.479538 1_555
Co17 Co8 2.479538 1_555
Co17 Co25 2.512798 1_555
Co17 Co5 2.515447 1_455
Co17 Co6 2.515459 1_555
Co17 Co23 2.527555 1_455
Co17 Co22 2.527562 1_555
Co17 La11 2.870365 1_555
Co17 La1 3.155735 1_555
Co17 La0 3.155735 1_556
Co18 Co5 2.512459 1_555
Co18 Co7 2.512459 1_555
Co18 Co19 2.621283 1_655
Co18 La7 3.086437 1_555
Co18 La6 3.086437 1_555
Co18 La3 3.273053 1_545
Co18 La2 3.273053 1_555
Co18 La4 3.344499 1_544
Co19 Co4 2.512422 1_555
Co19 Co6 2.512422 1_555
Co19 La7 3.086453 1_455
Co19 La6 3.086453 1_455
Co19 La3 3.273055 1_456
Co19 La2 3.273055 1_556
Co19 La5 3.344529 1_556
Co20 Co3 2.512437 1_555
Co20 Co8 2.512437 1_555
Co20 Co21 2.621295 1_545
Co20 La4 3.086436 1_545
Co20 La5 3.086452 1_545
Co20 La3 3.273052 1_445
Co20 La2 3.273052 1_556
Co20 La6 3.344505 1_455
Co21 Co9 2.512437 1_555
Co21 La4 3.086436 1_555
Co21 La5 3.086452 1_555
Co21 La2 3.273052 1_555
Co21 La3 3.273052 1_556
Co21 La7 3.344505 1_555
Co22 Co4 2.512459 1_555
Co22 Co6 2.512459 1_555
Co22 Co23 2.621283 1_455
Co22 La10 3.086437 1_555
Co22 La11 3.086437 1_555
Co22 La1 3.273053 1_566
Co22 La0 3.273053 1_556
Co22 La8 3.344499 1_566
Co23 Co7 2.512422 1_555
Co23 Co5 2.512422 1_555
Co23 La10 3.086453 1_655
Co23 La11 3.086453 1_655
Co23 La1 3.273055 1_655
Co23 La0 3.273055 1_555
Co23 La9 3.344529 1_554
Co24 Co9 2.512437 1_555
Co24 Co25 2.621295 1_565
Co24 La8 3.086436 1_565
Co24 La9 3.086452 1_565
Co24 La0 3.273052 1_555
Co24 La1 3.273052 1_666
Co24 La10 3.344505 1_655
Co25 Co3 2.512437 1_555
Co25 Co8 2.512437 1_555
Co25 La8 3.086436 1_555
Co25 La9 3.086452 1_555
Co25 La1 3.273052 1_555
Co25 La0 3.273052 1_556
Co25 La11 3.344505 1_555
Bi0 La9 3.471030 1_454
Bi0 La5 3.471030 1_555
Bi0 La6 3.471034 1_454
Bi0 La11 3.471034 1_555
Bi0 La10 3.471034 1_544
Bi0 La7 3.471034 1_555
Bi0 La8 3.471041 1_555
Bi0 La4 3.471041 1_544
Bi0 La1 3.507406 1_555
Bi0 La2 3.507406 1_555
Bi1 La5 3.471030 1_655
Bi1 La9 3.471030 1_554
Bi1 La11 3.471034 1_554
Bi1 La6 3.471034 1_565
Bi1 La7 3.471034 1_554
Bi1 La10 3.471034 1_655
Bi1 La8 3.471041 1_565
Bi1 La4 3.471041 1_554
Bi1 La3 3.507406 1_555
Bi1 La0 3.507406 1_555
