# generated using pymatgen
data_CeSe2
_symmetry_space_group_name_H-M   'P 1'
_cell_length_a   4.90519320
_cell_length_b   4.90519374
_cell_length_c   11.78866200
_cell_angle_alpha   90.00000000
_cell_angle_beta   90.00000000
_cell_angle_gamma   119.99999282
_symmetry_Int_Tables_number   1
_chemical_formula_structural   CeSe2
_chemical_formula_sum   'Ce3 Se6'
_cell_volume   245.64473579
_cell_formula_units_Z   3
loop_
 _symmetry_equiv_pos_site_id
 _symmetry_equiv_pos_as_xyz
  1  'x, y, z'
loop_
 _atom_site_type_symbol
 _atom_site_label
 _atom_site_symmetry_multiplicity
 _atom_site_fract_x
 _atom_site_fract_y
 _atom_site_fract_z
 _atom_site_occupancy
  Ce  Ce0  1  0.65980200  0.00031200  0.99981900  1
  Ce  Ce1  1  0.34051000  0.34019800  0.33315300  1
  Ce  Ce2  1  0.99968800  0.65949000  0.66648600  1
  Se  Se0  1  0.32913300  0.33338100  0.08116800  1
  Se  Se1  1  0.00424800  0.67086700  0.41450200  1
  Se  Se2  1  0.66661900  0.99575200  0.74783500  1
  Se  Se3  1  0.99582700  0.66715000  0.91904600  1
  Se  Se4  1  0.33285000  0.32867600  0.58571200  1
  Se  Se5  1  0.67132400  0.00417300  0.25237900  1
loop_
_geom_bond_atom_site_label_1
_geom_bond_atom_site_label_2
_geom_bond_distance
_geom_bond_site_symmetry_2
Ce0 Se2 2.970952 1_545
Ce0 Se3 2.976979 1_445
Ce0 Se5 2.977761 1_556
Ce0 Se0 2.978205 1_556
Ce0 Se3 2.988527 1_555
Ce0 Se0 2.991075 1_546
Ce0 Se3 2.997967 1_545
Ce0 Se0 3.000713 1_656
Ce1 Se0 2.970964 1_555
Ce1 Se5 2.976983 1_565
Ce1 Se4 2.977750 1_555
Ce1 Se1 2.978205 1_655
Ce1 Se5 2.988534 1_555
Ce1 Se1 2.991075 1_555
Ce1 Se5 2.997967 1_455
Ce1 Se1 3.000713 1_545
Ce2 Se1 2.970952 1_655
Ce2 Se4 2.976987 1_655
Ce2 Se3 2.977761 1_555
Ce2 Se2 2.978205 1_545
Ce2 Se4 2.988530 1_555
Ce2 Se2 2.991075 1_655
Ce2 Se4 2.997967 1_665
Ce2 Se2 3.000713 1_555
