# generated using pymatgen
data_KMo2C4ClO8
_symmetry_space_group_name_H-M   'P 1'
_cell_length_a   7.19669890
_cell_length_b   8.75384242
_cell_length_c   11.45088383
_cell_angle_alpha   94.00706530
_cell_angle_beta   90.43367371
_cell_angle_gamma   110.64699230
_symmetry_Int_Tables_number   1
_chemical_formula_structural   KMo2C4ClO8
_chemical_formula_sum   'K2 Mo4 C8 Cl2 O16'
_cell_volume   673.00586758
_cell_formula_units_Z   2
loop_
 _symmetry_equiv_pos_site_id
 _symmetry_equiv_pos_as_xyz
  1  'x, y, z'
loop_
 _atom_site_type_symbol
 _atom_site_label
 _atom_site_symmetry_multiplicity
 _atom_site_fract_x
 _atom_site_fract_y
 _atom_site_fract_z
 _atom_site_occupancy
  K  K0  1  0.79025700  0.11959300  0.60025600  1
  K  K1  1  0.20974300  0.88040700  0.39974400  1
  Mo  Mo0  1  0.40917900  0.36692900  0.56527900  1
  Mo  Mo1  1  0.59082100  0.63307100  0.43472100  1
  Mo  Mo2  1  0.08747400  0.01466700  0.87362300  1
  Mo  Mo3  1  0.91252600  0.98533300  0.12637700  1
  C  C0  1  0.14539500  0.45418400  0.39028400  1
  C  C1  1  0.85460500  0.54581600  0.60971600  1
  C  C2  1  0.42290400  0.70315400  0.66678900  1
  C  C3  1  0.57709600  0.29684600  0.33321100  1
  C  C4  1  0.25615200  0.85204300  0.06607600  1
  C  C5  1  0.74384800  0.14795700  0.93392400  1
  C  C6  1  0.26821000  0.29509000  0.07122200  1
  C  C7  1  0.73179000  0.70491000  0.92877800  1
  Cl  Cl0  1  0.23202800  0.08028500  0.65173700  1
  Cl  Cl1  1  0.76797200  0.91971500  0.34826300  1
  O  O0  1  0.13789800  0.35024000  0.46316600  1
  O  O1  1  0.86210200  0.64976000  0.53683400  1
  O  O2  1  0.36397600  0.55671400  0.68910100  1
  O  O3  1  0.63602400  0.44328600  0.31089900  1
  O  O4  1  0.71381300  0.42290500  0.64041500  1
  O  O5  1  0.28618700  0.57709500  0.35958500  1
  O  O6  1  0.48943800  0.22076500  0.41853300  1
  O  O7  1  0.51056200  0.77923500  0.58146700  1
  O  O8  1  0.26773400  0.88453100  0.96196500  1
  O  O9  1  0.73226600  0.11546900  0.03803500  1
  O  O10  1  0.28327700  0.25691500  0.96599500  1
  O  O11  1  0.71672300  0.74308500  0.03400500  1
  O  O12  1  0.84622600  0.12973100  0.84934100  1
  O  O13  1  0.15377400  0.87026900  0.15065900  1
  O  O14  1  0.83767900  0.76858700  0.84670700  1
  O  O15  1  0.16232100  0.23141300  0.15329300  1
loop_
_geom_bond_atom_site_label_1
_geom_bond_atom_site_label_2
_geom_bond_distance
_geom_bond_site_symmetry_2
K0 O12 2.868350 1_555
K0 O4 2.902970 1_555
K0 O7 2.941007 1_545
K0 O0 3.120939 1_655
K0 O6 3.367905 1_555
K1 O13 2.868350 1_555
K1 O5 2.902970 1_555
K1 O6 2.941007 1_565
K1 O1 3.120939 1_455
K1 O7 3.367905 1_555
Mo0 O2 2.221525 1_555
Mo0 O0 2.222741 1_555
Mo0 O4 2.222998 1_555
Mo0 O6 2.242715 1_555
Mo1 O3 2.221525 1_555
Mo1 O1 2.222741 1_555
Mo1 O5 2.222998 1_555
Mo1 O7 2.242715 1_555
Mo2 O14 2.266036 1_445
Mo2 O10 2.271130 1_555
Mo2 O8 2.277586 1_545
Mo2 O12 2.317613 1_455
Mo3 O15 2.266036 1_665
Mo3 O11 2.271130 1_555
Mo3 O9 2.277586 1_565
Mo3 O13 2.317613 1_655
C0 O5 1.263848 1_555
C0 O0 1.264726 1_555
C1 O4 1.263848 1_555
C1 O1 1.264726 1_555
C2 O2 1.245975 1_555
C2 O7 1.264933 1_555
C3 O3 1.245975 1_555
C3 O6 1.264933 1_555
C4 O8 1.241472 1_554
C4 O13 1.256384 1_555
C5 O9 1.241472 1_556
C5 O12 1.256384 1_555
C6 O10 1.243613 1_554
C6 O15 1.248649 1_555
C7 O11 1.243613 1_556
C7 O14 1.248649 1_555
Cl0 Mo0 2.648030 1_555
Cl0 Mo2 2.773154 1_555
Cl0 K1 3.240835 1_545
Cl0 K0 3.368278 1_455
Cl1 Mo1 2.648030 1_555
Cl1 Mo3 2.773154 1_555
Cl1 K0 3.240835 1_565
Cl1 K1 3.368278 1_655
