# generated using pymatgen
data_Mn2SiNi
_symmetry_space_group_name_H-M   'P 1'
_cell_length_a   4.32487599
_cell_length_b   4.32487599
_cell_length_c   4.32487599
_cell_angle_alpha   130.56349169
_cell_angle_beta   130.56349169
_cell_angle_gamma   72.50752318
_symmetry_Int_Tables_number   1
_chemical_formula_structural   Mn2SiNi
_chemical_formula_sum   'Mn2 Si1 Ni1'
_cell_volume   45.62599011
_cell_formula_units_Z   1
loop_
 _symmetry_equiv_pos_site_id
 _symmetry_equiv_pos_as_xyz
  1  'x, y, z'
loop_
 _atom_site_type_symbol
 _atom_site_label
 _atom_site_symmetry_multiplicity
 _atom_site_fract_x
 _atom_site_fract_y
 _atom_site_fract_z
 _atom_site_occupancy
  Mn  Mn0  1  0.00000000  0.00000000  0.00000000  1
  Mn  Mn1  1  0.25000000  0.75000000  0.50000000  1
  Si  Si0  1  0.75000000  0.25000000  0.50000000  1
  Ni  Ni0  1  0.50000000  0.50000000  0.00000000  1
loop_
_geom_bond_atom_site_label_1
_geom_bond_atom_site_label_2
_geom_bond_distance
_geom_bond_site_symmetry_2
Mn0 Mn1 2.512256 1_444
Mn0 Si0 2.512256 1_455
Mn0 Si0 2.512256 1_454
Mn0 Si0 2.512256 1_444
Mn0 Mn1 2.512256 1_545
Mn0 Si0 2.512256 1_555
Mn0 Mn1 2.512256 1_555
Mn0 Mn1 2.512256 1_544
Mn0 Ni0 2.557570 1_556
Mn0 Ni0 2.557570 1_444
Mn0 Ni0 2.557570 1_455
Mn0 Ni0 2.557570 1_545
Mn1 Ni0 2.512256 1_566
Mn1 Ni0 2.512256 1_556
Mn1 Ni0 2.512256 1_555
Mn1 Ni0 2.512256 1_455
Mn1 Si0 2.557570 1_454
Mn1 Si0 2.557570 1_555
Mn1 Si0 2.557570 1_465
Mn1 Si0 2.557570 1_566
Ni0 Si0 2.512256 1_454
Ni0 Si0 2.512256 1_565
Ni0 Si0 2.512256 1_554
Ni0 Si0 2.512256 1_555
