# generated using pymatgen
data_Mg6CuSi
_symmetry_space_group_name_H-M   'P 1'
_cell_length_a   6.02843737
_cell_length_b   6.02843737
_cell_length_c   4.85118500
_cell_angle_alpha   90.00000000
_cell_angle_beta   90.00000000
_cell_angle_gamma   118.21526869
_symmetry_Int_Tables_number   1
_chemical_formula_structural   Mg6CuSi
_chemical_formula_sum   'Mg6 Cu1 Si1'
_cell_volume   155.35339124
_cell_formula_units_Z   1
loop_
 _symmetry_equiv_pos_site_id
 _symmetry_equiv_pos_as_xyz
  1  'x, y, z'
loop_
 _atom_site_type_symbol
 _atom_site_label
 _atom_site_symmetry_multiplicity
 _atom_site_fract_x
 _atom_site_fract_y
 _atom_site_fract_z
 _atom_site_occupancy
  Mg  Mg0  1  0.33480700  0.16627600  0.50000000  1
  Mg  Mg1  1  0.83372400  0.66519300  0.50000000  1
  Mg  Mg2  1  0.15805400  0.33368000  0.00000000  1
  Mg  Mg3  1  0.66632000  0.84194600  0.00000000  1
  Mg  Mg4  1  0.67181000  0.32819000  0.00000000  1
  Mg  Mg5  1  0.16940000  0.83060000  0.00000000  1
  Cu  Cu0  1  0.83336400  0.16663600  0.50000000  1
  Si  Si0  1  0.33252400  0.66747600  0.50000000  1
loop_
_geom_bond_atom_site_label_1
_geom_bond_atom_site_label_2
_geom_bond_distance
_geom_bond_site_symmetry_2
Mg0 Si0 3.000502 1_545
Mg0 Mg2 3.009010 1_556
Mg0 Mg2 3.009010 1_555
Mg0 Mg5 3.010775 1_546
Mg0 Mg5 3.010775 1_545
Mg0 Mg4 3.014724 1_556
Mg0 Mg4 3.014724 1_555
Mg0 Si0 3.027984 1_555
Mg0 Mg1 3.088458 1_555
Mg0 Mg1 3.101866 1_445
Mg1 Si0 3.000502 1_655
Mg1 Mg3 3.009010 1_556
Mg1 Mg3 3.009010 1_555
Mg1 Mg5 3.010775 1_656
Mg1 Mg5 3.010775 1_655
Mg1 Mg4 3.014724 1_556
Mg1 Mg4 3.014724 1_555
Mg1 Si0 3.027984 1_555
Mg2 Mg4 2.915790 1_455
Mg2 Mg5 2.963926 1_555
Mg2 Si0 3.006276 1_554
Mg2 Si0 3.006276 1_555
Mg2 Mg3 3.043993 1_445
Mg2 Mg5 3.065717 1_545
Mg2 Mg4 3.112930 1_555
Mg2 Mg3 3.146331 1_555
Mg3 Mg4 2.915790 1_565
Mg3 Mg5 2.963926 1_555
Mg3 Si0 3.006276 1_554
Mg3 Si0 3.006276 1_555
Mg3 Mg5 3.065717 1_655
Mg3 Mg4 3.112930 1_555
Mg4 Mg5 3.095262 1_655
Mg4 Mg5 3.095262 1_545
Mg5 Si0 2.954994 1_554
Mg5 Si0 2.954994 1_555
Cu0 Mg4 2.945746 1_555
Cu0 Mg4 2.945746 1_556
Cu0 Mg3 2.977427 1_546
Cu0 Mg3 2.977427 1_545
Cu0 Mg2 2.977427 1_656
Cu0 Mg2 2.977427 1_655
Cu0 Mg1 3.004494 1_555
Cu0 Mg0 3.004494 1_555
Cu0 Mg0 3.023944 1_655
Cu0 Mg1 3.023944 1_545
