# generated using pymatgen
data_Li2MgIr
_symmetry_space_group_name_H-M   'P 1'
_cell_length_a   6.21490900
_cell_length_b   6.21490900
_cell_length_c   6.21490900
_cell_angle_alpha   90.00000000
_cell_angle_beta   90.00000000
_cell_angle_gamma   90.00000000
_symmetry_Int_Tables_number   1
_chemical_formula_structural   Li2MgIr
_chemical_formula_sum   'Li8 Mg4 Ir4'
_cell_volume   240.05144357
_cell_formula_units_Z   4
loop_
 _symmetry_equiv_pos_site_id
 _symmetry_equiv_pos_as_xyz
  1  'x, y, z'
loop_
 _atom_site_type_symbol
 _atom_site_label
 _atom_site_symmetry_multiplicity
 _atom_site_fract_x
 _atom_site_fract_y
 _atom_site_fract_z
 _atom_site_occupancy
  Li  Li0  1  0.50000000  0.50000000  0.50000000  1
  Li  Li1  1  0.50000000  0.50000000  0.00000000  1
  Li  Li2  1  0.50000000  0.00000000  0.50000000  1
  Li  Li3  1  0.00000000  0.50000000  0.50000000  1
  Li  Li4  1  0.72856600  0.72856600  0.27143400  1
  Li  Li5  1  0.72856600  0.27143400  0.72856600  1
  Li  Li6  1  0.27143400  0.72856600  0.72856600  1
  Li  Li7  1  0.27143400  0.27143400  0.27143400  1
  Mg  Mg0  1  0.00000000  0.00000000  0.00000000  1
  Mg  Mg1  1  0.00000000  0.00000000  0.50000000  1
  Mg  Mg2  1  0.00000000  0.50000000  0.00000000  1
  Mg  Mg3  1  0.50000000  0.00000000  0.00000000  1
  Ir  Ir0  1  0.25250800  0.25250800  0.74749200  1
  Ir  Ir1  1  0.25250800  0.74749200  0.25250800  1
  Ir  Ir2  1  0.74749200  0.25250800  0.25250800  1
  Ir  Ir3  1  0.74749200  0.74749200  0.74749200  1
loop_
_geom_bond_atom_site_label_1
_geom_bond_atom_site_label_2
_geom_bond_distance
_geom_bond_site_symmetry_2
Li0 Li4 2.460407 1_555
Li0 Li5 2.460407 1_555
Li0 Li6 2.460407 1_555
Li0 Li7 2.460407 1_555
Li1 Li4 2.623260 1_555
Li1 Li7 2.623260 1_555
Li1 Li5 2.623260 1_554
Li1 Li6 2.623260 1_554
Li2 Li5 2.623260 1_555
Li2 Li7 2.623260 1_555
Li2 Li4 2.623260 1_545
Li2 Li6 2.623260 1_545
Li3 Li6 2.623260 1_555
Li3 Li7 2.623260 1_555
Li3 Li5 2.623260 1_455
Li3 Li4 2.623260 1_455
Li4 Mg3 2.776578 1_565
Li4 Mg2 2.776578 1_655
Li4 Mg1 2.776578 1_665
Li4 Mg0 2.921862 1_665
Li5 Mg3 2.776578 1_556
Li5 Mg1 2.776578 1_655
Li5 Mg2 2.776578 1_656
Li5 Mg0 2.921862 1_656
Li6 Mg1 2.776578 1_565
Li6 Mg2 2.776578 1_556
Li6 Mg3 2.776578 1_566
Li6 Mg0 2.921862 1_566
Li7 Mg3 2.776578 1_555
Li7 Mg1 2.776578 1_555
Li7 Mg2 2.776578 1_555
Li7 Mg0 2.921862 1_555
Mg0 Mg3 3.107454 1_555
Mg0 Mg1 3.107454 1_555
Mg0 Mg2 3.107454 1_555
Mg0 Mg2 3.107454 1_545
Mg0 Mg3 3.107454 1_455
Mg0 Mg1 3.107454 1_554
Ir0 Li0 2.664137 1_555
Ir0 Li3 2.682256 1_555
Ir0 Li2 2.682256 1_555
Ir0 Li1 2.682256 1_556
Ir0 Mg1 2.700254 1_555
Ir0 Mg3 2.700254 1_556
Ir0 Mg2 2.700254 1_556
Ir0 Mg0 2.718132 1_556
Ir1 Li0 2.664137 1_555
Ir1 Li1 2.682256 1_555
Ir1 Li3 2.682256 1_555
Ir1 Li2 2.682256 1_565
Ir1 Mg2 2.700254 1_555
Ir1 Mg3 2.700254 1_565
Ir1 Mg1 2.700254 1_565
Ir1 Mg0 2.718132 1_565
Ir2 Li0 2.664137 1_555
Ir2 Li1 2.682256 1_555
Ir2 Li2 2.682256 1_555
Ir2 Li3 2.682256 1_655
Ir2 Mg3 2.700254 1_555
Ir2 Mg1 2.700254 1_655
Ir2 Mg2 2.700254 1_655
Ir2 Mg0 2.718132 1_655
Ir3 Li0 2.664137 1_555
Ir3 Li2 2.682256 1_565
Ir3 Li1 2.682256 1_556
Ir3 Li3 2.682256 1_655
Ir3 Mg1 2.700254 1_665
Ir3 Mg2 2.700254 1_656
Ir3 Mg3 2.700254 1_566
Ir3 Mg0 2.718132 1_666
