# generated using pymatgen
data_KSr2(BiO3)3
_symmetry_space_group_name_H-M   'P 1'
_cell_length_a   6.12553259
_cell_length_b   6.12553259
_cell_length_c   7.55404200
_cell_angle_alpha   90.00000000
_cell_angle_beta   90.00000000
_cell_angle_gamma   120.00000633
_symmetry_Int_Tables_number   1
_chemical_formula_structural   KSr2(BiO3)3
_chemical_formula_sum   'K1 Sr2 Bi3 O9'
_cell_volume   245.46959619
_cell_formula_units_Z   1
loop_
 _symmetry_equiv_pos_site_id
 _symmetry_equiv_pos_as_xyz
  1  'x, y, z'
loop_
 _atom_site_type_symbol
 _atom_site_label
 _atom_site_symmetry_multiplicity
 _atom_site_fract_x
 _atom_site_fract_y
 _atom_site_fract_z
 _atom_site_occupancy
  K  K0  1  0.00000000  0.00000000  0.00000000  1
  Sr  Sr0  1  0.33333300  0.66666700  0.63709600  1
  Sr  Sr1  1  0.66666700  0.33333300  0.36290400  1
  Bi  Bi0  1  0.33333300  0.66666700  0.15924200  1
  Bi  Bi1  1  0.00000000  0.00000000  0.50000000  1
  Bi  Bi2  1  0.66666700  0.33333300  0.84075800  1
  O  O0  1  0.00000000  0.50000000  0.00000000  1
  O  O1  1  0.65163000  0.82581500  0.35239000  1
  O  O2  1  0.34837000  0.17418500  0.64761000  1
  O  O3  1  0.17418500  0.82581500  0.35239000  1
  O  O4  1  0.82581500  0.17418500  0.64761000  1
  O  O5  1  0.50000000  0.50000000  0.00000000  1
  O  O6  1  0.50000000  0.00000000  0.00000000  1
  O  O7  1  0.17418500  0.34837000  0.35239000  1
  O  O8  1  0.82581500  0.65163000  0.64761000  1
loop_
_geom_bond_atom_site_label_1
_geom_bond_atom_site_label_2
_geom_bond_distance
_geom_bond_site_symmetry_2
K0 O5 3.062766 1_445
K0 O5 3.062766 1_555
K0 O6 3.062766 1_555
K0 O0 3.062766 1_555
K0 O0 3.062766 1_545
K0 O6 3.062766 1_455
K0 O1 3.240585 1_445
K0 O7 3.240585 1_555
K0 O8 3.240585 1_444
K0 O2 3.240585 1_554
K0 O4 3.240585 1_454
K0 O3 3.240585 1_545
Bi0 O6 2.138658 1_565
Bi0 O0 2.138658 1_555
Bi0 O5 2.138662 1_555
Bi0 O3 2.231572 1_555
Bi0 O7 2.231576 1_555
Bi0 O1 2.231576 1_555
Bi1 O8 2.158391 1_445
Bi1 O1 2.158391 1_445
Bi1 O7 2.158391 1_555
Bi1 O2 2.158391 1_555
Bi1 O4 2.158392 1_455
Bi1 O3 2.158392 1_545
Bi2 O6 2.138658 1_556
Bi2 O0 2.138658 1_656
Bi2 O5 2.138662 1_556
Bi2 O4 2.231572 1_555
Bi2 O8 2.231576 1_555
Bi2 O2 2.231576 1_555
O0 Sr0 3.262219 1_554
O0 Sr1 3.262219 1_455
O1 Sr0 2.734326 1_555
O1 Sr1 3.064831 1_565
O1 Sr1 3.064837 1_555
O2 Sr1 2.734326 1_555
O2 Sr0 3.064831 1_545
O2 Sr0 3.064837 1_555
O3 Sr0 2.734323 1_555
O3 Sr1 3.064834 1_455
O3 Sr1 3.064834 1_565
O4 Sr1 2.734323 1_555
O4 Sr0 3.064834 1_545
O4 Sr0 3.064834 1_655
O5 Sr1 3.262221 1_555
O5 Sr0 3.262221 1_554
O6 Sr0 3.262219 1_544
O6 Sr1 3.262219 1_555
O7 Sr0 2.734326 1_555
O7 Sr1 3.064831 1_455
O7 Sr1 3.064837 1_555
O8 Sr1 2.734326 1_555
O8 Sr0 3.064831 1_655
O8 Sr0 3.064837 1_555
