# generated using pymatgen
data_Li9Mn2Co5O16
_symmetry_space_group_name_H-M   'P 1'
_cell_length_a   2.93692800
_cell_length_b   5.12155932
_cell_length_c   19.30153190
_cell_angle_alpha   94.33073172
_cell_angle_beta   93.08114682
_cell_angle_gamma   91.30250070
_symmetry_Int_Tables_number   1
_chemical_formula_structural   Li9Mn2Co5O16
_chemical_formula_sum   'Li9 Mn2 Co5 O16'
_cell_volume   288.97481007
_cell_formula_units_Z   1
loop_
 _symmetry_equiv_pos_site_id
 _symmetry_equiv_pos_as_xyz
  1  'x, y, z'
loop_
 _atom_site_type_symbol
 _atom_site_label
 _atom_site_symmetry_multiplicity
 _atom_site_fract_x
 _atom_site_fract_y
 _atom_site_fract_z
 _atom_site_occupancy
  Li  Li0  1  0.01043500  0.60562200  0.87392100  1
  Li  Li1  1  0.48904900  0.75252000  0.75016500  1
  Li  Li2  1  0.99441900  0.87527800  0.62713500  1
  Li  Li3  1  0.50026900  0.00031400  0.50104000  1
  Li  Li4  1  0.00101900  0.12656500  0.37440600  1
  Li  Li5  1  0.50137800  0.24801800  0.25011300  1
  Li  Li6  1  0.99807000  0.38092200  0.12594400  1
  Li  Li7  1  0.50625100  0.49360100  0.99554600  1
  Li  Li8  1  0.48672000  0.14066000  0.87683500  1
  Mn  Mn0  1  0.00481000  0.00320400  0.99638900  1
  Mn  Mn1  1  0.99315800  0.75566800  0.24866000  1
  Co  Co0  1  0.99745100  0.23961400  0.75553000  1
  Co  Co1  1  0.49732200  0.36461400  0.62682400  1
  Co  Co2  1  0.00305600  0.49870200  0.50131600  1
  Co  Co3  1  0.49774000  0.63137300  0.37589300  1
  Co  Co4  1  0.51576700  0.87296700  0.12320800  1
  O  O0  1  0.48209700  0.83394000  0.94397600  1
  O  O1  1  0.00019700  0.97253400  0.80479400  1
  O  O2  1  0.52265600  0.07561500  0.69106700  1
  O  O3  1  0.01257400  0.19915200  0.56646400  1
  O  O4  1  0.50905800  0.33063800  0.44138600  1
  O  O5  1  0.00901000  0.46536500  0.31441100  1
  O  O6  1  0.52985500  0.58019200  0.18481000  1
  O  O7  1  0.04138600  0.71565500  0.06271500  1
  O  O8  1  0.46589500  0.43147400  0.80705400  1
  O  O9  1  0.99039000  0.52245300  0.68724300  1
  O  O10  1  0.49157200  0.66850000  0.56056000  1
  O  O11  1  0.98934900  0.79554800  0.43425800  1
  O  O12  1  0.46100700  0.93254800  0.31087700  1
  O  O13  1  0.97899200  0.04526400  0.18440700  1
  O  O14  1  0.52689100  0.15187100  0.05849900  1
  O  O15  1  0.99216300  0.28961300  0.94455400  1
loop_
_geom_bond_atom_site_label_1
_geom_bond_atom_site_label_2
_geom_bond_distance
_geom_bond_site_symmetry_2
Li0 O8 2.077628 1_555
Li0 O8 2.135025 1_455
Li0 O0 2.144951 1_555
Li0 O15 2.195017 1_455
Li0 O0 2.381746 1_455
Li0 O1 2.385229 1_555
Li1 O8 2.046832 1_555
Li1 O1 2.051494 1_655
Li1 O2 2.082989 1_565
Li1 O1 2.121242 1_555
Li1 O9 2.126602 1_455
Li1 O9 2.255290 1_555
Li2 O3 2.102774 1_665
Li2 O10 2.114980 1_555
Li2 O2 2.124362 1_665
Li2 O2 2.133632 1_565
Li2 O9 2.220039 1_555
Li2 O10 2.229602 1_655
Li3 O3 2.104136 1_655
Li3 O4 2.117527 1_555
Li3 O10 2.122373 1_545
Li3 O11 2.128217 1_445
Li3 O3 2.179396 1_555
Li3 O11 2.210862 1_545
Li4 O12 2.090723 1_545
Li4 O11 2.123032 1_445
Li4 O4 2.123137 1_555
Li4 O12 2.131094 1_445
Li4 O5 2.157986 1_555
Li4 O4 2.217374 1_455
Li5 O12 2.071839 1_545
Li5 O5 2.125805 1_655
Li5 O13 2.135420 1_455
Li5 O13 2.170919 1_555
Li5 O6 2.195151 1_555
Li5 O5 2.219874 1_555
Li6 O6 2.068840 1_555
Li6 O6 2.081691 1_655
Li6 O14 2.118415 1_555
Li6 O13 2.127711 1_555
Li6 O7 2.183431 1_655
Li6 O14 2.356376 1_655
Li7 O15 1.988224 1_455
Li7 O15 2.039665 1_555
Li7 O0 2.072235 1_555
Li7 O14 2.204851 1_556
Li7 O7 2.208246 1_556
Li7 O7 2.218401 1_656
Li8 O15 2.020733 1_555
Li8 O1 2.065499 1_545
Li8 O8 2.081936 1_555
Li8 O0 2.110843 1_545
Li8 O15 2.122262 1_455
Li8 O1 2.247834 1_645
Mn0 O15 1.836893 1_455
Mn0 O0 1.942109 1_445
Mn0 O0 1.953231 1_545
Mn0 O14 1.994849 1_556
Mn0 O14 2.019568 1_456
Mn0 O7 2.023962 1_546
Mn1 O12 1.937135 1_655
Mn1 O6 1.942893 1_555
Mn1 O13 2.003665 1_565
Mn1 O5 2.026110 1_655
Mn1 O12 2.192539 1_555
Mn1 O6 2.217428 1_655
Co0 O1 1.723772 1_645
Co0 O8 1.868481 1_655
Co0 O2 1.949479 1_555
Co0 O9 2.030474 1_555
Co0 O8 2.116785 1_555
Co0 O2 2.177214 1_655
Co1 O3 1.928736 1_555
Co1 O9 1.932182 1_555
Co1 O2 2.001538 1_555
Co1 O9 2.080633 1_455
Co1 O10 2.087561 1_555
Co1 O3 2.112845 1_655
Co2 O10 1.933661 1_555
Co2 O4 1.948412 1_455
Co2 O3 2.055519 1_555
Co2 O11 2.069448 1_455
Co2 O4 2.092841 1_555
Co2 O10 2.101022 1_455
Co3 O11 1.920311 1_555
Co3 O5 1.949468 1_555
Co3 O12 2.061807 1_555
Co3 O4 2.064769 1_555
Co3 O11 2.073713 1_455
Co3 O5 2.117317 1_655
Co4 O7 1.893547 1_555
Co4 O13 1.907901 1_565
Co4 O14 1.968026 1_565
Co4 O6 1.982588 1_555
Co4 O7 2.122190 1_655
Co4 O13 2.182947 1_465
