# generated using pymatgen
data_NaTbMn4O12
_symmetry_space_group_name_H-M   'P 1'
_cell_length_a   5.32928362
_cell_length_b   5.32928362
_cell_length_c   7.64090371
_cell_angle_alpha   90.00000000
_cell_angle_beta   90.00000000
_cell_angle_gamma   90.00000000
_symmetry_Int_Tables_number   1
_chemical_formula_structural   NaTbMn4O12
_chemical_formula_sum   'Na1 Tb1 Mn4 O12'
_cell_volume   217.01132272
_cell_formula_units_Z   1
loop_
 _symmetry_equiv_pos_site_id
 _symmetry_equiv_pos_as_xyz
  1  'x, y, z'
loop_
 _atom_site_type_symbol
 _atom_site_label
 _atom_site_symmetry_multiplicity
 _atom_site_fract_x
 _atom_site_fract_y
 _atom_site_fract_z
 _atom_site_occupancy
  Na  Na0  1  0.50000000  0.50000000  0.50000000  1
  Tb  Tb0  1  0.00000000  -0.00000000  -0.00000000  1
  Mn  Mn0  1  0.00000000  0.50000000  0.74040558  1
  Mn  Mn1  1  0.00000000  0.50000000  0.25959442  1
  Mn  Mn2  1  0.50000000  -0.00000000  0.74040558  1
  Mn  Mn3  1  0.50000000  0.00000000  0.25959442  1
  O  O0  1  0.23737293  0.23737293  0.77356359  1
  O  O1  1  0.23737293  0.23737293  0.22643641  1
  O  O2  1  0.76262707  0.76262707  0.77356359  1
  O  O3  1  0.76262707  0.76262707  0.22643641  1
  O  O4  1  0.76262707  0.23737293  0.77356359  1
  O  O5  1  0.76262707  0.23737293  0.22643641  1
  O  O6  1  0.23737293  0.76262707  0.77356359  1
  O  O7  1  0.23737293  0.76262707  0.22643641  1
  O  O8  1  0.00000000  0.50000000  0.50000000  1
  O  O9  1  0.00000000  0.50000000  0.00000000  1
  O  O10  1  0.50000000  0.00000000  0.50000000  1
  O  O11  1  0.50000000  -0.00000000  0.00000000  1
loop_
_geom_bond_atom_site_label_1
_geom_bond_atom_site_label_2
_geom_bond_distance
_geom_bond_site_symmetry_2
Na0 O10 2.664642 1_565
Na0 O8 2.664642 1_555
Na0 O8 2.664642 1_655
Na0 O10 2.664642 1_555
Na0 O2 2.878729 1_555
Na0 O0 2.878729 1_555
Na0 O6 2.878729 1_555
Na0 O3 2.878729 1_555
Na0 O1 2.878729 1_555
Na0 O4 2.878729 1_555
Na0 O7 2.878729 1_555
Na0 O5 2.878729 1_555
Mn0 O8 1.836916 1_555
Mn0 O6 1.903524 1_555
Mn0 O0 1.903524 1_555
Mn0 O2 1.903524 1_455
Mn0 O4 1.903524 1_455
Mn0 O9 1.983536 1_556
Mn1 O8 1.836916 1_555
Mn1 O1 1.903524 1_555
Mn1 O7 1.903524 1_555
Mn1 O3 1.903524 1_455
Mn1 O5 1.903524 1_455
Mn1 O9 1.983536 1_555
Mn2 O10 1.836916 1_555
Mn2 O0 1.903524 1_555
Mn2 O4 1.903524 1_555
Mn2 O2 1.903524 1_545
Mn2 O6 1.903524 1_545
Mn2 O11 1.983536 1_556
Mn3 O10 1.836916 1_555
Mn3 O5 1.903524 1_555
Mn3 O1 1.903524 1_555
Mn3 O7 1.903524 1_545
Mn3 O3 1.903524 1_545
Mn3 O11 1.983536 1_555
O0 Tb0 2.488797 1_556
O1 Tb0 2.488797 1_555
O2 Tb0 2.488797 1_666
O3 Tb0 2.488797 1_665
O4 Tb0 2.488797 1_656
O5 Tb0 2.488797 1_655
O6 Tb0 2.488797 1_566
O7 Tb0 2.488797 1_565
O9 Tb0 2.664642 1_555
O9 Tb0 2.664642 1_565
O11 Tb0 2.664642 1_555
O11 Tb0 2.664642 1_655
