# generated using pymatgen
data_Ca3V6(FeO6)4
_symmetry_space_group_name_H-M   'P 1'
_cell_length_a   6.87978000
_cell_length_b   8.63086993
_cell_length_c   10.10202134
_cell_angle_alpha   105.79233972
_cell_angle_beta   106.08965456
_cell_angle_gamma   103.93796501
_symmetry_Int_Tables_number   1
_chemical_formula_structural   Ca3V6(FeO6)4
_chemical_formula_sum   'Ca3 V6 Fe4 O24'
_cell_volume   521.12913480
_cell_formula_units_Z   1
loop_
 _symmetry_equiv_pos_site_id
 _symmetry_equiv_pos_as_xyz
  1  'x, y, z'
loop_
 _atom_site_type_symbol
 _atom_site_label
 _atom_site_symmetry_multiplicity
 _atom_site_fract_x
 _atom_site_fract_y
 _atom_site_fract_z
 _atom_site_occupancy
  Ca  Ca0  1  0.00000000  0.50000000  0.50000000  1
  Ca  Ca1  1  0.29123800  0.30642800  0.79573400  1
  Ca  Ca2  1  0.70876200  0.69357200  0.20426600  1
  V  V0  1  0.78699000  0.33644400  0.73871300  1
  V  V1  1  0.21301000  0.66355600  0.26128700  1
  V  V2  1  0.88804700  0.90521100  0.66636600  1
  V  V3  1  0.39701500  0.74422600  0.86362900  1
  V  V4  1  0.11195300  0.09478900  0.33363400  1
  V  V5  1  0.60298500  0.25577400  0.13637100  1
  Fe  Fe0  1  0.37473100  0.95592000  0.60127200  1
  Fe  Fe1  1  0.62526900  0.04408000  0.39872800  1
  Fe  Fe2  1  0.04670200  0.21047600  0.02804300  1
  Fe  Fe3  1  0.95329800  0.78952400  0.97195700  1
  O  O0  1  0.84174100  0.69854100  0.58081500  1
  O  O1  1  0.15825900  0.30145900  0.41918500  1
  O  O2  1  0.25252700  0.53706500  0.73695300  1
  O  O3  1  0.74747300  0.46293500  0.26304700  1
  O  O4  1  0.79252000  0.28410400  0.55794400  1
  O  O5  1  0.20748000  0.71589600  0.44205600  1
  O  O6  1  0.66514200  0.96059400  0.57530100  1
  O  O7  1  0.33485800  0.03940600  0.42469900  1
  O  O8  1  0.64449900  0.74380000  0.98113600  1
  O  O9  1  0.35550100  0.25620000  0.01886400  1
  O  O10  1  0.46219700  0.78660900  0.27285200  1
  O  O11  1  0.53780300  0.21339100  0.72714800  1
  O  O12  1  0.12484500  0.01723400  0.64870900  1
  O  O13  1  0.07207200  0.05424000  0.14346200  1
  O  O14  1  0.92792800  0.94576000  0.85653800  1
  O  O15  1  0.56819400  0.12875500  0.23987300  1
  O  O16  1  0.43180600  0.87124500  0.76012700  1
  O  O17  1  0.17811600  0.45261800  0.18131500  1
  O  O18  1  0.82188400  0.54738200  0.81868500  1
  O  O19  1  0.98571900  0.28054300  0.85031000  1
  O  O20  1  0.01428100  0.71945700  0.14969000  1
  O  O21  1  0.23720700  0.79715000  0.96129000  1
  O  O22  1  0.76279300  0.20285000  0.03871000  1
  O  O23  1  0.87515500  0.98276600  0.35129100  1
loop_
_geom_bond_atom_site_label_1
_geom_bond_atom_site_label_2
_geom_bond_distance
_geom_bond_site_symmetry_2
Ca0 O1 2.327735 1_555
Ca0 O0 2.327735 1_455
Ca0 O5 2.372293 1_555
Ca0 O4 2.372293 1_455
Ca0 O2 2.420922 1_555
Ca0 O3 2.420922 1_455
Ca1 O11 2.237663 1_555
Ca1 O2 2.279722 1_555
Ca1 O19 2.292383 1_455
Ca1 O12 2.325875 1_555
Ca1 O9 2.352878 1_556
Ca2 O10 2.237663 1_555
Ca2 O3 2.279722 1_555
Ca2 O20 2.292383 1_655
Ca2 O23 2.325875 1_555
Ca2 O8 2.352878 1_554
Fe0 O16 1.921159 1_555
Fe0 O5 2.052995 1_555
Fe0 O12 2.054770 1_565
Fe0 O11 2.069774 1_565
Fe0 O7 2.073593 1_565
Fe0 O6 2.078412 1_555
Fe1 O15 1.921159 1_555
Fe1 O4 2.052995 1_555
Fe1 O23 2.054770 1_545
Fe1 O10 2.069774 1_545
Fe1 O6 2.073593 1_545
Fe1 O7 2.078412 1_555
Fe2 O22 1.972219 1_455
Fe2 O19 2.015219 1_454
Fe2 O13 2.016092 1_555
Fe2 O17 2.033469 1_555
Fe2 O9 2.098315 1_555
Fe2 O14 2.247388 1_444
Fe3 O21 1.972219 1_655
Fe3 O20 2.015219 1_656
Fe3 O14 2.016092 1_555
Fe3 O18 2.033469 1_555
Fe3 O8 2.098315 1_555
Fe3 O13 2.247388 1_666
O0 V2 1.662735 1_555
O1 V4 1.662735 1_555
O2 V3 1.736634 1_555
O3 V5 1.736634 1_555
O4 V0 1.771454 1_555
O5 V1 1.771454 1_555
O6 V2 1.799177 1_555
O7 V4 1.799177 1_555
O8 V3 1.786954 1_555
O9 V5 1.786954 1_555
O10 V1 1.739233 1_555
O11 V0 1.739233 1_555
O12 V2 1.765443 1_445
O13 V4 1.784402 1_555
O14 V2 1.784402 1_555
O15 V5 1.728752 1_555
O16 V3 1.728752 1_555
O17 V1 1.704756 1_555
O18 V0 1.704756 1_555
O19 V0 1.769882 1_555
O20 V1 1.769882 1_555
O21 V3 1.728762 1_555
O22 V5 1.728762 1_555
O23 V4 1.765443 1_665
