# generated using pymatgen
data_Ti2Si7H42C14(Cl3O)2
_symmetry_space_group_name_H-M   'P 1'
_cell_length_a   12.96354805
_cell_length_b   17.61339613
_cell_length_c   18.71982120
_cell_angle_alpha   90.00000000
_cell_angle_beta   105.85019946
_cell_angle_gamma   90.00000000
_symmetry_Int_Tables_number   1
_chemical_formula_structural   Ti2Si7H42C14(Cl3O)2
_chemical_formula_sum   'Ti8 Si28 H168 C56 Cl24 O8'
_cell_volume   4111.82196723
_cell_formula_units_Z   4
loop_
 _symmetry_equiv_pos_site_id
 _symmetry_equiv_pos_as_xyz
  1  'x, y, z'
loop_
 _atom_site_type_symbol
 _atom_site_label
 _atom_site_symmetry_multiplicity
 _atom_site_fract_x
 _atom_site_fract_y
 _atom_site_fract_z
 _atom_site_occupancy
  Ti  Ti0  1  0.41622211  0.89873507  0.94848632  1
  Ti  Ti1  1  0.91622211  0.60126493  0.44848632  1
  Ti  Ti2  1  0.58377789  0.10126493  0.05151368  1
  Ti  Ti3  1  0.08377789  0.39873507  0.55151368  1
  Ti  Ti4  1  0.41858201  0.98845843  0.15848756  1
  Ti  Ti5  1  0.91858201  0.51154157  0.65848756  1
  Ti  Ti6  1  0.58141799  0.01154157  0.84151244  1
  Ti  Ti7  1  0.08141799  0.48845843  0.34151244  1
  Si  Si0  1  0.55697024  0.25646077  0.15793644  1
  Si  Si1  1  0.05697024  0.24353923  0.65793644  1
  Si  Si2  1  0.44302976  0.74353923  0.84206356  1
  Si  Si3  1  0.94302976  0.75646077  0.34206356  1
  Si  Si4  1  0.30109788  0.14945775  0.20374988  1
  Si  Si5  1  0.80109788  0.35054225  0.70374988  1
  Si  Si6  1  0.69890212  0.85054225  0.79625012  1
  Si  Si7  1  0.19890212  0.64945775  0.29625012  1
  Si  Si8  1  0.36937655  0.25890629  0.15358861  1
  Si  Si9  1  0.86937655  0.24109371  0.65358861  1
  Si  Si10  1  0.63062345  0.74109371  0.84641139  1
  Si  Si11  1  0.13062345  0.75890629  0.34641139  1
  Si  Si12  1  0.11663040  0.12524767  0.13491232  1
  Si  Si13  1  0.61663040  0.37475233  0.63491232  1
  Si  Si14  1  0.88336960  0.87475233  0.86508768  1
  Si  Si15  1  0.38336960  0.62524767  0.36508768  1
  Si  Si16  1  0.31140961  0.15607057  0.33443469  1
  Si  Si17  1  0.81140961  0.34392943  0.83443469  1
  Si  Si18  1  0.68859039  0.84392943  0.66556531  1
  Si  Si19  1  0.18859039  0.65607057  0.16556531  1
  Si  Si20  1  0.61225119  0.36354222  0.09642611  1
  Si  Si21  1  0.11225119  0.13645778  0.59642611  1
  Si  Si22  1  0.38774881  0.63645778  0.90357389  1
  Si  Si23  1  0.88774881  0.86354222  0.40357389  1
  Si  Si24  1  0.68392209  0.23212709  0.27588877  1
  Si  Si25  1  0.18392209  0.26787291  0.77588877  1
  Si  Si26  1  0.31607791  0.76787291  0.72411123  1
  Si  Si27  1  0.81607791  0.73212709  0.22411123  1
  H  H0  1  0.35776384  0.39793179  0.17462354  1
  H  H1  1  0.85776384  0.10206821  0.67462354  1
  H  H2  1  0.64223616  0.60206821  0.82537646  1
  H  H3  1  0.14223616  0.89793179  0.32537646  1
  H  H4  1  0.38765226  0.34886712  0.26119617  1
  H  H5  1  0.88765226  0.15113288  0.76119617  1
  H  H6  1  0.61234774  0.65113288  0.73880383  1
  H  H7  1  0.11234774  0.84886712  0.23880383  1
  H  H8  1  0.25478720  0.34857382  0.20142101  1
  H  H9  1  0.75478720  0.15142618  0.70142101  1
  H  H10  1  0.74521280  0.65142618  0.79857899  1
  H  H11  1  0.24521280  0.84857382  0.29857899  1
  H  H12  1  0.20667322  0.26756996  0.04492731  1
  H  H13  1  0.70667322  0.23243004  0.54492731  1
  H  H14  1  0.79332678  0.73243004  0.95507269  1
  H  H15  1  0.29332678  0.76756996  0.45507269  1
  H  H16  1  0.31373305  0.22323396  0.01801355  1
  H  H17  1  0.81373305  0.27676604  0.51801355  1
  H  H18  1  0.68626695  0.77676604  0.98198645  1
  H  H19  1  0.18626695  0.72323396  0.48198645  1
  H  H20  1  0.31283518  0.32371069  0.03038535  1
  H  H21  1  0.81283518  0.17628931  0.53038535  1
  H  H22  1  0.68716482  0.67628931  0.96961465  1
  H  H23  1  0.18716482  0.82371069  0.46961465  1
  H  H24  1  0.08166673  0.26403758  0.10979747  1
  H  H25  1  0.58166673  0.23596242  0.60979747  1
  H  H26  1  0.91833327  0.73596242  0.89020253  1
  H  H27  1  0.41833327  0.76403758  0.39020253  1
  H  H28  1  0.05079205  0.23704272  0.19336650  1
  H  H29  1  0.55079205  0.26295728  0.69336650  1
  H  H30  1  0.94920795  0.76295728  0.80663350  1
  H  H31  1  0.44920795  0.73704272  0.30663350  1
  H  H32  1  0.96179559  0.21317102  0.10581611  1
  H  H33  1  0.46179559  0.28682898  0.60581611  1
  H  H34  1  0.03820441  0.78682898  0.89418389  1
  H  H35  1  0.53820441  0.71317102  0.39418389  1
  H  H36  1  0.01161492  0.09282615  0.00852929  1
  H  H37  1  0.51161492  0.40717385  0.50852929  1
  H  H38  1  0.98838508  0.90717385  0.99147071  1
  H  H39  1  0.48838508  0.59282615  0.49147071  1
  H  H40  1  0.13568715  0.04291977  0.02952175  1
  H  H41  1  0.63568715  0.45708023  0.52952175  1
  H  H42  1  0.86431285  0.95708023  0.97047825  1
  H  H43  1  0.36431285  0.54291977  0.47047825  1
  H  H44  1  0.13052877  0.14114026  0.00473665  1
  H  H45  1  0.63052877  0.35885974  0.50473665  1
  H  H46  1  0.86947123  0.85885974  0.99526335  1
  H  H47  1  0.36947123  0.64114026  0.49526335  1
  H  H48  1  0.97916966  0.02916973  0.14026593  1
  H  H49  1  0.47916966  0.47083027  0.64026593  1
  H  H50  1  0.02083034  0.97083027  0.85973407  1
  H  H51  1  0.52083034  0.52916973  0.35973407  1
  H  H52  1  0.02831219  0.07351134  0.22820367  1
  H  H53  1  0.52831219  0.42648866  0.72820367  1
  H  H54  1  0.97168781  0.92648866  0.77179633  1
  H  H55  1  0.47168781  0.57351134  0.27179633  1
  H  H56  1  0.10550176  0.00130833  0.19938935  1
  H  H57  1  0.60550176  0.49869167  0.69938935  1
  H  H58  1  0.89449824  0.99869167  0.80061065  1
  H  H59  1  0.39449824  0.50130833  0.30061065  1
  H  H60  1  0.41416268  0.03498978  0.36989752  1
  H  H61  1  0.91416268  0.46501022  0.86989752  1
  H  H62  1  0.58583732  0.96501022  0.63010248  1
  H  H63  1  0.08583732  0.53498978  0.13010248  1
  H  H64  1  0.27397278  0.01732902  0.34523097  1
  H  H65  1  0.77397278  0.48267098  0.84523097  1
  H  H66  1  0.72602722  0.98267098  0.65476903  1
  H  H67  1  0.22602722  0.51732902  0.15476903  1
  H  H68  1  0.33840983  0.05828508  0.43326912  1
  H  H69  1  0.83840983  0.44171492  0.93326912  1
  H  H70  1  0.66159017  0.94171492  0.56673088  1
  H  H71  1  0.16159017  0.55828508  0.06673088  1
  H  H72  1  0.11211757  0.15411674  0.31647511  1
  H  H73  1  0.61211757  0.34588326  0.81647511  1
  H  H74  1  0.88788243  0.84588326  0.68352489  1
  H  H75  1  0.38788243  0.65411674  0.18352489  1
  H  H76  1  0.16106936  0.24916457  0.31835386  1
  H  H77  1  0.66106936  0.25083543  0.81835386  1
  H  H78  1  0.83893064  0.75083543  0.68164614  1
  H  H79  1  0.33893064  0.74916457  0.18164614  1
  H  H80  1  0.18226360  0.19712550  0.40203270  1
  H  H81  1  0.68226360  0.30287450  0.90203270  1
  H  H82  1  0.81773640  0.80287450  0.59796730  1
  H  H83  1  0.31773640  0.69712550  0.09796730  1
  H  H84  1  0.40947556  0.21978265  0.44947907  1
  H  H85  1  0.90947556  0.28021735  0.94947907  1
  H  H86  1  0.59052444  0.78021735  0.55052093  1
  H  H87  1  0.09052444  0.71978265  0.05052093  1
  H  H88  1  0.40123158  0.28130894  0.37319541  1
  H  H89  1  0.90123158  0.21869106  0.87319541  1
  H  H90  1  0.59876842  0.71869106  0.62680459  1
  H  H91  1  0.09876842  0.78130894  0.12680459  1
  H  H92  1  0.49800615  0.20636963  0.39288628  1
  H  H93  1  0.99800615  0.29363037  0.89288628  1
  H  H94  1  0.50199385  0.79363037  0.60711372  1
  H  H95  1  0.00199385  0.70636963  0.10711372  1
  H  H96  1  0.43922747  0.40593739  0.00839462  1
  H  H97  1  0.93922747  0.09406261  0.50839462  1
  H  H98  1  0.56077253  0.59406261  0.99160538  1
  H  H99  1  0.06077253  0.90593739  0.49160538  1
  H  H100  1  0.49682696  0.32896570  0.97014291  1
  H  H101  1  0.99682696  0.17103430  0.47014291  1
  H  H102  1  0.50317304  0.67103430  0.02985709  1
  H  H103  1  0.00317304  0.82896570  0.52985709  1
  H  H104  1  0.55031752  0.42224970  0.97187849  1
  H  H105  1  0.05031752  0.07775030  0.47187849  1
  H  H106  1  0.44968248  0.57775030  0.02812151  1
  H  H107  1  0.94968248  0.92224970  0.52812151  1
  H  H108  1  0.64178706  0.50060785  0.12390722  1
  H  H109  1  0.14178706  0.99939215  0.62390722  1
  H  H110  1  0.35821294  0.49939215  0.87609278  1
  H  H111  1  0.85821294  0.00060785  0.37609278  1
  H  H112  1  0.68749017  0.44674188  0.20684013  1
  H  H113  1  0.18749017  0.05325812  0.70684013  1
  H  H114  1  0.31250983  0.55325812  0.79315987  1
  H  H115  1  0.81250983  0.94674188  0.29315987  1
  H  H116  1  0.54772497  0.46407564  0.16883969  1
  H  H117  1  0.04772497  0.03592436  0.66883969  1
  H  H118  1  0.45227503  0.53592436  0.83116031  1
  H  H119  1  0.95227503  0.96407564  0.33116031  1
  H  H120  1  0.77199863  0.39082083  0.05271995  1
  H  H121  1  0.27199863  0.10917917  0.55271995  1
  H  H122  1  0.22800137  0.60917917  0.94728005  1
  H  H123  1  0.72800137  0.89082083  0.44728005  1
  H  H124  1  0.74163519  0.29181799  0.04444697  1
  H  H125  1  0.24163519  0.20818201  0.54444697  1
  H  H126  1  0.25836481  0.70818201  0.95555303  1
  H  H127  1  0.75836481  0.79181799  0.45555303  1
  H  H128  1  0.80846829  0.33157094  0.13249156  1
  H  H129  1  0.30846829  0.16842906  0.63249156  1
  H  H130  1  0.19153171  0.66842906  0.86750844  1
  H  H131  1  0.69153171  0.83157094  0.36750844  1
  H  H132  1  0.73617888  0.31103110  0.38915762  1
  H  H133  1  0.23617888  0.18896890  0.88915762  1
  H  H134  1  0.26382112  0.68896890  0.61084238  1
  H  H135  1  0.76382112  0.81103110  0.11084238  1
  H  H136  1  0.60001189  0.32924660  0.34096632  1
  H  H137  1  0.10001189  0.17075340  0.84096632  1
  H  H138  1  0.39998811  0.67075340  0.65903368  1
  H  H139  1  0.89998811  0.82924660  0.15903368  1
  H  H140  1  0.70566672  0.37010988  0.30946284  1
  H  H141  1  0.20566672  0.12989012  0.80946284  1
  H  H142  1  0.29433328  0.62989012  0.69053716  1
  H  H143  1  0.79433328  0.87010988  0.19053716  1
  H  H144  1  0.87648324  0.20288662  0.32153293  1
  H  H145  1  0.37648324  0.29711338  0.82153293  1
  H  H146  1  0.12351676  0.79711338  0.67846707  1
  H  H147  1  0.62351676  0.70288662  0.17846707  1
  H  H148  1  0.85585706  0.27088107  0.24896670  1
  H  H149  1  0.35585706  0.22911893  0.74896670  1
  H  H150  1  0.14414294  0.72911893  0.75103330  1
  H  H151  1  0.64414294  0.77088107  0.25103330  1
  H  H152  1  0.82673836  0.17284833  0.22745950  1
  H  H153  1  0.32673836  0.32715167  0.72745950  1
  H  H154  1  0.17326164  0.82715167  0.77254050  1
  H  H155  1  0.67326164  0.67284833  0.27254050  1
  H  H156  1  0.67399011  0.09323220  0.29957816  1
  H  H157  1  0.17399011  0.40676780  0.79957816  1
  H  H158  1  0.32600989  0.90676780  0.70042184  1
  H  H159  1  0.82600989  0.59323220  0.20042184  1
  H  H160  1  0.56271150  0.14047702  0.31750956  1
  H  H161  1  0.06271150  0.35952298  0.81750956  1
  H  H162  1  0.43728850  0.85952298  0.68249044  1
  H  H163  1  0.93728850  0.64047702  0.18249044  1
  H  H164  1  0.69158406  0.14754028  0.38245785  1
  H  H165  1  0.19158406  0.35245972  0.88245785  1
  H  H166  1  0.30841594  0.85245972  0.61754215  1
  H  H167  1  0.80841594  0.64754028  0.11754215  1
  C  C0  1  0.34006435  0.34679249  0.20280946  1
  C  C1  1  0.84006435  0.15320751  0.70280946  1
  C  C2  1  0.65993565  0.65320751  0.79719054  1
  C  C3  1  0.15993565  0.84679249  0.29719054  1
  C  C4  1  0.29362871  0.26897839  0.05182943  1
  C  C5  1  0.79362871  0.23102161  0.55182943  1
  C  C6  1  0.70637129  0.73102161  0.94817057  1
  C  C7  1  0.20637129  0.76897839  0.44817057  1
  C  C8  1  0.04679736  0.21896600  0.13645335  1
  C  C9  1  0.54679736  0.28103400  0.63645335  1
  C  C10  1  0.95320264  0.78103400  0.86354665  1
  C  C11  1  0.45320264  0.71896600  0.36354665  1
  C  C12  1  0.09833267  0.09778990  0.03498378  1
  C  C13  1  0.59833267  0.40221010  0.53498378  1
  C  C14  1  0.90166733  0.90221010  0.96501622  1
  C  C15  1  0.40166733  0.59778990  0.46501622  1
  C  C16  1  0.05217792  0.05001680  0.18065183  1
  C  C17  1  0.55217792  0.44998320  0.68065183  1
  C  C18  1  0.94782208  0.94998320  0.81934817  1
  C  C19  1  0.44782208  0.55001680  0.31934817  1
  C  C20  1  0.33683638  0.05719466  0.37415350  1
  C  C21  1  0.83683638  0.44280534  0.87415350  1
  C  C22  1  0.66316362  0.94280534  0.62584650  1
  C  C23  1  0.16316362  0.55719466  0.12584650  1
  C  C24  1  0.17864151  0.19231409  0.34286542  1
  C  C25  1  0.67864151  0.30768591  0.84286542  1
  C  C26  1  0.82135849  0.80768591  0.65713458  1
  C  C27  1  0.32135849  0.69231409  0.15713458  1
  C  C28  1  0.41577516  0.22219721  0.39209130  1
  C  C29  1  0.91577516  0.27780279  0.89209130  1
  C  C30  1  0.58422484  0.77780279  0.60790870  1
  C  C31  1  0.08422484  0.72219721  0.10790870  1
  C  C32  1  0.51477105  0.38151167  0.00287349  1
  C  C33  1  0.01477105  0.11848833  0.50287349  1
  C  C34  1  0.48522895  0.61848833  0.99712651  1
  C  C35  1  0.98522895  0.88151167  0.49712651  1
  C  C36  1  0.62300002  0.45178609  0.15484168  1
  C  C37  1  0.12300002  0.04821391  0.65484168  1
  C  C38  1  0.37699998  0.54821391  0.84515832  1
  C  C39  1  0.87699998  0.95178609  0.34515832  1
  C  C40  1  0.74632482  0.34185419  0.08017651  1
  C  C41  1  0.24632482  0.15814581  0.58017651  1
  C  C42  1  0.25367518  0.65814581  0.91982349  1
  C  C43  1  0.75367518  0.84185419  0.41982349  1
  C  C44  1  0.68027794  0.31906565  0.33378818  1
  C  C45  1  0.18027794  0.18093435  0.83378818  1
  C  C46  1  0.31972206  0.68093435  0.66621182  1
  C  C47  1  0.81972206  0.81906565  0.16621182  1
  C  C48  1  0.82377705  0.21863684  0.26680709  1
  C  C49  1  0.32377705  0.28136316  0.76680709  1
  C  C50  1  0.17622295  0.78136316  0.73319291  1
  C  C51  1  0.67622295  0.71863684  0.23319291  1
  C  C52  1  0.64900171  0.14499894  0.32292249  1
  C  C53  1  0.14900171  0.35500106  0.82292249  1
  C  C54  1  0.35099829  0.85500106  0.67707751  1
  C  C55  1  0.85099829  0.64499894  0.17707751  1
  Cl  Cl0  1  0.39742813  0.04091066  0.02863271  1
  Cl  Cl1  1  0.89742813  0.45908934  0.52863271  1
  Cl  Cl2  1  0.60257187  0.95908934  0.97136729  1
  Cl  Cl3  1  0.10257187  0.54091066  0.47136729  1
  Cl  Cl4  1  0.39052998  0.98501815  0.84254795  1
  Cl  Cl5  1  0.89052998  0.51498185  0.34254795  1
  Cl  Cl6  1  0.60947002  0.01498185  0.15745205  1
  Cl  Cl7  1  0.10947002  0.48501815  0.65745205  1
  Cl  Cl8  1  0.23907749  0.89177852  0.93269748  1
  Cl  Cl9  1  0.73907749  0.60822148  0.43269748  1
  Cl  Cl10  1  0.76092251  0.10822148  0.06730252  1
  Cl  Cl11  1  0.26092251  0.39177852  0.56730252  1
  Cl  Cl12  1  0.47211294  0.85838715  0.07044575  1
  Cl  Cl13  1  0.97211294  0.64161285  0.57044575  1
  Cl  Cl14  1  0.52788706  0.14161285  0.92955425  1
  Cl  Cl15  1  0.02788706  0.35838715  0.42955425  1
  Cl  Cl16  1  0.25963816  0.92892211  0.12603967  1
  Cl  Cl17  1  0.75963816  0.57107789  0.62603967  1
  Cl  Cl18  1  0.74036184  0.07107789  0.87396033  1
  Cl  Cl19  1  0.24036184  0.42892211  0.37396033  1
  Cl  Cl20  1  0.49327923  0.92083352  0.26172293  1
  Cl  Cl21  1  0.99327923  0.57916648  0.76172293  1
  Cl  Cl22  1  0.50672077  0.07916648  0.73827707  1
  Cl  Cl23  1  0.00672077  0.42083352  0.23827707  1
  O  O0  1  0.43898859  0.81782181  0.90132521  1
  O  O1  1  0.93898859  0.68217819  0.40132521  1
  O  O2  1  0.56101141  0.18217819  0.09867479  1
  O  O3  1  0.06101141  0.31782181  0.59867479  1
  O  O4  1  0.37955372  0.07412902  0.19103786  1
  O  O5  1  0.87955372  0.42587098  0.69103786  1
  O  O6  1  0.62044628  0.92587098  0.80896214  1
  O  O7  1  0.12044628  0.57412902  0.30896214  1
loop_
_geom_bond_atom_site_label_1
_geom_bond_atom_site_label_2
_geom_bond_distance
_geom_bond_site_symmetry_2
C0 H8 1.099128 1_555
C0 H4 1.099189 1_555
C0 H0 1.099320 1_555
C0 Si8 1.892316 1_555
C1 H9 1.099128 1_555
C1 H5 1.099189 1_555
C1 H1 1.099320 1_555
C1 Si9 1.892316 1_555
C2 H10 1.099128 1_555
C2 H6 1.099189 1_555
C2 H2 1.099320 1_555
C2 Si10 1.892316 1_555
C3 H11 1.099128 1_555
C3 H7 1.099189 1_555
C3 H3 1.099320 1_555
C3 Si11 1.892316 1_555
C4 H20 1.098669 1_555
C4 H16 1.099066 1_555
C4 H12 1.099294 1_555
C4 Si8 1.898061 1_555
C5 H21 1.098669 1_555
C5 H17 1.099066 1_555
C5 H13 1.099294 1_555
C5 Si9 1.898061 1_555
C6 H22 1.098669 1_555
C6 H18 1.099066 1_555
C6 H14 1.099294 1_555
C6 Si10 1.898061 1_555
C7 H23 1.098669 1_555
C7 H19 1.099066 1_555
C7 H15 1.099294 1_555
C7 Si11 1.898061 1_555
C8 H24 1.098525 1_555
C8 H32 1.099258 1_455
C8 H28 1.099547 1_555
C8 Si12 1.886648 1_555
C9 H25 1.098525 1_555
C9 H33 1.099258 1_555
C9 H29 1.099547 1_555
C9 Si13 1.886648 1_555
C10 H26 1.098525 1_555
C10 H34 1.099258 1_655
C10 H30 1.099547 1_555
C10 Si14 1.886648 1_555
C11 H27 1.098525 1_555
C11 H35 1.099258 1_555
C11 H31 1.099547 1_555
C11 Si15 1.886648 1_555
C12 H40 1.098190 1_555
C12 H44 1.098592 1_555
C12 H36 1.101156 1_555
C12 Si12 1.883371 1_555
C13 H41 1.098190 1_555
C13 H45 1.098592 1_555
C13 H37 1.101156 1_555
C13 Si13 1.883371 1_555
C14 H42 1.098190 1_555
C14 H46 1.098592 1_555
C14 H38 1.101156 1_555
C14 Si14 1.883371 1_555
C15 H43 1.098190 1_555
C15 H47 1.098592 1_555
C15 H39 1.101156 1_555
C15 Si15 1.883371 1_555
C16 H56 1.097481 1_555
C16 H52 1.099905 1_555
C16 H48 1.100588 1_455
C16 Si12 1.891523 1_555
C17 H57 1.097481 1_555
C17 H53 1.099905 1_555
C17 H49 1.100588 1_555
C17 Si13 1.891523 1_555
C18 H58 1.097481 1_555
C18 H54 1.099905 1_555
C18 H50 1.100588 1_655
C18 Si14 1.891523 1_555
C19 H59 1.097481 1_555
C19 H55 1.099905 1_555
C19 H51 1.100588 1_555
C19 Si15 1.891523 1_555
C20 H60 1.098994 1_555
C20 H64 1.099674 1_555
C20 H68 1.101405 1_555
C20 Si16 1.886948 1_555
C21 H61 1.098994 1_555
C21 H65 1.099674 1_555
C21 H69 1.101405 1_555
C21 Si17 1.886948 1_555
C22 H62 1.098994 1_555
C22 H66 1.099674 1_555
C22 H70 1.101405 1_555
C22 Si18 1.886948 1_555
C23 H63 1.098994 1_555
C23 H67 1.099674 1_555
C23 H71 1.101405 1_555
C23 Si19 1.886948 1_555
C24 H72 1.098948 1_555
C24 H80 1.098980 1_555
C24 H76 1.099091 1_555
C24 Si16 1.882325 1_555
C25 H73 1.098948 1_555
C25 H81 1.098980 1_555
C25 H77 1.099091 1_555
C25 Si17 1.882325 1_555
C26 H74 1.098948 1_555
C26 H82 1.098980 1_555
C26 H78 1.099091 1_555
C26 Si18 1.882325 1_555
C27 H75 1.098948 1_555
C27 H83 1.098980 1_555
C27 H79 1.099091 1_555
C27 Si19 1.882325 1_555
C28 H92 1.098016 1_555
C28 H88 1.099204 1_555
C28 H84 1.100226 1_555
C28 Si16 1.885285 1_555
C29 H93 1.098016 1_555
C29 H89 1.099204 1_555
C29 H85 1.100226 1_555
C29 Si17 1.885285 1_555
C30 H94 1.098016 1_555
C30 H90 1.099204 1_555
C30 H86 1.100226 1_555
C30 Si18 1.885285 1_555
C31 H95 1.098016 1_555
C31 H91 1.099204 1_555
C31 H87 1.100226 1_555
C31 Si19 1.885285 1_555
C32 H100 1.099202 1_554
C32 H104 1.099958 1_554
C32 H96 1.100052 1_555
C32 Si20 1.885525 1_555
C33 H101 1.099202 1_455
C33 H105 1.099958 1_555
C33 H97 1.100052 1_455
C33 Si21 1.885525 1_555
C34 H102 1.099202 1_556
C34 H106 1.099958 1_556
C34 H98 1.100052 1_555
C34 Si22 1.885525 1_555
C35 H103 1.099202 1_655
C35 H107 1.099958 1_555
C35 H99 1.100052 1_655
C35 Si23 1.885525 1_555
C36 H116 1.098839 1_555
C36 H112 1.099913 1_555
C36 H108 1.100525 1_555
C36 Si20 1.883549 1_555
C37 H117 1.098839 1_555
C37 H113 1.099913 1_555
C37 H109 1.100525 1_545
C37 Si21 1.883549 1_555
C38 H118 1.098839 1_555
C38 H114 1.099913 1_555
C38 H110 1.100525 1_555
C38 Si22 1.883549 1_555
C39 H119 1.098839 1_555
C39 H115 1.099913 1_555
C39 H111 1.100525 1_565
C39 Si23 1.883549 1_555
C40 H124 1.097975 1_555
C40 H128 1.099964 1_555
C40 H120 1.101020 1_555
C40 Si20 1.883652 1_555
C41 H125 1.097975 1_555
C41 H129 1.099964 1_555
C41 H121 1.101020 1_555
C41 Si21 1.883652 1_555
C42 H126 1.097975 1_555
C42 H130 1.099964 1_555
C42 H122 1.101020 1_555
C42 Si22 1.883652 1_555
C43 H127 1.097975 1_555
C43 H131 1.099964 1_555
C43 H123 1.101020 1_555
C43 Si23 1.883652 1_555
C44 H140 1.098119 1_555
C44 H132 1.099647 1_555
C44 H136 1.099680 1_555
C44 Si24 1.884090 1_555
C45 H141 1.098119 1_555
C45 H133 1.099647 1_555
C45 H137 1.099680 1_555
C45 Si25 1.884090 1_555
C46 H142 1.098119 1_555
C46 H134 1.099647 1_555
C46 H138 1.099680 1_555
C46 Si26 1.884090 1_555
C47 H143 1.098119 1_555
C47 H135 1.099647 1_555
C47 H139 1.099680 1_555
C47 Si27 1.884090 1_555
C48 H148 1.098688 1_555
C48 H152 1.099953 1_555
C48 H144 1.100436 1_555
C48 Si24 1.881690 1_555
C49 H149 1.098688 1_555
C49 H153 1.099953 1_555
C49 H145 1.100436 1_555
C49 Si25 1.881690 1_555
C50 H150 1.098688 1_555
C50 H154 1.099953 1_555
C50 H146 1.100436 1_555
C50 Si26 1.881690 1_555
C51 H151 1.098688 1_555
C51 H155 1.099953 1_555
C51 H147 1.100436 1_555
C51 Si27 1.881690 1_555
C52 H156 1.097539 1_555
C52 H160 1.098190 1_555
C52 H164 1.101253 1_555
C52 Si24 1.884923 1_555
C53 H157 1.097539 1_555
C53 H161 1.098190 1_555
C53 H165 1.101253 1_555
C53 Si25 1.884923 1_555
C54 H158 1.097539 1_555
C54 H162 1.098190 1_555
C54 H166 1.101253 1_555
C54 Si26 1.884923 1_555
C55 H159 1.097539 1_555
C55 H163 1.098190 1_555
C55 H167 1.101253 1_555
C55 Si27 1.884923 1_555
Cl0 Ti4 2.544340 1_545
Cl0 Ti2 2.565965 1_555
Cl0 Ti0 2.963275 1_544
Cl1 Ti5 2.544340 1_555
Cl1 Ti3 2.565965 1_655
Cl1 Ti1 2.963275 1_555
Cl2 Ti6 2.544340 1_565
Cl2 Ti0 2.565965 1_555
Cl2 Ti2 2.963275 1_566
Cl3 Ti7 2.544340 1_555
Cl3 Ti1 2.565965 1_455
Cl3 Ti3 2.963275 1_555
Cl4 Ti0 2.447980 1_555
Cl4 Ti6 2.523569 1_565
Cl5 Ti1 2.447980 1_555
Cl5 Ti7 2.523569 1_655
Cl6 Ti2 2.447980 1_555
Cl6 Ti4 2.523569 1_545
Cl7 Ti3 2.447980 1_555
Cl7 Ti5 2.523569 1_455
Cl8 Ti0 2.237224 1_555
Cl9 Ti1 2.237224 1_555
Cl10 Ti2 2.237224 1_555
Cl11 Ti3 2.237224 1_555
Cl12 Ti0 2.310579 1_554
Cl12 Ti4 3.011861 1_555
Cl13 Ti1 2.310579 1_555
Cl13 Ti5 3.011861 1_555
Cl14 Ti2 2.310579 1_556
Cl14 Ti6 3.011861 1_555
Cl15 Ti3 2.310579 1_555
Cl15 Ti7 3.011861 1_555
Cl16 Ti4 2.242876 1_555
Cl17 Ti5 2.242876 1_555
Cl18 Ti6 2.242876 1_555
Cl19 Ti7 2.242876 1_555
Cl20 Ti4 2.251428 1_555
Cl21 Ti5 2.251428 1_555
Cl22 Ti6 2.251428 1_555
Cl23 Ti7 2.251428 1_555
O0 Si2 1.725403 1_555
O0 Ti0 1.743539 1_555
O1 Si3 1.725403 1_555
O1 Ti1 1.743539 1_555
O2 Si0 1.725403 1_555
O2 Ti2 1.743539 1_555
O3 Si1 1.725403 1_555
O3 Ti3 1.743539 1_555
O4 Si4 1.727322 1_555
O4 Ti4 1.752884 1_545
O5 Si5 1.727322 1_555
O5 Ti5 1.752884 1_555
O6 Si6 1.727322 1_555
O6 Ti6 1.752884 1_565
O7 Si7 1.727322 1_555
O7 Ti7 1.752884 1_555
