# generated using pymatgen
data_CeOsRu
_symmetry_space_group_name_H-M   'P 1'
_cell_length_a   5.41260024
_cell_length_b   5.41260024
_cell_length_c   5.41260024
_cell_angle_alpha   124.50256598
_cell_angle_beta   118.87922289
_cell_angle_gamma   87.16797552
_symmetry_Int_Tables_number   1
_chemical_formula_structural   CeOsRu
_chemical_formula_sum   'Ce2 Os2 Ru2'
_cell_volume   108.76473214
_cell_formula_units_Z   2
loop_
 _symmetry_equiv_pos_site_id
 _symmetry_equiv_pos_as_xyz
  1  'x, y, z'
loop_
 _atom_site_type_symbol
 _atom_site_label
 _atom_site_symmetry_multiplicity
 _atom_site_fract_x
 _atom_site_fract_y
 _atom_site_fract_z
 _atom_site_occupancy
  Ce  Ce0  1  0.12622599  0.87622599  0.25000000  1
  Ce  Ce1  1  0.87377401  0.12377401  0.75000000  1
  Os  Os0  1  0.50000000  0.50000000  0.50000000  1
  Os  Os1  1  0.50000000  0.00000000  0.00000000  1
  Ru  Ru0  1  0.50000000  0.50000000  0.00000000  1
  Ru  Ru1  1  0.00000000  0.50000000  0.50000000  1
loop_
_geom_bond_atom_site_label_1
_geom_bond_atom_site_label_2
_geom_bond_distance
_geom_bond_site_symmetry_2
Ce0 Ru0 3.030871 1_566
Ce0 Ru1 3.030871 1_554
Ce0 Ru1 3.030871 1_565
Ce0 Ru0 3.030871 1_555
Ce0 Os0 3.184489 1_555
Ce0 Os1 3.184489 1_465
Ce0 Os1 3.184489 1_566
Ce0 Os0 3.184489 1_454
Ce0 Os0 3.190286 1_565
Ce0 Os1 3.190286 1_565
Ce0 Ru1 3.255257 1_555
Ce0 Ru0 3.255257 1_455
Ce1 Ru0 3.030871 1_545
Ce1 Ru1 3.030871 1_656
Ce1 Ru1 3.030871 1_645
Ce1 Ru0 3.030871 1_556
Ce1 Os0 3.184489 1_555
Ce1 Os1 3.184489 1_555
Ce1 Os0 3.184489 1_656
Ce1 Os1 3.184489 1_656
Ce1 Os0 3.190286 1_545
Ce1 Os1 3.190286 1_556
Ce1 Ru1 3.255257 1_655
Ce1 Ru0 3.255257 1_656
Os0 Os1 2.520078 1_555
Os0 Os1 2.520078 1_566
Os0 Ru0 2.706300 1_556
Os0 Ru1 2.706300 1_555
Os0 Ru0 2.706300 1_555
Os0 Ru1 2.706300 1_655
Os1 Ru0 2.706300 1_545
Os1 Ru0 2.706300 1_555
Os1 Ru1 2.706300 1_544
Os1 Ru1 2.706300 1_655
Ru0 Ru1 2.752016 1_554
Ru0 Ru1 2.752016 1_655
