# generated using pymatgen
data_Ba2NdNbO6
_symmetry_space_group_name_H-M   'P 1'
_cell_length_a   8.68706644
_cell_length_b   8.68706644
_cell_length_c   8.68706644
_cell_angle_alpha   90.00000000
_cell_angle_beta   90.00000000
_cell_angle_gamma   90.00000000
_symmetry_Int_Tables_number   1
_chemical_formula_structural   Ba2NdNbO6
_chemical_formula_sum   'Ba8 Nd4 Nb4 O24'
_cell_volume   655.57054030
_cell_formula_units_Z   4
loop_
 _symmetry_equiv_pos_site_id
 _symmetry_equiv_pos_as_xyz
  1  'x, y, z'
loop_
 _atom_site_type_symbol
 _atom_site_label
 _atom_site_symmetry_multiplicity
 _atom_site_fract_x
 _atom_site_fract_y
 _atom_site_fract_z
 _atom_site_occupancy
  Ba  Ba0  1  0.50000000  0.50000000  0.50000000  1
  Ba  Ba1  1  -0.00000000  -0.00000000  -0.00000000  1
  Ba  Ba2  1  -0.00000000  -0.00000000  0.50000000  1
  Ba  Ba3  1  -0.00000000  0.50000000  -0.00000000  1
  Ba  Ba4  1  0.50000000  -0.00000000  -0.00000000  1
  Ba  Ba5  1  0.50000000  0.50000000  -0.00000000  1
  Ba  Ba6  1  0.50000000  -0.00000000  0.50000000  1
  Ba  Ba7  1  -0.00000000  0.50000000  0.50000000  1
  Nd  Nd0  1  0.25000000  0.25000000  0.25000000  1
  Nd  Nd1  1  0.25000000  0.75000000  0.75000000  1
  Nd  Nd2  1  0.75000000  0.25000000  0.75000000  1
  Nd  Nd3  1  0.75000000  0.75000000  0.25000000  1
  Nb  Nb0  1  0.75000000  0.75000000  0.75000000  1
  Nb  Nb1  1  0.75000000  0.25000000  0.25000000  1
  Nb  Nb2  1  0.25000000  0.75000000  0.25000000  1
  Nb  Nb3  1  0.25000000  0.25000000  0.75000000  1
  O  O0  1  0.22747703  0.27512405  0.51903585  1
  O  O1  1  0.22747703  0.72487595  0.48096415  1
  O  O2  1  0.77252297  0.27512405  0.48096415  1
  O  O3  1  0.77252297  0.72487595  0.51903585  1
  O  O4  1  0.27512405  0.51903585  0.22747703  1
  O  O5  1  0.72487595  0.48096415  0.22747703  1
  O  O6  1  0.27512405  0.48096415  0.77252297  1
  O  O7  1  0.72487595  0.51903585  0.77252297  1
  O  O8  1  0.51903585  0.22747703  0.27512405  1
  O  O9  1  0.48096415  0.22747703  0.72487595  1
  O  O10  1  0.48096415  0.77252297  0.27512405  1
  O  O11  1  0.51903585  0.77252297  0.72487595  1
  O  O12  1  0.27252297  0.22487595  0.98096415  1
  O  O13  1  0.27252297  0.77512405  0.01903585  1
  O  O14  1  0.72747703  0.22487595  0.01903585  1
  O  O15  1  0.72747703  0.77512405  0.98096415  1
  O  O16  1  0.22487595  0.98096415  0.27252297  1
  O  O17  1  0.77512405  0.01903585  0.27252297  1
  O  O18  1  0.22487595  0.01903585  0.72747703  1
  O  O19  1  0.77512405  0.98096415  0.72747703  1
  O  O20  1  0.98096415  0.27252297  0.22487595  1
  O  O21  1  0.01903585  0.27252297  0.77512405  1
  O  O22  1  0.01903585  0.72747703  0.22487595  1
  O  O23  1  0.98096415  0.72747703  0.77512405  1
loop_
_geom_bond_atom_site_label_1
_geom_bond_atom_site_label_2
_geom_bond_distance
_geom_bond_site_symmetry_2
Ba0 O10 3.073802 1_555
Ba0 O0 3.073802 1_555
Ba0 O2 3.073802 1_555
Ba0 O4 3.073802 1_555
Ba0 O6 3.073802 1_555
Ba0 O8 3.073802 1_555
Ba0 O1 3.073802 1_555
Ba0 O3 3.073802 1_555
Ba0 O5 3.073802 1_555
Ba0 O7 3.073802 1_555
Ba0 O9 3.073802 1_555
Ba0 O11 3.073802 1_555
Ba1 O21 3.073802 1_554
Ba1 O23 3.073802 1_444
Ba1 O13 3.073802 1_545
Ba1 O15 3.073802 1_444
Ba1 O19 3.073802 1_444
Ba1 O17 3.073802 1_455
Ba1 O20 3.073802 1_455
Ba1 O14 3.073802 1_455
Ba1 O22 3.073802 1_545
Ba1 O16 3.073802 1_545
Ba1 O18 3.073802 1_554
Ba1 O12 3.073802 1_554
Ba2 O17 2.783623 1_455
Ba2 O19 2.783623 1_445
Ba2 O16 2.783623 1_545
Ba2 O18 2.783623 1_555
Ba2 O1 3.105567 1_545
Ba2 O2 3.105567 1_455
Ba2 O3 3.105567 1_445
Ba2 O0 3.105567 1_555
Ba2 O22 3.368122 1_545
Ba2 O20 3.368122 1_455
Ba2 O23 3.368122 1_445
Ba2 O21 3.368122 1_555
Ba3 O21 2.783623 1_554
Ba3 O23 2.783623 1_454
Ba3 O20 2.783623 1_455
Ba3 O22 2.783623 1_555
Ba3 O6 3.105567 1_554
Ba3 O5 3.105567 1_455
Ba3 O7 3.105567 1_454
Ba3 O4 3.105567 1_555
Ba3 O12 3.368122 1_554
Ba3 O14 3.368122 1_455
Ba3 O13 3.368122 1_555
Ba3 O15 3.368122 1_454
Ba4 O13 2.783623 1_545
Ba4 O15 2.783623 1_544
Ba4 O12 2.783623 1_554
Ba4 O14 2.783623 1_555
Ba4 O10 3.105567 1_545
Ba4 O9 3.105567 1_554
Ba4 O11 3.105567 1_544
Ba4 O8 3.105567 1_555
Ba4 O16 3.368122 1_545
Ba4 O18 3.368122 1_554
Ba4 O17 3.368122 1_555
Ba4 O19 3.368122 1_544
Ba5 O6 2.783623 1_554
Ba5 O4 2.783623 1_555
Ba5 O7 2.783623 1_554
Ba5 O5 2.783623 1_555
Ba5 O12 3.105567 1_554
Ba5 O14 3.105567 1_555
Ba5 O15 3.105567 1_554
Ba5 O13 3.105567 1_555
Ba5 O9 3.368122 1_554
Ba5 O8 3.368122 1_555
Ba5 O11 3.368122 1_554
Ba5 O10 3.368122 1_555
Ba6 O11 2.783623 1_545
Ba6 O8 2.783623 1_555
Ba6 O10 2.783623 1_545
Ba6 O9 2.783623 1_555
Ba6 O18 3.105567 1_555
Ba6 O16 3.105567 1_545
Ba6 O19 3.105567 1_545
Ba6 O17 3.105567 1_555
Ba6 O3 3.368122 1_545
Ba6 O2 3.368122 1_555
Ba6 O1 3.368122 1_545
Ba6 O0 3.368122 1_555
Ba7 O2 2.783623 1_455
Ba7 O3 2.783623 1_455
Ba7 O0 2.783623 1_555
Ba7 O1 2.783623 1_555
Ba7 O22 3.105567 1_555
Ba7 O20 3.105567 1_455
Ba7 O21 3.105567 1_555
Ba7 O23 3.105567 1_455
Ba7 O7 3.368122 1_455
Ba7 O5 3.368122 1_455
Ba7 O4 3.368122 1_555
Ba7 O6 3.368122 1_555
Nd0 O20 2.355441 1_455
Nd0 O8 2.355441 1_555
Nd0 O12 2.355441 1_554
Nd0 O0 2.355441 1_555
Nd0 O16 2.355441 1_545
Nd0 O4 2.355441 1_555
Nd1 O11 2.355441 1_555
Nd1 O1 2.355441 1_555
Nd1 O6 2.355441 1_555
Nd1 O23 2.355441 1_455
Nd1 O18 2.355441 1_565
Nd1 O13 2.355441 1_556
Nd2 O7 2.355441 1_555
Nd2 O9 2.355441 1_555
Nd2 O19 2.355441 1_545
Nd2 O2 2.355441 1_555
Nd2 O14 2.355441 1_556
Nd2 O21 2.355441 1_655
Nd3 O10 2.355441 1_555
Nd3 O5 2.355441 1_555
Nd3 O15 2.355441 1_554
Nd3 O3 2.355441 1_555
Nd3 O22 2.355441 1_655
Nd3 O17 2.355441 1_565
Nb0 O19 2.027699 1_555
Nb0 O3 2.027699 1_555
Nb0 O11 2.027699 1_555
Nb0 O23 2.027699 1_555
Nb0 O15 2.027699 1_555
Nb0 O7 2.027699 1_555
Nb1 O14 2.027699 1_555
Nb1 O17 2.027699 1_555
Nb1 O2 2.027699 1_555
Nb1 O20 2.027699 1_555
Nb1 O8 2.027699 1_555
Nb1 O5 2.027699 1_555
Nb2 O22 2.027699 1_555
Nb2 O13 2.027699 1_555
Nb2 O10 2.027699 1_555
Nb2 O4 2.027699 1_555
Nb2 O1 2.027699 1_555
Nb2 O16 2.027699 1_555
Nb3 O21 2.027699 1_555
Nb3 O18 2.027699 1_555
Nb3 O12 2.027699 1_555
Nb3 O0 2.027699 1_555
Nb3 O6 2.027699 1_555
Nb3 O9 2.027699 1_555
