# generated using pymatgen
data_Cu4Se3O10
_symmetry_space_group_name_H-M   'P 1'
_cell_length_a   13.68280600
_cell_length_b   16.21499971
_cell_length_c   18.01873061
_cell_angle_alpha   90.87956012
_cell_angle_beta   90.00000000
_cell_angle_gamma   90.00000000
_symmetry_Int_Tables_number   1
_chemical_formula_structural   Cu4Se3O10
_chemical_formula_sum   'Cu64 Se48 O160'
_cell_volume   3997.28516740
_cell_formula_units_Z   16
loop_
 _symmetry_equiv_pos_site_id
 _symmetry_equiv_pos_as_xyz
  1  'x, y, z'
loop_
 _atom_site_type_symbol
 _atom_site_label
 _atom_site_symmetry_multiplicity
 _atom_site_fract_x
 _atom_site_fract_y
 _atom_site_fract_z
 _atom_site_occupancy
  Cu  Cu0  1  0.70623400  0.25369900  0.87510000  1
  Cu  Cu1  1  0.20623400  0.24630100  0.12490000  1
  Cu  Cu2  1  0.29376600  0.74630100  0.12490000  1
  Cu  Cu3  1  0.79376600  0.75369900  0.87510000  1
  Cu  Cu4  1  0.91572700  0.25660000  0.87134500  1
  Cu  Cu5  1  0.41572700  0.24340000  0.12865500  1
  Cu  Cu6  1  0.08427300  0.74340000  0.12865500  1
  Cu  Cu7  1  0.58427300  0.75660000  0.87134500  1
  Cu  Cu8  1  0.14208600  0.25364400  0.88552000  1
  Cu  Cu9  1  0.64208600  0.24635600  0.11448000  1
  Cu  Cu10  1  0.85791400  0.74635600  0.11448000  1
  Cu  Cu11  1  0.35791400  0.75364400  0.88552000  1
  Cu  Cu12  1  0.47970500  0.25922300  0.86555100  1
  Cu  Cu13  1  0.97970500  0.24077700  0.13444900  1
  Cu  Cu14  1  0.52029500  0.74077700  0.13444900  1
  Cu  Cu15  1  0.02029500  0.75922300  0.86555100  1
  Cu  Cu16  1  0.66041000  0.25981000  0.62491300  1
  Cu  Cu17  1  0.16041000  0.24019000  0.37508700  1
  Cu  Cu18  1  0.33959000  0.74019000  0.37508700  1
  Cu  Cu19  1  0.83959000  0.75981000  0.62491300  1
  Cu  Cu20  1  0.00041100  0.26229600  0.61230200  1
  Cu  Cu21  1  0.50041100  0.23770400  0.38769800  1
  Cu  Cu22  1  0.99958900  0.73770400  0.38769800  1
  Cu  Cu23  1  0.49958900  0.76229600  0.61230200  1
  Cu  Cu24  1  0.23053500  0.25159500  0.62847100  1
  Cu  Cu25  1  0.73053500  0.24840500  0.37152900  1
  Cu  Cu26  1  0.76946500  0.74840500  0.37152900  1
  Cu  Cu27  1  0.26946500  0.75159500  0.62847100  1
  Cu  Cu28  1  0.43737300  0.25531500  0.62168900  1
  Cu  Cu29  1  0.93737300  0.24468500  0.37831100  1
  Cu  Cu30  1  0.56262700  0.74468500  0.37831100  1
  Cu  Cu31  1  0.06262700  0.75531500  0.62168900  1
  Cu  Cu32  1  0.82128800  0.43372100  0.88676100  1
  Cu  Cu33  1  0.32128800  0.06627900  0.11323900  1
  Cu  Cu34  1  0.17871200  0.56627900  0.11323900  1
  Cu  Cu35  1  0.67871200  0.93372100  0.88676100  1
  Cu  Cu36  1  0.34184000  0.34593500  0.77190400  1
  Cu  Cu37  1  0.84184000  0.15406500  0.22809600  1
  Cu  Cu38  1  0.65816000  0.65406500  0.22809600  1
  Cu  Cu39  1  0.15816000  0.84593500  0.77190400  1
  Cu  Cu40  1  0.32967300  0.42999900  0.61618500  1
  Cu  Cu41  1  0.82967300  0.07000100  0.38381500  1
  Cu  Cu42  1  0.67032700  0.57000100  0.38381500  1
  Cu  Cu43  1  0.17032700  0.92999900  0.61618500  1
  Cu  Cu44  1  0.85524000  0.34807300  0.51504100  1
  Cu  Cu45  1  0.35524000  0.15192700  0.48495900  1
  Cu  Cu46  1  0.14476000  0.65192700  0.48495900  1
  Cu  Cu47  1  0.64476000  0.84807300  0.51504100  1
  Cu  Cu48  1  0.82939000  0.42686100  0.36199500  1
  Cu  Cu49  1  0.32939000  0.07313900  0.63800500  1
  Cu  Cu50  1  0.17061000  0.57313900  0.63800500  1
  Cu  Cu51  1  0.67061000  0.92686100  0.36199500  1
  Cu  Cu52  1  0.29962000  0.32246500  0.27706500  1
  Cu  Cu53  1  0.79962000  0.17753500  0.72293500  1
  Cu  Cu54  1  0.70038000  0.67753500  0.72293500  1
  Cu  Cu55  1  0.20038000  0.82246500  0.27706500  1
  Cu  Cu56  1  0.32879200  0.42490100  0.14499400  1
  Cu  Cu57  1  0.82879200  0.07509900  0.85500600  1
  Cu  Cu58  1  0.67120800  0.57509900  0.85500600  1
  Cu  Cu59  1  0.17120800  0.92490100  0.14499400  1
  Cu  Cu60  1  0.78769400  0.33393400  0.02256700  1
  Cu  Cu61  1  0.28769400  0.16606600  0.97743300  1
  Cu  Cu62  1  0.21230600  0.66606600  0.97743300  1
  Cu  Cu63  1  0.71230600  0.83393400  0.02256700  1
  Se  Se0  1  0.59446700  0.41859100  0.94273100  1
  Se  Se1  1  0.09446700  0.08140900  0.05726900  1
  Se  Se2  1  0.40553300  0.58140900  0.05726900  1
  Se  Se3  1  0.90553300  0.91859100  0.94273100  1
  Se  Se4  1  0.01271000  0.38781300  0.99050500  1
  Se  Se5  1  0.51271000  0.11218700  0.00949500  1
  Se  Se6  1  0.98729000  0.61218700  0.00949500  1
  Se  Se7  1  0.48729000  0.88781300  0.99050500  1
  Se  Se8  1  0.29707200  0.38142700  0.95337900  1
  Se  Se9  1  0.79707200  0.11857300  0.04662100  1
  Se  Se10  1  0.70292800  0.61857300  0.04662100  1
  Se  Se11  1  0.20292800  0.88142700  0.95337900  1
  Se  Se12  1  0.54073000  0.41917800  0.69922300  1
  Se  Se13  1  0.04073000  0.08082200  0.30077700  1
  Se  Se14  1  0.45927000  0.58082200  0.30077700  1
  Se  Se15  1  0.95927000  0.91917800  0.69922300  1
  Se  Se16  1  0.81709300  0.38882200  0.69350300  1
  Se  Se17  1  0.31709300  0.11117800  0.30649700  1
  Se  Se18  1  0.18290700  0.61117800  0.30649700  1
  Se  Se19  1  0.68290700  0.88882200  0.69350300  1
  Se  Se20  1  0.12069600  0.39768800  0.72867600  1
  Se  Se21  1  0.62069600  0.10231200  0.27132400  1
  Se  Se22  1  0.87930400  0.60231200  0.27132400  1
  Se  Se23  1  0.37930400  0.89768800  0.72867600  1
  Se  Se24  1  0.62989800  0.39304000  0.47585500  1
  Se  Se25  1  0.12989800  0.10696000  0.52414500  1
  Se  Se26  1  0.37010200  0.60696000  0.52414500  1
  Se  Se27  1  0.87010200  0.89304000  0.47585500  1
  Se  Se28  1  0.04595300  0.41762200  0.42739200  1
  Se  Se29  1  0.54595300  0.08237800  0.57260800  1
  Se  Se30  1  0.95404700  0.58237800  0.57260800  1
  Se  Se31  1  0.45404700  0.91762200  0.42739200  1
  Se  Se32  1  0.34276800  0.36699500  0.45093900  1
  Se  Se33  1  0.84276800  0.13300500  0.54906100  1
  Se  Se34  1  0.65723200  0.63300500  0.54906100  1
  Se  Se35  1  0.15723200  0.86699500  0.45093900  1
  Se  Se36  1  0.52491400  0.37275700  0.24290500  1
  Se  Se37  1  0.02491400  0.12724300  0.75709500  1
  Se  Se38  1  0.47508600  0.62724300  0.75709500  1
  Se  Se39  1  0.97508600  0.87275700  0.24290500  1
  Se  Se40  1  0.81991200  0.37040200  0.19833000  1
  Se  Se41  1  0.31991200  0.12959800  0.80167000  1
  Se  Se42  1  0.18008800  0.62959800  0.80167000  1
  Se  Se43  1  0.68008800  0.87040200  0.19833000  1
  Se  Se44  1  0.10124200  0.40781300  0.20290600  1
  Se  Se45  1  0.60124200  0.09218700  0.79709400  1
  Se  Se46  1  0.89875800  0.59218700  0.79709400  1
  Se  Se47  1  0.39875800  0.90781300  0.20290600  1
  O  O0  1  0.80759200  0.32093700  0.91684900  1
  O  O1  1  0.30759200  0.17906300  0.08315100  1
  O  O2  1  0.19240800  0.67906300  0.08315100  1
  O  O3  1  0.69240800  0.82093700  0.91684900  1
  O  O4  1  0.33427200  0.32358700  0.66509800  1
  O  O5  1  0.83427200  0.17641300  0.33490200  1
  O  O6  1  0.66572800  0.67641300  0.33490200  1
  O  O7  1  0.16572800  0.82358700  0.66509800  1
  O  O8  1  0.83575800  0.32044100  0.41024000  1
  O  O9  1  0.33575800  0.17955900  0.58976000  1
  O  O10  1  0.16424200  0.67955900  0.58976000  1
  O  O11  1  0.66424200  0.82044100  0.41024000  1
  O  O12  1  0.31171800  0.31009000  0.17110500  1
  O  O13  1  0.81171800  0.18991000  0.82889500  1
  O  O14  1  0.68828200  0.68990900  0.82889500  1
  O  O15  1  0.18828200  0.81009100  0.17110500  1
  O  O16  1  0.67051300  0.41363700  0.01627000  1
  O  O17  1  0.17051300  0.08636300  0.98373000  1
  O  O18  1  0.32948700  0.58636300  0.98373000  1
  O  O19  1  0.82948700  0.91363700  0.01627000  1
  O  O20  1  0.59030400  0.31255300  0.91713700  1
  O  O21  1  0.09030400  0.18744700  0.08286300  1
  O  O22  1  0.40969600  0.68744700  0.08286300  1
  O  O23  1  0.90969600  0.81255300  0.91713700  1
  O  O24  1  0.67423700  0.45300400  0.87225400  1
  O  O25  1  0.17423700  0.04699600  0.12774600  1
  O  O26  1  0.32576300  0.54699600  0.12774600  1
  O  O27  1  0.82576300  0.95300400  0.87225400  1
  O  O28  1  0.02330400  0.30938900  0.92095100  1
  O  O29  1  0.52330400  0.19061100  0.07904900  1
  O  O30  1  0.97669600  0.69061100  0.07904900  1
  O  O31  1  0.47669600  0.80938900  0.92095100  1
  O  O32  1  0.94382100  0.45663000  0.94204300  1
  O  O33  1  0.44382100  0.04337000  0.05795700  1
  O  O34  1  0.05617900  0.54337000  0.05795700  1
  O  O35  1  0.55617900  0.95663000  0.94204300  1
  O  O36  1  0.92925800  0.34270800  0.05029700  1
  O  O37  1  0.42925800  0.15729200  0.94970300  1
  O  O38  1  0.07074200  0.65729200  0.94970300  1
  O  O39  1  0.57074200  0.84270800  0.05029700  1
  O  O40  1  0.22202600  0.29474600  0.97001800  1
  O  O41  1  0.72202600  0.20525400  0.02998200  1
  O  O42  1  0.77797400  0.70525400  0.02998200  1
  O  O43  1  0.27797400  0.79474600  0.97001800  1
  O  O44  1  0.37089700  0.38264200  0.02820900  1
  O  O45  1  0.87089700  0.11735800  0.97179100  1
  O  O46  1  0.62910300  0.61735800  0.97179100  1
  O  O47  1  0.12910300  0.88264200  0.02820900  1
  O  O48  1  0.37407800  0.34252400  0.88208600  1
  O  O49  1  0.87407800  0.15747600  0.11791400  1
  O  O50  1  0.62592200  0.65747600  0.11791400  1
  O  O51  1  0.12592200  0.84252400  0.88208600  1
  O  O52  1  0.45389400  0.47711600  0.65490300  1
  O  O53  1  0.95389400  0.02288400  0.34509700  1
  O  O54  1  0.54610600  0.52288400  0.34509700  1
  O  O55  1  0.04610600  0.97711600  0.65490300  1
  O  O56  1  0.54455800  0.33278900  0.63580700  1
  O  O57  1  0.04455800  0.16721100  0.36419300  1
  O  O58  1  0.45544200  0.66721100  0.36419300  1
  O  O59  1  0.95544200  0.83278900  0.63580700  1
  O  O60  1  0.48124300  0.37593300  0.77177700  1
  O  O61  1  0.98124300  0.12406700  0.22822300  1
  O  O62  1  0.51875700  0.62406700  0.22822300  1
  O  O63  1  0.01875700  0.87593300  0.77177700  1
  O  O64  1  0.73587800  0.30679900  0.70906500  1
  O  O65  1  0.23587800  0.19320100  0.29093500  1
  O  O66  1  0.26412200  0.69320100  0.29093500  1
  O  O67  1  0.76412200  0.80679900  0.70906500  1
  O  O68  1  0.88446500  0.38883300  0.77185000  1
  O  O69  1  0.38446500  0.11116700  0.22815000  1
  O  O70  1  0.11553500  0.61116700  0.22815000  1
  O  O71  1  0.61553500  0.88883300  0.77185000  1
  O  O72  1  0.89595600  0.34713800  0.62391300  1
  O  O73  1  0.39595600  0.15286200  0.37608700  1
  O  O74  1  0.10404400  0.65286200  0.37608700  1
  O  O75  1  0.60404400  0.84713800  0.62391300  1
  O  O76  1  0.19965900  0.35396300  0.79248900  1
  O  O77  1  0.69965900  0.14603700  0.20751100  1
  O  O78  1  0.80034100  0.64603700  0.20751100  1
  O  O79  1  0.30034100  0.85396300  0.79248900  1
  O  O80  1  0.11426100  0.31581400  0.66287600  1
  O  O81  1  0.61426100  0.18418600  0.33712400  1
  O  O82  1  0.88573900  0.68418600  0.33712400  1
  O  O83  1  0.38573900  0.81581400  0.66287600  1
  O  O84  1  0.19997800  0.46498600  0.68517300  1
  O  O85  1  0.69997800  0.03501400  0.31482700  1
  O  O86  1  0.80002200  0.53501400  0.31482700  1
  O  O87  1  0.30002200  0.96498600  0.68517300  1
  O  O88  1  0.71304300  0.35314400  0.53825000  1
  O  O89  1  0.21304300  0.14685600  0.46175000  1
  O  O90  1  0.28695700  0.64685600  0.46175000  1
  O  O91  1  0.78695700  0.85314400  0.53825000  1
  O  O92  1  0.61892700  0.31009400  0.41214600  1
  O  O93  1  0.11892700  0.18990600  0.58785400  1
  O  O94  1  0.38107300  0.68990600  0.58785400  1
  O  O95  1  0.88107300  0.81009400  0.41214600  1
  O  O96  1  0.70465800  0.46068800  0.42804100  1
  O  O97  1  0.20465800  0.03931200  0.57195900  1
  O  O98  1  0.29534200  0.53931200  0.57195900  1
  O  O99  1  0.79534200  0.96068800  0.42804100  1
  O  O100  1  0.97027400  0.44707800  0.35631800  1
  O  O101  1  0.47027400  0.05292200  0.64368200  1
  O  O102  1  0.02972600  0.55292200  0.64368200  1
  O  O103  1  0.52972600  0.94707800  0.35631800  1
  O  O104  1  0.05122100  0.30846600  0.41125700  1
  O  O105  1  0.55122100  0.19153400  0.58874300  1
  O  O106  1  0.94877900  0.69153400  0.58874300  1
  O  O107  1  0.44877900  0.80846600  0.41125700  1
  O  O108  1  0.97281000  0.41444300  0.50433400  1
  O  O109  1  0.47281000  0.08555700  0.49566600  1
  O  O110  1  0.02719000  0.58555700  0.49566600  1
  O  O111  1  0.52719000  0.91444300  0.50433400  1
  O  O112  1  0.26913700  0.36692600  0.52717900  1
  O  O113  1  0.76913700  0.13307400  0.47282100  1
  O  O114  1  0.73086300  0.63307400  0.47282100  1
  O  O115  1  0.23086300  0.86692600  0.52717900  1
  O  O116  1  0.42298300  0.28647900  0.47051700  1
  O  O117  1  0.92298300  0.21352100  0.52948300  1
  O  O118  1  0.57701700  0.71352100  0.52948300  1
  O  O119  1  0.07701700  0.78647900  0.47051700  1
  O  O120  1  0.26501200  0.32221200  0.38431100  1
  O  O121  1  0.76501200  0.17778800  0.61568900  1
  O  O122  1  0.73498800  0.67778800  0.61568900  1
  O  O123  1  0.23498800  0.82221200  0.38431100  1
  O  O124  1  0.45343200  0.44237800  0.19782400  1
  O  O125  1  0.95343200  0.05762200  0.80217600  1
  O  O126  1  0.54656800  0.55762200  0.80217600  1
  O  O127  1  0.04656800  0.94237800  0.19782400  1
  O  O128  1  0.53287800  0.29275100  0.17470400  1
  O  O129  1  0.03287800  0.20724900  0.82529600  1
  O  O130  1  0.46712200  0.70724900  0.82529600  1
  O  O131  1  0.96712200  0.79275100  0.17470400  1
  O  O132  1  0.44151100  0.32611400  0.30237700  1
  O  O133  1  0.94151100  0.17388600  0.69762300  1
  O  O134  1  0.55848900  0.67388600  0.69762300  1
  O  O135  1  0.05848900  0.82611400  0.30237700  1
  O  O136  1  0.74496400  0.32847000  0.12773800  1
  O  O137  1  0.24496400  0.17153000  0.87226200  1
  O  O138  1  0.25503600  0.67153000  0.87226200  1
  O  O139  1  0.75503600  0.82847000  0.12773800  1
  O  O140  1  0.74787100  0.36234400  0.27424100  1
  O  O141  1  0.24787100  0.13765600  0.72575900  1
  O  O142  1  0.25212900  0.63765600  0.72575900  1
  O  O143  1  0.75212900  0.86234400  0.27424100  1
  O  O144  1  0.90225000  0.29049600  0.21388200  1
  O  O145  1  0.40225000  0.20950400  0.78611800  1
  O  O146  1  0.09775000  0.70950400  0.78611800  1
  O  O147  1  0.59775000  0.79049600  0.21388200  1
  O  O148  1  0.18174800  0.44754200  0.13608300  1
  O  O149  1  0.68174800  0.05245800  0.86391700  1
  O  O150  1  0.81825200  0.55245800  0.86391700  1
  O  O151  1  0.31825200  0.94754200  0.13608300  1
  O  O152  1  0.17633900  0.39499500  0.27603800  1
  O  O153  1  0.67633900  0.10500500  0.72396200  1
  O  O154  1  0.82366100  0.60500500  0.72396200  1
  O  O155  1  0.32366100  0.89499500  0.27603800  1
  O  O156  1  0.09704600  0.30648700  0.16515300  1
  O  O157  1  0.59704600  0.19351300  0.83484700  1
  O  O158  1  0.90295400  0.69351300  0.83484700  1
  O  O159  1  0.40295400  0.80648700  0.16515300  1
loop_
_geom_bond_atom_site_label_1
_geom_bond_atom_site_label_2
_geom_bond_distance
_geom_bond_site_symmetry_2
Cu0 O0 1.911225 1_555
Cu0 O157 1.920620 1_555
Cu0 O13 1.954413 1_555
Cu0 O20 1.994604 1_555
Cu1 O1 1.911225 1_555
Cu1 O156 1.920620 1_555
Cu1 O12 1.954413 1_555
Cu1 O21 1.994604 1_555
Cu2 O2 1.911225 1_555
Cu2 O159 1.920620 1_555
Cu2 O15 1.954422 1_555
Cu2 O22 1.994604 1_555
Cu3 O3 1.911225 1_555
Cu3 O158 1.920620 1_555
Cu3 O14 1.954422 1_555
Cu3 O23 1.994604 1_555
Cu4 O28 1.916976 1_655
Cu4 O13 1.937618 1_555
Cu4 O129 1.969243 1_655
Cu4 O0 1.980788 1_555
Cu5 O29 1.916976 1_555
Cu5 O12 1.937618 1_555
Cu5 O128 1.969243 1_555
Cu5 O1 1.980788 1_555
Cu6 O30 1.916976 1_455
Cu6 O15 1.937627 1_555
Cu6 O131 1.969243 1_455
Cu6 O2 1.980788 1_555
Cu7 O31 1.916976 1_555
Cu7 O14 1.937627 1_555
Cu7 O130 1.969243 1_555
Cu7 O3 1.980788 1_555
Cu8 O137 1.949781 1_555
Cu8 O28 1.961738 1_555
Cu8 O40 1.981813 1_555
Cu8 O129 1.987789 1_555
Cu8 O76 2.482001 1_555
Cu9 O136 1.949781 1_555
Cu9 O29 1.961738 1_555
Cu9 O41 1.981813 1_555
Cu9 O128 1.987789 1_555
Cu9 O77 2.482001 1_555
Cu10 O139 1.949781 1_555
Cu10 O30 1.961738 1_555
Cu10 O42 1.981813 1_555
Cu10 O131 1.987789 1_555
Cu10 O78 2.482001 1_555
Cu11 O138 1.949781 1_555
Cu11 O31 1.961738 1_555
Cu11 O43 1.981813 1_555
Cu11 O130 1.987789 1_555
Cu11 O79 2.482001 1_555
Cu12 O145 1.945834 1_555
Cu12 O20 1.969060 1_555
Cu12 O48 1.997421 1_555
Cu12 O157 2.000263 1_555
Cu12 O37 2.363130 1_555
Cu12 O60 2.556372 1_555
Cu13 O144 1.945834 1_555
Cu13 O21 1.969060 1_655
Cu13 O49 1.997421 1_555
Cu13 O156 2.000263 1_655
Cu13 O36 2.363130 1_555
Cu13 O61 2.556372 1_555
Cu14 O147 1.945834 1_555
Cu14 O22 1.969060 1_555
Cu14 O50 1.997421 1_555
Cu14 O159 2.000263 1_555
Cu14 O39 2.363130 1_555
Cu14 O62 2.556372 1_555
Cu15 O146 1.945834 1_555
Cu15 O23 1.969060 1_455
Cu15 O51 1.997421 1_555
Cu15 O158 2.000263 1_455
Cu15 O38 2.363130 1_555
Cu15 O63 2.556372 1_555
Cu16 O121 1.959126 1_555
Cu16 O105 1.964775 1_555
Cu16 O64 1.977513 1_555
Cu16 O56 1.986083 1_555
Cu16 O88 2.306528 1_555
Cu17 O120 1.959126 1_555
Cu17 O104 1.964775 1_555
Cu17 O65 1.977513 1_555
Cu17 O57 1.986083 1_555
Cu17 O89 2.306528 1_555
Cu18 O123 1.959126 1_555
Cu18 O107 1.964775 1_555
Cu18 O66 1.977513 1_555
Cu18 O58 1.986083 1_555
Cu18 O90 2.306528 1_555
Cu19 O122 1.959126 1_555
Cu19 O106 1.964775 1_555
Cu19 O67 1.977513 1_555
Cu19 O59 1.986083 1_555
Cu19 O91 2.306528 1_555
Cu20 O117 1.984591 1_455
Cu20 O72 1.992546 1_455
Cu20 O80 1.996477 1_555
Cu20 O93 2.045895 1_555
Cu20 O133 2.266232 1_455
Cu21 O116 1.984591 1_555
Cu21 O73 1.992546 1_555
Cu21 O81 1.996477 1_555
Cu21 O92 2.045895 1_555
Cu21 O132 2.266232 1_555
Cu22 O119 1.984591 1_655
Cu22 O74 1.992546 1_655
Cu22 O82 1.996477 1_555
Cu22 O95 2.045895 1_555
Cu22 O135 2.266232 1_655
Cu23 O118 1.984591 1_555
Cu23 O75 1.992546 1_555
Cu23 O83 1.996477 1_555
Cu23 O94 2.045895 1_555
Cu23 O134 2.266232 1_555
Cu24 O4 1.946626 1_555
Cu24 O93 1.961070 1_555
Cu24 O9 1.974529 1_555
Cu24 O80 1.994985 1_555
Cu24 O141 2.577220 1_555
Cu25 O5 1.946626 1_555
Cu25 O92 1.961070 1_555
Cu25 O8 1.974529 1_555
Cu25 O81 1.994985 1_555
Cu25 O140 2.577220 1_555
Cu26 O6 1.946626 1_555
Cu26 O95 1.961070 1_555
Cu26 O11 1.974529 1_555
Cu26 O82 1.994985 1_555
Cu26 O143 2.577220 1_555
Cu27 O7 1.946626 1_555
Cu27 O94 1.961070 1_555
Cu27 O10 1.974529 1_555
Cu27 O83 1.994985 1_555
Cu27 O142 2.577220 1_555
Cu28 O9 1.936846 1_555
Cu28 O56 1.945234 1_555
Cu28 O4 1.949573 1_555
Cu28 O105 1.956980 1_555
Cu29 O8 1.936846 1_555
Cu29 O57 1.945234 1_655
Cu29 O5 1.949573 1_555
Cu29 O104 1.956980 1_655
Cu30 O11 1.936846 1_555
Cu30 O58 1.945234 1_555
Cu30 O6 1.949573 1_555
Cu30 O107 1.956980 1_555
Cu31 O10 1.936846 1_555
Cu31 O59 1.945234 1_455
Cu31 O7 1.949573 1_555
Cu31 O106 1.956980 1_455
Cu32 O0 1.924569 1_555
Cu32 O150 1.975436 1_555
Cu32 O32 1.982382 1_555
Cu32 O24 2.053541 1_555
Cu32 O68 2.349030 1_555
Cu33 O1 1.924569 1_555
Cu33 O151 1.975436 1_545
Cu33 O33 1.982382 1_555
Cu33 O25 2.053541 1_555
Cu33 O69 2.349030 1_555
Cu34 O2 1.924569 1_555
Cu34 O148 1.975436 1_555
Cu34 O34 1.982382 1_555
Cu34 O26 2.053541 1_555
Cu34 O70 2.349030 1_555
Cu35 O3 1.924569 1_555
Cu35 O149 1.975436 1_565
Cu35 O35 1.982382 1_555
Cu35 O27 2.053541 1_555
Cu35 O71 2.349030 1_555
Cu36 O4 1.955597 1_555
Cu36 O60 1.968479 1_555
Cu36 O76 1.984379 1_555
Cu36 O48 2.035333 1_555
Cu36 O145 2.379113 1_555
Cu37 O5 1.955597 1_555
Cu37 O61 1.968479 1_555
Cu37 O77 1.984379 1_555
Cu37 O49 2.035333 1_555
Cu37 O144 2.379113 1_555
Cu38 O6 1.955597 1_555
Cu38 O62 1.968479 1_555
Cu38 O78 1.984379 1_555
Cu38 O50 2.035333 1_555
Cu38 O147 2.379113 1_555
Cu39 O7 1.955597 1_555
Cu39 O63 1.968479 1_555
Cu39 O79 1.984379 1_555
Cu39 O51 2.035333 1_555
Cu39 O146 2.379113 1_555
Cu40 O4 1.950558 1_555
Cu40 O52 1.985699 1_555
Cu40 O98 2.010190 1_555
Cu40 O112 2.062473 1_555
Cu40 O84 2.234862 1_555
Cu41 O5 1.950558 1_555
Cu41 O53 1.985699 1_555
Cu41 O99 2.010190 1_545
Cu41 O113 2.062473 1_555
Cu41 O85 2.234862 1_555
Cu42 O6 1.950558 1_555
Cu42 O54 1.985699 1_555
Cu42 O96 2.010190 1_555
Cu42 O114 2.062473 1_555
Cu42 O86 2.234862 1_555
Cu43 O7 1.950558 1_555
Cu43 O55 1.985699 1_555
Cu43 O97 2.010190 1_565
Cu43 O115 2.062473 1_555
Cu43 O87 2.234862 1_555
Cu44 O108 1.946703 1_555
Cu44 O8 1.952387 1_555
Cu44 O88 1.991523 1_555
Cu44 O72 2.039588 1_555
Cu44 O117 2.388388 1_555
Cu45 O109 1.946703 1_555
Cu45 O9 1.952387 1_555
Cu45 O89 1.991523 1_555
Cu45 O73 2.039588 1_555
Cu45 O116 2.388388 1_555
Cu46 O110 1.946703 1_555
Cu46 O10 1.952387 1_555
Cu46 O90 1.991523 1_555
Cu46 O74 2.039588 1_555
Cu46 O119 2.388388 1_555
Cu47 O111 1.946703 1_555
Cu47 O11 1.952387 1_555
Cu47 O91 1.991523 1_555
Cu47 O75 2.039588 1_555
Cu47 O118 2.388388 1_555
Cu48 O8 1.946034 1_555
Cu48 O100 1.958301 1_555
Cu48 O86 2.001260 1_555
Cu48 O96 2.147054 1_555
Cu48 O140 2.188152 1_555
Cu49 O9 1.946034 1_555
Cu49 O101 1.958301 1_555
Cu49 O87 2.001260 1_545
Cu49 O97 2.147054 1_555
Cu49 O141 2.188152 1_555
Cu50 O10 1.946034 1_555
Cu50 O102 1.958301 1_555
Cu50 O84 2.001260 1_555
Cu50 O98 2.147054 1_555
Cu50 O142 2.188152 1_555
Cu51 O11 1.946034 1_555
Cu51 O103 1.958301 1_555
Cu51 O85 2.001260 1_565
Cu51 O99 2.147054 1_555
Cu51 O143 2.188152 1_555
Cu52 O12 1.923849 1_555
Cu52 O120 1.989675 1_555
Cu52 O132 1.994990 1_555
Cu52 O152 2.056588 1_555
Cu52 O65 2.287467 1_555
Cu53 O13 1.923849 1_555
Cu53 O121 1.989675 1_555
Cu53 O133 1.994990 1_555
Cu53 O153 2.056588 1_555
Cu53 O64 2.287467 1_555
Cu54 O14 1.923848 1_555
Cu54 O122 1.989675 1_555
Cu54 O134 1.994990 1_555
Cu54 O154 2.056588 1_555
Cu54 O67 2.287467 1_555
Cu55 O15 1.923848 1_555
Cu55 O123 1.989675 1_555
Cu55 O135 1.994990 1_555
Cu55 O155 2.056588 1_555
Cu55 O66 2.287467 1_555
Cu56 O12 1.941290 1_555
Cu56 O124 1.971464 1_555
Cu56 O26 2.009151 1_555
Cu56 O148 2.051929 1_555
Cu56 O44 2.277132 1_555
Cu57 O13 1.941290 1_555
Cu57 O125 1.971464 1_555
Cu57 O27 2.009151 1_545
Cu57 O149 2.051929 1_555
Cu57 O45 2.277132 1_555
Cu58 O14 1.941274 1_555
Cu58 O126 1.971464 1_555
Cu58 O24 2.009151 1_555
Cu58 O150 2.051929 1_555
Cu58 O46 2.277132 1_555
Cu59 O15 1.941274 1_555
Cu59 O127 1.971464 1_555
Cu59 O25 2.009151 1_565
Cu59 O151 2.051929 1_555
Cu59 O47 2.277132 1_555
Cu60 O0 1.932582 1_554
Cu60 O136 1.986466 1_555
Cu60 O36 2.004909 1_555
Cu60 O16 2.063592 1_555
Cu60 O41 2.277593 1_555
Cu61 O1 1.932582 1_556
Cu61 O137 1.986466 1_555
Cu61 O37 2.004909 1_555
Cu61 O17 2.063592 1_555
Cu61 O40 2.277593 1_555
Cu62 O2 1.932582 1_556
Cu62 O138 1.986466 1_555
Cu62 O38 2.004909 1_555
Cu62 O18 2.063592 1_555
Cu62 O43 2.277593 1_555
Cu63 O3 1.932582 1_554
Cu63 O139 1.986466 1_555
Cu63 O39 2.004909 1_555
Cu63 O19 2.063592 1_555
Cu63 O42 2.277593 1_555
O16 Se0 1.687674 1_554
O17 Se1 1.687674 1_556
O18 Se2 1.687674 1_556
O19 Se3 1.687674 1_554
O20 Se0 1.774243 1_555
O21 Se1 1.774243 1_555
O22 Se2 1.774243 1_555
O23 Se3 1.774243 1_555
O24 Se0 1.771189 1_555
O25 Se1 1.771189 1_555
O26 Se2 1.771189 1_555
O27 Se3 1.771189 1_555
O28 Se4 1.777600 1_555
O29 Se5 1.777600 1_555
O30 Se6 1.777600 1_555
O31 Se7 1.777600 1_555
O32 Se4 1.710579 1_655
O33 Se5 1.710579 1_555
O34 Se6 1.710579 1_455
O35 Se7 1.710579 1_555
O36 Se4 1.738874 1_654
O37 Se5 1.738874 1_556
O38 Se6 1.738874 1_456
O39 Se7 1.738874 1_554
O40 Se8 1.769957 1_555
O41 Se9 1.769957 1_555
O42 Se10 1.769957 1_555
O43 Se11 1.769957 1_555
O44 Se8 1.684627 1_554
O45 Se9 1.684627 1_556
O46 Se10 1.684627 1_556
O47 Se11 1.684627 1_554
O48 Se8 1.770159 1_555
O49 Se9 1.770159 1_555
O50 Se10 1.770159 1_555
O51 Se11 1.770159 1_555
O52 Se12 1.719040 1_555
O53 Se13 1.719040 1_655
O54 Se14 1.719040 1_555
O55 Se15 1.719040 1_455
O56 Se12 1.794866 1_555
O57 Se13 1.794866 1_555
O58 Se14 1.794866 1_555
O59 Se15 1.794866 1_555
O60 Se12 1.700435 1_555
O61 Se13 1.700435 1_655
O62 Se14 1.700435 1_555
O63 Se15 1.700435 1_455
O64 Se16 1.758937 1_555
O65 Se17 1.758937 1_555
O66 Se18 1.758937 1_555
O67 Se19 1.758937 1_555
O68 Se16 1.686035 1_555
O69 Se17 1.686035 1_555
O70 Se18 1.686035 1_555
O71 Se19 1.686035 1_555
O72 Se16 1.779758 1_555
O73 Se17 1.779758 1_555
O74 Se18 1.779758 1_555
O75 Se19 1.779758 1_555
O76 Se20 1.736997 1_555
O77 Se21 1.736997 1_555
O78 Se22 1.736997 1_555
O79 Se23 1.736997 1_555
O80 Se20 1.768513 1_555
O81 Se21 1.768513 1_555
O82 Se22 1.768513 1_555
O83 Se23 1.768513 1_555
O84 Se20 1.734446 1_555
O85 Se21 1.734446 1_555
O86 Se22 1.734446 1_555
O87 Se23 1.734446 1_555
O88 Se24 1.731789 1_555
O89 Se25 1.731789 1_555
O90 Se26 1.731789 1_555
O91 Se27 1.731789 1_555
O92 Se24 1.761215 1_555
O93 Se25 1.761215 1_555
O94 Se26 1.761215 1_555
O95 Se27 1.761215 1_555
O96 Se24 1.738066 1_555
O97 Se25 1.738066 1_555
O98 Se26 1.738066 1_555
O99 Se27 1.738066 1_555
O100 Se28 1.720253 1_655
O101 Se29 1.720253 1_555
O102 Se30 1.720253 1_455
O103 Se31 1.720253 1_555
O104 Se28 1.790725 1_555
O105 Se29 1.790725 1_555
O106 Se30 1.790725 1_555
O107 Se31 1.790725 1_555
O108 Se28 1.711301 1_655
O109 Se29 1.711301 1_555
O110 Se30 1.711301 1_455
O111 Se31 1.711301 1_555
O112 Se32 1.703598 1_555
O113 Se33 1.703598 1_555
O114 Se34 1.703598 1_555
O115 Se35 1.703598 1_555
O116 Se32 1.745779 1_555
O117 Se33 1.745779 1_555
O118 Se34 1.745779 1_555
O119 Se35 1.745779 1_555
O120 Se32 1.753223 1_555
O121 Se33 1.753223 1_555
O122 Se34 1.753223 1_555
O123 Se35 1.753223 1_555
O124 Se36 1.708521 1_555
O125 Se37 1.708521 1_655
O126 Se38 1.708521 1_555
O127 Se39 1.708521 1_455
O128 Se36 1.776540 1_555
O129 Se37 1.776540 1_555
O130 Se38 1.776540 1_555
O131 Se39 1.776540 1_555
O132 Se36 1.745724 1_555
O133 Se37 1.745724 1_655
O134 Se38 1.745724 1_555
O135 Se39 1.745724 1_455
O136 Se40 1.762193 1_555
O137 Se41 1.762193 1_555
O138 Se42 1.762193 1_555
O139 Se43 1.762193 1_555
O140 Se40 1.692672 1_555
O141 Se41 1.692672 1_555
O142 Se42 1.692672 1_555
O143 Se43 1.692672 1_555
O144 Se40 1.742903 1_555
O145 Se41 1.742903 1_555
O146 Se42 1.742903 1_555
O147 Se43 1.742903 1_555
O148 Se44 1.761249 1_555
O149 Se45 1.761249 1_555
O150 Se46 1.761249 1_555
O151 Se47 1.761249 1_555
O152 Se44 1.686385 1_555
O153 Se45 1.686385 1_555
O154 Se46 1.686385 1_555
O155 Se47 1.686385 1_555
O156 Se44 1.769517 1_555
O157 Se45 1.769517 1_555
O158 Se46 1.769517 1_555
O159 Se47 1.769517 1_555
