# generated using pymatgen
data_U2Cu5Pb2(SeO5)6
_symmetry_space_group_name_H-M   'P 1'
_cell_length_a   5.38215288
_cell_length_b   10.43968180
_cell_length_c   11.97896216
_cell_angle_alpha   88.44131498
_cell_angle_beta   81.02732049
_cell_angle_gamma   87.59298254
_symmetry_Int_Tables_number   1
_chemical_formula_structural   U2Cu5Pb2(SeO5)6
_chemical_formula_sum   'U2 Cu5 Pb2 Se6 O30'
_cell_volume   664.10493959
_cell_formula_units_Z   1
loop_
 _symmetry_equiv_pos_site_id
 _symmetry_equiv_pos_as_xyz
  1  'x, y, z'
loop_
 _atom_site_type_symbol
 _atom_site_label
 _atom_site_symmetry_multiplicity
 _atom_site_fract_x
 _atom_site_fract_y
 _atom_site_fract_z
 _atom_site_occupancy
  U  U0  1  0.25565200  0.08551900  0.74793500  1
  U  U1  1  0.74434800  0.91448100  0.25206500  1
  Cu  Cu0  1  0.50000000  0.50000000  0.50000000  1
  Cu  Cu1  1  0.05011000  0.42850800  0.39532000  1
  Cu  Cu2  1  0.94989000  0.57149200  0.60468000  1
  Cu  Cu3  1  0.80675600  0.55878300  0.95020500  1
  Cu  Cu4  1  0.19324400  0.44121700  0.04979500  1
  Pb  Pb0  1  0.63613200  0.30206600  0.21693600  1
  Pb  Pb1  1  0.36386800  0.69793400  0.78306400  1
  Se  Se0  1  0.25252200  0.83512700  0.51770100  1
  Se  Se1  1  0.74747800  0.16487300  0.48229900  1
  Se  Se2  1  0.35904700  0.62915200  0.21834000  1
  Se  Se3  1  0.64095300  0.37084800  0.78166000  1
  Se  Se4  1  0.80918600  0.87894600  0.95363400  1
  Se  Se5  1  0.19081400  0.12105400  0.04636600  1
  O  O0  1  0.02403500  0.86201200  0.31123100  1
  O  O1  1  0.97596600  0.13798800  0.68876900  1
  O  O2  1  0.47733100  0.97222800  0.18666000  1
  O  O3  1  0.52266900  0.02777200  0.81334000  1
  O  O4  1  0.06619600  0.87950200  0.84733000  1
  O  O5  1  0.93380400  0.12049800  0.15267000  1
  O  O6  1  0.32917900  0.89116900  0.64254300  1
  O  O7  1  0.67082100  0.10883100  0.35745700  1
  O  O8  1  0.47770600  0.14611800  0.57510700  1
  O  O9  1  0.52229400  0.85388200  0.42489300  1
  O  O10  1  0.36783600  0.29579700  0.78303400  1
  O  O11  1  0.63216400  0.70420300  0.21696600  1
  O  O12  1  0.04439500  0.13790600  0.92783800  1
  O  O13  1  0.95560500  0.86209400  0.07216200  1
  O  O14  1  0.71441100  0.33043400  0.44722600  1
  O  O15  1  0.28558900  0.66956600  0.55277400  1
  O  O16  1  0.37246300  0.53032400  0.33912800  1
  O  O17  1  0.62753700  0.46967600  0.66087200  1
  O  O18  1  0.46268200  0.50841700  0.11703300  1
  O  O19  1  0.53731800  0.49158300  0.88296700  1
  O  O20  1  0.32648200  0.26981900  0.06068100  1
  O  O21  1  0.67351800  0.73018100  0.93931900  1
  O  O22  1  0.17257800  0.43437100  0.53815900  1
  O  O23  1  0.82742200  0.56562900  0.46184100  1
  O  O24  1  0.01046100  0.58528200  0.75514300  1
  O  O25  1  0.98953900  0.41471800  0.24485700  1
  O  O26  1  0.91636500  0.39855400  0.99212800  1
  O  O27  1  0.08363500  0.60144600  0.00787200  1
  O  O28  1  0.22227100  0.28615400  0.32705000  1
  O  O29  1  0.77772900  0.71384600  0.67295000  1
loop_
_geom_bond_atom_site_label_1
_geom_bond_atom_site_label_2
_geom_bond_distance
_geom_bond_site_symmetry_2
Cu0 O22 1.901830 1_555
Cu0 O23 1.901830 1_555
Cu0 O15 2.127614 1_555
Cu0 O14 2.127614 1_555
Cu0 O16 2.155506 1_555
Cu0 O17 2.155506 1_555
Cu1 O28 1.857431 1_555
Cu1 O25 1.891284 1_455
Cu1 O22 1.930502 1_555
Cu1 O23 1.934089 1_455
Cu1 O16 2.084386 1_555
Cu1 O14 2.114165 1_455
Cu2 O29 1.857431 1_555
Cu2 O24 1.891284 1_655
Cu2 O23 1.930502 1_555
Cu2 O22 1.934089 1_655
Cu2 O17 2.084386 1_555
Cu2 O15 2.114165 1_655
Cu3 O27 1.813799 1_656
Cu3 O26 1.833604 1_555
Cu3 O21 1.908320 1_555
Cu3 O19 1.929867 1_555
Cu3 O24 2.435089 1_655
Cu3 O18 2.563163 1_556
Cu4 O26 1.813799 1_454
Cu4 O27 1.833604 1_555
Cu4 O20 1.908320 1_555
Cu4 O18 1.929867 1_555
Cu4 O25 2.435089 1_455
Cu4 O19 2.563163 1_554
O0 U1 1.819549 1_455
O1 U0 1.819544 1_655
O2 U1 1.815315 1_555
O3 U0 1.815315 1_555
O4 Se4 1.727965 1_455
O4 Pb1 2.488368 1_555
O4 U0 2.597946 1_565
O5 Se5 1.727965 1_655
O5 Pb0 2.488368 1_555
O5 U1 2.597946 1_545
O6 Se0 1.734735 1_555
O6 U0 2.404827 1_565
O6 Pb1 2.611427 1_555
O7 Se1 1.734735 1_555
O7 U1 2.404827 1_545
O7 Pb0 2.611427 1_555
O8 Se1 1.700296 1_555
O8 U0 2.309797 1_555
O9 Se0 1.700296 1_555
O9 U1 2.309797 1_555
O10 Se3 1.692165 1_555
O10 U0 2.366671 1_555
O11 Se2 1.692165 1_555
O11 U1 2.366671 1_555
O12 Se5 1.729656 1_556
O12 U0 2.341734 1_555
O13 Se4 1.729656 1_554
O13 U1 2.341734 1_555
O14 Se1 1.775824 1_555
O15 Se0 1.775824 1_555
O16 Se2 1.763057 1_555
O17 Se3 1.763057 1_555
O18 Se2 1.784809 1_555
O18 Pb0 2.642672 1_555
O19 Se3 1.784809 1_555
O19 Pb1 2.642672 1_555
O20 Se5 1.767305 1_555
O20 Pb0 2.729252 1_555
O21 Se4 1.767305 1_555
O21 Pb1 2.729252 1_555
O24 Pb1 2.349606 1_555
O25 Pb0 2.349606 1_555
O28 Pb0 2.414903 1_555
O29 Pb1 2.414903 1_555
