# generated using pymatgen
data_LiMoP2WO11
_symmetry_space_group_name_H-M   'P 1'
_cell_length_a   5.26311461
_cell_length_b   5.26311461
_cell_length_c   7.88027834
_cell_angle_alpha   80.25559714
_cell_angle_beta   80.25559714
_cell_angle_gamma   75.91777181
_symmetry_Int_Tables_number   1
_chemical_formula_structural   LiMoP2WO11
_chemical_formula_sum   'Li1 Mo1 P2 W1 O11'
_cell_volume   206.79078254
_cell_formula_units_Z   1
loop_
 _symmetry_equiv_pos_site_id
 _symmetry_equiv_pos_as_xyz
  1  'x, y, z'
loop_
 _atom_site_type_symbol
 _atom_site_label
 _atom_site_symmetry_multiplicity
 _atom_site_fract_x
 _atom_site_fract_y
 _atom_site_fract_z
 _atom_site_occupancy
  Li  Li0  1  0.50449600  0.50449600  0.99473600  1
  Mo  Mo0  1  0.15398000  0.15398000  0.77369200  1
  P  P0  1  0.74733800  0.74733800  0.67127000  1
  P  P1  1  0.25277600  0.25277600  0.33014000  1
  W  W0  1  0.85016200  0.85016200  0.21924900  1
  O  O0  1  0.32316200  0.32316200  0.86759000  1
  O  O1  1  0.66858500  0.66858500  0.13964000  1
  O  O2  1  0.82886900  0.46099800  0.76526600  1
  O  O3  1  0.46099800  0.82886900  0.76526600  1
  O  O4  1  0.16375800  0.54015100  0.23457300  1
  O  O5  1  0.54015100  0.16375800  0.23457300  1
  O  O6  1  0.99534600  0.99534600  0.00840900  1
  O  O7  1  0.92634600  0.92634600  0.68837600  1
  O  O8  1  0.07402700  0.07402700  0.31353000  1
  O  O9  1  0.26927300  0.26927300  0.51929100  1
  O  O10  1  0.74073000  0.74073000  0.47440100  1
loop_
_geom_bond_atom_site_label_1
_geom_bond_atom_site_label_2
_geom_bond_distance
_geom_bond_site_symmetry_2
Li0 O1 1.956057 1_556
Li0 O0 1.978942 1_555
Li0 O3 2.267557 1_555
Li0 O2 2.267557 1_555
Li0 O4 2.373244 1_556
Li0 O5 2.373244 1_556
Mo0 O0 1.721949 1_555
Mo0 O6 2.027071 1_446
Mo0 O9 2.027571 1_555
Mo0 O3 2.049379 1_545
Mo0 O2 2.049379 1_455
Mo0 O7 2.136942 1_445
O1 W0 1.752270 1_555
O2 P0 1.555310 1_555
O3 P0 1.555310 1_555
O4 P1 1.569491 1_555
O4 W0 2.022669 1_455
O5 P1 1.569491 1_555
O5 W0 2.022669 1_545
O6 W0 1.831089 1_555
O7 P0 1.520313 1_555
O8 P1 1.517009 1_555
O8 W0 2.143972 1_445
O9 P1 1.525825 1_555
O10 P0 1.564073 1_555
O10 W0 2.020803 1_555
