# generated using pymatgen
data_AlP3NO10
_symmetry_space_group_name_H-M   'P 1'
_cell_length_a   5.08562200
_cell_length_b   7.81171244
_cell_length_c   11.27419165
_cell_angle_alpha   105.80991863
_cell_angle_beta   90.00000000
_cell_angle_gamma   90.00000000
_symmetry_Int_Tables_number   1
_chemical_formula_structural   AlP3NO10
_chemical_formula_sum   'Al2 P6 N2 O20'
_cell_volume   430.95103794
_cell_formula_units_Z   2
loop_
 _symmetry_equiv_pos_site_id
 _symmetry_equiv_pos_as_xyz
  1  'x, y, z'
loop_
 _atom_site_type_symbol
 _atom_site_label
 _atom_site_symmetry_multiplicity
 _atom_site_fract_x
 _atom_site_fract_y
 _atom_site_fract_z
 _atom_site_occupancy
  Al  Al0  1  0.00000000  0.50000000  0.50000000  1
  Al  Al1  1  0.00000000  0.00000000  0.00000000  1
  P  P0  1  0.48795100  0.24562000  0.47866100  1
  P  P1  1  0.48795100  0.25438000  0.02133900  1
  P  P2  1  0.51204900  0.75438000  0.52133900  1
  P  P3  1  0.51204900  0.74562000  0.97866100  1
  P  P4  1  0.77622400  0.75000000  0.75000000  1
  P  P5  1  0.22377600  0.25000000  0.25000000  1
  N  N0  1  0.00332600  0.25000000  0.75000000  1
  N  N1  1  0.99667400  0.75000000  0.25000000  1
  O  O0  1  0.22887900  0.70175800  0.50244700  1
  O  O1  1  0.22887900  0.79824200  0.99755300  1
  O  O2  1  0.77112100  0.29824200  0.49755300  1
  O  O3  1  0.77112100  0.20175800  0.00244700  1
  O  O4  1  0.41307200  0.42271800  0.96948100  1
  O  O5  1  0.41307200  0.07728200  0.53051900  1
  O  O6  1  0.58692800  0.57728200  0.03051900  1
  O  O7  1  0.58692800  0.92271800  0.46948100  1
  O  O8  1  0.28393000  0.37811900  0.54274100  1
  O  O9  1  0.28393000  0.12188100  0.95725900  1
  O  O10  1  0.71607000  0.62188100  0.45725900  1
  O  O11  1  0.71607000  0.87811900  0.04274100  1
  O  O12  1  0.57334700  0.67453200  0.83306700  1
  O  O13  1  0.57334700  0.82546800  0.66693300  1
  O  O14  1  0.42665300  0.32546800  0.16693400  1
  O  O15  1  0.42665300  0.17453200  0.33306600  1
  O  O16  1  0.92972100  0.59814800  0.66978500  1
  O  O17  1  0.92972100  0.90185200  0.83021500  1
  O  O18  1  0.07027900  0.40185200  0.33021500  1
  O  O19  1  0.07027900  0.09814800  0.16978500  1
loop_
_geom_bond_atom_site_label_1
_geom_bond_atom_site_label_2
_geom_bond_distance
_geom_bond_site_symmetry_2
Al0 O10 1.863788 1_455
Al0 O8 1.863788 1_555
Al0 O16 1.892089 1_455
Al0 O18 1.892089 1_555
Al0 O2 1.953448 1_455
Al0 O0 1.953448 1_555
Al1 O9 1.863788 1_554
Al1 O11 1.863788 1_445
Al1 O17 1.892089 1_444
Al1 O19 1.892089 1_555
Al1 O3 1.953448 1_455
Al1 O1 1.953448 1_544
O0 P2 1.496833 1_555
O1 P3 1.496833 1_555
O2 P0 1.496833 1_555
O3 P1 1.496833 1_555
O4 P1 1.623272 1_556
O5 P0 1.623272 1_555
O6 P3 1.623272 1_554
O7 P2 1.623272 1_555
O8 P0 1.504113 1_555
O9 P1 1.504113 1_556
O10 P2 1.504113 1_555
O11 P3 1.504113 1_554
O12 P4 1.609337 1_555
O12 P3 1.613458 1_555
O13 P4 1.609337 1_555
O13 P2 1.613458 1_555
O14 P5 1.609330 1_555
O14 P1 1.613468 1_555
O15 P5 1.609330 1_555
O15 P0 1.613468 1_555
O16 P4 1.499942 1_555
O17 P4 1.499942 1_555
O18 P5 1.499942 1_555
O19 P5 1.499942 1_555
