# generated using pymatgen
data_CoHgN6Cl5
_symmetry_space_group_name_H-M   'P 1'
_cell_length_a   8.53988000
_cell_length_b   9.32597800
_cell_length_c   19.25296500
_cell_angle_alpha   90.00000000
_cell_angle_beta   90.00000000
_cell_angle_gamma   90.00000000
_symmetry_Int_Tables_number   1
_chemical_formula_structural   CoHgN6Cl5
_chemical_formula_sum   'Co4 Hg4 N24 Cl20'
_cell_volume   1533.35875100
_cell_formula_units_Z   4
loop_
 _symmetry_equiv_pos_site_id
 _symmetry_equiv_pos_as_xyz
  1  'x, y, z'
loop_
 _atom_site_type_symbol
 _atom_site_label
 _atom_site_symmetry_multiplicity
 _atom_site_fract_x
 _atom_site_fract_y
 _atom_site_fract_z
 _atom_site_occupancy
  Co  Co0  1  0.17142900  0.75000000  0.35155200  1
  Co  Co1  1  0.32857100  0.75000000  0.85155200  1
  Co  Co2  1  0.82857100  0.25000000  0.64844800  1
  Co  Co3  1  0.67142900  0.25000000  0.14844800  1
  Hg  Hg0  1  0.85213600  0.75000000  0.17892700  1
  Hg  Hg1  1  0.64786400  0.75000000  0.67892700  1
  Hg  Hg2  1  0.14786400  0.25000000  0.82107300  1
  Hg  Hg3  1  0.35213600  0.25000000  0.32107300  1
  N  N0  1  0.11962800  0.75000000  0.26704700  1
  N  N1  1  0.38037200  0.75000000  0.76704700  1
  N  N2  1  0.88037200  0.25000000  0.73295300  1
  N  N3  1  0.61962800  0.25000000  0.23295300  1
  N  N4  1  0.76893300  0.58227100  0.39567500  1
  N  N5  1  0.73106700  0.91772900  0.89567500  1
  N  N6  1  0.23106700  0.08227100  0.60432500  1
  N  N7  1  0.26893300  0.41772900  0.10432500  1
  N  N8  1  0.23106700  0.41772900  0.60432500  1
  N  N9  1  0.26893300  0.08227100  0.10432500  1
  N  N10  1  0.76893300  0.91772900  0.39567500  1
  N  N11  1  0.73106700  0.58227100  0.89567500  1
  N  N12  1  0.68156900  0.56212900  0.35383200  1
  N  N13  1  0.81843100  0.93787100  0.85383200  1
  N  N14  1  0.31843100  0.06212900  0.64616800  1
  N  N15  1  0.18156900  0.43787100  0.14616800  1
  N  N16  1  0.31843100  0.43787100  0.64616800  1
  N  N17  1  0.18156900  0.06212900  0.14616800  1
  N  N18  1  0.68156900  0.93787100  0.35383200  1
  N  N19  1  0.81843100  0.56212900  0.85383200  1
  N  N20  1  0.18859800  0.75000000  0.44619500  1
  N  N21  1  0.31140200  0.75000000  0.94619500  1
  N  N22  1  0.81140200  0.25000000  0.55380500  1
  N  N23  1  0.68859800  0.25000000  0.05380500  1
  Cl  Cl0  1  0.13099400  0.75000000  0.98571200  1
  Cl  Cl1  1  0.36900600  0.75000000  0.48571200  1
  Cl  Cl2  1  0.86900600  0.25000000  0.01428800  1
  Cl  Cl3  1  0.63099400  0.25000000  0.51428800  1
  Cl  Cl4  1  0.76796500  0.47593600  0.15411100  1
  Cl  Cl5  1  0.73203500  0.02406400  0.65411100  1
  Cl  Cl6  1  0.23203500  0.97593600  0.84588900  1
  Cl  Cl7  1  0.26796500  0.52406400  0.34588900  1
  Cl  Cl8  1  0.23203500  0.52406400  0.84588900  1
  Cl  Cl9  1  0.26796500  0.97593600  0.34588900  1
  Cl  Cl10  1  0.76796500  0.02406400  0.15411100  1
  Cl  Cl11  1  0.73203500  0.47593600  0.65411100  1
  Cl  Cl12  1  0.45797400  0.75000000  0.00560000  1
  Cl  Cl13  1  0.04202600  0.75000000  0.50560000  1
  Cl  Cl14  1  0.54202600  0.25000000  0.99440000  1
  Cl  Cl15  1  0.95797400  0.25000000  0.49440000  1
  Cl  Cl16  1  0.25521900  0.75000000  0.20401800  1
  Cl  Cl17  1  0.24478100  0.75000000  0.70401800  1
  Cl  Cl18  1  0.74478100  0.25000000  0.79598200  1
  Cl  Cl19  1  0.75521900  0.25000000  0.29598200  1
loop_
_geom_bond_atom_site_label_1
_geom_bond_atom_site_label_2
_geom_bond_distance
_geom_bond_site_symmetry_2
Co0 N0 1.686040 1_555
Co0 N20 1.828048 1_555
Co1 N1 1.686040 1_555
Co1 N21 1.828048 1_555
Co2 N2 1.686040 1_555
Co2 N22 1.828048 1_555
Co3 N3 1.686040 1_555
Co3 N23 1.828048 1_555
N10 N18 1.113962 1_555
N11 N19 1.113962 1_555
N12 N4 1.113962 1_555
N13 N5 1.113962 1_555
N14 N6 1.113962 1_555
N15 N7 1.113962 1_555
N16 N8 1.113962 1_555
N17 N9 1.113962 1_555
Cl0 N21 1.718280 1_555
Cl1 N20 1.718280 1_555
Cl2 N23 1.718280 1_555
Cl3 N22 1.718280 1_555
Cl4 Co3 2.265236 1_555
Cl4 Hg0 2.697715 1_555
Cl5 Co2 2.265236 1_555
Cl5 Hg1 2.697715 1_545
Cl6 Co1 2.265236 1_555
Cl6 Hg2 2.697715 1_565
Cl7 Co0 2.265236 1_555
Cl7 Hg3 2.697715 1_555
Cl8 Co1 2.265236 1_555
Cl8 Hg2 2.697715 1_555
Cl9 Co0 2.265236 1_555
Cl9 Hg3 2.697715 1_565
Cl10 Co3 2.265236 1_555
Cl10 Hg0 2.697715 1_545
Cl11 Co2 2.265236 1_555
Cl11 Hg1 2.697715 1_555
Cl12 N21 1.695545 1_554
Cl13 N20 1.695545 1_555
Cl14 N23 1.695545 1_556
Cl15 N22 1.695545 1_555
Cl16 N0 1.677312 1_555
Cl17 N1 1.677312 1_555
Cl18 N2 1.677312 1_555
Cl19 N3 1.677312 1_555
