# generated using pymatgen
data_BP2Pb2O9
_symmetry_space_group_name_H-M   'P 1'
_cell_length_a   8.31411800
_cell_length_b   5.64369000
_cell_length_c   16.77146328
_cell_angle_alpha   72.57747865
_cell_angle_beta   90.00000000
_cell_angle_gamma   90.00000000
_symmetry_Int_Tables_number   1
_chemical_formula_structural   BP2Pb2O9
_chemical_formula_sum   'B4 P8 Pb8 O36'
_cell_volume   750.85231381
_cell_formula_units_Z   4
loop_
 _symmetry_equiv_pos_site_id
 _symmetry_equiv_pos_as_xyz
  1  'x, y, z'
loop_
 _atom_site_type_symbol
 _atom_site_label
 _atom_site_symmetry_multiplicity
 _atom_site_fract_x
 _atom_site_fract_y
 _atom_site_fract_z
 _atom_site_occupancy
  B  B0  1  0.24772500  0.42478700  0.71510600  1
  B  B1  1  0.74772500  0.57521300  0.78489400  1
  B  B2  1  0.75227500  0.57521300  0.28489400  1
  B  B3  1  0.25227500  0.42478700  0.21510600  1
  P  P0  1  0.43668100  0.71402800  0.58327400  1
  P  P1  1  0.93668100  0.28597200  0.91672600  1
  P  P2  1  0.56331900  0.28597200  0.41672600  1
  P  P3  1  0.06331900  0.71402800  0.08327400  1
  P  P4  1  0.95467400  0.64348600  0.64522700  1
  P  P5  1  0.45467400  0.35651400  0.85477300  1
  P  P6  1  0.04532600  0.35651400  0.35477300  1
  P  P7  1  0.54532600  0.64348600  0.14522700  1
  Pb  Pb0  1  0.68785100  0.16716600  0.63327400  1
  Pb  Pb1  1  0.18785100  0.83283400  0.86672600  1
  Pb  Pb2  1  0.31214900  0.83283400  0.36672600  1
  Pb  Pb3  1  0.81214900  0.16716600  0.13327400  1
  Pb  Pb4  1  0.81808500  0.81139000  0.43922900  1
  Pb  Pb5  1  0.31808500  0.18861000  0.06077100  1
  Pb  Pb6  1  0.18191500  0.18861000  0.56077100  1
  Pb  Pb7  1  0.68191500  0.81139000  0.93922900  1
  O  O0  1  0.59514300  0.63678600  0.55156900  1
  O  O1  1  0.09514300  0.36321400  0.94843100  1
  O  O2  1  0.40485700  0.36321400  0.44843100  1
  O  O3  1  0.90485700  0.63678600  0.05156900  1
  O  O4  1  0.81639500  0.53218100  0.70855100  1
  O  O5  1  0.31639500  0.46781900  0.79144900  1
  O  O6  1  0.18360500  0.46781900  0.29144900  1
  O  O7  1  0.68360500  0.53218100  0.20855100  1
  O  O8  1  0.37626100  0.46362800  0.64998900  1
  O  O9  1  0.87626100  0.53637200  0.85001100  1
  O  O10  1  0.62373900  0.53637200  0.35001100  1
  O  O11  1  0.12373900  0.46362800  0.14998900  1
  O  O12  1  0.95154500  0.49575600  0.58212700  1
  O  O13  1  0.45154500  0.50424400  0.91787300  1
  O  O14  1  0.04845500  0.50424400  0.41787300  1
  O  O15  1  0.54845500  0.49575600  0.08212700  1
  O  O16  1  0.92623400  0.92330700  0.60427000  1
  O  O17  1  0.42623400  0.07669300  0.89573000  1
  O  O18  1  0.07376600  0.07669300  0.39573000  1
  O  O19  1  0.57376600  0.92330700  0.10427000  1
  O  O20  1  0.30445500  0.79772600  0.51585900  1
  O  O21  1  0.80445500  0.20227400  0.98414100  1
  O  O22  1  0.69554500  0.20227400  0.48414100  1
  O  O23  1  0.19554500  0.79772600  0.01585900  1
  O  O24  1  0.18462100  0.18305000  0.72385300  1
  O  O25  1  0.68462100  0.81695000  0.77614700  1
  O  O26  1  0.81537900  0.81695000  0.27614700  1
  O  O27  1  0.31537900  0.18305000  0.22385300  1
  O  O28  1  0.12095200  0.62418800  0.69087700  1
  O  O29  1  0.62095200  0.37581200  0.80912300  1
  O  O30  1  0.87904800  0.37581200  0.30912300  1
  O  O31  1  0.37904800  0.62418800  0.19087700  1
  O  O32  1  0.45176600  0.91954600  0.62668200  1
  O  O33  1  0.95176600  0.08045400  0.87331800  1
  O  O34  1  0.54823400  0.08045400  0.37331800  1
  O  O35  1  0.04823400  0.91954600  0.12668200  1
loop_
_geom_bond_atom_site_label_1
_geom_bond_atom_site_label_2
_geom_bond_distance
_geom_bond_site_symmetry_2
B0 O24 1.427661 1_555
B0 O5 1.486786 1_555
B0 O8 1.496474 1_555
B0 O28 1.506200 1_555
B1 O25 1.427661 1_555
B1 O4 1.486786 1_555
B1 O9 1.496474 1_555
B1 O29 1.506200 1_555
B2 O26 1.427661 1_555
B2 O7 1.486786 1_555
B2 O10 1.496474 1_555
B2 O30 1.506200 1_555
B3 O27 1.427661 1_555
B3 O6 1.486786 1_555
B3 O11 1.496474 1_555
B3 O31 1.506200 1_555
O0 P0 1.532098 1_555
O0 Pb4 2.616256 1_555
O0 Pb0 2.705838 1_555
O1 P1 1.532098 1_455
O1 Pb5 2.616256 1_556
O1 Pb1 2.705838 1_555
O2 P2 1.532098 1_555
O2 Pb6 2.616256 1_555
O2 Pb2 2.705838 1_555
O3 P3 1.532098 1_655
O3 Pb7 2.616256 1_554
O3 Pb3 2.705838 1_555
O4 P4 1.563570 1_555
O5 P5 1.563570 1_555
O6 P6 1.563570 1_555
O7 P7 1.563570 1_555
O8 P0 1.598278 1_555
O9 P1 1.598278 1_555
O10 P2 1.598278 1_555
O11 P3 1.598278 1_555
O12 P4 1.531054 1_555
O12 Pb6 2.678311 1_655
O12 Pb4 2.755287 1_555
O13 P5 1.531054 1_555
O13 Pb7 2.678311 1_555
O13 Pb5 2.755287 1_556
O14 P6 1.531054 1_555
O14 Pb4 2.678311 1_455
O14 Pb6 2.755287 1_555
O15 P7 1.531054 1_555
O15 Pb5 2.678311 1_555
O15 Pb7 2.755287 1_554
O16 P4 1.540161 1_555
O16 Pb0 2.541600 1_565
O16 Pb6 2.576595 1_665
O17 P5 1.540161 1_555
O17 Pb1 2.541600 1_545
O17 Pb7 2.576595 1_545
O18 P6 1.540161 1_555
O18 Pb2 2.541600 1_545
O18 Pb4 2.576595 1_445
O19 P7 1.540161 1_555
O19 Pb3 2.541600 1_565
O19 Pb5 2.576595 1_565
O20 P0 1.546035 1_555
O20 Pb2 2.449995 1_555
O20 Pb6 2.732575 1_565
O21 P1 1.546035 1_555
O21 Pb3 2.449995 1_556
O21 Pb7 2.732575 1_545
O22 P2 1.546035 1_555
O22 Pb0 2.449995 1_555
O22 Pb4 2.732575 1_545
O23 P3 1.546035 1_555
O23 Pb1 2.449995 1_554
O23 Pb5 2.732575 1_565
O24 Pb1 2.610156 1_545
O24 Pb6 2.725986 1_555
O25 Pb0 2.610156 1_565
O25 Pb7 2.725986 1_555
O26 Pb3 2.610156 1_565
O26 Pb4 2.725986 1_555
O27 Pb2 2.610156 1_545
O27 Pb5 2.725986 1_555
O28 P4 1.568209 1_455
O29 P5 1.568209 1_555
O30 P6 1.568209 1_655
O31 P7 1.568209 1_555
O32 P0 1.548134 1_555
O32 Pb0 2.431144 1_565
O32 Pb6 2.748866 1_565
O33 P1 1.548134 1_555
O33 Pb1 2.431144 1_645
O33 Pb7 2.748866 1_545
O34 P2 1.548134 1_555
O34 Pb2 2.431144 1_545
O34 Pb4 2.748866 1_545
O35 P3 1.548134 1_555
O35 Pb3 2.431144 1_465
O35 Pb5 2.748866 1_565
