# generated using pymatgen
data_HfCrAgS4
_symmetry_space_group_name_H-M   'P 1'
_cell_length_a   7.13157900
_cell_length_b   6.17040300
_cell_length_c   6.55323308
_cell_angle_alpha   88.54873852
_cell_angle_beta   90.00000000
_cell_angle_gamma   90.00000000
_symmetry_Int_Tables_number   1
_chemical_formula_structural   HfCrAgS4
_chemical_formula_sum   'Hf2 Cr2 Ag2 S8'
_cell_volume   288.28066212
_cell_formula_units_Z   2
loop_
 _symmetry_equiv_pos_site_id
 _symmetry_equiv_pos_as_xyz
  1  'x, y, z'
loop_
 _atom_site_type_symbol
 _atom_site_label
 _atom_site_symmetry_multiplicity
 _atom_site_fract_x
 _atom_site_fract_y
 _atom_site_fract_z
 _atom_site_occupancy
  Hf  Hf0  1  0.23933400  0.00000000  0.50000000  1
  Hf  Hf1  1  0.51213100  0.50000000  0.50000000  1
  Cr  Cr0  1  0.75055400  0.00000000  0.50000000  1
  Cr  Cr1  1  0.00022500  0.50000000  0.50000000  1
  Ag  Ag0  1  0.99595100  0.50000000  0.00000000  1
  Ag  Ag1  1  0.50362300  0.50000000  0.00000000  1
  S  S0  1  0.98712700  0.82023900  0.70917600  1
  S  S1  1  0.50711100  0.83616200  0.71900300  1
  S  S2  1  0.24250000  0.33430800  0.72216500  1
  S  S3  1  0.76236200  0.31840900  0.71351600  1
  S  S4  1  0.24250000  0.66569200  0.27783500  1
  S  S5  1  0.76236200  0.68159100  0.28648400  1
  S  S6  1  0.50711100  0.16383800  0.28099700  1
  S  S7  1  0.98712700  0.17976100  0.29082400  1
loop_
_geom_bond_atom_site_label_1
_geom_bond_atom_site_label_2
_geom_bond_distance
_geom_bond_site_symmetry_2
Hf0 S0 2.503482 1_445
Hf0 S7 2.503482 1_455
Hf0 S2 2.554894 1_555
Hf0 S4 2.554894 1_545
Hf0 S6 2.579749 1_555
Hf0 S1 2.579749 1_545
Hf1 S3 2.513661 1_555
Hf1 S5 2.513661 1_555
Hf1 S1 2.552321 1_555
Hf1 S6 2.552321 1_555
Hf1 S2 2.605195 1_555
Hf1 S4 2.605195 1_555
Cr0 S0 2.424619 1_545
Cr0 S7 2.424619 1_555
Cr0 S3 2.442181 1_555
Cr0 S5 2.442181 1_545
Cr0 S6 2.454061 1_555
Cr0 S1 2.454061 1_545
Cr1 S0 2.435067 1_455
Cr1 S7 2.435067 1_455
Cr1 S3 2.451829 1_455
Cr1 S5 2.451829 1_455
Cr1 S4 2.464716 1_555
Cr1 S2 2.464716 1_555
Ag0 S7 2.711090 1_555
Ag0 S0 2.711090 1_554
Ag0 S4 2.747023 1_655
Ag0 S2 2.747023 1_654
Ag0 S5 2.767987 1_555
Ag0 S3 2.767987 1_554
Ag1 S1 2.738718 1_554
Ag1 S6 2.738718 1_555
Ag1 S4 2.814682 1_555
Ag1 S2 2.814682 1_554
Ag1 S5 2.879496 1_555
Ag1 S3 2.879496 1_554
