# generated using pymatgen
data_TiZn(Si2O5)2
_symmetry_space_group_name_H-M   'P 1'
_cell_length_a   7.44418900
_cell_length_b   7.44418900
_cell_length_c   15.72651200
_cell_angle_alpha   90.00000000
_cell_angle_beta   90.00000000
_cell_angle_gamma   90.00000000
_symmetry_Int_Tables_number   1
_chemical_formula_structural   TiZn(Si2O5)2
_chemical_formula_sum   'Ti4 Zn4 Si16 O40'
_cell_volume   871.49960059
_cell_formula_units_Z   4
loop_
 _symmetry_equiv_pos_site_id
 _symmetry_equiv_pos_as_xyz
  1  'x, y, z'
loop_
 _atom_site_type_symbol
 _atom_site_label
 _atom_site_symmetry_multiplicity
 _atom_site_fract_x
 _atom_site_fract_y
 _atom_site_fract_z
 _atom_site_occupancy
  Ti  Ti0  1  0.50000000  0.00000000  0.57486500  1
  Ti  Ti1  1  0.00000000  0.50000000  0.92513500  1
  Ti  Ti2  1  0.00000000  0.50000000  0.42513500  1
  Ti  Ti3  1  0.50000000  0.00000000  0.07486500  1
  Zn  Zn0  1  0.50000000  0.50000000  0.50000000  1
  Zn  Zn1  1  0.00000000  0.00000000  0.50000000  1
  Zn  Zn2  1  0.00000000  0.00000000  0.00000000  1
  Zn  Zn3  1  0.50000000  0.50000000  0.00000000  1
  Si  Si0  1  0.16945200  0.25161500  0.65032800  1
  Si  Si1  1  0.83054800  0.74838500  0.65032800  1
  Si  Si2  1  0.25161500  0.16945200  0.84967200  1
  Si  Si3  1  0.75161500  0.33054800  0.65032800  1
  Si  Si4  1  0.24838500  0.66945200  0.65032800  1
  Si  Si5  1  0.33054800  0.75161500  0.84967200  1
  Si  Si6  1  0.66945200  0.24838500  0.84967200  1
  Si  Si7  1  0.74838500  0.83054800  0.84967200  1
  Si  Si8  1  0.33054800  0.24838500  0.34967200  1
  Si  Si9  1  0.66945200  0.75161500  0.34967200  1
  Si  Si10  1  0.24838500  0.33054800  0.15032800  1
  Si  Si11  1  0.74838500  0.16945200  0.34967200  1
  Si  Si12  1  0.25161500  0.83054800  0.34967200  1
  Si  Si13  1  0.16945200  0.74838500  0.15032800  1
  Si  Si14  1  0.83054800  0.25161500  0.15032800  1
  Si  Si15  1  0.75161500  0.66945200  0.15032800  1
  O  O0  1  0.25935300  0.10432600  0.58737400  1
  O  O1  1  0.74064700  0.89567400  0.58737400  1
  O  O2  1  0.10432600  0.25935300  0.91262600  1
  O  O3  1  0.60432600  0.24064700  0.58737400  1
  O  O4  1  0.39567400  0.75935300  0.58737400  1
  O  O5  1  0.24064700  0.60432600  0.91262600  1
  O  O6  1  0.75935300  0.39567400  0.91262600  1
  O  O7  1  0.89567400  0.74064700  0.91262600  1
  O  O8  1  0.24064700  0.39567400  0.41262600  1
  O  O9  1  0.75935300  0.60432600  0.41262600  1
  O  O10  1  0.39567400  0.24064700  0.08737400  1
  O  O11  1  0.89567400  0.25935300  0.41262600  1
  O  O12  1  0.10432600  0.74064700  0.41262600  1
  O  O13  1  0.25935300  0.89567400  0.08737400  1
  O  O14  1  0.74064700  0.10432600  0.08737400  1
  O  O15  1  0.25220400  0.04688700  0.36888400  1
  O  O16  1  0.60432600  0.75935300  0.08737400  1
  O  O17  1  0.75220400  0.54688700  0.63111600  1
  O  O18  1  0.45311300  0.24779600  0.86888400  1
  O  O19  1  0.95311300  0.25220400  0.63111600  1
  O  O20  1  0.04688700  0.74779600  0.63111600  1
  O  O21  1  0.25220400  0.95311300  0.86888400  1
  O  O22  1  0.74779600  0.04688700  0.86888400  1
  O  O23  1  0.54688700  0.75220400  0.86888400  1
  O  O24  1  0.70296700  0.70296700  0.25000000  1
  O  O25  1  0.79703300  0.20296700  0.25000000  1
  O  O26  1  0.20296700  0.79703300  0.25000000  1
  O  O27  1  0.29703300  0.29703300  0.25000000  1
  O  O28  1  0.79703300  0.79703300  0.75000000  1
  O  O29  1  0.70296700  0.29703300  0.75000000  1
  O  O30  1  0.29703300  0.70296700  0.75000000  1
  O  O31  1  0.20296700  0.20296700  0.75000000  1
  O  O32  1  0.95311300  0.74779600  0.13111600  1
  O  O33  1  0.75220400  0.45311300  0.13111600  1
  O  O34  1  0.24779600  0.54688700  0.13111600  1
  O  O35  1  0.45311300  0.75220400  0.36888400  1
  O  O36  1  0.54688700  0.24779600  0.36888400  1
  O  O37  1  0.04688700  0.25220400  0.13111600  1
  O  O38  1  0.74779600  0.95311300  0.36888400  1
  O  O39  1  0.24779600  0.45311300  0.63111600  1
loop_
_geom_bond_atom_site_label_1
_geom_bond_atom_site_label_2
_geom_bond_distance
_geom_bond_site_symmetry_2
O0 Si0 1.621811 1_555
O0 Ti0 1.962405 1_555
O0 Zn1 2.493744 1_555
O1 Si1 1.621811 1_555
O1 Ti0 1.962405 1_565
O1 Zn1 2.493744 1_665
O2 Si2 1.621811 1_555
O2 Ti1 1.962405 1_555
O2 Zn2 2.493744 1_556
O3 Si3 1.621811 1_555
O3 Ti0 1.962405 1_555
O3 Zn0 2.493744 1_555
O4 Si4 1.621811 1_555
O4 Ti0 1.962405 1_565
O4 Zn0 2.493744 1_555
O5 Si5 1.621811 1_555
O5 Ti1 1.962405 1_555
O5 Zn3 2.493744 1_556
O6 Si6 1.621811 1_555
O6 Ti1 1.962405 1_655
O6 Zn3 2.493744 1_556
O7 Si7 1.621811 1_555
O7 Ti1 1.962405 1_655
O7 Zn2 2.493744 1_666
O8 Si8 1.621811 1_555
O8 Ti2 1.962405 1_555
O8 Zn0 2.493744 1_555
O9 Si9 1.621811 1_555
O9 Ti2 1.962405 1_655
O9 Zn0 2.493744 1_555
O10 Si10 1.621811 1_555
O10 Ti3 1.962405 1_555
O10 Zn3 2.493744 1_555
O11 Si11 1.621811 1_555
O11 Ti2 1.962405 1_655
O11 Zn1 2.493744 1_655
O12 Si12 1.621811 1_555
O12 Ti2 1.962405 1_555
O12 Zn1 2.493744 1_565
O13 Si13 1.621811 1_555
O13 Ti3 1.962405 1_565
O13 Zn2 2.493744 1_565
O14 Si14 1.621811 1_555
O14 Ti3 1.962405 1_555
O14 Zn2 2.493744 1_655
O15 Si8 1.637494 1_555
O15 Si12 1.638571 1_545
O16 Si15 1.621811 1_555
O16 Ti3 1.962405 1_565
O16 Zn3 2.493744 1_555
O17 Si1 1.637494 1_555
O17 Si3 1.638571 1_555
O18 Si2 1.637494 1_555
O18 Si6 1.638571 1_555
O19 Si3 1.637494 1_555
O19 Si0 1.638571 1_655
O20 Si4 1.637494 1_555
O20 Si1 1.638571 1_455
O21 Si5 1.637494 1_555
O21 Si2 1.638571 1_565
O22 Si6 1.637494 1_555
O22 Si7 1.638571 1_545
O23 Si7 1.637494 1_555
O23 Si5 1.638571 1_555
O24 Si9 1.628014 1_555
O24 Si15 1.628014 1_555
O25 Si11 1.628014 1_555
O25 Si14 1.628014 1_555
O26 Si12 1.628014 1_555
O26 Si13 1.628014 1_555
O27 Si8 1.628014 1_555
O27 Si10 1.628014 1_555
O28 Si1 1.628014 1_555
O28 Si7 1.628014 1_555
O29 Si6 1.628014 1_555
O29 Si3 1.628014 1_555
O30 Si4 1.628014 1_555
O30 Si5 1.628014 1_555
O31 Si0 1.628014 1_555
O31 Si2 1.628014 1_555
O32 Si15 1.637494 1_555
O32 Si13 1.638571 1_655
O33 Si14 1.637494 1_555
O33 Si15 1.638571 1_555
O34 Si13 1.637494 1_555
O34 Si10 1.638571 1_555
O35 Si12 1.637494 1_555
O35 Si9 1.638571 1_555
O36 Si11 1.637494 1_555
O36 Si8 1.638571 1_555
O37 Si10 1.637494 1_555
O37 Si14 1.638571 1_455
O38 Si9 1.637494 1_555
O38 Si11 1.638571 1_565
O39 Si0 1.637494 1_555
O39 Si4 1.638571 1_555
