# generated using pymatgen
data_EuSnP
_symmetry_space_group_name_H-M   'P 1'
_cell_length_a   4.28218452
_cell_length_b   4.28218452
_cell_length_c   8.73005588
_cell_angle_alpha   90.00000000
_cell_angle_beta   90.00000000
_cell_angle_gamma   90.00000000
_symmetry_Int_Tables_number   1
_chemical_formula_structural   EuSnP
_chemical_formula_sum   'Eu2 Sn2 P2'
_cell_volume   160.08394490
_cell_formula_units_Z   2
loop_
 _symmetry_equiv_pos_site_id
 _symmetry_equiv_pos_as_xyz
  1  'x, y, z'
loop_
 _atom_site_type_symbol
 _atom_site_label
 _atom_site_symmetry_multiplicity
 _atom_site_fract_x
 _atom_site_fract_y
 _atom_site_fract_z
 _atom_site_occupancy
  Eu  Eu0  1  0.75000000  0.75000000  0.16921853  1
  Eu  Eu1  1  0.25000000  0.25000000  0.83078147  1
  Sn  Sn0  1  0.25000000  0.25000000  0.45077582  1
  Sn  Sn1  1  0.75000000  0.75000000  0.54922418  1
  P  P0  1  0.75000000  0.75000000  0.83383802  1
  P  P1  1  0.25000000  0.25000000  0.16616298  1
loop_
_geom_bond_atom_site_label_1
_geom_bond_atom_site_label_2
_geom_bond_distance
_geom_bond_site_symmetry_2
Eu0 P0 2.927891 1_554
Eu0 P1 3.028079 1_665
Eu0 P1 3.028079 1_655
Eu0 P1 3.028079 1_565
Eu0 P1 3.028079 1_555
Eu0 Sn1 3.317471 1_555
Eu1 P1 2.927899 1_556
Eu1 P0 3.028079 1_555
Eu1 P0 3.028079 1_455
Eu1 P0 3.028079 1_445
Eu1 P0 3.028079 1_545
Eu1 Sn0 3.317471 1_555
P0 Sn1 2.484695 1_555
P1 Sn0 2.484686 1_555
