# generated using pymatgen
data_Na2CoO3
_symmetry_space_group_name_H-M   'P 1'
_cell_length_a   5.06289527
_cell_length_b   6.02021010
_cell_length_c   11.28291100
_cell_angle_alpha   89.99929809
_cell_angle_beta   89.99966394
_cell_angle_gamma   90.41944133
_symmetry_Int_Tables_number   1
_chemical_formula_structural   Na2CoO3
_chemical_formula_sum   'Na8 Co4 O12'
_cell_volume   343.89045135
_cell_formula_units_Z   4
loop_
 _symmetry_equiv_pos_site_id
 _symmetry_equiv_pos_as_xyz
  1  'x, y, z'
loop_
 _atom_site_type_symbol
 _atom_site_label
 _atom_site_symmetry_multiplicity
 _atom_site_fract_x
 _atom_site_fract_y
 _atom_site_fract_z
 _atom_site_occupancy
  Na  Na0  1  0.51332100  0.18605500  0.33450500  1
  Na  Na1  1  0.51315200  0.67880600  0.83621800  1
  Na  Na2  1  0.01469200  0.81875700  0.33859800  1
  Na  Na3  1  0.01761600  0.31983800  0.83869300  1
  Na  Na4  1  0.51314200  0.67881600  0.16378700  1
  Na  Na5  1  0.51333100  0.18605400  0.66548900  1
  Na  Na6  1  0.01761600  0.31984300  0.16131000  1
  Na  Na7  1  0.01468900  0.81875900  0.66140700  1
  Co  Co0  1  0.04132800  0.31883700  0.50000300  1
  Co  Co1  1  0.54259000  0.68179200  0.49999200  1
  Co  Co2  1  0.03850000  0.81411400  0.00002500  1
  Co  Co3  1  0.54865700  0.15930800  0.00000300  1
  O  O0  1  0.40747700  0.87979700  0.00000000  1
  O  O1  1  0.39154300  0.39594700  0.49999900  1
  O  O2  1  0.90708300  0.10651100  0.99999900  1
  O  O3  1  0.89153000  0.60310400  0.49999800  1
  O  O4  1  0.99510200  0.21078900  0.35914100  1
  O  O5  1  0.99427700  0.71452500  0.85846800  1
  O  O6  1  0.49680200  0.79160500  0.35974200  1
  O  O7  1  0.48668200  0.29989800  0.86524700  1
  O  O8  1  0.99427900  0.71454400  0.14150400  1
  O  O9  1  0.99510500  0.21079400  0.64085200  1
  O  O10  1  0.48668000  0.29989700  0.13475300  1
  O  O11  1  0.49680100  0.79161100  0.64026500  1
loop_
_geom_bond_atom_site_label_1
_geom_bond_atom_site_label_2
_geom_bond_distance
_geom_bond_site_symmetry_2
Na0 O1 2.339849 1_555
Na0 O10 2.359823 1_555
Na0 O6 2.392534 1_545
Na0 O4 2.458426 1_555
Na0 O4 2.643651 1_455
Na1 O0 2.274811 1_556
Na1 O7 2.307420 1_555
Na1 O11 2.314519 1_555
Na1 O5 2.456652 1_555
Na1 O5 2.649285 1_455
Na2 O8 2.312713 1_455
Na2 O3 2.319199 1_455
Na2 O4 2.374267 1_465
Na2 O6 2.459134 1_555
Na2 O6 2.636732 1_455
Na3 O2 2.294415 1_455
Na3 O9 2.329313 1_455
Na3 O5 2.390337 1_455
Na3 O7 2.397537 1_555
Na3 O7 2.706497 1_455
Na4 O0 2.274793 1_555
Na4 O10 2.307499 1_555
Na4 O6 2.314526 1_555
Na4 O8 2.456752 1_555
Na4 O8 2.649267 1_455
Na5 O1 2.339810 1_555
Na5 O7 2.359908 1_555
Na5 O11 2.392483 1_545
Na5 O9 2.458390 1_555
Na5 O9 2.643693 1_455
Na6 O2 2.294507 1_454
Na6 O4 2.329206 1_455
Na6 O8 2.390448 1_455
Na6 O10 2.397530 1_555
Na6 O10 2.706515 1_455
Na7 O5 2.312373 1_455
Na7 O3 2.319313 1_455
Na7 O9 2.374291 1_465
Na7 O11 2.459137 1_555
Na7 O11 2.636721 1_455
Co0 O9 1.732367 1_455
Co0 O4 1.732532 1_455
Co0 O1 1.829573 1_555
Co0 O3 1.876939 1_455
Co1 O6 1.731211 1_555
Co1 O11 1.731475 1_555
Co1 O3 1.832403 1_555
Co1 O1 1.877995 1_555
Co2 O8 1.719189 1_455
Co2 O5 1.720063 1_454
Co2 O2 1.886389 1_464
Co2 O0 1.906650 1_555
Co3 O10 1.769253 1_555
Co3 O7 1.769298 1_554
Co3 O0 1.823411 1_545
Co3 O2 1.844590 1_554
