# generated using pymatgen
data_Li3Mn(CoO3)2
_symmetry_space_group_name_H-M   'P 1'
_cell_length_a   2.97799360
_cell_length_b   2.97799360
_cell_length_c   14.51213200
_cell_angle_alpha   90.00000000
_cell_angle_beta   90.00000000
_cell_angle_gamma   119.99999122
_symmetry_Int_Tables_number   1
_chemical_formula_structural   Li3Mn(CoO3)2
_chemical_formula_sum   'Li3 Mn1 Co2 O6'
_cell_volume   111.45752928
_cell_formula_units_Z   1
loop_
 _symmetry_equiv_pos_site_id
 _symmetry_equiv_pos_as_xyz
  1  'x, y, z'
loop_
 _atom_site_type_symbol
 _atom_site_label
 _atom_site_symmetry_multiplicity
 _atom_site_fract_x
 _atom_site_fract_y
 _atom_site_fract_z
 _atom_site_occupancy
  Li  Li0  1  0.33333300  0.66666700  0.32783000  1
  Li  Li1  1  0.66666700  0.33333300  0.67217000  1
  Li  Li2  1  0.00000000  0.00000000  0.00000000  1
  Mn  Mn0  1  0.00000000  0.00000000  0.50000000  1
  Co  Co0  1  0.33333300  0.66666700  0.83350900  1
  Co  Co1  1  0.66666700  0.33333300  0.16649100  1
  O  O0  1  0.33333300  0.66666700  0.57685600  1
  O  O1  1  0.66666700  0.33333300  0.90839200  1
  O  O2  1  0.00000000  0.00000000  0.24249300  1
  O  O3  1  0.33333300  0.66666700  0.09160800  1
  O  O4  1  0.66666700  0.33333300  0.42314400  1
  O  O5  1  0.00000000  0.00000000  0.75750700  1
loop_
_geom_bond_atom_site_label_1
_geom_bond_atom_site_label_2
_geom_bond_distance
_geom_bond_site_symmetry_2
Li0 O2 2.118922 1_565
Li0 O2 2.118924 1_665
Li0 O2 2.118924 1_555
Li0 O4 2.206674 1_455
Li0 O4 2.206674 1_565
Li0 O4 2.206678 1_555
Li1 O5 2.118922 1_655
Li1 O5 2.118924 1_665
Li1 O5 2.118924 1_555
Li1 O0 2.206674 1_545
Li1 O0 2.206674 1_655
Li1 O0 2.206678 1_555
Li2 O3 2.173366 1_545
Li2 O1 2.173366 1_454
Li2 O3 2.173368 1_555
Li2 O1 2.173368 1_554
Li2 O3 2.173368 1_445
Li2 O1 2.173368 1_444
Mn0 O4 2.049423 1_455
Mn0 O0 2.049423 1_545
Mn0 O4 2.049426 1_555
Mn0 O4 2.049426 1_445
Mn0 O0 2.049426 1_555
Mn0 O0 2.049426 1_445
Co0 O1 2.033983 1_455
Co0 O1 2.033983 1_565
Co0 O1 2.033987 1_555
Co0 O5 2.042705 1_565
Co0 O5 2.042707 1_665
Co0 O5 2.042707 1_555
Co1 O3 2.033983 1_545
Co1 O3 2.033983 1_655
Co1 O3 2.033987 1_555
Co1 O2 2.042705 1_655
Co1 O2 2.042707 1_665
Co1 O2 2.042707 1_555
