# generated using pymatgen
data_HfCrCuS4
_symmetry_space_group_name_H-M   'P 1'
_cell_length_a   11.67022874
_cell_length_b   6.94281221
_cell_length_c   12.57568749
_cell_angle_alpha   86.34390061
_cell_angle_beta   90.28031350
_cell_angle_gamma   91.70691308
_symmetry_Int_Tables_number   1
_chemical_formula_structural   HfCrCuS4
_chemical_formula_sum   'Hf8 Cr8 Cu8 S32'
_cell_volume   1016.40555115
_cell_formula_units_Z   8
loop_
 _symmetry_equiv_pos_site_id
 _symmetry_equiv_pos_as_xyz
  1  'x, y, z'
loop_
 _atom_site_type_symbol
 _atom_site_label
 _atom_site_symmetry_multiplicity
 _atom_site_fract_x
 _atom_site_fract_y
 _atom_site_fract_z
 _atom_site_occupancy
  Hf  Hf0  1  0.11693900  0.87562100  0.69441500  1
  Hf  Hf1  1  0.88244400  0.15961300  0.18386900  1
  Hf  Hf2  1  0.38763600  0.95029600  0.17879900  1
  Hf  Hf3  1  0.60383300  0.08875200  0.69453400  1
  Hf  Hf4  1  0.89872200  0.55176900  0.84339900  1
  Hf  Hf5  1  0.38663800  0.34946800  0.83751700  1
  Hf  Hf6  1  0.61049800  0.63739200  0.33341000  1
  Hf  Hf7  1  0.87511200  0.38225700  0.49949200  1
  Cr  Cr0  1  0.12093000  0.40225300  0.32677300  1
  Cr  Cr1  1  0.15744000  0.61426400  0.95673200  1
  Cr  Cr2  1  0.33966900  0.63719400  0.44217500  1
  Cr  Cr3  1  0.64313200  0.30028800  0.96595700  1
  Cr  Cr4  1  0.14453800  0.15425100  0.08205500  1
  Cr  Cr5  1  0.85270600  0.89799700  0.46154800  1
  Cr  Cr6  1  0.34108300  0.12547700  0.45099700  1
  Cr  Cr7  1  0.65284500  0.80189700  0.96645900  1
  Cu  Cu0  1  0.09985100  0.32227500  0.63380200  1
  Cu  Cu1  1  0.87705900  0.58761000  0.18014100  1
  Cu  Cu2  1  0.41458800  0.49118600  0.16541800  1
  Cu  Cu3  1  0.61036300  0.66191800  0.67332300  1
  Cu  Cu4  1  0.12847000  0.83977800  0.33095300  1
  Cu  Cu5  1  0.89800200  0.10438300  0.80268100  1
  Cu  Cu6  1  0.36773100  0.93999200  0.76573100  1
  Cu  Cu7  1  0.63373300  0.12536900  0.26575800  1
  S  S0  1  0.01693900  0.84295400  0.87879700  1
  S  S1  1  0.97198200  0.15794100  0.37625600  1
  S  S2  1  0.46799000  0.90132400  0.37103300  1
  S  S3  1  0.51139900  0.05410500  0.88709400  1
  S  S4  1  0.04396300  0.41939300  0.15101300  1
  S  S5  1  0.98095900  0.57784600  0.65093300  1
  S  S6  1  0.49217800  0.38924900  0.66547700  1
  S  S7  1  0.55041100  0.73502500  0.13982100  1
  S  S8  1  0.03932000  0.33195300  0.91427700  1
  S  S9  1  0.97214700  0.63685600  0.37410000  1
  S  S10  1  0.46957000  0.39536400  0.40087700  1
  S  S11  1  0.53072800  0.56081600  0.91096900  1
  S  S12  1  0.01407200  0.90929500  0.15519000  1
  S  S13  1  0.95678400  0.08288300  0.62531900  1
  S  S14  1  0.46552100  0.87736000  0.61733200  1
  S  S15  1  0.52155400  0.22619200  0.12889400  1
  S  S16  1  0.21080100  0.86419000  0.51050900  1
  S  S17  1  0.77004500  0.05873000  0.02519400  1
  S  S18  1  0.25790800  0.89084400  0.02955600  1
  S  S19  1  0.71533200  0.12552400  0.51996700  1
  S  S20  1  0.21819700  0.37321100  0.49337000  1
  S  S21  1  0.78026100  0.55760800  0.01814900  1
  S  S22  1  0.28910000  0.38954600  0.02468800  1
  S  S23  1  0.72149400  0.63976300  0.51577300  1
  S  S24  1  0.22361400  0.16334300  0.75623000  1
  S  S25  1  0.76636100  0.89387700  0.29196300  1
  S  S26  1  0.23269800  0.13178200  0.27299200  1
  S  S27  1  0.73239700  0.82446500  0.78766000  1
  S  S28  1  0.26189200  0.65289000  0.79600100  1
  S  S29  1  0.75367500  0.39226700  0.29585600  1
  S  S30  1  0.26908700  0.62715900  0.27035100  1
  S  S31  1  0.74766000  0.31494500  0.79642400  1
loop_
_geom_bond_atom_site_label_1
_geom_bond_atom_site_label_2
_geom_bond_distance
_geom_bond_site_symmetry_2
Hf0 S24 2.486958 1_565
Hf0 S13 2.510758 1_465
Hf0 S16 2.570670 1_555
Hf0 S0 2.594905 1_555
Hf0 S28 2.601481 1_555
Hf0 S5 2.651731 1_455
Hf1 S12 2.398854 1_645
Hf1 S17 2.508168 1_555
Hf1 S25 2.576088 1_545
Hf1 S4 2.585893 1_655
Hf1 S1 2.630191 1_555
Hf1 S29 2.702996 1_555
Hf2 S18 2.453306 1_555
Hf2 S15 2.486652 1_565
Hf2 S7 2.520775 1_555
Hf2 S26 2.570464 1_565
Hf2 S2 2.594445 1_555
Hf2 S30 2.788202 1_555
Hf3 S14 2.393174 1_545
Hf3 S6 2.498825 1_555
Hf3 S19 2.552327 1_555
Hf3 S27 2.619588 1_545
Hf3 S31 2.646493 1_555
Hf3 S3 2.649782 1_555
Hf4 S8 2.403588 1_655
Hf4 S31 2.470095 1_555
Hf4 S0 2.476118 1_655
Hf4 S5 2.601661 1_555
Hf4 S21 2.605137 1_556
Hf4 S27 2.807112 1_555
Hf5 S11 2.417577 1_555
Hf5 S6 2.490729 1_555
Hf5 S24 2.517424 1_555
Hf5 S3 2.592241 1_555
Hf5 S28 2.620066 1_555
Hf5 S22 2.653703 1_556
Hf6 S10 2.432191 1_555
Hf6 S29 2.488156 1_555
Hf6 S25 2.539529 1_555
Hf6 S2 2.578252 1_555
Hf6 S7 2.584417 1_555
Hf6 S23 2.629084 1_555
Hf7 S9 2.536971 1_555
Hf7 S19 2.543340 1_555
Hf7 S1 2.556388 1_555
Hf7 S23 2.587161 1_555
Hf7 S5 2.683982 1_555
Hf7 S13 2.723286 1_555
Hf7 S29 2.918725 1_555
Cr0 S30 2.375094 1_555
Cr0 S20 2.378022 1_555
Cr0 S4 2.379033 1_555
Cr0 S1 2.446677 1_455
Cr0 S26 2.449805 1_555
Cr0 S9 2.514818 1_455
Cr1 S22 2.342057 1_556
Cr1 S28 2.361989 1_555
Cr1 S18 2.445488 1_556
Cr1 S8 2.447918 1_555
Cr1 S0 2.472039 1_555
Cr1 S4 3.009471 1_556
Cr2 S30 2.313178 1_555
Cr2 S20 2.342405 1_555
Cr2 S10 2.378534 1_555
Cr2 S16 2.410511 1_555
Cr2 S2 2.458890 1_555
Cr3 S11 2.333165 1_555
Cr3 S17 2.353529 1_556
Cr3 S31 2.456463 1_555
Cr3 S21 2.480415 1_556
Cr3 S3 2.512596 1_555
Cr3 S15 2.515327 1_556
Cr4 S12 2.390896 1_545
Cr4 S22 2.394320 1_555
Cr4 S18 2.416088 1_545
Cr4 S4 2.420868 1_555
Cr4 S26 2.605008 1_555
Cr4 S8 2.686003 1_554
Cr5 S25 2.355723 1_555
Cr5 S23 2.390593 1_555
Cr5 S19 2.432224 1_565
Cr5 S1 2.441977 1_565
Cr5 S9 2.619036 1_555
Cr5 S13 2.753991 1_565
Cr6 S20 2.360133 1_555
Cr6 S16 2.415843 1_545
Cr6 S10 2.418256 1_555
Cr6 S2 2.445013 1_545
Cr6 S26 2.564365 1_555
Cr6 S14 3.018556 1_545
Cr7 S11 2.305782 1_555
Cr7 S21 2.347427 1_556
Cr7 S17 2.368273 1_566
Cr7 S27 2.430870 1_555
Cr7 S7 2.502197 1_556
Cr7 S3 2.592350 1_565
Cu0 S20 2.250898 1_555
Cu0 S5 2.306151 1_455
Cu0 S13 2.327445 1_455
Cu0 S24 2.351730 1_555
Cu1 S21 2.342459 1_555
Cu1 S4 2.342901 1_655
Cu1 S29 2.383859 1_555
Cu1 S12 2.710356 1_655
Cu1 S9 2.712037 1_555
Cu1 S25 2.954758 1_555
Cu1 Hf1 2.971415 1_555
Cu2 S7 2.292979 1_555
Cu2 S15 2.324725 1_555
Cu2 S30 2.406691 1_555
Cu2 S22 2.418080 1_555
Cu3 S6 2.315769 1_555
Cu3 S27 2.336762 1_555
Cu3 S14 2.365382 1_555
Cu3 S23 2.388957 1_555
Cu4 S9 2.316573 1_455
Cu4 S30 2.398525 1_555
Cu4 S26 2.407116 1_565
Cu4 S16 2.463438 1_555
Cu4 S12 2.602762 1_555
Cu4 S1 2.991691 1_465
Cu5 S31 2.314835 1_555
Cu5 S13 2.351874 1_555
Cu5 S0 2.460240 1_645
Cu5 S8 2.700122 1_655
Cu5 S27 2.714255 1_545
Cu6 S14 2.264547 1_555
Cu6 S24 2.318920 1_565
Cu6 S28 2.324849 1_555
Cu6 S3 2.412094 1_565
Cu7 S15 2.246143 1_555
Cu7 S25 2.272235 1_545
Cu7 S29 2.337949 1_555
Cu7 S2 2.738037 1_545
