# generated using pymatgen
data_Sm4MgNi
_symmetry_space_group_name_H-M   'P 1'
_cell_length_a   9.78449921
_cell_length_b   9.78449623
_cell_length_c   9.78449267
_cell_angle_alpha   60.00148758
_cell_angle_beta   60.00149071
_cell_angle_gamma   60.00151031
_symmetry_Int_Tables_number   1
_chemical_formula_structural   Sm4MgNi
_chemical_formula_sum   'Sm16 Mg4 Ni4'
_cell_volume   662.39206165
_cell_formula_units_Z   4
loop_
 _symmetry_equiv_pos_site_id
 _symmetry_equiv_pos_as_xyz
  1  'x, y, z'
loop_
 _atom_site_type_symbol
 _atom_site_label
 _atom_site_symmetry_multiplicity
 _atom_site_fract_x
 _atom_site_fract_y
 _atom_site_fract_z
 _atom_site_occupancy
  Sm  Sm0  1  0.59579746  0.59579663  0.59579504  1
  Sm  Sm1  1  0.59579574  0.59579468  0.21261130  1
  Sm  Sm2  1  0.59579656  0.21261096  0.59579394  1
  Sm  Sm3  1  0.21261118  0.59579539  0.59579381  1
  Sm  Sm4  1  0.06145290  0.43854737  0.43854634  1
  Sm  Sm5  1  0.43854491  0.06145390  0.06145500  1
  Sm  Sm6  1  0.43854754  0.06145384  0.43854570  1
  Sm  Sm7  1  0.06145335  0.43854496  0.06145515  1
  Sm  Sm8  1  0.43854706  0.43854599  0.06145469  1
  Sm  Sm9  1  0.06145333  0.06145411  0.43854492  1
  Sm  Sm10  1  0.18607572  0.81392664  0.81392569  1
  Sm  Sm11  1  0.81392559  0.18607261  0.18607433  1
  Sm  Sm12  1  0.81392694  0.18607652  0.81392556  1
  Sm  Sm13  1  0.18607183  0.81392532  0.18607497  1
  Sm  Sm14  1  0.81392609  0.81392632  0.18607743  1
  Sm  Sm15  1  0.18607280  0.18607410  0.81392443  1
  Mg  Mg0  1  0.82897307  0.82897310  0.82897347  1
  Mg  Mg1  1  0.82898611  0.82898579  0.51305568  1
  Mg  Mg2  1  0.82898597  0.51305503  0.82898633  1
  Mg  Mg3  1  0.51305518  0.82898614  0.82898636  1
  Ni  Ni0  1  0.39212317  0.39212321  0.39212363  1
  Ni  Ni1  1  0.39212589  0.39212630  0.82362530  1
  Ni  Ni2  1  0.39212632  0.82362487  0.39212638  1
  Ni  Ni3  1  0.82362532  0.39212523  0.39212754  1
loop_
_geom_bond_atom_site_label_1
_geom_bond_atom_site_label_2
_geom_bond_distance
_geom_bond_site_symmetry_2
Sm0 Sm14 3.553168 1_555
Sm0 Sm12 3.553189 1_555
Sm0 Sm10 3.553200 1_555
Sm1 Sm14 3.553135 1_555
Sm1 Sm11 3.553167 1_555
Sm1 Sm13 3.553182 1_555
Sm10 Sm3 3.553135 1_555
Sm10 Sm15 3.641255 1_565
Sm10 Sm13 3.641266 1_556
Sm10 Sm12 3.641377 1_465
Sm10 Sm14 3.641389 1_456
Sm10 Sm9 3.670569 1_565
Sm10 Sm6 3.670575 1_565
Sm10 Sm7 3.670577 1_556
Sm10 Sm8 3.670585 1_556
Sm11 Sm2 3.553149 1_555
Sm11 Sm14 3.641246 1_545
Sm11 Sm12 3.641261 1_554
Sm11 Sm13 3.641352 1_645
Sm11 Sm15 3.641368 1_654
Sm11 Sm9 3.670498 1_655
Sm11 Sm7 3.670511 1_655
Sm11 Sm6 3.670532 1_555
Sm11 Sm8 3.670541 1_555
Sm12 Sm2 3.553131 1_555
Sm12 Sm15 3.641244 1_655
Sm12 Sm14 3.641392 1_546
Sm12 Sm4 3.670562 1_655
Sm12 Sm9 3.670568 1_655
Sm12 Sm8 3.670574 1_556
Sm12 Sm5 3.670582 1_556
Sm13 Sm3 3.553146 1_555
Sm13 Sm14 3.641243 1_455
Sm13 Sm15 3.641378 1_564
Sm13 Sm9 3.670501 1_565
Sm13 Sm5 3.670521 1_565
Sm13 Sm4 3.670531 1_555
Sm13 Sm8 3.670550 1_555
Sm14 Sm6 3.670556 1_565
Sm14 Sm4 3.670557 1_655
Sm14 Sm7 3.670575 1_655
Sm14 Sm5 3.670575 1_565
Sm15 Sm3 3.553164 1_555
Sm15 Sm2 3.553181 1_555
Sm15 Sm7 3.670521 1_556
Sm15 Sm5 3.670528 1_556
Sm15 Sm4 3.670537 1_555
Sm15 Sm6 3.670544 1_555
Mg0 Mg1 3.090969 1_555
Mg0 Mg3 3.090971 1_555
Mg0 Mg2 3.090973 1_555
Mg0 Sm10 3.353319 1_655
Mg0 Sm12 3.353327 1_565
Mg0 Sm14 3.353332 1_556
Mg0 Sm1 3.546628 1_556
Mg0 Sm2 3.546631 1_565
Mg0 Sm3 3.546638 1_655
Mg0 Sm9 3.568964 1_665
Mg0 Sm7 3.568967 1_656
Mg0 Sm5 3.568969 1_566
Mg1 Mg2 3.091292 1_555
Mg1 Mg3 3.091293 1_555
Mg1 Sm14 3.353143 1_555
Mg1 Sm13 3.353174 1_655
Mg1 Sm11 3.353182 1_565
Mg1 Sm3 3.546581 1_655
Mg1 Sm2 3.546582 1_565
Mg1 Sm0 3.546640 1_555
Mg1 Sm9 3.568755 1_665
Mg1 Sm4 3.568923 1_655
Mg1 Sm6 3.568927 1_565
Mg2 Mg3 3.091296 1_555
Mg2 Sm12 3.353149 1_555
Mg2 Sm15 3.353182 1_655
Mg2 Sm11 3.353192 1_556
Mg2 Sm1 3.546585 1_556
Mg2 Sm3 3.546591 1_655
Mg2 Sm0 3.546648 1_555
Mg2 Sm7 3.568763 1_656
Mg2 Sm8 3.568925 1_556
Mg2 Sm4 3.568927 1_655
Mg3 Sm10 3.353161 1_555
Mg3 Sm15 3.353194 1_565
Mg3 Sm13 3.353200 1_556
Mg3 Sm1 3.546588 1_556
Mg3 Sm2 3.546591 1_565
Mg3 Sm0 3.546653 1_555
Mg3 Sm5 3.568763 1_566
Mg3 Sm8 3.568931 1_556
Mg3 Sm6 3.568933 1_565
Ni0 Sm3 2.828193 1_555
Ni0 Sm2 2.828203 1_555
Ni0 Sm1 2.828205 1_555
Ni0 Sm8 2.854442 1_555
Ni0 Sm6 2.854448 1_555
Ni0 Sm4 2.854456 1_555
Ni0 Sm15 3.547704 1_555
Ni0 Sm13 3.547715 1_555
Ni0 Sm11 3.547717 1_555
Ni1 Sm0 2.828205 1_555
Ni1 Sm3 2.828227 1_555
Ni1 Sm2 2.828230 1_555
Ni1 Sm8 2.854433 1_556
Ni1 Sm5 2.854530 1_556
Ni1 Sm7 2.854532 1_556
Ni1 Sm15 3.547644 1_555
Ni1 Sm10 3.547681 1_555
Ni1 Sm12 3.547688 1_555
Ni2 Sm0 2.828190 1_555
Ni2 Sm3 2.828215 1_555
Ni2 Sm1 2.828220 1_555
Ni2 Sm6 2.854428 1_565
Ni2 Sm5 2.854520 1_565
Ni2 Sm9 2.854534 1_565
Ni2 Sm13 3.547641 1_555
Ni2 Sm10 3.547674 1_555
Ni2 Sm14 3.547679 1_555
Ni3 Sm0 2.828184 1_555
Ni3 Sm2 2.828204 1_555
Ni3 Sm1 2.828223 1_555
Ni3 Sm4 2.854418 1_655
Ni3 Sm9 2.854517 1_655
Ni3 Sm7 2.854524 1_655
Ni3 Sm11 3.547641 1_555
Ni3 Sm12 3.547663 1_555
Ni3 Sm14 3.547688 1_555
