# generated using pymatgen
data_Ba3Ca
_symmetry_space_group_name_H-M   'P 1'
_cell_length_a   8.90398159
_cell_length_b   8.90398159
_cell_length_c   7.07319130
_cell_angle_alpha   90.00000000
_cell_angle_beta   90.00000000
_cell_angle_gamma   120.00006900
_symmetry_Int_Tables_number   1
_chemical_formula_structural   Ba3Ca
_chemical_formula_sum   'Ba6 Ca2'
_cell_volume   485.63976495
_cell_formula_units_Z   2
loop_
 _symmetry_equiv_pos_site_id
 _symmetry_equiv_pos_as_xyz
  1  'x, y, z'
loop_
 _atom_site_type_symbol
 _atom_site_label
 _atom_site_symmetry_multiplicity
 _atom_site_fract_x
 _atom_site_fract_y
 _atom_site_fract_z
 _atom_site_occupancy
  Ba  Ba0  1  0.17089222  0.34178444  0.25000000  1
  Ba  Ba1  1  0.65821556  0.82910678  0.25000000  1
  Ba  Ba2  1  0.17089222  0.82910678  0.25000000  1
  Ba  Ba3  1  0.82910778  0.65821556  0.75000000  1
  Ba  Ba4  1  0.34178444  0.17089322  0.75000000  1
  Ba  Ba5  1  0.82910778  0.17089322  0.75000000  1
  Ca  Ca0  1  0.33333300  0.66666700  0.75000000  1
  Ca  Ca1  1  0.66666700  0.33333300  0.25000000  1
loop_
_geom_bond_atom_site_label_1
_geom_bond_atom_site_label_2
_geom_bond_distance
_geom_bond_site_symmetry_2
Ba0 Ca0 4.333993 1_555
Ba0 Ca0 4.333993 1_554
Ba0 Ba1 4.339109 1_555
Ba0 Ba2 4.339109 1_555
Ba0 Ba4 4.410608 1_555
Ba0 Ba4 4.410608 1_554
Ba0 Ba5 4.410611 1_455
Ba0 Ba5 4.410611 1_454
Ba0 Ca1 4.452463 1_455
Ba0 Ca1 4.452472 1_555
Ba0 Ba1 4.564863 1_445
Ba0 Ba2 4.564872 1_545
Ba1 Ca0 4.333993 1_555
Ba1 Ca0 4.333993 1_554
Ba1 Ba2 4.339118 1_555
Ba1 Ba3 4.410608 1_555
Ba1 Ba3 4.410608 1_554
Ba1 Ba5 4.410621 1_564
Ba1 Ba5 4.410621 1_565
Ba1 Ca1 4.452463 1_555
Ba1 Ca1 4.452472 1_565
Ba1 Ba2 4.564864 1_655
Ba2 Ca0 4.333986 1_555
Ba2 Ca0 4.333986 1_554
Ba2 Ba3 4.410611 1_455
Ba2 Ba3 4.410611 1_454
Ba2 Ba4 4.410621 1_565
Ba2 Ba4 4.410621 1_564
Ba2 Ca1 4.452459 1_455
Ba2 Ca1 4.452468 1_565
Ba3 Ca1 4.333993 1_556
Ba3 Ca1 4.333993 1_555
Ba3 Ba4 4.339109 1_555
Ba3 Ba5 4.339109 1_555
Ba3 Ca0 4.452463 1_655
Ba3 Ca0 4.452472 1_555
Ba3 Ba4 4.564863 1_665
Ba3 Ba5 4.564872 1_565
Ba4 Ca1 4.333993 1_555
Ba4 Ca1 4.333993 1_556
Ba4 Ba5 4.339118 1_555
Ba4 Ca0 4.452463 1_555
Ba4 Ca0 4.452472 1_545
Ba4 Ba5 4.564864 1_455
Ba5 Ca1 4.333986 1_556
Ba5 Ca1 4.333986 1_555
Ba5 Ca0 4.452459 1_655
Ba5 Ca0 4.452468 1_545
