# generated using pymatgen
data_TbAlB14
_symmetry_space_group_name_H-M   'P 1'
_cell_length_a   7.30140701
_cell_length_b   7.30140701
_cell_length_c   7.30140701
_cell_angle_alpha   132.21976845
_cell_angle_beta   111.03047614
_cell_angle_gamma   88.23268219
_symmetry_Int_Tables_number   1
_chemical_formula_structural   TbAlB14
_chemical_formula_sum   'Tb2 Al2 B28'
_cell_volume   256.30558481
_cell_formula_units_Z   2
loop_
 _symmetry_equiv_pos_site_id
 _symmetry_equiv_pos_as_xyz
  1  'x, y, z'
loop_
 _atom_site_type_symbol
 _atom_site_label
 _atom_site_symmetry_multiplicity
 _atom_site_fract_x
 _atom_site_fract_y
 _atom_site_fract_z
 _atom_site_occupancy
  Tb  Tb0  1  0.59890000  0.25000000  0.34890000  1
  Tb  Tb1  1  0.40110000  0.75000000  0.65110000  1
  Al  Al0  1  0.00000000  0.00000000  0.50000000  1
  Al  Al1  1  0.00000000  0.50000000  0.00000000  1
  B  B0  1  0.63378300  0.66743000  0.96635300  1
  B  B1  1  0.36621700  0.33257000  0.03364700  1
  B  B2  1  0.20107700  0.16743000  0.03364700  1
  B  B3  1  0.79892300  0.83257000  0.96635300  1
  B  B4  1  0.77016100  0.14344400  0.62671700  1
  B  B5  1  0.22983900  0.85655600  0.37328300  1
  B  B6  1  0.01672600  0.64344400  0.37328300  1
  B  B7  1  0.98327400  0.35655600  0.62671700  1
  B  B8  1  0.92358900  0.09013400  0.83345500  1
  B  B9  1  0.07641100  0.90986600  0.16654500  1
  B  B10  1  0.75667900  0.59013400  0.16654500  1
  B  B11  1  0.24332100  0.40986600  0.83345500  1
  B  B12  1  0.39825200  0.39800900  0.67569700  1
  B  B13  1  0.60174800  0.27744500  0.99975700  1
  B  B14  1  0.22231300  0.89800900  0.99975700  1
  B  B15  1  0.77768700  0.77744500  0.67569700  1
  B  B16  1  0.60174800  0.60199100  0.32430300  1
  B  B17  1  0.39825200  0.72255500  0.00024300  1
  B  B18  1  0.77768700  0.10199100  0.00024300  1
  B  B19  1  0.22231300  0.22255500  0.32430300  1
  B  B20  1  0.03136800  0.83178600  0.70381400  1
  B  B21  1  0.96863200  0.67244600  0.80041800  1
  B  B22  1  0.62797200  0.33178600  0.80041800  1
  B  B23  1  0.37202800  0.17244600  0.70381400  1
  B  B24  1  0.96863200  0.16821400  0.29618600  1
  B  B25  1  0.03136800  0.32755400  0.19958200  1
  B  B26  1  0.37202800  0.66821400  0.19958200  1
  B  B27  1  0.62797200  0.82755400  0.29618600  1
loop_
_geom_bond_atom_site_label_1
_geom_bond_atom_site_label_2
_geom_bond_distance
_geom_bond_site_symmetry_2
Al0 B6 2.114894 1_545
Al0 B7 2.114894 1_455
Al0 B4 2.114896 1_455
Al0 B5 2.114896 1_545
Al0 B9 2.339008 1_545
Al0 B11 2.339008 1_555
Al0 B8 2.339008 1_455
Al0 B10 2.339008 1_445
Al0 B23 2.443328 1_555
Al0 B24 2.443328 1_455
Al0 B20 2.443328 1_545
Al0 B27 2.443328 1_445
Al1 B5 2.114896 1_555
Al1 B4 2.114896 1_454
Al1 B7 2.114898 1_454
Al1 B6 2.114898 1_555
Al1 B11 2.339008 1_554
Al1 B9 2.339008 1_555
Al1 B10 2.339008 1_455
Al1 B8 2.339008 1_454
Al1 B25 2.443328 1_555
Al1 B26 2.443328 1_555
Al1 B21 2.443328 1_454
Al1 B22 2.443328 1_454
B0 B3 1.731289 1_555
B0 B12 1.819202 1_555
B0 B17 1.819202 1_556
B0 B10 1.842896 1_556
B0 B27 1.858660 1_556
B0 B22 1.858660 1_555
B0 Tb1 2.746474 1_555
B1 B2 1.731289 1_555
B1 B16 1.819202 1_555
B1 B13 1.819202 1_554
B1 B11 1.842896 1_554
B1 B23 1.858660 1_554
B1 B26 1.858660 1_555
B1 Tb0 2.746474 1_555
B2 B8 1.842896 1_454
B2 B25 1.858660 1_555
B2 B20 1.858660 1_544
B2 Tb0 2.746474 1_555
B3 B9 1.842896 1_656
B3 Tb1 2.746474 1_555
B4 B8 1.798345 1_555
B4 B7 2.234222 1_555
B4 Tb0 2.554212 1_555
B5 B9 1.798345 1_555
B5 B6 2.234222 1_555
B5 Tb1 2.554212 1_555
B6 Tb1 2.554218 1_555
B7 Tb0 2.554218 1_555
B10 B22 1.765454 1_554
B10 B27 1.765454 1_555
B10 B6 1.798339 1_655
B10 B13 1.846361 1_554
B10 B16 1.846361 1_555
B11 B26 1.765454 1_556
B11 B23 1.765454 1_555
B11 B7 1.798339 1_455
B11 B17 1.846361 1_556
B11 B12 1.846361 1_555
B12 B19 1.786806 1_555
B12 B23 1.814727 1_555
B12 B22 1.822581 1_555
B12 B17 1.919334 1_556
B12 Tb1 2.695186 1_555
B12 Tb0 2.820155 1_555
B13 B18 1.786803 1_556
B13 B22 1.814727 1_555
B13 B23 1.822581 1_555
B13 B16 1.919334 1_556
B13 Tb0 2.695186 1_556
B13 Tb1 2.820155 1_545
B14 B17 1.786803 1_556
B14 B21 1.814733 1_455
B14 B2 1.819203 1_566
B14 B20 1.822584 1_555
B14 B9 1.846367 1_556
B14 B19 1.919334 1_566
B14 Tb0 2.695181 1_566
B14 Tb1 2.820149 1_555
B15 B16 1.786806 1_555
B15 B20 1.814734 1_655
B15 B3 1.819199 1_555
B15 B21 1.822585 1_555
B15 B8 1.846364 1_565
B15 B18 1.919334 1_566
B15 Tb1 2.695179 1_555
B15 Tb0 2.820153 1_555
B16 B27 1.814727 1_555
B16 B26 1.822581 1_555
B16 Tb0 2.695186 1_555
B16 Tb1 2.820155 1_555
B17 B26 1.814727 1_555
B17 B27 1.822581 1_555
B17 Tb1 2.695186 1_554
B17 Tb0 2.820155 1_565
B18 B25 1.814733 1_655
B18 B3 1.819203 1_544
B18 B24 1.822584 1_555
B18 B8 1.846367 1_554
B18 Tb1 2.695181 1_544
B18 Tb0 2.820149 1_555
B19 B24 1.814734 1_455
B19 B2 1.819199 1_555
B19 B25 1.822585 1_555
B19 B9 1.846364 1_545
B19 Tb0 2.695179 1_555
B19 Tb1 2.820153 1_555
B20 B6 1.757949 1_555
B20 B8 1.765454 1_465
B20 B21 1.851610 1_455
B20 Tb1 2.851279 1_555
B21 B7 1.757954 1_555
B21 B9 1.765454 1_656
B21 B3 1.858660 1_555
B21 Tb0 2.851279 1_555
B22 B4 1.757952 1_555
B22 B23 1.851610 1_555
B22 Tb0 2.851279 1_555
B23 B5 1.757952 1_545
B23 Tb1 2.851279 1_545
B24 B7 1.757949 1_555
B24 B9 1.765454 1_645
B24 B25 1.851610 1_655
B24 B3 1.858660 1_544
B24 Tb0 2.851279 1_555
B25 B6 1.757954 1_555
B25 B8 1.765454 1_454
B25 Tb1 2.851279 1_555
B26 B5 1.757952 1_555
B26 B27 1.851610 1_555
B26 Tb1 2.851279 1_555
B27 B4 1.757952 1_565
B27 Tb0 2.851279 1_565
