# generated using pymatgen
data_Zn(NiS2)4
_symmetry_space_group_name_H-M   'P 1'
_cell_length_a   6.97044034
_cell_length_b   6.97044034
_cell_length_c   6.97044045
_cell_angle_alpha   57.66440224
_cell_angle_beta   57.66440224
_cell_angle_gamma   57.66440899
_symmetry_Int_Tables_number   1
_chemical_formula_structural   Zn(NiS2)4
_chemical_formula_sum   'Zn1 Ni4 S8'
_cell_volume   226.62486627
_cell_formula_units_Z   1
loop_
 _symmetry_equiv_pos_site_id
 _symmetry_equiv_pos_as_xyz
  1  'x, y, z'
loop_
 _atom_site_type_symbol
 _atom_site_label
 _atom_site_symmetry_multiplicity
 _atom_site_fract_x
 _atom_site_fract_y
 _atom_site_fract_z
 _atom_site_occupancy
  Zn  Zn0  1  0.50000000  0.50000000  0.50000000  1
  Ni  Ni0  1  0.00000000  0.50000000  0.50000000  1
  Ni  Ni1  1  0.50000000  0.00000000  0.50000000  1
  Ni  Ni2  1  0.50000000  0.50000000  0.00000000  1
  Ni  Ni3  1  0.00000000  0.00000000  0.00000000  1
  S  S0  1  0.27207800  0.75925400  0.75925400  1
  S  S1  1  0.24074600  0.24074600  0.72792200  1
  S  S2  1  0.72792200  0.24074600  0.24074600  1
  S  S3  1  0.24074600  0.72792200  0.24074600  1
  S  S4  1  0.26525300  0.26525300  0.26525300  1
  S  S5  1  0.73474700  0.73474700  0.73474700  1
  S  S6  1  0.75925400  0.27207800  0.75925400  1
  S  S7  1  0.75925400  0.75925400  0.27207800  1
loop_
_geom_bond_atom_site_label_1
_geom_bond_atom_site_label_2
_geom_bond_distance
_geom_bond_site_symmetry_2
Ni0 S6 2.267687 1_455
Ni0 S3 2.267687 1_555
Ni0 S1 2.267687 1_555
Ni0 S7 2.267687 1_455
Ni0 S5 2.272620 1_455
Ni0 S4 2.272620 1_555
Ni1 S2 2.267687 1_555
Ni1 S0 2.267687 1_545
Ni1 S1 2.267687 1_555
Ni1 S7 2.267687 1_545
Ni1 S5 2.272620 1_545
Ni1 S4 2.272620 1_555
Ni2 S2 2.267687 1_555
Ni2 S3 2.267687 1_555
Ni2 S0 2.267687 1_554
Ni2 S6 2.267687 1_554
Ni2 S5 2.272619 1_554
Ni2 S4 2.272619 1_555
Ni3 S7 2.330711 1_445
Ni3 S1 2.330711 1_554
Ni3 S6 2.330711 1_454
Ni3 S0 2.330711 1_544
Ni3 S2 2.330711 1_455
Ni3 S3 2.330711 1_545
S0 Zn0 2.531065 1_555
S1 Zn0 2.531064 1_555
S2 Zn0 2.531065 1_555
S3 Zn0 2.531065 1_555
S6 Zn0 2.531065 1_555
S7 Zn0 2.531064 1_555
