# generated using pymatgen
data_Li2Zn2(MoO4)3
_symmetry_space_group_name_H-M   'P 1'
_cell_length_a   5.18302700
_cell_length_b   10.67790700
_cell_length_c   17.85860000
_cell_angle_alpha   90.00000000
_cell_angle_beta   90.00000000
_cell_angle_gamma   90.00000000
_symmetry_Int_Tables_number   1
_chemical_formula_structural   Li2Zn2(MoO4)3
_chemical_formula_sum   'Li8 Zn8 Mo12 O48'
_cell_volume   988.36422045
_cell_formula_units_Z   4
loop_
 _symmetry_equiv_pos_site_id
 _symmetry_equiv_pos_as_xyz
  1  'x, y, z'
loop_
 _atom_site_type_symbol
 _atom_site_label
 _atom_site_symmetry_multiplicity
 _atom_site_fract_x
 _atom_site_fract_y
 _atom_site_fract_z
 _atom_site_occupancy
  Li  Li0  1  0.25625100  0.25000000  0.69818100  1
  Li  Li1  1  0.74374900  0.75000000  0.30181900  1
  Li  Li2  1  0.24374900  0.75000000  0.19818100  1
  Li  Li3  1  0.75625100  0.25000000  0.80181900  1
  Li  Li4  1  0.10594300  0.25000000  0.24899800  1
  Li  Li5  1  0.89405700  0.75000000  0.75100200  1
  Li  Li6  1  0.39405700  0.75000000  0.74899800  1
  Li  Li7  1  0.60594300  0.25000000  0.25100200  1
  Zn  Zn0  1  0.24511400  0.07873400  0.52985500  1
  Zn  Zn1  1  0.75488600  0.92126600  0.47014500  1
  Zn  Zn2  1  0.25488600  0.92126600  0.02985500  1
  Zn  Zn3  1  0.75488600  0.57873400  0.47014500  1
  Zn  Zn4  1  0.74511400  0.07873400  0.97014500  1
  Zn  Zn5  1  0.24511400  0.42126600  0.52985500  1
  Zn  Zn6  1  0.74511400  0.42126600  0.97014500  1
  Zn  Zn7  1  0.25488600  0.57873400  0.02985500  1
  Mo  Mo0  1  0.27766800  0.52653300  0.34294000  1
  Mo  Mo1  1  0.72233200  0.47346700  0.65706000  1
  Mo  Mo2  1  0.22233200  0.47346700  0.84294000  1
  Mo  Mo3  1  0.72233200  0.02653300  0.65706000  1
  Mo  Mo4  1  0.77766800  0.52653300  0.15706000  1
  Mo  Mo5  1  0.27766800  0.97346700  0.34294000  1
  Mo  Mo6  1  0.77766800  0.97346700  0.15706000  1
  Mo  Mo7  1  0.22233200  0.02653300  0.84294000  1
  Mo  Mo8  1  0.27827300  0.25000000  0.05714600  1
  Mo  Mo9  1  0.72172700  0.75000000  0.94285400  1
  Mo  Mo10  1  0.22172700  0.75000000  0.55714600  1
  Mo  Mo11  1  0.77827300  0.25000000  0.44285400  1
  O  O0  1  0.06047000  0.25000000  0.50700200  1
  O  O1  1  0.93953000  0.75000000  0.49299800  1
  O  O2  1  0.43953000  0.75000000  0.00700200  1
  O  O3  1  0.56047000  0.25000000  0.99299800  1
  O  O4  1  0.35403500  0.11427800  0.29548100  1
  O  O5  1  0.64596500  0.88572200  0.70451900  1
  O  O6  1  0.14596500  0.88572200  0.79548100  1
  O  O7  1  0.64596500  0.61427800  0.70451900  1
  O  O8  1  0.85403500  0.11427800  0.20451900  1
  O  O9  1  0.35403500  0.38572200  0.29548100  1
  O  O10  1  0.85403500  0.38572200  0.20451900  1
  O  O11  1  0.14596500  0.61427800  0.79548100  1
  O  O12  1  0.35948600  0.25000000  0.15242100  1
  O  O13  1  0.64051400  0.75000000  0.84757900  1
  O  O14  1  0.14051400  0.75000000  0.65242100  1
  O  O15  1  0.85948600  0.25000000  0.34757900  1
  O  O16  1  0.08047700  0.01148500  0.42665200  1
  O  O17  1  0.91952300  0.98851500  0.57334800  1
  O  O18  1  0.41952300  0.98851500  0.92665200  1
  O  O19  1  0.91952300  0.51148500  0.57334800  1
  O  O20  1  0.58047700  0.01148500  0.07334800  1
  O  O21  1  0.08047700  0.48851500  0.42665200  1
  O  O22  1  0.58047700  0.48851500  0.07334800  1
  O  O23  1  0.41952300  0.51148500  0.92665200  1
  O  O24  1  0.07825600  0.62293500  0.28683400  1
  O  O25  1  0.92174400  0.37706500  0.71316600  1
  O  O26  1  0.42174400  0.37706500  0.78683400  1
  O  O27  1  0.92174400  0.12293500  0.71316600  1
  O  O28  1  0.57825600  0.62293500  0.21316600  1
  O  O29  1  0.07825600  0.87706500  0.28683400  1
  O  O30  1  0.57825600  0.87706500  0.21316600  1
  O  O31  1  0.42174400  0.12293500  0.78683400  1
  O  O32  1  0.07857300  0.11491400  0.03693500  1
  O  O33  1  0.92142700  0.88508600  0.96306500  1
  O  O34  1  0.42142700  0.88508600  0.53693500  1
  O  O35  1  0.92142700  0.61491400  0.96306500  1
  O  O36  1  0.57857300  0.11491400  0.46306500  1
  O  O37  1  0.07857300  0.38508600  0.03693500  1
  O  O38  1  0.57857300  0.38508600  0.46306500  1
  O  O39  1  0.42142700  0.61491400  0.53693500  1
  O  O40  1  0.06245000  0.61340900  0.12585900  1
  O  O41  1  0.93755000  0.38659100  0.87414100  1
  O  O42  1  0.43755000  0.38659100  0.62585900  1
  O  O43  1  0.93755000  0.11340900  0.87414100  1
  O  O44  1  0.56245000  0.61340900  0.37414100  1
  O  O45  1  0.06245000  0.88659100  0.12585900  1
  O  O46  1  0.56245000  0.88659100  0.37414100  1
  O  O47  1  0.43755000  0.11340900  0.62585900  1
loop_
_geom_bond_atom_site_label_1
_geom_bond_atom_site_label_2
_geom_bond_distance
_geom_bond_site_symmetry_2
Li0 O47 2.162958 1_555
Li0 O42 2.162958 1_555
Li0 O27 2.217749 1_455
Li0 O25 2.217749 1_455
Li0 O26 2.254595 1_555
Li0 O31 2.254595 1_555
Li1 O46 2.162958 1_555
Li1 O44 2.162958 1_555
Li1 O24 2.217749 1_655
Li1 O29 2.217749 1_655
Li1 O28 2.254595 1_555
Li1 O30 2.254595 1_555
Li2 O40 2.162958 1_555
Li2 O45 2.162958 1_555
Li2 O30 2.217749 1_555
Li2 O28 2.217749 1_555
Li2 O24 2.254595 1_555
Li2 O29 2.254595 1_555
Li3 O43 2.162958 1_555
Li3 O41 2.162958 1_555
Li3 O26 2.217749 1_555
Li3 O31 2.217749 1_555
Li3 O27 2.254595 1_555
Li3 O25 2.254595 1_555
Li4 O8 2.106166 1_455
Li4 O10 2.106166 1_455
Li4 O4 2.107799 1_555
Li4 O9 2.107799 1_555
Li4 O12 2.168319 1_555
Li4 O15 2.175123 1_455
Li5 O6 2.106166 1_655
Li5 O11 2.106166 1_655
Li5 O7 2.107799 1_555
Li5 O5 2.107799 1_555
Li5 O13 2.168319 1_555
Li5 O14 2.175123 1_655
Li6 O7 2.106166 1_555
Li6 O5 2.106166 1_555
Li6 O11 2.107799 1_555
Li6 O6 2.107799 1_555
Li6 O14 2.168319 1_555
Li6 O13 2.175123 1_555
Li7 O9 2.106166 1_555
Li7 O4 2.106166 1_555
Li7 O10 2.107799 1_555
Li7 O8 2.107799 1_555
Li7 O15 2.168319 1_555
Li7 O12 2.175123 1_555
Mo0 O24 1.769689 1_555
Mo0 O9 1.770797 1_555
Mo0 O44 1.830217 1_555
Mo0 O21 1.855893 1_555
Mo1 O25 1.769689 1_555
Mo1 O7 1.770797 1_555
Mo1 O42 1.830217 1_555
Mo1 O19 1.855893 1_555
Mo2 O26 1.769689 1_555
Mo2 O11 1.770797 1_555
Mo2 O41 1.830217 1_455
Mo2 O23 1.855893 1_555
Mo3 O27 1.769689 1_555
Mo3 O5 1.770797 1_545
Mo3 O47 1.830217 1_555
Mo3 O17 1.855893 1_545
Mo4 O28 1.769689 1_555
Mo4 O10 1.770797 1_555
Mo4 O40 1.830217 1_655
Mo4 O22 1.855893 1_555
Mo5 O29 1.769689 1_555
Mo5 O4 1.770797 1_565
Mo5 O46 1.830217 1_555
Mo5 O16 1.855893 1_565
Mo6 O30 1.769689 1_555
Mo6 O8 1.770797 1_565
Mo6 O45 1.830217 1_655
Mo6 O20 1.855893 1_565
Mo7 O31 1.769689 1_555
Mo7 O6 1.770797 1_545
Mo7 O43 1.830217 1_455
Mo7 O18 1.855893 1_545
Mo8 O12 1.752772 1_555
Mo8 O37 1.811692 1_555
Mo8 O32 1.811692 1_555
Mo8 O3 1.857871 1_554
Mo9 O13 1.752772 1_555
Mo9 O35 1.811692 1_555
Mo9 O33 1.811692 1_555
Mo9 O2 1.857871 1_556
Mo10 O14 1.752772 1_555
Mo10 O34 1.811692 1_555
Mo10 O39 1.811692 1_555
Mo10 O1 1.857871 1_455
Mo11 O15 1.752772 1_555
Mo11 O36 1.811692 1_555
Mo11 O38 1.811692 1_555
Mo11 O0 1.857871 1_655
O0 Zn5 2.103999 1_555
O0 Zn0 2.103999 1_555
O1 Zn1 2.103999 1_555
O1 Zn3 2.103999 1_555
O2 Zn7 2.103999 1_555
O2 Zn2 2.103999 1_555
O3 Zn6 2.103999 1_555
O3 Zn4 2.103999 1_555
O16 Zn1 2.092644 1_445
O16 Zn0 2.154220 1_555
O17 Zn0 2.092644 1_665
O17 Zn1 2.154220 1_555
O18 Zn4 2.092644 1_565
O18 Zn2 2.154220 1_556
O19 Zn5 2.092644 1_655
O19 Zn3 2.154220 1_555
O20 Zn2 2.092644 1_545
O20 Zn4 2.154220 1_554
O21 Zn3 2.092644 1_455
O21 Zn5 2.154220 1_555
O22 Zn7 2.092644 1_555
O22 Zn6 2.154220 1_554
O23 Zn6 2.092644 1_555
O23 Zn7 2.154220 1_556
O32 Zn4 2.135199 1_454
O32 Zn2 2.264220 1_545
O33 Zn2 2.135199 1_656
O33 Zn4 2.264220 1_565
O34 Zn1 2.135199 1_555
O34 Zn0 2.264220 1_565
O35 Zn7 2.135199 1_656
O35 Zn6 2.264220 1_555
O36 Zn0 2.135199 1_555
O36 Zn1 2.264220 1_545
O37 Zn6 2.135199 1_454
O37 Zn7 2.264220 1_555
O38 Zn5 2.135199 1_555
O38 Zn3 2.264220 1_555
O39 Zn3 2.135199 1_555
O39 Zn5 2.264220 1_555
O40 Zn7 2.017771 1_555
O41 Zn6 2.017771 1_555
O42 Zn5 2.017771 1_555
O43 Zn4 2.017771 1_555
O44 Zn3 2.017771 1_555
O45 Zn2 2.017771 1_555
O46 Zn1 2.017771 1_555
O47 Zn0 2.017771 1_555
