# generated using pymatgen
data_Yb6MoO12
_symmetry_space_group_name_H-M   'P 1'
_cell_length_a   9.18084716
_cell_length_b   8.03944870
_cell_length_c   8.61657837
_cell_angle_alpha   137.49923376
_cell_angle_beta   114.12843572
_cell_angle_gamma   51.10019495
_symmetry_Int_Tables_number   1
_chemical_formula_structural   Yb6MoO12
_chemical_formula_sum   'Yb6 Mo1 O12'
_cell_volume   332.60663652
_cell_formula_units_Z   1
loop_
 _symmetry_equiv_pos_site_id
 _symmetry_equiv_pos_as_xyz
  1  'x, y, z'
loop_
 _atom_site_type_symbol
 _atom_site_label
 _atom_site_symmetry_multiplicity
 _atom_site_fract_x
 _atom_site_fract_y
 _atom_site_fract_z
 _atom_site_occupancy
  Yb  Yb0  1  0.15497900  0.78949300  0.26150500  1
  Yb  Yb1  1  0.84502100  0.21050700  0.73849500  1
  Yb  Yb2  1  0.64519400  0.08164900  0.23509100  1
  Yb  Yb3  1  0.35480600  0.91835100  0.76490900  1
  Yb  Yb4  1  0.93496700  0.51536200  0.67786800  1
  Yb  Yb5  1  0.06503300  0.48463800  0.32213200  1
  Mo  Mo0  1  0.00000000  0.00000000  0.00000000  1
  O  O0  1  0.93813400  0.82201800  0.68417300  1
  O  O1  1  0.06186600  0.17798200  0.31582700  1
  O  O2  1  0.16393000  0.62342800  0.90351900  1
  O  O3  1  0.83607000  0.37657200  0.09648100  1
  O  O4  1  0.80721800  0.99647500  0.03919700  1
  O  O5  1  0.19278200  0.00352500  0.96080300  1
  O  O6  1  0.62778000  0.67338600  0.87586800  1
  O  O7  1  0.37222000  0.32661400  0.12413200  1
  O  O8  1  0.66236400  0.50975100  0.63446900  1
  O  O9  1  0.33763600  0.49024900  0.36553100  1
  O  O10  1  0.90989300  0.85729600  0.34083800  1
  O  O11  1  0.09010700  0.14270400  0.65916200  1
loop_
_geom_bond_atom_site_label_1
_geom_bond_atom_site_label_2
_geom_bond_distance
_geom_bond_site_symmetry_2
Mo0 O2 1.926376 1_544
Mo0 O3 1.926376 1_455
Mo0 O0 1.947059 1_444
Mo0 O1 1.947059 1_555
Mo0 O4 1.952756 1_445
Mo0 O5 1.952756 1_554
O0 Yb5 2.229779 1_655
O0 Yb1 2.350062 1_565
O0 Yb4 2.443965 1_555
O1 Yb4 2.229779 1_455
O1 Yb0 2.350062 1_545
O1 Yb5 2.443965 1_555
O2 Yb0 2.302403 1_556
O2 Yb4 2.327074 1_455
O3 Yb1 2.302403 1_554
O3 Yb5 2.327074 1_655
O4 Yb2 2.144748 1_565
O4 Yb4 2.358091 1_554
O5 Yb3 2.144748 1_545
O5 Yb5 2.358091 1_556
O6 O8 1.462354 1_555
O6 Yb1 2.310978 1_555
O6 Yb2 2.377671 1_566
O6 Yb3 2.385809 1_555
O7 O9 1.462354 1_555
O7 Yb0 2.310978 1_555
O7 Yb3 2.377671 1_544
O7 Yb2 2.385809 1_555
O8 Yb3 2.351222 1_555
O8 Yb4 2.399431 1_555
O8 Yb1 2.507437 1_555
O8 Yb2 2.546808 1_555
O9 Yb2 2.351222 1_555
O9 Yb5 2.399431 1_555
O9 Yb0 2.507437 1_555
O9 Yb3 2.546808 1_555
O10 Yb0 2.234951 1_655
O10 Yb2 2.257698 1_565
O10 Yb5 2.268665 1_655
O10 Yb1 2.314328 1_565
O11 Yb1 2.234951 1_455
O11 Yb3 2.257698 1_545
O11 Yb4 2.268665 1_455
O11 Yb0 2.314328 1_545
