# generated using pymatgen
data_Li10Sc9Fe(SiO3)20
_symmetry_space_group_name_H-M   'P 1'
_cell_length_a   12.87483175
_cell_length_b   9.03944602
_cell_length_c   11.16291480
_cell_angle_alpha   113.88406820
_cell_angle_beta   74.96743886
_cell_angle_gamma   90.00000000
_symmetry_Int_Tables_number   1
_chemical_formula_structural   Li10Sc9Fe(SiO3)20
_chemical_formula_sum   'Li10 Sc9 Fe1 Si20 O60'
_cell_volume   1139.11120401
_cell_formula_units_Z   1
loop_
 _symmetry_equiv_pos_site_id
 _symmetry_equiv_pos_as_xyz
  1  'x, y, z'
loop_
 _atom_site_type_symbol
 _atom_site_label
 _atom_site_symmetry_multiplicity
 _atom_site_fract_x
 _atom_site_fract_y
 _atom_site_fract_z
 _atom_site_occupancy
  Li  Li0  1  0.95000000  0.20252578  0.90000000  1
  Li  Li1  1  0.85002095  0.59740137  0.69993542  1
  Li  Li2  1  0.74986425  0.00281883  0.50011954  1
  Li  Li3  1  0.64972419  0.39747271  0.29984315  1
  Li  Li4  1  0.54905589  0.80117321  0.09907732  1
  Li  Li5  1  0.45000000  0.19958487  0.90000000  1
  Li  Li6  1  0.35094411  0.60209589  0.70092268  1
  Li  Li7  1  0.25027581  0.99762956  0.50015685  1
  Li  Li8  1  0.15013575  0.40269929  0.29988046  1
  Li  Li9  1  0.04997905  0.79746595  0.10006458  1
  Sc  Sc0  1  0.95000000  0.84306045  0.90000000  1
  Sc  Sc1  1  0.84943149  0.95746682  0.70038365  1
  Sc  Sc2  1  0.74976027  0.64294864  0.50030262  1
  Sc  Sc3  1  0.64993622  0.75677583  0.29994607  1
  Sc  Sc4  1  0.54939985  0.44363679  0.09834625  1
  Sc  Sc5  1  0.35060015  0.24529054  0.70165375  1
  Sc  Sc6  1  0.25006378  0.35682976  0.50005393  1
  Sc  Sc7  1  0.15023973  0.04264602  0.29969738  1
  Sc  Sc8  1  0.05056851  0.15708316  0.09961635  1
  Fe  Fe0  1  0.45000000  0.55913477  0.90000000  1
  Si  Si0  1  0.98306892  0.77210037  0.37008951  1
  Si  Si1  1  0.91693108  0.30201086  0.42991049  1
  Si  Si2  1  0.88312440  0.49784122  0.16999390  1
  Si  Si3  1  0.81690642  0.02797288  0.22993244  1
  Si  Si4  1  0.71620507  0.10124025  0.02973751  1
  Si  Si5  1  0.78307947  0.57205328  0.96999816  1
  Si  Si6  1  0.68215632  0.29920338  0.77023026  1
  Si  Si7  1  0.61513962  0.82542077  0.83019550  1
  Si  Si8  1  0.58265320  0.37408534  0.57240356  1
  Si  Si9  1  0.51673703  0.90192071  0.63001407  1
  Si  Si10  1  0.48288018  0.09843343  0.37059218  1
  Si  Si11  1  0.41711982  0.62784125  0.42940782  1
  Si  Si12  1  0.38326297  0.17190765  0.16998593  1
  Si  Si13  1  0.31734680  0.70168077  0.22759644  1
  Si  Si14  1  0.21784368  0.42897411  0.02976974  1
  Si  Si15  1  0.28486038  0.89522527  0.96980450  1
  Si  Si16  1  0.18379493  0.97150273  0.77026249  1
  Si  Si17  1  0.11692053  0.50205512  0.83000184  1
  Si  Si18  1  0.08309358  0.69804044  0.57006756  1
  Si  Si19  1  0.01687560  0.22784831  0.63000610  1
  O  O0  1  0.97142171  0.61250936  0.23575065  1
  O  O1  1  0.93491774  0.97036726  0.11146954  1
  O  O2  1  0.92838334  0.30794868  0.11336103  1
  O  O3  1  0.97161666  0.09458765  0.68663897  1
  O  O4  1  0.96508226  0.75889772  0.68853046  1
  O  O5  1  0.92857829  0.27675871  0.56424935  1
  O  O6  1  0.87145658  0.52318332  0.03565878  1
  O  O7  1  0.87181477  0.49187684  0.48644278  1
  O  O8  1  0.86506972  0.82973626  0.48879507  1
  O  O9  1  0.82853635  0.18754253  0.36418315  1
  O  O10  1  0.77170204  0.89468327  0.28656253  1
  O  O11  1  0.83440825  0.04107997  0.91154343  1
  O  O12  1  0.76515945  0.55867963  0.28850332  1
  O  O13  1  0.82817780  0.70520154  0.91334711  1
  O  O14  1  0.72841172  0.07699035  0.16432444  1
  O  O15  1  0.77089724  0.41259675  0.83605512  1
  O  O16  1  0.67076793  0.29107038  0.08543093  1
  O  O17  1  0.73348197  0.76847087  0.71231776  1
  O  O18  1  0.66506507  0.62989647  0.08851470  1
  O  O19  1  0.72739621  0.10942640  0.71474034  1
  O  O20  1  0.67228134  0.32285823  0.63489021  1
  O  O21  1  0.63473820  0.84118249  0.51165308  1
  O  O22  1  0.62772191  0.50580274  0.51412261  1
  O  O23  1  0.62831029  0.98417335  0.96440133  1
  O  O24  1  0.56977885  0.21461873  0.43861269  1
  O  O25  1  0.53497911  0.57021913  0.31060741  1
  O  O26  1  0.52816670  0.90841251  0.31346989  1
  O  O27  1  0.56815715  0.69185739  0.88668294  1
  O  O28  1  0.56325670  0.36261230  0.88766455  1
  O  O29  1  0.52782673  0.87631102  0.76439571  1
  O  O30  1  0.47154792  0.12356613  0.23607338  1
  O  O31  1  0.43416686  0.63945486  0.10547989  1
  O  O32  1  0.42829066  0.30526080  0.11322117  1
  O  O33  1  0.47170934  0.09203963  0.68677883  1
  O  O34  1  0.46583314  0.43397498  0.69452011  1
  O  O35  1  0.42845208  0.78749275  0.56392662  1
  O  O36  1  0.37217327  0.01191531  0.03560429  1
  O  O37  1  0.37183330  0.49494162  0.48653011  1
  O  O38  1  0.36502089  0.15961172  0.48939259  1
  O  O39  1  0.33022115  0.67600604  0.36138731  1
  O  O40  1  0.27227809  0.89168013  0.28587739  1
  O  O41  1  0.33674330  0.37494675  0.91233545  1
  O  O42  1  0.26526180  0.22952942  0.28834692  1
  O  O43  1  0.33184285  0.70517444  0.91331706  1
  O  O44  1  0.22771866  0.58796802  0.16510979  1
  O  O45  1  0.27168971  0.91977202  0.83559867  1
  O  O46  1  0.17260379  0.29468606  0.08525966  1
  O  O47  1  0.23493493  0.44138177  0.71148530  1
  O  O48  1  0.16651803  0.95615311  0.08768224  1
  O  O49  1  0.22923207  0.10563945  0.71456907  1
  O  O50  1  0.17158828  0.81266591  0.63567556  1
  O  O51  1  0.13484055  0.17017531  0.51149668  1
  O  O52  1  0.12829796  0.50811974  0.51343747  1
  O  O53  1  0.12910276  0.47654063  0.96394488  1
  O  O54  1  0.07146365  0.72336038  0.43581685  1
  O  O55  1  0.03493028  0.24094119  0.31120493  1
  O  O56  1  0.02818523  0.90543406  0.31355722  1
  O  O57  1  0.07182220  0.69185543  0.88665289  1
  O  O58  1  0.06559175  0.02953654  0.88845657  1
  O  O59  1  0.02854342  0.38752354  0.76434122  1
loop_
_geom_bond_atom_site_label_1
_geom_bond_atom_site_label_2
_geom_bond_distance
_geom_bond_site_symmetry_2
Li0 O11 2.100955 1_555
Li0 O58 2.100955 1_655
Li0 O3 2.115760 1_555
Li0 O2 2.115760 1_556
Li1 O17 2.093077 1_555
Li1 O4 2.096314 1_555
Li1 O13 2.115800 1_555
Li1 O7 2.116726 1_555
Li2 O21 2.098032 1_545
Li2 O8 2.099159 1_545
Li2 O10 2.117294 1_545
Li2 O19 2.126756 1_555
Li3 O25 2.095538 1_555
Li3 O12 2.097646 1_555
Li3 O22 2.124263 1_555
Li3 O16 2.127587 1_555
Li4 O31 2.088020 1_555
Li4 O18 2.098244 1_555
Li4 O27 2.111549 1_554
Li4 O26 2.127703 1_555
Li5 O41 2.092142 1_555
Li5 O28 2.092149 1_555
Li5 O33 2.114139 1_555
Li5 O32 2.114139 1_556
Li6 O34 2.088020 1_555
Li6 O47 2.098244 1_555
Li6 O43 2.111549 1_555
Li6 O37 2.127703 1_555
Li7 O38 2.095538 1_565
Li7 O51 2.097640 1_565
Li7 O40 2.124263 1_555
Li7 O49 2.127587 1_565
Li8 O42 2.098032 1_555
Li8 O55 2.099159 1_555
Li8 O52 2.117294 1_555
Li8 O46 2.126756 1_555
Li9 O48 2.093077 1_555
Li9 O1 2.096314 1_455
Li9 O57 2.115800 1_554
Li9 O56 2.116726 1_555
Fe0 O43 1.950076 1_555
Fe0 O27 1.950076 1_555
Fe0 O34 2.058854 1_555
Fe0 O31 2.058854 1_556
Fe0 O28 2.235787 1_555
Fe0 O41 2.235794 1_555
O0 Si0 1.648416 1_555
O0 Si2 1.649941 1_555
O1 Si3 1.651822 1_565
O1 Sc0 2.120598 1_554
O1 Sc8 2.271986 1_665
O2 Si2 1.617351 1_555
O2 Sc8 2.015781 1_655
O3 Si19 1.617359 1_655
O3 Sc1 2.015781 1_545
O4 Si18 1.651822 1_655
O4 Sc0 2.120598 1_555
O4 Sc1 2.271986 1_555
O5 Si1 1.648416 1_555
O5 Si19 1.649937 1_655
O6 Si2 1.648874 1_555
O6 Si5 1.649815 1_554
O7 Si1 1.616809 1_555
O7 Sc2 2.015193 1_555
O8 Si0 1.652886 1_555
O8 Sc1 2.120709 1_555
O8 Sc2 2.268943 1_555
O9 Si3 1.647676 1_555
O9 Si1 1.650021 1_555
O10 Si3 1.617395 1_565
O10 Sc3 2.015787 1_555
O11 Si4 1.652256 1_556
O11 Sc1 2.117943 1_545
O11 Sc0 2.269188 1_545
O12 Si2 1.651617 1_555
O12 Sc2 2.123184 1_555
O12 Sc3 2.267167 1_555
O13 Si5 1.616029 1_555
O13 Sc0 2.016003 1_555
O14 Si4 1.648959 1_555
O14 Si3 1.651201 1_555
O15 Si5 1.647508 1_555
O15 Si6 1.649706 1_555
O16 Si4 1.618860 1_555
O16 Sc4 2.021528 1_555
O17 Si7 1.652096 1_555
O17 Sc2 2.121509 1_555
O17 Sc1 2.290441 1_555
O18 Si5 1.652092 1_554
O18 Sc3 2.119757 1_555
O18 Sc4 2.264800 1_555
O19 Si6 1.618079 1_555
O19 Sc1 2.017989 1_545
O20 Si6 1.644872 1_555
O20 Si8 1.646716 1_555
O21 Si9 1.651233 1_555
O21 Sc3 2.122605 1_555
O21 Sc2 2.266913 1_555
O22 Si8 1.615256 1_555
O22 Sc2 2.014594 1_555
O23 Si7 1.650254 1_555
O23 Si4 1.653936 1_566
O24 Si8 1.649540 1_555
O24 Si10 1.651124 1_555
O25 Si11 1.652069 1_555
O25 Sc4 2.129408 1_555
O25 Sc3 2.262678 1_555
O26 Si10 1.617776 1_565
O26 Sc3 2.017221 1_555
O27 Si7 1.624746 1_555
O28 Si6 1.655589 1_555
O28 Sc4 2.118214 1_556
O29 Si9 1.648199 1_555
O29 Si7 1.648259 1_555
O30 Si10 1.648536 1_555
O30 Si12 1.650215 1_555
O31 Si13 1.659010 1_555
O31 Sc4 2.272709 1_555
O32 Si12 1.618230 1_555
O32 Sc4 2.014288 1_555
O33 Si9 1.618238 1_545
O33 Sc5 2.014288 1_555
O34 Si8 1.659010 1_555
O34 Sc5 2.272709 1_555
O35 Si11 1.648536 1_555
O35 Si9 1.650211 1_555
O36 Si12 1.648204 1_555
O36 Si15 1.648259 1_544
O37 Si11 1.617784 1_555
O37 Sc6 2.017215 1_555
O38 Si10 1.652069 1_555
O38 Sc5 2.129408 1_555
O38 Sc6 2.262678 1_555
O39 Si13 1.649535 1_555
O39 Si11 1.651124 1_555
O40 Si13 1.615264 1_555
O40 Sc7 2.014594 1_565
O41 Si14 1.655588 1_556
O41 Sc5 2.118213 1_555
O42 Si12 1.651233 1_555
O42 Sc6 2.122605 1_555
O42 Sc7 2.266913 1_555
O43 Si15 1.624746 1_555
O44 Si14 1.644868 1_555
O44 Si13 1.646712 1_555
O45 Si15 1.650254 1_555
O45 Si16 1.653936 1_555
O46 Si14 1.618087 1_555
O46 Sc8 2.017989 1_555
O47 Si17 1.652092 1_555
O47 Sc6 2.119757 1_555
O47 Sc5 2.264800 1_555
O48 Si15 1.652096 1_554
O48 Sc7 2.121509 1_565
O48 Sc8 2.290441 1_565
O49 Si16 1.618861 1_545
O49 Sc5 2.021528 1_555
O50 Si16 1.648959 1_555
O50 Si18 1.651201 1_555
O51 Si19 1.651617 1_555
O51 Sc7 2.123183 1_555
O51 Sc6 2.267174 1_555
O52 Si18 1.617404 1_555
O52 Sc6 2.015781 1_555
O53 Si17 1.647513 1_555
O53 Si14 1.649698 1_556
O54 Si18 1.647681 1_555
O54 Si0 1.650017 1_455
O55 Si1 1.652886 1_455
O55 Sc8 2.120709 1_555
O55 Sc7 2.268943 1_555
O56 Si0 1.616809 1_455
O56 Sc7 2.015193 1_565
O57 Si17 1.616037 1_555
O57 Sc0 2.015997 1_455
O58 Si16 1.652256 1_545
O58 Sc8 2.117943 1_556
O58 Sc0 2.269188 1_445
O59 Si19 1.648865 1_555
O59 Si17 1.649819 1_555
