# generated using pymatgen
data_Na2Sm2B2O7
_symmetry_space_group_name_H-M   'P 1'
_cell_length_a   6.41507700
_cell_length_b   10.46440400
_cell_length_c   10.83196299
_cell_angle_alpha   62.21361982
_cell_angle_beta   90.00000000
_cell_angle_gamma   90.00000000
_symmetry_Int_Tables_number   1
_chemical_formula_structural   Na2Sm2B2O7
_chemical_formula_sum   'Na8 Sm8 B8 O28'
_cell_volume   643.30295832
_cell_formula_units_Z   4
loop_
 _symmetry_equiv_pos_site_id
 _symmetry_equiv_pos_as_xyz
  1  'x, y, z'
loop_
 _atom_site_type_symbol
 _atom_site_label
 _atom_site_symmetry_multiplicity
 _atom_site_fract_x
 _atom_site_fract_y
 _atom_site_fract_z
 _atom_site_occupancy
  Na  Na0  1  0.26242500  0.95321000  0.10943400  1
  Na  Na1  1  0.73757500  0.04679000  0.89056600  1
  Na  Na2  1  0.76242500  0.54679000  0.89056600  1
  Na  Na3  1  0.23757500  0.45321000  0.10943400  1
  Na  Na4  1  0.94263100  0.73752900  0.02293300  1
  Na  Na5  1  0.05736900  0.26247100  0.97706700  1
  Na  Na6  1  0.44263100  0.76247100  0.97706700  1
  Na  Na7  1  0.55736900  0.23752900  0.02293300  1
  Sm  Sm0  1  0.95966600  0.68088000  0.51755700  1
  Sm  Sm1  1  0.04033400  0.31912000  0.48244300  1
  Sm  Sm2  1  0.45966600  0.81912000  0.48244300  1
  Sm  Sm3  1  0.54033400  0.18088000  0.51755700  1
  Sm  Sm4  1  0.58223700  0.58931100  0.31466200  1
  Sm  Sm5  1  0.41776300  0.41068900  0.68533800  1
  Sm  Sm6  1  0.08223700  0.91068900  0.68533800  1
  Sm  Sm7  1  0.91776300  0.08931100  0.31466200  1
  B  B0  1  0.74905300  0.92022500  0.18181300  1
  B  B1  1  0.25094700  0.07977500  0.81818700  1
  B  B2  1  0.24905300  0.57977500  0.81818700  1
  B  B3  1  0.75094700  0.42022500  0.18181300  1
  B  B4  1  0.65291400  0.85034100  0.70951800  1
  B  B5  1  0.34708600  0.14965900  0.29048200  1
  B  B6  1  0.15291400  0.64965900  0.29048200  1
  B  B7  1  0.84708600  0.35034100  0.70951800  1
  O  O0  1  0.75711800  0.77208300  0.65208500  1
  O  O1  1  0.24288200  0.22791700  0.34791500  1
  O  O2  1  0.25711800  0.72791700  0.34791500  1
  O  O3  1  0.74288200  0.27208300  0.65208500  1
  O  O4  1  0.96127500  0.58805900  0.34880400  1
  O  O5  1  0.03872500  0.41194100  0.65119600  1
  O  O6  1  0.46127500  0.91194100  0.65119600  1
  O  O7  1  0.53872500  0.08805900  0.34880400  1
  O  O8  1  0.64937200  0.84083200  0.12718400  1
  O  O9  1  0.35062800  0.15916800  0.87281600  1
  O  O10  1  0.14937200  0.65916800  0.87281600  1
  O  O11  1  0.85062800  0.34083200  0.12718400  1
  O  O12  1  0.62352700  0.59621900  0.52727000  1
  O  O13  1  0.37647300  0.40378100  0.47273000  1
  O  O14  1  0.12352700  0.90378100  0.47273000  1
  O  O15  1  0.87647300  0.09621900  0.52727000  1
  O  O16  1  0.76204300  0.86538100  0.32892600  1
  O  O17  1  0.23795700  0.13461900  0.67107400  1
  O  O18  1  0.26204300  0.63461900  0.67107400  1
  O  O19  1  0.73795700  0.36538100  0.32892600  1
  O  O20  1  0.24324100  0.63596300  0.18279600  1
  O  O21  1  0.75675900  0.36403700  0.81720400  1
  O  O22  1  0.74324100  0.86403700  0.81720400  1
  O  O23  1  0.25675900  0.13596300  0.18279600  1
  O  O24  1  0.66292800  0.55460700  0.10208100  1
  O  O25  1  0.33707200  0.44539300  0.89791900  1
  O  O26  1  0.16292800  0.94539300  0.89791900  1
  O  O27  1  0.83707200  0.05460700  0.10208100  1
loop_
_geom_bond_atom_site_label_1
_geom_bond_atom_site_label_2
_geom_bond_distance
_geom_bond_site_symmetry_2
Na0 O23 2.388927 1_565
Na0 O26 2.416210 1_554
Na0 O9 2.526674 1_564
Na0 O2 2.560106 1_555
Na0 O8 2.714931 1_555
Na0 O27 2.915313 1_465
Na1 O22 2.388927 1_545
Na1 O27 2.416210 1_556
Na1 O8 2.526674 1_546
Na1 O3 2.560106 1_555
Na1 O9 2.714931 1_555
Na1 O26 2.915313 1_645
Na2 O21 2.388927 1_555
Na2 O24 2.416210 1_556
Na2 O11 2.526674 1_556
Na2 O0 2.560106 1_555
Na2 O10 2.714931 1_655
Na2 O25 2.915313 1_555
Na3 O20 2.388927 1_555
Na3 O25 2.416210 1_554
Na3 O10 2.526674 1_554
Na3 O1 2.560106 1_555
Na3 O11 2.714931 1_455
Na3 O24 2.915313 1_555
Na4 O22 2.367296 1_554
Na4 O26 2.411647 1_654
Na4 O24 2.467503 1_555
Na4 O20 2.476103 1_655
Na4 O10 2.513686 1_654
Na4 O8 2.668541 1_555
Na5 O23 2.367296 1_556
Na5 O27 2.411647 1_456
Na5 O25 2.467503 1_555
Na5 O21 2.476103 1_455
Na5 O11 2.513686 1_456
Na5 O9 2.668541 1_555
Na6 O20 2.367296 1_556
Na6 O24 2.411647 1_556
Na6 O26 2.467503 1_555
Na6 O22 2.476103 1_555
Na6 O8 2.513686 1_556
Na6 O10 2.668541 1_555
Na7 O21 2.367296 1_554
Na7 O25 2.411647 1_554
Na7 O27 2.467503 1_555
Na7 O23 2.476103 1_555
Na7 O9 2.513686 1_554
Na7 O11 2.668541 1_555
B0 O8 1.381179 1_555
B0 O27 1.381979 1_565
B0 O16 1.422308 1_555
B1 O9 1.381179 1_555
B1 O26 1.381979 1_545
B1 O17 1.422308 1_555
B2 O10 1.381179 1_555
B2 O25 1.381979 1_555
B2 O18 1.422308 1_555
B3 O11 1.381179 1_555
B3 O24 1.381979 1_555
B3 O19 1.422308 1_555
B4 O22 1.368497 1_555
B4 O6 1.395103 1_555
B4 O0 1.406954 1_555
B5 O23 1.368497 1_555
B5 O7 1.395103 1_555
B5 O1 1.406954 1_555
B6 O20 1.368497 1_555
B6 O4 1.395103 1_455
B6 O2 1.406954 1_555
B7 O21 1.368497 1_555
B7 O5 1.395103 1_655
B7 O3 1.406954 1_555
O0 Sm0 2.453422 1_555
O0 Sm2 2.533129 1_555
O0 Sm6 2.659055 1_655
O1 Sm1 2.453422 1_555
O1 Sm3 2.533129 1_555
O1 Sm7 2.659055 1_455
O2 Sm2 2.453422 1_555
O2 Sm0 2.533129 1_455
O2 Sm4 2.659055 1_555
O3 Sm3 2.453422 1_555
O3 Sm1 2.533129 1_655
O3 Sm5 2.659055 1_555
O4 Sm0 2.437266 1_555
O4 Sm4 2.458638 1_555
O4 Sm1 2.544523 1_655
O5 Sm1 2.437266 1_555
O5 Sm5 2.458638 1_555
O5 Sm0 2.544523 1_455
O6 Sm2 2.437266 1_555
O6 Sm6 2.458638 1_555
O6 Sm3 2.544523 1_565
O7 Sm3 2.437266 1_555
O7 Sm7 2.458638 1_555
O7 Sm2 2.544523 1_545
O8 Sm4 2.500711 1_555
O9 Sm5 2.500711 1_555
O10 Sm6 2.500711 1_555
O11 Sm7 2.500711 1_555
O12 Sm5 2.311700 1_555
O12 Sm0 2.314932 1_555
O12 Sm4 2.352496 1_555
O12 Sm2 2.392793 1_555
O13 Sm4 2.311700 1_555
O13 Sm1 2.314932 1_555
O13 Sm5 2.352496 1_555
O13 Sm3 2.392793 1_555
O14 Sm7 2.311700 1_465
O14 Sm2 2.314932 1_555
O14 Sm6 2.352496 1_555
O14 Sm0 2.392793 1_455
O15 Sm6 2.311700 1_645
O15 Sm3 2.314932 1_555
O15 Sm7 2.352496 1_555
O15 Sm1 2.392793 1_655
O16 Sm0 2.414878 1_555
O16 Sm2 2.451882 1_555
O16 Sm7 2.485005 1_565
O17 Sm1 2.414878 1_555
O17 Sm3 2.451882 1_555
O17 Sm6 2.485005 1_545
O18 Sm2 2.414878 1_555
O18 Sm0 2.451882 1_455
O18 Sm5 2.485005 1_555
O19 Sm3 2.414878 1_555
O19 Sm1 2.451882 1_655
O19 Sm4 2.485005 1_555
O20 Sm4 2.521444 1_555
O21 Sm5 2.521444 1_555
O22 Sm6 2.521444 1_655
O23 Sm7 2.521444 1_455
O24 Sm4 2.545934 1_555
O25 Sm5 2.545934 1_555
O26 Sm6 2.545934 1_555
O27 Sm7 2.545934 1_555
