# generated using pymatgen
data_Ba4Lu6O13
_symmetry_space_group_name_H-M   'P 1'
_cell_length_a   12.55348031
_cell_length_b   12.55348031
_cell_length_c   12.55348031
_cell_angle_alpha   152.41159014
_cell_angle_beta   121.95989797
_cell_angle_gamma   65.44145328
_symmetry_Int_Tables_number   1
_chemical_formula_structural   Ba4Lu6O13
_chemical_formula_sum   'Ba8 Lu12 O26'
_cell_volume   770.06422155
_cell_formula_units_Z   2
loop_
 _symmetry_equiv_pos_site_id
 _symmetry_equiv_pos_as_xyz
  1  'x, y, z'
loop_
 _atom_site_type_symbol
 _atom_site_label
 _atom_site_symmetry_multiplicity
 _atom_site_fract_x
 _atom_site_fract_y
 _atom_site_fract_z
 _atom_site_occupancy
  Ba  Ba0  1  0.29112000  0.15823500  0.12980200  1
  Ba  Ba1  1  0.45719400  0.33386300  0.11936900  1
  Ba  Ba2  1  0.21449400  0.83386300  0.37667000  1
  Ba  Ba3  1  0.02843300  0.65823500  0.36711500  1
  Ba  Ba4  1  0.97156700  0.33868200  0.62980200  1
  Ba  Ba5  1  0.78550600  0.16217600  0.61936900  1
  Ba  Ba6  1  0.54280600  0.66217600  0.87667000  1
  Ba  Ba7  1  0.70888000  0.83868200  0.86711500  1
  Lu  Lu0  1  0.83744700  0.39400400  0.30359800  1
  Lu  Lu1  1  0.37187500  0.74802300  0.62513500  1
  Lu  Lu2  1  0.55851500  0.93572800  0.59049300  1
  Lu  Lu3  1  0.34523500  0.43572800  0.87721300  1
  Lu  Lu4  1  0.12288800  0.24802300  0.87614800  1
  Lu  Lu5  1  0.90959400  0.96615100  0.80359800  1
  Lu  Lu6  1  0.09040600  0.89400400  0.05655700  1
  Lu  Lu7  1  0.87711200  0.75326000  0.12513500  1
  Lu  Lu8  1  0.65476500  0.53197800  0.09049300  1
  Lu  Lu9  1  0.44148500  0.03197800  0.37721300  1
  Lu  Lu10  1  0.62812500  0.25326000  0.37614800  1
  Lu  Lu11  1  0.16255300  0.46615100  0.55655700  1
  O  O0  1  0.00000000  0.69793700  0.69793700  1
  O  O1  1  0.00000000  0.19793700  0.19793700  1
  O  O2  1  0.74094600  0.35581200  0.36269100  1
  O  O3  1  0.74533600  0.09211600  0.89719500  1
  O  O4  1  0.50493400  0.50485000  0.49757600  1
  O  O5  1  0.47668400  0.87787300  0.64571500  1
  O  O6  1  0.51954600  0.58080600  0.19692200  1
  O  O7  1  0.24542800  0.49284700  0.24965000  1
  O  O8  1  0.24319800  0.99284700  0.74742000  1
  O  O9  1  0.38388400  0.08080600  0.56126000  1
  O  O10  1  0.00687900  0.12174500  0.86269100  1
  O  O11  1  0.23215900  0.37787300  0.90119000  1
  O  O12  1  0.80507900  0.65185900  0.39719500  1
  O  O13  1  0.00727400  0.00485000  0.49991600  1
  O  O14  1  0.99272600  0.49264200  0.99757600  1
  O  O15  1  0.19492100  0.59211600  0.84678000  1
  O  O16  1  0.76784100  0.66903100  0.14571500  1
  O  O17  1  0.99312100  0.85581200  0.11486600  1
  O  O18  1  0.61611600  0.17737600  0.69692200  1
  O  O19  1  0.75680200  0.50422200  0.74965000  1
  O  O20  1  0.75457200  0.00422200  0.24742000  1
  O  O21  1  0.48045400  0.67737600  0.06126000  1
  O  O22  1  0.52331600  0.16903100  0.40119000  1
  O  O23  1  0.49506600  0.99264200  0.99991600  1
  O  O24  1  0.25466400  0.15185900  0.34678000  1
  O  O25  1  0.25905400  0.62174500  0.61486600  1
loop_
_geom_bond_atom_site_label_1
_geom_bond_atom_site_label_2
_geom_bond_distance
_geom_bond_site_symmetry_2
Ba0 O23 2.742600 1_544
Ba0 O7 2.818785 1_555
Ba0 O8 2.833677 1_544
Ba0 O4 2.903904 1_555
Ba0 O25 2.990059 1_555
Ba0 O22 3.019682 1_555
Ba0 O24 3.061319 1_555
Ba0 O25 3.103910 1_544
Ba0 O10 3.186710 1_554
Ba1 O6 2.651598 1_555
Ba1 O4 2.738731 1_555
Ba1 O7 2.851608 1_555
Ba1 O8 2.862426 1_544
Ba1 O5 2.867934 1_544
Ba1 O23 2.915318 1_544
Ba1 O11 2.996845 1_554
Ba1 O2 3.146399 1_555
Ba1 O5 3.169845 1_555
Ba2 O9 2.651606 1_565
Ba2 O13 2.738727 1_565
Ba2 O8 2.851602 1_555
Ba2 O7 2.862423 1_555
Ba2 O11 2.867938 1_554
Ba2 O14 2.915316 1_454
Ba2 O5 2.996852 1_555
Ba2 O17 3.146407 1_455
Ba2 O11 3.169843 1_565
Ba3 O14 2.742600 1_454
Ba3 O8 2.818792 1_555
Ba3 O7 2.833684 1_555
Ba3 O13 2.903904 1_565
Ba3 O10 2.990059 1_565
Ba3 O16 3.019682 1_455
Ba3 O12 3.061319 1_455
Ba3 O10 3.103910 1_554
Ba3 O25 3.186710 1_555
Ba4 O13 2.742600 1_655
Ba4 O19 2.818797 1_555
Ba4 O20 2.833686 1_555
Ba4 O14 2.903904 1_555
Ba4 O17 2.990059 1_556
Ba4 O11 3.019687 1_655
Ba4 O15 3.061319 1_655
Ba4 O17 3.103910 1_545
Ba4 O2 3.186710 1_555
Ba5 O18 2.651606 1_555
Ba5 O14 2.738727 1_555
Ba5 O19 2.851593 1_555
Ba5 O20 2.862412 1_555
Ba5 O16 2.867936 1_545
Ba5 O13 2.915316 1_655
Ba5 O22 2.996848 1_555
Ba5 O10 3.146407 1_655
Ba5 O16 3.169848 1_556
Ba6 O21 2.651596 1_556
Ba6 O23 2.738728 1_555
Ba6 O20 2.851602 1_566
Ba6 O19 2.862423 1_555
Ba6 O22 2.867938 1_555
Ba6 O4 2.915322 1_555
Ba6 O16 2.996852 1_556
Ba6 O25 3.146399 1_555
Ba6 O22 3.169843 1_566
Ba7 O4 2.742600 1_555
Ba7 O20 2.818797 1_566
Ba7 O19 2.833686 1_555
Ba7 O23 2.903904 1_555
Ba7 O2 2.990059 1_566
Ba7 O5 3.019675 1_555
Ba7 O3 3.061319 1_565
Ba7 O2 3.103910 1_555
Ba7 O17 3.186710 1_556
Lu0 O2 2.076612 1_555
Lu0 O12 2.166562 1_555
Lu0 O3 2.202864 1_554
Lu0 O1 2.210190 1_655
Lu0 O0 2.350525 1_655
Lu1 O7 2.130745 1_555
Lu1 O8 2.132354 1_555
Lu1 O23 2.142872 1_555
Lu1 O4 2.145045 1_555
Lu1 O5 2.265264 1_555
Lu1 O25 2.417894 1_555
Lu2 O5 2.080831 1_555
Lu2 O6 2.175712 1_555
Lu2 O3 2.246720 1_565
Lu2 O18 2.264184 1_565
Lu2 O9 2.296009 1_565
Lu3 O11 2.080830 1_555
Lu3 O9 2.175712 1_555
Lu3 O15 2.246720 1_555
Lu3 O21 2.264184 1_556
Lu3 O6 2.296009 1_556
Lu4 O8 2.130753 1_545
Lu4 O7 2.132363 1_556
Lu4 O14 2.142872 1_455
Lu4 O13 2.145045 1_555
Lu4 O11 2.265264 1_555
Lu4 O10 2.417894 1_555
Lu5 O10 2.076612 1_665
Lu5 O3 2.166562 1_565
Lu5 O12 2.202864 1_555
Lu5 O0 2.210190 1_655
Lu5 O1 2.350525 1_666
Lu6 O17 2.076612 1_455
Lu6 O24 2.166562 1_565
Lu6 O15 2.202864 1_554
Lu6 O0 2.210190 1_554
Lu6 O1 2.350525 1_565
Lu7 O19 2.130747 1_554
Lu7 O20 2.132360 1_565
Lu7 O13 2.142872 1_665
Lu7 O14 2.145045 1_554
Lu7 O16 2.265275 1_555
Lu7 O17 2.417894 1_555
Lu8 O16 2.080821 1_555
Lu8 O18 2.175712 1_554
Lu8 O12 2.246720 1_555
Lu8 O6 2.264184 1_555
Lu8 O21 2.296009 1_555
Lu9 O22 2.080821 1_555
Lu9 O21 2.175712 1_545
Lu9 O24 2.246720 1_555
Lu9 O9 2.264184 1_555
Lu9 O18 2.296009 1_555
Lu10 O20 2.130747 1_555
Lu10 O19 2.132360 1_555
Lu10 O4 2.142872 1_555
Lu10 O23 2.145045 1_544
Lu10 O22 2.265275 1_555
Lu10 O2 2.417894 1_555
Lu11 O25 2.076612 1_555
Lu11 O15 2.166562 1_555
Lu11 O24 2.202864 1_555
Lu11 O1 2.210190 1_555
Lu11 O0 2.350525 1_555
