# generated using pymatgen
data_LuZnSn2
_symmetry_space_group_name_H-M   'P 1'
_cell_length_a   4.32791500
_cell_length_b   4.32791500
_cell_length_c   9.74529400
_cell_angle_alpha   90.00000000
_cell_angle_beta   90.00000000
_cell_angle_gamma   90.00000000
_symmetry_Int_Tables_number   1
_chemical_formula_structural   LuZnSn2
_chemical_formula_sum   'Lu2 Zn2 Sn4'
_cell_volume   182.53762304
_cell_formula_units_Z   2
loop_
 _symmetry_equiv_pos_site_id
 _symmetry_equiv_pos_as_xyz
  1  'x, y, z'
loop_
 _atom_site_type_symbol
 _atom_site_label
 _atom_site_symmetry_multiplicity
 _atom_site_fract_x
 _atom_site_fract_y
 _atom_site_fract_z
 _atom_site_occupancy
  Lu  Lu0  1  0.00000000  0.50000000  0.75076300  1
  Lu  Lu1  1  0.50000000  0.00000000  0.24923700  1
  Zn  Zn0  1  0.00000000  0.00000000  0.50000000  1
  Zn  Zn1  1  0.50000000  0.50000000  0.50000000  1
  Sn  Sn0  1  0.00000000  0.00000000  0.00000000  1
  Sn  Sn1  1  0.50000000  0.50000000  0.00000000  1
  Sn  Sn2  1  0.00000000  0.50000000  0.31000300  1
  Sn  Sn3  1  0.50000000  0.00000000  0.68999700  1
loop_
_geom_bond_atom_site_label_1
_geom_bond_atom_site_label_2
_geom_bond_distance
_geom_bond_site_symmetry_2
Lu0 Sn3 3.117067 1_565
Lu0 Sn3 3.117067 1_555
Lu0 Sn3 3.117067 1_465
Lu0 Sn3 3.117067 1_455
Lu0 Sn0 3.253031 1_566
Lu0 Sn1 3.253031 1_456
Lu0 Sn1 3.253031 1_556
Lu0 Sn0 3.253031 1_556
Lu0 Zn1 3.264149 1_455
Lu0 Zn0 3.264149 1_555
Lu0 Zn1 3.264149 1_555
Lu0 Zn0 3.264149 1_565
Lu1 Sn2 3.117067 1_655
Lu1 Sn2 3.117067 1_545
Lu1 Sn2 3.117067 1_645
Lu1 Sn2 3.117067 1_555
Lu1 Sn1 3.253031 1_555
Lu1 Sn0 3.253031 1_555
Lu1 Sn0 3.253031 1_655
Lu1 Sn1 3.253031 1_545
Lu1 Zn0 3.264149 1_555
Lu1 Zn1 3.264149 1_545
Lu1 Zn1 3.264149 1_555
Lu1 Zn0 3.264149 1_655
Zn0 Zn1 3.060298 1_445
Zn0 Zn1 3.060298 1_555
Zn0 Zn1 3.060298 1_545
Zn0 Zn1 3.060298 1_455
Sn0 Sn1 3.060298 1_545
Sn0 Sn1 3.060298 1_445
Sn0 Sn1 3.060298 1_555
Sn0 Sn1 3.060298 1_455
Sn2 Zn0 2.847990 1_565
Sn2 Zn0 2.847990 1_555
Sn2 Zn1 2.847990 1_455
Sn2 Zn1 2.847990 1_555
Sn3 Zn1 2.847990 1_545
Sn3 Zn0 2.847990 1_655
Sn3 Zn0 2.847990 1_555
Sn3 Zn1 2.847990 1_555
