# generated using pymatgen
data_UCoGe
_symmetry_space_group_name_H-M   'P 1'
_cell_length_a   4.17558512
_cell_length_b   4.17558512
_cell_length_c   6.81130062
_cell_angle_alpha   89.99991370
_cell_angle_beta   90.00008630
_cell_angle_gamma   119.99824292
_symmetry_Int_Tables_number   1
_chemical_formula_structural   UCoGe
_chemical_formula_sum   'U2 Co2 Ge2'
_cell_volume   102.84970557
_cell_formula_units_Z   2
loop_
 _symmetry_equiv_pos_site_id
 _symmetry_equiv_pos_as_xyz
  1  'x, y, z'
loop_
 _atom_site_type_symbol
 _atom_site_label
 _atom_site_symmetry_multiplicity
 _atom_site_fract_x
 _atom_site_fract_y
 _atom_site_fract_z
 _atom_site_occupancy
  U  U0  1  -0.00000000  -0.00000000  0.50000000  1
  U  U1  1  -0.00000000  -0.00000000  -0.00000000  1
  Co  Co0  1  0.66682205  0.33317795  0.74997937  1
  Co  Co1  1  0.33317795  0.66682205  0.25002063  1
  Ge  Ge0  1  0.33339878  0.66660122  0.74996046  1
  Ge  Ge1  1  0.66660122  0.33339878  0.25003954  1
loop_
_geom_bond_atom_site_label_1
_geom_bond_atom_site_label_2
_geom_bond_distance
_geom_bond_site_symmetry_2
Co0 Ge0 2.410493 1_655
Co0 Ge0 2.410493 1_545
Co0 Ge0 2.411404 1_555
Co0 U0 2.950503 1_655
Co0 U1 2.950660 1_656
Co0 U0 2.951928 1_555
Co0 U0 2.951928 1_665
Co0 U1 2.952093 1_666
Co0 U1 2.952093 1_556
Co1 Ge1 2.410493 1_565
Co1 Ge1 2.410493 1_455
Co1 Ge1 2.411404 1_555
Co1 U0 2.950503 1_565
Co1 U1 2.950660 1_565
Co1 U0 2.951928 1_665
Co1 U0 2.951928 1_555
Co1 U1 2.952093 1_665
Co1 U1 2.952093 1_555
Ge0 U0 2.951204 1_665
Ge0 U0 2.951204 1_555
Ge0 U1 2.951512 1_556
Ge0 U1 2.951512 1_666
Ge0 U0 2.951728 1_565
Ge0 U1 2.952044 1_566
Ge1 U0 2.951204 1_665
Ge1 U0 2.951204 1_555
Ge1 U1 2.951512 1_665
Ge1 U1 2.951512 1_555
Ge1 U0 2.951728 1_655
Ge1 U1 2.952044 1_655
