# generated using pymatgen
data_Fe3Ni3Pt2
_symmetry_space_group_name_H-M   'P 1'
_cell_length_a   3.64784400
_cell_length_b   3.68160500
_cell_length_c   7.23053100
_cell_angle_alpha   90.00000000
_cell_angle_beta   90.00000000
_cell_angle_gamma   90.00000000
_symmetry_Int_Tables_number   1
_chemical_formula_structural   Fe3Ni3Pt2
_chemical_formula_sum   'Fe3 Ni3 Pt2'
_cell_volume   97.10545802
_cell_formula_units_Z   1
loop_
 _symmetry_equiv_pos_site_id
 _symmetry_equiv_pos_as_xyz
  1  'x, y, z'
loop_
 _atom_site_type_symbol
 _atom_site_label
 _atom_site_symmetry_multiplicity
 _atom_site_fract_x
 _atom_site_fract_y
 _atom_site_fract_z
 _atom_site_occupancy
  Fe  Fe0  1  0.50000000  0.50000000  0.25385600  1
  Fe  Fe1  1  0.50000000  0.50000000  0.74614400  1
  Fe  Fe2  1  0.00000000  0.50000000  0.50000000  1
  Ni  Ni0  1  0.00000000  0.50000000  0.00000000  1
  Ni  Ni1  1  0.50000000  0.00000000  0.50000000  1
  Ni  Ni2  1  0.50000000  0.00000000  0.00000000  1
  Pt  Pt0  1  0.00000000  0.00000000  0.24957900  1
  Pt  Pt1  1  0.00000000  0.00000000  0.75042100  1
loop_
_geom_bond_atom_site_label_1
_geom_bond_atom_site_label_2
_geom_bond_distance
_geom_bond_site_symmetry_2
Fe0 Fe2 2.548374 1_655
Fe0 Fe2 2.548374 1_555
Fe0 Ni1 2.560482 1_555
Fe0 Ni1 2.560482 1_565
Fe0 Ni0 2.587625 1_655
Fe0 Ni0 2.587625 1_555
Fe0 Pt0 2.591564 1_555
Fe0 Pt0 2.591564 1_655
Fe0 Pt0 2.591564 1_565
Fe0 Pt0 2.591564 1_665
Fe0 Ni2 2.599551 1_555
Fe0 Ni2 2.599551 1_565
Fe1 Fe2 2.548374 1_555
Fe1 Fe2 2.548374 1_655
Fe1 Ni1 2.560482 1_565
Fe1 Ni1 2.560482 1_555
Fe1 Ni0 2.587625 1_556
Fe1 Ni0 2.587625 1_656
Fe1 Pt1 2.591564 1_565
Fe1 Pt1 2.591564 1_665
Fe1 Pt1 2.591564 1_555
Fe1 Pt1 2.591564 1_655
Fe1 Ni2 2.599551 1_556
Fe1 Ni2 2.599551 1_566
Fe2 Pt0 2.582074 1_555
Fe2 Pt0 2.582074 1_565
Fe2 Pt1 2.582074 1_555
Fe2 Pt1 2.582074 1_565
Fe2 Ni1 2.591379 1_465
Fe2 Ni1 2.591379 1_455
Fe2 Ni1 2.591379 1_555
Fe2 Ni1 2.591379 1_565
Ni0 Pt1 2.577808 1_564
Ni0 Pt0 2.577808 1_555
Ni0 Pt0 2.577808 1_565
Ni0 Pt1 2.577808 1_554
Ni0 Ni2 2.591379 1_455
Ni0 Ni2 2.591379 1_565
Ni0 Ni2 2.591379 1_465
Ni0 Ni2 2.591379 1_555
Ni1 Pt0 2.570067 1_555
Ni1 Pt0 2.570067 1_655
Ni1 Pt1 2.570067 1_555
Ni1 Pt1 2.570067 1_655
Ni2 Pt1 2.565781 1_554
Ni2 Pt0 2.565781 1_655
Ni2 Pt1 2.565781 1_654
Ni2 Pt0 2.565781 1_555
