# generated using pymatgen
data_TmWC2
_symmetry_space_group_name_H-M   'P 1'
_cell_length_a   3.32526349
_cell_length_b   5.66859662
_cell_length_c   10.70807455
_cell_angle_alpha   90.00000000
_cell_angle_beta   90.00000000
_cell_angle_gamma   90.00000000
_symmetry_Int_Tables_number   1
_chemical_formula_structural   TmWC2
_chemical_formula_sum   'Tm4 W4 C8'
_cell_volume   201.84267982
_cell_formula_units_Z   4
loop_
 _symmetry_equiv_pos_site_id
 _symmetry_equiv_pos_as_xyz
  1  'x, y, z'
loop_
 _atom_site_type_symbol
 _atom_site_label
 _atom_site_symmetry_multiplicity
 _atom_site_fract_x
 _atom_site_fract_y
 _atom_site_fract_z
 _atom_site_occupancy
  Tm  Tm0  1  0.25000000  0.58586055  0.36258614  1
  Tm  Tm1  1  0.25000000  0.08586055  0.13741386  1
  Tm  Tm2  1  0.75000000  0.41413945  0.63741386  1
  Tm  Tm3  1  0.75000000  0.91413945  0.86258614  1
  W  W0  1  0.25000000  0.90121931  0.61058177  1
  W  W1  1  0.25000000  0.40121931  0.88941823  1
  W  W2  1  0.75000000  0.09878069  0.38941823  1
  W  W3  1  0.75000000  0.59878069  0.11058177  1
  C  C0  1  0.25000000  0.65880307  0.74685490  1
  C  C1  1  0.25000000  0.15880307  0.75314510  1
  C  C2  1  0.75000000  0.34119693  0.25314510  1
  C  C3  1  0.75000000  0.84119693  0.24685490  1
  C  C4  1  0.25000000  0.22850333  0.48562845  1
  C  C5  1  0.25000000  0.72850333  0.01437155  1
  C  C6  1  0.75000000  0.77149667  0.51437155  1
  C  C7  1  0.75000000  0.27149667  0.98562845  1
loop_
_geom_bond_atom_site_label_1
_geom_bond_atom_site_label_2
_geom_bond_distance
_geom_bond_site_symmetry_2
C0 W0 2.004407 1_555
C0 W1 2.112450 1_555
C0 Tm2 2.461948 1_555
C0 Tm2 2.461948 1_455
C0 Tm3 2.528848 1_555
C0 Tm3 2.528848 1_455
C1 W1 2.004407 1_555
C1 W0 2.112450 1_545
C1 Tm3 2.461948 1_445
C1 Tm3 2.461948 1_545
C1 Tm2 2.528848 1_555
C1 Tm2 2.528848 1_455
C2 W2 2.004407 1_555
C2 W3 2.112450 1_555
C2 Tm0 2.461948 1_555
C2 Tm0 2.461948 1_655
C2 Tm1 2.528848 1_655
C2 Tm1 2.528848 1_555
C3 W3 2.004407 1_555
C3 W2 2.112450 1_565
C3 Tm1 2.461948 1_665
C3 Tm1 2.461948 1_565
C3 Tm0 2.528848 1_655
C3 Tm0 2.528848 1_555
C4 W2 2.089604 1_555
C4 W2 2.089604 1_455
C4 W0 2.287398 1_545
C4 Tm0 2.416494 1_555
C4 Tm2 2.552130 1_555
C4 Tm2 2.552130 1_455
C5 W3 2.089604 1_555
C5 W3 2.089604 1_455
C5 W1 2.287398 1_554
C5 Tm1 2.416494 1_565
C5 Tm3 2.552130 1_554
C5 Tm3 2.552130 1_454
C6 W0 2.089604 1_555
C6 W0 2.089604 1_655
C6 W2 2.287398 1_565
C6 Tm2 2.416494 1_555
C6 Tm0 2.552130 1_555
C6 Tm0 2.552130 1_655
C7 W1 2.089604 1_555
C7 W1 2.089604 1_655
C7 W3 2.287398 1_556
C7 Tm3 2.416494 1_545
C7 Tm1 2.552130 1_556
C7 Tm1 2.552130 1_656
