# generated using pymatgen
data_Rb2TiSi3O10
_symmetry_space_group_name_H-M   'P 1'
_cell_length_a   7.31717000
_cell_length_b   10.20903100
_cell_length_c   13.07258200
_cell_angle_alpha   90.00000000
_cell_angle_beta   90.00000000
_cell_angle_gamma   90.00000000
_symmetry_Int_Tables_number   1
_chemical_formula_structural   Rb2TiSi3O10
_chemical_formula_sum   'Rb8 Ti4 Si12 O40'
_cell_volume   976.53776332
_cell_formula_units_Z   4
loop_
 _symmetry_equiv_pos_site_id
 _symmetry_equiv_pos_as_xyz
  1  'x, y, z'
loop_
 _atom_site_type_symbol
 _atom_site_label
 _atom_site_symmetry_multiplicity
 _atom_site_fract_x
 _atom_site_fract_y
 _atom_site_fract_z
 _atom_site_occupancy
  Rb  Rb0  1  0.19861200  0.28635000  0.37604100  1
  Rb  Rb1  1  0.30138800  0.71365000  0.87604100  1
  Rb  Rb2  1  0.80138800  0.78635000  0.12395900  1
  Rb  Rb3  1  0.69861200  0.21365000  0.62395900  1
  Rb  Rb4  1  0.23161400  0.43848500  0.08821000  1
  Rb  Rb5  1  0.26838600  0.56151500  0.58821000  1
  Rb  Rb6  1  0.76838600  0.93848500  0.41179000  1
  Rb  Rb7  1  0.73161400  0.06151500  0.91179000  1
  Ti  Ti0  1  0.25803100  0.05541500  0.78695100  1
  Ti  Ti1  1  0.24196900  0.94458500  0.28695100  1
  Ti  Ti2  1  0.74196900  0.55541500  0.71304900  1
  Ti  Ti3  1  0.75803100  0.44458500  0.21304900  1
  Si  Si0  1  0.52767500  0.16674800  0.17782900  1
  Si  Si1  1  0.97232500  0.83325200  0.67782900  1
  Si  Si2  1  0.47232500  0.66674800  0.32217100  1
  Si  Si3  1  0.02767500  0.33325200  0.82217100  1
  Si  Si4  1  0.06493800  0.64567600  0.32801300  1
  Si  Si5  1  0.43506200  0.35432400  0.82801300  1
  Si  Si6  1  0.93506200  0.14567600  0.17198700  1
  Si  Si7  1  0.56493800  0.85432400  0.67198700  1
  Si  Si8  1  0.24106800  0.04019600  0.04861700  1
  Si  Si9  1  0.25893200  0.95980400  0.54861700  1
  Si  Si10  1  0.75893200  0.54019600  0.45138300  1
  Si  Si11  1  0.74106800  0.45980400  0.95138300  1
  O  O0  1  0.06674500  0.80219500  0.30509100  1
  O  O1  1  0.43325500  0.19780500  0.80509100  1
  O  O2  1  0.93325500  0.30219500  0.19490900  1
  O  O3  1  0.56674500  0.69780500  0.69490900  1
  O  O4  1  0.23340500  0.00206900  0.43062400  1
  O  O5  1  0.26659500  0.99793100  0.93062400  1
  O  O6  1  0.76659500  0.50206900  0.06937600  1
  O  O7  1  0.73340500  0.49793100  0.56937600  1
  O  O8  1  0.03960900  0.11294500  0.06271600  1
  O  O9  1  0.46039100  0.88705500  0.56271600  1
  O  O10  1  0.96039100  0.61294500  0.43728400  1
  O  O11  1  0.53960900  0.38705500  0.93728400  1
  O  O12  1  0.07412300  0.29507300  0.58940700  1
  O  O13  1  0.42587700  0.70492700  0.08940700  1
  O  O14  1  0.92587700  0.79507300  0.91059300  1
  O  O15  1  0.57412300  0.20492700  0.41059300  1
  O  O16  1  0.42369800  0.09467400  0.27250700  1
  O  O17  1  0.07630200  0.90532600  0.77250700  1
  O  O18  1  0.57630200  0.59467400  0.22749300  1
  O  O19  1  0.92369800  0.40532600  0.72749300  1
  O  O20  1  0.03278200  0.06542300  0.26375900  1
  O  O21  1  0.46721800  0.93457700  0.76375900  1
  O  O22  1  0.96721800  0.56542300  0.23624100  1
  O  O23  1  0.53278200  0.43457700  0.73624100  1
  O  O24  1  0.55912600  0.32203600  0.19627600  1
  O  O25  1  0.94087400  0.67796400  0.69627600  1
  O  O26  1  0.44087400  0.82203600  0.30372400  1
  O  O27  1  0.05912600  0.17796400  0.80372400  1
  O  O28  1  0.39985800  0.15142100  0.07469100  1
  O  O29  1  0.10014200  0.84857900  0.57469100  1
  O  O30  1  0.60014200  0.65142100  0.42530900  1
  O  O31  1  0.89985800  0.34857900  0.92530900  1
  O  O32  1  0.72380200  0.09104900  0.15381700  1
  O  O33  1  0.77619800  0.90895100  0.65381700  1
  O  O34  1  0.27619800  0.59104900  0.34618300  1
  O  O35  1  0.22380200  0.40895100  0.84618300  1
  O  O36  1  0.24581200  0.07557200  0.63502000  1
  O  O37  1  0.25418800  0.92442800  0.13502000  1
  O  O38  1  0.75418800  0.57557200  0.86498000  1
  O  O39  1  0.74581200  0.42442800  0.36498000  1
loop_
_geom_bond_atom_site_label_1
_geom_bond_atom_site_label_2
_geom_bond_distance
_geom_bond_site_symmetry_2
O0 Si4 1.625814 1_555
O0 Ti1 1.952758 1_555
O0 Rb6 2.940686 1_455
O0 Rb2 3.066430 1_455
O1 Si5 1.625814 1_555
O1 Ti0 1.952758 1_555
O1 Rb7 2.940686 1_555
O1 Rb3 3.066430 1_555
O2 Si6 1.625814 1_555
O2 Ti3 1.952758 1_555
O2 Rb4 2.940686 1_655
O2 Rb0 3.066430 1_655
O3 Si7 1.625814 1_555
O3 Ti2 1.952758 1_555
O3 Rb5 2.940686 1_555
O3 Rb1 3.066430 1_555
O4 Si9 1.612542 1_545
O4 Ti1 1.968724 1_545
O4 Rb0 2.999486 1_555
O5 Si8 1.612542 1_566
O5 Ti0 1.968724 1_565
O5 Rb1 2.999486 1_555
O6 Si11 1.612542 1_554
O6 Ti3 1.968724 1_555
O6 Rb2 2.999486 1_555
O7 Si10 1.612542 1_555
O7 Ti2 1.968724 1_555
O7 Rb3 2.999486 1_555
O8 Si6 1.654493 1_455
O8 Si8 1.660894 1_555
O8 Rb7 3.040941 1_454
O9 Si7 1.654493 1_555
O9 Si9 1.660894 1_555
O9 Rb6 3.040941 1_555
O10 Si4 1.654493 1_655
O10 Si10 1.660894 1_555
O10 Rb5 3.040941 1_655
O11 Si5 1.654493 1_555
O11 Si11 1.660894 1_555
O11 Rb4 3.040941 1_556
O12 Rb3 2.905981 1_455
O12 Rb0 2.935569 1_555
O12 Rb5 3.069170 1_555
O13 Rb2 2.905981 1_555
O13 Rb1 2.935569 1_554
O13 Rb4 3.069170 1_555
O14 Rb1 2.905981 1_655
O14 Rb2 2.935569 1_556
O14 Rb7 3.069170 1_565
O15 Rb0 2.905981 1_555
O15 Rb3 2.935569 1_555
O15 Rb6 3.069170 1_545
O16 Si0 1.628533 1_555
O16 Ti1 2.037571 1_545
O16 Rb0 2.893717 1_555
O17 Si1 1.628533 1_455
O17 Ti0 2.037571 1_565
O17 Rb1 2.893717 1_555
O18 Si2 1.628533 1_555
O18 Ti3 2.037571 1_555
O18 Rb2 2.893717 1_555
O19 Si3 1.628533 1_655
O19 Ti2 2.037571 1_555
O19 Rb3 2.893717 1_555
O20 Si6 1.619200 1_455
O20 Ti1 1.989144 1_545
O20 Rb0 2.951931 1_555
O20 Rb6 3.027703 1_445
O21 Si7 1.619200 1_555
O21 Ti0 1.989144 1_565
O21 Rb1 2.951931 1_555
O21 Rb7 3.027703 1_565
O22 Si4 1.619200 1_655
O22 Ti3 1.989144 1_555
O22 Rb2 2.951931 1_555
O22 Rb4 3.027703 1_655
O23 Si5 1.619200 1_555
O23 Ti2 1.989144 1_555
O23 Rb3 2.951931 1_555
O23 Rb5 3.027703 1_555
O24 Si0 1.620005 1_555
O24 Ti3 1.931734 1_555
O24 Rb4 3.025239 1_555
O25 Si1 1.620005 1_555
O25 Ti2 1.931734 1_555
O25 Rb5 3.025239 1_655
O26 Si2 1.620005 1_555
O26 Ti1 1.931734 1_555
O26 Rb6 3.025239 1_555
O27 Si3 1.620005 1_555
O27 Ti0 1.931734 1_555
O27 Rb7 3.025239 1_455
O28 Si0 1.648348 1_555
O28 Si8 1.659981 1_555
O28 Rb4 3.183622 1_555
O28 Rb7 3.357113 1_554
O29 Si1 1.648348 1_455
O29 Si9 1.659981 1_555
O29 Rb5 3.183622 1_555
O29 Rb6 3.357113 1_455
O30 Si2 1.648348 1_555
O30 Si10 1.659981 1_555
O30 Rb6 3.183622 1_555
O30 Rb5 3.357113 1_555
O31 Si3 1.648348 1_655
O31 Si11 1.659981 1_555
O31 Rb7 3.183622 1_555
O31 Rb4 3.357113 1_656
O32 Si0 1.659900 1_555
O32 Si6 1.660425 1_555
O32 Rb7 3.178766 1_554
O32 Rb2 3.186061 1_545
O33 Si1 1.659900 1_555
O33 Si7 1.660425 1_555
O33 Rb6 3.178766 1_555
O33 Rb3 3.186061 1_565
O34 Si2 1.659900 1_555
O34 Si4 1.660425 1_555
O34 Rb5 3.178766 1_555
O34 Rb0 3.186061 1_555
O35 Si3 1.659900 1_555
O35 Si5 1.660425 1_555
O35 Rb4 3.178766 1_556
O35 Rb1 3.186061 1_555
O36 Si9 1.637635 1_545
O36 Ti0 1.998763 1_555
O37 Si8 1.637635 1_565
O37 Ti1 1.998763 1_555
O38 Si11 1.637635 1_555
O38 Ti2 1.998763 1_555
O39 Si10 1.637635 1_555
O39 Ti3 1.998763 1_555
