# generated using pymatgen
data_La3Si2ClO8
_symmetry_space_group_name_H-M   'P 1'
_cell_length_a   8.03350486
_cell_length_b   8.03350486
_cell_length_c   8.91131807
_cell_angle_alpha   82.57511473
_cell_angle_beta   82.57511473
_cell_angle_gamma   48.31277253
_symmetry_Int_Tables_number   1
_chemical_formula_structural   La3Si2ClO8
_chemical_formula_sum   'La6 Si4 Cl2 O16'
_cell_volume   425.15623435
_cell_formula_units_Z   2
loop_
 _symmetry_equiv_pos_site_id
 _symmetry_equiv_pos_as_xyz
  1  'x, y, z'
loop_
 _atom_site_type_symbol
 _atom_site_label
 _atom_site_symmetry_multiplicity
 _atom_site_fract_x
 _atom_site_fract_y
 _atom_site_fract_z
 _atom_site_occupancy
  La  La0  1  0.58087100  0.78803000  0.32935200  1
  La  La1  1  0.21152100  0.41919600  0.17083000  1
  La  La2  1  0.41919600  0.21152100  0.67083000  1
  La  La3  1  0.78803000  0.58087100  0.82935200  1
  La  La4  1  0.93155200  0.06900200  0.24955000  1
  La  La5  1  0.06900200  0.93155200  0.74955000  1
  Si  Si0  1  0.78499500  0.89826100  0.02656200  1
  Si  Si1  1  0.10197200  0.21493900  0.47333300  1
  Si  Si2  1  0.21493900  0.10197200  0.97333300  1
  Si  Si3  1  0.89826100  0.78499500  0.52656200  1
  Cl  Cl0  1  0.48012200  0.53046300  0.22900200  1
  Cl  Cl1  1  0.53046300  0.48012200  0.72900200  1
  O  O0  1  0.27183700  0.03702500  0.15245400  1
  O  O1  1  0.96506700  0.72714800  0.34757000  1
  O  O2  1  0.72714800  0.96506700  0.84757000  1
  O  O3  1  0.03702500  0.27183700  0.65245400  1
  O  O4  1  0.19982900  0.95759300  0.46690400  1
  O  O5  1  0.04236500  0.80014200  0.03229100  1
  O  O6  1  0.80014200  0.04236500  0.53229100  1
  O  O7  1  0.95759300  0.19982900  0.96690400  1
  O  O8  1  0.31510100  0.20376200  0.41889700  1
  O  O9  1  0.79686600  0.68477100  0.08101700  1
  O  O10  1  0.68477100  0.79686600  0.58101700  1
  O  O11  1  0.20376200  0.31510100  0.91889700  1
  O  O12  1  0.61831900  0.09247700  0.14730800  1
  O  O13  1  0.90709800  0.38167500  0.35292800  1
  O  O14  1  0.38167500  0.90709800  0.85292800  1
  O  O15  1  0.09247700  0.61831900  0.64730800  1
loop_
_geom_bond_atom_site_label_1
_geom_bond_atom_site_label_2
_geom_bond_distance
_geom_bond_site_symmetry_2
La0 O13 2.480828 1_555
La0 O9 2.482696 1_555
La0 O0 2.498150 1_565
La0 O10 2.516950 1_555
La0 O4 2.577564 1_555
La0 O8 2.667055 1_565
La0 O1 2.809404 1_555
La0 O12 2.920809 1_565
La1 O8 2.479017 1_555
La1 O12 2.483708 1_555
La1 O1 2.491361 1_455
La1 O11 2.516782 1_554
La1 O5 2.581067 1_555
La1 O9 2.661463 1_455
La1 O0 2.796110 1_555
La1 O13 2.921202 1_455
La2 O11 2.479017 1_555
La2 O15 2.483708 1_555
La2 O2 2.491361 1_545
La2 O8 2.516782 1_555
La2 O6 2.581067 1_555
La2 O10 2.661463 1_545
La2 O3 2.796110 1_555
La2 O14 2.921202 1_545
La3 O14 2.480828 1_555
La3 O10 2.482696 1_555
La3 O3 2.498150 1_655
La3 O9 2.516950 1_556
La3 O7 2.577564 1_555
La3 O11 2.667055 1_655
La3 O2 2.809404 1_555
La3 O15 2.920809 1_655
La4 O0 2.607625 1_655
La4 O1 2.614351 1_545
La4 O7 2.639044 1_554
La4 O6 2.642403 1_555
La4 O13 2.663012 1_555
La4 O12 2.667335 1_555
La4 O4 2.694942 1_645
La4 O5 2.698840 1_645
La5 O3 2.607625 1_565
La5 O2 2.614351 1_455
La5 O4 2.639044 1_555
La5 O5 2.642403 1_556
La5 O14 2.663012 1_555
La5 O15 2.667335 1_555
La5 O7 2.694942 1_465
La5 O6 2.698840 1_465
Cl0 La0 2.937530 1_555
Cl0 La1 2.949279 1_555
Cl0 La4 3.007011 1_555
Cl1 La3 2.937530 1_555
Cl1 La2 2.949279 1_555
Cl1 La5 3.007011 1_555
O0 Si2 1.638637 1_554
O1 Si3 1.639140 1_555
O2 Si0 1.639140 1_556
O3 Si1 1.638637 1_555
O4 Si1 1.659089 1_565
O5 Si0 1.657689 1_455
O6 Si3 1.657689 1_545
O7 Si2 1.659089 1_655
O8 Si1 1.663437 1_555
O9 Si0 1.662936 1_555
O10 Si3 1.662936 1_555
O11 Si2 1.663437 1_555
O12 Si0 1.633317 1_545
O13 Si1 1.633936 1_655
O14 Si2 1.633936 1_565
O15 Si3 1.633317 1_455
