# generated using pymatgen
data_TaBe3
_symmetry_space_group_name_H-M   'P 1'
_cell_length_a   4.54971899
_cell_length_b   4.54971899
_cell_length_c   7.44588353
_cell_angle_alpha   72.21060886
_cell_angle_beta   72.21060886
_cell_angle_gamma   60.00002489
_symmetry_Int_Tables_number   1
_chemical_formula_structural   TaBe3
_chemical_formula_sum   'Ta3 Be9'
_cell_volume   124.89790464
_cell_formula_units_Z   3
loop_
 _symmetry_equiv_pos_site_id
 _symmetry_equiv_pos_as_xyz
  1  'x, y, z'
loop_
 _atom_site_type_symbol
 _atom_site_label
 _atom_site_symmetry_multiplicity
 _atom_site_fract_x
 _atom_site_fract_y
 _atom_site_fract_z
 _atom_site_occupancy
  Ta  Ta0  1  0.14009633  0.14009633  0.57971500  1
  Ta  Ta1  1  0.85990367  0.85990367  0.42028500  1
  Ta  Ta2  1  0.00000000  -0.00000000  -0.00000000  1
  Be  Be0  1  0.07546352  0.58382722  0.75688004  1
  Be  Be1  1  0.58382722  0.58382722  0.75688004  1
  Be  Be2  1  0.58382722  0.07546352  0.75688004  1
  Be  Be3  1  0.92453648  0.41617278  0.24311996  1
  Be  Be4  1  0.41617278  0.41617278  0.24311996  1
  Be  Be5  1  0.41617278  0.92453648  0.24311996  1
  Be  Be6  1  0.33442467  0.33442467  0.99672399  1
  Be  Be7  1  0.66557533  0.66557533  0.00327601  1
  Be  Be8  1  0.50000000  0.50000000  0.50000000  1
loop_
_geom_bond_atom_site_label_1
_geom_bond_atom_site_label_2
_geom_bond_distance
_geom_bond_site_symmetry_2
Ta0 Ta1 2.851972 1_455
Ta0 Ta1 2.851972 1_545
Ta0 Ta1 2.852000 1_445
Ta0 Ta2 2.928189 1_556
Ta1 Ta2 2.928189 1_665
Be0 Be6 2.139048 1_555
Be0 Be7 2.148194 1_456
Be0 Be8 2.233003 1_555
Be0 Be1 2.236807 1_455
Be0 Be2 2.236808 1_465
Be0 Be1 2.312912 1_555
Be0 Be2 2.312913 1_555
Be0 Ta0 2.588241 1_555
Be0 Ta0 2.588265 1_565
Be0 Ta1 2.677183 1_455
Be0 Ta2 2.836298 1_556
Be0 Ta2 2.836306 1_566
Be1 Be6 2.139048 1_555
Be1 Be7 2.148204 1_556
Be1 Be8 2.232998 1_555
Be1 Be2 2.236807 1_565
Be1 Be2 2.312912 1_555
Be1 Ta0 2.588254 1_655
Be1 Ta0 2.588254 1_565
Be1 Ta1 2.677179 1_555
Be1 Ta2 2.836303 1_656
Be1 Ta2 2.836303 1_566
Be2 Be6 2.139048 1_555
Be2 Be7 2.148194 1_546
Be2 Be8 2.233003 1_555
Be2 Ta0 2.588241 1_555
Be2 Ta0 2.588265 1_655
Be2 Ta1 2.677183 1_545
Be2 Ta2 2.836298 1_556
Be2 Ta2 2.836306 1_656
Be3 Be7 2.139048 1_555
Be3 Be6 2.148194 1_654
Be3 Be8 2.233003 1_555
Be3 Be4 2.236807 1_655
Be3 Be5 2.236808 1_645
Be3 Be4 2.312912 1_555
Be3 Be5 2.312913 1_555
Be3 Ta1 2.588241 1_555
Be3 Ta1 2.588265 1_545
Be3 Ta0 2.677183 1_655
Be3 Ta2 2.836298 1_665
Be3 Ta2 2.836306 1_655
Be4 Be7 2.139048 1_555
Be4 Be6 2.148204 1_554
Be4 Be8 2.232998 1_555
Be4 Be5 2.236807 1_545
Be4 Be5 2.312912 1_555
Be4 Ta1 2.588254 1_455
Be4 Ta1 2.588254 1_545
Be4 Ta0 2.677179 1_555
Be4 Ta2 2.836303 1_565
Be4 Ta2 2.836303 1_655
Be5 Be7 2.139048 1_555
Be5 Be6 2.148194 1_564
Be5 Be8 2.233003 1_555
Be5 Ta1 2.588241 1_555
Be5 Ta1 2.588265 1_455
Be5 Ta0 2.677183 1_565
Be5 Ta2 2.836298 1_665
Be5 Ta2 2.836306 1_565
Be6 Ta2 2.626875 1_556
Be6 Ta2 2.626884 1_656
Be6 Ta2 2.626884 1_566
Be7 Ta2 2.626875 1_665
Be7 Ta2 2.626884 1_565
Be7 Ta2 2.626884 1_655
Be8 Ta1 2.684842 1_555
Be8 Ta0 2.684842 1_555
Be8 Ta0 2.684859 1_655
Be8 Ta0 2.684859 1_565
Be8 Ta1 2.684859 1_545
Be8 Ta1 2.684859 1_455
