# generated using pymatgen
data_NaP2H5CO6
_symmetry_space_group_name_H-M   'P 1'
_cell_length_a   8.40541880
_cell_length_b   8.21979100
_cell_length_c   9.98152399
_cell_angle_alpha   90.00000000
_cell_angle_beta   96.97636942
_cell_angle_gamma   90.00000000
_symmetry_Int_Tables_number   1
_chemical_formula_structural   NaP2H5CO6
_chemical_formula_sum   'Na4 P8 H20 C4 O24'
_cell_volume   684.52553323
_cell_formula_units_Z   4
loop_
 _symmetry_equiv_pos_site_id
 _symmetry_equiv_pos_as_xyz
  1  'x, y, z'
loop_
 _atom_site_type_symbol
 _atom_site_label
 _atom_site_symmetry_multiplicity
 _atom_site_fract_x
 _atom_site_fract_y
 _atom_site_fract_z
 _atom_site_occupancy
  Na  Na0  1  0.00000000  0.50000000  0.00000000  1
  Na  Na1  1  0.50000000  0.00000000  0.50000000  1
  Na  Na2  1  0.00000000  0.50000000  0.50000000  1
  Na  Na3  1  0.50000000  0.00000000  0.00000000  1
  P  P0  1  0.30498300  0.63303600  0.32675900  1
  P  P1  1  0.80498300  0.86696400  0.82675900  1
  P  P2  1  0.69501700  0.36696400  0.67324100  1
  P  P3  1  0.19501700  0.13303600  0.17324100  1
  P  P4  1  0.65036300  0.73803300  0.25253800  1
  P  P5  1  0.15036300  0.76196700  0.75253800  1
  P  P6  1  0.34963700  0.26196700  0.74746200  1
  P  P7  1  0.84963700  0.23803300  0.24746200  1
  H  H0  1  0.24005300  0.80983300  0.16242200  1
  H  H1  1  0.74005300  0.69016700  0.66242200  1
  H  H2  1  0.75994700  0.19016700  0.83757800  1
  H  H3  1  0.25994700  0.30983300  0.33757800  1
  H  H4  1  0.22924300  0.76385600  0.50813000  1
  H  H5  1  0.72924300  0.73614400  0.00813000  1
  H  H6  1  0.77075700  0.23614400  0.49187000  1
  H  H7  1  0.27075700  0.26385600  0.99187000  1
  H  H8  1  0.83271300  0.54623300  0.24012100  1
  H  H9  1  0.33271300  0.95376700  0.74012100  1
  H  H10  1  0.16728700  0.45376700  0.75987900  1
  H  H11  1  0.66728700  0.04623300  0.25987900  1
  H  H12  1  0.50629900  0.48827900  0.22633600  1
  H  H13  1  0.00629900  0.01172100  0.72633600  1
  H  H14  1  0.49370100  0.51172100  0.77366400  1
  H  H15  1  0.99370100  0.98827900  0.27366400  1
  H  H16  1  0.56636400  0.53875000  0.39857300  1
  H  H17  1  0.06636400  0.96125000  0.89857300  1
  H  H18  1  0.43363600  0.46125000  0.60142700  1
  H  H19  1  0.93363600  0.03875000  0.10142700  1
  C  C0  1  0.50926700  0.58656900  0.30154600  1
  C  C1  1  0.00926700  0.91343100  0.80154600  1
  C  C2  1  0.49073300  0.41343100  0.69845400  1
  C  C3  1  0.99073300  0.08656900  0.19845400  1
  O  O0  1  0.21226900  0.69207500  0.18872000  1
  O  O1  1  0.71226900  0.80792500  0.68872000  1
  O  O2  1  0.78773100  0.30792500  0.81128000  1
  O  O3  1  0.28773100  0.19207500  0.31128000  1
  O  O4  1  0.31239300  0.77555200  0.43214700  1
  O  O5  1  0.81239300  0.72444800  0.93214700  1
  O  O6  1  0.68760700  0.22444800  0.56785300  1
  O  O7  1  0.18760700  0.27555200  0.06785300  1
  O  O8  1  0.22465200  0.48321300  0.37528700  1
  O  O9  1  0.72465200  0.01678700  0.87528700  1
  O  O10  1  0.77534800  0.51678700  0.62471300  1
  O  O11  1  0.27534800  0.98321300  0.12471300  1
  O  O12  1  0.64057400  0.89252400  0.33463500  1
  O  O13  1  0.14057400  0.60747600  0.83463500  1
  O  O14  1  0.35942600  0.10747600  0.66536500  1
  O  O15  1  0.85942600  0.39252400  0.16536500  1
  O  O16  1  0.62385600  0.76385000  0.09971200  1
  O  O17  1  0.12385600  0.73615000  0.59971200  1
  O  O18  1  0.37614400  0.23615000  0.90028800  1
  O  O19  1  0.87614400  0.26385000  0.40028800  1
  O  O20  1  0.81877000  0.65264600  0.29447800  1
  O  O21  1  0.31877000  0.84735400  0.79447800  1
  O  O22  1  0.18123000  0.34735400  0.70552200  1
  O  O23  1  0.68123000  0.15264600  0.20552200  1
loop_
_geom_bond_atom_site_label_1
_geom_bond_atom_site_label_2
_geom_bond_distance
_geom_bond_site_symmetry_2
Na0 O13 2.318366 1_554
Na0 O15 2.318366 1_455
Na0 O7 2.467719 1_555
Na0 O5 2.467719 1_454
Na0 O0 2.899655 1_555
Na0 O2 2.899655 1_454
Na1 O14 2.318366 1_555
Na1 O12 2.318366 1_545
Na1 O4 2.467719 1_545
Na1 O6 2.467719 1_555
Na1 O3 2.899655 1_555
Na1 O1 2.899655 1_545
Na2 O19 2.364439 1_455
Na2 O17 2.364439 1_555
Na2 O10 2.388576 1_455
Na2 O8 2.388576 1_555
Na2 O20 2.709986 1_455
Na2 O22 2.709986 1_555
Na3 O16 2.364439 1_545
Na3 O18 2.364439 1_554
Na3 O9 2.388576 1_554
Na3 O11 2.388576 1_545
Na3 O21 2.709986 1_544
Na3 O23 2.709986 1_555
H0 O0 1.036944 1_555
H0 O11 1.512566 1_555
H1 O1 1.036944 1_555
H1 O10 1.512566 1_555
H2 O2 1.036944 1_555
H2 O9 1.512566 1_555
H3 O3 1.036944 1_555
H3 O8 1.512566 1_555
H4 O4 1.096218 1_555
H4 O17 1.367070 1_555
H5 O5 1.096218 1_554
H5 O16 1.367070 1_555
H6 O6 1.096218 1_555
H6 O19 1.367070 1_555
H7 O7 1.096218 1_556
H7 O18 1.367070 1_555
H8 O20 1.043382 1_555
H8 O15 1.498072 1_555
H9 O21 1.043382 1_555
H9 O14 1.498072 1_565
H10 O22 1.043382 1_555
H10 O13 1.498072 1_555
H11 O23 1.043382 1_555
H11 O12 1.498072 1_545
C0 H16 1.099939 1_555
C0 H12 1.101081 1_555
C0 P0 1.806267 1_555
C0 P4 1.826685 1_555
C1 H17 1.099939 1_555
C1 H13 1.101081 1_565
C1 P1 1.806267 1_455
C1 P5 1.826685 1_555
C2 H18 1.099939 1_555
C2 H14 1.101081 1_555
C2 P2 1.806267 1_555
C2 P6 1.826685 1_555
C3 H19 1.099939 1_555
C3 H15 1.101081 1_545
C3 P3 1.806267 1_655
C3 P7 1.826685 1_555
O0 P0 1.574935 1_555
O1 P1 1.574935 1_555
O2 P2 1.574935 1_555
O3 P3 1.574935 1_555
O4 P0 1.570613 1_555
O5 P1 1.570613 1_555
O6 P2 1.570613 1_555
O7 P3 1.570613 1_555
O8 P0 1.512157 1_555
O9 P1 1.512157 1_545
O10 P2 1.512157 1_555
O11 P3 1.512157 1_565
O12 P4 1.518966 1_555
O13 P5 1.518966 1_555
O14 P6 1.518966 1_555
O15 P7 1.518966 1_555
O16 P4 1.529401 1_555
O17 P5 1.529401 1_555
O18 P6 1.529401 1_555
O19 P7 1.529401 1_555
O20 P4 1.589855 1_555
O21 P5 1.589855 1_555
O22 P6 1.589855 1_555
O23 P7 1.589855 1_555
