# generated using pymatgen
data_Al(CoO2)2
_symmetry_space_group_name_H-M   'P 1'
_cell_length_a   5.84780561
_cell_length_b   5.84780561
_cell_length_c   5.84780561
_cell_angle_alpha   60.00000000
_cell_angle_beta   60.00000000
_cell_angle_gamma   60.00000000
_symmetry_Int_Tables_number   1
_chemical_formula_structural   Al(CoO2)2
_chemical_formula_sum   'Al2 Co4 O8'
_cell_volume   141.40468032
_cell_formula_units_Z   2
loop_
 _symmetry_equiv_pos_site_id
 _symmetry_equiv_pos_as_xyz
  1  'x, y, z'
loop_
 _atom_site_type_symbol
 _atom_site_label
 _atom_site_symmetry_multiplicity
 _atom_site_fract_x
 _atom_site_fract_y
 _atom_site_fract_z
 _atom_site_occupancy
  Al  Al0  1  0.75000000  0.75000000  0.75000000  1
  Al  Al1  1  0.50000000  0.50000000  0.50000000  1
  Co  Co0  1  0.12500000  0.12500000  0.62500000  1
  Co  Co1  1  0.12500000  0.12500000  0.12500000  1
  Co  Co2  1  0.12500000  0.62500000  0.12500000  1
  Co  Co3  1  0.62500000  0.12500000  0.12500000  1
  O  O0  1  0.87598500  0.37204400  0.87598500  1
  O  O1  1  0.87795600  0.37401500  0.37401500  1
  O  O2  1  0.37401500  0.37401500  0.87795600  1
  O  O3  1  0.37401500  0.37401500  0.37401500  1
  O  O4  1  0.37204400  0.87598500  0.87598500  1
  O  O5  1  0.37401500  0.87795600  0.37401500  1
  O  O6  1  0.87598500  0.87598500  0.37204400  1
  O  O7  1  0.87598500  0.87598500  0.87598500  1
loop_
_geom_bond_atom_site_label_1
_geom_bond_atom_site_label_2
_geom_bond_distance
_geom_bond_site_symmetry_2
Al0 O7 1.804627 1_555
Al0 O0 1.804632 1_555
Al0 O4 1.804632 1_555
Al0 O6 1.804632 1_555
Al1 O3 1.804627 1_555
Al1 O2 1.804632 1_555
Al1 O5 1.804632 1_555
Al1 O1 1.804632 1_555
Co0 O0 2.059394 1_455
Co0 O4 2.059394 1_545
Co0 O5 2.059394 1_545
Co0 O1 2.059394 1_455
Co0 O7 2.059398 1_445
Co0 O3 2.059398 1_555
Co1 O6 2.059398 1_445
Co1 O2 2.059398 1_554
Co1 O4 2.059398 1_544
Co1 O0 2.059398 1_454
Co1 O1 2.059398 1_455
Co1 O5 2.059398 1_545
Co2 O4 2.059394 1_554
Co2 O6 2.059394 1_455
Co2 O1 2.059394 1_455
Co2 O2 2.059394 1_554
Co2 O3 2.059398 1_555
Co2 O7 2.059398 1_454
Co3 O6 2.059394 1_545
Co3 O0 2.059394 1_554
Co3 O2 2.059394 1_554
Co3 O5 2.059394 1_545
Co3 O7 2.059398 1_544
Co3 O3 2.059398 1_555
