# generated using pymatgen
data_Nb3Ag2TeS6
_symmetry_space_group_name_H-M   'P 1'
_cell_length_a   5.78962807
_cell_length_b   5.78962807
_cell_length_c   8.30216100
_cell_angle_alpha   90.00000000
_cell_angle_beta   90.00000000
_cell_angle_gamma   120.09955282
_symmetry_Int_Tables_number   1
_chemical_formula_structural   Nb3Ag2TeS6
_chemical_formula_sum   'Nb3 Ag2 Te1 S6'
_cell_volume   240.76124021
_cell_formula_units_Z   1
loop_
 _symmetry_equiv_pos_site_id
 _symmetry_equiv_pos_as_xyz
  1  'x, y, z'
loop_
 _atom_site_type_symbol
 _atom_site_label
 _atom_site_symmetry_multiplicity
 _atom_site_fract_x
 _atom_site_fract_y
 _atom_site_fract_z
 _atom_site_occupancy
  Nb  Nb0  1  0.69537600  0.03417800  0.50000000  1
  Nb  Nb1  1  0.03417800  0.69537600  0.50000000  1
  Nb  Nb2  1  0.37188300  0.37188300  0.50000000  1
  Ag  Ag0  1  0.35129100  0.66705700  0.00000000  1
  Ag  Ag1  1  0.66705700  0.35129100  0.00000000  1
  Te  Te0  1  0.03549400  0.03549400  0.00000000  1
  S  S0  1  0.69980600  0.36684700  0.69182300  1
  S  S1  1  0.36684700  0.69980600  0.30817700  1
  S  S2  1  0.69980600  0.36684700  0.30817700  1
  S  S3  1  0.36684700  0.69980600  0.69182300  1
  S  S4  1  0.03415800  0.03415800  0.31675800  1
  S  S5  1  0.03415800  0.03415800  0.68324200  1
loop_
_geom_bond_atom_site_label_1
_geom_bond_atom_site_label_2
_geom_bond_distance
_geom_bond_site_symmetry_2
Nb0 S4 2.482291 1_655
Nb0 S5 2.482291 1_655
Nb0 S0 2.489358 1_555
Nb0 S2 2.489358 1_555
Nb0 S3 2.491676 1_545
Nb0 S1 2.491676 1_545
Nb1 S5 2.482291 1_565
Nb1 S4 2.482291 1_565
Nb1 S3 2.489358 1_555
Nb1 S1 2.489358 1_555
Nb1 S0 2.491676 1_455
Nb1 S2 2.491676 1_455
Nb2 S4 2.475091 1_555
Nb2 S5 2.475091 1_555
Nb2 S0 2.489392 1_555
Nb2 S1 2.489392 1_555
Nb2 S2 2.489392 1_555
Nb2 S3 2.489392 1_555
Ag0 S1 2.563793 1_555
Ag0 S3 2.563793 1_554
Ag1 S2 2.563793 1_555
Ag1 S0 2.563793 1_554
S4 Te0 2.629787 1_555
S5 Te0 2.629787 1_556
