# generated using pymatgen
data_NdSO
_symmetry_space_group_name_H-M   'P 1'
_cell_length_a   5.86550800
_cell_length_b   5.87137700
_cell_length_c   13.03807500
_cell_angle_alpha   90.00000000
_cell_angle_beta   90.00000000
_cell_angle_gamma   90.00000000
_symmetry_Int_Tables_number   1
_chemical_formula_structural   NdSO
_chemical_formula_sum   'Nd8 S8 O8'
_cell_volume   449.01316397
_cell_formula_units_Z   8
loop_
 _symmetry_equiv_pos_site_id
 _symmetry_equiv_pos_as_xyz
  1  'x, y, z'
loop_
 _atom_site_type_symbol
 _atom_site_label
 _atom_site_symmetry_multiplicity
 _atom_site_fract_x
 _atom_site_fract_y
 _atom_site_fract_z
 _atom_site_occupancy
  Nd  Nd0  1  0.99843100  0.25006700  0.08829700  1
  Nd  Nd1  1  0.00156900  0.74993300  0.91170300  1
  Nd  Nd2  1  0.00156900  0.74993300  0.58829700  1
  Nd  Nd3  1  0.49843100  0.74993300  0.41170300  1
  Nd  Nd4  1  0.99843100  0.25006700  0.41170300  1
  Nd  Nd5  1  0.50156900  0.25006700  0.58829700  1
  Nd  Nd6  1  0.50156900  0.25006700  0.91170300  1
  Nd  Nd7  1  0.49843100  0.74993300  0.08829700  1
  S  S0  1  0.36436700  0.12096500  0.25000000  1
  S  S1  1  0.63563300  0.87903500  0.75000000  1
  S  S2  1  0.86436700  0.87903500  0.25000000  1
  S  S3  1  0.13563300  0.12096500  0.75000000  1
  S  S4  1  0.11890400  0.62468000  0.25000000  1
  S  S5  1  0.88109600  0.37532000  0.75000000  1
  S  S6  1  0.61890400  0.37532000  0.25000000  1
  S  S7  1  0.38109600  0.62468000  0.75000000  1
  O  O0  1  0.25000000  0.99439400  0.00000000  1
  O  O1  1  0.75000000  0.00560600  0.00000000  1
  O  O2  1  0.75000000  0.00560600  0.50000000  1
  O  O3  1  0.25000000  0.99439400  0.50000000  1
  O  O4  1  0.25000000  0.49377800  0.00000000  1
  O  O5  1  0.75000000  0.50622200  0.00000000  1
  O  O6  1  0.75000000  0.50622200  0.50000000  1
  O  O7  1  0.25000000  0.49377800  0.50000000  1
loop_
_geom_bond_atom_site_label_1
_geom_bond_atom_site_label_2
_geom_bond_distance
_geom_bond_site_symmetry_2
Nd0 O1 2.347088 1_555
Nd0 O4 2.355882 1_655
Nd0 O5 2.389693 1_555
Nd0 O0 2.399189 1_645
Nd0 S0 3.102663 1_655
Nd0 S4 3.127622 1_655
Nd0 S2 3.131931 1_545
Nd0 S6 3.152989 1_555
Nd1 O0 2.347088 1_556
Nd1 O5 2.355882 1_456
Nd1 O4 2.389693 1_556
Nd1 O1 2.399189 1_466
Nd1 S1 3.102663 1_455
Nd1 S5 3.127622 1_455
Nd1 S3 3.131931 1_565
Nd1 S7 3.152989 1_555
Nd2 O3 2.347088 1_555
Nd2 O6 2.355882 1_455
Nd2 O7 2.389693 1_555
Nd2 O2 2.399189 1_465
Nd2 S1 3.102663 1_455
Nd2 S5 3.127622 1_455
Nd2 S3 3.131931 1_565
Nd2 S7 3.152989 1_555
Nd3 O3 2.347088 1_555
Nd3 O6 2.355882 1_555
Nd3 O7 2.389693 1_555
Nd3 O2 2.399189 1_565
Nd3 S2 3.102663 1_555
Nd3 S6 3.127622 1_555
Nd3 S0 3.131931 1_565
Nd3 S4 3.152989 1_555
Nd4 O2 2.347088 1_555
Nd4 O7 2.355882 1_655
Nd4 O6 2.389693 1_555
Nd4 O3 2.399189 1_645
Nd4 S0 3.102663 1_655
Nd4 S4 3.127622 1_655
Nd4 S2 3.131931 1_545
Nd4 S6 3.152989 1_555
Nd5 O2 2.347088 1_555
Nd5 O7 2.355882 1_555
Nd5 O6 2.389693 1_555
Nd5 O3 2.399189 1_545
Nd5 S3 3.102663 1_555
Nd5 S7 3.127622 1_555
Nd5 S1 3.131931 1_545
Nd5 S5 3.152989 1_555
Nd6 O1 2.347088 1_556
Nd6 O4 2.355882 1_556
Nd6 O5 2.389693 1_556
Nd6 O0 2.399189 1_546
Nd6 S3 3.102663 1_555
Nd6 S7 3.127622 1_555
Nd6 S1 3.131931 1_545
Nd6 S5 3.152989 1_555
Nd7 O0 2.347088 1_555
Nd7 O5 2.355882 1_555
Nd7 O4 2.389693 1_555
Nd7 O1 2.399189 1_565
Nd7 S2 3.102663 1_555
Nd7 S6 3.127622 1_555
Nd7 S0 3.131931 1_565
Nd7 S4 3.152989 1_555
S0 S6 2.111706 1_555
S1 S7 2.111706 1_555
S2 S4 2.111706 1_655
S3 S5 2.111706 1_455
