# generated using pymatgen
data_ZrAl6Mo
_symmetry_space_group_name_H-M   'P 1'
_cell_length_a   3.87509200
_cell_length_b   3.87509200
_cell_length_c   8.69401500
_cell_angle_alpha   90.00000000
_cell_angle_beta   90.00000000
_cell_angle_gamma   90.00000000
_symmetry_Int_Tables_number   1
_chemical_formula_structural   ZrAl6Mo
_chemical_formula_sum   'Zr1 Al6 Mo1'
_cell_volume   130.55226789
_cell_formula_units_Z   1
loop_
 _symmetry_equiv_pos_site_id
 _symmetry_equiv_pos_as_xyz
  1  'x, y, z'
loop_
 _atom_site_type_symbol
 _atom_site_label
 _atom_site_symmetry_multiplicity
 _atom_site_fract_x
 _atom_site_fract_y
 _atom_site_fract_z
 _atom_site_occupancy
  Zr  Zr0  1  0.50000000  0.50000000  0.50000000  1
  Al  Al0  1  0.50000000  0.50000000  0.00000000  1
  Al  Al1  1  0.00000000  0.00000000  0.50000000  1
  Al  Al2  1  0.00000000  0.50000000  0.24274800  1
  Al  Al3  1  0.50000000  0.00000000  0.75725200  1
  Al  Al4  1  0.50000000  0.00000000  0.24274800  1
  Al  Al5  1  0.00000000  0.50000000  0.75725200  1
  Mo  Mo0  1  0.00000000  0.00000000  0.00000000  1
loop_
_geom_bond_atom_site_label_1
_geom_bond_atom_site_label_2
_geom_bond_distance
_geom_bond_site_symmetry_2
Al0 Mo0 2.740104 1_565
Al0 Mo0 2.740104 1_665
Al0 Mo0 2.740104 1_655
Al0 Mo0 2.740104 1_555
Al0 Al3 2.864979 1_554
Al0 Al5 2.864979 1_654
Al0 Al2 2.864979 1_655
Al0 Al3 2.864979 1_564
Al0 Al4 2.864979 1_555
Al0 Al5 2.864979 1_554
Al0 Al4 2.864979 1_565
Al0 Al2 2.864979 1_555
Al1 Zr0 2.740104 1_445
Al1 Zr0 2.740104 1_545
Al1 Zr0 2.740104 1_555
Al1 Zr0 2.740104 1_455
Al1 Al5 2.959097 1_545
Al1 Al2 2.959097 1_545
Al1 Al2 2.959097 1_555
Al1 Al5 2.959097 1_555
Al1 Al3 2.959097 1_555
Al1 Al3 2.959097 1_455
Al1 Al4 2.959097 1_455
Al1 Al4 2.959097 1_555
Al2 Al4 2.740104 1_455
Al2 Al4 2.740104 1_555
Al2 Al4 2.740104 1_565
Al2 Al4 2.740104 1_465
Al2 Mo0 2.864979 1_555
Al2 Mo0 2.864979 1_565
Al2 Zr0 2.959097 1_455
Al2 Zr0 2.959097 1_555
Al3 Al5 2.740104 1_655
Al3 Al5 2.740104 1_645
Al3 Al5 2.740104 1_555
Al3 Al5 2.740104 1_545
Al3 Mo0 2.864979 1_556
Al3 Mo0 2.864979 1_656
Al3 Zr0 2.959097 1_545
Al3 Zr0 2.959097 1_555
Al4 Mo0 2.864979 1_555
Al4 Mo0 2.864979 1_655
Al4 Zr0 2.959097 1_545
Al4 Zr0 2.959097 1_555
Al5 Mo0 2.864979 1_566
Al5 Mo0 2.864979 1_556
Al5 Zr0 2.959097 1_455
Al5 Zr0 2.959097 1_555
