# generated using pymatgen
data_KSmS2O9
_symmetry_space_group_name_H-M   'P 1'
_cell_length_a   8.80152200
_cell_length_b   10.00712000
_cell_length_c   10.34439816
_cell_angle_alpha   62.60315553
_cell_angle_beta   90.00000000
_cell_angle_gamma   90.00000000
_symmetry_Int_Tables_number   1
_chemical_formula_structural   KSmS2O9
_chemical_formula_sum   'K4 Sm4 S8 O36'
_cell_volume   808.92299057
_cell_formula_units_Z   4
loop_
 _symmetry_equiv_pos_site_id
 _symmetry_equiv_pos_as_xyz
  1  'x, y, z'
loop_
 _atom_site_type_symbol
 _atom_site_label
 _atom_site_symmetry_multiplicity
 _atom_site_fract_x
 _atom_site_fract_y
 _atom_site_fract_z
 _atom_site_occupancy
  K  K0  1  0.30305100  0.27324800  0.69834900  1
  K  K1  1  0.69694900  0.72675200  0.30165100  1
  K  K2  1  0.80305100  0.72675200  0.80165100  1
  K  K3  1  0.19694900  0.27324800  0.19834900  1
  Sm  Sm0  1  0.35832000  0.76220100  0.97386200  1
  Sm  Sm1  1  0.64168000  0.23779900  0.02613800  1
  Sm  Sm2  1  0.85832000  0.23779900  0.52613800  1
  Sm  Sm3  1  0.14168000  0.76220100  0.47386200  1
  S  S0  1  0.12602900  0.55699000  0.32049400  1
  S  S1  1  0.87397100  0.44301000  0.67950600  1
  S  S2  1  0.62602900  0.44301000  0.17950600  1
  S  S3  1  0.37397100  0.55699000  0.82049400  1
  S  S4  1  0.18573800  0.97192800  0.62088000  1
  S  S5  1  0.81426200  0.02807200  0.37912000  1
  S  S6  1  0.68573800  0.02807200  0.87912000  1
  S  S7  1  0.31426200  0.97192800  0.12088000  1
  O  O0  1  0.05294600  0.40732600  0.37190100  1
  O  O1  1  0.94705400  0.59267400  0.62809900  1
  O  O2  1  0.55294600  0.59267400  0.12809900  1
  O  O3  1  0.44705400  0.40732600  0.87190100  1
  O  O4  1  0.40905200  0.83237400  0.17235800  1
  O  O5  1  0.59094800  0.16762600  0.82764200  1
  O  O6  1  0.90905200  0.16762600  0.32764200  1
  O  O7  1  0.09094800  0.83237400  0.67235800  1
  O  O8  1  0.01470100  0.67389900  0.30732900  1
  O  O9  1  0.98529900  0.32610100  0.69267100  1
  O  O10  1  0.51470100  0.32610100  0.19267100  1
  O  O11  1  0.48529900  0.67389900  0.80732900  1
  O  O12  1  0.19769300  0.59286700  0.17638900  1
  O  O13  1  0.80230700  0.40713300  0.82361100  1
  O  O14  1  0.69769300  0.40713300  0.32361100  1
  O  O15  1  0.30230700  0.59286700  0.67638900  1
  O  O16  1  0.30730600  0.95223500  0.72692200  1
  O  O17  1  0.69269400  0.04776500  0.27307800  1
  O  O18  1  0.80730600  0.04776500  0.77307800  1
  O  O19  1  0.19269400  0.95223500  0.22692200  1
  O  O20  1  0.59372700  0.89557800  0.90057200  1
  O  O21  1  0.40627300  0.10442200  0.09942800  1
  O  O22  1  0.09372700  0.10442200  0.59942800  1
  O  O23  1  0.90627300  0.89557800  0.40057200  1
  O  O24  1  0.08409600  0.79296900  0.96151600  1
  O  O25  1  0.91590400  0.20703100  0.03848400  1
  O  O26  1  0.58409600  0.20703100  0.53848400  1
  O  O27  1  0.41590400  0.79296900  0.46151600  1
  O  O28  1  0.74954500  0.00281400  0.02320400  1
  O  O29  1  0.25045500  0.99718600  0.97679600  1
  O  O30  1  0.24954500  0.99718600  0.47679600  1
  O  O31  1  0.75045500  0.00281400  0.52320400  1
  O  O32  1  0.24432200  0.55271600  0.42607300  1
  O  O33  1  0.75567800  0.44728400  0.57392700  1
  O  O34  1  0.74432200  0.44728400  0.07392700  1
  O  O35  1  0.25567800  0.55271600  0.92607300  1
loop_
_geom_bond_atom_site_label_1
_geom_bond_atom_site_label_2
_geom_bond_distance
_geom_bond_site_symmetry_2
K0 O5 2.832985 1_555
K0 O9 2.841855 1_455
K0 O32 2.961802 1_555
K0 O29 2.969783 1_545
K0 O3 2.974318 1_555
K0 O22 2.981059 1_555
K0 O16 3.087808 1_545
K0 O15 3.100510 1_555
K0 O26 3.209538 1_555
K1 O4 2.832985 1_555
K1 O8 2.841855 1_655
K1 O33 2.961802 1_555
K1 O28 2.969783 1_565
K1 O2 2.974318 1_555
K1 O23 2.981059 1_555
K1 O17 3.087808 1_565
K1 O14 3.100510 1_555
K1 O27 3.209538 1_555
K2 O7 2.832985 1_655
K2 O11 2.841855 1_555
K2 O34 2.961802 1_556
K2 O31 2.969783 1_565
K2 O1 2.974318 1_555
K2 O20 2.981059 1_555
K2 O18 3.087808 1_565
K2 O13 3.100510 1_555
K2 O24 3.209538 1_655
K3 O6 2.832985 1_455
K3 O10 2.841855 1_555
K3 O35 2.961802 1_554
K3 O30 2.969783 1_545
K3 O0 2.974318 1_555
K3 O21 2.981059 1_555
K3 O19 3.087808 1_545
K3 O12 3.100510 1_555
K3 O25 3.209538 1_455
O0 S0 1.485496 1_555
O0 Sm2 2.422192 1_455
O1 S1 1.485496 1_555
O1 Sm3 2.422192 1_655
O2 S2 1.485496 1_555
O2 Sm0 2.422192 1_554
O3 S3 1.485496 1_555
O3 Sm1 2.422192 1_556
O4 S7 1.498507 1_555
O4 Sm0 2.497123 1_554
O5 S6 1.498507 1_555
O5 Sm1 2.497123 1_556
O6 S5 1.498507 1_555
O6 Sm2 2.497123 1_555
O7 S4 1.498507 1_555
O7 Sm3 2.497123 1_555
O8 S0 1.483494 1_555
O8 Sm3 2.529516 1_555
O9 S1 1.483494 1_555
O9 Sm2 2.529516 1_555
O10 S2 1.483494 1_555
O10 Sm1 2.529516 1_555
O11 S3 1.483494 1_555
O11 Sm0 2.529516 1_555
O12 S0 1.502110 1_555
O12 Sm0 2.447886 1_554
O13 S1 1.502110 1_555
O13 Sm1 2.447886 1_556
O14 S2 1.502110 1_555
O14 Sm2 2.447886 1_555
O15 S3 1.502110 1_555
O15 Sm3 2.447886 1_555
O16 S4 1.479201 1_555
O16 Sm0 2.423348 1_555
O17 S5 1.479201 1_555
O17 Sm1 2.423348 1_555
O18 S6 1.479201 1_555
O18 Sm2 2.423348 1_555
O19 S7 1.479201 1_555
O19 Sm3 2.423348 1_555
O20 S6 1.480632 1_565
O20 Sm0 2.391219 1_555
O21 S7 1.480632 1_545
O21 Sm1 2.391219 1_555
O22 S4 1.480632 1_545
O22 Sm2 2.391219 1_455
O23 S5 1.480632 1_565
O23 Sm3 2.391219 1_655
O24 Sm0 2.429060 1_555
O25 Sm1 2.429060 1_555
O26 Sm2 2.429060 1_555
O27 Sm3 2.429060 1_555
O28 S6 1.501351 1_554
O28 Sm1 2.549035 1_555
O29 S7 1.501351 1_556
O29 Sm0 2.549035 1_555
O30 S4 1.501351 1_555
O30 Sm3 2.549035 1_555
O31 S5 1.501351 1_555
O31 Sm2 2.549035 1_555
O32 S0 1.495208 1_555
O32 Sm3 2.531581 1_555
O33 S1 1.495208 1_555
O33 Sm2 2.531581 1_555
O34 S2 1.495208 1_555
O34 Sm1 2.531581 1_555
O35 S3 1.495208 1_555
O35 Sm0 2.531581 1_555
