# generated using pymatgen
data_CeSe2
_symmetry_space_group_name_H-M   'P 1'
_cell_length_a   5.31763165
_cell_length_b   5.31763165
_cell_length_c   5.77245200
_cell_angle_alpha   90.00000000
_cell_angle_beta   90.00000000
_cell_angle_gamma   119.99999569
_symmetry_Int_Tables_number   1
_chemical_formula_structural   CeSe2
_chemical_formula_sum   'Ce2 Se4'
_cell_volume   141.36030799
_cell_formula_units_Z   2
loop_
 _symmetry_equiv_pos_site_id
 _symmetry_equiv_pos_as_xyz
  1  'x, y, z'
loop_
 _atom_site_type_symbol
 _atom_site_label
 _atom_site_symmetry_multiplicity
 _atom_site_fract_x
 _atom_site_fract_y
 _atom_site_fract_z
 _atom_site_occupancy
  Ce  Ce0  1  0.33333300  0.66666700  0.25000000  1
  Ce  Ce1  1  0.66666700  0.33333300  0.75000000  1
  Se  Se0  1  0.00000000  0.00000000  0.50000000  1
  Se  Se1  1  0.00000000  0.00000000  0.00000000  1
  Se  Se2  1  0.33333300  0.66666700  0.75000000  1
  Se  Se3  1  0.66666700  0.33333300  0.25000000  1
loop_
_geom_bond_atom_site_label_1
_geom_bond_atom_site_label_2
_geom_bond_distance
_geom_bond_site_symmetry_2
Ce0 Se2 2.886226 1_555
Ce0 Se2 2.886226 1_554
Ce0 Se3 3.070133 1_455
Ce0 Se3 3.070133 1_565
Ce0 Se3 3.070142 1_555
Ce0 Se0 3.392387 1_565
Ce0 Se1 3.392387 1_565
Ce0 Se0 3.392392 1_555
Ce0 Se1 3.392392 1_555
Ce0 Se0 3.392392 1_665
Ce0 Se1 3.392392 1_665
Ce1 Se3 2.886226 1_556
Ce1 Se3 2.886226 1_555
Ce1 Se2 3.070133 1_545
Ce1 Se2 3.070133 1_655
Ce1 Se2 3.070142 1_555
Ce1 Se0 3.392387 1_655
Ce1 Se1 3.392387 1_656
Ce1 Se0 3.392392 1_555
Ce1 Se1 3.392392 1_556
Ce1 Se0 3.392392 1_665
Ce1 Se1 3.392392 1_666
Se0 Se1 2.886226 1_555
Se0 Se1 2.886226 1_556
