# generated using pymatgen
data_ZnCu3(SnO3)4
_symmetry_space_group_name_H-M   'P 1'
_cell_length_a   6.69783354
_cell_length_b   6.69783354
_cell_length_c   6.69783354
_cell_angle_alpha   109.47122063
_cell_angle_beta   109.47122063
_cell_angle_gamma   109.47122063
_symmetry_Int_Tables_number   1
_chemical_formula_structural   ZnCu3(SnO3)4
_chemical_formula_sum   'Zn1 Cu3 Sn4 O12'
_cell_volume   231.30294368
_cell_formula_units_Z   1
loop_
 _symmetry_equiv_pos_site_id
 _symmetry_equiv_pos_as_xyz
  1  'x, y, z'
loop_
 _atom_site_type_symbol
 _atom_site_label
 _atom_site_symmetry_multiplicity
 _atom_site_fract_x
 _atom_site_fract_y
 _atom_site_fract_z
 _atom_site_occupancy
  Zn  Zn0  1  0.00000000  0.00000000  0.00000000  1
  Cu  Cu0  1  0.50000000  0.50000000  0.00000000  1
  Cu  Cu1  1  0.50000000  0.00000000  0.50000000  1
  Cu  Cu2  1  0.00000000  0.50000000  0.50000000  1
  Sn  Sn0  1  0.50000000  0.50000000  0.50000000  1
  Sn  Sn1  1  0.00000000  0.50000000  0.00000000  1
  Sn  Sn2  1  0.00000000  0.00000000  0.50000000  1
  Sn  Sn3  1  0.50000000  0.00000000  0.00000000  1
  O  O0  1  0.30771900  0.83053600  0.13825500  1
  O  O1  1  0.69228100  0.16946400  0.86174500  1
  O  O2  1  0.69228100  0.83053600  0.52281700  1
  O  O3  1  0.86174500  0.69228100  0.16946400  1
  O  O4  1  0.83053600  0.13825500  0.30771900  1
  O  O5  1  0.16946400  0.47718300  0.30771900  1
  O  O6  1  0.47718300  0.30771900  0.16946400  1
  O  O7  1  0.16946400  0.86174500  0.69228100  1
  O  O8  1  0.30771900  0.16946400  0.47718300  1
  O  O9  1  0.13825500  0.30771900  0.83053600  1
  O  O10  1  0.83053600  0.52281700  0.69228100  1
  O  O11  1  0.52281700  0.69228100  0.83053600  1
loop_
_geom_bond_atom_site_label_1
_geom_bond_atom_site_label_2
_geom_bond_distance
_geom_bond_site_symmetry_2
Cu0 O3 1.982227 1_555
Cu0 O9 1.982227 1_554
Cu0 O11 1.982227 1_554
Cu0 O6 1.982227 1_555
Cu1 O1 1.982227 1_555
Cu1 O2 1.982227 1_545
Cu1 O0 1.982227 1_545
Cu1 O8 1.982227 1_555
Cu2 O7 1.982227 1_555
Cu2 O10 1.982227 1_455
Cu2 O4 1.982227 1_455
Cu2 O5 1.982227 1_555
O0 Sn1 2.079819 1_555
O0 Sn3 2.079819 1_565
O1 Sn3 2.079819 1_556
O1 Sn1 2.079819 1_656
O2 Sn0 2.079819 1_555
O2 Sn2 2.079819 1_665
O3 Sn1 2.079819 1_655
O3 Sn2 2.079819 1_665
O4 Sn3 2.079819 1_555
O4 Sn2 2.079819 1_655
O5 Sn1 2.079819 1_555
O5 Sn0 2.079819 1_555
O6 Sn3 2.079819 1_555
O6 Sn0 2.079819 1_555
O7 Sn2 2.079819 1_565
O7 Sn3 2.079819 1_566
O8 Sn2 2.079819 1_555
O8 Sn0 2.079819 1_555
O9 Sn2 2.079819 1_555
O9 Sn1 2.079819 1_556
O10 Sn0 2.079819 1_555
O10 Sn1 2.079819 1_656
O11 Sn0 2.079819 1_555
O11 Sn3 2.079819 1_566
