# generated using pymatgen
data_CsHSO3
_symmetry_space_group_name_H-M   'P 1'
_cell_length_a   4.71841835
_cell_length_b   4.71841835
_cell_length_c   4.71841832
_cell_angle_alpha   87.11054607
_cell_angle_beta   87.11054607
_cell_angle_gamma   87.11054145
_symmetry_Int_Tables_number   1
_chemical_formula_structural   CsHSO3
_chemical_formula_sum   'Cs1 H1 S1 O3'
_cell_volume   104.66070880
_cell_formula_units_Z   1
loop_
 _symmetry_equiv_pos_site_id
 _symmetry_equiv_pos_as_xyz
  1  'x, y, z'
loop_
 _atom_site_type_symbol
 _atom_site_label
 _atom_site_symmetry_multiplicity
 _atom_site_fract_x
 _atom_site_fract_y
 _atom_site_fract_z
 _atom_site_occupancy
  Cs  Cs0  1  0.99568600  0.99568600  0.99568600  1
  H  H0  1  0.59737300  0.59737300  0.59737300  1
  S  S0  1  0.43924700  0.43924700  0.43924700  1
  O  O0  1  0.51919000  0.51919000  0.14091500  1
  O  O1  1  0.14091500  0.51919000  0.51919000  1
  O  O2  1  0.51919000  0.14091500  0.51919000  1
loop_
_geom_bond_atom_site_label_1
_geom_bond_atom_site_label_2
_geom_bond_distance
_geom_bond_site_symmetry_2
Cs0 O2 3.283034 1_565
Cs0 O1 3.283034 1_655
Cs0 O0 3.283034 1_556
Cs0 O0 3.328862 1_656
Cs0 O0 3.328862 1_566
Cs0 O2 3.328863 1_566
Cs0 O1 3.328863 1_656
Cs0 O1 3.328863 1_665
Cs0 O2 3.328863 1_665
H0 S0 1.355870 1_555
O0 S0 1.474225 1_555
O1 S0 1.474225 1_555
O2 S0 1.474225 1_555
