# generated using pymatgen
data_ZnBi4(PO6)2
_symmetry_space_group_name_H-M   'P 1'
_cell_length_a   10.96509888
_cell_length_b   17.81047200
_cell_length_c   24.67366644
_cell_angle_alpha   81.18853505
_cell_angle_beta   77.16157169
_cell_angle_gamma   72.07165651
_symmetry_Int_Tables_number   1
_chemical_formula_structural   ZnBi4(PO6)2
_chemical_formula_sum   'Zn16 Bi64 P32 O192'
_cell_volume   4451.30631500
_cell_formula_units_Z   16
loop_
 _symmetry_equiv_pos_site_id
 _symmetry_equiv_pos_as_xyz
  1  'x, y, z'
loop_
 _atom_site_type_symbol
 _atom_site_label
 _atom_site_symmetry_multiplicity
 _atom_site_fract_x
 _atom_site_fract_y
 _atom_site_fract_z
 _atom_site_occupancy
  Zn  Zn0  1  0.34531159  0.25862268  0.49708439  1
  Zn  Zn1  1  0.10101866  0.24137732  0.00291561  1
  Zn  Zn2  1  0.65468841  0.74137732  0.50291561  1
  Zn  Zn3  1  0.89898134  0.75862268  0.99708439  1
  Zn  Zn4  1  0.66406093  0.24798032  0.50345371  1
  Zn  Zn5  1  0.41549496  0.25201968  0.99654629  1
  Zn  Zn6  1  0.33593907  0.75201968  0.49654629  1
  Zn  Zn7  1  0.58450504  0.74798032  0.00345371  1
  Zn  Zn8  1  0.07299538  0.16966383  0.45223181  1
  Zn  Zn9  1  0.69489102  0.33033617  0.04776819  1
  Zn  Zn10  1  0.92700462  0.83033617  0.54776819  1
  Zn  Zn11  1  0.30510898  0.66966383  0.95223181  1
  Zn  Zn12  1  0.76689262  0.19167294  0.95318360  1
  Zn  Zn13  1  0.91174916  0.30832706  0.54681640  1
  Zn  Zn14  1  0.23310738  0.80832706  0.04681640  1
  Zn  Zn15  1  0.08825084  0.69167294  0.45318360  1
  Bi  Bi0  1  0.85984877  0.34677193  0.69944642  1
  Bi  Bi1  1  0.90606713  0.15322807  0.80055358  1
  Bi  Bi2  1  0.14015123  0.65322807  0.30055358  1
  Bi  Bi3  1  0.09393287  0.84677193  0.19944642  1
  Bi  Bi4  1  0.69107796  0.67465385  0.69747401  1
  Bi  Bi5  1  0.06320582  0.82534615  0.80252599  1
  Bi  Bi6  1  0.30892204  0.32534615  0.30252599  1
  Bi  Bi7  1  0.93679418  0.17465385  0.19747401  1
  Bi  Bi8  1  0.56337748  0.32463737  0.80041917  1
  Bi  Bi9  1  0.68843402  0.17536263  0.69958083  1
  Bi  Bi10  1  0.43662252  0.67536263  0.19958083  1
  Bi  Bi11  1  0.31156598  0.82463737  0.30041917  1
  Bi  Bi12  1  0.76239850  0.49958218  0.80701524  1
  Bi  Bi13  1  0.06899591  0.00041782  0.69298476  1
  Bi  Bi14  1  0.23760150  0.50041782  0.19298476  1
  Bi  Bi15  1  0.93100409  0.99958218  0.30701524  1
  Bi  Bi16  1  0.30534049  0.52150364  0.57055924  1
  Bi  Bi17  1  0.39740337  0.97849636  0.92944076  1
  Bi  Bi18  1  0.69465951  0.47849636  0.42944076  1
  Bi  Bi19  1  0.60259663  0.02150364  0.07055924  1
  Bi  Bi20  1  0.39457870  0.47326217  0.92834901  1
  Bi  Bi21  1  0.79618989  0.02673783  0.57165099  1
  Bi  Bi22  1  0.60542130  0.52673783  0.07165099  1
  Bi  Bi23  1  0.20381011  0.97326217  0.42834901  1
  Bi  Bi24  1  0.40412446  0.65171769  0.79917999  1
  Bi  Bi25  1  0.85502214  0.84828231  0.70082001  1
  Bi  Bi26  1  0.59587554  0.34828231  0.20082001  1
  Bi  Bi27  1  0.14497786  0.15171769  0.29917999  1
  Bi  Bi28  1  0.07700220  0.32191754  0.80166860  1
  Bi  Bi29  1  0.20058834  0.17808246  0.69833140  1
  Bi  Bi30  1  0.92299780  0.67808246  0.19833140  1
  Bi  Bi31  1  0.79941166  0.82191754  0.30166860  1
  Bi  Bi32  1  0.91014941  0.65499994  0.79901646  1
  Bi  Bi33  1  0.36416581  0.84500006  0.70098354  1
  Bi  Bi34  1  0.08985059  0.34500006  0.20098354  1
  Bi  Bi35  1  0.63583419  0.15499994  0.29901646  1
  Bi  Bi36  1  0.24669367  0.49753754  0.80042983  1
  Bi  Bi37  1  0.54466104  0.00246246  0.69957017  1
  Bi  Bi38  1  0.75330633  0.50246246  0.19957017  1
  Bi  Bi39  1  0.45533896  0.99753754  0.30042983  1
  Bi  Bi40  1  0.92530317  0.48508363  0.92748029  1
  Bi  Bi41  1  0.33786708  0.01491637  0.57251971  1
  Bi  Bi42  1  0.07469683  0.51491637  0.07251971  1
  Bi  Bi43  1  0.66213292  0.98508363  0.42748029  1
  Bi  Bi44  1  0.57826017  0.81890798  0.80572517  1
  Bi  Bi45  1  0.20289332  0.68109202  0.69427483  1
  Bi  Bi46  1  0.42173983  0.18109202  0.19427483  1
  Bi  Bi47  1  0.79710668  0.31890798  0.30572517  1
  Bi  Bi48  1  0.17234563  0.47587522  0.42418022  1
  Bi  Bi49  1  0.07240107  0.02412478  0.07581978  1
  Bi  Bi50  1  0.82765437  0.52412478  0.57581978  1
  Bi  Bi51  1  0.92759893  0.97587522  0.92418022  1
  Bi  Bi52  1  0.35891251  0.34686446  0.69459750  1
  Bi  Bi53  1  0.40037448  0.15313554  0.80540250  1
  Bi  Bi54  1  0.64108749  0.65313554  0.30540250  1
  Bi  Bi55  1  0.59962552  0.84686446  0.19459750  1
  Bi  Bi56  1  0.05971403  0.50443340  0.68950889  1
  Bi  Bi57  1  0.25365632  0.99556660  0.81049111  1
  Bi  Bi58  1  0.94028597  0.49556660  0.31049111  1
  Bi  Bi59  1  0.74634368  0.00443340  0.18950889  1
  Bi  Bi60  1  0.56114387  0.49783532  0.69340969  1
  Bi  Bi61  1  0.75238888  0.00216468  0.80659031  1
  Bi  Bi62  1  0.43885613  0.50216468  0.30659031  1
  Bi  Bi63  1  0.24761112  0.99783532  0.19340969  1
  P  P0  1  0.49707679  0.14610713  0.59212603  1
  P  P1  1  0.23530995  0.35389287  0.90787397  1
  P  P2  1  0.50292321  0.85389287  0.40787397  1
  P  P3  1  0.76469005  0.64610713  0.09212603  1
  P  P4  1  0.59506402  0.11003756  0.92176962  1
  P  P5  1  0.62687119  0.38996244  0.57823038  1
  P  P6  1  0.40493598  0.88996244  0.07823038  1
  P  P7  1  0.37312881  0.61003756  0.42176962  1
  P  P8  1  0.36637614  0.13605084  0.41557149  1
  P  P9  1  0.91799847  0.36394916  0.08442851  1
  P  P10  1  0.63362386  0.86394916  0.58442851  1
  P  P11  1  0.08200153  0.63605084  0.91557149  1
  P  P12  1  0.11733977  0.38220612  0.58122280  1
  P  P13  1  0.08076869  0.11779388  0.91877720  1
  P  P14  1  0.88266023  0.61779388  0.41877720  1
  P  P15  1  0.91923131  0.88220612  0.08122280  1
  P  P16  1  0.73912194  0.34566011  0.90805615  1
  P  P17  1  0.99283819  0.15433989  0.59194385  1
  P  P18  1  0.26087806  0.65433989  0.09194385  1
  P  P19  1  0.00716181  0.84566011  0.40805615  1
  P  P20  1  0.75392854  0.15891801  0.09178289  1
  P  P21  1  0.00462945  0.34108199  0.40821711  1
  P  P22  1  0.24607146  0.84108199  0.90821711  1
  P  P23  1  0.99537055  0.65891801  0.59178289  1
  P  P24  1  0.86292567  0.12029092  0.41872926  1
  P  P25  1  0.40194586  0.37970908  0.08127074  1
  P  P26  1  0.13707433  0.87970908  0.58127074  1
  P  P27  1  0.59805414  0.62029092  0.91872926  1
  P  P28  1  0.51432801  0.34016840  0.40564451  1
  P  P29  1  0.26014092  0.15983160  0.09435549  1
  P  P30  1  0.48567199  0.65983160  0.59435549  1
  P  P31  1  0.73985908  0.84016840  0.90564451  1
  O  O0  1  0.25989965  0.25000000  0.75000000  1
  O  O1  1  0.74010035  0.75000000  0.25000000  1
  O  O2  1  0.75526403  0.25000000  0.75000000  1
  O  O3  1  0.24473597  0.75000000  0.25000000  1
  O  O4  1  0.01449981  0.25000000  0.75000000  1
  O  O5  1  0.98550019  0.75000000  0.25000000  1
  O  O6  1  0.51052313  0.25000000  0.75000000  1
  O  O7  1  0.48947687  0.75000000  0.25000000  1
  O  O8  1  0.42284375  0.41320164  0.74849701  1
  O  O9  1  0.58454240  0.08679836  0.75150299  1
  O  O10  1  0.57715625  0.58679836  0.25150299  1
  O  O11  1  0.41545760  0.91320164  0.24849701  1
  O  O12  1  0.50849253  0.74585035  0.75461216  1
  O  O13  1  0.00895504  0.75414965  0.74538784  1
  O  O14  1  0.49150747  0.25414965  0.24538784  1
  O  O15  1  0.99104496  0.24585035  0.25461216  1
  O  O16  1  0.17069259  0.40880716  0.74727469  1
  O  O17  1  0.32677444  0.09119284  0.75272531  1
  O  O18  1  0.82930741  0.59119284  0.25272531  1
  O  O19  1  0.67322556  0.90880716  0.24727469  1
  O  O20  1  0.75980517  0.75073975  0.74597997  1
  O  O21  1  0.25652489  0.74926025  0.75402003  1
  O  O22  1  0.24019483  0.24926025  0.25402003  1
  O  O23  1  0.74347511  0.25073975  0.24597997  1
  O  O24  1  0.08697734  0.59135888  0.73938652  1
  O  O25  1  0.41772274  0.90864112  0.76061348  1
  O  O26  1  0.91302266  0.40864112  0.26061348  1
  O  O27  1  0.58227726  0.09135888  0.23938652  1
  O  O28  1  0.66859549  0.40980375  0.75246834  1
  O  O29  1  0.83086758  0.09019625  0.74753166  1
  O  O30  1  0.33140451  0.59019625  0.24753166  1
  O  O31  1  0.16913242  0.90980375  0.25246834  1
  O  O32  1  0.83211900  0.59063507  0.74733054  1
  O  O33  1  0.17008462  0.90936493  0.75266946  1
  O  O34  1  0.16788100  0.40936493  0.25266946  1
  O  O35  1  0.82991538  0.09063507  0.24733054  1
  O  O36  1  0.22146543  0.51565286  0.33944173  1
  O  O37  1  0.07656002  0.98434714  0.16055827  1
  O  O38  1  0.77853457  0.48434714  0.66055827  1
  O  O39  1  0.92343998  0.01565286  0.83944173  1
  O  O40  1  0.93110373  0.51811686  0.84099172  1
  O  O41  1  0.29021231  0.98188314  0.65900828  1
  O  O42  1  0.06889627  0.48188314  0.15900828  1
  O  O43  1  0.70978769  0.01811686  0.34099172  1
  O  O44  1  0.58707177  0.58471472  0.74533184  1
  O  O45  1  0.91711833  0.91528528  0.75466816  1
  O  O46  1  0.41292823  0.41528528  0.25466816  1
  O  O47  1  0.08288167  0.08471472  0.24533184  1
  O  O48  1  0.91981799  0.41090452  0.75644012  1
  O  O49  1  0.08716263  0.08909548  0.74355988  1
  O  O50  1  0.08018201  0.58909548  0.24355988  1
  O  O51  1  0.91283737  0.91090452  0.25644012  1
  O  O52  1  0.33443154  0.58935004  0.74451013  1
  O  O53  1  0.66829170  0.91064996  0.75548987  1
  O  O54  1  0.66556846  0.41064996  0.25548987  1
  O  O55  1  0.33170830  0.08935004  0.24451013  1
  O  O56  1  0.27805899  0.47759327  0.65546863  1
  O  O57  1  0.41112089  0.02240673  0.84453137  1
  O  O58  1  0.72194101  0.52240673  0.34453137  1
  O  O59  1  0.58887911  0.97759327  0.15546863  1
  O  O60  1  0.84623116  0.38911982  0.89005169  1
  O  O61  1  0.12540267  0.11088018  0.60994831  1
  O  O62  1  0.15376884  0.61088018  0.10994831  1
  O  O63  1  0.87459733  0.88911982  0.39005169  1
  O  O64  1  0.64394852  0.11677301  0.11717567  1
  O  O65  1  0.87789720  0.38322699  0.38282433  1
  O  O66  1  0.35605148  0.88322699  0.88282433  1
  O  O67  1  0.12210280  0.61677301  0.61717567  1
  O  O68  1  0.40742369  0.49915303  0.84226633  1
  O  O69  1  0.74884305  0.00084697  0.65773367  1
  O  O70  1  0.59257631  0.50084697  0.15773367  1
  O  O71  1  0.25115695  0.99915303  0.34226633  1
  O  O72  1  0.31248842  0.22135228  0.43317886  1
  O  O73  1  0.96701957  0.27864772  0.06682114  1
  O  O74  1  0.68751158  0.77864772  0.56682114  1
  O  O75  1  0.03298043  0.72135228  0.93317886  1
  O  O76  1  0.37108010  0.38366638  0.39933055  1
  O  O77  1  0.15407703  0.11633362  0.10066945  1
  O  O78  1  0.62891990  0.61633362  0.60066945  1
  O  O79  1  0.84592297  0.88366638  0.89933055  1
  O  O80  1  0.25543591  0.09392707  0.44237806  1
  O  O81  1  0.79174104  0.40607293  0.05762194  1
  O  O82  1  0.74456409  0.90607293  0.55762194  1
  O  O83  1  0.20825896  0.59392707  0.94237806  1
  O  O84  1  0.97097903  0.38478774  0.57997492  1
  O  O85  1  0.93574169  0.11521226  0.92002508  1
  O  O86  1  0.02902097  0.61521226  0.42002508  1
  O  O87  1  0.06425831  0.88478774  0.07997492  1
  O  O88  1  0.49145899  0.09334369  0.44010725  1
  O  O89  1  0.02490993  0.40665631  0.05989275  1
  O  O90  1  0.50854101  0.90665631  0.55989275  1
  O  O91  1  0.97509007  0.59334369  0.94010725  1
  O  O92  1  0.39351479  0.13600332  0.35096919  1
  O  O93  1  0.88048730  0.36399668  0.14903081  1
  O  O94  1  0.60648521  0.86399668  0.64903081  1
  O  O95  1  0.11951270  0.63600332  0.85096919  1
  O  O96  1  0.51130532  0.29282834  0.46528832  1
  O  O97  1  0.26942197  0.20717166  0.03471168  1
  O  O98  1  0.48869468  0.70717166  0.53471168  1
  O  O99  1  0.73057803  0.79282834  0.96528832  1
  O  O100  1  0.70130115  0.24555570  0.10844041  1
  O  O101  1  0.05529727  0.25444430  0.39155959  1
  O  O102  1  0.29869885  0.75444430  0.89155959  1
  O  O103  1  0.94470273  0.74555570  0.60844041  1
  O  O104  1  0.00912154  0.08487542  0.42998470  1
  O  O105  1  0.52398166  0.41512458  0.07001530  1
  O  O106  1  0.99087846  0.91512458  0.57001530  1
  O  O107  1  0.47601834  0.58487542  0.92998470  1
  O  O108  1  0.58186917  0.18145098  0.95657314  1
  O  O109  1  0.71989330  0.31854902  0.54342686  1
  O  O110  1  0.41813083  0.81854902  0.04342686  1
  O  O111  1  0.28010670  0.68145098  0.45657314  1
  O  O112  1  0.59428116  0.40010904  0.40067662  1
  O  O113  1  0.39506682  0.09989096  0.09932338  1
  O  O114  1  0.40571884  0.59989096  0.59932338  1
  O  O115  1  0.60493318  0.90010904  0.90067662  1
  O  O116  1  0.87212932  0.11395882  0.12123856  1
  O  O117  1  0.10732670  0.38604118  0.37876144  1
  O  O118  1  0.12787068  0.88604118  0.87876144  1
  O  O119  1  0.89267330  0.61395882  0.62123856  1
  O  O120  1  0.57686685  0.28665627  0.35743374  1
  O  O121  1  0.22095686  0.21334373  0.14256626  1
  O  O122  1  0.42313315  0.71334373  0.64256626  1
  O  O123  1  0.77904314  0.78665627  0.85743374  1
  O  O124  1  0.38261655  0.18469496  0.56152309  1
  O  O125  1  0.12883461  0.31530504  0.93847691  1
  O  O126  1  0.61738345  0.81530504  0.43847691  1
  O  O127  1  0.87116539  0.68469496  0.06152309  1
  O  O128  1  0.73387902  0.30841811  0.97025895  1
  O  O129  1  0.01255607  0.19158189  0.52974105  1
  O  O130  1  0.26612098  0.69158189  0.02974105  1
  O  O131  1  0.98744393  0.80841811  0.47025895  1
  O  O132  1  0.78783038  0.05853315  0.44571974  1
  O  O133  1  0.29208327  0.44146685  0.05428026  1
  O  O134  1  0.21216962  0.94146685  0.55428026  1
  O  O135  1  0.70791673  0.55853315  0.94571974  1
  O  O136  1  0.63053907  0.13423344  0.85838288  1
  O  O137  1  0.62315540  0.36576656  0.64161712  1
  O  O138  1  0.36946093  0.86576656  0.14161712  1
  O  O139  1  0.37684460  0.63423344  0.35838288  1
  O  O140  1  0.52830284  0.05348879  0.59217209  1
  O  O141  1  0.17396372  0.44651121  0.90782791  1
  O  O142  1  0.47169716  0.94651121  0.40782791  1
  O  O143  1  0.82603628  0.55348879  0.09217209  1
  O  O144  1  0.11259134  0.47199688  0.57653556  1
  O  O145  1  0.16112379  0.02800312  0.92346444  1
  O  O146  1  0.88740866  0.52800312  0.42346444  1
  O  O147  1  0.83887621  0.97199688  0.07653556  1
  O  O148  1  0.62833037  0.16497174  0.56268384  1
  O  O149  1  0.35598595  0.33502826  0.93731616  1
  O  O150  1  0.37166963  0.83502826  0.43731616  1
  O  O151  1  0.64401405  0.66497174  0.06268384  1
  O  O152  1  0.46288902  0.16782257  0.65301489  1
  O  O153  1  0.28372648  0.33217743  0.84698511  1
  O  O154  1  0.53711098  0.83217743  0.34698511  1
  O  O155  1  0.71627352  0.66782257  0.15301489  1
  O  O156  1  0.14912768  0.34091147  0.63825511  1
  O  O157  1  0.12829426  0.15908853  0.86174489  1
  O  O158  1  0.85087232  0.65908853  0.36174489  1
  O  O159  1  0.87170574  0.84091147  0.13825511  1
  O  O160  1  0.86820988  0.13601564  0.35482540  1
  O  O161  1  0.35905092  0.36398436  0.14517460  1
  O  O162  1  0.13179012  0.86398436  0.64517460  1
  O  O163  1  0.64094908  0.63601564  0.85482540  1
  O  O164  1  0.20812479  0.34679985  0.52878146  1
  O  O165  1  0.08370610  0.15320015  0.97121854  1
  O  O166  1  0.79187521  0.65320015  0.47121854  1
  O  O167  1  0.91629390  0.84679985  0.02878146  1
  O  O168  1  0.46380738  0.08956865  0.93677839  1
  O  O169  1  0.49015441  0.41043135  0.56322161  1
  O  O170  1  0.53619262  0.91043135  0.06322161  1
  O  O171  1  0.50984559  0.58956865  0.43677839  1
  O  O172  1  0.70576172  0.04052067  0.94221378  1
  O  O173  1  0.68849617  0.45947933  0.55778622  1
  O  O174  1  0.29423828  0.95947933  0.05778622  1
  O  O175  1  0.31150383  0.54052067  0.44221378  1
  O  O176  1  0.60769424  0.40577244  0.89909426  1
  O  O177  1  0.91256094  0.09422756  0.60090574  1
  O  O178  1  0.39230576  0.59422756  0.10090574  1
  O  O179  1  0.08743906  0.90577244  0.39909426  1
  O  O180  1  0.81009822  0.19773073  0.44772140  1
  O  O181  1  0.45555035  0.30226927  0.05227860  1
  O  O182  1  0.18990178  0.80226927  0.55227860  1
  O  O183  1  0.54444965  0.69773073  0.94772140  1
  O  O184  1  0.79348927  0.15200193  0.02947430  1
  O  O185  1  0.97496550  0.34799807  0.47052570  1
  O  O186  1  0.20651073  0.84799807  0.97052570  1
  O  O187  1  0.02503450  0.65200193  0.52947430  1
  O  O188  1  0.76929304  0.27307525  0.87457470  1
  O  O189  1  0.91694299  0.22692475  0.62542530  1
  O  O190  1  0.23070696  0.72692475  0.12542530  1
  O  O191  1  0.08305701  0.77307525  0.37457470  1
loop_
_geom_bond_atom_site_label_1
_geom_bond_atom_site_label_2
_geom_bond_distance
_geom_bond_site_symmetry_2
Bi0 O48 2.253901 1_555
Bi0 O28 2.269573 1_555
Bi0 O2 2.400862 1_555
Bi0 O4 2.425711 1_655
Bi0 O38 2.456500 1_555
Bi1 O49 2.253901 1_655
Bi1 O29 2.269574 1_555
Bi1 O2 2.400862 1_555
Bi1 O4 2.425711 1_655
Bi1 O39 2.456500 1_555
Bi2 O50 2.253901 1_555
Bi2 O30 2.269573 1_555
Bi2 O3 2.400862 1_555
Bi2 O5 2.425711 1_455
Bi2 O36 2.456500 1_555
Bi3 O51 2.253901 1_455
Bi3 O31 2.269574 1_555
Bi3 O3 2.400862 1_555
Bi3 O5 2.425711 1_455
Bi3 O37 2.456500 1_555
Bi4 O32 2.236287 1_555
Bi4 O44 2.282024 1_555
Bi4 O12 2.309576 1_555
Bi4 O20 2.315832 1_555
Bi4 O119 2.626235 1_555
Bi5 O33 2.236287 1_555
Bi5 O45 2.282024 1_455
Bi5 O13 2.309576 1_555
Bi5 O21 2.315832 1_555
Bi5 O118 2.626235 1_555
Bi6 O34 2.236287 1_555
Bi6 O46 2.282024 1_555
Bi6 O14 2.309576 1_555
Bi6 O22 2.315832 1_555
Bi6 O117 2.626235 1_555
Bi7 O35 2.236287 1_555
Bi7 O47 2.282024 1_655
Bi7 O15 2.309576 1_555
Bi7 O23 2.315832 1_555
Bi7 O116 2.626235 1_555
Bi8 O6 2.225298 1_555
Bi8 O28 2.225466 1_555
Bi8 O8 2.294707 1_555
Bi8 O2 2.315859 1_555
Bi9 O6 2.225298 1_555
Bi9 O29 2.225466 1_555
Bi9 O9 2.294707 1_555
Bi9 O2 2.315859 1_555
Bi10 O7 2.225298 1_555
Bi10 O30 2.225466 1_555
Bi10 O10 2.294707 1_555
Bi10 O3 2.315859 1_555
Bi11 O7 2.225298 1_555
Bi11 O31 2.225466 1_555
Bi11 O11 2.294707 1_555
Bi11 O3 2.315859 1_555
Bi12 O32 2.216823 1_555
Bi12 O48 2.235916 1_555
Bi12 O40 2.320280 1_555
Bi12 O44 2.666453 1_555
Bi12 O163 2.693969 1_555
Bi12 O60 2.720642 1_555
Bi12 O28 2.777256 1_555
Bi13 O33 2.216823 1_545
Bi13 O49 2.235916 1_555
Bi13 O41 2.320280 1_545
Bi13 O45 2.666453 1_445
Bi13 O162 2.693969 1_545
Bi13 O61 2.720642 1_555
Bi13 O29 2.777255 1_455
Bi14 O34 2.216823 1_555
Bi14 O50 2.235916 1_555
Bi14 O42 2.320280 1_555
Bi14 O46 2.666453 1_555
Bi14 O161 2.693969 1_555
Bi14 O62 2.720642 1_555
Bi14 O30 2.777256 1_555
Bi15 O35 2.216823 1_565
Bi15 O51 2.235916 1_555
Bi15 O43 2.320280 1_565
Bi15 O47 2.666453 1_665
Bi15 O160 2.693969 1_565
Bi15 O63 2.720642 1_555
Bi15 O31 2.777255 1_655
Bi16 O56 2.110402 1_555
Bi16 O114 2.293696 1_555
Bi16 O169 2.351920 1_555
Bi16 O67 2.389773 1_555
Bi16 O144 2.497023 1_555
Bi17 O57 2.110402 1_565
Bi17 O115 2.293696 1_555
Bi17 O168 2.351920 1_565
Bi17 O66 2.389773 1_555
Bi17 O145 2.497023 1_565
Bi18 O58 2.110402 1_555
Bi18 O112 2.293696 1_555
Bi18 O171 2.351920 1_555
Bi18 O65 2.389773 1_555
Bi18 O146 2.497023 1_555
Bi19 O59 2.110402 1_545
Bi19 O113 2.293696 1_555
Bi19 O170 2.351920 1_545
Bi19 O64 2.389773 1_555
Bi19 O147 2.497023 1_545
Bi20 O68 2.085839 1_555
Bi20 O176 2.283321 1_555
Bi20 O107 2.425745 1_555
Bi20 O83 2.474443 1_555
Bi20 O149 2.592770 1_555
Bi20 O141 2.768224 1_555
Bi21 O69 2.085839 1_555
Bi21 O177 2.283321 1_555
Bi21 O106 2.425745 1_545
Bi21 O82 2.474443 1_545
Bi21 O148 2.592770 1_555
Bi21 O140 2.768224 1_555
Bi22 O70 2.085839 1_555
Bi22 O178 2.283321 1_555
Bi22 O105 2.425745 1_555
Bi22 O81 2.474443 1_555
Bi22 O151 2.592770 1_555
Bi22 O143 2.768224 1_555
Bi23 O71 2.085839 1_555
Bi23 O179 2.283321 1_555
Bi23 O104 2.425745 1_565
Bi23 O80 2.474443 1_565
Bi23 O150 2.592770 1_555
Bi23 O142 2.768224 1_555
Bi24 O44 2.245217 1_555
Bi24 O52 2.253255 1_555
Bi24 O21 2.314393 1_555
Bi24 O12 2.320959 1_555
Bi24 O68 2.754359 1_555
Bi25 O45 2.245217 1_555
Bi25 O53 2.253255 1_555
Bi25 O20 2.314393 1_555
Bi25 O13 2.320959 1_655
Bi25 O69 2.754359 1_565
Bi26 O46 2.245217 1_555
Bi26 O54 2.253255 1_555
Bi26 O23 2.314393 1_555
Bi26 O14 2.320959 1_555
Bi26 O70 2.754359 1_555
Bi27 O47 2.245217 1_555
Bi27 O55 2.253255 1_555
Bi27 O22 2.314393 1_555
Bi27 O15 2.320959 1_455
Bi27 O71 2.754359 1_545
Bi28 O16 2.231874 1_555
Bi28 O0 2.251772 1_555
Bi28 O4 2.272582 1_555
Bi28 O48 2.314952 1_455
Bi29 O17 2.231874 1_555
Bi29 O0 2.251772 1_555
Bi29 O4 2.272582 1_555
Bi29 O49 2.314952 1_555
Bi30 O18 2.231874 1_555
Bi30 O1 2.251772 1_555
Bi30 O5 2.272582 1_555
Bi30 O50 2.314952 1_655
Bi31 O19 2.231874 1_555
Bi31 O1 2.251772 1_555
Bi31 O5 2.272582 1_555
Bi31 O51 2.314952 1_555
Bi32 O24 2.258105 1_655
Bi32 O32 2.282375 1_555
Bi32 O13 2.422395 1_655
Bi32 O20 2.425322 1_555
Bi32 O40 2.460970 1_555
Bi32 O123 2.771616 1_555
Bi32 O95 2.779308 1_655
Bi33 O25 2.258105 1_555
Bi33 O33 2.282375 1_555
Bi33 O12 2.422395 1_555
Bi33 O21 2.425322 1_555
Bi33 O41 2.460970 1_555
Bi33 O122 2.771616 1_555
Bi33 O94 2.779308 1_555
Bi34 O26 2.258105 1_455
Bi34 O34 2.282375 1_555
Bi34 O15 2.422395 1_455
Bi34 O22 2.425322 1_555
Bi34 O42 2.460970 1_555
Bi34 O121 2.771616 1_555
Bi34 O93 2.779308 1_455
Bi35 O27 2.258105 1_555
Bi35 O35 2.282375 1_555
Bi35 O14 2.422395 1_555
Bi35 O23 2.425322 1_555
Bi35 O43 2.460970 1_555
Bi35 O120 2.771616 1_555
Bi35 O92 2.779308 1_555
Bi36 O68 2.240832 1_555
Bi36 O52 2.278291 1_555
Bi36 O8 2.309204 1_555
Bi36 O24 2.593711 1_555
Bi36 O16 2.616022 1_555
Bi36 O141 2.693168 1_555
Bi36 O95 2.762900 1_555
Bi37 O69 2.240832 1_555
Bi37 O53 2.278291 1_545
Bi37 O9 2.309205 1_555
Bi37 O25 2.593711 1_545
Bi37 O17 2.616022 1_555
Bi37 O140 2.693168 1_555
Bi37 O94 2.762900 1_545
Bi38 O70 2.240832 1_555
Bi38 O54 2.278291 1_555
Bi38 O10 2.309204 1_555
Bi38 O26 2.593711 1_555
Bi38 O18 2.616022 1_555
Bi38 O143 2.693168 1_555
Bi38 O93 2.762900 1_555
Bi39 O71 2.240832 1_555
Bi39 O55 2.278291 1_565
Bi39 O11 2.309205 1_555
Bi39 O27 2.593711 1_565
Bi39 O19 2.616022 1_555
Bi39 O142 2.693168 1_555
Bi39 O92 2.762900 1_565
Bi40 O40 2.117114 1_555
Bi40 O91 2.240666 1_555
Bi40 O135 2.319391 1_555
Bi40 O60 2.505509 1_555
Bi40 O141 2.550031 1_655
Bi41 O41 2.117114 1_545
Bi41 O90 2.240666 1_545
Bi41 O134 2.319391 1_545
Bi41 O61 2.505509 1_555
Bi41 O140 2.550031 1_555
Bi42 O42 2.117114 1_555
Bi42 O89 2.240666 1_555
Bi42 O133 2.319391 1_555
Bi42 O62 2.505509 1_555
Bi42 O143 2.550031 1_455
Bi43 O43 2.117114 1_565
Bi43 O88 2.240666 1_565
Bi43 O132 2.319391 1_565
Bi43 O63 2.505509 1_555
Bi43 O142 2.550031 1_555
Bi44 O53 2.238209 1_555
Bi44 O20 2.316486 1_555
Bi44 O12 2.326621 1_555
Bi44 O25 2.342124 1_555
Bi44 O123 2.655178 1_555
Bi44 O66 2.785178 1_555
Bi45 O52 2.238209 1_555
Bi45 O21 2.316486 1_555
Bi45 O13 2.326620 1_555
Bi45 O24 2.342124 1_555
Bi45 O122 2.655178 1_555
Bi45 O67 2.785178 1_555
Bi46 O55 2.238209 1_555
Bi46 O22 2.316486 1_555
Bi46 O14 2.326621 1_555
Bi46 O27 2.342124 1_555
Bi46 O121 2.655178 1_555
Bi46 O64 2.785178 1_555
Bi47 O54 2.238209 1_555
Bi47 O23 2.316486 1_555
Bi47 O15 2.326620 1_555
Bi47 O26 2.342124 1_555
Bi47 O120 2.655178 1_555
Bi47 O65 2.785178 1_555
Bi48 O36 2.108116 1_555
Bi48 O76 2.309356 1_555
Bi48 O175 2.322120 1_555
Bi48 O117 2.435312 1_555
Bi48 O86 2.496299 1_555
Bi49 O37 2.108116 1_545
Bi49 O77 2.309356 1_555
Bi49 O174 2.322120 1_545
Bi49 O116 2.435312 1_455
Bi49 O87 2.496299 1_545
Bi50 O38 2.108116 1_555
Bi50 O78 2.309356 1_555
Bi50 O173 2.322120 1_555
Bi50 O119 2.435312 1_555
Bi50 O84 2.496299 1_555
Bi51 O39 2.108116 1_565
Bi51 O79 2.309356 1_555
Bi51 O172 2.322120 1_565
Bi51 O118 2.435312 1_655
Bi51 O85 2.496299 1_565
Bi52 O16 2.238600 1_555
Bi52 O8 2.249797 1_555
Bi52 O56 2.357991 1_555
Bi52 O0 2.407230 1_555
Bi52 O6 2.475947 1_555
Bi53 O17 2.238600 1_555
Bi53 O9 2.249797 1_555
Bi53 O57 2.357991 1_555
Bi53 O0 2.407230 1_555
Bi53 O6 2.475947 1_555
Bi54 O18 2.238600 1_555
Bi54 O10 2.249797 1_555
Bi54 O58 2.357991 1_555
Bi54 O1 2.407230 1_555
Bi54 O7 2.475947 1_555
Bi55 O19 2.238600 1_555
Bi55 O11 2.249797 1_555
Bi55 O59 2.357991 1_555
Bi55 O1 2.407230 1_555
Bi55 O7 2.475947 1_555
Bi56 O24 2.243419 1_555
Bi56 O16 2.272469 1_555
Bi56 O56 2.278326 1_555
Bi56 O67 2.619658 1_555
Bi56 O32 2.711175 1_455
Bi56 O48 2.731258 1_455
Bi56 O144 2.829980 1_555
Bi56 O119 2.856968 1_455
Bi57 O25 2.243419 1_555
Bi57 O17 2.272469 1_565
Bi57 O57 2.278326 1_565
Bi57 O66 2.619658 1_555
Bi57 O33 2.711175 1_555
Bi57 O49 2.731258 1_565
Bi57 O145 2.829980 1_565
Bi57 O118 2.856968 1_555
Bi58 O26 2.243419 1_555
Bi58 O18 2.272469 1_555
Bi58 O58 2.278326 1_555
Bi58 O65 2.619658 1_555
Bi58 O34 2.711175 1_655
Bi58 O50 2.731258 1_655
Bi58 O146 2.829980 1_555
Bi58 O117 2.856968 1_655
Bi59 O27 2.243419 1_555
Bi59 O19 2.272469 1_545
Bi59 O59 2.278326 1_545
Bi59 O64 2.619658 1_555
Bi59 O35 2.711175 1_555
Bi59 O51 2.731258 1_545
Bi59 O147 2.829980 1_545
Bi59 O116 2.856968 1_555
Bi60 O28 2.212600 1_555
Bi60 O44 2.270777 1_555
Bi60 O38 2.290251 1_555
Bi60 O8 2.506572 1_555
Bi60 O52 2.677369 1_555
Bi60 O137 2.679246 1_555
Bi61 O29 2.212600 1_555
Bi61 O45 2.270777 1_545
Bi61 O39 2.290252 1_555
Bi61 O9 2.506572 1_555
Bi61 O53 2.677369 1_545
Bi61 O136 2.679246 1_555
Bi62 O30 2.212600 1_555
Bi62 O46 2.270777 1_555
Bi62 O36 2.290251 1_555
Bi62 O10 2.506572 1_555
Bi62 O54 2.677369 1_555
Bi62 O139 2.679246 1_555
Bi63 O31 2.212600 1_555
Bi63 O47 2.270777 1_565
Bi63 O37 2.290252 1_555
Bi63 O11 2.506572 1_555
Bi63 O55 2.677369 1_565
Bi63 O138 2.679246 1_555
O60 P16 1.548649 1_555
O61 P17 1.548649 1_455
O62 P18 1.548649 1_555
O63 P19 1.548649 1_655
O64 P20 1.577248 1_555
O65 P21 1.577248 1_655
O66 P22 1.577248 1_555
O67 P23 1.577248 1_455
O72 P8 1.543205 1_555
O72 Zn0 1.943288 1_555
O73 P9 1.543205 1_555
O73 Zn1 1.943288 1_655
O74 P10 1.543205 1_555
O74 Zn2 1.943288 1_555
O75 P11 1.543205 1_555
O75 Zn3 1.943288 1_455
O76 P28 1.553783 1_555
O77 P29 1.553783 1_555
O78 P30 1.553783 1_555
O79 P31 1.553783 1_555
O80 P8 1.591359 1_555
O80 Zn8 2.025731 1_555
O81 P9 1.591359 1_555
O81 Zn9 2.025731 1_555
O82 P10 1.591359 1_555
O82 Zn10 2.025731 1_555
O83 P11 1.591359 1_555
O83 Zn11 2.025731 1_555
O84 P12 1.598353 1_655
O84 Zn13 2.016839 1_555
O85 P13 1.598353 1_655
O85 Zn12 2.016839 1_555
O86 P14 1.598353 1_455
O86 Zn15 2.016839 1_555
O87 P15 1.598353 1_455
O87 Zn14 2.016839 1_555
O88 P8 1.553010 1_555
O89 P9 1.553010 1_455
O90 P10 1.553010 1_555
O91 P11 1.553010 1_655
O92 P8 1.555241 1_555
O93 P9 1.555241 1_555
O94 P10 1.555241 1_555
O95 P11 1.555241 1_555
O96 P28 1.578950 1_555
O96 Zn4 1.994283 1_555
O96 Zn0 2.049681 1_555
O97 P29 1.578950 1_555
O97 Zn5 1.994284 1_554
O97 Zn1 2.049681 1_555
O98 P30 1.578950 1_555
O98 Zn6 1.994283 1_555
O98 Zn2 2.049681 1_555
O99 P31 1.578950 1_555
O99 Zn7 1.994284 1_556
O99 Zn3 2.049681 1_555
O100 P20 1.556806 1_555
O100 Zn9 1.953177 1_555
O101 P21 1.556806 1_555
O101 Zn8 1.953177 1_555
O102 P22 1.556806 1_555
O102 Zn11 1.953177 1_555
O103 P23 1.556806 1_555
O103 Zn10 1.953177 1_555
O104 P24 1.602006 1_455
O104 Zn8 2.036733 1_555
O105 P25 1.602006 1_555
O105 Zn9 2.036733 1_555
O106 P26 1.602006 1_655
O106 Zn10 2.036733 1_555
O107 P27 1.602006 1_555
O107 Zn11 2.036733 1_555
O108 P4 1.594431 1_555
O108 Zn5 2.012236 1_555
O108 Zn12 2.074488 1_555
O109 P5 1.594431 1_555
O109 Zn4 2.012236 1_555
O109 Zn13 2.074488 1_555
O110 P6 1.594431 1_555
O110 Zn7 2.012236 1_555
O110 Zn14 2.074488 1_555
O111 P7 1.594431 1_555
O111 Zn6 2.012236 1_555
O111 Zn15 2.074488 1_555
O112 P28 1.552962 1_555
O113 P29 1.552962 1_555
O114 P30 1.552962 1_555
O115 P31 1.552962 1_555
O116 P20 1.565441 1_555
O117 P21 1.565441 1_555
O118 P22 1.565441 1_555
O119 P23 1.565441 1_555
O120 P28 1.541444 1_555
O121 P29 1.541444 1_555
O122 P30 1.541444 1_555
O123 P31 1.541444 1_555
O124 P0 1.532583 1_555
O124 Zn0 1.935192 1_555
O125 P1 1.532583 1_555
O125 Zn1 1.935192 1_556
O126 P2 1.532583 1_555
O126 Zn2 1.935192 1_555
O127 P3 1.532583 1_555
O127 Zn3 1.935192 1_554
O128 P16 1.571996 1_555
O128 Zn9 1.937836 1_556
O128 Zn12 2.090260 1_555
O129 P17 1.571996 1_455
O129 Zn8 1.937836 1_555
O129 Zn13 2.090260 1_455
O130 P18 1.571996 1_555
O130 Zn11 1.937836 1_554
O130 Zn14 2.090260 1_555
O131 P19 1.571996 1_655
O131 Zn10 1.937836 1_555
O131 Zn15 2.090260 1_655
O132 P24 1.555918 1_555
O133 P25 1.555918 1_555
O134 P26 1.555918 1_555
O135 P27 1.555918 1_555
O136 P4 1.552230 1_555
O137 P5 1.552230 1_555
O138 P6 1.552230 1_555
O139 P7 1.552230 1_555
O140 P0 1.578040 1_555
O141 P1 1.578040 1_555
O142 P2 1.578040 1_555
O143 P3 1.578040 1_555
O144 P12 1.571091 1_555
O145 P13 1.571091 1_555
O146 P14 1.571091 1_555
O147 P15 1.571091 1_555
O148 P0 1.571697 1_555
O148 Zn4 1.978688 1_555
O149 P1 1.571697 1_555
O149 Zn5 1.978688 1_555
O150 P2 1.571697 1_555
O150 Zn6 1.978688 1_555
O151 P3 1.571697 1_555
O151 Zn7 1.978688 1_555
O152 P0 1.544553 1_555
O153 P1 1.544553 1_555
O154 P2 1.544553 1_555
O155 P3 1.544553 1_555
O156 P12 1.544568 1_555
O157 P13 1.544568 1_555
O158 P14 1.544568 1_555
O159 P15 1.544568 1_555
O160 P24 1.549843 1_555
O161 P25 1.549843 1_555
O162 P26 1.549843 1_555
O163 P27 1.549843 1_555
O164 P12 1.534253 1_555
O164 Zn0 1.933884 1_555
O165 P13 1.534253 1_555
O165 Zn1 1.933884 1_556
O166 P14 1.534253 1_555
O166 Zn2 1.933884 1_555
O167 P15 1.534253 1_555
O167 Zn3 1.933884 1_554
O168 P4 1.544755 1_555
O169 P5 1.544755 1_555
O170 P6 1.544755 1_555
O171 P7 1.544755 1_555
O172 P4 1.554437 1_555
O173 P5 1.554437 1_555
O174 P6 1.554437 1_555
O175 P7 1.554437 1_555
O176 P16 1.546335 1_555
O177 P17 1.546335 1_555
O178 P18 1.546335 1_555
O179 P19 1.546335 1_555
O180 P24 1.541367 1_555
O180 Zn4 1.942237 1_555
O181 P25 1.541367 1_555
O181 Zn5 1.942237 1_554
O182 P26 1.541367 1_555
O182 Zn6 1.942237 1_555
O183 P27 1.541367 1_555
O183 Zn7 1.942237 1_556
O184 P20 1.515135 1_555
O184 Zn12 1.958885 1_554
O185 P21 1.515135 1_655
O185 Zn13 1.958885 1_555
O186 P22 1.515135 1_555
O186 Zn14 1.958885 1_556
O187 P23 1.515135 1_455
O187 Zn15 1.958885 1_555
O188 P16 1.550996 1_555
O188 Zn12 2.236935 1_555
O189 P17 1.550996 1_555
O189 Zn13 2.236935 1_555
O190 P18 1.550996 1_555
O190 Zn14 2.236935 1_555
O191 P19 1.550996 1_555
O191 Zn15 2.236935 1_555
