# generated using pymatgen
data_Nb2Co12P7
_symmetry_space_group_name_H-M   'P 1'
_cell_length_a   8.81150073
_cell_length_b   8.81150141
_cell_length_c   3.50221273
_cell_angle_alpha   89.99999956
_cell_angle_beta   90.00000145
_cell_angle_gamma   120.00197402
_symmetry_Int_Tables_number   1
_chemical_formula_structural   Nb2Co12P7
_chemical_formula_sum   'Nb2 Co12 P7'
_cell_volume   235.48557652
_cell_formula_units_Z   1
loop_
 _symmetry_equiv_pos_site_id
 _symmetry_equiv_pos_as_xyz
  1  'x, y, z'
loop_
 _atom_site_type_symbol
 _atom_site_label
 _atom_site_symmetry_multiplicity
 _atom_site_fract_x
 _atom_site_fract_y
 _atom_site_fract_z
 _atom_site_occupancy
  Nb  Nb0  1  0.66674859  0.33331667  0.50000002  1
  Nb  Nb1  1  0.33325559  0.66664698  -0.00000006  1
  Co  Co0  1  0.12036868  0.84299652  0.00000000  1
  Co  Co1  1  0.38735437  0.43863239  0.50000003  1
  Co  Co2  1  0.72263871  0.87963405  -0.00000005  1
  Co  Co3  1  0.56139342  0.94874350  0.49999998  1
  Co  Co4  1  0.22707267  0.09809325  0.50000001  1
  Co  Co5  1  0.87103256  0.77293088  0.50000007  1
  Co  Co6  1  0.90185936  0.12899917  0.49999999  1
  Co  Co7  1  0.93531279  0.36930033  -0.00000002  1
  Co  Co8  1  0.63072064  0.56600943  -0.00000003  1
  Co  Co9  1  0.43400722  0.06470740  0.00000008  1
  Co  Co10  1  0.05122503  0.61263803  0.49999997  1
  Co  Co11  1  0.15698573  0.27735622  0.00000007  1
  P  P0  1  -0.00000747  -0.00001629  -0.00000007  1
  P  P1  1  0.59012786  0.71045822  0.49999995  1
  P  P2  1  0.70330628  0.11737306  -0.00000001  1
  P  P3  1  0.88261554  0.58591044  0.00000000  1
  P  P4  1  0.41410650  0.29672495  0.00000001  1
  P  P5  1  0.28956717  0.87967240  0.50000000  1
  P  P6  1  0.12030677  0.40987141  0.50000004  1
loop_
_geom_bond_atom_site_label_1
_geom_bond_atom_site_label_2
_geom_bond_distance
_geom_bond_site_symmetry_2
Nb0 P2 2.720977 1_556
Nb0 P2 2.720977 1_555
Nb0 P3 2.721110 1_556
Nb0 P3 2.721110 1_555
Nb0 P4 2.721817 1_555
Nb0 P4 2.721817 1_556
Nb1 P5 2.731413 1_554
Nb1 P5 2.731413 1_555
Nb1 P6 2.731438 1_554
Nb1 P6 2.731438 1_555
Nb1 P1 2.732158 1_555
Nb1 P1 2.732158 1_554
Co0 P0 2.122713 1_565
Co0 P3 2.185059 1_455
Co0 P5 2.216243 1_555
Co0 P5 2.216243 1_554
Co1 P1 2.156281 1_555
Co1 P4 2.231649 1_556
Co1 P4 2.231649 1_555
Co1 P6 2.237160 1_555
Co2 P0 2.122598 1_665
Co2 P2 2.185002 1_565
Co2 P1 2.216125 1_554
Co2 P1 2.216125 1_555
Co3 P5 2.156278 1_555
Co3 P2 2.231529 1_565
Co3 P2 2.231529 1_566
Co3 P1 2.237027 1_555
Co4 P5 2.251061 1_545
Co4 P4 2.441543 1_556
Co4 P4 2.441543 1_555
Co4 P0 2.467287 1_556
Co4 P0 2.467288 1_555
Co5 P1 2.250996 1_555
Co5 P3 2.441448 1_556
Co5 P3 2.441449 1_555
Co5 P0 2.467136 1_666
Co5 P0 2.467137 1_665
Co6 P6 2.250800 1_655
Co6 P2 2.441015 1_555
Co6 P2 2.441015 1_556
Co6 P0 2.467693 1_656
Co6 P0 2.467693 1_655
Co7 P2 2.137441 1_555
Co7 P3 2.178284 1_555
Co7 P6 2.295331 1_654
Co7 P6 2.295331 1_655
Co7 Nb0 2.831366 1_554
Co7 Nb0 2.831366 1_555
Co8 P3 2.137290 1_555
Co8 P4 2.178090 1_555
Co8 P1 2.295571 1_555
Co8 P1 2.295571 1_554
Co8 Nb0 2.832337 1_554
Co8 Nb0 2.832337 1_555
Co9 P4 2.137507 1_555
Co9 P2 2.178277 1_555
Co9 P5 2.295498 1_545
Co9 P5 2.295498 1_544
Co9 Nb0 2.831945 1_555
Co9 Nb0 2.831945 1_554
Co10 P6 2.156477 1_555
Co10 P3 2.231419 1_455
Co10 P3 2.231419 1_456
Co10 P5 2.237236 1_555
Co11 P0 2.122716 1_555
Co11 P4 2.185285 1_555
Co11 P6 2.216226 1_555
Co11 P6 2.216227 1_554
