# generated using pymatgen
data_Rb2TlAuCl6
_symmetry_space_group_name_H-M   'P 1'
_cell_length_a   7.45008772
_cell_length_b   7.45008772
_cell_length_c   7.45008772
_cell_angle_alpha   60.00000000
_cell_angle_beta   60.00000000
_cell_angle_gamma   60.00000000
_symmetry_Int_Tables_number   1
_chemical_formula_structural   Rb2TlAuCl6
_chemical_formula_sum   'Rb2 Tl1 Au1 Cl6'
_cell_volume   292.39447482
_cell_formula_units_Z   1
loop_
 _symmetry_equiv_pos_site_id
 _symmetry_equiv_pos_as_xyz
  1  'x, y, z'
loop_
 _atom_site_type_symbol
 _atom_site_label
 _atom_site_symmetry_multiplicity
 _atom_site_fract_x
 _atom_site_fract_y
 _atom_site_fract_z
 _atom_site_occupancy
  Rb  Rb0  1  0.75000000  0.75000000  0.75000000  1
  Rb  Rb1  1  0.25000000  0.25000000  0.25000000  1
  Tl  Tl0  1  0.00000000  -0.00000000  0.00000000  1
  Au  Au0  1  0.50000000  0.50000000  0.50000000  1
  Cl  Cl0  1  0.74538802  0.25461098  0.25461098  1
  Cl  Cl1  1  0.25461198  0.25461198  0.74538802  1
  Cl  Cl2  1  0.25461198  0.74538802  0.74538802  1
  Cl  Cl3  1  0.25461198  0.74538802  0.25461198  1
  Cl  Cl4  1  0.74538902  0.25461098  0.74538802  1
  Cl  Cl5  1  0.74538902  0.74538802  0.25461098  1
loop_
_geom_bond_atom_site_label_1
_geom_bond_atom_site_label_2
_geom_bond_distance
_geom_bond_site_symmetry_2
Au0 Cl3 2.585412 1_555
Au0 Cl1 2.585412 1_555
Au0 Cl2 2.585412 1_555
Au0 Cl5 2.585417 1_555
Au0 Cl4 2.585417 1_555
Au0 Cl0 2.585422 1_555
Cl0 Tl0 2.682585 1_655
Cl0 Rb1 3.725353 1_555
Cl0 Rb0 3.725361 1_545
Cl0 Rb0 3.725361 1_554
Cl0 Rb1 3.725368 1_655
Cl1 Tl0 2.682596 1_556
Cl1 Rb1 3.725361 1_556
Cl1 Rb0 3.725361 1_455
Cl1 Rb0 3.725361 1_545
Cl1 Rb1 3.725361 1_555
Cl2 Tl0 2.682596 1_566
Cl2 Rb1 3.725361 1_565
Cl2 Rb0 3.725361 1_455
Cl2 Rb0 3.725361 1_555
Cl2 Rb1 3.725361 1_556
Cl3 Tl0 2.682596 1_565
Cl3 Rb1 3.725361 1_565
Cl3 Rb0 3.725361 1_455
Cl3 Rb0 3.725361 1_554
Cl3 Rb1 3.725361 1_555
Cl4 Tl0 2.682590 1_656
Cl4 Rb1 3.725357 1_655
Cl4 Rb0 3.725357 1_545
Cl4 Rb0 3.725364 1_555
Cl4 Rb1 3.725364 1_556
Cl5 Tl0 2.682590 1_665
Cl5 Rb1 3.725357 1_655
Cl5 Rb0 3.725357 1_554
Cl5 Rb0 3.725364 1_555
Cl5 Rb1 3.725364 1_565
