# generated using pymatgen
data_Li3Tm
_symmetry_space_group_name_H-M   'P 1'
_cell_length_a   6.47455466
_cell_length_b   6.47455466
_cell_length_c   5.01537100
_cell_angle_alpha   90.00000000
_cell_angle_beta   90.00000000
_cell_angle_gamma   120.00000671
_symmetry_Int_Tables_number   1
_chemical_formula_structural   Li3Tm
_chemical_formula_sum   'Li6 Tm2'
_cell_volume   182.07632103
_cell_formula_units_Z   2
loop_
 _symmetry_equiv_pos_site_id
 _symmetry_equiv_pos_as_xyz
  1  'x, y, z'
loop_
 _atom_site_type_symbol
 _atom_site_label
 _atom_site_symmetry_multiplicity
 _atom_site_fract_x
 _atom_site_fract_y
 _atom_site_fract_z
 _atom_site_occupancy
  Li  Li0  1  0.15399300  0.30798500  0.25000000  1
  Li  Li1  1  0.69201500  0.84600700  0.25000000  1
  Li  Li2  1  0.15399300  0.84600700  0.25000000  1
  Li  Li3  1  0.84600700  0.69201500  0.75000000  1
  Li  Li4  1  0.30798500  0.15399300  0.75000000  1
  Li  Li5  1  0.84600700  0.15399300  0.75000000  1
  Tm  Tm0  1  0.33333300  0.66666700  0.75000000  1
  Tm  Tm1  1  0.66666700  0.33333300  0.25000000  1
loop_
_geom_bond_atom_site_label_1
_geom_bond_atom_site_label_2
_geom_bond_distance
_geom_bond_site_symmetry_2
Li0 Li1 2.991102 1_445
Li0 Li2 2.991102 1_545
Li0 Li4 3.044781 1_554
Li0 Li4 3.044781 1_555
Li0 Li5 3.044787 1_455
Li0 Li5 3.044787 1_454
Li0 Tm0 3.214548 1_554
Li0 Tm0 3.214548 1_555
Li0 Tm1 3.240396 1_555
Li0 Tm1 3.240396 1_455
Li1 Li2 2.991102 1_655
Li1 Li3 3.044781 1_554
Li1 Li3 3.044781 1_555
Li1 Li5 3.044787 1_565
Li1 Li5 3.044787 1_564
Li1 Tm0 3.214548 1_555
Li1 Tm0 3.214548 1_554
Li1 Tm1 3.240396 1_555
Li1 Tm1 3.240396 1_565
Li2 Li3 3.044787 1_455
Li2 Li3 3.044787 1_454
Li2 Li4 3.044787 1_564
Li2 Li4 3.044787 1_565
Li2 Tm0 3.214541 1_555
Li2 Tm0 3.214541 1_554
Li2 Tm1 3.240396 1_455
Li2 Tm1 3.240396 1_565
Li3 Li4 2.991102 1_665
Li3 Li5 2.991102 1_565
Li3 Tm1 3.214548 1_555
Li3 Tm1 3.214548 1_556
Li3 Tm0 3.240396 1_555
Li3 Tm0 3.240396 1_655
Li4 Li5 2.991102 1_455
Li4 Tm1 3.214548 1_556
Li4 Tm1 3.214548 1_555
Li4 Tm0 3.240396 1_555
Li4 Tm0 3.240396 1_545
Li5 Tm1 3.214541 1_556
Li5 Tm1 3.214541 1_555
Li5 Tm0 3.240396 1_545
Li5 Tm0 3.240396 1_655
