# generated using pymatgen
data_Na4NiO4
_symmetry_space_group_name_H-M   'P 1'
_cell_length_a   10.05483811
_cell_length_b   6.05751963
_cell_length_c   17.53723129
_cell_angle_alpha   90.08837090
_cell_angle_beta   92.61369192
_cell_angle_gamma   89.78003277
_symmetry_Int_Tables_number   1
_chemical_formula_structural   Na4NiO4
_chemical_formula_sum   'Na32 Ni8 O32'
_cell_volume   1067.02674271
_cell_formula_units_Z   8
loop_
 _symmetry_equiv_pos_site_id
 _symmetry_equiv_pos_as_xyz
  1  'x, y, z'
loop_
 _atom_site_type_symbol
 _atom_site_label
 _atom_site_symmetry_multiplicity
 _atom_site_fract_x
 _atom_site_fract_y
 _atom_site_fract_z
 _atom_site_occupancy
  Na  Na0  1  0.13800000  0.17816800  0.86315700  1
  Na  Na1  1  0.14796400  0.33340200  0.36201900  1
  Na  Na2  1  0.20454300  0.64400900  0.14017000  1
  Na  Na3  1  0.27053600  0.51586200  0.61192800  1
  Na  Na4  1  0.25743200  0.56343500  0.79240900  1
  Na  Na5  1  0.26121200  0.94009300  0.29210300  1
  Na  Na6  1  0.31712100  0.06301800  0.49995700  1
  Na  Na7  1  0.32859900  0.40845800  0.00213300  1
  Na  Na8  1  0.39127100  0.34269300  0.23836000  1
  Na  Na9  1  0.37372200  0.11941300  0.74176300  1
  Na  Na10  1  0.36885500  0.88147500  0.91967300  1
  Na  Na11  1  0.38509500  0.60622100  0.41401600  1
  Na  Na12  1  0.54983500  0.06508000  0.05777500  1
  Na  Na13  1  0.56371900  0.42882900  0.55717000  1
  Na  Na14  1  0.59148500  0.61522900  0.75365900  1
  Na  Na15  1  0.59498400  0.87620200  0.25516700  1
  Na  Na16  1  0.65238900  0.59075200  0.00280300  1
  Na  Na17  1  0.66408900  0.90277100  0.50505500  1
  Na  Na18  1  0.68658200  0.09525900  0.68200400  1
  Na  Na19  1  0.69157000  0.39729700  0.18034600  1
  Na  Na20  1  0.69946300  0.54941600  0.36815800  1
  Na  Na21  1  0.68975600  0.94130500  0.86838700  1
  Na  Na22  1  0.80437500  0.08573300  0.36473600  1
  Na  Na23  1  0.79788400  0.40880300  0.86189300  1
  Na  Na24  1  0.84215100  0.58658600  0.67331600  1
  Na  Na25  1  0.84633400  0.92556600  0.17766300  1
  Na  Na26  1  0.88306700  0.39329500  0.50420500  1
  Na  Na27  1  0.87092400  0.09585200  0.00560200  1
  Na  Na28  1  0.96659400  0.01671700  0.74242000  1
  Na  Na29  1  0.95609300  0.45221700  0.24503600  1
  Na  Na30  1  0.01068000  0.90087800  0.54724500  1
  Na  Na31  1  0.96834600  0.58428300  0.05156800  1
  Ni  Ni0  1  0.07238800  0.17808300  0.13145500  1
  Ni  Ni1  1  0.05588200  0.30859300  0.63508900  1
  Ni  Ni2  1  0.47792500  0.66732900  0.12572100  1
  Ni  Ni3  1  0.46990100  0.83913700  0.62360100  1
  Ni  Ni4  1  0.53364000  0.15107800  0.37929800  1
  Ni  Ni5  1  0.52525000  0.33940500  0.87768100  1
  Ni  Ni6  1  0.96059300  0.69631300  0.37834200  1
  Ni  Ni7  1  0.95220200  0.80093100  0.87714800  1
  O  O0  1  0.04161500  0.89247800  0.11929000  1
  O  O1  1  0.04124900  0.60592400  0.62040500  1
  O  O2  1  0.15390200  0.26582000  0.22348400  1
  O  O3  1  0.14796100  0.26269100  0.72424200  1
  O  O4  1  0.13831000  0.34193300  0.05909800  1
  O  O5  1  0.13172900  0.21563300  0.55065800  1
  O  O6  1  0.12479300  0.77403900  0.86654900  1
  O  O7  1  0.13346800  0.73400700  0.37220900  1
  O  O8  1  0.35190300  0.24830600  0.87869900  1
  O  O9  1  0.35872800  0.23432600  0.37943300  1
  O  O10  1  0.39145400  0.77631600  0.04255000  1
  O  O11  1  0.40134600  0.71170700  0.53626900  1
  O  O12  1  0.38646600  0.73716400  0.70447800  1
  O  O13  1  0.39196500  0.73321900  0.21174500  1
  O  O14  1  0.48625300  0.37435200  0.11394500  1
  O  O15  1  0.46987200  0.13335400  0.61451900  1
  O  O16  1  0.53620100  0.64357600  0.88180300  1
  O  O17  1  0.55040500  0.84830400  0.38338000  1
  O  O18  1  0.60448800  0.24370300  0.78878800  1
  O  O19  1  0.61299900  0.24617700  0.28966200  1
  O  O20  1  0.64015900  0.22640000  0.95561900  1
  O  O21  1  0.65009400  0.26719700  0.45547100  1
  O  O22  1  0.64430700  0.73657300  0.62982300  1
  O  O23  1  0.64902600  0.77125100  0.12953500  1
  O  O24  1  0.88370200  0.20597100  0.63396000  1
  O  O25  1  0.89100700  0.28720800  0.13122600  1
  O  O26  1  0.86483100  0.78560600  0.45577100  1
  O  O27  1  0.85222400  0.71238800  0.95278500  1
  O  O28  1  0.84338900  0.72726100  0.79163200  1
  O  O29  1  0.85100200  0.76947100  0.29293100  1
  O  O30  1  0.93119900  0.39113100  0.37512900  1
  O  O31  1  0.92341900  0.10733100  0.87555300  1
loop_
_geom_bond_atom_site_label_1
_geom_bond_atom_site_label_2
_geom_bond_distance
_geom_bond_site_symmetry_2
Na0 O8 2.198582 1_555
Na0 O31 2.221868 1_455
Na0 O6 2.453087 1_545
Na0 O3 2.496731 1_555
Na1 O9 2.208218 1_555
Na1 O30 2.228257 1_455
Na1 O7 2.437261 1_555
Na1 O2 2.466516 1_555
Na2 O0 2.238579 1_555
Na2 O13 2.282310 1_555
Na2 O4 2.393369 1_555
Na2 O10 2.722949 1_555
Na2 O2 2.780175 1_555
Na3 O11 2.252524 1_555
Na3 O12 2.371266 1_555
Na3 O1 2.378266 1_555
Na3 O5 2.507317 1_555
Na3 O3 2.827674 1_555
Na4 O6 2.288380 1_555
Na4 O12 2.316612 1_555
Na4 O3 2.418302 1_555
Na4 O8 2.588459 1_555
Na5 O7 2.316050 1_555
Na5 O13 2.331456 1_555
Na5 O9 2.520254 1_565
Na5 O2 2.525474 1_565
Na6 O5 2.292478 1_555
Na6 O11 2.364861 1_545
Na6 O9 2.410422 1_555
Na6 O15 2.509564 1_555
Na7 O4 2.236674 1_555
Na7 O8 2.391645 1_554
Na7 O10 2.415007 1_555
Na7 O14 2.473007 1_555
Na8 O13 2.412030 1_555
Na8 O14 2.429458 1_555
Na8 O19 2.435229 1_555
Na8 O2 2.435701 1_555
Na8 O9 2.596015 1_555
Na9 O12 2.409589 1_545
Na9 O3 2.433643 1_555
Na9 O15 2.473737 1_555
Na9 O8 2.542791 1_555
Na9 O18 2.543185 1_555
Na10 O10 2.249347 1_556
Na10 O16 2.330107 1_555
Na10 O8 2.339639 1_565
Na10 O6 2.667492 1_555
Na11 O11 2.235234 1_555
Na11 O17 2.303137 1_555
Na11 O9 2.344943 1_555
Na11 O7 2.712104 1_555
Na12 O14 2.220658 1_555
Na12 O20 2.269346 1_554
Na12 O23 2.371754 1_545
Na12 O10 2.376590 1_545
Na13 O21 2.241245 1_555
Na13 O15 2.282664 1_555
Na13 O11 2.379484 1_555
Na13 O22 2.380173 1_555
Na14 O12 2.316698 1_555
Na14 O18 2.335844 1_555
Na14 O16 2.345379 1_555
Na14 O22 2.377383 1_555
Na14 O28 2.679056 1_555
Na15 O13 2.316640 1_555
Na15 O17 2.319246 1_555
Na15 O19 2.326022 1_565
Na15 O23 2.378215 1_555
Na15 O29 2.704859 1_555
Na16 O27 2.350269 1_554
Na16 O20 2.357576 1_554
Na16 O16 2.396504 1_554
Na16 O23 2.476958 1_555
Na17 O26 2.339019 1_555
Na17 O21 2.375175 1_565
Na17 O17 2.397296 1_555
Na17 O22 2.426695 1_555
Na18 O18 2.264287 1_555
Na18 O24 2.291786 1_555
Na18 O22 2.388393 1_545
Na18 O15 2.442064 1_555
Na19 O19 2.299235 1_555
Na19 O25 2.313770 1_555
Na19 O14 2.328019 1_555
Na19 O23 2.464209 1_555
Na20 O21 2.365911 1_555
Na20 O17 2.368475 1_555
Na20 O19 2.433163 1_555
Na20 O29 2.458324 1_555
Na20 O30 2.514103 1_555
Na20 O26 2.636472 1_555
Na21 O20 2.371970 1_565
Na21 O16 2.397422 1_555
Na21 O18 2.434302 1_565
Na21 O28 2.459301 1_555
Na21 O31 2.556941 1_565
Na21 O27 2.559414 1_555
Na22 O30 2.253342 1_555
Na22 O29 2.348445 1_545
Na22 O26 2.476995 1_545
Na22 O19 2.477755 1_555
Na22 O21 2.520599 1_555
Na23 O31 2.222971 1_555
Na23 O28 2.348286 1_555
Na23 O27 2.477985 1_555
Na23 O18 2.491748 1_555
Na23 O20 2.587360 1_555
Na24 O28 2.241412 1_555
Na24 O1 2.248087 1_655
Na24 O22 2.283504 1_555
Na24 O24 2.445531 1_555
Na25 O29 2.231492 1_555
Na25 O0 2.263451 1_655
Na25 O23 2.319725 1_555
Na25 O25 2.389635 1_565
Na26 O30 2.336281 1_555
Na26 O26 2.528083 1_555
Na26 O24 2.544073 1_555
Na26 O21 2.574949 1_555
Na26 O5 2.805247 1_655
Na26 O1 2.837850 1_655
Na27 O31 2.365500 1_554
Na27 O25 2.488247 1_555
Na27 O27 2.503945 1_544
Na27 O20 2.565168 1_554
Na27 O0 2.849149 1_645
Na28 O28 2.339380 1_545
Na28 O24 2.341295 1_555
Na28 O3 2.392202 1_655
Na28 O31 2.455121 1_555
Na29 O25 2.300168 1_555
Na29 O2 2.328863 1_655
Na29 O30 2.336682 1_555
Na29 O29 2.361282 1_555
Na30 O1 2.213543 1_555
Na30 O26 2.236396 1_455
Na30 O5 2.265185 1_565
Na30 O24 2.740168 1_465
Na31 O27 2.186159 1_554
Na31 O4 2.248083 1_655
Na31 O0 2.315706 1_655
Na31 O25 2.431497 1_555
Ni0 O4 1.766441 1_555
Ni0 O0 1.769549 1_545
Ni0 O2 1.854470 1_555
Ni0 O25 1.937303 1_455
Ni1 O5 1.785565 1_555
Ni1 O3 1.801765 1_555
Ni1 O1 1.824232 1_555
Ni1 O24 1.840956 1_455
Ni2 O14 1.788457 1_555
Ni2 O10 1.789464 1_555
Ni2 O13 1.815682 1_555
Ni2 O23 1.832539 1_555
Ni3 O15 1.789570 1_565
Ni3 O12 1.792289 1_555
Ni3 O11 1.822313 1_555
Ni3 O22 1.856741 1_555
Ni4 O9 1.827822 1_555
Ni4 O17 1.842348 1_545
Ni4 O21 1.873800 1_555
Ni4 O19 1.886893 1_555
Ni5 O8 1.831136 1_555
Ni5 O16 1.847338 1_555
Ni5 O18 1.872985 1_555
Ni5 O20 1.877361 1_555
Ni6 O7 1.762192 1_655
Ni6 O26 1.782284 1_555
Ni6 O29 1.871363 1_555
Ni6 O30 1.873599 1_555
Ni7 O6 1.760615 1_655
Ni7 O27 1.784847 1_555
Ni7 O28 1.870126 1_555
Ni7 O31 1.877408 1_565
