# generated using pymatgen
data_EuBr2
_symmetry_space_group_name_H-M   'P 1'
_cell_length_a   7.08028891
_cell_length_b   7.08028891
_cell_length_c   4.58696402
_cell_angle_alpha   90.00000000
_cell_angle_beta   90.00000000
_cell_angle_gamma   90.00000000
_symmetry_Int_Tables_number   1
_chemical_formula_structural   EuBr2
_chemical_formula_sum   'Eu2 Br4'
_cell_volume   229.94675875
_cell_formula_units_Z   2
loop_
 _symmetry_equiv_pos_site_id
 _symmetry_equiv_pos_as_xyz
  1  'x, y, z'
loop_
 _atom_site_type_symbol
 _atom_site_label
 _atom_site_symmetry_multiplicity
 _atom_site_fract_x
 _atom_site_fract_y
 _atom_site_fract_z
 _atom_site_occupancy
  Eu  Eu0  1  0.00000000  -0.00000000  -0.00000000  1
  Eu  Eu1  1  0.50000000  0.50000000  0.50000000  1
  Br  Br0  1  0.30239033  0.30239033  -0.00000000  1
  Br  Br1  1  0.69760967  0.69760967  0.00000000  1
  Br  Br2  1  0.19760967  0.80239033  0.50000000  1
  Br  Br3  1  0.80239033  0.19760967  0.50000000  1
loop_
_geom_bond_atom_site_label_1
_geom_bond_atom_site_label_2
_geom_bond_distance
_geom_bond_site_symmetry_2
Br0 Eu0 3.027847 1_555
Br0 Eu1 3.029061 1_555
Br0 Eu1 3.029061 1_554
Br1 Eu0 3.027847 1_665
Br1 Eu1 3.029061 1_554
Br1 Eu1 3.029061 1_555
Br2 Eu1 3.027847 1_555
Br2 Eu0 3.029061 1_565
Br2 Eu0 3.029061 1_566
Br3 Eu1 3.027847 1_555
Br3 Eu0 3.029061 1_655
Br3 Eu0 3.029061 1_656
