# generated using pymatgen
data_SbN
_symmetry_space_group_name_H-M   'P 1'
_cell_length_a   16.95682632
_cell_length_b   15.76893098
_cell_length_c   15.27458912
_cell_angle_alpha   90.40357866
_cell_angle_beta   87.53660310
_cell_angle_gamma   88.24261192
_symmetry_Int_Tables_number   1
_chemical_formula_structural   SbN
_chemical_formula_sum   'Sb50 N50'
_cell_volume   4078.45138605
_cell_formula_units_Z   50
loop_
 _symmetry_equiv_pos_site_id
 _symmetry_equiv_pos_as_xyz
  1  'x, y, z'
loop_
 _atom_site_type_symbol
 _atom_site_label
 _atom_site_symmetry_multiplicity
 _atom_site_fract_x
 _atom_site_fract_y
 _atom_site_fract_z
 _atom_site_occupancy
  Sb  Sb0  1  0.15008224  0.78473972  0.34594049  1
  Sb  Sb1  1  0.55748537  0.05810507  0.49707306  1
  Sb  Sb2  1  0.43728224  0.19779346  0.48110971  1
  Sb  Sb3  1  0.36715779  0.43341451  0.20371232  1
  Sb  Sb4  1  0.87589743  0.77991430  0.41303691  1
  Sb  Sb5  1  0.02790772  0.83358513  0.47461065  1
  Sb  Sb6  1  0.33251871  0.53138935  0.37031132  1
  Sb  Sb7  1  0.76910224  0.22704857  0.55752195  1
  Sb  Sb8  1  0.53710966  0.38905356  0.21019952  1
  Sb  Sb9  1  0.95391151  0.37291799  0.37442227  1
  Sb  Sb10  1  0.61778459  0.52991014  0.71683344  1
  Sb  Sb11  1  0.86429981  0.46091360  0.16458271  1
  Sb  Sb12  1  0.70879322  0.57689970  0.97163398  1
  Sb  Sb13  1  0.70803390  0.67916520  0.58104375  1
  Sb  Sb14  1  0.47338815  0.74161216  0.63715351  1
  Sb  Sb15  1  0.85817216  0.52519782  0.34834698  1
  Sb  Sb16  1  0.67968941  0.52925396  0.15978645  1
  Sb  Sb17  1  0.24878651  0.39049953  0.45805936  1
  Sb  Sb18  1  0.22159654  0.67556324  0.47689379  1
  Sb  Sb19  1  0.36892290  0.55978619  0.57569838  1
  Sb  Sb20  1  0.60432315  0.73013809  0.80372332  1
  Sb  Sb21  1  0.03935766  0.59275862  0.36696747  1
  Sb  Sb22  1  0.30445320  0.39948308  0.63444641  1
  Sb  Sb23  1  0.04025388  0.55832768  0.11182319  1
  Sb  Sb24  1  0.88654569  0.95685815  0.54847127  1
  Sb  Sb25  1  0.65209679  0.90079988  0.71114760  1
  Sb  Sb26  1  0.76302376  0.46141447  0.78734911  1
  Sb  Sb27  1  0.50869433  0.97144532  0.64734069  1
  Sb  Sb28  1  0.75559317  0.04483959  0.40166497  1
  Sb  Sb29  1  0.18698980  0.45225766  0.13184426  1
  Sb  Sb30  1  0.93029553  0.69308668  0.56828094  1
  Sb  Sb31  1  0.57851222  0.30475336  0.60444408  1
  Sb  Sb32  1  0.75354089  0.06100807  0.63856328  1
  Sb  Sb33  1  0.41378433  0.25536388  0.65831155  1
  Sb  Sb34  1  0.72364118  0.41191170  0.33437109  1
  Sb  Sb35  1  0.43649625  0.61999125  0.79595049  1
  Sb  Sb36  1  0.46924195  0.40212396  0.45035762  1
  Sb  Sb37  1  0.09356437  0.61641741  0.59753774  1
  Sb  Sb38  1  0.80665176  0.48662767  0.59559950  1
  Sb  Sb39  1  0.71231153  0.29672466  0.76229050  1
  Sb  Sb40  1  0.55980561  0.51959072  0.95113580  1
  Sb  Sb41  1  0.47920492  0.60378644  0.12752571  1
  Sb  Sb42  1  0.62499166  0.26391522  0.37298848  1
  Sb  Sb43  1  0.65201574  0.50276135  0.50364127  1
  Sb  Sb44  1  0.84774089  0.29721244  0.24742773  1
  Sb  Sb45  1  0.89439083  0.16488036  0.43791270  1
  Sb  Sb46  1  0.19616756  0.61275705  0.22828193  1
  Sb  Sb47  1  0.68640751  0.88006530  0.52446389  1
  Sb  Sb48  1  0.09216954  0.45842377  0.50510636  1
  Sb  Sb49  1  0.04850053  0.35561542  0.20621010  1
  N  N0  1  0.94780668  0.07714896  0.12255406  1
  N  N1  1  0.96504697  0.98534241  0.85450191  1
  N  N2  1  0.55918020  0.51933914  0.18500134  1
  N  N3  1  0.43046918  0.53276153  0.45361899  1
  N  N4  1  0.81751894  0.11754684  0.95671487  1
  N  N5  1  0.52750483  0.88574603  0.17916044  1
  N  N6  1  0.43980128  0.83297405  0.38030037  1
  N  N7  1  0.05632065  0.76468474  0.79695404  1
  N  N8  1  0.00193672  0.05859759  0.08226569  1
  N  N9  1  0.32789907  0.23483370  0.02495432  1
  N  N10  1  0.50147454  0.98321330  0.90120984  1
  N  N11  1  0.30349141  0.74605437  0.69328741  1
  N  N12  1  0.04225190  0.32844869  0.94092340  1
  N  N13  1  0.00873422  0.95839488  0.89993944  1
  N  N14  1  0.98401931  0.44622979  0.14001349  1
  N  N15  1  0.44584243  0.01995938  0.91864043  1
  N  N16  1  0.79603341  0.16245565  0.00963515  1
  N  N17  1  0.19414282  0.21435919  0.73246334  1
  N  N18  1  0.81606762  0.61656375  0.59080885  1
  N  N19  1  0.04730850  0.14519876  0.29033540  1
  N  N20  1  0.76959055  0.17585794  0.42055794  1
  N  N21  1  0.63825546  0.73739887  0.31660362  1
  N  N22  1  0.66882283  0.69505310  0.26197869  1
  N  N23  1  0.41939018  0.76756999  0.39291689  1
  N  N24  1  0.87229449  0.03509011  0.44214202  1
  N  N25  1  0.24747914  0.76309078  0.02250597  1
  N  N26  1  0.15520128  0.64748050  0.36655492  1
  N  N27  1  0.56423401  0.22395726  0.49046960  1
  N  N28  1  0.08631063  0.77188867  0.85986779  1
  N  N29  1  0.18711373  0.24621517  0.79772033  1
  N  N30  1  0.34705113  0.77762588  0.63783860  1
  N  N31  1  0.64878715  0.65529078  0.69816988  1
  N  N32  1  0.93037795  0.65985126  0.91951741  1
  N  N33  1  0.97973778  0.30908118  0.94762508  1
  N  N34  1  0.46984539  0.86381943  0.15690454  1
  N  N35  1  0.25974928  0.71579063  0.74386213  1
  N  N36  1  0.81174546  0.86816417  0.49741203  1
  N  N37  1  0.07186780  0.60064747  0.23485892  1
  N  N38  1  0.87747004  0.69092376  0.89148188  1
  N  N39  1  0.18895273  0.74740384  0.05299685  1
  N  N40  1  0.55271602  0.58550019  0.83016884  1
  N  N41  1  0.69793139  0.01915610  0.52443040  1
  N  N42  1  0.37732199  0.54857587  0.14645392  1
  N  N43  1  0.45219218  0.61008545  0.65768644  1
  N  N44  1  0.48411405  0.73950830  0.77129245  1
  N  N45  1  0.54629365  0.37142711  0.34408452  1
  N  N46  1  0.08808967  0.08846431  0.29212225  1
  N  N47  1  0.55985730  0.41809955  0.53830316  1
  N  N48  1  0.27933355  0.20630159  0.98909004  1
  N  N49  1  0.70492520  0.65578658  0.20306451  1
loop_
_geom_bond_atom_site_label_1
_geom_bond_atom_site_label_2
_geom_bond_distance
_geom_bond_site_symmetry_2
Sb0 Sb5 2.877274 1_555
Sb1 Sb27 2.787559 1_545
Sb2 Sb33 2.856491 1_555
Sb4 Sb5 2.928466 1_655
Sb10 Sb26 2.910908 1_555
Sb11 Sb44 2.898906 1_555
Sb11 Sb15 2.974151 1_555
Sb12 Sb40 2.738837 1_555
Sb12 Sb16 2.999812 1_556
Sb12 Sb26 3.418777 1_555
Sb15 Sb9 2.896606 1_555
Sb15 Sb34 2.954183 1_555
Sb15 Sb21 3.305558 1_655
Sb16 Sb34 3.353565 1_555
Sb17 Sb48 2.892607 1_555
Sb17 Sb22 2.896799 1_555
Sb17 Sb6 2.969861 1_555
Sb18 Sb37 2.963705 1_555
Sb19 Sb22 2.916722 1_555
Sb20 Sb25 3.160215 1_555
Sb21 Sb48 3.138540 1_555
Sb22 Sb33 2.923345 1_555
Sb23 Sb29 2.983207 1_555
Sb24 Sb5 3.201280 1_655
Sb25 Sb27 2.855993 1_555
Sb25 Sb47 2.899850 1_555
Sb25 Sb32 3.272995 1_565
Sb26 Sb39 2.789542 1_555
Sb26 Sb38 3.021918 1_555
Sb29 Sb46 2.931024 1_555
Sb29 Sb49 3.023569 1_555
Sb29 Sb3 3.296068 1_555
Sb30 Sb37 3.038873 1_655
Sb30 Sb5 3.124303 1_655
Sb31 Sb33 3.005124 1_555
Sb31 Sb39 3.381354 1_555
Sb34 Sb42 2.960832 1_555
Sb34 Sb44 2.992609 1_555
Sb34 Sb43 3.127873 1_555
Sb37 Sb48 2.856194 1_555
Sb39 Sb7 3.397817 1_555
Sb44 Sb9 2.971274 1_555
Sb48 Sb9 3.443421 1_455
Sb49 Sb9 2.976194 1_455
N0 N8 1.113199 1_655
N1 N13 1.113591 1_655
N2 Sb16 2.073951 1_555
N2 Sb41 2.095505 1_555
N2 Sb8 2.134231 1_555
N3 Sb19 2.131234 1_555
N3 Sb6 2.135857 1_555
N3 Sb36 2.142678 1_555
N10 N15 1.113217 1_565
N11 N35 1.162894 1_555
N11 N30 1.218807 1_555
N12 N33 1.112837 1_455
N14 Sb11 2.054279 1_555
N14 Sb49 2.068620 1_655
N14 Sb23 2.073194 1_655
N16 N4 1.112849 1_554
N17 N29 1.113178 1_555
N18 Sb38 2.061608 1_555
N18 Sb13 2.065736 1_555
N18 Sb30 2.327693 1_555
N19 N46 1.115055 1_555
N20 Sb28 2.106090 1_555
N20 Sb45 2.145929 1_555
N20 Sb7 2.236680 1_555
N21 N22 1.159514 1_555
N22 N49 1.220455 1_555
N23 N6 1.113362 1_555
N24 Sb24 2.064400 1_545
N24 Sb45 2.092885 1_555
N24 Sb28 2.099935 1_555
N25 N39 1.113530 1_555
N26 Sb18 2.118333 1_555
N26 Sb21 2.169391 1_555
N26 Sb0 2.189034 1_555
N26 Sb46 2.253316 1_555
N27 Sb42 2.139021 1_555
N27 Sb31 2.176363 1_555
N27 Sb2 2.214695 1_555
N27 Sb1 2.623777 1_555
N28 N7 1.113109 1_555
N30 Sb14 2.198938 1_555
N31 Sb13 2.056678 1_555
N31 Sb10 2.079769 1_555
N31 Sb20 2.091666 1_555
N32 N38 1.112367 1_555
N34 N5 1.112971 1_555
N36 Sb24 2.086052 1_555
N36 Sb4 2.131260 1_555
N36 Sb47 2.149873 1_555
N37 Sb21 2.074470 1_555
N37 Sb23 2.086968 1_555
N37 Sb46 2.120338 1_555
N40 Sb35 2.116492 1_555
N40 Sb40 2.132416 1_555
N40 Sb10 2.176650 1_555
N40 Sb20 2.497188 1_555
N41 Sb28 2.124561 1_555
N41 Sb32 2.127723 1_555
N41 Sb47 2.207963 1_545
N41 Sb1 2.494578 1_555
N42 Sb41 1.969532 1_555
N42 Sb3 2.030023 1_555
N43 Sb19 2.097105 1_555
N43 Sb35 2.121310 1_555
N43 Sb14 2.138776 1_555
N44 Sb14 2.065154 1_555
N44 Sb35 2.103081 1_555
N44 Sb20 2.119319 1_555
N45 Sb8 2.077600 1_555
N45 Sb36 2.084285 1_555
N45 Sb42 2.184572 1_555
N47 Sb31 2.081722 1_555
N47 Sb36 2.103662 1_555
N47 Sb43 2.138102 1_555
N48 N9 1.112988 1_556
N49 Sb16 2.158558 1_555
