# generated using pymatgen
data_La(Ga4Fe)2
_symmetry_space_group_name_H-M   'P 1'
_cell_length_a   4.02318500
_cell_length_b   12.59480900
_cell_length_c   14.27245700
_cell_angle_alpha   90.00000000
_cell_angle_beta   90.00000000
_cell_angle_gamma   90.00000000
_symmetry_Int_Tables_number   1
_chemical_formula_structural   La(Ga4Fe)2
_chemical_formula_sum   'La4 Ga32 Fe8'
_cell_volume   723.20318890
_cell_formula_units_Z   4
loop_
 _symmetry_equiv_pos_site_id
 _symmetry_equiv_pos_as_xyz
  1  'x, y, z'
loop_
 _atom_site_type_symbol
 _atom_site_label
 _atom_site_symmetry_multiplicity
 _atom_site_fract_x
 _atom_site_fract_y
 _atom_site_fract_z
 _atom_site_occupancy
  La  La0  1  0.00000000  0.84195500  0.18125700  1
  La  La1  1  0.00000000  0.15804500  0.81874300  1
  La  La2  1  0.00000000  0.65804500  0.68125700  1
  La  La3  1  0.00000000  0.34195500  0.31874300  1
  Ga  Ga0  1  0.00000000  0.50000000  0.50000000  1
  Ga  Ga1  1  0.00000000  0.00000000  0.00000000  1
  Ga  Ga2  1  0.50000000  0.00000000  0.50000000  1
  Ga  Ga3  1  0.50000000  0.50000000  0.00000000  1
  Ga  Ga4  1  0.50000000  0.73928500  0.32581100  1
  Ga  Ga5  1  0.50000000  0.26071500  0.67418900  1
  Ga  Ga6  1  0.50000000  0.76071500  0.82581100  1
  Ga  Ga7  1  0.50000000  0.23928500  0.17418900  1
  Ga  Ga8  1  0.50000000  0.95094100  0.31815600  1
  Ga  Ga9  1  0.50000000  0.04905900  0.68184400  1
  Ga  Ga10  1  0.50000000  0.54905900  0.81815600  1
  Ga  Ga11  1  0.50000000  0.45094100  0.18184400  1
  Ga  Ga12  1  0.50000000  0.66386700  0.12097700  1
  Ga  Ga13  1  0.50000000  0.33613300  0.87902300  1
  Ga  Ga14  1  0.50000000  0.83613300  0.62097700  1
  Ga  Ga15  1  0.50000000  0.16386700  0.37902300  1
  Ga  Ga16  1  0.00000000  0.83690000  0.45406100  1
  Ga  Ga17  1  0.00000000  0.16310000  0.54593900  1
  Ga  Ga18  1  0.00000000  0.66310000  0.95406100  1
  Ga  Ga19  1  0.00000000  0.33690000  0.04593900  1
  Ga  Ga20  1  0.00000000  0.59822800  0.24557400  1
  Ga  Ga21  1  0.00000000  0.40177200  0.75442600  1
  Ga  Ga22  1  0.00000000  0.90177200  0.74557400  1
  Ga  Ga23  1  0.00000000  0.09822800  0.25442600  1
  Ga  Ga24  1  0.50000000  0.83161600  0.01000500  1
  Ga  Ga25  1  0.50000000  0.16838400  0.98999500  1
  Ga  Ga26  1  0.50000000  0.66838400  0.51000500  1
  Ga  Ga27  1  0.50000000  0.33161600  0.48999500  1
  Ga  Ga28  1  0.50000000  0.52465100  0.36617000  1
  Ga  Ga29  1  0.50000000  0.47534900  0.63383000  1
  Ga  Ga30  1  0.50000000  0.97534900  0.86617000  1
  Ga  Ga31  1  0.50000000  0.02465100  0.13383000  1
  Fe  Fe0  1  0.00000000  0.65288600  0.40338500  1
  Fe  Fe1  1  0.00000000  0.34711400  0.59661500  1
  Fe  Fe2  1  0.00000000  0.84711400  0.90338500  1
  Fe  Fe3  1  0.00000000  0.15288600  0.09661500  1
  Fe  Fe4  1  0.00000000  0.53431300  0.09123800  1
  Fe  Fe5  1  0.00000000  0.46568700  0.90876200  1
  Fe  Fe6  1  0.00000000  0.96568700  0.59123800  1
  Fe  Fe7  1  0.00000000  0.03431300  0.40876200  1
loop_
_geom_bond_atom_site_label_1
_geom_bond_atom_site_label_2
_geom_bond_distance
_geom_bond_site_symmetry_2
Ga0 Ga28 2.791293 1_555
Ga0 Ga28 2.791293 1_455
Ga0 Ga29 2.791293 1_455
Ga0 Ga29 2.791293 1_555
Ga0 Ga26 2.926523 1_555
Ga0 Ga26 2.926523 1_455
Ga0 Ga27 2.926523 1_555
Ga0 Ga27 2.926523 1_455
Ga0 La3 3.264162 1_555
Ga0 La2 3.264162 1_555
Ga1 Ga31 2.791293 1_555
Ga1 Ga31 2.791293 1_455
Ga1 Ga30 2.791293 1_444
Ga1 Ga30 2.791293 1_544
Ga1 Ga25 2.926523 1_554
Ga1 Ga25 2.926523 1_454
Ga1 Ga24 2.926523 1_545
Ga1 Ga24 2.926523 1_445
Ga1 La0 3.264162 1_545
Ga1 La1 3.264162 1_554
Ga2 Ga9 2.667899 1_555
Ga2 Ga8 2.667899 1_545
Ga4 Ga8 2.668005 1_555
Ga4 La0 3.158352 1_555
Ga4 La0 3.158352 1_655
Ga5 Ga9 2.668005 1_555
Ga5 La1 3.158352 1_655
Ga5 La1 3.158352 1_555
Ga6 La2 3.158352 1_655
Ga6 La2 3.158352 1_555
Ga7 La3 3.158352 1_555
Ga7 La3 3.158352 1_655
Ga8 La0 3.122237 1_555
Ga8 La0 3.122237 1_655
Ga9 La1 3.122237 1_555
Ga9 La1 3.122237 1_655
Ga10 Ga3 2.667899 1_556
Ga10 Ga6 2.668005 1_555
Ga10 Ga29 2.789783 1_555
Ga10 Ga13 2.818958 1_555
Ga10 Ga21 2.883585 1_655
Ga10 Ga21 2.883585 1_555
Ga10 La2 3.122237 1_555
Ga10 La2 3.122237 1_655
Ga11 Ga3 2.667899 1_555
Ga11 Ga7 2.668005 1_555
Ga11 Ga28 2.789783 1_555
Ga11 Ga12 2.818958 1_555
Ga11 Ga20 2.883585 1_555
Ga11 Ga20 2.883585 1_655
Ga11 La3 3.122237 1_555
Ga11 La3 3.122237 1_655
Ga12 Ga24 2.640519 1_555
Ga12 Ga3 2.690884 1_555
Ga12 Ga20 2.809328 1_555
Ga12 Ga20 2.809328 1_655
Ga12 Ga4 3.073927 1_555
Ga12 Ga18 3.118005 1_554
Ga12 Ga18 3.118005 1_654
Ga12 La0 3.133317 1_555
Ga12 La0 3.133317 1_655
Ga13 Ga25 2.640519 1_555
Ga13 Ga3 2.690884 1_556
Ga13 Ga21 2.809328 1_555
Ga13 Ga21 2.809328 1_655
Ga13 Ga5 3.073927 1_555
Ga13 Ga19 3.118005 1_656
Ga13 Ga19 3.118005 1_556
Ga13 La1 3.133317 1_555
Ga13 La1 3.133317 1_655
Ga14 Ga26 2.640519 1_555
Ga14 Ga2 2.690884 1_565
Ga14 Ga22 2.809328 1_555
Ga14 Ga22 2.809328 1_655
Ga14 Ga9 2.818958 1_565
Ga14 Ga6 3.073927 1_555
Ga14 Ga16 3.118005 1_655
Ga14 Ga16 3.118005 1_555
Ga14 La2 3.133317 1_555
Ga14 La2 3.133317 1_655
Ga15 Ga27 2.640519 1_555
Ga15 Ga2 2.690884 1_555
Ga15 Ga23 2.809328 1_555
Ga15 Ga23 2.809328 1_655
Ga15 Ga8 2.818958 1_545
Ga15 Ga7 3.073927 1_555
Ga15 Ga17 3.118005 1_655
Ga15 Ga17 3.118005 1_555
Ga15 La3 3.133317 1_655
Ga15 La3 3.133317 1_555
Ga16 Ga2 2.948930 1_565
Ga16 Ga2 2.948930 1_465
Ga16 Ga4 2.984720 1_555
Ga16 Ga4 2.984720 1_455
Ga16 Ga26 3.031293 1_455
Ga16 Ga26 3.031293 1_555
Ga17 Ga2 2.948930 1_555
Ga17 Ga2 2.948930 1_455
Ga17 Ga5 2.984720 1_555
Ga17 Ga5 2.984720 1_455
Ga17 Ga27 3.031293 1_555
Ga17 Ga27 3.031293 1_455
Ga18 Ga3 2.948930 1_556
Ga18 Ga3 2.948930 1_456
Ga18 Ga6 2.984720 1_455
Ga18 Ga6 2.984720 1_555
Ga18 Ga24 3.031293 1_456
Ga18 Ga24 3.031293 1_556
Ga19 Ga3 2.948930 1_455
Ga19 Ga3 2.948930 1_555
Ga19 Ga7 2.984720 1_555
Ga19 Ga7 2.984720 1_455
Ga19 Ga25 3.031293 1_554
Ga19 Ga25 3.031293 1_454
Ga20 Ga28 2.804958 1_455
Ga20 Ga28 2.804958 1_555
Ga20 Ga4 2.917910 1_555
Ga20 Ga4 2.917910 1_455
Ga20 La0 3.204010 1_555
Ga20 La3 3.392444 1_555
Ga21 Ga29 2.804958 1_555
Ga21 Ga29 2.804958 1_455
Ga21 Ga5 2.917910 1_555
Ga21 Ga5 2.917910 1_455
Ga21 La1 3.204010 1_555
Ga21 La2 3.392444 1_555
Ga22 Ga30 2.804958 1_555
Ga22 Ga30 2.804958 1_455
Ga22 Ga9 2.883585 1_565
Ga22 Ga9 2.883585 1_465
Ga22 Ga6 2.917910 1_555
Ga22 Ga6 2.917910 1_455
Ga22 La2 3.204010 1_555
Ga22 La1 3.392444 1_565
Ga23 Ga31 2.804958 1_455
Ga23 Ga31 2.804958 1_555
Ga23 Ga8 2.883585 1_545
Ga23 Ga8 2.883585 1_445
Ga23 Ga7 2.917910 1_455
Ga23 Ga7 2.917910 1_555
Ga23 La3 3.204010 1_555
Ga23 La0 3.392444 1_545
Ga24 Ga30 2.737053 1_554
Ga24 Ga6 2.776426 1_554
Ga24 Ga31 3.005699 1_565
Ga24 La0 3.168203 1_555
Ga24 La0 3.168203 1_655
Ga25 Ga31 2.737053 1_556
Ga25 Ga7 2.776426 1_556
Ga25 Ga30 3.005699 1_545
Ga25 La1 3.168203 1_555
Ga25 La1 3.168203 1_655
Ga26 Ga28 2.737053 1_555
Ga26 Ga4 2.776426 1_555
Ga26 Ga29 3.005699 1_555
Ga26 La2 3.168203 1_555
Ga26 La2 3.168203 1_655
Ga27 Ga29 2.737053 1_555
Ga27 Ga5 2.776426 1_555
Ga27 Ga28 3.005699 1_555
Ga27 La3 3.168203 1_555
Ga27 La3 3.168203 1_655
Ga28 Ga4 2.763963 1_555
Ga28 La3 3.130399 1_555
Ga28 La3 3.130399 1_655
Ga29 Ga5 2.763963 1_555
Ga29 La2 3.130399 1_555
Ga29 La2 3.130399 1_655
Ga30 Ga6 2.763963 1_555
Ga30 Ga9 2.789783 1_565
Ga30 La1 3.130399 1_565
Ga30 La1 3.130399 1_665
Ga31 Ga7 2.763963 1_555
Ga31 Ga8 2.789783 1_545
Ga31 La0 3.130399 1_545
Ga31 La0 3.130399 1_645
Fe0 Ga20 2.355204 1_555
Fe0 Ga0 2.368391 1_555
Fe0 Ga16 2.427857 1_555
Fe0 Ga26 2.529875 1_455
Fe0 Ga26 2.529875 1_555
Fe0 Ga4 2.540958 1_555
Fe0 Ga4 2.540958 1_455
Fe0 Ga28 2.633848 1_555
Fe0 Ga28 2.633848 1_455
Fe1 Ga21 2.355204 1_555
Fe1 Ga0 2.368391 1_555
Fe1 Ga17 2.427857 1_555
Fe1 Ga27 2.529875 1_455
Fe1 Ga27 2.529875 1_555
Fe1 Ga5 2.540958 1_455
Fe1 Ga5 2.540958 1_555
Fe1 Ga29 2.633848 1_455
Fe1 Ga29 2.633848 1_555
Fe2 Ga22 2.355204 1_555
Fe2 Ga1 2.368391 1_566
Fe2 Ga18 2.427857 1_555
Fe2 Ga24 2.529875 1_556
Fe2 Ga24 2.529875 1_456
Fe2 Ga6 2.540958 1_455
Fe2 Ga6 2.540958 1_555
Fe2 Ga30 2.633848 1_555
Fe2 Ga30 2.633848 1_455
Fe3 Ga23 2.355204 1_555
Fe3 Ga1 2.368391 1_555
Fe3 Ga19 2.427857 1_555
Fe3 Ga25 2.529875 1_454
Fe3 Ga25 2.529875 1_554
Fe3 Ga7 2.540958 1_555
Fe3 Ga7 2.540958 1_455
Fe3 Ga31 2.633848 1_555
Fe3 Ga31 2.633848 1_455
Fe4 Ga20 2.345239 1_555
Fe4 Ga3 2.434948 1_555
Fe4 Ga3 2.434948 1_455
Fe4 Ga18 2.542484 1_554
Fe4 Ga19 2.569062 1_555
Fe4 Ga11 2.611783 1_555
Fe4 Ga11 2.611783 1_455
Fe4 Ga12 2.624716 1_555
Fe4 Ga12 2.624716 1_455
Fe4 Fe5 2.744061 1_554
Fe5 Ga21 2.345239 1_555
Fe5 Ga3 2.434948 1_556
Fe5 Ga3 2.434948 1_456
Fe5 Ga19 2.542484 1_556
Fe5 Ga18 2.569062 1_555
Fe5 Ga10 2.611783 1_455
Fe5 Ga10 2.611783 1_555
Fe5 Ga13 2.624716 1_555
Fe5 Ga13 2.624716 1_455
Fe6 Ga22 2.345239 1_555
Fe6 Ga2 2.434948 1_565
Fe6 Ga2 2.434948 1_465
Fe6 Ga16 2.542484 1_555
Fe6 Ga17 2.569062 1_565
Fe6 Ga9 2.611783 1_565
Fe6 Ga9 2.611783 1_465
Fe6 Ga14 2.624716 1_555
Fe6 Ga14 2.624716 1_455
Fe6 Fe7 2.744061 1_565
Fe7 Ga23 2.345239 1_555
Fe7 Ga2 2.434948 1_555
Fe7 Ga2 2.434948 1_455
Fe7 Ga17 2.542484 1_555
Fe7 Ga16 2.569062 1_545
Fe7 Ga8 2.611783 1_545
Fe7 Ga8 2.611783 1_445
Fe7 Ga15 2.624716 1_455
Fe7 Ga15 2.624716 1_555
