# generated using pymatgen
data_Mn4P6SN12
_symmetry_space_group_name_H-M   'P 1'
_cell_length_a   6.73747382
_cell_length_b   6.73747382
_cell_length_c   6.73747382
_cell_angle_alpha   76.10521300
_cell_angle_beta   67.67064462
_cell_angle_gamma   112.32935538
_symmetry_Int_Tables_number   1
_chemical_formula_structural   Mn4P6SN12
_chemical_formula_sum   'Mn4 P6 S1 N12'
_cell_volume   233.78344981
_cell_formula_units_Z   1
loop_
 _symmetry_equiv_pos_site_id
 _symmetry_equiv_pos_as_xyz
  1  'x, y, z'
loop_
 _atom_site_type_symbol
 _atom_site_label
 _atom_site_symmetry_multiplicity
 _atom_site_fract_x
 _atom_site_fract_y
 _atom_site_fract_z
 _atom_site_occupancy
  Mn  Mn0  1  0.20764600  0.21621000  0.78379000  1
  Mn  Mn1  1  0.79235400  0.00856400  0.99143600  1
  Mn  Mn2  1  0.00000000  0.78379000  0.00856400  1
  Mn  Mn3  1  0.00000000  0.99143600  0.21621000  1
  P  P0  1  0.57994200  0.53095600  0.46904400  1
  P  P1  1  0.42005800  0.95101400  0.04898600  1
  P  P2  1  0.00000000  0.46904400  0.95101400  1
  P  P3  1  0.00000000  0.04898600  0.53095600  1
  P  P4  1  0.50000000  0.50000000  0.00000000  1
  P  P5  1  0.50000000  0.00000000  0.50000000  1
  S  S0  1  0.00000000  0.50000000  0.50000000  1
  N  N0  1  0.28471300  0.47338000  0.52662000  1
  N  N1  1  0.48076600  0.46553600  0.77132000  1
  N  N2  1  0.48076600  0.22868000  0.53446400  1
  N  N3  1  0.71528700  0.18866600  0.81133400  1
  N  N4  1  0.51923400  0.74791400  0.01523000  1
  N  N5  1  0.51923400  0.98477000  0.25208600  1
  N  N6  1  0.00000000  0.52662000  0.18866600  1
  N  N7  1  0.76314400  0.53446400  0.98477000  1
  N  N8  1  0.23685600  0.77132000  0.74791400  1
  N  N9  1  0.00000000  0.81133400  0.47338000  1
  N  N10  1  0.23685600  0.25208600  0.22868000  1
  N  N11  1  0.76314400  0.01523000  0.46553600  1
loop_
_geom_bond_atom_site_label_1
_geom_bond_atom_site_label_2
_geom_bond_distance
_geom_bond_site_symmetry_2
Mn0 N0 1.861401 1_555
Mn0 N1 1.918571 1_555
Mn0 N2 1.918571 1_555
Mn1 N3 1.861393 1_555
Mn1 N4 1.918571 1_546
Mn1 N5 1.918571 1_546
Mn2 N6 1.861399 1_555
Mn2 N8 1.918571 1_554
Mn2 N7 1.918571 1_454
Mn3 N9 1.861399 1_555
Mn3 N10 1.918571 1_565
Mn3 N11 1.918571 1_465
N0 P0 1.735677 1_555
N0 S0 2.061892 1_555
N1 P4 1.656870 1_556
N1 P0 1.760524 1_555
N2 P5 1.656870 1_555
N2 P0 1.760524 1_555
N3 P1 1.735673 1_546
N3 S0 2.061898 1_655
N4 P4 1.656870 1_555
N4 P1 1.760524 1_555
N5 P5 1.656870 1_565
N5 P1 1.760524 1_555
N6 P2 1.735670 1_554
N6 S0 2.061899 1_555
N7 P4 1.656870 1_556
N7 P2 1.760524 1_655
N8 P5 1.656870 1_565
N8 P2 1.760524 1_555
N9 P3 1.735670 1_565
N9 S0 2.061899 1_555
N10 P4 1.656870 1_555
N10 P3 1.760524 1_555
N11 P5 1.656870 1_555
N11 P3 1.760524 1_655
