# generated using pymatgen
data_CaMg14Nb
_symmetry_space_group_name_H-M   'P 1'
_cell_length_a   6.47816055
_cell_length_b   6.47816001
_cell_length_c   10.17850746
_cell_angle_alpha   90.00000000
_cell_angle_beta   90.00000000
_cell_angle_gamma   120.00000273
_symmetry_Int_Tables_number   1
_chemical_formula_structural   CaMg14Nb
_chemical_formula_sum   'Ca1 Mg14 Nb1'
_cell_volume   369.92875989
_cell_formula_units_Z   1
loop_
 _symmetry_equiv_pos_site_id
 _symmetry_equiv_pos_as_xyz
  1  'x, y, z'
loop_
 _atom_site_type_symbol
 _atom_site_label
 _atom_site_symmetry_multiplicity
 _atom_site_fract_x
 _atom_site_fract_y
 _atom_site_fract_z
 _atom_site_occupancy
  Ca  Ca0  1  0.16666700  0.33333300  0.12500000  1
  Mg  Mg0  1  0.17316033  0.83657967  0.12500000  1
  Mg  Mg1  1  0.16639610  0.83319755  0.62500000  1
  Mg  Mg2  1  0.66342033  0.32683967  0.12500000  1
  Mg  Mg3  1  0.66680245  0.33360390  0.62500000  1
  Mg  Mg4  1  0.66342033  0.83657967  0.12500000  1
  Mg  Mg5  1  0.66680245  0.83319755  0.62500000  1
  Mg  Mg6  1  0.33143128  0.16856872  0.38790448  1
  Mg  Mg7  1  0.33143128  0.16856872  0.86209552  1
  Mg  Mg8  1  0.33143128  0.66286356  0.38790448  1
  Mg  Mg9  1  0.33143128  0.66286356  0.86209552  1
  Mg  Mg10  1  0.83713644  0.16856872  0.38790448  1
  Mg  Mg11  1  0.83713644  0.16856872  0.86209552  1
  Mg  Mg12  1  0.83333300  0.66666700  0.37143859  1
  Mg  Mg13  1  0.83333300  0.66666700  0.87856141  1
  Nb  Nb0  1  0.16666700  0.33333300  0.62500000  1
loop_
_geom_bond_atom_site_label_1
_geom_bond_atom_site_label_2
_geom_bond_distance
_geom_bond_site_symmetry_2
Ca0 Mg0 3.239285 1_545
Ca0 Mg4 3.239285 1_555
Ca0 Mg4 3.239285 1_445
Ca0 Mg0 3.239285 1_555
Ca0 Mg2 3.239285 1_555
Ca0 Mg2 3.239285 1_455
Ca0 Mg7 3.252488 1_554
Ca0 Mg6 3.252488 1_555
Ca0 Mg9 3.252494 1_554
Ca0 Mg8 3.252494 1_555
Ca0 Mg11 3.252494 1_454
Ca0 Mg10 3.252494 1_455
Mg0 Mg12 3.150676 1_455
Mg0 Mg13 3.150676 1_454
Mg0 Mg2 3.175983 1_565
Mg0 Mg4 3.175983 1_555
Mg0 Mg9 3.260731 1_554
Mg0 Mg8 3.260731 1_555
Mg0 Mg7 3.260738 1_564
Mg0 Mg6 3.260738 1_565
Mg0 Mg2 3.302177 1_455
Mg0 Mg4 3.302178 1_455
Mg1 Mg8 3.060110 1_555
Mg1 Mg9 3.060110 1_555
Mg1 Mg7 3.060116 1_565
Mg1 Mg6 3.060116 1_565
Mg1 Mg13 3.186294 1_455
Mg1 Mg12 3.186294 1_455
Mg1 Mg3 3.236448 1_455
Mg1 Mg5 3.236448 1_455
Mg1 Nb0 3.239080 1_565
Mg1 Nb0 3.239080 1_555
Mg1 Mg3 3.241712 1_565
Mg1 Mg5 3.241713 1_555
Mg2 Mg4 3.175983 1_545
Mg2 Mg7 3.260738 1_554
Mg2 Mg6 3.260738 1_555
Mg2 Mg4 3.302177 1_555
Mg3 Mg6 3.060116 1_555
Mg3 Mg7 3.060116 1_555
Mg3 Mg5 3.236448 1_555
Mg3 Nb0 3.239081 1_655
Mg3 Nb0 3.239081 1_555
Mg3 Mg5 3.241712 1_545
Mg4 Mg9 3.260737 1_554
Mg4 Mg8 3.260737 1_555
Mg5 Mg8 3.060116 1_555
Mg5 Mg9 3.060116 1_555
Mg5 Nb0 3.239080 1_665
Mg5 Nb0 3.239080 1_555
Mg6 Nb0 3.040024 1_555
Mg6 Mg8 3.202121 1_555
Mg6 Mg8 3.276039 1_545
Mg7 Nb0 3.040024 1_555
Mg7 Mg9 3.202121 1_555
Mg7 Mg9 3.276039 1_545
Mg8 Nb0 3.040031 1_555
Mg9 Nb0 3.040031 1_555
Mg10 Nb0 3.040031 1_655
Mg10 Mg3 3.060110 1_555
Mg10 Mg5 3.060116 1_545
Mg10 Mg8 3.202121 1_655
Mg10 Mg6 3.202121 1_655
Mg10 Mg12 3.243483 1_545
Mg10 Mg12 3.243483 1_555
Mg10 Mg2 3.260731 1_555
Mg10 Mg4 3.260737 1_545
Mg10 Mg8 3.276039 1_545
Mg10 Mg6 3.276039 1_555
Mg11 Nb0 3.040031 1_655
Mg11 Mg3 3.060110 1_555
Mg11 Mg5 3.060116 1_545
Mg11 Mg9 3.202121 1_655
Mg11 Mg7 3.202121 1_655
Mg11 Mg13 3.243483 1_545
Mg11 Mg13 3.243483 1_555
Mg11 Mg2 3.260731 1_556
Mg11 Mg4 3.260737 1_546
Mg11 Mg9 3.276039 1_545
Mg11 Mg7 3.276039 1_555
Mg12 Mg4 3.150670 1_555
Mg12 Mg2 3.150676 1_555
Mg12 Mg5 3.186287 1_555
Mg12 Mg3 3.186294 1_555
Mg12 Mg6 3.243483 1_665
Mg12 Mg6 3.243483 1_555
Mg12 Mg8 3.243484 1_655
Mg12 Mg8 3.243484 1_555
Mg13 Mg4 3.150670 1_556
Mg13 Mg2 3.150676 1_556
Mg13 Mg5 3.186287 1_555
Mg13 Mg3 3.186294 1_555
Mg13 Mg7 3.243483 1_665
Mg13 Mg7 3.243483 1_555
Mg13 Mg9 3.243484 1_655
Mg13 Mg9 3.243484 1_555
