# generated using pymatgen
data_SmPOs2C
_symmetry_space_group_name_H-M   'P 1'
_cell_length_a   5.87478235
_cell_length_b   5.87478235
_cell_length_c   7.10007100
_cell_angle_alpha   90.00000000
_cell_angle_beta   90.00000000
_cell_angle_gamma   141.22438794
_symmetry_Int_Tables_number   1
_chemical_formula_structural   SmPOs2C
_chemical_formula_sum   'Sm2 P2 Os4 C2'
_cell_volume   153.46497411
_cell_formula_units_Z   2
loop_
 _symmetry_equiv_pos_site_id
 _symmetry_equiv_pos_as_xyz
  1  'x, y, z'
loop_
 _atom_site_type_symbol
 _atom_site_label
 _atom_site_symmetry_multiplicity
 _atom_site_fract_x
 _atom_site_fract_y
 _atom_site_fract_z
 _atom_site_occupancy
  Sm  Sm0  1  0.54523200  0.45476800  0.25000000  1
  Sm  Sm1  1  0.45476800  0.54523200  0.75000000  1
  P  P0  1  0.26875300  0.73124700  0.25000000  1
  P  P1  1  0.73124700  0.26875300  0.75000000  1
  Os  Os0  1  0.83315200  0.16684800  0.05312000  1
  Os  Os1  1  0.16684800  0.83315200  0.94688000  1
  Os  Os2  1  0.16684800  0.83315200  0.55312000  1
  Os  Os3  1  0.83315200  0.16684800  0.44688000  1
  C  C0  1  0.00000000  0.00000000  0.00000000  1
  C  C1  1  0.00000000  0.00000000  0.50000000  1
loop_
_geom_bond_atom_site_label_1
_geom_bond_atom_site_label_2
_geom_bond_distance
_geom_bond_site_symmetry_2
P0 Sm0 3.064296 1_555
P0 Sm0 3.152857 1_455
P0 Sm0 3.152857 1_565
P1 Sm1 3.064296 1_555
P1 Sm1 3.152857 1_545
P1 Sm1 3.152857 1_655
Os0 P1 2.430533 1_554
Os0 P0 2.503342 1_655
Os0 P0 2.503342 1_545
Os1 P0 2.430533 1_556
Os1 P1 2.503342 1_455
Os1 P1 2.503342 1_565
Os2 P0 2.430533 1_555
Os2 P1 2.503342 1_455
Os2 P1 2.503342 1_565
Os3 P1 2.430533 1_555
Os3 P0 2.503342 1_545
Os3 P0 2.503342 1_655
C0 Os1 1.887293 1_544
C0 Os0 1.887293 1_455
C0 Sm1 2.684263 1_444
C0 Sm0 2.684263 1_555
C0 Sm0 2.684263 1_445
C0 Sm1 2.684263 1_554
C1 Os2 1.887293 1_545
C1 Os3 1.887293 1_455
C1 Sm1 2.684263 1_445
C1 Sm0 2.684263 1_555
C1 Sm0 2.684263 1_445
C1 Sm1 2.684263 1_555
