# generated using pymatgen
data_CoSO4
_symmetry_space_group_name_H-M   'P 1'
_cell_length_a   4.70239698
_cell_length_b   4.70251826
_cell_length_c   6.49649056
_cell_angle_alpha   90.00000000
_cell_angle_beta   90.00000000
_cell_angle_gamma   113.17619689
_symmetry_Int_Tables_number   1
_chemical_formula_structural   CoSO4
_chemical_formula_sum   'Co2 S2 O8'
_cell_volume   132.06427215
_cell_formula_units_Z   2
loop_
 _symmetry_equiv_pos_site_id
 _symmetry_equiv_pos_as_xyz
  1  'x, y, z'
loop_
 _atom_site_type_symbol
 _atom_site_label
 _atom_site_symmetry_multiplicity
 _atom_site_fract_x
 _atom_site_fract_y
 _atom_site_fract_z
 _atom_site_occupancy
  Co  Co0  1  -0.00000000  0.00000000  0.50000000  1
  Co  Co1  1  -0.00000000  0.00000000  -0.00000000  1
  S  S0  1  0.65001042  0.35023961  0.25000000  1
  S  S1  1  0.34998958  0.64976039  0.75000000  1
  O  O0  1  0.22596764  0.30402487  0.75000000  1
  O  O1  1  0.77403236  0.69597513  0.25000000  1
  O  O2  1  0.30437641  0.22688943  0.25000000  1
  O  O3  1  0.69562359  0.77311057  0.75000000  1
  O  O4  1  0.24886814  0.75113804  0.93808363  1
  O  O5  1  0.75113186  0.24886196  0.43808363  1
  O  O6  1  0.75113186  0.24886196  0.06191637  1
  O  O7  1  0.24886814  0.75113804  0.56191637  1
loop_
_geom_bond_atom_site_label_1
_geom_bond_atom_site_label_2
_geom_bond_distance
_geom_bond_site_symmetry_2
Co0 O5 1.994717 1_455
Co0 O7 1.994717 1_545
Co0 O1 2.148278 1_445
Co0 O0 2.148278 1_555
Co0 O2 2.150057 1_555
Co0 O3 2.150057 1_445
Co1 O4 1.994717 1_544
Co1 O6 1.994717 1_455
Co1 O0 2.148278 1_554
Co1 O1 2.148278 1_445
Co1 O2 2.150057 1_555
Co1 O3 2.150057 1_444
O0 S1 1.495695 1_555
O1 S0 1.495695 1_555
O2 S0 1.495332 1_555
O3 S1 1.495332 1_555
O4 S1 1.457675 1_555
O5 S0 1.457675 1_555
O6 S0 1.457675 1_555
O7 S1 1.457675 1_555
