# generated using pymatgen
data_Hf3GeO8
_symmetry_space_group_name_H-M   'P 1'
_cell_length_a   6.26956891
_cell_length_b   6.26956891
_cell_length_c   6.26956891
_cell_angle_alpha   133.33979867
_cell_angle_beta   133.33979867
_cell_angle_gamma   68.12101637
_symmetry_Int_Tables_number   1
_chemical_formula_structural   Hf3GeO8
_chemical_formula_sum   'Hf3 Ge1 O8'
_cell_volume   128.08233281
_cell_formula_units_Z   1
loop_
 _symmetry_equiv_pos_site_id
 _symmetry_equiv_pos_as_xyz
  1  'x, y, z'
loop_
 _atom_site_type_symbol
 _atom_site_label
 _atom_site_symmetry_multiplicity
 _atom_site_fract_x
 _atom_site_fract_y
 _atom_site_fract_z
 _atom_site_occupancy
  Hf  Hf0  1  0.25000000  0.75000000  0.50000000  1
  Hf  Hf1  1  0.75000000  0.25000000  0.50000000  1
  Hf  Hf2  1  0.50000000  0.50000000  0.00000000  1
  Ge  Ge0  1  -0.00000000  0.00000000  0.00000000  1
  O  O0  1  0.53754949  0.14314692  0.00000000  1
  O  O1  1  0.14314692  0.53754949  0.00000000  1
  O  O2  1  0.85685308  0.85685308  0.39440257  1
  O  O3  1  0.46245051  0.46245051  0.60559743  1
  O  O4  1  0.30527203  0.87347819  -0.00000000  1
  O  O5  1  0.87347819  0.30527203  -0.00000000  1
  O  O6  1  0.12652181  0.12652181  0.43179384  1
  O  O7  1  0.69472797  0.69472797  0.56820616  1
loop_
_geom_bond_atom_site_label_1
_geom_bond_atom_site_label_2
_geom_bond_distance
_geom_bond_site_symmetry_2
Hf0 O0 2.025043 1_566
Hf0 O2 2.025043 1_455
Hf0 O1 2.025043 1_555
Hf0 O3 2.025043 1_555
Hf0 O7 2.433917 1_555
Hf0 O4 2.433917 1_556
Hf0 O5 2.433917 1_455
Hf0 O6 2.433917 1_565
Hf1 O1 2.025043 1_656
Hf1 O2 2.025043 1_545
Hf1 O3 2.025043 1_555
Hf1 O0 2.025043 1_555
Hf1 O4 2.433917 1_545
Hf1 O5 2.433917 1_556
Hf1 O7 2.433917 1_555
Hf1 O6 2.433917 1_655
Hf2 O0 2.160659 1_555
Hf2 O3 2.160659 1_554
Hf2 O1 2.160659 1_555
Hf2 O2 2.160659 1_555
Hf2 O5 2.200629 1_555
Hf2 O4 2.200629 1_555
Hf2 O6 2.200629 1_554
Hf2 O7 2.200629 1_555
Ge0 O4 1.777871 1_545
Ge0 O6 1.777871 1_555
Ge0 O7 1.777871 1_444
Ge0 O5 1.777871 1_455
