# generated using pymatgen
data_CeTh4O10
_symmetry_space_group_name_H-M   'P 1'
_cell_length_a   14.20070753
_cell_length_b   14.20070753
_cell_length_c   14.20070753
_cell_angle_alpha   164.05145053
_cell_angle_beta   164.05145053
_cell_angle_gamma   22.62869302
_symmetry_Int_Tables_number   1
_chemical_formula_structural   CeTh4O10
_chemical_formula_sum   'Ce1 Th4 O10'
_cell_volume   216.17115610
_cell_formula_units_Z   1
loop_
 _symmetry_equiv_pos_site_id
 _symmetry_equiv_pos_as_xyz
  1  'x, y, z'
loop_
 _atom_site_type_symbol
 _atom_site_label
 _atom_site_symmetry_multiplicity
 _atom_site_fract_x
 _atom_site_fract_y
 _atom_site_fract_z
 _atom_site_occupancy
  Ce  Ce0  1  -0.00000000  -0.00000000  0.00000000  1
  Th  Th0  1  0.40138946  0.40138946  0.00000000  1
  Th  Th1  1  0.80041666  0.80041666  0.00000000  1
  Th  Th2  1  0.19958334  0.19958334  -0.00000000  1
  Th  Th3  1  0.59861054  0.59861054  -0.00000000  1
  O  O0  1  0.14916678  0.64916678  0.50000000  1
  O  O1  1  0.54855151  0.04855151  0.50000000  1
  O  O2  1  0.95144849  0.45144849  0.50000000  1
  O  O3  1  0.35083322  0.85083322  0.50000000  1
  O  O4  1  0.75000000  0.25000000  0.50000000  1
  O  O5  1  0.04855151  0.54855151  0.50000000  1
  O  O6  1  0.45144849  0.95144849  0.50000000  1
  O  O7  1  0.85083322  0.35083322  0.50000000  1
  O  O8  1  0.25000000  0.75000000  0.50000000  1
  O  O9  1  0.64916678  0.14916678  0.50000000  1
loop_
_geom_bond_atom_site_label_1
_geom_bond_atom_site_label_2
_geom_bond_distance
_geom_bond_site_symmetry_2
Ce0 O5 2.389420 1_555
Ce0 O1 2.389420 1_555
Ce0 O5 2.389420 1_544
Ce0 O2 2.389420 1_444
Ce0 O6 2.389420 1_444
Ce0 O1 2.389420 1_454
Ce0 O6 2.389420 1_545
Ce0 O2 2.389420 1_455
O0 Th2 2.419192 1_566
O0 Th2 2.419192 1_555
O0 Th3 2.421452 1_455
O0 Th3 2.421452 1_556
O1 Th3 2.413427 1_556
O1 Th3 2.413427 1_545
O2 Th0 2.413427 1_555
O2 Th0 2.413427 1_656
O3 Th1 2.419192 1_455
O3 Th1 2.419192 1_556
O3 Th0 2.421452 1_566
O3 Th0 2.421452 1_555
O4 Th1 2.419193 1_556
O4 Th2 2.419193 1_555
O4 Th1 2.419193 1_545
O4 Th2 2.419193 1_656
O5 Th3 2.413427 1_556
O5 Th3 2.413427 1_455
O6 Th0 2.413427 1_555
O6 Th0 2.413427 1_566
O7 Th1 2.419192 1_545
O7 Th1 2.419192 1_556
O7 Th0 2.421452 1_555
O7 Th0 2.421452 1_656
O8 Th2 2.419193 1_555
O8 Th1 2.419193 1_556
O8 Th2 2.419193 1_566
O8 Th1 2.419193 1_455
O9 Th2 2.419192 1_555
O9 Th2 2.419192 1_656
O9 Th3 2.421452 1_545
O9 Th3 2.421452 1_556
