# generated using pymatgen
data_LiHfMg14O15
_symmetry_space_group_name_H-M   'P 1'
_cell_length_a   8.62506936
_cell_length_b   8.63432370
_cell_length_c   4.28705545
_cell_angle_alpha   90.00000000
_cell_angle_beta   90.00000000
_cell_angle_gamma   90.00000000
_symmetry_Int_Tables_number   1
_chemical_formula_structural   LiHfMg14O15
_chemical_formula_sum   'Li1 Hf1 Mg14 O15'
_cell_volume   319.26405352
_cell_formula_units_Z   1
loop_
 _symmetry_equiv_pos_site_id
 _symmetry_equiv_pos_as_xyz
  1  'x, y, z'
loop_
 _atom_site_type_symbol
 _atom_site_label
 _atom_site_symmetry_multiplicity
 _atom_site_fract_x
 _atom_site_fract_y
 _atom_site_fract_z
 _atom_site_occupancy
  Li  Li0  1  0.99237263  -0.00000000  0.00000000  1
  Hf  Hf0  1  0.50070294  0.50000000  0.00000000  1
  Mg  Mg0  1  0.99966340  0.50000000  0.00000000  1
  Mg  Mg1  1  0.50064965  -0.00000000  0.00000000  1
  Mg  Mg2  1  0.00031581  0.24150553  0.50000000  1
  Mg  Mg3  1  0.00031581  0.75849447  0.50000000  1
  Mg  Mg4  1  0.50028095  0.23947404  0.50000000  1
  Mg  Mg5  1  0.50028095  0.76052596  0.50000000  1
  Mg  Mg6  1  0.24200260  -0.00000000  0.50000000  1
  Mg  Mg7  1  0.23941278  0.50000000  0.50000000  1
  Mg  Mg8  1  0.75810455  -0.00000000  0.50000000  1
  Mg  Mg9  1  0.76103765  0.50000000  0.50000000  1
  Mg  Mg10  1  0.23926241  0.24072747  -0.00000000  1
  Mg  Mg11  1  0.23926241  0.75927253  -0.00000000  1
  Mg  Mg12  1  0.76071296  0.23930105  0.00000000  1
  Mg  Mg13  1  0.76071296  0.76069895  0.00000000  1
  O  O0  1  0.25125061  0.50000000  0.00000000  1
  O  O1  1  0.74245286  -0.00000000  0.00000000  1
  O  O2  1  0.74977552  0.50000000  0.00000000  1
  O  O3  1  0.25158578  0.25324033  0.50000000  1
  O  O4  1  0.25158578  0.74675967  0.50000000  1
  O  O5  1  0.74955594  0.25093290  0.50000000  1
  O  O6  1  0.74955594  0.74906710  0.50000000  1
  O  O7  1  0.00011340  -0.00000000  0.50000000  1
  O  O8  1  0.00010031  0.50000000  0.50000000  1
  O  O9  1  0.50324446  -0.00000000  0.50000000  1
  O  O10  1  0.50090606  0.50000000  0.50000000  1
  O  O11  1  0.99969099  0.25917063  0.00000000  1
  O  O12  1  0.99969099  0.74082937  0.00000000  1
  O  O13  1  0.50270046  0.25027916  -0.00000000  1
  O  O14  1  0.50270046  0.74972084  -0.00000000  1
loop_
_geom_bond_atom_site_label_1
_geom_bond_atom_site_label_2
_geom_bond_distance
_geom_bond_site_symmetry_2
Li0 O7 2.144567 1_655
Li0 O7 2.144567 1_654
Li0 O1 2.155575 1_555
Li0 O12 2.238653 1_545
Li0 O11 2.238653 1_555
Hf0 O10 2.143528 1_555
Hf0 O10 2.143528 1_554
Hf0 O2 2.148268 1_555
Hf0 O0 2.151544 1_555
Hf0 O13 2.156239 1_555
Hf0 O14 2.156239 1_555
Mg0 O11 2.079399 1_555
Mg0 O12 2.079399 1_555
Mg0 O8 2.143531 1_655
Mg0 O8 2.143531 1_654
Mg0 O2 2.155300 1_555
Mg0 O0 2.169957 1_655
Mg1 O1 2.085569 1_555
Mg1 O9 2.143645 1_554
Mg1 O9 2.143645 1_555
Mg1 O14 2.161064 1_545
Mg1 O13 2.161064 1_555
Mg2 O7 2.085238 1_555
Mg2 O11 2.148954 1_455
Mg2 O11 2.148954 1_456
Mg2 O5 2.164352 1_455
Mg2 O3 2.169588 1_555
Mg2 O8 2.231926 1_555
Mg3 O7 2.085238 1_565
Mg3 O12 2.148954 1_455
Mg3 O12 2.148954 1_456
Mg3 O6 2.164352 1_455
Mg3 O4 2.169588 1_555
Mg3 O8 2.231926 1_555
Mg4 O9 2.067854 1_555
Mg4 O13 2.145659 1_555
Mg4 O13 2.145659 1_556
Mg4 O3 2.148304 1_555
Mg4 O5 2.152289 1_555
Mg4 O10 2.249472 1_555
Mg5 O9 2.067854 1_565
Mg5 O14 2.145659 1_556
Mg5 O14 2.145659 1_555
Mg5 O4 2.148304 1_555
Mg5 O6 2.152289 1_555
Mg5 O10 2.249472 1_555
Mg6 O7 2.086311 1_555
Mg6 O3 2.188121 1_555
Mg6 O4 2.188121 1_545
Mg6 O9 2.253229 1_555
Mg7 O8 2.064087 1_555
Mg7 O3 2.133188 1_555
Mg7 O4 2.133188 1_555
Mg7 O0 2.145958 1_555
Mg7 O0 2.145958 1_556
Mg7 O10 2.255398 1_555
Mg8 O7 2.087343 1_655
Mg8 O1 2.147774 1_555
Mg8 O1 2.147774 1_556
Mg8 O6 2.167890 1_545
Mg8 O5 2.167890 1_555
Mg8 O9 2.198186 1_555
Mg9 O8 2.061932 1_655
Mg9 O2 2.145728 1_555
Mg9 O2 2.145728 1_556
Mg9 O5 2.152805 1_555
Mg9 O6 2.152805 1_555
Mg9 O10 2.243653 1_555
Mg10 O11 2.072447 1_455
Mg10 O3 2.148879 1_554
Mg10 O3 2.148879 1_555
Mg10 O0 2.241030 1_555
Mg10 O13 2.273668 1_555
Mg11 O12 2.072447 1_455
Mg11 O4 2.148879 1_555
Mg11 O4 2.148879 1_554
Mg11 O0 2.241030 1_555
Mg11 O14 2.273668 1_555
Mg12 O11 2.068330 1_555
Mg12 O1 2.072196 1_555
Mg12 O5 2.148036 1_555
Mg12 O5 2.148036 1_554
Mg12 O13 2.227394 1_555
Mg12 O2 2.252935 1_555
Mg13 O12 2.068330 1_555
Mg13 O1 2.072196 1_565
Mg13 O6 2.148036 1_555
Mg13 O6 2.148036 1_554
Mg13 O14 2.227394 1_555
Mg13 O2 2.252935 1_555
