# generated using pymatgen
data_EuSi2
_symmetry_space_group_name_H-M   'P 1'
_cell_length_a   4.05617785
_cell_length_b   4.05617784
_cell_length_c   4.36140235
_cell_angle_alpha   90.00000000
_cell_angle_beta   90.00000000
_cell_angle_gamma   119.99998368
_symmetry_Int_Tables_number   1
_chemical_formula_structural   EuSi2
_chemical_formula_sum   'Eu1 Si2'
_cell_volume   62.14280229
_cell_formula_units_Z   1
loop_
 _symmetry_equiv_pos_site_id
 _symmetry_equiv_pos_as_xyz
  1  'x, y, z'
loop_
 _atom_site_type_symbol
 _atom_site_label
 _atom_site_symmetry_multiplicity
 _atom_site_fract_x
 _atom_site_fract_y
 _atom_site_fract_z
 _atom_site_occupancy
  Eu  Eu0  1  -0.00000000  0.00000000  -0.00000000  1
  Si  Si0  1  0.66666700  0.33333300  0.50000000  1
  Si  Si1  1  0.33333300  0.66666700  0.50000000  1
loop_
_geom_bond_atom_site_label_1
_geom_bond_atom_site_label_2
_geom_bond_distance
_geom_bond_site_symmetry_2
Eu0 Si0 3.199944 1_455
Eu0 Si0 3.199944 1_454
Eu0 Si1 3.199944 1_544
Eu0 Si1 3.199944 1_545
Eu0 Si0 3.199947 1_444
Eu0 Si0 3.199947 1_445
Eu0 Si1 3.199947 1_555
Eu0 Si1 3.199947 1_554
Eu0 Si0 3.199947 1_554
Eu0 Si0 3.199947 1_555
Eu0 Si1 3.199947 1_444
Eu0 Si1 3.199947 1_445
Si0 Si1 2.341833 1_545
Si0 Si1 2.341833 1_655
Si0 Si1 2.341840 1_555
