# generated using pymatgen
data_Zn3CdO4
_symmetry_space_group_name_H-M   'P 1'
_cell_length_a   3.36430647
_cell_length_b   3.36430647
_cell_length_c   11.02406700
_cell_angle_alpha   90.00000000
_cell_angle_beta   90.00000000
_cell_angle_gamma   120.00000916
_symmetry_Int_Tables_number   1
_chemical_formula_structural   Zn3CdO4
_chemical_formula_sum   'Zn3 Cd1 O4'
_cell_volume   108.05964493
_cell_formula_units_Z   1
loop_
 _symmetry_equiv_pos_site_id
 _symmetry_equiv_pos_as_xyz
  1  'x, y, z'
loop_
 _atom_site_type_symbol
 _atom_site_label
 _atom_site_symmetry_multiplicity
 _atom_site_fract_x
 _atom_site_fract_y
 _atom_site_fract_z
 _atom_site_occupancy
  Zn  Zn0  1  0.66666700  0.33333300  0.25053800  1
  Zn  Zn1  1  0.00000000  0.00000000  0.01382600  1
  Zn  Zn2  1  0.00000000  0.00000000  0.48705800  1
  Cd  Cd0  1  0.66666700  0.33333300  0.75532000  1
  O  O0  1  0.66666700  0.33333300  0.95891100  1
  O  O1  1  0.66666700  0.33333300  0.43189500  1
  O  O2  1  0.00000000  0.00000000  0.66682000  1
  O  O3  1  0.00000000  0.00000000  0.19563200  1
loop_
_geom_bond_atom_site_label_1
_geom_bond_atom_site_label_2
_geom_bond_distance
_geom_bond_site_symmetry_2
Cd0 O2 2.173637 1_655
Cd0 O2 2.173640 1_665
Cd0 O2 2.173640 1_555
Cd0 O0 2.244401 1_555
O0 Zn1 2.034536 1_656
O0 Zn1 2.034539 1_666
O0 Zn1 2.034539 1_556
O1 Zn0 1.999292 1_555
O1 Zn2 2.035352 1_655
O1 Zn2 2.035354 1_665
O1 Zn2 2.035354 1_555
O2 Zn2 1.981708 1_555
O3 Zn1 2.004242 1_555
O3 Zn0 2.034507 1_455
O3 Zn0 2.034509 1_445
O3 Zn0 2.034509 1_555
