# generated using pymatgen
data_TaNbV
_symmetry_space_group_name_H-M   'P 1'
_cell_length_a   14.08829003
_cell_length_b   13.68107699
_cell_length_c   5.68613517
_cell_angle_alpha   82.23390126
_cell_angle_beta   74.19384070
_cell_angle_gamma   23.57225804
_symmetry_Int_Tables_number   1
_chemical_formula_structural   TaNbV
_chemical_formula_sum   'Ta8 Nb8 V8'
_cell_volume   402.59717427
_cell_formula_units_Z   8
loop_
 _symmetry_equiv_pos_site_id
 _symmetry_equiv_pos_as_xyz
  1  'x, y, z'
loop_
 _atom_site_type_symbol
 _atom_site_label
 _atom_site_symmetry_multiplicity
 _atom_site_fract_x
 _atom_site_fract_y
 _atom_site_fract_z
 _atom_site_occupancy
  Ta  Ta0_0  1  0.16276300  0.16276300  0.33723700  1
  Ta  Ta0_1  1  0.16276300  0.16276300  0.83723700  1
  Ta  Ta0_2  1  0.16276300  0.66276300  0.33723700  1
  Ta  Ta0_3  1  0.16276300  0.66276300  0.83723700  1
  Ta  Ta0_4  1  0.66276300  0.16276300  0.33723700  1
  Ta  Ta0_5  1  0.66276300  0.16276300  0.83723700  1
  Ta  Ta0_6  1  0.66276300  0.66276300  0.33723700  1
  Ta  Ta0_7  1  0.66276300  0.66276300  0.83723700  1
  Nb  Nb0_0  1  0.00383400  0.00383400  0.49616600  1
  Nb  Nb0_1  1  0.00383400  0.00383400  0.99616600  1
  Nb  Nb0_2  1  0.00383400  0.50383400  0.49616600  1
  Nb  Nb0_3  1  0.00383400  0.50383400  0.99616600  1
  Nb  Nb0_4  1  0.50383400  0.00383400  0.49616600  1
  Nb  Nb0_5  1  0.50383400  0.00383400  0.99616600  1
  Nb  Nb0_6  1  0.50383400  0.50383400  0.49616600  1
  Nb  Nb0_7  1  0.50383400  0.50383400  0.99616600  1
  V  V0_0  1  0.33340250  0.33340250  0.16659750  1
  V  V0_1  1  0.33340250  0.33340250  0.66659750  1
  V  V0_2  1  0.33340250  0.83340250  0.16659750  1
  V  V0_3  1  0.33340250  0.83340250  0.66659750  1
  V  V0_4  1  0.83340250  0.33340250  0.16659750  1
  V  V0_5  1  0.83340250  0.33340250  0.66659750  1
  V  V0_6  1  0.83340250  0.83340250  0.16659750  1
  V  V0_7  1  0.83340250  0.83340250  0.66659750  1
loop_
_geom_bond_atom_site_label_1
_geom_bond_atom_site_label_2
_geom_bond_distance
_geom_bond_site_symmetry_2
Ta0_0 V0_5 2.660543 1_455
Ta0_0 V0_2 2.660543 1_545
Ta0_1 V0_4 2.660543 1_456
Ta0_1 V0_3 2.660543 1_545
Ta0_2 V0_7 2.660543 1_455
Ta0_2 V0_0 2.660543 1_555
Ta0_3 V0_6 2.660543 1_456
Ta0_3 V0_1 2.660543 1_555
Ta0_4 V0_1 2.660543 1_555
Ta0_4 V0_6 2.660543 1_545
Ta0_5 V0_0 2.660543 1_556
Ta0_5 V0_7 2.660543 1_545
Ta0_6 V0_3 2.660543 1_555
Ta0_6 V0_4 2.660543 1_555
Ta0_7 V0_2 2.660543 1_556
Ta0_7 V0_5 2.660543 1_555
Nb0_0 V0_2 2.664929 1_545
Nb0_0 V0_5 2.664929 1_455
Nb0_0 Nb0_6 2.843068 1_455
Nb0_0 Nb0_1 2.843068 1_554
Nb0_0 Nb0_6 2.843068 1_545
Nb0_0 Nb0_1 2.843068 1_555
Nb0_0 Ta0_2 2.913559 1_545
Nb0_0 Ta0_5 2.913559 1_455
Nb0_1 V0_4 2.664929 1_456
Nb0_1 V0_3 2.664929 1_545
Nb0_1 Nb0_7 2.843068 1_545
Nb0_1 Nb0_7 2.843068 1_455
Nb0_1 Ta0_3 2.913559 1_545
Nb0_1 Ta0_4 2.913559 1_456
Nb0_2 V0_0 2.664929 1_555
Nb0_2 V0_7 2.664929 1_455
Nb0_2 Nb0_3 2.843068 1_554
Nb0_2 Nb0_3 2.843068 1_555
Nb0_2 Nb0_4 2.843068 1_555
Nb0_2 Nb0_4 2.843068 1_465
Nb0_2 Ta0_0 2.913559 1_555
Nb0_2 Ta0_7 2.913559 1_455
Nb0_3 V0_1 2.664929 1_555
Nb0_3 V0_6 2.664929 1_456
Nb0_3 Nb0_5 2.843068 1_465
Nb0_3 Nb0_5 2.843068 1_555
Nb0_3 Ta0_1 2.913559 1_555
Nb0_3 Ta0_6 2.913559 1_456
Nb0_4 V0_1 2.664929 1_555
Nb0_4 V0_6 2.664929 1_545
Nb0_4 Nb0_5 2.843068 1_554
Nb0_4 Nb0_5 2.843068 1_555
Nb0_4 Ta0_6 2.913559 1_545
Nb0_4 Ta0_1 2.913559 1_555
Nb0_5 V0_0 2.664929 1_556
Nb0_5 V0_7 2.664929 1_545
Nb0_5 Ta0_7 2.913559 1_545
Nb0_5 Ta0_0 2.913559 1_556
Nb0_6 V0_4 2.664929 1_555
Nb0_6 V0_3 2.664929 1_555
Nb0_6 Nb0_7 2.843068 1_555
Nb0_6 Nb0_7 2.843068 1_554
Nb0_6 Ta0_4 2.913559 1_555
Nb0_6 Ta0_3 2.913559 1_555
Nb0_7 V0_2 2.664929 1_556
Nb0_7 V0_5 2.664929 1_555
Nb0_7 Ta0_5 2.913559 1_555
Nb0_7 Ta0_2 2.913559 1_556
