# generated using pymatgen
data_KFe3H6(SO7)2
_symmetry_space_group_name_H-M   'P 1'
_cell_length_a   9.20566442
_cell_length_b   9.20566442
_cell_length_c   9.20566468
_cell_angle_alpha   56.66270115
_cell_angle_beta   56.66270115
_cell_angle_gamma   56.66269644
_symmetry_Int_Tables_number   1
_chemical_formula_structural   KFe3H6(SO7)2
_chemical_formula_sum   'K1 Fe3 H6 S2 O14'
_cell_volume   509.11494425
_cell_formula_units_Z   1
loop_
 _symmetry_equiv_pos_site_id
 _symmetry_equiv_pos_as_xyz
  1  'x, y, z'
loop_
 _atom_site_type_symbol
 _atom_site_label
 _atom_site_symmetry_multiplicity
 _atom_site_fract_x
 _atom_site_fract_y
 _atom_site_fract_z
 _atom_site_occupancy
  K  K0  1  0.00000000  0.00000000  0.00000000  1
  Fe  Fe0  1  0.00000000  0.50000000  0.00000000  1
  Fe  Fe1  1  0.50000000  0.00000000  0.00000000  1
  Fe  Fe2  1  0.00000000  0.00000000  0.50000000  1
  H  H0  1  0.05131200  0.47237000  0.47237000  1
  H  H1  1  0.47237000  0.47237000  0.05131200  1
  H  H2  1  0.47237000  0.05131200  0.47237000  1
  H  H3  1  0.52763000  0.94868800  0.52763000  1
  H  H4  1  0.94868800  0.52763000  0.52763000  1
  H  H5  1  0.52763000  0.52763000  0.94868800  1
  S  S0  1  0.35254500  0.35254500  0.35254500  1
  S  S1  1  0.64745500  0.64745500  0.64745500  1
  O  O0  1  0.41683300  0.41683300  0.41683300  1
  O  O1  1  0.58316700  0.58316700  0.58316700  1
  O  O2  1  0.47497700  0.12386400  0.12386400  1
  O  O3  1  0.12386400  0.12386400  0.47497700  1
  O  O4  1  0.12386400  0.47497700  0.12386400  1
  O  O5  1  0.87613600  0.52502300  0.87613600  1
  O  O6  1  0.52502300  0.87613600  0.87613600  1
  O  O7  1  0.87613600  0.87613600  0.52502300  1
  O  O8  1  0.66575100  0.03043000  0.03043000  1
  O  O9  1  0.03043000  0.03043000  0.66575100  1
  O  O10  1  0.03043000  0.66575100  0.03043000  1
  O  O11  1  0.96957000  0.33424900  0.96957000  1
  O  O12  1  0.33424900  0.96957000  0.96957000  1
  O  O13  1  0.96957000  0.96957000  0.33424900  1
loop_
_geom_bond_atom_site_label_1
_geom_bond_atom_site_label_2
_geom_bond_distance
_geom_bond_site_symmetry_2
K0 O12 2.795752 1_544
K0 O11 2.795752 1_454
K0 O8 2.795752 1_455
K0 O10 2.795752 1_545
K0 O13 2.795752 1_445
K0 O9 2.795752 1_554
Fe0 O4 1.872183 1_555
Fe0 O5 1.872183 1_454
Fe0 O10 1.873772 1_555
Fe0 O11 1.873772 1_454
Fe1 O2 1.872183 1_555
Fe1 O6 1.872183 1_544
Fe1 O8 1.873772 1_555
Fe1 O12 1.873772 1_544
Fe2 O3 1.872183 1_555
Fe2 O7 1.872183 1_445
Fe2 O9 1.873772 1_555
Fe2 O13 1.873772 1_445
H0 H4 0.798775 1_455
H1 H5 0.798775 1_554
H2 H3 0.798775 1_545
O0 S0 1.485134 1_555
O1 S1 1.485134 1_555
O2 O8 1.434024 1_555
O3 O9 1.434025 1_555
O10 O4 1.434024 1_555
O11 O5 1.434024 1_555
O12 O6 1.434024 1_555
O13 O7 1.434025 1_555
