# generated using pymatgen
data_Li3Fe2CoO6
_symmetry_space_group_name_H-M   'P 1'
_cell_length_a   5.07446910
_cell_length_b   5.14555043
_cell_length_c   5.07538393
_cell_angle_alpha   99.41253652
_cell_angle_beta   119.99405663
_cell_angle_gamma   70.90439970
_symmetry_Int_Tables_number   1
_chemical_formula_structural   Li3Fe2CoO6
_chemical_formula_sum   'Li3 Fe2 Co1 O6'
_cell_volume   108.45956677
_cell_formula_units_Z   1
loop_
 _symmetry_equiv_pos_site_id
 _symmetry_equiv_pos_as_xyz
  1  'x, y, z'
loop_
 _atom_site_type_symbol
 _atom_site_label
 _atom_site_symmetry_multiplicity
 _atom_site_fract_x
 _atom_site_fract_y
 _atom_site_fract_z
 _atom_site_occupancy
  Li  Li0  1  0.32625800  0.00000000  0.65251500  1
  Li  Li1  1  0.66668200  0.00000100  0.33336300  1
  Li  Li2  1  0.00710400  0.00000200  0.01421200  1
  Fe  Fe0  1  0.49961100  0.49999900  0.99921300  1
  Fe  Fe1  1  0.83373700  0.49999300  0.66746400  1
  Co  Co0  1  0.16665800  0.50000000  0.33332000  1
  O  O0  1  0.91977000  0.27553300  0.33331500  1
  O  O1  1  0.24198900  0.27336200  0.01194400  1
  O  O2  1  0.56336900  0.27337300  0.65469800  1
  O  O3  1  0.09132800  0.72662700  0.65469600  1
  O  O4  1  0.41354300  0.72446900  0.33331400  1
  O  O5  1  0.76995300  0.72664000  0.01194600  1
loop_
_geom_bond_atom_site_label_1
_geom_bond_atom_site_label_2
_geom_bond_distance
_geom_bond_site_symmetry_2
Li0 O4 2.094313 1_545
Li0 O0 2.094316 1_455
Li0 O2 2.124967 1_555
Li0 O3 2.124971 1_545
Li0 O5 2.244168 1_546
Li0 O1 2.244178 1_556
Li1 O3 2.129625 1_645
Li1 O2 2.129631 1_555
Li1 O5 2.129843 1_545
Li1 O1 2.129853 1_555
Li1 O0 2.202548 1_555
Li1 O4 2.202558 1_545
Li2 O0 2.094024 1_455
Li2 O4 2.094027 1_545
Li2 O1 2.124910 1_555
Li2 O5 2.124915 1_445
Li2 O2 2.244446 1_454
Li2 O3 2.244473 1_544
Fe0 O0 2.042021 1_556
Fe0 O4 2.042053 1_556
Fe0 O2 2.042977 1_555
Fe0 O3 2.043003 1_555
Fe0 O5 2.044407 1_556
Fe0 O1 2.044441 1_556
Fe1 O0 2.042161 1_555
Fe1 O4 2.042216 1_555
Fe1 O1 2.042863 1_656
Fe1 O5 2.042930 1_556
Fe1 O2 2.044366 1_555
Fe1 O3 2.044380 1_655
Co0 O0 1.962229 1_455
Co0 O4 1.962248 1_555
Co0 O3 1.968774 1_555
Co0 O2 1.968785 1_555
Co0 O5 1.968791 1_455
Co0 O1 1.968798 1_555
