# generated using pymatgen
data_Na3P6(PbO9)2
_symmetry_space_group_name_H-M   'P 1'
_cell_length_a   7.79122300
_cell_length_b   7.80857479
_cell_length_c   8.36413791
_cell_angle_alpha   117.63328113
_cell_angle_beta   102.82009726
_cell_angle_gamma   96.00305948
_symmetry_Int_Tables_number   1
_chemical_formula_structural   Na3P6(PbO9)2
_chemical_formula_sum   'Na3 P6 Pb2 O18'
_cell_volume   426.70929853
_cell_formula_units_Z   1
loop_
 _symmetry_equiv_pos_site_id
 _symmetry_equiv_pos_as_xyz
  1  'x, y, z'
loop_
 _atom_site_type_symbol
 _atom_site_label
 _atom_site_symmetry_multiplicity
 _atom_site_fract_x
 _atom_site_fract_y
 _atom_site_fract_z
 _atom_site_occupancy
  Na  Na0  1  0.32774000  0.18231800  0.46903600  1
  Na  Na1  1  0.67226000  0.81768200  0.53096400  1
  Na  Na2  1  0.00000000  0.50000000  0.00000000  1
  P  P0  1  0.01183900  0.94593300  0.27594900  1
  P  P1  1  0.98816100  0.05406700  0.72405100  1
  P  P2  1  0.25879600  0.69027900  0.64927900  1
  P  P3  1  0.74120400  0.30972100  0.35072100  1
  P  P4  1  0.73471600  0.32853200  0.68650800  1
  P  P5  1  0.26528400  0.67146800  0.31349200  1
  Pb  Pb0  1  0.39637500  0.15214500  0.03200100  1
  Pb  Pb1  1  0.60362500  0.84785500  0.96799900  1
  O  O0  1  0.06789900  0.81561000  0.50608700  1
  O  O1  1  0.93210100  0.18439000  0.49391300  1
  O  O2  1  0.24463100  0.51419300  0.25731000  1
  O  O3  1  0.75536900  0.48580700  0.74269000  1
  O  O4  1  0.80807200  0.96230700  0.20511400  1
  O  O5  1  0.19192800  0.03769300  0.79488600  1
  O  O6  1  0.22916800  0.54464500  0.83107900  1
  O  O7  1  0.77083200  0.45535500  0.16892100  1
  O  O8  1  0.58987500  0.17126900  0.35009600  1
  O  O9  1  0.41012500  0.82873100  0.64990400  1
  O  O10  1  0.28251500  0.57421400  0.53738200  1
  O  O11  1  0.71748500  0.42578600  0.46261800  1
  O  O12  1  0.41719900  0.80932400  0.27904300  1
  O  O13  1  0.58280100  0.19067600  0.72095700  1
  O  O14  1  0.11984700  0.12414200  0.22361500  1
  O  O15  1  0.88015300  0.87585800  0.77638500  1
  O  O16  1  0.07414300  0.79821600  0.21437100  1
  O  O17  1  0.92585700  0.20178400  0.78562900  1
loop_
_geom_bond_atom_site_label_1
_geom_bond_atom_site_label_2
_geom_bond_distance
_geom_bond_site_symmetry_2
Na0 O14 2.132887 1_555
Na0 O8 2.455045 1_555
Na0 O13 2.525927 1_555
Na0 O12 2.849002 1_545
Na1 O15 2.132887 1_555
Na1 O9 2.455045 1_555
Na1 O12 2.525927 1_555
Na1 O13 2.849002 1_565
Na2 O16 2.087364 1_555
Na2 O17 2.087364 1_454
Na2 O3 2.488184 1_454
Na2 O2 2.488184 1_555
Na2 O6 2.598460 1_554
Na2 O7 2.598460 1_455
O0 P1 2.184571 1_465
O0 P2 2.281564 1_555
O1 P0 2.184571 1_645
O1 P3 2.281564 1_555
O2 P5 1.069910 1_555
O3 P4 1.069910 1_555
O4 P0 1.607212 1_655
O4 Pb1 1.981278 1_554
O5 P1 1.607212 1_455
O5 Pb0 1.981278 1_556
O6 P2 2.315955 1_555
O7 P3 2.315955 1_555
O8 P3 1.511413 1_555
O9 P2 1.511413 1_555
O10 P2 1.027831 1_555
O11 P3 1.027831 1_555
O12 P5 1.677877 1_555
O13 P4 1.677877 1_555
O14 P0 1.822021 1_545
O15 P1 1.822021 1_565
O16 P0 1.228152 1_555
O16 P5 2.099094 1_555
O17 P1 1.228152 1_555
O17 P4 2.099094 1_555
