# generated using pymatgen
data_Ca5As3
_symmetry_space_group_name_H-M   'P 1'
_cell_length_a   8.49880806
_cell_length_b   8.49881754
_cell_length_c   6.77257851
_cell_angle_alpha   89.99996679
_cell_angle_beta   90.00006132
_cell_angle_gamma   119.99983966
_symmetry_Int_Tables_number   1
_chemical_formula_structural   Ca5As3
_chemical_formula_sum   'Ca10 As6'
_cell_volume   423.64482756
_cell_formula_units_Z   2
loop_
 _symmetry_equiv_pos_site_id
 _symmetry_equiv_pos_as_xyz
  1  'x, y, z'
loop_
 _atom_site_type_symbol
 _atom_site_label
 _atom_site_symmetry_multiplicity
 _atom_site_fract_x
 _atom_site_fract_y
 _atom_site_fract_z
 _atom_site_occupancy
  Ca  Ca0  1  0.33333276  0.66666619  0.00000005  1
  Ca  Ca1  1  0.66666714  0.33333359  0.50000006  1
  Ca  Ca2  1  0.66666724  0.33333381  -0.00000005  1
  Ca  Ca3  1  0.33333286  0.66666641  0.49999994  1
  Ca  Ca4  1  0.74609989  0.00000032  0.24998663  1
  Ca  Ca5  1  0.74609959  0.74609926  0.75001239  1
  Ca  Ca6  1  0.00000050  0.25390009  0.75001237  1
  Ca  Ca7  1  -0.00000050  0.74609991  0.24998763  1
  Ca  Ca8  1  0.25390041  0.25390074  0.24998761  1
  Ca  Ca9  1  0.25390011  -0.00000032  0.75001337  1
  As  As0  1  0.38917618  -0.00000028  0.24999483  1
  As  As1  1  0.38918227  0.38918632  0.75000257  1
  As  As2  1  -0.00000402  0.61081421  0.75000257  1
  As  As3  1  0.00000402  0.38918579  0.24999743  1
  As  As4  1  0.61081773  0.61081368  0.24999743  1
  As  As5  1  0.61082382  0.00000028  0.75000517  1
loop_
_geom_bond_atom_site_label_1
_geom_bond_atom_site_label_2
_geom_bond_distance
_geom_bond_site_symmetry_2
As0 Ca8 2.908430 1_555
As0 Ca7 2.908434 1_545
As0 Ca4 3.033424 1_555
As0 Ca0 3.126165 1_545
As0 Ca2 3.126174 1_555
As0 Ca3 3.126201 1_545
As0 Ca1 3.126210 1_555
As0 Ca9 3.576013 1_554
As0 Ca9 3.576254 1_555
As1 Ca6 2.908457 1_555
As1 Ca9 2.908506 1_555
As1 Ca5 3.033362 1_555
As1 Ca0 3.126128 1_556
As1 Ca3 3.126146 1_555
As1 Ca2 3.126173 1_556
As1 Ca1 3.126195 1_555
As1 Ca8 3.576060 1_556
As1 Ca8 3.576251 1_555
As2 Ca5 2.908452 1_455
As2 Ca9 2.908500 1_565
As2 Ca6 3.033367 1_555
As2 Ca2 3.126131 1_456
As2 Ca1 3.126149 1_455
As2 Ca0 3.126171 1_556
As2 Ca3 3.126193 1_555
As2 Ca7 3.576060 1_556
As2 Ca7 3.576251 1_555
As3 Ca8 2.908452 1_555
As3 Ca4 2.908500 1_455
As3 Ca7 3.033367 1_555
As3 Ca0 3.126131 1_555
As3 Ca3 3.126149 1_555
As3 Ca2 3.126171 1_455
As3 Ca1 3.126193 1_455
As3 Ca6 3.576060 1_554
As3 Ca6 3.576251 1_555
As4 Ca7 2.908457 1_655
As4 Ca4 2.908506 1_565
As4 Ca8 3.033362 1_555
As4 Ca2 3.126128 1_555
As4 Ca1 3.126146 1_555
As4 Ca0 3.126173 1_555
As4 Ca3 3.126195 1_555
As4 Ca5 3.576060 1_554
As4 Ca5 3.576251 1_555
As5 Ca5 2.908430 1_545
As5 Ca6 2.908434 1_655
As5 Ca9 3.033424 1_555
As5 Ca2 3.126165 1_556
As5 Ca0 3.126174 1_546
As5 Ca1 3.126201 1_555
As5 Ca3 3.126210 1_545
As5 Ca4 3.576013 1_556
As5 Ca4 3.576254 1_555
