# generated using pymatgen
data_V8Ga3(MoS6)4
_symmetry_space_group_name_H-M   'P 1'
_cell_length_a   6.86194700
_cell_length_b   9.75543208
_cell_length_c   11.95411259
_cell_angle_alpha   113.68649307
_cell_angle_beta   106.31526913
_cell_angle_gamma   90.98892869
_symmetry_Int_Tables_number   1
_chemical_formula_structural   V8Ga3(MoS6)4
_chemical_formula_sum   'V8 Ga3 Mo4 S24'
_cell_volume   695.55040237
_cell_formula_units_Z   1
loop_
 _symmetry_equiv_pos_site_id
 _symmetry_equiv_pos_as_xyz
  1  'x, y, z'
loop_
 _atom_site_type_symbol
 _atom_site_label
 _atom_site_symmetry_multiplicity
 _atom_site_fract_x
 _atom_site_fract_y
 _atom_site_fract_z
 _atom_site_occupancy
  V  V0  1  0.41232600  0.80177400  0.80784100  1
  V  V1  1  0.74583100  0.13585000  0.47499200  1
  V  V2  1  0.93067000  0.32377600  0.85999000  1
  V  V3  1  0.27054800  0.66099500  0.52595400  1
  V  V4  1  0.60379500  0.99388300  0.19182500  1
  V  V5  1  0.79104200  0.60576700  0.00114200  1
  V  V6  1  0.12799900  0.94328200  0.66637700  1
  V  V7  1  0.46252500  0.27608900  0.33366500  1
  Ga  Ga0  1  0.00448700  0.00087700  0.99987900  1
  Ga  Ga1  1  0.33805200  0.33525500  0.66725200  1
  Ga  Ga2  1  0.67197500  0.67004300  0.33468400  1
  Mo  Mo0  1  0.20696600  0.60235200  0.00237700  1
  Mo  Mo1  1  0.52969500  0.93121100  0.66653300  1
  Mo  Mo2  1  0.86327500  0.26493800  0.33383000  1
  Mo  Mo3  1  0.07067000  0.46746600  0.13612700  1
  S  S0  1  0.72790300  0.86331600  0.99960200  1
  S  S1  1  0.06078500  0.19765200  0.66673700  1
  S  S2  1  0.39608200  0.53116300  0.33431100  1
  S  S3  1  0.57834600  0.71371700  0.15221000  1
  S  S4  1  0.90865500  0.04453300  0.81742100  1
  S  S5  1  0.24189600  0.37904900  0.48456300  1
  S  S6  1  0.42625200  0.56202500  0.84897900  1
  S  S7  1  0.75738000  0.89550100  0.51608300  1
  S  S8  1  0.09171300  0.22660200  0.18258200  1
  S  S9  1  0.27511600  0.86366200  0.99985200  1
  S  S10  1  0.60678800  0.19621900  0.66636200  1
  S  S11  1  0.93997500  0.53062100  0.33459400  1
  S  S12  1  0.73466800  0.36942300  0.99561700  1
  S  S13  1  0.08442100  0.70911300  0.66702100  1
  S  S14  1  0.41858300  0.04199300  0.33358100  1
  S  S15  1  0.90863300  0.54064300  0.82690800  1
  S  S16  1  0.23389500  0.87228800  0.48886000  1
  S  S17  1  0.56708900  0.20584000  0.15598800  1
  S  S18  1  0.08257200  0.72287600  0.17494900  1
  S  S19  1  0.41118100  0.04910200  0.84395000  1
  S  S20  1  0.74526400  0.38372800  0.51140900  1
  S  S21  1  0.26071100  0.36391000  0.99543400  1
  S  S22  1  0.58975300  0.69490100  0.66679000  1
  S  S23  1  0.92248200  0.02856500  0.33372800  1
loop_
_geom_bond_atom_site_label_1
_geom_bond_atom_site_label_2
_geom_bond_distance
_geom_bond_site_symmetry_2
Ga0 S0 2.303891 1_445
Ga0 S4 2.306786 1_455
Ga0 S9 2.307862 1_545
Ga0 S8 2.309374 1_556
Ga1 S1 2.306618 1_555
Ga1 S10 2.307837 1_555
Ga1 S6 2.309399 1_555
Ga1 S5 2.310198 1_555
Ga2 S7 2.300583 1_555
Ga2 S11 2.306108 1_555
Ga2 S3 2.306774 1_555
Ga2 S2 2.306844 1_555
Mo0 S18 2.332796 1_555
Mo0 S21 2.333528 1_554
Mo0 S15 2.341654 1_454
Mo0 S3 2.580532 1_555
Mo0 S9 2.597419 1_554
Mo0 S6 2.602435 1_554
Mo1 S16 2.349055 1_555
Mo1 S22 2.349906 1_555
Mo1 S19 2.350245 1_565
Mo1 S7 2.625080 1_555
Mo1 S4 2.626981 1_565
Mo1 S10 2.630800 1_565
Mo1 V3 2.745007 1_555
Mo1 V0 2.745826 1_555
Mo1 V6 2.760470 1_555
Mo2 S23 2.347912 1_555
Mo2 S20 2.350882 1_555
Mo2 S17 2.351570 1_555
Mo2 S5 2.625699 1_655
Mo2 S11 2.631726 1_555
Mo2 S8 2.633498 1_655
Mo2 V1 2.742133 1_555
Mo2 V4 2.752601 1_545
Mo2 V7 2.753430 1_555
Mo3 S21 2.337170 1_554
Mo3 S18 2.339424 1_555
Mo3 S12 2.347181 1_454
Mo3 S2 2.604225 1_555
Mo3 S11 2.617767 1_455
Mo3 S8 2.620221 1_555
S0 V0 2.522870 1_555
S0 V4 2.532410 1_556
S0 V5 2.563391 1_556
S1 V1 2.519844 1_455
S1 V6 2.530330 1_545
S1 V2 2.561430 1_455
S2 V3 2.531722 1_555
S2 V7 2.534867 1_555
S3 V5 2.550746 1_555
S3 V4 2.573313 1_555
S4 V2 2.555680 1_555
S4 V6 2.578079 1_645
S5 V3 2.584951 1_555
S5 V7 2.585707 1_555
S6 V5 2.556933 1_556
S6 V0 2.574227 1_555
S7 V6 2.575254 1_655
S7 V1 2.579756 1_565
S8 V7 2.577684 1_555
S9 V4 2.572493 1_556
S9 V0 2.576797 1_555
S10 V2 2.558414 1_555
S10 V1 2.579491 1_555
S11 V3 2.577472 1_655
S12 V2 2.302511 1_555
S12 V5 2.302711 1_556
S13 V3 2.300012 1_555
S13 V0 2.300597 1_555
S13 V6 2.302150 1_555
S14 V7 2.297925 1_555
S14 V1 2.300251 1_555
S14 V4 2.301881 1_545
S15 V5 2.300348 1_556
S15 V2 2.303221 1_555
S16 V3 2.279971 1_555
S16 V6 2.283356 1_555
S17 V4 2.278499 1_545
S17 V7 2.280227 1_555
S18 V5 2.302742 1_455
S19 V0 2.274580 1_545
S19 V6 2.280391 1_545
S20 V1 2.278701 1_555
S20 V7 2.280864 1_555
S21 V2 2.302966 1_455
S22 V0 2.279718 1_555
S22 V3 2.279739 1_555
S23 V1 2.278211 1_555
S23 V4 2.281070 1_545
