# generated using pymatgen
data_Ba2P2O7
_symmetry_space_group_name_H-M   'P 1'
_cell_length_a   5.69576500
_cell_length_b   9.42273500
_cell_length_c   14.02823100
_cell_angle_alpha   90.00000000
_cell_angle_beta   90.00000000
_cell_angle_gamma   90.00000000
_symmetry_Int_Tables_number   1
_chemical_formula_structural   Ba2P2O7
_chemical_formula_sum   'Ba8 P8 O28'
_cell_volume   752.89072790
_cell_formula_units_Z   4
loop_
 _symmetry_equiv_pos_site_id
 _symmetry_equiv_pos_as_xyz
  1  'x, y, z'
loop_
 _atom_site_type_symbol
 _atom_site_label
 _atom_site_symmetry_multiplicity
 _atom_site_fract_x
 _atom_site_fract_y
 _atom_site_fract_z
 _atom_site_occupancy
  Ba  Ba0  1  0.25000000  0.36022700  0.08266300  1
  Ba  Ba1  1  0.25000000  0.86022700  0.41733700  1
  Ba  Ba2  1  0.75000000  0.63977300  0.91733700  1
  Ba  Ba3  1  0.75000000  0.13977300  0.58266300  1
  Ba  Ba4  1  0.25000000  0.34113100  0.75546900  1
  Ba  Ba5  1  0.25000000  0.84113100  0.74453100  1
  Ba  Ba6  1  0.75000000  0.65886900  0.24453100  1
  Ba  Ba7  1  0.75000000  0.15886900  0.25546900  1
  P  P0  1  0.25000000  0.71808800  0.04261300  1
  P  P1  1  0.25000000  0.21808800  0.45738700  1
  P  P2  1  0.75000000  0.28191200  0.95738700  1
  P  P3  1  0.75000000  0.78191200  0.54261300  1
  P  P4  1  0.25000000  0.95272500  0.18519400  1
  P  P5  1  0.25000000  0.45272500  0.31480600  1
  P  P6  1  0.75000000  0.04727500  0.81480600  1
  P  P7  1  0.75000000  0.54727500  0.68519400  1
  O  O0  1  0.02739700  0.64352700  0.07998600  1
  O  O1  1  0.47260300  0.14352700  0.42001400  1
  O  O2  1  0.52739700  0.35647300  0.92001400  1
  O  O3  1  0.97260300  0.85647300  0.57998600  1
  O  O4  1  0.97260300  0.35647300  0.92001400  1
  O  O5  1  0.52739700  0.85647300  0.57998600  1
  O  O6  1  0.47260300  0.64352700  0.07998600  1
  O  O7  1  0.02739700  0.14352700  0.42001400  1
  O  O8  1  0.25000000  0.72773800  0.93326500  1
  O  O9  1  0.25000000  0.22773800  0.56673500  1
  O  O10  1  0.75000000  0.27226200  0.06673500  1
  O  O11  1  0.75000000  0.77226200  0.43326500  1
  O  O12  1  0.25000000  0.88130300  0.07916200  1
  O  O13  1  0.25000000  0.38130300  0.42083800  1
  O  O14  1  0.75000000  0.11869700  0.92083800  1
  O  O15  1  0.75000000  0.61869700  0.57916200  1
  O  O16  1  0.02662700  0.90434500  0.23775700  1
  O  O17  1  0.47337300  0.40434500  0.26224300  1
  O  O18  1  0.52662700  0.09565500  0.76224300  1
  O  O19  1  0.97337300  0.59565500  0.73775700  1
  O  O20  1  0.97337300  0.09565500  0.76224300  1
  O  O21  1  0.52662700  0.59565500  0.73775700  1
  O  O22  1  0.47337300  0.90434500  0.23775700  1
  O  O23  1  0.02662700  0.40434500  0.26224300  1
  O  O24  1  0.25000000  0.11253200  0.16730500  1
  O  O25  1  0.25000000  0.61253200  0.33269500  1
  O  O26  1  0.75000000  0.88746800  0.83269500  1
  O  O27  1  0.75000000  0.38746800  0.66730500  1
loop_
_geom_bond_atom_site_label_1
_geom_bond_atom_site_label_2
_geom_bond_distance
_geom_bond_site_symmetry_2
Ba0 O24 2.618636 1_555
Ba0 O2 2.775548 1_554
Ba0 O4 2.775548 1_454
Ba0 O17 2.852688 1_555
Ba0 O23 2.852688 1_555
Ba0 O6 2.955501 1_555
Ba0 O0 2.955501 1_555
Ba0 O10 2.974456 1_455
Ba0 O10 2.974456 1_555
Ba1 O25 2.618636 1_555
Ba1 O5 2.775548 1_555
Ba1 O3 2.775548 1_455
Ba1 O22 2.852688 1_555
Ba1 O16 2.852688 1_555
Ba1 O1 2.955501 1_565
Ba1 O7 2.955501 1_565
Ba1 O11 2.974456 1_455
Ba1 O11 2.974456 1_555
Ba2 O26 2.618636 1_555
Ba2 O0 2.775548 1_656
Ba2 O6 2.775548 1_556
Ba2 O19 2.852688 1_555
Ba2 O21 2.852688 1_555
Ba2 O2 2.955501 1_555
Ba2 O4 2.955501 1_555
Ba2 O8 2.974456 1_555
Ba2 O8 2.974456 1_655
Ba3 O27 2.618636 1_555
Ba3 O7 2.775548 1_655
Ba3 O1 2.775548 1_555
Ba3 O20 2.852688 1_555
Ba3 O18 2.852688 1_555
Ba3 O3 2.955501 1_545
Ba3 O5 2.955501 1_545
Ba3 O9 2.974456 1_555
Ba3 O9 2.974456 1_655
Ba4 O18 2.800317 1_555
Ba4 O20 2.800317 1_455
Ba4 O4 2.800963 1_455
Ba4 O2 2.800963 1_555
Ba4 O9 2.855073 1_555
Ba4 O21 2.880306 1_555
Ba4 O19 2.880306 1_455
Ba4 O27 3.135396 1_555
Ba4 O27 3.135396 1_455
Ba5 O21 2.800317 1_555
Ba5 O19 2.800317 1_455
Ba5 O5 2.800963 1_555
Ba5 O3 2.800963 1_455
Ba5 O8 2.855073 1_555
Ba5 O18 2.880306 1_565
Ba5 O20 2.880306 1_465
Ba5 O26 3.135396 1_455
Ba5 O26 3.135396 1_555
Ba6 O16 2.800317 1_655
Ba6 O22 2.800317 1_555
Ba6 O0 2.800963 1_655
Ba6 O6 2.800963 1_555
Ba6 O11 2.855073 1_555
Ba6 O23 2.880306 1_655
Ba6 O17 2.880306 1_555
Ba6 O25 3.135396 1_555
Ba6 O25 3.135396 1_655
Ba7 O23 2.800317 1_655
Ba7 O17 2.800317 1_555
Ba7 O7 2.800963 1_655
Ba7 O1 2.800963 1_555
Ba7 O10 2.855073 1_555
Ba7 O16 2.880306 1_645
Ba7 O22 2.880306 1_545
Ba7 O24 3.135396 1_555
Ba7 O24 3.135396 1_655
O0 P0 1.541436 1_555
O1 P1 1.541436 1_555
O2 P2 1.541436 1_555
O3 P3 1.541436 1_555
O4 P2 1.541436 1_555
O5 P3 1.541436 1_555
O6 P0 1.541436 1_555
O7 P1 1.541436 1_555
O8 P0 1.536652 1_556
O9 P1 1.536652 1_555
O10 P2 1.536652 1_554
O11 P3 1.536652 1_555
O12 P0 1.621146 1_555
O12 P4 1.632605 1_555
O13 P1 1.621146 1_555
O13 P5 1.632605 1_555
O14 P2 1.621146 1_555
O14 P6 1.632605 1_555
O15 P3 1.621146 1_555
O15 P7 1.632605 1_555
O16 P4 1.539553 1_555
O17 P5 1.539553 1_555
O18 P6 1.539553 1_555
O19 P7 1.539553 1_555
O20 P6 1.539553 1_555
O21 P7 1.539553 1_555
O22 P4 1.539553 1_555
O23 P5 1.539553 1_555
O24 P4 1.526587 1_545
O25 P5 1.526587 1_555
O26 P6 1.526587 1_565
O27 P7 1.526587 1_555
