# generated using pymatgen
data_AlZnB5H21C6(NO2)5
_symmetry_space_group_name_H-M   'P 1'
_cell_length_a   9.26430079
_cell_length_b   9.26430079
_cell_length_c   15.13097737
_cell_angle_alpha   67.69563721
_cell_angle_beta   67.69563721
_cell_angle_gamma   48.98639460
_symmetry_Int_Tables_number   1
_chemical_formula_structural   AlZnB5H21C6(NO2)5
_chemical_formula_sum   'Al2 Zn2 B10 H42 C12 N10 O20'
_cell_volume   890.61312149
_cell_formula_units_Z   2
loop_
 _symmetry_equiv_pos_site_id
 _symmetry_equiv_pos_as_xyz
  1  'x, y, z'
loop_
 _atom_site_type_symbol
 _atom_site_label
 _atom_site_symmetry_multiplicity
 _atom_site_fract_x
 _atom_site_fract_y
 _atom_site_fract_z
 _atom_site_occupancy
  Al  Al0  1  0.58472800  0.61971100  0.03833700  1
  Al  Al1  1  0.61971100  0.58472800  0.53833700  1
  Zn  Zn0  1  0.85137300  0.93867400  0.72612700  1
  Zn  Zn1  1  0.93867400  0.85137300  0.22612700  1
  B  B0  1  0.44895700  0.52551800  0.92793500  1
  B  B1  1  0.52551800  0.44895700  0.42793500  1
  B  B2  1  0.49202200  0.50768500  0.76168900  1
  B  B3  1  0.50768500  0.49202200  0.26168900  1
  B  B4  1  0.31368900  0.38608500  0.90009500  1
  B  B5  1  0.38608500  0.31368900  0.40009500  1
  B  B6  1  0.03021900  0.36956300  0.97410900  1
  B  B7  1  0.36956300  0.03021900  0.47410900  1
  B  B8  1  0.36503000  0.06354900  0.97533500  1
  B  B9  1  0.06354900  0.36503000  0.47533500  1
  H  H0  1  0.01909700  0.91588900  0.93390500  1
  H  H1  1  0.91588900  0.01909700  0.43390500  1
  H  H2  1  0.80343500  0.13906600  0.89345500  1
  H  H3  1  0.13906600  0.80343500  0.39345500  1
  H  H4  1  0.08313900  0.12271600  0.78547200  1
  H  H5  1  0.12271600  0.08313900  0.28547200  1
  H  H6  1  0.19881500  0.88704100  0.76785000  1
  H  H7  1  0.88704100  0.19881500  0.26785000  1
  H  H8  1  0.40200600  0.08175500  0.77247400  1
  H  H9  1  0.08175500  0.40200600  0.27247400  1
  H  H10  1  0.37318400  0.16075800  0.64840300  1
  H  H11  1  0.16075800  0.37318400  0.14840300  1
  H  H12  1  0.69024200  0.85786500  0.60696800  1
  H  H13  1  0.85786500  0.69024200  0.10696800  1
  H  H14  1  0.54118300  0.80005200  0.70052900  1
  H  H15  1  0.80005200  0.54118300  0.20052900  1
  H  H16  1  0.90518000  0.49791100  0.68634900  1
  H  H17  1  0.49791100  0.90518000  0.18634900  1
  H  H18  1  0.02733100  0.47012600  0.76603800  1
  H  H19  1  0.47012600  0.02733100  0.26603800  1
  H  H20  1  0.20247800  0.48455400  0.59468600  1
  H  H21  1  0.48455400  0.20247800  0.09468600  1
  H  H22  1  0.98788300  0.70596100  0.55787100  1
  H  H23  1  0.70596100  0.98788300  0.05787100  1
  H  H24  1  0.72851100  0.94662300  0.90680200  1
  H  H25  1  0.94662300  0.72851100  0.40680200  1
  H  H26  1  0.95814100  0.74331000  0.89236100  1
  H  H27  1  0.74331000  0.95814100  0.39236100  1
  H  H28  1  0.05006000  0.09887200  0.63196600  1
  H  H29  1  0.09887200  0.05006000  0.13196600  1
  H  H30  1  0.84377900  0.25049700  0.69650200  1
  H  H31  1  0.25049700  0.84377900  0.19650200  1
  H  H32  1  0.51067600  0.26620200  0.71055900  1
  H  H33  1  0.26620200  0.51067600  0.21055900  1
  H  H34  1  0.61043500  0.20457800  0.60270000  1
  H  H35  1  0.20457800  0.61043500  0.10270000  1
  H  H36  1  0.15124300  0.79703700  0.57984100  1
  H  H37  1  0.79703700  0.15124300  0.07984100  1
  H  H38  1  0.20921900  0.64163900  0.68271000  1
  H  H39  1  0.64163900  0.20921900  0.18271000  1
  H  H40  1  0.71131100  0.71126600  0.81376800  1
  H  H41  1  0.71126600  0.71131100  0.31376800  1
  C  C0  1  0.93326300  0.99568100  0.87587100  1
  C  C1  1  0.99568100  0.93326300  0.37587100  1
  C  C2  1  0.05626500  0.02705800  0.77995100  1
  C  C3  1  0.02705800  0.05626500  0.27995100  1
  C  C4  1  0.47960800  0.07381900  0.69668200  1
  C  C5  1  0.07381900  0.47960800  0.19668200  1
  C  C6  1  0.61759700  0.86340800  0.68357800  1
  C  C7  1  0.86340800  0.61759700  0.18357800  1
  C  C8  1  0.94373500  0.56932600  0.70713300  1
  C  C9  1  0.56932600  0.94373500  0.20713300  1
  C  C10  1  0.06587700  0.61823700  0.61898200  1
  C  C11  1  0.61823700  0.06587700  0.11898200  1
  N  N0  1  0.86796500  0.89244000  0.86833000  1
  N  N1  1  0.89244000  0.86796500  0.36833000  1
  N  N2  1  0.95869700  0.10572700  0.69848800  1
  N  N3  1  0.10572700  0.95869700  0.19848800  1
  N  N4  1  0.59029700  0.15027900  0.67571000  1
  N  N5  1  0.15027900  0.59029700  0.17571000  1
  N  N6  1  0.10141900  0.73346800  0.64180600  1
  N  N7  1  0.73346800  0.10141900  0.14180600  1
  N  N8  1  0.76740600  0.74729300  0.74386800  1
  N  N9  1  0.74729300  0.76740600  0.24386800  1
  O  O0  1  0.47672900  0.57336400  0.99072700  1
  O  O1  1  0.57336400  0.47672900  0.49072700  1
  O  O2  1  0.53372100  0.54232100  0.82823200  1
  O  O3  1  0.54232100  0.53372100  0.32823200  1
  O  O4  1  0.56959700  0.53184300  0.66623800  1
  O  O5  1  0.53184300  0.56959700  0.16623800  1
  O  O6  1  0.33545300  0.46275400  0.95978400  1
  O  O7  1  0.46275400  0.33545300  0.45978400  1
  O  O8  1  0.37636200  0.44575600  0.79412700  1
  O  O9  1  0.44575600  0.37636200  0.29412700  1
  O  O10  1  0.10598200  0.47022100  0.91775100  1
  O  O11  1  0.47022100  0.10598200  0.41775100  1
  O  O12  1  0.43604800  0.17014900  0.92495600  1
  O  O13  1  0.17014900  0.43604800  0.42495600  1
  O  O14  1  0.83710200  0.45803200  0.00314300  1
  O  O15  1  0.45803200  0.83710200  0.50314300  1
  O  O16  1  0.16031700  0.16419000  0.00192800  1
  O  O17  1  0.16419000  0.16031700  0.50192800  1
  O  O18  1  0.48793400  0.86708800  0.99993900  1
  O  O19  1  0.86708800  0.48793400  0.49993900  1
loop_
_geom_bond_atom_site_label_1
_geom_bond_atom_site_label_2
_geom_bond_distance
_geom_bond_site_symmetry_2
Al0 O0 1.746459 1_554
Al0 O14 1.748621 1_555
Al0 O18 1.755396 1_554
Al0 O5 1.760023 1_555
Al1 O1 1.746459 1_555
Al1 O15 1.748621 1_555
Al1 O19 1.755396 1_555
Al1 O4 1.760023 1_555
B0 O0 1.349177 1_555
B0 O6 1.371572 1_555
B0 O2 1.414119 1_555
B1 O1 1.349177 1_555
B1 O7 1.371572 1_555
B1 O3 1.414119 1_555
B2 O4 1.352914 1_555
B2 O8 1.382789 1_555
B2 O2 1.403260 1_555
B3 O5 1.352914 1_555
B3 O9 1.382789 1_555
B3 O3 1.403260 1_555
B4 O6 1.474436 1_555
B4 O10 1.476820 1_555
B4 O12 1.484799 1_555
B4 O8 1.501805 1_555
B5 O7 1.474436 1_555
B5 O11 1.476820 1_555
B5 O13 1.484799 1_555
B5 O9 1.501805 1_555
B6 O14 1.348246 1_456
B6 O10 1.374979 1_555
B6 O16 1.420321 1_556
B7 O15 1.348246 1_545
B7 O11 1.374979 1_555
B7 O17 1.420321 1_555
B8 O18 1.354700 1_545
B8 O12 1.374748 1_555
B8 O16 1.418712 1_556
B9 O19 1.354700 1_455
B9 O13 1.374748 1_555
B9 O17 1.418712 1_555
H24 N0 1.029434 1_555
H25 N1 1.029434 1_555
H26 N0 1.036007 1_555
H27 N1 1.036007 1_555
H28 N2 1.031927 1_455
H29 N3 1.031927 1_545
H30 N2 1.026051 1_555
H31 N3 1.026051 1_555
H32 N4 1.034601 1_555
H33 N5 1.034601 1_555
H34 N4 1.026238 1_555
H35 N5 1.026238 1_555
H36 N6 1.023778 1_555
H37 N7 1.023778 1_555
H38 N6 1.028880 1_555
H39 N7 1.028880 1_555
H40 N8 1.021074 1_555
H41 N9 1.021074 1_555
C0 H2 1.100178 1_565
C0 H0 1.102570 1_655
C0 N0 1.479327 1_555
C1 H3 1.100178 1_655
C1 H1 1.102570 1_565
C1 N1 1.479327 1_555
C2 H6 1.099357 1_545
C2 H4 1.102672 1_555
C2 N2 1.471982 1_455
C3 H7 1.099357 1_455
C3 H5 1.102672 1_555
C3 N3 1.471982 1_545
C4 H8 1.098289 1_555
C4 H10 1.101041 1_555
C4 N4 1.479781 1_555
C5 H9 1.098289 1_555
C5 H11 1.101041 1_555
C5 N5 1.479781 1_555
C6 H14 1.097592 1_555
C6 H12 1.098608 1_555
C6 N8 1.473850 1_555
C7 H15 1.097592 1_555
C7 H13 1.098608 1_555
C7 N9 1.473850 1_555
C8 H18 1.098560 1_655
C8 H16 1.103433 1_555
C8 N8 1.472179 1_555
C9 H19 1.098560 1_565
C9 H17 1.103433 1_555
C9 N9 1.472179 1_555
C10 H22 1.097088 1_455
C10 H20 1.098133 1_555
C10 N6 1.481493 1_555
C11 H23 1.097088 1_545
C11 H21 1.098133 1_555
C11 N7 1.481493 1_555
N0 Zn0 2.074092 1_555
N1 Zn1 2.074092 1_555
N2 Zn0 2.184343 1_545
N3 Zn1 2.184343 1_455
N4 Zn0 2.077812 1_545
N5 Zn1 2.077812 1_455
N6 Zn0 2.103770 1_455
N7 Zn1 2.103770 1_545
N8 Zn0 2.260789 1_555
N9 Zn1 2.260789 1_555
