# generated using pymatgen
data_MoW(SeS)2
_symmetry_space_group_name_H-M   'P 1'
_cell_length_a   3.25397747
_cell_length_b   3.25397747
_cell_length_c   36.88029100
_cell_angle_alpha   90.00000000
_cell_angle_beta   90.00000000
_cell_angle_gamma   119.99998924
_symmetry_Int_Tables_number   1
_chemical_formula_structural   MoW(SeS)2
_chemical_formula_sum   'Mo2 W2 Se4 S4'
_cell_volume   338.18481354
_cell_formula_units_Z   2
loop_
 _symmetry_equiv_pos_site_id
 _symmetry_equiv_pos_as_xyz
  1  'x, y, z'
loop_
 _atom_site_type_symbol
 _atom_site_label
 _atom_site_symmetry_multiplicity
 _atom_site_fract_x
 _atom_site_fract_y
 _atom_site_fract_z
 _atom_site_occupancy
  Mo  Mo0  1  0.00000000  0.00000000  0.46967400  1
  Mo  Mo1  1  0.33333300  0.66666700  0.28181300  1
  W  W0  1  0.00000000  0.00000000  0.09391400  1
  W  W1  1  0.33333300  0.66666700  0.65754600  1
  Se  Se0  1  0.00000000  0.00000000  0.32779000  1
  Se  Se1  1  0.00000000  0.00000000  0.70391000  1
  Se  Se2  1  0.00000000  0.00000000  0.23577900  1
  Se  Se3  1  0.00000000  0.00000000  0.61118500  1
  S  S0  1  0.33333300  0.66666700  0.05190600  1
  S  S1  1  0.33333300  0.66666700  0.42777600  1
  S  S2  1  0.33333300  0.66666700  0.13591800  1
  S  S3  1  0.33333300  0.66666700  0.51153700  1
loop_
_geom_bond_atom_site_label_1
_geom_bond_atom_site_label_2
_geom_bond_distance
_geom_bond_site_symmetry_2
Mo0 S3 2.431694 1_545
Mo0 S3 2.431697 1_445
Mo0 S3 2.431697 1_555
Mo0 S1 2.432514 1_545
Mo0 S1 2.432516 1_555
Mo0 S1 2.432516 1_445
Mo1 Se0 2.530743 1_565
Mo1 Se0 2.530746 1_555
Mo1 Se0 2.530746 1_665
Mo1 Se2 2.532152 1_565
Mo1 Se2 2.532155 1_665
Mo1 Se2 2.532155 1_555
Se1 W1 2.540328 1_545
Se1 W1 2.540331 1_555
Se1 W1 2.540331 1_445
Se3 W1 2.540254 1_545
Se3 W1 2.540256 1_445
Se3 W1 2.540256 1_555
S0 W0 2.435093 1_565
S0 W0 2.435095 1_665
S0 W0 2.435095 1_555
S2 W0 2.434999 1_565
S2 W0 2.435002 1_555
S2 W0 2.435002 1_665
