# generated using pymatgen
data_Yb2Mn12P7
_symmetry_space_group_name_H-M   'P 1'
_cell_length_a   9.37797338
_cell_length_b   9.37797338
_cell_length_c   3.51148300
_cell_angle_alpha   90.00000000
_cell_angle_beta   90.00000000
_cell_angle_gamma   119.99999560
_symmetry_Int_Tables_number   1
_chemical_formula_structural   Yb2Mn12P7
_chemical_formula_sum   'Yb2 Mn12 P7'
_cell_volume   267.44791228
_cell_formula_units_Z   1
loop_
 _symmetry_equiv_pos_site_id
 _symmetry_equiv_pos_as_xyz
  1  'x, y, z'
loop_
 _atom_site_type_symbol
 _atom_site_label
 _atom_site_symmetry_multiplicity
 _atom_site_fract_x
 _atom_site_fract_y
 _atom_site_fract_z
 _atom_site_occupancy
  Yb  Yb0  1  0.33333300  0.66666700  0.00000000  1
  Yb  Yb1  1  0.66666700  0.33333300  0.50000000  1
  Mn  Mn0  1  0.62235400  0.57102400  0.00000000  1
  Mn  Mn1  1  0.94867000  0.37764600  0.00000000  1
  Mn  Mn2  1  0.42897600  0.05133000  0.00000000  1
  Mn  Mn3  1  0.11943100  0.84291700  0.00000000  1
  Mn  Mn4  1  0.72348600  0.88056900  0.00000000  1
  Mn  Mn5  1  0.15708300  0.27651400  0.00000000  1
  Mn  Mn6  1  0.04901100  0.61581100  0.50000000  1
  Mn  Mn7  1  0.56680000  0.95098900  0.50000000  1
  Mn  Mn8  1  0.38418900  0.43320000  0.50000000  1
  Mn  Mn9  1  0.86984700  0.77118400  0.50000000  1
  Mn  Mn10  1  0.90133700  0.13015300  0.50000000  1
  Mn  Mn11  1  0.22881600  0.09866300  0.50000000  1
  P  P0  1  0.87828100  0.58881100  0.00000000  1
  P  P1  1  0.71053000  0.12171900  0.00000000  1
  P  P2  1  0.41118900  0.28947000  0.00000000  1
  P  P3  1  0.29073800  0.87521200  0.50000000  1
  P  P4  1  0.58447400  0.70926200  0.50000000  1
  P  P5  1  0.12478800  0.41552600  0.50000000  1
  P  P6  1  0.00000000  0.00000000  0.00000000  1
loop_
_geom_bond_atom_site_label_1
_geom_bond_atom_site_label_2
_geom_bond_distance
_geom_bond_site_symmetry_2
Mn0 P4 2.313003 1_555
Mn0 P4 2.313003 1_554
Mn0 P0 2.321173 1_555
Mn0 P2 2.380029 1_555
Mn1 P5 2.313003 1_655
Mn1 P5 2.313003 1_654
Mn1 P1 2.321173 1_555
Mn1 P0 2.380028 1_555
Mn2 P3 2.313003 1_544
Mn2 P3 2.313003 1_545
Mn2 P2 2.321173 1_555
Mn2 P1 2.380028 1_555
Mn3 P6 2.252655 1_565
Mn3 P3 2.295362 1_554
Mn3 P3 2.295362 1_555
Mn3 P0 2.324632 1_455
Mn4 P6 2.252655 1_665
Mn4 P4 2.295362 1_554
Mn4 P4 2.295362 1_555
Mn4 P1 2.324631 1_565
Mn5 P6 2.252655 1_555
Mn5 P5 2.295362 1_555
Mn5 P5 2.295362 1_554
Mn5 P2 2.324631 1_555
Mn6 P0 2.303228 1_455
Mn6 P0 2.303228 1_456
Mn6 P5 2.316819 1_555
Mn6 P3 2.354163 1_555
Mn7 P1 2.303228 1_566
Mn7 P1 2.303228 1_565
Mn7 P3 2.316819 1_555
Mn7 P4 2.354163 1_555
Mn8 P2 2.303228 1_556
Mn8 P2 2.303228 1_555
Mn8 P4 2.316820 1_555
Mn8 P5 2.354163 1_555
Mn9 P4 2.438295 1_555
Mn9 P0 2.479767 1_556
Mn9 P0 2.479767 1_555
Mn9 P6 2.560834 1_666
Mn9 P6 2.560834 1_665
Mn10 P5 2.438295 1_655
Mn10 P1 2.479767 1_556
Mn10 P1 2.479767 1_555
Mn10 P6 2.560834 1_656
Mn10 P6 2.560834 1_655
Mn11 P3 2.438295 1_545
Mn11 P2 2.479767 1_555
Mn11 P2 2.479767 1_556
Mn11 P6 2.560834 1_555
Mn11 P6 2.560834 1_556
P0 Yb1 2.829569 1_554
P0 Yb1 2.829569 1_555
P1 Yb1 2.829565 1_554
P1 Yb1 2.829565 1_555
P2 Yb1 2.829572 1_554
P2 Yb1 2.829572 1_555
P3 Yb0 2.801481 1_555
P3 Yb0 2.801481 1_556
P4 Yb0 2.801488 1_555
P4 Yb0 2.801488 1_556
P5 Yb0 2.801486 1_555
P5 Yb0 2.801486 1_556
