# generated using pymatgen
data_Rb3Zn(BO2)5
_symmetry_space_group_name_H-M   'P 1'
_cell_length_a   9.54307000
_cell_length_b   10.65567600
_cell_length_c   13.65737228
_cell_angle_alpha   56.73215829
_cell_angle_beta   90.00000000
_cell_angle_gamma   90.00000000
_symmetry_Int_Tables_number   1
_chemical_formula_structural   Rb3Zn(BO2)5
_chemical_formula_sum   'Rb12 Zn4 B20 O40'
_cell_volume   1161.18783039
_cell_formula_units_Z   4
loop_
 _symmetry_equiv_pos_site_id
 _symmetry_equiv_pos_as_xyz
  1  'x, y, z'
loop_
 _atom_site_type_symbol
 _atom_site_label
 _atom_site_symmetry_multiplicity
 _atom_site_fract_x
 _atom_site_fract_y
 _atom_site_fract_z
 _atom_site_occupancy
  Rb  Rb0  1  0.56760900  0.30288300  0.20519000  1
  Rb  Rb1  1  0.93239100  0.30288300  0.70519000  1
  Rb  Rb2  1  0.43239100  0.69711700  0.79481000  1
  Rb  Rb3  1  0.06760900  0.69711700  0.29481000  1
  Rb  Rb4  1  0.66790800  0.55322600  0.39162300  1
  Rb  Rb5  1  0.83209200  0.55322600  0.89162300  1
  Rb  Rb6  1  0.33209200  0.44677400  0.60837700  1
  Rb  Rb7  1  0.16790800  0.44677400  0.10837700  1
  Rb  Rb8  1  0.40774300  0.00168600  0.15768600  1
  Rb  Rb9  1  0.09225700  0.00168600  0.65768600  1
  Rb  Rb10  1  0.59225700  0.99831400  0.84231400  1
  Rb  Rb11  1  0.90774300  0.99831400  0.34231400  1
  Zn  Zn0  1  0.30503600  0.32135900  0.43218500  1
  Zn  Zn1  1  0.19496400  0.32135900  0.93218500  1
  Zn  Zn2  1  0.69496400  0.67864100  0.56781500  1
  Zn  Zn3  1  0.80503600  0.67864100  0.06781500  1
  B  B0  1  0.88319100  0.38096500  0.26993900  1
  B  B1  1  0.61680900  0.38096500  0.76993900  1
  B  B2  1  0.11680900  0.61903500  0.73006100  1
  B  B3  1  0.38319100  0.61903500  0.23006100  1
  B  B4  1  0.30708400  0.07985300  0.39269000  1
  B  B5  1  0.19291600  0.07985300  0.89269000  1
  B  B6  1  0.69291600  0.92014700  0.60731000  1
  B  B7  1  0.80708400  0.92014700  0.10731000  1
  B  B8  1  0.00253700  0.32781700  0.44889400  1
  B  B9  1  0.49746300  0.32781700  0.94889400  1
  B  B10  1  0.99746300  0.67218300  0.55110600  1
  B  B11  1  0.50253700  0.67218300  0.05110600  1
  B  B12  1  0.54136400  0.13689900  0.56060300  1
  B  B13  1  0.95863600  0.13689900  0.06060300  1
  B  B14  1  0.45863600  0.86310100  0.43939700  1
  B  B15  1  0.04136400  0.86310100  0.93939700  1
  B  B16  1  0.78145800  0.18429800  0.46865300  1
  B  B17  1  0.71854200  0.18429800  0.96865300  1
  B  B18  1  0.21854200  0.81570200  0.53134700  1
  B  B19  1  0.28145800  0.81570200  0.03134700  1
  O  O0  1  0.41631800  0.18384200  0.57508200  1
  O  O1  1  0.08368200  0.18384200  0.07508200  1
  O  O2  1  0.58368200  0.81615800  0.42491800  1
  O  O3  1  0.91631800  0.81615800  0.92491800  1
  O  O4  1  0.29859700  0.23055300  0.33950600  1
  O  O5  1  0.20140300  0.23055300  0.83950600  1
  O  O6  1  0.70140300  0.76944700  0.66049400  1
  O  O7  1  0.79859700  0.76944700  0.16049400  1
  O  O8  1  0.60930400  0.23822200  0.01572800  1
  O  O9  1  0.89069600  0.23822200  0.51572800  1
  O  O10  1  0.39069600  0.76177800  0.98427200  1
  O  O11  1  0.10930400  0.76177800  0.48427200  1
  O  O12  1  0.80605300  0.25112200  0.34134800  1
  O  O13  1  0.69394700  0.25112200  0.84134800  1
  O  O14  1  0.19394700  0.74887800  0.65865200  1
  O  O15  1  0.30605300  0.74887800  0.15865200  1
  O  O16  1  0.42383800  0.01892600  0.36718500  1
  O  O17  1  0.07616200  0.01892600  0.86718500  1
  O  O18  1  0.57616200  0.98107400  0.63281500  1
  O  O19  1  0.92383800  0.98107400  0.13281500  1
  O  O20  1  0.12120800  0.33415800  0.49971800  1
  O  O21  1  0.37879200  0.33415800  0.99971800  1
  O  O22  1  0.87879200  0.66584200  0.50028200  1
  O  O23  1  0.62120800  0.66584200  0.00028200  1
  O  O24  1  0.29352700  0.98063900  0.96945400  1
  O  O25  1  0.20647300  0.98063900  0.46945400  1
  O  O26  1  0.70647300  0.01936100  0.03054600  1
  O  O27  1  0.79352700  0.01936100  0.53054600  1
  O  O28  1  0.48670300  0.58322100  0.17468300  1
  O  O29  1  0.01329700  0.58322100  0.67468300  1
  O  O30  1  0.51329700  0.41677900  0.82531700  1
  O  O31  1  0.98670300  0.41677900  0.32531700  1
  O  O32  1  0.36659700  0.53389300  0.34713000  1
  O  O33  1  0.13340300  0.53389300  0.84713000  1
  O  O34  1  0.63340300  0.46610700  0.65287000  1
  O  O35  1  0.86659700  0.46610700  0.15287000  1
  O  O36  1  0.64196000  0.23247800  0.48157500  1
  O  O37  1  0.85804000  0.23247800  0.98157500  1
  O  O38  1  0.35804000  0.76752200  0.51842500  1
  O  O39  1  0.14196000  0.76752200  0.01842500  1
loop_
_geom_bond_atom_site_label_1
_geom_bond_atom_site_label_2
_geom_bond_distance
_geom_bond_site_symmetry_2
B0 O35 1.346512 1_555
B0 O12 1.388132 1_555
B0 O31 1.417780 1_555
B1 O34 1.346512 1_555
B1 O13 1.388132 1_555
B1 O30 1.417780 1_555
B2 O33 1.346512 1_555
B2 O14 1.388132 1_555
B2 O29 1.417780 1_555
B3 O32 1.346512 1_555
B3 O15 1.388132 1_555
B3 O28 1.417780 1_555
B4 O4 1.353930 1_555
B4 O25 1.386603 1_545
B4 O16 1.425603 1_555
B5 O5 1.353930 1_555
B5 O24 1.386603 1_545
B5 O17 1.425603 1_555
B6 O6 1.353930 1_555
B6 O27 1.386603 1_565
B6 O18 1.425603 1_555
B7 O7 1.353930 1_555
B7 O26 1.386603 1_565
B7 O19 1.425603 1_555
B8 O20 1.349203 1_555
B8 O9 1.388417 1_455
B8 O31 1.419383 1_455
B9 O21 1.349203 1_555
B9 O8 1.388417 1_556
B9 O30 1.419383 1_555
B10 O22 1.349203 1_555
B10 O11 1.388417 1_655
B10 O29 1.419383 1_655
B11 O23 1.349203 1_555
B11 O10 1.388417 1_554
B11 O28 1.419383 1_555
B12 O0 1.349760 1_555
B12 O36 1.384842 1_555
B12 O18 1.429457 1_545
B13 O1 1.349760 1_655
B13 O37 1.384842 1_554
B13 O19 1.429457 1_545
B14 O2 1.349760 1_555
B14 O38 1.384842 1_555
B14 O16 1.429457 1_565
B15 O3 1.349760 1_455
B15 O39 1.384842 1_556
B15 O17 1.429457 1_565
B16 O36 1.471841 1_555
B16 O27 1.478772 1_555
B16 O12 1.492242 1_555
B16 O9 1.495171 1_555
B17 O37 1.471841 1_555
B17 O26 1.478772 1_556
B17 O13 1.492242 1_555
B17 O8 1.495171 1_556
B18 O38 1.471841 1_555
B18 O25 1.478772 1_555
B18 O14 1.492242 1_555
B18 O11 1.495171 1_555
B19 O39 1.471841 1_555
B19 O24 1.478772 1_554
B19 O15 1.492242 1_555
B19 O10 1.495171 1_554
O0 Zn0 1.986524 1_555
O0 Rb6 3.178076 1_555
O1 Zn1 1.986524 1_554
O1 Rb7 3.178076 1_555
O2 Zn2 1.986524 1_555
O2 Rb4 3.178076 1_555
O3 Zn3 1.986524 1_556
O3 Rb5 3.178076 1_555
O4 Zn0 1.971249 1_555
O4 Rb7 2.974722 1_555
O4 Rb0 2.999743 1_555
O5 Zn1 1.971249 1_555
O5 Rb6 2.974722 1_555
O5 Rb1 2.999743 1_455
O6 Zn2 1.971249 1_555
O6 Rb5 2.974722 1_555
O6 Rb2 2.999743 1_555
O7 Zn3 1.971249 1_555
O7 Rb4 2.974722 1_555
O7 Rb3 2.999743 1_655
O8 Rb8 2.906940 1_555
O8 Rb0 3.047040 1_555
O9 Rb9 2.906940 1_655
O9 Rb1 3.047040 1_555
O10 Rb10 2.906940 1_555
O10 Rb2 3.047040 1_555
O11 Rb11 2.906940 1_455
O11 Rb3 3.047040 1_555
O12 Rb0 2.795493 1_555
O12 Rb11 2.856519 1_545
O13 Rb1 2.795493 1_555
O13 Rb10 2.856519 1_545
O14 Rb2 2.795493 1_555
O14 Rb9 2.856519 1_565
O15 Rb3 2.795493 1_555
O15 Rb8 2.856519 1_565
O16 Rb0 2.930551 1_555
O16 Rb8 2.969931 1_555
O17 Rb1 2.930551 1_455
O17 Rb9 2.969931 1_555
O18 Rb2 2.930551 1_555
O18 Rb10 2.969931 1_555
O19 Rb3 2.930551 1_655
O19 Rb11 2.969931 1_555
O20 Zn0 2.021087 1_555
O20 Rb9 2.982665 1_555
O20 Rb6 3.105809 1_555
O20 Rb1 3.194790 1_455
O20 Rb3 3.343192 1_555
O21 Zn1 2.021087 1_555
O21 Rb8 2.982665 1_556
O21 Rb7 3.105809 1_556
O21 Rb0 3.194790 1_556
O21 Rb2 3.343192 1_555
O22 Zn2 2.021087 1_555
O22 Rb11 2.982665 1_555
O22 Rb4 3.105809 1_555
O22 Rb3 3.194790 1_655
O22 Rb1 3.343192 1_555
O23 Zn3 2.021087 1_555
O23 Rb10 2.982665 1_554
O23 Rb5 3.105809 1_554
O23 Rb2 3.194790 1_554
O23 Rb0 3.343192 1_555
O24 Rb8 2.911983 1_566
O24 Rb10 3.289199 1_555
O25 Rb9 2.911983 1_565
O25 Rb11 3.289199 1_455
O26 Rb10 2.911983 1_544
O26 Rb8 3.289199 1_555
O27 Rb11 2.911983 1_545
O27 Rb9 3.289199 1_655
O28 Rb0 2.885753 1_555
O28 Rb4 3.291186 1_555
O29 Rb1 2.885753 1_455
O29 Rb5 3.291186 1_455
O30 Rb2 2.885753 1_555
O30 Rb6 3.291186 1_555
O31 Rb3 2.885753 1_655
O31 Rb7 3.291186 1_655
O32 Zn0 1.984227 1_555
O32 Rb4 2.969366 1_555
O32 Rb6 3.172796 1_555
O32 Rb3 3.211425 1_555
O33 Zn1 1.984227 1_555
O33 Rb5 2.969366 1_455
O33 Rb7 3.172796 1_556
O33 Rb2 3.211425 1_555
O34 Zn2 1.984227 1_555
O34 Rb6 2.969366 1_555
O34 Rb4 3.172796 1_555
O34 Rb1 3.211425 1_555
O35 Zn3 1.984227 1_555
O35 Rb7 2.969366 1_655
O35 Rb5 3.172796 1_554
O35 Rb0 3.211425 1_555
O36 Rb4 2.940290 1_555
O36 Rb0 3.493960 1_555
O37 Rb5 2.940290 1_555
O37 Rb1 3.493960 1_555
O38 Rb6 2.940290 1_555
O38 Rb2 3.493960 1_555
O39 Rb7 2.940290 1_555
O39 Rb3 3.493960 1_555
