# generated using pymatgen
data_Mg3Zr
_symmetry_space_group_name_H-M   'P 1'
_cell_length_a   6.31690065
_cell_length_b   6.31690065
_cell_length_c   5.01102942
_cell_angle_alpha   90.00000000
_cell_angle_beta   90.00000000
_cell_angle_gamma   120.00000556
_symmetry_Int_Tables_number   1
_chemical_formula_structural   Mg3Zr
_chemical_formula_sum   'Mg6 Zr2'
_cell_volume   173.16720729
_cell_formula_units_Z   2
loop_
 _symmetry_equiv_pos_site_id
 _symmetry_equiv_pos_as_xyz
  1  'x, y, z'
loop_
 _atom_site_type_symbol
 _atom_site_label
 _atom_site_symmetry_multiplicity
 _atom_site_fract_x
 _atom_site_fract_y
 _atom_site_fract_z
 _atom_site_occupancy
  Mg  Mg0  1  0.33358736  0.16679418  0.25000000  1
  Mg  Mg1  1  0.83320582  0.16679418  0.25000000  1
  Mg  Mg2  1  0.83320582  0.66641264  0.25000000  1
  Mg  Mg3  1  0.66641264  0.83320582  0.75000000  1
  Mg  Mg4  1  0.16679418  0.33358736  0.75000000  1
  Mg  Mg5  1  0.16679418  0.83320582  0.75000000  1
  Zr  Zr0  1  0.33333300  0.66666700  0.25000000  1
  Zr  Zr1  1  0.66666700  0.33333300  0.75000000  1
loop_
_geom_bond_atom_site_label_1
_geom_bond_atom_site_label_2
_geom_bond_distance
_geom_bond_site_symmetry_2
Mg0 Zr1 3.098034 1_555
Mg0 Zr1 3.098034 1_554
Mg0 Mg4 3.099665 1_555
Mg0 Mg4 3.099665 1_554
Mg0 Mg5 3.099671 1_544
Mg0 Mg5 3.099671 1_545
Mg0 Mg2 3.156040 1_555
Mg0 Mg1 3.156040 1_555
Mg0 Zr0 3.158451 1_545
Mg0 Zr0 3.158451 1_555
Mg0 Mg2 3.160860 1_445
Mg0 Mg1 3.160860 1_455
Mg1 Zr1 3.098027 1_555
Mg1 Zr1 3.098027 1_554
Mg1 Mg3 3.099671 1_545
Mg1 Mg3 3.099671 1_544
Mg1 Mg4 3.099671 1_655
Mg1 Mg4 3.099671 1_654
Mg1 Mg2 3.156040 1_555
Mg1 Zr0 3.158450 1_545
Mg1 Zr0 3.158450 1_655
Mg1 Mg2 3.160860 1_545
Mg2 Zr1 3.098034 1_555
Mg2 Zr1 3.098034 1_554
Mg2 Mg3 3.099665 1_555
Mg2 Mg3 3.099665 1_554
Mg2 Mg5 3.099671 1_655
Mg2 Mg5 3.099671 1_654
Mg2 Zr0 3.158451 1_655
Mg2 Zr0 3.158451 1_555
Mg3 Zr0 3.098034 1_556
Mg3 Zr0 3.098034 1_555
Mg3 Mg4 3.156040 1_555
Mg3 Mg5 3.156040 1_555
Mg3 Zr1 3.158451 1_565
Mg3 Zr1 3.158451 1_555
Mg3 Mg4 3.160860 1_665
Mg3 Mg5 3.160860 1_655
Mg4 Zr0 3.098034 1_556
Mg4 Zr0 3.098034 1_555
Mg4 Mg5 3.156040 1_555
Mg4 Zr1 3.158451 1_455
Mg4 Zr1 3.158451 1_555
Mg4 Mg5 3.160860 1_545
Mg5 Zr0 3.098027 1_556
Mg5 Zr0 3.098027 1_555
Mg5 Zr1 3.158450 1_455
Mg5 Zr1 3.158450 1_565
