# generated using pymatgen
data_LiSn2N3
_symmetry_space_group_name_H-M   'P 1'
_cell_length_a   6.04332664
_cell_length_b   6.04332664
_cell_length_c   5.54641600
_cell_angle_alpha   90.00000000
_cell_angle_beta   90.00000000
_cell_angle_gamma   120.61420105
_symmetry_Int_Tables_number   1
_chemical_formula_structural   LiSn2N3
_chemical_formula_sum   'Li2 Sn4 N6'
_cell_volume   174.33071378
_cell_formula_units_Z   2
loop_
 _symmetry_equiv_pos_site_id
 _symmetry_equiv_pos_as_xyz
  1  'x, y, z'
loop_
 _atom_site_type_symbol
 _atom_site_label
 _atom_site_symmetry_multiplicity
 _atom_site_fract_x
 _atom_site_fract_y
 _atom_site_fract_z
 _atom_site_occupancy
  Li  Li0  1  0.65862600  0.65862600  0.99411500  1
  Li  Li1  1  0.34137400  0.34137400  0.49411500  1
  Sn  Sn0  1  0.01435900  0.33566300  0.99116100  1
  Sn  Sn1  1  0.33566300  0.01435900  0.99116100  1
  Sn  Sn2  1  0.98564100  0.66433700  0.49116100  1
  Sn  Sn3  1  0.66433700  0.98564100  0.49116100  1
  N  N0  1  0.98284500  0.33304000  0.37033500  1
  N  N1  1  0.33304000  0.98284500  0.37033500  1
  N  N2  1  0.01715500  0.66696000  0.87033500  1
  N  N3  1  0.66696000  0.01715500  0.87033500  1
  N  N4  1  0.67317700  0.67317700  0.37089400  1
  N  N5  1  0.32682300  0.32682300  0.87089400  1
loop_
_geom_bond_atom_site_label_1
_geom_bond_atom_site_label_2
_geom_bond_distance
_geom_bond_site_symmetry_2
Li0 N4 2.091588 1_556
Li0 N5 2.100824 1_555
Li0 N3 2.248854 1_565
Li0 N2 2.248854 1_655
Li1 N5 2.091588 1_555
Li1 N4 2.100824 1_555
Li1 N0 2.248854 1_455
Li1 N1 2.248854 1_545
N0 Sn2 2.103207 1_555
N0 Sn3 2.108531 1_545
N0 Sn0 2.110994 1_654
N1 Sn3 2.103207 1_555
N1 Sn2 2.108531 1_455
N1 Sn1 2.110994 1_564
N2 Sn0 2.103207 1_555
N2 Sn1 2.108531 1_565
N2 Sn2 2.110994 1_455
N3 Sn1 2.103207 1_555
N3 Sn0 2.108531 1_655
N3 Sn3 2.110994 1_545
N4 Sn2 2.028871 1_555
N4 Sn3 2.028871 1_555
N5 Sn0 2.028871 1_555
N5 Sn1 2.028871 1_555
