# generated using pymatgen
data_Ba4USe6
_symmetry_space_group_name_H-M   'P 1'
_cell_length_a   9.07254468
_cell_length_b   9.07254468
_cell_length_c   9.07254564
_cell_angle_alpha   89.47564794
_cell_angle_beta   89.47564794
_cell_angle_gamma   89.47565155
_symmetry_Int_Tables_number   1
_chemical_formula_structural   Ba4USe6
_chemical_formula_sum   'Ba8 U2 Se12'
_cell_volume   746.67766559
_cell_formula_units_Z   2
loop_
 _symmetry_equiv_pos_site_id
 _symmetry_equiv_pos_as_xyz
  1  'x, y, z'
loop_
 _atom_site_type_symbol
 _atom_site_label
 _atom_site_symmetry_multiplicity
 _atom_site_fract_x
 _atom_site_fract_y
 _atom_site_fract_z
 _atom_site_occupancy
  Ba  Ba0  1  0.87559613  0.62440387  0.25000000  1
  Ba  Ba1  1  0.25000000  0.87559613  0.62440387  1
  Ba  Ba2  1  0.62440387  0.25000000  0.87559613  1
  Ba  Ba3  1  0.75000000  0.12440387  0.37559613  1
  Ba  Ba4  1  0.37559613  0.75000000  0.12440387  1
  Ba  Ba5  1  0.12440387  0.37559613  0.75000000  1
  Ba  Ba6  1  0.25000000  0.25000000  0.25000000  1
  Ba  Ba7  1  0.75000000  0.75000000  0.75000000  1
  U  U0  1  0.50000000  0.50000000  0.50000000  1
  U  U1  1  0.00000000  0.00000000  0.00000000  1
  Se  Se0  1  0.20182688  0.56104966  0.42327138  1
  Se  Se1  1  0.42327138  0.20182688  0.56104966  1
  Se  Se2  1  0.56104966  0.42327138  0.20182688  1
  Se  Se3  1  0.92327138  0.06104966  0.70182688  1
  Se  Se4  1  0.70182688  0.92327138  0.06104966  1
  Se  Se5  1  0.06104966  0.70182688  0.92327138  1
  Se  Se6  1  0.79817312  0.43895034  0.57672862  1
  Se  Se7  1  0.57672862  0.79817312  0.43895034  1
  Se  Se8  1  0.43895034  0.57672862  0.79817312  1
  Se  Se9  1  0.07672862  0.93895034  0.29817312  1
  Se  Se10  1  0.29817312  0.07672862  0.93895034  1
  Se  Se11  1  0.93895034  0.29817312  0.07672862  1
loop_
_geom_bond_atom_site_label_1
_geom_bond_atom_site_label_2
_geom_bond_distance
_geom_bond_site_symmetry_2
Ba0 Se11 3.405754 1_555
Ba0 Se0 3.405754 1_655
Ba0 Se9 3.434735 1_655
Ba0 Se2 3.434735 1_555
Ba0 Se5 3.464592 1_654
Ba0 Se6 3.464592 1_555
Ba0 Se4 3.558434 1_555
Ba0 Se7 3.558434 1_555
Ba1 Se1 3.405754 1_565
Ba1 Se9 3.405755 1_555
Ba1 Se0 3.434735 1_555
Ba1 Se10 3.434735 1_565
Ba1 Se3 3.464592 1_465
Ba1 Se7 3.464592 1_555
Ba1 Se8 3.558434 1_555
Ba1 Se5 3.558434 1_555
Ba2 Se10 3.405754 1_555
Ba2 Se2 3.405755 1_556
Ba2 Se11 3.434735 1_556
Ba2 Se1 3.434735 1_555
Ba2 Se8 3.464592 1_555
Ba2 Se4 3.464592 1_546
Ba2 Se3 3.558434 1_555
Ba2 Se6 3.558434 1_555
Ba3 Se7 3.405754 1_545
Ba3 Se3 3.405755 1_555
Ba3 Se6 3.434735 1_555
Ba3 Se4 3.434735 1_545
Ba3 Se9 3.464592 1_645
Ba3 Se1 3.464592 1_555
Ba3 Se2 3.558434 1_555
Ba3 Se11 3.558434 1_555
Ba4 Se4 3.405754 1_555
Ba4 Se8 3.405755 1_554
Ba4 Se5 3.434735 1_554
Ba4 Se7 3.434735 1_555
Ba4 Se2 3.464592 1_555
Ba4 Se10 3.464592 1_564
Ba4 Se9 3.558434 1_555
Ba4 Se0 3.558434 1_555
Ba5 Se6 3.405754 1_455
Ba5 Se5 3.405754 1_555
Ba5 Se3 3.434735 1_455
Ba5 Se8 3.434735 1_555
Ba5 Se11 3.464592 1_456
Ba5 Se0 3.464592 1_555
Ba5 Se1 3.558434 1_555
Ba5 Se10 3.558434 1_555
Ba6 Se9 3.266808 1_545
Ba6 Se2 3.266808 1_555
Ba6 Se0 3.266808 1_555
Ba6 Se11 3.266808 1_455
Ba6 Se10 3.266809 1_554
Ba6 Se1 3.266809 1_555
Ba7 Se3 3.266808 1_565
Ba7 Se8 3.266808 1_555
Ba7 Se5 3.266808 1_655
Ba7 Se6 3.266808 1_555
Ba7 Se4 3.266809 1_556
Ba7 Se7 3.266809 1_555
Se0 U0 2.847701 1_555
Se1 U0 2.847701 1_555
Se2 U0 2.847701 1_555
Se3 U1 2.847701 1_656
Se4 U1 2.847701 1_665
Se5 U1 2.847701 1_566
Se6 U0 2.847701 1_555
Se7 U0 2.847701 1_555
Se8 U0 2.847701 1_555
Se9 U1 2.847701 1_565
Se10 U1 2.847701 1_556
Se11 U1 2.847701 1_655
