# generated using pymatgen
data_Ba3Yb(BO2)9
_symmetry_space_group_name_H-M   'P 1'
_cell_length_a   7.29011903
_cell_length_b   7.29011903
_cell_length_c   17.52993700
_cell_angle_alpha   90.00000000
_cell_angle_beta   90.00000000
_cell_angle_gamma   119.99999122
_symmetry_Int_Tables_number   1
_chemical_formula_structural   Ba3Yb(BO2)9
_chemical_formula_sum   'Ba6 Yb2 B18 O36'
_cell_volume   806.82670511
_cell_formula_units_Z   2
loop_
 _symmetry_equiv_pos_site_id
 _symmetry_equiv_pos_as_xyz
  1  'x, y, z'
loop_
 _atom_site_type_symbol
 _atom_site_label
 _atom_site_symmetry_multiplicity
 _atom_site_fract_x
 _atom_site_fract_y
 _atom_site_fract_z
 _atom_site_occupancy
  Ba  Ba0  1  0.66666700  0.33333300  0.86818000  1
  Ba  Ba1  1  0.33333300  0.66666700  0.13182000  1
  Ba  Ba2  1  0.33333300  0.66666700  0.36818000  1
  Ba  Ba3  1  0.66666700  0.33333300  0.63182000  1
  Ba  Ba4  1  0.00000000  0.00000000  0.75000000  1
  Ba  Ba5  1  0.00000000  0.00000000  0.25000000  1
  Yb  Yb0  1  0.00000000  0.00000000  0.00000000  1
  Yb  Yb1  1  0.00000000  0.00000000  0.50000000  1
  B  B0  1  0.54976300  0.83501300  0.91795500  1
  B  B1  1  0.45023700  0.16498700  0.08204500  1
  B  B2  1  0.28525000  0.45023700  0.91795500  1
  B  B3  1  0.45023700  0.16498700  0.41795500  1
  B  B4  1  0.71475000  0.54976300  0.08204500  1
  B  B5  1  0.54976300  0.83501300  0.58204500  1
  B  B6  1  0.16498700  0.71475000  0.91795500  1
  B  B7  1  0.71475000  0.54976300  0.41795500  1
  B  B8  1  0.83501300  0.28525000  0.08204500  1
  B  B9  1  0.28525000  0.45023700  0.58204500  1
  B  B10  1  0.83501300  0.28525000  0.41795500  1
  B  B11  1  0.16498700  0.71475000  0.58204500  1
  B  B12  1  0.50427400  0.62197700  0.75000000  1
  B  B13  1  0.49572600  0.37802300  0.25000000  1
  B  B14  1  0.11770300  0.49572600  0.75000000  1
  B  B15  1  0.88229700  0.50427400  0.25000000  1
  B  B16  1  0.37802300  0.88229700  0.75000000  1
  B  B17  1  0.62197700  0.11770300  0.25000000  1
  O  O0  1  0.54139000  0.83248400  0.75000000  1
  O  O1  1  0.45861000  0.16751600  0.25000000  1
  O  O2  1  0.29109500  0.45861000  0.75000000  1
  O  O3  1  0.70890500  0.54139000  0.25000000  1
  O  O4  1  0.16751600  0.70890500  0.75000000  1
  O  O5  1  0.83248400  0.29109500  0.25000000  1
  O  O6  1  0.92052400  0.33351500  0.75000000  1
  O  O7  1  0.07947600  0.66648500  0.25000000  1
  O  O8  1  0.41299100  0.07947600  0.75000000  1
  O  O9  1  0.58700900  0.92052400  0.25000000  1
  O  O10  1  0.66648500  0.58700900  0.75000000  1
  O  O11  1  0.33351500  0.41299100  0.25000000  1
  O  O12  1  0.74713600  0.99577800  0.91705200  1
  O  O13  1  0.25286400  0.00422200  0.08294800  1
  O  O14  1  0.24864200  0.25286400  0.91705200  1
  O  O15  1  0.25286400  0.00422200  0.41705200  1
  O  O16  1  0.75135800  0.74713600  0.08294800  1
  O  O17  1  0.74713600  0.99577800  0.58294800  1
  O  O18  1  0.00422200  0.75135800  0.91705200  1
  O  O19  1  0.75135800  0.74713600  0.41705200  1
  O  O20  1  0.99577800  0.24864200  0.08294800  1
  O  O21  1  0.24864200  0.25286400  0.58294800  1
  O  O22  1  0.99577800  0.24864200  0.41705200  1
  O  O23  1  0.00422200  0.75135800  0.58294800  1
  O  O24  1  0.49721200  0.62060200  0.91846700  1
  O  O25  1  0.50278800  0.37939800  0.08153300  1
  O  O26  1  0.12339000  0.50278800  0.91846700  1
  O  O27  1  0.50278800  0.37939800  0.41846700  1
  O  O28  1  0.87661000  0.49721200  0.08153300  1
  O  O29  1  0.49721200  0.62060200  0.58153300  1
  O  O30  1  0.37939800  0.87661000  0.91846700  1
  O  O31  1  0.87661000  0.49721200  0.41846700  1
  O  O32  1  0.62060200  0.12339000  0.08153300  1
  O  O33  1  0.12339000  0.50278800  0.58153300  1
  O  O34  1  0.62060200  0.12339000  0.41846700  1
  O  O35  1  0.37939800  0.87661000  0.58153300  1
loop_
_geom_bond_atom_site_label_1
_geom_bond_atom_site_label_2
_geom_bond_distance
_geom_bond_site_symmetry_2
Ba0 O6 2.777469 1_555
Ba0 O8 2.777472 1_555
Ba0 O10 2.777474 1_555
Ba0 O12 2.928704 1_545
Ba0 O18 2.928709 1_655
Ba0 O14 2.928711 1_555
Ba0 O26 3.045654 1_655
Ba0 O30 3.045655 1_545
Ba0 O24 3.045660 1_555
Ba1 O7 2.777469 1_555
Ba1 O9 2.777472 1_555
Ba1 O11 2.777474 1_555
Ba1 O13 2.928704 1_565
Ba1 O20 2.928709 1_455
Ba1 O16 2.928711 1_555
Ba1 O28 3.045654 1_455
Ba1 O32 3.045655 1_565
Ba1 O25 3.045660 1_555
Ba2 O7 2.777469 1_555
Ba2 O9 2.777472 1_555
Ba2 O11 2.777474 1_555
Ba2 O15 2.928704 1_565
Ba2 O22 2.928709 1_455
Ba2 O19 2.928711 1_555
Ba2 O31 3.045654 1_455
Ba2 O34 3.045655 1_565
Ba2 O27 3.045660 1_555
Ba3 O6 2.777469 1_555
Ba3 O8 2.777472 1_555
Ba3 O10 2.777474 1_555
Ba3 O17 2.928704 1_545
Ba3 O23 2.928709 1_655
Ba3 O21 2.928711 1_555
Ba3 O33 3.045654 1_655
Ba3 O35 3.045655 1_545
Ba3 O29 3.045660 1_555
Ba4 O6 2.766935 1_455
Ba4 O8 2.766935 1_555
Ba4 O10 2.766936 1_445
Ba4 O0 2.930231 1_445
Ba4 O2 2.930232 1_555
Ba4 O4 2.930238 1_545
Ba5 O7 2.766935 1_545
Ba5 O9 2.766935 1_445
Ba5 O11 2.766936 1_555
Ba5 O1 2.930231 1_555
Ba5 O3 2.930232 1_445
Ba5 O5 2.930238 1_455
B0 O12 1.325831 1_555
B0 O24 1.411117 1_555
B0 O30 1.418162 1_555
B1 O13 1.325831 1_555
B1 O25 1.411117 1_555
B1 O32 1.418162 1_555
B2 O14 1.325831 1_555
B2 O26 1.411117 1_555
B2 O24 1.418162 1_555
B3 O15 1.325831 1_555
B3 O27 1.411117 1_555
B3 O34 1.418162 1_555
B4 O16 1.325831 1_555
B4 O28 1.411117 1_555
B4 O25 1.418162 1_555
B5 O17 1.325831 1_555
B5 O29 1.411117 1_555
B5 O35 1.418162 1_555
B6 O18 1.325831 1_555
B6 O30 1.411117 1_555
B6 O26 1.418162 1_555
B7 O19 1.325831 1_555
B7 O31 1.411117 1_555
B7 O27 1.418162 1_555
B8 O20 1.325831 1_555
B8 O32 1.411117 1_555
B8 O28 1.418162 1_555
B9 O21 1.325831 1_555
B9 O33 1.411117 1_555
B9 O29 1.418162 1_555
B10 O22 1.325831 1_555
B10 O34 1.411117 1_555
B10 O31 1.418162 1_555
B11 O23 1.325831 1_555
B11 O35 1.411117 1_555
B11 O33 1.418162 1_555
B12 O10 1.328470 1_555
B12 O2 1.408100 1_555
B12 O0 1.418816 1_555
B13 O11 1.328470 1_555
B13 O3 1.408100 1_555
B13 O1 1.418816 1_555
B14 O6 1.328470 1_455
B14 O4 1.408098 1_555
B14 O2 1.418823 1_555
B15 O7 1.328470 1_655
B15 O5 1.408098 1_555
B15 O3 1.418823 1_555
B16 O8 1.328470 1_565
B16 O0 1.408105 1_555
B16 O4 1.418818 1_555
B17 O9 1.328470 1_545
B17 O1 1.408105 1_555
B17 O5 1.418818 1_555
O12 Yb0 2.335957 1_666
O13 Yb0 2.335957 1_555
O14 Yb0 2.335957 1_556
O15 Yb1 2.335957 1_555
O16 Yb0 2.335957 1_665
O17 Yb1 2.335957 1_665
O18 Yb0 2.335957 1_566
O19 Yb1 2.335957 1_665
O20 Yb0 2.335957 1_655
O21 Yb1 2.335957 1_555
O22 Yb1 2.335957 1_655
O23 Yb1 2.335957 1_565
