# generated using pymatgen
data_Li6Mn3V(PO4)6
_symmetry_space_group_name_H-M   'P 1'
_cell_length_a   8.60455800
_cell_length_b   8.71745837
_cell_length_c   12.36639760
_cell_angle_alpha   89.40782514
_cell_angle_beta   88.15418677
_cell_angle_gamma   89.34976539
_symmetry_Int_Tables_number   1
_chemical_formula_structural   Li6Mn3V(PO4)6
_chemical_formula_sum   'Li12 Mn6 V2 P12 O48'
_cell_volume   927.01481309
_cell_formula_units_Z   2
loop_
 _symmetry_equiv_pos_site_id
 _symmetry_equiv_pos_as_xyz
  1  'x, y, z'
loop_
 _atom_site_type_symbol
 _atom_site_label
 _atom_site_symmetry_multiplicity
 _atom_site_fract_x
 _atom_site_fract_y
 _atom_site_fract_z
 _atom_site_occupancy
  Li  Li0  1  0.07722500  0.08863000  0.30285600  1
  Li  Li1  1  0.07379600  0.69246500  0.23871600  1
  Li  Li2  1  0.21136700  0.77790800  0.82583400  1
  Li  Li3  1  0.28908600  0.28173900  0.67478300  1
  Li  Li4  1  0.41710100  0.19803600  0.25808800  1
  Li  Li5  1  0.41820500  0.58457400  0.19525800  1
  Li  Li6  1  0.58314700  0.41508700  0.80446900  1
  Li  Li7  1  0.58151100  0.80418500  0.73848200  1
  Li  Li8  1  0.70668400  0.71674200  0.32652800  1
  Li  Li9  1  0.79342500  0.21821200  0.17142400  1
  Li  Li10  1  0.92170200  0.30527300  0.76259200  1
  Li  Li11  1  0.92036000  0.91790700  0.69897300  1
  Mn  Mn0  1  0.24731200  0.53807100  0.39889000  1
  Mn  Mn1  1  0.24922800  0.45685400  0.89124000  1
  Mn  Mn2  1  0.25183600  0.95919700  0.60985300  1
  Mn  Mn3  1  0.75312800  0.53987700  0.10818700  1
  Mn  Mn4  1  0.74875900  0.96282900  0.89740300  1
  Mn  Mn5  1  0.75038200  0.46309000  0.60142500  1
  V  V0  1  0.25205500  0.03014500  0.10659100  1
  V  V1  1  0.74663200  0.04260200  0.38903700  1
  P  P0  1  0.03759900  0.25576800  0.50371500  1
  P  P1  1  0.10341200  0.38617100  0.13947700  1
  P  P2  1  0.10252400  0.09673000  0.84728400  1
  P  P3  1  0.39965100  0.59663400  0.65586300  1
  P  P4  1  0.39395300  0.88410200  0.35611200  1
  P  P5  1  0.46666800  0.75036800  0.99394600  1
  P  P6  1  0.53884900  0.24557900  0.00448000  1
  P  P7  1  0.60287400  0.11650400  0.64272300  1
  P  P8  1  0.60000400  0.40027900  0.34493100  1
  P  P9  1  0.89651700  0.89971100  0.15558000  1
  P  P10  1  0.89904200  0.61523900  0.86117600  1
  P  P11  1  0.96071800  0.75210300  0.49618600  1
  O  O0  1  0.04712500  0.86563400  0.56825700  1
  O  O1  1  0.07825300  0.88943400  0.14910000  1
  O  O2  1  0.06955500  0.68436000  0.40475800  1
  O  O3  1  0.07665700  0.59173900  0.83538100  1
  O  O4  1  0.09985400  0.37682300  0.42152000  1
  O  O5  1  0.14119700  0.21830400  0.17810600  1
  O  O6  1  0.13445600  0.39517200  0.01642300  1
  O  O7  1  0.14316900  0.97379700  0.75682900  1
  O  O8  1  0.14973600  0.25749200  0.80550300  1
  O  O9  1  0.17091700  0.17935800  0.56387700  1
  O  O10  1  0.17546800  0.04446000  0.95145200  1
  O  O11  1  0.19579900  0.50726000  0.20015200  1
  O  O12  1  0.30133300  0.00205800  0.28647700  1
  O  O13  1  0.32794200  0.54269500  0.55333600  1
  O  O14  1  0.33337900  0.67585800  0.93571800  1
  O  O15  1  0.35064600  0.75880900  0.69400200  1
  O  O16  1  0.35707000  0.90501700  0.47760400  1
  O  O17  1  0.35828000  0.71432100  0.32340600  1
  O  O18  1  0.36039900  0.47421900  0.74714700  1
  O  O19  1  0.40220600  0.86830200  0.07586900  1
  O  O20  1  0.42961700  0.17838200  0.09516700  1
  O  O21  1  0.41772600  0.39064300  0.34978100  1
  O  O22  1  0.42592200  0.09544600  0.66690400  1
  O  O23  1  0.45089300  0.36572600  0.93409000  1
  O  O24  1  0.55383200  0.63068400  0.06462900  1
  O  O25  1  0.57024000  0.90627300  0.33390800  1
  O  O26  1  0.58246500  0.60452500  0.65076800  1
  O  O27  1  0.57555300  0.81969900  0.90325800  1
  O  O28  1  0.59863900  0.12631500  0.92097800  1
  O  O29  1  0.63823800  0.51924900  0.25161200  1
  O  O30  1  0.64109400  0.28507600  0.67772000  1
  O  O31  1  0.64007900  0.10008300  0.52135200  1
  O  O32  1  0.65351900  0.23667000  0.30912900  1
  O  O33  1  0.67481900  0.31976000  0.06038600  1
  O  O34  1  0.67155600  0.45806600  0.44633100  1
  O  O35  1  0.69707300  0.99549100  0.70616700  1
  O  O36  1  0.80548500  0.49506300  0.80068400  1
  O  O37  1  0.82199900  0.95529400  0.05346700  1
  O  O38  1  0.82771600  0.83437100  0.43614600  1
  O  O39  1  0.84607900  0.74011300  0.19802700  1
  O  O40  1  0.86174900  0.02430600  0.24512600  1
  O  O41  1  0.86850200  0.60732700  0.98443000  1
  O  O42  1  0.86223400  0.78416600  0.82288000  1
  O  O43  1  0.89264800  0.63132000  0.57492900  1
  O  O44  1  0.92537600  0.40869900  0.16476300  1
  O  O45  1  0.92797100  0.32423100  0.59512400  1
  O  O46  1  0.91960000  0.10435700  0.85172500  1
  O  O47  1  0.95118100  0.14094400  0.43350000  1
loop_
_geom_bond_atom_site_label_1
_geom_bond_atom_site_label_2
_geom_bond_distance
_geom_bond_site_symmetry_2
Li0 O5 1.970833 1_555
Li0 O47 1.971169 1_455
Li0 O12 2.067385 1_555
Li0 O40 2.092568 1_455
Li1 O11 1.970110 1_555
Li1 O1 2.034057 1_555
Li1 O2 2.052990 1_555
Li1 O39 2.075019 1_455
Li2 O14 1.945730 1_555
Li2 O7 1.991989 1_555
Li2 O15 1.999255 1_555
Li2 O3 2.005315 1_555
Li3 O9 1.961427 1_555
Li3 O8 1.992335 1_555
Li3 O22 1.996411 1_555
Li3 O18 2.020542 1_555
Li4 O12 2.009468 1_555
Li4 O20 2.023090 1_555
Li4 O21 2.035909 1_555
Li4 O32 2.180082 1_555
Li5 O24 2.002203 1_555
Li5 O17 2.006918 1_555
Li5 O11 2.034982 1_555
Li5 O29 2.108747 1_555
Li5 O21 2.538204 1_555
Li6 O23 1.982159 1_555
Li6 O30 1.990856 1_555
Li6 O36 2.042577 1_555
Li6 O18 2.121155 1_555
Li6 O26 2.505114 1_555
Li7 O35 1.981904 1_555
Li7 O27 2.042521 1_555
Li7 O26 2.060150 1_555
Li7 O15 2.120826 1_555
Li8 O39 1.970136 1_555
Li8 O25 2.017113 1_555
Li8 O38 2.029182 1_555
Li8 O29 2.064054 1_555
Li9 O33 1.937869 1_555
Li9 O40 2.003443 1_555
Li9 O44 2.021702 1_555
Li9 O32 2.060151 1_555
Li10 O36 1.976722 1_555
Li10 O46 2.059731 1_555
Li10 O45 2.074872 1_555
Li10 O8 2.085427 1_655
Li11 O42 1.970852 1_555
Li11 O0 1.975041 1_655
Li11 O35 2.029143 1_555
Li11 O7 2.131103 1_655
Li11 O46 2.504514 1_565
Mn0 O4 1.916661 1_555
Mn0 O2 1.980277 1_555
Mn0 O21 2.021555 1_555
Mn0 O17 2.022369 1_555
Mn0 O13 2.053880 1_555
Mn0 O11 2.528891 1_555
Mn1 O6 1.886073 1_556
Mn1 O23 1.985490 1_555
Mn1 O18 2.000267 1_555
Mn1 O3 2.018510 1_555
Mn1 O14 2.133179 1_555
Mn1 O8 2.237802 1_555
Mn2 O16 1.904871 1_555
Mn2 O7 2.021539 1_555
Mn2 O0 2.032782 1_555
Mn2 O22 2.068351 1_565
Mn2 O9 2.112858 1_565
Mn2 O15 2.200690 1_555
Mn3 O41 1.889512 1_554
Mn3 O24 1.969110 1_555
Mn3 O44 2.001411 1_555
Mn3 O29 2.009962 1_555
Mn3 O33 2.136337 1_555
Mn3 O39 2.247211 1_555
Mn4 O28 1.930600 1_565
Mn4 O27 1.953621 1_555
Mn4 O46 1.993854 1_565
Mn4 O42 2.040986 1_555
Mn4 O37 2.049624 1_556
Mn4 O35 2.433634 1_555
Mn5 O45 1.938733 1_555
Mn5 O43 1.939479 1_555
Mn5 O26 1.974445 1_555
Mn5 O30 2.031837 1_555
Mn5 O34 2.055899 1_555
Mn5 O36 2.542994 1_555
O0 P11 1.550567 1_455
O1 P9 1.564827 1_455
O1 V0 1.998786 1_565
O2 P11 1.561135 1_455
O3 P10 1.562773 1_455
O4 P0 1.545754 1_555
O5 P1 1.568478 1_555
O5 V0 2.079095 1_555
O6 P1 1.537858 1_555
O7 P2 1.585281 1_565
O8 P2 1.542869 1_555
O9 P0 1.529881 1_555
O10 P2 1.514744 1_555
O10 V0 2.050649 1_556
O11 P1 1.543713 1_555
O12 P4 1.562481 1_545
O12 V0 2.288116 1_555
O13 P3 1.509525 1_555
O14 P5 1.528248 1_555
O15 P3 1.544794 1_555
O16 P4 1.537809 1_555
O17 P4 1.574503 1_555
O18 P3 1.576676 1_555
O19 P5 1.537321 1_554
O19 V0 1.934469 1_565
O20 P6 1.554110 1_555
O20 V0 2.012785 1_555
O21 P8 1.570804 1_555
O22 P7 1.554763 1_555
O23 P6 1.559840 1_556
O24 P5 1.555870 1_554
O25 P4 1.546731 1_555
O25 V1 2.074888 1_565
O26 P3 1.574522 1_555
O27 P5 1.559475 1_555
O28 P6 1.545231 1_556
O29 P8 1.572943 1_555
O30 P7 1.577412 1_555
O31 P7 1.532381 1_555
O31 V1 1.918049 1_555
O32 P8 1.557970 1_555
O32 V1 2.113339 1_555
O33 P6 1.530845 1_555
O34 P8 1.508327 1_555
O35 P7 1.545914 1_565
O36 P10 1.542504 1_555
O37 P9 1.507634 1_555
O38 P11 1.549326 1_555
O38 V1 2.024069 1_565
O39 P9 1.543862 1_555
O40 P9 1.578486 1_545
O40 V1 2.015565 1_555
O41 P10 1.539304 1_555
O42 P10 1.574117 1_555
O43 P11 1.534922 1_555
O44 P1 1.564197 1_655
O45 P0 1.567257 1_655
O46 P2 1.573843 1_655
O47 P0 1.544436 1_655
O47 V1 2.059467 1_555
