# generated using pymatgen
data_Lu2(SO5)3
_symmetry_space_group_name_H-M   'P 1'
_cell_length_a   11.57513353
_cell_length_b   11.57513353
_cell_length_c   9.39390900
_cell_angle_alpha   90.00000000
_cell_angle_beta   90.00000000
_cell_angle_gamma   106.92456451
_symmetry_Int_Tables_number   1
_chemical_formula_structural   Lu2(SO5)3
_chemical_formula_sum   'Lu8 S12 O60'
_cell_volume   1204.11810596
_cell_formula_units_Z   4
loop_
 _symmetry_equiv_pos_site_id
 _symmetry_equiv_pos_as_xyz
  1  'x, y, z'
loop_
 _atom_site_type_symbol
 _atom_site_label
 _atom_site_symmetry_multiplicity
 _atom_site_fract_x
 _atom_site_fract_y
 _atom_site_fract_z
 _atom_site_occupancy
  Lu  Lu0  1  0.36897100  0.63102900  0.49945900  1
  Lu  Lu1  1  0.63102900  0.36897100  0.99945900  1
  Lu  Lu2  1  0.89885300  0.10114700  0.50832200  1
  Lu  Lu3  1  0.10114700  0.89885300  0.00832200  1
  Lu  Lu4  1  0.47706200  0.15242400  0.55114400  1
  Lu  Lu5  1  0.84757600  0.52293800  0.55114400  1
  Lu  Lu6  1  0.52293800  0.84757600  0.05114400  1
  Lu  Lu7  1  0.15242400  0.47706200  0.05114400  1
  S  S0  1  0.59209800  0.91184000  0.42378700  1
  S  S1  1  0.08816000  0.40790200  0.42378700  1
  S  S2  1  0.40790200  0.08816000  0.92378700  1
  S  S3  1  0.91184000  0.59209800  0.92378700  1
  S  S4  1  0.24371800  0.75628200  0.23290400  1
  S  S5  1  0.75628200  0.24371800  0.73290400  1
  S  S6  1  0.99877500  0.00122500  0.26261200  1
  S  S7  1  0.00122500  0.99877500  0.76261200  1
  S  S8  1  0.71364700  0.28635300  0.32493500  1
  S  S9  1  0.28635300  0.71364700  0.82493600  1
  S  S10  1  0.46028400  0.53971600  0.16145300  1
  S  S11  1  0.53971600  0.46028400  0.66145300  1
  O  O0  1  0.51659400  0.98994200  0.47043100  1
  O  O1  1  0.01005800  0.48340600  0.47043100  1
  O  O2  1  0.48340600  0.01005800  0.97043100  1
  O  O3  1  0.98994200  0.51659400  0.97043100  1
  O  O4  1  0.53420800  0.78764900  0.47787000  1
  O  O5  1  0.21235100  0.46579200  0.47787000  1
  O  O6  1  0.46579200  0.21235100  0.97787000  1
  O  O7  1  0.78764900  0.53420800  0.97787000  1
  O  O8  1  0.71575300  0.95914200  0.48057000  1
  O  O9  1  0.04085800  0.28424700  0.48057000  1
  O  O10  1  0.28424700  0.04085800  0.98057000  1
  O  O11  1  0.95914200  0.71575300  0.98057000  1
  O  O12  1  0.59728300  0.90953000  0.26567200  1
  O  O13  1  0.09047000  0.40271700  0.26567200  1
  O  O14  1  0.40271700  0.09047000  0.76567200  1
  O  O15  1  0.90953000  0.59728300  0.76567200  1
  O  O16  1  0.26350300  0.73649700  0.38490800  1
  O  O17  1  0.73649700  0.26350300  0.88490800  1
  O  O18  1  0.16557700  0.83442300  0.21197900  1
  O  O19  1  0.83442300  0.16557700  0.71197900  1
  O  O20  1  0.18710200  0.63825300  0.16509400  1
  O  O21  1  0.36174700  0.81289800  0.16509400  1
  O  O22  1  0.81289800  0.36174700  0.66509400  1
  O  O23  1  0.63825300  0.18710200  0.66509400  1
  O  O24  1  0.91857000  0.08143000  0.25801800  1
  O  O25  1  0.08143000  0.91857000  0.75801800  1
  O  O26  1  0.01424400  0.98575600  0.41869100  1
  O  O27  1  0.98575600  0.01424400  0.91869100  1
  O  O28  1  0.11608700  0.05457100  0.18889600  1
  O  O29  1  0.94542900  0.88391300  0.18889600  1
  O  O30  1  0.88391300  0.94542900  0.68889600  1
  O  O31  1  0.05457100  0.11608700  0.68889600  1
  O  O32  1  0.78632300  0.21367700  0.38499100  1
  O  O33  1  0.21367700  0.78632300  0.88499100  1
  O  O34  1  0.71386800  0.28613200  0.16745000  1
  O  O35  1  0.28613200  0.71386800  0.66745000  1
  O  O36  1  0.58566100  0.23992400  0.37251200  1
  O  O37  1  0.76007600  0.41433900  0.37251200  1
  O  O38  1  0.41433900  0.76007600  0.87251200  1
  O  O39  1  0.23992400  0.58566100  0.87251200  1
  O  O40  1  0.44072400  0.55927600  0.31470100  1
  O  O41  1  0.55927600  0.44072400  0.81470100  1
  O  O42  1  0.53968200  0.46031900  0.14653300  1
  O  O43  1  0.46031800  0.53968200  0.64653300  1
  O  O44  1  0.52031600  0.65791900  0.09368300  1
  O  O45  1  0.34208100  0.47968400  0.09368300  1
  O  O46  1  0.47968400  0.34208100  0.59368300  1
  O  O47  1  0.65791900  0.52031600  0.59368300  1
  O  O48  1  0.24613200  0.02206600  0.53540500  1
  O  O49  1  0.97793400  0.75386800  0.53540500  1
  O  O50  1  0.75386800  0.97793400  0.03540500  1
  O  O51  1  0.02206600  0.24613200  0.03540500  1
  O  O52  1  0.37260200  0.11182700  0.33950200  1
  O  O53  1  0.88817300  0.62739800  0.33950200  1
  O  O54  1  0.62739800  0.88817300  0.83950200  1
  O  O55  1  0.11182700  0.37260200  0.83950200  1
  O  O56  1  0.23715300  0.12447100  0.55100500  1
  O  O57  1  0.87552900  0.76284700  0.55100500  1
  O  O58  1  0.76284700  0.87552900  0.05100500  1
  O  O59  1  0.12447100  0.23715300  0.05100500  1
loop_
_geom_bond_atom_site_label_1
_geom_bond_atom_site_label_2
_geom_bond_distance
_geom_bond_site_symmetry_2
Lu0 O40 2.189421 1_555
Lu0 O43 2.189917 1_555
Lu0 O35 2.205576 1_555
Lu0 O4 2.228700 1_555
Lu0 O5 2.228700 1_555
Lu0 O16 2.237502 1_555
Lu1 O41 2.189421 1_555
Lu1 O42 2.189924 1_556
Lu1 O34 2.205576 1_556
Lu1 O7 2.228700 1_555
Lu1 O6 2.228700 1_555
Lu1 O17 2.237502 1_555
Lu2 O19 2.257501 1_555
Lu2 O9 2.287657 1_655
Lu2 O8 2.287657 1_545
Lu2 O26 2.305567 1_645
Lu2 O24 2.379762 1_555
Lu2 O32 2.392354 1_555
Lu2 O31 2.444319 1_655
Lu2 O30 2.444319 1_545
Lu3 O18 2.257501 1_555
Lu3 O10 2.287657 1_564
Lu3 O11 2.287657 1_454
Lu3 O27 2.305567 1_464
Lu3 O25 2.379762 1_554
Lu3 O33 2.392354 1_554
Lu3 O28 2.444319 1_565
Lu3 O29 2.444319 1_455
Lu4 O23 2.086179 1_555
Lu4 O36 2.163463 1_555
Lu4 O0 2.196033 1_545
Lu4 O46 2.222876 1_555
Lu4 O14 2.226382 1_555
Lu4 O52 2.303203 1_555
Lu4 O48 2.663739 1_555
Lu4 O56 2.700586 1_555
Lu5 O22 2.086179 1_555
Lu5 O37 2.163463 1_555
Lu5 O1 2.196033 1_655
Lu5 O47 2.222876 1_555
Lu5 O15 2.226382 1_555
Lu5 O53 2.303203 1_555
Lu5 O49 2.663739 1_555
Lu5 O57 2.700586 1_555
Lu6 O21 2.086179 1_555
Lu6 O38 2.163463 1_554
Lu6 O2 2.196033 1_564
Lu6 O44 2.222876 1_555
Lu6 O12 2.226382 1_555
Lu6 O54 2.303203 1_554
Lu6 O50 2.663739 1_555
Lu6 O58 2.700586 1_555
Lu7 O20 2.086179 1_555
Lu7 O39 2.163463 1_554
Lu7 O3 2.196033 1_454
Lu7 O45 2.222876 1_555
Lu7 O13 2.226382 1_555
Lu7 O55 2.303203 1_554
Lu7 O51 2.663739 1_555
Lu7 O59 2.700586 1_555
O0 S0 1.494364 1_555
O1 S1 1.494364 1_555
O2 S2 1.494364 1_555
O3 S3 1.494364 1_555
O4 S0 1.487541 1_555
O5 S1 1.487541 1_555
O6 S2 1.487541 1_555
O7 S3 1.487541 1_555
O8 S0 1.475371 1_555
O9 S1 1.475371 1_555
O10 S2 1.475371 1_555
O11 S3 1.475371 1_555
O12 S0 1.487085 1_555
O13 S1 1.487085 1_555
O14 S2 1.487085 1_555
O15 S3 1.487085 1_555
O16 S4 1.474572 1_555
O17 S5 1.474572 1_555
O18 S4 1.466688 1_555
O19 S5 1.466688 1_555
O20 S4 1.476640 1_555
O21 S4 1.476640 1_555
O22 S5 1.476640 1_555
O23 S5 1.476640 1_555
O24 S6 1.492472 1_555
O25 S7 1.492472 1_555
O26 S6 1.494158 1_465
O27 S7 1.494158 1_645
O28 S6 1.488802 1_455
O29 S6 1.488802 1_565
O30 S7 1.488802 1_655
O31 S7 1.488802 1_545
O32 S8 1.464805 1_555
O33 S9 1.464801 1_555
O34 S8 1.479405 1_555
O35 S9 1.479415 1_555
O36 S8 1.489877 1_555
O37 S8 1.489877 1_555
O38 S9 1.489874 1_555
O39 S9 1.489874 1_555
O40 S10 1.484860 1_555
O41 S11 1.484860 1_555
O42 S10 1.483464 1_555
O43 S11 1.483473 1_555
O44 S10 1.485468 1_555
O45 S10 1.485468 1_555
O46 S11 1.485468 1_555
O47 S11 1.485468 1_555
O48 O56 1.228440 1_555
O49 O57 1.228440 1_555
O50 O58 1.228440 1_555
O51 O59 1.228440 1_555
