# generated using pymatgen
data_Mg3B2Rh5
_symmetry_space_group_name_H-M   'P 1'
_cell_length_a   9.42160435
_cell_length_b   9.42160435
_cell_length_c   2.93630343
_cell_angle_alpha   90.00000000
_cell_angle_beta   90.00000000
_cell_angle_gamma   90.00000000
_symmetry_Int_Tables_number   1
_chemical_formula_structural   Mg3B2Rh5
_chemical_formula_sum   'Mg6 B4 Rh10'
_cell_volume   260.64575582
_cell_formula_units_Z   2
loop_
 _symmetry_equiv_pos_site_id
 _symmetry_equiv_pos_as_xyz
  1  'x, y, z'
loop_
 _atom_site_type_symbol
 _atom_site_label
 _atom_site_symmetry_multiplicity
 _atom_site_fract_x
 _atom_site_fract_y
 _atom_site_fract_z
 _atom_site_occupancy
  Mg  Mg0  1  0.67746160  0.17746160  -0.00000000  1
  Mg  Mg1  1  0.32253840  0.82253840  0.00000000  1
  Mg  Mg2  1  0.17746160  0.32253840  0.00000000  1
  Mg  Mg3  1  0.82253840  0.67746160  -0.00000000  1
  Mg  Mg4  1  -0.00000000  0.00000000  -0.00000000  1
  Mg  Mg5  1  0.50000000  0.50000000  -0.00000000  1
  B  B0  1  0.12578166  0.62578166  -0.00000000  1
  B  B1  1  0.87421834  0.37421834  0.00000000  1
  B  B2  1  0.62578166  0.87421834  0.00000000  1
  B  B3  1  0.37421834  0.12578166  -0.00000000  1
  Rh  Rh0  1  0.50000000  0.00000000  0.50000000  1
  Rh  Rh1  1  -0.00000000  0.50000000  0.50000000  1
  Rh  Rh2  1  0.22061304  0.07070191  0.50000000  1
  Rh  Rh3  1  0.77938696  0.92929809  0.50000000  1
  Rh  Rh4  1  0.07070191  0.77938696  0.50000000  1
  Rh  Rh5  1  0.72061304  0.42929809  0.50000000  1
  Rh  Rh6  1  0.92929809  0.22061304  0.50000000  1
  Rh  Rh7  1  0.27938696  0.57070191  0.50000000  1
  Rh  Rh8  1  0.57070191  0.72061304  0.50000000  1
  Rh  Rh9  1  0.42929809  0.27938696  0.50000000  1
loop_
_geom_bond_atom_site_label_1
_geom_bond_atom_site_label_2
_geom_bond_distance
_geom_bond_site_symmetry_2
Mg0 Rh0 2.783246 1_555
Mg0 Rh0 2.783246 1_554
Mg0 Rh6 2.819660 1_555
Mg0 Rh6 2.819660 1_554
Mg0 Rh5 2.819660 1_554
Mg0 Rh5 2.819660 1_555
Mg0 Rh9 2.923072 1_554
Mg0 Rh9 2.923072 1_555
Mg0 Rh3 2.923072 1_545
Mg0 Rh3 2.923072 1_544
Mg1 Rh0 2.783246 1_565
Mg1 Rh0 2.783246 1_564
Mg1 Rh7 2.819660 1_555
Mg1 Rh4 2.819660 1_554
Mg1 Rh7 2.819660 1_554
Mg1 Rh4 2.819660 1_555
Mg1 Rh2 2.923072 1_564
Mg1 Rh2 2.923072 1_565
Mg1 Rh8 2.923072 1_555
Mg1 Rh8 2.923072 1_554
Mg2 Rh1 2.783246 1_554
Mg2 Rh1 2.783246 1_555
Mg2 Rh2 2.819660 1_554
Mg2 Rh2 2.819660 1_555
Mg2 Rh9 2.819660 1_554
Mg2 Rh9 2.819660 1_555
Mg2 Rh6 2.923072 1_455
Mg2 Rh7 2.923072 1_554
Mg2 Rh6 2.923072 1_454
Mg2 Rh7 2.923072 1_555
Mg3 Rh1 2.783246 1_655
Mg3 Rh1 2.783246 1_654
Mg3 Rh3 2.819660 1_554
Mg3 Rh8 2.819660 1_555
Mg3 Rh8 2.819660 1_554
Mg3 Rh3 2.819660 1_555
Mg3 Rh4 2.923072 1_655
Mg3 Rh4 2.923072 1_654
Mg3 Rh5 2.923072 1_554
Mg3 Rh5 2.923072 1_555
Mg4 Rh2 2.630489 1_555
Mg4 Rh6 2.630489 1_455
Mg4 Rh6 2.630489 1_454
Mg4 Rh2 2.630489 1_554
Mg4 Rh4 2.630489 1_544
Mg4 Rh4 2.630489 1_545
Mg4 Rh3 2.630489 1_444
Mg4 Rh3 2.630489 1_445
Mg5 Rh9 2.630489 1_555
Mg5 Rh7 2.630489 1_555
Mg5 Rh7 2.630489 1_554
Mg5 Rh9 2.630489 1_554
Mg5 Rh8 2.630489 1_554
Mg5 Rh5 2.630489 1_554
Mg5 Rh5 2.630489 1_555
Mg5 Rh8 2.630489 1_555
B0 Rh4 2.125836 1_555
B0 Rh4 2.125836 1_554
B0 Rh7 2.125836 1_555
B0 Rh7 2.125836 1_554
B0 Rh1 2.228055 1_555
B0 Rh1 2.228055 1_554
B0 Mg1 2.621618 1_555
B1 Rh6 2.125836 1_555
B1 Rh5 2.125836 1_554
B1 Rh5 2.125836 1_555
B1 Rh6 2.125836 1_554
B1 Rh1 2.228055 1_654
B1 Rh1 2.228055 1_655
B1 Mg0 2.621618 1_555
B2 Rh3 2.125836 1_555
B2 Rh8 2.125836 1_554
B2 Rh8 2.125836 1_555
B2 Rh3 2.125836 1_554
B2 Rh0 2.228055 1_564
B2 Rh0 2.228055 1_565
B2 Mg3 2.621618 1_555
B3 Rh2 2.125836 1_554
B3 Rh2 2.125836 1_555
B3 Rh9 2.125836 1_555
B3 Rh9 2.125836 1_554
B3 Rh0 2.228055 1_555
B3 Rh0 2.228055 1_554
B3 Mg2 2.621618 1_555
