# generated using pymatgen
data_Ce(Al2Fe)4
_symmetry_space_group_name_H-M   'P 1'
_cell_length_a   4.97354386
_cell_length_b   6.69075923
_cell_length_c   6.69064545
_cell_angle_alpha   82.05490109
_cell_angle_beta   68.19070997
_cell_angle_gamma   68.19185976
_symmetry_Int_Tables_number   1
_chemical_formula_structural   Ce(Al2Fe)4
_chemical_formula_sum   'Ce1 Al8 Fe4'
_cell_volume   191.91417784
_cell_formula_units_Z   1
loop_
 _symmetry_equiv_pos_site_id
 _symmetry_equiv_pos_as_xyz
  1  'x, y, z'
loop_
 _atom_site_type_symbol
 _atom_site_label
 _atom_site_symmetry_multiplicity
 _atom_site_fract_x
 _atom_site_fract_y
 _atom_site_fract_z
 _atom_site_occupancy
  Ce  Ce0  1  -0.00000000  -0.00000000  0.00000000  1
  Al  Al0  1  0.34490766  0.65501275  0.65497996  1
  Al  Al1  1  0.00002302  0.34491180  0.65507603  1
  Al  Al2  1  -0.00002302  0.65508820  0.34492397  1
  Al  Al3  1  0.65509234  0.34498725  0.34502004  1
  Al  Al4  1  0.27509120  0.22507307  0.22510348  1
  Al  Al5  1  0.49998382  0.77503289  0.22499779  1
  Al  Al6  1  0.50001618  0.22496711  0.77500221  1
  Al  Al7  1  0.72490880  0.77492693  0.77489652  1
  Fe  Fe0  1  -0.00000000  -0.00000000  0.50000000  1
  Fe  Fe1  1  0.50000000  -0.00000000  0.50000000  1
  Fe  Fe2  1  -0.00000000  0.50000000  0.00000000  1
  Fe  Fe3  1  0.50000000  0.50000000  0.00000000  1
loop_
_geom_bond_atom_site_label_1
_geom_bond_atom_site_label_2
_geom_bond_distance
_geom_bond_site_symmetry_2
Ce0 Fe0 3.345323 1_554
Ce0 Fe0 3.345323 1_555
Ce0 Fe2 3.345380 1_545
Ce0 Fe2 3.345380 1_555
Ce0 Fe1 3.345722 1_455
Ce0 Fe1 3.345722 1_554
Ce0 Fe3 3.345809 1_545
Ce0 Fe3 3.345809 1_455
Al0 Fe0 2.657781 1_565
Al0 Fe2 2.657966 1_556
Al0 Fe1 2.658010 1_565
Al0 Fe3 2.658233 1_556
Al0 Al7 2.700119 1_555
Al0 Al7 2.701376 1_455
Al0 Al3 2.723572 1_555
Al0 Al5 2.772882 1_555
Al0 Al6 2.773325 1_555
Al0 Ce0 3.031174 1_566
Al1 Fe2 2.657861 1_556
Al1 Fe0 2.657879 1_555
Al1 Fe1 2.658329 1_555
Al1 Fe3 2.658454 1_456
Al1 Al6 2.700654 1_555
Al1 Al6 2.700783 1_455
Al1 Al2 2.724430 1_555
Al1 Al4 2.772863 1_555
Al1 Al7 2.773147 1_455
Al1 Ce0 3.029700 1_556
Al2 Fe2 2.657861 1_555
Al2 Fe0 2.657879 1_565
Al2 Fe1 2.658329 1_465
Al2 Fe3 2.658454 1_555
Al2 Al5 2.700654 1_455
Al2 Al5 2.700783 1_555
Al2 Al7 2.772863 1_455
Al2 Al4 2.773147 1_555
Al2 Ce0 3.029700 1_565
Al3 Fe0 2.657781 1_655
Al3 Fe2 2.657966 1_655
Al3 Fe1 2.658010 1_555
Al3 Fe3 2.658233 1_555
Al3 Al4 2.700119 1_555
Al3 Al4 2.701376 1_655
Al3 Al6 2.772882 1_555
Al3 Al5 2.773325 1_555
Al3 Ce0 3.031174 1_655
Al4 Fe1 2.532435 1_555
Al4 Fe3 2.532656 1_555
Al4 Fe0 2.533345 1_555
Al4 Fe2 2.533607 1_555
Al4 Al5 2.795615 1_545
Al4 Al6 2.795924 1_554
Al4 Ce0 3.176952 1_655
Al4 Ce0 3.177563 1_555
Al5 Fe1 2.533147 1_565
Al5 Fe3 2.533385 1_555
Al5 Fe0 2.533689 1_565
Al5 Fe2 2.533938 1_655
Al5 Al7 2.795924 1_554
Al5 Ce0 3.176375 1_665
Al5 Ce0 3.176398 1_565
Al6 Fe1 2.533147 1_555
Al6 Fe3 2.533385 1_556
Al6 Fe0 2.533689 1_655
Al6 Fe2 2.533938 1_556
Al6 Al7 2.795615 1_545
Al6 Ce0 3.176375 1_556
Al6 Ce0 3.176398 1_656
Al7 Fe1 2.532435 1_565
Al7 Fe3 2.532656 1_556
Al7 Fe0 2.533345 1_665
Al7 Fe2 2.533607 1_656
Al7 Ce0 3.176952 1_566
Al7 Ce0 3.177563 1_666
Fe0 Fe1 2.486772 1_555
Fe0 Fe1 2.486772 1_455
Fe2 Fe3 2.486772 1_455
Fe2 Fe3 2.486772 1_555
