# generated using pymatgen
data_Hg3(N5Cl8)2
_symmetry_space_group_name_H-M   'P 1'
_cell_length_a   11.53085686
_cell_length_b   11.53085686
_cell_length_c   12.88814092
_cell_angle_alpha   116.57338476
_cell_angle_beta   116.57338476
_cell_angle_gamma   90.00000000
_symmetry_Int_Tables_number   1
_chemical_formula_structural   Hg3(N5Cl8)2
_chemical_formula_sum   'Hg3 N10 Cl16'
_cell_volume   1327.10356032
_cell_formula_units_Z   1
loop_
 _symmetry_equiv_pos_site_id
 _symmetry_equiv_pos_as_xyz
  1  'x, y, z'
loop_
 _atom_site_type_symbol
 _atom_site_label
 _atom_site_symmetry_multiplicity
 _atom_site_fract_x
 _atom_site_fract_y
 _atom_site_fract_z
 _atom_site_occupancy
  Hg  Hg0  1  0.00000000  -0.00000000  0.00000000  1
  Hg  Hg1  1  0.25000000  0.75000000  0.50000000  1
  Hg  Hg2  1  0.75000000  0.25000000  0.50000000  1
  N  N0  1  0.27757143  0.27757143  0.55514287  1
  N  N1  1  0.72242857  0.72242857  0.44485713  1
  N  N2  1  0.29535483  0.49130608  0.20321157  1
  N  N3  1  0.70464517  0.50869392  0.79678843  1
  N  N4  1  0.90785674  0.71190549  0.20321157  1
  N  N5  1  0.71190549  0.29535483  0.20321157  1
  N  N6  1  0.09214326  0.28809451  0.79678843  1
  N  N7  1  0.28809451  0.70464517  0.79678843  1
  N  N8  1  0.49130608  0.90785674  0.20321157  1
  N  N9  1  0.50869392  0.09214326  0.79678843  1
  Cl  Cl0  1  0.19126881  0.39026080  0.00000000  1
  Cl  Cl1  1  0.80873119  0.60973920  0.00000000  1
  Cl  Cl2  1  0.60973920  0.19126881  0.00000000  1
  Cl  Cl3  1  0.39026080  0.80873119  0.00000000  1
  Cl  Cl4  1  0.11440551  0.11440551  0.22881102  1
  Cl  Cl5  1  0.88559449  0.88559449  0.77118898  1
  Cl  Cl6  1  0.29047601  0.39795746  0.26674818  1
  Cl  Cl7  1  0.70952399  0.60204254  0.73325182  1
  Cl  Cl8  1  0.97627218  0.86879072  0.26674818  1
  Cl  Cl9  1  0.86879072  0.29047601  0.26674818  1
  Cl  Cl10  1  0.02372782  0.13120928  0.73325182  1
  Cl  Cl11  1  0.13120928  0.70952399  0.73325182  1
  Cl  Cl12  1  0.39795746  0.97627218  0.26674818  1
  Cl  Cl13  1  0.60204254  0.02372782  0.73325182  1
  Cl  Cl14  1  0.35747813  0.35747813  0.71495626  1
  Cl  Cl15  1  0.64252187  0.64252187  0.28504374  1
loop_
_geom_bond_atom_site_label_1
_geom_bond_atom_site_label_2
_geom_bond_distance
_geom_bond_site_symmetry_2
Cl0 N2 2.028502 1_555
Cl0 N6 2.028502 1_554
Cl1 N3 2.028502 1_554
Cl1 N4 2.028502 1_555
Cl2 N5 2.028502 1_555
Cl2 N9 2.028502 1_554
Cl3 N7 2.028502 1_554
Cl3 N8 2.028502 1_555
Cl4 Hg0 2.283803 1_555
Cl5 Hg0 2.283803 1_666
Cl6 N2 1.631606 1_555
Cl7 N3 1.631606 1_555
Cl8 N4 1.631606 1_555
Cl9 N5 1.631606 1_555
Cl10 N6 1.631606 1_555
Cl11 N7 1.631606 1_555
Cl12 N8 1.631606 1_555
Cl13 N9 1.631606 1_555
Cl14 N0 1.595125 1_555
Cl15 N1 1.595125 1_555
