# generated using pymatgen
data_Re6Pb3C2S2(N2O13)2
_symmetry_space_group_name_H-M   'P 1'
_cell_length_a   16.33848200
_cell_length_b   16.33848200
_cell_length_c   6.02603800
_cell_angle_alpha   90.00000000
_cell_angle_beta   90.00000000
_cell_angle_gamma   90.00000000
_symmetry_Int_Tables_number   1
_chemical_formula_structural   Re6Pb3C2S2(N2O13)2
_chemical_formula_sum   'Re12 Pb6 C4 S4 N8 O52'
_cell_volume   1608.62670418
_cell_formula_units_Z   2
loop_
 _symmetry_equiv_pos_site_id
 _symmetry_equiv_pos_as_xyz
  1  'x, y, z'
loop_
 _atom_site_type_symbol
 _atom_site_label
 _atom_site_symmetry_multiplicity
 _atom_site_fract_x
 _atom_site_fract_y
 _atom_site_fract_z
 _atom_site_occupancy
  Re  Re0  1  0.02561400  0.81938800  0.46915700  1
  Re  Re1  1  0.97438600  0.18061200  0.46915700  1
  Re  Re2  1  0.18061200  0.02561400  0.53084300  1
  Re  Re3  1  0.47438600  0.31938800  0.53084300  1
  Re  Re4  1  0.81938800  0.97438600  0.53084300  1
  Re  Re5  1  0.52561400  0.68061200  0.53084300  1
  Re  Re6  1  0.31938800  0.52561400  0.46915700  1
  Re  Re7  1  0.68061200  0.47438600  0.46915700  1
  Re  Re8  1  0.60851000  0.89149000  0.99537500  1
  Re  Re9  1  0.39149000  0.10851000  0.99537500  1
  Re  Re10  1  0.10851000  0.60851000  0.00462500  1
  Re  Re11  1  0.89149000  0.39149000  0.00462500  1
  Pb  Pb0  1  0.08074400  0.41925600  0.51974200  1
  Pb  Pb1  1  0.91925600  0.58074400  0.51974200  1
  Pb  Pb2  1  0.58074400  0.08074400  0.48025800  1
  Pb  Pb3  1  0.41925600  0.91925600  0.48025800  1
  Pb  Pb4  1  0.00000000  0.00000000  0.00000000  1
  Pb  Pb5  1  0.50000000  0.50000000  0.00000000  1
  C  C0  1  0.19711400  0.30288600  0.01248600  1
  C  C1  1  0.80288600  0.69711400  0.01248600  1
  C  C2  1  0.69711400  0.19711400  0.98751400  1
  C  C3  1  0.30288600  0.80288600  0.98751400  1
  S  S0  1  0.11952300  0.38047700  0.01414900  1
  S  S1  1  0.88047700  0.61952300  0.01414900  1
  S  S2  1  0.61952300  0.11952300  0.98585100  1
  S  S3  1  0.38047700  0.88047700  0.98585100  1
  N  N0  1  0.26874200  0.33703500  0.01274700  1
  N  N1  1  0.73125800  0.66296500  0.01274700  1
  N  N2  1  0.66296500  0.26874200  0.98725300  1
  N  N3  1  0.23125800  0.83703500  0.98725300  1
  N  N4  1  0.33703500  0.73125800  0.98725300  1
  N  N5  1  0.76874200  0.16296500  0.98725300  1
  N  N6  1  0.83703500  0.76874200  0.01274700  1
  N  N7  1  0.16296500  0.23125800  0.01274700  1
  O  O0  1  0.11275000  0.99551100  0.32106400  1
  O  O1  1  0.88725000  0.00448900  0.32106400  1
  O  O2  1  0.00448900  0.11275000  0.67893600  1
  O  O3  1  0.38725000  0.49551100  0.67893600  1
  O  O4  1  0.99551100  0.88725000  0.67893600  1
  O  O5  1  0.61275000  0.50448900  0.67893600  1
  O  O6  1  0.49551100  0.61275000  0.32106400  1
  O  O7  1  0.50448900  0.38725000  0.32106400  1
  O  O8  1  0.09060800  0.71318500  0.00306200  1
  O  O9  1  0.90939200  0.28681500  0.00306200  1
  O  O10  1  0.28681500  0.09060800  0.99693800  1
  O  O11  1  0.40939200  0.21318500  0.99693800  1
  O  O12  1  0.71318500  0.90939200  0.99693800  1
  O  O13  1  0.59060800  0.78681500  0.99693800  1
  O  O14  1  0.21318500  0.59060800  0.00306200  1
  O  O15  1  0.78681500  0.40939200  0.00306200  1
  O  O16  1  0.56450800  0.93549200  0.75344300  1
  O  O17  1  0.43549200  0.06450800  0.75344300  1
  O  O18  1  0.06450800  0.56450800  0.24655700  1
  O  O19  1  0.93549200  0.43549200  0.24655700  1
  O  O20  1  0.27811700  0.97874700  0.49048900  1
  O  O21  1  0.72188300  0.02125300  0.49048900  1
  O  O22  1  0.02125300  0.27811700  0.50951100  1
  O  O23  1  0.22188300  0.47874700  0.50951100  1
  O  O24  1  0.97874700  0.72188300  0.50951100  1
  O  O25  1  0.77811700  0.52125300  0.50951100  1
  O  O26  1  0.47874700  0.77811700  0.49048900  1
  O  O27  1  0.52125300  0.22188300  0.49048900  1
  O  O28  1  0.18946800  0.31053200  0.50342600  1
  O  O29  1  0.81053200  0.68946800  0.50342600  1
  O  O30  1  0.68946800  0.18946800  0.49657400  1
  O  O31  1  0.31053200  0.81053200  0.49657400  1
  O  O32  1  0.35956700  0.49631400  0.21155100  1
  O  O33  1  0.64043300  0.50368600  0.21155100  1
  O  O34  1  0.50368600  0.35956700  0.78844900  1
  O  O35  1  0.14043300  0.99631400  0.78844900  1
  O  O36  1  0.49631400  0.64043300  0.78844900  1
  O  O37  1  0.85956700  0.00368600  0.78844900  1
  O  O38  1  0.99631400  0.85956700  0.21155100  1
  O  O39  1  0.00368600  0.14043300  0.21155100  1
  O  O40  1  0.56326900  0.93673100  0.23511900  1
  O  O41  1  0.43673100  0.06326900  0.23511900  1
  O  O42  1  0.06326900  0.56326900  0.76488100  1
  O  O43  1  0.93673100  0.43673100  0.76488100  1
  O  O44  1  0.13128400  0.80979800  0.47759800  1
  O  O45  1  0.86871600  0.19020200  0.47759800  1
  O  O46  1  0.19020200  0.13128400  0.52240200  1
  O  O47  1  0.36871600  0.30979800  0.52240200  1
  O  O48  1  0.80979800  0.86871600  0.52240200  1
  O  O49  1  0.63128400  0.69020200  0.52240200  1
  O  O50  1  0.30979800  0.63128400  0.47759800  1
  O  O51  1  0.69020200  0.36871600  0.47759800  1
loop_
_geom_bond_atom_site_label_1
_geom_bond_atom_site_label_2
_geom_bond_distance
_geom_bond_site_symmetry_2
C0 N7 1.296491 1_555
C0 N0 1.296491 1_555
C0 S0 1.792854 1_555
C1 N6 1.296491 1_555
C1 N1 1.296491 1_555
C1 S1 1.792854 1_555
C2 N5 1.296491 1_555
C2 N2 1.296491 1_555
C2 S2 1.792854 1_555
C3 N3 1.296491 1_555
C3 N4 1.296491 1_555
C3 S3 1.792854 1_555
O0 Re2 1.751941 1_565
O0 Pb4 2.672486 1_565
O1 Re4 1.751941 1_545
O1 Pb4 2.672486 1_655
O2 Re1 1.751941 1_455
O2 Pb4 2.672486 1_556
O3 Re6 1.751941 1_555
O3 Pb5 2.672486 1_556
O4 Re0 1.751941 1_655
O4 Pb4 2.672486 1_666
O5 Re7 1.751941 1_555
O5 Pb5 2.672486 1_556
O6 Re5 1.751941 1_555
O6 Pb5 2.672486 1_555
O7 Re3 1.751941 1_555
O7 Pb5 2.672486 1_555
O8 Re10 1.735088 1_555
O9 Re11 1.735088 1_555
O10 Re9 1.735088 1_555
O11 Re9 1.735088 1_555
O12 Re8 1.735088 1_555
O13 Re8 1.735088 1_555
O14 Re10 1.735088 1_555
O15 Re11 1.735088 1_555
O16 Re8 1.777402 1_555
O17 Re9 1.777402 1_555
O18 Re10 1.777402 1_555
O19 Re11 1.777402 1_555
O20 Re2 1.784209 1_565
O20 Pb3 2.503236 1_555
O21 Re4 1.784209 1_545
O21 Pb2 2.503236 1_555
O22 Re1 1.784209 1_455
O22 Pb0 2.503236 1_555
O23 Re6 1.784209 1_555
O23 Pb0 2.503236 1_555
O24 Re0 1.784209 1_655
O24 Pb1 2.503236 1_555
O25 Re7 1.784209 1_555
O25 Pb1 2.503236 1_555
O26 Re5 1.784209 1_555
O26 Pb3 2.503236 1_555
O27 Re3 1.784209 1_555
O27 Pb2 2.503236 1_555
O28 Pb0 2.514111 1_555
O29 Pb1 2.514111 1_555
O30 Pb2 2.514111 1_555
O31 Pb3 2.514111 1_555
O32 Re6 1.752109 1_555
O32 Pb5 2.625516 1_555
O33 Re7 1.752109 1_555
O33 Pb5 2.625516 1_555
O34 Re3 1.752109 1_555
O34 Pb5 2.625516 1_556
O35 Re2 1.752109 1_565
O35 Pb4 2.625516 1_566
O36 Re5 1.752109 1_555
O36 Pb5 2.625516 1_556
O37 Re4 1.752109 1_545
O37 Pb4 2.625516 1_656
O38 Re0 1.752109 1_655
O38 Pb4 2.625516 1_665
O39 Re1 1.752109 1_455
O39 Pb4 2.625516 1_555
O40 Re8 1.783233 1_554
O41 Re9 1.783233 1_554
O42 Re10 1.783233 1_556
O43 Re11 1.783233 1_556
O44 Re0 1.734329 1_555
O45 Re1 1.734329 1_555
O46 Re2 1.734329 1_555
O47 Re3 1.734329 1_555
O48 Re4 1.734329 1_555
O49 Re5 1.734329 1_555
O50 Re6 1.734329 1_555
O51 Re7 1.734329 1_555
