# generated using pymatgen
data_SrLaNd(CuO3)2
_symmetry_space_group_name_H-M   'P 1'
_cell_length_a   10.34835515
_cell_length_b   10.34835515
_cell_length_c   10.34835515
_cell_angle_alpha   158.42905446
_cell_angle_beta   158.42905446
_cell_angle_gamma   30.69171565
_symmetry_Int_Tables_number   1
_chemical_formula_structural   SrLaNd(CuO3)2
_chemical_formula_sum   'Sr1 La1 Nd1 Cu2 O6'
_cell_volume   149.69389796
_cell_formula_units_Z   1
loop_
 _symmetry_equiv_pos_site_id
 _symmetry_equiv_pos_as_xyz
  1  'x, y, z'
loop_
 _atom_site_type_symbol
 _atom_site_label
 _atom_site_symmetry_multiplicity
 _atom_site_fract_x
 _atom_site_fract_y
 _atom_site_fract_z
 _atom_site_occupancy
  Sr  Sr0  1  0.82090000  0.82090000  0.00000000  1
  La  La0  1  0.18217700  0.18217700  0.00000000  1
  Nd  Nd0  1  0.99941000  0.99941000  0.00000000  1
  Cu  Cu0  1  0.40966000  0.40966000  0.00000000  1
  Cu  Cu1  1  0.58849000  0.58849000  0.00000000  1
  O  O0  1  0.29307900  0.29307900  0.00000000  1
  O  O1  1  0.69897400  0.69897400  0.00000000  1
  O  O2  1  0.92345700  0.42345700  0.50000000  1
  O  O3  1  0.42345700  0.92345700  0.50000000  1
  O  O4  1  0.08019800  0.58019800  0.50000000  1
  O  O5  1  0.58019800  0.08019800  0.50000000  1
loop_
_geom_bond_atom_site_label_1
_geom_bond_atom_site_label_2
_geom_bond_distance
_geom_bond_site_symmetry_2
La0 O0 2.213470 1_555
La0 O1 2.759083 1_444
La0 O1 2.759083 1_545
La0 O1 2.759083 1_455
La0 O1 2.759083 1_556
La0 O4 2.809419 1_544
La0 O5 2.809419 1_454
La0 O5 2.809419 1_555
La0 O4 2.809419 1_555
Nd0 O2 2.459292 1_554
Nd0 O2 2.459292 1_565
Nd0 O3 2.459292 1_554
Nd0 O3 2.459292 1_655
Nd0 O4 2.519922 1_654
Nd0 O5 2.519922 1_564
Nd0 O4 2.519922 1_665
Nd0 O5 2.519922 1_665
Cu0 O2 1.955992 1_555
Cu0 O2 1.955992 1_454
Cu0 O3 1.955992 1_555
Cu0 O3 1.955992 1_544
Cu0 O0 2.326815 1_555
Cu1 O5 1.943570 1_565
Cu1 O4 1.943570 1_655
Cu1 O5 1.943570 1_554
Cu1 O4 1.943570 1_554
Cu1 O1 2.205127 1_555
O0 Sr0 2.794365 1_545
O0 Sr0 2.794365 1_455
O0 Sr0 2.794365 1_556
O0 Sr0 2.794365 1_444
O1 Sr0 2.433495 1_555
O2 Sr0 2.817788 1_556
O2 Sr0 2.817788 1_545
O3 Sr0 2.817788 1_455
O3 Sr0 2.817788 1_556
