# generated using pymatgen
data_Sr2ScGaO5
_symmetry_space_group_name_H-M   'P 1'
_cell_length_a   5.75879100
_cell_length_b   5.98075600
_cell_length_c   8.69188640
_cell_angle_alpha   110.12335509
_cell_angle_beta   109.34611355
_cell_angle_gamma   90.00000000
_symmetry_Int_Tables_number   1
_chemical_formula_structural   Sr2ScGaO5
_chemical_formula_sum   'Sr4 Sc2 Ga2 O10'
_cell_volume   263.01458027
_cell_formula_units_Z   2
loop_
 _symmetry_equiv_pos_site_id
 _symmetry_equiv_pos_as_xyz
  1  'x, y, z'
loop_
 _atom_site_type_symbol
 _atom_site_label
 _atom_site_symmetry_multiplicity
 _atom_site_fract_x
 _atom_site_fract_y
 _atom_site_fract_z
 _atom_site_occupancy
  Sr  Sr0  1  0.11497400  0.63217700  0.22280200  1
  Sr  Sr1  1  0.89217200  0.36782300  0.77719800  1
  Sr  Sr2  1  0.39217200  0.90937500  0.77719800  1
  Sr  Sr3  1  0.61497400  0.09062500  0.22280200  1
  Sc  Sc0  1  0.49893300  0.50000000  0.00000000  1
  Sc  Sc1  1  0.99893300  0.00000000  0.00000000  1
  Ga  Ga0  1  0.28166800  0.32151300  0.50000000  1
  Ga  Ga1  1  0.78166800  0.67848700  0.50000000  1
  O  O0  1  0.23889900  0.74120200  0.97618000  1
  O  O1  1  0.26271900  0.25879800  0.02382000  1
  O  O2  1  0.76271900  0.26502200  0.02382000  1
  O  O3  1  0.73889900  0.73497800  0.97618000  1
  O  O4  1  0.62456900  0.71131200  0.28783400  1
  O  O5  1  0.33673600  0.28868800  0.71216600  1
  O  O6  1  0.83673600  0.92347900  0.71216600  1
  O  O7  1  0.12456900  0.07652100  0.28783400  1
  O  O8  1  0.10482900  0.59285600  0.50000000  1
  O  O9  1  0.60482900  0.40714400  0.50000000  1
loop_
_geom_bond_atom_site_label_1
_geom_bond_atom_site_label_2
_geom_bond_distance
_geom_bond_site_symmetry_2
Ga0 O5 1.844326 1_555
Ga0 O7 1.844330 1_555
Ga0 O8 1.915905 1_555
Ga0 O9 1.930199 1_555
Ga1 O4 1.844327 1_555
Ga1 O6 1.844329 1_555
Ga1 O9 1.915905 1_555
Ga1 O8 1.930199 1_655
O0 Sc1 2.077816 1_466
O0 Sc0 2.089598 1_556
O0 Sr2 2.643940 1_555
O0 Sr1 2.649400 1_455
O0 Sr3 2.737605 1_566
O0 Sr0 2.739504 1_556
O1 Sc1 2.077816 1_455
O1 Sc0 2.089598 1_555
O1 Sr3 2.643940 1_555
O1 Sr0 2.649400 1_555
O1 Sr2 2.737605 1_544
O1 Sr1 2.739504 1_454
O2 Sc0 2.077816 1_555
O2 Sc1 2.089598 1_555
O2 Sr0 2.643940 1_655
O2 Sr3 2.649400 1_555
O2 Sr1 2.737605 1_554
O2 Sr2 2.739504 1_544
O3 Sc0 2.077816 1_556
O3 Sc1 2.089598 1_566
O3 Sr1 2.643940 1_555
O3 Sr2 2.649400 1_555
O3 Sr0 2.737605 1_656
O3 Sr3 2.739504 1_566
O4 Sc0 2.237165 1_555
O4 Sr3 2.516080 1_565
O4 Sr0 2.805809 1_555
O4 Sr0 3.064776 1_655
O5 Sc0 2.237165 1_556
O5 Sr2 2.516080 1_545
O5 Sr1 2.805814 1_455
O5 Sr1 3.064770 1_555
O6 Sc1 2.237166 1_566
O6 Sr1 2.516074 1_565
O6 Sr2 2.805815 1_555
O6 Sr2 3.064771 1_655
O7 Sc1 2.237166 1_455
O7 Sr0 2.516074 1_545
O7 Sr3 2.805809 1_455
O7 Sr3 3.064776 1_555
O8 Sr0 2.519313 1_555
O8 Sr2 2.519313 1_555
O9 Sr3 2.519313 1_555
O9 Sr1 2.519313 1_555
