# generated using pymatgen
data_Li7Mn4CoO12
_symmetry_space_group_name_H-M   'P 1'
_cell_length_a   2.97033200
_cell_length_b   6.49424494
_cell_length_c   12.02157757
_cell_angle_alpha   75.54078896
_cell_angle_beta   86.46975836
_cell_angle_gamma   76.84175838
_symmetry_Int_Tables_number   1
_chemical_formula_structural   Li7Mn4CoO12
_chemical_formula_sum   'Li7 Mn4 Co1 O12'
_cell_volume   218.65345744
_cell_formula_units_Z   1
loop_
 _symmetry_equiv_pos_site_id
 _symmetry_equiv_pos_as_xyz
  1  'x, y, z'
loop_
 _atom_site_type_symbol
 _atom_site_label
 _atom_site_symmetry_multiplicity
 _atom_site_fract_x
 _atom_site_fract_y
 _atom_site_fract_z
 _atom_site_occupancy
  Li  Li0  1  0.02039000  0.98138600  0.25338400  1
  Li  Li1  1  0.33730800  0.33046300  0.58495500  1
  Li  Li2  1  0.65412800  0.67260500  0.40843600  1
  Li  Li3  1  0.99610600  0.99873600  0.74670000  1
  Li  Li4  1  0.67575300  0.66555800  0.92534500  1
  Li  Li5  1  0.31584000  0.35037500  0.08097300  1
  Li  Li6  1  0.66759200  0.66481300  0.16755000  1
  Mn  Mn0  1  0.01293200  0.98750800  0.00674900  1
  Mn  Mn1  1  0.32253800  0.34235200  0.32890400  1
  Mn  Mn2  1  0.66418400  0.67062900  0.66352800  1
  Mn  Mn3  1  0.34282300  0.33542300  0.83622000  1
  Co  Co0  1  0.98474000  0.00032400  0.49627300  1
  O  O0  1  0.48427200  0.00055500  0.10950100  1
  O  O1  1  0.81639300  0.31728700  0.44566700  1
  O  O2  1  0.18470600  0.64047700  0.29820700  1
  O  O3  1  0.52903300  0.99453500  0.61815900  1
  O  O4  1  0.21003700  0.65770500  0.78740900  1
  O  O5  1  0.88198200  0.31819500  0.95706700  1
  O  O6  1  0.45517900  0.01448900  0.38065400  1
  O  O7  1  0.79902600  0.34295600  0.71015300  1
  O  O8  1  0.12349200  0.68401300  0.54254500  1
  O  O9  1  0.52029000  0.01144900  0.88878600  1
  O  O10  1  0.14928700  0.69000100  0.03668000  1
  O  O11  1  0.85197000  0.32816600  0.22615300  1
loop_
_geom_bond_atom_site_label_1
_geom_bond_atom_site_label_2
_geom_bond_distance
_geom_bond_site_symmetry_2
Li0 O2 2.091603 1_555
Li0 O11 2.137367 1_465
Li0 O0 2.140790 1_565
Li0 O6 2.142185 1_565
Li0 O6 2.211168 1_465
Li0 O0 2.384257 1_465
Li1 O3 2.066520 1_545
Li1 O7 2.125693 1_555
Li1 O7 2.129275 1_455
Li1 O1 2.135148 1_555
Li1 O8 2.174048 1_555
Li1 O1 2.378266 1_455
Li2 O2 2.003602 1_655
Li2 O2 2.059549 1_555
Li2 O6 2.108799 1_565
Li2 O1 2.182141 1_555
Li2 O8 2.186898 1_555
Li2 O8 2.220779 1_655
Li3 O4 2.098727 1_655
Li3 O7 2.116215 1_565
Li3 O3 2.143487 1_655
Li3 O3 2.148410 1_555
Li3 O9 2.154512 1_565
Li3 O9 2.409385 1_665
Li4 O10 1.999326 1_556
Li4 O10 2.057803 1_656
Li4 O9 2.124144 1_565
Li4 O5 2.140000 1_555
Li4 O4 2.225338 1_655
Li4 O4 2.241138 1_555
Li5 O10 2.083789 1_555
Li5 O5 2.106571 1_454
Li5 O11 2.152658 1_455
Li5 O0 2.154913 1_555
Li5 O5 2.185698 1_554
Li5 O11 2.390576 1_555
Li6 O10 2.061532 1_655
Li6 O2 2.061841 1_555
Li6 O0 2.069783 1_565
Li6 O11 2.075874 1_555
Li6 O2 2.216756 1_655
Li6 O10 2.219731 1_555
Mn0 O10 1.827830 1_555
Mn0 O0 1.936916 1_465
Mn0 O0 1.952524 1_565
Mn0 O9 2.009897 1_564
Mn0 O5 2.031700 1_464
Mn0 O9 2.053856 1_464
Mn1 O2 1.831174 1_555
Mn1 O11 1.938804 1_555
Mn1 O11 1.953470 1_455
Mn1 O1 1.998624 1_455
Mn1 O6 2.015591 1_555
Mn1 O1 2.044357 1_555
Mn2 O8 1.931491 1_655
Mn2 O4 1.945850 1_555
Mn2 O3 1.988219 1_555
Mn2 O7 2.011688 1_555
Mn2 O8 2.205261 1_555
Mn2 O4 2.242031 1_655
Mn3 O5 1.934030 1_455
Mn3 O7 1.968675 1_555
Mn3 O4 1.979848 1_555
Mn3 O9 1.993992 1_555
Mn3 O5 2.193531 1_555
Mn3 O7 2.266436 1_455
Co0 O6 1.910092 1_655
Co0 O3 1.931851 1_545
Co0 O8 1.941953 1_645
Co0 O1 1.949559 1_555
Co0 O6 2.134035 1_555
Co0 O3 2.235795 1_645
