# generated using pymatgen
data_Mg(AgO2)2
_symmetry_space_group_name_H-M   'P 1'
_cell_length_a   6.31552067
_cell_length_b   6.31552067
_cell_length_c   6.31552067
_cell_angle_alpha   119.75392692
_cell_angle_beta   119.75392692
_cell_angle_gamma   90.42674214
_symmetry_Int_Tables_number   1
_chemical_formula_structural   Mg(AgO2)2
_chemical_formula_sum   'Mg2 Ag4 O8'
_cell_volume   178.77704564
_cell_formula_units_Z   2
loop_
 _symmetry_equiv_pos_site_id
 _symmetry_equiv_pos_as_xyz
  1  'x, y, z'
loop_
 _atom_site_type_symbol
 _atom_site_label
 _atom_site_symmetry_multiplicity
 _atom_site_fract_x
 _atom_site_fract_y
 _atom_site_fract_z
 _atom_site_occupancy
  Mg  Mg0  1  0.00000000  0.00000000  0.00000000  1
  Mg  Mg1  1  0.75000000  0.25000000  0.50000000  1
  Ag  Ag0  1  0.87500000  0.62500000  0.25000000  1
  Ag  Ag1  1  0.37500000  0.62500000  0.75000000  1
  Ag  Ag2  1  0.37500000  0.62500000  0.25000000  1
  Ag  Ag3  1  0.37500000  0.12500000  0.75000000  1
  O  O0  1  0.67625100  0.48538800  0.35408900  1
  O  O1  1  0.67783800  0.32374900  0.80913700  1
  O  O2  1  0.51461200  0.86870100  0.19086300  1
  O  O3  1  0.61870100  0.92783800  0.85408900  1
  O  O4  1  0.23538800  0.38129900  0.30913700  1
  O  O5  1  0.07216200  0.92625100  0.69086300  1
  O  O6  1  0.13129900  0.32216200  0.64591100  1
  O  O7  1  0.07374900  0.76461200  0.14591100  1
loop_
_geom_bond_atom_site_label_1
_geom_bond_atom_site_label_2
_geom_bond_distance
_geom_bond_site_symmetry_2
Mg0 O3 2.054285 1_444
Mg0 O4 2.054285 1_555
Mg0 O5 2.054285 1_544
Mg0 O7 2.054285 1_545
Mg1 O1 2.054285 1_555
Mg1 O0 2.054285 1_555
Mg1 O6 2.054285 1_655
Mg1 O2 2.054285 1_545
Ag0 O0 2.040326 1_555
Ag0 O7 2.040326 1_655
Ag0 O1 2.046513 1_554
Ag0 O5 2.046513 1_655
Ag1 O3 2.040326 1_555
Ag1 O6 2.040326 1_555
Ag1 O2 2.046513 1_556
Ag1 O4 2.046513 1_555
Ag2 O2 2.040326 1_555
Ag2 O4 2.040326 1_555
Ag2 O7 2.046513 1_555
Ag2 O0 2.046513 1_555
Ag3 O5 2.040326 1_545
Ag3 O1 2.040326 1_555
Ag3 O3 2.046513 1_545
Ag3 O6 2.046513 1_555
