# generated using pymatgen
data_RePbBrO4
_symmetry_space_group_name_H-M   'P 1'
_cell_length_a   4.67980300
_cell_length_b   5.89205400
_cell_length_c   9.83759900
_cell_angle_alpha   90.00000000
_cell_angle_beta   90.00000000
_cell_angle_gamma   90.00000000
_symmetry_Int_Tables_number   1
_chemical_formula_structural   RePbBrO4
_chemical_formula_sum   'Re2 Pb2 Br2 O8'
_cell_volume   271.25853120
_cell_formula_units_Z   2
loop_
 _symmetry_equiv_pos_site_id
 _symmetry_equiv_pos_as_xyz
  1  'x, y, z'
loop_
 _atom_site_type_symbol
 _atom_site_label
 _atom_site_symmetry_multiplicity
 _atom_site_fract_x
 _atom_site_fract_y
 _atom_site_fract_z
 _atom_site_occupancy
  Re  Re0  1  0.41775800  0.00000000  0.36835500  1
  Re  Re1  1  0.91775800  0.50000000  0.63164500  1
  Pb  Pb0  1  0.42209200  0.00000000  0.81276200  1
  Pb  Pb1  1  0.92209200  0.50000000  0.18723800  1
  Br  Br0  1  0.99337200  0.00000000  0.03397400  1
  Br  Br1  1  0.49337200  0.50000000  0.96602600  1
  O  O0  1  0.04673900  0.00000000  0.36716900  1
  O  O1  1  0.54673900  0.50000000  0.63283100  1
  O  O2  1  0.52985000  0.24803500  0.28275300  1
  O  O3  1  0.02985000  0.25196500  0.71724700  1
  O  O4  1  0.02985000  0.74803500  0.71724700  1
  O  O5  1  0.52985000  0.75196500  0.28275300  1
  O  O6  1  0.52852900  0.00000000  0.53831000  1
  O  O7  1  0.02852900  0.50000000  0.46169000  1
loop_
_geom_bond_atom_site_label_1
_geom_bond_atom_site_label_2
_geom_bond_distance
_geom_bond_site_symmetry_2
Br0 Pb0 2.959927 1_654
Br1 Pb1 2.959927 1_556
O0 Re0 1.736335 1_555
O1 Re1 1.736335 1_555
O2 Re0 1.766389 1_555
O2 Pb1 2.540948 1_555
O3 Re1 1.766389 1_455
O3 Pb0 2.540948 1_555
O4 Re1 1.766389 1_455
O4 Pb0 2.540948 1_565
O5 Re0 1.766389 1_565
O5 Pb1 2.540948 1_555
O6 Re0 1.750468 1_555
O6 Pb0 2.745511 1_555
O7 Re1 1.750468 1_455
O7 Pb1 2.745511 1_455
