# generated using pymatgen
data_LaGeIr
_symmetry_space_group_name_H-M   'P 1'
_cell_length_a   7.76068481
_cell_length_b   7.76068481
_cell_length_c   7.76068481
_cell_angle_alpha   147.25802285
_cell_angle_beta   147.25802285
_cell_angle_gamma   46.98188860
_symmetry_Int_Tables_number   1
_chemical_formula_structural   LaGeIr
_chemical_formula_sum   'La2 Ge2 Ir2'
_cell_volume   136.22014121
_cell_formula_units_Z   2
loop_
 _symmetry_equiv_pos_site_id
 _symmetry_equiv_pos_as_xyz
  1  'x, y, z'
loop_
 _atom_site_type_symbol
 _atom_site_label
 _atom_site_symmetry_multiplicity
 _atom_site_fract_x
 _atom_site_fract_y
 _atom_site_fract_z
 _atom_site_occupancy
  La  La0  1  0.74433169  0.24433169  0.50000000  1
  La  La1  1  0.99433169  0.99433169  -0.00000000  1
  Ge  Ge0  1  0.16547311  0.66547311  0.50000000  1
  Ge  Ge1  1  0.41547311  0.41547311  0.00000000  1
  Ir  Ir0  1  0.33819520  0.83819520  0.50000000  1
  Ir  Ir1  1  0.58819520  0.58819520  0.00000000  1
loop_
_geom_bond_atom_site_label_1
_geom_bond_atom_site_label_2
_geom_bond_distance
_geom_bond_site_symmetry_2
Ge0 Ir1 2.448428 1_556
Ge0 Ir1 2.448428 1_455
Ge0 Ir0 2.458700 1_555
Ge0 La1 3.274104 1_445
Ge0 La1 3.274104 1_456
Ge0 La0 3.290821 1_454
Ge0 La0 3.290821 1_555
Ge0 La0 3.290821 1_566
Ge0 La0 3.290821 1_465
Ge1 Ir0 2.448428 1_555
Ge1 Ir0 2.448428 1_544
Ge1 Ir1 2.458700 1_555
Ge1 La0 3.274104 1_555
Ge1 La0 3.274104 1_454
Ge1 La1 3.290821 1_556
Ge1 La1 3.290821 1_545
Ge1 La1 3.290821 1_444
Ge1 La1 3.290821 1_455
Ir0 La1 3.118438 1_556
Ir0 La1 3.118438 1_455
Ir0 La0 3.369669 1_555
Ir0 La0 3.369669 1_454
Ir0 La0 3.369669 1_566
Ir0 La0 3.369669 1_465
Ir1 La0 3.118438 1_554
Ir1 La0 3.118438 1_565
Ir1 La1 3.369669 1_444
Ir1 La1 3.369669 1_455
Ir1 La1 3.369669 1_556
Ir1 La1 3.369669 1_545
