# generated using pymatgen
data_Sr2CrN3
_symmetry_space_group_name_H-M   'P 1'
_cell_length_a   6.15529590
_cell_length_b   10.95076952
_cell_length_c   12.28543105
_cell_angle_alpha   90.00000000
_cell_angle_beta   90.00000000
_cell_angle_gamma   27.18443376
_symmetry_Int_Tables_number   1
_chemical_formula_structural   Sr2CrN3
_chemical_formula_sum   'Sr8 Cr4 N12'
_cell_volume   378.32371357
_cell_formula_units_Z   4
loop_
 _symmetry_equiv_pos_site_id
 _symmetry_equiv_pos_as_xyz
  1  'x, y, z'
loop_
 _atom_site_type_symbol
 _atom_site_label
 _atom_site_symmetry_multiplicity
 _atom_site_fract_x
 _atom_site_fract_y
 _atom_site_fract_z
 _atom_site_occupancy
  Sr  Sr0  1  0.00000000  0.44374924  0.64339389  1
  Sr  Sr1  1  -0.00000000  0.55625076  0.35660611  1
  Sr  Sr2  1  -0.00000000  0.05625076  0.14339389  1
  Sr  Sr3  1  0.00000000  0.94374924  0.85660611  1
  Sr  Sr4  1  -0.00000000  0.14147842  0.57775783  1
  Sr  Sr5  1  0.00000000  0.85852158  0.42224217  1
  Sr  Sr6  1  0.00000000  0.35852158  0.07775783  1
  Sr  Sr7  1  -0.00000000  0.64147842  0.92224217  1
  Cr  Cr0  1  -0.00000000  0.25540656  0.83544432  1
  Cr  Cr1  1  0.00000000  0.74459344  0.16455568  1
  Cr  Cr2  1  0.00000000  0.24459344  0.33544432  1
  Cr  Cr3  1  -0.00000000  0.75540656  0.66455568  1
  N  N0  1  -0.00000000  0.16042962  0.95115449  1
  N  N1  1  0.00000000  0.83957038  0.04884551  1
  N  N2  1  0.00000000  0.33957038  0.45115449  1
  N  N3  1  -0.00000000  0.66042962  0.54884551  1
  N  N4  1  0.00000000  0.41151196  0.86824259  1
  N  N5  1  -0.00000000  0.58848804  0.13175741  1
  N  N6  1  -0.00000000  0.08848804  0.36824259  1
  N  N7  1  0.00000000  0.91151196  0.63175741  1
  N  N8  1  0.50000000  0.47171446  0.75000000  1
  N  N9  1  0.50000000  0.02828554  0.25000000  1
  N  N10  1  0.50000000  0.52828554  0.25000000  1
  N  N11  1  0.50000000  0.97171446  0.75000000  1
loop_
_geom_bond_atom_site_label_1
_geom_bond_atom_site_label_2
_geom_bond_distance
_geom_bond_site_symmetry_2
Cr0 N4 1.756321 1_555
Cr0 N0 1.761405 1_555
Cr0 N11 1.793041 1_545
Cr0 N8 1.793041 1_455
Cr1 N5 1.756321 1_555
Cr1 N1 1.761405 1_555
Cr1 N9 1.793041 1_465
Cr1 N10 1.793041 1_555
Cr2 N6 1.756321 1_555
Cr2 N2 1.761405 1_555
Cr2 N10 1.793041 1_455
Cr2 N9 1.793041 1_555
Cr3 N7 1.756321 1_555
Cr3 N3 1.761405 1_555
Cr3 N8 1.793041 1_555
Cr3 N11 1.793041 1_455
N0 Sr2 2.622851 1_556
N0 Sr3 2.641874 1_545
N0 Sr6 2.669248 1_556
N0 Sr7 2.842017 1_645
N0 Sr7 2.842017 1_455
N1 Sr3 2.622851 1_554
N1 Sr2 2.641874 1_565
N1 Sr7 2.669248 1_554
N1 Sr6 2.842017 1_465
N1 Sr6 2.842017 1_655
N2 Sr0 2.622851 1_555
N2 Sr1 2.641874 1_555
N2 Sr4 2.669248 1_555
N2 Sr5 2.842017 1_455
N2 Sr5 2.842017 1_645
N3 Sr1 2.622851 1_555
N3 Sr0 2.641874 1_555
N3 Sr5 2.669248 1_555
N3 Sr4 2.842017 1_655
N3 Sr4 2.842017 1_465
N4 Sr7 2.604226 1_555
N4 Sr6 2.638585 1_556
N4 Sr0 2.784830 1_555
N4 Sr3 2.837761 1_455
N4 Sr3 2.837761 1_645
N5 Sr6 2.604226 1_555
N5 Sr7 2.638585 1_554
N5 Sr1 2.784830 1_555
N5 Sr2 2.837761 1_655
N5 Sr2 2.837761 1_465
N6 Sr5 2.604226 1_545
N6 Sr4 2.638585 1_555
N6 Sr2 2.784830 1_555
N6 Sr1 2.837761 1_645
N6 Sr1 2.837761 1_455
N7 Sr4 2.604226 1_565
N7 Sr5 2.638585 1_555
N7 Sr3 2.784830 1_555
N7 Sr0 2.837761 1_465
N7 Sr0 2.837761 1_655
N8 Sr4 2.688257 1_655
N8 Sr7 2.688257 1_555
N9 Sr6 2.688257 1_555
N9 Sr5 2.688257 1_645
N10 Sr5 2.688257 1_555
N10 Sr6 2.688257 1_655
N11 Sr7 2.688257 1_655
N11 Sr4 2.688257 1_565
