# generated using pymatgen
data_Ca3SiH14CSO10
_symmetry_space_group_name_H-M   'P 1'
_cell_length_a   9.15408958
_cell_length_b   9.15408958
_cell_length_c   10.02455100
_cell_angle_alpha   90.00000000
_cell_angle_beta   90.00000000
_cell_angle_gamma   119.99999694
_symmetry_Int_Tables_number   1
_chemical_formula_structural   Ca3SiH14CSO10
_chemical_formula_sum   'Ca6 Si2 H28 C2 S2 O20'
_cell_volume   727.48809468
_cell_formula_units_Z   2
loop_
 _symmetry_equiv_pos_site_id
 _symmetry_equiv_pos_as_xyz
  1  'x, y, z'
loop_
 _atom_site_type_symbol
 _atom_site_label
 _atom_site_symmetry_multiplicity
 _atom_site_fract_x
 _atom_site_fract_y
 _atom_site_fract_z
 _atom_site_occupancy
  Ca  Ca0  1  0.95212900  0.19557900  0.75234200  1
  Ca  Ca1  1  0.24345100  0.04787100  0.75234200  1
  Ca  Ca2  1  0.04787100  0.80442100  0.25234200  1
  Ca  Ca3  1  0.80442100  0.75654900  0.75234200  1
  Ca  Ca4  1  0.75654900  0.95212900  0.25234200  1
  Ca  Ca5  1  0.19557900  0.24345100  0.25234200  1
  Si  Si0  1  0.00000000  0.00000000  0.96008600  1
  Si  Si1  1  0.00000000  0.00000000  0.46008600  1
  H  H0  1  0.66666700  0.33333300  0.88099400  1
  H  H1  1  0.33333300  0.66666700  0.38099400  1
  H  H2  1  0.73899000  0.13709900  0.44998300  1
  H  H3  1  0.39810900  0.26101000  0.44998300  1
  H  H4  1  0.26101000  0.86290100  0.94998300  1
  H  H5  1  0.86290100  0.60189100  0.44998300  1
  H  H6  1  0.60189100  0.73899000  0.94998300  1
  H  H7  1  0.13709900  0.39810900  0.94998300  1
  H  H8  1  0.66666700  0.33333300  0.28118300  1
  H  H9  1  0.33333300  0.66666700  0.78118300  1
  H  H10  1  0.45499600  0.82683700  0.71871400  1
  H  H11  1  0.37184100  0.54500400  0.71871400  1
  H  H12  1  0.54500400  0.17316300  0.21871400  1
  H  H13  1  0.17316300  0.62815900  0.71871400  1
  H  H14  1  0.62815900  0.45499600  0.21871400  1
  H  H15  1  0.82683700  0.37184100  0.21871400  1
  H  H16  1  0.18171400  0.60800100  0.79594000  1
  H  H17  1  0.42628700  0.81828600  0.79594000  1
  H  H18  1  0.81828600  0.39199900  0.29594000  1
  H  H19  1  0.39199900  0.57371300  0.79594000  1
  H  H20  1  0.57371300  0.18171400  0.29594000  1
  H  H21  1  0.60800100  0.42628700  0.29594000  1
  H  H22  1  0.09234700  0.44872700  0.95604200  1
  H  H23  1  0.35638000  0.90765300  0.95604200  1
  H  H24  1  0.90765300  0.55127300  0.45604200  1
  H  H25  1  0.55127300  0.64362000  0.95604200  1
  H  H26  1  0.64362000  0.09234700  0.45604200  1
  H  H27  1  0.44872700  0.35638000  0.45604200  1
  C  C0  1  0.66666700  0.33333300  0.69260900  1
  C  C1  1  0.33333300  0.66666700  0.19260900  1
  S  S0  1  0.66666700  0.33333300  0.01480800  1
  S  S1  1  0.33333300  0.66666700  0.51480800  1
  O  O0  1  0.82239900  0.97374900  0.89359500  1
  O  O1  1  0.15135000  0.17760100  0.89359500  1
  O  O2  1  0.17760100  0.02625100  0.39359500  1
  O  O3  1  0.02625100  0.84865000  0.89359500  1
  O  O4  1  0.84865000  0.82239900  0.39359500  1
  O  O5  1  0.97374900  0.15135000  0.39359500  1
  O  O6  1  0.78943500  0.30074200  0.69538900  1
  O  O7  1  0.51130700  0.21056500  0.69538900  1
  O  O8  1  0.21056500  0.69925800  0.19538900  1
  O  O9  1  0.69925800  0.48869300  0.69538900  1
  O  O10  1  0.48869300  0.78943500  0.19538900  1
  O  O11  1  0.30074200  0.51130700  0.19538900  1
  O  O12  1  0.29386300  0.49549800  0.55619800  1
  O  O13  1  0.20163500  0.70613700  0.55619800  1
  O  O14  1  0.70613700  0.50450200  0.05619800  1
  O  O15  1  0.50450200  0.79836500  0.55619800  1
  O  O16  1  0.79836500  0.29386300  0.05619800  1
  O  O17  1  0.49549800  0.20163500  0.05619800  1
  O  O18  1  0.00000000  0.00000000  0.62570700  1
  O  O19  1  0.00000000  0.00000000  0.12570700  1
loop_
_geom_bond_atom_site_label_1
_geom_bond_atom_site_label_2
_geom_bond_distance
_geom_bond_site_symmetry_2
Ca0 O6 2.214605 1_555
Ca0 O0 2.264371 1_545
Ca0 O1 2.378675 1_655
Ca0 O18 2.406961 1_655
Ca1 O7 2.214599 1_555
Ca1 O1 2.264376 1_555
Ca1 O3 2.378679 1_545
Ca1 O18 2.406969 1_555
Ca2 O8 2.214605 1_555
Ca2 O2 2.264371 1_565
Ca2 O4 2.378675 1_455
Ca2 O19 2.406961 1_565
Ca3 O9 2.214597 1_555
Ca3 O3 2.264370 1_655
Ca3 O0 2.378683 1_555
Ca3 O18 2.406966 1_665
Ca4 O10 2.214599 1_555
Ca4 O4 2.264376 1_555
Ca4 O5 2.378679 1_565
Ca4 O19 2.406969 1_665
Ca5 O11 2.214597 1_555
Ca5 O5 2.264370 1_455
Ca5 O2 2.378683 1_555
Ca5 O19 2.406966 1_555
H0 S0 1.341425 1_556
H1 S1 1.341425 1_555
H2 H26 0.758973 1_555
H10 H17 0.808665 1_555
H10 O15 1.745150 1_555
H11 H19 0.808665 1_555
H11 O12 1.745150 1_555
H12 H20 0.808665 1_555
H12 O17 1.745150 1_555
H13 H16 0.808665 1_555
H13 O13 1.745150 1_555
H14 H21 0.808665 1_555
H14 O14 1.745150 1_555
H15 H18 0.808665 1_555
H15 O16 1.745150 1_555
H16 H9 1.221181 1_555
H17 H9 1.221182 1_555
H18 H8 1.221181 1_555
H19 H9 1.221189 1_555
H20 H8 1.221182 1_555
H21 H8 1.221189 1_555
H22 H7 0.758973 1_555
H23 H4 0.758973 1_555
H24 H5 0.758973 1_555
H25 H6 0.758973 1_555
H27 H3 0.758973 1_555
C0 O6 1.299254 1_555
C0 O7 1.299260 1_555
C0 O9 1.299263 1_555
C1 O8 1.299254 1_555
C1 O10 1.299260 1_555
C1 O11 1.299263 1_555
O0 Si0 1.659666 1_665
O1 Si0 1.659666 1_555
O2 Si1 1.659666 1_555
O3 Si0 1.659666 1_565
O4 Si1 1.659666 1_665
O5 Si1 1.659666 1_655
O12 S1 1.480448 1_555
O13 S1 1.480440 1_555
O14 S0 1.480448 1_555
O15 S1 1.480446 1_555
O16 S0 1.480440 1_555
O17 S0 1.480446 1_555
O18 Si1 1.660276 1_555
O19 Si0 1.660276 1_554
