# generated using pymatgen
data_Sr3Y2(GeO4)3
_symmetry_space_group_name_H-M   'P 1'
_cell_length_a   11.48305172
_cell_length_b   11.48305172
_cell_length_c   11.48305172
_cell_angle_alpha   109.47122063
_cell_angle_beta   109.47122063
_cell_angle_gamma   109.47122063
_symmetry_Int_Tables_number   1
_chemical_formula_structural   Sr3Y2(GeO4)3
_chemical_formula_sum   'Sr12 Y8 Ge12 O48'
_cell_volume   1165.60143018
_cell_formula_units_Z   4
loop_
 _symmetry_equiv_pos_site_id
 _symmetry_equiv_pos_as_xyz
  1  'x, y, z'
loop_
 _atom_site_type_symbol
 _atom_site_label
 _atom_site_symmetry_multiplicity
 _atom_site_fract_x
 _atom_site_fract_y
 _atom_site_fract_z
 _atom_site_occupancy
  Sr  Sr0  1  0.37500000  0.75000000  0.12500000  1
  Sr  Sr1  1  0.12500000  0.25000000  0.37500000  1
  Sr  Sr2  1  0.37500000  0.12500000  0.25000000  1
  Sr  Sr3  1  0.12500000  0.37500000  0.75000000  1
  Sr  Sr4  1  0.87500000  0.75000000  0.62500000  1
  Sr  Sr5  1  0.75000000  0.12500000  0.37500000  1
  Sr  Sr6  1  0.75000000  0.62500000  0.87500000  1
  Sr  Sr7  1  0.62500000  0.25000000  0.87500000  1
  Sr  Sr8  1  0.25000000  0.87500000  0.62500000  1
  Sr  Sr9  1  0.87500000  0.62500000  0.25000000  1
  Sr  Sr10  1  0.62500000  0.87500000  0.75000000  1
  Sr  Sr11  1  0.25000000  0.37500000  0.12500000  1
  Y  Y0  1  0.00000000  0.00000000  0.00000000  1
  Y  Y1  1  0.00000000  0.50000000  0.00000000  1
  Y  Y2  1  0.00000000  0.00000000  0.50000000  1
  Y  Y3  1  0.00000000  0.50000000  0.50000000  1
  Y  Y4  1  0.50000000  0.00000000  0.50000000  1
  Y  Y5  1  0.50000000  0.50000000  0.00000000  1
  Y  Y6  1  0.50000000  0.50000000  0.50000000  1
  Y  Y7  1  0.50000000  0.00000000  0.00000000  1
  Ge  Ge0  1  0.25000000  0.12500000  0.87500000  1
  Ge  Ge1  1  0.75000000  0.87500000  0.12500000  1
  Ge  Ge2  1  0.37500000  0.25000000  0.62500000  1
  Ge  Ge3  1  0.62500000  0.37500000  0.25000000  1
  Ge  Ge4  1  0.12500000  0.75000000  0.87500000  1
  Ge  Ge5  1  0.87500000  0.12500000  0.75000000  1
  Ge  Ge6  1  0.75000000  0.37500000  0.62500000  1
  Ge  Ge7  1  0.37500000  0.62500000  0.75000000  1
  Ge  Ge8  1  0.12500000  0.87500000  0.25000000  1
  Ge  Ge9  1  0.87500000  0.25000000  0.12500000  1
  Ge  Ge10  1  0.62500000  0.75000000  0.37500000  1
  Ge  Ge11  1  0.25000000  0.62500000  0.37500000  1
  O  O0  1  0.78980000  0.40975700  0.80218700  1
  O  O1  1  0.09024300  0.88004300  0.39243000  1
  O  O2  1  0.69781300  0.10757000  0.98761300  1
  O  O3  1  0.71020000  0.51238700  0.61995700  1
  O  O4  1  0.71020000  0.69781300  0.09024300  1
  O  O5  1  0.51238700  0.61995700  0.71020000  1
  O  O6  1  0.10757000  0.61995700  0.40975700  1
  O  O7  1  0.61995700  0.71020000  0.51238700  1
  O  O8  1  0.39243000  0.80218700  0.51238700  1
  O  O9  1  0.88004300  0.98761300  0.78980000  1
  O  O10  1  0.98761300  0.78980000  0.88004300  1
  O  O11  1  0.09024300  0.71020000  0.69781300  1
  O  O12  1  0.61995700  0.40975700  0.10757000  1
  O  O13  1  0.51238700  0.39243000  0.80218700  1
  O  O14  1  0.69781300  0.09024300  0.71020000  1
  O  O15  1  0.40975700  0.10757000  0.61995700  1
  O  O16  1  0.80218700  0.51238700  0.39243000  1
  O  O17  1  0.39243000  0.09024300  0.88004300  1
  O  O18  1  0.10757000  0.98761300  0.69781300  1
  O  O19  1  0.60757000  0.19781300  0.48761300  1
  O  O20  1  0.98761300  0.69781300  0.10757000  1
  O  O21  1  0.80218700  0.78980000  0.40975700  1
  O  O22  1  0.88004300  0.39243000  0.09024300  1
  O  O23  1  0.78980000  0.88004300  0.98761300  1
  O  O24  1  0.21020000  0.59024300  0.19781300  1
  O  O25  1  0.90975700  0.11995700  0.60757000  1
  O  O26  1  0.30218700  0.89243000  0.01238700  1
  O  O27  1  0.28980000  0.48761300  0.38004300  1
  O  O28  1  0.28980000  0.30218700  0.90975700  1
  O  O29  1  0.48761300  0.38004300  0.28980000  1
  O  O30  1  0.89243000  0.38004300  0.59024300  1
  O  O31  1  0.38004300  0.28980000  0.48761300  1
  O  O32  1  0.21020000  0.11995700  0.01238700  1
  O  O33  1  0.11995700  0.60757000  0.90975700  1
  O  O34  1  0.19781300  0.21020000  0.59024300  1
  O  O35  1  0.59024300  0.19781300  0.21020000  1
  O  O36  1  0.01238700  0.30218700  0.89243000  1
  O  O37  1  0.89243000  0.01238700  0.30218700  1
  O  O38  1  0.60757000  0.90975700  0.11995700  1
  O  O39  1  0.19781300  0.48761300  0.60757000  1
  O  O40  1  0.59024300  0.89243000  0.38004300  1
  O  O41  1  0.30218700  0.90975700  0.28980000  1
  O  O42  1  0.48761300  0.60757000  0.19781300  1
  O  O43  1  0.38004300  0.59024300  0.89243000  1
  O  O44  1  0.90975700  0.28980000  0.30218700  1
  O  O45  1  0.01238700  0.21020000  0.11995700  1
  O  O46  1  0.11995700  0.01238700  0.21020000  1
  O  O47  1  0.40975700  0.80218700  0.78980000  1
loop_
_geom_bond_atom_site_label_1
_geom_bond_atom_site_label_2
_geom_bond_distance
_geom_bond_site_symmetry_2
Ge0 O32 1.795844 1_556
Ge0 O17 1.795844 1_555
Ge0 O28 1.795844 1_555
Ge0 O18 1.795844 1_545
Ge1 O38 1.795844 1_555
Ge1 O37 1.795844 1_565
Ge1 O4 1.795844 1_555
Ge1 O23 1.795844 1_554
Ge2 O31 1.795844 1_555
Ge2 O13 1.795844 1_555
Ge2 O15 1.795844 1_555
Ge2 O34 1.795844 1_555
Ge3 O29 1.795844 1_555
Ge3 O35 1.795844 1_555
Ge3 O12 1.795844 1_555
Ge3 O16 1.795844 1_555
Ge4 O33 1.795844 1_555
Ge4 O26 1.795844 1_556
Ge4 O10 1.795844 1_455
Ge4 O11 1.795844 1_555
Ge5 O36 1.795844 1_655
Ge5 O25 1.795844 1_555
Ge5 O14 1.795844 1_555
Ge5 O9 1.795844 1_545
Ge6 O30 1.795844 1_555
Ge6 O19 1.795844 1_555
Ge6 O0 1.795844 1_555
Ge6 O3 1.795844 1_555
Ge7 O43 1.795844 1_555
Ge7 O39 1.795844 1_555
Ge7 O5 1.795844 1_555
Ge7 O47 1.795844 1_555
Ge8 O46 1.795844 1_565
Ge8 O41 1.795844 1_555
Ge8 O1 1.795844 1_555
Ge8 O20 1.795844 1_455
Ge9 O45 1.795844 1_655
Ge9 O2 1.795844 1_554
Ge9 O44 1.795844 1_555
Ge9 O22 1.795844 1_555
Ge10 O40 1.795844 1_555
Ge10 O42 1.795844 1_555
Ge10 O21 1.795844 1_555
Ge10 O7 1.795844 1_555
Ge11 O8 1.795844 1_555
Ge11 O6 1.795844 1_555
Ge11 O27 1.795844 1_555
Ge11 O24 1.795844 1_555
O0 Y1 2.273260 1_656
O0 Sr6 2.578197 1_555
O0 Sr7 2.721889 1_555
O1 Y2 2.273260 1_565
O1 Sr9 2.578197 1_455
O1 Sr8 2.721889 1_555
O2 Y7 2.273260 1_556
O2 Sr7 2.578197 1_555
O2 Sr10 2.721889 1_545
O3 Y6 2.273260 1_555
O3 Sr6 2.578197 1_555
O3 Sr4 2.721889 1_555
O4 Y5 2.273260 1_555
O4 Sr6 2.578197 1_554
O4 Sr9 2.721889 1_555
O5 Y6 2.273260 1_555
O5 Sr10 2.578197 1_555
O5 Sr6 2.721889 1_555
O6 Y3 2.273260 1_555
O6 Sr8 2.578197 1_555
O6 Sr9 2.721889 1_455
O7 Y6 2.273260 1_555
O7 Sr4 2.578197 1_555
O7 Sr10 2.721889 1_555
O8 Y4 2.273260 1_565
O8 Sr8 2.578197 1_555
O8 Sr10 2.721889 1_555
O9 Y0 2.273260 1_666
O9 Sr10 2.578197 1_555
O9 Sr4 2.721889 1_555
O10 Y0 2.273260 1_666
O10 Sr4 2.578197 1_555
O10 Sr6 2.721889 1_555
O11 Y3 2.273260 1_555
O11 Sr4 2.578197 1_455
O11 Sr8 2.721889 1_555
O12 Y5 2.273260 1_555
O12 Sr9 2.578197 1_555
O12 Sr7 2.721889 1_554
O13 Y5 2.273260 1_556
O13 Sr7 2.578197 1_555
O13 Sr6 2.721889 1_555
O14 Y4 2.273260 1_555
O14 Sr10 2.578197 1_545
O14 Sr7 2.721889 1_555
O15 Y4 2.273260 1_555
O15 Sr7 2.578197 1_555
O15 Sr8 2.721889 1_545
O16 Y3 2.273260 1_655
O16 Sr9 2.578197 1_555
O16 Sr4 2.721889 1_555
O17 Y7 2.273260 1_556
O17 Sr8 2.578197 1_545
O17 Sr7 2.721889 1_555
O18 Y2 2.273260 1_565
O18 Sr8 2.578197 1_555
O18 Sr4 2.721889 1_455
O19 Y4 2.273260 1_555
O19 Sr5 2.578197 1_555
O19 Sr2 2.721889 1_555
O20 Y1 2.273260 1_655
O20 Sr9 2.578197 1_555
O20 Sr6 2.721889 1_554
O21 Y2 2.273260 1_665
O21 Sr4 2.578197 1_555
O21 Sr9 2.721889 1_555
O22 Y1 2.273260 1_655
O22 Sr7 2.578197 1_554
O22 Sr9 2.721889 1_555
O23 Y0 2.273260 1_666
O23 Sr6 2.578197 1_555
O23 Sr10 2.721889 1_555
O24 Y1 2.273260 1_555
O24 Sr11 2.578197 1_555
O24 Sr0 2.721889 1_555
O25 Y2 2.273260 1_655
O25 Sr3 2.578197 1_655
O25 Sr5 2.721889 1_555
O26 Y7 2.273260 1_565
O26 Sr0 2.578197 1_555
O26 Sr2 2.721889 1_565
O27 Y6 2.273260 1_555
O27 Sr11 2.578197 1_555
O27 Sr1 2.721889 1_555
O28 Y5 2.273260 1_556
O28 Sr11 2.578197 1_556
O28 Sr3 2.721889 1_555
O29 Y6 2.273260 1_555
O29 Sr2 2.578197 1_555
O29 Sr11 2.721889 1_555
O30 Y3 2.273260 1_655
O30 Sr5 2.578197 1_555
O30 Sr3 2.721889 1_655
O31 Y6 2.273260 1_555
O31 Sr1 2.578197 1_555
O31 Sr2 2.721889 1_555
O32 Y0 2.273260 1_555
O32 Sr11 2.578197 1_555
O32 Sr2 2.721889 1_555
O33 Y1 2.273260 1_556
O33 Sr0 2.578197 1_556
O33 Sr3 2.721889 1_555
O34 Y2 2.273260 1_555
O34 Sr1 2.578197 1_555
O34 Sr3 2.721889 1_555
O35 Y7 2.273260 1_555
O35 Sr2 2.578197 1_555
O35 Sr5 2.721889 1_555
O36 Y1 2.273260 1_556
O36 Sr3 2.578197 1_555
O36 Sr11 2.721889 1_556
O37 Y2 2.273260 1_655
O37 Sr5 2.578197 1_555
O37 Sr1 2.721889 1_655
O38 Y7 2.273260 1_565
O38 Sr5 2.578197 1_565
O38 Sr0 2.721889 1_555
O39 Y3 2.273260 1_555
O39 Sr3 2.578197 1_555
O39 Sr1 2.721889 1_555
O40 Y4 2.273260 1_565
O40 Sr0 2.578197 1_555
O40 Sr5 2.721889 1_565
O41 Y4 2.273260 1_565
O41 Sr2 2.578197 1_565
O41 Sr0 2.721889 1_555
O42 Y5 2.273260 1_555
O42 Sr0 2.578197 1_555
O42 Sr11 2.721889 1_555
O43 Y5 2.273260 1_556
O43 Sr3 2.578197 1_555
O43 Sr0 2.721889 1_556
O44 Y3 2.273260 1_655
O44 Sr1 2.578197 1_655
O44 Sr5 2.721889 1_555
O45 Y0 2.273260 1_555
O45 Sr1 2.578197 1_555
O45 Sr11 2.721889 1_555
O46 Y0 2.273260 1_555
O46 Sr2 2.578197 1_555
O46 Sr1 2.721889 1_555
O47 Y7 2.273260 1_566
O47 Sr10 2.578197 1_555
O47 Sr8 2.721889 1_555
