# generated using pymatgen
data_CsGaBP2HO9
_symmetry_space_group_name_H-M   'P 1'
_cell_length_a   8.84298200
_cell_length_b   9.49391000
_cell_length_c   9.79616376
_cell_angle_alpha   75.53613881
_cell_angle_beta   90.00000000
_cell_angle_gamma   90.00000000
_symmetry_Int_Tables_number   1
_chemical_formula_structural   CsGaBP2HO9
_chemical_formula_sum   'Cs4 Ga4 B4 P8 H4 O36'
_cell_volume   796.36511878
_cell_formula_units_Z   4
loop_
 _symmetry_equiv_pos_site_id
 _symmetry_equiv_pos_as_xyz
  1  'x, y, z'
loop_
 _atom_site_type_symbol
 _atom_site_label
 _atom_site_symmetry_multiplicity
 _atom_site_fract_x
 _atom_site_fract_y
 _atom_site_fract_z
 _atom_site_occupancy
  Cs  Cs0  1  0.61352500  0.69613400  0.44531000  1
  Cs  Cs1  1  0.11352500  0.30386600  0.05469000  1
  Cs  Cs2  1  0.38647500  0.30386600  0.55469000  1
  Cs  Cs3  1  0.88647500  0.69613400  0.94531000  1
  Ga  Ga0  1  0.15696300  0.69898600  0.57164900  1
  Ga  Ga1  1  0.65696300  0.30101400  0.92835100  1
  Ga  Ga2  1  0.84303700  0.30101400  0.42835100  1
  Ga  Ga3  1  0.34303700  0.69898600  0.07164900  1
  B  B0  1  0.46548900  0.15520100  0.19614400  1
  B  B1  1  0.96548900  0.84479900  0.30385600  1
  B  B2  1  0.53451100  0.84479900  0.80385600  1
  B  B3  1  0.03451100  0.15520100  0.69614400  1
  P  P0  1  0.07267700  0.57516300  0.29970300  1
  P  P1  1  0.57267700  0.42483700  0.20029700  1
  P  P2  1  0.92732300  0.42483700  0.70029700  1
  P  P3  1  0.42732300  0.57516300  0.79970300  1
  P  P4  1  0.27183400  0.91390700  0.28432600  1
  P  P5  1  0.77183400  0.08609300  0.21567400  1
  P  P6  1  0.72816600  0.08609300  0.71567400  1
  P  P7  1  0.22816600  0.91390700  0.78432600  1
  H  H0  1  0.93927500  0.89436400  0.49973600  1
  H  H1  1  0.43927500  0.10563600  0.00026400  1
  H  H2  1  0.06072500  0.10563600  0.50026400  1
  H  H3  1  0.56072500  0.89436400  0.99973600  1
  O  O0  1  0.10048500  0.92862300  0.23900900  1
  O  O1  1  0.60048500  0.07137700  0.26099100  1
  O  O2  1  0.89951500  0.07137700  0.76099100  1
  O  O3  1  0.39951500  0.92862300  0.73900900  1
  O  O4  1  0.16589300  0.58077200  0.43062300  1
  O  O5  1  0.66589300  0.41922800  0.06937700  1
  O  O6  1  0.83410700  0.41922800  0.56937700  1
  O  O7  1  0.33410700  0.58077200  0.93062300  1
  O  O8  1  0.95050500  0.70233800  0.27101300  1
  O  O9  1  0.45050500  0.29766200  0.22898700  1
  O  O10  1  0.04949500  0.29766200  0.72898700  1
  O  O11  1  0.54949500  0.70233800  0.77101300  1
  O  O12  1  0.32656700  0.07639000  0.24931200  1
  O  O13  1  0.82656700  0.92361000  0.25068800  1
  O  O14  1  0.67343300  0.92361000  0.75068800  1
  O  O15  1  0.17343300  0.07639000  0.74931200  1
  O  O16  1  0.28716400  0.84929100  0.44276100  1
  O  O17  1  0.78716400  0.15070900  0.05723900  1
  O  O18  1  0.71283600  0.15070900  0.55723900  1
  O  O19  1  0.21283600  0.84929100  0.94276100  1
  O  O20  1  0.17026000  0.59574200  0.16608600  1
  O  O21  1  0.67026000  0.40425800  0.33391400  1
  O  O22  1  0.82974000  0.40425800  0.83391400  1
  O  O23  1  0.32974000  0.59574200  0.66608600  1
  O  O24  1  0.98933400  0.43075100  0.31182400  1
  O  O25  1  0.48933400  0.56924900  0.18817600  1
  O  O26  1  0.01066600  0.56924900  0.68817600  1
  O  O27  1  0.51066600  0.43075100  0.81182400  1
  O  O28  1  0.36610100  0.83348100  0.19659900  1
  O  O29  1  0.86610100  0.16651900  0.30340100  1
  O  O30  1  0.63389900  0.16651900  0.80340100  1
  O  O31  1  0.13389900  0.83348100  0.69659900  1
  O  O32  1  0.97014000  0.81381700  0.46150400  1
  O  O33  1  0.47014000  0.18618300  0.03849600  1
  O  O34  1  0.02986000  0.18618300  0.53849600  1
  O  O35  1  0.52986000  0.81381700  0.96150400  1
loop_
_geom_bond_atom_site_label_1
_geom_bond_atom_site_label_2
_geom_bond_distance
_geom_bond_site_symmetry_2
Cs0 O13 3.129107 1_555
Cs0 O16 3.228900 1_555
Cs0 O25 3.243149 1_555
Cs0 O6 3.255323 1_555
Cs0 O11 3.255477 1_555
Cs0 O21 3.260643 1_555
Cs0 O28 3.291898 1_555
Cs0 O23 3.294516 1_555
Cs0 O32 3.362561 1_555
Cs0 O8 3.427600 1_555
Cs0 O1 3.570969 1_565
Cs1 O12 3.129107 1_555
Cs1 O17 3.228900 1_455
Cs1 O24 3.243149 1_455
Cs1 O7 3.255323 1_554
Cs1 O10 3.255477 1_554
Cs1 O20 3.260643 1_555
Cs1 O29 3.291898 1_455
Cs1 O22 3.294516 1_454
Cs1 O33 3.362561 1_555
Cs1 O9 3.427600 1_555
Cs1 O0 3.570969 1_545
Cs2 O15 3.129107 1_555
Cs2 O18 3.228900 1_555
Cs2 O27 3.243149 1_555
Cs2 O4 3.255323 1_555
Cs2 O9 3.255477 1_555
Cs2 O23 3.260643 1_555
Cs2 O30 3.291898 1_555
Cs2 O21 3.294516 1_555
Cs2 O34 3.362561 1_555
Cs2 O10 3.427600 1_555
Cs2 O3 3.570969 1_545
Cs3 O14 3.129107 1_555
Cs3 O19 3.228900 1_655
Cs3 O26 3.243149 1_655
Cs3 O5 3.255323 1_556
Cs3 O8 3.255477 1_556
Cs3 O22 3.260643 1_555
Cs3 O31 3.291898 1_655
Cs3 O20 3.294516 1_656
Cs3 O35 3.362561 1_555
Cs3 O11 3.427600 1_555
Cs3 O2 3.570969 1_565
Ga0 O23 1.923021 1_555
Ga0 O26 1.947172 1_555
Ga0 O4 1.987192 1_555
Ga0 O31 1.987720 1_555
Ga0 O16 2.013969 1_555
Ga0 O32 2.120021 1_455
Ga1 O22 1.923021 1_555
Ga1 O27 1.947172 1_555
Ga1 O5 1.987192 1_556
Ga1 O30 1.987720 1_555
Ga1 O17 2.013969 1_556
Ga1 O33 2.120021 1_556
Ga2 O21 1.923021 1_555
Ga2 O24 1.947172 1_555
Ga2 O6 1.987192 1_555
Ga2 O29 1.987720 1_555
Ga2 O18 2.013969 1_555
Ga2 O34 2.120021 1_655
Ga3 O20 1.923021 1_555
Ga3 O25 1.947172 1_555
Ga3 O7 1.987192 1_554
Ga3 O28 1.987720 1_555
Ga3 O19 2.013969 1_554
Ga3 O35 2.120021 1_554
B0 O12 1.464793 1_555
B0 O9 1.472323 1_555
B0 O1 1.486409 1_555
B0 O33 1.498765 1_555
B1 O13 1.464793 1_555
B1 O8 1.472323 1_555
B1 O0 1.486409 1_655
B1 O32 1.498765 1_555
B2 O14 1.464793 1_555
B2 O11 1.472323 1_555
B2 O3 1.486409 1_555
B2 O35 1.498765 1_555
B3 O15 1.464793 1_555
B3 O10 1.472323 1_555
B3 O2 1.486409 1_455
B3 O34 1.498765 1_555
H0 O32 0.970881 1_555
H1 O33 0.970881 1_555
H2 O34 0.970881 1_555
H3 O35 0.970881 1_555
O0 P4 1.575295 1_555
O1 P5 1.575295 1_555
O2 P6 1.575295 1_555
O3 P7 1.575295 1_555
O4 P0 1.536644 1_555
O5 P1 1.536644 1_555
O6 P2 1.536644 1_555
O7 P3 1.536644 1_555
O8 P0 1.591996 1_655
O9 P1 1.591996 1_555
O10 P2 1.591996 1_455
O11 P3 1.591996 1_555
O12 P4 1.570735 1_545
O13 P5 1.570735 1_565
O14 P6 1.570735 1_565
O15 P7 1.570735 1_545
O16 P4 1.525766 1_555
O17 P5 1.525766 1_555
O18 P6 1.525766 1_555
O19 P7 1.525766 1_555
O20 P0 1.538951 1_555
O21 P1 1.538951 1_555
O22 P2 1.538951 1_555
O23 P3 1.538951 1_555
O24 P0 1.534823 1_655
O25 P1 1.534823 1_555
O26 P2 1.534823 1_455
O27 P3 1.534823 1_555
O28 P4 1.531095 1_555
O29 P5 1.531095 1_555
O30 P6 1.531095 1_555
O31 P7 1.531095 1_555
