# generated using pymatgen
data_Ba2Ca3Tl2(SnO3)4
_symmetry_space_group_name_H-M   'P 1'
_cell_length_a   23.59239985
_cell_length_b   23.59239985
_cell_length_c   23.59239985
_cell_angle_alpha   169.78834425
_cell_angle_beta   169.78834425
_cell_angle_gamma   14.46070591
_symmetry_Int_Tables_number   1
_chemical_formula_structural   Ba2Ca3Tl2(SnO3)4
_chemical_formula_sum   'Ba2 Ca3 Tl2 Sn4 O12'
_cell_volume   412.71121637
_cell_formula_units_Z   1
loop_
 _symmetry_equiv_pos_site_id
 _symmetry_equiv_pos_as_xyz
  1  'x, y, z'
loop_
 _atom_site_type_symbol
 _atom_site_label
 _atom_site_symmetry_multiplicity
 _atom_site_fract_x
 _atom_site_fract_y
 _atom_site_fract_z
 _atom_site_occupancy
  Ba  Ba0  1  0.17244200  0.17244200  0.00000000  1
  Ba  Ba1  1  0.82755800  0.82755800  0.00000000  1
  Ca  Ca0  1  0.07821600  0.07821600  0.00000000  1
  Ca  Ca1  1  0.92178400  0.92178400  0.00000000  1
  Ca  Ca2  1  0.00000000  0.00000000  0.00000000  1
  Tl  Tl0  1  0.72748200  0.72748200  0.00000000  1
  Tl  Tl1  1  0.27251800  0.27251800  0.00000000  1
  Sn  Sn0  1  0.53187400  0.53187400  0.00000000  1
  Sn  Sn1  1  0.38475500  0.38475500  0.00000000  1
  Sn  Sn2  1  0.61524500  0.61524500  0.00000000  1
  Sn  Sn3  1  0.46812600  0.46812600  0.00000000  1
  O  O0  1  0.89709500  0.39709500  0.50000000  1
  O  O1  1  0.03587800  0.53587800  0.50000000  1
  O  O2  1  0.22270700  0.22270700  0.00000000  1
  O  O3  1  0.46412200  0.96412200  0.50000000  1
  O  O4  1  0.77729300  0.77729300  0.00000000  1
  O  O5  1  0.60290500  0.10290500  0.50000000  1
  O  O6  1  0.10290500  0.60290500  0.50000000  1
  O  O7  1  0.34218500  0.34218500  0.00000000  1
  O  O8  1  0.39709500  0.89709500  0.50000000  1
  O  O9  1  0.53587800  0.03587800  0.50000000  1
  O  O10  1  0.96412200  0.46412200  0.50000000  1
  O  O11  1  0.65781500  0.65781500  0.00000000  1
loop_
_geom_bond_atom_site_label_1
_geom_bond_atom_site_label_2
_geom_bond_distance
_geom_bond_site_symmetry_2
Ba0 O2 2.352884 1_555
Ba0 O11 3.047228 1_545
Ba0 O11 3.047228 1_455
Ba0 O11 3.047228 1_556
Ba0 O11 3.047228 1_444
Ba1 O4 2.352884 1_555
Ba1 O7 3.047228 1_565
Ba1 O7 3.047228 1_655
Ba1 O7 3.047228 1_554
Ba1 O7 3.047228 1_666
Ca0 O5 2.396665 1_454
Ca0 O6 2.396665 1_555
Ca0 O6 2.396665 1_544
Ca0 O5 2.396665 1_555
Ca0 O9 2.887219 1_454
Ca0 O1 2.887219 1_544
Ca0 O1 2.887219 1_555
Ca0 O9 2.887219 1_555
Ca1 O8 2.396665 1_655
Ca1 O0 2.396665 1_554
Ca1 O0 2.396665 1_565
Ca1 O8 2.396665 1_554
Ca1 O3 2.887219 1_655
Ca1 O10 2.887219 1_565
Ca1 O10 2.887219 1_554
Ca1 O3 2.887219 1_554
Ca2 O1 2.688662 1_544
Ca2 O9 2.688662 1_454
Ca2 O9 2.688662 1_555
Ca2 O10 2.688662 1_455
Ca2 O1 2.688662 1_555
Ca2 O3 2.688662 1_444
Ca2 O3 2.688662 1_545
Ca2 O10 2.688662 1_444
O0 Sn1 2.177627 1_555
O0 Sn1 2.177627 1_656
O1 Sn0 2.107969 1_556
O1 Sn0 2.107969 1_455
O2 Tl1 2.331633 1_555
O3 Sn3 2.107969 1_555
O3 Sn3 2.107969 1_566
O4 Tl0 2.331633 1_555
O5 Sn2 2.177627 1_545
O5 Sn2 2.177627 1_556
O6 Sn2 2.177627 1_455
O6 Sn2 2.177627 1_556
O7 Sn1 1.992684 1_555
O8 Sn1 2.177627 1_566
O8 Sn1 2.177627 1_555
O9 Sn0 2.107969 1_556
O9 Sn0 2.107969 1_545
O10 Sn3 2.107969 1_555
O10 Sn3 2.107969 1_656
O11 Sn2 1.992684 1_555
