# generated using pymatgen
data_Li9Co7O16
_symmetry_space_group_name_H-M   'P 1'
_cell_length_a   5.81007400
_cell_length_b   5.12384600
_cell_length_c   9.69183502
_cell_angle_alpha   80.25042859
_cell_angle_beta   90.00000000
_cell_angle_gamma   90.00000000
_symmetry_Int_Tables_number   1
_chemical_formula_structural   Li9Co7O16
_chemical_formula_sum   'Li9 Co7 O16'
_cell_volume   284.35812054
_cell_formula_units_Z   1
loop_
 _symmetry_equiv_pos_site_id
 _symmetry_equiv_pos_as_xyz
  1  'x, y, z'
loop_
 _atom_site_type_symbol
 _atom_site_label
 _atom_site_symmetry_multiplicity
 _atom_site_fract_x
 _atom_site_fract_y
 _atom_site_fract_z
 _atom_site_occupancy
  Li  Li0  1  0.25269100  0.50000000  0.00000000  1
  Li  Li1  1  0.50000000  0.24179500  0.24639800  1
  Li  Li2  1  0.74730900  0.50000000  0.00000000  1
  Li  Li3  1  0.00000000  0.25271400  0.24610300  1
  Li  Li4  1  0.00000000  0.74728600  0.75389700  1
  Li  Li5  1  0.50000000  0.75820500  0.75360200  1
  Li  Li6  1  0.74596800  0.00000000  0.50000000  1
  Li  Li7  1  0.25403200  0.00000000  0.50000000  1
  Li  Li8  1  0.50000000  0.00000000  0.00000000  1
  Co  Co0  1  0.00000000  0.00000000  0.00000000  1
  Co  Co1  1  0.25499900  0.75679800  0.24305100  1
  Co  Co2  1  0.50000000  0.50000000  0.50000000  1
  Co  Co3  1  0.74500100  0.24320200  0.75694900  1
  Co  Co4  1  0.74500100  0.75679800  0.24305100  1
  Co  Co5  1  0.00000000  0.50000000  0.50000000  1
  Co  Co6  1  0.25499900  0.24320200  0.75694900  1
  O  O0  1  0.00000000  0.34350500  0.88149600  1
  O  O1  1  0.22804100  0.10396000  0.11971200  1
  O  O2  1  0.50000000  0.37897600  0.85962100  1
  O  O3  1  0.77195900  0.10396000  0.11971200  1
  O  O4  1  0.76089000  0.60726900  0.61303500  1
  O  O5  1  0.23911000  0.60726900  0.61303500  1
  O  O6  1  0.50000000  0.86682000  0.37145500  1
  O  O7  1  0.00000000  0.83419100  0.37583300  1
  O  O8  1  0.50000000  0.62102400  0.14037900  1
  O  O9  1  0.76089000  0.39273100  0.38696500  1
  O  O10  1  0.00000000  0.65649500  0.11850400  1
  O  O11  1  0.23911000  0.39273100  0.38696500  1
  O  O12  1  0.22804100  0.89604000  0.88028800  1
  O  O13  1  0.77195900  0.89604000  0.88028800  1
  O  O14  1  0.00000000  0.16580900  0.62416700  1
  O  O15  1  0.50000000  0.13318000  0.62854500  1
loop_
_geom_bond_atom_site_label_1
_geom_bond_atom_site_label_2
_geom_bond_distance
_geom_bond_site_symmetry_2
Li0 O10 2.104628 1_555
Li0 O0 2.104628 1_554
Li0 O8 2.141483 1_555
Li0 O2 2.141483 1_554
Li0 O12 2.164970 1_554
Li0 O1 2.164970 1_555
Li1 O8 2.038446 1_555
Li1 O6 2.090880 1_545
Li1 O3 2.190145 1_555
Li1 O1 2.190145 1_555
Li1 O9 2.260214 1_555
Li1 O11 2.260214 1_555
Li2 O0 2.104628 1_654
Li2 O10 2.104628 1_655
Li2 O8 2.141483 1_555
Li2 O2 2.141483 1_554
Li2 O13 2.164970 1_554
Li2 O3 2.164970 1_555
Li3 O1 2.037924 1_555
Li3 O3 2.037924 1_455
Li3 O11 2.154119 1_555
Li3 O9 2.154119 1_455
Li3 O10 2.223331 1_555
Li3 O7 2.294849 1_545
Li4 O13 2.037924 1_455
Li4 O12 2.037924 1_555
Li4 O5 2.154119 1_555
Li4 O4 2.154119 1_455
Li4 O0 2.223331 1_555
Li4 O14 2.294849 1_565
Li5 O2 2.038446 1_555
Li5 O15 2.090880 1_565
Li5 O12 2.190145 1_555
Li5 O13 2.190145 1_555
Li5 O4 2.260214 1_555
Li5 O5 2.260214 1_555
Li6 O6 2.085188 1_545
Li6 O15 2.085188 1_555
Li6 O9 2.123763 1_555
Li6 O4 2.123763 1_545
Li6 O7 2.166715 1_645
Li6 O14 2.166715 1_655
Li7 O15 2.085188 1_555
Li7 O6 2.085188 1_545
Li7 O11 2.123763 1_555
Li7 O5 2.123763 1_545
Li7 O14 2.166715 1_555
Li7 O7 2.166715 1_545
Li8 O3 2.082285 1_555
Li8 O13 2.082285 1_544
Li8 O1 2.082285 1_555
Li8 O12 2.082285 1_544
Li8 O2 2.174147 1_554
Li8 O8 2.174147 1_545
Co0 O1 1.895954 1_555
Co0 O3 1.895954 1_455
Co0 O12 1.895954 1_544
Co0 O13 1.895954 1_444
Co0 O10 1.931915 1_545
Co0 O0 1.931915 1_554
Co1 O8 1.932589 1_555
Co1 O1 1.974197 1_565
Co1 O10 2.031338 1_555
Co1 O6 2.032335 1_555
Co1 O7 2.044806 1_555
Co1 O11 2.133671 1_555
Co2 O9 2.000950 1_555
Co2 O4 2.000950 1_555
Co2 O11 2.000950 1_555
Co2 O5 2.000950 1_555
Co2 O15 2.071637 1_555
Co2 O6 2.071637 1_555
Co3 O2 1.932589 1_555
Co3 O13 1.974197 1_545
Co3 O0 2.031338 1_655
Co3 O15 2.032335 1_555
Co3 O14 2.044806 1_655
Co3 O4 2.133671 1_555
Co4 O8 1.932589 1_555
Co4 O3 1.974197 1_565
Co4 O10 2.031338 1_655
Co4 O6 2.032335 1_555
Co4 O7 2.044806 1_655
Co4 O9 2.133671 1_555
Co5 O5 1.906879 1_555
Co5 O11 1.906879 1_555
Co5 O4 1.906879 1_455
Co5 O9 1.906879 1_455
Co5 O14 1.918957 1_555
Co5 O7 1.918957 1_555
Co6 O2 1.932589 1_555
Co6 O12 1.974197 1_545
Co6 O0 2.031338 1_555
Co6 O15 2.032335 1_555
Co6 O14 2.044806 1_555
Co6 O5 2.133671 1_555
