# generated using pymatgen
data_Mg16Al12Au
_symmetry_space_group_name_H-M   'P 1'
_cell_length_a   9.28574023
_cell_length_b   9.03742188
_cell_length_c   9.03742358
_cell_angle_alpha   108.90795115
_cell_angle_beta   110.02878320
_cell_angle_gamma   110.02878181
_symmetry_Int_Tables_number   1
_chemical_formula_structural   Mg16Al12Au
_chemical_formula_sum   'Mg16 Al12 Au1'
_cell_volume   579.76106339
_cell_formula_units_Z   1
loop_
 _symmetry_equiv_pos_site_id
 _symmetry_equiv_pos_as_xyz
  1  'x, y, z'
loop_
 _atom_site_type_symbol
 _atom_site_label
 _atom_site_symmetry_multiplicity
 _atom_site_fract_x
 _atom_site_fract_y
 _atom_site_fract_z
 _atom_site_occupancy
  Mg  Mg0  1  0.31668700  0.59822500  0.99999900  1
  Mg  Mg1  1  0.00263600  0.34904800  0.99999900  1
  Mg  Mg2  1  0.58300600  0.28087600  0.00000000  1
  Mg  Mg3  1  0.99589200  0.99999900  0.00000000  1
  Mg  Mg4  1  0.68125400  0.67766300  0.27574700  1
  Mg  Mg5  1  0.58300700  0.99999900  0.28087600  1
  Mg  Mg6  1  0.00359200  0.59808400  0.32233700  1
  Mg  Mg7  1  0.00263500  0.00000000  0.34904800  1
  Mg  Mg8  1  0.71846300  0.40177500  0.40177500  1
  Mg  Mg9  1  0.40550900  0.72425400  0.40191700  1
  Mg  Mg10  1  0.00359200  0.32233700  0.59808400  1
  Mg  Mg11  1  0.31668800  0.99999900  0.59822500  1
  Mg  Mg12  1  0.65358700  0.65095100  0.65095100  1
  Mg  Mg13  1  0.68125400  0.27574700  0.67766300  1
  Mg  Mg14  1  0.30213100  0.71912400  0.71912400  1
  Mg  Mg15  1  0.40550800  0.40191700  0.72425400  1
  Al  Al0  1  0.81483000  0.62002600  0.99999900  1
  Al  Al1  1  0.64732700  0.81118300  0.00000000  1
  Al  Al2  1  0.36730000  0.36853900  0.18477600  1
  Al  Al3  1  0.18252300  0.81522200  0.18376100  1
  Al  Al4  1  0.83614300  0.18881800  0.18881800  1
  Al  Al5  1  0.36730000  0.18477700  0.36853900  1
  Al  Al6  1  0.19480200  0.37997400  0.37997400  1
  Al  Al7  1  0.81483000  0.99999900  0.62002600  1
  Al  Al8  1  0.99876300  0.81623900  0.63146200  1
  Al  Al9  1  0.64732700  0.00000000  0.81118300  1
  Al  Al10  1  0.99876200  0.63146200  0.81624000  1
  Al  Al11  1  0.18252300  0.18376000  0.81522200  1
  Au  Au0  1  0.29213300  0.00000000  0.00000100  1
loop_
_geom_bond_atom_site_label_1
_geom_bond_atom_site_label_2
_geom_bond_distance
_geom_bond_site_symmetry_2
Mg0 Mg1 3.012809 1_555
Mg0 Mg14 3.052722 1_555
Mg0 Mg5 3.052726 1_556
Mg0 Mg15 3.095604 1_555
Mg0 Mg4 3.095617 1_556
Mg0 Mg10 3.129569 1_555
Mg0 Mg9 3.129588 1_556
Mg1 Mg13 3.044842 1_455
Mg1 Mg6 3.044847 1_556
Mg1 Mg3 3.133611 1_446
Mg2 Mg8 3.052728 1_555
Mg2 Mg4 3.211180 1_555
Mg2 Mg6 3.329039 1_655
Mg3 Mg7 3.133599 1_665
Mg4 Mg7 3.044841 1_665
Mg4 Mg8 3.129579 1_555
Mg4 Mg5 3.329020 1_555
Mg5 Mg8 3.052737 1_565
Mg5 Mg9 3.211171 1_555
Mg6 Mg8 3.095614 1_455
Mg10 Mg7 3.044835 1_555
Mg10 Mg8 3.095614 1_455
Mg10 Mg14 3.211180 1_555
Mg10 Mg5 3.329036 1_445
Mg11 Mg7 3.012827 1_565
Mg11 Mg14 3.052721 1_555
Mg11 Mg2 3.052730 1_566
Mg11 Mg9 3.095604 1_555
Mg11 Mg13 3.095610 1_565
Mg11 Mg6 3.129571 1_555
Mg11 Mg15 3.129592 1_565
Mg12 Mg8 3.012812 1_555
Mg12 Mg9 3.044833 1_555
Mg12 Mg15 3.044839 1_555
Mg12 Mg3 3.133605 1_556
Mg13 Mg8 3.129579 1_555
Mg13 Mg5 3.211187 1_545
Mg13 Mg2 3.329034 1_556
Mg14 Mg6 3.211181 1_555
Mg14 Mg15 3.329027 1_555
Mg14 Mg9 3.329033 1_555
Mg15 Mg2 3.211177 1_556
Al0 Al1 2.691524 1_556
Al0 Al10 2.760239 1_555
Al0 Al3 2.760254 1_656
Al0 Mg13 2.951710 1_555
Al0 Mg6 2.951725 1_656
Al0 Mg2 3.083655 1_556
Al0 Mg15 3.120671 1_555
Al0 Mg4 3.120688 1_556
Al0 Mg12 3.145394 1_555
Al0 Mg7 3.145403 1_666
Al0 Mg3 3.265599 1_556
Al1 Al9 2.776852 1_564
Al1 Al4 2.776859 1_565
Al1 Mg5 2.939617 1_555
Al1 Mg14 2.939620 1_554
Al1 Mg0 3.013775 1_554
Al1 Mg7 3.045312 1_665
Al1 Mg12 3.045321 1_554
Al1 Mg15 3.071978 1_554
Al1 Mg4 3.071987 1_555
Al1 Mg3 3.099147 1_555
Al2 Al5 2.702517 1_555
Al2 Al6 2.760276 1_555
Al2 Mg4 2.875834 1_555
Al2 Au0 2.893702 1_555
Al2 Mg9 2.994106 1_555
Al2 Mg8 3.022588 1_555
Al2 Mg0 3.113756 1_554
Al2 Mg1 3.132615 1_554
Al2 Mg2 3.154184 1_555
Al2 Mg3 3.218420 1_445
Al3 Al5 2.717444 1_565
Al3 Mg9 2.875844 1_555
Al3 Au0 2.893695 1_565
Al3 Mg6 2.994101 1_555
Al3 Mg0 3.022573 1_554
Al3 Mg11 3.113763 1_555
Al3 Mg7 3.132633 1_565
Al3 Mg5 3.154196 1_555
Al3 Mg3 3.218409 1_455
Al4 Al6 2.691517 1_655
Al4 Al9 2.776859 1_554
Al4 Mg5 2.939614 1_545
Al4 Mg2 2.939617 1_555
Al4 Mg8 3.013755 1_555
Al4 Mg7 3.045320 1_655
Al4 Mg1 3.045334 1_654
Al4 Mg6 3.071979 1_655
Al4 Mg10 3.071980 1_655
Al4 Mg3 3.099171 1_545
Al5 Al6 2.760269 1_555
Al5 Mg13 2.875838 1_555
Al5 Au0 2.893697 1_555
Al5 Mg15 2.994109 1_555
Al5 Mg8 3.022586 1_555
Al5 Mg11 3.113761 1_545
Al5 Mg7 3.132624 1_555
Al5 Mg5 3.154204 1_545
Al5 Mg3 3.218412 1_445
Al6 Mg15 2.951726 1_555
Al6 Mg9 2.951728 1_555
Al6 Mg14 3.083640 1_555
Al6 Mg6 3.120660 1_555
Al6 Mg10 3.120660 1_555
Al6 Mg7 3.145395 1_555
Al6 Mg1 3.145402 1_554
Al6 Mg3 3.265620 1_445
Al7 Al9 2.691524 1_565
Al7 Al8 2.760254 1_555
Al7 Mg4 2.951710 1_555
Al7 Mg10 2.951725 1_665
Al7 Mg5 3.083647 1_555
Al7 Mg9 3.120664 1_555
Al7 Mg13 3.120688 1_565
Al7 Mg12 3.145393 1_555
Al7 Mg1 3.145396 1_665
Al7 Mg3 3.265613 1_556
Al8 Mg6 2.875842 1_655
Al8 Au0 2.893699 1_666
Al8 Mg4 2.994115 1_555
Al8 Mg11 3.022572 1_655
Al8 Mg8 3.113764 1_555
Al8 Mg12 3.132632 1_555
Al8 Mg14 3.154187 1_655
Al8 Mg3 3.218413 1_556
Al9 Mg14 2.939620 1_545
Al9 Mg2 2.939626 1_556
Al9 Mg11 3.013767 1_545
Al9 Mg1 3.045318 1_655
Al9 Mg12 3.045321 1_545
Al9 Mg9 3.071978 1_545
Al9 Mg13 3.071987 1_555
Al9 Mg3 3.099154 1_546
Al10 Al3 2.702488 1_656
Al10 Al8 2.717444 1_555
Al10 Mg10 2.875851 1_655
Al10 Au0 2.893696 1_666
Al10 Mg13 2.994108 1_555
Al10 Mg0 3.022570 1_655
Al10 Mg8 3.113769 1_555
Al10 Mg12 3.132625 1_555
Al10 Mg14 3.154202 1_655
Al10 Mg3 3.218399 1_556
Al11 Al8 2.702487 1_445
Al11 Al2 2.717437 1_556
Al11 Al7 2.760254 1_445
Al11 Mg15 2.875844 1_555
Al11 Au0 2.893700 1_556
Al11 Mg10 2.994108 1_555
Al11 Mg11 3.022576 1_545
Al11 Mg0 3.113772 1_555
Al11 Mg1 3.132624 1_555
Al11 Mg2 3.154185 1_556
Al11 Mg3 3.218417 1_446
Au0 Mg3 2.750811 1_445
Au0 Mg2 3.007056 1_555
Au0 Mg5 3.007057 1_545
Au0 Mg14 3.007061 1_544
