# generated using pymatgen
data_Nd3NiSn7
_symmetry_space_group_name_H-M   'P 1'
_cell_length_a   13.90377236
_cell_length_b   13.90377236
_cell_length_c   4.55171610
_cell_angle_alpha   90.00000000
_cell_angle_beta   90.00000000
_cell_angle_gamma   161.25257191
_symmetry_Int_Tables_number   1
_chemical_formula_structural   Nd3NiSn7
_chemical_formula_sum   'Nd3 Ni1 Sn7'
_cell_volume   282.80183745
_cell_formula_units_Z   1
loop_
 _symmetry_equiv_pos_site_id
 _symmetry_equiv_pos_as_xyz
  1  'x, y, z'
loop_
 _atom_site_type_symbol
 _atom_site_label
 _atom_site_symmetry_multiplicity
 _atom_site_fract_x
 _atom_site_fract_y
 _atom_site_fract_z
 _atom_site_occupancy
  Nd  Nd0  1  0.18531555  0.81468445  0.00000000  1
  Nd  Nd1  1  0.81417888  0.18582112  0.00000000  1
  Nd  Nd2  1  0.49917119  0.50082881  0.50000000  1
  Ni  Ni0  1  0.37072616  0.62927384  0.50000000  1
  Sn  Sn0  1  0.27998559  0.72001441  0.50000000  1
  Sn  Sn1  1  0.71201496  0.28798504  0.50000000  1
  Sn  Sn2  1  0.40915604  0.59084396  0.00000000  1
  Sn  Sn3  1  0.59462344  0.40537656  -0.00000000  1
  Sn  Sn4  1  0.09461379  0.90538621  0.50000000  1
  Sn  Sn5  1  0.90933194  0.09066806  0.50000000  1
  Sn  Sn6  1  0.00238246  0.99761754  0.00000000  1
loop_
_geom_bond_atom_site_label_1
_geom_bond_atom_site_label_2
_geom_bond_distance
_geom_bond_site_symmetry_2
Nd0 Sn1 3.293074 1_565
Nd0 Sn1 3.293074 1_564
Nd0 Sn1 3.293074 1_455
Nd0 Sn1 3.293074 1_454
Nd0 Sn3 3.364460 1_455
Nd0 Sn3 3.364460 1_565
Nd0 Sn4 3.372274 1_554
Nd0 Sn4 3.372274 1_555
Nd0 Sn0 3.453398 1_554
Nd0 Sn0 3.453398 1_555
Nd1 Sn0 3.344821 1_654
Nd1 Sn0 3.344821 1_655
Nd1 Sn0 3.344821 1_544
Nd1 Sn0 3.344821 1_545
Nd1 Sn2 3.452315 1_655
Nd1 Sn2 3.452315 1_545
Nd1 Sn5 3.463377 1_554
Nd1 Sn5 3.463377 1_555
Nd1 Ni0 3.565770 1_544
Nd1 Ni0 3.565770 1_545
Nd1 Ni0 3.565770 1_654
Nd1 Ni0 3.565770 1_655
Nd1 Sn1 3.610581 1_555
Nd1 Sn1 3.610581 1_554
Nd2 Sn6 3.211775 1_655
Nd2 Sn6 3.211775 1_546
Nd2 Sn6 3.211775 1_656
Nd2 Sn6 3.211775 1_545
Nd2 Sn5 3.347191 1_455
Nd2 Sn5 3.347191 1_565
Nd2 Sn2 3.358397 1_555
Nd2 Sn2 3.358397 1_556
Nd2 Sn4 3.461964 1_655
Nd2 Sn4 3.461964 1_545
Nd2 Sn3 3.469568 1_555
Nd2 Sn3 3.469568 1_556
Nd2 Ni0 3.524047 1_555
Ni0 Sn0 2.489579 1_555
Ni0 Sn5 2.500020 1_455
Ni0 Sn5 2.500020 1_565
Ni0 Sn2 2.508232 1_555
Ni0 Sn2 2.508232 1_556
Sn0 Sn1 2.933581 1_455
Sn0 Sn1 2.933581 1_565
Sn3 Sn4 3.210566 1_655
Sn3 Sn4 3.210566 1_545
Sn3 Sn4 3.210566 1_654
Sn3 Sn4 3.210566 1_544
Sn3 Sn6 3.396008 1_545
Sn3 Sn6 3.396008 1_655
Sn4 Sn6 3.403360 1_556
Sn4 Sn6 3.403360 1_555
