# generated using pymatgen
data_Li9Mn2Co5O16
_symmetry_space_group_name_H-M   'P 1'
_cell_length_a   5.03456100
_cell_length_b   5.88952398
_cell_length_c   9.69748978
_cell_angle_alpha   83.32420627
_cell_angle_beta   85.73351359
_cell_angle_gamma   87.04691411
_symmetry_Int_Tables_number   1
_chemical_formula_structural   Li9Mn2Co5O16
_chemical_formula_sum   'Li9 Mn2 Co5 O16'
_cell_volume   284.53399942
_cell_formula_units_Z   1
loop_
 _symmetry_equiv_pos_site_id
 _symmetry_equiv_pos_as_xyz
  1  'x, y, z'
loop_
 _atom_site_type_symbol
 _atom_site_label
 _atom_site_symmetry_multiplicity
 _atom_site_fract_x
 _atom_site_fract_y
 _atom_site_fract_z
 _atom_site_occupancy
  Li  Li0  1  0.62179000  0.93464300  0.25241100  1
  Li  Li1  1  0.38852500  0.56769000  0.74131500  1
  Li  Li2  1  0.12511700  0.18186100  0.25441900  1
  Li  Li3  1  0.10509000  0.68164800  0.26028200  1
  Li  Li4  1  0.87317900  0.31871500  0.74814400  1
  Li  Li5  1  0.63034900  0.43800400  0.25384600  1
  Li  Li6  1  0.38117000  0.06966400  0.74424300  1
  Li  Li7  1  0.87465300  0.80691800  0.74582700  1
  Li  Li8  1  0.74873100  0.62451100  0.49958600  1
  Mn  Mn0  1  0.99918300  0.00328800  0.99982800  1
  Mn  Mn1  1  0.49954500  0.74642200  0.00036000  1
  Co  Co0  1  0.49995900  0.25130700  0.99888000  1
  Co  Co1  1  0.25609700  0.87102200  0.50108700  1
  Co  Co2  1  0.00039300  0.49831800  0.00083100  1
  Co  Co3  1  0.75040400  0.12530500  0.50060300  1
  Co  Co4  1  0.24446400  0.37993400  0.49869400  1
  O  O0  1  0.79612700  0.21002000  0.11733100  1
  O  O1  1  0.54339400  0.85159500  0.61139600  1
  O  O2  1  0.29961100  0.44903900  0.11485900  1
  O  O3  1  0.30478200  0.95639800  0.11718400  1
  O  O4  1  0.09799100  0.60344000  0.60693300  1
  O  O5  1  0.80133200  0.70037600  0.12027100  1
  O  O6  1  0.55440200  0.33669800  0.60867200  1
  O  O7  1  0.08462400  0.10940400  0.60794800  1
  O  O8  1  0.40239900  0.64748500  0.39171000  1
  O  O9  1  0.20109900  0.30006100  0.88459100  1
  O  O10  1  0.94554100  0.91473100  0.39132900  1
  O  O11  1  0.95800300  0.39731000  0.38861200  1
  O  O12  1  0.69791300  0.04937400  0.88047600  1
  O  O13  1  0.41628900  0.14114300  0.39294900  1
  O  O14  1  0.19374200  0.79228500  0.88340100  1
  O  O15  1  0.70410100  0.54139200  0.88198000  1
loop_
_geom_bond_atom_site_label_1
_geom_bond_atom_site_label_2
_geom_bond_distance
_geom_bond_site_symmetry_2
Li0 O13 2.110178 1_565
Li0 O5 2.114939 1_555
Li0 O3 2.129452 1_555
Li0 O0 2.144370 1_565
Li0 O10 2.180731 1_555
Li0 O8 2.311782 1_555
Li1 O4 2.017472 1_555
Li1 O6 2.081525 1_555
Li1 O1 2.118826 1_555
Li1 O15 2.158005 1_555
Li1 O14 2.167708 1_555
Li1 O9 2.180435 1_555
Li2 O11 2.030378 1_455
Li2 O13 2.047690 1_555
Li2 O3 2.112000 1_545
Li2 O10 2.130163 1_445
Li2 O2 2.133040 1_555
Li2 O0 2.187760 1_455
Li3 O8 2.024490 1_555
Li3 O10 2.069968 1_455
Li3 O11 2.099416 1_455
Li3 O5 2.109772 1_455
Li3 O2 2.220381 1_555
Li3 O3 2.234457 1_555
Li4 O15 2.060422 1_555
Li4 O12 2.108126 1_555
Li4 O7 2.130814 1_655
Li4 O6 2.165276 1_555
Li4 O9 2.181980 1_655
Li4 O4 2.323638 1_655
Li5 O5 2.076651 1_555
Li5 O0 2.094154 1_555
Li5 O8 2.153111 1_555
Li5 O11 2.166513 1_555
Li5 O2 2.212667 1_555
Li5 O13 2.338244 1_555
Li6 O1 2.023921 1_545
Li6 O7 2.053385 1_555
Li6 O6 2.110086 1_555
Li6 O12 2.135346 1_555
Li6 O9 2.152805 1_555
Li6 O14 2.199333 1_545
Li7 O15 2.101364 1_555
Li7 O4 2.127379 1_655
Li7 O14 2.155449 1_655
Li7 O12 2.159982 1_565
Li7 O1 2.179131 1_555
Li7 O7 2.347109 1_665
Li8 O1 2.015183 1_555
Li8 O11 2.019794 1_555
Li8 O8 2.089765 1_555
Li8 O4 2.100185 1_655
Li8 O6 2.132962 1_555
Li8 O10 2.146625 1_555
Mn0 O14 1.953146 1_645
Mn0 O0 1.961364 1_556
Mn0 O12 1.964585 1_555
Mn0 O3 1.970349 1_646
Mn0 O9 2.212943 1_655
Mn0 O5 2.250471 1_546
Mn1 O3 1.951862 1_555
Mn1 O15 1.963378 1_554
Mn1 O14 1.968616 1_554
Mn1 O5 1.970103 1_555
Mn1 O2 2.208358 1_555
Mn1 O12 2.249680 1_564
Co0 O2 1.911344 1_556
Co0 O9 1.924666 1_555
Co0 O12 1.936792 1_555
Co0 O0 1.937637 1_556
Co0 O15 2.194889 1_555
Co0 O3 2.200751 1_546
Co1 O1 1.853164 1_555
Co1 O8 1.873320 1_555
Co1 O10 1.945810 1_455
Co1 O4 1.949957 1_555
Co1 O7 1.967364 1_565
Co1 O13 1.974722 1_565
Co2 O9 1.915740 1_554
Co2 O2 1.924712 1_555
Co2 O15 1.940812 1_454
Co2 O5 1.946020 1_455
Co2 O0 2.185859 1_455
Co2 O14 2.189103 1_554
Co3 O6 1.909183 1_555
Co3 O10 1.910827 1_545
Co3 O7 2.036035 1_655
Co3 O13 2.037302 1_555
Co3 O11 2.106491 1_555
Co3 O1 2.107837 1_545
Co4 O11 1.848917 1_455
Co4 O4 1.866649 1_555
Co4 O6 1.944395 1_555
Co4 O8 1.953928 1_555
Co4 O13 1.963602 1_555
Co4 O7 1.980265 1_555
