# generated using pymatgen
data_Ba5La3(GaO4)4
_symmetry_space_group_name_H-M   'P 1'
_cell_length_a   6.01133100
_cell_length_b   7.48676123
_cell_length_c   10.16796714
_cell_angle_alpha   89.68493348
_cell_angle_beta   89.66187972
_cell_angle_gamma   89.53625702
_symmetry_Int_Tables_number   1
_chemical_formula_structural   Ba5La3(GaO4)4
_chemical_formula_sum   'Ba5 La3 Ga4 O16'
_cell_volume   457.58367023
_cell_formula_units_Z   1
loop_
 _symmetry_equiv_pos_site_id
 _symmetry_equiv_pos_as_xyz
  1  'x, y, z'
loop_
 _atom_site_type_symbol
 _atom_site_label
 _atom_site_symmetry_multiplicity
 _atom_site_fract_x
 _atom_site_fract_y
 _atom_site_fract_z
 _atom_site_occupancy
  Ba  Ba0  1  0.25647700  0.83477500  0.67333200  1
  Ba  Ba1  1  0.75958700  0.16718100  0.82907000  1
  Ba  Ba2  1  0.74168700  0.66327800  0.16687300  1
  Ba  Ba3  1  0.24017400  0.33410500  0.32802100  1
  Ba  Ba4  1  0.26691800  0.99447200  0.05390900  1
  La  La0  1  0.76367500  0.00566500  0.45157900  1
  La  La1  1  0.73358300  0.50439300  0.54620800  1
  La  La2  1  0.23633200  0.49345300  0.94913100  1
  Ga  Ga0  1  0.23735400  0.77480500  0.33999800  1
  Ga  Ga1  1  0.74013700  0.22931300  0.16737200  1
  Ga  Ga2  1  0.75710700  0.71114600  0.82876000  1
  Ga  Ga3  1  0.25839000  0.28387400  0.66037200  1
  O  O0  1  0.24223200  0.64808600  0.18057400  1
  O  O1  1  0.74207300  0.35130700  0.32931800  1
  O  O2  1  0.75185200  0.84883400  0.67199500  1
  O  O3  1  0.25201500  0.16177900  0.82057700  1
  O  O4  1  0.12453100  0.00471100  0.31602900  1
  O  O5  1  0.65529600  0.99958700  0.21370500  1
  O  O6  1  0.87153900  0.48882800  0.77968100  1
  O  O7  1  0.37428900  0.50602500  0.70227400  1
  O  O8  1  0.00836800  0.68176400  0.44611700  1
  O  O9  1  0.51223600  0.32317400  0.06062700  1
  O  O10  1  0.98946400  0.78633900  0.93506100  1
  O  O11  1  0.49286800  0.19313800  0.55476400  1
  O  O12  1  0.50565000  0.73873400  0.42842700  1
  O  O13  1  0.99535900  0.29002400  0.07403600  1
  O  O14  1  0.49633700  0.74123300  0.92279900  1
  O  O15  1  0.99447300  0.23997700  0.56939300  1
loop_
_geom_bond_atom_site_label_1
_geom_bond_atom_site_label_2
_geom_bond_distance
_geom_bond_site_symmetry_2
Ba0 O7 2.571439 1_555
Ba0 O3 2.876584 1_565
Ba0 O2 2.980522 1_555
Ba0 O12 2.986614 1_555
Ba0 O8 2.995289 1_555
Ba0 O14 3.001825 1_555
Ba0 O2 3.034550 1_455
Ba0 O10 3.120659 1_455
Ba0 O11 3.267578 1_565
Ba1 O6 2.552049 1_555
Ba1 O2 2.877164 1_545
Ba1 O3 2.960853 1_655
Ba1 O9 3.013164 1_556
Ba1 O13 3.024346 1_556
Ba1 O15 3.035619 1_555
Ba1 O3 3.053516 1_555
Ba1 O11 3.229473 1_555
Ba1 O10 3.334784 1_545
Ba2 O5 2.612508 1_555
Ba2 O1 2.853250 1_555
Ba2 O10 2.929160 1_554
Ba2 O14 2.947583 1_554
Ba2 O0 3.007840 1_555
Ba2 O0 3.014184 1_655
Ba2 O12 3.060099 1_555
Ba2 O9 3.107695 1_555
Ba2 O8 3.273014 1_655
Ba2 O13 3.311869 1_555
Ba3 O4 2.571343 1_555
Ba3 O0 2.781214 1_555
Ba3 O15 2.942205 1_455
Ba3 O11 2.953863 1_555
Ba3 O1 2.995931 1_455
Ba3 O13 3.001028 1_455
Ba3 O1 3.020979 1_555
Ba3 O9 3.165655 1_555
Ba3 O8 3.180305 1_555
Ba4 O10 2.599385 1_454
Ba4 O3 2.678400 1_564
Ba4 O14 2.690266 1_554
Ba4 O13 2.746897 1_465
Ba4 O4 2.795747 1_565
Ba4 O5 2.852897 1_555
Ba4 O9 2.880494 1_565
Ba4 O0 2.893660 1_555
La0 O11 2.383259 1_555
La0 O5 2.509362 1_545
La0 O2 2.525297 1_545
La0 O12 2.552392 1_545
La0 O15 2.553311 1_555
La0 O4 2.563158 1_655
La0 O8 2.826654 1_645
La0 O1 2.867011 1_555
La1 O8 2.351275 1_655
La1 O1 2.491023 1_555
La1 O12 2.519342 1_555
La1 O6 2.521024 1_555
La1 O15 2.526459 1_555
La1 O7 2.672553 1_555
La1 O11 2.753644 1_555
La1 O2 2.887967 1_555
La2 O9 2.373462 1_556
La2 O14 2.447937 1_555
La2 O13 2.454314 1_456
La2 O0 2.628913 1_556
La2 O7 2.640260 1_555
La2 O10 2.641467 1_455
La2 O6 2.797329 1_455
La2 O3 2.813191 1_555
Ga0 O4 1.860248 1_565
Ga0 O12 1.868143 1_555
Ga0 O8 1.879893 1_555
Ga0 O0 1.882690 1_555
Ga1 O5 1.855418 1_545
Ga1 O13 1.857544 1_555
Ga1 O9 1.882101 1_555
Ga1 O1 1.887527 1_555
Ga2 O14 1.844257 1_555
Ga2 O10 1.863707 1_555
Ga2 O6 1.865246 1_555
Ga2 O2 1.893778 1_555
Ga3 O7 1.860964 1_555
Ga3 O3 1.863868 1_555
Ga3 O15 1.873454 1_455
Ga3 O11 1.891026 1_555
