# generated using pymatgen
data_Lu2CdSe4
_symmetry_space_group_name_H-M   'P 1'
_cell_length_a   8.16079487
_cell_length_b   8.16079487
_cell_length_c   8.16079487
_cell_angle_alpha   60.00000000
_cell_angle_beta   60.00000000
_cell_angle_gamma   60.00000000
_symmetry_Int_Tables_number   1
_chemical_formula_structural   Lu2CdSe4
_chemical_formula_sum   'Lu4 Cd2 Se8'
_cell_volume   384.31062035
_cell_formula_units_Z   2
loop_
 _symmetry_equiv_pos_site_id
 _symmetry_equiv_pos_as_xyz
  1  'x, y, z'
loop_
 _atom_site_type_symbol
 _atom_site_label
 _atom_site_symmetry_multiplicity
 _atom_site_fract_x
 _atom_site_fract_y
 _atom_site_fract_z
 _atom_site_occupancy
  Lu  Lu0  1  0.12500000  0.62500000  0.62500000  1
  Lu  Lu1  1  0.62500000  0.12500000  0.62500000  1
  Lu  Lu2  1  0.62500000  0.62500000  0.12500000  1
  Lu  Lu3  1  0.62500000  0.62500000  0.62500000  1
  Cd  Cd0  1  0.25000000  0.25000000  0.25000000  1
  Cd  Cd1  1  -0.00000000  -0.00000000  -0.00000000  1
  Se  Se0  1  0.85093506  0.38302131  0.38302131  1
  Se  Se1  1  0.38302131  0.85093506  0.38302131  1
  Se  Se2  1  0.38302131  0.38302131  0.85093506  1
  Se  Se3  1  0.38302131  0.38302131  0.38302131  1
  Se  Se4  1  0.39906494  0.86697869  0.86697869  1
  Se  Se5  1  0.86697869  0.39906494  0.86697869  1
  Se  Se6  1  0.86697869  0.86697869  0.39906494  1
  Se  Se7  1  0.86697869  0.86697869  0.86697869  1
loop_
_geom_bond_atom_site_label_1
_geom_bond_atom_site_label_2
_geom_bond_distance
_geom_bond_site_symmetry_2
Lu0 Se5 2.795763 1_455
Lu0 Se6 2.795763 1_455
Lu0 Se2 2.795763 1_555
Lu0 Se1 2.795763 1_555
Lu0 Se3 2.795769 1_555
Lu0 Se7 2.795769 1_455
Lu1 Se6 2.795763 1_545
Lu1 Se4 2.795763 1_545
Lu1 Se2 2.795763 1_555
Lu1 Se0 2.795763 1_555
Lu1 Se3 2.795769 1_555
Lu1 Se7 2.795769 1_545
Lu2 Se5 2.795763 1_554
Lu2 Se4 2.795763 1_554
Lu2 Se0 2.795763 1_555
Lu2 Se1 2.795763 1_555
Lu2 Se3 2.795769 1_555
Lu2 Se7 2.795769 1_554
Lu3 Se0 2.795769 1_555
Lu3 Se1 2.795769 1_555
Lu3 Se2 2.795769 1_555
Lu3 Se5 2.795769 1_555
Lu3 Se6 2.795769 1_555
Lu3 Se4 2.795769 1_555
Cd0 Se3 2.659067 1_555
Cd0 Se2 2.659074 1_554
Cd0 Se1 2.659074 1_545
Cd0 Se0 2.659074 1_455
Cd1 Se7 2.659067 1_444
Cd1 Se4 2.659074 1_544
Cd1 Se6 2.659074 1_445
Cd1 Se5 2.659074 1_454
