# generated using pymatgen
data_CaTiF4
_symmetry_space_group_name_H-M   'P 1'
_cell_length_a   6.73525371
_cell_length_b   6.73525371
_cell_length_c   6.73525371
_cell_angle_alpha   131.83379363
_cell_angle_beta   131.83379363
_cell_angle_gamma   70.49165877
_symmetry_Int_Tables_number   1
_chemical_formula_structural   CaTiF4
_chemical_formula_sum   'Ca2 Ti2 F8'
_cell_volume   166.19822521
_cell_formula_units_Z   2
loop_
 _symmetry_equiv_pos_site_id
 _symmetry_equiv_pos_as_xyz
  1  'x, y, z'
loop_
 _atom_site_type_symbol
 _atom_site_label
 _atom_site_symmetry_multiplicity
 _atom_site_fract_x
 _atom_site_fract_y
 _atom_site_fract_z
 _atom_site_occupancy
  Ca  Ca0  1  0.75000000  0.75000000  0.00000000  1
  Ca  Ca1  1  0.25000000  0.25000000  0.00000000  1
  Ti  Ti0  1  0.00000000  0.50000000  0.50000000  1
  Ti  Ti1  1  0.50000000  0.00000000  0.50000000  1
  F  F0  1  0.94631700  0.44631700  0.12865200  1
  F  F1  1  0.68233500  0.18233500  0.12865200  1
  F  F2  1  0.05368300  0.55368300  0.87134800  1
  F  F3  1  0.55368300  0.68233500  0.50000000  1
  F  F4  1  0.31766500  0.81766500  0.87134800  1
  F  F5  1  0.81766500  0.94631700  0.50000000  1
  F  F6  1  0.44631700  0.31766500  0.50000000  1
  F  F7  1  0.18233500  0.05368300  0.50000000  1
loop_
_geom_bond_atom_site_label_1
_geom_bond_atom_site_label_2
_geom_bond_distance
_geom_bond_site_symmetry_2
Ca0 F7 2.390041 1_665
Ca0 F2 2.390041 1_654
Ca0 F1 2.390041 1_565
Ca0 F0 2.390041 1_555
Ca0 F4 2.390041 1_554
Ca0 F3 2.390041 1_554
Ca0 F5 2.390041 1_555
Ca0 F6 2.390041 1_554
Ca1 F0 2.390041 1_455
Ca1 F6 2.390041 1_555
Ca1 F4 2.390041 1_544
Ca1 F7 2.390041 1_554
Ca1 F1 2.390041 1_555
Ca1 F5 2.390041 1_444
Ca1 F2 2.390041 1_554
Ca1 F3 2.390041 1_555
F0 Ti0 2.047376 1_655
F1 Ti0 2.047376 1_655
F2 Ti0 2.047376 1_555
F3 Ti1 2.047376 1_565
F4 Ti0 2.047376 1_555
F5 Ti1 2.047376 1_565
F6 Ti1 2.047376 1_555
F7 Ti1 2.047376 1_555
