# generated using pymatgen
data_BaFeP3H2O11
_symmetry_space_group_name_H-M   'P 1'
_cell_length_a   6.97431819
_cell_length_b   7.78625622
_cell_length_c   8.83808067
_cell_angle_alpha   107.15964528
_cell_angle_beta   101.63688379
_cell_angle_gamma   95.60132850
_symmetry_Int_Tables_number   1
_chemical_formula_structural   BaFeP3H2O11
_chemical_formula_sum   'Ba2 Fe2 P6 H4 O22'
_cell_volume   442.77670450
_cell_formula_units_Z   2
loop_
 _symmetry_equiv_pos_site_id
 _symmetry_equiv_pos_as_xyz
  1  'x, y, z'
loop_
 _atom_site_type_symbol
 _atom_site_label
 _atom_site_symmetry_multiplicity
 _atom_site_fract_x
 _atom_site_fract_y
 _atom_site_fract_z
 _atom_site_occupancy
  Ba  Ba0  1  0.33030000  0.16905000  0.83782600  1
  Ba  Ba1  1  0.66839300  0.83043500  0.15633300  1
  Fe  Fe0  1  0.49357800  0.49848500  0.49546300  1
  Fe  Fe1  1  0.00251900  0.50146100  0.00362500  1
  P  P0  1  0.77902300  0.20277100  0.62687400  1
  P  P1  1  0.21640900  0.80324700  0.37635000  1
  P  P2  1  0.89843400  0.73912700  0.76833800  1
  P  P3  1  0.09490900  0.24986800  0.22387700  1
  P  P4  1  0.29047800  0.64400800  0.80160800  1
  P  P5  1  0.70798600  0.35420700  0.19539500  1
  H  H0  1  0.65206900  0.94816000  0.66159000  1
  H  H1  1  0.34682300  0.05069000  0.33486900  1
  H  H2  1  0.98155900  0.01255900  0.49960500  1
  H  H3  1  0.99542400  0.99416800  0.98287000  1
  O  O0  1  0.37391100  0.49664400  0.68867400  1
  O  O1  1  0.62355400  0.50103500  0.30864500  1
  O  O2  1  0.85168600  0.65920200  0.89833900  1
  O  O3  1  0.14652300  0.33419800  0.09656000  1
  O  O4  1  0.66172600  0.33135600  0.56523100  1
  O  O5  1  0.33200400  0.67163500  0.43812700  1
  O  O6  1  0.06710700  0.64283600  0.69487400  1
  O  O7  1  0.93100700  0.35458400  0.30073100  1
  O  O8  1  0.84568800  0.07123400  0.48276200  1
  O  O9  1  0.14446300  0.93512800  0.51204000  1
  O  O10  1  0.71914700  0.72113000  0.63083300  1
  O  O11  1  0.27647200  0.27250000  0.36242000  1
  O  O12  1  0.62543700  0.07533300  0.67852200  1
  O  O13  1  0.37446900  0.92416900  0.32148800  1
  O  O14  1  0.26093100  0.58366600  0.94982700  1
  O  O15  1  0.73854200  0.41574300  0.04777300  1
  O  O16  1  0.41006100  0.83404800  0.85965400  1
  O  O17  1  0.58613100  0.16503700  0.13623900  1
  O  O18  1  0.95528600  0.29572300  0.77352400  1
  O  O19  1  0.04620800  0.70266500  0.22401100  1
  O  O20  1  0.99091000  0.94516200  0.85048700  1
  O  O21  1  0.99983200  0.04873400  0.13961500  1
loop_
_geom_bond_atom_site_label_1
_geom_bond_atom_site_label_2
_geom_bond_distance
_geom_bond_site_symmetry_2
Ba0 O12 2.758226 1_555
Ba0 O16 2.772609 1_545
Ba0 O20 2.840888 1_445
Ba0 O9 2.868259 1_545
Ba0 O3 2.880001 1_556
Ba0 O17 2.881233 1_556
Ba0 O18 2.893292 1_455
Ba0 O15 3.152323 1_556
Ba0 O14 3.201301 1_555
Ba0 O0 3.214156 1_555
Ba1 O17 2.769831 1_565
Ba1 O13 2.781360 1_555
Ba1 O21 2.788049 1_565
Ba1 O16 2.875718 1_554
Ba1 O8 2.878206 1_565
Ba1 O2 2.885428 1_554
Ba1 O19 2.918522 1_655
Ba1 O14 3.141817 1_554
Ba1 O15 3.202407 1_555
Ba1 O1 3.246319 1_555
Fe0 O5 1.952836 1_555
Fe0 O4 1.982058 1_555
Fe0 O1 2.041551 1_555
Fe0 O0 2.049329 1_555
Fe0 O11 2.076588 1_555
Fe0 O10 2.096678 1_555
Fe1 O3 1.983229 1_555
Fe1 O2 2.003173 1_454
Fe1 O14 2.045469 1_554
Fe1 O15 2.047141 1_455
Fe1 O19 2.051306 1_555
Fe1 O18 2.124817 1_454
H0 O12 0.998535 1_565
H1 O13 0.999583 1_545
H2 O8 1.093880 1_555
H2 O9 1.337471 1_645
H3 O20 1.111251 1_555
H3 O21 1.316643 1_566
O0 P4 1.529788 1_555
O1 P5 1.532826 1_555
O2 P2 1.532027 1_555
O3 P3 1.542764 1_555
O4 P0 1.506780 1_555
O5 P1 1.520544 1_555
O6 P2 1.600192 1_455
O6 P4 1.648080 1_555
O7 P3 1.612833 1_655
O7 P5 1.642976 1_555
O8 P0 1.565084 1_555
O9 P1 1.536583 1_555
O10 P2 1.520636 1_555
O11 P3 1.528863 1_555
O12 P0 1.611634 1_555
O13 P1 1.618388 1_555
O14 P4 1.559619 1_555
O15 P5 1.561511 1_555
O16 P4 1.512226 1_555
O17 P5 1.512316 1_555
O18 P0 1.531320 1_555
O19 P1 1.544905 1_555
O20 P2 1.561579 1_555
O21 P3 1.535182 1_655
