# generated using pymatgen
data_Yb(AlFe)6
_symmetry_space_group_name_H-M   'P 1'
_cell_length_a   4.98609500
_cell_length_b   6.54156211
_cell_length_c   6.54156211
_cell_angle_alpha   99.00854062
_cell_angle_beta   112.40238228
_cell_angle_gamma   67.59761772
_symmetry_Int_Tables_number   1
_chemical_formula_structural   Yb(AlFe)6
_chemical_formula_sum   'Yb1 Al6 Fe6'
_cell_volume   182.35911343
_cell_formula_units_Z   1
loop_
 _symmetry_equiv_pos_site_id
 _symmetry_equiv_pos_as_xyz
  1  'x, y, z'
loop_
 _atom_site_type_symbol
 _atom_site_label
 _atom_site_symmetry_multiplicity
 _atom_site_fract_x
 _atom_site_fract_y
 _atom_site_fract_z
 _atom_site_occupancy
  Yb  Yb0  1  0.00000000  0.00000000  0.00000000  1
  Al  Al0  1  0.65503700  0.34496300  0.65503700  1
  Al  Al1  1  0.34496300  0.65503700  0.34496300  1
  Al  Al2  1  0.00000000  0.33215400  0.33215400  1
  Al  Al3  1  0.00000000  0.66784600  0.66784600  1
  Al  Al4  1  0.69214400  0.80785600  0.19214400  1
  Al  Al5  1  0.30785600  0.19214400  0.80785600  1
  Fe  Fe0  1  0.50000000  0.00000000  0.50000000  1
  Fe  Fe1  1  0.00000000  0.00000000  0.50000000  1
  Fe  Fe2  1  0.50000000  0.50000000  0.00000000  1
  Fe  Fe3  1  0.00000000  0.50000000  0.00000000  1
  Fe  Fe4  1  0.50000000  0.75759800  0.75759800  1
  Fe  Fe5  1  0.50000000  0.24240200  0.24240200  1
loop_
_geom_bond_atom_site_label_1
_geom_bond_atom_site_label_2
_geom_bond_distance
_geom_bond_site_symmetry_2
Al0 Fe5 2.563497 1_555
Al0 Fe4 2.563497 1_555
Al0 Fe2 2.594940 1_556
Al0 Fe0 2.594940 1_555
Al0 Fe3 2.594941 1_656
Al0 Fe1 2.594941 1_655
Al0 Al1 2.669588 1_555
Al0 Al5 2.818927 1_555
Al0 Al5 2.818927 1_655
Al0 Yb0 2.969966 1_656
Al1 Fe5 2.563497 1_555
Al1 Fe4 2.563497 1_555
Al1 Fe0 2.594940 1_565
Al1 Fe2 2.594940 1_555
Al1 Fe1 2.594941 1_565
Al1 Fe3 2.594941 1_555
Al1 Al4 2.818927 1_555
Al1 Al4 2.818927 1_455
Al1 Yb0 2.969966 1_565
Al2 Fe3 2.583359 1_555
Al2 Fe1 2.583359 1_555
Al2 Fe0 2.583359 1_555
Al2 Fe2 2.583359 1_455
Al2 Fe5 2.607058 1_455
Al2 Fe5 2.607058 1_555
Al2 Yb0 2.822003 1_555
Al3 Fe1 2.583359 1_565
Al3 Fe3 2.583359 1_556
Al3 Fe0 2.583359 1_465
Al3 Fe2 2.583359 1_556
Al3 Fe4 2.607058 1_555
Al3 Fe4 2.607058 1_455
Al3 Yb0 2.822003 1_566
Al4 Fe0 2.512645 1_565
Al4 Fe2 2.512645 1_555
Al4 Fe3 2.512645 1_655
Al4 Fe1 2.512645 1_665
Al4 Fe5 2.641589 1_565
Al4 Fe4 2.641589 1_554
Al4 Yb0 2.991970 1_665
Al4 Yb0 2.991971 1_565
Al5 Fe0 2.512645 1_555
Al5 Fe2 2.512645 1_556
Al5 Fe3 2.512645 1_556
Al5 Fe1 2.512645 1_555
Al5 Fe5 2.641589 1_556
Al5 Fe4 2.641589 1_545
Al5 Yb0 2.991970 1_556
Al5 Yb0 2.991971 1_656
Fe0 Fe5 2.488117 1_555
Fe0 Fe4 2.488117 1_545
Fe0 Fe1 2.493047 1_655
Fe0 Fe1 2.493047 1_555
Fe0 Yb0 3.270781 1_656
Fe0 Yb0 3.270781 1_555
Fe1 Fe5 2.488118 1_455
Fe1 Fe4 2.488118 1_545
Fe1 Yb0 3.270781 1_555
Fe1 Yb0 3.270781 1_556
Fe2 Fe5 2.488117 1_555
Fe2 Fe4 2.488117 1_554
Fe2 Fe3 2.493047 1_555
Fe2 Fe3 2.493047 1_655
Fe2 Yb0 3.270781 1_655
Fe2 Yb0 3.270781 1_565
Fe3 Fe4 2.488118 1_454
Fe3 Fe5 2.488118 1_555
Fe3 Yb0 3.270781 1_555
Fe3 Yb0 3.270781 1_565
Fe4 Yb0 3.233679 1_566
Fe4 Yb0 3.233679 1_666
Fe5 Yb0 3.233679 1_555
Fe5 Yb0 3.233679 1_655
