# generated using pymatgen
data_Li7Mn4CoO12
_symmetry_space_group_name_H-M   'P 1'
_cell_length_a   2.87237015
_cell_length_b   15.25006650
_cell_length_c   10.56654552
_cell_angle_alpha   72.37848747
_cell_angle_beta   97.81833590
_cell_angle_gamma   95.40377000
_symmetry_Int_Tables_number   1
_chemical_formula_structural   Li7Mn4CoO12
_chemical_formula_sum   'Li14 Mn8 Co2 O24'
_cell_volume   436.34720794
_cell_formula_units_Z   2
loop_
 _symmetry_equiv_pos_site_id
 _symmetry_equiv_pos_as_xyz
  1  'x, y, z'
loop_
 _atom_site_type_symbol
 _atom_site_label
 _atom_site_symmetry_multiplicity
 _atom_site_fract_x
 _atom_site_fract_y
 _atom_site_fract_z
 _atom_site_occupancy
  Li  Li0  1  0.49998500  0.16671200  0.83331400  1
  Li  Li1  1  0.99995500  0.66659500  0.33338700  1
  Li  Li2  1  0.62104700  0.12340000  0.11850600  1
  Li  Li3  1  0.12111100  0.62352000  0.61854400  1
  Li  Li4  1  0.37893600  0.20978600  0.54816100  1
  Li  Li5  1  0.87897300  0.70996400  0.04813100  1
  Li  Li6  1  0.87365500  0.37718800  0.37022100  1
  Li  Li7  1  0.37382500  0.87645600  0.87127800  1
  Li  Li8  1  0.62632900  0.45615300  0.79645200  1
  Li  Li9  1  0.12615800  0.95683900  0.29540800  1
  Li  Li10  1  0.12336300  0.28780300  0.95891600  1
  Li  Li11  1  0.62322600  0.78714600  0.45938900  1
  Li  Li12  1  0.87673900  0.04604200  0.70739200  1
  Li  Li13  1  0.37662000  0.54552000  0.20777200  1
  Mn  Mn0  1  0.49891000  0.82892100  0.16872800  1
  Mn  Mn1  1  0.74897000  0.75046400  0.74740000  1
  Mn  Mn2  1  0.75104900  0.08285900  0.41928000  1
  Mn  Mn3  1  0.00113600  0.00446800  0.99786500  1
  Mn  Mn4  1  0.50119700  0.50442700  0.49806000  1
  Mn  Mn5  1  0.99881200  0.32890300  0.66862500  1
  Mn  Mn6  1  0.24875400  0.25046500  0.24695400  1
  Mn  Mn7  1  0.25128300  0.58289500  0.91972400  1
  Co  Co0  1  0.74998300  0.41668100  0.08333000  1
  Co  Co1  1  0.24996200  0.91666700  0.58330700  1
  O  O0  1  0.05316000  0.47240000  0.63386700  1
  O  O1  1  0.55317200  0.97256600  0.13370500  1
  O  O2  1  0.44688700  0.36094300  0.53280400  1
  O  O3  1  0.94683500  0.86086000  0.03283100  1
  O  O4  1  0.80802600  0.23785400  0.37828100  1
  O  O5  1  0.30829100  0.73782100  0.87861900  1
  O  O6  1  0.19175800  0.09547500  0.28809900  1
  O  O7  1  0.69194000  0.59544500  0.78840600  1
  O  O8  1  0.05587100  0.12634500  0.98546800  1
  O  O9  1  0.55596500  0.62644300  0.48556400  1
  O  O10  1  0.94403800  0.20687900  0.68112200  1
  O  O11  1  0.44408800  0.70707400  0.18112200  1
  O  O12  1  0.30675900  0.40374700  0.21080800  1
  O  O13  1  0.80683400  0.90317500  0.71072300  1
  O  O14  1  0.19322700  0.42955100  0.95588500  1
  O  O15  1  0.69311600  0.93020800  0.45586100  1
  O  O16  1  0.55692100  0.31758100  0.79595300  1
  O  O17  1  0.05706100  0.81784000  0.29604800  1
  O  O18  1  0.44298400  0.01559600  0.87057900  1
  O  O19  1  0.94311100  0.51574400  0.37072700  1
  O  O20  1  0.31002200  0.06791200  0.55213500  1
  O  O21  1  0.81008100  0.56775700  0.05238300  1
  O  O22  1  0.68993700  0.26548600  0.11434200  1
  O  O23  1  0.18993700  0.76542800  0.61452700  1
loop_
_geom_bond_atom_site_label_1
_geom_bond_atom_site_label_2
_geom_bond_distance
_geom_bond_site_symmetry_2
Li0 O10 2.097746 1_455
Li0 O8 2.097799 1_655
Li0 O8 2.098082 1_555
Li0 O10 2.098257 1_555
Li0 O16 2.207458 1_555
Li0 O18 2.211283 1_555
Li1 O9 2.097749 1_655
Li1 O9 2.098012 1_555
Li1 O11 2.098663 1_555
Li1 O11 2.099019 1_655
Li1 O19 2.207216 1_555
Li1 O17 2.213114 1_655
Li2 O8 1.991729 1_654
Li2 O8 1.992033 1_554
Li2 O22 2.144783 1_555
Li2 O6 2.224894 1_655
Li2 O6 2.225616 1_555
Li2 O1 2.248386 1_545
Li3 O9 1.991394 1_555
Li3 O9 1.991649 1_455
Li3 O23 2.142505 1_555
Li3 O7 2.226993 1_555
Li3 O7 2.227498 1_455
Li3 O0 2.252422 1_555
Li4 O10 1.991389 1_455
Li4 O10 1.991468 1_555
Li4 O20 2.142113 1_555
Li4 O4 2.227264 1_455
Li4 O4 2.227515 1_555
Li4 O2 2.252901 1_555
Li5 O11 1.991676 1_555
Li5 O11 1.991711 1_655
Li5 O21 2.146366 1_555
Li5 O5 2.224269 1_554
Li5 O5 2.225075 1_654
Li5 O3 2.249084 1_555
Li6 O4 2.092163 1_555
Li6 O19 2.105161 1_555
Li6 O12 2.147363 1_655
Li6 O12 2.148905 1_555
Li6 O2 2.184798 1_655
Li6 O2 2.184819 1_555
Li7 O5 2.083503 1_555
Li7 O18 2.110325 1_565
Li7 O13 2.156667 1_555
Li7 O13 2.156686 1_455
Li7 O3 2.177865 1_556
Li7 O3 2.178004 1_456
Li8 O7 2.091563 1_555
Li8 O16 2.105382 1_555
Li8 O14 2.147462 1_555
Li8 O14 2.149056 1_655
Li8 O0 2.184691 1_555
Li8 O0 2.184950 1_655
Li9 O6 2.083606 1_565
Li9 O17 2.108364 1_555
Li9 O15 2.155919 1_555
Li9 O15 2.155998 1_455
Li9 O1 2.178733 1_455
Li9 O1 2.178999 1_555
Li10 O22 2.121378 1_556
Li10 O22 2.121558 1_456
Li10 O14 2.142948 1_555
Li10 O16 2.173030 1_455
Li10 O16 2.173863 1_555
Li10 O8 2.384446 1_555
Li11 O23 2.119787 1_655
Li11 O23 2.120038 1_555
Li11 O15 2.161441 1_555
Li11 O17 2.175603 1_555
Li11 O17 2.176466 1_655
Li11 O9 2.373789 1_555
Li12 O20 2.120568 1_555
Li12 O20 2.120732 1_655
Li12 O13 2.159056 1_545
Li12 O18 2.174566 1_655
Li12 O18 2.175304 1_555
Li12 O10 2.375626 1_555
Li13 O21 2.121070 1_455
Li13 O21 2.121469 1_555
Li13 O12 2.143313 1_555
Li13 O19 2.173069 1_555
Li13 O19 2.173705 1_455
Li13 O11 2.385705 1_555
Mn0 O11 1.816018 1_555
Mn0 O17 1.932706 1_655
Mn0 O17 1.932801 1_555
Mn0 O3 1.978820 1_555
Mn0 O3 1.978980 1_455
Mn0 O1 2.102501 1_555
Mn1 O5 1.957338 1_655
Mn1 O5 1.957433 1_555
Mn1 O23 1.965462 1_655
Mn1 O23 1.965556 1_555
Mn1 O13 2.235966 1_555
Mn1 O7 2.264839 1_555
Mn2 O6 1.957064 1_555
Mn2 O6 1.957261 1_655
Mn2 O20 1.965328 1_655
Mn2 O20 1.965484 1_555
Mn2 O15 2.235201 1_545
Mn2 O4 2.264490 1_555
Mn3 O8 1.816466 1_555
Mn3 O18 1.932394 1_555
Mn3 O18 1.932476 1_455
Mn3 O1 1.978476 1_446
Mn3 O1 1.978515 1_546
Mn3 O3 2.102025 1_446
Mn4 O9 1.818335 1_555
Mn4 O19 1.932381 1_555
Mn4 O19 1.932485 1_455
Mn4 O0 1.978304 1_555
Mn4 O0 1.978369 1_655
Mn4 O2 2.100474 1_555
Mn5 O10 1.818454 1_555
Mn5 O16 1.932278 1_555
Mn5 O16 1.932501 1_655
Mn5 O2 1.978390 1_555
Mn5 O2 1.978486 1_655
Mn5 O0 2.100649 1_655
Mn6 O4 1.957901 1_555
Mn6 O4 1.958497 1_455
Mn6 O22 1.963518 1_455
Mn6 O22 1.963663 1_555
Mn6 O12 2.245269 1_555
Mn6 O6 2.264238 1_555
Mn7 O7 1.958034 1_455
Mn7 O7 1.958440 1_555
Mn7 O21 1.963720 1_556
Mn7 O21 1.963798 1_456
Mn7 O14 2.246176 1_555
Mn7 O5 2.263331 1_555
Co0 O14 1.929416 1_554
Co0 O12 1.929621 1_655
Co0 O14 1.931917 1_654
Co0 O12 1.931971 1_555
Co0 O21 2.220153 1_555
Co0 O22 2.221835 1_555
Co1 O13 1.929219 1_555
Co1 O15 1.929319 1_455
Co1 O13 1.929833 1_455
Co1 O15 1.930004 1_555
Co1 O23 2.222154 1_555
Co1 O20 2.222323 1_565
