# generated using pymatgen
data_NbAgO3
_symmetry_space_group_name_H-M   'P 1'
_cell_length_a   5.63271200
_cell_length_b   5.63271200
_cell_length_c   4.03177700
_cell_angle_alpha   90.00000000
_cell_angle_beta   90.00000000
_cell_angle_gamma   90.00000000
_symmetry_Int_Tables_number   1
_chemical_formula_structural   NbAgO3
_chemical_formula_sum   'Nb2 Ag2 O6'
_cell_volume   127.91798090
_cell_formula_units_Z   2
loop_
 _symmetry_equiv_pos_site_id
 _symmetry_equiv_pos_as_xyz
  1  'x, y, z'
loop_
 _atom_site_type_symbol
 _atom_site_label
 _atom_site_symmetry_multiplicity
 _atom_site_fract_x
 _atom_site_fract_y
 _atom_site_fract_z
 _atom_site_occupancy
  Nb  Nb0  1  0.50000000  0.50000000  0.00000000  1
  Nb  Nb1  1  0.00000000  0.00000000  0.00000000  1
  Ag  Ag0  1  0.50000000  0.00000000  0.50000000  1
  Ag  Ag1  1  0.00000000  0.50000000  0.50000000  1
  O  O0  1  0.50000000  0.50000000  0.50000000  1
  O  O1  1  0.00000000  0.00000000  0.50000000  1
  O  O2  1  0.79615400  0.70384600  0.00000000  1
  O  O3  1  0.20384600  0.29615400  0.00000000  1
  O  O4  1  0.70384600  0.20384600  0.00000000  1
  O  O5  1  0.29615400  0.79615400  0.00000000  1
loop_
_geom_bond_atom_site_label_1
_geom_bond_atom_site_label_2
_geom_bond_distance
_geom_bond_site_symmetry_2
Nb0 O0 2.015888 1_555
Nb0 O0 2.015888 1_554
Nb0 O2 2.025118 1_555
Nb0 O5 2.025118 1_555
Nb0 O4 2.025118 1_555
Nb0 O3 2.025118 1_555
Nb1 O1 2.015888 1_555
Nb1 O1 2.015888 1_554
Nb1 O3 2.025118 1_555
Nb1 O4 2.025118 1_455
Nb1 O5 2.025118 1_545
Nb1 O2 2.025118 1_445
Ag0 O4 2.588544 1_555
Ag0 O4 2.588544 1_556
Ag0 O5 2.588544 1_545
Ag0 O5 2.588544 1_546
Ag0 O1 2.816356 1_555
Ag0 O0 2.816356 1_545
Ag0 O1 2.816356 1_655
Ag0 O0 2.816356 1_555
Ag1 O3 2.588544 1_555
Ag1 O3 2.588544 1_556
Ag1 O2 2.588544 1_455
Ag1 O2 2.588544 1_456
Ag1 O1 2.816356 1_555
Ag1 O0 2.816356 1_455
Ag1 O0 2.816356 1_555
Ag1 O1 2.816356 1_565
