# generated using pymatgen
data_CaVP2O7
_symmetry_space_group_name_H-M   'P 1'
_cell_length_a   8.90577800
_cell_length_b   7.42539600
_cell_length_c   9.30870030
_cell_angle_alpha   64.36558122
_cell_angle_beta   90.00000000
_cell_angle_gamma   90.00000000
_symmetry_Int_Tables_number   1
_chemical_formula_structural   CaVP2O7
_chemical_formula_sum   'Ca4 V4 P8 O28'
_cell_volume   554.98511334
_cell_formula_units_Z   4
loop_
 _symmetry_equiv_pos_site_id
 _symmetry_equiv_pos_as_xyz
  1  'x, y, z'
loop_
 _atom_site_type_symbol
 _atom_site_label
 _atom_site_symmetry_multiplicity
 _atom_site_fract_x
 _atom_site_fract_y
 _atom_site_fract_z
 _atom_site_occupancy
  Ca  Ca0  1  0.95042500  0.71462200  0.14615600  1
  Ca  Ca1  1  0.45042500  0.28537800  0.35384400  1
  Ca  Ca2  1  0.54957500  0.71462200  0.64615600  1
  Ca  Ca3  1  0.04957500  0.28537800  0.85384400  1
  V  V0  1  0.07502700  0.22806600  0.38649400  1
  V  V1  1  0.92497300  0.77193400  0.61350600  1
  V  V2  1  0.57502700  0.77193400  0.11350600  1
  V  V3  1  0.42497300  0.22806600  0.88649400  1
  P  P0  1  0.72406800  0.05509600  0.75931100  1
  P  P1  1  0.24226300  0.53572500  0.02966200  1
  P  P2  1  0.77593200  0.05509600  0.25931100  1
  P  P3  1  0.25773700  0.53572500  0.52966200  1
  P  P4  1  0.22406800  0.94490400  0.74068900  1
  P  P5  1  0.74226300  0.46427500  0.47033800  1
  P  P6  1  0.75773700  0.46427500  0.97033800  1
  P  P7  1  0.27593200  0.94490400  0.24068900  1
  O  O0  1  0.17543000  0.74315300  0.89593100  1
  O  O1  1  0.63172600  0.08868900  0.33090300  1
  O  O2  1  0.86827400  0.08868900  0.83090300  1
  O  O3  1  0.38953500  0.57121400  0.09839200  1
  O  O4  1  0.82457000  0.25684700  0.10406900  1
  O  O5  1  0.08678700  0.98328300  0.63023900  1
  O  O6  1  0.61046500  0.42878600  0.90160800  1
  O  O7  1  0.11100000  0.47226400  0.14851100  1
  O  O8  1  0.24123200  0.39442600  0.44955100  1
  O  O9  1  0.91321300  0.01671700  0.36976100  1
  O  O10  1  0.41321300  0.98328300  0.13023900  1
  O  O11  1  0.76280500  0.89812300  0.19354300  1
  O  O12  1  0.26280500  0.10187700  0.30645700  1
  O  O13  1  0.32457000  0.74315300  0.39593100  1
  O  O14  1  0.58678700  0.01671700  0.86976100  1
  O  O15  1  0.13172600  0.91131100  0.16909700  1
  O  O16  1  0.23719500  0.10187700  0.80645700  1
  O  O17  1  0.88900000  0.52773600  0.85148900  1
  O  O18  1  0.25876800  0.39442600  0.94955100  1
  O  O19  1  0.74123200  0.60557400  0.05044900  1
  O  O20  1  0.88953500  0.42878600  0.40160800  1
  O  O21  1  0.38900000  0.47226400  0.64851100  1
  O  O22  1  0.61100000  0.52773600  0.35148900  1
  O  O23  1  0.36827400  0.91131100  0.66909700  1
  O  O24  1  0.73719500  0.89812300  0.69354300  1
  O  O25  1  0.11046500  0.57121400  0.59839200  1
  O  O26  1  0.75876800  0.60557400  0.55044900  1
  O  O27  1  0.67543000  0.25684700  0.60406900  1
loop_
_geom_bond_atom_site_label_1
_geom_bond_atom_site_label_2
_geom_bond_distance
_geom_bond_site_symmetry_2
Ca0 O15 2.248450 1_655
Ca0 O7 2.291277 1_655
Ca0 O11 2.315845 1_555
Ca0 O19 2.354660 1_555
Ca0 O20 2.467065 1_555
Ca1 O1 2.248450 1_555
Ca1 O22 2.291277 1_555
Ca1 O12 2.315845 1_555
Ca1 O8 2.354660 1_555
Ca1 O3 2.467065 1_555
Ca2 O23 2.248450 1_555
Ca2 O21 2.291277 1_555
Ca2 O24 2.315845 1_555
Ca2 O26 2.354660 1_555
Ca2 O6 2.467065 1_555
Ca3 O2 2.248450 1_455
Ca3 O17 2.291277 1_455
Ca3 O16 2.315845 1_555
Ca3 O18 2.354660 1_555
Ca3 O25 2.467065 1_555
O0 P1 1.617790 1_556
O0 P4 1.626966 1_555
O1 P2 1.516418 1_555
O2 P0 1.516418 1_555
O3 P1 1.531297 1_555
O3 V2 2.269700 1_555
O4 P6 1.617790 1_554
O4 P2 1.626966 1_555
O5 P4 1.542567 1_555
O5 V1 2.185255 1_455
O5 V0 2.212338 1_565
O6 P6 1.531297 1_555
O6 V3 2.269700 1_555
O7 P1 1.536715 1_555
O7 V0 2.196018 1_555
O8 P3 1.534775 1_555
O8 V0 2.165367 1_555
O9 P2 1.542567 1_555
O9 V0 2.185255 1_655
O9 V1 2.212338 1_545
O10 P7 1.542567 1_555
O10 V2 2.185255 1_555
O10 V3 2.212338 1_564
O11 P2 1.537694 1_565
O11 V2 2.198572 1_555
O12 P7 1.537694 1_545
O12 V0 2.198572 1_555
O13 P3 1.617790 1_555
O13 P7 1.626966 1_555
O14 P0 1.542567 1_555
O14 V3 2.185255 1_555
O14 V2 2.212338 1_546
O15 P7 1.516418 1_555
O16 P4 1.537694 1_545
O16 V3 2.198572 1_555
O17 P6 1.536715 1_555
O17 V1 2.196018 1_555
O18 P1 1.534775 1_556
O18 V3 2.165367 1_555
O19 P6 1.534775 1_554
O19 V2 2.165367 1_555
O20 P5 1.531297 1_555
O20 V0 2.269700 1_655
O21 P3 1.536715 1_555
O21 V3 2.196018 1_555
O22 P5 1.536715 1_555
O22 V2 2.196018 1_555
O23 P4 1.516418 1_555
O24 P0 1.537694 1_565
O24 V1 2.198572 1_555
O25 P3 1.531297 1_555
O25 V1 2.269700 1_455
O26 P5 1.534775 1_555
O26 V1 2.165367 1_555
O27 P5 1.617790 1_555
O27 P0 1.626966 1_555
