# generated using pymatgen
data_K3Na(B3O5)4
_symmetry_space_group_name_H-M   'P 1'
_cell_length_a   6.70829800
_cell_length_b   9.28317078
_cell_length_c   21.00425533
_cell_angle_alpha   86.10271600
_cell_angle_beta   89.77793326
_cell_angle_gamma   89.92584334
_symmetry_Int_Tables_number   1
_chemical_formula_structural   K3Na(B3O5)4
_chemical_formula_sum   'K9 Na3 B36 O60'
_cell_volume   1304.98948933
_cell_formula_units_Z   3
loop_
 _symmetry_equiv_pos_site_id
 _symmetry_equiv_pos_as_xyz
  1  'x, y, z'
loop_
 _atom_site_type_symbol
 _atom_site_label
 _atom_site_symmetry_multiplicity
 _atom_site_fract_x
 _atom_site_fract_y
 _atom_site_fract_z
 _atom_site_occupancy
  K  K0  1  0.30502800  0.77746500  0.53463600  1
  K  K1  1  0.80493700  0.22263100  0.96543100  1
  K  K2  1  0.69518100  0.22254600  0.46554000  1
  K  K3  1  0.19494100  0.77744600  0.03444300  1
  K  K4  1  0.31510700  0.59023800  0.38155400  1
  K  K5  1  0.81509500  0.40960300  0.11828100  1
  K  K6  1  0.68491100  0.40945200  0.61849200  1
  K  K7  1  0.18488400  0.59044800  0.88156100  1
  K  K8  1  0.98105600  0.93040600  0.25735800  1
  Na  Na0  1  0.49145300  0.06777900  0.24577100  1
  Na  Na1  1  0.00752500  0.06682800  0.74586300  1
  Na  Na2  1  0.50758800  0.93306900  0.75414900  1
  B  B0  1  0.70114700  0.99205200  0.62264500  1
  B  B1  1  0.20126500  0.00799200  0.87741300  1
  B  B2  1  0.30092800  0.01039900  0.37797600  1
  B  B3  1  0.79621300  0.99268200  0.12084800  1
  B  B4  1  0.99522600  0.85018100  0.41427500  1
  B  B5  1  0.49409300  0.15131400  0.08600700  1
  B  B6  1  0.00515700  0.15054200  0.58636300  1
  B  B7  1  0.50506100  0.84937000  0.91367900  1
  B  B8  1  0.96778300  0.58172300  0.27841000  1
  B  B9  1  0.46842900  0.41264100  0.22151500  1
  B  B10  1  0.03359900  0.41438700  0.72189800  1
  B  B11  1  0.53334900  0.58571400  0.77816900  1
  B  B12  1  0.75833200  0.75302100  0.57613600  1
  B  B13  1  0.25810700  0.24701900  0.92395000  1
  B  B14  1  0.24200100  0.24774900  0.42474200  1
  B  B15  1  0.74115400  0.75234200  0.07569200  1
  B  B16  1  0.78241100  0.34948500  0.28436500  1
  B  B17  1  0.28604000  0.64701500  0.21588300  1
  B  B18  1  0.21675300  0.64971900  0.71582600  1
  B  B19  1  0.71671400  0.35012700  0.78421500  1
  B  B20  1  0.64205900  0.88986900  0.39284100  1
  B  B21  1  0.14134500  0.11075300  0.10674600  1
  B  B22  1  0.35790300  0.11020900  0.60795800  1
  B  B23  1  0.85798300  0.88982500  0.89206800  1
  B  B24  1  0.75027500  0.67489300  0.46531300  1
  B  B25  1  0.25051700  0.32546300  0.03458800  1
  B  B26  1  0.25009100  0.32500900  0.53501700  1
  B  B27  1  0.74969200  0.67517000  0.96503900  1
  B  B28  1  0.92769000  0.80397400  0.67444300  1
  B  B29  1  0.42780600  0.19591700  0.82546100  1
  B  B30  1  0.07515400  0.19966600  0.32646100  1
  B  B31  1  0.56899800  0.80416600  0.17348000  1
  B  B32  1  0.78350100  0.51065300  0.37499300  1
  B  B33  1  0.28506100  0.48874200  0.12492000  1
  B  B34  1  0.21595700  0.48934000  0.62509400  1
  B  B35  1  0.71556700  0.51089600  0.87483900  1
  O  O0  1  0.59608000  0.77360900  0.43338300  1
  O  O1  1  0.09654800  0.22717600  0.06633100  1
  O  O2  1  0.40376700  0.22576600  0.56687600  1
  O  O3  1  0.90359600  0.77428400  0.93307100  1
  O  O4  1  0.73254400  0.53432800  0.43670400  1
  O  O5  1  0.23314100  0.46605200  0.06337100  1
  O  O6  1  0.26755700  0.46579100  0.56344800  1
  O  O7  1  0.76740200  0.53452700  0.93632700  1
  O  O8  1  0.19118500  0.87984700  0.40174400  1
  O  O9  1  0.69110300  0.12313000  0.09660100  1
  O  O10  1  0.80841400  0.12163600  0.59765200  1
  O  O11  1  0.30839600  0.87823300  0.90231500  1
  O  O12  1  0.91527700  0.21976600  0.28763800  1
  O  O13  1  0.41135400  0.78027900  0.21320100  1
  O  O14  1  0.08707200  0.78110800  0.71318300  1
  O  O15  1  0.58777900  0.21875400  0.78664200  1
  O  O16  1  0.68518900  0.89061800  0.57096200  1
  O  O17  1  0.18471500  0.10943300  0.92912500  1
  O  O18  1  0.31540200  0.11000900  0.43021000  1
  O  O19  1  0.81317500  0.89005400  0.06986200  1
  O  O20  1  0.71986100  0.38784300  0.34879800  1
  O  O21  1  0.22283300  0.61159700  0.15129300  1
  O  O22  1  0.27915100  0.61208600  0.65128500  1
  O  O23  1  0.77839100  0.38776100  0.84863500  1
  O  O24  1  0.95276600  0.73809200  0.45776900  1
  O  O25  1  0.45195600  0.26199800  0.04187300  1
  O  O26  1  0.04808000  0.26154100  0.54228500  1
  O  O27  1  0.54764200  0.73869300  0.95786400  1
  O  O28  1  0.88229300  0.70888400  0.62720000  1
  O  O29  1  0.38206900  0.29105400  0.87263800  1
  O  O30  1  0.11654900  0.29361100  0.37428500  1
  O  O31  1  0.61805200  0.70758900  0.12714100  1
  O  O32  1  0.80516700  0.92351600  0.68060100  1
  O  O33  1  0.30562100  0.07651100  0.81934700  1
  O  O34  1  0.20441400  0.08430800  0.32063900  1
  O  O35  1  0.68599800  0.92592800  0.17801600  1
  O  O36  1  0.89644200  0.61320100  0.33897100  1
  O  O37  1  0.39758000  0.38501000  0.16067700  1
  O  O38  1  0.10307000  0.38615200  0.66082200  1
  O  O39  1  0.60258800  0.61406600  0.83911400  1
  O  O40  1  0.84259700  0.93238400  0.38402600  1
  O  O41  1  0.34215800  0.06975200  0.11732800  1
  O  O42  1  0.15684300  0.06905200  0.61763900  1
  O  O43  1  0.65705100  0.93089100  0.88233100  1
  O  O44  1  0.89509000  0.46762400  0.24866700  1
  O  O45  1  0.40299300  0.52960500  0.25065300  1
  O  O46  1  0.10243000  0.53068100  0.75109100  1
  O  O47  1  0.60263400  0.46920300  0.74897800  1
  O  O48  1  0.60682700  0.31399000  0.24581600  1
  O  O49  1  0.11191500  0.67485700  0.25539700  1
  O  O50  1  0.39348000  0.68344200  0.75422300  1
  O  O51  1  0.89401200  0.31638400  0.74578300  1
  O  O52  1  0.50451500  0.97127600  0.35815800  1
  O  O53  1  0.00103700  0.02830700  0.13945400  1
  O  O54  1  0.49645100  0.02870600  0.64230100  1
  O  O55  1  0.99706600  0.97154900  0.85779100  1
  O  O56  1  0.70942600  0.65176200  0.53406400  1
  O  O57  1  0.20981300  0.34868700  0.96591200  1
  O  O58  1  0.29180300  0.34905200  0.46648000  1
  O  O59  1  0.79057200  0.65102400  0.03366700  1
loop_
_geom_bond_atom_site_label_1
_geom_bond_atom_site_label_2
_geom_bond_distance
_geom_bond_site_symmetry_2
K0 O22 2.806471 1_555
K0 O0 2.883473 1_555
K0 O16 2.884477 1_555
K0 O24 2.904563 1_455
K0 O6 2.926333 1_555
K0 O56 2.952070 1_555
K0 O8 2.988629 1_555
K1 O23 2.809149 1_555
K1 O17 2.874599 1_655
K1 O1 2.892164 1_656
K1 O25 2.892497 1_556
K1 O7 2.929001 1_555
K1 O9 2.943915 1_556
K1 O57 2.959109 1_655
K2 O20 2.807269 1_555
K2 O18 2.873958 1_555
K2 O2 2.886035 1_555
K2 O26 2.906023 1_655
K2 O4 2.927318 1_555
K2 O58 2.948964 1_555
K2 O10 2.969143 1_555
K3 O21 2.813958 1_555
K3 O19 2.879058 1_455
K3 O27 2.891655 1_554
K3 O3 2.897453 1_454
K3 O5 2.924324 1_555
K3 O59 2.957555 1_455
K3 O11 2.964652 1_554
K4 O58 2.770420 1_555
K4 O0 2.812756 1_555
K4 O8 2.871472 1_555
K4 O45 2.901893 1_555
K4 O36 2.953858 1_455
K4 O49 3.039559 1_555
K4 O4 3.064723 1_555
K4 O30 3.073800 1_555
K4 O24 3.258027 1_455
K5 O59 2.769174 1_555
K5 O1 2.801849 1_655
K5 O9 2.853907 1_555
K5 O44 2.879410 1_555
K5 O37 2.940129 1_555
K5 O5 3.060378 1_655
K5 O31 3.081010 1_555
K5 O48 3.092994 1_555
K5 O25 3.274972 1_555
K6 O56 2.772739 1_555
K6 O2 2.813455 1_555
K6 O10 2.857833 1_555
K6 O47 2.884131 1_555
K6 O38 2.949187 1_655
K6 O6 3.063961 1_555
K6 O51 3.094250 1_555
K6 O28 3.097389 1_555
K6 O26 3.262312 1_655
K7 O57 2.768522 1_555
K7 O3 2.805433 1_455
K7 O11 2.860173 1_555
K7 O46 2.888415 1_555
K7 O39 2.941137 1_555
K7 O7 3.055105 1_455
K7 O50 3.085012 1_555
K7 O29 3.093361 1_555
K7 O27 3.274611 1_555
K8 O34 2.516357 1_665
K8 O49 2.531352 1_655
K8 O53 2.582385 1_665
K8 O35 2.594608 1_555
K8 O40 2.815867 1_555
K8 O12 2.835801 1_565
Na0 O35 2.387147 1_545
Na0 O48 2.414115 1_555
Na0 O52 2.469133 1_545
Na0 O34 2.492534 1_555
Na0 O13 2.852117 1_545
Na0 O41 2.880267 1_555
Na1 O32 2.399734 1_445
Na1 O51 2.437567 1_455
Na1 O55 2.455707 1_445
Na1 O33 2.536241 1_555
Na1 O14 2.834092 1_545
Na1 O42 2.868614 1_555
Na2 O33 2.390181 1_565
Na2 O50 2.441323 1_555
Na2 O54 2.455727 1_565
Na2 O32 2.524600 1_555
Na2 O15 2.835701 1_565
Na2 O43 2.875416 1_555
B0 O10 1.467629 1_565
B0 O54 1.478276 1_565
B0 O16 1.488854 1_555
B0 O32 1.507892 1_555
B1 O11 1.468362 1_545
B1 O55 1.478267 1_445
B1 O17 1.488865 1_555
B1 O33 1.507065 1_555
B2 O8 1.475537 1_545
B2 O52 1.478254 1_545
B2 O18 1.485654 1_555
B2 O34 1.494286 1_555
B3 O9 1.462786 1_565
B3 O53 1.474089 1_665
B3 O19 1.484909 1_555
B3 O35 1.505213 1_555
B4 O8 1.364392 1_655
B4 O24 1.366740 1_555
B4 O40 1.404084 1_555
B5 O9 1.363111 1_555
B5 O25 1.366304 1_555
B5 O41 1.404987 1_555
B6 O10 1.363808 1_455
B6 O26 1.367791 1_555
B6 O42 1.405304 1_555
B7 O11 1.364594 1_555
B7 O27 1.367556 1_555
B7 O43 1.405305 1_555
B8 O44 1.357807 1_555
B8 O49 1.362987 1_655
B8 O36 1.406398 1_555
B9 O45 1.353969 1_555
B9 O48 1.378077 1_555
B9 O37 1.405055 1_555
B10 O46 1.359466 1_555
B10 O51 1.375767 1_455
B10 O38 1.404409 1_555
B11 O47 1.359572 1_555
B11 O50 1.376894 1_555
B11 O39 1.405134 1_555
B12 O16 1.365310 1_555
B12 O56 1.374087 1_555
B12 O28 1.398594 1_555
B13 O17 1.366703 1_555
B13 O57 1.372087 1_555
B13 O29 1.397945 1_555
B14 O18 1.367286 1_555
B14 O58 1.371023 1_555
B14 O30 1.399053 1_555
B15 O19 1.364769 1_555
B15 O59 1.372402 1_555
B15 O31 1.398318 1_555
B16 O20 1.481616 1_555
B16 O48 1.481965 1_555
B16 O44 1.490740 1_555
B16 O12 1.495226 1_555
B17 O49 1.463188 1_555
B17 O21 1.481177 1_555
B17 O45 1.493612 1_555
B17 O13 1.494374 1_555
B18 O22 1.481422 1_555
B18 O50 1.482106 1_555
B18 O14 1.495320 1_555
B18 O46 1.498156 1_555
B19 O51 1.479970 1_555
B19 O23 1.480905 1_555
B19 O15 1.493978 1_555
B19 O47 1.498782 1_555
B20 O0 1.363444 1_555
B20 O52 1.371759 1_555
B20 O40 1.410428 1_555
B21 O1 1.362135 1_555
B21 O53 1.367129 1_555
B21 O41 1.413677 1_555
B22 O2 1.364910 1_555
B22 O54 1.373247 1_555
B22 O42 1.412499 1_555
B23 O3 1.364339 1_555
B23 O55 1.373606 1_555
B23 O43 1.412173 1_555
B24 O56 1.470188 1_555
B24 O4 1.478351 1_555
B24 O24 1.483993 1_555
B24 O0 1.509606 1_555
B25 O57 1.470523 1_554
B25 O25 1.477786 1_555
B25 O5 1.479432 1_555
B25 O1 1.502753 1_555
B26 O58 1.467595 1_555
B26 O6 1.478299 1_555
B26 O26 1.481591 1_555
B26 O2 1.509443 1_555
B27 O59 1.470475 1_556
B27 O7 1.479363 1_555
B27 O27 1.481562 1_555
B27 O3 1.508793 1_555
B28 O14 1.353884 1_655
B28 O32 1.392878 1_555
B28 O28 1.406679 1_555
B29 O15 1.353409 1_555
B29 O33 1.392673 1_555
B29 O29 1.404264 1_555
B30 O12 1.354848 1_455
B30 O34 1.388603 1_555
B30 O30 1.403066 1_555
B31 O13 1.353595 1_555
B31 O35 1.385741 1_555
B31 O31 1.405272 1_555
B32 O20 1.368607 1_555
B32 O4 1.371265 1_555
B32 O36 1.397229 1_555
B33 O21 1.365530 1_555
B33 O5 1.370285 1_555
B33 O37 1.401895 1_555
B34 O22 1.367118 1_555
B34 O6 1.370765 1_555
B34 O38 1.397849 1_555
B35 O23 1.367358 1_555
B35 O7 1.370848 1_555
B35 O39 1.399852 1_555
