# generated using pymatgen
data_Pr4Mn2As5
_symmetry_space_group_name_H-M   'P 1'
_cell_length_a   4.21571587
_cell_length_b   4.21571587
_cell_length_c   17.58173900
_cell_angle_alpha   90.00000000
_cell_angle_beta   90.00000000
_cell_angle_gamma   119.99999795
_symmetry_Int_Tables_number   1
_chemical_formula_structural   Pr4Mn2As5
_chemical_formula_sum   'Pr4 Mn2 As5'
_cell_volume   270.60457489
_cell_formula_units_Z   1
loop_
 _symmetry_equiv_pos_site_id
 _symmetry_equiv_pos_as_xyz
  1  'x, y, z'
loop_
 _atom_site_type_symbol
 _atom_site_label
 _atom_site_symmetry_multiplicity
 _atom_site_fract_x
 _atom_site_fract_y
 _atom_site_fract_z
 _atom_site_occupancy
  Pr  Pr0  1  0.66666700  0.33333300  0.89923100  1
  Pr  Pr1  1  0.33333300  0.66666700  0.10076900  1
  Pr  Pr2  1  0.00000000  0.00000000  0.69791700  1
  Pr  Pr3  1  0.00000000  0.00000000  0.30208300  1
  Mn  Mn0  1  0.66666700  0.33333300  0.45219500  1
  Mn  Mn1  1  0.33333300  0.66666700  0.54780500  1
  As  As0  1  0.66666700  0.33333300  0.59002200  1
  As  As1  1  0.33333300  0.66666700  0.40997800  1
  As  As2  1  0.66666700  0.33333300  0.20282400  1
  As  As3  1  0.33333300  0.66666700  0.79717600  1
  As  As4  1  0.00000000  0.00000000  0.00000000  1
loop_
_geom_bond_atom_site_label_1
_geom_bond_atom_site_label_2
_geom_bond_distance
_geom_bond_site_symmetry_2
As0 Mn0 2.423238 1_555
As0 Mn1 2.544604 1_545
As0 Mn1 2.544604 1_655
As0 Mn1 2.544611 1_555
As0 Pr2 3.085873 1_655
As0 Pr2 3.085876 1_555
As0 Pr2 3.085876 1_665
As1 Mn1 2.423238 1_555
As1 Mn0 2.544604 1_455
As1 Mn0 2.544604 1_565
As1 Mn0 2.544611 1_555
As1 Pr3 3.085873 1_565
As1 Pr3 3.085876 1_555
As1 Pr3 3.085876 1_665
As2 Pr3 2.994931 1_655
As2 Pr3 2.994934 1_665
As2 Pr3 2.994934 1_555
As2 Pr1 3.023839 1_545
As2 Pr1 3.023839 1_655
As2 Pr1 3.023845 1_555
As3 Pr2 2.994931 1_565
As3 Pr2 2.994934 1_555
As3 Pr2 2.994934 1_665
As3 Pr0 3.023839 1_455
As3 Pr0 3.023839 1_565
As3 Pr0 3.023845 1_555
As4 Pr0 3.010478 1_454
As4 Pr1 3.010478 1_545
As4 Pr1 3.010481 1_445
As4 Pr1 3.010481 1_555
As4 Pr0 3.010481 1_554
As4 Pr0 3.010481 1_444
