# generated using pymatgen
data_BAsH13C3N
_symmetry_space_group_name_H-M   'P 1'
_cell_length_a   11.47376500
_cell_length_b   9.70258700
_cell_length_c   8.31640300
_cell_angle_alpha   90.00000000
_cell_angle_beta   90.00000000
_cell_angle_gamma   90.00000000
_symmetry_Int_Tables_number   1
_chemical_formula_structural   BAsH13C3N
_chemical_formula_sum   'B4 As4 H52 C12 N4'
_cell_volume   925.82525329
_cell_formula_units_Z   4
loop_
 _symmetry_equiv_pos_site_id
 _symmetry_equiv_pos_as_xyz
  1  'x, y, z'
loop_
 _atom_site_type_symbol
 _atom_site_label
 _atom_site_symmetry_multiplicity
 _atom_site_fract_x
 _atom_site_fract_y
 _atom_site_fract_z
 _atom_site_occupancy
  B  B0  1  0.47347300  0.75000000  0.05459800  1
  B  B1  1  0.97347300  0.75000000  0.44540200  1
  B  B2  1  0.52652700  0.25000000  0.94540200  1
  B  B3  1  0.02652700  0.25000000  0.55459800  1
  As  As0  1  0.49897900  0.75000000  0.80551000  1
  As  As1  1  0.99897900  0.75000000  0.69449000  1
  As  As2  1  0.50102100  0.25000000  0.19449000  1
  As  As3  1  0.00102100  0.25000000  0.30551000  1
  H  H0  1  0.52073700  0.85515100  0.10158500  1
  H  H1  1  0.02073700  0.64484900  0.39841500  1
  H  H2  1  0.47926300  0.35515100  0.89841500  1
  H  H3  1  0.97926300  0.14484900  0.60158500  1
  H  H4  1  0.47926300  0.14484900  0.89841500  1
  H  H5  1  0.97926300  0.35515100  0.60158500  1
  H  H6  1  0.52073700  0.64484900  0.10158500  1
  H  H7  1  0.02073700  0.85515100  0.39841500  1
  H  H8  1  0.41580400  0.86479500  0.74839100  1
  H  H9  1  0.91580400  0.63520500  0.75160900  1
  H  H10  1  0.58419600  0.36479500  0.25160900  1
  H  H11  1  0.08419600  0.13520500  0.24839100  1
  H  H12  1  0.58419600  0.13520500  0.25160900  1
  H  H13  1  0.08419600  0.36479500  0.24839100  1
  H  H14  1  0.41580400  0.63520500  0.74839100  1
  H  H15  1  0.91580400  0.86479500  0.75160900  1
  H  H16  1  0.27186700  0.75000000  0.36999100  1
  H  H17  1  0.77186700  0.75000000  0.13000900  1
  H  H18  1  0.72813300  0.25000000  0.63000900  1
  H  H19  1  0.22813300  0.25000000  0.86999100  1
  H  H20  1  0.40689500  0.84211100  0.34771600  1
  H  H21  1  0.90689500  0.65788900  0.15228400  1
  H  H22  1  0.59310500  0.34211100  0.65228400  1
  H  H23  1  0.09310500  0.15788900  0.84771600  1
  H  H24  1  0.59310500  0.15788900  0.65228400  1
  H  H25  1  0.09310500  0.34211100  0.84771600  1
  H  H26  1  0.40689500  0.65788900  0.34771600  1
  H  H27  1  0.90689500  0.84211100  0.15228400  1
  H  H28  1  0.32593600  0.53297600  0.12142800  1
  H  H29  1  0.82593600  0.96702400  0.37857200  1
  H  H30  1  0.67406400  0.03297600  0.87857200  1
  H  H31  1  0.17406400  0.46702400  0.62142800  1
  H  H32  1  0.67406400  0.46702400  0.87857200  1
  H  H33  1  0.17406400  0.03297600  0.62142800  1
  H  H34  1  0.32593600  0.96702400  0.12142800  1
  H  H35  1  0.82593600  0.53297600  0.37857200  1
  H  H36  1  0.26114900  0.62679400  0.95840600  1
  H  H37  1  0.76114900  0.87320600  0.54159400  1
  H  H38  1  0.73885100  0.12679400  0.04159400  1
  H  H39  1  0.23885100  0.37320600  0.45840600  1
  H  H40  1  0.73885100  0.37320600  0.04159400  1
  H  H41  1  0.23885100  0.12679400  0.45840600  1
  H  H42  1  0.26114900  0.87320600  0.95840600  1
  H  H43  1  0.76114900  0.62679400  0.54159400  1
  H  H44  1  0.19214200  0.62618100  0.15271900  1
  H  H45  1  0.69214200  0.87381900  0.34728100  1
  H  H46  1  0.80785800  0.12618100  0.84728100  1
  H  H47  1  0.30785800  0.37381900  0.65271900  1
  H  H48  1  0.80785800  0.37381900  0.84728100  1
  H  H49  1  0.30785800  0.12618100  0.65271900  1
  H  H50  1  0.19214200  0.87381900  0.15271900  1
  H  H51  1  0.69214200  0.62618100  0.34728100  1
  C  C0  1  0.35800500  0.75000000  0.31281600  1
  C  C1  1  0.85800500  0.75000000  0.18718400  1
  C  C2  1  0.64199500  0.25000000  0.68718400  1
  C  C3  1  0.14199500  0.25000000  0.81281600  1
  C  C4  1  0.27579700  0.62533600  0.08861900  1
  C  C5  1  0.77579700  0.87466400  0.41138100  1
  C  C6  1  0.72420300  0.12533600  0.91138100  1
  C  C7  1  0.22420300  0.37466400  0.58861900  1
  C  C8  1  0.72420300  0.37466400  0.91138100  1
  C  C9  1  0.22420300  0.12533600  0.58861900  1
  C  C10  1  0.27579700  0.87466400  0.08861900  1
  C  C11  1  0.77579700  0.62533600  0.41138100  1
  N  N0  1  0.34413200  0.75000000  0.13400400  1
  N  N1  1  0.84413200  0.75000000  0.36599600  1
  N  N2  1  0.65586800  0.25000000  0.86599600  1
  N  N3  1  0.15586800  0.25000000  0.63400400  1
loop_
_geom_bond_atom_site_label_1
_geom_bond_atom_site_label_2
_geom_bond_distance
_geom_bond_site_symmetry_2
B0 H0 1.219698 1_555
B0 H6 1.219698 1_555
B0 N0 1.624325 1_555
B1 H7 1.219698 1_655
B1 H1 1.219698 1_655
B1 N1 1.624325 1_555
B2 H4 1.219698 1_555
B2 H2 1.219698 1_555
B2 N2 1.624325 1_555
B3 H5 1.219698 1_455
B3 H3 1.219698 1_455
B3 N3 1.624325 1_555
As0 H14 1.541741 1_555
As0 H8 1.541741 1_555
As0 B0 2.092086 1_556
As1 H15 1.541741 1_555
As1 H9 1.541741 1_555
As1 B1 2.092086 1_555
As2 H10 1.541741 1_555
As2 H12 1.541741 1_555
As2 B2 2.092086 1_554
As3 H13 1.541741 1_555
As3 H11 1.541741 1_555
As3 B3 2.092086 1_555
C0 H20 1.094365 1_555
C0 H26 1.094365 1_555
C0 H16 1.096760 1_555
C0 N0 1.495567 1_555
C1 H27 1.094365 1_555
C1 H21 1.094365 1_555
C1 H17 1.096760 1_555
C1 N1 1.495567 1_555
C2 H22 1.094365 1_555
C2 H24 1.094365 1_555
C2 H18 1.096760 1_555
C2 N2 1.495567 1_555
C3 H25 1.094365 1_555
C3 H23 1.094365 1_555
C3 H19 1.096760 1_555
C3 N3 1.495567 1_555
C4 H36 1.095960 1_554
C4 H44 1.097967 1_555
C4 H28 1.099295 1_555
C4 N0 1.490052 1_555
C5 H37 1.095960 1_555
C5 H45 1.097967 1_555
C5 H29 1.099295 1_555
C5 N1 1.490052 1_555
C6 H38 1.095960 1_556
C6 H46 1.097967 1_555
C6 H30 1.099295 1_555
C6 N2 1.490052 1_555
C7 H39 1.095960 1_555
C7 H47 1.097967 1_555
C7 H31 1.099295 1_555
C7 N3 1.490052 1_555
C8 H40 1.095960 1_556
C8 H48 1.097967 1_555
C8 H32 1.099295 1_555
C8 N2 1.490052 1_555
C9 H41 1.095960 1_555
C9 H49 1.097967 1_555
C9 H33 1.099295 1_555
C9 N3 1.490052 1_555
C10 H42 1.095960 1_554
C10 H50 1.097967 1_555
C10 H34 1.099295 1_555
C10 N0 1.490052 1_555
C11 H43 1.095960 1_555
C11 H51 1.097967 1_555
C11 H35 1.099295 1_555
C11 N1 1.490052 1_555
