# generated using pymatgen
data_Li4Mn3O7
_symmetry_space_group_name_H-M   'P 1'
_cell_length_a   5.10322721
_cell_length_b   5.10322721
_cell_length_c   18.69879465
_cell_angle_alpha   82.60357126
_cell_angle_beta   82.60357126
_cell_angle_gamma   32.82243389
_symmetry_Int_Tables_number   1
_chemical_formula_structural   Li4Mn3O7
_chemical_formula_sum   'Li8 Mn6 O14'
_cell_volume   261.56890768
_cell_formula_units_Z   2
loop_
 _symmetry_equiv_pos_site_id
 _symmetry_equiv_pos_as_xyz
  1  'x, y, z'
loop_
 _atom_site_type_symbol
 _atom_site_label
 _atom_site_symmetry_multiplicity
 _atom_site_fract_x
 _atom_site_fract_y
 _atom_site_fract_z
 _atom_site_occupancy
  Li  Li0  1  0.28220500  0.28220500  0.43269500  1
  Li  Li1  1  0.71779500  0.71779500  0.56730500  1
  Li  Li2  1  0.13890800  0.13890800  0.70793200  1
  Li  Li3  1  0.57229000  0.57229000  0.85714700  1
  Li  Li4  1  0.00000000  0.00000000  0.00000000  1
  Li  Li5  1  0.42771000  0.42771000  0.14285300  1
  Li  Li6  1  0.86109200  0.86109200  0.29206800  1
  Li  Li7  1  0.00000000  0.00000000  0.50000000  1
  Mn  Mn0  1  0.57658300  0.57658300  0.36721000  1
  Mn  Mn1  1  0.42341700  0.42341700  0.63279000  1
  Mn  Mn2  1  0.85450800  0.85450800  0.78014300  1
  Mn  Mn3  1  0.28651400  0.28651400  0.92702800  1
  Mn  Mn4  1  0.71348600  0.71348600  0.07297200  1
  Mn  Mn5  1  0.14549200  0.14549200  0.21985700  1
  O  O0  1  0.20346700  0.20346700  0.32878400  1
  O  O1  1  0.63900000  0.63900000  0.45404500  1
  O  O2  1  0.05328400  0.05328400  0.61060700  1
  O  O3  1  0.48321400  0.48321400  0.74497100  1
  O  O4  1  0.91838200  0.91838200  0.89626200  1
  O  O5  1  0.34511600  0.34511600  0.04189400  1
  O  O6  1  0.77556600  0.77556600  0.18591400  1
  O  O7  1  0.36100000  0.36100000  0.54595500  1
  O  O8  1  0.79653300  0.79653300  0.67121600  1
  O  O9  1  0.22443400  0.22443400  0.81408600  1
  O  O10  1  0.65488400  0.65488400  0.95810600  1
  O  O11  1  0.08161800  0.08161800  0.10373800  1
  O  O12  1  0.51678600  0.51678600  0.25502900  1
  O  O13  1  0.94671600  0.94671600  0.38939300  1
loop_
_geom_bond_atom_site_label_1
_geom_bond_atom_site_label_2
_geom_bond_distance
_geom_bond_site_symmetry_2
Li0 O1 2.013394 1_455
Li0 O1 2.013394 1_545
Li0 O0 2.184398 1_555
Li0 O13 2.231285 1_545
Li0 O13 2.231285 1_455
Li0 O7 2.349221 1_555
Li1 O7 2.013394 1_655
Li1 O7 2.013394 1_565
Li1 O8 2.184398 1_555
Li1 O2 2.231285 1_655
Li1 O2 2.231285 1_565
Li1 O1 2.349221 1_555
Li2 O2 2.103363 1_555
Li2 O3 2.144470 1_455
Li2 O3 2.144470 1_545
Li2 O8 2.155783 1_545
Li2 O8 2.155783 1_455
Li2 O9 2.255506 1_555
Li3 O4 2.142096 1_455
Li3 O4 2.142096 1_545
Li3 O9 2.150370 1_565
Li3 O9 2.150370 1_655
Li3 O10 2.151158 1_555
Li3 O3 2.377248 1_555
Li4 O5 2.161747 1_545
Li4 O5 2.161747 1_455
Li4 O10 2.161747 1_454
Li4 O10 2.161747 1_544
Li4 O11 2.194839 1_555
Li4 O4 2.194839 1_444
Li5 O11 2.142096 1_655
Li5 O11 2.142096 1_565
Li5 O6 2.150370 1_545
Li5 O6 2.150370 1_455
Li5 O5 2.151158 1_555
Li5 O12 2.377248 1_555
Li6 O13 2.103363 1_555
Li6 O12 2.144470 1_655
Li6 O12 2.144470 1_565
Li6 O0 2.155783 1_565
Li6 O0 2.155783 1_655
Li6 O6 2.255506 1_555
Li7 O7 2.086956 1_455
Li7 O7 2.086956 1_545
Li7 O1 2.086956 1_545
Li7 O1 2.086956 1_455
Li7 O13 2.199835 1_445
Li7 O2 2.199835 1_555
Mn0 O1 1.810028 1_555
Mn0 O13 1.930279 1_545
Mn0 O13 1.930279 1_455
Mn0 O0 1.974528 1_565
Mn0 O0 1.974528 1_655
Mn0 O12 2.252222 1_555
Mn1 O7 1.810028 1_555
Mn1 O2 1.930279 1_655
Mn1 O2 1.930279 1_565
Mn1 O8 1.974528 1_545
Mn1 O8 1.974528 1_455
Mn1 O3 2.252222 1_555
Mn2 O3 1.968959 1_565
Mn2 O3 1.968959 1_655
Mn2 O9 1.971428 1_565
Mn2 O9 1.971428 1_655
Mn2 O8 2.186563 1_555
Mn2 O4 2.338806 1_555
Mn3 O10 1.968848 1_455
Mn3 O10 1.968848 1_545
Mn3 O4 1.969082 1_545
Mn3 O4 1.969082 1_455
Mn3 O9 2.274639 1_555
Mn3 O5 2.296353 1_556
Mn4 O5 1.968848 1_655
Mn4 O5 1.968848 1_565
Mn4 O11 1.969082 1_655
Mn4 O11 1.969082 1_565
Mn4 O6 2.274639 1_555
Mn4 O10 2.296353 1_554
Mn5 O12 1.968959 1_455
Mn5 O12 1.968959 1_545
Mn5 O6 1.971428 1_455
Mn5 O6 1.971428 1_545
Mn5 O0 2.186563 1_555
Mn5 O11 2.338806 1_555
