# generated using pymatgen
data_Li2CrO2
_symmetry_space_group_name_H-M   'P 1'
_cell_length_a   4.72006193
_cell_length_b   10.21521191
_cell_length_c   4.72006255
_cell_angle_alpha   79.56333564
_cell_angle_beta   77.53607623
_cell_angle_gamma   100.43654975
_symmetry_Int_Tables_number   1
_chemical_formula_structural   Li2CrO2
_chemical_formula_sum   'Li8 Cr4 O8'
_cell_volume   212.71872289
_cell_formula_units_Z   4
loop_
 _symmetry_equiv_pos_site_id
 _symmetry_equiv_pos_as_xyz
  1  'x, y, z'
loop_
 _atom_site_type_symbol
 _atom_site_label
 _atom_site_symmetry_multiplicity
 _atom_site_fract_x
 _atom_site_fract_y
 _atom_site_fract_z
 _atom_site_occupancy
  Li  Li0  1  0.60844200  0.21688500  0.89155900  1
  Li  Li1  1  0.10843900  0.21687900  0.39156200  1
  Li  Li2  1  0.85843800  0.71687800  0.14156100  1
  Li  Li3  1  0.35844100  0.71688400  0.64155900  1
  Li  Li4  1  0.64155800  0.28311500  0.35844200  1
  Li  Li5  1  0.14156100  0.28312100  0.85843900  1
  Li  Li6  1  0.89155900  0.78311500  0.60844300  1
  Li  Li7  1  0.39156200  0.78312200  0.10843900  1
  Cr  Cr0  1  0.50001300  0.00000100  0.50001400  1
  Cr  Cr1  1  0.74997900  0.49999900  0.74997700  1
  Cr  Cr2  1  0.00001800  0.00000100  0.00002100  1
  Cr  Cr3  1  0.24998400  0.50000000  0.24998000  1
  O  O0  1  0.42749800  0.35497500  0.07250200  1
  O  O1  1  0.92748400  0.35497600  0.57251200  1
  O  O2  1  0.67748800  0.85497800  0.32251600  1
  O  O3  1  0.17749900  0.85497900  0.82250200  1
  O  O4  1  0.82250300  0.14502500  0.17749900  1
  O  O5  1  0.32251700  0.14502400  0.67748900  1
  O  O6  1  0.07250200  0.64502200  0.42749900  1
  O  O7  1  0.57251300  0.64502200  0.92748400  1
loop_
_geom_bond_atom_site_label_1
_geom_bond_atom_site_label_2
_geom_bond_distance
_geom_bond_site_symmetry_2
Li0 O5 1.969676 1_555
Li0 O4 1.969691 1_556
Li0 O0 2.001699 1_556
Li0 O1 2.001822 1_555
Li1 O4 1.969665 1_455
Li1 O5 1.969687 1_555
Li1 O1 2.001799 1_455
Li1 O0 2.001909 1_555
Li2 O6 1.969681 1_655
Li2 O7 1.969682 1_554
Li2 O2 2.001826 1_555
Li2 O3 2.001934 1_654
Li3 O7 1.969684 1_555
Li3 O6 1.969693 1_555
Li3 O3 2.001738 1_555
Li3 O2 2.001837 1_555
Li4 O1 1.969679 1_555
Li4 O0 1.969688 1_555
Li4 O4 2.001701 1_555
Li4 O5 2.001820 1_555
Li5 O0 1.969668 1_556
Li5 O1 1.969684 1_455
Li5 O5 2.001802 1_555
Li5 O4 2.001907 1_456
Li6 O2 1.969691 1_555
Li6 O3 1.969700 1_655
Li6 O6 2.001725 1_655
Li6 O7 2.001826 1_555
Li7 O3 1.969677 1_554
Li7 O2 1.969686 1_555
Li7 O7 2.001828 1_554
Li7 O6 2.001929 1_555
Cr0 O5 2.048077 1_555
Cr0 O2 2.048081 1_545
Cr0 O3 2.048113 1_545
Cr0 O4 2.048129 1_555
Cr1 O1 2.048075 1_555
Cr1 O7 2.048081 1_555
Cr1 O6 2.048115 1_655
Cr1 O0 2.048131 1_556
Cr2 O3 2.048130 1_544
Cr2 O4 2.048133 1_455
Cr2 O2 2.048167 1_445
Cr2 O5 2.048179 1_554
Cr3 O6 2.048132 1_555
Cr3 O0 2.048139 1_555
Cr3 O7 2.048162 1_554
Cr3 O1 2.048186 1_455
