# generated using pymatgen
data_Ba3Ti3(BO6)2
_symmetry_space_group_name_H-M   'P 1'
_cell_length_a   8.88921474
_cell_length_b   8.88921474
_cell_length_c   3.85725100
_cell_angle_alpha   90.00000000
_cell_angle_beta   90.00000000
_cell_angle_gamma   120.00000552
_symmetry_Int_Tables_number   1
_chemical_formula_structural   Ba3Ti3(BO6)2
_chemical_formula_sum   'Ba3 Ti3 B2 O12'
_cell_volume   263.95828834
_cell_formula_units_Z   1
loop_
 _symmetry_equiv_pos_site_id
 _symmetry_equiv_pos_as_xyz
  1  'x, y, z'
loop_
 _atom_site_type_symbol
 _atom_site_label
 _atom_site_symmetry_multiplicity
 _atom_site_fract_x
 _atom_site_fract_y
 _atom_site_fract_z
 _atom_site_occupancy
  Ba  Ba0  1  0.40428500  0.40428500  0.50000000  1
  Ba  Ba1  1  0.59571500  0.00000000  0.50000000  1
  Ba  Ba2  1  0.00000000  0.59571500  0.50000000  1
  Ti  Ti0  1  0.76541600  0.76541600  0.00000000  1
  Ti  Ti1  1  0.23458400  0.00000000  0.00000000  1
  Ti  Ti2  1  0.00000000  0.23458400  0.00000000  1
  B  B0  1  0.66666700  0.33333300  0.00000000  1
  B  B1  1  0.33333300  0.66666700  0.00000000  1
  O  O0  1  0.18509400  0.50565700  0.00000000  1
  O  O1  1  0.50565700  0.18509400  0.00000000  1
  O  O2  1  0.81490600  0.32056300  0.00000000  1
  O  O3  1  0.67943700  0.49434300  0.00000000  1
  O  O4  1  0.49434300  0.67943700  0.00000000  1
  O  O5  1  0.32056300  0.81490600  0.00000000  1
  O  O6  1  0.00000000  0.26355000  0.50000000  1
  O  O7  1  0.26355000  0.00000000  0.50000000  1
  O  O8  1  0.73645000  0.73645000  0.50000000  1
  O  O9  1  0.00000000  0.81540600  0.00000000  1
  O  O10  1  0.81540600  0.00000000  0.00000000  1
  O  O11  1  0.18459400  0.18459400  0.00000000  1
loop_
_geom_bond_atom_site_label_1
_geom_bond_atom_site_label_2
_geom_bond_distance
_geom_bond_site_symmetry_2
Ba0 O11 2.744693 1_556
Ba0 O11 2.744693 1_555
Ba0 O3 2.895649 1_555
Ba0 O3 2.895649 1_556
Ba0 O4 2.895649 1_555
Ba0 O4 2.895649 1_556
Ba0 O8 2.952686 1_555
Ba0 O6 3.159808 1_555
Ba0 O7 3.159808 1_555
Ba0 O0 3.175497 1_555
Ba0 O0 3.175497 1_556
Ba0 O1 3.175497 1_555
Ba0 O1 3.175497 1_556
Ba1 O10 2.744693 1_555
Ba1 O10 2.744693 1_556
Ba1 O5 2.895649 1_545
Ba1 O5 2.895649 1_546
Ba1 O1 2.895649 1_555
Ba1 O1 2.895649 1_556
Ba1 O7 2.952686 1_555
Ba1 O6 3.159808 1_655
Ba1 O8 3.159808 1_545
Ba1 O2 3.175497 1_556
Ba1 O2 3.175497 1_555
Ba1 O4 3.175497 1_546
Ba1 O4 3.175497 1_545
Ba2 O9 2.744693 1_556
Ba2 O9 2.744693 1_555
Ba2 O2 2.895649 1_455
Ba2 O2 2.895649 1_456
Ba2 O0 2.895649 1_555
Ba2 O0 2.895649 1_556
Ba2 O6 2.952686 1_555
Ba2 O7 3.159808 1_565
Ba2 O8 3.159808 1_455
Ba2 O5 3.175497 1_556
Ba2 O5 3.175497 1_555
Ba2 O3 3.175497 1_456
Ba2 O3 3.175497 1_455
B0 O2 1.377997 1_555
B0 O1 1.378002 1_555
B0 O3 1.378006 1_555
B1 O5 1.377997 1_555
B1 O0 1.378002 1_555
B1 O4 1.378006 1_555
O0 Ti2 2.132789 1_555
O1 Ti1 2.132789 1_555
O2 Ti2 2.132789 1_655
O3 Ti0 2.132789 1_555
O4 Ti0 2.132789 1_555
O5 Ti1 2.132789 1_565
O6 Ti2 1.945738 1_555
O6 Ti2 1.945738 1_556
O7 Ti1 1.945738 1_556
O7 Ti1 1.945738 1_555
O8 Ti0 1.945738 1_556
O8 Ti0 1.945738 1_555
O9 Ti1 1.902412 1_565
O9 Ti0 1.902412 1_455
O10 Ti2 1.902412 1_655
O10 Ti0 1.902412 1_545
O11 Ti2 1.902412 1_555
O11 Ti1 1.902412 1_555
