# generated using pymatgen
data_CeSe2
_symmetry_space_group_name_H-M   'P 1'
_cell_length_a   15.25121098
_cell_length_b   18.47242493
_cell_length_c   18.47242493
_cell_angle_alpha   80.18820908
_cell_angle_beta   65.61850849
_cell_angle_gamma   65.61850849
_symmetry_Int_Tables_number   1
_chemical_formula_structural   CeSe2
_chemical_formula_sum   'Ce16 Se32'
_cell_volume   4317.32221819
_cell_formula_units_Z   16
loop_
 _symmetry_equiv_pos_site_id
 _symmetry_equiv_pos_as_xyz
  1  'x, y, z'
loop_
 _atom_site_type_symbol
 _atom_site_label
 _atom_site_symmetry_multiplicity
 _atom_site_fract_x
 _atom_site_fract_y
 _atom_site_fract_z
 _atom_site_occupancy
  Ce  Ce0  1  0.57374257  0.34158325  0.86105031  1
  Ce  Ce1  1  0.77637613  0.65841675  0.13894969  1
  Ce  Ce2  1  0.27637613  0.13894969  0.65841675  1
  Ce  Ce3  1  0.07374257  0.86105031  0.34158325  1
  Ce  Ce4  1  0.91532582  0.86105031  0.65841675  1
  Ce  Ce5  1  0.43479288  0.13894969  0.34158325  1
  Ce  Ce6  1  0.41532582  0.65841675  0.86105031  1
  Ce  Ce7  1  0.93479288  0.34158325  0.13894969  1
  Ce  Ce8  1  0.42625743  0.65841675  0.13894969  1
  Ce  Ce9  1  0.22362387  0.34158325  0.86105031  1
  Ce  Ce10  1  0.72362387  0.86105031  0.34158325  1
  Ce  Ce11  1  0.92625743  0.13894969  0.65841675  1
  Ce  Ce12  1  0.08467418  0.13894969  0.34158325  1
  Ce  Ce13  1  0.56520712  0.86105031  0.65841675  1
  Ce  Ce14  1  0.58467418  0.34158325  0.13894969  1
  Ce  Ce15  1  0.06520712  0.65841675  0.86105031  1
  Se  Se0  1  0.60395853  0.29208294  -0.00000000  1
  Se  Se1  1  0.89604147  0.70791706  0.00000000  1
  Se  Se2  1  0.39604147  -0.00000000  0.70791706  1
  Se  Se3  1  0.10395853  -0.00000000  0.29208294  1
  Se  Se4  1  0.89604147  -0.00000000  0.70791706  1
  Se  Se5  1  0.60395853  -0.00000000  0.29208294  1
  Se  Se6  1  0.39604147  0.70791706  0.00000000  1
  Se  Se7  1  0.10395853  0.29208294  -0.00000000  1
  Se  Se8  1  0.46473160  0.50000000  0.16182642  1
  Se  Se9  1  0.12655802  0.50000000  0.83817358  1
  Se  Se10  1  0.62655802  0.83817358  0.50000000  1
  Se  Se11  1  0.96473160  0.16182642  0.50000000  1
  Se  Se12  1  0.53526840  0.50000000  0.83817358  1
  Se  Se13  1  0.87344198  0.50000000  0.16182642  1
  Se  Se14  1  0.37344198  0.16182642  0.50000000  1
  Se  Se15  1  0.03526840  0.83817358  0.50000000  1
  Se  Se16  1  0.58696497  0.69266674  0.13340331  1
  Se  Se17  1  0.41303503  0.30733326  0.86659669  1
  Se  Se18  1  0.91303503  0.86659669  0.30733326  1
  Se  Se19  1  0.08696497  0.13340331  0.69266674  1
  Se  Se20  1  0.27963172  0.13340331  0.30733326  1
  Se  Se21  1  0.72036828  0.86659669  0.69266674  1
  Se  Se22  1  0.77963172  0.30733326  0.13340331  1
  Se  Se23  1  0.22036828  0.69266674  0.86659669  1
  Se  Se24  1  0.75000000  0.73511739  0.26488261  1
  Se  Se25  1  0.75000000  0.26488261  0.73511739  1
  Se  Se26  1  0.25000000  0.73511739  0.26488261  1
  Se  Se27  1  0.25000000  0.26488261  0.73511739  1
  Se  Se28  1  0.48511739  0.26488261  0.26488261  1
  Se  Se29  1  0.01488261  0.73511739  0.73511739  1
  Se  Se30  1  0.98511739  0.26488261  0.26488261  1
  Se  Se31  1  0.51488261  0.73511739  0.73511739  1
loop_
_geom_bond_atom_site_label_1
_geom_bond_atom_site_label_2
_geom_bond_distance
_geom_bond_site_symmetry_2
Ce0 Se12 2.729822 1_555
Ce0 Se25 2.731495 1_555
Ce0 Se0 2.732283 1_556
Ce0 Se17 2.732941 1_555
Ce1 Se13 2.729822 1_555
Ce1 Se24 2.731495 1_555
Ce1 Se1 2.732283 1_555
Ce1 Se16 2.732942 1_555
Ce2 Se14 2.729822 1_555
Ce2 Se27 2.731495 1_555
Ce2 Se2 2.732283 1_555
Ce2 Se19 2.732942 1_555
Ce3 Se15 2.729822 1_555
Ce3 Se26 2.731495 1_555
Ce3 Se3 2.732283 1_565
Ce3 Se18 2.732941 1_455
Ce4 Se15 2.729822 1_655
Ce4 Se29 2.731495 1_655
Ce4 Se4 2.732283 1_565
Ce4 Se21 2.732942 1_555
Ce5 Se14 2.729822 1_555
Ce5 Se28 2.731495 1_555
Ce5 Se5 2.732283 1_555
Ce5 Se20 2.732941 1_555
Ce6 Se12 2.729822 1_555
Ce6 Se31 2.731495 1_555
Ce6 Se6 2.732283 1_556
Ce6 Se23 2.732942 1_555
Ce7 Se13 2.729822 1_555
Ce7 Se30 2.731495 1_555
Ce7 Se7 2.732283 1_655
Ce7 Se22 2.732941 1_555
Ce8 Se8 2.729822 1_555
Ce8 Se26 2.731495 1_555
Ce8 Se6 2.732283 1_555
Ce8 Se16 2.732941 1_555
Ce9 Se9 2.729822 1_555
Ce9 Se27 2.731495 1_555
Ce9 Se7 2.732283 1_556
Ce9 Se17 2.732942 1_555
Ce10 Se10 2.729822 1_555
Ce10 Se24 2.731495 1_555
Ce10 Se5 2.732283 1_565
Ce10 Se18 2.732942 1_555
Ce11 Se11 2.729822 1_555
Ce11 Se25 2.731495 1_555
Ce11 Se4 2.732283 1_555
Ce11 Se19 2.732941 1_655
Ce12 Se11 2.729822 1_455
Ce12 Se30 2.731495 1_455
Ce12 Se3 2.732283 1_555
Ce12 Se20 2.732942 1_555
Ce13 Se10 2.729822 1_555
Ce13 Se31 2.731495 1_555
Ce13 Se2 2.732283 1_565
Ce13 Se21 2.732941 1_555
Ce14 Se8 2.729822 1_555
Ce14 Se28 2.731495 1_555
Ce14 Se0 2.732283 1_555
Ce14 Se22 2.732942 1_555
Ce15 Se9 2.729822 1_555
Ce15 Se29 2.731495 1_555
Ce15 Se1 2.732283 1_456
Ce15 Se23 2.732941 1_555
