# generated using pymatgen
data_MgZr2H12(OF3)4
_symmetry_space_group_name_H-M   'P 1'
_cell_length_a   6.91736404
_cell_length_b   7.23100581
_cell_length_c   7.57760027
_cell_angle_alpha   61.50185191
_cell_angle_beta   79.21751159
_cell_angle_gamma   66.91500265
_symmetry_Int_Tables_number   1
_chemical_formula_structural   MgZr2H12(OF3)4
_chemical_formula_sum   'Mg1 Zr2 H12 O4 F12'
_cell_volume   306.42853382
_cell_formula_units_Z   1
loop_
 _symmetry_equiv_pos_site_id
 _symmetry_equiv_pos_as_xyz
  1  'x, y, z'
loop_
 _atom_site_type_symbol
 _atom_site_label
 _atom_site_symmetry_multiplicity
 _atom_site_fract_x
 _atom_site_fract_y
 _atom_site_fract_z
 _atom_site_occupancy
  Mg  Mg0  1  0.25000000  0.49316295  0.01367510  1
  Zr  Zr0  1  0.25000000  0.96102764  0.07794372  1
  Zr  Zr1  1  0.75000000  0.03382585  0.93234930  1
  H  H0  1  0.11101816  0.63049244  0.49210507  1
  H  H1  1  0.65621372  0.12972257  0.51023862  1
  H  H2  1  0.84378628  0.36003981  0.51023862  1
  H  H3  1  0.38898184  0.87740149  0.49210507  1
  H  H4  1  0.45542951  0.39480876  0.39114323  1
  H  H5  1  0.92266998  0.77767199  0.61052844  1
  H  H6  1  0.57733002  0.61179957  0.61052844  1
  H  H7  1  0.04457049  0.21404801  0.39114323  1
  H  H8  1  0.03777648  0.49740334  0.73529531  1
  H  H9  1  0.57886390  0.23712477  0.26546628  1
  H  H10  1  0.92113610  0.49740895  0.26546628  1
  H  H11  1  0.46222352  0.76730135  0.73529531  1
  O  O0  1  0.95945318  0.36142791  0.39989054  1
  O  O1  1  0.50767579  0.77320756  0.59744240  1
  O  O2  1  0.99232421  0.62935004  0.59744240  1
  O  O3  1  0.54054682  0.23868155  0.39989054  1
  F  F0  1  0.21424886  0.03154523  0.34689771  1
  F  F1  1  0.67990364  0.37671497  0.65245273  1
  F  F2  1  0.82009636  0.97083129  0.65245273  1
  F  F3  1  0.28575114  0.62155806  0.34689771  1
  F  F4  1  0.05623972  0.07245863  0.82184132  1
  F  F5  1  0.58123867  0.82601848  0.17926881  1
  F  F6  1  0.91876133  0.99471271  0.17926881  1
  F  F7  1  0.44376028  0.10570005  0.82184132  1
  F  F8  1  0.11056967  0.34604436  0.95077024  1
  F  F9  1  0.52362199  0.26847087  0.05699576  1
  F  F10  1  0.97637801  0.67453337  0.05699576  1
  F  F11  1  0.38943033  0.70318441  0.95077024  1
loop_
_geom_bond_atom_site_label_1
_geom_bond_atom_site_label_2
_geom_bond_distance
_geom_bond_site_symmetry_2
H0 O2 1.032053 1_455
H1 O3 1.042797 1_555
H2 O0 1.042797 1_555
H3 O1 1.032053 1_555
H4 O3 1.023492 1_555
H5 O2 1.034721 1_555
H6 O1 1.034721 1_555
H7 O0 1.023492 1_455
H8 O2 1.018296 1_455
H9 O3 1.007738 1_555
H10 O0 1.007738 1_555
H11 O1 1.018296 1_555
F0 H3 1.478109 1_545
F0 H7 1.513904 1_555
F0 Zr0 2.275727 1_545
F1 H2 1.421509 1_555
F1 H6 1.455054 1_555
F1 Zr1 2.303238 1_555
F2 H1 1.421511 1_565
F2 H5 1.455048 1_555
F2 Zr1 2.303246 1_565
F3 H0 1.478108 1_555
F3 H4 1.513908 1_555
F3 Zr0 2.275718 1_555
F4 Zr1 2.200878 1_455
F4 Zr0 2.201345 1_546
F5 Zr0 2.231917 1_555
F5 Zr1 2.235399 1_564
F6 Zr0 2.231916 1_655
F6 Zr1 2.235396 1_564
F7 Zr1 2.200881 1_555
F7 Zr0 2.201347 1_546
F8 H8 1.512465 1_555
F8 Mg0 1.936409 1_556
F8 Zr0 2.300377 1_546
F9 H9 1.584022 1_555
F9 Mg0 1.908400 1_555
F9 Zr1 2.261736 1_554
F10 H10 1.584022 1_555
F10 Mg0 1.908397 1_655
F10 Zr1 2.261741 1_564
F11 H11 1.512465 1_555
F11 Mg0 1.936397 1_556
F11 Zr0 2.300377 1_556
