# generated using pymatgen
data_Y3Al3NiGe2
_symmetry_space_group_name_H-M   'P 1'
_cell_length_a   6.93253817
_cell_length_b   6.93253617
_cell_length_c   4.16290818
_cell_angle_alpha   90.00000000
_cell_angle_beta   90.00000000
_cell_angle_gamma   119.99998673
_symmetry_Int_Tables_number   1
_chemical_formula_structural   Y3Al3NiGe2
_chemical_formula_sum   'Y3 Al3 Ni1 Ge2'
_cell_volume   173.26543578
_cell_formula_units_Z   1
loop_
 _symmetry_equiv_pos_site_id
 _symmetry_equiv_pos_as_xyz
  1  'x, y, z'
loop_
 _atom_site_type_symbol
 _atom_site_label
 _atom_site_symmetry_multiplicity
 _atom_site_fract_x
 _atom_site_fract_y
 _atom_site_fract_z
 _atom_site_occupancy
  Y  Y0  1  1.00000000  0.59651946  -0.00000000  1
  Y  Y1  1  0.40348017  0.40348019  0.00000000  1
  Y  Y2  1  0.59651983  0.00000002  0.00000000  1
  Al  Al0  1  0.22642631  0.00000041  0.50000000  1
  Al  Al1  1  0.77357369  0.77357411  0.50000000  1
  Al  Al2  1  -0.00000000  0.22642629  0.50000000  1
  Ni  Ni0  1  -0.00000000  0.00000105  0.00000000  1
  Ge  Ge0  1  0.66666414  0.33333081  0.50000000  1
  Ge  Ge1  1  0.33333586  0.66666766  0.50000000  1
loop_
_geom_bond_atom_site_label_1
_geom_bond_atom_site_label_2
_geom_bond_distance
_geom_bond_site_symmetry_2
Al0 Ni0 2.606999 1_556
Al0 Ni0 2.606999 1_555
Al0 Al2 2.718813 1_555
Al0 Al1 2.718816 1_445
Al0 Ge0 2.757145 1_555
Al0 Ge1 2.757170 1_545
Al0 Y1 3.198394 1_556
Al0 Y1 3.198394 1_555
Al0 Y0 3.198400 1_445
Al0 Y0 3.198400 1_446
Al0 Y2 3.303818 1_556
Al0 Y2 3.303818 1_555
Al1 Ni0 2.606999 1_666
Al1 Ni0 2.606999 1_665
Al1 Al2 2.718813 1_665
Al1 Ge1 2.757147 1_555
Al1 Ge0 2.757177 1_555
Al1 Y2 3.198394 1_565
Al1 Y2 3.198394 1_566
Al1 Y0 3.198400 1_555
Al1 Y0 3.198400 1_556
Al1 Y1 3.303818 1_556
Al1 Y1 3.303818 1_555
Al2 Ni0 2.606993 1_556
Al2 Ni0 2.606993 1_555
Al2 Ge0 2.757168 1_455
Al2 Ge1 2.757173 1_555
Al2 Y1 3.198397 1_556
Al2 Y1 3.198397 1_555
Al2 Y2 3.198397 1_456
Al2 Y2 3.198397 1_455
Al2 Y0 3.303814 1_456
Al2 Y0 3.303814 1_455
Ni0 Y2 2.797138 1_455
Ni0 Y1 2.797138 1_555
Ni0 Y0 2.797151 1_445
Ge0 Y2 2.963973 1_555
Ge0 Y2 2.963973 1_556
Ge0 Y1 2.963978 1_556
Ge0 Y1 2.963978 1_555
Ge0 Y0 2.963994 1_556
Ge0 Y0 2.963994 1_555
Ge1 Y2 2.963975 1_565
Ge1 Y2 2.963975 1_566
Ge1 Y1 2.963978 1_556
Ge1 Y1 2.963978 1_555
Ge1 Y0 2.963992 1_455
Ge1 Y0 2.963992 1_456
