# generated using pymatgen
data_Mg(SbO3)2
_symmetry_space_group_name_H-M   'P 1'
_cell_length_a   5.21551900
_cell_length_b   5.42886800
_cell_length_c   7.57468200
_cell_angle_alpha   90.00000000
_cell_angle_beta   90.00000000
_cell_angle_gamma   90.00000000
_symmetry_Int_Tables_number   1
_chemical_formula_structural   Mg(SbO3)2
_chemical_formula_sum   'Mg2 Sb4 O12'
_cell_volume   214.47230487
_cell_formula_units_Z   2
loop_
 _symmetry_equiv_pos_site_id
 _symmetry_equiv_pos_as_xyz
  1  'x, y, z'
loop_
 _atom_site_type_symbol
 _atom_site_label
 _atom_site_symmetry_multiplicity
 _atom_site_fract_x
 _atom_site_fract_y
 _atom_site_fract_z
 _atom_site_occupancy
  Mg  Mg0  1  0.52013800  0.32083000  0.50000000  1
  Mg  Mg1  1  0.02013800  0.67917000  0.00000000  1
  Sb  Sb0  1  0.50258700  0.75776700  0.74920300  1
  Sb  Sb1  1  0.00258700  0.24223300  0.75079700  1
  Sb  Sb2  1  0.00258700  0.24223300  0.24920300  1
  Sb  Sb3  1  0.50258700  0.75776700  0.25079700  1
  O  O0  1  0.67265200  0.07277700  0.31587400  1
  O  O1  1  0.17265200  0.92722300  0.18412600  1
  O  O2  1  0.80100300  0.54282300  0.68787500  1
  O  O3  1  0.30100300  0.45717700  0.81212500  1
  O  O4  1  0.30100300  0.45717700  0.18787500  1
  O  O5  1  0.80100300  0.54282300  0.31212500  1
  O  O6  1  0.17265200  0.92722300  0.81587400  1
  O  O7  1  0.67265200  0.07277700  0.68412600  1
  O  O8  1  0.14083300  0.21159900  0.50000000  1
  O  O9  1  0.64083300  0.78840100  0.00000000  1
  O  O10  1  0.39681100  0.69095200  0.50000000  1
  O  O11  1  0.89681100  0.30904800  0.00000000  1
loop_
_geom_bond_atom_site_label_1
_geom_bond_atom_site_label_2
_geom_bond_distance
_geom_bond_site_symmetry_2
Mg0 O8 2.065239 1_555
Mg0 O7 2.095557 1_555
Mg0 O0 2.095557 1_555
Mg0 O10 2.109783 1_555
Mg0 O5 2.371379 1_555
Mg0 O2 2.371379 1_555
Mg1 O9 2.065239 1_455
Mg1 O1 2.095557 1_555
Mg1 O6 2.095557 1_554
Mg1 O11 2.109783 1_455
Mg1 O3 2.371379 1_554
Mg1 O4 2.371379 1_555
O0 Sb3 1.988548 1_545
O0 Sb2 2.015551 1_655
O1 Sb2 1.988548 1_565
O1 Sb3 2.015551 1_555
O2 Sb1 1.998877 1_655
O2 Sb0 1.999956 1_555
O3 Sb0 1.998877 1_555
O3 Sb1 1.999956 1_555
O4 Sb3 1.998877 1_555
O4 Sb2 1.999956 1_555
O5 Sb2 1.998877 1_655
O5 Sb3 1.999956 1_555
O6 Sb1 1.988548 1_565
O6 Sb0 2.015551 1_555
O7 Sb0 1.988548 1_545
O7 Sb1 2.015551 1_655
O8 Sb1 2.038731 1_555
O8 Sb2 2.038731 1_555
O9 Sb3 2.038731 1_555
O9 Sb0 2.038731 1_554
O10 Sb0 1.999770 1_555
O10 Sb3 1.999770 1_555
O11 Sb2 1.999770 1_655
O11 Sb1 1.999770 1_654
