# generated using pymatgen
data_Li4Mn3NbO8
_symmetry_space_group_name_H-M   'P 1'
_cell_length_a   6.14700381
_cell_length_b   6.26457464
_cell_length_c   8.53249182
_cell_angle_alpha   89.98833226
_cell_angle_beta   91.41100585
_cell_angle_gamma   90.00097389
_symmetry_Int_Tables_number   1
_chemical_formula_structural   Li4Mn3NbO8
_chemical_formula_sum   'Li8 Mn6 Nb2 O16'
_cell_volume   328.47266530
_cell_formula_units_Z   2
loop_
 _symmetry_equiv_pos_site_id
 _symmetry_equiv_pos_as_xyz
  1  'x, y, z'
loop_
 _atom_site_type_symbol
 _atom_site_label
 _atom_site_symmetry_multiplicity
 _atom_site_fract_x
 _atom_site_fract_y
 _atom_site_fract_z
 _atom_site_occupancy
  Li  Li0  1  0.48971700  0.50992800  0.00400400  1
  Li  Li1  1  0.00171400  0.99290800  0.49970500  1
  Li  Li2  1  0.74389800  0.24583900  0.75084300  1
  Li  Li3  1  0.24779900  0.75113800  0.25083800  1
  Li  Li4  1  0.74882400  0.75147500  0.75067100  1
  Li  Li5  1  0.24655200  0.25482900  0.25055200  1
  Li  Li6  1  0.99710500  0.51184000  0.49992100  1
  Li  Li7  1  0.50120400  0.99219600  0.00139000  1
  Mn  Mn0  1  0.74898400  0.25149900  0.25022900  1
  Mn  Mn1  1  0.24742200  0.25216600  0.74989100  1
  Mn  Mn2  1  0.74867300  0.75138000  0.24998900  1
  Mn  Mn3  1  0.24944200  0.75240700  0.75019800  1
  Mn  Mn4  1  0.99372300  0.50646400  0.00008500  1
  Mn  Mn5  1  0.50041600  0.99699600  0.49859200  1
  Nb  Nb0  1  0.00195600  0.01191600  0.00085500  1
  Nb  Nb1  1  0.49724400  0.49137100  0.50023100  1
  O  O0  1  0.03206800  0.52655800  0.75258400  1
  O  O1  1  0.53182600  0.97958300  0.25161900  1
  O  O2  1  0.96654600  0.52342000  0.24818500  1
  O  O3  1  0.46692700  0.97942300  0.74744400  1
  O  O4  1  0.26246100  0.27097000  0.49348500  1
  O  O5  1  0.76206100  0.77220400  0.01440900  1
  O  O6  1  0.76658200  0.23235400  0.99304300  1
  O  O7  1  0.26091100  0.73420700  0.51272000  1
  O  O8  1  0.48425500  0.49946800  0.26253300  1
  O  O9  1  0.98580300  0.00302800  0.76333500  1
  O  O10  1  0.23496100  0.23387700  0.00688100  1
  O  O11  1  0.73563900  0.73163700  0.48585500  1
  O  O12  1  0.73100600  0.26994300  0.50748300  1
  O  O13  1  0.23704000  0.76952500  0.98771900  1
  O  O14  1  0.51176700  0.50056600  0.73697500  1
  O  O15  1  0.01361100  0.00409300  0.23788800  1
loop_
_geom_bond_atom_site_label_1
_geom_bond_atom_site_label_2
_geom_bond_distance
_geom_bond_site_symmetry_2
Li0 O8 2.207938 1_555
Li0 O13 2.250747 1_554
Li0 O14 2.286544 1_554
Li0 O10 2.333522 1_555
Li0 O5 2.345793 1_555
Li0 O6 2.436575 1_554
Li1 O15 2.238030 1_565
Li1 O9 2.254855 1_465
Li1 O7 2.273478 1_555
Li1 O11 2.314835 1_455
Li1 O4 2.368594 1_565
Li1 O12 2.406452 1_465
Li2 O6 2.069548 1_555
Li2 O12 2.081482 1_555
Li2 O9 2.128022 1_555
Li2 O14 2.142008 1_555
Li2 O3 2.383796 1_545
Li2 O0 2.495846 1_655
Li3 O15 2.141923 1_565
Li3 O8 2.145032 1_555
Li3 O7 2.236470 1_555
Li3 O2 2.241104 1_455
Li3 O13 2.247337 1_554
Li3 O1 2.257363 1_555
Li4 O14 2.144609 1_555
Li4 O9 2.146927 1_565
Li4 O0 2.239572 1_655
Li4 O3 2.245067 1_555
Li4 O5 2.253581 1_556
Li4 O11 2.262439 1_555
Li5 O4 2.075208 1_555
Li5 O10 2.082754 1_555
Li5 O8 2.118210 1_555
Li5 O15 2.126411 1_555
Li5 O2 2.406756 1_455
Li5 O1 2.459196 1_545
Li6 O11 2.117559 1_555
Li6 O7 2.138545 1_655
Li6 O2 2.152729 1_555
Li6 O0 2.163243 1_655
Li6 O4 2.223758 1_655
Li6 O12 2.231854 1_555
Li7 O5 2.115200 1_555
Li7 O1 2.140179 1_555
Li7 O13 2.141706 1_554
Li7 O3 2.173332 1_554
Li7 O6 2.221536 1_564
Li7 O10 2.230878 1_565
Mn0 O1 2.164351 1_545
Mn0 O2 2.166031 1_555
Mn0 O6 2.203053 1_554
Mn0 O12 2.203569 1_555
Mn0 O15 2.251195 1_655
Mn0 O8 2.254058 1_555
Mn1 O0 2.170093 1_555
Mn1 O3 2.177590 1_545
Mn1 O4 2.195147 1_555
Mn1 O10 2.198950 1_556
Mn1 O9 2.245936 1_455
Mn1 O14 2.254488 1_555
Mn2 O1 1.954917 1_555
Mn2 O2 1.958150 1_555
Mn2 O5 2.017987 1_555
Mn2 O11 2.019854 1_555
Mn2 O8 2.269844 1_555
Mn2 O15 2.275385 1_665
Mn3 O0 1.946510 1_555
Mn3 O3 1.952385 1_555
Mn3 O7 2.032463 1_555
Mn3 O13 2.032807 1_555
Mn3 O14 2.260776 1_555
Mn3 O9 2.261192 1_465
Mn4 O2 2.130261 1_555
Mn4 O0 2.134364 1_654
Mn4 O5 2.196113 1_555
Mn4 O6 2.213059 1_554
Mn4 O13 2.229702 1_654
Mn4 O10 2.261455 1_655
Mn5 O1 2.123677 1_555
Mn5 O3 2.141132 1_555
Mn5 O11 2.207674 1_555
Mn5 O7 2.213768 1_555
Mn5 O12 2.221105 1_565
Mn5 O4 2.254801 1_565
Nb0 O10 1.995965 1_555
Nb0 O6 2.000027 1_454
Nb0 O15 2.022571 1_555
Nb0 O9 2.027401 1_454
Nb0 O13 2.101109 1_544
Nb0 O5 2.109801 1_445
Nb1 O4 1.997106 1_555
Nb1 O12 1.997113 1_555
Nb1 O14 2.020624 1_555
Nb1 O8 2.028386 1_555
Nb1 O11 2.106350 1_555
Nb1 O7 2.108037 1_555
