# generated using pymatgen
data_Nd8(Ga16Cu)3
_symmetry_space_group_name_H-M   'P 1'
_cell_length_a   6.07599486
_cell_length_b   6.07599486
_cell_length_c   30.27835376
_cell_angle_alpha   90.00000000
_cell_angle_beta   90.00000000
_cell_angle_gamma   90.00000000
_symmetry_Int_Tables_number   1
_chemical_formula_structural   Nd8(Ga16Cu)3
_chemical_formula_sum   'Nd8 Ga48 Cu3'
_cell_volume   1117.80759054
_cell_formula_units_Z   1
loop_
 _symmetry_equiv_pos_site_id
 _symmetry_equiv_pos_as_xyz
  1  'x, y, z'
loop_
 _atom_site_type_symbol
 _atom_site_label
 _atom_site_symmetry_multiplicity
 _atom_site_fract_x
 _atom_site_fract_y
 _atom_site_fract_z
 _atom_site_occupancy
  Nd  Nd0  1  0.75000000  0.25000000  0.12415504  1
  Nd  Nd1  1  0.75000000  0.25000000  0.62317275  1
  Nd  Nd2  1  0.25000000  0.75000000  0.12190216  1
  Nd  Nd3  1  0.25000000  0.75000000  0.62300065  1
  Nd  Nd4  1  0.25000000  0.75000000  0.37699935  1
  Nd  Nd5  1  0.25000000  0.75000000  0.87809784  1
  Nd  Nd6  1  0.75000000  0.25000000  0.37682725  1
  Nd  Nd7  1  0.75000000  0.25000000  0.87584496  1
  Ga  Ga0  1  0.25000000  0.25000000  0.16954518  1
  Ga  Ga1  1  0.25000000  0.25000000  0.67077993  1
  Ga  Ga2  1  0.75000000  0.75000000  0.16954518  1
  Ga  Ga3  1  0.75000000  0.75000000  0.67077993  1
  Ga  Ga4  1  0.75000000  0.75000000  0.32922007  1
  Ga  Ga5  1  0.75000000  0.75000000  0.83045482  1
  Ga  Ga6  1  0.25000000  0.25000000  0.32922007  1
  Ga  Ga7  1  0.25000000  0.25000000  0.83045482  1
  Ga  Ga8  1  0.57168880  0.07168880  0.21392805  1
  Ga  Ga9  1  0.57724121  0.07724121  0.71449820  1
  Ga  Ga10  1  0.07475195  0.92524805  0.21363995  1
  Ga  Ga11  1  0.07794034  0.92205966  0.71421712  1
  Ga  Ga12  1  0.42524805  0.57475195  0.21363995  1
  Ga  Ga13  1  0.42205966  0.57794034  0.71421712  1
  Ga  Ga14  1  0.92831120  0.42831120  0.21392805  1
  Ga  Ga15  1  0.92275879  0.42275879  0.71449820  1
  Ga  Ga16  1  0.42205966  0.92205966  0.28578288  1
  Ga  Ga17  1  0.42524805  0.92524805  0.78636005  1
  Ga  Ga18  1  0.92275879  0.07724121  0.28550180  1
  Ga  Ga19  1  0.92831120  0.07168880  0.78607195  1
  Ga  Ga20  1  0.57724121  0.42275879  0.28550180  1
  Ga  Ga21  1  0.57168880  0.42831120  0.78607195  1
  Ga  Ga22  1  0.07794034  0.57794034  0.28578288  1
  Ga  Ga23  1  0.07475195  0.57475195  0.78636005  1
  Ga  Ga24  1  0.50084405  0.00084405  0.45729661  1
  Ga  Ga25  1  0.51256068  0.01256068  0.95894373  1
  Ga  Ga26  1  0.00058868  0.99941132  0.45729591  1
  Ga  Ga27  1  0.99100316  0.00899684  0.95856091  1
  Ga  Ga28  1  0.49941132  0.50058868  0.45729591  1
  Ga  Ga29  1  0.50899684  0.49100316  0.95856091  1
  Ga  Ga30  1  0.99915595  0.49915595  0.45729661  1
  Ga  Ga31  1  0.98743932  0.48743932  0.95894373  1
  Ga  Ga32  1  0.50899684  0.00899684  0.04143909  1
  Ga  Ga33  1  0.49941132  0.99941132  0.54270409  1
  Ga  Ga34  1  0.98743932  0.01256068  0.04105627  1
  Ga  Ga35  1  0.99915595  0.00084405  0.54270339  1
  Ga  Ga36  1  0.51256068  0.48743932  0.04105627  1
  Ga  Ga37  1  0.50084405  0.49915595  0.54270339  1
  Ga  Ga38  1  0.99100316  0.49100316  0.04143909  1
  Ga  Ga39  1  0.00058868  0.50058868  0.54270409  1
  Ga  Ga40  1  0.25000000  0.25000000  0.08859848  1
  Ga  Ga41  1  0.25000000  0.25000000  0.58990732  1
  Ga  Ga42  1  0.75000000  0.75000000  0.08859848  1
  Ga  Ga43  1  0.75000000  0.75000000  0.58990732  1
  Ga  Ga44  1  0.75000000  0.75000000  0.41009268  1
  Ga  Ga45  1  0.75000000  0.75000000  0.91140152  1
  Ga  Ga46  1  0.25000000  0.25000000  0.41009268  1
  Ga  Ga47  1  0.25000000  0.25000000  0.91140152  1
  Cu  Cu0  1  0.75000000  0.25000000  0.50000000  1
  Cu  Cu1  1  0.25000000  0.75000000  -0.00000000  1
  Cu  Cu2  1  0.25000000  0.75000000  0.50000000  1
loop_
_geom_bond_atom_site_label_1
_geom_bond_atom_site_label_2
_geom_bond_distance
_geom_bond_site_symmetry_2
Ga0 Ga40 2.450933 1_555
Ga0 Ga14 2.607697 1_455
Ga0 Ga8 2.607697 1_555
Ga0 Ga10 2.609566 1_545
Ga0 Ga12 2.609566 1_555
Ga0 Nd0 3.334402 1_455
Ga0 Nd0 3.334402 1_555
Ga0 Nd2 3.363092 1_555
Ga0 Nd2 3.363092 1_545
Ga1 Ga41 2.448689 1_555
Ga1 Ga11 2.606340 1_545
Ga1 Ga13 2.606340 1_555
Ga1 Ga15 2.609111 1_455
Ga1 Ga9 2.609111 1_555
Ga1 Nd1 3.362626 1_555
Ga1 Nd1 3.362626 1_455
Ga1 Nd3 3.364863 1_545
Ga1 Nd3 3.364863 1_555
Ga2 Ga42 2.450933 1_555
Ga2 Ga8 2.607697 1_565
Ga2 Nd0 3.334402 1_555
Ga2 Nd0 3.334402 1_565
Ga2 Nd2 3.363092 1_555
Ga2 Nd2 3.363092 1_655
Ga3 Ga43 2.448689 1_555
Ga3 Ga9 2.609111 1_565
Ga3 Nd1 3.362626 1_555
Ga3 Nd1 3.362626 1_565
Ga3 Nd3 3.364863 1_555
Ga3 Nd3 3.364863 1_655
Ga4 Ga44 2.448689 1_555
Ga4 Nd6 3.362626 1_565
Ga4 Nd6 3.362626 1_555
Ga4 Nd4 3.364863 1_655
Ga4 Nd4 3.364863 1_555
Ga5 Nd7 3.334402 1_555
Ga5 Nd7 3.334402 1_565
Ga5 Nd5 3.363092 1_655
Ga5 Nd5 3.363092 1_555
Ga6 Nd6 3.362626 1_455
Ga6 Nd6 3.362626 1_555
Ga6 Nd4 3.364863 1_555
Ga6 Nd4 3.364863 1_545
Ga7 Nd7 3.334402 1_455
Ga7 Nd7 3.334402 1_555
Ga7 Nd5 3.363092 1_555
Ga7 Nd5 3.363092 1_545
Ga8 Nd0 3.120270 1_555
Ga9 Nd1 3.138456 1_555
Ga10 Ga18 2.537735 1_465
Ga10 Ga2 2.609566 1_455
Ga10 Ga22 3.037261 1_555
Ga10 Ga16 3.037261 1_555
Ga10 Nd2 3.159600 1_555
Ga11 Ga19 2.527158 1_465
Ga11 Ga3 2.606340 1_455
Ga11 Ga13 2.956933 1_555
Ga11 Ga17 3.037261 1_555
Ga11 Ga23 3.037261 1_555
Ga11 Nd3 3.132710 1_555
Ga12 Ga20 2.537735 1_555
Ga12 Ga2 2.609566 1_555
Ga12 Ga22 3.037261 1_555
Ga12 Ga16 3.037261 1_555
Ga12 Nd2 3.159600 1_555
Ga13 Ga21 2.527158 1_555
Ga13 Ga3 2.606340 1_555
Ga13 Ga17 3.037261 1_555
Ga13 Ga23 3.037261 1_555
Ga13 Nd3 3.132710 1_555
Ga14 Ga22 2.527158 1_655
Ga14 Ga2 2.607697 1_555
Ga14 Nd0 3.120270 1_555
Ga15 Ga23 2.537735 1_655
Ga15 Ga3 2.609111 1_555
Ga15 Nd1 3.138456 1_555
Ga16 Ga8 2.527158 1_565
Ga16 Ga6 2.606340 1_565
Ga16 Ga4 2.606340 1_555
Ga16 Ga22 2.956933 1_555
Ga16 Nd4 3.132710 1_555
Ga17 Ga9 2.537735 1_565
Ga17 Ga5 2.609566 1_555
Ga17 Ga7 2.609566 1_565
Ga17 Nd5 3.159600 1_555
Ga18 Ga6 2.609111 1_655
Ga18 Ga4 2.609111 1_545
Ga18 Nd6 3.138456 1_555
Ga19 Ga7 2.607697 1_655
Ga19 Ga5 2.607697 1_545
Ga19 Nd7 3.120270 1_555
Ga20 Ga4 2.609111 1_555
Ga20 Ga6 2.609111 1_555
Ga20 Nd6 3.138456 1_555
Ga21 Ga7 2.607697 1_555
Ga21 Ga5 2.607697 1_555
Ga21 Nd7 3.120270 1_555
Ga22 Ga4 2.606340 1_455
Ga22 Ga6 2.606340 1_555
Ga22 Nd4 3.132710 1_555
Ga23 Ga5 2.609566 1_455
Ga23 Ga7 2.609566 1_555
Ga23 Nd5 3.159600 1_555
Ga24 Ga46 2.580222 1_555
Ga24 Ga44 2.580222 1_545
Ga24 Ga33 2.586027 1_545
Ga24 Nd6 3.243461 1_555
Ga24 Nd4 3.249153 1_545
Ga25 Ga32 2.498011 1_556
Ga25 Ga45 2.588151 1_545
Ga25 Ga47 2.588151 1_555
Ga25 Ga27 2.907118 1_555
Ga25 Ga29 2.907118 1_555
Ga25 Nd7 3.239349 1_555
Ga25 Nd5 3.328993 1_545
Ga26 Ga46 2.580205 1_565
Ga26 Ga44 2.580205 1_455
Ga26 Ga35 2.586027 1_465
Ga26 Nd4 3.240983 1_555
Ga26 Nd6 3.251585 1_465
Ga27 Ga34 2.498011 1_556
Ga27 Ga45 2.580623 1_545
Ga27 Ga47 2.580623 1_655
Ga27 Ga31 2.907118 1_555
Ga27 Nd7 3.249782 1_555
Ga27 Nd5 3.299748 1_645
Ga28 Ga46 2.580205 1_555
Ga28 Ga44 2.580205 1_555
Ga28 Ga37 2.586027 1_555
Ga28 Nd4 3.240983 1_555
Ga28 Nd6 3.251585 1_555
Ga29 Ga36 2.498011 1_556
Ga29 Ga47 2.580623 1_555
Ga29 Ga45 2.580623 1_555
Ga29 Ga31 2.907118 1_555
Ga29 Nd7 3.249782 1_555
Ga29 Nd5 3.299748 1_555
Ga30 Ga46 2.580222 1_655
Ga30 Ga44 2.580222 1_555
Ga30 Ga39 2.586027 1_655
Ga30 Nd6 3.243461 1_555
Ga30 Nd4 3.249153 1_655
Ga31 Ga38 2.498011 1_556
Ga31 Ga47 2.588151 1_655
Ga31 Ga45 2.588151 1_555
Ga31 Nd7 3.239349 1_555
Ga31 Nd5 3.328993 1_655
Ga32 Ga40 2.580623 1_555
Ga32 Ga42 2.580623 1_545
Ga32 Ga34 2.907118 1_555
Ga32 Ga36 2.907118 1_555
Ga32 Nd0 3.249782 1_555
Ga32 Nd2 3.299748 1_545
Ga33 Ga43 2.580205 1_555
Ga33 Ga41 2.580205 1_565
Ga33 Nd3 3.240983 1_555
Ga33 Nd1 3.251585 1_565
Ga34 Ga42 2.588151 1_545
Ga34 Ga40 2.588151 1_655
Ga34 Ga38 2.907118 1_555
Ga34 Nd0 3.239349 1_555
Ga34 Nd2 3.328993 1_645
Ga35 Ga41 2.580222 1_655
Ga35 Ga43 2.580222 1_545
Ga35 Nd1 3.243461 1_555
Ga35 Nd3 3.249153 1_645
Ga36 Ga42 2.588151 1_555
Ga36 Ga40 2.588151 1_555
Ga36 Ga38 2.907118 1_555
Ga36 Nd0 3.239349 1_555
Ga36 Nd2 3.328993 1_555
Ga37 Ga41 2.580222 1_555
Ga37 Ga43 2.580222 1_555
Ga37 Nd1 3.243461 1_555
Ga37 Nd3 3.249153 1_555
Ga38 Ga40 2.580623 1_655
Ga38 Ga42 2.580623 1_555
Ga38 Nd0 3.249782 1_555
Ga38 Nd2 3.299748 1_655
Ga39 Ga41 2.580205 1_555
Ga39 Ga43 2.580205 1_455
Ga39 Nd3 3.240983 1_555
Ga39 Nd1 3.251585 1_455
Ga40 Nd2 3.200978 1_555
Ga40 Nd2 3.200978 1_545
Ga40 Nd0 3.223117 1_455
Ga40 Nd0 3.223117 1_555
Ga41 Nd3 3.198977 1_545
Ga41 Nd3 3.198977 1_555
Ga41 Nd1 3.200613 1_555
Ga41 Nd1 3.200613 1_455
Ga42 Nd2 3.200978 1_555
Ga42 Nd2 3.200978 1_655
Ga42 Nd0 3.223117 1_565
Ga42 Nd0 3.223117 1_555
Ga43 Nd3 3.198977 1_555
Ga43 Nd3 3.198977 1_655
Ga43 Nd1 3.200613 1_555
Ga43 Nd1 3.200613 1_565
Ga44 Nd4 3.198977 1_655
Ga44 Nd4 3.198977 1_555
Ga44 Nd6 3.200613 1_555
Ga44 Nd6 3.200613 1_565
Ga45 Ga5 2.450933 1_555
Ga45 Nd5 3.200978 1_655
Ga45 Nd5 3.200978 1_555
Ga45 Nd7 3.223117 1_565
Ga45 Nd7 3.223117 1_555
Ga46 Ga6 2.448689 1_555
Ga46 Nd4 3.198977 1_545
Ga46 Nd4 3.198977 1_555
Ga46 Nd6 3.200613 1_555
Ga46 Nd6 3.200613 1_455
Ga47 Ga7 2.450933 1_555
Ga47 Nd5 3.200978 1_545
Ga47 Nd5 3.200978 1_555
Ga47 Nd7 3.223117 1_455
Ga47 Nd7 3.223117 1_555
Cu0 Ga24 2.501085 1_555
Cu0 Ga35 2.501085 1_555
Cu0 Ga30 2.501085 1_555
Cu0 Ga37 2.501085 1_555
Cu0 Ga26 2.511642 1_645
Cu0 Ga39 2.511642 1_655
Cu0 Ga28 2.511642 1_555
Cu0 Ga33 2.511642 1_545
Cu1 Ga32 2.554824 1_565
Cu1 Ga38 2.554824 1_455
Cu1 Ga29 2.554824 1_554
Cu1 Ga27 2.554824 1_464
Cu1 Ga36 2.575930 1_555
Cu1 Ga34 2.575930 1_465
Cu1 Ga25 2.575930 1_564
Cu1 Ga31 2.575930 1_454
Cu2 Ga28 2.502974 1_555
Cu2 Ga26 2.502974 1_555
Cu2 Ga33 2.502974 1_555
Cu2 Ga39 2.502974 1_555
Cu2 Ga35 2.513513 1_465
Cu2 Ga24 2.513513 1_565
Cu2 Ga37 2.513513 1_555
Cu2 Ga30 2.513513 1_455
