# generated using pymatgen
data_Li4TiFe2Ni3(PO4)6
_symmetry_space_group_name_H-M   'P 1'
_cell_length_a   8.50462821
_cell_length_b   8.60270922
_cell_length_c   8.60285994
_cell_angle_alpha   61.39626803
_cell_angle_beta   61.52794399
_cell_angle_gamma   61.76305949
_symmetry_Int_Tables_number   1
_chemical_formula_structural   Li4TiFe2Ni3(PO4)6
_chemical_formula_sum   'Li4 Ti1 Fe2 Ni3 P6 O24'
_cell_volume   460.65308486
_cell_formula_units_Z   1
loop_
 _symmetry_equiv_pos_site_id
 _symmetry_equiv_pos_as_xyz
  1  'x, y, z'
loop_
 _atom_site_type_symbol
 _atom_site_label
 _atom_site_symmetry_multiplicity
 _atom_site_fract_x
 _atom_site_fract_y
 _atom_site_fract_z
 _atom_site_occupancy
  Li  Li0  1  0.74312400  0.15150300  0.36162900  1
  Li  Li1  1  0.29660700  0.84885900  0.64043800  1
  Li  Li2  1  0.63782500  0.29737200  0.85148600  1
  Li  Li3  1  0.85199400  0.63691700  0.30114700  1
  Ti  Ti0  1  0.85131000  0.84483400  0.85141100  1
  Fe  Fe0  1  0.01191500  0.00014600  0.99887800  1
  Fe  Fe1  1  0.49000800  0.50395000  0.50076200  1
  Ni  Ni0  1  0.14414600  0.14842300  0.14521600  1
  Ni  Ni1  1  0.35873300  0.35466000  0.35241800  1
  Ni  Ni2  1  0.64430100  0.64810400  0.64976400  1
  P  P0  1  0.24354200  0.54765000  0.96093500  1
  P  P1  1  0.55511500  0.96249700  0.24660100  1
  P  P2  1  0.94538900  0.24322000  0.53984800  1
  P  P3  1  0.05180000  0.74303400  0.44799400  1
  P  P4  1  0.44629800  0.04487200  0.75082500  1
  P  P5  1  0.74928000  0.44418600  0.04490200  1
  O  O0  1  0.12217000  0.27730300  0.49814500  1
  O  O1  1  0.29561800  0.52967800  0.11551400  1
  O  O2  1  0.06653600  0.90547800  0.26132000  1
  O  O3  1  0.56194800  0.10915300  0.29426800  1
  O  O4  1  0.99084300  0.81148800  0.61603200  1
  O  O5  1  0.24233500  0.58631500  0.45126400  1
  O  O6  1  0.25368600  0.08032800  0.90184200  1
  O  O7  1  0.47400600  0.22446400  0.58281500  1
  O  O8  1  0.15693100  0.40730100  0.00874000  1
  O  O9  1  0.59911200  0.44065800  0.24081400  1
  O  O10  1  0.10155100  0.75981300  0.90489900  1
  O  O11  1  0.40039400  0.03343100  0.16871300  1
  O  O12  1  0.61350900  0.97542600  0.82585300  1
  O  O13  1  0.90114800  0.24820500  0.07312800  1
  O  O14  1  0.41161800  0.54840900  0.76814900  1
  O  O15  1  0.81957800  0.61003300  0.98370300  1
  O  O16  1  0.54275600  0.77466700  0.41664600  1
  O  O17  1  0.76166100  0.89760800  0.10189900  1
  O  O18  1  0.75826900  0.41898400  0.54938900  1
  O  O19  1  0.95456800  0.17532500  0.40062400  1
  O  O20  1  0.46973900  0.89185000  0.69132000  1
  O  O21  1  0.89918300  0.10097900  0.74997200  1
  O  O22  1  0.68378500  0.47336000  0.89376600  1
  O  O23  1  0.89766700  0.67651600  0.47993000  1
loop_
_geom_bond_atom_site_label_1
_geom_bond_atom_site_label_2
_geom_bond_distance
_geom_bond_site_symmetry_2
Li0 O19 2.092359 1_555
Li0 O3 2.104141 1_555
Li0 O13 2.135144 1_555
Li0 O9 2.150213 1_555
Li0 O7 2.210187 1_555
Li0 O2 2.601291 1_645
Li1 O20 1.944541 1_555
Li1 O10 2.109515 1_555
Li1 O16 2.136779 1_555
Li1 O14 2.181233 1_555
Li2 O22 1.949353 1_555
Li2 O21 2.136873 1_555
Li2 O18 2.184137 1_555
Li2 O14 2.186361 1_555
Li3 O23 1.956788 1_555
Li3 O17 2.121878 1_555
Li3 O18 2.160646 1_555
Li3 O16 2.234967 1_555
Fe0 O6 2.134161 1_555
Fe0 O13 2.162996 1_456
Fe0 O2 2.204070 1_546
Fe0 O10 2.242967 1_545
Fe0 O17 2.307107 1_446
Fe0 O21 2.376719 1_455
Fe1 O5 2.067418 1_555
Fe1 O9 2.206312 1_555
Fe1 O7 2.211469 1_555
Fe1 O18 2.225666 1_555
Fe1 O14 2.240765 1_555
Fe1 O16 2.283436 1_555
Ni0 O8 1.988431 1_555
Ni0 O11 1.989320 1_555
Ni0 O19 2.058399 1_455
Ni0 O6 2.095931 1_554
Ni0 O13 2.103802 1_455
Ni0 O2 2.116429 1_545
Ni1 O1 2.012185 1_555
Ni1 O0 2.031112 1_555
Ni1 O3 2.105046 1_555
Ni1 O9 2.127911 1_555
Ni1 O5 2.151242 1_555
Ni1 O7 2.198238 1_555
Ni2 O22 1.987929 1_555
Ni2 O23 1.998050 1_555
Ni2 O20 1.998698 1_555
Ni2 O14 2.129969 1_555
Ni2 O18 2.143383 1_555
Ni2 O16 2.150371 1_555
O0 P2 1.509033 1_455
O1 P0 1.512737 1_554
O2 P3 1.540323 1_555
O3 P1 1.533212 1_545
O4 P3 1.586513 1_655
O4 Ti0 1.879845 1_555
O5 P3 1.544077 1_555
O6 P4 1.530282 1_555
O7 P4 1.553438 1_555
O8 P0 1.498912 1_554
O9 P5 1.551759 1_555
O10 P0 1.627556 1_555
O10 Ti0 2.101076 1_455
O11 P1 1.497385 1_545
O12 P4 1.580457 1_565
O12 Ti0 1.854227 1_555
O13 P5 1.554405 1_555
O14 P0 1.591237 1_555
O15 P5 1.567792 1_556
O15 Ti0 1.862791 1_555
O16 P1 1.585180 1_555
O17 P1 1.612290 1_555
O17 Ti0 2.115129 1_554
O18 P2 1.594660 1_555
O19 P2 1.522935 1_555
O20 P4 1.527852 1_565
O21 P2 1.605983 1_555
O21 Ti0 2.109937 1_545
O22 P5 1.519725 1_556
O23 P3 1.528762 1_655
