# generated using pymatgen
data_Ba4CaMn2MoO12
_symmetry_space_group_name_H-M   'P 1'
_cell_length_a   5.92983700
_cell_length_b   20.04847399
_cell_length_c   5.92977138
_cell_angle_alpha   98.50521922
_cell_angle_beta   120.00036048
_cell_angle_gamma   90.00015333
_symmetry_Int_Tables_number   1
_chemical_formula_structural   Ba4CaMn2MoO12
_chemical_formula_sum   'Ba8 Ca2 Mn4 Mo2 O24'
_cell_volume   601.53856439
_cell_formula_units_Z   2
loop_
 _symmetry_equiv_pos_site_id
 _symmetry_equiv_pos_as_xyz
  1  'x, y, z'
loop_
 _atom_site_type_symbol
 _atom_site_label
 _atom_site_symmetry_multiplicity
 _atom_site_fract_x
 _atom_site_fract_y
 _atom_site_fract_z
 _atom_site_occupancy
  Ba  Ba0  1  0.31406800  0.94221900  0.62813700  1
  Ba  Ba1  1  0.81407400  0.44223600  0.62814600  1
  Ba  Ba2  1  0.18354700  0.55057800  0.36709500  1
  Ba  Ba3  1  0.68354400  0.05056700  0.36708700  1
  Ba  Ba4  1  0.89891300  0.69677800  0.79782800  1
  Ba  Ba5  1  0.39891000  0.19676300  0.79781600  1
  Ba  Ba6  1  0.61186200  0.83562000  0.22372500  1
  Ba  Ba7  1  0.11187400  0.33564300  0.22374500  1
  Ca  Ca0  1  0.25195600  0.75588700  0.50391300  1
  Ca  Ca1  1  0.75195900  0.25588700  0.50391500  1
  Mn  Mn0  1  0.99871700  0.99611500  0.99743500  1
  Mn  Mn1  1  0.45560800  0.36681700  0.91121200  1
  Mn  Mn2  1  0.49870900  0.49610500  0.99742000  1
  Mn  Mn3  1  0.95556900  0.86675400  0.91113700  1
  Mo  Mo0  1  0.54427100  0.63280300  0.08854600  1
  Mo  Mo1  1  0.04427100  0.13280700  0.08854300  1
  O  O0  1  0.83179200  0.93696200  0.10520600  1
  O  O1  1  0.33179400  0.43695200  0.10519500  1
  O  O2  1  0.83177000  0.93696600  0.66354100  1
  O  O3  1  0.33177100  0.43695700  0.66354300  1
  O  O4  1  0.27341400  0.93696200  0.10520700  1
  O  O5  1  0.77340400  0.43695300  0.10519800  1
  O  O6  1  0.66545700  0.56029500  0.89482700  1
  O  O7  1  0.16546500  0.06029900  0.89483000  1
  O  O8  1  0.66547500  0.56029100  0.33095400  1
  O  O9  1  0.16548300  0.06029400  0.33096900  1
  O  O10  1  0.22936800  0.56029500  0.89482800  1
  O  O11  1  0.72936500  0.06029800  0.89482800  1
  O  O12  1  0.40126100  0.67817800  0.27699000  1
  O  O13  1  0.90125400  0.17817200  0.27699200  1
  O  O14  1  0.40126100  0.67819600  0.80252800  1
  O  O15  1  0.90125400  0.17819200  0.80251000  1
  O  O16  1  0.87572500  0.67817800  0.27699000  1
  O  O17  1  0.37573700  0.17817400  0.27699100  1
  O  O18  1  0.09062300  0.81564100  0.72490700  1
  O  O19  1  0.59063400  0.31564000  0.72490500  1
  O  O20  1  0.09063400  0.81562500  0.18126800  1
  O  O21  1  0.59064500  0.31562200  0.18128000  1
  O  O22  1  0.63428400  0.81564100  0.72490800  1
  O  O23  1  0.13428200  0.31563800  0.72490300  1
loop_
_geom_bond_atom_site_label_1
_geom_bond_atom_site_label_2
_geom_bond_distance
_geom_bond_site_symmetry_2
Ba0 O4 2.973268 1_555
Ba0 O0 2.973271 1_455
Ba0 O2 2.973454 1_455
Ba0 O2 2.973454 1_555
Ba0 O0 2.973575 1_556
Ba0 O4 2.973577 1_556
Ba0 O9 3.027619 1_565
Ba0 O11 3.027821 1_565
Ba0 O7 3.027839 1_565
Ba0 O18 3.117021 1_555
Ba0 O22 3.117031 1_555
Ba0 O20 3.117424 1_555
Ba1 O5 2.973270 1_555
Ba1 O1 2.973283 1_555
Ba1 O3 2.973467 1_655
Ba1 O3 2.973484 1_555
Ba1 O1 2.973605 1_656
Ba1 O5 2.973615 1_556
Ba1 O8 3.027350 1_555
Ba1 O10 3.027528 1_655
Ba1 O6 3.027548 1_555
Ba1 O19 3.117276 1_555
Ba1 O23 3.117344 1_655
Ba1 O21 3.117691 1_555
Ba2 O3 2.948049 1_555
Ba2 O5 2.948320 1_455
Ba2 O1 2.948354 1_555
Ba2 O6 2.978902 1_555
Ba2 O10 2.978911 1_555
Ba2 O8 2.979160 1_555
Ba2 O8 2.979179 1_455
Ba2 O10 2.979347 1_554
Ba2 O6 2.979357 1_454
Ba2 O12 3.096867 1_555
Ba2 O16 3.096883 1_455
Ba2 O14 3.097113 1_555
Ba3 O2 2.947724 1_545
Ba3 O4 2.947998 1_545
Ba3 O0 2.948002 1_545
Ba3 O11 2.978933 1_555
Ba3 O7 2.978940 1_655
Ba3 O9 2.979170 1_655
Ba3 O9 2.979195 1_555
Ba3 O7 2.979354 1_554
Ba3 O11 2.979357 1_554
Ba3 O13 3.096910 1_555
Ba3 O17 3.096957 1_555
Ba3 O15 3.097181 1_555
Ba4 O20 2.819935 1_656
Ba4 O18 2.820364 1_655
Ba4 O22 2.820365 1_555
Ba4 O16 2.988503 1_555
Ba4 O12 2.988508 1_555
Ba4 O14 2.988832 1_655
Ba4 O14 2.988854 1_555
Ba4 O12 2.989170 1_656
Ba4 O16 2.989175 1_556
Ba4 O8 3.315875 1_555
Ba4 O6 3.316063 1_555
Ba4 O10 3.316070 1_655
Ba5 O21 2.820177 1_556
Ba5 O23 2.820571 1_555
Ba5 O19 2.820619 1_555
Ba5 O17 2.988474 1_555
Ba5 O13 2.988481 1_455
Ba5 O15 2.988798 1_555
Ba5 O15 2.988831 1_455
Ba5 O17 2.989146 1_556
Ba5 O13 2.989149 1_556
Ba5 O9 3.315541 1_555
Ba5 O7 3.315751 1_555
Ba5 O11 3.315763 1_555
Ba6 O0 2.767968 1_555
Ba6 O4 2.767971 1_555
Ba6 O2 2.768054 1_555
Ba6 O18 2.994540 1_655
Ba6 O22 2.994542 1_555
Ba6 O20 2.994845 1_555
Ba6 O20 2.994853 1_655
Ba6 O22 2.994986 1_554
Ba6 O18 2.994988 1_554
Ba7 O1 2.767532 1_555
Ba7 O5 2.767554 1_455
Ba7 O3 2.767609 1_555
Ba7 O23 2.994579 1_555
Ba7 O19 2.994602 1_555
Ba7 O21 2.994893 1_455
Ba7 O21 2.994936 1_555
Ba7 O19 2.995044 1_454
Ba7 O23 2.995082 1_554
Ca0 O22 2.203853 1_555
Ca0 O18 2.203853 1_555
Ca0 O20 2.203958 1_555
Ca0 O12 2.364940 1_555
Ca0 O16 2.364947 1_455
Ca0 O14 2.365053 1_555
Ca1 O19 2.203792 1_555
Ca1 O23 2.203804 1_655
Ca1 O21 2.203875 1_555
Ca1 O17 2.364958 1_555
Ca1 O13 2.364970 1_555
Ca1 O15 2.365036 1_555
Mn0 O0 1.910848 1_556
Mn0 O4 1.910857 1_656
Mn0 O2 1.910956 1_555
Mn0 O9 1.958701 1_666
Mn0 O11 1.958788 1_565
Mn0 O7 1.958801 1_665
Mn1 O21 1.860944 1_556
Mn1 O23 1.861055 1_555
Mn1 O19 1.861071 1_555
Mn1 O1 2.050710 1_556
Mn1 O5 2.050713 1_556
Mn1 O3 2.050830 1_555
Mn2 O1 1.910824 1_556
Mn2 O5 1.910835 1_556
Mn2 O3 1.910878 1_555
Mn2 O8 1.958772 1_556
Mn2 O6 1.958839 1_555
Mn2 O10 1.958843 1_555
Mn3 O18 1.860265 1_655
Mn3 O22 1.860266 1_555
Mn3 O20 1.860318 1_656
Mn3 O2 2.051696 1_555
Mn3 O4 2.051769 1_656
Mn3 O0 2.051778 1_556
Mo0 O14 1.855296 1_554
Mo0 O16 1.855337 1_555
Mo0 O12 1.855340 1_555
Mo0 O10 2.068964 1_554
Mo0 O6 2.068976 1_554
Mo0 O8 2.069096 1_555
Mo1 O15 1.855264 1_454
Mo1 O13 1.855314 1_455
Mo1 O17 1.855326 1_555
Mo1 O7 2.068983 1_554
Mo1 O11 2.068987 1_454
Mo1 O9 2.069179 1_555
