# generated using pymatgen
data_Zn(WO2)2
_symmetry_space_group_name_H-M   'P 1'
_cell_length_a   6.39777700
_cell_length_b   6.41146753
_cell_length_c   15.55962335
_cell_angle_alpha   88.22676072
_cell_angle_beta   88.73386893
_cell_angle_gamma   60.91495653
_symmetry_Int_Tables_number   1
_chemical_formula_structural   Zn(WO2)2
_chemical_formula_sum   'Zn6 W12 O24'
_cell_volume   557.47417438
_cell_formula_units_Z   6
loop_
 _symmetry_equiv_pos_site_id
 _symmetry_equiv_pos_as_xyz
  1  'x, y, z'
loop_
 _atom_site_type_symbol
 _atom_site_label
 _atom_site_symmetry_multiplicity
 _atom_site_fract_x
 _atom_site_fract_y
 _atom_site_fract_z
 _atom_site_occupancy
  Zn  Zn0  1  0.64916500  0.17496000  0.95972900  1
  Zn  Zn1  1  0.34415700  0.84104400  0.67271400  1
  Zn  Zn2  1  0.17896100  0.66777800  0.83758900  1
  Zn  Zn3  1  0.66423200  0.16419300  0.33276600  1
  Zn  Zn4  1  0.49260900  0.99269300  0.49739800  1
  Zn  Zn5  1  0.83138700  0.33518600  0.16173400  1
  W  W0  1  0.18136000  0.16461300  0.82909600  1
  W  W1  1  0.98761200  0.48892100  0.60924800  1
  W  W2  1  0.99125100  0.50343900  0.98944400  1
  W  W3  1  0.67864000  0.67591000  0.83361600  1
  W  W4  1  0.49216000  0.50025800  0.50498100  1
  W  W5  1  0.32270500  0.82494800  0.25231800  1
  W  W6  1  0.99910700  0.99484700  0.50594700  1
  W  W7  1  0.83083500  0.83137800  0.16460200  1
  W  W8  1  0.71281000  0.20525700  0.70476000  1
  W  W9  1  0.33037800  0.33207400  0.16432700  1
  W  W10  1  0.99740000  0.50030600  0.41780600  1
  W  W11  1  0.32183600  0.82990400  0.05767100  1
  O  O0  1  0.31373400  0.34615200  0.90845200  1
  O  O1  1  0.00499000  0.50508100  0.75537800  1
  O  O2  1  0.83102900  0.82876400  0.90728900  1
  O  O3  1  0.83936600  0.34663400  0.90281900  1
  O  O4  1  0.62996500  0.67611700  0.58850200  1
  O  O5  1  0.51178500  0.97583800  0.75427900  1
  O  O6  1  0.32846400  0.83373900  0.43795700  1
  O  O7  1  0.50871600  0.52456200  0.75902100  1
  O  O8  1  0.17546500  0.13308900  0.58971800  1
  O  O9  1  0.34562700  0.83047500  0.90488700  1
  O  O10  1  0.17557700  0.67253000  0.59080400  1
  O  O11  1  0.03237700  0.98027700  0.75428500  1
  O  O12  1  0.96543000  0.00271200  0.25315000  1
  O  O13  1  0.81431100  0.31654600  0.42318300  1
  O  O14  1  0.81721700  0.86044000  0.42352500  1
  O  O15  1  0.50047200  0.46752300  0.25316900  1
  O  O16  1  0.67721700  0.17714300  0.09183500  1
  O  O17  1  0.65608500  0.15921000  0.58079500  1
  O  O18  1  0.50931800  0.00822000  0.24761700  1
  O  O19  1  0.35788300  0.31730700  0.42308500  1
  O  O20  1  0.13827700  0.64149600  0.07647700  1
  O  O21  1  0.17556400  0.20445700  0.07348900  1
  O  O22  1  0.98829700  0.48627600  0.22890400  1
  O  O23  1  0.69623200  0.67769900  0.07563600  1
loop_
_geom_bond_atom_site_label_1
_geom_bond_atom_site_label_2
_geom_bond_distance
_geom_bond_site_symmetry_2
O0 Zn0 2.044044 1_555
O0 Zn2 2.093825 1_555
O0 W0 2.165659 1_555
O0 W2 2.191512 1_455
O1 W3 2.188117 1_455
O1 W0 2.204880 1_555
O1 W1 2.286894 1_455
O1 Zn2 2.288557 1_555
O2 W3 2.067090 1_555
O2 Zn0 2.122638 1_565
O2 W2 2.202188 1_555
O2 Zn2 2.219323 1_655
O3 W3 2.114578 1_555
O3 Zn0 2.161155 1_555
O3 W2 2.205269 1_555
O3 W0 2.225886 1_655
O4 W1 2.029539 1_555
O4 Zn1 2.068489 1_555
O4 W4 2.201180 1_555
O4 Zn4 2.245954 1_555
O5 W3 2.068058 1_555
O5 Zn1 2.129979 1_555
O5 W0 2.186305 1_565
O5 W8 2.477216 1_565
O6 Zn4 2.034364 1_555
O6 W6 2.116421 1_455
O6 W4 2.118761 1_555
O7 W8 2.016990 1_555
O7 W3 2.149812 1_555
O7 Zn1 2.201371 1_555
O7 Zn2 2.204674 1_555
O8 W1 2.025497 1_455
O8 Zn1 2.070205 1_545
O8 W6 2.205985 1_445
O8 Zn4 2.272918 1_545
O9 Zn2 2.126003 1_555
O9 W3 2.159158 1_555
O9 W0 2.189570 1_565
O9 W11 2.378774 1_556
O10 W1 2.062637 1_455
O10 W4 2.214121 1_555
O10 W6 2.217478 1_455
O10 Zn1 2.287737 1_555
O11 W8 1.997045 1_465
O11 Zn1 2.147950 1_555
O11 Zn2 2.154094 1_555
O11 W0 2.211258 1_565
O12 W5 1.997677 1_645
O12 Zn3 2.086643 1_555
O12 W7 2.216353 1_545
O12 Zn5 2.321976 1_555
O13 W10 2.024467 1_555
O13 W6 2.200557 1_545
O13 W4 2.207225 1_555
O13 Zn3 2.216282 1_555
O14 W10 2.022036 1_555
O14 Zn4 2.143819 1_555
O14 Zn3 2.186934 1_565
O14 W6 2.202446 1_555
O15 W5 2.002521 1_555
O15 Zn3 2.083531 1_555
O15 W9 2.215590 1_555
O15 Zn5 2.328380 1_555
O16 Zn5 2.066349 1_555
O16 Zn0 2.068355 1_554
O16 W7 2.222150 1_545
O16 W9 2.235778 1_555
O17 W8 2.027231 1_555
O17 W4 2.222220 1_555
O17 W6 2.235530 1_545
O17 Zn4 2.269098 1_545
O18 W5 2.041134 1_545
O18 Zn3 2.200285 1_555
O18 W9 2.211216 1_555
O18 W7 2.211555 1_545
O19 W10 2.018409 1_455
O19 Zn4 2.136019 1_545
O19 W4 2.204139 1_555
O19 Zn3 2.207517 1_555
O20 W11 2.065451 1_555
O20 W2 2.107628 1_454
O20 W9 2.202401 1_555
O20 W7 2.210704 1_455
O21 W2 2.119094 1_454
O21 W11 2.131843 1_545
O21 W9 2.137648 1_555
O21 Zn5 2.362150 1_455
O22 Zn5 2.023103 1_555
O22 W9 2.153491 1_655
O22 W7 2.156853 1_555
O23 W11 2.123226 1_555
O23 W2 2.130741 1_554
O23 W7 2.142586 1_555
O23 Zn5 2.321172 1_555
