# generated using pymatgen
data_SmCrGeO5
_symmetry_space_group_name_H-M   'P 1'
_cell_length_a   5.84069800
_cell_length_b   7.51603000
_cell_length_c   8.58035200
_cell_angle_alpha   90.00000000
_cell_angle_beta   90.00000000
_cell_angle_gamma   90.00000000
_symmetry_Int_Tables_number   1
_chemical_formula_structural   SmCrGeO5
_chemical_formula_sum   'Sm4 Cr4 Ge4 O20'
_cell_volume   376.66768312
_cell_formula_units_Z   4
loop_
 _symmetry_equiv_pos_site_id
 _symmetry_equiv_pos_as_xyz
  1  'x, y, z'
loop_
 _atom_site_type_symbol
 _atom_site_label
 _atom_site_symmetry_multiplicity
 _atom_site_fract_x
 _atom_site_fract_y
 _atom_site_fract_z
 _atom_site_occupancy
  Sm  Sm0  1  0.50000000  0.35934200  0.32591700  1
  Sm  Sm1  1  0.50000000  0.64065800  0.67408300  1
  Sm  Sm2  1  0.50000000  0.14065800  0.82591700  1
  Sm  Sm3  1  0.50000000  0.85934200  0.17408300  1
  Cr  Cr0  1  0.24816900  0.00000000  0.50000000  1
  Cr  Cr1  1  0.75183100  0.00000000  0.50000000  1
  Cr  Cr2  1  0.75183100  0.50000000  0.00000000  1
  Cr  Cr3  1  0.24816900  0.50000000  0.00000000  1
  Ge  Ge0  1  0.00000000  0.11640200  0.14352400  1
  Ge  Ge1  1  0.00000000  0.88359800  0.85647600  1
  Ge  Ge2  1  0.00000000  0.38359800  0.64352400  1
  Ge  Ge3  1  0.00000000  0.61640200  0.35647600  1
  O  O0  1  0.24588600  0.10724600  0.28192500  1
  O  O1  1  0.75411400  0.89275400  0.71807500  1
  O  O2  1  0.24588600  0.89275400  0.71807500  1
  O  O3  1  0.75411400  0.39275400  0.78192500  1
  O  O4  1  0.75411400  0.10724600  0.28192500  1
  O  O5  1  0.24588600  0.60724600  0.21807500  1
  O  O6  1  0.75411400  0.60724600  0.21807500  1
  O  O7  1  0.24588600  0.39275400  0.78192500  1
  O  O8  1  0.00000000  0.34060400  0.07862500  1
  O  O9  1  0.00000000  0.65939600  0.92137500  1
  O  O10  1  0.00000000  0.15939600  0.57862500  1
  O  O11  1  0.00000000  0.84060400  0.42137500  1
  O  O12  1  0.50000000  0.33406400  0.05428000  1
  O  O13  1  0.50000000  0.66593600  0.94572000  1
  O  O14  1  0.50000000  0.16593600  0.55428000  1
  O  O15  1  0.50000000  0.83406400  0.44572000  1
  O  O16  1  0.20886300  0.00000000  0.00000000  1
  O  O17  1  0.79113700  0.00000000  0.00000000  1
  O  O18  1  0.79113700  0.50000000  0.50000000  1
  O  O19  1  0.20886300  0.50000000  0.50000000  1
loop_
_geom_bond_atom_site_label_1
_geom_bond_atom_site_label_2
_geom_bond_distance
_geom_bond_site_symmetry_2
Cr0 O14 1.983892 1_555
Cr0 O15 1.983892 1_545
Cr0 O10 1.997845 1_555
Cr0 O11 1.997845 1_545
Cr0 O0 2.037439 1_555
Cr0 O2 2.037439 1_545
Cr1 O14 1.983892 1_555
Cr1 O15 1.983892 1_545
Cr1 O10 1.997845 1_655
Cr1 O11 1.997845 1_645
Cr1 O4 2.037439 1_555
Cr1 O1 2.037439 1_545
Cr2 O13 1.983892 1_554
Cr2 O12 1.983892 1_555
Cr2 O9 1.997845 1_654
Cr2 O8 1.997845 1_655
Cr2 O6 2.037439 1_555
Cr2 O3 2.037439 1_554
Cr3 O13 1.983892 1_554
Cr3 O12 1.983892 1_555
Cr3 O9 1.997845 1_554
Cr3 O8 1.997845 1_555
Cr3 O5 2.037439 1_555
Cr3 O7 2.037439 1_554
Ge0 O8 1.774734 1_555
Ge0 O0 1.864799 1_555
Ge0 O4 1.864799 1_455
Ge0 O17 1.941686 1_455
Ge0 O16 1.941686 1_555
Ge1 O9 1.774734 1_555
Ge1 O2 1.864799 1_555
Ge1 O1 1.864799 1_455
Ge1 O16 1.941686 1_566
Ge1 O17 1.941686 1_466
Ge2 O10 1.774734 1_555
Ge2 O7 1.864799 1_555
Ge2 O3 1.864799 1_455
Ge2 O19 1.941686 1_555
Ge2 O18 1.941686 1_455
Ge3 O11 1.774734 1_555
Ge3 O5 1.864799 1_555
Ge3 O6 1.864799 1_455
Ge3 O18 1.941686 1_455
Ge3 O19 1.941686 1_555
O0 Sm0 2.436280 1_555
O0 Sm3 2.555542 1_545
O1 Sm1 2.436280 1_555
O1 Sm2 2.555542 1_565
O2 Sm1 2.436280 1_555
O2 Sm2 2.555542 1_565
O3 Sm2 2.436280 1_555
O3 Sm1 2.555542 1_555
O4 Sm0 2.436280 1_555
O4 Sm3 2.555542 1_545
O5 Sm3 2.436280 1_555
O5 Sm0 2.555542 1_555
O6 Sm3 2.436280 1_555
O6 Sm0 2.555542 1_555
O7 Sm2 2.436280 1_555
O7 Sm1 2.555542 1_555
O12 Sm0 2.338472 1_555
O12 Sm2 2.439768 1_554
O13 Sm1 2.338472 1_555
O13 Sm3 2.439768 1_556
O14 Sm2 2.338472 1_555
O14 Sm0 2.439768 1_555
O15 Sm3 2.338472 1_555
O15 Sm1 2.439768 1_555
O16 Sm2 2.498055 1_554
O16 Sm3 2.498055 1_545
O17 Sm2 2.498055 1_554
O17 Sm3 2.498055 1_545
O18 Sm0 2.498055 1_555
O18 Sm1 2.498055 1_555
O19 Sm0 2.498055 1_555
O19 Sm1 2.498055 1_555
