# generated using pymatgen
data_TmBi3
_symmetry_space_group_name_H-M   'P 1'
_cell_length_a   6.83292867
_cell_length_b   6.83292867
_cell_length_c   5.99863500
_cell_angle_alpha   90.00000000
_cell_angle_beta   90.00000000
_cell_angle_gamma   120.00000645
_symmetry_Int_Tables_number   1
_chemical_formula_structural   TmBi3
_chemical_formula_sum   'Tm2 Bi6'
_cell_volume   242.54750655
_cell_formula_units_Z   2
loop_
 _symmetry_equiv_pos_site_id
 _symmetry_equiv_pos_as_xyz
  1  'x, y, z'
loop_
 _atom_site_type_symbol
 _atom_site_label
 _atom_site_symmetry_multiplicity
 _atom_site_fract_x
 _atom_site_fract_y
 _atom_site_fract_z
 _atom_site_occupancy
  Tm  Tm0  1  0.33333300  0.66666700  0.75000000  1
  Tm  Tm1  1  0.66666700  0.33333300  0.25000000  1
  Bi  Bi0  1  0.17254800  0.34509700  0.25000000  1
  Bi  Bi1  1  0.65490300  0.82745200  0.25000000  1
  Bi  Bi2  1  0.17254800  0.82745200  0.25000000  1
  Bi  Bi3  1  0.82745200  0.65490300  0.75000000  1
  Bi  Bi4  1  0.34509700  0.17254800  0.75000000  1
  Bi  Bi5  1  0.82745200  0.17254800  0.75000000  1
loop_
_geom_bond_atom_site_label_1
_geom_bond_atom_site_label_2
_geom_bond_distance
_geom_bond_site_symmetry_2
Bi0 Tm1 3.417167 1_455
Bi0 Tm1 3.417180 1_555
Bi0 Tm0 3.552025 1_554
Bi0 Tm0 3.552025 1_555
Bi1 Tm1 3.417167 1_565
Bi1 Tm1 3.417180 1_555
Bi1 Tm0 3.552025 1_554
Bi1 Tm0 3.552025 1_555
Bi2 Tm1 3.417173 1_455
Bi2 Tm1 3.417173 1_565
Bi2 Tm0 3.552026 1_554
Bi2 Tm0 3.552026 1_555
Bi3 Tm0 3.417167 1_655
Bi3 Tm0 3.417180 1_555
Bi3 Tm1 3.552025 1_556
Bi3 Tm1 3.552025 1_555
Bi4 Tm0 3.417167 1_545
Bi4 Tm0 3.417180 1_555
Bi4 Tm1 3.552025 1_556
Bi4 Tm1 3.552025 1_555
Bi5 Tm0 3.417173 1_545
Bi5 Tm0 3.417173 1_655
Bi5 Tm1 3.552026 1_556
Bi5 Tm1 3.552026 1_555
