# generated using pymatgen
data_Li7V3P8O29
_symmetry_space_group_name_H-M   'P 1'
_cell_length_a   9.86948848
_cell_length_b   9.86948848
_cell_length_c   13.94552852
_cell_angle_alpha   89.65281305
_cell_angle_beta   89.65281305
_cell_angle_gamma   60.04498190
_symmetry_Int_Tables_number   1
_chemical_formula_structural   Li7V3P8O29
_chemical_formula_sum   'Li14 V6 P16 O58'
_cell_volume   1176.90372228
_cell_formula_units_Z   2
loop_
 _symmetry_equiv_pos_site_id
 _symmetry_equiv_pos_as_xyz
  1  'x, y, z'
loop_
 _atom_site_type_symbol
 _atom_site_label
 _atom_site_symmetry_multiplicity
 _atom_site_fract_x
 _atom_site_fract_y
 _atom_site_fract_z
 _atom_site_occupancy
  Li  Li0  1  0.33628600  0.90516100  0.93700800  1
  Li  Li1  1  0.32425300  0.76932500  0.43709600  1
  Li  Li2  1  0.76790700  0.91206300  0.43798800  1
  Li  Li3  1  0.67106500  0.66150400  0.61517600  1
  Li  Li4  1  0.66150400  0.67106500  0.11517600  1
  Li  Li5  1  0.91206300  0.76790700  0.93798800  1
  Li  Li6  1  0.76932500  0.32425300  0.93709600  1
  Li  Li7  1  0.09323500  0.67824200  0.56433100  1
  Li  Li8  1  0.90516100  0.33628600  0.43700800  1
  Li  Li9  1  0.34217900  0.31431700  0.38870100  1
  Li  Li10  1  0.31431700  0.34217900  0.88870100  1
  Li  Li11  1  0.67824200  0.09323500  0.06433100  1
  Li  Li12  1  0.05374500  0.98456700  0.00314000  1
  Li  Li13  1  0.98456700  0.05374500  0.50314000  1
  V  V0  1  0.99907100  0.56289600  0.75309100  1
  V  V1  1  0.00255000  0.43194100  0.24475600  1
  V  V2  1  0.43266600  0.56675000  0.25167600  1
  V  V3  1  0.56675000  0.43266600  0.75167600  1
  V  V4  1  0.43194100  0.00255000  0.74475600  1
  V  V5  1  0.56289600  0.99907100  0.25309100  1
  P  P0  1  0.31908500  0.90777700  0.15596600  1
  P  P1  1  0.31896600  0.77032800  0.65526600  1
  P  P2  1  0.77410300  0.91018100  0.65526100  1
  P  P3  1  0.66166000  0.67089200  0.87436900  1
  P  P4  1  0.67089200  0.66166000  0.37436900  1
  P  P5  1  0.91018100  0.77410300  0.15526100  1
  P  P6  1  0.08871000  0.68023300  0.34164600  1
  P  P7  1  0.77032800  0.31896600  0.15526600  1
  P  P8  1  0.22488200  0.69054200  0.84213300  1
  P  P9  1  0.90777700  0.31908500  0.65596600  1
  P  P10  1  0.08874800  0.21813200  0.84048600  1
  P  P11  1  0.33658100  0.33429500  0.62805000  1
  P  P12  1  0.33429500  0.33658100  0.12805000  1
  P  P13  1  0.21813200  0.08874800  0.34048600  1
  P  P14  1  0.69054200  0.22488200  0.34213300  1
  P  P15  1  0.68023300  0.08871000  0.84164600  1
  O  O0  1  0.20564900  0.99252800  0.42036000  1
  O  O1  1  0.33847500  0.91422800  0.65989100  1
  O  O2  1  0.22143600  0.79465600  0.92086500  1
  O  O3  1  0.33908900  0.74266100  0.17244800  1
  O  O4  1  0.48263300  0.88915400  0.16715900  1
  O  O5  1  0.51605000  0.81955400  0.82966800  1
  O  O6  1  0.62766400  0.89023600  0.66874300  1
  O  O7  1  0.76764200  0.99851700  0.93003900  1
  O  O8  1  0.74780100  0.92117600  0.16149300  1
  O  O9  1  0.51964200  0.66640000  0.33594700  1
  O  O10  1  0.48198700  0.62334100  0.67039100  1
  O  O11  1  0.67200700  0.81192700  0.34186000  1
  O  O12  1  0.64339100  0.67787400  0.98183300  1
  O  O13  1  0.67787400  0.64339100  0.48183300  1
  O  O14  1  0.81192700  0.67200700  0.84186000  1
  O  O15  1  0.62334100  0.48198700  0.17039100  1
  O  O16  1  0.66640000  0.51964200  0.83594700  1
  O  O17  1  0.92117600  0.74780100  0.66149300  1
  O  O18  1  0.00483000  0.78242100  0.24790800  1
  O  O19  1  0.99851700  0.76764200  0.43003900  1
  O  O20  1  0.99391900  0.77415200  0.06541600  1
  O  O21  1  0.89023600  0.62766400  0.16874300  1
  O  O22  1  0.81955400  0.51605000  0.32966800  1
  O  O23  1  0.08611400  0.66139200  0.84616500  1
  O  O24  1  0.88915400  0.48263300  0.66715900  1
  O  O25  1  0.74266100  0.33908900  0.67244800  1
  O  O26  1  0.20599500  0.78039700  0.74144000  1
  O  O27  1  0.23807300  0.76453700  0.56478600  1
  O  O28  1  0.79465600  0.22143600  0.42086500  1
  O  O29  1  0.25482000  0.66108700  0.34355500  1
  O  O30  1  0.10554200  0.51676400  0.33125800  1
  O  O31  1  0.91422800  0.33847500  0.15989100  1
  O  O32  1  0.18411200  0.47991300  0.66239900  1
  O  O33  1  0.10318700  0.36711100  0.83605100  1
  O  O34  1  0.99252800  0.20564900  0.92036000  1
  O  O35  1  0.97759000  0.23758800  0.56308300  1
  O  O36  1  0.01452100  0.20636800  0.73998200  1
  O  O37  1  0.07543600  0.25573500  0.33987000  1
  O  O38  1  0.33827100  0.47578300  0.17676500  1
  O  O39  1  0.37725600  0.52849300  0.83300200  1
  O  O40  1  0.18238500  0.34255000  0.17305600  1
  O  O41  1  0.32419200  0.34755100  0.02128600  1
  O  O42  1  0.34755100  0.32419200  0.52128600  1
  O  O43  1  0.34255000  0.18238500  0.67305600  1
  O  O44  1  0.52849300  0.37725600  0.33300200  1
  O  O45  1  0.47578300  0.33827100  0.67676500  1
  O  O46  1  0.25573500  0.07543600  0.83987000  1
  O  O47  1  0.20636800  0.01452100  0.23998200  1
  O  O48  1  0.23758800  0.97759000  0.06308300  1
  O  O49  1  0.36711100  0.10318700  0.33605100  1
  O  O50  1  0.47991300  0.18411200  0.16239900  1
  O  O51  1  0.51676400  0.10554200  0.83125800  1
  O  O52  1  0.66108700  0.25482000  0.84355500  1
  O  O53  1  0.76453700  0.23807300  0.06478600  1
  O  O54  1  0.78039700  0.20599500  0.24144000  1
  O  O55  1  0.66139200  0.08611400  0.34616500  1
  O  O56  1  0.77415200  0.99391900  0.56541600  1
  O  O57  1  0.78242100  0.00483000  0.74790800  1
loop_
_geom_bond_atom_site_label_1
_geom_bond_atom_site_label_2
_geom_bond_distance
_geom_bond_site_symmetry_2
Li0 O2 1.940521 1_555
Li0 O48 1.962184 1_556
Li0 O46 1.985575 1_565
Li0 O5 2.142077 1_555
Li1 O0 1.923385 1_555
Li1 O27 1.979228 1_555
Li1 O29 2.017719 1_555
Li1 O9 2.183682 1_555
Li2 O55 1.970268 1_565
Li2 O56 1.970489 1_555
Li2 O19 1.995814 1_555
Li2 O11 2.152952 1_555
Li3 O13 1.866782 1_555
Li3 O24 2.117482 1_555
Li3 O6 2.211013 1_555
Li3 O10 2.213163 1_555
Li4 O12 1.866782 1_554
Li4 O4 2.117482 1_555
Li4 O21 2.211013 1_555
Li4 O15 2.213163 1_555
Li5 O23 1.970268 1_655
Li5 O20 1.970489 1_556
Li5 O7 1.995814 1_555
Li5 O14 2.152952 1_555
Li6 O34 1.923385 1_555
Li6 O53 1.979228 1_556
Li6 O52 2.017719 1_555
Li6 O16 2.183682 1_555
Li7 O27 1.996197 1_555
Li7 O17 2.002524 1_455
Li7 O19 2.082586 1_455
Li7 O32 2.176106 1_555
Li8 O28 1.940521 1_555
Li8 O35 1.962184 1_555
Li8 O37 1.985575 1_655
Li8 O22 2.142077 1_555
Li9 O42 1.854595 1_555
Li9 O49 2.108542 1_555
Li9 O30 2.330583 1_555
Li9 O44 2.342648 1_555
Li10 O41 1.854595 1_556
Li10 O33 2.108542 1_555
Li10 O51 2.330583 1_555
Li10 O39 2.342648 1_555
Li11 O53 1.996197 1_555
Li11 O8 2.002524 1_545
Li11 O7 2.082586 1_544
Li11 O50 2.176106 1_555
Li12 O48 1.971959 1_555
Li12 O2 2.115152 1_554
Li12 O34 2.262762 1_464
Li12 O20 2.571373 1_455
Li13 O35 1.971959 1_555
Li13 O28 2.115152 1_555
Li13 O0 2.262762 1_645
Li13 O56 2.571373 1_545
O0 P13 1.503361 1_565
O1 P1 1.527285 1_555
O1 V4 1.959635 1_565
O2 P8 1.496949 1_555
O3 P0 1.556327 1_555
O3 V2 1.864349 1_555
O4 P0 1.539484 1_555
O4 V5 2.031225 1_555
O5 P3 1.581355 1_555
O5 V4 1.960097 1_565
O6 P2 1.563105 1_555
O6 V4 1.983665 1_565
O7 P15 1.512888 1_565
O8 P5 1.536106 1_555
O8 V5 2.033630 1_555
O9 P4 1.567568 1_555
O9 V2 1.988606 1_555
O10 P1 1.551506 1_555
O10 V3 1.984867 1_555
O11 P4 1.553449 1_555
O11 V5 2.026263 1_555
O12 P3 1.506239 1_555
O13 P4 1.506239 1_555
O14 P3 1.553449 1_555
O14 V0 2.026263 1_555
O15 P7 1.551506 1_555
O15 V2 1.984867 1_555
O16 P3 1.567568 1_555
O16 V3 1.988606 1_555
O17 P2 1.536106 1_555
O17 V0 2.033630 1_555
O18 P6 1.604583 1_555
O18 P5 1.625159 1_455
O19 P6 1.512888 1_655
O20 P5 1.496901 1_555
O21 P5 1.563105 1_555
O21 V1 1.983665 1_655
O22 P4 1.581355 1_555
O22 V1 1.960097 1_655
O23 P8 1.534276 1_555
O23 V0 2.056813 1_455
O24 P9 1.539484 1_555
O24 V0 2.031225 1_555
O25 P9 1.556327 1_555
O25 V3 1.864349 1_555
O26 P1 1.603673 1_555
O26 P8 1.617413 1_555
O27 P1 1.513748 1_555
O28 P14 1.496949 1_555
O29 P6 1.554097 1_555
O29 V2 1.986124 1_555
O30 P6 1.544794 1_555
O30 V1 2.016472 1_555
O31 P7 1.527285 1_555
O31 V1 1.959635 1_655
O32 P11 1.548943 1_555
O32 V0 2.023972 1_455
O33 P10 1.547285 1_555
O33 V0 2.032876 1_455
O34 P10 1.503361 1_655
O35 P9 1.499290 1_555
O36 P9 1.596551 1_455
O36 P10 1.616770 1_555
O37 P13 1.543284 1_555
O37 V1 2.008855 1_555
O38 P12 1.554351 1_555
O38 V2 1.903617 1_555
O39 P8 1.560104 1_555
O39 V3 1.974673 1_555
O40 P12 1.595637 1_555
O40 V1 1.831332 1_555
O41 P12 1.492479 1_555
O42 P11 1.492479 1_555
O43 P11 1.595637 1_555
O43 V4 1.831332 1_555
O44 P14 1.560104 1_555
O44 V2 1.974673 1_555
O45 P11 1.554351 1_555
O45 V3 1.903617 1_555
O46 P10 1.543284 1_555
O46 V4 2.008855 1_555
O47 P0 1.596551 1_545
O47 P13 1.616770 1_555
O48 P0 1.499290 1_555
O49 P13 1.547285 1_555
O49 V5 2.032876 1_545
O50 P12 1.548943 1_555
O50 V5 2.023972 1_545
O51 P15 1.544794 1_555
O51 V4 2.016472 1_555
O52 P15 1.554097 1_555
O52 V3 1.986124 1_555
O53 P7 1.513748 1_555
O54 P7 1.603673 1_555
O54 P14 1.617413 1_555
O55 P14 1.534276 1_555
O55 V5 2.056813 1_545
O56 P2 1.496901 1_555
O57 P15 1.604583 1_555
O57 P2 1.625159 1_545
