# generated using pymatgen
data_Er(BRh)4
_symmetry_space_group_name_H-M   'P 1'
_cell_length_a   7.53746200
_cell_length_b   7.53016300
_cell_length_c   11.81607245
_cell_angle_alpha   90.00000000
_cell_angle_beta   108.59941007
_cell_angle_gamma   90.00000000
_symmetry_Int_Tables_number   1
_chemical_formula_structural   Er(BRh)4
_chemical_formula_sum   'Er6 B24 Rh24'
_cell_volume   635.63293505
_cell_formula_units_Z   6
loop_
 _symmetry_equiv_pos_site_id
 _symmetry_equiv_pos_as_xyz
  1  'x, y, z'
loop_
 _atom_site_type_symbol
 _atom_site_label
 _atom_site_symmetry_multiplicity
 _atom_site_fract_x
 _atom_site_fract_y
 _atom_site_fract_z
 _atom_site_occupancy
  Er  Er0  1  0.91682900  0.25000000  0.83365700  1
  Er  Er1  1  0.41682900  0.75000000  0.83365700  1
  Er  Er2  1  0.08317100  0.75000000  0.16634300  1
  Er  Er3  1  0.58317100  0.25000000  0.16634300  1
  Er  Er4  1  0.25000000  0.25000000  0.50000000  1
  Er  Er5  1  0.75000000  0.75000000  0.50000000  1
  B  B0  1  0.22531100  0.07674300  0.72067600  1
  B  B1  1  0.99536500  0.57674300  0.72067600  1
  B  B2  1  0.50463500  0.57674300  0.27932400  1
  B  B3  1  0.27468900  0.07674300  0.27932400  1
  B  B4  1  0.77468900  0.92325700  0.27932400  1
  B  B5  1  0.00463500  0.42325700  0.27932400  1
  B  B6  1  0.49536500  0.42325700  0.72067600  1
  B  B7  1  0.72531100  0.92325700  0.72067600  1
  B  B8  1  0.30064300  0.39132600  0.94210600  1
  B  B9  1  0.14146200  0.89132600  0.94210600  1
  B  B10  1  0.35853800  0.89132600  0.05789400  1
  B  B11  1  0.19935700  0.39132600  0.05789400  1
  B  B12  1  0.69935700  0.60867400  0.05789400  1
  B  B13  1  0.85853800  0.10867400  0.05789400  1
  B  B14  1  0.64146200  0.10867400  0.94210600  1
  B  B15  1  0.80064300  0.60867400  0.94210600  1
  B  B16  1  0.83810600  0.08796400  0.39076000  1
  B  B17  1  0.05265400  0.58796400  0.39076000  1
  B  B18  1  0.44734600  0.58796400  0.60924000  1
  B  B19  1  0.66189400  0.08796400  0.60924000  1
  B  B20  1  0.16189400  0.91203600  0.60924000  1
  B  B21  1  0.94734600  0.41203600  0.60924000  1
  B  B22  1  0.55265400  0.41203600  0.39076000  1
  B  B23  1  0.33810600  0.91203600  0.39076000  1
  Rh  Rh0  1  0.34386700  0.09672200  0.91782100  1
  Rh  Rh1  1  0.07395400  0.59672200  0.91782100  1
  Rh  Rh2  1  0.42604600  0.59672200  0.08217900  1
  Rh  Rh3  1  0.15613300  0.09672200  0.08217900  1
  Rh  Rh4  1  0.65613300  0.90327800  0.08217900  1
  Rh  Rh5  1  0.92604600  0.40327800  0.08217900  1
  Rh  Rh6  1  0.57395400  0.40327800  0.91782100  1
  Rh  Rh7  1  0.84386700  0.90327800  0.91782100  1
  Rh  Rh8  1  0.22132900  0.36294900  0.74991400  1
  Rh  Rh9  1  0.02858500  0.86294900  0.74991400  1
  Rh  Rh10  1  0.47141500  0.86294900  0.25008600  1
  Rh  Rh11  1  0.27867100  0.36294900  0.25008600  1
  Rh  Rh12  1  0.77867100  0.63705100  0.25008600  1
  Rh  Rh13  1  0.97141500  0.13705100  0.25008600  1
  Rh  Rh14  1  0.52858500  0.13705100  0.74991400  1
  Rh  Rh15  1  0.72132900  0.63705100  0.74991400  1
  Rh  Rh16  1  0.94329600  0.12297600  0.58381900  1
  Rh  Rh17  1  0.14052300  0.62297600  0.58381900  1
  Rh  Rh18  1  0.35947700  0.62297600  0.41618100  1
  Rh  Rh19  1  0.55670400  0.12297600  0.41618100  1
  Rh  Rh20  1  0.05670400  0.87702400  0.41618100  1
  Rh  Rh21  1  0.85947700  0.37702400  0.41618100  1
  Rh  Rh22  1  0.64052300  0.37702400  0.58381900  1
  Rh  Rh23  1  0.44329600  0.87702400  0.58381900  1
loop_
_geom_bond_atom_site_label_1
_geom_bond_atom_site_label_2
_geom_bond_distance
_geom_bond_site_symmetry_2
Er0 Rh8 2.901551 1_655
Er0 Rh14 2.901558 1_555
Er0 Rh1 2.908087 1_655
Er0 Rh7 2.908090 1_545
Er0 Rh3 3.135318 1_656
Er0 Rh5 3.135320 1_556
Er0 Rh16 3.169433 1_555
Er0 Rh22 3.169436 1_555
Er0 Rh0 3.261874 1_655
Er0 Rh6 3.261881 1_555
Er0 Rh9 3.273385 1_645
Er0 Rh15 3.273387 1_555
Er1 Rh15 2.901551 1_555
Er1 Rh9 2.901558 1_555
Er1 Rh6 2.908087 1_555
Er1 Rh0 2.908090 1_565
Er1 Rh4 3.135318 1_556
Er1 Rh2 3.135320 1_556
Er1 Rh23 3.169433 1_555
Er1 Rh17 3.169436 1_555
Er1 Rh7 3.261874 1_555
Er1 Rh1 3.261881 1_555
Er1 Rh14 3.273385 1_565
Er1 Rh8 3.273387 1_555
Er2 Rh12 2.901551 1_455
Er2 Rh10 2.901558 1_555
Er2 Rh5 2.908087 1_455
Er2 Rh3 2.908090 1_565
Er2 Rh7 3.135318 1_454
Er2 Rh1 3.135320 1_554
Er2 Rh20 3.169433 1_555
Er2 Rh18 3.169436 1_555
Er2 Rh4 3.261874 1_455
Er2 Rh2 3.261881 1_555
Er2 Rh13 3.273385 1_465
Er2 Rh11 3.273387 1_555
Er3 Rh11 2.901551 1_555
Er3 Rh13 2.901558 1_555
Er3 Rh2 2.908087 1_555
Er3 Rh4 2.908090 1_545
Er3 Rh0 3.135318 1_554
Er3 Rh6 3.135320 1_554
Er3 Rh19 3.169433 1_555
Er3 Rh21 3.169436 1_555
Er3 Rh3 3.261874 1_555
Er3 Rh5 3.261881 1_555
Er3 Rh10 3.273385 1_545
Er3 Rh12 3.273387 1_555
Er4 Rh22 2.949685 1_555
Er4 Rh21 2.949685 1_455
Er4 Rh19 2.949685 1_555
Er4 Rh16 2.949685 1_455
Er4 Rh8 3.146013 1_555
Er4 Rh11 3.146013 1_555
Er4 Rh14 3.146013 1_555
Er4 Rh13 3.146013 1_455
Er4 Rh17 3.173521 1_555
Er4 Rh23 3.173521 1_545
Er4 Rh18 3.173521 1_555
Er4 Rh20 3.173521 1_545
Er5 Rh17 2.949685 1_655
Er5 Rh18 2.949685 1_555
Er5 Rh23 2.949685 1_555
Er5 Rh20 2.949685 1_655
Er5 Rh9 3.146013 1_655
Er5 Rh10 3.146013 1_555
Er5 Rh15 3.146013 1_555
Er5 Rh12 3.146013 1_555
Er5 Rh16 3.173521 1_565
Er5 Rh19 3.173521 1_565
Er5 Rh22 3.173521 1_555
Er5 Rh21 3.173521 1_555
B0 B20 1.760413 1_545
B0 Rh8 2.184413 1_555
B0 Rh0 2.218055 1_555
B0 Rh14 2.246604 1_555
B0 Rh16 2.249890 1_455
B0 Rh9 2.288377 1_545
B0 Er1 2.947957 1_545
B0 Er4 2.974133 1_555
B0 Er0 3.297095 1_455
B1 B21 1.760413 1_555
B1 Rh9 2.184413 1_655
B1 Rh1 2.218055 1_655
B1 Rh15 2.246604 1_555
B1 Rh17 2.249890 1_655
B1 Rh8 2.288377 1_655
B1 Er0 2.947955 1_555
B1 Er5 2.974133 1_555
B1 Er1 3.297102 1_655
B2 B22 1.760413 1_555
B2 Rh10 2.184413 1_555
B2 Rh2 2.218055 1_555
B2 Rh12 2.246604 1_555
B2 Rh18 2.249890 1_555
B2 Rh11 2.288377 1_555
B2 Er3 2.947955 1_555
B2 Er5 2.974133 1_555
B2 Er2 3.297102 1_555
B3 Rh11 2.184413 1_555
B3 Rh3 2.218055 1_555
B3 Rh13 2.246604 1_455
B3 Rh19 2.249890 1_555
B3 Rh10 2.288377 1_545
B3 Er2 2.947957 1_545
B3 Er4 2.974133 1_555
B3 Er3 3.297095 1_555
B4 Rh12 2.184413 1_555
B4 Rh4 2.218055 1_555
B4 Rh10 2.246604 1_555
B4 Rh20 2.249890 1_655
B4 Rh13 2.288377 1_565
B4 Er3 2.947957 1_565
B4 Er5 2.974133 1_555
B4 Er2 3.297095 1_655
B5 Rh13 2.184413 1_455
B5 Rh5 2.218055 1_455
B5 Rh11 2.246604 1_555
B5 Rh21 2.249890 1_455
B5 Rh12 2.288377 1_455
B5 Er2 2.947955 1_555
B5 Er4 2.974133 1_555
B5 Er3 3.297102 1_455
B6 Rh14 2.184413 1_555
B6 Rh6 2.218055 1_555
B6 Rh8 2.246604 1_555
B6 Rh22 2.249890 1_555
B6 Rh15 2.288377 1_555
B6 Er1 2.947955 1_555
B6 Er4 2.974133 1_555
B6 Er0 3.297102 1_555
B7 Rh15 2.184413 1_555
B7 Rh7 2.218055 1_555
B7 Rh9 2.246604 1_655
B7 Rh23 2.249890 1_555
B7 Rh14 2.288377 1_565
B7 Er0 2.947957 1_565
B7 Er5 2.974133 1_555
B7 Er1 3.297095 1_555
B8 Rh8 2.166623 1_555
B8 Rh6 2.170582 1_555
B8 Rh2 2.242109 1_556
B8 Rh1 2.254167 1_555
B8 Rh0 2.273652 1_555
B8 Er0 2.962967 1_455
B8 Er3 3.014726 1_556
B8 Er1 3.227942 1_555
B9 Rh9 2.166623 1_555
B9 Rh7 2.170575 1_455
B9 Rh3 2.242108 1_566
B9 Rh0 2.254172 1_565
B9 Rh1 2.273651 1_555
B9 Er1 2.962979 1_555
B9 Er2 3.014726 1_556
B9 Er0 3.227936 1_465
B10 B9 1.766643 1_554
B10 Rh10 2.166623 1_555
B10 Rh4 2.170575 1_555
B10 Rh0 2.242108 1_564
B10 Rh3 2.254172 1_565
B10 Rh2 2.273651 1_555
B10 Er2 2.962979 1_555
B10 Er1 3.014726 1_554
B10 Er3 3.227936 1_565
B11 B8 1.766632 1_554
B11 Rh11 2.166623 1_555
B11 Rh5 2.170582 1_455
B11 Rh1 2.242109 1_554
B11 Rh2 2.254167 1_555
B11 Rh3 2.273652 1_555
B11 Er3 2.962967 1_555
B11 Er0 3.014726 1_454
B11 Er2 3.227942 1_555
B12 B15 1.766632 1_554
B12 Rh12 2.166623 1_555
B12 Rh2 2.170582 1_555
B12 Rh6 2.242109 1_554
B12 Rh5 2.254167 1_555
B12 Rh4 2.273652 1_555
B12 Er2 2.962967 1_655
B12 Er1 3.014726 1_554
B12 Er3 3.227942 1_555
B13 B14 1.766643 1_554
B13 Rh13 2.166623 1_555
B13 Rh3 2.170575 1_655
B13 Rh7 2.242108 1_544
B13 Rh4 2.254172 1_545
B13 Rh5 2.273651 1_555
B13 Er3 2.962979 1_555
B13 Er0 3.014726 1_554
B13 Er2 3.227936 1_645
B14 Rh14 2.166623 1_555
B14 Rh0 2.170575 1_555
B14 Rh4 2.242108 1_546
B14 Rh7 2.254172 1_545
B14 Rh6 2.273651 1_555
B14 Er0 2.962979 1_555
B14 Er3 3.014726 1_556
B14 Er1 3.227936 1_545
B15 Rh15 2.166623 1_555
B15 Rh1 2.170582 1_655
B15 Rh5 2.242109 1_556
B15 Rh6 2.254167 1_555
B15 Rh7 2.273652 1_555
B15 Er1 2.962967 1_555
B15 Er2 3.014726 1_656
B15 Er0 3.227942 1_555
B16 B4 1.760413 1_545
B16 Rh16 2.179049 1_555
B16 Rh21 2.196178 1_555
B16 Rh13 2.230394 1_555
B16 Rh20 2.238839 1_645
B16 Rh19 2.250563 1_555
B16 Er3 2.993736 1_555
B16 Er5 3.021689 1_545
B16 Er4 3.199585 1_655
B17 B5 1.760413 1_555
B17 Rh17 2.179049 1_555
B17 Rh20 2.196178 1_555
B17 Rh12 2.230394 1_455
B17 Rh21 2.238839 1_455
B17 Rh18 2.250563 1_555
B17 Er2 2.993734 1_555
B17 Er4 3.021689 1_555
B17 Er5 3.199585 1_455
B18 B6 1.760413 1_555
B18 Rh18 2.179049 1_555
B18 Rh23 2.196178 1_555
B18 Rh15 2.230394 1_555
B18 Rh22 2.238839 1_555
B18 Rh17 2.250563 1_555
B18 Er1 2.993734 1_555
B18 Er4 3.021689 1_555
B18 Er5 3.199585 1_555
B19 B7 1.760413 1_545
B19 Rh19 2.179049 1_555
B19 Rh22 2.196178 1_555
B19 Rh14 2.230394 1_555
B19 Rh23 2.238839 1_545
B19 Rh16 2.250563 1_555
B19 Er0 2.993736 1_555
B19 Er5 3.021689 1_545
B19 Er4 3.199585 1_555
B20 Rh20 2.179049 1_555
B20 Rh17 2.196178 1_555
B20 Rh9 2.230394 1_555
B20 Rh16 2.238839 1_465
B20 Rh23 2.250563 1_555
B20 Er1 2.993736 1_555
B20 Er4 3.021689 1_565
B20 Er5 3.199585 1_455
B21 Rh21 2.179049 1_555
B21 Rh16 2.196178 1_555
B21 Rh8 2.230394 1_655
B21 Rh17 2.238839 1_655
B21 Rh22 2.250563 1_555
B21 Er0 2.993734 1_555
B21 Er5 3.021689 1_555
B21 Er4 3.199585 1_655
B22 Rh22 2.179049 1_555
B22 Rh19 2.196178 1_555
B22 Rh11 2.230394 1_555
B22 Rh18 2.238839 1_555
B22 Rh21 2.250563 1_555
B22 Er3 2.993734 1_555
B22 Er5 3.021689 1_555
B22 Er4 3.199585 1_555
B23 B3 1.760413 1_565
B23 Rh23 2.179049 1_555
B23 Rh18 2.196178 1_555
B23 Rh10 2.230394 1_555
B23 Rh19 2.238839 1_565
B23 Rh20 2.250563 1_555
B23 Er2 2.993736 1_555
B23 Er4 3.021689 1_565
B23 Er5 3.199585 1_555
