# generated using pymatgen
data_ZnCr4CoO8
_symmetry_space_group_name_H-M   'P 1'
_cell_length_a   6.00516939
_cell_length_b   6.00537516
_cell_length_c   10.36319775
_cell_angle_alpha   73.15800184
_cell_angle_beta   90.00015223
_cell_angle_gamma   60.00114123
_symmetry_Int_Tables_number   1
_chemical_formula_structural   ZnCr4CoO8
_chemical_formula_sum   'Zn2 Cr8 Co2 O16'
_cell_volume   305.01377863
_cell_formula_units_Z   2
loop_
 _symmetry_equiv_pos_site_id
 _symmetry_equiv_pos_as_xyz
  1  'x, y, z'
loop_
 _atom_site_type_symbol
 _atom_site_label
 _atom_site_symmetry_multiplicity
 _atom_site_fract_x
 _atom_site_fract_y
 _atom_site_fract_z
 _atom_site_occupancy
  Zn  Zn0  1  0.00003900  0.99992500  0.00010500  1
  Zn  Zn1  1  0.50003200  0.99993800  0.50008900  1
  Cr  Cr0  1  0.56232900  0.37506000  0.68754700  1
  Cr  Cr1  1  0.06260800  0.87478200  0.68754800  1
  Cr  Cr2  1  0.06260600  0.37506100  0.68754800  1
  Cr  Cr3  1  0.81283300  0.37433900  0.43849200  1
  Cr  Cr4  1  0.31198200  0.37604200  0.93593200  1
  Cr  Cr5  1  0.06209400  0.37516300  0.18758400  1
  Cr  Cr6  1  0.56274300  0.87451000  0.18758700  1
  Cr  Cr7  1  0.56274600  0.37515900  0.18758700  1
  Co  Co0  1  0.12481500  0.75036800  0.37444700  1
  Co  Co1  1  0.62501900  0.74996200  0.87505800  1
  O  O0  1  0.43173200  0.13653800  0.29519900  1
  O  O1  1  0.93167100  0.13665600  0.79502100  1
  O  O2  1  0.65832200  0.13683700  0.06798700  1
  O  O3  1  0.16019500  0.13571500  0.56836400  1
  O  O4  1  0.20483600  0.59033000  0.06798500  1
  O  O5  1  0.70408200  0.59183300  0.56836200  1
  O  O6  1  0.20484100  0.13684000  0.06798600  1
  O  O7  1  0.70409200  0.13571500  0.56836200  1
  O  O8  1  0.69326100  0.61347300  0.07978600  1
  O  O9  1  0.19332200  0.61334600  0.57997800  1
  O  O10  1  0.46648900  0.61325300  0.30701700  1
  O  O11  1  0.96457000  0.61432400  0.80680200  1
  O  O12  1  0.92026300  0.15948400  0.30701600  1
  O  O13  1  0.42111300  0.15776700  0.80680200  1
  O  O14  1  0.92025000  0.61326100  0.30701200  1
  O  O15  1  0.42111400  0.61431800  0.80679900  1
loop_
_geom_bond_atom_site_label_1
_geom_bond_atom_site_label_2
_geom_bond_distance
_geom_bond_site_symmetry_2
Cr0 O9 2.026222 1_555
Cr0 O1 2.027372 1_555
Cr0 O5 2.030095 1_555
Cr0 O13 2.030124 1_555
Cr0 O15 2.030134 1_555
Cr0 O7 2.030135 1_555
Cr1 O9 2.026246 1_555
Cr1 O1 2.027416 1_465
Cr1 O7 2.030063 1_465
Cr1 O11 2.030073 1_455
Cr1 O3 2.030076 1_565
Cr1 O15 2.030100 1_555
Cr2 O9 2.026203 1_555
Cr2 O1 2.027364 1_455
Cr2 O5 2.030086 1_455
Cr2 O13 2.030106 1_555
Cr2 O3 2.030127 1_555
Cr2 O11 2.030176 1_455
Cr3 O3 2.027183 1_655
Cr3 O7 2.027190 1_555
Cr3 O5 2.027195 1_555
Cr3 O12 2.030718 1_555
Cr3 O10 2.030753 1_555
Cr3 O14 2.030762 1_555
Cr4 O13 2.023851 1_555
Cr4 O11 2.023866 1_455
Cr4 O15 2.023869 1_555
Cr4 O2 2.033546 1_556
Cr4 O4 2.033553 1_556
Cr4 O6 2.033558 1_556
Cr5 O8 2.026270 1_455
Cr5 O12 2.027103 1_455
Cr5 O14 2.027175 1_455
Cr5 O0 2.029193 1_555
Cr5 O4 2.029824 1_555
Cr5 O6 2.029890 1_555
Cr6 O8 2.026327 1_555
Cr6 O14 2.027064 1_555
Cr6 O10 2.027108 1_555
Cr6 O0 2.029216 1_565
Cr6 O6 2.029807 1_565
Cr6 O2 2.029822 1_565
Cr7 O8 2.026267 1_555
Cr7 O12 2.027117 1_555
Cr7 O10 2.027172 1_555
Cr7 O0 2.029173 1_555
Cr7 O4 2.029835 1_555
Cr7 O2 2.029902 1_555
Co0 O10 2.005054 1_555
Co0 O14 2.005065 1_455
Co0 O12 2.005192 1_465
Co0 O9 2.007224 1_555
Co1 O11 1.998656 1_555
Co1 O15 1.998658 1_555
Co1 O13 1.998726 1_565
Co1 O8 1.999382 1_556
O0 Zn1 2.000964 1_545
O1 Zn0 2.002858 1_646
O2 Zn0 2.007459 1_645
O3 Zn1 2.000152 1_545
O4 Zn0 2.007519 1_555
O5 Zn1 2.000197 1_555
O6 Zn0 2.007451 1_545
O7 Zn1 2.000139 1_545
