# generated using pymatgen
data_V3S5
_symmetry_space_group_name_H-M   'P 1'
_cell_length_a   5.78974740
_cell_length_b   6.65895110
_cell_length_c   8.13838709
_cell_angle_alpha   71.78729600
_cell_angle_beta   110.15620171
_cell_angle_gamma   88.99276726
_symmetry_Int_Tables_number   1
_chemical_formula_structural   V3S5
_chemical_formula_sum   'V6 S10'
_cell_volume   277.01763136
_cell_formula_units_Z   2
loop_
 _symmetry_equiv_pos_site_id
 _symmetry_equiv_pos_as_xyz
  1  'x, y, z'
loop_
 _atom_site_type_symbol
 _atom_site_label
 _atom_site_symmetry_multiplicity
 _atom_site_fract_x
 _atom_site_fract_y
 _atom_site_fract_z
 _atom_site_occupancy
  V  V0  1  0.78111980  0.42221945  0.58227861  1
  V  V1  1  0.41888020  0.17778055  0.81772139  1
  V  V2  1  0.60000000  0.80000000  0.20000000  1
  V  V3  1  0.98574251  0.01566433  0.96950226  1
  V  V4  1  0.21425749  0.58433567  0.43049774  1
  V  V5  1  0.10000000  0.30000000  0.20000000  1
  S  S0  1  0.71894737  0.14894252  0.09840443  1
  S  S1  1  0.91092168  0.75000316  0.50042504  1
  S  S2  1  0.11420507  0.34936786  0.88956761  1
  S  S3  1  0.30406568  0.94132451  0.29176580  1
  S  S4  1  0.51784571  0.54704336  0.70471744  1
  S  S5  1  0.89593432  0.65867549  0.10823420  1
  S  S6  1  0.08579493  0.25063214  0.51043239  1
  S  S7  1  0.28907832  0.84999684  0.89957496  1
  S  S8  1  0.48105263  0.45105748  0.30159557  1
  S  S9  1  0.68215429  0.05295664  0.69528256  1
loop_
_geom_bond_atom_site_label_1
_geom_bond_atom_site_label_2
_geom_bond_distance
_geom_bond_site_symmetry_2
S0 V1 2.291787 1_554
S0 V2 2.409302 1_545
S0 V5 2.429718 1_655
S0 V3 2.434075 1_554
S1 V0 2.294885 1_555
S1 V4 2.374520 1_655
S1 V2 2.401288 1_555
S2 V3 2.324248 1_455
S2 V1 2.411773 1_555
S2 V0 2.468524 1_455
S2 V5 2.474392 1_556
S3 V2 2.375614 1_555
S3 V5 2.415749 1_565
S3 V4 2.442621 1_555
S3 V3 2.519029 1_464
S4 V4 2.250903 1_555
S4 V0 2.351003 1_555
S4 V1 2.493879 1_555
S5 V2 2.375614 1_555
S5 V5 2.415749 1_655
S5 V3 2.442621 1_564
S5 V4 2.519029 1_655
S6 V4 2.324248 1_555
S6 V0 2.411773 1_455
S6 V1 2.468524 1_555
S6 V5 2.474392 1_555
S7 V1 2.294885 1_565
S7 V3 2.374520 1_465
S7 V2 2.401288 1_556
S8 V0 2.291787 1_555
S8 V2 2.409302 1_555
S8 V5 2.429718 1_555
S8 V4 2.434075 1_555
S9 V3 2.250903 1_555
S9 V1 2.351003 1_555
S9 V0 2.493879 1_555
