# generated using pymatgen
data_Mn6BiPO12
_symmetry_space_group_name_H-M   'P 1'
_cell_length_a   6.95860248
_cell_length_b   6.95860248
_cell_length_c   6.95860248
_cell_angle_alpha   60.00000000
_cell_angle_beta   60.00000000
_cell_angle_gamma   60.00000000
_symmetry_Int_Tables_number   1
_chemical_formula_structural   Mn6BiPO12
_chemical_formula_sum   'Mn6 Bi1 P1 O12'
_cell_volume   238.25997090
_cell_formula_units_Z   1
loop_
 _symmetry_equiv_pos_site_id
 _symmetry_equiv_pos_as_xyz
  1  'x, y, z'
loop_
 _atom_site_type_symbol
 _atom_site_label
 _atom_site_symmetry_multiplicity
 _atom_site_fract_x
 _atom_site_fract_y
 _atom_site_fract_z
 _atom_site_occupancy
  Mn  Mn0  1  0.99603500  0.99603500  0.50396500  1
  Mn  Mn1  1  0.50396500  0.99603500  0.50396500  1
  Mn  Mn2  1  0.99603500  0.50396500  0.50396500  1
  Mn  Mn3  1  0.50396500  0.50396500  0.99603500  1
  Mn  Mn4  1  0.99603500  0.50396500  0.99603500  1
  Mn  Mn5  1  0.50396500  0.99603500  0.99603500  1
  Bi  Bi0  1  0.00000000  0.00000000  0.00000000  1
  P  P0  1  0.50000000  0.50000000  0.50000000  1
  O  O0  1  0.85755400  0.85755400  0.42733900  1
  O  O1  1  0.85755400  0.42733900  0.85755400  1
  O  O2  1  0.42733900  0.85755400  0.85755400  1
  O  O3  1  0.85755400  0.85755400  0.85755400  1
  O  O4  1  0.14560100  0.14560100  0.56319800  1
  O  O5  1  0.14560100  0.56319800  0.14560100  1
  O  O6  1  0.56319800  0.14560100  0.14560100  1
  O  O7  1  0.14560100  0.14560100  0.14560100  1
  O  O8  1  0.59079700  0.59079700  0.22760900  1
  O  O9  1  0.59079700  0.22760900  0.59079700  1
  O  O10  1  0.22760900  0.59079700  0.59079700  1
  O  O11  1  0.59079700  0.59079700  0.59079700  1
loop_
_geom_bond_atom_site_label_1
_geom_bond_atom_site_label_2
_geom_bond_distance
_geom_bond_site_symmetry_2
Mn0 O0 2.024284 1_555
Mn0 O3 2.024289 1_555
Mn0 O7 2.068199 1_665
Mn0 O4 2.068204 1_665
Mn0 O9 2.374729 1_565
Mn0 O10 2.374729 1_655
Mn1 O2 2.024289 1_555
Mn1 O0 2.024289 1_555
Mn1 O6 2.068198 1_565
Mn1 O4 2.068198 1_565
Mn1 O9 2.374729 1_565
Mn1 O11 2.374729 1_555
Mn2 O1 2.024289 1_555
Mn2 O0 2.024289 1_555
Mn2 O5 2.068198 1_655
Mn2 O4 2.068198 1_655
Mn2 O10 2.374729 1_655
Mn2 O11 2.374729 1_555
Mn3 O2 2.024289 1_555
Mn3 O1 2.024289 1_555
Mn3 O5 2.068198 1_556
Mn3 O6 2.068198 1_556
Mn3 O11 2.374729 1_555
Mn3 O8 2.374729 1_556
Mn4 O1 2.024284 1_555
Mn4 O3 2.024289 1_555
Mn4 O7 2.068199 1_656
Mn4 O5 2.068204 1_656
Mn4 O10 2.374729 1_655
Mn4 O8 2.374729 1_556
Mn5 O2 2.024284 1_555
Mn5 O3 2.024289 1_555
Mn5 O7 2.068199 1_566
Mn5 O6 2.068204 1_566
Mn5 O9 2.374729 1_565
Mn5 O8 2.374729 1_556
Bi0 O3 2.427996 1_444
Bi0 O2 2.428001 1_544
Bi0 O1 2.428001 1_454
Bi0 O0 2.428001 1_445
Bi0 O6 2.481767 1_455
Bi0 O5 2.481767 1_545
Bi0 O4 2.481767 1_554
Bi0 O7 2.481773 1_555
O8 P0 1.547637 1_555
O9 P0 1.547637 1_555
O10 P0 1.547637 1_555
O11 P0 1.547637 1_555
