# generated using pymatgen
data_K6Zn4Sn5S17
_symmetry_space_group_name_H-M   'P 1'
_cell_length_a   11.07256427
_cell_length_b   11.07256427
_cell_length_c   11.02569873
_cell_angle_alpha   78.61180081
_cell_angle_beta   78.61180081
_cell_angle_gamma   126.99769831
_symmetry_Int_Tables_number   1
_chemical_formula_structural   K6Zn4Sn5S17
_chemical_formula_sum   'K6 Zn4 Sn5 S17'
_cell_volume   968.14855097
_cell_formula_units_Z   1
loop_
 _symmetry_equiv_pos_site_id
 _symmetry_equiv_pos_as_xyz
  1  'x, y, z'
loop_
 _atom_site_type_symbol
 _atom_site_label
 _atom_site_symmetry_multiplicity
 _atom_site_fract_x
 _atom_site_fract_y
 _atom_site_fract_z
 _atom_site_occupancy
  K  K0  1  0.25030500  0.74969500  0.50000000  1
  K  K1  1  0.58350400  0.41649600  0.00000000  1
  K  K2  1  0.50840800  0.00404400  0.98179100  1
  K  K3  1  0.99595600  0.49159200  0.01820900  1
  K  K4  1  0.99064100  0.00935900  0.50000000  1
  K  K5  1  0.50837900  0.49162100  0.50000000  1
  Zn  Zn0  1  0.02505900  0.38680700  0.36209800  1
  Zn  Zn1  1  0.75042100  0.38762300  0.63653700  1
  Zn  Zn2  1  0.61319300  0.97494100  0.63790200  1
  Zn  Zn3  1  0.61237700  0.24957900  0.36346300  1
  Sn  Sn0  1  0.99885500  0.00114500  0.00000000  1
  Sn  Sn1  1  0.97411400  0.69620800  0.27657100  1
  Sn  Sn2  1  0.97180500  0.24879600  0.72305200  1
  Sn  Sn3  1  0.75120400  0.02819500  0.27694800  1
  Sn  Sn4  1  0.30379200  0.02588600  0.72342900  1
  S  S0  1  0.17131200  0.66450000  0.22239700  1
  S  S1  1  0.88624900  0.39491600  0.77854200  1
  S  S2  1  0.88625700  0.66427200  0.50686600  1
  S  S3  1  0.17133500  0.39498000  0.49362100  1
  S  S4  1  0.60502000  0.82866500  0.50637900  1
  S  S5  1  0.33572800  0.11374300  0.49313400  1
  S  S6  1  0.60508400  0.11375100  0.22145800  1
  S  S7  1  0.33550000  0.82868800  0.77760300  1
  S  S8  1  0.13969800  0.99605300  0.14355700  1
  S  S9  1  0.13950400  0.28317800  0.85605400  1
  S  S10  1  0.71682200  0.86049600  0.14394600  1
  S  S11  1  0.00394700  0.86030200  0.85644300  1
  S  S12  1  0.74186300  0.52098200  0.22099500  1
  S  S13  1  0.74307800  0.96460600  0.77925600  1
  S  S14  1  0.03539400  0.25692200  0.22074400  1
  S  S15  1  0.47901800  0.25813700  0.77900500  1
  S  S16  1  0.74997600  0.25002400  0.50000000  1
loop_
_geom_bond_atom_site_label_1
_geom_bond_atom_site_label_2
_geom_bond_distance
_geom_bond_site_symmetry_2
K0 S3 3.492216 1_555
K0 S4 3.492216 1_555
K0 S0 3.496797 1_555
K0 S7 3.496797 1_555
K0 S6 3.521470 1_565
K0 S1 3.521470 1_455
K0 S5 3.522966 1_565
K0 S2 3.522966 1_455
K1 S12 3.272478 1_555
K1 S15 3.272478 1_554
K2 S0 3.219555 1_546
K2 S6 3.228611 1_556
K2 S13 3.374662 1_545
K2 S7 3.384993 1_545
K2 S15 3.453348 1_555
K2 S1 3.454118 1_555
K3 S7 3.219555 1_654
K3 S1 3.228611 1_554
K3 S14 3.374662 1_655
K3 S0 3.384993 1_655
K3 S12 3.453348 1_555
K3 S6 3.454118 1_555
K4 S2 3.236901 1_545
K4 S5 3.236901 1_655
K4 S13 3.416032 1_545
K4 S14 3.416032 1_655
K4 S4 3.432672 1_545
K4 S3 3.432672 1_655
K5 S4 3.225586 1_555
K5 S3 3.225586 1_555
K5 S15 3.421297 1_555
K5 S12 3.421297 1_555
K5 S2 3.423759 1_555
K5 S5 3.423759 1_555
S0 Zn0 2.366630 1_555
S0 Sn1 2.395428 1_455
S1 Zn1 2.356595 1_555
S1 Sn2 2.428198 1_555
S2 Zn1 2.359174 1_555
S2 Sn1 2.403052 1_555
S3 Zn0 2.353144 1_555
S3 Sn2 2.402502 1_455
S4 Zn2 2.353144 1_555
S4 Sn3 2.402502 1_565
S5 Zn3 2.359174 1_555
S5 Sn4 2.403052 1_555
S6 Zn3 2.356595 1_555
S6 Sn3 2.428198 1_555
S7 Zn2 2.366630 1_555
S7 Sn4 2.395428 1_565
S8 Sn0 2.446606 1_465
S8 Sn1 2.494818 1_455
S9 Sn0 2.430964 1_456
S9 Sn2 2.487628 1_455
S10 Sn0 2.430964 1_565
S10 Sn3 2.487628 1_565
S11 Sn0 2.446606 1_466
S11 Sn4 2.494818 1_565
S12 Zn3 2.369521 1_555
S12 Sn1 2.416554 1_555
S13 Zn2 2.350151 1_555
S13 Sn2 2.391310 1_565
S14 Zn0 2.350151 1_555
S14 Sn3 2.391310 1_455
S15 Zn1 2.369521 1_555
S15 Sn4 2.416554 1_555
S16 Zn1 2.342487 1_555
S16 Zn3 2.342487 1_555
S16 Zn0 2.364855 1_655
S16 Zn2 2.364855 1_545
