# generated using pymatgen
data_LiTcH6O7
_symmetry_space_group_name_H-M   'P 1'
_cell_length_a   7.95206200
_cell_length_b   7.95206139
_cell_length_c   5.75632700
_cell_angle_alpha   90.00000000
_cell_angle_beta   90.00000000
_cell_angle_gamma   120.00000254
_symmetry_Int_Tables_number   1
_chemical_formula_structural   LiTcH6O7
_chemical_formula_sum   'Li2 Tc2 H12 O14'
_cell_volume   315.23581928
_cell_formula_units_Z   2
loop_
 _symmetry_equiv_pos_site_id
 _symmetry_equiv_pos_as_xyz
  1  'x, y, z'
loop_
 _atom_site_type_symbol
 _atom_site_label
 _atom_site_symmetry_multiplicity
 _atom_site_fract_x
 _atom_site_fract_y
 _atom_site_fract_z
 _atom_site_occupancy
  Li  Li0  1  0.00000000  0.00000000  0.10569500  1
  Li  Li1  1  0.00000000  0.00000000  0.60569500  1
  Tc  Tc0  1  0.66666700  0.33333300  0.40533100  1
  Tc  Tc1  1  0.33333300  0.66666700  0.90533100  1
  H  H0  1  0.26070500  0.32534500  0.34861500  1
  H  H1  1  0.06464000  0.73929500  0.34861500  1
  H  H2  1  0.67465500  0.93536000  0.34861500  1
  H  H3  1  0.06464000  0.32534500  0.34861500  1
  H  H4  1  0.67465500  0.73929500  0.34861500  1
  H  H5  1  0.26070500  0.93536000  0.34861500  1
  H  H6  1  0.73929500  0.67465500  0.84861500  1
  H  H7  1  0.93536000  0.26070500  0.84861500  1
  H  H8  1  0.32534500  0.06464000  0.84861500  1
  H  H9  1  0.93536000  0.67465500  0.84861500  1
  H  H10  1  0.32534500  0.26070500  0.84861500  1
  H  H11  1  0.73929500  0.06464000  0.84861500  1
  O  O0  1  0.66666700  0.33333300  0.70547700  1
  O  O1  1  0.33333300  0.66666700  0.20547700  1
  O  O2  1  0.54657300  0.09314600  0.30759700  1
  O  O3  1  0.54657300  0.45342700  0.30759700  1
  O  O4  1  0.90685400  0.45342700  0.30759700  1
  O  O5  1  0.45342700  0.90685400  0.80759700  1
  O  O6  1  0.45342700  0.54657300  0.80759700  1
  O  O7  1  0.09314600  0.54657300  0.80759700  1
  O  O8  1  0.11908600  0.23817200  0.35560600  1
  O  O9  1  0.11908600  0.88091400  0.35560600  1
  O  O10  1  0.76182800  0.88091400  0.35560600  1
  O  O11  1  0.88091400  0.76182800  0.85560600  1
  O  O12  1  0.88091400  0.11908600  0.85560600  1
  O  O13  1  0.23817200  0.11908600  0.85560600  1
loop_
_geom_bond_atom_site_label_1
_geom_bond_atom_site_label_2
_geom_bond_distance
_geom_bond_site_symmetry_2
Li0 O8 2.181694 1_555
Li0 O9 2.181695 1_545
Li0 O10 2.181695 1_445
Li0 O11 2.182370 1_444
Li0 O13 2.182370 1_554
Li0 O12 2.182370 1_454
Li1 O11 2.181694 1_445
Li1 O12 2.181695 1_455
Li1 O13 2.181695 1_555
Li1 O8 2.182370 1_555
Li1 O9 2.182370 1_545
Li1 O10 2.182370 1_445
H0 O8 0.984751 1_555
H1 O9 0.984751 1_555
H2 O10 0.984751 1_555
H3 O8 0.984751 1_555
H4 O10 0.984751 1_555
H5 O9 0.984751 1_555
H6 O11 0.984751 1_555
H7 O12 0.984751 1_555
H8 O13 0.984751 1_555
H9 O11 0.984751 1_555
H10 O13 0.984751 1_555
H11 O12 0.984751 1_555
O0 Tc0 1.727739 1_555
O1 Tc1 1.727739 1_554
O2 Tc0 1.747149 1_555
O3 Tc0 1.747155 1_555
O4 Tc0 1.747149 1_555
O5 Tc1 1.747149 1_555
O6 Tc1 1.747155 1_555
O7 Tc1 1.747149 1_555
