# generated using pymatgen
data_Na3CaAl3Si3CO15
_symmetry_space_group_name_H-M   'P 1'
_cell_length_a   12.12219800
_cell_length_b   12.12219850
_cell_length_c   5.75004700
_cell_angle_alpha   90.00000000
_cell_angle_beta   90.00000000
_cell_angle_gamma   120.00000335
_symmetry_Int_Tables_number   1
_chemical_formula_structural   Na3CaAl3Si3CO15
_chemical_formula_sum   'Na6 Ca2 Al6 Si6 C2 O30'
_cell_volume   731.75344611
_cell_formula_units_Z   2
loop_
 _symmetry_equiv_pos_site_id
 _symmetry_equiv_pos_as_xyz
  1  'x, y, z'
loop_
 _atom_site_type_symbol
 _atom_site_label
 _atom_site_symmetry_multiplicity
 _atom_site_fract_x
 _atom_site_fract_y
 _atom_site_fract_z
 _atom_site_occupancy
  Na  Na0  1  0.93514600  0.47416200  0.71951900  1
  Na  Na1  1  0.06485400  0.52583800  0.21951900  1
  Na  Na2  1  0.52583800  0.46098400  0.71951900  1
  Na  Na3  1  0.47416200  0.53901600  0.21951900  1
  Na  Na4  1  0.46098400  0.93514600  0.21951900  1
  Na  Na5  1  0.53901600  0.06485400  0.71951900  1
  Ca  Ca0  1  0.33333300  0.66666700  0.62489800  1
  Ca  Ca1  1  0.66666700  0.33333300  0.12489800  1
  Al  Al0  1  0.03688400  0.75014400  0.22966700  1
  Al  Al1  1  0.28674000  0.03688400  0.72966700  1
  Al  Al2  1  0.75014400  0.71326000  0.72966700  1
  Al  Al3  1  0.24985600  0.28674000  0.22966700  1
  Al  Al4  1  0.71326000  0.96311600  0.22966700  1
  Al  Al5  1  0.96311600  0.24985600  0.72966700  1
  Si  Si0  1  0.29200600  0.03730700  0.22979100  1
  Si  Si1  1  0.25469700  0.29200600  0.72979100  1
  Si  Si2  1  0.03730700  0.74530300  0.72979100  1
  Si  Si3  1  0.96269300  0.25469700  0.22979100  1
  Si  Si4  1  0.74530300  0.70799400  0.22979100  1
  Si  Si5  1  0.70799400  0.96269300  0.72979100  1
  C  C0  1  0.33333300  0.66666700  0.23048100  1
  C  C1  1  0.66666700  0.33333300  0.73048100  1
  O  O0  1  0.71656900  0.26068900  0.75309300  1
  O  O1  1  0.45588000  0.71656900  0.25309300  1
  O  O2  1  0.62365900  0.95865500  0.96657400  1
  O  O3  1  0.62241500  0.95750100  0.49290400  1
  O  O4  1  0.71483100  0.83441800  0.72903800  1
  O  O5  1  0.75255700  0.84432300  0.22767300  1
  O  O6  1  0.83441800  0.11958700  0.22903800  1
  O  O7  1  0.66491500  0.62241500  0.99290400  1
  O  O8  1  0.66500400  0.62365900  0.46657400  1
  O  O9  1  0.84432300  0.09176600  0.72767300  1
  O  O10  1  0.95865500  0.33499600  0.46657400  1
  O  O11  1  0.95750100  0.33508500  0.99290400  1
  O  O12  1  0.26068900  0.54412000  0.25309300  1
  O  O13  1  0.90823400  0.75255700  0.72767300  1
  O  O14  1  0.88041300  0.71483100  0.22903800  1
  O  O15  1  0.11958700  0.28516900  0.72903800  1
  O  O16  1  0.09176600  0.24744300  0.22767300  1
  O  O17  1  0.73931100  0.45588000  0.75309300  1
  O  O18  1  0.04249900  0.66491500  0.49290400  1
  O  O19  1  0.04134500  0.66500400  0.96657400  1
  O  O20  1  0.15567700  0.90823400  0.22767300  1
  O  O21  1  0.33499600  0.37634100  0.96657400  1
  O  O22  1  0.33508500  0.37758500  0.49290400  1
  O  O23  1  0.16558100  0.88041300  0.72903800  1
  O  O24  1  0.24744300  0.15567700  0.72767300  1
  O  O25  1  0.28516900  0.16558100  0.22903800  1
  O  O26  1  0.37758500  0.04249900  0.99290400  1
  O  O27  1  0.37634100  0.04134500  0.46657400  1
  O  O28  1  0.54412000  0.28343100  0.75309300  1
  O  O29  1  0.28343100  0.73931100  0.25309300  1
loop_
_geom_bond_atom_site_label_1
_geom_bond_atom_site_label_2
_geom_bond_distance
_geom_bond_site_symmetry_2
Na0 O17 2.279455 1_555
Na0 O10 2.350181 1_555
Na0 O18 2.393578 1_655
Na0 O11 2.417383 1_555
Na0 O19 2.459484 1_655
Na0 O0 2.626351 1_555
Na1 O12 2.279455 1_555
Na1 O19 2.350181 1_554
Na1 O11 2.393578 1_454
Na1 O18 2.417383 1_555
Na1 O10 2.459484 1_455
Na1 O29 2.626351 1_555
Na2 O28 2.279455 1_555
Na2 O8 2.350181 1_555
Na2 O22 2.393579 1_555
Na2 O7 2.417377 1_555
Na2 O21 2.459484 1_555
Na2 O17 2.626351 1_555
Na3 O1 2.279455 1_555
Na3 O21 2.350181 1_554
Na3 O7 2.393579 1_554
Na3 O22 2.417377 1_555
Na3 O8 2.459484 1_555
Na3 O12 2.626351 1_555
Na4 O29 2.279455 1_555
Na4 O2 2.350181 1_554
Na4 O26 2.393570 1_564
Na4 O3 2.417374 1_555
Na4 O27 2.459484 1_565
Na4 O1 2.626351 1_555
Na5 O0 2.279455 1_555
Na5 O27 2.350181 1_555
Na5 O3 2.393570 1_545
Na5 O26 2.417374 1_555
Na5 O2 2.459484 1_545
Na5 O28 2.626351 1_555
Ca0 O29 2.498938 1_555
Ca0 O12 2.498943 1_555
Ca0 O1 2.498944 1_555
Ca1 O0 2.498938 1_554
Ca1 O17 2.498943 1_554
Ca1 O28 2.498944 1_554
Al0 O14 1.723093 1_455
Al0 O20 1.728216 1_555
Al0 O19 1.847292 1_554
Al0 O18 1.852955 1_555
Al1 O23 1.723097 1_545
Al1 O24 1.728216 1_555
Al1 O27 1.847292 1_555
Al1 O26 1.852962 1_555
Al2 O4 1.723093 1_555
Al2 O13 1.728216 1_555
Al2 O8 1.847292 1_555
Al2 O7 1.852959 1_555
Al3 O25 1.723105 1_555
Al3 O16 1.728216 1_555
Al3 O21 1.847292 1_554
Al3 O22 1.852959 1_555
Al4 O6 1.723093 1_565
Al4 O5 1.728216 1_555
Al4 O2 1.847292 1_554
Al4 O3 1.852962 1_555
Al5 O15 1.723093 1_655
Al5 O9 1.728216 1_555
Al5 O10 1.847292 1_555
Al5 O11 1.852955 1_555
C0 O29 1.300384 1_555
C0 O12 1.300394 1_555
C0 O1 1.300395 1_555
C0 Ca0 2.267916 1_555
C1 O0 1.300384 1_555
C1 O17 1.300394 1_555
C1 O28 1.300395 1_555
C1 Ca1 2.267916 1_556
O2 Si5 1.688556 1_555
O3 Si5 1.694174 1_555
O4 Si5 1.598033 1_555
O5 Si4 1.610488 1_555
O6 Si3 1.598020 1_555
O7 Si4 1.694177 1_556
O8 Si4 1.688563 1_555
O9 Si5 1.610476 1_545
O10 Si3 1.688571 1_555
O11 Si3 1.694181 1_556
O13 Si2 1.610463 1_655
O14 Si4 1.598009 1_555
O15 Si1 1.598009 1_555
O16 Si3 1.610463 1_455
O18 Si2 1.694181 1_555
O19 Si2 1.688571 1_555
O20 Si0 1.610476 1_565
O21 Si1 1.688563 1_555
O22 Si1 1.694177 1_555
O23 Si2 1.598015 1_555
O24 Si1 1.610488 1_555
O25 Si0 1.598021 1_555
O26 Si0 1.694174 1_556
O27 Si0 1.688556 1_555
