# generated using pymatgen
data_Ca2MgAl2Si3O14
_symmetry_space_group_name_H-M   'P 1'
_cell_length_a   10.36366384
_cell_length_b   10.36366384
_cell_length_c   8.84267924
_cell_angle_alpha   83.16180520
_cell_angle_beta   83.16180520
_cell_angle_gamma   33.47638438
_symmetry_Int_Tables_number   1
_chemical_formula_structural   Ca2MgAl2Si3O14
_chemical_formula_sum   'Ca4 Mg2 Al4 Si6 O28'
_cell_volume   519.81207561
_cell_formula_units_Z   2
loop_
 _symmetry_equiv_pos_site_id
 _symmetry_equiv_pos_as_xyz
  1  'x, y, z'
loop_
 _atom_site_type_symbol
 _atom_site_label
 _atom_site_symmetry_multiplicity
 _atom_site_fract_x
 _atom_site_fract_y
 _atom_site_fract_z
 _atom_site_occupancy
  Ca  Ca0  1  0.65404500  0.65404500  0.31975300  1
  Ca  Ca1  1  0.34595500  0.34595500  0.68024700  1
  Ca  Ca2  1  0.84250300  0.84250300  0.25269900  1
  Ca  Ca3  1  0.15749700  0.15749700  0.74730100  1
  Mg  Mg0  1  0.50000000  0.00000000  0.00000000  1
  Mg  Mg1  1  0.00000000  0.50000000  0.00000000  1
  Al  Al0  1  0.73990900  0.25238100  0.24445400  1
  Al  Al1  1  0.26009100  0.74761900  0.75554600  1
  Al  Al2  1  0.74761900  0.26009100  0.75554600  1
  Al  Al3  1  0.25238100  0.73990900  0.24445400  1
  Si  Si0  1  0.40294500  0.40294500  0.03123600  1
  Si  Si1  1  0.59705500  0.59705500  0.96876400  1
  Si  Si2  1  0.91260500  0.91260500  0.55340900  1
  Si  Si3  1  0.08739500  0.08739500  0.44659100  1
  Si  Si4  1  0.75536900  0.75536900  0.65754000  1
  Si  Si5  1  0.24463100  0.24463100  0.34246000  1
  O  O0  1  0.63487700  0.20262300  0.14117900  1
  O  O1  1  0.36512300  0.79737700  0.85882100  1
  O  O2  1  0.79737700  0.36512300  0.85882100  1
  O  O3  1  0.20262300  0.63487700  0.14117900  1
  O  O4  1  0.67250300  0.67250300  0.02411200  1
  O  O5  1  0.32749700  0.32749700  0.97588800  1
  O  O6  1  0.97169000  0.97169000  0.86811800  1
  O  O7  1  0.02831000  0.02831000  0.13188200  1
  O  O8  1  0.69357100  0.69357100  0.55365500  1
  O  O9  1  0.30642900  0.30642900  0.44634500  1
  O  O10  1  0.47978700  0.01083600  0.24502800  1
  O  O11  1  0.52021300  0.98916400  0.75497200  1
  O  O12  1  0.98916400  0.52021300  0.75497200  1
  O  O13  1  0.01083600  0.47978700  0.24502800  1
  O  O14  1  0.45804100  0.45804100  0.36229200  1
  O  O15  1  0.54195900  0.54195900  0.63770800  1
  O  O16  1  0.29373100  0.84486600  0.35585900  1
  O  O17  1  0.70626900  0.15513400  0.64414100  1
  O  O18  1  0.15513400  0.70626900  0.64414100  1
  O  O19  1  0.84486600  0.29373100  0.35585900  1
  O  O20  1  0.94618100  0.94618100  0.37207600  1
  O  O21  1  0.05381900  0.05381900  0.62792400  1
  O  O22  1  0.82959200  0.82959200  0.53815700  1
  O  O23  1  0.17040800  0.17040800  0.46184300  1
  O  O24  1  0.54324700  0.54324700  0.12718100  1
  O  O25  1  0.45675300  0.45675300  0.87281900  1
  O  O26  1  0.81423600  0.81423600  0.01477800  1
  O  O27  1  0.18576400  0.18576400  0.98522200  1
loop_
_geom_bond_atom_site_label_1
_geom_bond_atom_site_label_2
_geom_bond_distance
_geom_bond_site_symmetry_2
Ca0 O8 2.301520 1_555
Ca0 O19 2.346055 1_555
Ca0 O16 2.346055 1_555
Ca0 O13 2.435783 1_655
Ca0 O10 2.435783 1_565
Ca0 O4 2.594302 1_555
Ca1 O9 2.301520 1_555
Ca1 O18 2.346055 1_555
Ca1 O17 2.346055 1_555
Ca1 O11 2.435783 1_545
Ca1 O12 2.435783 1_455
Ca1 O5 2.594302 1_555
Ca2 O26 2.243783 1_555
Ca2 O3 2.400704 1_655
Ca2 O0 2.400704 1_565
Ca2 O20 2.426837 1_555
Ca2 O13 2.504228 1_655
Ca2 O10 2.504228 1_565
Ca2 O22 2.505288 1_555
Ca3 O27 2.243783 1_555
Ca3 O2 2.400704 1_455
Ca3 O1 2.400704 1_545
Ca3 O21 2.426837 1_555
Ca3 O12 2.504228 1_455
Ca3 O11 2.504228 1_545
Ca3 O23 2.505288 1_555
Mg0 O26 1.977713 1_545
Mg0 O27 1.977713 1_554
Mg0 O5 2.134772 1_554
Mg0 O4 2.134772 1_545
Mg0 O10 2.159100 1_555
Mg0 O11 2.159100 1_544
Mg1 O26 1.977713 1_455
Mg1 O27 1.977713 1_554
Mg1 O5 2.134772 1_554
Mg1 O4 2.134772 1_455
Mg1 O13 2.159100 1_555
Mg1 O12 2.159100 1_454
Al0 O19 1.862955 1_555
Al0 O0 1.889456 1_555
Al0 O14 1.891892 1_555
Al0 O7 1.892119 1_655
Al0 O24 1.955969 1_555
Al0 O20 2.078085 1_545
Al1 O18 1.862955 1_555
Al1 O1 1.889456 1_555
Al1 O15 1.891892 1_555
Al1 O6 1.892119 1_455
Al1 O25 1.955969 1_555
Al1 O21 2.078085 1_565
Al2 O17 1.862955 1_555
Al2 O2 1.889456 1_555
Al2 O15 1.891892 1_555
Al2 O6 1.892119 1_545
Al2 O25 1.955969 1_555
Al2 O21 2.078085 1_655
Al3 O16 1.862955 1_555
Al3 O3 1.889456 1_555
Al3 O14 1.891892 1_555
Al3 O7 1.892119 1_565
Al3 O24 1.955969 1_555
Al3 O20 2.078085 1_455
O0 Si0 1.668509 1_555
O1 Si1 1.668509 1_555
O2 Si1 1.668509 1_555
O3 Si0 1.668509 1_555
O4 Si1 1.632340 1_554
O5 Si0 1.632340 1_556
O8 Si4 1.621328 1_555
O9 Si5 1.621328 1_555
O10 Si5 1.642773 1_555
O11 Si4 1.642773 1_555
O12 Si4 1.642773 1_555
O13 Si5 1.642773 1_555
O16 Si3 1.624590 1_565
O17 Si2 1.624590 1_545
O18 Si2 1.624590 1_455
O19 Si3 1.624590 1_655
O20 Si2 1.658174 1_555
O21 Si3 1.658174 1_555
O22 Si2 1.669875 1_555
O22 Si4 1.702405 1_555
O23 Si3 1.669875 1_555
O23 Si5 1.702405 1_555
O24 Si1 1.652573 1_554
O25 Si0 1.652573 1_556
