# generated using pymatgen
data_DyEr3
_symmetry_space_group_name_H-M   'P 1'
_cell_length_a   7.19994072
_cell_length_b   7.19995514
_cell_length_c   5.52986868
_cell_angle_alpha   90.00000242
_cell_angle_beta   89.99999685
_cell_angle_gamma   120.00004694
_symmetry_Int_Tables_number   1
_chemical_formula_structural   DyEr3
_chemical_formula_sum   'Dy2 Er6'
_cell_volume   248.25840189
_cell_formula_units_Z   2
loop_
 _symmetry_equiv_pos_site_id
 _symmetry_equiv_pos_as_xyz
  1  'x, y, z'
loop_
 _atom_site_type_symbol
 _atom_site_label
 _atom_site_symmetry_multiplicity
 _atom_site_fract_x
 _atom_site_fract_y
 _atom_site_fract_z
 _atom_site_occupancy
  Dy  Dy0  1  0.33333354  0.66666644  0.75000077  1
  Dy  Dy1  1  0.66666737  0.33333367  0.25000023  1
  Er  Er0  1  0.16624366  0.33248445  0.25000012  1
  Er  Er1  1  0.66751747  0.83375907  0.25000005  1
  Er  Er2  1  0.16624203  0.83375975  0.25000030  1
  Er  Er3  1  0.83375561  0.66751507  0.75000083  1
  Er  Er4  1  0.33248401  0.16624255  0.75000090  1
  Er  Er5  1  0.83375731  0.16624101  0.75000079  1
loop_
_geom_bond_atom_site_label_1
_geom_bond_atom_site_label_2
_geom_bond_distance
_geom_bond_site_symmetry_2
Dy0 Er0 3.462197 1_556
Dy0 Er1 3.462202 1_556
Dy0 Er0 3.462203 1_555
Dy0 Er1 3.462208 1_555
Dy0 Er2 3.462208 1_556
Dy0 Er2 3.462212 1_555
Dy0 Er3 3.599958 1_555
Dy0 Er5 3.599969 1_565
Dy0 Er4 3.599975 1_555
Dy0 Er5 3.599981 1_455
Dy0 Er4 3.599988 1_565
Dy0 Er3 3.599990 1_455
Dy1 Er3 3.462195 1_554
Dy1 Er5 3.462199 1_554
Dy1 Er4 3.462200 1_554
Dy1 Er3 3.462200 1_555
Dy1 Er5 3.462204 1_555
Dy1 Er4 3.462206 1_555
Dy1 Er0 3.599968 1_555
Dy1 Er2 3.599973 1_545
Dy1 Er2 3.599978 1_655
Dy1 Er1 3.599979 1_545
Dy1 Er0 3.599981 1_655
Dy1 Er1 3.599984 1_555
Er0 Er4 3.455828 1_554
Er0 Er4 3.455835 1_555
Er0 Er5 3.455842 1_454
Er0 Er5 3.455847 1_455
Er0 Er2 3.590790 1_545
Er0 Er1 3.590797 1_445
Er0 Er1 3.609146 1_555
Er0 Er2 3.609166 1_555
Er1 Er5 3.455827 1_564
Er1 Er3 3.455827 1_554
Er1 Er5 3.455834 1_565
Er1 Er3 3.455834 1_555
Er1 Er2 3.590785 1_655
Er1 Er2 3.609156 1_555
Er2 Er4 3.455831 1_564
Er2 Er4 3.455836 1_565
Er2 Er3 3.455842 1_454
Er2 Er3 3.455847 1_455
Er3 Er5 3.590798 1_565
Er3 Er4 3.590813 1_665
Er3 Er4 3.609130 1_555
Er3 Er5 3.609157 1_555
Er4 Er5 3.590797 1_455
Er4 Er5 3.609144 1_555
