# generated using pymatgen
data_Rb8Mo33S37
_symmetry_space_group_name_H-M   'P 1'
_cell_length_a   9.40981403
_cell_length_b   9.40476620
_cell_length_c   46.48011592
_cell_angle_alpha   84.19346390
_cell_angle_beta   84.22449994
_cell_angle_gamma   60.01774788
_symmetry_Int_Tables_number   1
_chemical_formula_structural   Rb8Mo33S37
_chemical_formula_sum   'Rb16 Mo66 S74'
_cell_volume   3538.63742157
_cell_formula_units_Z   2
loop_
 _symmetry_equiv_pos_site_id
 _symmetry_equiv_pos_as_xyz
  1  'x, y, z'
loop_
 _atom_site_type_symbol
 _atom_site_label
 _atom_site_symmetry_multiplicity
 _atom_site_fract_x
 _atom_site_fract_y
 _atom_site_fract_z
 _atom_site_occupancy
  Rb  Rb0  1  0.59330234  0.59322099  0.22024883  1
  Rb  Rb1  1  0.09330234  0.09322784  0.72024883  1
  Rb  Rb2  1  0.40669766  0.40677901  0.77975117  1
  Rb  Rb3  1  0.90669766  0.90677216  0.27975117  1
  Rb  Rb4  1  0.62631301  0.62635744  0.12096871  1
  Rb  Rb5  1  0.12631301  0.12636083  0.62096871  1
  Rb  Rb6  1  0.37368699  0.37364256  0.87903129  1
  Rb  Rb7  1  0.87368699  0.87363917  0.37903129  1
  Rb  Rb8  1  0.65940665  0.65942889  0.02174040  1
  Rb  Rb9  1  0.15940665  0.15942405  0.52174040  1
  Rb  Rb10  1  0.34059335  0.34057111  0.97825960  1
  Rb  Rb11  1  0.84059335  0.84057595  0.47825960  1
  Rb  Rb12  1  0.69480900  0.69480443  0.91555754  1
  Rb  Rb13  1  0.19480900  0.19482903  0.41555754  1
  Rb  Rb14  1  0.30519100  0.30519557  0.08444246  1
  Rb  Rb15  1  0.80519100  0.80517097  0.58444246  1
  Mo  Mo0  1  0.24111950  0.39404982  0.29979949  1
  Mo  Mo1  1  0.39436963  0.06478588  0.29982487  1
  Mo  Mo2  1  0.06492210  0.24094569  0.29986362  1
  Mo  Mo3  1  0.74111950  0.56503119  0.79979949  1
  Mo  Mo4  1  0.56492210  0.89426859  0.79986362  1
  Mo  Mo5  1  0.89436963  0.74101962  0.79982487  1
  Mo  Mo6  1  0.75888050  0.60595018  0.70020051  1
  Mo  Mo7  1  0.60563037  0.93521412  0.70017513  1
  Mo  Mo8  1  0.93507790  0.75905431  0.70013638  1
  Mo  Mo9  1  0.25888050  0.43496881  0.20020051  1
  Mo  Mo10  1  0.43507790  0.10573141  0.20013638  1
  Mo  Mo11  1  0.10563037  0.25898038  0.20017513  1
  Mo  Mo12  1  0.91622770  0.58387874  0.75004114  1
  Mo  Mo13  1  0.58377230  0.75014758  0.74995886  1
  Mo  Mo14  1  0.75000000  0.91640217  0.75000000  1
  Mo  Mo15  1  0.41622770  0.24985242  0.25004114  1
  Mo  Mo16  1  0.25000000  0.08359783  0.25000000  1
  Mo  Mo17  1  0.08377230  0.41612126  0.24995886  1
  Mo  Mo18  1  0.40671657  0.73031286  0.33041785  1
  Mo  Mo19  1  0.73024728  0.53274291  0.33041873  1
  Mo  Mo20  1  0.53265730  0.40674994  0.33043974  1
  Mo  Mo21  1  0.90671657  0.03255272  0.83041785  1
  Mo  Mo22  1  0.03265730  0.23015303  0.83043974  1
  Mo  Mo23  1  0.23024728  0.90659108  0.83041873  1
  Mo  Mo24  1  0.59328343  0.26968714  0.66958215  1
  Mo  Mo25  1  0.26975272  0.46725709  0.66958127  1
  Mo  Mo26  1  0.46734270  0.59325006  0.66956026  1
  Mo  Mo27  1  0.09328343  0.96744728  0.16958215  1
  Mo  Mo28  1  0.96734270  0.76984697  0.16956026  1
  Mo  Mo29  1  0.76975272  0.09340892  0.16958127  1
  Mo  Mo30  1  0.36629813  0.55908387  0.37965580  1
  Mo  Mo31  1  0.55911656  0.69509154  0.37967271  1
  Mo  Mo32  1  0.69500512  0.36625380  0.37967323  1
  Mo  Mo33  1  0.86629813  0.19496219  0.87965580  1
  Mo  Mo34  1  0.19500512  0.05906785  0.87967323  1
  Mo  Mo35  1  0.05911656  0.86611919  0.87967271  1
  Mo  Mo36  1  0.63370187  0.44091613  0.62034420  1
  Mo  Mo37  1  0.44088344  0.30490846  0.62032729  1
  Mo  Mo38  1  0.30499488  0.63374620  0.62032677  1
  Mo  Mo39  1  0.13370187  0.80503781  0.12034420  1
  Mo  Mo40  1  0.80499488  0.94093215  0.12032677  1
  Mo  Mo41  1  0.94088344  0.13388081  0.12032729  1
  Mo  Mo42  1  0.37128255  0.69816024  0.42743091  1
  Mo  Mo43  1  0.69809333  0.50324698  0.42744557  1
  Mo  Mo44  1  0.50319256  0.37118382  0.42742826  1
  Mo  Mo45  1  0.87128255  0.00312629  0.92743091  1
  Mo  Mo46  1  0.00319256  0.19819536  0.92742826  1
  Mo  Mo47  1  0.19809333  0.87121413  0.92744557  1
  Mo  Mo48  1  0.62871745  0.30183976  0.57256909  1
  Mo  Mo49  1  0.30190667  0.49675302  0.57255443  1
  Mo  Mo50  1  0.49680744  0.62881618  0.57257174  1
  Mo  Mo51  1  0.12871745  0.99687371  0.07256909  1
  Mo  Mo52  1  0.99680744  0.80180464  0.07257174  1
  Mo  Mo53  1  0.80190667  0.12878587  0.07255443  1
  Mo  Mo54  1  0.33420974  0.52922172  0.47614044  1
  Mo  Mo55  1  0.52928008  0.66046105  0.47614880  1
  Mo  Mo56  1  0.66038222  0.33414672  0.47615544  1
  Mo  Mo57  1  0.83420974  0.16042810  0.97614044  1
  Mo  Mo58  1  0.16038222  0.02931562  0.97615544  1
  Mo  Mo59  1  0.02928008  0.83411007  0.97614880  1
  Mo  Mo60  1  0.66579026  0.47077828  0.52385956  1
  Mo  Mo61  1  0.47071992  0.33953895  0.52385120  1
  Mo  Mo62  1  0.33961778  0.66585328  0.52384456  1
  Mo  Mo63  1  0.16579026  0.83957190  0.02385956  1
  Mo  Mo64  1  0.83961778  0.97068438  0.02384456  1
  Mo  Mo65  1  0.97071992  0.16588993  0.02385120  1
  S  S0  1  0.94320515  0.54258675  0.29495701  1
  S  S1  1  0.54275025  0.21908628  0.29498013  1
  S  S2  1  0.21924076  0.94315414  0.29496511  1
  S  S3  1  0.44320515  0.71925109  0.79495701  1
  S  S4  1  0.71924076  0.04263999  0.79496511  1
  S  S5  1  0.04275025  0.44318334  0.79498013  1
  S  S6  1  0.05679485  0.45741325  0.70504299  1
  S  S7  1  0.45724975  0.78091372  0.70501987  1
  S  S8  1  0.78075924  0.05684586  0.70503489  1
  S  S9  1  0.55679485  0.28074891  0.20504299  1
  S  S10  1  0.28075924  0.95736001  0.20503489  1
  S  S11  1  0.95724975  0.55681666  0.20501987  1
  S  S12  1  0.44666000  0.05358940  0.74995395  1
  S  S13  1  0.05334000  0.75020335  0.75004605  1
  S  S14  1  0.75000000  0.44665250  0.75000000  1
  S  S15  1  0.94666000  0.24979665  0.24995395  1
  S  S16  1  0.25000000  0.55334750  0.25000000  1
  S  S17  1  0.55334000  0.94641060  0.25004605  1
  S  S18  1  0.23042716  0.59683421  0.33412270  1
  S  S19  1  0.59677389  0.83871964  0.33413859  1
  S  S20  1  0.83859839  0.23049269  0.33415998  1
  S  S21  1  0.73042716  0.33861593  0.83412270  1
  S  S22  1  0.33859839  0.09674895  0.83415998  1
  S  S23  1  0.09677389  0.73036787  0.83413859  1
  S  S24  1  0.76957284  0.40316579  0.66587730  1
  S  S25  1  0.40322611  0.16128036  0.66586141  1
  S  S26  1  0.16140161  0.76950731  0.66584002  1
  S  S27  1  0.26957284  0.66138407  0.16587730  1
  S  S28  1  0.66140161  0.90325105  0.16584002  1
  S  S29  1  0.90322611  0.26963213  0.16586141  1
  S  S30  1  0.25505915  0.86053385  0.37912549  1
  S  S31  1  0.86044460  0.50546764  0.37915994  1
  S  S32  1  0.50541794  0.25490038  0.37913445  1
  S  S33  1  0.75505915  0.00528151  0.87912549  1
  S  S34  1  0.00541794  0.36054722  0.87913445  1
  S  S35  1  0.36044460  0.75492781  0.87915994  1
  S  S36  1  0.74494085  0.13946615  0.62087451  1
  S  S37  1  0.13955540  0.49453236  0.62084006  1
  S  S38  1  0.49458206  0.74509962  0.62086555  1
  S  S39  1  0.24494085  0.99471849  0.12087451  1
  S  S40  1  0.99458206  0.63945278  0.12086555  1
  S  S41  1  0.63955540  0.24507219  0.12084006  1
  S  S42  1  0.19838979  0.56498450  0.42801626  1
  S  S43  1  0.56504705  0.80875175  0.42803454  1
  S  S44  1  0.80853935  0.19826176  0.42804422  1
  S  S45  1  0.69838979  0.30860945  0.92801626  1
  S  S46  1  0.30853935  0.06515467  0.92804422  1
  S  S47  1  0.06504705  0.69816666  0.92803454  1
  S  S48  1  0.80161021  0.43501550  0.57198374  1
  S  S49  1  0.43495295  0.19124825  0.57196546  1
  S  S50  1  0.19146065  0.80173824  0.57195578  1
  S  S51  1  0.30161021  0.69139055  0.07198374  1
  S  S52  1  0.69146065  0.93484533  0.07195578  1
  S  S53  1  0.93495295  0.30183334  0.07196546  1
  S  S54  1  0.22430921  0.83392747  0.47575639  1
  S  S55  1  0.83379815  0.46614297  0.47579182  1
  S  S56  1  0.46608288  0.22411170  0.47576900  1
  S  S57  1  0.72430921  0.96600693  0.97575639  1
  S  S58  1  0.96608288  0.33403642  0.97576900  1
  S  S59  1  0.33379815  0.72426706  0.97579182  1
  S  S60  1  0.77569079  0.16607253  0.52424361  1
  S  S61  1  0.16620185  0.53385703  0.52420818  1
  S  S62  1  0.53391712  0.77588830  0.52423100  1
  S  S63  1  0.27569079  0.03399307  0.02424361  1
  S  S64  1  0.03391712  0.66596358  0.02423100  1
  S  S65  1  0.66620185  0.27573294  0.02420818  1
  S  S66  1  0.22036070  0.21990733  0.33982162  1
  S  S67  1  0.72036070  0.71991034  0.83982162  1
  S  S68  1  0.77963930  0.78009267  0.66017838  1
  S  S69  1  0.27963930  0.28008966  0.16017838  1
  S  S70  1  0.56992536  0.56991289  0.29029005  1
  S  S71  1  0.06992536  0.06987170  0.79029005  1
  S  S72  1  0.43007464  0.43008711  0.70970995  1
  S  S73  1  0.93007464  0.93012830  0.20970995  1
loop_
_geom_bond_atom_site_label_1
_geom_bond_atom_site_label_2
_geom_bond_distance
_geom_bond_site_symmetry_2
Rb0 S70 3.233349 1_555
Rb0 S9 3.275938 1_555
Rb0 S11 3.276574 1_555
Rb0 S10 3.277152 1_555
Rb0 S17 3.559587 1_555
Rb0 S15 3.561189 1_555
Rb0 S16 3.563031 1_555
Rb1 S71 3.233349 1_555
Rb1 S6 3.275938 1_555
Rb1 S7 3.276574 1_545
Rb1 S8 3.277152 1_455
Rb1 S13 3.559587 1_545
Rb1 S12 3.561189 1_555
Rb1 S14 3.563031 1_455
Rb2 S72 3.233349 1_555
Rb2 S3 3.275938 1_555
Rb2 S5 3.276574 1_555
Rb2 S4 3.277152 1_555
Rb2 S12 3.559587 1_555
Rb2 S13 3.561189 1_555
Rb2 S14 3.563031 1_555
Rb3 S73 3.233349 1_555
Rb3 S0 3.275938 1_555
Rb3 S1 3.276574 1_565
Rb3 S2 3.277152 1_655
Rb3 S15 3.559587 1_565
Rb3 S17 3.561189 1_555
Rb3 S16 3.563031 1_655
Rb4 S41 3.525880 1_555
Rb4 S40 3.528015 1_555
Rb4 S39 3.529099 1_555
Rb4 S28 3.652011 1_555
Rb4 S29 3.652358 1_555
Rb4 S27 3.654827 1_555
Rb4 S52 3.760602 1_555
Rb4 S51 3.760856 1_555
Rb4 S53 3.762133 1_555
Rb5 S37 3.525880 1_555
Rb5 S38 3.528015 1_545
Rb5 S36 3.529099 1_455
Rb5 S26 3.652011 1_545
Rb5 S25 3.652358 1_555
Rb5 S24 3.654827 1_455
Rb5 S50 3.760602 1_545
Rb5 S48 3.760856 1_455
Rb5 S49 3.762133 1_555
Rb6 S35 3.525880 1_555
Rb6 S34 3.528015 1_555
Rb6 S33 3.529099 1_555
Rb6 S22 3.652011 1_555
Rb6 S23 3.652358 1_555
Rb6 S21 3.654827 1_555
Rb6 S46 3.760602 1_555
Rb6 S45 3.760856 1_555
Rb6 S47 3.762133 1_555
Rb7 S31 3.525880 1_555
Rb7 S32 3.528015 1_565
Rb7 S30 3.529099 1_655
Rb7 S20 3.652011 1_565
Rb7 S19 3.652358 1_555
Rb7 S18 3.654827 1_655
Rb7 S44 3.760602 1_565
Rb7 S42 3.760856 1_655
Rb7 S43 3.762133 1_555
Rb8 S65 3.567371 1_555
Rb8 S64 3.568793 1_655
Rb8 S63 3.570132 1_565
Rb8 S57 3.674901 1_554
Rb8 S59 3.675152 1_554
Rb8 S58 3.676156 1_554
Rb8 S52 3.793902 1_555
Rb8 S53 3.794383 1_555
Rb8 S51 3.798356 1_555
Rb9 S61 3.567372 1_555
Rb9 S62 3.568793 1_545
Rb9 S60 3.570132 1_455
Rb9 S54 3.674901 1_545
Rb9 S55 3.675152 1_455
Rb9 S56 3.676156 1_555
Rb9 S50 3.793902 1_545
Rb9 S49 3.794383 1_555
Rb9 S48 3.798356 1_455
Rb10 S59 3.567371 1_555
Rb10 S58 3.568793 1_455
Rb10 S57 3.570132 1_545
Rb10 S63 3.674901 1_556
Rb10 S65 3.675152 1_556
Rb10 S64 3.676156 1_556
Rb10 S46 3.793902 1_555
Rb10 S47 3.794383 1_555
Rb10 S45 3.798356 1_555
Rb11 S55 3.567372 1_555
Rb11 S56 3.568793 1_565
Rb11 S54 3.570132 1_655
Rb11 S60 3.674901 1_565
Rb11 S61 3.675152 1_655
Rb11 S62 3.676156 1_555
Rb11 S44 3.793902 1_565
Rb11 S43 3.794383 1_555
Rb11 S42 3.798356 1_655
Rb12 S33 3.489408 1_565
Rb12 S35 3.490079 1_555
Rb12 S34 3.491249 1_655
Rb12 S67 3.496239 1_555
Rb12 S45 3.603397 1_555
Rb12 S47 3.604875 1_655
Rb12 S46 3.607085 1_565
Rb13 S30 3.489408 1_545
Rb13 S31 3.490079 1_455
Rb13 S32 3.491249 1_555
Rb13 S66 3.496239 1_555
Rb13 S42 3.603397 1_555
Rb13 S43 3.604876 1_545
Rb13 S44 3.607085 1_455
Rb14 S39 3.489408 1_545
Rb14 S41 3.490079 1_555
Rb14 S40 3.491249 1_455
Rb14 S69 3.496239 1_555
Rb14 S51 3.603397 1_555
Rb14 S53 3.604875 1_455
Rb14 S52 3.607085 1_545
Rb15 S36 3.489408 1_565
Rb15 S37 3.490079 1_655
Rb15 S38 3.491249 1_555
Rb15 S68 3.496239 1_555
Rb15 S48 3.603397 1_555
Rb15 S49 3.604876 1_565
Rb15 S50 3.607085 1_655
Mo0 S66 2.410616 1_555
Mo0 S0 2.451550 1_455
Mo0 S1 2.468289 1_555
Mo0 S18 2.565927 1_555
Mo0 S16 2.644572 1_555
Mo1 S66 2.411249 1_555
Mo1 S1 2.449839 1_555
Mo1 S2 2.467089 1_545
Mo1 S19 2.563113 1_545
Mo1 S17 2.643967 1_545
Mo2 S66 2.410602 1_555
Mo2 S2 2.449889 1_545
Mo2 S0 2.466951 1_455
Mo2 S20 2.565261 1_455
Mo2 S15 2.648532 1_455
Mo3 S67 2.410616 1_555
Mo3 S3 2.451550 1_555
Mo3 S5 2.468289 1_655
Mo3 S21 2.565927 1_555
Mo3 S14 2.644572 1_555
Mo4 S67 2.410602 1_555
Mo4 S4 2.449889 1_565
Mo4 S3 2.466951 1_555
Mo4 S22 2.565261 1_565
Mo4 S12 2.648532 1_565
Mo5 S67 2.411249 1_555
Mo5 S5 2.449839 1_655
Mo5 S4 2.467090 1_565
Mo5 S23 2.563113 1_655
Mo5 S13 2.643967 1_655
Mo6 S68 2.410616 1_555
Mo6 S6 2.451550 1_655
Mo6 S7 2.468289 1_555
Mo6 S24 2.565927 1_555
Mo6 S14 2.644572 1_555
Mo7 S68 2.411249 1_555
Mo7 S7 2.449839 1_555
Mo7 S8 2.467089 1_565
Mo7 S25 2.563113 1_565
Mo7 S12 2.643967 1_565
Mo8 S68 2.410602 1_555
Mo8 S8 2.449889 1_565
Mo8 S6 2.466951 1_655
Mo8 S26 2.565261 1_655
Mo8 S13 2.648532 1_655
Mo9 S69 2.410616 1_555
Mo9 S9 2.451550 1_555
Mo9 S11 2.468289 1_455
Mo9 S27 2.565927 1_555
Mo9 S16 2.644572 1_555
Mo10 S69 2.410602 1_555
Mo10 S10 2.449889 1_545
Mo10 S9 2.466951 1_555
Mo10 S28 2.565261 1_545
Mo10 S17 2.648532 1_545
Mo11 S69 2.411249 1_555
Mo11 S11 2.449839 1_455
Mo11 S10 2.467090 1_545
Mo11 S29 2.563113 1_455
Mo11 S15 2.643967 1_455
Mo12 S5 2.428581 1_655
Mo12 S6 2.431632 1_655
Mo12 S13 2.475625 1_655
Mo12 S14 2.476074 1_555
Mo13 S7 2.428581 1_555
Mo13 S3 2.431632 1_555
Mo13 S12 2.475625 1_565
Mo13 S14 2.476074 1_555
Mo14 S8 2.428623 1_565
Mo14 S4 2.428623 1_565
Mo14 S12 2.476287 1_565
Mo14 S13 2.476287 1_655
Mo15 S1 2.428581 1_555
Mo15 S9 2.431632 1_555
Mo15 S17 2.475625 1_545
Mo15 S16 2.476074 1_555
Mo16 S2 2.428623 1_545
Mo16 S10 2.428623 1_545
Mo16 S17 2.476287 1_545
Mo16 S15 2.476287 1_455
Mo17 S11 2.428581 1_455
Mo17 S0 2.431632 1_455
Mo17 S15 2.475625 1_455
Mo17 S16 2.476074 1_555
Mo18 S70 2.406303 1_555
Mo18 S19 2.487580 1_555
Mo18 S2 2.494526 1_555
Mo18 S18 2.517413 1_555
Mo18 S30 2.612625 1_555
Mo19 S70 2.405055 1_555
Mo19 S20 2.487790 1_555
Mo19 S0 2.496142 1_555
Mo19 S19 2.516515 1_555
Mo19 S31 2.612690 1_555
Mo20 S70 2.405610 1_555
Mo20 S18 2.489113 1_555
Mo20 S1 2.496000 1_555
Mo20 S20 2.517559 1_555
Mo20 S32 2.612079 1_555
Mo21 S71 2.406303 1_655
Mo21 S23 2.487581 1_645
Mo21 S4 2.494526 1_555
Mo21 S21 2.517414 1_555
Mo21 S33 2.612625 1_555
Mo22 S71 2.405610 1_555
Mo22 S21 2.489113 1_455
Mo22 S5 2.495999 1_555
Mo22 S22 2.517559 1_555
Mo22 S34 2.612079 1_555
Mo23 S71 2.405055 1_565
Mo23 S22 2.487790 1_565
Mo23 S3 2.496142 1_555
Mo23 S23 2.516515 1_555
Mo23 S35 2.612690 1_555
Mo24 S72 2.406303 1_555
Mo24 S25 2.487580 1_555
Mo24 S8 2.494526 1_555
Mo24 S24 2.517413 1_555
Mo24 S36 2.612625 1_555
Mo25 S72 2.405055 1_555
Mo25 S26 2.487790 1_555
Mo25 S6 2.496142 1_555
Mo25 S25 2.516515 1_555
Mo25 S37 2.612690 1_555
Mo26 S72 2.405610 1_555
Mo26 S24 2.489113 1_555
Mo26 S7 2.496000 1_555
Mo26 S26 2.517559 1_555
Mo26 S38 2.612079 1_555
Mo27 S73 2.406303 1_455
Mo27 S29 2.487581 1_465
Mo27 S10 2.494526 1_555
Mo27 S27 2.517414 1_555
Mo27 S39 2.612625 1_555
Mo28 S73 2.405610 1_555
Mo28 S27 2.489113 1_655
Mo28 S11 2.495999 1_555
Mo28 S28 2.517559 1_555
Mo28 S40 2.612079 1_555
Mo29 S73 2.405055 1_545
Mo29 S28 2.487790 1_545
Mo29 S9 2.496142 1_555
Mo29 S29 2.516515 1_555
Mo29 S41 2.612690 1_555
Mo30 S30 2.481722 1_555
Mo30 S32 2.482534 1_555
Mo30 S18 2.485682 1_555
Mo30 S42 2.602858 1_555
Mo31 S31 2.482292 1_555
Mo31 S30 2.482925 1_555
Mo31 S19 2.485653 1_555
Mo31 S43 2.601867 1_555
Mo32 S32 2.482242 1_555
Mo32 S31 2.482253 1_555
Mo32 S20 2.485573 1_555
Mo32 S44 2.601923 1_555
Mo33 S33 2.481722 1_555
Mo33 S34 2.482534 1_655
Mo33 S21 2.485682 1_555
Mo33 S45 2.602858 1_555
Mo34 S34 2.482242 1_555
Mo34 S35 2.482253 1_545
Mo34 S22 2.485573 1_555
Mo34 S46 2.601923 1_555
Mo35 S35 2.482292 1_555
Mo35 S33 2.482925 1_465
Mo35 S23 2.485653 1_555
Mo35 S47 2.601867 1_555
Mo36 S36 2.481722 1_555
Mo36 S38 2.482534 1_555
Mo36 S24 2.485682 1_555
Mo36 S48 2.602858 1_555
Mo37 S37 2.482292 1_555
Mo37 S36 2.482925 1_555
Mo37 S25 2.485653 1_555
Mo37 S49 2.601867 1_555
Mo38 S38 2.482242 1_555
Mo38 S37 2.482253 1_555
Mo38 S26 2.485573 1_555
Mo38 S50 2.601923 1_555
Mo39 S39 2.481722 1_555
Mo39 S40 2.482534 1_455
Mo39 S27 2.485682 1_555
Mo39 S51 2.602858 1_555
Mo40 S40 2.482242 1_555
Mo40 S41 2.482253 1_565
Mo40 S28 2.485573 1_555
Mo40 S52 2.601923 1_555
Mo41 S41 2.482292 1_555
Mo41 S39 2.482925 1_645
Mo41 S29 2.485653 1_555
Mo41 S53 2.601867 1_555
Mo42 S42 2.497397 1_555
Mo42 S43 2.513664 1_555
Mo42 S30 2.588513 1_555
Mo42 S54 2.603557 1_555
Mo43 S43 2.497450 1_555
Mo43 S44 2.513642 1_555
Mo43 S31 2.589135 1_555
Mo43 S55 2.602983 1_555
Mo44 S44 2.497626 1_555
Mo44 S42 2.513665 1_555
Mo44 S32 2.588337 1_555
Mo44 S56 2.603766 1_555
Mo45 S45 2.497397 1_555
Mo45 S47 2.513665 1_645
Mo45 S33 2.588513 1_555
Mo45 S57 2.603556 1_545
Mo46 S46 2.497626 1_555
Mo46 S45 2.513664 1_455
Mo46 S34 2.588337 1_555
Mo46 S58 2.603766 1_455
Mo47 S47 2.497450 1_555
Mo47 S46 2.513642 1_565
Mo47 S35 2.589135 1_555
Mo47 S59 2.602983 1_555
Mo48 S48 2.497397 1_555
Mo48 S49 2.513664 1_555
Mo48 S36 2.588513 1_555
Mo48 S60 2.603557 1_555
Mo49 S49 2.497450 1_555
Mo49 S50 2.513642 1_555
Mo49 S37 2.589135 1_555
Mo49 S61 2.602983 1_555
Mo50 S50 2.497626 1_555
Mo50 S48 2.513665 1_555
Mo50 S38 2.588337 1_555
Mo50 S62 2.603766 1_555
Mo51 S51 2.497397 1_555
Mo51 S53 2.513665 1_465
Mo51 S39 2.588513 1_555
Mo51 S63 2.603556 1_565
Mo52 S52 2.497626 1_555
Mo52 S51 2.513664 1_655
Mo52 S40 2.588337 1_555
Mo52 S64 2.603766 1_655
Mo53 S53 2.497450 1_555
Mo53 S52 2.513642 1_545
Mo53 S41 2.589135 1_555
Mo53 S65 2.602983 1_555
Mo54 S56 2.494187 1_555
Mo54 S54 2.512639 1_555
Mo54 S61 2.594763 1_555
Mo54 S42 2.596799 1_555
Mo55 S54 2.494485 1_555
Mo55 S55 2.512697 1_555
Mo55 S62 2.594773 1_555
Mo55 S43 2.597335 1_555
Mo56 S55 2.493791 1_555
Mo56 S56 2.513046 1_555
Mo56 S60 2.594378 1_555
Mo56 S44 2.597606 1_555
Mo57 S58 2.494187 1_555
Mo57 S57 2.512639 1_545
Mo57 S65 2.594763 1_556
Mo57 S45 2.596800 1_555
Mo58 S59 2.493791 1_545
Mo58 S58 2.513046 1_455
Mo58 S63 2.594378 1_556
Mo58 S46 2.597606 1_555
Mo59 S57 2.494485 1_455
Mo59 S59 2.512697 1_555
Mo59 S64 2.594773 1_556
Mo59 S47 2.597335 1_555
Mo60 S62 2.494187 1_555
Mo60 S60 2.512639 1_555
Mo60 S55 2.594763 1_555
Mo60 S48 2.596799 1_555
Mo61 S60 2.494485 1_555
Mo61 S61 2.512697 1_555
Mo61 S56 2.594773 1_555
Mo61 S49 2.597335 1_555
Mo62 S61 2.493791 1_555
Mo62 S62 2.513046 1_555
Mo62 S54 2.594378 1_555
Mo62 S50 2.597606 1_555
Mo63 S64 2.494187 1_555
Mo63 S63 2.512639 1_565
Mo63 S59 2.594763 1_554
Mo63 S51 2.596800 1_555
Mo64 S65 2.493791 1_565
Mo64 S64 2.513046 1_655
Mo64 S57 2.594378 1_554
Mo64 S52 2.597606 1_555
Mo65 S63 2.494485 1_655
Mo65 S65 2.512697 1_555
Mo65 S58 2.594773 1_554
Mo65 S53 2.597335 1_555
