# generated using pymatgen
data_GaFe7N2
_symmetry_space_group_name_H-M   'P 1'
_cell_length_a   5.23007005
_cell_length_b   5.23007005
_cell_length_c   5.23007005
_cell_angle_alpha   60.00000000
_cell_angle_beta   60.00000000
_cell_angle_gamma   60.00000000
_symmetry_Int_Tables_number   1
_chemical_formula_structural   GaFe7N2
_chemical_formula_sum   'Ga1 Fe7 N2'
_cell_volume   101.15969701
_cell_formula_units_Z   1
loop_
 _symmetry_equiv_pos_site_id
 _symmetry_equiv_pos_as_xyz
  1  'x, y, z'
loop_
 _atom_site_type_symbol
 _atom_site_label
 _atom_site_symmetry_multiplicity
 _atom_site_fract_x
 _atom_site_fract_y
 _atom_site_fract_z
 _atom_site_occupancy
  Ga  Ga0  1  0.00000000  0.00000000  0.00000000  1
  Fe  Fe0  1  0.50000000  0.00000000  0.00000000  1
  Fe  Fe1  1  0.00000000  0.50000000  0.50000000  1
  Fe  Fe2  1  0.00000000  0.00000000  0.50000000  1
  Fe  Fe3  1  0.50000000  0.50000000  0.00000000  1
  Fe  Fe4  1  0.00000000  0.50000000  0.00000000  1
  Fe  Fe5  1  0.50000000  0.00000000  0.50000000  1
  Fe  Fe6  1  0.50000000  0.50000000  0.50000000  1
  N  N0  1  0.25000000  0.25000000  0.25000000  1
  N  N1  1  0.75000000  0.75000000  0.75000000  1
loop_
_geom_bond_atom_site_label_1
_geom_bond_atom_site_label_2
_geom_bond_distance
_geom_bond_site_symmetry_2
Fe0 N0 1.849109 1_555
Fe0 N1 1.849109 1_544
Fe0 Fe6 2.615035 1_554
Fe0 Ga0 2.615035 1_655
Fe0 Ga0 2.615035 1_555
Fe0 Fe6 2.615035 1_545
Fe1 N0 1.849109 1_555
Fe1 N1 1.849109 1_455
Fe1 Ga0 2.615035 1_556
Fe1 Ga0 2.615035 1_565
Fe1 Fe6 2.615035 1_555
Fe1 Fe6 2.615035 1_455
Fe2 N0 1.849109 1_555
Fe2 N1 1.849109 1_445
Fe2 Ga0 2.615035 1_556
Fe2 Ga0 2.615035 1_555
Fe2 Fe6 2.615035 1_545
Fe2 Fe6 2.615035 1_455
Fe3 N0 1.849109 1_555
Fe3 N1 1.849109 1_554
Fe3 Ga0 2.615035 1_655
Fe3 Fe6 2.615035 1_554
Fe3 Ga0 2.615035 1_565
Fe3 Fe6 2.615035 1_555
Fe4 N1 1.849109 1_454
Fe4 N0 1.849109 1_555
Fe4 Fe6 2.615035 1_554
Fe4 Ga0 2.615035 1_565
Fe4 Ga0 2.615035 1_555
Fe4 Fe6 2.615035 1_455
Fe5 N0 1.849109 1_555
Fe5 N1 1.849109 1_545
Fe5 Ga0 2.615035 1_556
Fe5 Ga0 2.615035 1_655
Fe5 Fe6 2.615035 1_555
Fe5 Fe6 2.615035 1_545
