# generated using pymatgen
data_Li7Mn2(CoO4)3
_symmetry_space_group_name_H-M   'P 1'
_cell_length_a   2.93812175
_cell_length_b   2.93812175
_cell_length_c   29.24988900
_cell_angle_alpha   90.00000000
_cell_angle_beta   90.00000000
_cell_angle_gamma   119.99999432
_symmetry_Int_Tables_number   1
_chemical_formula_structural   Li7Mn2(CoO4)3
_chemical_formula_sum   'Li7 Mn2 Co3 O12'
_cell_volume   218.67264318
_cell_formula_units_Z   1
loop_
 _symmetry_equiv_pos_site_id
 _symmetry_equiv_pos_as_xyz
  1  'x, y, z'
loop_
 _atom_site_type_symbol
 _atom_site_label
 _atom_site_symmetry_multiplicity
 _atom_site_fract_x
 _atom_site_fract_y
 _atom_site_fract_z
 _atom_site_occupancy
  Li  Li0  1  0.66666700  0.33333300  0.08016100  1
  Li  Li1  1  0.00000000  0.00000000  0.25532300  1
  Li  Li2  1  0.33333300  0.66666700  0.41972300  1
  Li  Li3  1  0.66666700  0.33333300  0.58027700  1
  Li  Li4  1  0.00000000  0.00000000  0.74467700  1
  Li  Li5  1  0.33333300  0.66666700  0.91983900  1
  Li  Li6  1  0.00000000  0.00000000  0.50000000  1
  Mn  Mn0  1  0.66666700  0.33333300  0.83337700  1
  Mn  Mn1  1  0.33333300  0.66666700  0.16662300  1
  Co  Co0  1  0.00000000  0.00000000  0.00000000  1
  Co  Co1  1  0.66666700  0.33333300  0.33392000  1
  Co  Co2  1  0.33333300  0.66666700  0.66608000  1
  O  O0  1  0.66666700  0.33333300  0.20402900  1
  O  O1  1  0.00000000  0.00000000  0.36983200  1
  O  O2  1  0.33333300  0.66666700  0.54253400  1
  O  O3  1  0.66666700  0.33333300  0.70567800  1
  O  O4  1  0.00000000  0.00000000  0.87220400  1
  O  O5  1  0.33333300  0.66666700  0.03420000  1
  O  O6  1  0.66666700  0.33333300  0.96580000  1
  O  O7  1  0.00000000  0.00000000  0.12779600  1
  O  O8  1  0.33333300  0.66666700  0.29432200  1
  O  O9  1  0.66666700  0.33333300  0.45746600  1
  O  O10  1  0.00000000  0.00000000  0.63016800  1
  O  O11  1  0.33333300  0.66666700  0.79597100  1
loop_
_geom_bond_atom_site_label_1
_geom_bond_atom_site_label_2
_geom_bond_distance
_geom_bond_site_symmetry_2
Li0 O5 2.164440 1_655
Li0 O5 2.164440 1_545
Li0 O5 2.164444 1_555
Li0 O7 2.195188 1_655
Li0 O7 2.195190 1_555
Li0 O7 2.195190 1_665
Li1 O8 2.044199 1_545
Li1 O8 2.044201 1_555
Li1 O8 2.044201 1_445
Li1 O0 2.264629 1_455
Li1 O0 2.264631 1_555
Li1 O0 2.264631 1_445
Li2 O9 2.023928 1_455
Li2 O9 2.023928 1_565
Li2 O9 2.023932 1_555
Li2 O1 2.237652 1_565
Li2 O1 2.237654 1_555
Li2 O1 2.237654 1_665
Li3 O2 2.023928 1_545
Li3 O2 2.023928 1_655
Li3 O2 2.023932 1_555
Li3 O10 2.237652 1_655
Li3 O10 2.237654 1_665
Li3 O10 2.237654 1_555
Li4 O3 2.044199 1_455
Li4 O3 2.044201 1_445
Li4 O3 2.044201 1_555
Li4 O11 2.264629 1_545
Li4 O11 2.264631 1_445
Li4 O11 2.264631 1_555
Li5 O6 2.164440 1_455
Li5 O6 2.164440 1_565
Li5 O6 2.164444 1_555
Li5 O4 2.195188 1_565
Li5 O4 2.195190 1_555
Li5 O4 2.195190 1_665
Li6 O2 2.103648 1_545
Li6 O9 2.103648 1_455
Li6 O2 2.103650 1_555
Li6 O2 2.103650 1_445
Li6 O9 2.103650 1_445
Li6 O9 2.103650 1_555
Mn0 O11 2.018568 1_545
Mn0 O11 2.018568 1_655
Mn0 O11 2.018572 1_555
Mn0 O4 2.041395 1_655
Mn0 O4 2.041398 1_555
Mn0 O4 2.041398 1_665
Mn1 O0 2.018568 1_455
Mn1 O0 2.018568 1_565
Mn1 O0 2.018572 1_555
Mn1 O7 2.041395 1_565
Mn1 O7 2.041398 1_555
Mn1 O7 2.041398 1_665
Co0 O5 1.969316 1_545
Co0 O6 1.969316 1_454
Co0 O5 1.969319 1_555
Co0 O5 1.969319 1_445
Co0 O6 1.969319 1_554
Co0 O6 1.969319 1_444
Co1 O1 1.995219 1_655
Co1 O1 1.995222 1_665
Co1 O1 1.995222 1_555
Co1 O8 2.054027 1_545
Co1 O8 2.054027 1_655
Co1 O8 2.054031 1_555
Co2 O10 1.995219 1_565
Co2 O10 1.995222 1_555
Co2 O10 1.995222 1_665
Co2 O3 2.054027 1_455
Co2 O3 2.054027 1_565
Co2 O3 2.054031 1_555
