# generated using pymatgen
data_TeMoWSeS2
_symmetry_space_group_name_H-M   'P 1'
_cell_length_a   3.30841437
_cell_length_b   3.30841437
_cell_length_c   37.73810400
_cell_angle_alpha   90.00000000
_cell_angle_beta   90.00000000
_cell_angle_gamma   120.00000744
_symmetry_Int_Tables_number   1
_chemical_formula_structural   TeMoWSeS2
_chemical_formula_sum   'Te2 Mo2 W2 Se2 S4'
_cell_volume   357.72597306
_cell_formula_units_Z   2
loop_
 _symmetry_equiv_pos_site_id
 _symmetry_equiv_pos_as_xyz
  1  'x, y, z'
loop_
 _atom_site_type_symbol
 _atom_site_label
 _atom_site_symmetry_multiplicity
 _atom_site_fract_x
 _atom_site_fract_y
 _atom_site_fract_z
 _atom_site_occupancy
  Te  Te0  1  0.33333300  0.66666700  0.41872100  1
  Te  Te1  1  0.33333300  0.66666700  0.52057000  1
  Mo  Mo0  1  0.00000000  0.00000000  0.09393100  1
  Mo  Mo1  1  0.33333300  0.66666700  0.65757300  1
  W  W0  1  0.00000000  0.00000000  0.46963600  1
  W  W1  1  0.33333300  0.66666700  0.28177500  1
  Se  Se0  1  0.00000000  0.00000000  0.70189500  1
  Se  Se1  1  0.00000000  0.00000000  0.61321300  1
  S  S0  1  0.00000000  0.00000000  0.32240000  1
  S  S1  1  0.33333300  0.66666700  0.05337000  1
  S  S2  1  0.33333300  0.66666700  0.13449100  1
  S  S3  1  0.00000000  0.00000000  0.24117200  1
loop_
_geom_bond_atom_site_label_1
_geom_bond_atom_site_label_2
_geom_bond_distance
_geom_bond_site_symmetry_2
Te0 W0 2.709325 1_565
Te0 W0 2.709327 1_665
Te0 W0 2.709327 1_555
Te1 W0 2.709834 1_565
Te1 W0 2.709836 1_665
Te1 W0 2.709836 1_555
Mo0 S2 2.447742 1_545
Mo0 S2 2.447744 1_555
Mo0 S2 2.447744 1_445
Mo0 S1 2.447766 1_545
Mo0 S1 2.447768 1_445
Mo0 S1 2.447768 1_555
Mo1 Se0 2.538939 1_565
Mo1 Se0 2.538941 1_665
Mo1 Se0 2.538941 1_555
Mo1 Se1 2.539884 1_565
Mo1 Se1 2.539886 1_555
Mo1 Se1 2.539886 1_665
S0 W1 2.449277 1_545
S0 W1 2.449279 1_555
S0 W1 2.449279 1_445
S3 W1 2.448757 1_545
S3 W1 2.448759 1_555
S3 W1 2.448759 1_445
