# generated using pymatgen
data_Zr2Pb2O5
_symmetry_space_group_name_H-M   'P 1'
_cell_length_a   6.28950600
_cell_length_b   8.08168886
_cell_length_c   12.33060439
_cell_angle_alpha   90.35603528
_cell_angle_beta   90.00000000
_cell_angle_gamma   90.00000000
_symmetry_Int_Tables_number   1
_chemical_formula_structural   Zr2Pb2O5
_chemical_formula_sum   'Zr8 Pb8 O20'
_cell_volume   626.75043132
_cell_formula_units_Z   4
loop_
 _symmetry_equiv_pos_site_id
 _symmetry_equiv_pos_as_xyz
  1  'x, y, z'
loop_
 _atom_site_type_symbol
 _atom_site_label
 _atom_site_symmetry_multiplicity
 _atom_site_fract_x
 _atom_site_fract_y
 _atom_site_fract_z
 _atom_site_occupancy
  Zr  Zr0  1  0.19964700  0.24883700  0.10614200  1
  Zr  Zr1  1  0.29693600  0.75093300  0.10612100  1
  Zr  Zr2  1  0.20324200  0.75089200  0.60635800  1
  Zr  Zr3  1  0.30017400  0.24885600  0.60630400  1
  Zr  Zr4  1  0.79693600  0.24906700  0.39387900  1
  Zr  Zr5  1  0.69964700  0.75116300  0.39385800  1
  Zr  Zr6  1  0.70324200  0.24910800  0.89364200  1
  Zr  Zr7  1  0.80017400  0.75114400  0.89369600  1
  Pb  Pb0  1  0.18586600  0.94983500  0.34304100  1
  Pb  Pb1  1  0.20359400  0.53790200  0.33334800  1
  Pb  Pb2  1  0.31413000  0.94990600  0.84301700  1
  Pb  Pb3  1  0.29664900  0.53799400  0.83334400  1
  Pb  Pb4  1  0.68586600  0.05016500  0.15695900  1
  Pb  Pb5  1  0.70359400  0.46209800  0.16665200  1
  Pb  Pb6  1  0.81413000  0.05009400  0.65698300  1
  Pb  Pb7  1  0.79664900  0.46200600  0.66665600  1
  O  O0  1  0.94741900  0.23600400  0.00794900  1
  O  O1  1  0.02638000  0.23260600  0.50272700  1
  O  O2  1  0.05288300  0.76404100  0.99229000  1
  O  O3  1  0.97315800  0.76748300  0.49713000  1
  O  O4  1  0.02203800  0.26549500  0.24973800  1
  O  O5  1  0.21968800  0.49697600  0.63065800  1
  O  O6  1  0.21962000  0.00394700  0.64875700  1
  O  O7  1  0.28035900  0.00395800  0.14875800  1
  O  O8  1  0.28028400  0.49697400  0.13069300  1
  O  O9  1  0.47793400  0.26548000  0.74972800  1
  O  O10  1  0.55288300  0.23595900  0.50771000  1
  O  O11  1  0.47315800  0.23251700  0.00287000  1
  O  O12  1  0.44741900  0.76399600  0.49205100  1
  O  O13  1  0.52638000  0.76739400  0.99727300  1
  O  O14  1  0.52203800  0.73450500  0.25026200  1
  O  O15  1  0.71968800  0.50302400  0.86934200  1
  O  O16  1  0.71962000  0.99605300  0.85124300  1
  O  O17  1  0.78035900  0.99604200  0.35124200  1
  O  O18  1  0.78028400  0.50302600  0.36930700  1
  O  O19  1  0.97793400  0.73452000  0.75027200  1
loop_
_geom_bond_atom_site_label_1
_geom_bond_atom_site_label_2
_geom_bond_distance
_geom_bond_site_symmetry_2
O0 Zr0 1.997952 1_655
O0 Zr6 2.087636 1_554
O1 Zr4 1.975809 1_455
O1 Zr3 2.147487 1_555
O1 Pb6 2.758707 1_455
O2 Zr7 2.003375 1_455
O2 Zr1 2.083103 1_556
O3 Zr2 1.982009 1_655
O3 Zr5 2.143858 1_555
O3 Pb0 2.757979 1_655
O4 Zr0 2.097171 1_555
O4 Zr4 2.276829 1_455
O4 Pb1 2.680531 1_555
O4 Pb5 2.757864 1_455
O5 Zr2 2.078248 1_555
O5 Zr3 2.088036 1_555
O5 Pb3 2.565170 1_555
O5 Pb7 2.712529 1_455
O6 Zr2 2.110244 1_545
O6 Zr3 2.112139 1_555
O6 Pb2 2.508934 1_545
O6 Pb6 2.579360 1_455
O7 Zr1 2.110782 1_545
O7 Zr0 2.112661 1_555
O7 Pb0 2.509299 1_545
O7 Pb4 2.579524 1_555
O8 Zr1 2.079163 1_555
O8 Zr0 2.088734 1_555
O8 Pb1 2.564388 1_555
O8 Pb5 2.714043 1_555
O9 Zr3 2.095872 1_555
O9 Zr6 2.275422 1_555
O9 Pb3 2.680542 1_555
O9 Pb7 2.758678 1_555
O10 Zr3 2.003375 1_555
O10 Zr4 2.083103 1_555
O11 Zr6 1.982009 1_554
O11 Zr0 2.143858 1_555
O11 Pb4 2.757979 1_555
O12 Zr5 1.997952 1_555
O12 Zr2 2.087636 1_555
O13 Zr1 1.975809 1_556
O13 Zr7 2.147487 1_555
O13 Pb2 2.758707 1_555
O14 Zr5 2.097171 1_555
O14 Zr1 2.276829 1_555
O14 Pb5 2.680531 1_555
O14 Pb1 2.757864 1_555
O15 Zr6 2.078248 1_555
O15 Zr7 2.088036 1_555
O15 Pb7 2.565170 1_555
O15 Pb3 2.712529 1_555
O16 Zr6 2.110244 1_565
O16 Zr7 2.112139 1_555
O16 Pb6 2.508934 1_565
O16 Pb2 2.579360 1_555
O17 Zr4 2.110782 1_565
O17 Zr5 2.112661 1_555
O17 Pb4 2.509299 1_565
O17 Pb0 2.579524 1_655
O18 Zr4 2.079163 1_555
O18 Zr5 2.088734 1_555
O18 Pb5 2.564388 1_555
O18 Pb1 2.714043 1_655
O19 Zr7 2.095872 1_555
O19 Zr2 2.275422 1_655
O19 Pb7 2.680542 1_555
O19 Pb3 2.758678 1_655
