# generated using pymatgen
data_TiPb15O17
_symmetry_space_group_name_H-M   'P 1'
_cell_length_a   3.85473234
_cell_length_b   32.89938593
_cell_length_c   5.08452491
_cell_angle_alpha   90.00000000
_cell_angle_beta   90.00000000
_cell_angle_gamma   90.00000000
_symmetry_Int_Tables_number   1
_chemical_formula_structural   TiPb15O17
_chemical_formula_sum   'Ti1 Pb15 O17'
_cell_volume   644.81094222
_cell_formula_units_Z   1
loop_
 _symmetry_equiv_pos_site_id
 _symmetry_equiv_pos_as_xyz
  1  'x, y, z'
loop_
 _atom_site_type_symbol
 _atom_site_label
 _atom_site_symmetry_multiplicity
 _atom_site_fract_x
 _atom_site_fract_y
 _atom_site_fract_z
 _atom_site_occupancy
  Ti  Ti0  1  0.50000000  0.87500000  0.85135673  1
  Pb  Pb0  1  0.00000000  0.05958982  0.23304799  1
  Pb  Pb1  1  0.00000000  0.18594902  0.23134537  1
  Pb  Pb2  1  -0.00000000  0.31203507  0.23222958  1
  Pb  Pb3  1  0.00000000  0.56405098  0.23134537  1
  Pb  Pb4  1  -0.00000000  0.69041018  0.23304799  1
  Pb  Pb5  1  -0.00000000  0.93248574  0.25494340  1
  Pb  Pb6  1  0.50000000  0.12269639  0.76780270  1
  Pb  Pb7  1  0.50000000  0.24903593  0.76694695  1
  Pb  Pb8  1  0.50000000  0.37500000  0.76721828  1
  Pb  Pb9  1  0.50000000  0.50096407  0.76694695  1
  Pb  Pb10  1  0.50000000  0.62730361  0.76780270  1
  Pb  Pb11  1  0.50000000  0.75415963  0.77509582  1
  Pb  Pb12  1  0.50000000  0.99584037  0.77509582  1
  Pb  Pb13  1  -0.00000000  0.43796493  0.23222958  1
  Pb  Pb14  1  -0.00000000  0.81751426  0.25494340  1
  O  O0  1  -0.00000000  0.99622701  0.02162599  1
  O  O1  1  -0.00000000  0.12273468  0.01561001  1
  O  O2  1  -0.00000000  0.24901567  0.01461678  1
  O  O3  1  -0.00000000  0.50098433  0.01461678  1
  O  O4  1  -0.00000000  0.62726532  0.01561001  1
  O  O5  1  -0.00000000  0.87500000  0.97040645  1
  O  O6  1  0.50000000  0.05947540  0.98506742  1
  O  O7  1  0.50000000  0.18592125  0.98345336  1
  O  O8  1  0.50000000  0.31202348  0.98458712  1
  O  O9  1  0.50000000  0.43797652  0.98458712  1
  O  O10  1  0.50000000  0.56407875  0.98345336  1
  O  O11  1  0.50000000  0.81919070  0.98490309  1
  O  O12  1  0.50000000  0.69052460  0.98506742  1
  O  O13  1  0.50000000  0.87500000  0.50990838  1
  O  O14  1  0.50000000  0.93080930  0.98490309  1
  O  O15  1  -0.00000000  0.37500000  0.01485901  1
  O  O16  1  -0.00000000  0.75377299  0.02162599  1
loop_
_geom_bond_atom_site_label_1
_geom_bond_atom_site_label_2
_geom_bond_distance
_geom_bond_site_symmetry_2
O0 Pb12 2.299160 1_554
O0 Pb12 2.299160 1_454
O0 Pb0 2.345449 1_565
O0 Pb5 2.409344 1_555
O1 Pb6 2.302672 1_454
O1 Pb6 2.302672 1_554
O1 Pb1 2.351260 1_555
O1 Pb0 2.353293 1_555
O2 Pb7 2.302289 1_454
O2 Pb7 2.302289 1_554
O2 Pb1 2.349327 1_555
O2 Pb2 2.350068 1_555
O3 Pb9 2.302289 1_554
O3 Pb9 2.302289 1_454
O3 Pb3 2.349327 1_555
O3 Pb13 2.350068 1_555
O4 Pb10 2.302672 1_554
O4 Pb10 2.302672 1_454
O4 Pb3 2.351260 1_555
O4 Pb4 2.353293 1_555
O5 Ti0 2.020184 1_455
O5 Ti0 2.020184 1_555
O5 Pb14 2.381145 1_556
O5 Pb5 2.381145 1_556
O6 Pb0 2.303157 1_556
O6 Pb0 2.303157 1_656
O6 Pb12 2.350053 1_545
O6 Pb6 2.355091 1_555
O7 Pb1 2.302907 1_556
O7 Pb1 2.302907 1_656
O7 Pb7 2.350194 1_555
O7 Pb6 2.351365 1_555
O8 Pb2 2.302213 1_556
O8 Pb2 2.302213 1_656
O8 Pb8 2.348239 1_555
O8 Pb7 2.349209 1_555
O9 Pb13 2.302213 1_556
O9 Pb13 2.302213 1_656
O9 Pb8 2.348239 1_555
O9 Pb9 2.349209 1_555
O10 Pb3 2.302907 1_556
O10 Pb3 2.302907 1_656
O10 Pb9 2.350194 1_555
O10 Pb10 2.351365 1_555
O11 Ti0 1.957626 1_555
O11 Pb14 2.367062 1_556
O11 Pb14 2.367062 1_656
O11 Pb11 2.390687 1_555
O12 Pb4 2.303157 1_556
O12 Pb4 2.303157 1_656
O12 Pb11 2.350053 1_555
O12 Pb10 2.355091 1_555
O13 Ti0 1.736103 1_555
O14 Ti0 1.957626 1_555
O14 Pb5 2.367062 1_556
O14 Pb5 2.367062 1_656
O14 Pb12 2.390687 1_555
O15 Pb8 2.302208 1_554
O15 Pb8 2.302208 1_454
O15 Pb2 2.347907 1_555
O15 Pb13 2.347907 1_555
O16 Pb11 2.299160 1_554
O16 Pb11 2.299160 1_454
O16 Pb4 2.345449 1_555
O16 Pb14 2.409344 1_555
