# generated using pymatgen
data_Ca4Si3(BO4)5
_symmetry_space_group_name_H-M   'P 1'
_cell_length_a   4.95511400
_cell_length_b   7.64003451
_cell_length_c   9.46812334
_cell_angle_alpha   90.02989486
_cell_angle_beta   91.91023066
_cell_angle_gamma   90.13594950
_symmetry_Int_Tables_number   1
_chemical_formula_structural   Ca4Si3(BO4)5
_chemical_formula_sum   'Ca4 Si3 B5 O20'
_cell_volume   358.23677207
_cell_formula_units_Z   1
loop_
 _symmetry_equiv_pos_site_id
 _symmetry_equiv_pos_as_xyz
  1  'x, y, z'
loop_
 _atom_site_type_symbol
 _atom_site_label
 _atom_site_symmetry_multiplicity
 _atom_site_fract_x
 _atom_site_fract_y
 _atom_site_fract_z
 _atom_site_occupancy
  Ca  Ca0  1  0.99750400  0.37872400  0.82416100  1
  Ca  Ca1  1  0.00269700  0.88491300  0.67353000  1
  Ca  Ca2  1  0.00388000  0.61050300  0.17404100  1
  Ca  Ca3  1  0.99525400  0.11884500  0.33260900  1
  Si  Si0  1  0.52485700  0.74337000  0.91073200  1
  Si  Si1  1  0.53025100  0.75586000  0.41395400  1
  Si  Si2  1  0.47134000  0.25648300  0.08584000  1
  B  B0  1  0.54805600  0.09990400  0.82060900  1
  B  B1  1  0.44225300  0.59062300  0.66785100  1
  B  B2  1  0.43300100  0.90657200  0.16965000  1
  B  B3  1  0.55958800  0.39896700  0.33757300  1
  B  B4  1  0.49442400  0.25205600  0.58718700  1
  O  O0  1  0.26975200  0.12799100  0.55867800  1
  O  O1  1  0.76576500  0.60661500  0.95029300  1
  O  O2  1  0.76142500  0.89839100  0.45450600  1
  O  O3  1  0.24301400  0.40174100  0.04717700  1
  O  O4  1  0.25524400  0.10019200  0.80001200  1
  O  O5  1  0.73542000  0.60228800  0.69534400  1
  O  O6  1  0.72819300  0.90124400  0.19646200  1
  O  O7  1  0.26718700  0.39454900  0.30951400  1
  O  O8  1  0.35840300  0.40668400  0.64943000  1
  O  O9  1  0.65770900  0.91985100  0.83940900  1
  O  O10  1  0.67165200  0.57821400  0.35278200  1
  O  O11  1  0.32184000  0.08193300  0.14907600  1
  O  O12  1  0.64223600  0.20636700  0.94503200  1
  O  O13  1  0.34857800  0.70422200  0.55080900  1
  O  O14  1  0.35228800  0.79233600  0.04989600  1
  O  O15  1  0.63812400  0.28800000  0.45809600  1
  O  O16  1  0.68132900  0.17557900  0.69515400  1
  O  O17  1  0.30089300  0.65787400  0.79495800  1
  O  O18  1  0.30129800  0.83253200  0.29766000  1
  O  O19  1  0.69654200  0.32657600  0.20797500  1
loop_
_geom_bond_atom_site_label_1
_geom_bond_atom_site_label_2
_geom_bond_distance
_geom_bond_site_symmetry_2
Ca0 O3 2.407660 1_656
Ca0 O1 2.423824 1_555
Ca0 O5 2.449196 1_555
Ca0 O8 2.485232 1_655
Ca0 O16 2.492823 1_555
Ca0 O4 2.498711 1_655
Ca0 O12 2.503511 1_555
Ca0 O17 2.626410 1_655
Ca1 O2 2.361322 1_455
Ca1 O4 2.365070 1_565
Ca1 O9 2.375052 1_455
Ca1 O13 2.517050 1_555
Ca1 O17 2.532758 1_555
Ca1 O5 2.542482 1_455
Ca1 O0 2.543401 1_565
Ca1 O16 2.747225 1_465
Ca2 O3 2.343627 1_555
Ca2 O1 2.390413 1_454
Ca2 O10 2.412298 1_455
Ca2 O7 2.443471 1_555
Ca2 O18 2.508062 1_555
Ca2 O14 2.533296 1_555
Ca2 O6 2.622684 1_455
Ca2 O19 2.673123 1_455
Ca3 O2 2.364995 1_545
Ca3 O11 2.430454 1_655
Ca3 O19 2.449250 1_555
Ca3 O6 2.459730 1_545
Ca3 O0 2.498352 1_655
Ca3 O7 2.511371 1_655
Ca3 O15 2.522457 1_555
Ca3 O18 2.691200 1_645
B0 O4 1.457514 1_555
B0 O9 1.488814 1_545
B0 O12 1.492557 1_555
B0 O16 1.494155 1_555
B1 O5 1.469735 1_555
B1 O13 1.471518 1_555
B1 O8 1.473112 1_555
B1 O17 1.503402 1_555
B2 O11 1.460456 1_565
B2 O14 1.474571 1_555
B2 O6 1.476875 1_555
B2 O18 1.505505 1_555
B3 O7 1.464605 1_555
B3 O15 1.464695 1_555
B3 O10 1.481668 1_555
B3 O19 1.525993 1_555
B4 O15 1.460741 1_555
B4 O16 1.477896 1_555
B4 O0 1.478301 1_555
B4 O8 1.492223 1_555
O1 Si0 1.622787 1_555
O2 Si1 1.615454 1_555
O3 Si2 1.620001 1_555
O9 Si0 1.653397 1_555
O10 Si1 1.642916 1_555
O11 Si2 1.646621 1_555
O12 Si2 1.648438 1_556
O13 Si1 1.649736 1_555
O14 Si0 1.638106 1_554
O17 Si0 1.665692 1_555
O18 Si1 1.662268 1_555
O19 Si2 1.667254 1_555
