# generated using pymatgen
data_Te6MoW3S2
_symmetry_space_group_name_H-M   'P 1'
_cell_length_a   3.45142052
_cell_length_b   3.45142052
_cell_length_c   39.36777100
_cell_angle_alpha   90.00000000
_cell_angle_beta   90.00000000
_cell_angle_gamma   120.00000997
_symmetry_Int_Tables_number   1
_chemical_formula_structural   Te6MoW3S2
_chemical_formula_sum   'Te6 Mo1 W3 S2'
_cell_volume   406.13196047
_cell_formula_units_Z   1
loop_
 _symmetry_equiv_pos_site_id
 _symmetry_equiv_pos_as_xyz
  1  'x, y, z'
loop_
 _atom_site_type_symbol
 _atom_site_label
 _atom_site_symmetry_multiplicity
 _atom_site_fract_x
 _atom_site_fract_y
 _atom_site_fract_z
 _atom_site_occupancy
  Te  Te0  1  0.00000000  0.00000000  0.32952600  1
  Te  Te1  1  0.00000000  0.00000000  0.70480500  1
  Te  Te2  1  0.33333300  0.66666700  0.04636100  1
  Te  Te3  1  0.33333300  0.66666700  0.14032000  1
  Te  Te4  1  0.00000000  0.00000000  0.23507400  1
  Te  Te5  1  0.00000000  0.00000000  0.61032200  1
  Mo  Mo0  1  0.00000000  0.00000000  0.09332700  1
  W  W0  1  0.00000000  0.00000000  0.46972800  1
  W  W1  1  0.33333300  0.66666700  0.28235900  1
  W  W2  1  0.33333300  0.66666700  0.65755200  1
  S  S0  1  0.33333300  0.66666700  0.43181300  1
  S  S1  1  0.33333300  0.66666700  0.50756200  1
loop_
_geom_bond_atom_site_label_1
_geom_bond_atom_site_label_2
_geom_bond_distance
_geom_bond_site_symmetry_2
Te0 W1 2.723727 1_545
Te0 W1 2.723729 1_555
Te0 W1 2.723729 1_445
Te1 W2 2.726036 1_545
Te1 W2 2.726038 1_445
Te1 W2 2.726038 1_555
Te4 W1 2.726896 1_545
Te4 W1 2.726898 1_445
Te4 W1 2.726898 1_555
Te5 W2 2.725418 1_545
Te5 W2 2.725420 1_555
Te5 W2 2.725420 1_445
Mo0 Te2 2.718339 1_545
Mo0 Te2 2.718340 1_555
Mo0 Te2 2.718340 1_445
Mo0 Te3 2.719062 1_545
Mo0 Te3 2.719064 1_555
Mo0 Te3 2.719064 1_445
S0 W0 2.489719 1_565
S0 W0 2.489721 1_555
S0 W0 2.489721 1_665
S1 W0 2.487809 1_565
S1 W0 2.487811 1_555
S1 W0 2.487811 1_665
