# generated using pymatgen
data_HfMo4
_symmetry_space_group_name_H-M   'P 1'
_cell_length_a   5.65922836
_cell_length_b   5.65922836
_cell_length_c   22.66389966
_cell_angle_alpha   94.65336418
_cell_angle_beta   94.65336418
_cell_angle_gamma   110.50004551
_symmetry_Int_Tables_number   1
_chemical_formula_structural   HfMo4
_chemical_formula_sum   'Hf8 Mo32'
_cell_volume   672.96505105
_cell_formula_units_Z   8
loop_
 _symmetry_equiv_pos_site_id
 _symmetry_equiv_pos_as_xyz
  1  'x, y, z'
loop_
 _atom_site_type_symbol
 _atom_site_label
 _atom_site_symmetry_multiplicity
 _atom_site_fract_x
 _atom_site_fract_y
 _atom_site_fract_z
 _atom_site_occupancy
  Hf  Hf0_0  1  0.00000000  0.00000000  0.00000000  1
  Hf  Hf0_1  1  0.00000000  1.00000000  0.50000000  1
  Hf  Hf0_2  1  0.00000000  0.50000000  0.00000000  1
  Hf  Hf0_3  1  0.00000000  0.50000000  0.50000000  1
  Hf  Hf0_4  1  0.50000000  0.00000000  0.00000000  1
  Hf  Hf0_5  1  0.50000000  0.00000000  0.50000000  1
  Hf  Hf0_6  1  0.50000000  0.50000000  0.00000000  1
  Hf  Hf0_7  1  0.50000000  0.50000000  0.50000000  1
  Mo  Mo0_0  1  0.30296300  0.30296300  0.10592600  1
  Mo  Mo0_1  1  0.30296300  0.30296300  0.60592600  1
  Mo  Mo0_2  1  0.30296300  0.80296300  0.10592600  1
  Mo  Mo0_3  1  0.30296300  0.80296300  0.60592600  1
  Mo  Mo0_4  1  0.80296300  0.30296300  0.10592600  1
  Mo  Mo0_5  1  0.80296300  0.30296300  0.60592600  1
  Mo  Mo0_6  1  0.80296300  0.80296300  0.10592600  1
  Mo  Mo0_7  1  0.80296300  0.80296300  0.60592600  1
  Mo  Mo1_0  1  0.10048950  0.10048950  0.20097900  1
  Mo  Mo1_1  1  0.10048950  0.10048950  0.70097900  1
  Mo  Mo1_2  1  0.10048950  0.60048950  0.20097900  1
  Mo  Mo1_3  1  0.10048950  0.60048950  0.70097900  1
  Mo  Mo1_4  1  0.60048950  0.10048950  0.20097900  1
  Mo  Mo1_5  1  0.60048950  0.10048950  0.70097900  1
  Mo  Mo1_6  1  0.60048950  0.60048950  0.20097900  1
  Mo  Mo1_7  1  0.60048950  0.60048950  0.70097900  1
  Mo  Mo2_0  1  0.39951050  0.39951050  0.29902100  1
  Mo  Mo2_1  1  0.39951050  0.39951050  0.79902100  1
  Mo  Mo2_2  1  0.39951050  0.89951050  0.29902100  1
  Mo  Mo2_3  1  0.39951050  0.89951050  0.79902100  1
  Mo  Mo2_4  1  0.89951050  0.39951050  0.29902100  1
  Mo  Mo2_5  1  0.89951050  0.39951050  0.79902100  1
  Mo  Mo2_6  1  0.89951050  0.89951050  0.29902100  1
  Mo  Mo2_7  1  0.89951050  0.89951050  0.79902100  1
  Mo  Mo3_0  1  0.19703700  0.19703700  0.39407400  1
  Mo  Mo3_1  1  0.19703700  0.19703700  0.89407400  1
  Mo  Mo3_2  1  0.19703700  0.69703700  0.39407400  1
  Mo  Mo3_3  1  0.19703700  0.69703700  0.89407400  1
  Mo  Mo3_4  1  0.69703700  0.19703700  0.39407400  1
  Mo  Mo3_5  1  0.69703700  0.19703700  0.89407400  1
  Mo  Mo3_6  1  0.69703700  0.69703700  0.39407400  1
  Mo  Mo3_7  1  0.69703700  0.69703700  0.89407400  1
loop_
_geom_bond_atom_site_label_1
_geom_bond_atom_site_label_2
_geom_bond_distance
_geom_bond_site_symmetry_2
Hf0_0 Hf0_2 2.829614 1_555
Hf0_0 Hf0_4 2.829614 1_455
Hf0_0 Hf0_4 2.829614 1_555
Hf0_0 Hf0_2 2.829614 1_545
Hf0_0 Mo0_6 2.871923 1_445
Hf0_0 Mo0_0 2.871923 1_555
Hf0_0 Mo3_1 2.871923 1_554
Hf0_0 Mo3_7 2.871923 1_444
Hf0_1 Hf0_3 2.829614 1_565
Hf0_1 Hf0_5 2.829614 1_565
Hf0_1 Hf0_5 2.829614 1_465
Hf0_1 Hf0_3 2.829614 1_555
Hf0_1 Mo0_7 2.871923 1_455
Hf0_1 Mo0_1 2.871923 1_565
Hf0_1 Mo3_6 2.871923 1_455
Hf0_1 Mo3_0 2.871923 1_565
Hf0_2 Hf0_6 2.829614 1_455
Hf0_2 Hf0_6 2.829614 1_555
Hf0_2 Mo0_4 2.871923 1_455
Hf0_2 Mo0_2 2.871923 1_555
Hf0_2 Mo3_3 2.871923 1_554
Hf0_2 Mo3_5 2.871923 1_454
Hf0_3 Hf0_7 2.829614 1_555
Hf0_3 Hf0_7 2.829614 1_455
Hf0_3 Mo0_3 2.871923 1_555
Hf0_3 Mo0_5 2.871923 1_455
Hf0_3 Mo3_4 2.871923 1_455
Hf0_3 Mo3_2 2.871923 1_555
Hf0_4 Hf0_6 2.829614 1_555
Hf0_4 Hf0_6 2.829614 1_545
Hf0_4 Mo0_2 2.871923 1_545
Hf0_4 Mo0_4 2.871923 1_555
Hf0_4 Mo3_5 2.871923 1_554
Hf0_4 Mo3_3 2.871923 1_544
Hf0_5 Hf0_7 2.829614 1_555
Hf0_5 Hf0_7 2.829614 1_545
Hf0_5 Mo0_3 2.871923 1_545
Hf0_5 Mo0_5 2.871923 1_555
Hf0_5 Mo3_2 2.871923 1_545
Hf0_5 Mo3_4 2.871923 1_555
Hf0_6 Mo0_0 2.871923 1_555
Hf0_6 Mo0_6 2.871923 1_555
Hf0_6 Mo3_1 2.871923 1_554
Hf0_6 Mo3_7 2.871923 1_554
Hf0_7 Mo0_1 2.871923 1_555
Hf0_7 Mo0_7 2.871923 1_555
Hf0_7 Mo3_0 2.871923 1_555
Hf0_7 Mo3_6 2.871923 1_555
Mo0_0 Mo1_6 2.673616 1_555
Mo0_0 Mo1_0 2.673616 1_555
Mo0_0 Mo0_2 2.829614 1_545
Mo0_0 Mo0_4 2.829614 1_555
Mo0_0 Mo0_4 2.829614 1_455
Mo0_0 Mo0_2 2.829614 1_555
Mo0_1 Mo1_7 2.673616 1_555
Mo0_1 Mo1_1 2.673616 1_555
Mo0_1 Mo0_5 2.829614 1_455
Mo0_1 Mo0_3 2.829614 1_545
Mo0_1 Mo0_3 2.829614 1_555
Mo0_1 Mo0_5 2.829614 1_555
Mo0_2 Mo1_4 2.673616 1_565
Mo0_2 Mo1_2 2.673616 1_555
Mo0_2 Mo0_6 2.829614 1_455
Mo0_2 Mo0_6 2.829614 1_555
Mo0_3 Mo1_5 2.673616 1_565
Mo0_3 Mo1_3 2.673616 1_555
Mo0_3 Mo0_7 2.829614 1_455
Mo0_3 Mo0_7 2.829614 1_555
Mo0_4 Mo1_2 2.673616 1_655
Mo0_4 Mo1_4 2.673616 1_555
Mo0_4 Mo0_6 2.829614 1_545
Mo0_4 Mo0_6 2.829614 1_555
Mo0_5 Mo1_3 2.673616 1_655
Mo0_5 Mo1_5 2.673616 1_555
Mo0_5 Mo0_7 2.829614 1_555
Mo0_5 Mo0_7 2.829614 1_545
Mo0_6 Mo1_0 2.673616 1_665
Mo0_6 Mo1_6 2.673616 1_555
Mo0_7 Mo1_1 2.673616 1_665
Mo0_7 Mo1_7 2.673616 1_555
Mo1_0 Mo2_6 2.727394 1_445
Mo1_0 Mo2_0 2.727394 1_555
Mo1_0 Mo1_4 2.829614 1_455
Mo1_0 Mo1_2 2.829614 1_545
Mo1_0 Mo1_4 2.829614 1_555
Mo1_0 Mo1_2 2.829614 1_555
Mo1_1 Mo2_1 2.727394 1_555
Mo1_1 Mo2_7 2.727394 1_445
Mo1_1 Mo1_5 2.829614 1_555
Mo1_1 Mo1_3 2.829614 1_555
Mo1_1 Mo1_5 2.829614 1_455
Mo1_1 Mo1_3 2.829614 1_545
Mo1_2 Mo2_4 2.727394 1_455
Mo1_2 Mo2_2 2.727394 1_555
Mo1_2 Mo1_6 2.829614 1_555
Mo1_2 Mo1_6 2.829614 1_455
Mo1_3 Mo2_3 2.727394 1_555
Mo1_3 Mo2_5 2.727394 1_455
Mo1_3 Mo1_7 2.829614 1_555
Mo1_3 Mo1_7 2.829614 1_455
Mo1_4 Mo2_4 2.727394 1_555
Mo1_4 Mo2_2 2.727394 1_545
Mo1_4 Mo1_6 2.829614 1_545
Mo1_4 Mo1_6 2.829614 1_555
Mo1_5 Mo2_5 2.727394 1_555
Mo1_5 Mo2_3 2.727394 1_545
Mo1_5 Mo1_7 2.829614 1_555
Mo1_5 Mo1_7 2.829614 1_545
Mo1_6 Mo2_6 2.727394 1_555
Mo1_6 Mo2_0 2.727394 1_555
Mo1_7 Mo2_7 2.727394 1_555
Mo1_7 Mo2_1 2.727394 1_555
Mo2_0 Mo3_0 2.673616 1_555
Mo2_0 Mo3_6 2.673616 1_555
Mo2_0 Mo2_4 2.829614 1_455
Mo2_0 Mo2_2 2.829614 1_555
Mo2_0 Mo2_2 2.829614 1_545
Mo2_0 Mo2_4 2.829614 1_555
Mo2_1 Mo3_7 2.673616 1_555
Mo2_1 Mo3_1 2.673616 1_555
Mo2_1 Mo2_5 2.829614 1_555
Mo2_1 Mo2_3 2.829614 1_555
Mo2_1 Mo2_3 2.829614 1_545
Mo2_1 Mo2_5 2.829614 1_455
Mo2_2 Mo3_4 2.673616 1_565
Mo2_2 Mo3_2 2.673616 1_555
Mo2_2 Mo2_6 2.829614 1_555
Mo2_2 Mo2_6 2.829614 1_455
Mo2_3 Mo3_5 2.673616 1_565
Mo2_3 Mo3_3 2.673616 1_555
Mo2_3 Mo2_7 2.829614 1_555
Mo2_3 Mo2_7 2.829614 1_455
Mo2_4 Mo3_4 2.673616 1_555
Mo2_4 Mo3_2 2.673616 1_655
Mo2_4 Mo2_6 2.829614 1_555
Mo2_4 Mo2_6 2.829614 1_545
Mo2_5 Mo3_3 2.673616 1_655
Mo2_5 Mo3_5 2.673616 1_555
Mo2_5 Mo2_7 2.829614 1_555
Mo2_5 Mo2_7 2.829614 1_545
Mo2_6 Mo3_0 2.673616 1_665
Mo2_6 Mo3_6 2.673616 1_555
Mo2_7 Mo3_7 2.673616 1_555
Mo2_7 Mo3_1 2.673616 1_665
Mo3_0 Mo3_4 2.829614 1_555
Mo3_0 Mo3_2 2.829614 1_545
Mo3_0 Mo3_2 2.829614 1_555
Mo3_0 Mo3_4 2.829614 1_455
Mo3_1 Mo3_5 2.829614 1_555
Mo3_1 Mo3_3 2.829614 1_545
Mo3_1 Mo3_3 2.829614 1_555
Mo3_1 Mo3_5 2.829614 1_455
Mo3_2 Mo3_6 2.829614 1_555
Mo3_2 Mo3_6 2.829614 1_455
Mo3_3 Mo3_7 2.829614 1_555
Mo3_3 Mo3_7 2.829614 1_455
Mo3_4 Mo3_6 2.829614 1_555
Mo3_4 Mo3_6 2.829614 1_545
Mo3_5 Mo3_7 2.829614 1_555
Mo3_5 Mo3_7 2.829614 1_545
