# generated using pymatgen
data_In(GaAu)2
_symmetry_space_group_name_H-M   'P 1'
_cell_length_a   4.23922405
_cell_length_b   4.23922405
_cell_length_c   12.99174073
_cell_angle_alpha   90.00000000
_cell_angle_beta   90.00000000
_cell_angle_gamma   119.99999335
_symmetry_Int_Tables_number   1
_chemical_formula_structural   In(GaAu)2
_chemical_formula_sum   'In2 Ga4 Au4'
_cell_volume   202.19515615
_cell_formula_units_Z   2
loop_
 _symmetry_equiv_pos_site_id
 _symmetry_equiv_pos_as_xyz
  1  'x, y, z'
loop_
 _atom_site_type_symbol
 _atom_site_label
 _atom_site_symmetry_multiplicity
 _atom_site_fract_x
 _atom_site_fract_y
 _atom_site_fract_z
 _atom_site_occupancy
  In  In0  1  -0.00000000  -0.00000000  0.25000000  1
  In  In1  1  -0.00000000  -0.00000000  0.75000000  1
  Ga  Ga0  1  0.33333300  0.66666700  0.93602833  1
  Ga  Ga1  1  0.66666700  0.33333300  0.06397167  1
  Ga  Ga2  1  0.66666700  0.33333300  0.43602833  1
  Ga  Ga3  1  0.33333300  0.66666700  0.56397167  1
  Au  Au0  1  0.33333300  0.66666700  0.36244785  1
  Au  Au1  1  0.66666700  0.33333300  0.63755215  1
  Au  Au2  1  0.66666700  0.33333300  0.86244785  1
  Au  Au3  1  0.33333300  0.66666700  0.13755215  1
loop_
_geom_bond_atom_site_label_1
_geom_bond_atom_site_label_2
_geom_bond_distance
_geom_bond_site_symmetry_2
Au0 Ga3 2.618145 1_555
Au0 Ga2 2.627574 1_455
Au0 Ga2 2.627574 1_565
Au0 Ga2 2.627581 1_555
Au0 In0 2.850357 1_565
Au0 In0 2.850361 1_665
Au0 In0 2.850361 1_555
Au1 Ga2 2.618145 1_555
Au1 Ga3 2.627574 1_545
Au1 Ga3 2.627574 1_655
Au1 Ga3 2.627581 1_555
Au1 In1 2.850357 1_655
Au1 In1 2.850361 1_665
Au1 In1 2.850361 1_555
Au2 Ga1 2.618145 1_556
Au2 Ga0 2.627574 1_545
Au2 Ga0 2.627574 1_655
Au2 Ga0 2.627581 1_555
Au2 In1 2.850357 1_655
Au2 In1 2.850361 1_665
Au2 In1 2.850361 1_555
Au3 Ga0 2.618145 1_554
Au3 Ga1 2.627574 1_455
Au3 Ga1 2.627574 1_565
Au3 Ga1 2.627581 1_555
Au3 In0 2.850357 1_565
Au3 In0 2.850361 1_665
Au3 In0 2.850361 1_555
