# generated using pymatgen
data_YVO3
_symmetry_space_group_name_H-M   'P 1'
_cell_length_a   5.27439260
_cell_length_b   5.65984868
_cell_length_c   7.51277629
_cell_angle_alpha   89.92957948
_cell_angle_beta   90.00384684
_cell_angle_gamma   90.00254289
_symmetry_Int_Tables_number   1
_chemical_formula_structural   YVO3
_chemical_formula_sum   'Y4 V4 O12'
_cell_volume   224.27321131
_cell_formula_units_Z   4
loop_
 _symmetry_equiv_pos_site_id
 _symmetry_equiv_pos_as_xyz
  1  'x, y, z'
loop_
 _atom_site_type_symbol
 _atom_site_label
 _atom_site_symmetry_multiplicity
 _atom_site_fract_x
 _atom_site_fract_y
 _atom_site_fract_z
 _atom_site_occupancy
  Y  Y0  1  0.47942593  0.57148094  0.75076269  1
  Y  Y1  1  0.97941810  0.92849294  0.24924647  1
  Y  Y2  1  0.52057442  0.42852175  0.24923796  1
  Y  Y3  1  0.02058023  0.07150415  0.75075278  1
  V  V0  1  0.49999897  0.00000189  0.50000104  1
  V  V1  1  0.00000096  0.49999795  -0.00000069  1
  V  V2  1  -0.00000083  0.49999831  0.49999905  1
  V  V3  1  0.50000072  0.00000251  0.00000091  1
  O  O0  1  0.88910831  0.46092889  0.75046220  1
  O  O1  1  0.38905630  0.03907577  0.24952181  1
  O  O2  1  0.11089208  0.53907036  0.24953657  1
  O  O3  1  0.61094278  0.96092550  0.75047882  1
  O  O4  1  0.80716521  0.18923640  0.44428409  1
  O  O5  1  0.30708266  0.31085050  0.55570348  1
  O  O6  1  0.19283566  0.81076325  0.55571616  1
  O  O7  1  0.69291875  0.68915090  0.44429549  1
  O  O8  1  0.18332314  0.80085880  0.94280664  1
  O  O9  1  0.68339818  0.69909500  0.05721560  1
  O  O10  1  0.81667575  0.19914200  0.05719324  1
  O  O11  1  0.31660066  0.30090416  0.94278372  1
loop_
_geom_bond_atom_site_label_1
_geom_bond_atom_site_label_2
_geom_bond_distance
_geom_bond_site_symmetry_2
O0 V1 1.976466 1_656
O0 V2 1.982623 1_655
O0 Y0 2.249624 1_555
O0 Y3 2.310621 1_655
O1 V3 1.976514 1_555
O1 V0 1.982752 1_555
O1 Y1 2.249395 1_445
O1 Y2 2.310751 1_555
O2 V1 1.976466 1_555
O2 V2 1.982623 1_555
O2 Y2 2.249618 1_555
O2 Y1 2.310613 1_455
O3 V3 1.976521 1_566
O3 V0 1.982745 1_565
O3 Y3 2.249384 1_665
O3 Y0 2.310741 1_555
O4 V0 1.986441 1_555
O4 V2 2.074816 1_655
O4 Y1 2.270674 1_545
O4 Y2 2.502261 1_555
O4 Y3 2.647302 1_655
O5 V2 1.985833 1_555
O5 V0 2.075530 1_555
O5 Y0 2.270422 1_555
O5 Y3 2.502227 1_555
O5 Y2 2.647473 1_555
O6 V0 1.986438 1_565
O6 V2 2.074840 1_555
O6 Y3 2.270665 1_565
O6 Y0 2.502252 1_555
O6 Y1 2.647310 1_455
O7 V2 1.985833 1_655
O7 V0 2.075555 1_565
O7 Y2 2.270411 1_555
O7 Y1 2.502203 1_555
O7 Y0 2.647484 1_555
O8 V1 2.004314 1_556
O8 V3 2.060536 1_566
O8 Y3 2.271476 1_565
O8 Y0 2.492238 1_555
O8 Y1 2.642569 1_456
O9 V3 2.004810 1_565
O9 V1 2.060234 1_655
O9 Y2 2.271234 1_555
O9 Y1 2.491773 1_555
O9 Y0 2.642616 1_554
O10 V1 2.004300 1_655
O10 V3 2.060509 1_555
O10 Y1 2.271486 1_545
O10 Y2 2.492242 1_555
O10 Y3 2.642578 1_654
O11 V3 2.004792 1_556
O11 V1 2.060209 1_556
O11 Y0 2.271244 1_555
O11 Y3 2.491781 1_555
O11 Y2 2.642634 1_556
