# generated using pymatgen
data_Sm(NiAs)2
_symmetry_space_group_name_H-M   'P 1'
_cell_length_a   4.16966682
_cell_length_b   4.16966682
_cell_length_c   9.33140927
_cell_angle_alpha   90.00000000
_cell_angle_beta   90.00000000
_cell_angle_gamma   90.00000000
_symmetry_Int_Tables_number   1
_chemical_formula_structural   Sm(NiAs)2
_chemical_formula_sum   'Sm2 Ni4 As4'
_cell_volume   162.23701431
_cell_formula_units_Z   2
loop_
 _symmetry_equiv_pos_site_id
 _symmetry_equiv_pos_as_xyz
  1  'x, y, z'
loop_
 _atom_site_type_symbol
 _atom_site_label
 _atom_site_symmetry_multiplicity
 _atom_site_fract_x
 _atom_site_fract_y
 _atom_site_fract_z
 _atom_site_occupancy
  Sm  Sm0  1  0.75000000  0.75000000  0.24771472  1
  Sm  Sm1  1  0.25000000  0.25000000  0.75228528  1
  Ni  Ni0  1  0.75000000  0.25000000  0.00000000  1
  Ni  Ni1  1  0.25000000  0.75000000  0.00000000  1
  Ni  Ni2  1  0.75000000  0.75000000  0.61884400  1
  Ni  Ni3  1  0.25000000  0.25000000  0.38115600  1
  As  As0  1  0.75000000  0.25000000  0.50000000  1
  As  As1  1  0.25000000  0.75000000  0.50000000  1
  As  As2  1  0.75000000  0.75000000  0.87132943  1
  As  As3  1  0.25000000  0.25000000  0.12867057  1
loop_
_geom_bond_atom_site_label_1
_geom_bond_atom_site_label_2
_geom_bond_distance
_geom_bond_site_symmetry_2
Ni0 Sm0 3.112827 1_555
Ni0 Sm1 3.112827 1_554
Ni0 Sm0 3.112827 1_545
Ni0 Sm1 3.112827 1_654
Ni1 Sm0 3.112827 1_555
Ni1 Sm1 3.112827 1_554
Ni1 Sm1 3.112827 1_564
Ni1 Sm0 3.112827 1_455
Ni2 Sm1 3.200558 1_565
Ni2 Sm1 3.200558 1_655
Ni2 Sm1 3.200558 1_665
Ni2 Sm1 3.200558 1_555
Ni3 Sm0 3.200558 1_545
Ni3 Sm0 3.200558 1_455
Ni3 Sm0 3.200558 1_555
Ni3 Sm0 3.200558 1_445
As0 Ni2 2.361434 1_555
As0 Ni2 2.361434 1_545
As0 Ni3 2.361434 1_555
As0 Ni3 2.361434 1_655
As0 Sm0 3.144627 1_555
As0 Sm0 3.144627 1_545
As0 Sm1 3.144627 1_655
As0 Sm1 3.144627 1_555
As1 Ni2 2.361434 1_555
As1 Ni2 2.361434 1_455
As1 Ni3 2.361434 1_555
As1 Ni3 2.361434 1_565
As1 Sm0 3.144627 1_455
As1 Sm0 3.144627 1_555
As1 Sm1 3.144627 1_555
As1 Sm1 3.144627 1_565
As2 Ni2 2.356045 1_555
As2 Ni1 2.405859 1_556
As2 Ni1 2.405859 1_656
As2 Ni0 2.405859 1_566
As2 Ni0 2.405859 1_556
As2 Sm1 3.150722 1_565
As2 Sm1 3.150722 1_665
As2 Sm1 3.150722 1_655
As2 Sm1 3.150722 1_555
As3 Ni3 2.356045 1_555
As3 Ni1 2.405859 1_545
As3 Ni0 2.405859 1_455
As3 Ni0 2.405859 1_555
As3 Ni1 2.405859 1_555
As3 Sm0 3.150722 1_555
As3 Sm0 3.150722 1_445
As3 Sm0 3.150722 1_545
As3 Sm0 3.150722 1_455
