# generated using pymatgen
data_K(AsRu)2
_symmetry_space_group_name_H-M   'P 1'
_cell_length_a   7.07646908
_cell_length_b   7.07646908
_cell_length_c   7.07646908
_cell_angle_alpha   146.44785002
_cell_angle_beta   146.44785002
_cell_angle_gamma   48.18203197
_symmetry_Int_Tables_number   1
_chemical_formula_structural   K(AsRu)2
_chemical_formula_sum   'K1 As2 Ru2'
_cell_volume   107.80060713
_cell_formula_units_Z   1
loop_
 _symmetry_equiv_pos_site_id
 _symmetry_equiv_pos_as_xyz
  1  'x, y, z'
loop_
 _atom_site_type_symbol
 _atom_site_label
 _atom_site_symmetry_multiplicity
 _atom_site_fract_x
 _atom_site_fract_y
 _atom_site_fract_z
 _atom_site_occupancy
  K  K0  1  -0.00000000  -0.00000000  0.00000000  1
  As  As0  1  0.34943072  0.34943072  -0.00000000  1
  As  As1  1  0.65056928  0.65056928  0.00000000  1
  Ru  Ru0  1  0.75000000  0.25000000  0.50000000  1
  Ru  Ru1  1  0.25000000  0.75000000  0.50000000  1
loop_
_geom_bond_atom_site_label_1
_geom_bond_atom_site_label_2
_geom_bond_distance
_geom_bond_site_symmetry_2
As0 Ru0 2.412913 1_454
As0 Ru0 2.412913 1_555
As0 Ru1 2.412913 1_544
As0 Ru1 2.412913 1_555
As0 K0 3.482541 1_655
As0 K0 3.482541 1_565
As0 K0 3.482541 1_666
As0 K0 3.482541 1_554
As1 Ru1 2.412913 1_655
As1 Ru1 2.412913 1_554
As1 Ru0 2.412913 1_565
As1 Ru0 2.412913 1_554
As1 K0 3.482541 1_655
As1 K0 3.482541 1_565
As1 K0 3.482541 1_666
As1 K0 3.482541 1_554
