# generated using pymatgen
data_CeYMg4
_symmetry_space_group_name_H-M   'P 1'
_cell_length_a   6.02974842
_cell_length_b   6.02974842
_cell_length_c   6.02974842
_cell_angle_alpha   60.00000000
_cell_angle_beta   60.00000000
_cell_angle_gamma   60.00000000
_symmetry_Int_Tables_number   1
_chemical_formula_structural   CeYMg4
_chemical_formula_sum   'Ce1 Y1 Mg4'
_cell_volume   155.01816096
_cell_formula_units_Z   1
loop_
 _symmetry_equiv_pos_site_id
 _symmetry_equiv_pos_as_xyz
  1  'x, y, z'
loop_
 _atom_site_type_symbol
 _atom_site_label
 _atom_site_symmetry_multiplicity
 _atom_site_fract_x
 _atom_site_fract_y
 _atom_site_fract_z
 _atom_site_occupancy
  Ce  Ce0  1  0.25000000  0.25000000  0.25000000  1
  Y  Y0  1  0.00000000  0.00000000  0.00000000  1
  Mg  Mg0  1  0.12495100  0.62501600  0.62501600  1
  Mg  Mg1  1  0.62501600  0.12495100  0.62501600  1
  Mg  Mg2  1  0.62501600  0.62501600  0.12495100  1
  Mg  Mg3  1  0.62501600  0.62501600  0.62501600  1
loop_
_geom_bond_atom_site_label_1
_geom_bond_atom_site_label_2
_geom_bond_distance
_geom_bond_site_symmetry_2
Ce0 Mg0 3.535292 1_555
Ce0 Mg1 3.535292 1_555
Ce0 Mg2 3.535292 1_555
Ce0 Mg3 3.535295 1_455
Ce0 Mg3 3.535295 1_554
Ce0 Mg3 3.535295 1_545
Ce0 Mg1 3.535297 1_554
Ce0 Mg1 3.535297 1_455
Ce0 Mg2 3.535297 1_545
Ce0 Mg0 3.535297 1_545
Ce0 Mg2 3.535297 1_455
Ce0 Mg0 3.535297 1_554
Ce0 Y0 3.692452 1_556
Ce0 Y0 3.692452 1_565
Ce0 Y0 3.692452 1_555
Ce0 Y0 3.692452 1_655
Mg0 Mg1 3.014482 1_465
Mg0 Mg3 3.014482 1_455
Mg0 Mg2 3.014482 1_456
Mg0 Mg3 3.015266 1_555
Mg0 Mg2 3.015266 1_555
Mg0 Mg1 3.015266 1_555
Mg0 Y0 3.535210 1_556
Mg0 Y0 3.535210 1_565
Mg0 Y0 3.535215 1_566
Mg1 Mg2 3.014482 1_546
Mg1 Mg3 3.014482 1_545
Mg1 Mg3 3.015266 1_555
Mg1 Mg2 3.015266 1_555
Mg1 Y0 3.535210 1_556
Mg1 Y0 3.535210 1_655
Mg1 Y0 3.535215 1_656
Mg2 Mg3 3.014482 1_554
Mg2 Mg3 3.015266 1_555
Mg2 Y0 3.535210 1_565
Mg2 Y0 3.535210 1_655
Mg2 Y0 3.535215 1_665
Mg3 Y0 3.535212 1_566
Mg3 Y0 3.535212 1_656
Mg3 Y0 3.535212 1_665
