# generated using pymatgen
data_Gd2SeOF2
_symmetry_space_group_name_H-M   'P 1'
_cell_length_a   3.81023730
_cell_length_b   13.60613301
_cell_length_c   13.60613302
_cell_angle_alpha   119.99999886
_cell_angle_beta   90.00000000
_cell_angle_gamma   90.00000000
_symmetry_Int_Tables_number   1
_chemical_formula_structural   Gd2SeOF2
_chemical_formula_sum   'Gd12 Se6 O6 F12'
_cell_volume   610.87462522
_cell_formula_units_Z   6
loop_
 _symmetry_equiv_pos_site_id
 _symmetry_equiv_pos_as_xyz
  1  'x, y, z'
loop_
 _atom_site_type_symbol
 _atom_site_label
 _atom_site_symmetry_multiplicity
 _atom_site_fract_x
 _atom_site_fract_y
 _atom_site_fract_z
 _atom_site_occupancy
  Gd  Gd0  1  0.75000000  0.60228449  0.48439496  1
  Gd  Gd1  1  0.75000000  0.51560504  0.11788953  1
  Gd  Gd2  1  0.75000000  0.88211047  0.39771551  1
  Gd  Gd3  1  0.25000000  0.39771551  0.51560504  1
  Gd  Gd4  1  0.25000000  0.48439496  0.88211047  1
  Gd  Gd5  1  0.25000000  0.11788953  0.60228449  1
  Gd  Gd6  1  0.75000000  0.94453228  0.71106137  1
  Gd  Gd7  1  0.75000000  0.28893863  0.23347092  1
  Gd  Gd8  1  0.75000000  0.76652908  0.05546772  1
  Gd  Gd9  1  0.25000000  0.05546772  0.28893863  1
  Gd  Gd10  1  0.25000000  0.71106137  0.76652908  1
  Gd  Gd11  1  0.25000000  0.23347092  0.94453228  1
  Se  Se0  1  0.75000000  0.28151262  0.79411048  1
  Se  Se1  1  0.75000000  0.20588952  0.48740214  1
  Se  Se2  1  0.75000000  0.51259786  0.71848738  1
  Se  Se3  1  0.25000000  0.71848738  0.20588952  1
  Se  Se4  1  0.25000000  0.79411048  0.51259786  1
  Se  Se5  1  0.25000000  0.48740214  0.28151262  1
  O  O0  1  0.75000000  0.01456893  0.58719842  1
  O  O1  1  0.75000000  0.41280158  0.42737050  1
  O  O2  1  0.75000000  0.57262950  0.98543107  1
  O  O3  1  0.25000000  0.98543107  0.41280158  1
  O  O4  1  0.25000000  0.58719842  0.57262950  1
  O  O5  1  0.25000000  0.42737050  0.01456893  1
  F  F0  1  0.75000000  0.10615732  0.89898419  1
  F  F1  1  0.75000000  0.10101581  0.20717313  1
  F  F2  1  0.75000000  0.79282687  0.89384268  1
  F  F3  1  0.25000000  0.89384268  0.10101581  1
  F  F4  1  0.25000000  0.89898419  0.79282687  1
  F  F5  1  0.25000000  0.20717313  0.10615732  1
  F  F6  1  0.75000000  0.75167439  0.68456190  1
  F  F7  1  0.75000000  0.31543810  0.06711249  1
  F  F8  1  0.75000000  0.93288751  0.24832561  1
  F  F9  1  0.25000000  0.24832561  0.31543810  1
  F  F10  1  0.25000000  0.68456190  0.93288751  1
  F  F11  1  0.25000000  0.06711249  0.75167439  1
loop_
_geom_bond_atom_site_label_1
_geom_bond_atom_site_label_2
_geom_bond_distance
_geom_bond_site_symmetry_2
Gd0 O1 2.290943 1_555
Gd0 O4 2.315018 1_555
Gd0 O4 2.315018 1_655
Gd0 Se5 3.062346 1_655
Gd0 Se5 3.062346 1_555
Gd0 Se4 3.096342 1_555
Gd0 Se4 3.096342 1_655
Gd1 O2 2.290943 1_554
Gd1 O5 2.315018 1_655
Gd1 O5 2.315018 1_555
Gd1 Se3 3.062346 1_555
Gd1 Se3 3.062346 1_655
Gd1 Se5 3.096342 1_655
Gd1 Se5 3.096342 1_555
Gd2 O0 2.290943 1_565
Gd2 O3 2.315018 1_655
Gd2 O3 2.315018 1_555
Gd2 Se4 3.062346 1_555
Gd2 Se4 3.062346 1_655
Gd2 Se3 3.096342 1_555
Gd2 Se3 3.096342 1_655
Gd3 O4 2.290943 1_555
Gd3 O1 2.315018 1_455
Gd3 O1 2.315018 1_555
Gd3 Se2 3.062346 1_455
Gd3 Se2 3.062346 1_555
Gd3 Se1 3.096342 1_455
Gd3 Se1 3.096342 1_555
Gd4 O5 2.290943 1_556
Gd4 O2 2.315018 1_555
Gd4 O2 2.315018 1_455
Gd4 Se0 3.062346 1_455
Gd4 Se0 3.062346 1_555
Gd4 Se2 3.096342 1_455
Gd4 Se2 3.096342 1_555
Gd5 O3 2.290943 1_545
Gd5 O0 2.315018 1_555
Gd5 O0 2.315018 1_455
Gd5 Se1 3.062346 1_455
Gd5 Se1 3.062346 1_555
Gd5 Se0 3.096342 1_555
Gd5 Se0 3.096342 1_455
Gd6 O0 2.313927 1_565
Gd6 Se4 3.095705 1_555
Gd6 Se4 3.095705 1_655
Gd7 O1 2.313927 1_555
Gd7 Se5 3.095705 1_655
Gd7 Se5 3.095705 1_555
Gd8 O2 2.313927 1_554
Gd8 Se3 3.095705 1_555
Gd8 Se3 3.095705 1_655
Gd9 O3 2.313927 1_545
Gd9 Se1 3.095705 1_455
Gd9 Se1 3.095705 1_555
Gd10 O4 2.313927 1_555
Gd10 Se2 3.095705 1_555
Gd10 Se2 3.095705 1_455
Gd11 O5 2.313927 1_556
Gd11 Se0 3.095705 1_555
Gd11 Se0 3.095705 1_455
F0 Gd6 2.398102 1_545
F0 Gd11 2.437353 1_555
F0 Gd11 2.437353 1_655
F1 Gd7 2.398102 1_555
F1 Gd9 2.437353 1_655
F1 Gd9 2.437353 1_555
F2 Gd8 2.398102 1_556
F2 Gd10 2.437353 1_655
F2 Gd10 2.437353 1_555
F3 Gd9 2.398102 1_565
F3 Gd8 2.437353 1_455
F3 Gd8 2.437353 1_555
F4 Gd10 2.398102 1_555
F4 Gd6 2.437353 1_555
F4 Gd6 2.437353 1_455
F5 Gd11 2.398102 1_554
F5 Gd7 2.437353 1_455
F5 Gd7 2.437353 1_555
F6 Gd10 2.407260 1_555
F6 Gd10 2.407260 1_655
F6 Gd0 2.452172 1_555
F6 Gd6 2.463640 1_555
F7 Gd11 2.407260 1_554
F7 Gd11 2.407260 1_654
F7 Gd1 2.452172 1_555
F7 Gd7 2.463641 1_555
F8 Gd9 2.407260 1_665
F8 Gd9 2.407260 1_565
F8 Gd2 2.452172 1_555
F8 Gd8 2.463640 1_555
F9 Gd7 2.407260 1_455
F9 Gd7 2.407260 1_555
F9 Gd3 2.452172 1_555
F9 Gd9 2.463640 1_555
F10 Gd8 2.407260 1_556
F10 Gd8 2.407260 1_456
F10 Gd4 2.452172 1_555
F10 Gd10 2.463641 1_555
F11 Gd6 2.407260 1_545
F11 Gd6 2.407260 1_445
F11 Gd5 2.452172 1_555
F11 Gd11 2.463640 1_555
