# generated using pymatgen
data_CeSnPd4
_symmetry_space_group_name_H-M   'P 1'
_cell_length_a   8.37699400
_cell_length_b   9.03181000
_cell_length_c   12.80883757
_cell_angle_alpha   69.35592221
_cell_angle_beta   90.00000000
_cell_angle_gamma   90.00000000
_symmetry_Int_Tables_number   1
_chemical_formula_structural   CeSnPd4
_chemical_formula_sum   'Ce8 Sn8 Pd32'
_cell_volume   906.88132632
_cell_formula_units_Z   8
loop_
 _symmetry_equiv_pos_site_id
 _symmetry_equiv_pos_as_xyz
  1  'x, y, z'
loop_
 _atom_site_type_symbol
 _atom_site_label
 _atom_site_symmetry_multiplicity
 _atom_site_fract_x
 _atom_site_fract_y
 _atom_site_fract_z
 _atom_site_occupancy
  Ce  Ce0  1  0.07783900  0.19179300  0.61641500  1
  Ce  Ce1  1  0.92216100  0.80820700  0.38358500  1
  Ce  Ce2  1  0.57783900  0.30820700  0.38358500  1
  Ce  Ce3  1  0.42216100  0.69179300  0.61641500  1
  Ce  Ce4  1  0.22914100  0.46258200  0.07483600  1
  Ce  Ce5  1  0.77085900  0.53741800  0.92516400  1
  Ce  Ce6  1  0.72914100  0.03741800  0.92516400  1
  Ce  Ce7  1  0.27085900  0.96258200  0.07483600  1
  Sn  Sn0  1  0.25000000  0.84029000  0.81942000  1
  Sn  Sn1  1  0.75000000  0.65971000  0.18058000  1
  Sn  Sn2  1  0.75000000  0.15971000  0.18058000  1
  Sn  Sn3  1  0.25000000  0.34029000  0.81942000  1
  Sn  Sn4  1  0.25000000  0.03742400  0.42515100  1
  Sn  Sn5  1  0.75000000  0.46257600  0.57484900  1
  Sn  Sn6  1  0.75000000  0.96257600  0.57484900  1
  Sn  Sn7  1  0.25000000  0.53742400  0.42515100  1
  Pd  Pd0  1  0.08972100  0.11284400  0.21978300  1
  Pd  Pd1  1  0.91027900  0.33262700  0.78021700  1
  Pd  Pd2  1  0.58972100  0.83262700  0.78021700  1
  Pd  Pd3  1  0.41027900  0.61284400  0.21978300  1
  Pd  Pd4  1  0.91027900  0.88715600  0.78021700  1
  Pd  Pd5  1  0.08972100  0.66737300  0.21978300  1
  Pd  Pd6  1  0.41027900  0.16737300  0.21978300  1
  Pd  Pd7  1  0.58972100  0.38715600  0.78021700  1
  Pd  Pd8  1  0.09206900  0.85689600  0.60410800  1
  Pd  Pd9  1  0.90793100  0.46100500  0.39589200  1
  Pd  Pd10  1  0.59206900  0.96100500  0.39589200  1
  Pd  Pd11  1  0.40793100  0.35689600  0.60410800  1
  Pd  Pd12  1  0.90793100  0.14310400  0.39589200  1
  Pd  Pd13  1  0.09206900  0.53899500  0.60410800  1
  Pd  Pd14  1  0.40793100  0.03899500  0.60410800  1
  Pd  Pd15  1  0.59206900  0.64310400  0.39589200  1
  Pd  Pd16  1  0.08145700  0.06004500  0.87990900  1
  Pd  Pd17  1  0.91854300  0.93995500  0.12009100  1
  Pd  Pd18  1  0.58145700  0.43995500  0.12009100  1
  Pd  Pd19  1  0.41854300  0.56004500  0.87990900  1
  Pd  Pd20  1  0.42168800  0.08805600  0.82388800  1
  Pd  Pd21  1  0.57831200  0.91194400  0.17611200  1
  Pd  Pd22  1  0.92168800  0.41194400  0.17611200  1
  Pd  Pd23  1  0.07831200  0.58805600  0.82388800  1
  Pd  Pd24  1  0.19519000  0.34141800  0.31716400  1
  Pd  Pd25  1  0.80481000  0.65858200  0.68283600  1
  Pd  Pd26  1  0.69519000  0.15858200  0.68283600  1
  Pd  Pd27  1  0.30481000  0.84141800  0.31716400  1
  Pd  Pd28  1  0.00000000  0.73502800  0.00000000  1
  Pd  Pd29  1  0.50000000  0.23502800  0.00000000  1
  Pd  Pd30  1  0.00000000  0.26497200  0.00000000  1
  Pd  Pd31  1  0.50000000  0.76497200  0.00000000  1
loop_
_geom_bond_atom_site_label_1
_geom_bond_atom_site_label_2
_geom_bond_distance
_geom_bond_site_symmetry_2
Ce0 Pd13 3.086119 1_555
Ce0 Pd8 3.086137 1_545
Ce0 Pd11 3.119123 1_555
Ce0 Pd14 3.119131 1_555
Ce0 Pd1 3.141985 1_455
Ce0 Pd4 3.141991 1_445
Ce0 Pd16 3.158480 1_555
Ce0 Pd26 3.302839 1_455
Ce0 Pd12 3.327715 1_455
Ce0 Pd9 3.327715 1_455
Ce0 Sn7 3.526196 1_555
Ce0 Sn4 3.526207 1_555
Ce0 Sn5 3.590093 1_455
Ce0 Sn6 3.590093 1_445
Ce0 Pd24 3.719202 1_555
Ce1 Pd9 3.086119 1_555
Ce1 Pd12 3.086137 1_565
Ce1 Pd15 3.119123 1_555
Ce1 Pd10 3.119131 1_555
Ce1 Pd5 3.141985 1_655
Ce1 Pd0 3.141991 1_665
Ce1 Pd17 3.158480 1_555
Ce1 Pd27 3.302839 1_655
Ce1 Pd8 3.327715 1_655
Ce1 Pd13 3.327715 1_655
Ce1 Sn5 3.526196 1_555
Ce1 Sn6 3.526207 1_555
Ce1 Sn4 3.590093 1_665
Ce1 Sn7 3.590093 1_655
Ce1 Pd25 3.719202 1_555
Ce2 Pd10 3.086119 1_545
Ce2 Pd15 3.086137 1_555
Ce2 Pd12 3.119123 1_555
Ce2 Pd9 3.119131 1_555
Ce2 Pd6 3.141985 1_555
Ce2 Pd3 3.141991 1_555
Ce2 Pd18 3.158480 1_555
Ce2 Pd24 3.302839 1_555
Ce2 Pd11 3.327715 1_555
Ce2 Pd14 3.327715 1_555
Ce2 Sn6 3.526196 1_545
Ce2 Sn5 3.526207 1_555
Ce2 Sn7 3.590093 1_555
Ce2 Sn4 3.590093 1_555
Ce2 Pd26 3.719202 1_555
Ce3 Pd14 3.086119 1_565
Ce3 Pd11 3.086137 1_555
Ce3 Pd8 3.119123 1_555
Ce3 Pd13 3.119131 1_555
Ce3 Pd2 3.141985 1_555
Ce3 Pd7 3.141991 1_555
Ce3 Pd19 3.158480 1_555
Ce3 Pd25 3.302839 1_555
Ce3 Pd15 3.327715 1_555
Ce3 Pd10 3.327715 1_555
Ce3 Sn4 3.526196 1_565
Ce3 Sn7 3.526207 1_555
Ce3 Sn6 3.590093 1_555
Ce3 Sn5 3.590093 1_555
Ce3 Pd27 3.719202 1_555
Ce4 Pd19 2.824258 1_554
Ce4 Pd22 2.847278 1_455
Ce4 Pd24 2.918522 1_555
Ce4 Pd30 2.999189 1_555
Ce4 Pd28 2.999189 1_555
Ce4 Pd18 3.000784 1_555
Ce4 Pd6 3.060711 1_555
Ce4 Pd3 3.060711 1_555
Ce4 Pd23 3.262546 1_554
Ce4 Pd5 3.263981 1_555
Ce4 Pd0 3.263981 1_555
Ce4 Pd29 3.417633 1_555
Ce4 Pd31 3.417633 1_555
Ce5 Pd18 2.824258 1_556
Ce5 Pd23 2.847278 1_655
Ce5 Pd25 2.918522 1_555
Ce5 Pd30 2.999189 1_656
Ce5 Pd28 2.999189 1_656
Ce5 Pd19 3.000784 1_555
Ce5 Pd7 3.060711 1_555
Ce5 Pd2 3.060711 1_555
Ce5 Pd22 3.262546 1_556
Ce5 Pd1 3.263981 1_555
Ce5 Pd4 3.263981 1_555
Ce5 Pd31 3.417633 1_556
Ce5 Pd29 3.417633 1_556
Ce6 Pd17 2.824258 1_546
Ce6 Pd20 2.847278 1_555
Ce6 Pd26 2.918522 1_555
Ce6 Pd29 2.999189 1_556
Ce6 Pd31 2.999189 1_546
Ce6 Pd16 3.000784 1_655
Ce6 Pd1 3.060711 1_555
Ce6 Pd4 3.060711 1_545
Ce6 Pd21 3.262546 1_546
Ce6 Pd2 3.263981 1_545
Ce6 Pd7 3.263981 1_555
Ce6 Pd30 3.417633 1_656
Ce6 Pd28 3.417633 1_646
Ce7 Pd16 2.824258 1_564
Ce7 Pd21 2.847278 1_555
Ce7 Pd27 2.918522 1_555
Ce7 Pd29 2.999189 1_565
Ce7 Pd31 2.999189 1_555
Ce7 Pd17 3.000784 1_455
Ce7 Pd0 3.060711 1_565
Ce7 Pd5 3.060711 1_555
Ce7 Pd20 3.262546 1_564
Ce7 Pd3 3.263981 1_555
Ce7 Pd6 3.263981 1_565
Ce7 Pd30 3.417633 1_565
Ce7 Pd28 3.417633 1_555
Pd0 Pd6 2.730102 1_555
Pd0 Pd17 2.744278 1_445
Pd0 Pd30 2.765948 1_555
Pd0 Pd12 2.813699 1_455
Pd0 Sn4 2.814767 1_555
Pd0 Sn2 2.894867 1_455
Pd0 Pd24 2.900702 1_555
Pd0 Pd22 2.919999 1_455
Pd0 Pd27 2.942090 1_545
Pd1 Pd7 2.730102 1_555
Pd1 Pd16 2.744285 1_655
Pd1 Pd30 2.765948 1_656
Pd1 Pd13 2.813696 1_655
Pd1 Sn5 2.814768 1_555
Pd1 Sn3 2.894867 1_655
Pd1 Pd25 2.900702 1_555
Pd1 Pd23 2.919999 1_655
Pd1 Pd26 2.942090 1_555
Pd2 Pd4 2.730102 1_555
Pd2 Pd31 2.765948 1_556
Pd2 Sn6 2.814768 1_555
Pd2 Sn0 2.894867 1_555
Pd2 Pd26 2.900702 1_565
Pd2 Pd20 2.919999 1_565
Pd2 Pd25 2.942090 1_555
Pd3 Pd5 2.730102 1_555
Pd3 Pd31 2.765948 1_555
Pd3 Sn7 2.814767 1_555
Pd3 Sn1 2.894867 1_555
Pd4 Pd8 2.813699 1_655
Pd4 Sn6 2.814767 1_555
Pd4 Sn0 2.894867 1_655
Pd5 Pd9 2.813696 1_455
Pd5 Sn7 2.814768 1_555
Pd5 Sn1 2.894867 1_455
Pd6 Sn4 2.814768 1_555
Pd6 Sn2 2.894867 1_555
Pd7 Sn5 2.814767 1_555
Pd7 Sn3 2.894867 1_555
Pd8 Sn4 2.650991 1_565
Pd8 Sn6 3.001734 1_455
Pd8 Sn0 3.014485 1_555
Pd9 Sn5 2.650991 1_555
Pd9 Sn7 3.001729 1_655
Pd9 Sn1 3.014482 1_555
Pd10 Sn6 2.650991 1_555
Pd10 Pd6 2.813696 1_565
Pd10 Pd15 2.871221 1_555
Pd10 Pd27 2.956703 1_555
Pd10 Sn4 3.001729 1_565
Pd10 Pd21 3.002356 1_555
Pd10 Sn2 3.014482 1_565
Pd10 Pd12 3.115472 1_565
Pd10 Pd14 3.363497 1_565
Pd11 Sn7 2.650991 1_555
Pd11 Pd7 2.813699 1_555
Pd11 Pd14 2.871221 1_555
Pd11 Pd26 2.956698 1_555
Pd11 Sn5 3.001734 1_555
Pd11 Pd20 3.002352 1_555
Pd11 Sn3 3.014485 1_555
Pd11 Pd13 3.115472 1_555
Pd11 Pd15 3.363506 1_555
Pd12 Sn6 2.650991 1_545
Pd12 Pd9 2.871221 1_555
Pd12 Pd24 2.956698 1_655
Pd12 Sn4 3.001734 1_655
Pd12 Pd22 3.002352 1_555
Pd12 Sn2 3.014485 1_555
Pd12 Pd8 3.363506 1_645
Pd13 Sn7 2.650991 1_555
Pd13 Pd8 2.871221 1_555
Pd13 Pd25 2.956703 1_455
Pd13 Sn5 3.001729 1_455
Pd13 Pd23 3.002356 1_555
Pd13 Sn3 3.014482 1_555
Pd13 Pd9 3.363497 1_455
Pd14 Sn4 2.650991 1_555
Pd14 Pd2 2.813696 1_545
Pd14 Pd26 2.956703 1_555
Pd14 Sn6 3.001729 1_545
Pd14 Pd20 3.002356 1_555
Pd14 Sn0 3.014482 1_545
Pd14 Pd8 3.115472 1_545
Pd15 Sn5 2.650991 1_555
Pd15 Pd3 2.813699 1_555
Pd15 Pd27 2.956698 1_555
Pd15 Sn7 3.001734 1_555
Pd15 Pd21 3.002352 1_555
Pd15 Sn1 3.014485 1_555
Pd15 Pd9 3.115472 1_555
Pd16 Pd4 2.744278 1_445
Pd16 Sn0 2.759970 1_545
Pd16 Sn3 2.759977 1_555
Pd16 Pd28 2.874878 1_546
Pd16 Pd30 2.874886 1_556
Pd17 Pd5 2.744285 1_655
Pd17 Sn2 2.759970 1_565
Pd17 Sn1 2.759977 1_555
Pd17 Pd30 2.874878 1_665
Pd17 Pd28 2.874886 1_655
Pd18 Pd3 2.744278 1_555
Pd18 Pd6 2.744285 1_555
Pd18 Sn1 2.759970 1_555
Pd18 Sn2 2.759977 1_555
Pd18 Pd31 2.874878 1_555
Pd18 Pd29 2.874886 1_555
Pd19 Pd7 2.744278 1_555
Pd19 Pd2 2.744285 1_555
Pd19 Sn3 2.759970 1_555
Pd19 Sn0 2.759977 1_555
Pd19 Pd29 2.874878 1_556
Pd19 Pd31 2.874886 1_556
Pd20 Sn3 2.677634 1_555
Pd20 Sn0 2.677634 1_545
Pd20 Pd26 2.847406 1_555
Pd20 Pd7 2.919999 1_555
Pd20 Pd31 3.064705 1_546
Pd20 Pd29 3.064705 1_556
Pd21 Sn1 2.677634 1_555
Pd21 Sn2 2.677634 1_565
Pd21 Pd27 2.847406 1_555
Pd21 Pd3 2.919999 1_555
Pd21 Pd6 2.919999 1_565
Pd21 Pd31 3.064705 1_555
Pd21 Pd29 3.064705 1_565
Pd22 Sn1 2.677634 1_555
Pd22 Sn2 2.677634 1_555
Pd22 Pd24 2.847406 1_655
Pd22 Pd5 2.919999 1_655
Pd22 Pd9 3.002356 1_555
Pd22 Pd30 3.064705 1_655
Pd22 Pd28 3.064705 1_655
Pd23 Sn0 2.677634 1_555
Pd23 Sn3 2.677634 1_555
Pd23 Pd25 2.847406 1_455
Pd23 Pd4 2.919999 1_455
Pd23 Pd8 3.002352 1_555
Pd23 Pd30 3.064705 1_556
Pd23 Pd28 3.064705 1_556
Pd24 Sn7 2.642828 1_555
Pd24 Sn4 2.642836 1_555
Pd24 Pd5 2.900702 1_555
Pd24 Pd3 2.942090 1_555
Pd24 Pd6 2.942090 1_555
Pd24 Pd9 2.956703 1_455
Pd25 Sn5 2.642828 1_555
Pd25 Sn6 2.642836 1_555
Pd25 Pd4 2.900702 1_555
Pd25 Pd7 2.942090 1_555
Pd25 Pd8 2.956698 1_655
Pd26 Sn6 2.642828 1_545
Pd26 Sn5 2.642836 1_555
Pd26 Pd7 2.900702 1_555
Pd26 Pd4 2.942090 1_545
Pd27 Sn4 2.642828 1_565
Pd27 Sn7 2.642836 1_555
Pd27 Pd3 2.900702 1_555
Pd27 Pd6 2.900702 1_565
Pd27 Pd5 2.942090 1_555
Pd28 Pd4 2.765948 1_454
Pd28 Pd5 2.765948 1_555
Pd28 Sn0 3.014832 1_554
Pd28 Sn1 3.014832 1_455
Pd29 Pd7 2.765948 1_554
Pd29 Pd6 2.765948 1_555
Pd29 Sn3 3.014832 1_554
Pd29 Sn2 3.014832 1_555
Pd30 Sn3 3.014832 1_554
Pd30 Sn2 3.014832 1_455
Pd31 Sn0 3.014832 1_554
Pd31 Sn1 3.014832 1_555
