# generated using pymatgen
data_Na2Fe4O7
_symmetry_space_group_name_H-M   'P 1'
_cell_length_a   5.24479600
_cell_length_b   5.24472208
_cell_length_c   6.72209301
_cell_angle_alpha   89.99459307
_cell_angle_beta   90.00270719
_cell_angle_gamma   119.99956426
_symmetry_Int_Tables_number   1
_chemical_formula_structural   Na2Fe4O7
_chemical_formula_sum   'Na2 Fe4 O7'
_cell_volume   160.13568968
_cell_formula_units_Z   1
loop_
 _symmetry_equiv_pos_site_id
 _symmetry_equiv_pos_as_xyz
  1  'x, y, z'
loop_
 _atom_site_type_symbol
 _atom_site_label
 _atom_site_symmetry_multiplicity
 _atom_site_fract_x
 _atom_site_fract_y
 _atom_site_fract_z
 _atom_site_occupancy
  Na  Na0  1  0.33333700  0.66664000  0.99997900  1
  Na  Na1  1  0.66666400  0.33330500  0.99997900  1
  Fe  Fe0  1  0.00000000  0.99998600  0.27278000  1
  Fe  Fe1  1  0.00000100  0.99999200  0.72723300  1
  Fe  Fe2  1  0.33333300  0.66665000  0.49999700  1
  Fe  Fe3  1  0.66666400  0.33331700  0.49999600  1
  O  O0  1  0.00000100  0.64004300  0.32569400  1
  O  O1  1  0.00000000  0.35993500  0.67431600  1
  O  O2  1  0.00000000  0.99998500  0.00000900  1
  O  O3  1  0.35994600  0.35989800  0.32567200  1
  O  O4  1  0.64005300  0.64007400  0.67433600  1
  O  O5  1  0.35994700  0.00002200  0.67433600  1
  O  O6  1  0.64005500  0.99995300  0.32567200  1
loop_
_geom_bond_atom_site_label_1
_geom_bond_atom_site_label_2
_geom_bond_distance
_geom_bond_site_symmetry_2
Na0 O4 2.761062 1_555
Na0 O5 2.761110 1_565
Na0 O1 2.761238 1_555
Na0 O3 2.761280 1_556
Na0 O6 2.761387 1_556
Na0 O0 2.761562 1_556
Na1 O5 2.761065 1_555
Na1 O4 2.761103 1_555
Na1 O1 2.761239 1_655
Na1 O6 2.761283 1_546
Na1 O3 2.761384 1_556
Na1 O0 2.761562 1_656
Fe0 O2 1.833592 1_555
Fe0 O6 1.920959 1_455
Fe0 O3 1.920960 1_565
Fe0 O0 1.920988 1_555
Fe1 O2 1.833626 1_556
Fe1 O5 1.920978 1_565
Fe1 O4 1.920987 1_455
Fe1 O1 1.920991 1_565
Fe2 O6 2.050505 1_555
Fe2 O0 2.050511 1_555
Fe2 O4 2.050538 1_555
Fe2 O1 2.050555 1_555
Fe2 O3 2.050835 1_555
Fe2 O5 2.050917 1_565
Fe3 O3 2.050484 1_555
Fe3 O0 2.050520 1_655
Fe3 O5 2.050534 1_555
Fe3 O1 2.050573 1_655
Fe3 O6 2.050834 1_545
Fe3 O4 2.050909 1_555
