# generated using pymatgen
data_Na(CrS2)2
_symmetry_space_group_name_H-M   'P 1'
_cell_length_a   7.34916018
_cell_length_b   7.34916018
_cell_length_c   7.34916018
_cell_angle_alpha   60.00000000
_cell_angle_beta   60.00000000
_cell_angle_gamma   60.00000000
_symmetry_Int_Tables_number   1
_chemical_formula_structural   Na(CrS2)2
_chemical_formula_sum   'Na2 Cr4 S8'
_cell_volume   280.67138779
_cell_formula_units_Z   2
loop_
 _symmetry_equiv_pos_site_id
 _symmetry_equiv_pos_as_xyz
  1  'x, y, z'
loop_
 _atom_site_type_symbol
 _atom_site_label
 _atom_site_symmetry_multiplicity
 _atom_site_fract_x
 _atom_site_fract_y
 _atom_site_fract_z
 _atom_site_occupancy
  Na  Na0  1  0.00000000  0.00000000  0.00000000  1
  Na  Na1  1  0.25000000  0.25000000  0.25000000  1
  Cr  Cr0  1  0.62500000  0.62500000  0.62500000  1
  Cr  Cr1  1  0.12500000  0.62500000  0.62500000  1
  Cr  Cr2  1  0.62500000  0.12500000  0.62500000  1
  Cr  Cr3  1  0.62500000  0.62500000  0.12500000  1
  S  S0  1  0.85564100  0.85564100  0.85564100  1
  S  S1  1  0.81692400  0.39435900  0.39435900  1
  S  S2  1  0.39435900  0.39435900  0.81692400  1
  S  S3  1  0.39435900  0.81692400  0.39435900  1
  S  S4  1  0.85564100  0.85564100  0.43307600  1
  S  S5  1  0.85564100  0.43307600  0.85564100  1
  S  S6  1  0.39435900  0.39435900  0.39435900  1
  S  S7  1  0.43307600  0.85564100  0.85564100  1
loop_
_geom_bond_atom_site_label_1
_geom_bond_atom_site_label_2
_geom_bond_distance
_geom_bond_site_symmetry_2
Na0 S5 2.598700 1_454
Na0 S4 2.598700 1_445
Na0 S7 2.598700 1_544
Na0 S0 2.598706 1_444
Na1 S1 2.598700 1_455
Na1 S3 2.598700 1_545
Na1 S2 2.598700 1_554
Na1 S6 2.598706 1_555
Cr0 S5 2.413945 1_555
Cr0 S2 2.413945 1_555
Cr0 S1 2.413945 1_555
Cr0 S3 2.413945 1_555
Cr0 S7 2.413945 1_555
Cr0 S4 2.413945 1_555
Cr1 S0 2.413946 1_455
Cr1 S6 2.413946 1_555
Cr1 S2 2.413951 1_555
Cr1 S4 2.413951 1_455
Cr1 S3 2.413951 1_555
Cr1 S5 2.413951 1_455
Cr2 S0 2.413946 1_545
Cr2 S6 2.413946 1_555
Cr2 S7 2.413951 1_545
Cr2 S2 2.413951 1_555
Cr2 S4 2.413951 1_545
Cr2 S1 2.413951 1_555
Cr3 S6 2.413946 1_555
Cr3 S0 2.413946 1_554
Cr3 S5 2.413951 1_554
Cr3 S7 2.413951 1_554
Cr3 S3 2.413951 1_555
Cr3 S1 2.413951 1_555
