# generated using pymatgen
data_CaBi2O5
_symmetry_space_group_name_H-M   'P 1'
_cell_length_a   3.96805200
_cell_length_b   5.37073600
_cell_length_c   13.68384500
_cell_angle_alpha   90.00000000
_cell_angle_beta   90.00000000
_cell_angle_gamma   90.00000000
_symmetry_Int_Tables_number   1
_chemical_formula_structural   CaBi2O5
_chemical_formula_sum   'Ca2 Bi4 O10'
_cell_volume   291.62134323
_cell_formula_units_Z   2
loop_
 _symmetry_equiv_pos_site_id
 _symmetry_equiv_pos_as_xyz
  1  'x, y, z'
loop_
 _atom_site_type_symbol
 _atom_site_label
 _atom_site_symmetry_multiplicity
 _atom_site_fract_x
 _atom_site_fract_y
 _atom_site_fract_z
 _atom_site_occupancy
  Ca  Ca0  1  0.00000000  0.62616900  0.50000000  1
  Ca  Ca1  1  0.50000000  0.37383100  0.00000000  1
  Bi  Bi0  1  0.50000000  0.09458700  0.64397600  1
  Bi  Bi1  1  0.00000000  0.90541300  0.85602400  1
  Bi  Bi2  1  0.00000000  0.90541300  0.14397600  1
  Bi  Bi3  1  0.50000000  0.09458700  0.35602400  1
  O  O0  1  0.00000000  0.07981500  0.00000000  1
  O  O1  1  0.50000000  0.92018500  0.50000000  1
  O  O2  1  0.00000000  0.93172600  0.66904500  1
  O  O3  1  0.50000000  0.06827400  0.83095500  1
  O  O4  1  0.00000000  0.93172600  0.33095500  1
  O  O5  1  0.50000000  0.06827400  0.16904500  1
  O  O6  1  0.50000000  0.45967600  0.39866400  1
  O  O7  1  0.00000000  0.54032400  0.10133600  1
  O  O8  1  0.00000000  0.54032400  0.89866400  1
  O  O9  1  0.50000000  0.45967600  0.60133600  1
loop_
_geom_bond_atom_site_label_1
_geom_bond_atom_site_label_2
_geom_bond_distance
_geom_bond_site_symmetry_2
Ca0 O1 2.535717 1_455
Ca0 O1 2.535717 1_555
Ca0 O9 2.580461 1_555
Ca0 O9 2.580461 1_455
Ca0 O6 2.580461 1_555
Ca0 O6 2.580461 1_455
Ca0 O4 2.836181 1_555
Ca0 O2 2.836181 1_555
Ca1 O0 2.535717 1_555
Ca1 O0 2.535717 1_655
Ca1 O7 2.580461 1_555
Ca1 O7 2.580461 1_655
Ca1 O8 2.580461 1_654
Ca1 O8 2.580461 1_554
Ca1 O5 2.836181 1_555
Ca1 O3 2.836181 1_554
Bi0 O9 2.045769 1_555
Bi0 O1 2.181471 1_545
Bi0 O2 2.195246 1_545
Bi0 O2 2.195246 1_645
Bi0 O3 2.562491 1_555
Bi1 O8 2.045769 1_555
Bi1 O0 2.181471 1_566
Bi1 O3 2.195246 1_465
Bi1 O3 2.195246 1_565
Bi1 O2 2.562491 1_555
Bi2 O7 2.045769 1_555
Bi2 O0 2.181471 1_565
Bi2 O5 2.195246 1_565
Bi2 O5 2.195246 1_465
Bi2 O4 2.562491 1_555
Bi3 O6 2.045769 1_555
Bi3 O1 2.181471 1_545
Bi3 O4 2.195246 1_545
Bi3 O4 2.195246 1_645
Bi3 O5 2.562491 1_555
