# generated using pymatgen
data_Si10BiTe2H73C25
_symmetry_space_group_name_H-M   'P 1'
_cell_length_a   9.86203902
_cell_length_b   18.63683056
_cell_length_c   32.73458420
_cell_angle_alpha   90.00000000
_cell_angle_beta   90.00000000
_cell_angle_gamma   90.84596235
_symmetry_Int_Tables_number   1
_chemical_formula_structural   Si10BiTe2H73C25
_chemical_formula_sum   'Si40 Bi4 Te8 H292 C100'
_cell_volume   6015.86749848
_cell_formula_units_Z   4
loop_
 _symmetry_equiv_pos_site_id
 _symmetry_equiv_pos_as_xyz
  1  'x, y, z'
loop_
 _atom_site_type_symbol
 _atom_site_label
 _atom_site_symmetry_multiplicity
 _atom_site_fract_x
 _atom_site_fract_y
 _atom_site_fract_z
 _atom_site_occupancy
  Si  Si0  1  0.09681483  0.38644516  0.23648784  1
  Si  Si1  1  0.59681483  0.88644516  0.26351216  1
  Si  Si2  1  0.90318517  0.61355484  0.76351216  1
  Si  Si3  1  0.40318517  0.11355484  0.73648784  1
  Si  Si4  1  0.14860401  0.51108754  0.22608022  1
  Si  Si5  1  0.64860401  0.01108754  0.27391978  1
  Si  Si6  1  0.85139599  0.48891246  0.77391978  1
  Si  Si7  1  0.35139599  0.98891246  0.72608022  1
  Si  Si8  1  0.89333455  0.35338883  0.19991731  1
  Si  Si9  1  0.39333455  0.85338883  0.30008269  1
  Si  Si10  1  0.10666545  0.64661117  0.80008269  1
  Si  Si11  1  0.60666545  0.14661117  0.69991731  1
  Si  Si12  1  0.27843820  0.30882556  0.21899328  1
  Si  Si13  1  0.77843820  0.80882556  0.28100672  1
  Si  Si14  1  0.72156180  0.69117444  0.78100672  1
  Si  Si15  1  0.22156180  0.19117444  0.71899328  1
  Si  Si16  1  0.23706363  0.19782238  0.44881436  1
  Si  Si17  1  0.73706363  0.69782238  0.05118564  1
  Si  Si18  1  0.76293637  0.80217762  0.55118564  1
  Si  Si19  1  0.26293637  0.30217762  0.94881436  1
  Si  Si20  1  0.13935976  0.12445863  0.39603492  1
  Si  Si21  1  0.63935976  0.62445863  0.10396508  1
  Si  Si22  1  0.86064024  0.87554137  0.60396508  1
  Si  Si23  1  0.36064024  0.37554137  0.89603492  1
  Si  Si24  1  0.14959184  0.16930461  0.51627902  1
  Si  Si25  1  0.64959184  0.66930461  0.98372098  1
  Si  Si26  1  0.85040816  0.83069539  0.48372098  1
  Si  Si27  1  0.35040816  0.33069539  0.01627902  1
  Si  Si28  1  0.48018983  0.20064158  0.44943123  1
  Si  Si29  1  0.98018983  0.70064158  0.05056877  1
  Si  Si30  1  0.51981017  0.79935842  0.55056877  1
  Si  Si31  1  0.01981017  0.29935842  0.94943123  1
  Si  Si32  1  0.15085463  0.55754827  0.40927011  1
  Si  Si33  1  0.65085463  0.05754827  0.09072989  1
  Si  Si34  1  0.84914537  0.44245173  0.59072989  1
  Si  Si35  1  0.34914537  0.94245173  0.90927011  1
  Si  Si36  1  0.46802935  0.52077836  0.38683874  1
  Si  Si37  1  0.96802935  0.02077836  0.11316126  1
  Si  Si38  1  0.53197065  0.47922164  0.61316126  1
  Si  Si39  1  0.03197065  0.97922164  0.88683874  1
  Bi  Bi0  1  0.25904158  0.38190559  0.36490965  1
  Bi  Bi1  1  0.75904158  0.88190559  0.13509035  1
  Bi  Bi2  1  0.74095842  0.61809441  0.63509035  1
  Bi  Bi3  1  0.24095842  0.11809441  0.86490965  1
  Te  Te0  1  0.01684773  0.36891719  0.31100591  1
  Te  Te1  1  0.51684773  0.86891719  0.18899409  1
  Te  Te2  1  0.98315227  0.63108281  0.68899409  1
  Te  Te3  1  0.48315227  0.13108281  0.81100591  1
  Te  Te4  1  0.14226527  0.32647676  0.44150518  1
  Te  Te5  1  0.64226527  0.82647676  0.05849482  1
  Te  Te6  1  0.85773473  0.67352324  0.55849482  1
  Te  Te7  1  0.35773473  0.17352324  0.94150518  1
  H  H0  1  0.35158058  0.52423475  0.27161688  1
  H  H1  1  0.85158058  0.02423475  0.22838312  1
  H  H2  1  0.64841942  0.47576525  0.72838312  1
  H  H3  1  0.14841942  0.97576525  0.77161688  1
  H  H4  1  0.35097639  0.59085278  0.23270886  1
  H  H5  1  0.85097639  0.09085278  0.26729114  1
  H  H6  1  0.64902361  0.40914722  0.76729114  1
  H  H7  1  0.14902361  0.90914722  0.73270886  1
  H  H8  1  0.40163182  0.50183840  0.22099161  1
  H  H9  1  0.90163182  0.00183840  0.27900839  1
  H  H10  1  0.59836818  0.49816160  0.77900839  1
  H  H11  1  0.09836818  0.99816160  0.72099161  1
  H  H12  1  0.06259380  0.62712190  0.25159596  1
  H  H13  1  0.56259380  0.12712190  0.24840404  1
  H  H14  1  0.93740620  0.37287810  0.74840404  1
  H  H15  1  0.43740620  0.87287810  0.75159596  1
  H  H16  1  0.05459004  0.56089973  0.29096736  1
  H  H17  1  0.55459004  0.06089973  0.20903264  1
  H  H18  1  0.94540996  0.43910027  0.70903264  1
  H  H19  1  0.44540996  0.93910027  0.79096736  1
  H  H20  1  0.92998494  0.56111868  0.25172146  1
  H  H21  1  0.42998494  0.06111868  0.24827854  1
  H  H22  1  0.07001506  0.43888132  0.74827854  1
  H  H23  1  0.57001506  0.93888132  0.75172146  1
  H  H24  1  0.18706112  0.50358207  0.15054046  1
  H  H25  1  0.68706112  0.00358207  0.34945954  1
  H  H26  1  0.81293888  0.49641793  0.84945954  1
  H  H27  1  0.31293888  0.99641793  0.65054046  1
  H  H28  1  0.14279749  0.59208676  0.16543970  1
  H  H29  1  0.64279749  0.09208676  0.33456030  1
  H  H30  1  0.85720251  0.40791324  0.83456030  1
  H  H31  1  0.35720251  0.90791324  0.66543970  1
  H  H32  1  0.01507241  0.52384452  0.16171552  1
  H  H33  1  0.51507241  0.02384452  0.33828448  1
  H  H34  1  0.98492759  0.47615548  0.83828448  1
  H  H35  1  0.48492759  0.97615548  0.66171552  1
  H  H36  1  0.66628662  0.40900440  0.19232897  1
  H  H37  1  0.16628662  0.90900440  0.30767103  1
  H  H38  1  0.33371338  0.59099560  0.80767103  1
  H  H39  1  0.83371338  0.09099560  0.69232897  1
  H  H40  1  0.79426443  0.47618118  0.19906035  1
  H  H41  1  0.29426443  0.97618118  0.30093965  1
  H  H42  1  0.20573557  0.52381882  0.80093965  1
  H  H43  1  0.70573557  0.02381882  0.69906035  1
  H  H44  1  0.73454677  0.42603958  0.24193416  1
  H  H45  1  0.23454677  0.92603958  0.25806584  1
  H  H46  1  0.26545323  0.57396042  0.75806584  1
  H  H47  1  0.76545323  0.07396042  0.74193416  1
  H  H48  1  0.96418449  0.40027102  0.13107970  1
  H  H49  1  0.46418449  0.90027102  0.36892030  1
  H  H50  1  0.03581551  0.59972898  0.86892030  1
  H  H51  1  0.53581551  0.09972898  0.63107970  1
  H  H52  1  0.83142835  0.33498534  0.12688661  1
  H  H53  1  0.33142835  0.83498534  0.37311339  1
  H  H54  1  0.16857165  0.66501466  0.87311339  1
  H  H55  1  0.66857165  0.16501466  0.62688661  1
  H  H56  1  0.00044305  0.30717922  0.13568653  1
  H  H57  1  0.50044305  0.80717922  0.36431347  1
  H  H58  1  0.99955695  0.69282078  0.86431347  1
  H  H59  1  0.49955695  0.19282078  0.63568653  1
  H  H60  1  0.72970249  0.25086119  0.19913666  1
  H  H61  1  0.22970249  0.75086119  0.30086334  1
  H  H62  1  0.27029751  0.74913881  0.80086334  1
  H  H63  1  0.77029751  0.24913881  0.69913666  1
  H  H64  1  0.79821427  0.26299455  0.24918748  1
  H  H65  1  0.29821427  0.76299455  0.25081252  1
  H  H66  1  0.20178573  0.73700545  0.75081252  1
  H  H67  1  0.70178573  0.23700545  0.74918748  1
  H  H68  1  0.89508792  0.22014669  0.21056469  1
  H  H69  1  0.39508792  0.72014669  0.28943531  1
  H  H70  1  0.10491208  0.77985331  0.78943531  1
  H  H71  1  0.60491208  0.27985331  0.71056469  1
  H  H72  1  0.28048101  0.34283464  0.14495981  1
  H  H73  1  0.78048101  0.84283464  0.35504019  1
  H  H74  1  0.71951899  0.65716536  0.85504019  1
  H  H75  1  0.21951899  0.15716536  0.64495981  1
  H  H76  1  0.44181642  0.31087942  0.16071418  1
  H  H77  1  0.94181642  0.81087942  0.33928582  1
  H  H78  1  0.55818358  0.68912058  0.83928582  1
  H  H79  1  0.05818358  0.18912058  0.66071418  1
  H  H80  1  0.39152287  0.39934836  0.17390690  1
  H  H81  1  0.89152287  0.89934836  0.32609310  1
  H  H82  1  0.60847713  0.60065164  0.82609310  1
  H  H83  1  0.10847713  0.10065164  0.67390690  1
  H  H84  1  0.30700431  0.18007073  0.20212201  1
  H  H85  1  0.80700431  0.68007073  0.29787799  1
  H  H86  1  0.69299569  0.81992927  0.79787799  1
  H  H87  1  0.19299569  0.31992927  0.70212201  1
  H  H88  1  0.14359987  0.20866633  0.18675955  1
  H  H89  1  0.64359987  0.70866633  0.31324045  1
  H  H90  1  0.85640013  0.79133367  0.81324045  1
  H  H91  1  0.35640013  0.29133367  0.68675955  1
  H  H92  1  0.17741280  0.19043577  0.23933736  1
  H  H93  1  0.67741280  0.69043577  0.26066264  1
  H  H94  1  0.82258720  0.80956423  0.76066264  1
  H  H95  1  0.32258720  0.30956423  0.73933736  1
  H  H96  1  0.45950459  0.36176027  0.26421702  1
  H  H97  1  0.95950459  0.86176027  0.23578298  1
  H  H98  1  0.54049541  0.63823973  0.73578298  1
  H  H99  1  0.04049541  0.13823973  0.76421702  1
  H  H100  1  0.49893117  0.27333485  0.24808632  1
  H  H101  1  0.99893117  0.77333485  0.25191368  1
  H  H102  1  0.50106883  0.72666515  0.75191368  1
  H  H103  1  0.00106883  0.22666515  0.74808632  1
  H  H104  1  0.37924373  0.28589728  0.28795793  1
  H  H105  1  0.87924373  0.78589728  0.21204207  1
  H  H106  1  0.62075627  0.71410272  0.71204207  1
  H  H107  1  0.12075627  0.21410272  0.78795793  1
  H  H108  1  0.19971008  0.19894415  0.33503513  1
  H  H109  1  0.69971008  0.69894415  0.16496487  1
  H  H110  1  0.80028992  0.80105585  0.66496487  1
  H  H111  1  0.30028992  0.30105585  0.83503513  1
  H  H112  1  0.17164486  0.10766774  0.32152501  1
  H  H113  1  0.67164486  0.60766774  0.17847499  1
  H  H114  1  0.82835514  0.89233226  0.67847499  1
  H  H115  1  0.32835514  0.39233226  0.82152501  1
  H  H116  1  0.32816286  0.13421621  0.34457429  1
  H  H117  1  0.82816286  0.63421621  0.15542571  1
  H  H118  1  0.67183714  0.86578379  0.65542571  1
  H  H119  1  0.17183714  0.36578379  0.84457429  1
  H  H120  1  0.91076258  0.10514014  0.36652351  1
  H  H121  1  0.41076258  0.60514014  0.13347649  1
  H  H122  1  0.08923742  0.89485986  0.63347649  1
  H  H123  1  0.58923742  0.39485986  0.86652351  1
  H  H124  1  0.93415865  0.19632252  0.38151819  1
  H  H125  1  0.43415865  0.69632252  0.11848181  1
  H  H126  1  0.06584135  0.80367748  0.61848181  1
  H  H127  1  0.56584135  0.30367748  0.88151819  1
  H  H128  1  0.89667493  0.12933032  0.41899846  1
  H  H129  1  0.39667493  0.62933032  0.08100154  1
  H  H130  1  0.10332507  0.87066968  0.58100154  1
  H  H131  1  0.60332507  0.37066968  0.91899846  1
  H  H132  1  0.27491024  0.01508739  0.41081270  1
  H  H133  1  0.77491024  0.51508739  0.08918730  1
  H  H134  1  0.72508976  0.98491261  0.58918730  1
  H  H135  1  0.22508976  0.48491261  0.91081270  1
  H  H136  1  0.12119507  0.99204414  0.38513987  1
  H  H137  1  0.62119507  0.49204414  0.11486013  1
  H  H138  1  0.87880493  0.00795586  0.61486013  1
  H  H139  1  0.37880493  0.50795586  0.88513987  1
  H  H140  1  0.11917633  0.01279457  0.43825095  1
  H  H141  1  0.61917633  0.51279457  0.06174905  1
  H  H142  1  0.88082367  0.98720543  0.56174905  1
  H  H143  1  0.38082367  0.48720543  0.93825095  1
  H  H144  1  0.92117847  0.15126051  0.54733469  1
  H  H145  1  0.42117847  0.65126051  0.95266531  1
  H  H146  1  0.07882153  0.84873949  0.45266531  1
  H  H147  1  0.57882153  0.34873949  0.04733469  1
  H  H148  1  0.92130945  0.12004419  0.49596865  1
  H  H149  1  0.42130945  0.62004419  0.00403135  1
  H  H150  1  0.07869055  0.87995581  0.50403135  1
  H  H151  1  0.57869055  0.37995581  0.99596865  1
  H  H152  1  0.91433387  0.21387770  0.50631939  1
  H  H153  1  0.41433387  0.71387770  0.99368061  1
  H  H154  1  0.08566613  0.78612230  0.49368061  1
  H  H155  1  0.58566613  0.28612230  0.00631939  1
  H  H156  1  0.18574370  0.03591066  0.51571760  1
  H  H157  1  0.68574370  0.53591066  0.98428240  1
  H  H158  1  0.81425630  0.96408934  0.48428240  1
  H  H159  1  0.31425630  0.46408934  0.01571760  1
  H  H160  1  0.17765648  0.07003067  0.56640384  1
  H  H161  1  0.67765648  0.57003067  0.93359616  1
  H  H162  1  0.82234352  0.92996933  0.43359616  1
  H  H163  1  0.32234352  0.42996933  0.06640384  1
  H  H164  1  0.32824463  0.08181449  0.53721436  1
  H  H165  1  0.82824463  0.58181449  0.96278564  1
  H  H166  1  0.67175537  0.91818551  0.46278564  1
  H  H167  1  0.17175537  0.41818551  0.03721436  1
  H  H168  1  0.16080205  0.22873539  0.58450192  1
  H  H169  1  0.66080205  0.72873539  0.91549808  1
  H  H170  1  0.83919795  0.77126461  0.41549808  1
  H  H171  1  0.33919795  0.27126461  0.08450192  1
  H  H172  1  0.16065619  0.29376223  0.54459781  1
  H  H173  1  0.66065619  0.79376223  0.95540219  1
  H  H174  1  0.83934381  0.70623777  0.45540219  1
  H  H175  1  0.33934381  0.20623777  0.04459781  1
  H  H176  1  0.31134869  0.24687050  0.55617690  1
  H  H177  1  0.81134869  0.74687050  0.94382310  1
  H  H178  1  0.68865131  0.75312950  0.44382310  1
  H  H179  1  0.18865131  0.25312950  0.05617690  1
  H  H180  1  0.52525492  0.20736720  0.37387999  1
  H  H181  1  0.02525492  0.70736720  0.12612001  1
  H  H182  1  0.47474508  0.79263280  0.62612001  1
  H  H183  1  0.97474508  0.29263280  0.87387999  1
  H  H184  1  0.66796550  0.23607727  0.40320262  1
  H  H185  1  0.16796550  0.73607727  0.09679738  1
  H  H186  1  0.33203450  0.76392273  0.59679738  1
  H  H187  1  0.83203450  0.26392273  0.90320262  1
  H  H188  1  0.52950645  0.29461950  0.39618075  1
  H  H189  1  0.02950645  0.79461950  0.10381925  1
  H  H190  1  0.47049355  0.70538050  0.60381925  1
  H  H191  1  0.97049355  0.20538050  0.89618075  1
  H  H192  1  0.65237423  0.10467774  0.45600193  1
  H  H193  1  0.15237423  0.60467774  0.04399807  1
  H  H194  1  0.34762577  0.89532226  0.54399807  1
  H  H195  1  0.84762577  0.39532226  0.95600193  1
  H  H196  1  0.50782186  0.07287629  0.42872483  1
  H  H197  1  0.00782186  0.57287629  0.07127517  1
  H  H198  1  0.49217814  0.92712371  0.57127517  1
  H  H199  1  0.99217814  0.42712371  0.92872483  1
  H  H200  1  0.50186411  0.08018072  0.48301252  1
  H  H201  1  0.00186411  0.58018072  0.01698748  1
  H  H202  1  0.49813589  0.91981928  0.51698748  1
  H  H203  1  0.99813589  0.41981928  0.98301252  1
  H  H204  1  0.50865040  0.23718303  0.52284742  1
  H  H205  1  0.00865040  0.73718303  0.97715258  1
  H  H206  1  0.49134960  0.76281697  0.47715258  1
  H  H207  1  0.99134960  0.26281697  0.02284742  1
  H  H208  1  0.51761677  0.31295385  0.48965869  1
  H  H209  1  0.01761677  0.81295385  0.01034131  1
  H  H210  1  0.48238323  0.68704615  0.51034131  1
  H  H211  1  0.98238323  0.18704615  0.98965869  1
  H  H212  1  0.65815770  0.25452877  0.49390842  1
  H  H213  1  0.15815770  0.75452877  0.00609158  1
  H  H214  1  0.34184230  0.74547123  0.50609158  1
  H  H215  1  0.84184230  0.24547123  0.99390842  1
  H  H216  1  0.26120819  0.52544594  0.34585094  1
  H  H217  1  0.76120819  0.02544594  0.15414906  1
  H  H218  1  0.73879181  0.47455406  0.65414906  1
  H  H219  1  0.23879181  0.97455406  0.84585094  1
  H  H220  1  0.95861975  0.46737899  0.41243566  1
  H  H221  1  0.45861975  0.96737899  0.08756434  1
  H  H222  1  0.04138025  0.53262101  0.58756434  1
  H  H223  1  0.54138025  0.03262101  0.91243566  1
  H  H224  1  0.93461331  0.52969126  0.37183645  1
  H  H225  1  0.43461331  0.02969126  0.12816355  1
  H  H226  1  0.06538669  0.47030874  0.62816355  1
  H  H227  1  0.56538669  0.97030874  0.87183645  1
  H  H228  1  0.90727254  0.55652672  0.42350883  1
  H  H229  1  0.40727254  0.05652672  0.07649117  1
  H  H230  1  0.09272746  0.44347328  0.57649117  1
  H  H231  1  0.59272746  0.94347328  0.92350883  1
  H  H232  1  0.11504173  0.65651947  0.35925806  1
  H  H233  1  0.61504173  0.15651947  0.14074194  1
  H  H234  1  0.88495827  0.34348053  0.64074194  1
  H  H235  1  0.38495827  0.84348053  0.85925806  1
  H  H236  1  0.24687167  0.68121317  0.39397335  1
  H  H237  1  0.74687167  0.18121317  0.10602665  1
  H  H238  1  0.75312833  0.31878683  0.60602665  1
  H  H239  1  0.25312833  0.81878683  0.89397335  1
  H  H240  1  0.07413966  0.68449870  0.40959613  1
  H  H241  1  0.57413966  0.18449870  0.09040387  1
  H  H242  1  0.92586034  0.31550130  0.59040387  1
  H  H243  1  0.42586034  0.81550130  0.90959613  1
  H  H244  1  0.29259725  0.57866210  0.47172676  1
  H  H245  1  0.79259725  0.07866210  0.02827324  1
  H  H246  1  0.70740275  0.42133790  0.52827324  1
  H  H247  1  0.20740275  0.92133790  0.97172676  1
  H  H248  1  0.19305678  0.49831340  0.47564290  1
  H  H249  1  0.69305678  0.99831340  0.02435710  1
  H  H250  1  0.80694322  0.50168660  0.52435710  1
  H  H251  1  0.30694322  0.00168660  0.97564290  1
  H  H252  1  0.11647162  0.58331903  0.48308239  1
  H  H253  1  0.61647162  0.08331903  0.01691761  1
  H  H254  1  0.88352838  0.41668097  0.51691761  1
  H  H255  1  0.38352838  0.91668097  0.98308239  1
  H  H256  1  0.55085619  0.51593480  0.31398604  1
  H  H257  1  0.05085619  0.01593480  0.18601396  1
  H  H258  1  0.44914381  0.48406520  0.68601396  1
  H  H259  1  0.94914381  0.98406520  0.81398604  1
  H  H260  1  0.55963450  0.42923686  0.33673267  1
  H  H261  1  0.05963450  0.92923686  0.16326733  1
  H  H262  1  0.44036550  0.57076314  0.66326733  1
  H  H263  1  0.94036550  0.07076314  0.83673267  1
  H  H264  1  0.68008521  0.49646152  0.34987458  1
  H  H265  1  0.18008521  0.99646152  0.15012542  1
  H  H266  1  0.31991479  0.50353848  0.65012542  1
  H  H267  1  0.81991479  0.00353848  0.84987458  1
  H  H268  1  0.50660180  0.41354546  0.43097287  1
  H  H269  1  0.00660180  0.91354546  0.06902713  1
  H  H270  1  0.49339820  0.58645454  0.56902713  1
  H  H271  1  0.99339820  0.08645454  0.93097287  1
  H  H272  1  0.46952175  0.49016503  0.46094964  1
  H  H273  1  0.96952175  0.99016503  0.03905036  1
  H  H274  1  0.53047825  0.50983497  0.53905036  1
  H  H275  1  0.03047825  0.00983497  0.96094964  1
  H  H276  1  0.63378510  0.48054896  0.43887096  1
  H  H277  1  0.13378510  0.98054896  0.06112904  1
  H  H278  1  0.36621490  0.51945104  0.56112904  1
  H  H279  1  0.86621490  0.01945104  0.93887096  1
  H  H280  1  0.62500640  0.62328203  0.39829221  1
  H  H281  1  0.12500640  0.12328203  0.10170779  1
  H  H282  1  0.37499360  0.37671797  0.60170779  1
  H  H283  1  0.87499360  0.87671797  0.89829221  1
  H  H284  1  0.46258575  0.64327639  0.41863233  1
  H  H285  1  0.96258575  0.14327639  0.08136767  1
  H  H286  1  0.53741425  0.35672361  0.58136767  1
  H  H287  1  0.03741425  0.85672361  0.91863233  1
  H  H288  1  0.49150589  0.64864921  0.36491056  1
  H  H289  1  0.99150589  0.14864921  0.13508944  1
  H  H290  1  0.50849411  0.35135079  0.63508944  1
  H  H291  1  0.00849411  0.85135079  0.86491056  1
  C  C0  1  0.33075221  0.53364236  0.23905339  1
  C  C1  1  0.83075221  0.03364236  0.26094661  1
  C  C2  1  0.66924779  0.46635764  0.76094661  1
  C  C3  1  0.16924779  0.96635764  0.73905339  1
  C  C4  1  0.03782402  0.57043694  0.25818730  1
  C  C5  1  0.53782402  0.07043694  0.24181270  1
  C  C6  1  0.96217598  0.42956306  0.74181270  1
  C  C7  1  0.46217598  0.92956306  0.75818730  1
  C  C8  1  0.12080107  0.53471805  0.17061455  1
  C  C9  1  0.62080107  0.03471805  0.32938545  1
  C  C10  1  0.87919893  0.46528195  0.82938545  1
  C  C11  1  0.37919893  0.96528195  0.67061455  1
  C  C12  1  0.75968124  0.42296941  0.20919576  1
  C  C13  1  0.25968124  0.92296941  0.29080424  1
  C  C14  1  0.24031876  0.57703059  0.79080424  1
  C  C15  1  0.74031876  0.07703059  0.70919576  1
  C  C16  1  0.92651743  0.34869892  0.14303601  1
  C  C17  1  0.42651743  0.84869892  0.35696399  1
  C  C18  1  0.07348257  0.65130108  0.85696399  1
  C  C19  1  0.57348257  0.15130108  0.64303601  1
  C  C20  1  0.82320875  0.26315477  0.21642936  1
  C  C21  1  0.32320875  0.76315477  0.28357064  1
  C  C22  1  0.17679125  0.73684523  0.78357064  1
  C  C23  1  0.67679125  0.23684523  0.71642936  1
  C  C24  1  0.35530788  0.34384278  0.16988121  1
  C  C25  1  0.85530788  0.84384278  0.33011879  1
  C  C26  1  0.64469212  0.65615722  0.83011879  1
  C  C27  1  0.14469212  0.15615722  0.66988121  1
  C  C28  1  0.22009487  0.21304863  0.21103265  1
  C  C29  1  0.72009487  0.71304863  0.28896735  1
  C  C30  1  0.77990513  0.78695137  0.78896735  1
  C  C31  1  0.27990513  0.28695137  0.71103265  1
  C  C32  1  0.41665890  0.30800523  0.25881660  1
  C  C33  1  0.91665890  0.80800523  0.24118340  1
  C  C34  1  0.58334110  0.69199477  0.74118340  1
  C  C35  1  0.08334110  0.19199477  0.75881660  1
  C  C36  1  0.21836564  0.14353305  0.34454147  1
  C  C37  1  0.71836564  0.64353305  0.15545853  1
  C  C38  1  0.78163436  0.85646695  0.65545853  1
  C  C39  1  0.28163436  0.35646695  0.84454147  1
  C  C40  1  0.95221518  0.14069620  0.39052953  1
  C  C41  1  0.45221518  0.64069620  0.10947047  1
  C  C42  1  0.04778482  0.85930380  0.60947047  1
  C  C43  1  0.54778482  0.35930380  0.89052953  1
  C  C44  1  0.16651962  0.02689734  0.40888880  1
  C  C45  1  0.66651962  0.52689734  0.09111120  1
  C  C46  1  0.83348038  0.97310266  0.59111120  1
  C  C47  1  0.33348038  0.47310266  0.90888880  1
  C  C48  1  0.95834431  0.16303398  0.51620315  1
  C  C49  1  0.45834431  0.66303398  0.98379685  1
  C  C50  1  0.04165569  0.83696602  0.48379685  1
  C  C51  1  0.54165569  0.33696602  0.01620315  1
  C  C52  1  0.21710818  0.08086600  0.53539658  1
  C  C53  1  0.71710818  0.58086600  0.96460342  1
  C  C54  1  0.78289182  0.91913400  0.46460342  1
  C  C55  1  0.28289182  0.41913400  0.03539658  1
  C  C56  1  0.20069684  0.24160984  0.55382921  1
  C  C57  1  0.70069684  0.74160984  0.94617079  1
  C  C58  1  0.79930316  0.75839016  0.44617079  1
  C  C59  1  0.29930316  0.25839016  0.05382921  1
  C  C60  1  0.55667581  0.23838894  0.40094635  1
  C  C61  1  0.05667581  0.73838894  0.09905365  1
  C  C62  1  0.44332419  0.76161106  0.59905365  1
  C  C63  1  0.94332419  0.26161106  0.90094635  1
  C  C64  1  0.54087182  0.10548177  0.45495999  1
  C  C65  1  0.04087182  0.60548177  0.04504001  1
  C  C66  1  0.45912818  0.89451823  0.54504001  1
  C  C67  1  0.95912818  0.39451823  0.95495999  1
  C  C68  1  0.54671572  0.25675498  0.49320428  1
  C  C69  1  0.04671572  0.75675498  0.00679572  1
  C  C70  1  0.45328428  0.74324502  0.50679572  1
  C  C71  1  0.95328428  0.24324502  0.99320428  1
  C  C72  1  0.27901653  0.50684670  0.37745195  1
  C  C73  1  0.77901653  0.00684670  0.12254805  1
  C  C74  1  0.72098347  0.49315330  0.62254805  1
  C  C75  1  0.22098347  0.99315330  0.87745195  1
  C  C76  1  0.97125418  0.52368569  0.40335662  1
  C  C77  1  0.47125418  0.02368569  0.09664338  1
  C  C78  1  0.02874582  0.47631431  0.59664338  1
  C  C79  1  0.52874582  0.97631431  0.90335662  1
  C  C80  1  0.14765231  0.65414764  0.39141781  1
  C  C81  1  0.64765231  0.15414764  0.10858219  1
  C  C82  1  0.85234769  0.34585236  0.60858219  1
  C  C83  1  0.35234769  0.84585236  0.89141781  1
  C  C84  1  0.19279128  0.55432336  0.46520891  1
  C  C85  1  0.69279128  0.05432336  0.03479109  1
  C  C86  1  0.80720872  0.44567664  0.53479109  1
  C  C87  1  0.30720872  0.94567664  0.96520891  1
  C  C88  1  0.57230248  0.48699513  0.34252037  1
  C  C89  1  0.07230248  0.98699513  0.15747963  1
  C  C90  1  0.42769752  0.51300487  0.65747963  1
  C  C91  1  0.92769752  0.01300487  0.84252037  1
  C  C92  1  0.52455713  0.47160951  0.43380344  1
  C  C93  1  0.02455713  0.97160951  0.06619656  1
  C  C94  1  0.47544287  0.52839049  0.56619656  1
  C  C95  1  0.97544287  0.02839049  0.93380344  1
  C  C96  1  0.51509285  0.61845530  0.39278437  1
  C  C97  1  0.01509285  0.11845530  0.10721563  1
  C  C98  1  0.48490715  0.38154470  0.60721563  1
  C  C99  1  0.98490715  0.88154470  0.89278437  1
loop_
_geom_bond_atom_site_label_1
_geom_bond_atom_site_label_2
_geom_bond_distance
_geom_bond_site_symmetry_2
Si0 Si12 2.388595 1_555
Si0 Si4 2.395400 1_555
Si0 Si8 2.408962 1_455
Si0 Te0 2.582891 1_555
Si1 Si13 2.388595 1_555
Si1 Si5 2.395400 1_565
Si1 Si9 2.408962 1_555
Si1 Te1 2.582891 1_555
Si2 Si6 2.395400 1_555
Si2 Te2 2.582891 1_555
Si3 Si7 2.395400 1_545
Si3 Te3 2.582891 1_555
Si10 Si2 2.408962 1_455
Si11 Si3 2.408962 1_555
Si14 Si2 2.388595 1_555
Si15 Si3 2.388595 1_555
Si16 Si20 2.396656 1_555
Si16 Si28 2.397605 1_555
Si16 Si24 2.426984 1_555
Si16 Te4 2.597402 1_555
Si17 Si21 2.396656 1_555
Si17 Si29 2.397605 1_555
Si17 Si25 2.426984 1_554
Si17 Te5 2.597402 1_555
Si18 Si22 2.396656 1_555
Si18 Si30 2.397605 1_555
Si18 Si26 2.426984 1_555
Si18 Te6 2.597402 1_555
Si19 Si23 2.396656 1_555
Si19 Si31 2.397605 1_555
Si19 Si27 2.426984 1_556
Si19 Te7 2.597402 1_555
Bi0 C72 2.369761 1_555
Bi0 Te4 2.940233 1_555
Bi0 Te0 2.976591 1_555
Bi1 C73 2.369761 1_565
Bi1 Te5 2.940233 1_555
Bi1 Te1 2.976591 1_555
Bi2 C74 2.369761 1_555
Bi2 Te6 2.940233 1_555
Bi2 Te2 2.976591 1_555
Bi3 C75 2.369761 1_545
Bi3 Te7 2.940233 1_555
Bi3 Te3 2.976591 1_555
C0 H8 1.096245 1_555
C0 H0 1.100114 1_555
C0 H4 1.101572 1_555
C0 Si4 1.887227 1_555
C1 H9 1.096245 1_555
C1 H1 1.100114 1_555
C1 H5 1.101572 1_555
C1 Si5 1.887227 1_555
C2 H10 1.096245 1_555
C2 H2 1.100114 1_555
C2 H6 1.101572 1_555
C2 Si6 1.887227 1_555
C3 H11 1.096245 1_555
C3 H3 1.100114 1_555
C3 H7 1.101572 1_555
C3 Si7 1.887227 1_555
C4 H20 1.095702 1_455
C4 H16 1.100554 1_555
C4 H12 1.102110 1_555
C4 Si4 1.886087 1_555
C5 H21 1.095702 1_555
C5 H17 1.100554 1_555
C5 H13 1.102110 1_555
C5 Si5 1.886087 1_555
C6 H22 1.095702 1_655
C6 H18 1.100554 1_555
C6 H14 1.102110 1_555
C6 Si6 1.886087 1_555
C7 H23 1.095702 1_555
C7 H19 1.100554 1_555
C7 H15 1.102110 1_555
C7 Si7 1.886087 1_555
C8 H24 1.098512 1_555
C8 H32 1.098594 1_555
C8 H28 1.100923 1_555
C8 Si4 1.889250 1_555
C9 H25 1.098512 1_555
C9 H33 1.098594 1_555
C9 H29 1.100923 1_555
C9 Si5 1.889250 1_555
C10 H26 1.098512 1_555
C10 H34 1.098594 1_555
C10 H30 1.100923 1_555
C10 Si6 1.889250 1_555
C11 H27 1.098512 1_555
C11 H35 1.098594 1_555
C11 H31 1.100923 1_555
C11 Si7 1.889250 1_555
C12 H40 1.095390 1_555
C12 H44 1.101648 1_555
C12 H36 1.101752 1_555
C12 Si8 1.887242 1_555
C13 H41 1.095390 1_555
C13 H45 1.101648 1_555
C13 H37 1.101752 1_555
C13 Si9 1.887242 1_555
C14 H42 1.095390 1_555
C14 H46 1.101648 1_555
C14 H38 1.101752 1_555
C14 Si10 1.887242 1_555
C15 H43 1.095390 1_555
C15 H47 1.101648 1_555
C15 H39 1.101752 1_555
C15 Si11 1.887242 1_555
C16 H48 1.097462 1_555
C16 H56 1.097644 1_655
C16 H52 1.103233 1_555
C16 Si8 1.892767 1_555
C17 H49 1.097462 1_555
C17 H57 1.097644 1_555
C17 H53 1.103233 1_555
C17 Si9 1.892767 1_555
C18 H50 1.097462 1_555
C18 H58 1.097644 1_455
C18 H54 1.103233 1_555
C18 Si10 1.892767 1_555
C19 H51 1.097462 1_555
C19 H59 1.097644 1_555
C19 H55 1.103233 1_555
C19 Si11 1.892767 1_555
C20 H68 1.094803 1_555
C20 H64 1.100284 1_555
C20 H60 1.103210 1_555
C20 Si8 1.887893 1_555
C21 H69 1.094803 1_555
C21 H65 1.100284 1_555
C21 H61 1.103210 1_555
C21 Si9 1.887893 1_555
C22 H70 1.094803 1_555
C22 H66 1.100284 1_555
C22 H62 1.103210 1_555
C22 Si10 1.887893 1_555
C23 H71 1.094803 1_555
C23 H67 1.100284 1_555
C23 H63 1.103210 1_555
C23 Si11 1.887893 1_555
C24 H80 1.097314 1_555
C24 H72 1.100011 1_555
C24 H76 1.100361 1_555
C24 Si12 1.889597 1_555
C25 H81 1.097314 1_555
C25 H73 1.100011 1_555
C25 H77 1.100361 1_555
C25 Si13 1.889597 1_555
C26 H82 1.097314 1_555
C26 H74 1.100011 1_555
C26 H78 1.100361 1_555
C26 Si14 1.889597 1_555
C27 H83 1.097314 1_555
C27 H75 1.100011 1_555
C27 H79 1.100361 1_555
C27 Si15 1.889597 1_555
C28 H88 1.097865 1_555
C28 H92 1.099105 1_555
C28 H84 1.101363 1_555
C28 Si12 1.885416 1_555
C29 H89 1.097865 1_555
C29 H93 1.099105 1_555
C29 H85 1.101363 1_555
C29 Si13 1.885416 1_555
C30 H90 1.097865 1_555
C30 H94 1.099105 1_555
C30 H86 1.101363 1_555
C30 Si14 1.885416 1_555
C31 H91 1.097865 1_555
C31 H95 1.099105 1_555
C31 H87 1.101363 1_555
C31 Si15 1.885416 1_555
C32 H96 1.095877 1_555
C32 H104 1.100640 1_555
C32 H100 1.102129 1_555
C32 Si12 1.886363 1_555
C33 H97 1.095877 1_555
C33 H105 1.100640 1_555
C33 H101 1.102129 1_555
C33 Si13 1.886363 1_555
C34 H98 1.095877 1_555
C34 H106 1.100640 1_555
C34 H102 1.102129 1_555
C34 Si14 1.886363 1_555
C35 H99 1.095877 1_555
C35 H107 1.100640 1_555
C35 H103 1.102129 1_555
C35 Si15 1.886363 1_555
C36 H108 1.096695 1_555
C36 H116 1.099187 1_555
C36 H112 1.103472 1_555
C36 Si20 1.888540 1_555
C37 H109 1.096695 1_555
C37 H117 1.099187 1_555
C37 H113 1.103472 1_555
C37 Si21 1.888540 1_555
C38 H110 1.096695 1_555
C38 H118 1.099187 1_555
C38 H114 1.103472 1_555
C38 Si22 1.888540 1_555
C39 H111 1.096695 1_555
C39 H119 1.099187 1_555
C39 H115 1.103472 1_555
C39 Si23 1.888540 1_555
C40 H124 1.094952 1_555
C40 H128 1.099970 1_555
C40 H120 1.102613 1_555
C40 Si20 1.883318 1_655
C41 H125 1.094952 1_555
C41 H129 1.099970 1_555
C41 H121 1.102613 1_555
C41 Si21 1.883318 1_555
C42 H126 1.094952 1_555
C42 H130 1.099970 1_555
C42 H122 1.102613 1_555
C42 Si22 1.883318 1_455
C43 H127 1.094952 1_555
C43 H131 1.099970 1_555
C43 H123 1.102613 1_555
C43 Si23 1.883318 1_555
C44 H132 1.096365 1_555
C44 H140 1.098762 1_555
C44 H136 1.103411 1_545
C44 Si20 1.889217 1_555
C45 H133 1.096365 1_555
C45 H141 1.098762 1_555
C45 H137 1.103411 1_555
C45 Si21 1.889217 1_555
C46 H134 1.096365 1_555
C46 H142 1.098762 1_555
C46 H138 1.103411 1_565
C46 Si22 1.889217 1_555
C47 H135 1.096365 1_555
C47 H143 1.098762 1_555
C47 H139 1.103411 1_555
C47 Si23 1.889217 1_555
C48 H152 1.096854 1_555
C48 H148 1.097908 1_555
C48 H144 1.103918 1_555
C48 Si24 1.887986 1_655
C49 H153 1.096854 1_555
C49 H149 1.097908 1_556
C49 H145 1.103918 1_555
C49 Si25 1.887986 1_555
C50 H154 1.096854 1_555
C50 H150 1.097908 1_555
C50 H146 1.103918 1_555
C50 Si26 1.887986 1_455
C51 H155 1.096854 1_555
C51 H151 1.097908 1_554
C51 H147 1.103918 1_555
C51 Si27 1.887986 1_555
C52 H164 1.097528 1_555
C52 H156 1.097701 1_555
C52 H160 1.104573 1_555
C52 Si24 1.893147 1_555
C53 H165 1.097528 1_555
C53 H157 1.097701 1_555
C53 H161 1.104573 1_555
C53 Si25 1.893147 1_555
C54 H166 1.097528 1_555
C54 H158 1.097701 1_555
C54 H162 1.104573 1_555
C54 Si26 1.893147 1_555
C55 H167 1.097528 1_555
C55 H159 1.097701 1_555
C55 H163 1.104573 1_555
C55 Si27 1.893147 1_555
C56 H176 1.096901 1_555
C56 H172 1.096941 1_555
C56 H168 1.103501 1_555
C56 Si24 1.886991 1_555
C57 H177 1.096901 1_555
C57 H173 1.096941 1_555
C57 H169 1.103501 1_555
C57 Si25 1.886991 1_555
C58 H178 1.096901 1_555
C58 H174 1.096941 1_555
C58 H170 1.103501 1_555
C58 Si26 1.886991 1_555
C59 H179 1.096901 1_555
C59 H175 1.096941 1_555
C59 H171 1.103501 1_555
C59 Si27 1.886991 1_555
C60 H188 1.096650 1_555
C60 H180 1.099997 1_555
C60 H184 1.101503 1_555
C60 Si28 1.888703 1_555
C61 H189 1.096650 1_555
C61 H181 1.099997 1_555
C61 H185 1.101503 1_555
C61 Si29 1.888703 1_455
C62 H190 1.096650 1_555
C62 H182 1.099997 1_555
C62 H186 1.101503 1_555
C62 Si30 1.888703 1_555
C63 H191 1.096650 1_555
C63 H183 1.099997 1_555
C63 H187 1.101503 1_555
C63 Si31 1.888703 1_655
C64 H196 1.098715 1_555
C64 H200 1.099195 1_555
C64 H192 1.100493 1_555
C64 Si28 1.888771 1_555
C65 H197 1.098715 1_555
C65 H201 1.099195 1_555
C65 H193 1.100493 1_555
C65 Si29 1.888771 1_455
C66 H198 1.098715 1_555
C66 H202 1.099195 1_555
C66 H194 1.100493 1_555
C66 Si30 1.888771 1_555
C67 H199 1.098715 1_555
C67 H203 1.099195 1_555
C67 H195 1.100493 1_555
C67 Si31 1.888771 1_655
C68 H208 1.096213 1_555
C68 H212 1.100681 1_555
C68 H204 1.100692 1_555
C68 Si28 1.886004 1_555
C69 H209 1.096213 1_555
C69 H213 1.100681 1_555
C69 H205 1.100692 1_554
C69 Si29 1.886004 1_455
C70 H210 1.096213 1_555
C70 H214 1.100681 1_555
C70 H206 1.100692 1_555
C70 Si30 1.886004 1_555
C71 H211 1.096213 1_555
C71 H215 1.100681 1_555
C71 H207 1.100692 1_556
C71 Si31 1.886004 1_655
C72 H216 1.105836 1_555
C72 Si32 1.900134 1_555
C72 Si36 1.903215 1_555
C73 H217 1.105836 1_555
C73 Si33 1.900134 1_555
C73 Si37 1.903215 1_555
C74 H218 1.105836 1_555
C74 Si34 1.900134 1_555
C74 Si38 1.903215 1_555
C75 H219 1.105836 1_555
C75 Si35 1.900134 1_555
C75 Si39 1.903215 1_555
C76 H220 1.095987 1_555
C76 H224 1.099504 1_555
C76 H228 1.104233 1_555
C76 Si32 1.881485 1_655
C77 H221 1.095987 1_545
C77 H225 1.099504 1_555
C77 H229 1.104233 1_555
C77 Si33 1.881485 1_555
C78 H222 1.095987 1_555
C78 H226 1.099504 1_555
C78 H230 1.104233 1_555
C78 Si34 1.881485 1_455
C79 H223 1.095987 1_565
C79 H227 1.099504 1_555
C79 H231 1.104233 1_555
C79 Si35 1.881485 1_555
C80 H236 1.097420 1_555
C80 H240 1.100802 1_555
C80 H232 1.101843 1_555
C80 Si32 1.893485 1_555
C81 H237 1.097420 1_555
C81 H241 1.100802 1_555
C81 H233 1.101843 1_555
C81 Si33 1.893485 1_555
C82 H238 1.097420 1_555
C82 H242 1.100802 1_555
C82 H234 1.101843 1_555
C82 Si34 1.893485 1_555
C83 H239 1.097420 1_555
C83 H243 1.100802 1_555
C83 H235 1.101843 1_555
C83 Si35 1.893485 1_555
C84 H248 1.098346 1_555
C84 H244 1.098597 1_555
C84 H252 1.101298 1_555
C84 Si32 1.878415 1_555
C85 H249 1.098346 1_545
C85 H245 1.098597 1_555
C85 H253 1.101298 1_555
C85 Si33 1.878415 1_555
C86 H250 1.098346 1_555
C86 H246 1.098597 1_555
C86 H254 1.101298 1_555
C86 Si34 1.878415 1_555
C87 H251 1.098346 1_565
C87 H247 1.098597 1_555
C87 H255 1.101298 1_555
C87 Si35 1.878415 1_555
C88 H260 1.098287 1_555
C88 H256 1.100664 1_555
C88 H264 1.101554 1_555
C88 Si36 1.891476 1_555
C89 H261 1.098287 1_555
C89 H257 1.100664 1_565
C89 H265 1.101554 1_555
C89 Si37 1.891476 1_465
C90 H262 1.098287 1_555
C90 H258 1.100664 1_555
C90 H266 1.101554 1_555
C90 Si38 1.891476 1_555
C91 H263 1.098287 1_555
C91 H259 1.100664 1_545
C91 H267 1.101554 1_555
C91 Si39 1.891476 1_645
C92 H268 1.097856 1_555
C92 H272 1.099712 1_555
C92 H276 1.100162 1_555
C92 Si36 1.878583 1_555
C93 H269 1.097856 1_555
C93 H273 1.099712 1_455
C93 H277 1.100162 1_555
C93 Si37 1.878583 1_465
C94 H270 1.097856 1_555
C94 H274 1.099712 1_555
C94 H278 1.100162 1_555
C94 Si38 1.878583 1_555
C95 H271 1.097856 1_555
C95 H275 1.099712 1_655
C95 H279 1.100162 1_555
C95 Si39 1.878583 1_645
C96 H284 1.097783 1_555
C96 H288 1.098713 1_555
C96 H280 1.101233 1_555
C96 Si36 1.882066 1_555
C97 H285 1.097783 1_455
C97 H289 1.098713 1_455
C97 H281 1.101233 1_555
C97 Si37 1.882066 1_455
C98 H286 1.097783 1_555
C98 H290 1.098713 1_555
C98 H282 1.101233 1_555
C98 Si38 1.882066 1_555
C99 H287 1.097783 1_655
C99 H291 1.098713 1_655
C99 H283 1.101233 1_555
C99 Si39 1.882066 1_655
