# generated using pymatgen
data_Cu2Se
_symmetry_space_group_name_H-M   'P 1'
_cell_length_a   12.63454275
_cell_length_b   13.81214140
_cell_length_c   15.65416768
_cell_angle_alpha   115.92347456
_cell_angle_beta   89.99902710
_cell_angle_gamma   89.99989748
_symmetry_Int_Tables_number   1
_chemical_formula_structural   Cu2Se
_chemical_formula_sum   'Cu96 Se48'
_cell_volume   2456.93204345
_cell_formula_units_Z   48
loop_
 _symmetry_equiv_pos_site_id
 _symmetry_equiv_pos_as_xyz
  1  'x, y, z'
loop_
 _atom_site_type_symbol
 _atom_site_label
 _atom_site_symmetry_multiplicity
 _atom_site_fract_x
 _atom_site_fract_y
 _atom_site_fract_z
 _atom_site_occupancy
  Cu  Cu0  1  0.45802285  0.64717707  0.82823715  1
  Cu  Cu1  1  0.39315197  0.95662119  0.14307968  1
  Cu  Cu2  1  0.29083799  0.75152460  0.02549648  1
  Cu  Cu3  1  0.04191969  0.14717221  0.82825007  1
  Cu  Cu4  1  0.55414249  0.32466285  0.68550519  1
  Cu  Cu5  1  0.59216639  0.71659847  0.99203884  1
  Cu  Cu6  1  0.84900392  0.56061100  0.05724457  1
  Cu  Cu7  1  0.66881776  0.99506718  0.55273992  1
  Cu  Cu8  1  0.41735233  0.72030524  0.49695277  1
  Cu  Cu9  1  0.75048233  0.92322424  0.14039662  1
  Cu  Cu10  1  0.29074512  0.57482189  0.21465389  1
  Cu  Cu11  1  0.73173561  0.21370485  0.63758227  1
  Cu  Cu12  1  0.24897930  0.85652933  0.77938642  1
  Cu  Cu13  1  0.39752874  0.95148550  0.61228829  1
  Cu  Cu14  1  0.57371717  0.83865642  0.90004895  1
  Cu  Cu15  1  0.86053158  0.06153925  0.07466161  1
  Cu  Cu16  1  0.65098571  0.06061393  0.05723123  1
  Cu  Cu17  1  0.69886249  0.36117505  0.28288156  1
  Cu  Cu18  1  0.09217515  0.78341886  0.00797073  1
  Cu  Cu19  1  0.78414435  0.22914417  0.47742380  1
  Cu  Cu20  1  0.26176999  0.92017867  0.27120380  1
  Cu  Cu21  1  0.94105890  0.07529710  0.39098834  1
  Cu  Cu22  1  0.95435018  0.32801057  0.70284085  1
  Cu  Cu23  1  0.40776714  0.69396027  0.13291771  1
  Cu  Cu24  1  0.58264767  0.27969476  0.50304723  1
  Cu  Cu25  1  0.76826482  0.71370799  0.63756795  1
  Cu  Cu26  1  0.15099608  0.43938900  0.94275543  1
  Cu  Cu27  1  0.21585565  0.77085583  0.52257620  1
  Cu  Cu28  1  0.16883167  0.50493658  0.44726255  1
  Cu  Cu29  1  0.38638551  0.15945899  0.62169802  1
  Cu  Cu30  1  0.74898117  0.64346459  0.22059345  1
  Cu  Cu31  1  0.79074928  0.92517759  0.78534426  1
  Cu  Cu32  1  0.42628283  0.16134358  0.09995105  1
  Cu  Cu33  1  0.75102070  0.14347067  0.22061358  1
  Cu  Cu34  1  0.26826439  0.78629515  0.36241773  1
  Cu  Cu35  1  0.23823978  0.42018903  0.27120268  1
  Cu  Cu36  1  0.55894366  0.57529734  0.39099565  1
  Cu  Cu37  1  0.25048168  0.57677265  0.85960513  1
  Cu  Cu38  1  0.36999393  0.48494989  0.41919507  1
  Cu  Cu39  1  0.09223353  0.19395762  0.13291717  1
  Cu  Cu40  1  0.86999306  0.01505313  0.58080531  1
  Cu  Cu41  1  0.54197715  0.35282293  0.17176285  1
  Cu  Cu42  1  0.76176022  0.57981097  0.72879732  1
  Cu  Cu43  1  0.74951832  0.42322735  0.14039487  1
  Cu  Cu44  1  0.43261135  0.11269979  0.77729105  1
  Cu  Cu45  1  0.23173518  0.28629201  0.36243205  1
  Cu  Cu46  1  0.44585751  0.67533715  0.31449581  1
  Cu  Cu47  1  0.79084201  0.74848305  0.97451444  1
  Cu  Cu48  1  0.92633242  0.33863630  0.90007488  1
  Cu  Cu49  1  0.63946754  0.56153352  0.07466217  1
  Cu  Cu50  1  0.40783361  0.28340153  0.00796116  1
  Cu  Cu51  1  0.63000607  0.51505011  0.58080493  1
  Cu  Cu52  1  0.56738865  0.88730021  0.22270895  1
  Cu  Cu53  1  0.08265975  0.22029369  0.49694397  1
  Cu  Cu54  1  0.73823001  0.07982133  0.72879620  1
  Cu  Cu55  1  0.59223286  0.30603973  0.86708229  1
  Cu  Cu56  1  0.04564982  0.67198943  0.29715915  1
  Cu  Cu57  1  0.05413765  0.17533837  0.31449043  1
  Cu  Cu58  1  0.11361576  0.65945244  0.62169640  1
  Cu  Cu59  1  0.34901429  0.93938607  0.94276877  1
  Cu  Cu60  1  0.89316219  0.54336771  0.85691583  1
  Cu  Cu61  1  0.54564895  0.82801344  0.70283532  1
  Cu  Cu62  1  0.90782485  0.21658114  0.99202927  1
  Cu  Cu63  1  0.94586235  0.82466163  0.68551057  1
  Cu  Cu64  1  0.06742790  0.61264843  0.77725883  1
  Cu  Cu65  1  0.60684803  0.04337881  0.85692032  1
  Cu  Cu66  1  0.60247126  0.04851450  0.38771171  1
  Cu  Cu67  1  0.33118224  0.00493282  0.44726008  1
  Cu  Cu68  1  0.71585633  0.72914395  0.47742283  1
  Cu  Cu69  1  0.70916201  0.24847540  0.97450352  1
  Cu  Cu70  1  0.91734025  0.77970631  0.50305603  1
  Cu  Cu71  1  0.20915799  0.25151695  0.02548556  1
  Cu  Cu72  1  0.20925072  0.07482241  0.21465574  1
  Cu  Cu73  1  0.28414367  0.27085605  0.52257717  1
  Cu  Cu74  1  0.61361449  0.84054101  0.37830198  1
  Cu  Cu75  1  0.45435105  0.17198656  0.29716468  1
  Cu  Cu76  1  0.10683781  0.45663229  0.14308417  1
  Cu  Cu77  1  0.95808031  0.85282779  0.17174993  1
  Cu  Cu78  1  0.19885895  0.13883205  0.71713423  1
  Cu  Cu79  1  0.44105634  0.42470266  0.60900435  1
  Cu  Cu80  1  0.10250779  0.45142481  0.61224155  1
  Cu  Cu81  1  0.90776647  0.80604238  0.86708283  1
  Cu  Cu82  1  0.05894110  0.92470290  0.60901166  1
  Cu  Cu83  1  0.25101883  0.35653541  0.77940655  1
  Cu  Cu84  1  0.30113751  0.63882495  0.71711844  1
  Cu  Cu85  1  0.93257210  0.38735157  0.22274117  1
  Cu  Cu86  1  0.83116833  0.49506342  0.55273745  1
  Cu  Cu87  1  0.24951767  0.07677576  0.85960338  1
  Cu  Cu88  1  0.70925488  0.42517811  0.78534611  1
  Cu  Cu89  1  0.36053246  0.43846648  0.92533783  1
  Cu  Cu90  1  0.13000694  0.98494687  0.41919469  1
  Cu  Cu91  1  0.89749221  0.54857519  0.38775845  1
  Cu  Cu92  1  0.13946842  0.93846075  0.92533839  1
  Cu  Cu93  1  0.88638424  0.34054756  0.37830360  1
  Cu  Cu94  1  0.07366758  0.66136370  0.09992512  1
  Cu  Cu95  1  0.80114105  0.86116795  0.28286577  1
  Se  Se0  1  0.57044974  0.90809572  0.06998023  1
  Se  Se1  1  0.21023992  0.13234661  0.55605255  1
  Se  Se2  1  0.56188975  0.14117671  0.55388075  1
  Se  Se3  1  0.08156960  0.29316655  0.79522584  1
  Se  Se4  1  0.71024022  0.36765100  0.44394856  1
  Se  Se5  1  0.41842537  0.79318686  0.79522788  1
  Se  Se6  1  0.77113013  0.07629955  0.94568153  1
  Se  Se7  1  0.23260274  0.72672043  0.19278638  1
  Se  Se8  1  0.57307458  0.98706507  0.68892961  1
  Se  Se9  1  0.57322616  0.71112702  0.21266229  1
  Se  Se10  1  0.07044953  0.59190874  0.93001327  1
  Se  Se11  1  0.73481431  0.54280349  0.31245553  1
  Se  Se12  1  0.42955026  0.09190428  0.93001977  1
  Se  Se13  1  0.07978556  0.98793472  0.27417906  1
  Se  Se14  1  0.92693369  0.48705950  0.68892330  1
  Se  Se15  1  0.08065456  0.11433710  0.96090300  1
  Se  Se16  1  0.07323098  0.78885436  0.78733719  1
  Se  Se17  1  0.08955084  0.82814978  0.44137380  1
  Se  Se18  1  0.41044757  0.32814979  0.44137418  1
  Se  Se19  1  0.22886987  0.92370045  0.05431847  1
  Se  Se20  1  0.91843040  0.70683345  0.20477416  1
  Se  Se21  1  0.23481884  0.95720151  0.68754258  1
  Se  Se22  1  0.72887512  0.57630840  0.94568396  1
  Se  Se23  1  0.26738449  0.22672659  0.19279371  1
  Se  Se24  1  0.91934544  0.88566290  0.03909700  1
  Se  Se25  1  0.92021444  0.01206528  0.72582094  1
  Se  Se26  1  0.57977639  0.51207049  0.72582678  1
  Se  Se27  1  0.06188606  0.35881990  0.44610595  1
  Se  Se28  1  0.07306631  0.51294050  0.31107670  1
  Se  Se29  1  0.58955243  0.67185021  0.55862582  1
  Se  Se30  1  0.43811025  0.85882329  0.44611925  1
  Se  Se31  1  0.92676902  0.21114564  0.21266281  1
  Se  Se32  1  0.92955047  0.40809126  0.06998673  1
  Se  Se33  1  0.91044916  0.17185022  0.55862620  1
  Se  Se34  1  0.27112488  0.42369160  0.05431604  1
  Se  Se35  1  0.58065239  0.38565971  0.03910283  1
  Se  Se36  1  0.42677384  0.28887298  0.78733771  1
  Se  Se37  1  0.42022361  0.48792951  0.27417322  1
  Se  Se38  1  0.42692542  0.01293493  0.31107039  1
  Se  Se39  1  0.41934761  0.61434029  0.96089717  1
  Se  Se40  1  0.78976008  0.86765339  0.44394745  1
  Se  Se41  1  0.93811394  0.64118010  0.55389405  1
  Se  Se42  1  0.76739726  0.27327957  0.80721362  1
  Se  Se43  1  0.26518569  0.45719651  0.68754447  1
  Se  Se44  1  0.73261551  0.77327341  0.80720629  1
  Se  Se45  1  0.28975978  0.63234900  0.55605144  1
  Se  Se46  1  0.76518116  0.04279849  0.31245742  1
  Se  Se47  1  0.58157463  0.20681314  0.20477212  1
loop_
_geom_bond_atom_site_label_1
_geom_bond_atom_site_label_2
_geom_bond_distance
_geom_bond_site_symmetry_2
Cu0 Se5 2.344264 1_555
Cu0 Se39 2.362323 1_555
Cu0 Se26 2.408943 1_555
Cu1 Se19 2.427621 1_555
Cu1 Se38 2.431933 1_565
Cu1 Se0 2.471018 1_555
Cu2 Se19 2.352412 1_555
Cu2 Se39 2.360887 1_554
Cu2 Se7 2.881173 1_555
Cu3 Se3 2.344339 1_555
Cu3 Se15 2.362373 1_555
Cu3 Se25 2.408691 1_455
Cu4 Se26 2.403144 1_555
Cu4 Se36 2.462542 1_555
Cu4 Se2 2.472293 1_555
Cu5 Se0 2.395463 1_556
Cu5 Se22 2.456667 1_555
Cu5 Se39 2.529462 1_555
Cu6 Se22 2.394090 1_554
Cu6 Se32 2.425016 1_555
Cu6 Se20 2.470603 1_555
Cu7 Se40 2.389942 1_555
Cu7 Se2 2.422113 1_565
Cu7 Se8 2.495318 1_555
Cu8 Se30 2.386129 1_555
Cu8 Se45 2.431708 1_555
Cu8 Se29 2.584288 1_555
Cu9 Se46 2.475380 1_565
Cu9 Se0 2.496274 1_555
Cu9 Se24 2.572201 1_555
Cu10 Se7 2.384652 1_555
Cu10 Se37 2.441813 1_555
Cu10 Se34 2.477446 1_555
Cu11 Se42 2.453778 1_555
Cu11 Se2 2.485520 1_555
Cu11 Se33 2.517029 1_555
Cu12 Se5 2.366429 1_555
Cu12 Se21 2.404278 1_555
Cu12 Se16 2.433426 1_555
Cu13 Se21 2.353463 1_555
Cu13 Se30 2.399261 1_555
Cu13 Se8 2.466732 1_555
Cu14 Se0 2.401488 1_556
Cu14 Se44 2.410529 1_555
Cu14 Se5 2.456749 1_555
Cu15 Se24 2.362366 1_545
Cu15 Se31 2.394618 1_555
Cu15 Se6 2.398768 1_554
Cu16 Se6 2.393980 1_554
Cu16 Se0 2.424991 1_545
Cu16 Se47 2.470475 1_555
Cu17 Se11 2.387188 1_555
Cu17 Se47 2.440793 1_555
Cu17 Se4 2.487729 1_555
Cu18 Se10 2.395646 1_554
Cu18 Se19 2.456493 1_555
Cu18 Se24 2.529482 1_455
Cu19 Se33 2.380810 1_555
Cu19 Se4 2.383880 1_555
Cu19 Se46 2.745800 1_555
Cu20 Se38 2.384532 1_565
Cu20 Se7 2.432025 1_555
Cu20 Se13 2.475199 1_555
Cu21 Se33 2.398896 1_555
Cu21 Se13 2.437716 1_645
Cu21 Se46 2.483598 1_555
Cu22 Se14 2.326346 1_555
Cu22 Se3 2.348485 1_655
Cu22 Se33 2.408125 1_555
Cu22 Se42 3.146448 1_555
Cu23 Se7 2.368572 1_555
Cu23 Se9 2.392915 1_555
Cu23 Se39 2.427532 1_554
Cu24 Se2 2.386129 1_555
Cu24 Se4 2.431708 1_555
Cu24 Se18 2.584288 1_555
Cu25 Se44 2.453852 1_555
Cu25 Se41 2.485362 1_555
Cu25 Se29 2.516971 1_555
Cu26 Se34 2.394090 1_556
Cu26 Se10 2.425016 1_555
Cu26 Se3 2.470603 1_555
Cu27 Se17 2.380810 1_555
Cu27 Se45 2.383880 1_555
Cu27 Se21 2.745800 1_555
Cu28 Se45 2.389838 1_555
Cu28 Se27 2.422235 1_555
Cu28 Se28 2.495447 1_555
Cu29 Se1 2.410974 1_555
Cu29 Se2 2.423483 1_555
Cu29 Se36 2.475175 1_555
Cu30 Se20 2.366519 1_555
Cu30 Se11 2.404396 1_555
Cu30 Se9 2.433366 1_555
Cu31 Se44 2.384645 1_555
Cu31 Se25 2.441677 1_565
Cu31 Se6 2.477383 1_565
Cu32 Se12 2.401488 1_554
Cu32 Se23 2.410529 1_555
Cu32 Se47 2.456749 1_555
Cu33 Se47 2.366429 1_555
Cu33 Se46 2.404278 1_555
Cu33 Se31 2.433426 1_555
Cu34 Se7 2.453778 1_555
Cu34 Se30 2.485520 1_555
Cu34 Se17 2.517029 1_555
Cu35 Se28 2.384684 1_555
Cu35 Se23 2.432022 1_555
Cu35 Se37 2.475128 1_555
Cu36 Se29 2.398807 1_555
Cu36 Se37 2.437826 1_555
Cu36 Se11 2.483541 1_555
Cu37 Se43 2.475381 1_555
Cu37 Se10 2.496171 1_555
Cu37 Se39 2.572208 1_555
Cu38 Se37 2.374843 1_555
Cu38 Se18 2.393676 1_555
Cu38 Se45 2.438979 1_555
Cu39 Se23 2.368485 1_555
Cu39 Se31 2.392907 1_455
Cu39 Se15 2.427445 1_554
Cu40 Se25 2.374791 1_555
Cu40 Se33 2.393641 1_555
Cu40 Se40 2.439022 1_545
Cu41 Se47 2.344264 1_555
Cu41 Se35 2.362323 1_555
Cu41 Se37 2.408943 1_555
Cu42 Se14 2.384684 1_555
Cu42 Se44 2.432022 1_555
Cu42 Se26 2.475128 1_555
Cu43 Se11 2.475381 1_555
Cu43 Se32 2.496171 1_555
Cu43 Se35 2.572208 1_555
Cu44 Se36 2.369949 1_555
Cu44 Se8 2.444438 1_545
Cu44 Se12 2.529930 1_555
Cu45 Se23 2.453852 1_555
Cu45 Se27 2.485362 1_555
Cu45 Se18 2.516971 1_555
Cu46 Se37 2.403141 1_555
Cu46 Se9 2.462554 1_555
Cu46 Se30 2.472287 1_555
Cu47 Se22 2.352366 1_555
Cu47 Se24 2.360803 1_556
Cu47 Se44 2.881343 1_555
Cu48 Se32 2.401176 1_556
Cu48 Se42 2.411048 1_555
Cu48 Se3 2.456395 1_655
Cu49 Se35 2.362365 1_555
Cu49 Se9 2.394515 1_555
Cu49 Se22 2.398838 1_554
Cu50 Se12 2.395463 1_554
Cu50 Se34 2.456667 1_555
Cu50 Se35 2.529462 1_555
Cu51 Se26 2.374843 1_555
Cu51 Se29 2.393676 1_555
Cu51 Se4 2.438979 1_555
Cu52 Se9 2.369949 1_555
Cu52 Se38 2.444438 1_565
Cu52 Se0 2.529930 1_555
Cu53 Se27 2.386308 1_555
Cu53 Se1 2.431631 1_555
Cu53 Se33 2.584376 1_455
Cu54 Se8 2.384532 1_545
Cu54 Se42 2.432025 1_555
Cu54 Se25 2.475199 1_555
Cu55 Se42 2.368572 1_555
Cu55 Se36 2.392915 1_555
Cu55 Se35 2.427532 1_556
Cu56 Se28 2.326346 1_555
Cu56 Se20 2.348485 1_455
Cu56 Se17 2.408125 1_555
Cu56 Se7 3.146448 1_555
Cu57 Se13 2.403144 1_545
Cu57 Se31 2.462636 1_455
Cu57 Se27 2.472201 1_555
Cu58 Se45 2.410923 1_555
Cu58 Se41 2.423409 1_455
Cu58 Se16 2.475115 1_555
Cu59 Se19 2.393980 1_556
Cu59 Se12 2.424991 1_565
Cu59 Se5 2.470475 1_555
Cu60 Se22 2.427669 1_555
Cu60 Se14 2.431951 1_555
Cu60 Se10 2.470940 1_655
Cu61 Se8 2.326306 1_555
Cu61 Se5 2.348458 1_555
Cu61 Se29 2.408088 1_555
Cu61 Se44 3.146658 1_555
Cu62 Se32 2.395646 1_556
Cu62 Se6 2.456493 1_555
Cu62 Se15 2.529482 1_655
Cu63 Se25 2.403147 1_565
Cu63 Se16 2.462625 1_655
Cu63 Se41 2.472207 1_555
Cu64 Se16 2.370197 1_555
Cu64 Se14 2.444365 1_455
Cu64 Se10 2.529918 1_555
Cu65 Se6 2.427621 1_555
Cu65 Se8 2.431933 1_545
Cu65 Se12 2.471018 1_555
Cu66 Se46 2.353463 1_555
Cu66 Se2 2.399261 1_555
Cu66 Se38 2.466732 1_555
Cu67 Se1 2.389942 1_555
Cu67 Se30 2.422113 1_545
Cu67 Se38 2.495318 1_555
Cu68 Se29 2.380780 1_555
Cu68 Se40 2.383907 1_555
Cu68 Se11 2.745755 1_555
Cu69 Se6 2.352412 1_555
Cu69 Se35 2.360887 1_556
Cu69 Se42 2.881173 1_555
Cu70 Se41 2.386308 1_555
Cu70 Se40 2.431631 1_555
Cu70 Se17 2.584376 1_655
Cu71 Se34 2.352366 1_555
Cu71 Se15 2.360803 1_554
Cu71 Se23 2.881343 1_555
Cu72 Se23 2.384645 1_555
Cu72 Se13 2.441677 1_545
Cu72 Se19 2.477383 1_545
Cu73 Se18 2.380780 1_555
Cu73 Se1 2.383907 1_555
Cu73 Se43 2.745755 1_555
Cu74 Se40 2.410974 1_555
Cu74 Se30 2.423483 1_555
Cu74 Se9 2.475175 1_555
Cu75 Se38 2.326306 1_555
Cu75 Se47 2.348458 1_555
Cu75 Se18 2.408088 1_555
Cu75 Se23 3.146658 1_555
Cu76 Se34 2.427669 1_555
Cu76 Se28 2.431951 1_555
Cu76 Se32 2.470940 1_455
Cu77 Se20 2.344339 1_555
Cu77 Se24 2.362373 1_555
Cu77 Se13 2.408691 1_655
Cu78 Se21 2.387157 1_545
Cu78 Se3 2.440493 1_555
Cu78 Se1 2.487902 1_555
Cu79 Se18 2.398807 1_555
Cu79 Se26 2.437826 1_555
Cu79 Se43 2.483541 1_555
Cu80 Se43 2.353372 1_555
Cu80 Se27 2.398897 1_555
Cu80 Se14 2.467258 1_455
Cu81 Se44 2.368485 1_555
Cu81 Se16 2.392907 1_655
Cu81 Se24 2.427445 1_556
Cu82 Se17 2.398896 1_555
Cu82 Se25 2.437716 1_465
Cu82 Se21 2.483598 1_555
Cu83 Se3 2.366519 1_555
Cu83 Se43 2.404396 1_555
Cu83 Se36 2.433366 1_555
Cu84 Se43 2.387188 1_555
Cu84 Se5 2.440793 1_555
Cu84 Se45 2.487729 1_555
Cu85 Se31 2.370197 1_555
Cu85 Se28 2.444365 1_655
Cu85 Se32 2.529918 1_555
Cu86 Se4 2.389838 1_555
Cu86 Se41 2.422235 1_555
Cu86 Se14 2.495447 1_555
Cu87 Se21 2.475380 1_545
Cu87 Se12 2.496274 1_555
Cu87 Se15 2.572201 1_555
Cu88 Se42 2.384652 1_555
Cu88 Se26 2.441813 1_555
Cu88 Se22 2.477446 1_555
Cu89 Se39 2.362365 1_555
Cu89 Se36 2.394515 1_555
Cu89 Se34 2.398838 1_556
Cu90 Se13 2.374791 1_555
Cu90 Se17 2.393641 1_555
Cu90 Se1 2.439022 1_565
Cu91 Se11 2.353372 1_555
Cu91 Se41 2.398897 1_555
Cu91 Se28 2.467258 1_655
Cu92 Se15 2.362366 1_565
Cu92 Se16 2.394618 1_555
Cu92 Se19 2.398768 1_556
Cu93 Se4 2.410923 1_555
Cu93 Se27 2.423409 1_655
Cu93 Se31 2.475115 1_555
Cu94 Se10 2.401176 1_554
Cu94 Se7 2.411048 1_555
Cu94 Se20 2.456395 1_455
Cu95 Se46 2.387157 1_565
Cu95 Se20 2.440493 1_555
Cu95 Se40 2.487902 1_555
