# generated using pymatgen
data_K2TiO3
_symmetry_space_group_name_H-M   'P 1'
_cell_length_a   5.45298663
_cell_length_b   6.10745828
_cell_length_c   6.10745808
_cell_angle_alpha   110.55665704
_cell_angle_beta   90.00000000
_cell_angle_gamma   90.00000000
_symmetry_Int_Tables_number   1
_chemical_formula_structural   K2TiO3
_chemical_formula_sum   'K4 Ti2 O6'
_cell_volume   190.45055999
_cell_formula_units_Z   2
loop_
 _symmetry_equiv_pos_site_id
 _symmetry_equiv_pos_as_xyz
  1  'x, y, z'
loop_
 _atom_site_type_symbol
 _atom_site_label
 _atom_site_symmetry_multiplicity
 _atom_site_fract_x
 _atom_site_fract_y
 _atom_site_fract_z
 _atom_site_occupancy
  K  K0  1  0.25000000  0.48595630  0.81066277  1
  K  K1  1  0.25000000  0.81066277  0.48595630  1
  K  K2  1  0.75000000  0.51404370  0.18933723  1
  K  K3  1  0.75000000  0.18933723  0.51404370  1
  Ti  Ti0  1  0.75000000  0.91482818  0.91482818  1
  Ti  Ti1  1  0.25000000  0.08517182  0.08517182  1
  O  O0  1  0.75000000  0.66077696  0.66077696  1
  O  O1  1  0.25000000  0.33922304  0.33922304  1
  O  O2  1  0.50000000  0.12648973  0.87351027  1
  O  O3  1  -0.00000000  0.87351027  0.12648973  1
  O  O4  1  0.00000000  0.12648973  0.87351027  1
  O  O5  1  0.50000000  0.87351027  0.12648973  1
loop_
_geom_bond_atom_site_label_1
_geom_bond_atom_site_label_2
_geom_bond_distance
_geom_bond_site_symmetry_2
K0 O1 2.698406 1_555
K0 O2 2.723503 1_555
K0 O4 2.723503 1_555
K0 O3 2.824064 1_556
K0 O5 2.824064 1_556
K0 O0 3.177761 1_455
K0 O0 3.177761 1_555
K1 O1 2.698406 1_555
K1 O3 2.723503 1_555
K1 O5 2.723503 1_555
K1 O4 2.824064 1_565
K1 O2 2.824064 1_565
K1 O0 3.177761 1_555
K1 O0 3.177761 1_455
K2 O0 2.698406 1_555
K2 O5 2.723503 1_555
K2 O3 2.723503 1_655
K2 O2 2.824064 1_554
K2 O4 2.824064 1_654
K2 O1 3.177761 1_655
K2 O1 3.177761 1_555
K3 O0 2.698406 1_555
K3 O2 2.723503 1_555
K3 O4 2.723503 1_655
K3 O3 2.824064 1_645
K3 O5 2.824064 1_545
K3 O1 3.177761 1_555
K3 O1 3.177761 1_655
O0 Ti0 1.767561 1_555
O1 Ti1 1.767561 1_555
O2 Ti1 1.955075 1_556
O2 Ti0 1.955075 1_545
O3 Ti0 1.955075 1_454
O3 Ti1 1.955075 1_565
O4 Ti1 1.955075 1_556
O4 Ti0 1.955075 1_445
O5 Ti0 1.955075 1_554
O5 Ti1 1.955075 1_565
