# generated using pymatgen
data_Li2Fe2P2O8F
_symmetry_space_group_name_H-M   'P 1'
_cell_length_a   5.11099500
_cell_length_b   10.94879400
_cell_length_c   13.13909300
_cell_angle_alpha   90.00000000
_cell_angle_beta   90.00000000
_cell_angle_gamma   90.00000000
_symmetry_Int_Tables_number   1
_chemical_formula_structural   Li2Fe2P2O8F
_chemical_formula_sum   'Li8 Fe8 P8 O32 F4'
_cell_volume   735.25354544
_cell_formula_units_Z   4
loop_
 _symmetry_equiv_pos_site_id
 _symmetry_equiv_pos_as_xyz
  1  'x, y, z'
loop_
 _atom_site_type_symbol
 _atom_site_label
 _atom_site_symmetry_multiplicity
 _atom_site_fract_x
 _atom_site_fract_y
 _atom_site_fract_z
 _atom_site_occupancy
  Li  Li0  1  0.28260500  0.33128500  0.75080200  1
  Li  Li1  1  0.21739500  0.83128500  0.74919800  1
  Li  Li2  1  0.78260500  0.66871500  0.74919800  1
  Li  Li3  1  0.71739500  0.16871500  0.75080200  1
  Li  Li4  1  0.71739500  0.66871500  0.24919800  1
  Li  Li5  1  0.78260500  0.16871500  0.25080200  1
  Li  Li6  1  0.21739500  0.33128500  0.25080200  1
  Li  Li7  1  0.28260500  0.83128500  0.24919800  1
  Fe  Fe0  1  0.18504200  0.33764500  0.98902700  1
  Fe  Fe1  1  0.31495800  0.83764500  0.51097300  1
  Fe  Fe2  1  0.68504200  0.66235500  0.51097300  1
  Fe  Fe3  1  0.81495800  0.16235500  0.98902700  1
  Fe  Fe4  1  0.81495800  0.66235500  0.01097300  1
  Fe  Fe5  1  0.68504200  0.16235500  0.48902700  1
  Fe  Fe6  1  0.31495800  0.33764500  0.48902700  1
  Fe  Fe7  1  0.18504200  0.83764500  0.01097300  1
  P  P0  1  0.18370200  0.09183800  0.62559400  1
  P  P1  1  0.31629800  0.59183800  0.87440600  1
  P  P2  1  0.68370200  0.90816200  0.87440600  1
  P  P3  1  0.81629800  0.40816200  0.62559400  1
  P  P4  1  0.81629800  0.90816200  0.37440600  1
  P  P5  1  0.68370200  0.40816200  0.12559400  1
  P  P6  1  0.31629800  0.09183800  0.12559400  1
  P  P7  1  0.18370200  0.59183800  0.37440600  1
  O  O0  1  0.22373200  0.95138200  0.62013300  1
  O  O1  1  0.27626800  0.45138200  0.87986700  1
  O  O2  1  0.72373200  0.04861800  0.87986700  1
  O  O3  1  0.77626800  0.54861800  0.62013300  1
  O  O4  1  0.77626800  0.04861800  0.37986700  1
  O  O5  1  0.72373200  0.54861800  0.12013300  1
  O  O6  1  0.27626800  0.95138200  0.12013300  1
  O  O7  1  0.22373200  0.45138200  0.37986700  1
  O  O8  1  0.31349200  0.14714300  0.71808200  1
  O  O9  1  0.18650800  0.64714300  0.78191800  1
  O  O10  1  0.81349200  0.85285700  0.78191800  1
  O  O11  1  0.68650800  0.35285700  0.71808200  1
  O  O12  1  0.68650800  0.85285700  0.28191800  1
  O  O13  1  0.81349200  0.35285700  0.21808200  1
  O  O14  1  0.18650800  0.14714300  0.21808200  1
  O  O15  1  0.31349200  0.64714300  0.28191800  1
  O  O16  1  0.88421300  0.12001900  0.61596400  1
  O  O17  1  0.61578700  0.62001900  0.88403600  1
  O  O18  1  0.38421300  0.87998100  0.88403600  1
  O  O19  1  0.11578700  0.37998100  0.61596400  1
  O  O20  1  0.11578700  0.87998100  0.38403600  1
  O  O21  1  0.38421300  0.37998100  0.11596400  1
  O  O22  1  0.61578700  0.12001900  0.11596400  1
  O  O23  1  0.88421300  0.62001900  0.38403600  1
  O  O24  1  0.30455600  0.14956900  0.52452400  1
  O  O25  1  0.19544400  0.64956900  0.97547600  1
  O  O26  1  0.80455600  0.85043100  0.97547600  1
  O  O27  1  0.69544400  0.35043100  0.52452400  1
  O  O28  1  0.69544400  0.85043100  0.47547600  1
  O  O29  1  0.80455600  0.35043100  0.02452400  1
  O  O30  1  0.19544400  0.14956900  0.02452400  1
  O  O31  1  0.30455600  0.64956900  0.47547600  1
  F  F0  1  0.00000000  0.25000000  0.86788700  1
  F  F1  1  0.50000000  0.75000000  0.63211300  1
  F  F2  1  0.00000000  0.75000000  0.13211300  1
  F  F3  1  0.50000000  0.25000000  0.36788700  1
loop_
_geom_bond_atom_site_label_1
_geom_bond_atom_site_label_2
_geom_bond_distance
_geom_bond_site_symmetry_2
Li0 O19 2.037140 1_555
Li0 O8 2.067495 1_555
Li0 O11 2.121823 1_555
Li0 O1 2.146109 1_555
Li1 O18 2.037140 1_555
Li1 O9 2.067495 1_555
Li1 O10 2.121823 1_455
Li1 O0 2.146109 1_555
Li2 O17 2.037140 1_555
Li2 O10 2.067495 1_555
Li2 O9 2.121823 1_655
Li2 O3 2.146109 1_555
Li3 O16 2.037140 1_555
Li3 O11 2.067495 1_555
Li3 O8 2.121823 1_555
Li3 O2 2.146109 1_555
Li4 O23 2.037140 1_555
Li4 O12 2.067495 1_555
Li4 O15 2.121823 1_555
Li4 O5 2.146109 1_555
Li5 O22 2.037140 1_555
Li5 O13 2.067495 1_555
Li5 O14 2.121823 1_655
Li5 O4 2.146109 1_555
Li6 O21 2.037140 1_555
Li6 O14 2.067495 1_555
Li6 O13 2.121823 1_455
Li6 O7 2.146109 1_555
Li7 O20 2.037140 1_555
Li7 O15 2.067495 1_555
Li7 O12 2.121823 1_555
Li7 O6 2.146109 1_555
Fe0 O1 1.955821 1_555
Fe0 O29 2.004703 1_456
Fe0 O21 2.008180 1_556
Fe0 O30 2.112032 1_556
Fe1 O0 1.955821 1_555
Fe1 O28 2.004703 1_555
Fe1 O20 2.008180 1_555
Fe1 O31 2.112032 1_555
Fe2 O3 1.955821 1_555
Fe2 O31 2.004703 1_555
Fe2 O23 2.008180 1_555
Fe2 O28 2.112032 1_555
Fe3 O2 1.955821 1_555
Fe3 O30 2.004703 1_656
Fe3 O22 2.008180 1_556
Fe3 O29 2.112032 1_556
Fe4 O5 1.955821 1_555
Fe4 O25 2.004703 1_654
Fe4 O17 2.008180 1_554
Fe4 O26 2.112032 1_554
Fe5 O4 1.955821 1_555
Fe5 O24 2.004703 1_555
Fe5 O16 2.008180 1_555
Fe5 O27 2.112032 1_555
Fe6 O7 1.955821 1_555
Fe6 O27 2.004703 1_555
Fe6 O19 2.008180 1_555
Fe6 O24 2.112032 1_555
Fe7 O6 1.955821 1_555
Fe7 O26 2.004703 1_454
Fe7 O18 2.008180 1_554
Fe7 O25 2.112032 1_554
O0 P0 1.553032 1_565
O1 P1 1.553032 1_555
O2 P2 1.553032 1_545
O3 P3 1.553032 1_555
O4 P4 1.553032 1_545
O5 P5 1.553032 1_555
O6 P6 1.553032 1_565
O7 P7 1.553032 1_555
O8 P0 1.511103 1_555
O9 P1 1.511103 1_555
O10 P2 1.511103 1_555
O11 P3 1.511103 1_555
O12 P4 1.511103 1_555
O13 P5 1.511103 1_555
O14 P6 1.511103 1_555
O15 P7 1.511103 1_555
O16 P0 1.566593 1_655
O17 P1 1.566593 1_555
O18 P2 1.566593 1_555
O19 P3 1.566593 1_455
O20 P4 1.566593 1_455
O21 P5 1.566593 1_555
O22 P6 1.566593 1_555
O23 P7 1.566593 1_655
O24 P0 1.595169 1_555
O25 P1 1.595169 1_555
O26 P2 1.595169 1_555
O27 P3 1.595169 1_555
O28 P4 1.595169 1_555
O29 P5 1.595169 1_555
O30 P6 1.595169 1_555
O31 P7 1.595169 1_555
F0 Fe0 2.085353 1_555
F0 Fe3 2.085353 1_455
F0 Li0 2.290189 1_555
F0 Li3 2.290189 1_455
F1 Fe1 2.085353 1_555
F1 Fe2 2.085353 1_555
F1 Li1 2.290189 1_555
F1 Li2 2.290189 1_555
F2 Fe7 2.085353 1_555
F2 Fe4 2.085353 1_455
F2 Li7 2.290189 1_555
F2 Li4 2.290189 1_455
F3 Fe5 2.085353 1_555
F3 Fe6 2.085353 1_555
F3 Li5 2.290189 1_555
F3 Li6 2.290189 1_555
