# generated using pymatgen
data_K5Na3Nb8O24
_symmetry_space_group_name_H-M   'P 1'
_cell_length_a   8.07974100
_cell_length_b   8.07974100
_cell_length_c   8.07963500
_cell_angle_alpha   90.00000000
_cell_angle_beta   90.00000000
_cell_angle_gamma   90.00000000
_symmetry_Int_Tables_number   1
_chemical_formula_structural   K5Na3Nb8O24
_chemical_formula_sum   'K5 Na3 Nb8 O24'
_cell_volume   527.45646618
_cell_formula_units_Z   1
loop_
 _symmetry_equiv_pos_site_id
 _symmetry_equiv_pos_as_xyz
  1  'x, y, z'
loop_
 _atom_site_type_symbol
 _atom_site_label
 _atom_site_symmetry_multiplicity
 _atom_site_fract_x
 _atom_site_fract_y
 _atom_site_fract_z
 _atom_site_occupancy
  K  K0  1  0.00000000  0.00000000  0.00000000  1
  K  K1  1  0.50000000  0.00000000  0.00000000  1
  K  K2  1  0.00000000  0.50000000  0.00000000  1
  K  K3  1  0.50000000  0.50000000  0.00000000  1
  K  K4  1  0.50000000  0.50000000  0.50000000  1
  Na  Na0  1  0.00000000  0.00000000  0.50000000  1
  Na  Na1  1  0.50000000  0.00000000  0.50000000  1
  Na  Na2  1  0.00000000  0.50000000  0.50000000  1
  Nb  Nb0  1  0.75051100  0.75051100  0.74841600  1
  Nb  Nb1  1  0.75051100  0.75051100  0.25158400  1
  Nb  Nb2  1  0.24948900  0.75051100  0.74841600  1
  Nb  Nb3  1  0.24948900  0.75051100  0.25158400  1
  Nb  Nb4  1  0.75051100  0.24948900  0.74841600  1
  Nb  Nb5  1  0.75051100  0.24948900  0.25158400  1
  Nb  Nb6  1  0.24948900  0.24948900  0.74841600  1
  Nb  Nb7  1  0.24948900  0.24948900  0.25158400  1
  O  O0  1  0.75049200  0.00000000  0.74569300  1
  O  O1  1  0.75049200  0.00000000  0.25430700  1
  O  O2  1  0.24950800  0.00000000  0.74569300  1
  O  O3  1  0.24950800  0.00000000  0.25430700  1
  O  O4  1  0.75195600  0.50000000  0.74708700  1
  O  O5  1  0.75195600  0.50000000  0.25291300  1
  O  O6  1  0.24804400  0.50000000  0.74708700  1
  O  O7  1  0.24804400  0.50000000  0.25291300  1
  O  O8  1  0.00000000  0.75049200  0.74569300  1
  O  O9  1  0.00000000  0.75049200  0.25430700  1
  O  O10  1  0.50000000  0.75195600  0.74708700  1
  O  O11  1  0.50000000  0.75195600  0.25291300  1
  O  O12  1  0.00000000  0.24950800  0.74569300  1
  O  O13  1  0.00000000  0.24950800  0.25430700  1
  O  O14  1  0.50000000  0.24804400  0.74708700  1
  O  O15  1  0.50000000  0.24804400  0.25291300  1
  O  O16  1  0.75047200  0.75047200  0.00000000  1
  O  O17  1  0.75184100  0.75184100  0.50000000  1
  O  O18  1  0.24952800  0.75047200  0.00000000  1
  O  O19  1  0.24815900  0.75184100  0.50000000  1
  O  O20  1  0.75047200  0.24952800  0.00000000  1
  O  O21  1  0.75184100  0.24815900  0.50000000  1
  O  O22  1  0.24952800  0.24952800  0.00000000  1
  O  O23  1  0.24815900  0.24815900  0.50000000  1
loop_
_geom_bond_atom_site_label_1
_geom_bond_atom_site_label_2
_geom_bond_distance
_geom_bond_site_symmetry_2
K0 O22 2.851227 1_555
K0 O18 2.851227 1_545
K0 O20 2.851227 1_455
K0 O16 2.851227 1_445
K0 O3 2.878527 1_555
K0 O13 2.878527 1_555
K0 O12 2.878527 1_554
K0 O2 2.878527 1_554
K0 O9 2.878527 1_545
K0 O1 2.878527 1_455
K0 O8 2.878527 1_544
K0 O0 2.878527 1_454
K1 O20 2.856625 1_555
K1 O16 2.856625 1_545
K1 O22 2.856625 1_555
K1 O18 2.856625 1_545
K1 O15 2.862203 1_555
K1 O11 2.862203 1_545
K1 O14 2.862203 1_554
K1 O10 2.862203 1_544
K1 O1 2.884101 1_555
K1 O0 2.884101 1_554
K1 O3 2.884101 1_555
K1 O2 2.884101 1_554
K2 O18 2.856625 1_555
K2 O16 2.856625 1_455
K2 O22 2.856625 1_555
K2 O20 2.856625 1_455
K2 O7 2.862203 1_555
K2 O5 2.862203 1_455
K2 O4 2.862203 1_454
K2 O6 2.862203 1_554
K2 O9 2.884101 1_555
K2 O8 2.884101 1_554
K2 O13 2.884101 1_555
K2 O12 2.884101 1_554
K3 O16 2.862013 1_555
K3 O20 2.862013 1_555
K3 O18 2.862013 1_555
K3 O22 2.862013 1_555
K3 O11 2.884424 1_555
K3 O5 2.884424 1_555
K3 O15 2.884424 1_555
K3 O7 2.884424 1_555
K3 O6 2.884424 1_554
K3 O10 2.884424 1_554
K3 O14 2.884424 1_554
K3 O4 2.884424 1_554
K4 O10 2.851270 1_555
K4 O4 2.851270 1_555
K4 O11 2.851270 1_555
K4 O5 2.851270 1_555
K4 O14 2.851270 1_555
K4 O6 2.851270 1_555
K4 O15 2.851270 1_555
K4 O7 2.851270 1_555
K4 O19 2.877656 1_555
K4 O23 2.877656 1_555
K4 O17 2.877656 1_555
K4 O21 2.877656 1_555
Na0 O12 2.829268 1_555
Na0 O2 2.829268 1_555
Na0 O13 2.829268 1_555
Na0 O3 2.829268 1_555
Na0 O0 2.829268 1_455
Na0 O8 2.829268 1_545
Na0 O9 2.829268 1_545
Na0 O1 2.829268 1_455
Na0 O23 2.835584 1_555
Na0 O19 2.835584 1_545
Na0 O21 2.835584 1_455
Na0 O17 2.835584 1_445
Na1 O14 2.828789 1_555
Na1 O15 2.828789 1_555
Na1 O10 2.828789 1_545
Na1 O11 2.828789 1_545
Na1 O0 2.834938 1_555
Na1 O1 2.834938 1_555
Na1 O2 2.834938 1_555
Na1 O3 2.834938 1_555
Na1 O23 2.856697 1_555
Na1 O21 2.856697 1_555
Na1 O17 2.856697 1_545
Na1 O19 2.856697 1_545
Na2 O6 2.828789 1_555
Na2 O5 2.828789 1_455
Na2 O7 2.828789 1_555
Na2 O4 2.828789 1_455
Na2 O8 2.834938 1_555
Na2 O9 2.834938 1_555
Na2 O12 2.834938 1_555
Na2 O13 2.834938 1_555
Na2 O23 2.856697 1_555
Na2 O19 2.856697 1_555
Na2 O17 2.856697 1_455
Na2 O21 2.856697 1_455
Nb0 O17 2.007168 1_555
Nb0 O8 2.015927 1_655
Nb0 O0 2.015927 1_565
Nb0 O4 2.024126 1_555
Nb0 O10 2.024126 1_555
Nb0 O16 2.032707 1_556
Nb1 O17 2.007168 1_555
Nb1 O9 2.015927 1_655
Nb1 O1 2.015927 1_565
Nb1 O5 2.024126 1_555
Nb1 O11 2.024126 1_555
Nb1 O16 2.032707 1_555
Nb2 O19 2.007168 1_555
Nb2 O8 2.015927 1_555
Nb2 O2 2.015927 1_565
Nb2 O6 2.024126 1_555
Nb2 O10 2.024126 1_555
Nb2 O18 2.032707 1_556
Nb3 O19 2.007168 1_555
Nb3 O9 2.015927 1_555
Nb3 O3 2.015927 1_565
Nb3 O7 2.024126 1_555
Nb3 O11 2.024126 1_555
Nb3 O18 2.032707 1_555
Nb4 O21 2.007168 1_555
Nb4 O0 2.015927 1_555
Nb4 O12 2.015927 1_655
Nb4 O14 2.024126 1_555
Nb4 O4 2.024126 1_555
Nb4 O20 2.032707 1_556
Nb5 O21 2.007168 1_555
Nb5 O1 2.015927 1_555
Nb5 O13 2.015927 1_655
Nb5 O15 2.024126 1_555
Nb5 O5 2.024126 1_555
Nb5 O20 2.032707 1_555
Nb6 O23 2.007168 1_555
Nb6 O12 2.015927 1_555
Nb6 O2 2.015927 1_555
Nb6 O6 2.024126 1_555
Nb6 O14 2.024126 1_555
Nb6 O22 2.032707 1_556
Nb7 O23 2.007168 1_555
Nb7 O13 2.015927 1_555
Nb7 O3 2.015927 1_555
Nb7 O7 2.024126 1_555
Nb7 O15 2.024126 1_555
Nb7 O22 2.032707 1_555
