# generated using pymatgen
data_NaCeMg30O32
_symmetry_space_group_name_H-M   'P 1'
_cell_length_a   8.51905806
_cell_length_b   8.51905806
_cell_length_c   8.50979832
_cell_angle_alpha   90.00000000
_cell_angle_beta   90.00000000
_cell_angle_gamma   90.00000000
_symmetry_Int_Tables_number   1
_chemical_formula_structural   NaCeMg30O32
_chemical_formula_sum   'Na1 Ce1 Mg30 O32'
_cell_volume   617.59308366
_cell_formula_units_Z   1
loop_
 _symmetry_equiv_pos_site_id
 _symmetry_equiv_pos_as_xyz
  1  'x, y, z'
loop_
 _atom_site_type_symbol
 _atom_site_label
 _atom_site_symmetry_multiplicity
 _atom_site_fract_x
 _atom_site_fract_y
 _atom_site_fract_z
 _atom_site_occupancy
  Na  Na0  1  0.50000000  0.50000000  0.00000000  1
  Ce  Ce0  1  0.00000000  -0.00000000  0.00000000  1
  Mg  Mg0  1  0.50000000  -0.00000000  0.00000000  1
  Mg  Mg1  1  0.00000000  0.50000000  0.00000000  1
  Mg  Mg2  1  0.00000000  -0.00000000  0.50000000  1
  Mg  Mg3  1  0.50000000  -0.00000000  0.50000000  1
  Mg  Mg4  1  0.00000000  0.50000000  0.50000000  1
  Mg  Mg5  1  0.50000000  0.50000000  0.50000000  1
  Mg  Mg6  1  0.26027711  0.26027711  -0.00000000  1
  Mg  Mg7  1  0.73972289  0.26027711  -0.00000000  1
  Mg  Mg8  1  0.26027711  0.73972289  0.00000000  1
  Mg  Mg9  1  0.73972289  0.73972289  0.00000000  1
  Mg  Mg10  1  0.25169036  0.25169036  0.50000000  1
  Mg  Mg11  1  0.74830964  0.25169036  0.50000000  1
  Mg  Mg12  1  0.25169036  0.74830964  0.50000000  1
  Mg  Mg13  1  0.74830964  0.74830964  0.50000000  1
  Mg  Mg14  1  0.25883903  -0.00000000  0.25747715  1
  Mg  Mg15  1  0.74116097  -0.00000000  0.25747715  1
  Mg  Mg16  1  0.25257481  0.50000000  0.24971139  1
  Mg  Mg17  1  0.74742519  0.50000000  0.24971139  1
  Mg  Mg18  1  0.25883903  -0.00000000  0.74252285  1
  Mg  Mg19  1  0.74116097  -0.00000000  0.74252285  1
  Mg  Mg20  1  0.25257481  0.50000000  0.75028861  1
  Mg  Mg21  1  0.74742519  0.50000000  0.75028861  1
  Mg  Mg22  1  0.00000000  0.25883903  0.25747715  1
  Mg  Mg23  1  0.50000000  0.25257481  0.24971139  1
  Mg  Mg24  1  0.00000000  0.74116097  0.25747715  1
  Mg  Mg25  1  0.50000000  0.74742519  0.24971139  1
  Mg  Mg26  1  0.00000000  0.25883903  0.74252285  1
  Mg  Mg27  1  0.50000000  0.25257481  0.75028861  1
  Mg  Mg28  1  0.00000000  0.74116097  0.74252285  1
  Mg  Mg29  1  0.50000000  0.74742519  0.75028861  1
  O  O0  1  0.00000000  -0.00000000  0.26758028  1
  O  O1  1  0.50000000  -0.00000000  0.25493473  1
  O  O2  1  0.00000000  0.50000000  0.25493473  1
  O  O3  1  0.50000000  0.50000000  0.26317549  1
  O  O4  1  0.00000000  -0.00000000  0.73241972  1
  O  O5  1  0.50000000  -0.00000000  0.74506527  1
  O  O6  1  0.00000000  0.50000000  0.74506527  1
  O  O7  1  0.50000000  0.50000000  0.73682451  1
  O  O8  1  0.24903045  0.24903045  0.24969074  1
  O  O9  1  0.75096955  0.24903045  0.24969074  1
  O  O10  1  0.24903045  0.75096955  0.24969074  1
  O  O11  1  0.75096955  0.75096955  0.24969074  1
  O  O12  1  0.24903045  0.24903045  0.75030926  1
  O  O13  1  0.75096955  0.24903045  0.75030926  1
  O  O14  1  0.24903045  0.75096955  0.75030926  1
  O  O15  1  0.75096955  0.75096955  0.75030926  1
  O  O16  1  0.26572410  -0.00000000  0.00000000  1
  O  O17  1  0.73427590  -0.00000000  0.00000000  1
  O  O18  1  0.23954150  0.50000000  -0.00000000  1
  O  O19  1  0.76045850  0.50000000  0.00000000  1
  O  O20  1  0.25174586  -0.00000000  0.50000000  1
  O  O21  1  0.74825414  -0.00000000  0.50000000  1
  O  O22  1  0.24802664  0.50000000  0.50000000  1
  O  O23  1  0.75197336  0.50000000  0.50000000  1
  O  O24  1  0.00000000  0.26572410  -0.00000000  1
  O  O25  1  0.50000000  0.23954150  -0.00000000  1
  O  O26  1  0.00000000  0.73427590  0.00000000  1
  O  O27  1  0.50000000  0.76045850  0.00000000  1
  O  O28  1  0.00000000  0.25174586  0.50000000  1
  O  O29  1  0.50000000  0.24802664  0.50000000  1
  O  O30  1  0.00000000  0.74825414  0.50000000  1
  O  O31  1  0.50000000  0.75197336  0.50000000  1
loop_
_geom_bond_atom_site_label_1
_geom_bond_atom_site_label_2
_geom_bond_distance
_geom_bond_site_symmetry_2
Na0 O19 2.218861 1_555
Na0 O27 2.218861 1_555
Na0 O18 2.218861 1_555
Na0 O25 2.218861 1_555
Na0 O7 2.239570 1_554
Na0 O3 2.239570 1_555
Ce0 O24 2.263719 1_555
Ce0 O16 2.263719 1_555
Ce0 O26 2.263719 1_545
Ce0 O17 2.263719 1_455
Ce0 O4 2.277054 1_554
Ce0 O0 2.277054 1_555
Mg0 O17 1.995810 1_555
Mg0 O16 1.995810 1_555
Mg0 O25 2.040668 1_555
Mg0 O27 2.040668 1_545
Mg0 O1 2.169443 1_555
Mg0 O5 2.169443 1_554
Mg1 O26 1.995810 1_555
Mg1 O24 1.995810 1_555
Mg1 O18 2.040668 1_555
Mg1 O19 2.040668 1_455
Mg1 O2 2.169443 1_555
Mg1 O6 2.169443 1_554
Mg2 O0 1.977845 1_555
Mg2 O4 1.977845 1_555
Mg2 O20 2.144638 1_555
Mg2 O28 2.144638 1_555
Mg2 O30 2.144638 1_545
Mg2 O21 2.144638 1_455
Mg3 O1 2.085456 1_555
Mg3 O5 2.085456 1_555
Mg3 O31 2.112953 1_545
Mg3 O29 2.112953 1_555
Mg3 O21 2.114891 1_555
Mg3 O20 2.114891 1_555
Mg4 O6 2.085456 1_555
Mg4 O2 2.085456 1_555
Mg4 O23 2.112953 1_455
Mg4 O22 2.112953 1_555
Mg4 O28 2.114891 1_555
Mg4 O30 2.114891 1_555
Mg5 O3 2.015329 1_555
Mg5 O7 2.015329 1_555
Mg5 O31 2.146576 1_555
Mg5 O23 2.146576 1_555
Mg5 O22 2.146576 1_555
Mg5 O29 2.146576 1_555
Mg6 O25 2.049839 1_555
Mg6 O18 2.049839 1_555
Mg6 O8 2.129134 1_555
Mg6 O12 2.129134 1_554
Mg6 O24 2.217801 1_555
Mg6 O16 2.217801 1_555
Mg7 O19 2.049839 1_555
Mg7 O25 2.049839 1_555
Mg7 O13 2.129134 1_554
Mg7 O9 2.129134 1_555
Mg7 O24 2.217801 1_655
Mg7 O17 2.217801 1_555
Mg8 O27 2.049839 1_555
Mg8 O18 2.049839 1_555
Mg8 O10 2.129134 1_555
Mg8 O14 2.129134 1_554
Mg8 O16 2.217801 1_565
Mg8 O26 2.217801 1_555
Mg9 O27 2.049839 1_555
Mg9 O19 2.049839 1_555
Mg9 O15 2.129134 1_554
Mg9 O11 2.129134 1_555
Mg9 O26 2.217801 1_655
Mg9 O17 2.217801 1_565
Mg10 O22 2.115594 1_555
Mg10 O29 2.115594 1_555
Mg10 O12 2.130322 1_555
Mg10 O8 2.130322 1_555
Mg10 O20 2.144165 1_555
Mg10 O28 2.144165 1_555
Mg11 O29 2.115594 1_555
Mg11 O23 2.115594 1_555
Mg11 O9 2.130322 1_555
Mg11 O13 2.130322 1_555
Mg11 O21 2.144165 1_555
Mg11 O28 2.144165 1_655
Mg12 O22 2.115594 1_555
Mg12 O31 2.115594 1_555
Mg12 O10 2.130322 1_555
Mg12 O14 2.130322 1_555
Mg12 O20 2.144165 1_565
Mg12 O30 2.144165 1_555
Mg13 O31 2.115594 1_555
Mg13 O23 2.115594 1_555
Mg13 O11 2.130322 1_555
Mg13 O15 2.130322 1_555
Mg13 O30 2.144165 1_655
Mg13 O21 2.144165 1_565
Mg14 O1 2.054578 1_555
Mg14 O20 2.064705 1_555
Mg14 O8 2.124184 1_555
Mg14 O10 2.124184 1_545
Mg14 O16 2.191864 1_555
Mg14 O0 2.206740 1_555
Mg15 O1 2.054578 1_555
Mg15 O21 2.064705 1_555
Mg15 O9 2.124184 1_555
Mg15 O11 2.124184 1_545
Mg15 O17 2.191864 1_555
Mg15 O0 2.206740 1_655
Mg16 O3 2.110941 1_555
Mg16 O18 2.127892 1_555
Mg16 O22 2.130258 1_555
Mg16 O10 2.138237 1_555
Mg16 O8 2.138237 1_555
Mg16 O2 2.152159 1_555
Mg17 O3 2.110941 1_555
Mg17 O19 2.127892 1_555
Mg17 O23 2.130258 1_555
Mg17 O9 2.138237 1_555
Mg17 O11 2.138237 1_555
Mg17 O2 2.152159 1_655
Mg18 O5 2.054578 1_555
Mg18 O20 2.064705 1_555
Mg18 O14 2.124184 1_545
Mg18 O12 2.124184 1_555
Mg18 O16 2.191864 1_556
Mg18 O4 2.206740 1_555
Mg19 O5 2.054578 1_555
Mg19 O21 2.064705 1_555
Mg19 O15 2.124184 1_545
Mg19 O13 2.124184 1_555
Mg19 O17 2.191864 1_556
Mg19 O4 2.206740 1_655
Mg20 O7 2.110941 1_555
Mg20 O18 2.127892 1_556
Mg20 O22 2.130258 1_555
Mg20 O12 2.138237 1_555
Mg20 O14 2.138237 1_555
Mg20 O6 2.152159 1_555
Mg21 O7 2.110941 1_555
Mg21 O19 2.127892 1_556
Mg21 O23 2.130258 1_555
Mg21 O13 2.138237 1_555
Mg21 O15 2.138237 1_555
Mg21 O6 2.152159 1_655
Mg22 O2 2.054578 1_555
Mg22 O28 2.064705 1_555
Mg22 O9 2.124184 1_455
Mg22 O8 2.124184 1_555
Mg22 O24 2.191864 1_555
Mg22 O0 2.206740 1_555
Mg23 O3 2.110941 1_555
Mg23 O25 2.127892 1_555
Mg23 O29 2.130258 1_555
Mg23 O9 2.138237 1_555
Mg23 O8 2.138237 1_555
Mg23 O1 2.152159 1_555
Mg24 O2 2.054578 1_555
Mg24 O30 2.064705 1_555
Mg24 O10 2.124184 1_555
Mg24 O11 2.124184 1_455
Mg24 O26 2.191864 1_555
Mg24 O0 2.206740 1_565
Mg25 O3 2.110941 1_555
Mg25 O27 2.127892 1_555
Mg25 O31 2.130258 1_555
Mg25 O10 2.138237 1_555
Mg25 O11 2.138237 1_555
Mg25 O1 2.152159 1_565
Mg26 O6 2.054578 1_555
Mg26 O28 2.064705 1_555
Mg26 O13 2.124184 1_455
Mg26 O12 2.124184 1_555
Mg26 O24 2.191864 1_556
Mg26 O4 2.206740 1_555
Mg27 O7 2.110941 1_555
Mg27 O25 2.127892 1_556
Mg27 O29 2.130258 1_555
Mg27 O13 2.138237 1_555
Mg27 O12 2.138237 1_555
Mg27 O5 2.152159 1_555
Mg28 O6 2.054578 1_555
Mg28 O30 2.064705 1_555
Mg28 O15 2.124184 1_455
Mg28 O14 2.124184 1_555
Mg28 O26 2.191864 1_556
Mg28 O4 2.206740 1_565
Mg29 O7 2.110941 1_555
Mg29 O27 2.127892 1_556
Mg29 O31 2.130258 1_555
Mg29 O14 2.138237 1_555
Mg29 O15 2.138237 1_555
Mg29 O5 2.152159 1_565
