# generated using pymatgen
data_HoB3Mo
_symmetry_space_group_name_H-M   'P 1'
_cell_length_a   3.15426580
_cell_length_b   5.41466446
_cell_length_c   6.81689681
_cell_angle_alpha   78.02809308
_cell_angle_beta   90.00000000
_cell_angle_gamma   90.00000000
_symmetry_Int_Tables_number   1
_chemical_formula_structural   HoB3Mo
_chemical_formula_sum   'Ho2 B6 Mo2'
_cell_volume   113.89539324
_cell_formula_units_Z   2
loop_
 _symmetry_equiv_pos_site_id
 _symmetry_equiv_pos_as_xyz
  1  'x, y, z'
loop_
 _atom_site_type_symbol
 _atom_site_label
 _atom_site_symmetry_multiplicity
 _atom_site_fract_x
 _atom_site_fract_y
 _atom_site_fract_z
 _atom_site_occupancy
  Ho  Ho0  1  0.25000000  0.32389475  0.70996759  1
  Ho  Ho1  1  0.75000000  0.67610525  0.29003241  1
  B  B0  1  0.25000000  0.91801961  0.52459777  1
  B  B1  1  0.75000000  0.08198039  0.47540223  1
  B  B2  1  0.25000000  0.91241474  0.00438549  1
  B  B3  1  0.75000000  0.08758526  0.99561451  1
  B  B4  1  0.25000000  0.58350987  0.00697088  1
  B  B5  1  0.75000000  0.41649013  0.99302912  1
  Mo  Mo0  1  0.25000000  0.18847921  0.21995976  1
  Mo  Mo1  1  0.75000000  0.81152079  0.78004024  1
loop_
_geom_bond_atom_site_label_1
_geom_bond_atom_site_label_2
_geom_bond_distance
_geom_bond_site_symmetry_2
B0 B1 1.806785 1_465
B0 B1 1.806785 1_565
B0 Mo0 2.279374 1_565
B0 Mo1 2.331418 1_455
B0 Mo1 2.331418 1_555
B0 Ho0 2.752945 1_565
B0 Ho1 2.762049 1_555
B0 Ho1 2.762049 1_455
B0 Ho0 3.203019 1_555
B1 Mo1 2.279374 1_545
B1 Mo0 2.331418 1_655
B1 Mo0 2.331418 1_555
B1 Ho1 2.752945 1_545
B1 Ho0 2.762049 1_555
B1 Ho0 2.762049 1_655
B1 Ho1 3.203019 1_555
B2 B4 1.777337 1_555
B2 B3 1.834946 1_464
B2 B3 1.834946 1_564
B2 Mo0 2.303325 1_565
B2 Mo1 2.339079 1_554
B2 Mo1 2.339079 1_454
B2 Ho1 2.623470 1_555
B2 Ho1 2.623470 1_455
B2 Ho0 2.671530 1_564
B3 B5 1.777337 1_555
B3 Mo1 2.303325 1_545
B3 Mo0 2.339079 1_556
B3 Mo0 2.339079 1_656
B3 Ho0 2.623470 1_555
B3 Ho0 2.623470 1_655
B3 Ho1 2.671530 1_546
B4 B5 1.830273 1_454
B4 B5 1.830273 1_554
B4 Mo0 2.322675 1_555
B4 Mo1 2.369038 1_554
B4 Mo1 2.369038 1_454
B4 Ho1 2.619818 1_555
B4 Ho1 2.619818 1_455
B4 Ho0 2.693694 1_554
B5 Mo1 2.322675 1_555
B5 Mo0 2.369038 1_556
B5 Mo0 2.369038 1_656
B5 Ho0 2.619818 1_655
B5 Ho0 2.619818 1_555
B5 Ho1 2.693694 1_556
