# generated using pymatgen
data_MoW(SeS)2
_symmetry_space_group_name_H-M   'P 1'
_cell_length_a   3.24996251
_cell_length_b   3.24996251
_cell_length_c   35.59055862
_cell_angle_alpha   90.00000000
_cell_angle_beta   90.00000000
_cell_angle_gamma   120.00001524
_symmetry_Int_Tables_number   1
_chemical_formula_structural   MoW(SeS)2
_chemical_formula_sum   'Mo2 W2 Se4 S4'
_cell_volume   325.55327729
_cell_formula_units_Z   2
loop_
 _symmetry_equiv_pos_site_id
 _symmetry_equiv_pos_as_xyz
  1  'x, y, z'
loop_
 _atom_site_type_symbol
 _atom_site_label
 _atom_site_symmetry_multiplicity
 _atom_site_fract_x
 _atom_site_fract_y
 _atom_site_fract_z
 _atom_site_occupancy
  Mo  Mo0  1  0.33333300  0.66666700  0.09406904  1
  Mo  Mo1  1  0.33333300  0.66666700  0.46964383  1
  W  W0  1  0.66666700  0.33333300  0.28161396  1
  W  W1  1  0.66666700  0.33333300  0.65757932  1
  Se  Se0  1  0.33333300  0.66666700  0.32902849  1
  Se  Se1  1  0.33333300  0.66666700  0.70500432  1
  Se  Se2  1  0.33333300  0.66666700  0.23421813  1
  Se  Se3  1  0.33333300  0.66666700  0.61014166  1
  S  S0  1  0.66666700  0.33333300  0.05105080  1
  S  S1  1  0.66666700  0.33333300  0.42659849  1
  S  S2  1  0.66666700  0.33333300  0.13711323  1
  S  S3  1  0.66666700  0.33333300  0.51268573  1
loop_
_geom_bond_atom_site_label_1
_geom_bond_atom_site_label_2
_geom_bond_distance
_geom_bond_site_symmetry_2
Mo0 S0 2.421743 1_565
Mo0 S0 2.421743 1_455
Mo0 S0 2.421747 1_555
Mo0 S2 2.422327 1_455
Mo0 S2 2.422327 1_565
Mo0 S2 2.422331 1_555
Mo1 S3 2.422275 1_455
Mo1 S3 2.422275 1_565
Mo1 S3 2.422280 1_555
Mo1 S1 2.422352 1_565
Mo1 S1 2.422352 1_455
Mo1 S1 2.422357 1_555
Se0 W0 2.523575 1_455
Se0 W0 2.523575 1_565
Se0 W0 2.523580 1_555
Se1 W1 2.523825 1_455
Se1 W1 2.523825 1_565
Se1 W1 2.523829 1_555
Se2 W0 2.523130 1_455
Se2 W0 2.523130 1_565
Se2 W0 2.523135 1_555
Se3 W1 2.524126 1_565
Se3 W1 2.524126 1_455
Se3 W1 2.524130 1_555
