# generated using pymatgen
data_Y2Fe17
_symmetry_space_group_name_H-M   'P 1'
_cell_length_a   8.26022700
_cell_length_b   8.48210067
_cell_length_c   8.48210067
_cell_angle_alpha   120.01841213
_cell_angle_beta   90.00000000
_cell_angle_gamma   90.00000000
_symmetry_Int_Tables_number   1
_chemical_formula_structural   Y2Fe17
_chemical_formula_sum   'Y4 Fe34'
_cell_volume   514.57520251
_cell_formula_units_Z   2
loop_
 _symmetry_equiv_pos_site_id
 _symmetry_equiv_pos_as_xyz
  1  'x, y, z'
loop_
 _atom_site_type_symbol
 _atom_site_label
 _atom_site_symmetry_multiplicity
 _atom_site_fract_x
 _atom_site_fract_y
 _atom_site_fract_z
 _atom_site_occupancy
  Y  Y0  1  0.75000000  0.00001200  0.99998800  1
  Y  Y1  1  0.25000000  0.99998800  0.00001200  1
  Y  Y2  1  0.25000000  0.66657200  0.33342800  1
  Y  Y3  1  0.75000000  0.33342800  0.66657200  1
  Fe  Fe0  1  0.60677200  0.66668500  0.33331500  1
  Fe  Fe1  1  0.39322800  0.33331500  0.66668500  1
  Fe  Fe2  1  0.10677200  0.33331500  0.66668500  1
  Fe  Fe3  1  0.89322800  0.66668500  0.33331500  1
  Fe  Fe4  1  0.50000000  0.50000000  0.00000000  1
  Fe  Fe5  1  0.50000000  0.50000000  0.50000000  1
  Fe  Fe6  1  0.50000000  0.00000000  0.50000000  1
  Fe  Fe7  1  0.00000000  0.50000000  0.00000000  1
  Fe  Fe8  1  0.00000000  0.50000000  0.50000000  1
  Fe  Fe9  1  0.00000000  0.00000000  0.50000000  1
  Fe  Fe10  1  0.75000000  0.67044200  0.03986200  1
  Fe  Fe11  1  0.75000000  0.36954500  0.32969300  1
  Fe  Fe12  1  0.75000000  0.96012800  0.63060600  1
  Fe  Fe13  1  0.75000000  0.36939400  0.03987200  1
  Fe  Fe14  1  0.75000000  0.96013800  0.32955800  1
  Fe  Fe15  1  0.75000000  0.67030700  0.63045500  1
  Fe  Fe16  1  0.25000000  0.32955800  0.96013800  1
  Fe  Fe17  1  0.25000000  0.63045500  0.67030700  1
  Fe  Fe18  1  0.25000000  0.03987200  0.36939400  1
  Fe  Fe19  1  0.25000000  0.63060600  0.96012800  1
  Fe  Fe20  1  0.25000000  0.03986200  0.67044200  1
  Fe  Fe21  1  0.25000000  0.32969300  0.36954500  1
  Fe  Fe22  1  0.48436200  0.83353800  0.66746700  1
  Fe  Fe23  1  0.48435900  0.83375800  0.16624200  1
  Fe  Fe24  1  0.48436200  0.33253300  0.16646200  1
  Fe  Fe25  1  0.51563800  0.16646200  0.33253300  1
  Fe  Fe26  1  0.51564100  0.16624200  0.83375800  1
  Fe  Fe27  1  0.51563800  0.66746700  0.83353800  1
  Fe  Fe28  1  0.98436200  0.16646200  0.33253300  1
  Fe  Fe29  1  0.98435900  0.16624200  0.83375800  1
  Fe  Fe30  1  0.98436200  0.66746700  0.83353800  1
  Fe  Fe31  1  0.01563800  0.83353800  0.66746700  1
  Fe  Fe32  1  0.01564100  0.83375800  0.16624200  1
  Fe  Fe33  1  0.01563800  0.33253300  0.16646200  1
loop_
_geom_bond_atom_site_label_1
_geom_bond_atom_site_label_2
_geom_bond_distance
_geom_bond_site_symmetry_2
Fe0 Fe3 2.366192 1_555
Fe0 Fe4 2.602013 1_555
Fe0 Fe6 2.602013 1_565
Fe0 Fe5 2.603035 1_555
Fe0 Fe22 2.654271 1_555
Fe0 Fe24 2.654271 1_555
Fe0 Fe23 2.654870 1_555
Fe0 Fe12 2.770147 1_555
Fe0 Fe13 2.770147 1_555
Fe0 Fe15 2.770462 1_555
Fe0 Fe11 2.770462 1_555
Fe0 Fe14 2.770506 1_555
Fe0 Fe10 2.770506 1_555
Fe0 Y2 2.947018 1_555
Fe1 Fe2 2.366192 1_555
Fe1 Fe6 2.602013 1_555
Fe1 Fe4 2.602013 1_556
Fe1 Fe5 2.603035 1_555
Fe1 Fe27 2.654271 1_555
Fe1 Fe25 2.654271 1_555
Fe1 Fe26 2.654870 1_555
Fe1 Fe19 2.770147 1_555
Fe1 Fe18 2.770147 1_555
Fe1 Fe17 2.770462 1_555
Fe1 Fe21 2.770462 1_555
Fe1 Fe16 2.770506 1_555
Fe1 Fe20 2.770506 1_555
Fe1 Y3 2.947018 1_555
Fe2 Fe7 2.602013 1_556
Fe2 Fe9 2.602013 1_555
Fe2 Fe8 2.603035 1_555
Fe2 Fe30 2.654271 1_455
Fe2 Fe28 2.654271 1_455
Fe2 Fe29 2.654870 1_455
Fe2 Fe21 2.770462 1_555
Fe2 Fe20 2.770506 1_555
Fe2 Y3 2.947018 1_455
Fe3 Fe7 2.602013 1_655
Fe3 Fe9 2.602013 1_665
Fe3 Fe8 2.603035 1_655
Fe3 Fe31 2.654271 1_655
Fe3 Fe33 2.654271 1_655
Fe3 Fe32 2.654870 1_655
Fe3 Y2 2.947018 1_655
Fe4 Y2 3.203302 1_555
Fe4 Y3 3.203302 1_554
Fe5 Y2 3.202228 1_555
Fe5 Y3 3.202228 1_555
Fe6 Y3 3.203302 1_555
Fe6 Y2 3.203302 1_545
Fe7 Y2 3.203302 1_555
Fe7 Y3 3.203302 1_454
Fe8 Y3 3.202228 1_455
Fe8 Y2 3.202228 1_555
Fe9 Y3 3.203302 1_455
Fe9 Y2 3.203302 1_545
Fe10 Fe4 2.445355 1_555
Fe10 Fe7 2.445355 1_655
Fe10 Fe14 2.456547 1_555
Fe10 Fe23 2.529237 1_555
Fe10 Fe32 2.529237 1_655
Fe10 Fe13 2.553562 1_555
Fe10 Fe30 2.601309 1_554
Fe10 Fe27 2.601309 1_554
Fe10 Fe3 2.770506 1_555
Fe10 Y0 2.979076 1_564
Fe10 Y3 3.023365 1_554
Fe11 Fe5 2.444645 1_555
Fe11 Fe8 2.444645 1_655
Fe11 Fe13 2.457650 1_555
Fe11 Fe33 2.528884 1_655
Fe11 Fe24 2.528884 1_555
Fe11 Fe15 2.550384 1_555
Fe11 Fe28 2.599421 1_555
Fe11 Fe25 2.599421 1_555
Fe11 Fe3 2.770462 1_555
Fe11 Y0 2.979082 1_554
Fe11 Y3 3.022363 1_555
Fe12 Fe6 2.445599 1_565
Fe12 Fe9 2.445599 1_665
Fe12 Fe15 2.457650 1_555
Fe12 Fe31 2.530068 1_655
Fe12 Fe22 2.530068 1_555
Fe12 Fe14 2.553562 1_555
Fe12 Fe26 2.599819 1_565
Fe12 Fe29 2.599819 1_565
Fe12 Fe3 2.770147 1_555
Fe12 Y0 2.978331 1_565
Fe12 Y3 3.025303 1_565
Fe13 Fe4 2.445599 1_555
Fe13 Fe7 2.445599 1_655
Fe13 Fe33 2.530068 1_655
Fe13 Fe24 2.530068 1_555
Fe13 Fe26 2.599819 1_554
Fe13 Fe29 2.599819 1_554
Fe13 Fe3 2.770147 1_555
Fe13 Y0 2.978331 1_554
Fe13 Y3 3.025303 1_554
Fe14 Fe6 2.445355 1_565
Fe14 Fe9 2.445355 1_665
Fe14 Fe23 2.529237 1_555
Fe14 Fe32 2.529237 1_655
Fe14 Fe28 2.601309 1_565
Fe14 Fe25 2.601309 1_565
Fe14 Fe3 2.770506 1_555
Fe14 Y0 2.979076 1_564
Fe14 Y3 3.023365 1_565
Fe15 Fe5 2.444645 1_555
Fe15 Fe8 2.444645 1_655
Fe15 Fe31 2.528884 1_655
Fe15 Fe22 2.528884 1_555
Fe15 Fe30 2.599421 1_555
Fe15 Fe27 2.599421 1_555
Fe15 Fe3 2.770462 1_555
Fe15 Y0 2.979082 1_565
Fe15 Y3 3.022363 1_555
Fe16 Fe4 2.445355 1_556
Fe16 Fe7 2.445355 1_556
Fe16 Fe20 2.456547 1_555
Fe16 Fe26 2.529237 1_555
Fe16 Fe29 2.529237 1_455
Fe16 Fe19 2.553562 1_555
Fe16 Fe24 2.601309 1_556
Fe16 Fe33 2.601309 1_556
Fe16 Fe2 2.770506 1_555
Fe16 Y1 2.979076 1_546
Fe16 Y2 3.023365 1_556
Fe17 Fe5 2.444645 1_555
Fe17 Fe8 2.444645 1_555
Fe17 Fe19 2.457650 1_555
Fe17 Fe27 2.528884 1_555
Fe17 Fe30 2.528884 1_455
Fe17 Fe21 2.550384 1_555
Fe17 Fe22 2.599421 1_555
Fe17 Fe31 2.599421 1_555
Fe17 Fe2 2.770462 1_555
Fe17 Y1 2.979082 1_556
Fe17 Y2 3.022363 1_555
Fe18 Fe6 2.445599 1_555
Fe18 Fe9 2.445599 1_555
Fe18 Fe21 2.457650 1_555
Fe18 Fe25 2.530068 1_555
Fe18 Fe28 2.530068 1_455
Fe18 Fe20 2.553562 1_555
Fe18 Fe32 2.599819 1_545
Fe18 Fe23 2.599819 1_545
Fe18 Fe2 2.770147 1_555
Fe18 Y1 2.978331 1_545
Fe18 Y2 3.025303 1_545
Fe19 Fe4 2.445599 1_556
Fe19 Fe7 2.445599 1_556
Fe19 Fe27 2.530068 1_555
Fe19 Fe30 2.530068 1_455
Fe19 Fe23 2.599819 1_556
Fe19 Fe32 2.599819 1_556
Fe19 Fe2 2.770147 1_555
Fe19 Y1 2.978331 1_556
Fe19 Y2 3.025303 1_556
Fe20 Fe9 2.445355 1_555
Fe20 Fe6 2.445355 1_555
Fe20 Fe29 2.529237 1_455
Fe20 Fe26 2.529237 1_555
Fe20 Fe22 2.601309 1_545
Fe20 Fe31 2.601309 1_545
Fe20 Y1 2.979076 1_546
Fe20 Y2 3.023365 1_545
Fe21 Fe8 2.444645 1_555
Fe21 Fe5 2.444645 1_555
Fe21 Fe25 2.528884 1_555
Fe21 Fe28 2.528884 1_455
Fe21 Fe24 2.599421 1_555
Fe21 Fe33 2.599421 1_555
Fe21 Y1 2.979082 1_545
Fe21 Y2 3.022363 1_555
Fe22 Fe5 2.453029 1_555
Fe22 Fe27 2.453685 1_555
Fe22 Fe6 2.456577 1_565
Fe22 Fe26 2.457117 1_565
Fe22 Y1 3.116506 1_556
Fe22 Y2 3.125112 1_555
Fe22 Y0 3.283101 1_565
Fe23 Fe6 2.454646 1_565
Fe23 Fe4 2.454646 1_555
Fe23 Fe27 2.457117 1_554
Fe23 Fe25 2.457117 1_565
Fe23 Y1 3.116534 1_555
Fe23 Y2 3.127554 1_555
Fe23 Y0 3.283552 1_564
Fe24 Fe5 2.453029 1_555
Fe24 Fe25 2.453685 1_555
Fe24 Fe4 2.456577 1_555
Fe24 Fe26 2.457117 1_554
Fe24 Y1 3.116506 1_545
Fe24 Y2 3.125112 1_555
Fe24 Y0 3.283101 1_554
Fe25 Fe5 2.453029 1_555
Fe25 Fe6 2.456577 1_555
Fe25 Y0 3.116506 1_554
Fe25 Y3 3.125112 1_555
Fe25 Y1 3.283101 1_545
Fe26 Fe6 2.454646 1_555
Fe26 Fe4 2.454646 1_556
Fe26 Y0 3.116534 1_555
Fe26 Y3 3.127554 1_555
Fe26 Y1 3.283552 1_546
Fe27 Fe5 2.453029 1_555
Fe27 Fe4 2.456577 1_556
Fe27 Y0 3.116506 1_565
Fe27 Y3 3.125112 1_555
Fe27 Y1 3.283101 1_556
Fe28 Fe8 2.453029 1_655
Fe28 Fe33 2.453685 1_655
Fe28 Fe9 2.456577 1_655
Fe28 Fe32 2.457117 1_645
Fe28 Y0 3.116506 1_554
Fe28 Y3 3.125112 1_555
Fe28 Y1 3.283101 1_645
Fe29 Fe7 2.454646 1_656
Fe29 Fe9 2.454646 1_655
Fe29 Fe31 2.457117 1_645
Fe29 Fe33 2.457117 1_656
Fe29 Y0 3.116534 1_555
Fe29 Y3 3.127554 1_555
Fe29 Y1 3.283552 1_646
Fe30 Fe8 2.453029 1_655
Fe30 Fe31 2.453685 1_655
Fe30 Fe7 2.456577 1_656
Fe30 Fe32 2.457117 1_656
Fe30 Y0 3.116506 1_565
Fe30 Y3 3.125112 1_555
Fe30 Y1 3.283101 1_656
Fe31 Fe8 2.453029 1_555
Fe31 Fe9 2.456577 1_565
Fe31 Y1 3.116506 1_556
Fe31 Y2 3.125112 1_555
Fe31 Y0 3.283101 1_465
Fe32 Fe9 2.454646 1_565
Fe32 Fe7 2.454646 1_555
Fe32 Y1 3.116534 1_555
Fe32 Y2 3.127554 1_555
Fe32 Y0 3.283552 1_464
Fe33 Fe8 2.453029 1_555
Fe33 Fe7 2.456577 1_555
Fe33 Y1 3.116506 1_545
Fe33 Y2 3.125112 1_555
Fe33 Y0 3.283101 1_454
