# generated using pymatgen
data_TlZnPO4
_symmetry_space_group_name_H-M   'P 1'
_cell_length_a   5.46880089
_cell_length_b   8.71798923
_cell_length_c   8.81326175
_cell_angle_alpha   89.28406854
_cell_angle_beta   90.00000000
_cell_angle_gamma   90.00000000
_symmetry_Int_Tables_number   1
_chemical_formula_structural   TlZnPO4
_chemical_formula_sum   'Tl4 Zn4 P4 O16'
_cell_volume   420.15661337
_cell_formula_units_Z   4
loop_
 _symmetry_equiv_pos_site_id
 _symmetry_equiv_pos_as_xyz
  1  'x, y, z'
loop_
 _atom_site_type_symbol
 _atom_site_label
 _atom_site_symmetry_multiplicity
 _atom_site_fract_x
 _atom_site_fract_y
 _atom_site_fract_z
 _atom_site_occupancy
  Tl  Tl0  1  0.50840167  0.49480379  0.31613300  1
  Tl  Tl1  1  0.00840167  0.50519621  0.68386700  1
  Tl  Tl2  1  0.49152002  0.99872889  0.18956383  1
  Tl  Tl3  1  0.99152002  0.00127111  0.81043617  1
  Zn  Zn0  1  0.47568306  0.32782549  0.92628704  1
  Zn  Zn1  1  0.97568306  0.67217451  0.07371296  1
  Zn  Zn2  1  0.50422597  0.82567745  0.59567030  1
  Zn  Zn3  1  0.00422597  0.17432255  0.40432970  1
  P  P0  1  0.47807647  0.69467781  0.93078946  1
  P  P1  1  0.97807647  0.30532219  0.06921054  1
  P  P2  1  0.50348377  0.19320453  0.59909033  1
  P  P3  1  0.00348377  0.80679547  0.40090967  1
  O  O0  1  0.92559726  0.31809017  0.23970731  1
  O  O1  1  0.42559726  0.68190983  0.76029269  1
  O  O2  1  0.27276545  0.77065974  0.43875367  1
  O  O3  1  0.77276545  0.22934026  0.56124633  1
  O  O4  1  0.26914084  0.78313056  0.00932723  1
  O  O5  1  0.76914084  0.21686944  0.99067277  1
  O  O6  1  0.90990339  0.68683331  0.28786023  1
  O  O7  1  0.40990339  0.31316669  0.71213977  1
  O  O8  1  0.34839431  0.20557142  0.45369065  1
  O  O9  1  0.84839431  0.79442858  0.54630935  1
  O  O10  1  0.71908405  0.78197342  0.95855466  1
  O  O11  1  0.21908405  0.21802658  0.04144534  1
  O  O12  1  0.48275248  0.03276901  0.67242203  1
  O  O13  1  0.98275248  0.96723099  0.32757797  1
  O  O14  1  0.99897023  0.46553814  0.99600625  1
  O  O15  1  0.49897023  0.53446186  0.00399375  1
loop_
_geom_bond_atom_site_label_1
_geom_bond_atom_site_label_2
_geom_bond_distance
_geom_bond_site_symmetry_2
O0 P1 1.535201 1_555
O0 Zn3 1.953299 1_655
O0 Tl0 2.838756 1_555
O1 P0 1.535201 1_555
O1 Zn2 1.953299 1_555
O1 Tl1 2.838756 1_555
O2 P3 1.541607 1_555
O2 Zn2 1.939448 1_555
O3 P2 1.541607 1_555
O3 Zn3 1.939448 1_655
O4 P0 1.546830 1_554
O4 Zn1 1.954369 1_455
O4 Tl2 2.758570 1_555
O5 P1 1.546830 1_556
O5 Zn0 1.954369 1_555
O5 Tl3 2.758570 1_555
O6 P3 1.540906 1_655
O6 Zn1 1.927124 1_555
O6 Tl0 2.770479 1_555
O7 P2 1.540906 1_555
O7 Zn0 1.927124 1_555
O7 Tl1 2.770479 1_555
O8 P2 1.539363 1_555
O8 Zn3 1.951682 1_555
O9 P3 1.539363 1_655
O9 Zn2 1.951682 1_555
O10 P0 1.543017 1_555
O10 Zn1 1.972634 1_556
O10 Tl3 2.741647 1_565
O11 P1 1.543017 1_455
O11 Zn0 1.972634 1_554
O11 Tl2 2.741647 1_545
O12 P2 1.537611 1_555
O12 Zn2 1.939438 1_545
O13 P3 1.537611 1_655
O13 Zn3 1.939438 1_665
O14 P1 1.535487 1_556
O14 Zn1 1.939408 1_556
O14 Tl1 2.768797 1_655
O15 P0 1.535487 1_554
O15 Zn0 1.939408 1_554
O15 Tl0 2.768797 1_555
