# generated using pymatgen
data_NbCr3(AgS4)2
_symmetry_space_group_name_H-M   'P 1'
_cell_length_a   11.19079900
_cell_length_b   3.47514300
_cell_length_c   12.94933700
_cell_angle_alpha   90.00000000
_cell_angle_beta   90.00000000
_cell_angle_gamma   90.00000000
_symmetry_Int_Tables_number   1
_chemical_formula_structural   NbCr3(AgS4)2
_chemical_formula_sum   'Nb2 Cr6 Ag4 S16'
_cell_volume   503.59488336
_cell_formula_units_Z   2
loop_
 _symmetry_equiv_pos_site_id
 _symmetry_equiv_pos_as_xyz
  1  'x, y, z'
loop_
 _atom_site_type_symbol
 _atom_site_label
 _atom_site_symmetry_multiplicity
 _atom_site_fract_x
 _atom_site_fract_y
 _atom_site_fract_z
 _atom_site_occupancy
  Nb  Nb0  1  0.05443100  0.25000000  0.11927800  1
  Nb  Nb1  1  0.44556900  0.75000000  0.61927800  1
  Cr  Cr0  1  0.94101600  0.75000000  0.88222200  1
  Cr  Cr1  1  0.55898400  0.25000000  0.38222200  1
  Cr  Cr2  1  0.07401400  0.25000000  0.59565200  1
  Cr  Cr3  1  0.90855900  0.75000000  0.40795500  1
  Cr  Cr4  1  0.42598600  0.75000000  0.09565200  1
  Cr  Cr5  1  0.59144100  0.25000000  0.90795500  1
  Ag  Ag0  1  0.24145400  0.25000000  0.33777800  1
  Ag  Ag1  1  0.76630200  0.75000000  0.67726500  1
  Ag  Ag2  1  0.25854600  0.75000000  0.83777800  1
  Ag  Ag3  1  0.73369800  0.25000000  0.17726500  1
  S  S0  1  0.02611300  0.75000000  0.71070800  1
  S  S1  1  0.96839000  0.25000000  0.28776400  1
  S  S2  1  0.47388700  0.25000000  0.21070800  1
  S  S3  1  0.53161000  0.75000000  0.78776400  1
  S  S4  1  0.08449600  0.25000000  0.92527700  1
  S  S5  1  0.90488100  0.75000000  0.06467100  1
  S  S6  1  0.41550400  0.75000000  0.42527700  1
  S  S7  1  0.59511900  0.25000000  0.56467100  1
  S  S8  1  0.10993400  0.75000000  0.47058800  1
  S  S9  1  0.87912500  0.25000000  0.52734500  1
  S  S10  1  0.39006600  0.25000000  0.97058800  1
  S  S11  1  0.62087500  0.75000000  0.02734500  1
  S  S12  1  0.21083500  0.75000000  0.14842900  1
  S  S13  1  0.79689600  0.25000000  0.84506700  1
  S  S14  1  0.28916500  0.25000000  0.64842900  1
  S  S15  1  0.70310400  0.75000000  0.34506700  1
loop_
_geom_bond_atom_site_label_1
_geom_bond_atom_site_label_2
_geom_bond_distance
_geom_bond_site_symmetry_2
Nb0 S1 2.384803 1_455
Nb0 S12 2.495025 1_555
Nb0 S12 2.495025 1_545
Nb0 S5 2.513974 1_455
Nb0 S5 2.513974 1_445
Nb0 S4 2.534614 1_554
Nb1 S3 2.384803 1_555
Nb1 S14 2.495025 1_565
Nb1 S14 2.495025 1_555
Nb1 S7 2.513974 1_565
Nb1 S7 2.513974 1_555
Nb1 S6 2.534614 1_555
Cr0 S5 2.396950 1_556
Cr0 S0 2.416545 1_655
Cr0 S13 2.419055 1_555
Cr0 S13 2.419055 1_565
Cr0 S4 2.430664 1_655
Cr0 S4 2.430664 1_665
Cr1 S7 2.396950 1_555
Cr1 S2 2.416545 1_555
Cr1 S15 2.419055 1_555
Cr1 S15 2.419055 1_545
Cr1 S6 2.430664 1_545
Cr1 S6 2.430664 1_555
Cr2 S0 2.350809 1_545
Cr2 S0 2.350809 1_555
Cr2 S9 2.353507 1_455
Cr2 S8 2.409046 1_545
Cr2 S8 2.409046 1_555
Cr2 S14 2.502828 1_555
Cr3 S9 2.349007 1_555
Cr3 S9 2.349007 1_565
Cr3 S8 2.395055 1_655
Cr3 S1 2.426896 1_555
Cr3 S1 2.426896 1_565
Cr3 S15 2.439165 1_555
Cr4 S2 2.350809 1_555
Cr4 S2 2.350809 1_565
Cr4 S11 2.353507 1_555
Cr4 S10 2.409046 1_564
Cr4 S10 2.409046 1_554
Cr4 S12 2.502828 1_555
Cr5 S11 2.349007 1_556
Cr5 S11 2.349007 1_546
Cr5 S10 2.395055 1_555
Cr5 S3 2.426896 1_545
Cr5 S3 2.426896 1_555
Cr5 S13 2.439165 1_555
Ag0 S6 2.845475 1_545
Ag0 S6 2.845475 1_555
Ag0 S8 2.853613 1_555
Ag0 S8 2.853613 1_545
Ag0 S12 3.024664 1_545
Ag0 S12 3.024664 1_555
Ag0 S2 3.077882 1_555
Ag0 S1 3.123682 1_455
Ag1 S13 2.803208 1_565
Ag1 S13 2.803208 1_555
Ag1 S9 2.895196 1_555
Ag1 S9 2.895196 1_565
Ag1 S0 2.939568 1_655
Ag1 S7 2.968969 1_565
Ag1 S7 2.968969 1_555
Ag1 S3 2.990882 1_555
Ag2 S4 2.845475 1_565
Ag2 S4 2.845475 1_555
Ag2 S10 2.853613 1_565
Ag2 S10 2.853613 1_555
Ag2 S14 3.024664 1_555
Ag2 S14 3.024664 1_565
Ag2 S0 3.077882 1_555
Ag2 S3 3.123682 1_555
Ag3 S15 2.803208 1_555
Ag3 S15 2.803208 1_545
Ag3 S11 2.895196 1_545
Ag3 S11 2.895196 1_555
Ag3 S2 2.939568 1_555
Ag3 S5 2.968969 1_545
Ag3 S5 2.968969 1_555
Ag3 S1 2.990882 1_555
