# generated using pymatgen
data_SrMg14Si
_symmetry_space_group_name_H-M   'P 1'
_cell_length_a   6.45747918
_cell_length_b   6.45747864
_cell_length_c   10.37906304
_cell_angle_alpha   90.00000000
_cell_angle_beta   90.00000000
_cell_angle_gamma   120.00000277
_symmetry_Int_Tables_number   1
_chemical_formula_structural   SrMg14Si
_chemical_formula_sum   'Sr1 Mg14 Si1'
_cell_volume   374.81310069
_cell_formula_units_Z   1
loop_
 _symmetry_equiv_pos_site_id
 _symmetry_equiv_pos_as_xyz
  1  'x, y, z'
loop_
 _atom_site_type_symbol
 _atom_site_label
 _atom_site_symmetry_multiplicity
 _atom_site_fract_x
 _atom_site_fract_y
 _atom_site_fract_z
 _atom_site_occupancy
  Sr  Sr0  1  0.16666700  0.33333300  0.62500000  1
  Mg  Mg0  1  0.15621577  0.82810738  0.12500000  1
  Mg  Mg1  1  0.18059093  0.84029497  0.62500000  1
  Mg  Mg2  1  0.67189262  0.34378423  0.12500000  1
  Mg  Mg3  1  0.65970503  0.31940907  0.62500000  1
  Mg  Mg4  1  0.67189262  0.82810738  0.12500000  1
  Mg  Mg5  1  0.65970503  0.84029497  0.62500000  1
  Mg  Mg6  1  0.33170460  0.16829540  0.35559390  1
  Mg  Mg7  1  0.33170460  0.16829540  0.89440610  1
  Mg  Mg8  1  0.33170460  0.66341020  0.35559390  1
  Mg  Mg9  1  0.33170460  0.66341020  0.89440610  1
  Mg  Mg10  1  0.83658980  0.16829540  0.35559390  1
  Mg  Mg11  1  0.83658980  0.16829540  0.89440610  1
  Mg  Mg12  1  0.83333300  0.66666700  0.38455990  1
  Mg  Mg13  1  0.83333300  0.66666700  0.86544010  1
  Si  Si0  1  0.16666700  0.33333300  0.12500000  1
loop_
_geom_bond_atom_site_label_1
_geom_bond_atom_site_label_2
_geom_bond_distance
_geom_bond_site_symmetry_2
Mg0 Mg9 3.057547 1_554
Mg0 Mg8 3.057547 1_555
Mg0 Mg7 3.057554 1_564
Mg0 Mg6 3.057554 1_565
Mg0 Mg2 3.127506 1_455
Mg0 Mg4 3.127507 1_455
Mg0 Si0 3.229268 1_555
Mg0 Si0 3.229268 1_565
Mg0 Mg12 3.243150 1_455
Mg0 Mg13 3.243150 1_454
Mg0 Mg2 3.329972 1_565
Mg0 Mg4 3.329973 1_555
Mg1 Mg3 3.093869 1_565
Mg1 Mg5 3.093869 1_555
Mg1 Mg12 3.162126 1_455
Mg1 Mg13 3.162126 1_455
Mg1 Sr0 3.229678 1_565
Mg1 Sr0 3.229678 1_555
Mg1 Mg8 3.345167 1_555
Mg1 Mg9 3.345167 1_555
Mg1 Mg6 3.345173 1_565
Mg1 Mg7 3.345173 1_565
Mg1 Mg3 3.363610 1_455
Mg1 Mg5 3.363610 1_455
Mg2 Mg7 3.057554 1_554
Mg2 Mg6 3.057554 1_555
Mg2 Mg4 3.127506 1_555
Mg2 Si0 3.229269 1_655
Mg2 Si0 3.229269 1_555
Mg2 Mg4 3.329972 1_545
Mg3 Mg5 3.093869 1_545
Mg3 Sr0 3.229678 1_555
Mg3 Sr0 3.229678 1_655
Mg3 Mg6 3.345173 1_555
Mg3 Mg7 3.345173 1_555
Mg3 Mg5 3.363610 1_555
Mg4 Mg8 3.057554 1_555
Mg4 Mg9 3.057554 1_554
Mg4 Si0 3.229268 1_665
Mg4 Si0 3.229268 1_555
Mg5 Sr0 3.229678 1_555
Mg5 Sr0 3.229678 1_665
Mg5 Mg8 3.345173 1_555
Mg5 Mg9 3.345173 1_555
Mg6 Si0 3.022489 1_555
Mg6 Mg8 3.197193 1_555
Mg6 Mg8 3.260285 1_545
Mg6 Sr0 3.350516 1_555
Mg7 Si0 3.022489 1_556
Mg7 Mg9 3.197193 1_555
Mg7 Mg9 3.260285 1_545
Mg7 Sr0 3.350516 1_555
Mg8 Si0 3.022496 1_555
Mg8 Sr0 3.350522 1_555
Mg9 Si0 3.022496 1_556
Mg9 Sr0 3.350522 1_555
Mg10 Si0 3.022496 1_655
Mg10 Mg2 3.057547 1_555
Mg10 Mg4 3.057554 1_545
Mg10 Mg8 3.197193 1_655
Mg10 Mg6 3.197194 1_655
Mg10 Mg12 3.242757 1_545
Mg10 Mg12 3.242757 1_555
Mg10 Mg8 3.260285 1_545
Mg10 Mg6 3.260286 1_555
Mg10 Mg3 3.345167 1_555
Mg10 Mg5 3.345173 1_545
Mg10 Sr0 3.350523 1_655
Mg11 Si0 3.022496 1_656
Mg11 Mg2 3.057547 1_556
Mg11 Mg4 3.057554 1_546
Mg11 Mg9 3.197193 1_655
Mg11 Mg7 3.197194 1_655
Mg11 Mg13 3.242757 1_545
Mg11 Mg13 3.242757 1_555
Mg11 Mg9 3.260285 1_545
Mg11 Mg7 3.260286 1_555
Mg11 Mg3 3.345167 1_555
Mg11 Mg5 3.345173 1_545
Mg11 Sr0 3.350523 1_655
Mg12 Mg5 3.162119 1_555
Mg12 Mg3 3.162126 1_555
Mg12 Mg6 3.242757 1_665
Mg12 Mg6 3.242757 1_555
Mg12 Mg8 3.242757 1_555
Mg12 Mg8 3.242757 1_655
Mg12 Mg4 3.243144 1_555
Mg12 Mg2 3.243150 1_555
Mg13 Mg5 3.162119 1_555
Mg13 Mg3 3.162126 1_555
Mg13 Mg7 3.242757 1_665
Mg13 Mg7 3.242757 1_555
Mg13 Mg9 3.242757 1_555
Mg13 Mg9 3.242757 1_655
Mg13 Mg4 3.243144 1_556
Mg13 Mg2 3.243150 1_556
