# generated using pymatgen
data_MoW3(Se3S)2
_symmetry_space_group_name_H-M   'P 1'
_cell_length_a   3.28650541
_cell_length_b   3.28650541
_cell_length_c   37.40032300
_cell_angle_alpha   90.00000000
_cell_angle_beta   90.00000000
_cell_angle_gamma   119.99998805
_symmetry_Int_Tables_number   1
_chemical_formula_structural   MoW3(Se3S)2
_chemical_formula_sum   'Mo1 W3 Se6 S2'
_cell_volume   349.84424892
_cell_formula_units_Z   1
loop_
 _symmetry_equiv_pos_site_id
 _symmetry_equiv_pos_as_xyz
  1  'x, y, z'
loop_
 _atom_site_type_symbol
 _atom_site_label
 _atom_site_symmetry_multiplicity
 _atom_site_fract_x
 _atom_site_fract_y
 _atom_site_fract_z
 _atom_site_occupancy
  Mo  Mo0  1  0.00000000  0.00000000  0.46965700  1
  W  W0  1  0.00000000  0.00000000  0.09391800  1
  W  W1  1  0.33333300  0.66666700  0.28179200  1
  W  W2  1  0.33333300  0.66666700  0.65754500  1
  Se  Se0  1  0.00000000  0.00000000  0.32714900  1
  Se  Se1  1  0.00000000  0.00000000  0.70290700  1
  Se  Se2  1  0.33333300  0.66666700  0.42458800  1
  Se  Se3  1  0.33333300  0.66666700  0.51474500  1
  Se  Se4  1  0.00000000  0.00000000  0.23643900  1
  Se  Se5  1  0.00000000  0.00000000  0.61216500  1
  S  S0  1  0.33333300  0.66666700  0.05273700  1
  S  S1  1  0.33333300  0.66666700  0.13510500  1
loop_
_geom_bond_atom_site_label_1
_geom_bond_atom_site_label_2
_geom_bond_distance
_geom_bond_site_symmetry_2
Mo0 Se2 2.538030 1_545
Mo0 Se2 2.538032 1_445
Mo0 Se2 2.538032 1_555
Mo0 Se3 2.538502 1_545
Mo0 Se3 2.538504 1_445
Mo0 Se3 2.538504 1_555
Se0 W1 2.545196 1_545
Se0 W1 2.545199 1_555
Se0 W1 2.545199 1_445
Se1 W2 2.545321 1_545
Se1 W2 2.545323 1_445
Se1 W2 2.545323 1_555
Se4 W1 2.545097 1_545
Se4 W1 2.545099 1_555
Se4 W1 2.545099 1_445
Se5 W2 2.545770 1_545
Se5 W2 2.545772 1_555
Se5 W2 2.545772 1_445
S0 W0 2.443876 1_565
S0 W0 2.443878 1_555
S0 W0 2.443878 1_665
S1 W0 2.444017 1_565
S1 W0 2.444019 1_555
S1 W0 2.444019 1_665
