# generated using pymatgen
data_MgTa2CoO7
_symmetry_space_group_name_H-M   'P 1'
_cell_length_a   14.77286800
_cell_length_b   6.89702100
_cell_length_c   12.24646025
_cell_angle_alpha   78.88910363
_cell_angle_beta   90.00000000
_cell_angle_gamma   90.00000000
_symmetry_Int_Tables_number   1
_chemical_formula_structural   MgTa2CoO7
_chemical_formula_sum   'Mg8 Ta16 Co8 O56'
_cell_volume   1224.38861486
_cell_formula_units_Z   8
loop_
 _symmetry_equiv_pos_site_id
 _symmetry_equiv_pos_as_xyz
  1  'x, y, z'
loop_
 _atom_site_type_symbol
 _atom_site_label
 _atom_site_symmetry_multiplicity
 _atom_site_fract_x
 _atom_site_fract_y
 _atom_site_fract_z
 _atom_site_occupancy
  Mg  Mg0  1  0.51398300  0.51791300  0.76636800  1
  Mg  Mg1  1  0.87751800  0.77570600  0.59295800  1
  Mg  Mg2  1  0.37751800  0.22429400  0.90704200  1
  Mg  Mg3  1  0.12248200  0.22429400  0.40704200  1
  Mg  Mg4  1  0.62248200  0.77570600  0.09295800  1
  Mg  Mg5  1  0.98601700  0.51791300  0.26636800  1
  Mg  Mg6  1  0.48601700  0.48208700  0.23363200  1
  Mg  Mg7  1  0.01398300  0.48208700  0.73363200  1
  Ta  Ta0  1  0.90670300  0.30197800  0.52502500  1
  Ta  Ta1  1  0.02105700  0.93771400  0.81911400  1
  Ta  Ta2  1  0.47894300  0.93771400  0.31911400  1
  Ta  Ta3  1  0.97894300  0.06228600  0.18088600  1
  Ta  Ta4  1  0.72902300  0.01034400  0.69993000  1
  Ta  Ta5  1  0.22902300  0.98965600  0.80007000  1
  Ta  Ta6  1  0.27097700  0.98965600  0.30007000  1
  Ta  Ta7  1  0.77097700  0.01034400  0.19993000  1
  Ta  Ta8  1  0.52105700  0.06228600  0.68088600  1
  Ta  Ta9  1  0.15030200  0.36798900  0.99339100  1
  Ta  Ta10  1  0.65030200  0.63201100  0.50660900  1
  Ta  Ta11  1  0.84969800  0.63201100  0.00660900  1
  Ta  Ta12  1  0.40670300  0.69802200  0.97497500  1
  Ta  Ta13  1  0.59329700  0.30197800  0.02502500  1
  Ta  Ta14  1  0.09329700  0.69802200  0.47497500  1
  Ta  Ta15  1  0.34969800  0.36798900  0.49339100  1
  Co  Co0  1  0.63991100  0.17560500  0.41310200  1
  Co  Co1  1  0.13991100  0.82439500  0.08689800  1
  Co  Co2  1  0.36008900  0.82439500  0.58689800  1
  Co  Co3  1  0.86008900  0.17560500  0.91310200  1
  Co  Co4  1  0.77378900  0.47737300  0.28143000  1
  Co  Co5  1  0.27378900  0.52262700  0.21857000  1
  Co  Co6  1  0.22621100  0.52262700  0.71857000  1
  Co  Co7  1  0.72621100  0.47737300  0.78143000  1
  O  O0  1  0.01943100  0.20406600  0.51978300  1
  O  O1  1  0.51943100  0.79593400  0.98021700  1
  O  O2  1  0.98056900  0.79593400  0.48021700  1
  O  O3  1  0.48056900  0.20406600  0.01978300  1
  O  O4  1  0.90665700  0.47432500  0.62618400  1
  O  O5  1  0.40665700  0.52567500  0.87381600  1
  O  O6  1  0.09334300  0.52567500  0.37381600  1
  O  O7  1  0.59334300  0.47432500  0.12618400  1
  O  O8  1  0.88220500  0.44529700  0.38096500  1
  O  O9  1  0.38220500  0.55470300  0.11903500  1
  O  O10  1  0.11779500  0.55470300  0.61903500  1
  O  O11  1  0.61779500  0.44529700  0.88096500  1
  O  O12  1  0.24391700  0.23758200  0.49075100  1
  O  O13  1  0.74391700  0.76241800  0.00924900  1
  O  O14  1  0.75608300  0.76241800  0.50924900  1
  O  O15  1  0.25608300  0.23758200  0.99075100  1
  O  O16  1  0.37753600  0.49425100  0.34683100  1
  O  O17  1  0.87753600  0.50574900  0.15316900  1
  O  O18  1  0.62246400  0.50574900  0.65316900  1
  O  O19  1  0.12246400  0.49425100  0.84683100  1
  O  O20  1  0.32473600  0.55201300  0.58512000  1
  O  O21  1  0.46796700  0.81144900  0.68771700  1
  O  O22  1  0.82473600  0.44798700  0.91488000  1
  O  O23  1  0.17526400  0.55201300  0.08512000  1
  O  O24  1  0.47062300  0.22522200  0.77068500  1
  O  O25  1  0.97062300  0.77477800  0.72931500  1
  O  O26  1  0.52937700  0.77477800  0.22931500  1
  O  O27  1  0.02937700  0.22522200  0.27068500  1
  O  O28  1  0.44810800  0.19866700  0.54929600  1
  O  O29  1  0.94810800  0.80133300  0.95070400  1
  O  O30  1  0.55189200  0.80133300  0.45070400  1
  O  O31  1  0.05189200  0.19866700  0.04929600  1
  O  O32  1  0.88201100  0.96413700  0.28345600  1
  O  O33  1  0.38201100  0.03586300  0.21654400  1
  O  O34  1  0.11798900  0.03586300  0.71654400  1
  O  O35  1  0.61798900  0.96413700  0.78345600  1
  O  O36  1  0.72828800  0.18865300  0.28716400  1
  O  O37  1  0.22828800  0.81134700  0.21283600  1
  O  O38  1  0.27171200  0.81134700  0.71283600  1
  O  O39  1  0.77171200  0.18865300  0.78716400  1
  O  O40  1  0.67208700  0.08377800  0.08061400  1
  O  O41  1  0.17208700  0.91622200  0.41938600  1
  O  O42  1  0.32791300  0.91622200  0.91938600  1
  O  O43  1  0.82791300  0.08377800  0.58061400  1
  O  O44  1  0.72424600  0.75700100  0.23610800  1
  O  O45  1  0.22424600  0.24299900  0.26389200  1
  O  O46  1  0.27575400  0.24299900  0.76389200  1
  O  O47  1  0.77575400  0.75700100  0.73610800  1
  O  O48  1  0.86675900  0.09298700  0.07940300  1
  O  O49  1  0.36675900  0.90701300  0.42059700  1
  O  O50  1  0.13324100  0.90701300  0.92059700  1
  O  O51  1  0.63324100  0.09298700  0.57940300  1
  O  O52  1  0.03203300  0.81144900  0.18771700  1
  O  O53  1  0.53203300  0.18855100  0.31228300  1
  O  O54  1  0.96796700  0.18855100  0.81228300  1
  O  O55  1  0.67526400  0.44798700  0.41488000  1
loop_
_geom_bond_atom_site_label_1
_geom_bond_atom_site_label_2
_geom_bond_distance
_geom_bond_site_symmetry_2
Mg0 O5 2.067692 1_555
Mg0 O11 2.073986 1_555
Mg0 O24 2.108815 1_555
Mg0 O18 2.131174 1_555
Mg0 O21 2.176462 1_555
Mg1 O2 2.041831 1_555
Mg1 O14 2.076957 1_555
Mg1 O4 2.084608 1_555
Mg1 O25 2.162466 1_555
Mg1 O43 2.225028 1_565
Mg1 O47 2.294083 1_555
Mg2 O3 2.041831 1_556
Mg2 O15 2.076957 1_555
Mg2 O5 2.084608 1_555
Mg2 O24 2.162466 1_555
Mg2 O42 2.225028 1_545
Mg2 O46 2.294083 1_555
Mg3 O0 2.041831 1_555
Mg3 O12 2.076957 1_555
Mg3 O6 2.084608 1_555
Mg3 O27 2.162466 1_555
Mg3 O41 2.225028 1_545
Mg3 O45 2.294083 1_555
Mg4 O1 2.041831 1_554
Mg4 O13 2.076957 1_555
Mg4 O7 2.084608 1_555
Mg4 O26 2.162466 1_555
Mg4 O40 2.225028 1_565
Mg4 O44 2.294083 1_555
Mg5 O6 2.067692 1_655
Mg5 O8 2.073986 1_555
Mg5 O27 2.108815 1_655
Mg5 O17 2.131174 1_555
Mg5 O52 2.176462 1_655
Mg6 O7 2.067692 1_555
Mg6 O9 2.073986 1_555
Mg6 O26 2.108815 1_555
Mg6 O16 2.131174 1_555
Mg6 O53 2.176462 1_555
Mg7 O4 2.067692 1_455
Mg7 O10 2.073986 1_555
Mg7 O25 2.108815 1_455
Mg7 O19 2.131174 1_555
Mg7 O54 2.176462 1_455
Co0 O55 1.954029 1_555
Co0 O53 2.007407 1_555
Co0 O51 2.008697 1_555
Co0 O36 2.009433 1_555
Co1 O23 1.954029 1_555
Co1 O52 2.007407 1_555
Co1 O50 2.008697 1_554
Co1 O37 2.009433 1_555
Co2 O20 1.954029 1_555
Co2 O21 2.007407 1_555
Co2 O49 2.008697 1_555
Co2 O38 2.009433 1_555
Co3 O22 1.954029 1_555
Co3 O54 2.007407 1_555
Co3 O48 2.008697 1_556
Co3 O39 2.009433 1_555
Co4 O8 1.999005 1_555
Co4 O44 2.037317 1_555
Co4 O36 2.090017 1_555
Co4 O55 2.168592 1_555
Co4 O17 2.176245 1_555
Co5 O9 1.999005 1_555
Co5 O45 2.037317 1_555
Co5 O37 2.090017 1_555
Co5 O23 2.168592 1_555
Co5 O16 2.176245 1_555
Co6 O10 1.999005 1_555
Co6 O46 2.037317 1_555
Co6 O38 2.090017 1_555
Co6 O20 2.168592 1_555
Co6 O19 2.176245 1_555
Co7 O11 1.999005 1_555
Co7 O47 2.037317 1_555
Co7 O39 2.090017 1_555
Co7 O22 2.168592 1_555
Co7 O18 2.176245 1_555
O0 Ta0 1.802814 1_455
O1 Ta12 1.802814 1_555
O2 Ta14 1.802814 1_655
O3 Ta13 1.802814 1_555
O4 Ta0 1.874899 1_555
O5 Ta12 1.874899 1_555
O6 Ta14 1.874899 1_555
O7 Ta13 1.874899 1_555
O8 Ta0 1.883725 1_555
O9 Ta12 1.883725 1_554
O10 Ta14 1.883725 1_555
O11 Ta13 1.883725 1_556
O12 Ta15 1.806434 1_555
O13 Ta11 1.806434 1_555
O14 Ta10 1.806434 1_555
O15 Ta9 1.806434 1_555
O16 Ta15 1.883220 1_555
O17 Ta11 1.883220 1_555
O18 Ta10 1.883220 1_555
O19 Ta9 1.883220 1_555
O20 Ta15 1.886358 1_555
O21 Ta8 1.886618 1_565
O22 Ta11 1.886358 1_556
O23 Ta9 1.886358 1_554
O24 Ta8 1.871809 1_555
O25 Ta1 1.871809 1_655
O26 Ta2 1.871809 1_555
O27 Ta3 1.871809 1_455
O28 Ta15 1.907329 1_555
O28 Ta8 2.014666 1_555
O29 Ta11 1.907329 1_556
O29 Ta1 2.014666 1_655
O30 Ta10 1.907329 1_555
O30 Ta2 2.014666 1_555
O31 Ta9 1.907329 1_554
O31 Ta3 2.014666 1_455
O32 Ta7 1.926862 1_565
O32 Ta3 1.938781 1_565
O33 Ta6 1.926862 1_545
O33 Ta2 1.938781 1_545
O34 Ta5 1.926862 1_545
O34 Ta1 1.938781 1_545
O35 Ta4 1.926862 1_565
O35 Ta8 1.938781 1_565
O36 Ta7 1.886203 1_555
O37 Ta6 1.886203 1_555
O38 Ta5 1.886203 1_555
O39 Ta4 1.886203 1_555
O40 Ta13 1.920465 1_555
O40 Ta7 2.059268 1_555
O41 Ta14 1.920465 1_555
O41 Ta6 2.059268 1_555
O42 Ta12 1.920465 1_555
O42 Ta5 2.059268 1_555
O43 Ta0 1.920465 1_555
O43 Ta4 2.059268 1_555
O44 Ta7 1.851380 1_565
O45 Ta6 1.851380 1_545
O46 Ta5 1.851380 1_545
O47 Ta4 1.851380 1_565
O48 Ta7 2.044858 1_555
O48 Ta3 2.057804 1_555
O49 Ta6 2.044858 1_555
O49 Ta2 2.057804 1_555
O50 Ta5 2.044858 1_555
O50 Ta1 2.057804 1_555
O51 Ta4 2.044858 1_555
O51 Ta8 2.057804 1_555
O52 Ta3 1.886618 1_465
O53 Ta2 1.886618 1_545
O54 Ta1 1.886618 1_645
O55 Ta10 1.886358 1_555
