# generated using pymatgen
data_SiAg3
_symmetry_space_group_name_H-M   'P 1'
_cell_length_a   5.92340594
_cell_length_b   5.92340594
_cell_length_c   4.56908000
_cell_angle_alpha   90.00000000
_cell_angle_beta   90.00000000
_cell_angle_gamma   119.99999929
_symmetry_Int_Tables_number   1
_chemical_formula_structural   SiAg3
_chemical_formula_sum   'Si2 Ag6'
_cell_volume   138.83609488
_cell_formula_units_Z   2
loop_
 _symmetry_equiv_pos_site_id
 _symmetry_equiv_pos_as_xyz
  1  'x, y, z'
loop_
 _atom_site_type_symbol
 _atom_site_label
 _atom_site_symmetry_multiplicity
 _atom_site_fract_x
 _atom_site_fract_y
 _atom_site_fract_z
 _atom_site_occupancy
  Si  Si0  1  0.33333300  0.66666700  0.75000000  1
  Si  Si1  1  0.66666700  0.33333300  0.25000000  1
  Ag  Ag0  1  0.17080100  0.34160200  0.25000000  1
  Ag  Ag1  1  0.65839800  0.82919900  0.25000000  1
  Ag  Ag2  1  0.17080100  0.82919900  0.25000000  1
  Ag  Ag3  1  0.82919900  0.65839800  0.75000000  1
  Ag  Ag4  1  0.34160200  0.17080100  0.75000000  1
  Ag  Ag5  1  0.82919900  0.17080100  0.75000000  1
loop_
_geom_bond_atom_site_label_1
_geom_bond_atom_site_label_2
_geom_bond_distance
_geom_bond_site_symmetry_2
Ag0 Si0 2.828385 1_555
Ag0 Si0 2.828385 1_554
Ag0 Ag4 2.879215 1_554
Ag0 Ag4 2.879215 1_555
Ag0 Ag5 2.879215 1_454
Ag0 Ag5 2.879215 1_455
Ag0 Ag2 2.888235 1_555
Ag0 Ag1 2.888235 1_555
Ag0 Si1 2.962004 1_455
Ag0 Si1 2.962010 1_555
Ag0 Ag2 3.035171 1_545
Ag0 Ag1 3.035171 1_445
Ag1 Si0 2.828385 1_554
Ag1 Si0 2.828385 1_555
Ag1 Ag3 2.879215 1_555
Ag1 Ag3 2.879215 1_554
Ag1 Ag5 2.879215 1_565
Ag1 Ag5 2.879215 1_564
Ag1 Ag2 2.888235 1_555
Ag1 Si1 2.962004 1_565
Ag1 Si1 2.962010 1_555
Ag1 Ag2 3.035171 1_655
Ag2 Si0 2.828382 1_554
Ag2 Si0 2.828382 1_555
Ag2 Ag3 2.879215 1_455
Ag2 Ag3 2.879215 1_454
Ag2 Ag4 2.879215 1_564
Ag2 Ag4 2.879215 1_565
Ag2 Si1 2.962007 1_455
Ag2 Si1 2.962007 1_565
Ag3 Si1 2.828385 1_556
Ag3 Si1 2.828385 1_555
Ag3 Ag5 2.888235 1_555
Ag3 Ag4 2.888235 1_555
Ag3 Si0 2.962004 1_655
Ag3 Si0 2.962010 1_555
Ag3 Ag5 3.035171 1_565
Ag3 Ag4 3.035171 1_665
Ag4 Si1 2.828385 1_556
Ag4 Si1 2.828385 1_555
Ag4 Ag5 2.888235 1_555
Ag4 Si0 2.962004 1_545
Ag4 Si0 2.962010 1_555
Ag4 Ag5 3.035171 1_455
Ag5 Si1 2.828382 1_556
Ag5 Si1 2.828382 1_555
Ag5 Si0 2.962007 1_545
Ag5 Si0 2.962007 1_655
