# generated using pymatgen
data_MgSi
_symmetry_space_group_name_H-M   'P 1'
_cell_length_a   6.42320762
_cell_length_b   6.42320762
_cell_length_c   9.00579071
_cell_angle_alpha   76.36537653
_cell_angle_beta   76.36537653
_cell_angle_gamma   38.97551544
_symmetry_Int_Tables_number   1
_chemical_formula_structural   MgSi
_chemical_formula_sum   'Mg6 Si6'
_cell_volume   226.28076310
_cell_formula_units_Z   6
loop_
 _symmetry_equiv_pos_site_id
 _symmetry_equiv_pos_as_xyz
  1  'x, y, z'
loop_
 _atom_site_type_symbol
 _atom_site_label
 _atom_site_symmetry_multiplicity
 _atom_site_fract_x
 _atom_site_fract_y
 _atom_site_fract_z
 _atom_site_occupancy
  Mg  Mg0  1  0.35613200  0.35613200  0.50802700  1
  Mg  Mg1  1  0.25180700  0.25180700  0.16606500  1
  Mg  Mg2  1  0.46989100  0.46989100  0.83192500  1
  Mg  Mg3  1  0.74819300  0.74819300  0.83393500  1
  Mg  Mg4  1  0.53010900  0.53010900  0.16807500  1
  Mg  Mg5  1  0.64386800  0.64386800  0.49197300  1
  Si  Si0  1  0.95868100  0.95868100  0.63527900  1
  Si  Si1  1  0.89461800  0.89461800  0.02755700  1
  Si  Si2  1  0.04131900  0.04131900  0.36472100  1
  Si  Si3  1  0.85610100  0.85610100  0.30168200  1
  Si  Si4  1  0.14389900  0.14389900  0.69831800  1
  Si  Si5  1  0.10538200  0.10538200  0.97244300  1
loop_
_geom_bond_atom_site_label_1
_geom_bond_atom_site_label_2
_geom_bond_distance
_geom_bond_site_symmetry_2
Mg0 Si4 2.709275 1_555
Mg0 Si3 2.836422 1_455
Mg0 Si3 2.836422 1_545
Mg0 Si0 2.856419 1_455
Mg0 Si0 2.856419 1_545
Mg0 Si2 3.136794 1_655
Mg0 Si2 3.136794 1_565
Mg1 Si2 2.723589 1_555
Mg1 Si5 2.780549 1_554
Mg1 Si1 2.838997 1_545
Mg1 Si1 2.838997 1_455
Mg1 Si3 2.906906 1_455
Mg1 Si3 2.906906 1_545
Mg2 Si1 2.779114 1_546
Mg2 Si1 2.779114 1_456
Mg2 Si0 2.804747 1_455
Mg2 Si0 2.804747 1_545
Mg2 Si4 3.035155 1_565
Mg2 Si4 3.035155 1_655
Mg2 Si5 3.150235 1_565
Mg2 Si5 3.150235 1_655
Mg3 Si0 2.723589 1_555
Mg3 Si1 2.780549 1_556
Mg3 Si5 2.838997 1_565
Mg3 Si5 2.838997 1_655
Mg3 Si4 2.906906 1_565
Mg3 Si4 2.906906 1_655
Mg4 Si5 2.779114 1_654
Mg4 Si5 2.779114 1_564
Mg4 Si2 2.804747 1_565
Mg4 Si2 2.804747 1_655
Mg4 Si3 3.035155 1_545
Mg4 Si3 3.035155 1_455
Mg4 Si1 3.150235 1_545
Mg4 Si1 3.150235 1_455
Mg5 Si3 2.709275 1_555
Mg5 Si4 2.836422 1_565
Mg5 Si4 2.836422 1_655
Mg5 Si2 2.856419 1_655
Mg5 Si2 2.856419 1_565
Mg5 Si0 3.136794 1_545
Mg5 Si0 3.136794 1_455
Si0 Si2 2.391447 1_665
Si0 Si4 2.447562 1_665
Si1 Si3 2.395041 1_555
Si1 Si5 2.475437 1_664
Si2 Si3 2.447562 1_445
Si4 Si5 2.395041 1_555
