# generated using pymatgen
data_SiSe2
_symmetry_space_group_name_H-M   'P 1'
_cell_length_a   6.50278059
_cell_length_b   17.33355763
_cell_length_c   6.25396543
_cell_angle_alpha   90.00000000
_cell_angle_beta   101.40616526
_cell_angle_gamma   90.00000000
_symmetry_Int_Tables_number   1
_chemical_formula_structural   SiSe2
_chemical_formula_sum   'Si8 Se16'
_cell_volume   691.00166229
_cell_formula_units_Z   8
loop_
 _symmetry_equiv_pos_site_id
 _symmetry_equiv_pos_as_xyz
  1  'x, y, z'
loop_
 _atom_site_type_symbol
 _atom_site_label
 _atom_site_symmetry_multiplicity
 _atom_site_fract_x
 _atom_site_fract_y
 _atom_site_fract_z
 _atom_site_occupancy
  Si  Si0  1  0.11865794  0.06454223  0.12076090  1
  Si  Si1  1  0.88134206  0.56454223  0.37923910  1
  Si  Si2  1  0.88134206  0.93545777  0.87923910  1
  Si  Si3  1  0.11865794  0.43545777  0.62076090  1
  Si  Si4  1  0.35109133  0.19541899  0.35169000  1
  Si  Si5  1  0.64890867  0.69541899  0.14831000  1
  Si  Si6  1  0.64890867  0.80458101  0.64831000  1
  Si  Si7  1  0.35109133  0.30458101  0.85169000  1
  Se  Se0  1  0.99862430  0.17874045  0.23341202  1
  Se  Se1  1  0.00137570  0.67874045  0.26658798  1
  Se  Se2  1  0.00137570  0.82125955  0.76658798  1
  Se  Se3  1  0.99862430  0.32125955  0.73341202  1
  Se  Se4  1  0.47566319  0.30554803  0.22185840  1
  Se  Se5  1  0.52433681  0.80554803  0.27814160  1
  Se  Se6  1  0.52433681  0.69445197  0.77814160  1
  Se  Se7  1  0.47566319  0.19445197  0.72185840  1
  Se  Se8  1  0.47133100  0.08066145  0.24424678  1
  Se  Se9  1  0.52866900  0.58066145  0.25575322  1
  Se  Se10  1  0.52866900  0.91933855  0.75575322  1
  Se  Se11  1  0.47133100  0.41933855  0.74424678  1
  Se  Se12  1  0.00902098  0.45411290  0.25432733  1
  Se  Se13  1  0.99097902  0.95411290  0.24567267  1
  Se  Se14  1  0.99097902  0.54588710  0.74567267  1
  Se  Se15  1  0.00902098  0.04588710  0.75432733  1
loop_
_geom_bond_atom_site_label_1
_geom_bond_atom_site_label_2
_geom_bond_distance
_geom_bond_site_symmetry_2
Se0 Si4 2.283309 1_655
Se0 Si0 2.289405 1_655
Se1 Si5 2.283309 1_455
Se1 Si1 2.289405 1_455
Se2 Si6 2.283309 1_455
Se2 Si2 2.289405 1_455
Se3 Si7 2.283309 1_655
Se3 Si3 2.289405 1_655
Se4 Si4 2.284654 1_555
Se4 Si7 2.296534 1_554
Se5 Si5 2.284654 1_555
Se5 Si6 2.296534 1_555
Se6 Si6 2.284654 1_555
Se6 Si5 2.296534 1_556
Se7 Si7 2.284654 1_555
Se7 Si4 2.296534 1_555
Se8 Si4 2.286354 1_555
Se8 Si0 2.287671 1_555
Se9 Si5 2.286354 1_555
Se9 Si1 2.287671 1_555
Se10 Si6 2.286354 1_555
Se10 Si2 2.287671 1_555
Se11 Si7 2.286354 1_555
Se11 Si3 2.287671 1_555
Se12 Si3 2.284371 1_555
Se12 Si1 2.284743 1_455
Se13 Si2 2.284371 1_554
Se13 Si0 2.284743 1_665
Se14 Si1 2.284371 1_555
Se14 Si3 2.284743 1_655
Se15 Si0 2.284371 1_556
Se15 Si2 2.284743 1_445
