# generated using pymatgen
data_PrSi2Ir3
_symmetry_space_group_name_H-M   'P 1'
_cell_length_a   6.69626296
_cell_length_b   6.69626296
_cell_length_c   6.69626296
_cell_angle_alpha   130.29586865
_cell_angle_beta   114.95155959
_cell_angle_gamma   86.06718616
_symmetry_Int_Tables_number   1
_chemical_formula_structural   PrSi2Ir3
_chemical_formula_sum   'Pr2 Si4 Ir6'
_cell_volume   198.37519671
_cell_formula_units_Z   2
loop_
 _symmetry_equiv_pos_site_id
 _symmetry_equiv_pos_as_xyz
  1  'x, y, z'
loop_
 _atom_site_type_symbol
 _atom_site_label
 _atom_site_symmetry_multiplicity
 _atom_site_fract_x
 _atom_site_fract_y
 _atom_site_fract_z
 _atom_site_occupancy
  Pr  Pr0  1  0.25000000  0.97156767  0.72156767  1
  Pr  Pr1  1  0.75000000  0.02843233  0.27843233  1
  Si  Si0  1  0.07903335  0.28139253  0.20235917  1
  Si  Si1  1  0.92096665  0.71860747  0.79764083  1
  Si  Si2  1  0.42096665  0.62332682  0.20235917  1
  Si  Si3  1  0.57903335  0.37667318  0.79764083  1
  Ir  Ir0  1  0.50000000  0.50000000  0.50000000  1
  Ir  Ir1  1  -0.00000000  0.50000000  0.00000000  1
  Ir  Ir2  1  0.27978549  -0.00000000  0.27978549  1
  Ir  Ir3  1  0.72021451  0.00000000  0.72021451  1
  Ir  Ir4  1  0.22021451  0.50000000  0.72021451  1
  Ir  Ir5  1  0.77978549  0.50000000  0.27978549  1
loop_
_geom_bond_atom_site_label_1
_geom_bond_atom_site_label_2
_geom_bond_distance
_geom_bond_site_symmetry_2
Pr0 Si0 3.181892 1_566
Pr0 Si2 3.181897 1_566
Pr0 Si3 3.249342 1_565
Pr0 Si1 3.249347 1_455
Pr0 Si0 3.367717 1_555
Pr0 Si2 3.367717 1_555
Pr0 Pr1 3.614486 1_566
Pr0 Pr1 3.614486 1_465
Pr1 Si1 3.181892 1_544
Pr1 Si3 3.181897 1_544
Pr1 Si2 3.249342 1_545
Pr1 Si0 3.249347 1_655
Pr1 Si1 3.367717 1_555
Pr1 Si3 3.367717 1_555
Ir0 Si0 2.472552 1_555
Ir0 Si1 2.472552 1_555
Ir0 Si2 2.472558 1_555
Ir0 Si3 2.472558 1_555
Ir0 Pr1 3.207111 1_555
Ir0 Pr0 3.207111 1_555
Ir0 Pr1 3.476648 1_566
Ir0 Pr0 3.476648 1_544
Ir1 Si1 2.472552 1_454
Ir1 Si0 2.472552 1_555
Ir1 Si2 2.472552 1_555
Ir1 Si3 2.472552 1_454
Ir1 Pr0 3.207111 1_555
Ir1 Pr1 3.207111 1_454
Ir1 Pr0 3.476648 1_544
Ir1 Pr1 3.476648 1_465
Ir2 Si2 2.433004 1_545
Ir2 Si3 2.433009 1_555
Ir2 Si1 2.440198 1_444
Ir2 Si0 2.440198 1_555
Ir2 Pr1 3.171601 1_555
Ir2 Pr0 3.171601 1_545
Ir2 Pr0 3.536119 1_544
Ir2 Pr1 3.536119 1_455
Ir3 Si3 2.433004 1_555
Ir3 Si2 2.433009 1_545
Ir3 Si0 2.440198 1_656
Ir3 Si1 2.440198 1_545
Ir3 Pr1 3.171601 1_555
Ir3 Pr0 3.171601 1_545
Ir3 Pr0 3.536119 1_645
Ir3 Pr1 3.536119 1_556
Ir4 Si1 2.433010 1_455
Ir4 Si0 2.433010 1_555
Ir4 Si2 2.440195 1_556
Ir4 Si3 2.440201 1_555
Ir4 Pr1 3.171601 1_455
Ir4 Pr0 3.171601 1_555
Ir4 Pr0 3.536119 1_545
Ir4 Pr1 3.536119 1_566
Ir5 Si0 2.433010 1_655
Ir5 Si1 2.433010 1_555
Ir5 Si3 2.440195 1_554
Ir5 Si2 2.440201 1_555
Ir5 Pr1 3.171601 1_555
Ir5 Pr0 3.171601 1_655
Ir5 Pr1 3.536119 1_565
Ir5 Pr0 3.536119 1_544
