# generated using pymatgen
data_CoNi5N4
_symmetry_space_group_name_H-M   'P 1'
_cell_length_a   8.95476800
_cell_length_b   5.75865000
_cell_length_c   3.96960300
_cell_angle_alpha   90.00000000
_cell_angle_beta   90.00000000
_cell_angle_gamma   90.00000000
_symmetry_Int_Tables_number   1
_chemical_formula_structural   CoNi5N4
_chemical_formula_sum   'Co2 Ni10 N8'
_cell_volume   204.70200548
_cell_formula_units_Z   2
loop_
 _symmetry_equiv_pos_site_id
 _symmetry_equiv_pos_as_xyz
  1  'x, y, z'
loop_
 _atom_site_type_symbol
 _atom_site_label
 _atom_site_symmetry_multiplicity
 _atom_site_fract_x
 _atom_site_fract_y
 _atom_site_fract_z
 _atom_site_occupancy
  Co  Co0  1  0.75000000  0.25000000  0.71209600  1
  Co  Co1  1  0.25000000  0.75000000  0.28790400  1
  Ni  Ni0  1  0.59509600  0.53410200  0.30197900  1
  Ni  Ni1  1  0.90490400  0.53410200  0.30197900  1
  Ni  Ni2  1  0.59509600  0.96589800  0.30197900  1
  Ni  Ni3  1  0.90490400  0.96589800  0.30197900  1
  Ni  Ni4  1  0.40490400  0.46589800  0.69802100  1
  Ni  Ni5  1  0.09509600  0.46589800  0.69802100  1
  Ni  Ni6  1  0.40490400  0.03410200  0.69802100  1
  Ni  Ni7  1  0.09509600  0.03410200  0.69802100  1
  Ni  Ni8  1  0.75000000  0.75000000  0.81362400  1
  Ni  Ni9  1  0.25000000  0.25000000  0.18637600  1
  N  N0  1  0.75000000  0.02532800  0.02245300  1
  N  N1  1  0.75000000  0.47467200  0.02245300  1
  N  N2  1  0.25000000  0.97467200  0.97754700  1
  N  N3  1  0.25000000  0.52532800  0.97754700  1
  N  N4  1  0.44691300  0.75000000  0.45612700  1
  N  N5  1  0.05308700  0.75000000  0.45612700  1
  N  N6  1  0.55308700  0.25000000  0.54387300  1
  N  N7  1  0.94691300  0.25000000  0.54387300  1
loop_
_geom_bond_atom_site_label_1
_geom_bond_atom_site_label_2
_geom_bond_distance
_geom_bond_site_symmetry_2
Co0 N1 1.786546 1_556
Co0 N0 1.786546 1_556
Co0 N6 1.885521 1_555
Co0 N7 1.885521 1_555
Co1 N2 1.786546 1_554
Co1 N3 1.786546 1_554
Co1 N4 1.885521 1_555
Co1 N5 1.885521 1_555
N0 Ni8 1.789149 1_544
N0 Ni3 1.809000 1_545
N0 Ni2 1.809000 1_545
N1 Ni8 1.789149 1_554
N1 Ni1 1.809000 1_555
N1 Ni0 1.809000 1_555
N2 Ni9 1.789149 1_566
N2 Ni7 1.809000 1_565
N2 Ni6 1.809000 1_565
N3 Ni9 1.789149 1_556
N3 Ni5 1.809000 1_555
N3 Ni4 1.809000 1_555
N4 Ni2 1.918582 1_555
N4 Ni0 1.918582 1_555
N4 Ni4 1.933955 1_555
N4 Ni6 1.933955 1_565
N5 Ni3 1.918582 1_455
N5 Ni1 1.918582 1_455
N5 Ni5 1.933955 1_555
N5 Ni7 1.933955 1_565
N6 Ni4 1.918582 1_555
N6 Ni6 1.918582 1_555
N6 Ni0 1.933955 1_555
N6 Ni2 1.933955 1_545
N7 Ni7 1.918582 1_655
N7 Ni5 1.918582 1_655
N7 Ni1 1.933955 1_555
N7 Ni3 1.933955 1_545
