# generated using pymatgen
data_ZnCuMo2O7
_symmetry_space_group_name_H-M   'P 1'
_cell_length_a   8.58773400
_cell_length_b   10.61254000
_cell_length_c   10.76902593
_cell_angle_alpha   83.52972036
_cell_angle_beta   90.00000000
_cell_angle_gamma   90.00000000
_symmetry_Int_Tables_number   1
_chemical_formula_structural   ZnCuMo2O7
_chemical_formula_sum   'Zn6 Cu6 Mo12 O42'
_cell_volume   975.21244673
_cell_formula_units_Z   6
loop_
 _symmetry_equiv_pos_site_id
 _symmetry_equiv_pos_as_xyz
  1  'x, y, z'
loop_
 _atom_site_type_symbol
 _atom_site_label
 _atom_site_symmetry_multiplicity
 _atom_site_fract_x
 _atom_site_fract_y
 _atom_site_fract_z
 _atom_site_occupancy
  Zn  Zn0  1  0.43222800  0.87407500  0.57087300  1
  Zn  Zn1  1  0.92403100  0.50000000  0.75000000  1
  Zn  Zn2  1  0.43222800  0.12592500  0.92912700  1
  Zn  Zn3  1  0.07596900  0.50000000  0.25000000  1
  Zn  Zn4  1  0.56777200  0.12592500  0.42912700  1
  Zn  Zn5  1  0.56777200  0.87407500  0.07087300  1
  Cu  Cu0  1  0.93050500  0.19047500  0.40834300  1
  Cu  Cu1  1  0.06949500  0.80952500  0.59165700  1
  Cu  Cu2  1  0.43747200  0.50000000  0.25000000  1
  Cu  Cu3  1  0.93050500  0.80952500  0.09165700  1
  Cu  Cu4  1  0.56252800  0.50000000  0.75000000  1
  Cu  Cu5  1  0.06949500  0.19047500  0.90834300  1
  Mo  Mo0  1  0.23307000  0.82495900  0.28737100  1
  Mo  Mo1  1  0.75526700  0.84821500  0.36855000  1
  Mo  Mo2  1  0.24473300  0.84821500  0.86855000  1
  Mo  Mo3  1  0.76693000  0.82495900  0.78737100  1
  Mo  Mo4  1  0.26970300  0.50841500  0.95878400  1
  Mo  Mo5  1  0.75526700  0.15178500  0.13145000  1
  Mo  Mo6  1  0.73029700  0.50841500  0.45878400  1
  Mo  Mo7  1  0.24473300  0.15178500  0.63145000  1
  Mo  Mo8  1  0.26970300  0.49158500  0.54121600  1
  Mo  Mo9  1  0.73029700  0.49158500  0.04121600  1
  Mo  Mo10  1  0.76693000  0.17504100  0.71262900  1
  Mo  Mo11  1  0.23307000  0.17504100  0.21262900  1
  O  O0  1  0.74013500  0.79854900  0.95725700  1
  O  O1  1  0.75661400  0.13640600  0.30662500  1
  O  O2  1  0.82077500  0.00000000  0.75000000  1
  O  O3  1  0.91118600  0.51576500  0.11511900  1
  O  O4  1  0.41574100  0.06850800  0.56673900  1
  O  O5  1  0.91867500  0.72647900  0.72387900  1
  O  O6  1  0.32025500  0.67739200  0.92741000  1
  O  O7  1  0.08881400  0.51576500  0.61511900  1
  O  O8  1  0.74070200  0.53069700  0.87014700  1
  O  O9  1  0.41574100  0.93149200  0.93326100  1
  O  O10  1  0.74070200  0.46930300  0.62985300  1
  O  O11  1  0.42101700  0.42963500  0.88570300  1
  O  O12  1  0.92933100  0.13814900  0.04340700  1
  O  O13  1  0.08132500  0.72647900  0.22387900  1
  O  O14  1  0.67974500  0.32260800  0.07259000  1
  O  O15  1  0.32025500  0.32260800  0.57259000  1
  O  O16  1  0.91867500  0.27352100  0.77612100  1
  O  O17  1  0.58425900  0.93149200  0.43326100  1
  O  O18  1  0.25986500  0.79854900  0.45725700  1
  O  O19  1  0.57898300  0.57036500  0.11429700  1
  O  O20  1  0.40836300  0.19700500  0.29890500  1
  O  O21  1  0.25929800  0.46930300  0.12985300  1
  O  O22  1  0.07066900  0.13814900  0.54340700  1
  O  O23  1  0.25929800  0.53069700  0.37014700  1
  O  O24  1  0.91118600  0.48423500  0.38488100  1
  O  O25  1  0.57898300  0.42963500  0.38570300  1
  O  O26  1  0.08881400  0.48423500  0.88488100  1
  O  O27  1  0.59163700  0.19700500  0.79890500  1
  O  O28  1  0.59163700  0.80299500  0.70109500  1
  O  O29  1  0.07066900  0.86185100  0.95659300  1
  O  O30  1  0.08132500  0.27352100  0.27612100  1
  O  O31  1  0.74013500  0.20145100  0.54274300  1
  O  O32  1  0.17922500  0.00000000  0.25000000  1
  O  O33  1  0.24338600  0.13640600  0.80662500  1
  O  O34  1  0.58425900  0.06850800  0.06673900  1
  O  O35  1  0.92933100  0.86185100  0.45659300  1
  O  O36  1  0.25986500  0.20145100  0.04274300  1
  O  O37  1  0.75661400  0.86359400  0.19337500  1
  O  O38  1  0.42101700  0.57036500  0.61429700  1
  O  O39  1  0.67974500  0.67739200  0.42741000  1
  O  O40  1  0.24338600  0.86359400  0.69337500  1
  O  O41  1  0.40836300  0.80299500  0.20109500  1
loop_
_geom_bond_atom_site_label_1
_geom_bond_atom_site_label_2
_geom_bond_distance
_geom_bond_site_symmetry_2
Cu0 O22 1.921145 1_655
Cu0 O1 1.975060 1_555
Cu0 O30 2.049136 1_655
Cu0 O31 2.195252 1_555
Cu1 O35 1.921145 1_455
Cu1 O40 1.975060 1_555
Cu1 O5 2.049136 1_455
Cu1 O18 2.195252 1_555
Cu2 O19 1.980959 1_555
Cu2 O25 1.980959 1_555
Cu2 O23 2.053401 1_555
Cu2 O21 2.053401 1_555
Cu3 O29 1.921145 1_654
Cu3 O37 1.975060 1_555
Cu3 O13 2.049136 1_655
Cu3 O0 2.195252 1_554
Cu4 O11 1.980959 1_555
Cu4 O38 1.980959 1_555
Cu4 O10 2.053401 1_555
Cu4 O8 2.053401 1_555
Cu5 O12 1.921145 1_456
Cu5 O33 1.975060 1_555
Cu5 O16 2.049136 1_455
Cu5 O36 2.195252 1_556
Mo0 O41 1.797922 1_555
Mo0 O18 1.833858 1_555
Mo0 O13 1.849063 1_555
Mo0 O32 1.912611 1_565
Mo1 O35 1.784742 1_555
Mo1 O37 1.875134 1_555
Mo1 O17 1.887381 1_555
Mo1 O39 1.962121 1_555
Mo2 O29 1.784742 1_555
Mo2 O40 1.875134 1_555
Mo2 O9 1.887381 1_555
Mo2 O6 1.962121 1_555
Mo3 O28 1.797922 1_555
Mo3 O0 1.833858 1_555
Mo3 O5 1.849063 1_555
Mo3 O2 1.912611 1_565
Mo4 O11 1.776295 1_555
Mo4 O26 1.777192 1_555
Mo4 O6 1.838995 1_555
Mo4 O21 1.844399 1_556
Mo5 O12 1.784742 1_555
Mo5 O1 1.875134 1_555
Mo5 O34 1.887381 1_555
Mo5 O14 1.962121 1_555
Mo6 O25 1.776295 1_555
Mo6 O24 1.777192 1_555
Mo6 O39 1.838995 1_555
Mo6 O10 1.844399 1_555
Mo7 O22 1.784742 1_555
Mo7 O33 1.875134 1_555
Mo7 O4 1.887381 1_555
Mo7 O15 1.962121 1_555
Mo8 O38 1.776295 1_555
Mo8 O7 1.777192 1_555
Mo8 O15 1.838995 1_555
Mo8 O23 1.844399 1_555
Mo9 O19 1.776295 1_555
Mo9 O3 1.777192 1_555
Mo9 O14 1.838995 1_555
Mo9 O8 1.844399 1_554
Mo10 O27 1.797922 1_555
Mo10 O31 1.833858 1_555
Mo10 O16 1.849063 1_555
Mo10 O2 1.912611 1_555
Mo11 O20 1.797922 1_555
Mo11 O36 1.833858 1_555
Mo11 O30 1.849063 1_555
Mo11 O32 1.912611 1_555
O0 Zn5 2.133427 1_556
O1 Zn4 2.085582 1_555
O3 Zn3 2.021294 1_655
O4 Zn4 2.017063 1_555
O4 Zn0 2.063749 1_545
O5 Zn1 2.388674 1_555
O7 Zn1 2.021294 1_455
O8 Zn1 2.086598 1_555
O9 Zn5 2.017063 1_556
O9 Zn2 2.063749 1_565
O10 Zn1 2.086598 1_555
O13 Zn3 2.388674 1_555
O16 Zn1 2.388674 1_555
O17 Zn0 2.017063 1_555
O17 Zn4 2.063749 1_565
O18 Zn0 2.133427 1_555
O20 Zn4 2.042375 1_555
O21 Zn3 2.086598 1_555
O23 Zn3 2.086598 1_555
O24 Zn3 2.021294 1_655
O26 Zn1 2.021294 1_455
O27 Zn2 2.042375 1_555
O28 Zn0 2.042375 1_555
O30 Zn3 2.388674 1_555
O31 Zn4 2.133427 1_555
O33 Zn2 2.085582 1_555
O34 Zn2 2.017063 1_554
O34 Zn5 2.063749 1_545
O36 Zn2 2.133427 1_554
O37 Zn5 2.085582 1_555
O40 Zn0 2.085582 1_555
O41 Zn5 2.042375 1_555
