# generated using pymatgen
data_Cs2Al2B2O7
_symmetry_space_group_name_H-M   'P 1'
_cell_length_a   7.22978600
_cell_length_b   6.80485700
_cell_length_c   9.74717788
_cell_angle_alpha   64.77504765
_cell_angle_beta   90.00000000
_cell_angle_gamma   90.00000000
_symmetry_Int_Tables_number   1
_chemical_formula_structural   Cs2Al2B2O7
_chemical_formula_sum   'Cs4 Al4 B4 O14'
_cell_volume   433.81030384
_cell_formula_units_Z   2
loop_
 _symmetry_equiv_pos_site_id
 _symmetry_equiv_pos_as_xyz
  1  'x, y, z'
loop_
 _atom_site_type_symbol
 _atom_site_label
 _atom_site_symmetry_multiplicity
 _atom_site_fract_x
 _atom_site_fract_y
 _atom_site_fract_z
 _atom_site_occupancy
  Cs  Cs0  1  0.86281000  0.22259500  0.61730500  1
  Cs  Cs1  1  0.36281000  0.77740500  0.88269500  1
  Cs  Cs2  1  0.13719000  0.77740500  0.38269500  1
  Cs  Cs3  1  0.63719000  0.22259500  0.11730500  1
  Al  Al0  1  0.61919800  0.76057100  0.54008200  1
  Al  Al1  1  0.11919800  0.23942900  0.95991800  1
  Al  Al2  1  0.38080200  0.23942900  0.45991800  1
  Al  Al3  1  0.88080200  0.76057100  0.04008200  1
  B  B0  1  0.88865000  0.64603700  0.77547700  1
  B  B1  1  0.38865000  0.35396300  0.72452300  1
  B  B2  1  0.11135000  0.35396300  0.22452300  1
  B  B3  1  0.61135000  0.64603700  0.27547700  1
  O  O0  1  0.84013900  0.74477700  0.62303200  1
  O  O1  1  0.34013900  0.25522300  0.87696800  1
  O  O2  1  0.15986100  0.25522300  0.37696800  1
  O  O3  1  0.65986100  0.74477700  0.12303200  1
  O  O4  1  0.83176100  0.74062800  0.86857100  1
  O  O5  1  0.33176100  0.25937200  0.63142900  1
  O  O6  1  0.16823900  0.25937200  0.13142900  1
  O  O7  1  0.66823900  0.74062800  0.36857100  1
  O  O8  1  0.50000000  0.00000000  0.50000000  1
  O  O9  1  0.00000000  0.00000000  0.00000000  1
  O  O10  1  0.99422500  0.46125400  0.82769400  1
  O  O11  1  0.49422500  0.53874600  0.67230600  1
  O  O12  1  0.00577500  0.53874600  0.17230600  1
  O  O13  1  0.50577500  0.46125400  0.32769400  1
loop_
_geom_bond_atom_site_label_1
_geom_bond_atom_site_label_2
_geom_bond_distance
_geom_bond_site_symmetry_2
Cs0 O2 3.115450 1_655
Cs0 O4 3.155748 1_545
Cs0 O0 3.232247 1_545
Cs0 O10 3.253343 1_555
Cs0 O5 3.406738 1_655
Cs0 O8 3.458075 1_555
Cs0 O9 3.518037 1_656
Cs0 O0 3.581273 1_555
Cs0 O7 3.605385 1_555
Cs0 O11 3.605542 1_555
Cs0 O13 3.655364 1_555
Cs1 O3 3.115450 1_556
Cs1 O5 3.155748 1_565
Cs1 O1 3.232247 1_565
Cs1 O11 3.253343 1_555
Cs1 O4 3.406738 1_555
Cs1 O9 3.458075 1_566
Cs1 O8 3.518037 1_565
Cs1 O1 3.581273 1_555
Cs1 O6 3.605385 1_556
Cs1 O10 3.605542 1_455
Cs1 O12 3.655364 1_556
Cs2 O0 3.115450 1_455
Cs2 O6 3.155748 1_565
Cs2 O2 3.232247 1_565
Cs2 O12 3.253343 1_555
Cs2 O7 3.406738 1_455
Cs2 O8 3.458075 1_565
Cs2 O9 3.518037 1_565
Cs2 O2 3.581273 1_555
Cs2 O5 3.605385 1_555
Cs2 O13 3.605542 1_555
Cs2 O11 3.655364 1_555
Cs3 O1 3.115450 1_554
Cs3 O7 3.155748 1_545
Cs3 O3 3.232247 1_545
Cs3 O13 3.253343 1_555
Cs3 O6 3.406738 1_555
Cs3 O9 3.458075 1_655
Cs3 O8 3.518037 1_555
Cs3 O3 3.581273 1_555
Cs3 O4 3.605385 1_554
Cs3 O12 3.605542 1_655
Cs3 O10 3.655364 1_554
Al0 O8 1.734156 1_565
Al0 O11 1.760044 1_555
Al0 O7 1.769814 1_555
Al0 O0 1.772780 1_555
Al1 O9 1.734156 1_556
Al1 O10 1.760044 1_455
Al1 O6 1.769814 1_556
Al1 O1 1.772780 1_555
Al2 O8 1.734156 1_555
Al2 O13 1.760044 1_555
Al2 O5 1.769814 1_555
Al2 O2 1.772780 1_555
Al3 O9 1.734156 1_665
Al3 O12 1.760044 1_655
Al3 O4 1.769814 1_554
Al3 O3 1.772780 1_555
B0 O10 1.370135 1_555
B0 O4 1.380110 1_555
B0 O0 1.389753 1_555
B1 O11 1.370135 1_555
B1 O5 1.380110 1_555
B1 O1 1.389753 1_555
B2 O12 1.370135 1_555
B2 O6 1.380110 1_555
B2 O2 1.389753 1_555
B3 O13 1.370135 1_555
B3 O7 1.380110 1_555
B3 O3 1.389753 1_555
