# generated using pymatgen
data_Y2P7Rh12
_symmetry_space_group_name_H-M   'P 1'
_cell_length_a   9.51969552
_cell_length_b   9.51972459
_cell_length_c   3.86138083
_cell_angle_alpha   90.00037344
_cell_angle_beta   90.00006401
_cell_angle_gamma   119.99939540
_symmetry_Int_Tables_number   1
_chemical_formula_structural   Y2P7Rh12
_chemical_formula_sum   'Y2 P7 Rh12'
_cell_volume   303.05632739
_cell_formula_units_Z   1
loop_
 _symmetry_equiv_pos_site_id
 _symmetry_equiv_pos_as_xyz
  1  'x, y, z'
loop_
 _atom_site_type_symbol
 _atom_site_label
 _atom_site_symmetry_multiplicity
 _atom_site_fract_x
 _atom_site_fract_y
 _atom_site_fract_z
 _atom_site_occupancy
  Y  Y0  1  0.33331775  0.66666119  0.74945940  1
  Y  Y1  1  0.66666680  0.33333127  0.25053970  1
  P  P0  1  -0.00000169  0.00000253  0.49999737  1
  P  P1  1  0.40544892  0.28574866  0.75566967  1
  P  P2  1  0.71423321  0.11968706  0.75566992  1
  P  P3  1  0.88031721  0.59455041  0.75567407  1
  P  P4  1  0.59455317  0.71424671  0.24433103  1
  P  P5  1  0.28575991  0.88031378  0.24432175  1
  P  P6  1  0.11968640  0.40545647  0.24433147  1
  Rh  Rh0  1  0.45003888  0.06808040  0.75036715  1
  Rh  Rh1  1  0.93191698  0.38195245  0.75036294  1
  Rh  Rh2  1  0.61804600  0.54996131  0.75037155  1
  Rh  Rh3  1  0.54995007  0.93192182  0.24963206  1
  Rh  Rh4  1  0.06808445  0.61804985  0.24963557  1
  Rh  Rh5  1  0.38195182  0.45002004  0.24963413  1
  Rh  Rh6  1  0.15183050  0.26067674  0.75049587  1
  Rh  Rh7  1  0.73933105  0.89117136  0.75048228  1
  Rh  Rh8  1  0.10886165  0.84817645  0.75049997  1
  Rh  Rh9  1  0.84817504  0.73931789  0.24951637  1
  Rh  Rh10  1  0.26067528  0.10883665  0.24950593  1
  Rh  Rh11  1  0.89115661  0.15183697  0.24950181  1
loop_
_geom_bond_atom_site_label_1
_geom_bond_atom_site_label_2
_geom_bond_distance
_geom_bond_site_symmetry_2
P0 Rh7 2.365535 1_445
P0 Rh11 2.365601 1_455
P0 Rh6 2.365601 1_555
P0 Rh10 2.365620 1_555
P0 Rh9 2.365640 1_445
P0 Rh8 2.365699 1_545
P1 Rh6 2.304410 1_555
P1 Rh2 2.309206 1_555
P1 Rh0 2.313860 1_555
P1 Rh10 2.459884 1_556
P1 Rh10 2.496946 1_555
P1 Rh5 2.546260 1_556
P1 Rh5 2.581375 1_555
P1 Y1 2.985630 1_556
P1 Y1 3.011148 1_555
P2 Rh7 2.304263 1_545
P2 Rh0 2.309042 1_555
P2 Rh1 2.313979 1_555
P2 Rh11 2.459893 1_556
P2 Rh11 2.497006 1_555
P2 Rh3 2.546298 1_546
P2 Rh3 2.581392 1_545
P2 Y1 2.985612 1_556
P2 Y1 3.011140 1_555
P3 Rh8 2.304466 1_655
P3 Rh1 2.309094 1_555
P3 Rh2 2.313986 1_555
P3 Rh9 2.459854 1_556
P3 Rh9 2.496913 1_555
P3 Rh4 2.546242 1_656
P3 Rh4 2.581365 1_655
P3 Y1 2.985695 1_556
P3 Y1 3.011203 1_555
P4 Rh9 2.304446 1_555
P4 Rh5 2.309307 1_555
P4 Rh3 2.314003 1_555
P4 Rh7 2.459979 1_554
P4 Rh7 2.496965 1_555
P4 Rh2 2.546317 1_554
P4 Rh2 2.581461 1_555
P4 Y0 2.985753 1_554
P4 Y0 3.011262 1_555
P5 Rh10 2.304258 1_565
P5 Rh3 2.308999 1_555
P5 Rh4 2.313942 1_555
P5 Rh8 2.459739 1_554
P5 Rh8 2.496915 1_555
P5 Rh0 2.546271 1_564
P5 Rh0 2.581408 1_565
P5 Y0 2.985614 1_554
P5 Y0 3.011179 1_555
P6 Rh11 2.304372 1_455
P6 Rh4 2.309064 1_555
P6 Rh5 2.314018 1_555
P6 Rh6 2.459914 1_554
P6 Rh6 2.497012 1_555
P6 Rh1 2.546264 1_454
P6 Rh1 2.581347 1_455
P6 Y0 2.985595 1_554
P6 Y0 3.011072 1_555
Rh0 Y1 3.024367 1_555
Rh0 Y1 3.025193 1_556
Rh1 Y1 3.024324 1_555
Rh1 Y1 3.025203 1_556
Rh2 Y1 3.024345 1_555
Rh2 Y1 3.025190 1_556
Rh3 Y0 3.024424 1_555
Rh3 Y0 3.025251 1_554
Rh4 Y0 3.024228 1_555
Rh4 Y0 3.025104 1_554
Rh5 Y0 3.024471 1_555
Rh5 Y0 3.025349 1_554
