# generated using pymatgen
data_SmCoGe3
_symmetry_space_group_name_H-M   'P 1'
_cell_length_a   4.26515722
_cell_length_b   4.26515775
_cell_length_c   5.73774653
_cell_angle_alpha   111.81622637
_cell_angle_beta   111.81615668
_cell_angle_gamma   90.00286494
_symmetry_Int_Tables_number   1
_chemical_formula_structural   SmCoGe3
_chemical_formula_sum   'Sm1 Co1 Ge3'
_cell_volume   88.79964730
_cell_formula_units_Z   1
loop_
 _symmetry_equiv_pos_site_id
 _symmetry_equiv_pos_as_xyz
  1  'x, y, z'
loop_
 _atom_site_type_symbol
 _atom_site_label
 _atom_site_symmetry_multiplicity
 _atom_site_fract_x
 _atom_site_fract_y
 _atom_site_fract_z
 _atom_site_occupancy
  Sm  Sm0  1  0.56666709  0.56666665  0.13325651  1
  Co  Co0  1  0.23368621  0.23368622  0.46775650  1
  Ge  Ge0  1  0.32705878  0.82685652  0.65390035  1
  Ge  Ge1  1  0.82685805  0.32705905  0.65390069  1
  Ge  Ge2  1  0.00352987  0.00353056  0.00678695  1
loop_
_geom_bond_atom_site_label_1
_geom_bond_atom_site_label_2
_geom_bond_distance
_geom_bond_site_symmetry_2
Co0 Ge2 2.250160 1_555
Co0 Ge1 2.317666 1_455
Co0 Ge0 2.317672 1_545
Co0 Ge0 2.318495 1_555
Co0 Ge1 2.318502 1_555
Co0 Sm0 3.248547 1_556
Co0 Sm0 3.428332 1_445
Co0 Sm0 3.429625 1_545
Co0 Sm0 3.429625 1_455
Co0 Sm0 3.430652 1_555
Ge0 Ge2 2.741239 1_566
Ge0 Ge2 2.741509 1_666
Ge0 Sm0 3.165497 1_556
Ge0 Sm0 3.166352 1_566
Ge0 Sm0 3.317417 1_555
Ge0 Sm0 3.317903 1_455
Ge1 Ge2 2.741238 1_656
Ge1 Ge2 2.741508 1_666
Ge1 Sm0 3.165496 1_556
Ge1 Sm0 3.166350 1_656
Ge1 Sm0 3.317419 1_555
Ge1 Sm0 3.317904 1_545
Ge2 Sm0 3.077830 1_555
Ge2 Sm0 3.078527 1_455
Ge2 Sm0 3.078535 1_545
Ge2 Sm0 3.078936 1_445
