# generated using pymatgen
data_YMg2
_symmetry_space_group_name_H-M   'P 1'
_cell_length_a   5.73564877
_cell_length_b   5.73564877
_cell_length_c   6.52988029
_cell_angle_alpha   63.94657157
_cell_angle_beta   63.94657157
_cell_angle_gamma   59.01685895
_symmetry_Int_Tables_number   1
_chemical_formula_structural   YMg2
_chemical_formula_sum   'Y2 Mg4'
_cell_volume   158.99355608
_cell_formula_units_Z   2
loop_
 _symmetry_equiv_pos_site_id
 _symmetry_equiv_pos_as_xyz
  1  'x, y, z'
loop_
 _atom_site_type_symbol
 _atom_site_label
 _atom_site_symmetry_multiplicity
 _atom_site_fract_x
 _atom_site_fract_y
 _atom_site_fract_z
 _atom_site_occupancy
  Y  Y0  1  0.08734900  0.91265100  0.25000000  1
  Y  Y1  1  0.91265100  0.08734900  0.75000000  1
  Mg  Mg0  1  0.24990800  0.41711200  0.74768600  1
  Mg  Mg1  1  0.58288800  0.75009200  0.75231500  1
  Mg  Mg2  1  0.41711200  0.24990800  0.24768600  1
  Mg  Mg3  1  0.75009200  0.58288800  0.25231400  1
loop_
_geom_bond_atom_site_label_1
_geom_bond_atom_site_label_2
_geom_bond_distance
_geom_bond_site_symmetry_2
Y0 Y1 3.410889 1_465
Y0 Y1 3.410889 1_464
Mg0 Y1 3.263471 1_555
Mg0 Mg1 3.272842 1_545
Mg0 Mg1 3.272842 1_455
Mg0 Y1 3.299922 1_465
Mg0 Y1 3.321990 1_455
Mg0 Mg1 3.339589 1_555
Mg0 Y0 3.365790 1_555
Mg0 Mg2 3.398877 1_555
Mg0 Mg2 3.398877 1_556
Mg0 Mg3 3.398968 1_555
Mg0 Mg3 3.410040 1_456
Mg0 Y0 3.428461 1_546
Mg1 Y1 3.263472 1_555
Mg1 Y1 3.299924 1_465
Mg1 Y1 3.321987 1_565
Mg1 Y0 3.365786 1_556
Mg1 Mg3 3.398870 1_556
Mg1 Mg3 3.398883 1_555
Mg1 Mg2 3.398965 1_556
Mg1 Mg2 3.410045 1_565
Mg1 Y0 3.428464 1_655
Mg2 Y0 3.263471 1_555
Mg2 Mg3 3.272844 1_455
Mg2 Mg3 3.272844 1_545
Mg2 Y0 3.299922 1_645
Mg2 Y0 3.321990 1_545
Mg2 Mg3 3.339585 1_555
Mg2 Y1 3.365790 1_554
Mg2 Y1 3.428461 1_455
Mg3 Y0 3.263471 1_555
Mg3 Y0 3.299922 1_645
Mg3 Y0 3.321990 1_655
Mg3 Y1 3.365790 1_555
Mg3 Y1 3.428461 1_564
