# generated using pymatgen
data_Mg(CrS2)4
_symmetry_space_group_name_H-M   'P 1'
_cell_length_a   6.98017606
_cell_length_b   6.95833449
_cell_length_c   6.95833538
_cell_angle_alpha   59.99999945
_cell_angle_beta   60.10344511
_cell_angle_gamma   60.10344509
_symmetry_Int_Tables_number   1
_chemical_formula_structural   Mg(CrS2)4
_chemical_formula_sum   'Mg1 Cr4 S8'
_cell_volume   239.35324518
_cell_formula_units_Z   1
loop_
 _symmetry_equiv_pos_site_id
 _symmetry_equiv_pos_as_xyz
  1  'x, y, z'
loop_
 _atom_site_type_symbol
 _atom_site_label
 _atom_site_symmetry_multiplicity
 _atom_site_fract_x
 _atom_site_fract_y
 _atom_site_fract_z
 _atom_site_occupancy
  Mg  Mg0  1  0.50000000  0.00000000  0.00000000  1
  Cr  Cr0  1  0.00000000  0.50000000  0.50000000  1
  Cr  Cr1  1  0.50000000  0.50000000  0.00000000  1
  Cr  Cr2  1  0.50000000  0.50000000  0.50000000  1
  Cr  Cr3  1  0.50000000  0.00000000  0.50000000  1
  S  S0  1  0.25658300  0.25769200  0.25769200  1
  S  S1  1  0.25658300  0.25769200  0.72803300  1
  S  S2  1  0.25658300  0.72803300  0.25769200  1
  S  S3  1  0.72457500  0.25847500  0.25847500  1
  S  S4  1  0.27542500  0.74152500  0.74152500  1
  S  S5  1  0.74341700  0.74230800  0.27196700  1
  S  S6  1  0.74341700  0.27196700  0.74230800  1
  S  S7  1  0.74341700  0.74230800  0.74230800  1
loop_
_geom_bond_atom_site_label_1
_geom_bond_atom_site_label_2
_geom_bond_distance
_geom_bond_site_symmetry_2
Mg0 S0 2.541332 1_555
Mg0 S7 2.541332 1_544
Mg0 S2 2.541333 1_545
Mg0 S6 2.541333 1_554
Mg0 S1 2.541333 1_554
Mg0 S5 2.541333 1_545
Cr0 S0 2.390712 1_555
Cr0 S7 2.390712 1_455
Cr0 S2 2.390713 1_555
Cr0 S6 2.390713 1_455
Cr0 S5 2.390713 1_455
Cr0 S1 2.390713 1_555
Cr1 S3 2.382893 1_555
Cr1 S4 2.382893 1_554
Cr1 S2 2.395903 1_555
Cr1 S6 2.395903 1_554
Cr1 S7 2.395903 1_554
Cr1 S0 2.395903 1_555
Cr2 S4 2.382892 1_555
Cr2 S3 2.382892 1_555
Cr2 S5 2.395903 1_555
Cr2 S1 2.395903 1_555
Cr2 S2 2.395903 1_555
Cr2 S6 2.395903 1_555
Cr3 S3 2.382892 1_555
Cr3 S4 2.382892 1_545
Cr3 S5 2.395903 1_545
Cr3 S1 2.395903 1_555
Cr3 S7 2.395903 1_545
Cr3 S0 2.395903 1_555
