# generated using pymatgen
data_DyFe2
_symmetry_space_group_name_H-M   'P 1'
_cell_length_a   5.16724779
_cell_length_b   5.16724779
_cell_length_c   5.16724779
_cell_angle_alpha   60.00000000
_cell_angle_beta   60.00000000
_cell_angle_gamma   60.00000000
_symmetry_Int_Tables_number   1
_chemical_formula_structural   DyFe2
_chemical_formula_sum   'Dy2 Fe4'
_cell_volume   97.55799493
_cell_formula_units_Z   2
loop_
 _symmetry_equiv_pos_site_id
 _symmetry_equiv_pos_as_xyz
  1  'x, y, z'
loop_
 _atom_site_type_symbol
 _atom_site_label
 _atom_site_symmetry_multiplicity
 _atom_site_fract_x
 _atom_site_fract_y
 _atom_site_fract_z
 _atom_site_occupancy
  Dy  Dy0  1  0.00000000  0.00000000  -0.00000000  1
  Dy  Dy1  1  0.25000000  0.25000000  0.25000000  1
  Fe  Fe0  1  0.62500000  0.62500000  0.62500000  1
  Fe  Fe1  1  0.12500000  0.62500000  0.62500000  1
  Fe  Fe2  1  0.62500000  0.12500000  0.62500000  1
  Fe  Fe3  1  0.62500000  0.62500000  0.12500000  1
loop_
_geom_bond_atom_site_label_1
_geom_bond_atom_site_label_2
_geom_bond_distance
_geom_bond_site_symmetry_2
Dy0 Fe3 3.029568 1_545
Dy0 Fe2 3.029568 1_554
Dy0 Fe3 3.029568 1_455
Dy0 Fe2 3.029568 1_454
Dy0 Fe1 3.029568 1_554
Dy0 Fe3 3.029568 1_445
Dy0 Fe0 3.029568 1_445
Dy0 Fe0 3.029568 1_454
Dy0 Fe1 3.029568 1_544
Dy0 Fe0 3.029568 1_544
Dy0 Fe2 3.029568 1_455
Dy0 Fe1 3.029568 1_545
Dy0 Dy1 3.164280 1_554
Dy0 Dy1 3.164280 1_545
Dy0 Dy1 3.164280 1_555
Dy0 Dy1 3.164280 1_455
Dy1 Fe2 3.029568 1_455
Dy1 Fe3 3.029568 1_545
Dy1 Fe3 3.029568 1_455
Dy1 Fe3 3.029568 1_555
Dy1 Fe1 3.029568 1_554
Dy1 Fe2 3.029568 1_555
Dy1 Fe0 3.029568 1_554
Dy1 Fe0 3.029568 1_455
Dy1 Fe1 3.029568 1_555
Dy1 Fe0 3.029568 1_545
Dy1 Fe1 3.029568 1_545
Dy1 Fe2 3.029568 1_554
Fe0 Fe2 2.583624 1_565
Fe0 Fe3 2.583624 1_555
Fe0 Fe2 2.583624 1_555
Fe0 Fe3 2.583624 1_556
Fe0 Fe1 2.583624 1_555
Fe0 Fe1 2.583624 1_655
Fe1 Fe3 2.583624 1_456
Fe1 Fe3 2.583624 1_555
Fe1 Fe2 2.583624 1_555
Fe1 Fe2 2.583624 1_465
Fe2 Fe3 2.583624 1_555
Fe2 Fe3 2.583624 1_546
