# generated using pymatgen
data_YMg6Cu
_symmetry_space_group_name_H-M   'P 1'
_cell_length_a   6.47072172
_cell_length_b   6.47072172
_cell_length_c   4.96580000
_cell_angle_alpha   90.00000000
_cell_angle_beta   90.00000000
_cell_angle_gamma   120.96747911
_symmetry_Int_Tables_number   1
_chemical_formula_structural   YMg6Cu
_chemical_formula_sum   'Y1 Mg6 Cu1'
_cell_volume   178.28232301
_cell_formula_units_Z   1
loop_
 _symmetry_equiv_pos_site_id
 _symmetry_equiv_pos_as_xyz
  1  'x, y, z'
loop_
 _atom_site_type_symbol
 _atom_site_label
 _atom_site_symmetry_multiplicity
 _atom_site_fract_x
 _atom_site_fract_y
 _atom_site_fract_z
 _atom_site_occupancy
  Y  Y0  1  0.17958200  0.82041800  0.00000000  1
  Mg  Mg0  1  0.18123200  0.33781900  0.00000000  1
  Mg  Mg1  1  0.66218100  0.81876800  0.00000000  1
  Mg  Mg2  1  0.66302200  0.33697800  0.00000000  1
  Mg  Mg3  1  0.33454800  0.18270800  0.50000000  1
  Mg  Mg4  1  0.81729200  0.66545200  0.50000000  1
  Mg  Mg5  1  0.83055500  0.16944500  0.50000000  1
  Cu  Cu0  1  0.33158700  0.66841300  0.50000000  1
loop_
_geom_bond_atom_site_label_1
_geom_bond_atom_site_label_2
_geom_bond_distance
_geom_bond_site_symmetry_2
Mg0 Mg3 3.030025 1_554
Mg0 Mg3 3.030025 1_555
Mg0 Mg1 3.066467 1_555
Mg0 Mg2 3.120333 1_555
Mg0 Y0 3.128271 1_555
Mg0 Mg5 3.155408 1_455
Mg0 Mg5 3.155408 1_454
Mg0 Mg1 3.309401 1_445
Mg0 Y0 3.342477 1_545
Mg0 Mg2 3.350396 1_455
Mg1 Mg4 3.030025 1_555
Mg1 Mg4 3.030025 1_554
Mg1 Mg2 3.120333 1_555
Mg1 Y0 3.128271 1_555
Mg1 Mg5 3.155408 1_564
Mg1 Mg5 3.155408 1_565
Mg1 Y0 3.342477 1_655
Mg1 Mg2 3.350396 1_565
Mg2 Mg3 3.081461 1_554
Mg2 Mg3 3.081461 1_555
Mg2 Mg4 3.081461 1_555
Mg2 Mg4 3.081461 1_554
Mg2 Mg5 3.118421 1_554
Mg2 Mg5 3.118421 1_555
Mg2 Y0 3.193384 1_655
Mg2 Y0 3.193384 1_545
Mg3 Mg4 3.077912 1_555
Mg3 Y0 3.201063 1_545
Mg3 Y0 3.201063 1_546
Mg3 Mg5 3.217881 1_455
Mg3 Mg5 3.254515 1_555
Mg3 Mg4 3.297956 1_445
Mg4 Y0 3.201063 1_655
Mg4 Y0 3.201063 1_656
Mg4 Mg5 3.217881 1_565
Mg4 Mg5 3.254515 1_555
Cu0 Y0 3.015833 1_555
Cu0 Y0 3.015833 1_556
Cu0 Mg1 3.089603 1_556
Cu0 Mg1 3.089603 1_555
Cu0 Mg0 3.089603 1_555
Cu0 Mg0 3.089603 1_556
Cu0 Mg4 3.152763 1_555
Cu0 Mg3 3.152763 1_555
Cu0 Mg5 3.187955 1_455
Cu0 Mg5 3.187955 1_565
Cu0 Mg4 3.318042 1_455
Cu0 Mg3 3.318042 1_565
