# generated using pymatgen
data_Rb2HgBiF6
_symmetry_space_group_name_H-M   'P 1'
_cell_length_a   6.85059475
_cell_length_b   6.85059475
_cell_length_c   6.85059475
_cell_angle_alpha   60.00000000
_cell_angle_beta   60.00000000
_cell_angle_gamma   60.00000000
_symmetry_Int_Tables_number   1
_chemical_formula_structural   Rb2HgBiF6
_chemical_formula_sum   'Rb2 Hg1 Bi1 F6'
_cell_volume   227.33684764
_cell_formula_units_Z   1
loop_
 _symmetry_equiv_pos_site_id
 _symmetry_equiv_pos_as_xyz
  1  'x, y, z'
loop_
 _atom_site_type_symbol
 _atom_site_label
 _atom_site_symmetry_multiplicity
 _atom_site_fract_x
 _atom_site_fract_y
 _atom_site_fract_z
 _atom_site_occupancy
  Rb  Rb0  1  0.75000000  0.75000000  0.75000000  1
  Rb  Rb1  1  0.25000000  0.25000000  0.25000000  1
  Hg  Hg0  1  0.50000000  0.50000000  0.50000000  1
  Bi  Bi0  1  0.00000000  0.00000000  0.00000000  1
  F  F0  1  0.76677100  0.23322900  0.23322900  1
  F  F1  1  0.23322900  0.23322900  0.76677100  1
  F  F2  1  0.23322900  0.76677100  0.76677100  1
  F  F3  1  0.23322900  0.76677100  0.23322900  1
  F  F4  1  0.76677100  0.23322900  0.76677100  1
  F  F5  1  0.76677100  0.76677100  0.23322900  1
loop_
_geom_bond_atom_site_label_1
_geom_bond_atom_site_label_2
_geom_bond_distance
_geom_bond_site_symmetry_2
Bi0 F1 2.259570 1_554
Bi0 F2 2.259570 1_544
Bi0 F0 2.259570 1_455
Bi0 F5 2.259570 1_445
Bi0 F3 2.259570 1_545
Bi0 F4 2.259570 1_454
F0 Hg0 2.584532 1_555
F0 Rb0 3.429149 1_545
F0 Rb1 3.429149 1_655
F0 Rb0 3.429149 1_554
F0 Rb1 3.429149 1_555
F1 Hg0 2.584532 1_555
F1 Rb0 3.429149 1_545
F1 Rb1 3.429149 1_556
F1 Rb0 3.429149 1_455
F1 Rb1 3.429149 1_555
F2 Hg0 2.584532 1_555
F2 Rb1 3.429149 1_565
F2 Rb1 3.429149 1_556
F2 Rb0 3.429149 1_455
F2 Rb0 3.429149 1_555
F3 Hg0 2.584532 1_555
F3 Rb1 3.429149 1_565
F3 Rb0 3.429149 1_455
F3 Rb0 3.429149 1_554
F3 Rb1 3.429149 1_555
F4 Hg0 2.584532 1_555
F4 Rb0 3.429149 1_545
F4 Rb1 3.429149 1_556
F4 Rb1 3.429149 1_655
F4 Rb0 3.429149 1_555
F5 Hg0 2.584532 1_555
F5 Rb1 3.429149 1_565
F5 Rb1 3.429149 1_655
F5 Rb0 3.429149 1_555
F5 Rb0 3.429149 1_554
