# generated using pymatgen
data_Ti2CdO6
_symmetry_space_group_name_H-M   'P 1'
_cell_length_a   5.73441018
_cell_length_b   6.16479320
_cell_length_c   7.06144818
_cell_angle_alpha   87.95825248
_cell_angle_beta   85.05862463
_cell_angle_gamma   89.41739900
_symmetry_Int_Tables_number   1
_chemical_formula_structural   Ti2CdO6
_chemical_formula_sum   'Ti4 Cd2 O12'
_cell_volume   248.54044463
_cell_formula_units_Z   2
loop_
 _symmetry_equiv_pos_site_id
 _symmetry_equiv_pos_as_xyz
  1  'x, y, z'
loop_
 _atom_site_type_symbol
 _atom_site_label
 _atom_site_symmetry_multiplicity
 _atom_site_fract_x
 _atom_site_fract_y
 _atom_site_fract_z
 _atom_site_occupancy
  Ti  Ti0  1  0.94299900  0.90723200  0.00218000  1
  Ti  Ti1  1  0.01106300  0.05694400  0.48291400  1
  Ti  Ti2  1  0.58058200  0.53553900  0.48369400  1
  Ti  Ti3  1  0.43930100  0.57328000  0.00752300  1
  Cd  Cd0  1  0.02457600  0.52730200  0.73788700  1
  Cd  Cd1  1  0.50245700  0.04061100  0.26765200  1
  O  O0  1  0.11118100  0.63771700  0.01908700  1
  O  O1  1  0.28007000  0.17298900  0.51156100  1
  O  O2  1  0.42368700  0.51143400  0.26779200  1
  O  O3  1  0.40686200  0.56926900  0.71510800  1
  O  O4  1  0.62921100  0.81021400  0.02130500  1
  O  O5  1  0.73404200  0.78758400  0.44827600  1
  O  O6  1  0.79301900  0.30687700  0.60661100  1
  O  O7  1  0.63870500  0.32595700  0.93343900  1
  O  O8  1  0.82145400  0.30395200  0.38609600  1
  O  O9  1  0.79426500  0.21408200  0.05853600  1
  O  O10  1  0.10387200  0.99189100  0.21722400  1
  O  O11  1  0.00065500  0.91912400  0.74111600  1
loop_
_geom_bond_atom_site_label_1
_geom_bond_atom_site_label_2
_geom_bond_distance
_geom_bond_site_symmetry_2
Cd0 O6 2.192610 1_455
Cd0 O3 2.201432 1_555
Cd0 O0 2.219452 1_556
Cd0 O11 2.418808 1_555
Cd1 O1 2.226965 1_555
Cd1 O4 2.347136 1_545
Cd1 O10 2.367067 1_545
Cd1 O9 2.371171 1_555
Cd1 O5 2.435462 1_545
Cd1 O8 2.664961 1_555
O0 Ti3 1.914532 1_555
O0 Ti0 1.917832 1_455
O1 Ti1 1.737477 1_555
O2 Ti2 1.846904 1_555
O2 Ti3 1.858383 1_555
O3 Ti2 1.856211 1_555
O3 Ti3 2.090172 1_556
O4 Ti3 1.841106 1_555
O4 Ti0 1.894208 1_555
O5 Ti2 1.792615 1_555
O5 Ti1 2.343132 1_665
O6 O8 1.552368 1_555
O6 Ti2 2.069918 1_555
O6 Ti1 2.137508 1_655
O7 O9 1.459991 1_556
O7 Ti3 1.955559 1_556
O8 Ti1 1.997150 1_655
O8 Ti2 2.070544 1_555
O9 Ti0 2.103942 1_545
O10 Ti0 1.933110 1_455
O10 Ti1 1.959922 1_565
O11 Ti0 1.843639 1_456
O11 Ti1 1.980325 1_565
