# generated using pymatgen
data_Mg6VMo
_symmetry_space_group_name_H-M   'P 1'
_cell_length_a   4.73533200
_cell_length_b   5.97048100
_cell_length_c   10.97036800
_cell_angle_alpha   90.00000000
_cell_angle_beta   90.00000000
_cell_angle_gamma   90.00000000
_symmetry_Int_Tables_number   1
_chemical_formula_structural   Mg6VMo
_chemical_formula_sum   'Mg12 V2 Mo2'
_cell_volume   310.15654496
_cell_formula_units_Z   2
loop_
 _symmetry_equiv_pos_site_id
 _symmetry_equiv_pos_as_xyz
  1  'x, y, z'
loop_
 _atom_site_type_symbol
 _atom_site_label
 _atom_site_symmetry_multiplicity
 _atom_site_fract_x
 _atom_site_fract_y
 _atom_site_fract_z
 _atom_site_occupancy
  Mg  Mg0  1  0.00000000  0.26037400  0.07818900  1
  Mg  Mg1  1  0.00000000  0.73962600  0.07818900  1
  Mg  Mg2  1  0.00000000  0.00000000  0.32942600  1
  Mg  Mg3  1  0.50000000  0.74143700  0.42277900  1
  Mg  Mg4  1  0.50000000  0.25856300  0.42277900  1
  Mg  Mg5  1  0.50000000  0.00000000  0.17032800  1
  Mg  Mg6  1  0.00000000  0.76037400  0.57818900  1
  Mg  Mg7  1  0.00000000  0.23962600  0.57818900  1
  Mg  Mg8  1  0.00000000  0.50000000  0.82942600  1
  Mg  Mg9  1  0.50000000  0.24143700  0.92277900  1
  Mg  Mg10  1  0.50000000  0.75856300  0.92277900  1
  Mg  Mg11  1  0.50000000  0.50000000  0.67032800  1
  V  V0  1  0.00000000  0.50000000  0.30503500  1
  V  V1  1  0.00000000  0.00000000  0.80503500  1
  Mo  Mo0  1  0.50000000  0.50000000  0.19327500  1
  Mo  Mo1  1  0.50000000  0.00000000  0.69327500  1
loop_
_geom_bond_atom_site_label_1
_geom_bond_atom_site_label_2
_geom_bond_distance
_geom_bond_site_symmetry_2
Mg0 Mg1 2.861365 1_555
Mg0 V0 2.870523 1_555
Mg0 Mg9 2.919816 1_554
Mg0 Mg9 2.919816 1_454
Mg0 Mg5 3.007359 1_455
Mg0 Mg5 3.007359 1_555
Mg0 Mo0 3.040837 1_555
Mg0 Mo0 3.040837 1_455
Mg0 Mg8 3.081300 1_554
Mg0 Mg1 3.109116 1_545
Mg0 Mg2 3.164345 1_555
Mg0 V1 3.375835 1_554
Mg1 V0 2.870523 1_555
Mg1 Mg10 2.919816 1_554
Mg1 Mg10 2.919816 1_454
Mg1 Mg5 3.007359 1_465
Mg1 Mg5 3.007359 1_565
Mg1 Mo0 3.040837 1_555
Mg1 Mo0 3.040837 1_455
Mg1 Mg8 3.081300 1_554
Mg1 Mg2 3.164345 1_565
Mg1 V1 3.375835 1_564
Mg2 Mg5 2.941451 1_455
Mg2 Mg5 2.941451 1_555
Mg2 V0 2.997209 1_545
Mg2 V0 2.997209 1_555
Mg2 Mg4 3.006295 1_455
Mg2 Mg3 3.006295 1_545
Mg2 Mg3 3.006295 1_445
Mg2 Mg4 3.006295 1_555
Mg2 Mg6 3.081300 1_545
Mg2 Mg7 3.081300 1_555
Mg3 Mg4 2.882990 1_555
Mg3 Mo0 2.901196 1_555
Mg3 Mg6 2.919816 1_555
Mg3 Mg6 2.919816 1_655
Mg3 V0 3.058141 1_655
Mg3 V0 3.058141 1_555
Mg3 Mg4 3.087491 1_565
Mg3 Mg5 3.170674 1_565
Mg3 Mo1 3.344974 1_565
Mg4 Mo0 2.901196 1_555
Mg4 Mg7 2.919816 1_655
Mg4 Mg7 2.919816 1_555
Mg4 V0 3.058141 1_655
Mg4 V0 3.058141 1_555
Mg4 Mg5 3.170674 1_555
Mg4 Mo1 3.344974 1_555
Mg5 Mo0 2.995836 1_555
Mg5 Mo0 2.995836 1_545
Mg5 Mg9 3.074566 1_554
Mg6 Mg7 2.861365 1_565
Mg6 V1 2.870523 1_565
Mg6 Mo1 3.040837 1_565
Mg6 Mo1 3.040837 1_465
Mg6 Mg7 3.109116 1_555
Mg6 Mg8 3.164345 1_555
Mg6 V0 3.375835 1_555
Mg7 V1 2.870523 1_555
Mg7 Mo1 3.040837 1_455
Mg7 Mo1 3.040837 1_555
Mg7 Mg8 3.164345 1_555
Mg7 V0 3.375835 1_555
Mg8 V1 2.997209 1_565
Mg8 V1 2.997209 1_555
Mg8 Mg9 3.006295 1_455
Mg8 Mg9 3.006295 1_555
Mg9 Mo1 2.901196 1_555
Mg9 V1 3.058141 1_555
Mg9 V1 3.058141 1_655
Mg9 Mo0 3.344974 1_556
Mg10 Mg9 2.882990 1_565
Mg10 Mo1 2.901196 1_565
Mg10 Mg8 3.006295 1_555
Mg10 Mg8 3.006295 1_655
Mg10 V1 3.058141 1_665
Mg10 V1 3.058141 1_565
Mg10 Mg5 3.074566 1_566
Mg10 Mg9 3.087491 1_555
Mg10 Mg11 3.170674 1_555
Mg10 Mo0 3.344974 1_556
Mg11 Mg8 2.941451 1_655
Mg11 Mg8 2.941451 1_555
Mg11 Mo1 2.995836 1_565
Mg11 Mo1 2.995836 1_555
Mg11 Mg6 3.007359 1_555
Mg11 Mg7 3.007359 1_555
Mg11 Mg6 3.007359 1_655
Mg11 Mg7 3.007359 1_655
Mg11 Mg3 3.074566 1_555
Mg11 Mg4 3.074566 1_555
Mg11 Mg9 3.170674 1_555
Mo0 V0 2.666278 1_555
Mo0 V0 2.666278 1_655
Mo1 V1 2.666278 1_555
Mo1 V1 2.666278 1_655
