# generated using pymatgen
data_UCoCuSi2
_symmetry_space_group_name_H-M   'P 1'
_cell_length_a   3.94319700
_cell_length_b   3.94319700
_cell_length_c   5.58980349
_cell_angle_alpha   69.34663763
_cell_angle_beta   69.34663763
_cell_angle_gamma   90.00000000
_symmetry_Int_Tables_number   1
_chemical_formula_structural   UCoCuSi2
_chemical_formula_sum   'U1 Co1 Cu1 Si2'
_cell_volume   75.32990582
_cell_formula_units_Z   1
loop_
 _symmetry_equiv_pos_site_id
 _symmetry_equiv_pos_as_xyz
  1  'x, y, z'
loop_
 _atom_site_type_symbol
 _atom_site_label
 _atom_site_symmetry_multiplicity
 _atom_site_fract_x
 _atom_site_fract_y
 _atom_site_fract_z
 _atom_site_occupancy
  U  U0  1  0.00000000  0.00000000  0.00000000  1
  Co  Co0  1  0.75000000  0.25000000  0.50000000  1
  Cu  Cu0  1  0.25000000  0.75000000  0.50000000  1
  Si  Si0  1  0.37957900  0.37957900  0.24084300  1
  Si  Si1  1  0.62042100  0.62042100  0.75915700  1
loop_
_geom_bond_atom_site_label_1
_geom_bond_atom_site_label_2
_geom_bond_distance
_geom_bond_site_symmetry_2
Co0 Si0 2.337433 1_555
Co0 Si1 2.337433 1_555
Co0 Si1 2.337437 1_545
Co0 Si0 2.337437 1_655
Co0 Cu0 2.788261 1_545
Co0 Cu0 2.788261 1_555
Co0 Cu0 2.788261 1_645
Co0 Cu0 2.788261 1_655
Co0 U0 3.123312 1_655
Co0 U0 3.123312 1_656
Co0 U0 3.123312 1_665
Co0 U0 3.123312 1_556
Cu0 Si0 2.337433 1_555
Cu0 Si1 2.337433 1_555
Cu0 Si1 2.337437 1_455
Cu0 Si0 2.337437 1_565
Cu0 U0 3.123312 1_565
Cu0 U0 3.123312 1_566
Cu0 U0 3.123312 1_665
Cu0 U0 3.123312 1_556
Si0 Si1 2.333643 1_554
Si0 U0 3.022558 1_665
Si0 U0 3.022561 1_655
Si0 U0 3.022561 1_565
Si0 U0 3.022563 1_555
Si1 U0 3.022558 1_556
Si1 U0 3.022561 1_656
Si1 U0 3.022561 1_566
Si1 U0 3.022563 1_666
