# generated using pymatgen
data_MgMn9CdO10
_symmetry_space_group_name_H-M   'P 1'
_cell_length_a   5.80873043
_cell_length_b   8.96875762
_cell_length_c   5.98338952
_cell_angle_alpha   70.53888601
_cell_angle_beta   112.17279914
_cell_angle_gamma   97.07694034
_symmetry_Int_Tables_number   1
_chemical_formula_structural   MgMn9CdO10
_chemical_formula_sum   'Mg1 Mn9 Cd1 O10'
_cell_volume   272.17243640
_cell_formula_units_Z   1
loop_
 _symmetry_equiv_pos_site_id
 _symmetry_equiv_pos_as_xyz
  1  'x, y, z'
loop_
 _atom_site_type_symbol
 _atom_site_label
 _atom_site_symmetry_multiplicity
 _atom_site_fract_x
 _atom_site_fract_y
 _atom_site_fract_z
 _atom_site_occupancy
  Mg  Mg0  1  0.12141300  0.79907900  0.98791200  1
  Mn  Mn0  1  0.50034700  0.38844400  0.31922400  1
  Mn  Mn1  1  0.97845500  0.07491300  0.99563700  1
  Mn  Mn2  1  0.52258800  0.00138000  0.44733600  1
  Mn  Mn3  1  0.97576800  0.52426300  0.27040100  1
  Mn  Mn4  1  0.02780500  0.17903600  0.46919500  1
  Mn  Mn5  1  0.50125900  0.21161300  0.90695600  1
  Mn  Mn6  1  0.52234700  0.59934400  0.64945000  1
  Mn  Mn7  1  0.02756300  0.42008300  0.84852200  1
  Mn  Mn8  1  0.93399000  0.79961700  0.45221100  1
  Cd  Cd0  1  0.58679300  0.80189200  0.98959900  1
  O  O0  1  0.77640100  0.05112000  0.24069500  1
  O  O1  1  0.70946600  0.41361700  0.02519200  1
  O  O2  1  0.71093400  0.18624500  0.63953300  1
  O  O3  1  0.77528500  0.54891700  0.49242300  1
  O  O4  1  0.24563800  0.21382600  0.18441100  1
  O  O5  1  0.24523500  0.80014200  0.36832300  1
  O  O6  1  0.77912500  0.80039100  0.70387500  1
  O  O7  1  0.21817600  0.02160700  0.83184700  1
  O  O8  1  0.24400300  0.38492400  0.59848700  1
  O  O9  1  0.21645600  0.57642300  0.05496000  1
loop_
_geom_bond_atom_site_label_1
_geom_bond_atom_site_label_2
_geom_bond_distance
_geom_bond_site_symmetry_2
Mg0 O9 2.006040 1_556
Mg0 O7 2.012223 1_565
Mg0 O6 2.069673 1_455
Mg0 O5 2.115497 1_556
Mn0 O4 2.159256 1_555
Mn0 O3 2.207751 1_555
Mn0 O2 2.217942 1_555
Mn0 O9 2.236635 1_555
Mn0 O1 2.429503 1_555
Mn0 O8 2.615632 1_555
Mn1 O4 2.091593 1_656
Mn1 O2 2.101722 1_555
Mn1 O0 2.145177 1_556
Mn1 O7 2.152736 1_655
Mn2 O0 2.178923 1_555
Mn2 O6 2.217613 1_545
Mn2 O2 2.267663 1_555
Mn2 O5 2.313814 1_545
Mn2 O4 2.353942 1_555
Mn3 O8 2.092723 1_655
Mn3 O1 2.099780 1_555
Mn3 O3 2.143998 1_555
Mn3 O9 2.152336 1_655
Mn4 O0 2.107921 1_455
Mn4 O7 2.111141 1_555
Mn4 O8 2.287471 1_555
Mn4 O4 2.403709 1_555
Mn4 O2 2.433111 1_455
Mn5 O8 2.152811 1_555
Mn5 O0 2.203739 1_556
Mn5 O1 2.216722 1_556
Mn5 O7 2.252095 1_555
Mn5 O2 2.424316 1_555
Mn5 O4 2.617429 1_556
Mn6 O3 2.175968 1_555
Mn6 O6 2.223520 1_555
Mn6 O1 2.262041 1_556
Mn6 O5 2.305602 1_555
Mn6 O8 2.378617 1_555
Mn7 O3 2.107693 1_455
Mn7 O9 2.108961 1_556
Mn7 O4 2.290037 1_556
Mn7 O8 2.397920 1_555
Mn7 O1 2.437617 1_456
Mn8 O6 2.026736 1_555
Mn8 O5 2.049850 1_655
Mn8 O3 2.293369 1_555
Mn8 O0 2.293429 1_565
Cd0 O6 2.373130 1_555
