# generated using pymatgen
data_Ba3B6H2O13
_symmetry_space_group_name_H-M   'P 1'
_cell_length_a   7.10638600
_cell_length_b   7.03745300
_cell_length_c   11.49424735
_cell_angle_alpha   89.03615100
_cell_angle_beta   90.00000000
_cell_angle_gamma   90.00000000
_symmetry_Int_Tables_number   1
_chemical_formula_structural   Ba3B6H2O13
_chemical_formula_sum   'Ba6 B12 H4 O26'
_cell_volume   574.75583084
_cell_formula_units_Z   2
loop_
 _symmetry_equiv_pos_site_id
 _symmetry_equiv_pos_as_xyz
  1  'x, y, z'
loop_
 _atom_site_type_symbol
 _atom_site_label
 _atom_site_symmetry_multiplicity
 _atom_site_fract_x
 _atom_site_fract_y
 _atom_site_fract_z
 _atom_site_occupancy
  Ba  Ba0  1  0.76678800  0.74118100  0.49461300  1
  Ba  Ba1  1  0.23321200  0.74118100  0.99461300  1
  Ba  Ba2  1  0.85069400  0.36355900  0.20230200  1
  Ba  Ba3  1  0.14930600  0.36355900  0.70230200  1
  Ba  Ba4  1  0.24702500  0.05712800  0.37787100  1
  Ba  Ba5  1  0.75297500  0.05712800  0.87787100  1
  B  B0  1  0.50103500  0.70873200  0.23332000  1
  B  B1  1  0.49896500  0.70873200  0.73332000  1
  B  B2  1  0.25702100  0.54973700  0.36564800  1
  B  B3  1  0.74297900  0.54973700  0.86564800  1
  B  B4  1  0.35242300  0.38322100  0.17553900  1
  B  B5  1  0.64757700  0.38322100  0.67553900  1
  B  B6  1  0.81036900  0.86739200  0.17542600  1
  B  B7  1  0.18963100  0.86739200  0.67542600  1
  B  B8  1  0.50290300  0.05026200  0.13470600  1
  B  B9  1  0.49709700  0.05026200  0.63470600  1
  B  B10  1  0.74271900  0.19442500  0.49445500  1
  B  B11  1  0.25728100  0.19442500  0.99445500  1
  H  H0  1  0.05881800  0.73226900  0.29110900  1
  H  H1  1  0.94118200  0.73226900  0.79110900  1
  H  H2  1  0.61275400  0.47816200  0.01737400  1
  H  H3  1  0.38724600  0.47816200  0.51737400  1
  O  O0  1  0.58093300  0.07924100  0.51480300  1
  O  O1  1  0.41906700  0.07924100  0.01480300  1
  O  O2  1  0.47730600  0.22060400  0.20388100  1
  O  O3  1  0.52269400  0.22060400  0.70388100  1
  O  O4  1  0.41381400  0.88622600  0.19064100  1
  O  O5  1  0.58618600  0.88622600  0.69064100  1
  O  O6  1  0.43223800  0.65835200  0.35003800  1
  O  O7  1  0.56776200  0.65835200  0.85003800  1
  O  O8  1  0.71038200  0.73319300  0.24287200  1
  O  O9  1  0.28961800  0.73319300  0.74287200  1
  O  O10  1  0.77200800  0.34477000  0.57105400  1
  O  O11  1  0.22799200  0.34477000  0.07105400  1
  O  O12  1  0.53372800  0.55331400  0.64887800  1
  O  O13  1  0.46627200  0.55331400  0.14887800  1
  O  O14  1  0.21955600  0.41472000  0.27119000  1
  O  O15  1  0.78044400  0.41472000  0.77119000  1
  O  O16  1  0.71027600  0.01440100  0.11744100  1
  O  O17  1  0.28972400  0.01440100  0.61744100  1
  O  O18  1  0.08809100  0.67975500  0.37159800  1
  O  O19  1  0.91190900  0.67975500  0.87159800  1
  O  O20  1  0.72929200  0.44010900  0.97803700  1
  O  O21  1  0.27070800  0.44010900  0.47803700  1
  O  O22  1  0.86142900  0.15493100  0.40674900  1
  O  O23  1  0.13857100  0.15493100  0.90674900  1
  O  O24  1  0.99867100  0.85504700  0.16724400  1
  O  O25  1  0.00132900  0.85504700  0.66724400  1
loop_
_geom_bond_atom_site_label_1
_geom_bond_atom_site_label_2
_geom_bond_distance
_geom_bond_site_symmetry_2
Ba0 O25 2.722304 1_655
Ba0 O18 2.724005 1_655
Ba0 O0 2.734385 1_565
Ba0 O12 2.748861 1_555
Ba0 O5 2.800602 1_555
Ba0 O10 2.910922 1_555
Ba0 O8 2.922683 1_555
Ba0 O6 2.964137 1_555
Ba0 O22 3.138730 1_565
Ba1 O24 2.722304 1_456
Ba1 O19 2.724005 1_455
Ba1 O1 2.734385 1_566
Ba1 O13 2.748861 1_556
Ba1 O4 2.800602 1_556
Ba1 O11 2.910922 1_556
Ba1 O9 2.922683 1_555
Ba1 O7 2.964137 1_555
Ba1 O23 3.138730 1_565
Ba2 O22 2.750948 1_555
Ba2 O20 2.762722 1_554
Ba2 O14 2.763563 1_655
Ba2 O8 2.831813 1_555
Ba2 O2 2.837705 1_555
Ba2 O16 2.839991 1_555
Ba2 O11 3.080427 1_655
Ba3 O23 2.750948 1_555
Ba3 O21 2.762722 1_555
Ba3 O15 2.763563 1_455
Ba3 O9 2.831813 1_555
Ba3 O3 2.837705 1_555
Ba3 O17 2.839991 1_555
Ba3 O10 3.080427 1_455
Ba4 O4 2.751337 1_545
Ba4 O17 2.781612 1_555
Ba4 O14 2.787626 1_555
Ba4 O2 2.814906 1_555
Ba4 H0 2.843710 1_545
Ba4 O22 2.846096 1_455
Ba4 O0 2.853116 1_555
Ba4 O18 2.887953 1_545
Ba4 O21 2.953380 1_555
Ba4 O6 3.120997 1_545
Ba4 O24 3.333828 1_445
Ba5 O5 2.751337 1_545
Ba5 O16 2.781612 1_556
Ba5 O15 2.787626 1_555
Ba5 O3 2.814906 1_555
Ba5 H1 2.843710 1_545
Ba5 O23 2.846096 1_655
Ba5 O1 2.853116 1_556
Ba5 O19 2.887953 1_545
Ba5 O20 2.953380 1_555
Ba5 O7 3.120997 1_545
Ba5 O25 3.333828 1_645
B0 O6 1.465802 1_555
B0 O4 1.471219 1_555
B0 O13 1.495020 1_555
B0 O8 1.501858 1_555
B1 O7 1.465802 1_555
B1 O5 1.471219 1_555
B1 O12 1.495020 1_555
B1 O9 1.501858 1_555
B2 O6 1.470465 1_555
B2 O14 1.478926 1_555
B2 O21 1.496650 1_555
B2 O18 1.511673 1_555
B3 O7 1.470465 1_555
B3 O15 1.478926 1_555
B3 O20 1.496650 1_555
B3 O19 1.511673 1_555
B4 O14 1.468884 1_555
B4 O13 1.472752 1_555
B4 O2 1.480153 1_555
B4 O11 1.519344 1_555
B5 O15 1.468884 1_555
B5 O12 1.472752 1_555
B5 O3 1.480153 1_555
B5 O10 1.519344 1_555
B6 O24 1.344360 1_555
B6 O8 1.404696 1_555
B6 O16 1.413257 1_565
B7 O25 1.344360 1_555
B7 O9 1.404696 1_555
B7 O17 1.413257 1_565
B8 O4 1.456652 1_545
B8 O2 1.460966 1_555
B8 O16 1.508797 1_555
B8 O1 1.512117 1_555
B9 O5 1.456652 1_545
B9 O3 1.460966 1_555
B9 O17 1.508797 1_555
B9 O0 1.512117 1_555
B10 O22 1.347082 1_555
B10 O10 1.403322 1_555
B10 O0 1.423812 1_555
B11 O23 1.347082 1_555
B11 O11 1.403322 1_556
B11 O1 1.423812 1_556
H0 O18 1.012063 1_555
H1 O19 1.012063 1_555
H2 O20 0.982895 1_554
H3 O21 0.982895 1_555
