# generated using pymatgen
data_TiO2
_symmetry_space_group_name_H-M   'P 1'
_cell_length_a   4.84383200
_cell_length_b   4.99585600
_cell_length_c   9.44241000
_cell_angle_alpha   90.00000000
_cell_angle_beta   90.00000000
_cell_angle_gamma   90.00000000
_symmetry_Int_Tables_number   1
_chemical_formula_structural   TiO2
_chemical_formula_sum   'Ti8 O16'
_cell_volume   228.49770259
_cell_formula_units_Z   8
loop_
 _symmetry_equiv_pos_site_id
 _symmetry_equiv_pos_as_xyz
  1  'x, y, z'
loop_
 _atom_site_type_symbol
 _atom_site_label
 _atom_site_symmetry_multiplicity
 _atom_site_fract_x
 _atom_site_fract_y
 _atom_site_fract_z
 _atom_site_occupancy
  Ti  Ti0  1  0.74995600  0.95815200  0.38500000  1
  Ti  Ti1  1  0.25004400  0.54184800  0.88500000  1
  Ti  Ti2  1  0.75004400  0.45815200  0.61500000  1
  Ti  Ti3  1  0.24995600  0.04184800  0.11500000  1
  Ti  Ti4  1  0.25004400  0.04184800  0.61500000  1
  Ti  Ti5  1  0.74995600  0.45815200  0.11500000  1
  Ti  Ti6  1  0.24995600  0.54184800  0.38500000  1
  Ti  Ti7  1  0.75004400  0.95815200  0.88500000  1
  O  O0  1  0.63836400  0.62359500  0.28929100  1
  O  O1  1  0.36163600  0.87640500  0.78929100  1
  O  O2  1  0.86163600  0.12359500  0.71070900  1
  O  O3  1  0.13836400  0.37640500  0.21070900  1
  O  O4  1  0.36163600  0.37640500  0.71070900  1
  O  O5  1  0.63836400  0.12359500  0.21070900  1
  O  O6  1  0.13836400  0.87640500  0.28929100  1
  O  O7  1  0.86163600  0.62359500  0.78929100  1
  O  O8  1  0.99577500  0.26270400  0.47429600  1
  O  O9  1  0.00422500  0.23729600  0.97429600  1
  O  O10  1  0.50422500  0.76270400  0.52570400  1
  O  O11  1  0.49577500  0.73729600  0.02570400  1
  O  O12  1  0.00422500  0.73729600  0.52570400  1
  O  O13  1  0.99577500  0.76270400  0.02570400  1
  O  O14  1  0.49577500  0.23729600  0.47429600  1
  O  O15  1  0.50422500  0.26270400  0.97429600  1
loop_
_geom_bond_atom_site_label_1
_geom_bond_atom_site_label_2
_geom_bond_distance
_geom_bond_site_symmetry_2
O0 Ti5 1.919308 1_555
O0 Ti0 1.975466 1_555
O0 Ti6 2.126760 1_555
O1 Ti4 1.919308 1_565
O1 Ti1 1.975466 1_555
O1 Ti7 2.126760 1_555
O2 Ti7 1.919308 1_545
O2 Ti2 1.975466 1_555
O2 Ti4 2.126760 1_655
O3 Ti6 1.919308 1_555
O3 Ti3 1.975466 1_555
O3 Ti5 2.126760 1_455
O4 Ti1 1.919308 1_555
O4 Ti4 1.975466 1_555
O4 Ti2 2.126760 1_555
O5 Ti0 1.919308 1_545
O5 Ti5 1.975466 1_555
O5 Ti3 2.126760 1_555
O6 Ti3 1.919308 1_565
O6 Ti6 1.975466 1_555
O6 Ti0 2.126760 1_455
O7 Ti2 1.919308 1_555
O7 Ti7 1.975466 1_555
O7 Ti1 2.126760 1_655
O8 Ti2 2.033548 1_555
O8 Ti6 2.042454 1_655
O8 Ti0 2.108002 1_545
O8 Ti4 2.121198 1_655
O9 Ti3 2.033548 1_556
O9 Ti7 2.042454 1_445
O9 Ti1 2.108002 1_555
O9 Ti5 2.121198 1_456
O10 Ti0 2.033548 1_555
O10 Ti4 2.042454 1_565
O10 Ti2 2.108002 1_555
O10 Ti6 2.121198 1_555
O11 Ti1 2.033548 1_554
O11 Ti5 2.042454 1_555
O11 Ti3 2.108002 1_565
O11 Ti7 2.121198 1_554
O12 Ti6 2.033548 1_555
O12 Ti2 2.042454 1_455
O12 Ti4 2.108002 1_565
O12 Ti0 2.121198 1_455
O13 Ti7 2.033548 1_554
O13 Ti3 2.042454 1_665
O13 Ti5 2.108002 1_555
O13 Ti1 2.121198 1_654
O14 Ti4 2.033548 1_555
O14 Ti0 2.042454 1_545
O14 Ti6 2.108002 1_555
O14 Ti2 2.121198 1_555
O15 Ti5 2.033548 1_556
O15 Ti1 2.042454 1_555
O15 Ti7 2.108002 1_545
O15 Ti3 2.121198 1_556
