# generated using pymatgen
data_CaLaFeO4
_symmetry_space_group_name_H-M   'P 1'
_cell_length_a   6.78647762
_cell_length_b   6.78647762
_cell_length_c   5.50738400
_cell_angle_alpha   90.00000000
_cell_angle_beta   90.00000000
_cell_angle_gamma   132.07167032
_symmetry_Int_Tables_number   1
_chemical_formula_structural   CaLaFeO4
_chemical_formula_sum   'Ca2 La2 Fe2 O8'
_cell_volume   188.28594274
_cell_formula_units_Z   2
loop_
 _symmetry_equiv_pos_site_id
 _symmetry_equiv_pos_as_xyz
  1  'x, y, z'
loop_
 _atom_site_type_symbol
 _atom_site_label
 _atom_site_symmetry_multiplicity
 _atom_site_fract_x
 _atom_site_fract_y
 _atom_site_fract_z
 _atom_site_occupancy
  Ca  Ca0  1  0.89540900  0.10459100  0.25000000  1
  Ca  Ca1  1  0.10459100  0.89540900  0.75000000  1
  La  La0  1  0.39175800  0.60824200  0.75000000  1
  La  La1  1  0.60824200  0.39175800  0.25000000  1
  Fe  Fe0  1  0.24582600  0.75417400  0.25000000  1
  Fe  Fe1  1  0.75417400  0.24582600  0.75000000  1
  O  O0  1  0.07960100  0.92039900  0.25000000  1
  O  O1  1  0.57765800  0.42234200  0.75000000  1
  O  O2  1  0.42234200  0.57765800  0.25000000  1
  O  O3  1  0.92039900  0.07960100  0.75000000  1
  O  O4  1  0.53571800  0.02921400  0.03260900  1
  O  O5  1  0.97078600  0.46428200  0.46739100  1
  O  O6  1  0.46428200  0.97078600  0.53260900  1
  O  O7  1  0.02921400  0.53571800  0.96739100  1
loop_
_geom_bond_atom_site_label_1
_geom_bond_atom_site_label_2
_geom_bond_distance
_geom_bond_site_symmetry_2
Ca0 O0 2.284526 1_645
Ca0 O4 2.445475 1_555
Ca0 O5 2.445475 1_555
Ca0 O3 2.771081 1_555
Ca0 O3 2.771081 1_554
Ca0 O2 2.776599 1_655
Ca0 O2 2.776599 1_545
Ca0 O6 2.871774 1_545
Ca0 O7 2.871774 1_654
Ca1 O3 2.284526 1_465
Ca1 O6 2.445475 1_555
Ca1 O7 2.445475 1_555
Ca1 O0 2.771081 1_556
Ca1 O0 2.771081 1_555
Ca1 O1 2.776599 1_565
Ca1 O1 2.776599 1_455
Ca1 O4 2.871774 1_566
Ca1 O5 2.871774 1_455
La0 O1 2.305711 1_555
La0 O7 2.471109 1_555
La0 O6 2.471109 1_555
La0 O3 2.779227 1_565
La0 O3 2.779227 1_455
La0 O2 2.779696 1_555
La0 O2 2.779696 1_556
La0 O5 2.792576 1_455
La0 O4 2.792576 1_566
La1 O2 2.305711 1_555
La1 O4 2.471109 1_555
La1 O5 2.471109 1_555
La1 O0 2.779227 1_545
La1 O0 2.779227 1_655
La1 O1 2.779696 1_555
La1 O1 2.779696 1_554
La1 O6 2.792576 1_545
La1 O7 2.792576 1_654
Fe0 O7 1.964889 1_554
Fe0 O6 1.964889 1_555
Fe0 O5 1.966409 1_455
Fe0 O4 1.966409 1_565
Fe0 O0 2.061682 1_555
Fe0 O2 2.189321 1_555
Fe1 O4 1.964889 1_556
Fe1 O5 1.964889 1_555
Fe1 O6 1.966409 1_545
Fe1 O7 1.966409 1_655
Fe1 O3 2.061682 1_555
Fe1 O1 2.189321 1_555
