# generated using pymatgen
data_Na3B
_symmetry_space_group_name_H-M   'P 1'
_cell_length_a   5.29799505
_cell_length_b   5.29799505
_cell_length_c   5.29799505
_cell_angle_alpha   129.04211627
_cell_angle_beta   129.04211627
_cell_angle_gamma   74.94281635
_symmetry_Int_Tables_number   1
_chemical_formula_structural   Na3B
_chemical_formula_sum   'Na3 B1'
_cell_volume   87.36280993
_cell_formula_units_Z   1
loop_
 _symmetry_equiv_pos_site_id
 _symmetry_equiv_pos_as_xyz
  1  'x, y, z'
loop_
 _atom_site_type_symbol
 _atom_site_label
 _atom_site_symmetry_multiplicity
 _atom_site_fract_x
 _atom_site_fract_y
 _atom_site_fract_z
 _atom_site_occupancy
  Na  Na0  1  0.75000000  0.25000000  0.50000000  1
  Na  Na1  1  0.25000000  0.75000000  0.50000000  1
  Na  Na2  1  0.50000000  0.50000000  0.00000000  1
  B  B0  1  0.00000000  0.00000000  0.00000000  1
loop_
_geom_bond_atom_site_label_1
_geom_bond_atom_site_label_2
_geom_bond_distance
_geom_bond_site_symmetry_2
Na0 Na2 3.100695 1_556
Na0 Na2 3.100695 1_555
Na0 Na2 3.100695 1_656
Na0 Na2 3.100695 1_545
Na1 Na2 3.100695 1_556
Na1 Na2 3.100695 1_566
Na1 Na2 3.100695 1_555
Na1 Na2 3.100695 1_455
B0 Na0 3.100695 1_455
B0 Na0 3.100695 1_454
B0 Na1 3.100695 1_544
B0 Na1 3.100695 1_444
B0 Na0 3.100695 1_555
B0 Na1 3.100695 1_545
B0 Na1 3.100695 1_555
B0 Na0 3.100695 1_444
B0 Na2 3.223117 1_444
B0 Na2 3.223117 1_455
B0 Na2 3.223117 1_556
B0 Na2 3.223117 1_545
