# generated using pymatgen
data_K2LiH2(SeO3)2
_symmetry_space_group_name_H-M   'P 1'
_cell_length_a   5.23634771
_cell_length_b   7.16933986
_cell_length_c   6.88345926
_cell_angle_alpha   115.55983827
_cell_angle_beta   104.93528825
_cell_angle_gamma   97.18175214
_symmetry_Int_Tables_number   1
_chemical_formula_structural   K2LiH2(SeO3)2
_chemical_formula_sum   'K2 Li1 H2 Se2 O6'
_cell_volume   216.81940179
_cell_formula_units_Z   1
loop_
 _symmetry_equiv_pos_site_id
 _symmetry_equiv_pos_as_xyz
  1  'x, y, z'
loop_
 _atom_site_type_symbol
 _atom_site_label
 _atom_site_symmetry_multiplicity
 _atom_site_fract_x
 _atom_site_fract_y
 _atom_site_fract_z
 _atom_site_occupancy
  K  K0  1  0.34673800  0.62906600  0.19341100  1
  K  K1  1  0.65249700  0.28182000  0.77940700  1
  Li  Li0  1  0.53316100  0.76478400  0.83339000  1
  H  H0  1  0.22068100  0.14098900  0.03296300  1
  H  H1  1  0.91029100  0.77212700  0.05473500  1
  Se  Se0  1  0.93439300  0.21885100  0.32050500  1
  Se  Se1  1  0.01705900  0.85179600  0.64995600  1
  O  O0  1  0.19161300  0.13861500  0.87952100  1
  O  O1  1  0.73317300  0.70037600  0.04489100  1
  O  O2  1  0.90399700  0.42686700  0.26501400  1
  O  O3  1  0.14894300  0.72890600  0.79731100  1
  O  O4  1  0.24457800  0.17089800  0.30144400  1
  O  O5  1  0.68787400  0.84157300  0.64374700  1
loop_
_geom_bond_atom_site_label_1
_geom_bond_atom_site_label_2
_geom_bond_distance
_geom_bond_site_symmetry_2
K0 O1 2.580656 1_555
K0 O5 2.740662 1_555
K0 O2 2.843293 1_455
K0 O3 3.071303 1_554
K0 O0 3.085026 1_554
K1 O1 2.660036 1_556
K1 O0 2.863826 1_555
K1 O2 2.894495 1_556
K1 O5 2.925830 1_545
K1 O4 3.116809 1_555
K1 O0 3.135401 1_655
K1 Se0 3.701411 1_555
Li0 O1 1.828859 1_556
Li0 O5 1.928004 1_555
Li0 O3 1.932230 1_555
H0 O0 1.019810 1_554
H0 O4 1.734695 1_555
H1 O1 0.973454 1_555
H1 K0 2.737259 1_655
O0 Se1 1.882157 1_545
O2 Se0 1.707304 1_555
O3 Se1 1.686470 1_555
O4 Se0 1.727453 1_455
O5 Se1 1.704749 1_655
