# generated using pymatgen
data_PrZn(NiO3)2
_symmetry_space_group_name_H-M   'P 1'
_cell_length_a   5.22096800
_cell_length_b   5.42266100
_cell_length_c   7.58475600
_cell_angle_alpha   90.00000000
_cell_angle_beta   90.00000000
_cell_angle_gamma   90.00000000
_symmetry_Int_Tables_number   1
_chemical_formula_structural   PrZn(NiO3)2
_chemical_formula_sum   'Pr2 Zn2 Ni4 O12'
_cell_volume   214.73611952
_cell_formula_units_Z   2
loop_
 _symmetry_equiv_pos_site_id
 _symmetry_equiv_pos_as_xyz
  1  'x, y, z'
loop_
 _atom_site_type_symbol
 _atom_site_label
 _atom_site_symmetry_multiplicity
 _atom_site_fract_x
 _atom_site_fract_y
 _atom_site_fract_z
 _atom_site_occupancy
  Pr  Pr0  1  0.01101800  0.70664200  0.00000000  1
  Pr  Pr1  1  0.51101800  0.29335800  0.50000000  1
  Zn  Zn0  1  0.47318100  0.19871800  0.00000000  1
  Zn  Zn1  1  0.97318100  0.80128200  0.50000000  1
  Ni  Ni0  1  0.99808400  0.24789000  0.75155200  1
  Ni  Ni1  1  0.99808400  0.24789000  0.24844800  1
  Ni  Ni2  1  0.49808400  0.75211000  0.25155200  1
  Ni  Ni3  1  0.49808400  0.75211000  0.74844800  1
  O  O0  1  0.07443600  0.19922800  0.50000000  1
  O  O1  1  0.23554700  0.98942300  0.81059700  1
  O  O2  1  0.23554700  0.98942300  0.18940300  1
  O  O3  1  0.30591300  0.44877300  0.19236700  1
  O  O4  1  0.30591300  0.44877300  0.80763300  1
  O  O5  1  0.36255600  0.73076700  0.50000000  1
  O  O6  1  0.57443600  0.80077200  0.00000000  1
  O  O7  1  0.73554700  0.01057700  0.68940300  1
  O  O8  1  0.73554700  0.01057700  0.31059700  1
  O  O9  1  0.80591300  0.55122700  0.69236700  1
  O  O10  1  0.80591300  0.55122700  0.30763300  1
  O  O11  1  0.86255600  0.26923300  0.00000000  1
loop_
_geom_bond_atom_site_label_1
_geom_bond_atom_site_label_2
_geom_bond_distance
_geom_bond_site_symmetry_2
Ni0 O1 1.924073 1_645
Ni0 O7 1.938310 1_555
Ni0 O0 1.966940 1_655
Ni0 O9 1.978342 1_555
Ni0 O4 1.987594 1_655
Ni0 O11 2.016210 1_556
Ni1 O2 1.924073 1_645
Ni1 O8 1.938310 1_555
Ni1 O0 1.966940 1_655
Ni1 O10 1.978342 1_555
Ni1 O3 1.987594 1_655
Ni1 O11 2.016210 1_555
Ni2 O8 1.924073 1_565
Ni2 O2 1.938310 1_555
Ni2 O6 1.966940 1_555
Ni2 O3 1.978342 1_555
Ni2 O10 1.987594 1_555
Ni2 O5 2.016210 1_555
Ni3 O7 1.924073 1_565
Ni3 O1 1.938310 1_555
Ni3 O6 1.966940 1_556
Ni3 O4 1.978342 1_555
Ni3 O9 1.987594 1_555
Ni3 O5 2.016210 1_555
O0 Zn1 2.221737 1_445
O0 Pr1 2.335834 1_555
O1 Zn0 2.211586 1_566
O1 Pr0 2.406103 1_556
O2 Zn0 2.211586 1_565
O2 Pr0 2.406103 1_555
O3 Zn0 2.174888 1_555
O3 Pr0 2.540605 1_555
O3 Pr1 2.702101 1_555
O4 Zn0 2.174888 1_556
O4 Pr0 2.540605 1_556
O4 Pr1 2.702101 1_555
O5 Zn1 2.068563 1_455
O5 Pr1 2.495358 1_555
O6 Zn0 2.221737 1_565
O6 Pr0 2.335834 1_655
O7 Zn1 2.211586 1_545
O7 Pr1 2.406103 1_555
O8 Zn1 2.211586 1_545
O8 Pr1 2.406103 1_555
O9 Zn1 2.174888 1_555
O9 Pr1 2.540605 1_555
O9 Pr0 2.702101 1_656
O10 Zn1 2.174888 1_555
O10 Pr1 2.540605 1_555
O10 Pr0 2.702101 1_655
O11 Zn0 2.068563 1_555
O11 Pr0 2.495358 1_655
