# generated using pymatgen
data_Sb2(PSe3)3
_symmetry_space_group_name_H-M   'P 1'
_cell_length_a   7.60373550
_cell_length_b   9.59538792
_cell_length_c   23.42982886
_cell_angle_alpha   66.33443672
_cell_angle_beta   89.98463378
_cell_angle_gamma   89.99723982
_symmetry_Int_Tables_number   1
_chemical_formula_structural   Sb2(PSe3)3
_chemical_formula_sum   'Sb8 P12 Se36'
_cell_volume   1565.70017262
_cell_formula_units_Z   4
loop_
 _symmetry_equiv_pos_site_id
 _symmetry_equiv_pos_as_xyz
  1  'x, y, z'
loop_
 _atom_site_type_symbol
 _atom_site_label
 _atom_site_symmetry_multiplicity
 _atom_site_fract_x
 _atom_site_fract_y
 _atom_site_fract_z
 _atom_site_occupancy
  Sb  Sb0  1  0.77863218  0.39082316  0.85773278  1
  Sb  Sb1  1  0.27883827  0.60920302  0.64225659  1
  Sb  Sb2  1  0.22141396  0.60934139  0.14222932  1
  Sb  Sb3  1  0.72116895  0.39084918  0.35780122  1
  Sb  Sb4  1  0.90785648  0.05397172  0.15482527  1
  Sb  Sb5  1  0.40772963  0.94609549  0.34515435  1
  Sb  Sb6  1  0.09222599  0.94604056  0.84512848  1
  Sb  Sb7  1  0.59256797  0.05425301  0.65472548  1
  P  P0  1  0.95375447  0.57617111  0.95173703  1
  P  P1  1  0.45366963  0.42381228  0.54820902  1
  P  P2  1  0.04618780  0.42401866  0.04826797  1
  P  P3  1  0.54631402  0.57614695  0.45174874  1
  P  P4  1  0.06647916  0.92256942  0.64482507  1
  P  P5  1  0.56634691  0.07742575  0.85503574  1
  P  P6  1  0.93343700  0.07727483  0.35518824  1
  P  P7  1  0.43373904  0.92262781  0.14495067  1
  P  P8  1  0.15129005  0.24739379  0.31526483  1
  P  P9  1  0.65149412  0.75238853  0.18482134  1
  P  P10  1  0.84854178  0.75256123  0.68477512  1
  P  P11  1  0.34842525  0.24761759  0.81518678  1
  Se  Se0  1  0.74913552  0.77447110  0.76700697  1
  Se  Se1  1  0.03835345  0.47277335  0.29908860  1
  Se  Se2  1  0.46158644  0.47302515  0.79895647  1
  Se  Se3  1  0.96159742  0.52715896  0.70103846  1
  Se  Se4  1  0.85040628  0.84055482  0.10892078  1
  Se  Se5  1  0.35028046  0.15940632  0.39107270  1
  Se  Se6  1  0.14947639  0.15945186  0.89103949  1
  Se  Se7  1  0.64975004  0.84047882  0.60891303  1
  Se  Se8  1  0.23120915  0.85357715  0.21564288  1
  Se  Se9  1  0.73093323  0.14642997  0.28446338  1
  Se  Se10  1  0.76886597  0.14654659  0.78430212  1
  Se  Se11  1  0.53844821  0.52703997  0.20099450  1
  Se  Se12  1  0.55806979  0.14526100  0.12007437  1
  Se  Se13  1  0.05787178  0.85473983  0.38000043  1
  Se  Se14  1  0.44200593  0.85477051  0.87994867  1
  Se  Se15  1  0.94209516  0.14525786  0.61996958  1
  Se  Se16  1  0.35177766  0.87358045  0.06355192  1
  Se  Se17  1  0.85134920  0.12645055  0.43652344  1
  Se  Se18  1  0.64834108  0.12641798  0.93644317  1
  Se  Se19  1  0.14850151  0.87346941  0.56350272  1
  Se  Se20  1  0.57565875  0.80094580  0.45649768  1
  Se  Se21  1  0.07576353  0.19910013  0.04352406  1
  Se  Se22  1  0.42440669  0.19904127  0.54343095  1
  Se  Se23  1  0.92427193  0.80103257  0.95644060  1
  Se  Se24  1  0.36081160  0.56910481  0.38442399  1
  Se  Se25  1  0.86082002  0.43071080  0.11575929  1
  Se  Se26  1  0.63900777  0.43033522  0.61570143  1
  Se  Se27  1  0.13924433  0.56924936  0.88434635  1
  Se  Se28  1  0.81126004  0.48125619  0.44698758  1
  Se  Se29  1  0.31119478  0.51881429  0.05300470  1
  Se  Se30  1  0.18878932  0.51877885  0.55303987  1
  Se  Se31  1  0.68887776  0.48116241  0.94701066  1
  Se  Se32  1  0.25079493  0.22542467  0.23303591  1
  Se  Se33  1  0.75088337  0.77450897  0.26700904  1
  Se  Se34  1  0.26892854  0.85361143  0.71548061  1
  Se  Se35  1  0.24911933  0.22547312  0.73299058  1
loop_
_geom_bond_atom_site_label_1
_geom_bond_atom_site_label_2
_geom_bond_distance
_geom_bond_site_symmetry_2
Sb0 Se31 2.654710 1_555
Sb0 Se18 2.657504 1_555
Sb0 Se2 2.731266 1_555
Sb1 Se30 2.654804 1_555
Sb1 Se19 2.657329 1_555
Sb1 Se3 2.731911 1_455
Sb2 Se29 2.654774 1_555
Sb2 Se16 2.656393 1_555
Sb2 Se11 2.731171 1_555
Sb3 Se28 2.654127 1_555
Sb3 Se17 2.657512 1_555
Sb3 Se1 2.730804 1_655
Sb4 Se4 2.703637 1_545
Sb4 Se21 2.729973 1_655
Sb4 Se12 2.816476 1_555
Sb4 Se8 3.094319 1_645
Sb4 Se33 3.140759 1_545
Sb5 Se5 2.702805 1_565
Sb5 Se20 2.731410 1_555
Sb5 Se13 2.817145 1_555
Sb5 Se9 3.092081 1_565
Sb5 Se32 3.139666 1_565
Sb6 Se6 2.703449 1_565
Sb6 Se23 2.730186 1_455
Sb6 Se14 2.816659 1_555
Sb6 Se10 3.094873 1_465
Sb6 Se35 3.139848 1_565
Sb7 Se7 2.704816 1_545
Sb7 Se22 2.730941 1_555
Sb7 Se15 2.813768 1_555
Sb7 Se34 3.096319 1_545
Sb7 Se0 3.142744 1_545
P0 Se27 2.137699 1_655
P0 Se23 2.215538 1_555
P0 Se31 2.231840 1_555
P0 P2 2.256258 1_656
P1 Se26 2.138041 1_555
P1 Se22 2.215304 1_555
P1 Se30 2.232082 1_555
P1 P3 2.255624 1_555
P2 Se25 2.138138 1_455
P2 Se21 2.216571 1_555
P2 Se29 2.231911 1_555
P3 Se24 2.137544 1_555
P3 Se20 2.215331 1_555
P3 Se28 2.231872 1_555
P4 Se34 2.160994 1_555
P4 Se15 2.191029 1_465
P4 Se19 2.227411 1_555
P5 Se10 2.161960 1_555
P5 Se14 2.190396 1_545
P5 Se18 2.228951 1_555
P6 Se9 2.162332 1_555
P6 Se13 2.190045 1_645
P6 Se17 2.228236 1_555
P6 P8 2.248818 1_655
P7 Se8 2.161395 1_555
P7 Se12 2.190287 1_565
P7 Se16 2.228983 1_555
P7 P9 2.249015 1_555
P8 Se32 2.157305 1_555
P8 Se1 2.213579 1_555
P8 Se5 2.225852 1_555
P9 Se33 2.157128 1_555
P9 Se11 2.213649 1_555
P9 Se4 2.226359 1_555
P10 Se0 2.156847 1_555
P10 Se3 2.213678 1_555
P10 Se7 2.225607 1_555
P10 P4 2.248774 1_655
P11 Se35 2.157197 1_555
P11 Se2 2.214208 1_555
P11 Se6 2.225824 1_555
P11 P5 2.249630 1_555
