# generated using pymatgen
data_BaMg14CrO16
_symmetry_space_group_name_H-M   'P 1'
_cell_length_a   8.72278035
_cell_length_b   8.72278035
_cell_length_c   4.56417990
_cell_angle_alpha   90.00000000
_cell_angle_beta   90.00000000
_cell_angle_gamma   90.00000000
_symmetry_Int_Tables_number   1
_chemical_formula_structural   BaMg14CrO16
_chemical_formula_sum   'Ba1 Mg14 Cr1 O16'
_cell_volume   347.27428610
_cell_formula_units_Z   1
loop_
 _symmetry_equiv_pos_site_id
 _symmetry_equiv_pos_as_xyz
  1  'x, y, z'
loop_
 _atom_site_type_symbol
 _atom_site_label
 _atom_site_symmetry_multiplicity
 _atom_site_fract_x
 _atom_site_fract_y
 _atom_site_fract_z
 _atom_site_occupancy
  Ba  Ba0  1  0.00000000  0.00000000  0.00000000  1
  Mg  Mg0  1  0.00000000  0.50000000  0.00000000  1
  Mg  Mg1  1  0.50000000  0.00000000  0.00000000  1
  Mg  Mg2  1  0.00000000  0.26422047  0.50000000  1
  Mg  Mg3  1  0.00000000  0.73577953  0.50000000  1
  Mg  Mg4  1  0.50000000  0.25364637  0.50000000  1
  Mg  Mg5  1  0.50000000  0.74635363  0.50000000  1
  Mg  Mg6  1  0.26422047  0.00000000  0.50000000  1
  Mg  Mg7  1  0.25364637  0.50000000  0.50000000  1
  Mg  Mg8  1  0.73577953  0.00000000  0.50000000  1
  Mg  Mg9  1  0.74635363  0.50000000  0.50000000  1
  Mg  Mg10  1  0.25814753  0.25814753  0.00000000  1
  Mg  Mg11  1  0.25814753  0.74185247  0.00000000  1
  Mg  Mg12  1  0.74185247  0.25814753  0.00000000  1
  Mg  Mg13  1  0.74185247  0.74185247  0.00000000  1
  Cr  Cr0  1  0.50000000  0.50000000  0.00000000  1
  O  O0  1  0.28073501  0.00000000  0.00000000  1
  O  O1  1  0.25395414  0.50000000  0.00000000  1
  O  O2  1  0.71926499  0.00000000  0.00000000  1
  O  O3  1  0.74604586  0.50000000  0.00000000  1
  O  O4  1  0.25050665  0.25050665  0.50000000  1
  O  O5  1  0.25050665  0.74949335  0.50000000  1
  O  O6  1  0.74949335  0.25050665  0.50000000  1
  O  O7  1  0.74949335  0.74949335  0.50000000  1
  O  O8  1  0.00000000  0.00000000  0.50000000  1
  O  O9  1  0.00000000  0.50000000  0.50000000  1
  O  O10  1  0.50000000  0.00000000  0.50000000  1
  O  O11  1  0.50000000  0.50000000  0.50000000  1
  O  O12  1  0.00000000  0.28073501  0.00000000  1
  O  O13  1  0.00000000  0.71926499  0.00000000  1
  O  O14  1  0.50000000  0.25395414  0.00000000  1
  O  O15  1  0.50000000  0.74604586  0.00000000  1
loop_
_geom_bond_atom_site_label_1
_geom_bond_atom_site_label_2
_geom_bond_distance
_geom_bond_site_symmetry_2
Ba0 O8 2.282090 1_554
Ba0 O8 2.282090 1_555
Ba0 O0 2.448790 1_555
Ba0 O12 2.448790 1_555
Ba0 O2 2.448790 1_455
Ba0 O13 2.448790 1_545
Mg0 O12 1.912600 1_555
Mg0 O13 1.912600 1_555
Mg0 O3 2.215186 1_455
Mg0 O1 2.215186 1_555
Mg0 O9 2.282090 1_555
Mg0 O9 2.282090 1_554
Mg1 O0 1.912600 1_555
Mg1 O2 1.912600 1_555
Mg1 O15 2.215186 1_545
Mg1 O14 2.215186 1_555
Mg1 O10 2.282090 1_555
Mg1 O10 2.282090 1_554
Mg2 O9 2.056653 1_555
Mg2 O6 2.188386 1_455
Mg2 O4 2.188386 1_555
Mg2 O12 2.286632 1_556
Mg2 O12 2.286632 1_555
Mg2 O8 2.304737 1_555
Mg3 O9 2.056653 1_555
Mg3 O7 2.188386 1_455
Mg3 O5 2.188386 1_555
Mg3 O13 2.286632 1_555
Mg3 O13 2.286632 1_556
Mg3 O8 2.304737 1_565
Mg4 O11 2.148889 1_555
Mg4 O4 2.176448 1_555
Mg4 O6 2.176448 1_555
Mg4 O10 2.212502 1_555
Mg4 O14 2.282092 1_555
Mg4 O14 2.282092 1_556
Mg5 O11 2.148889 1_555
Mg5 O5 2.176448 1_555
Mg5 O7 2.176448 1_555
Mg5 O10 2.212502 1_565
Mg5 O15 2.282092 1_556
Mg5 O15 2.282092 1_555
Mg6 O10 2.056653 1_555
Mg6 O5 2.188386 1_545
Mg6 O4 2.188386 1_555
Mg6 O0 2.286632 1_555
Mg6 O0 2.286632 1_556
Mg6 O8 2.304737 1_555
Mg7 O11 2.148889 1_555
Mg7 O4 2.176448 1_555
Mg7 O5 2.176448 1_555
Mg7 O9 2.212502 1_555
Mg7 O1 2.282092 1_556
Mg7 O1 2.282092 1_555
Mg8 O10 2.056653 1_555
Mg8 O7 2.188386 1_545
Mg8 O6 2.188386 1_555
Mg8 O2 2.286632 1_555
Mg8 O2 2.286632 1_556
Mg8 O8 2.304737 1_655
Mg9 O11 2.148889 1_555
Mg9 O6 2.176448 1_555
Mg9 O7 2.176448 1_555
Mg9 O9 2.212502 1_655
Mg9 O3 2.282092 1_556
Mg9 O3 2.282092 1_555
Mg10 O14 2.109943 1_555
Mg10 O1 2.109943 1_555
Mg10 O12 2.260367 1_555
Mg10 O0 2.260367 1_555
Mg10 O4 2.284036 1_554
Mg10 O4 2.284036 1_555
Mg11 O15 2.109943 1_555
Mg11 O1 2.109943 1_555
Mg11 O13 2.260367 1_555
Mg11 O0 2.260367 1_565
Mg11 O5 2.284036 1_554
Mg11 O5 2.284036 1_555
Mg12 O14 2.109943 1_555
Mg12 O3 2.109943 1_555
Mg12 O12 2.260367 1_655
Mg12 O2 2.260367 1_555
Mg12 O6 2.284036 1_554
Mg12 O6 2.284036 1_555
Mg13 O15 2.109943 1_555
Mg13 O3 2.109943 1_555
Mg13 O13 2.260367 1_655
Mg13 O2 2.260367 1_565
Mg13 O7 2.284036 1_555
Mg13 O7 2.284036 1_554
Cr0 O1 2.146204 1_555
Cr0 O14 2.146204 1_555
Cr0 O15 2.146204 1_555
Cr0 O3 2.146204 1_555
Cr0 O11 2.282090 1_554
Cr0 O11 2.282090 1_555
