# generated using pymatgen
data_CeLuS3
_symmetry_space_group_name_H-M   'P 1'
_cell_length_a   6.68493277
_cell_length_b   6.68493277
_cell_length_c   9.91860000
_cell_angle_alpha   90.00000000
_cell_angle_beta   90.00000000
_cell_angle_gamma   147.26451271
_symmetry_Int_Tables_number   1
_chemical_formula_structural   CeLuS3
_chemical_formula_sum   'Ce2 Lu2 S6'
_cell_volume   239.69013904
_cell_formula_units_Z   2
loop_
 _symmetry_equiv_pos_site_id
 _symmetry_equiv_pos_as_xyz
  1  'x, y, z'
loop_
 _atom_site_type_symbol
 _atom_site_label
 _atom_site_symmetry_multiplicity
 _atom_site_fract_x
 _atom_site_fract_y
 _atom_site_fract_z
 _atom_site_occupancy
  Ce  Ce0  1  0.00000000  0.00000000  0.00000000  1
  Ce  Ce1  1  0.00000000  0.00000000  0.50000000  1
  Lu  Lu0  1  0.24377400  0.75622600  0.25000000  1
  Lu  Lu1  1  0.75622600  0.24377400  0.75000000  1
  S  S0  1  0.64781500  0.35218500  0.08413600  1
  S  S1  1  0.35218500  0.64781500  0.58413600  1
  S  S2  1  0.64781500  0.35218500  0.41586400  1
  S  S3  1  0.35218500  0.64781500  0.91586400  1
  S  S4  1  0.89433600  0.10566400  0.25000000  1
  S  S5  1  0.10566400  0.89433600  0.75000000  1
loop_
_geom_bond_atom_site_label_1
_geom_bond_atom_site_label_2
_geom_bond_distance
_geom_bond_site_symmetry_2
Ce0 S3 2.800120 1_444
Ce0 S3 2.800120 1_554
Ce0 S0 2.800120 1_445
Ce0 S0 2.800120 1_555
Ce0 S5 2.825940 1_544
Ce0 S4 2.825940 1_455
Ce1 S1 2.800120 1_555
Ce1 S2 2.800120 1_555
Ce1 S1 2.800120 1_445
Ce1 S2 2.800120 1_445
Ce1 S5 2.825940 1_545
Ce1 S4 2.825940 1_455
Lu0 S4 2.697989 1_455
Lu0 S4 2.697989 1_565
Lu0 S2 2.787569 1_455
Lu0 S0 2.787569 1_455
Lu0 S2 2.787569 1_565
Lu0 S0 2.787569 1_565
Lu1 S5 2.697989 1_655
Lu1 S5 2.697989 1_545
Lu1 S1 2.787569 1_545
Lu1 S1 2.787569 1_655
Lu1 S3 2.787569 1_545
Lu1 S3 2.787569 1_655
