# generated using pymatgen
data_AlSeCl7
_symmetry_space_group_name_H-M   'P 1'
_cell_length_a   6.39482834
_cell_length_b   8.30334454
_cell_length_c   9.98835569
_cell_angle_alpha   86.15710847
_cell_angle_beta   76.70756073
_cell_angle_gamma   83.57739368
_symmetry_Int_Tables_number   1
_chemical_formula_structural   AlSeCl7
_chemical_formula_sum   'Al2 Se2 Cl14'
_cell_volume   512.44997532
_cell_formula_units_Z   2
loop_
 _symmetry_equiv_pos_site_id
 _symmetry_equiv_pos_as_xyz
  1  'x, y, z'
loop_
 _atom_site_type_symbol
 _atom_site_label
 _atom_site_symmetry_multiplicity
 _atom_site_fract_x
 _atom_site_fract_y
 _atom_site_fract_z
 _atom_site_occupancy
  Al  Al0  1  0.46106857  0.39674555  0.95046964  1
  Al  Al1  1  0.20999272  0.95487674  0.52011505  1
  Se  Se0  1  0.99586358  0.00792105  0.99508287  1
  Se  Se1  1  0.78310226  0.56196500  0.52700443  1
  Cl  Cl0  1  0.87334993  0.78910646  0.95392410  1
  Cl  Cl1  1  0.66921479  0.19003049  0.86221497  1
  Cl  Cl2  1  0.13004271  0.33929710  0.99816471  1
  Cl  Cl3  1  0.27161654  0.89761354  0.06876865  1
  Cl  Cl4  1  0.77837656  0.05425115  0.18993951  1
  Cl  Cl5  1  0.28598432  0.01311952  0.70926393  1
  Cl  Cl6  1  0.64006370  0.34456962  0.50711952  1
  Cl  Cl7  1  0.02852371  0.46440311  0.63371946  1
  Cl  Cl8  1  0.41390451  0.74716291  0.42922463  1
  Cl  Cl9  1  0.87886055  0.89890586  0.56296468  1
  Cl  Cl10  1  0.97791714  0.57425362  0.32100828  1
  Cl  Cl11  1  0.47801831  0.59380677  0.79600941  1
  Cl  Cl12  1  0.54209439  0.47733930  0.12621527  1
  Cl  Cl13  1  0.25910769  0.15512721  0.37698789  1
loop_
_geom_bond_atom_site_label_1
_geom_bond_atom_site_label_2
_geom_bond_distance
_geom_bond_site_symmetry_2
Al0 Cl12 2.109752 1_556
Al0 Cl1 2.155699 1_555
Al0 Cl2 2.160389 1_555
Al0 Cl11 2.166509 1_555
Al1 Cl13 2.121058 1_565
Al1 Cl5 2.153291 1_565
Al1 Cl9 2.158673 1_455
Al1 Cl8 2.159066 1_555
Cl0 Se0 2.156524 1_565
Cl3 Se0 2.152968 1_464
Cl4 Se0 2.146225 1_554
Cl6 Se1 2.153034 1_555
Cl7 Se1 2.150485 1_455
Cl10 Se1 2.148856 1_555
