# generated using pymatgen
data_Ba(CrN2)2
_symmetry_space_group_name_H-M   'P 1'
_cell_length_a   10.84417600
_cell_length_b   10.84417600
_cell_length_c   10.84417600
_cell_angle_alpha   90.00000000
_cell_angle_beta   90.00000000
_cell_angle_gamma   90.00000000
_symmetry_Int_Tables_number   1
_chemical_formula_structural   Ba(CrN2)2
_chemical_formula_sum   'Ba12 Cr24 N48'
_cell_volume   1275.23338135
_cell_formula_units_Z   12
loop_
 _symmetry_equiv_pos_site_id
 _symmetry_equiv_pos_as_xyz
  1  'x, y, z'
loop_
 _atom_site_type_symbol
 _atom_site_label
 _atom_site_symmetry_multiplicity
 _atom_site_fract_x
 _atom_site_fract_y
 _atom_site_fract_z
 _atom_site_occupancy
  Ba  Ba0  1  0.50000000  0.50000000  0.00000000  1
  Ba  Ba1  1  0.50000000  0.00000000  0.50000000  1
  Ba  Ba2  1  0.00000000  0.50000000  0.50000000  1
  Ba  Ba3  1  0.00000000  0.00000000  0.00000000  1
  Ba  Ba4  1  0.12669100  0.87330900  0.37330900  1
  Ba  Ba5  1  0.87330900  0.37330900  0.12669100  1
  Ba  Ba6  1  0.37330900  0.12669100  0.87330900  1
  Ba  Ba7  1  0.62669100  0.62669100  0.62669100  1
  Ba  Ba8  1  0.87330900  0.12669100  0.62669100  1
  Ba  Ba9  1  0.12669100  0.62669100  0.87330900  1
  Ba  Ba10  1  0.62669100  0.87330900  0.12669100  1
  Ba  Ba11  1  0.37330900  0.37330900  0.37330900  1
  Cr  Cr0  1  0.38798000  0.69195300  0.34468800  1
  Cr  Cr1  1  0.61202000  0.19195300  0.15531200  1
  Cr  Cr2  1  0.11202000  0.30804700  0.84468800  1
  Cr  Cr3  1  0.88798000  0.80804700  0.65531200  1
  Cr  Cr4  1  0.34468800  0.38798000  0.69195300  1
  Cr  Cr5  1  0.15531200  0.61202000  0.19195300  1
  Cr  Cr6  1  0.84468800  0.11202000  0.30804700  1
  Cr  Cr7  1  0.65531200  0.88798000  0.80804700  1
  Cr  Cr8  1  0.69195300  0.34468800  0.38798000  1
  Cr  Cr9  1  0.19195300  0.15531200  0.61202000  1
  Cr  Cr10  1  0.30804700  0.84468800  0.11202000  1
  Cr  Cr11  1  0.80804700  0.65531200  0.88798000  1
  Cr  Cr12  1  0.61202000  0.30804700  0.65531200  1
  Cr  Cr13  1  0.38798000  0.80804700  0.84468800  1
  Cr  Cr14  1  0.88798000  0.69195300  0.15531200  1
  Cr  Cr15  1  0.11202000  0.19195300  0.34468800  1
  Cr  Cr16  1  0.65531200  0.61202000  0.30804700  1
  Cr  Cr17  1  0.84468800  0.38798000  0.80804700  1
  Cr  Cr18  1  0.15531200  0.88798000  0.69195300  1
  Cr  Cr19  1  0.34468800  0.11202000  0.19195300  1
  Cr  Cr20  1  0.30804700  0.65531200  0.61202000  1
  Cr  Cr21  1  0.80804700  0.84468800  0.38798000  1
  Cr  Cr22  1  0.69195300  0.15531200  0.88798000  1
  Cr  Cr23  1  0.19195300  0.34468800  0.11202000  1
  N  N0  1  0.37761000  0.83195000  0.25937500  1
  N  N1  1  0.62239000  0.33195000  0.24062500  1
  N  N2  1  0.12239000  0.16805000  0.75937500  1
  N  N3  1  0.87761000  0.66805000  0.74062500  1
  N  N4  1  0.25937500  0.37761000  0.83195000  1
  N  N5  1  0.24062500  0.62239000  0.33195000  1
  N  N6  1  0.75937500  0.12239000  0.16805000  1
  N  N7  1  0.74062500  0.87761000  0.66805000  1
  N  N8  1  0.83195000  0.25937500  0.37761000  1
  N  N9  1  0.33195000  0.24062500  0.62239000  1
  N  N10  1  0.16805000  0.75937500  0.12239000  1
  N  N11  1  0.66805000  0.74062500  0.87761000  1
  N  N12  1  0.62239000  0.16805000  0.74062500  1
  N  N13  1  0.37761000  0.66805000  0.75937500  1
  N  N14  1  0.87761000  0.83195000  0.24062500  1
  N  N15  1  0.12239000  0.33195000  0.25937500  1
  N  N16  1  0.74062500  0.62239000  0.16805000  1
  N  N17  1  0.75937500  0.37761000  0.66805000  1
  N  N18  1  0.24062500  0.87761000  0.83195000  1
  N  N19  1  0.25937500  0.12239000  0.33195000  1
  N  N20  1  0.16805000  0.74062500  0.62239000  1
  N  N21  1  0.66805000  0.75937500  0.37761000  1
  N  N22  1  0.83195000  0.24062500  0.87761000  1
  N  N23  1  0.33195000  0.25937500  0.12239000  1
  N  N24  1  0.41423300  0.72535100  0.50242000  1
  N  N25  1  0.58576700  0.22535100  0.99758000  1
  N  N26  1  0.08576700  0.27464900  0.00242000  1
  N  N27  1  0.91423300  0.77464900  0.49758000  1
  N  N28  1  0.50242000  0.41423300  0.72535100  1
  N  N29  1  0.99758000  0.58576700  0.22535100  1
  N  N30  1  0.00242000  0.08576700  0.27464900  1
  N  N31  1  0.49758000  0.91423300  0.77464900  1
  N  N32  1  0.72535100  0.50242000  0.41423300  1
  N  N33  1  0.22535100  0.99758000  0.58576700  1
  N  N34  1  0.27464900  0.00242000  0.08576700  1
  N  N35  1  0.77464900  0.49758000  0.91423300  1
  N  N36  1  0.58576700  0.27464900  0.49758000  1
  N  N37  1  0.41423300  0.77464900  0.00242000  1
  N  N38  1  0.91423300  0.72535100  0.99758000  1
  N  N39  1  0.08576700  0.22535100  0.50242000  1
  N  N40  1  0.49758000  0.58576700  0.27464900  1
  N  N41  1  0.00242000  0.41423300  0.77464900  1
  N  N42  1  0.99758000  0.91423300  0.72535100  1
  N  N43  1  0.50242000  0.08576700  0.22535100  1
  N  N44  1  0.27464900  0.49758000  0.58576700  1
  N  N45  1  0.77464900  0.00242000  0.41423300  1
  N  N46  1  0.72535100  0.99758000  0.91423300  1
  N  N47  1  0.22535100  0.50242000  0.08576700  1
loop_
_geom_bond_atom_site_label_1
_geom_bond_atom_site_label_2
_geom_bond_distance
_geom_bond_site_symmetry_2
Ba0 N35 3.120296 1_554
Ba0 N37 3.120296 1_555
Ba0 N40 3.120296 1_555
Ba0 N25 3.120296 1_554
Ba0 N47 3.120296 1_555
Ba0 N28 3.120296 1_554
Ba0 N1 3.448388 1_555
Ba0 N11 3.448388 1_554
Ba0 N16 3.448388 1_555
Ba0 N4 3.448388 1_554
Ba0 N13 3.448388 1_554
Ba0 N23 3.448388 1_555
Ba1 N31 3.120296 1_545
Ba1 N45 3.120296 1_555
Ba1 N36 3.120296 1_555
Ba1 N33 3.120296 1_545
Ba1 N43 3.120296 1_555
Ba1 N24 3.120296 1_545
Ba1 N9 3.448388 1_555
Ba1 N7 3.448388 1_545
Ba1 N12 3.448388 1_555
Ba1 N0 3.448388 1_545
Ba1 N19 3.448388 1_555
Ba1 N21 3.448388 1_545
Ba2 N27 3.120296 1_455
Ba2 N41 3.120296 1_555
Ba2 N44 3.120296 1_555
Ba2 N29 3.120296 1_455
Ba2 N39 3.120296 1_555
Ba2 N32 3.120296 1_455
Ba2 N5 3.448388 1_555
Ba2 N3 3.448388 1_455
Ba2 N20 3.448388 1_555
Ba2 N8 3.448388 1_455
Ba2 N15 3.448388 1_555
Ba2 N17 3.448388 1_455
Ba3 N34 3.120296 1_555
Ba3 N26 3.120296 1_555
Ba3 N30 3.120296 1_555
Ba3 N42 3.120296 1_444
Ba3 N46 3.120296 1_444
Ba3 N38 3.120296 1_444
Ba3 N14 3.448388 1_445
Ba3 N18 3.448388 1_544
Ba3 N22 3.448388 1_454
Ba3 N2 3.448388 1_554
Ba3 N10 3.448388 1_545
Ba3 N6 3.448388 1_455
Ba4 N33 2.875557 1_555
Ba4 N30 2.875557 1_565
Ba4 N27 2.875557 1_455
Ba4 N5 3.021847 1_555
Ba4 N10 3.021847 1_555
Ba4 N0 3.021847 1_555
Ba4 N19 3.093100 1_565
Ba4 N20 3.093100 1_555
Ba4 N14 3.093100 1_455
Ba5 N29 2.875557 1_555
Ba5 N26 2.875557 1_655
Ba5 N35 2.875557 1_554
Ba5 N1 3.021847 1_555
Ba5 N6 3.021847 1_555
Ba5 N8 3.021847 1_555
Ba5 N15 3.093100 1_655
Ba5 N16 3.093100 1_555
Ba5 N22 3.093100 1_554
Ba6 N25 2.875557 1_555
Ba6 N34 2.875557 1_556
Ba6 N31 2.875557 1_545
Ba6 N9 3.021847 1_555
Ba6 N2 3.021847 1_555
Ba6 N4 3.021847 1_555
Ba6 N23 3.093100 1_556
Ba6 N12 3.093100 1_555
Ba6 N18 3.093100 1_545
Ba7 N32 2.875557 1_555
Ba7 N24 2.875557 1_555
Ba7 N28 2.875557 1_555
Ba7 N7 3.021847 1_555
Ba7 N11 3.021847 1_555
Ba7 N3 3.021847 1_555
Ba7 N17 3.093100 1_555
Ba7 N21 3.093100 1_555
Ba7 N13 3.093100 1_555
Ba8 N39 2.875557 1_655
Ba8 N42 2.875557 1_545
Ba8 N45 2.875557 1_555
Ba8 N22 3.021847 1_555
Ba8 N12 3.021847 1_555
Ba8 N17 3.021847 1_555
Ba8 N8 3.093100 1_555
Ba8 N2 3.093100 1_655
Ba8 N7 3.093100 1_545
Ba9 N47 2.875557 1_556
Ba9 N38 2.875557 1_455
Ba9 N41 2.875557 1_555
Ba9 N18 3.021847 1_555
Ba9 N20 3.021847 1_555
Ba9 N13 3.021847 1_555
Ba9 N4 3.093100 1_555
Ba9 N10 3.093100 1_556
Ba9 N3 3.093100 1_455
Ba10 N43 2.875557 1_565
Ba10 N46 2.875557 1_554
Ba10 N37 2.875557 1_555
Ba10 N14 3.021847 1_555
Ba10 N16 3.021847 1_555
Ba10 N21 3.021847 1_555
Ba10 N0 3.093100 1_555
Ba10 N6 3.093100 1_565
Ba10 N11 3.093100 1_554
Ba11 N36 2.875557 1_555
Ba11 N44 2.875557 1_555
Ba11 N40 2.875557 1_555
Ba11 N15 3.021847 1_555
Ba11 N23 3.021847 1_555
Ba11 N19 3.021847 1_555
Ba11 N1 3.093100 1_555
Ba11 N5 3.093100 1_555
Ba11 N9 3.093100 1_555
Cr0 N24 1.771423 1_555
Cr0 N5 1.772443 1_555
Cr0 N0 1.781385 1_555
Cr0 N40 1.820824 1_555
Cr1 N25 1.771423 1_554
Cr1 N6 1.772443 1_555
Cr1 N1 1.781385 1_555
Cr1 N43 1.820824 1_555
Cr2 N26 1.771423 1_556
Cr2 N4 1.772443 1_555
Cr2 N2 1.781385 1_555
Cr2 N41 1.820824 1_555
Cr3 N27 1.771423 1_555
Cr3 N7 1.772443 1_555
Cr3 N3 1.781385 1_555
Cr3 N42 1.820824 1_555
Cr4 N28 1.771423 1_555
Cr4 N9 1.772443 1_555
Cr4 N4 1.781385 1_555
Cr4 N44 1.820824 1_555
Cr5 N29 1.771423 1_455
Cr5 N10 1.772443 1_555
Cr5 N5 1.781385 1_555
Cr5 N47 1.820824 1_555
Cr6 N30 1.771423 1_655
Cr6 N8 1.772443 1_555
Cr6 N6 1.781385 1_555
Cr6 N45 1.820824 1_555
Cr7 N31 1.771423 1_555
Cr7 N11 1.772443 1_555
Cr7 N7 1.781385 1_555
Cr7 N46 1.820824 1_555
Cr8 N32 1.771423 1_555
Cr8 N1 1.772443 1_555
Cr8 N8 1.781385 1_555
Cr8 N36 1.820824 1_555
Cr9 N33 1.771423 1_545
Cr9 N2 1.772443 1_555
Cr9 N9 1.781385 1_555
Cr9 N39 1.820824 1_555
Cr10 N34 1.771423 1_565
Cr10 N0 1.772443 1_555
Cr10 N10 1.781385 1_555
Cr10 N37 1.820824 1_555
Cr11 N35 1.771423 1_555
Cr11 N3 1.772443 1_555
Cr11 N11 1.781385 1_555
Cr11 N38 1.820824 1_555
Cr12 N36 1.771423 1_555
Cr12 N17 1.772443 1_555
Cr12 N12 1.781385 1_555
Cr12 N28 1.820824 1_555
Cr13 N37 1.771423 1_556
Cr13 N18 1.772443 1_555
Cr13 N13 1.781385 1_555
Cr13 N31 1.820824 1_555
Cr14 N38 1.771423 1_554
Cr14 N16 1.772443 1_555
Cr14 N14 1.781385 1_555
Cr14 N29 1.820824 1_555
Cr15 N39 1.771423 1_555
Cr15 N19 1.772443 1_555
Cr15 N15 1.781385 1_555
Cr15 N30 1.820824 1_555
Cr16 N40 1.771423 1_555
Cr16 N21 1.772443 1_555
Cr16 N16 1.781385 1_555
Cr16 N32 1.820824 1_555
Cr17 N41 1.771423 1_655
Cr17 N22 1.772443 1_555
Cr17 N17 1.781385 1_555
Cr17 N35 1.820824 1_555
Cr18 N42 1.771423 1_455
Cr18 N20 1.772443 1_555
Cr18 N18 1.781385 1_555
Cr18 N33 1.820824 1_555
Cr19 N43 1.771423 1_555
Cr19 N23 1.772443 1_555
Cr19 N19 1.781385 1_555
Cr19 N34 1.820824 1_555
Cr20 N44 1.771423 1_555
Cr20 N13 1.772443 1_555
Cr20 N20 1.781385 1_555
Cr20 N24 1.820824 1_555
Cr21 N45 1.771423 1_565
Cr21 N14 1.772443 1_555
Cr21 N21 1.781385 1_555
Cr21 N27 1.820824 1_555
Cr22 N46 1.771423 1_545
Cr22 N12 1.772443 1_555
Cr22 N22 1.781385 1_555
Cr22 N25 1.820824 1_555
Cr23 N47 1.771423 1_555
Cr23 N15 1.772443 1_555
Cr23 N23 1.781385 1_555
Cr23 N26 1.820824 1_555
