# generated using pymatgen
data_Sr2LiZrCrO6
_symmetry_space_group_name_H-M   'P 1'
_cell_length_a   5.91984326
_cell_length_b   5.76540239
_cell_length_c   5.70116215
_cell_angle_alpha   90.00129170
_cell_angle_beta   118.78464172
_cell_angle_gamma   119.13997513
_symmetry_Int_Tables_number   1
_chemical_formula_structural   Sr2LiZrCrO6
_chemical_formula_sum   'Sr2 Li1 Zr1 Cr1 O6'
_cell_volume   141.79343453
_cell_formula_units_Z   1
loop_
 _symmetry_equiv_pos_site_id
 _symmetry_equiv_pos_as_xyz
  1  'x, y, z'
loop_
 _atom_site_type_symbol
 _atom_site_label
 _atom_site_symmetry_multiplicity
 _atom_site_fract_x
 _atom_site_fract_y
 _atom_site_fract_z
 _atom_site_occupancy
  Sr  Sr0  1  0.40303900  0.20152000  0.70152000  1
  Sr  Sr1  1  0.59696100  0.79848000  0.29848000  1
  Li  Li0  1  0.00000000  0.50000000  0.00000000  1
  Zr  Zr0  1  0.00000000  0.50000000  0.50000000  1
  Cr  Cr0  1  0.00000000  0.00000000  0.00000000  1
  O  O0  1  0.00000000  0.24651700  0.24175700  1
  O  O1  1  0.00000000  0.75348300  0.75824300  1
  O  O2  1  0.49546500  0.24773300  0.24773300  1
  O  O3  1  0.50453500  0.75226700  0.75226700  1
  O  O4  1  0.00000000  0.75350400  0.24170700  1
  O  O5  1  0.00000000  0.24649600  0.75829300  1
loop_
_geom_bond_atom_site_label_1
_geom_bond_atom_site_label_2
_geom_bond_distance
_geom_bond_site_symmetry_2
Li0 O4 2.008721 1_555
Li0 O5 2.008721 1_554
Li0 O1 2.008873 1_554
Li0 O0 2.008873 1_555
Cr0 O5 1.979562 1_554
Cr0 O4 1.979562 1_545
Cr0 O0 1.979803 1_555
Cr0 O1 1.979803 1_544
Cr0 O2 2.137352 1_555
Cr0 O3 2.137352 1_444
O0 Zr0 2.074442 1_555
O0 Sr1 2.685256 1_445
O0 Sr0 2.685257 1_555
O1 Zr0 2.074442 1_555
O1 Sr0 2.685256 1_565
O1 Sr1 2.685257 1_455
O2 Zr0 2.176479 1_655
O2 Sr0 2.878330 1_555
O2 Sr0 2.878330 1_554
O2 Sr1 2.915756 1_555
O2 Sr1 2.915768 1_545
O3 Zr0 2.176479 1_555
O3 Sr1 2.878330 1_555
O3 Sr1 2.878330 1_556
O3 Sr0 2.915756 1_555
O3 Sr0 2.915768 1_565
O4 Zr0 2.074776 1_555
O4 Sr1 2.685310 1_455
O4 Sr0 2.685317 1_565
O5 Zr0 2.074776 1_555
O5 Sr0 2.685310 1_555
O5 Sr1 2.685317 1_445
