# generated using pymatgen
data_EuBN2
_symmetry_space_group_name_H-M   'P 1'
_cell_length_a   7.30206651
_cell_length_b   7.30206651
_cell_length_c   7.30206548
_cell_angle_alpha   110.38512326
_cell_angle_beta   110.38512326
_cell_angle_gamma   110.38512269
_symmetry_Int_Tables_number   1
_chemical_formula_structural   EuBN2
_chemical_formula_sum   'Eu6 B6 N12'
_cell_volume   289.13442811
_cell_formula_units_Z   6
loop_
 _symmetry_equiv_pos_site_id
 _symmetry_equiv_pos_as_xyz
  1  'x, y, z'
loop_
 _atom_site_type_symbol
 _atom_site_label
 _atom_site_symmetry_multiplicity
 _atom_site_fract_x
 _atom_site_fract_y
 _atom_site_fract_z
 _atom_site_occupancy
  Eu  Eu0  1  0.30021528  0.19978472  0.75000000  1
  Eu  Eu1  1  0.75000000  0.30021528  0.19978472  1
  Eu  Eu2  1  0.19978472  0.75000000  0.30021528  1
  Eu  Eu3  1  0.25000000  0.69978472  0.80021528  1
  Eu  Eu4  1  0.80021528  0.25000000  0.69978472  1
  Eu  Eu5  1  0.69978472  0.80021528  0.25000000  1
  B  B0  1  0.62895319  0.87104681  0.75000000  1
  B  B1  1  0.75000000  0.62895319  0.87104681  1
  B  B2  1  0.87104681  0.75000000  0.62895319  1
  B  B3  1  0.25000000  0.37104681  0.12895319  1
  B  B4  1  0.12895319  0.25000000  0.37104681  1
  B  B5  1  0.37104681  0.12895319  0.25000000  1
  N  N0  1  0.87335795  0.62664205  0.75000000  1
  N  N1  1  0.75000000  0.87335795  0.62664205  1
  N  N2  1  0.62664205  0.75000000  0.87335795  1
  N  N3  1  0.25000000  0.12664205  0.37335795  1
  N  N4  1  0.37335795  0.25000000  0.12664205  1
  N  N5  1  0.12664205  0.37335795  0.25000000  1
  N  N6  1  0.50727069  0.99272931  0.75000000  1
  N  N7  1  0.75000000  0.50727069  0.99272931  1
  N  N8  1  0.99272931  0.75000000  0.50727069  1
  N  N9  1  0.25000000  0.49272931  0.00727069  1
  N  N10  1  0.00727069  0.25000000  0.49272931  1
  N  N11  1  0.49272931  0.00727069  0.25000000  1
loop_
_geom_bond_atom_site_label_1
_geom_bond_atom_site_label_2
_geom_bond_distance
_geom_bond_site_symmetry_2
Eu0 N3 2.474139 1_555
Eu0 N4 2.474139 1_556
Eu0 N6 2.482820 1_545
Eu0 N9 2.542861 1_556
Eu0 N10 2.542861 1_555
Eu0 N8 2.646615 1_445
Eu0 N7 2.646615 1_555
Eu1 N4 2.474140 1_555
Eu1 N5 2.474140 1_655
Eu1 N7 2.482820 1_554
Eu1 N10 2.542861 1_655
Eu1 N11 2.542861 1_555
Eu1 N6 2.646615 1_544
Eu1 N8 2.646615 1_555
Eu2 N3 2.474140 1_565
Eu2 N5 2.474140 1_555
Eu2 N8 2.482820 1_455
Eu2 N9 2.542861 1_555
Eu2 N11 2.542861 1_565
Eu2 N6 2.646615 1_555
Eu2 N7 2.646615 1_454
Eu3 N2 2.474140 1_555
Eu3 N0 2.474140 1_455
Eu3 N9 2.482820 1_556
Eu3 N8 2.542861 1_455
Eu3 N6 2.542861 1_555
Eu3 N11 2.646615 1_566
Eu3 N10 2.646615 1_555
Eu4 N1 2.474140 1_545
Eu4 N0 2.474140 1_555
Eu4 N10 2.482820 1_655
Eu4 N7 2.542861 1_555
Eu4 N6 2.542861 1_545
Eu4 N11 2.646615 1_555
Eu4 N9 2.646615 1_656
Eu5 N2 2.474139 1_554
Eu5 N1 2.474139 1_555
Eu5 N11 2.482820 1_565
Eu5 N8 2.542861 1_555
Eu5 N7 2.542861 1_554
Eu5 N10 2.646615 1_665
Eu5 N9 2.646615 1_555
B0 N6 1.459106 1_555
B0 N1 1.465536 1_555
B0 N2 1.465536 1_555
B1 N7 1.459106 1_555
B1 N0 1.465536 1_555
B1 N2 1.465536 1_555
B2 N8 1.459106 1_555
B2 N0 1.465536 1_555
B2 N1 1.465536 1_555
B3 N9 1.459106 1_555
B3 N5 1.465536 1_555
B3 N4 1.465536 1_555
B4 N10 1.459106 1_555
B4 N5 1.465536 1_555
B4 N3 1.465536 1_555
B5 N11 1.459106 1_555
B5 N4 1.465536 1_555
B5 N3 1.465536 1_555
