# generated using pymatgen
data_SrFeBi2O5
_symmetry_space_group_name_H-M   'P 1'
_cell_length_a   3.86325500
_cell_length_b   3.86325500
_cell_length_c   17.97876500
_cell_angle_alpha   90.00000000
_cell_angle_beta   90.00000000
_cell_angle_gamma   90.00000000
_symmetry_Int_Tables_number   1
_chemical_formula_structural   SrFeBi2O5
_chemical_formula_sum   'Sr2 Fe2 Bi4 O10'
_cell_volume   268.32837867
_cell_formula_units_Z   2
loop_
 _symmetry_equiv_pos_site_id
 _symmetry_equiv_pos_as_xyz
  1  'x, y, z'
loop_
 _atom_site_type_symbol
 _atom_site_label
 _atom_site_symmetry_multiplicity
 _atom_site_fract_x
 _atom_site_fract_y
 _atom_site_fract_z
 _atom_site_occupancy
  Sr  Sr0  1  0.50000000  0.50000000  0.20943000  1
  Sr  Sr1  1  0.50000000  0.50000000  0.79057000  1
  Fe  Fe0  1  0.00000000  0.00000000  0.11098300  1
  Fe  Fe1  1  0.00000000  0.00000000  0.88901700  1
  Bi  Bi0  1  0.00000000  0.00000000  0.35824600  1
  Bi  Bi1  1  0.00000000  0.00000000  0.64175400  1
  Bi  Bi2  1  0.50000000  0.50000000  0.50000000  1
  Bi  Bi3  1  0.50000000  0.50000000  0.00000000  1
  O  O0  1  0.00000000  0.50000000  0.11073000  1
  O  O1  1  0.00000000  0.50000000  0.88927000  1
  O  O2  1  0.50000000  0.00000000  0.11073000  1
  O  O3  1  0.50000000  0.00000000  0.88927000  1
  O  O4  1  0.00000000  0.00000000  0.50000000  1
  O  O5  1  0.50000000  0.50000000  0.36094500  1
  O  O6  1  0.50000000  0.50000000  0.63905500  1
  O  O7  1  0.00000000  0.00000000  0.23460700  1
  O  O8  1  0.00000000  0.00000000  0.76539300  1
  O  O9  1  0.00000000  0.00000000  0.00000000  1
loop_
_geom_bond_atom_site_label_1
_geom_bond_atom_site_label_2
_geom_bond_distance
_geom_bond_site_symmetry_2
Fe0 O2 1.931633 1_455
Fe0 O0 1.931633 1_545
Fe0 O2 1.931633 1_555
Fe0 O0 1.931633 1_555
Fe0 O9 1.995337 1_555
Fe0 O7 2.222607 1_555
Fe1 O1 1.931633 1_555
Fe1 O3 1.931633 1_555
Fe1 O3 1.931633 1_455
Fe1 O1 1.931633 1_545
Fe1 O9 1.995337 1_556
Fe1 O8 2.222607 1_555
Bi0 O7 2.222877 1_555
Bi0 O4 2.548562 1_555
Bi0 O5 2.732165 1_455
Bi0 O5 2.732165 1_545
Bi0 O5 2.732165 1_555
Bi0 O5 2.732165 1_445
Bi1 O8 2.222877 1_555
Bi1 O4 2.548562 1_555
Bi1 O6 2.732165 1_455
Bi1 O6 2.732165 1_555
Bi1 O6 2.732165 1_445
Bi1 O6 2.732165 1_545
Bi2 O6 2.500037 1_555
Bi2 O5 2.500037 1_555
Bi2 O4 2.731734 1_665
Bi2 O4 2.731734 1_555
Bi2 O4 2.731734 1_565
Bi2 O4 2.731734 1_655
Bi3 O9 2.731734 1_555
Bi3 O9 2.731734 1_565
Bi3 O9 2.731734 1_655
Bi3 O9 2.731734 1_665
Bi3 O1 2.773883 1_654
Bi3 O3 2.773883 1_554
Bi3 O1 2.773883 1_554
Bi3 O3 2.773883 1_564
Bi3 O2 2.773883 1_565
Bi3 O2 2.773883 1_555
Bi3 O0 2.773883 1_655
Bi3 O0 2.773883 1_555
O0 Sr0 2.622985 1_455
O0 Sr0 2.622985 1_555
O1 Sr1 2.622985 1_555
O1 Sr1 2.622985 1_455
O2 Sr0 2.622985 1_555
O2 Sr0 2.622985 1_545
O3 Sr1 2.622985 1_555
O3 Sr1 2.622985 1_545
O5 Sr0 2.724053 1_555
O6 Sr1 2.724053 1_555
O7 Sr0 2.768982 1_555
O7 Sr0 2.768982 1_455
O7 Sr0 2.768982 1_445
O7 Sr0 2.768982 1_545
O8 Sr1 2.768982 1_555
O8 Sr1 2.768982 1_455
O8 Sr1 2.768982 1_445
O8 Sr1 2.768982 1_545
