# generated using pymatgen
data_Ho3(CuSn)4
_symmetry_space_group_name_H-M   'P 1'
_cell_length_a   8.35916635
_cell_length_b   8.35916635
_cell_length_c   6.90007147
_cell_angle_alpha   65.81940328
_cell_angle_beta   65.81940328
_cell_angle_gamma   30.72334434
_symmetry_Int_Tables_number   1
_chemical_formula_structural   Ho3(CuSn)4
_chemical_formula_sum   'Ho3 Cu4 Sn4'
_cell_volume   222.99654984
_cell_formula_units_Z   1
loop_
 _symmetry_equiv_pos_site_id
 _symmetry_equiv_pos_as_xyz
  1  'x, y, z'
loop_
 _atom_site_type_symbol
 _atom_site_label
 _atom_site_symmetry_multiplicity
 _atom_site_fract_x
 _atom_site_fract_y
 _atom_site_fract_z
 _atom_site_occupancy
  Ho  Ho0  1  -0.00000000  -0.00000000  0.00000000  1
  Ho  Ho1  1  0.13163939  0.13163939  0.36320972  1
  Ho  Ho2  1  0.86836061  0.86836061  0.63679028  1
  Cu  Cu0  1  0.33303387  0.33303387  0.98253041  1
  Cu  Cu1  1  0.66696613  0.66696613  0.01746959  1
  Cu  Cu2  1  0.32486211  0.32486211  0.36592669  1
  Cu  Cu3  1  0.67513789  0.67513789  0.63407331  1
  Sn  Sn0  1  0.21637893  0.21637893  0.78988037  1
  Sn  Sn1  1  0.78362107  0.78362107  0.21011963  1
  Sn  Sn2  1  0.50340583  0.50340583  0.69957048  1
  Sn  Sn3  1  0.49659417  0.49659417  0.30042952  1
loop_
_geom_bond_atom_site_label_1
_geom_bond_atom_site_label_2
_geom_bond_distance
_geom_bond_site_symmetry_2
Ho0 Sn2 3.017832 1_544
Ho0 Sn2 3.017832 1_454
Ho0 Sn3 3.017832 1_545
Ho0 Sn3 3.017832 1_455
Ho0 Sn1 3.158047 1_445
Ho0 Sn0 3.158047 1_554
Ho1 Sn1 3.134285 1_545
Ho1 Sn1 3.134285 1_455
Ho1 Sn2 3.238471 1_545
Ho1 Sn2 3.238471 1_455
Ho1 Sn3 3.260710 1_545
Ho1 Sn3 3.260710 1_455
Ho2 Sn0 3.134285 1_655
Ho2 Sn0 3.134285 1_565
Ho2 Sn3 3.238471 1_565
Ho2 Sn3 3.238471 1_655
Ho2 Sn2 3.260710 1_655
Ho2 Sn2 3.260710 1_565
Cu0 Cu2 2.592246 1_556
Cu0 Sn2 2.607641 1_555
Cu0 Sn1 2.634691 1_546
Cu0 Sn1 2.634691 1_456
Cu0 Sn0 2.725350 1_555
Cu0 Ho2 3.124906 1_545
Cu0 Ho2 3.124906 1_455
Cu0 Ho1 3.193004 1_556
Cu0 Ho0 3.526894 1_566
Cu0 Ho0 3.526894 1_656
Cu1 Cu3 2.592246 1_554
Cu1 Sn3 2.607641 1_555
Cu1 Sn0 2.634691 1_654
Cu1 Sn0 2.634691 1_564
Cu1 Sn1 2.725350 1_555
Cu1 Ho1 3.124906 1_655
Cu1 Ho1 3.124906 1_565
Cu1 Ho2 3.193004 1_554
Cu1 Ho0 3.526894 1_565
Cu1 Ho0 3.526894 1_655
Cu2 Sn3 2.608802 1_555
Cu2 Sn1 2.666233 1_455
Cu2 Sn1 2.666233 1_545
Cu2 Sn0 2.696207 1_555
Cu2 Ho1 3.122960 1_555
Cu2 Ho2 3.162595 1_455
Cu2 Ho2 3.162595 1_545
Cu3 Sn2 2.608802 1_555
Cu3 Sn0 2.666233 1_655
Cu3 Sn0 2.666233 1_565
Cu3 Sn1 2.696207 1_555
Cu3 Ho2 3.122960 1_555
Cu3 Ho1 3.162595 1_565
Cu3 Ho1 3.162595 1_655
Sn2 Sn3 2.802512 1_555
