# generated using pymatgen
data_SrMg14Sn
_symmetry_space_group_name_H-M   'P 1'
_cell_length_a   6.52013890
_cell_length_b   6.52013834
_cell_length_c   10.66038914
_cell_angle_alpha   90.00000000
_cell_angle_beta   90.00000000
_cell_angle_gamma   120.00000283
_symmetry_Int_Tables_number   1
_chemical_formula_structural   SrMg14Sn
_chemical_formula_sum   'Sr1 Mg14 Sn1'
_cell_volume   392.47982371
_cell_formula_units_Z   1
loop_
 _symmetry_equiv_pos_site_id
 _symmetry_equiv_pos_as_xyz
  1  'x, y, z'
loop_
 _atom_site_type_symbol
 _atom_site_label
 _atom_site_symmetry_multiplicity
 _atom_site_fract_x
 _atom_site_fract_y
 _atom_site_fract_z
 _atom_site_occupancy
  Sr  Sr0  1  0.16666700  0.33333300  0.62500000  1
  Mg  Mg0  1  0.16210983  0.83105442  0.12500000  1
  Mg  Mg1  1  0.17489148  0.83744524  0.62500000  1
  Mg  Mg2  1  0.66894558  0.33789017  0.12500000  1
  Mg  Mg3  1  0.66255476  0.32510852  0.62500000  1
  Mg  Mg4  1  0.66894558  0.83105442  0.12500000  1
  Mg  Mg5  1  0.66255476  0.83744524  0.62500000  1
  Mg  Mg6  1  0.33654221  0.16345779  0.36790395  1
  Mg  Mg7  1  0.33654221  0.16345779  0.88209605  1
  Mg  Mg8  1  0.33654221  0.67308542  0.36790395  1
  Mg  Mg9  1  0.33654221  0.67308542  0.88209605  1
  Mg  Mg10  1  0.82691458  0.16345779  0.36790395  1
  Mg  Mg11  1  0.82691458  0.16345779  0.88209605  1
  Mg  Mg12  1  0.83333300  0.66666700  0.38190396  1
  Mg  Mg13  1  0.83333300  0.66666700  0.86809604  1
  Sn  Sn0  1  0.16666700  0.33333300  0.12500000  1
loop_
_geom_bond_atom_site_label_1
_geom_bond_atom_site_label_2
_geom_bond_distance
_geom_bond_site_symmetry_2
Mg0 Mg9 3.198599 1_554
Mg0 Mg8 3.198599 1_555
Mg0 Mg6 3.198606 1_565
Mg0 Mg7 3.198606 1_564
Mg0 Mg2 3.215499 1_455
Mg0 Mg4 3.215499 1_455
Mg0 Sn0 3.260171 1_565
Mg0 Sn0 3.260171 1_555
Mg0 Mg2 3.304639 1_565
Mg0 Mg4 3.304639 1_555
Mg0 Mg13 3.308617 1_454
Mg0 Mg12 3.308617 1_455
Mg1 Mg3 3.179632 1_565
Mg1 Mg5 3.179632 1_555
Mg1 Mg12 3.230409 1_455
Mg1 Mg13 3.230409 1_455
Mg1 Sr0 3.260400 1_555
Mg1 Sr0 3.260400 1_565
Mg1 Mg8 3.301590 1_555
Mg1 Mg9 3.301590 1_555
Mg1 Mg6 3.301596 1_565
Mg1 Mg7 3.301596 1_565
Mg1 Mg3 3.340506 1_455
Mg1 Mg5 3.340507 1_455
Mg2 Mg6 3.198606 1_555
Mg2 Mg7 3.198606 1_554
Mg2 Mg4 3.215499 1_555
Mg2 Sn0 3.260171 1_555
Mg2 Sn0 3.260171 1_655
Mg2 Mg4 3.304639 1_545
Mg3 Mg5 3.179632 1_545
Mg3 Sr0 3.260400 1_655
Mg3 Sr0 3.260400 1_555
Mg3 Mg6 3.301596 1_555
Mg3 Mg7 3.301596 1_555
Mg3 Mg5 3.340506 1_555
Mg4 Mg9 3.198606 1_554
Mg4 Mg8 3.198606 1_555
Mg4 Sn0 3.260171 1_665
Mg4 Sn0 3.260171 1_555
Mg5 Sr0 3.260400 1_555
Mg5 Sr0 3.260400 1_665
Mg5 Mg9 3.301596 1_555
Mg5 Mg8 3.301596 1_555
Mg6 Mg8 3.197296 1_545
Mg6 Sn0 3.222678 1_555
Mg6 Mg8 3.322843 1_555
Mg6 Sr0 3.345456 1_555
Mg7 Mg9 3.197296 1_545
Mg7 Sn0 3.222678 1_556
Mg7 Mg9 3.322843 1_555
Mg7 Sr0 3.345456 1_555
Mg8 Sn0 3.222685 1_555
Mg8 Sr0 3.345462 1_555
Mg9 Sn0 3.222685 1_556
Mg9 Sr0 3.345462 1_555
Mg10 Mg8 3.197296 1_545
Mg10 Mg6 3.197296 1_555
Mg10 Mg2 3.198599 1_555
Mg10 Mg4 3.198606 1_545
Mg10 Sn0 3.222685 1_655
Mg10 Mg12 3.263685 1_555
Mg10 Mg12 3.263685 1_545
Mg10 Mg3 3.301590 1_555
Mg10 Mg5 3.301596 1_545
Mg10 Mg8 3.322843 1_655
Mg10 Mg6 3.322843 1_655
Mg10 Sr0 3.345463 1_655
Mg11 Mg9 3.197296 1_545
Mg11 Mg7 3.197296 1_555
Mg11 Mg2 3.198599 1_556
Mg11 Mg4 3.198606 1_546
Mg11 Sn0 3.222685 1_656
Mg11 Mg13 3.263685 1_555
Mg11 Mg13 3.263685 1_545
Mg11 Mg3 3.301590 1_555
Mg11 Mg5 3.301596 1_545
Mg11 Mg9 3.322843 1_655
Mg11 Mg7 3.322843 1_655
Mg11 Sr0 3.345463 1_655
Mg12 Mg5 3.230402 1_555
Mg12 Mg3 3.230408 1_555
Mg12 Mg6 3.263685 1_555
Mg12 Mg6 3.263685 1_665
Mg12 Mg8 3.263685 1_655
Mg12 Mg8 3.263685 1_555
Mg12 Mg4 3.308611 1_555
Mg12 Mg2 3.308617 1_555
Mg13 Mg5 3.230402 1_555
Mg13 Mg3 3.230408 1_555
Mg13 Mg7 3.263685 1_555
Mg13 Mg7 3.263685 1_665
Mg13 Mg9 3.263685 1_655
Mg13 Mg9 3.263685 1_555
Mg13 Mg4 3.308611 1_556
Mg13 Mg2 3.308617 1_556
