# generated using pymatgen
data_CaV6O11F
_symmetry_space_group_name_H-M   'P 1'
_cell_length_a   5.17589316
_cell_length_b   5.38917816
_cell_length_c   8.57163403
_cell_angle_alpha   86.32270476
_cell_angle_beta   92.72418620
_cell_angle_gamma   105.04501010
_symmetry_Int_Tables_number   1
_chemical_formula_structural   CaV6O11F
_chemical_formula_sum   'Ca1 V6 O11 F1'
_cell_volume   230.30615545
_cell_formula_units_Z   1
loop_
 _symmetry_equiv_pos_site_id
 _symmetry_equiv_pos_as_xyz
  1  'x, y, z'
loop_
 _atom_site_type_symbol
 _atom_site_label
 _atom_site_symmetry_multiplicity
 _atom_site_fract_x
 _atom_site_fract_y
 _atom_site_fract_z
 _atom_site_occupancy
  Ca  Ca0  1  0.84785700  0.43090100  0.61060400  1
  V  V0  1  0.01938200  0.99507600  0.01432900  1
  V  V1  1  0.01355700  0.99415900  0.32868700  1
  V  V2  1  0.04753700  0.99168100  0.66784800  1
  V  V3  1  0.60292200  0.40235200  0.16644700  1
  V  V4  1  0.42359900  0.59874200  0.84454100  1
  V  V5  1  0.41648000  0.60564600  0.46281200  1
  O  O0  1  0.18460600  0.85690400  0.18596800  1
  O  O1  1  0.17850200  0.81406200  0.50964100  1
  O  O2  1  0.19853100  0.80239400  0.84785800  1
  O  O3  1  0.32924100  0.31142000  0.99603900  1
  O  O4  1  0.32703900  0.31246300  0.32558800  1
  O  O5  1  0.28722800  0.35985500  0.66061100  1
  O  O6  1  0.69924600  0.68797000  0.00603400  1
  O  O7  1  0.73050000  0.64781500  0.33443100  1
  O  O8  1  0.67287400  0.73611100  0.67789100  1
  O  O9  1  0.81601200  0.18383600  0.16074600  1
  O  O10  1  0.84665000  0.10650400  0.48036100  1
  F  F0  1  0.85823800  0.16210700  0.82670200  1
loop_
_geom_bond_atom_site_label_1
_geom_bond_atom_site_label_2
_geom_bond_distance
_geom_bond_site_symmetry_2
Ca0 O10 2.132304 1_555
Ca0 O8 2.191606 1_555
Ca0 F0 2.284533 1_555
Ca0 O5 2.416683 1_655
Ca0 O1 2.453286 1_655
Ca0 O7 2.686331 1_555
Ca0 O5 2.875918 1_555
O0 V1 1.840247 1_555
O0 V0 1.876378 1_555
O1 V5 1.939836 1_555
O1 V2 1.950770 1_555
O1 V1 2.046437 1_555
O2 V4 1.798142 1_555
O2 V2 2.032128 1_555
O2 V0 2.188586 1_556
O3 V4 1.931899 1_555
O3 V3 1.978653 1_556
O3 V0 2.018252 1_546
O4 V3 1.968686 1_555
O4 V5 1.975141 1_555
O4 V1 2.032052 1_545
O5 V2 2.047788 1_545
O5 V4 2.079434 1_555
O5 V5 2.106281 1_555
O6 V4 1.929874 1_554
O6 V3 1.975789 1_555
O6 V0 2.017429 1_655
O7 V5 1.962267 1_555
O7 V3 1.989904 1_555
O7 V1 2.051370 1_655
O8 V4 1.948562 1_555
O8 V2 2.068575 1_655
O8 V5 2.259103 1_555
O9 V3 1.814508 1_555
O9 V1 2.092017 1_645
O9 V0 2.136162 1_645
O10 V1 1.811737 1_645
O10 V2 2.023448 1_645
F0 V0 2.041825 1_646
F0 V2 2.100484 1_645
