# generated using pymatgen
data_Ce(CuSn)2
_symmetry_space_group_name_H-M   'P 1'
_cell_length_a   4.46759549
_cell_length_b   4.46759549
_cell_length_c   10.57235281
_cell_angle_alpha   90.00000000
_cell_angle_beta   90.00000000
_cell_angle_gamma   90.00000000
_symmetry_Int_Tables_number   1
_chemical_formula_structural   Ce(CuSn)2
_chemical_formula_sum   'Ce2 Cu4 Sn4'
_cell_volume   211.01791871
_cell_formula_units_Z   2
loop_
 _symmetry_equiv_pos_site_id
 _symmetry_equiv_pos_as_xyz
  1  'x, y, z'
loop_
 _atom_site_type_symbol
 _atom_site_label
 _atom_site_symmetry_multiplicity
 _atom_site_fract_x
 _atom_site_fract_y
 _atom_site_fract_z
 _atom_site_occupancy
  Ce  Ce0  1  0.00000000  0.50000000  0.23911964  1
  Ce  Ce1  1  0.50000000  -0.00000000  0.76088036  1
  Cu  Cu0  1  0.00000000  0.00000000  -0.00000000  1
  Cu  Cu1  1  0.50000000  0.50000000  -0.00000000  1
  Cu  Cu2  1  0.00000000  0.50000000  0.63522441  1
  Cu  Cu3  1  0.50000000  -0.00000000  0.36477559  1
  Sn  Sn0  1  -0.00000000  0.00000000  0.50000000  1
  Sn  Sn1  1  0.50000000  0.50000000  0.50000000  1
  Sn  Sn2  1  0.00000000  0.50000000  0.87416312  1
  Sn  Sn3  1  0.50000000  -0.00000000  0.12583688  1
loop_
_geom_bond_atom_site_label_1
_geom_bond_atom_site_label_2
_geom_bond_distance
_geom_bond_site_symmetry_2
Ce0 Cu0 3.373563 1_555
Ce0 Cu0 3.373563 1_565
Ce0 Cu1 3.373563 1_455
Ce0 Cu1 3.373563 1_555
Ce0 Sn3 3.378477 1_565
Ce0 Sn3 3.378477 1_555
Ce0 Sn3 3.378477 1_465
Ce0 Sn3 3.378477 1_455
Ce0 Cu3 3.427034 1_455
Ce0 Cu3 3.427034 1_555
Ce0 Cu3 3.427034 1_565
Ce0 Cu3 3.427034 1_465
Ce0 Sn1 3.549236 1_455
Ce0 Sn0 3.549236 1_555
Ce0 Sn1 3.549236 1_555
Ce0 Sn0 3.549236 1_565
Ce1 Cu0 3.373563 1_556
Ce1 Cu0 3.373563 1_656
Ce1 Cu1 3.373563 1_556
Ce1 Cu1 3.373563 1_546
Ce1 Sn2 3.378477 1_645
Ce1 Sn2 3.378477 1_545
Ce1 Sn2 3.378477 1_655
Ce1 Sn2 3.378477 1_555
Ce1 Cu2 3.427034 1_555
Ce1 Cu2 3.427034 1_655
Ce1 Cu2 3.427034 1_545
Ce1 Cu2 3.427034 1_645
Ce1 Sn0 3.549236 1_555
Ce1 Sn0 3.549236 1_655
Ce1 Sn1 3.549236 1_555
Ce1 Sn1 3.549236 1_545
Cu0 Sn3 2.599961 1_455
Cu0 Sn3 2.599961 1_555
Cu0 Sn2 2.599961 1_554
Cu0 Sn2 2.599961 1_544
Cu1 Sn3 2.599961 1_565
Cu1 Sn3 2.599961 1_555
Cu1 Sn2 2.599961 1_654
Cu1 Sn2 2.599961 1_554
Cu2 Sn2 2.526144 1_555
Cu2 Sn0 2.652117 1_565
Cu2 Sn1 2.652117 1_455
Cu2 Sn0 2.652117 1_555
Cu2 Sn1 2.652117 1_555
Cu3 Sn3 2.526144 1_555
Cu3 Sn1 2.652117 1_545
Cu3 Sn1 2.652117 1_555
Cu3 Sn0 2.652117 1_655
Cu3 Sn0 2.652117 1_555
