# generated using pymatgen
data_Rb2Pb2O3
_symmetry_space_group_name_H-M   'P 1'
_cell_length_a   7.59003647
_cell_length_b   7.59003647
_cell_length_c   7.59003647
_cell_angle_alpha   109.47122063
_cell_angle_beta   109.47122063
_cell_angle_gamma   109.47122063
_symmetry_Int_Tables_number   1
_chemical_formula_structural   Rb2Pb2O3
_chemical_formula_sum   'Rb4 Pb4 O6'
_cell_volume   336.59657887
_cell_formula_units_Z   2
loop_
 _symmetry_equiv_pos_site_id
 _symmetry_equiv_pos_as_xyz
  1  'x, y, z'
loop_
 _atom_site_type_symbol
 _atom_site_label
 _atom_site_symmetry_multiplicity
 _atom_site_fract_x
 _atom_site_fract_y
 _atom_site_fract_z
 _atom_site_occupancy
  Rb  Rb0  1  0.46835645  0.46835645  0.46835645  1
  Rb  Rb1  1  0.03164355  0.50000000  -0.00000000  1
  Rb  Rb2  1  0.00000000  0.03164355  0.50000000  1
  Rb  Rb3  1  0.50000000  0.00000000  0.03164355  1
  Pb  Pb0  1  0.00373120  0.00373120  0.00373120  1
  Pb  Pb1  1  0.49626880  0.50000000  0.00000000  1
  Pb  Pb2  1  -0.00000000  0.49626880  0.50000000  1
  Pb  Pb3  1  0.50000000  -0.00000000  0.49626880  1
  O  O0  1  0.22557264  0.97557264  0.25000000  1
  O  O1  1  0.27442736  0.52442736  0.75000000  1
  O  O2  1  0.97557264  0.25000000  0.22557264  1
  O  O3  1  0.52442736  0.75000000  0.27442736  1
  O  O4  1  0.25000000  0.22557264  0.97557264  1
  O  O5  1  0.75000000  0.27442736  0.52442736  1
loop_
_geom_bond_atom_site_label_1
_geom_bond_atom_site_label_2
_geom_bond_distance
_geom_bond_site_symmetry_2
O0 Pb3 2.186940 1_565
O0 Pb0 2.186940 1_565
O0 Rb1 2.970889 1_555
O0 Rb2 2.970889 1_565
O0 Rb0 3.060791 1_565
O0 Rb3 3.060791 1_565
O1 Pb2 2.186940 1_555
O1 Pb1 2.186940 1_556
O1 Rb3 2.970889 1_566
O1 Rb0 2.970889 1_555
O1 Rb2 3.060791 1_555
O1 Rb1 3.060791 1_556
O2 Pb2 2.186940 1_655
O2 Pb0 2.186940 1_655
O2 Rb3 2.970889 1_555
O2 Rb1 2.970889 1_655
O2 Rb2 3.060791 1_655
O2 Rb0 3.060791 1_655
O3 Pb1 2.186940 1_555
O3 Pb3 2.186940 1_565
O3 Rb0 2.970889 1_555
O3 Rb2 2.970889 1_665
O3 Rb1 3.060791 1_555
O3 Rb3 3.060791 1_565
O4 Pb1 2.186940 1_556
O4 Pb0 2.186940 1_556
O4 Rb2 2.970889 1_555
O4 Rb3 2.970889 1_556
O4 Rb0 3.060791 1_556
O4 Rb1 3.060791 1_556
O5 Pb3 2.186940 1_555
O5 Pb2 2.186940 1_655
O5 Rb1 2.970889 1_656
O5 Rb0 2.970889 1_555
O5 Rb3 3.060791 1_555
O5 Rb2 3.060791 1_655
