# generated using pymatgen
data_Li9Mn2Co5O16
_symmetry_space_group_name_H-M   'P 1'
_cell_length_a   3.03067400
_cell_length_b   5.13463051
_cell_length_c   19.55359332
_cell_angle_alpha   91.29830670
_cell_angle_beta   92.97438167
_cell_angle_gamma   104.61416039
_symmetry_Int_Tables_number   1
_chemical_formula_structural   Li9Mn2Co5O16
_chemical_formula_sum   'Li9 Mn2 Co5 O16'
_cell_volume   293.83871969
_cell_formula_units_Z   1
loop_
 _symmetry_equiv_pos_site_id
 _symmetry_equiv_pos_as_xyz
  1  'x, y, z'
loop_
 _atom_site_type_symbol
 _atom_site_label
 _atom_site_symmetry_multiplicity
 _atom_site_fract_x
 _atom_site_fract_y
 _atom_site_fract_z
 _atom_site_occupancy
  Li  Li0  1  0.30990500  0.56049700  0.06414200  1
  Li  Li1  1  0.93804600  0.68833700  0.18766400  1
  Li  Li2  1  0.56948300  0.80944800  0.31342300  1
  Li  Li3  1  0.18571500  0.93085800  0.43660000  1
  Li  Li4  1  0.81417400  0.06904800  0.56315000  1
  Li  Li5  1  0.43084000  0.19132000  0.68636400  1
  Li  Li6  1  0.06295300  0.31280000  0.81114400  1
  Li  Li7  1  0.68728500  0.43748700  0.93745100  1
  Li  Li8  1  0.50027800  0.50005400  0.49976400  1
  Mn  Mn0  1  0.01082900  0.00044300  0.00127300  1
  Mn  Mn1  1  0.36475100  0.87369200  0.87322200  1
  Co  Co0  1  0.63386800  0.12545900  0.12791400  1
  Co  Co1  1  0.25126500  0.25145000  0.25256000  1
  Co  Co2  1  0.87868400  0.37988100  0.38008400  1
  Co  Co3  1  0.11973200  0.61937100  0.61914800  1
  Co  Co4  1  0.74243300  0.75072500  0.74626200  1
  O  O0  1  0.69481700  0.26714500  0.03638900  1
  O  O1  1  0.27007100  0.38954900  0.16146500  1
  O  O2  1  0.88544100  0.50571900  0.28775700  1
  O  O3  1  0.54164500  0.62895300  0.40379000  1
  O  O4  1  0.16115200  0.77540400  0.54090100  1
  O  O5  1  0.80514200  0.88508400  0.65725400  1
  O  O6  1  0.38502000  0.01378400  0.78150700  1
  O  O7  1  0.05703300  0.14125300  0.90894900  1
  O  O8  1  0.99776200  0.86405000  0.09331300  1
  O  O9  1  0.60548700  0.98448200  0.21773000  1
  O  O10  1  0.19296300  0.11514800  0.34172600  1
  O  O11  1  0.83838100  0.22370300  0.45850300  1
  O  O12  1  0.45787900  0.37055300  0.59565100  1
  O  O13  1  0.10878600  0.49452100  0.71139900  1
  O  O14  1  0.68040100  0.60725000  0.83793200  1
  O  O15  1  0.31777700  0.73253100  0.96557200  1
loop_
_geom_bond_atom_site_label_1
_geom_bond_atom_site_label_2
_geom_bond_distance
_geom_bond_site_symmetry_2
Li0 O8 2.099849 1_455
Li0 O1 2.110108 1_555
Li0 O0 2.116450 1_455
Li0 O15 2.137053 1_554
Li0 O0 2.199872 1_555
Li0 O8 2.301571 1_555
Li1 O8 2.068357 1_555
Li1 O1 2.103700 1_655
Li1 O9 2.113764 1_555
Li1 O2 2.185248 1_555
Li1 O1 2.236935 1_555
Li1 O9 2.243543 1_655
Li2 O3 2.009612 1_555
Li2 O9 2.090146 1_555
Li2 O2 2.090199 1_555
Li2 O10 2.167023 1_665
Li2 O10 2.236571 1_565
Li2 O2 2.281860 1_455
Li3 O11 2.090168 1_465
Li3 O10 2.100162 1_565
Li3 O11 2.176922 1_565
Li3 O3 2.201998 1_555
Li3 O4 2.204903 1_555
Li3 O3 2.218750 1_455
Li4 O5 2.085617 1_545
Li4 O4 2.094334 1_645
Li4 O4 2.180496 1_545
Li4 O12 2.199256 1_555
Li4 O11 2.209711 1_555
Li4 O12 2.215654 1_655
Li5 O12 2.012685 1_555
Li5 O6 2.085927 1_555
Li5 O13 2.097098 1_555
Li5 O5 2.176041 1_445
Li5 O5 2.238268 1_545
Li5 O13 2.265352 1_655
Li6 O6 2.102482 1_555
Li6 O14 2.120525 1_555
Li6 O7 2.122623 1_555
Li6 O13 2.176936 1_555
Li6 O14 2.194547 1_455
Li6 O6 2.271288 1_455
Li7 O0 2.142509 1_556
Li7 O14 2.151467 1_555
Li7 O15 2.154316 1_655
Li7 O7 2.158162 1_555
Li7 O15 2.175714 1_555
Li7 O7 2.183212 1_655
Li8 O12 2.003103 1_555
Li8 O3 2.003586 1_555
Li8 O4 2.114181 1_555
Li8 O11 2.117065 1_555
Li8 O4 2.238263 1_655
Li8 O11 2.243255 1_455
Mn0 O8 1.944610 1_445
Mn0 O7 1.958475 1_554
Mn0 O15 1.978557 1_544
Mn0 O0 1.987834 1_455
Mn0 O0 2.240778 1_555
Mn0 O15 2.266649 1_444
Mn1 O6 1.945487 1_565
Mn1 O15 1.959683 1_555
Mn1 O7 1.978840 1_565
Mn1 O14 1.987234 1_555
Mn1 O14 2.241946 1_455
Mn1 O7 2.264347 1_665
Co0 O9 1.912478 1_545
Co0 O0 1.947229 1_555
Co0 O8 2.063705 1_545
Co0 O1 2.067352 1_555
Co0 O8 2.119816 1_445
Co0 O1 2.120347 1_655
Co1 O10 1.893604 1_555
Co1 O1 1.930344 1_555
Co1 O2 2.043596 1_455
Co1 O9 2.066760 1_545
Co1 O2 2.104275 1_555
Co1 O9 2.153800 1_445
Co2 O11 1.742112 1_555
Co2 O3 1.890840 1_555
Co2 O2 1.930576 1_555
Co2 O10 1.999688 1_655
Co2 O3 2.113581 1_655
Co2 O10 2.257368 1_555
Co3 O4 1.738762 1_555
Co3 O12 1.891170 1_555
Co3 O13 1.927115 1_555
Co3 O5 2.002417 1_455
Co3 O12 2.109834 1_455
Co3 O5 2.257161 1_555
Co4 O5 1.887781 1_555
Co4 O14 1.953448 1_555
Co4 O13 2.050122 1_655
Co4 O6 2.060652 1_565
Co4 O13 2.105192 1_555
Co4 O6 2.140833 1_665
