# generated using pymatgen
data_LiGdSn
_symmetry_space_group_name_H-M   'P 1'
_cell_length_a   9.45484838
_cell_length_b   9.45484838
_cell_length_c   7.45553300
_cell_angle_alpha   90.00000000
_cell_angle_beta   90.00000000
_cell_angle_gamma   120.00000269
_symmetry_Int_Tables_number   1
_chemical_formula_structural   LiGdSn
_chemical_formula_sum   'Li8 Gd8 Sn8'
_cell_volume   577.18954351
_cell_formula_units_Z   8
loop_
 _symmetry_equiv_pos_site_id
 _symmetry_equiv_pos_as_xyz
  1  'x, y, z'
loop_
 _atom_site_type_symbol
 _atom_site_label
 _atom_site_symmetry_multiplicity
 _atom_site_fract_x
 _atom_site_fract_y
 _atom_site_fract_z
 _atom_site_occupancy
  Li  Li0  1  0.83275200  0.16724800  0.21013600  1
  Li  Li1  1  0.83275200  0.66550300  0.21013600  1
  Li  Li2  1  0.33449700  0.16724800  0.21013600  1
  Li  Li3  1  0.16724800  0.83275200  0.71013600  1
  Li  Li4  1  0.16724800  0.33449700  0.71013600  1
  Li  Li5  1  0.66550300  0.83275200  0.71013600  1
  Li  Li6  1  0.66666700  0.33333300  0.83567600  1
  Li  Li7  1  0.33333300  0.66666700  0.33567600  1
  Gd  Gd0  1  0.48668900  0.51331100  0.00523900  1
  Gd  Gd1  1  0.48668900  0.97337800  0.00523900  1
  Gd  Gd2  1  0.02662200  0.51331100  0.00523900  1
  Gd  Gd3  1  0.51331100  0.48668900  0.50523900  1
  Gd  Gd4  1  0.51331100  0.02662200  0.50523900  1
  Gd  Gd5  1  0.97337800  0.48668900  0.50523900  1
  Gd  Gd6  1  0.00000000  0.00000000  0.99843100  1
  Gd  Gd7  1  0.00000000  0.00000000  0.49843100  1
  Sn  Sn0  1  0.83326000  0.16674000  0.77228700  1
  Sn  Sn1  1  0.83326000  0.66652000  0.77228700  1
  Sn  Sn2  1  0.33348000  0.16674000  0.77228700  1
  Sn  Sn3  1  0.16674000  0.83326000  0.27228700  1
  Sn  Sn4  1  0.16674000  0.33348000  0.27228700  1
  Sn  Sn5  1  0.66652000  0.83326000  0.27228700  1
  Sn  Sn6  1  0.66666700  0.33333300  0.23164800  1
  Sn  Sn7  1  0.33333300  0.66666700  0.73164800  1
loop_
_geom_bond_atom_site_label_1
_geom_bond_atom_site_label_2
_geom_bond_distance
_geom_bond_site_symmetry_2
Li0 Sn6 2.724579 1_555
Li0 Sn5 2.773728 1_545
Li0 Sn4 2.773728 1_655
Li0 Sn0 3.264408 1_554
Li1 Sn6 2.724579 1_555
Li1 Sn3 2.773728 1_655
Li1 Sn5 2.773736 1_555
Li1 Sn1 3.264408 1_554
Li2 Sn6 2.724579 1_555
Li2 Sn3 2.773728 1_545
Li2 Sn4 2.773736 1_555
Li2 Sn2 3.264408 1_554
Li3 Sn7 2.724579 1_555
Li3 Sn1 2.773728 1_455
Li3 Sn2 2.773728 1_565
Li3 Sn3 3.264408 1_555
Li4 Sn7 2.724579 1_555
Li4 Sn0 2.773728 1_455
Li4 Sn2 2.773736 1_555
Li4 Sn4 3.264408 1_555
Li5 Sn7 2.724579 1_555
Li5 Sn0 2.773728 1_565
Li5 Sn1 2.773736 1_555
Li5 Sn5 3.264408 1_555
Li6 Sn0 2.768805 1_555
Li6 Sn2 2.768813 1_555
Li6 Sn1 2.768813 1_555
Li6 Sn6 2.952182 1_556
Li7 Sn3 2.768805 1_555
Li7 Sn4 2.768813 1_555
Li7 Sn5 2.768813 1_555
Li7 Sn7 2.952182 1_555
Gd0 Li6 3.207046 1_554
Gd0 Li1 3.225181 1_555
Gd0 Li2 3.225181 1_555
Gd0 Sn7 3.235395 1_554
Gd0 Sn4 3.295838 1_555
Gd0 Sn5 3.295838 1_555
Gd0 Sn2 3.332475 1_554
Gd0 Sn1 3.332475 1_554
Gd0 Sn6 3.396518 1_555
Gd0 Li5 3.422683 1_554
Gd0 Li4 3.422683 1_554
Gd0 Li7 3.518008 1_555
Gd1 Li6 3.207039 1_564
Gd1 Li2 3.225173 1_565
Gd1 Li0 3.225180 1_565
Gd1 Sn7 3.235389 1_554
Gd1 Sn3 3.295838 1_555
Gd1 Sn5 3.295839 1_555
Gd1 Sn0 3.332475 1_564
Gd1 Sn2 3.332475 1_564
Gd1 Sn6 3.396510 1_565
Gd1 Li5 3.422677 1_554
Gd1 Li3 3.422683 1_554
Gd1 Li7 3.518002 1_555
Gd2 Li6 3.207039 1_454
Gd2 Li1 3.225173 1_455
Gd2 Li0 3.225180 1_455
Gd2 Sn7 3.235389 1_554
Gd2 Sn3 3.295838 1_555
Gd2 Sn4 3.295839 1_555
Gd2 Sn0 3.332475 1_454
Gd2 Sn1 3.332475 1_454
Gd2 Sn6 3.396510 1_455
Gd2 Li4 3.422677 1_554
Gd2 Li3 3.422683 1_554
Gd2 Li7 3.518002 1_555
Gd3 Li7 3.207046 1_555
Gd3 Li5 3.225181 1_555
Gd3 Li4 3.225181 1_555
Gd3 Sn6 3.235395 1_555
Gd3 Sn2 3.295838 1_555
Gd3 Sn1 3.295838 1_555
Gd3 Sn4 3.332475 1_555
Gd3 Sn5 3.332475 1_555
Gd3 Sn7 3.396518 1_555
Gd3 Li1 3.422683 1_555
Gd3 Li2 3.422683 1_555
Gd3 Li6 3.518008 1_555
Gd4 Li7 3.207039 1_545
Gd4 Li5 3.225173 1_545
Gd4 Li3 3.225180 1_545
Gd4 Sn6 3.235389 1_555
Gd4 Sn0 3.295838 1_555
Gd4 Sn2 3.295839 1_555
Gd4 Sn3 3.332475 1_545
Gd4 Sn5 3.332475 1_545
Gd4 Sn7 3.396510 1_545
Gd4 Li2 3.422677 1_555
Gd4 Li0 3.422683 1_555
Gd4 Li6 3.518002 1_555
Gd5 Li7 3.207039 1_655
Gd5 Li4 3.225173 1_655
Gd5 Li3 3.225180 1_655
Gd5 Sn6 3.235389 1_555
Gd5 Sn0 3.295838 1_555
Gd5 Sn1 3.295839 1_555
Gd5 Sn3 3.332475 1_655
Gd5 Sn4 3.332475 1_655
Gd5 Sn7 3.396510 1_655
Gd5 Li1 3.422677 1_555
Gd5 Li0 3.422683 1_555
Gd5 Li6 3.518002 1_555
Gd6 Li0 3.161145 1_456
Gd6 Li2 3.161152 1_556
Gd6 Li1 3.161152 1_446
Gd6 Sn1 3.209166 1_445
Gd6 Sn2 3.209166 1_555
Gd6 Sn0 3.209166 1_455
Gd6 Sn4 3.409513 1_556
Gd6 Sn5 3.409513 1_446
Gd6 Sn3 3.409514 1_546
Gd6 Li3 3.481589 1_545
Gd6 Li4 3.481595 1_555
Gd6 Li5 3.481595 1_445
Gd7 Li3 3.161145 1_545
Gd7 Li4 3.161152 1_555
Gd7 Li5 3.161152 1_445
Gd7 Sn4 3.209166 1_555
Gd7 Sn5 3.209166 1_445
Gd7 Sn3 3.209166 1_545
Gd7 Sn1 3.409513 1_445
Gd7 Sn2 3.409513 1_555
Gd7 Sn0 3.409514 1_455
Gd7 Li0 3.481589 1_455
Gd7 Li1 3.481595 1_445
Gd7 Li2 3.481595 1_555
