# generated using pymatgen
data_Ce(YSi)4
_symmetry_space_group_name_H-M   'P 1'
_cell_length_a   7.38599900
_cell_length_b   7.64838700
_cell_length_c   14.57882000
_cell_angle_alpha   90.00000000
_cell_angle_beta   90.00000000
_cell_angle_gamma   90.00000000
_symmetry_Int_Tables_number   1
_chemical_formula_structural   Ce(YSi)4
_chemical_formula_sum   'Ce4 Y16 Si16'
_cell_volume   823.57181058
_cell_formula_units_Z   4
loop_
 _symmetry_equiv_pos_site_id
 _symmetry_equiv_pos_as_xyz
  1  'x, y, z'
loop_
 _atom_site_type_symbol
 _atom_site_label
 _atom_site_symmetry_multiplicity
 _atom_site_fract_x
 _atom_site_fract_y
 _atom_site_fract_z
 _atom_site_occupancy
  Ce  Ce0  1  0.22125200  0.81868700  0.65159100  1
  Ce  Ce1  1  0.72125200  0.68131300  0.34840900  1
  Ce  Ce2  1  0.27874800  0.18131300  0.15159100  1
  Ce  Ce3  1  0.77874800  0.31868700  0.84840900  1
  Y  Y0  1  0.89647100  0.98699700  0.50001900  1
  Y  Y1  1  0.39647100  0.51300300  0.49998100  1
  Y  Y2  1  0.60352900  0.01300300  0.00001900  1
  Y  Y3  1  0.10352900  0.48699700  0.99998100  1
  Y  Y4  1  0.93550000  0.82230200  0.12796600  1
  Y  Y5  1  0.43550000  0.67769800  0.87203400  1
  Y  Y6  1  0.56450000  0.17769800  0.62796600  1
  Y  Y7  1  0.06450000  0.32230200  0.37203400  1
  Y  Y8  1  0.56608400  0.17911400  0.37195500  1
  Y  Y9  1  0.06608400  0.32088600  0.62804500  1
  Y  Y10  1  0.93391600  0.82088600  0.87195500  1
  Y  Y11  1  0.43391600  0.67911400  0.12804500  1
  Y  Y12  1  0.27861000  0.18177400  0.84985100  1
  Y  Y13  1  0.77861000  0.31822600  0.15014900  1
  Y  Y14  1  0.22139000  0.81822600  0.34985100  1
  Y  Y15  1  0.72139000  0.68177400  0.65014900  1
  Si  Si0  1  0.10431700  0.52875000  0.20961900  1
  Si  Si1  1  0.60431700  0.97125000  0.79038100  1
  Si  Si2  1  0.39568300  0.47125000  0.70961900  1
  Si  Si3  1  0.89568300  0.02875000  0.29038100  1
  Si  Si4  1  0.39283100  0.47397000  0.29077300  1
  Si  Si5  1  0.89283100  0.02603000  0.70922700  1
  Si  Si6  1  0.10716900  0.52603000  0.79077300  1
  Si  Si7  1  0.60716900  0.97397000  0.20922700  1
  Si  Si8  1  0.01321600  0.62531800  0.50068300  1
  Si  Si9  1  0.51321600  0.87468200  0.49931700  1
  Si  Si10  1  0.48678400  0.37468200  0.00068300  1
  Si  Si11  1  0.98678400  0.12531800  0.99931700  1
  Si  Si12  1  0.26935200  0.10720300  0.49998200  1
  Si  Si13  1  0.76935200  0.39279700  0.50001800  1
  Si  Si14  1  0.23064800  0.89279700  0.99998200  1
  Si  Si15  1  0.73064800  0.60720300  0.00001800  1
loop_
_geom_bond_atom_site_label_1
_geom_bond_atom_site_label_2
_geom_bond_distance
_geom_bond_site_symmetry_2
Ce0 Si5 3.017455 1_465
Ce0 Si8 3.064080 1_555
Ce0 Si2 3.071960 1_555
Ce0 Si9 3.124414 1_555
Ce0 Si6 3.136482 1_555
Ce0 Si12 3.143406 1_565
Ce0 Si1 3.668886 1_555
Ce1 Si4 3.017455 1_555
Ce1 Si9 3.064080 1_555
Ce1 Si3 3.071960 1_565
Ce1 Si8 3.124414 1_655
Ce1 Si7 3.136482 1_555
Ce1 Si13 3.143406 1_555
Ce1 Si0 3.668886 1_655
Ce2 Si7 3.017455 1_545
Ce2 Si10 3.064080 1_555
Ce2 Si0 3.071960 1_555
Ce2 Si11 3.124414 1_454
Ce2 Si4 3.136482 1_555
Ce2 Si14 3.143406 1_544
Ce2 Si3 3.668886 1_455
Ce3 Si6 3.017455 1_655
Ce3 Si11 3.064080 1_555
Ce3 Si1 3.071960 1_545
Ce3 Si10 3.124414 1_556
Ce3 Si5 3.136482 1_555
Ce3 Si15 3.143406 1_556
Ce3 Si2 3.668886 1_555
Si0 Si4 2.473125 1_555
Si0 Y4 2.830671 1_455
Si0 Y7 2.861167 1_555
Si0 Y11 2.943350 1_555
Si0 Y13 3.021853 1_455
Si0 Y3 3.072919 1_554
Si0 Y14 3.135164 1_555
Si1 Si5 2.473125 1_565
Si1 Y5 2.830671 1_555
Si1 Y6 2.861167 1_565
Si1 Y10 2.943350 1_555
Si1 Y12 3.021853 1_565
Si1 Y2 3.072919 1_566
Si1 Y15 3.135164 1_555
Si2 Si6 2.473125 1_555
Si2 Y6 2.830671 1_555
Si2 Y5 2.861167 1_555
Si2 Y9 2.943350 1_555
Si2 Y15 3.021853 1_555
Si2 Y1 3.072919 1_555
Si2 Y12 3.135164 1_555
Si3 Si7 2.473125 1_545
Si3 Y7 2.830671 1_655
Si3 Y4 2.861167 1_545
Si3 Y8 2.943350 1_555
Si3 Y14 3.021853 1_645
Si3 Y0 3.072919 1_545
Si3 Y13 3.135164 1_555
Si4 Y8 2.850274 1_555
Si4 Y11 2.860438 1_555
Si4 Y7 2.937687 1_555
Si4 Y14 3.045972 1_555
Si4 Y1 3.064700 1_555
Si5 Y9 2.850274 1_655
Si5 Y10 2.860438 1_545
Si5 Y6 2.937687 1_555
Si5 Y15 3.045972 1_545
Si5 Y0 3.064700 1_545
Si6 Y10 2.850274 1_455
Si6 Y9 2.860438 1_555
Si6 Y5 2.937687 1_555
Si6 Y12 3.045972 1_555
Si6 Y3 3.064700 1_555
Si7 Y11 2.850274 1_555
Si7 Y8 2.860438 1_565
Si7 Y4 2.937687 1_555
Si7 Y13 3.045972 1_565
Si7 Y2 3.064700 1_565
Si8 Y0 2.897554 1_455
Si8 Y1 2.958212 1_555
Si8 Y9 3.003606 1_555
Si8 Y7 3.005389 1_555
Si8 Y14 3.062096 1_555
Si8 Y15 3.095241 1_455
Si9 Y1 2.897554 1_555
Si9 Y0 2.958212 1_555
Si9 Y8 3.003606 1_565
Si9 Y6 3.005389 1_565
Si9 Y15 3.062096 1_555
Si9 Y14 3.095241 1_555
Si10 Si15 2.531222 1_555
Si10 Y2 2.897554 1_555
Si10 Y3 2.958212 1_554
Si10 Y11 3.003606 1_555
Si10 Y5 3.005389 1_554
Si10 Y12 3.062096 1_554
Si10 Y13 3.095241 1_555
Si11 Si14 2.531222 1_645
Si11 Y3 2.897554 1_655
Si11 Y2 2.958212 1_556
Si11 Y10 3.003606 1_545
Si11 Y4 3.005389 1_546
Si11 Y13 3.062096 1_556
Si11 Y12 3.095241 1_655
Si12 Si9 2.531222 1_545
Si12 Y9 2.900132 1_555
Si12 Y0 2.903502 1_445
Si12 Y7 2.911235 1_555
Si12 Y6 2.919651 1_555
Si12 Y8 2.930809 1_555
Si12 Y14 3.130665 1_545
Si12 Y1 3.242620 1_555
Si13 Si8 2.531222 1_655
Si13 Y8 2.900132 1_555
Si13 Y1 2.903502 1_555
Si13 Y6 2.911235 1_555
Si13 Y7 2.919651 1_655
Si13 Y9 2.930809 1_655
Si13 Y15 3.130665 1_555
Si13 Y0 3.242620 1_545
Si14 Y11 2.900132 1_556
Si14 Y2 2.903502 1_566
Si14 Y5 2.911235 1_555
Si14 Y4 2.919651 1_456
Si14 Y10 2.930809 1_455
Si14 Y12 3.130665 1_565
Si14 Y3 3.242620 1_555
Si15 Y10 2.900132 1_554
Si15 Y3 2.903502 1_654
Si15 Y4 2.911235 1_555
Si15 Y5 2.919651 1_554
Si15 Y11 2.930809 1_555
Si15 Y13 3.130665 1_555
Si15 Y2 3.242620 1_565
