# generated using pymatgen
data_Hf2Al3C5
_symmetry_space_group_name_H-M   'P 1'
_cell_length_a   3.22477469
_cell_length_b   3.22477469
_cell_length_c   24.32104300
_cell_angle_alpha   90.00000000
_cell_angle_beta   90.00000000
_cell_angle_gamma   120.00001412
_symmetry_Int_Tables_number   1
_chemical_formula_structural   Hf2Al3C5
_chemical_formula_sum   'Hf4 Al6 C10'
_cell_volume   219.03399181
_cell_formula_units_Z   2
loop_
 _symmetry_equiv_pos_site_id
 _symmetry_equiv_pos_as_xyz
  1  'x, y, z'
loop_
 _atom_site_type_symbol
 _atom_site_label
 _atom_site_symmetry_multiplicity
 _atom_site_fract_x
 _atom_site_fract_y
 _atom_site_fract_z
 _atom_site_occupancy
  Hf  Hf0  1  0.66666700  0.33333300  0.94373800  1
  Hf  Hf1  1  0.33333300  0.66666700  0.44373800  1
  Hf  Hf2  1  0.66666700  0.33333300  0.55626200  1
  Hf  Hf3  1  0.33333300  0.66666700  0.05626200  1
  Al  Al0  1  0.00000000  0.00000000  0.84615700  1
  Al  Al1  1  0.00000000  0.00000000  0.34615700  1
  Al  Al2  1  0.00000000  0.00000000  0.15384300  1
  Al  Al3  1  0.00000000  0.00000000  0.65384300  1
  Al  Al4  1  0.33333300  0.66666700  0.75000000  1
  Al  Al5  1  0.66666700  0.33333300  0.25000000  1
  C  C0  1  0.66666700  0.33333300  0.78364200  1
  C  C1  1  0.33333300  0.66666700  0.28364200  1
  C  C2  1  0.33333300  0.66666700  0.88732700  1
  C  C3  1  0.66666700  0.33333300  0.38732700  1
  C  C4  1  0.66666700  0.33333300  0.11267300  1
  C  C5  1  0.33333300  0.66666700  0.61267300  1
  C  C6  1  0.33333300  0.66666700  0.21635800  1
  C  C7  1  0.66666700  0.33333300  0.71635800  1
  C  C8  1  0.00000000  0.00000000  0.00000000  1
  C  C9  1  0.00000000  0.00000000  0.50000000  1
loop_
_geom_bond_atom_site_label_1
_geom_bond_atom_site_label_2
_geom_bond_distance
_geom_bond_site_symmetry_2
Al0 C2 2.113996 1_545
Al0 C2 2.113998 1_555
Al0 C2 2.113998 1_445
Al0 C0 2.403766 1_455
Al0 C0 2.403768 1_555
Al0 C0 2.403768 1_445
Al1 C3 2.113996 1_455
Al1 C3 2.113998 1_555
Al1 C3 2.113998 1_445
Al1 C1 2.403766 1_545
Al1 C1 2.403768 1_445
Al1 C1 2.403768 1_555
Al2 C4 2.113996 1_455
Al2 C4 2.113998 1_445
Al2 C4 2.113998 1_555
Al2 C6 2.403766 1_545
Al2 C6 2.403768 1_555
Al2 C6 2.403768 1_445
Al3 C5 2.113996 1_545
Al3 C5 2.113998 1_555
Al3 C5 2.113998 1_445
Al3 C7 2.403766 1_455
Al3 C7 2.403768 1_445
Al3 C7 2.403768 1_555
Al4 C0 2.033678 1_455
Al4 C7 2.033678 1_455
Al4 C0 2.033678 1_565
Al4 C7 2.033678 1_565
Al4 C7 2.033684 1_555
Al4 C0 2.033684 1_555
Al5 C1 2.033678 1_545
Al5 C6 2.033678 1_545
Al5 C6 2.033678 1_655
Al5 C1 2.033678 1_655
Al5 C6 2.033684 1_555
Al5 C1 2.033684 1_555
C0 C7 1.636417 1_555
C1 C6 1.636417 1_555
C2 Hf0 2.312725 1_455
C2 Hf0 2.312725 1_565
C2 Hf0 2.312730 1_555
C3 Hf1 2.312725 1_655
C3 Hf1 2.312725 1_545
C3 Hf1 2.312730 1_555
C4 Hf3 2.312725 1_545
C4 Hf3 2.312725 1_655
C4 Hf3 2.312730 1_555
C5 Hf2 2.312725 1_455
C5 Hf2 2.312725 1_565
C5 Hf2 2.312730 1_555
C8 Hf3 2.310577 1_545
C8 Hf0 2.310577 1_454
C8 Hf3 2.310579 1_555
C8 Hf3 2.310579 1_445
C8 Hf0 2.310579 1_444
C8 Hf0 2.310579 1_554
C9 Hf1 2.310577 1_545
C9 Hf2 2.310577 1_455
C9 Hf1 2.310579 1_445
C9 Hf1 2.310579 1_555
C9 Hf2 2.310579 1_555
C9 Hf2 2.310579 1_445
