# generated using pymatgen
data_Li3CoN2
_symmetry_space_group_name_H-M   'P 1'
_cell_length_a   8.17144852
_cell_length_b   8.17144852
_cell_length_c   8.17144852
_cell_angle_alpha   109.47122063
_cell_angle_beta   109.47122063
_cell_angle_gamma   109.47122063
_symmetry_Int_Tables_number   1
_chemical_formula_structural   Li3CoN2
_chemical_formula_sum   'Li24 Co8 N16'
_cell_volume   420.02511124
_cell_formula_units_Z   8
loop_
 _symmetry_equiv_pos_site_id
 _symmetry_equiv_pos_as_xyz
  1  'x, y, z'
loop_
 _atom_site_type_symbol
 _atom_site_label
 _atom_site_symmetry_multiplicity
 _atom_site_fract_x
 _atom_site_fract_y
 _atom_site_fract_z
 _atom_site_occupancy
  Li  Li0  1  0.51492300  0.47969100  0.25762200  1
  Li  Li1  1  0.77793000  0.02030900  0.53523200  1
  Li  Li2  1  0.72207000  0.25730100  0.24237800  1
  Li  Li3  1  0.98507700  0.24269900  0.96476800  1
  Li  Li4  1  0.53523200  0.77793000  0.02030900  1
  Li  Li5  1  0.25762200  0.51492300  0.47969100  1
  Li  Li6  1  0.96476800  0.98507700  0.24269900  1
  Li  Li7  1  0.24237800  0.72207000  0.25730100  1
  Li  Li8  1  0.25730100  0.24237800  0.72207000  1
  Li  Li9  1  0.24269900  0.96476800  0.98507700  1
  Li  Li10  1  0.47969100  0.25762200  0.51492300  1
  Li  Li11  1  0.02030900  0.53523200  0.77793000  1
  Li  Li12  1  0.48507700  0.52030900  0.74237800  1
  Li  Li13  1  0.22207000  0.97969100  0.46476800  1
  Li  Li14  1  0.27793000  0.74269900  0.75762200  1
  Li  Li15  1  0.01492300  0.75730100  0.03523200  1
  Li  Li16  1  0.46476800  0.22207000  0.97969100  1
  Li  Li17  1  0.74237800  0.48507700  0.52030900  1
  Li  Li18  1  0.03523200  0.01492300  0.75730100  1
  Li  Li19  1  0.75762200  0.27793000  0.74269900  1
  Li  Li20  1  0.74269900  0.75762200  0.27793000  1
  Li  Li21  1  0.75730100  0.03523200  0.01492300  1
  Li  Li22  1  0.52030900  0.74237800  0.48507700  1
  Li  Li23  1  0.97969100  0.46476800  0.22207000  1
  Co  Co0  1  0.22594200  0.22594200  0.22594200  1
  Co  Co1  1  0.00000000  0.27405800  0.50000000  1
  Co  Co2  1  0.50000000  0.00000000  0.27405800  1
  Co  Co3  1  0.27405800  0.50000000  0.00000000  1
  Co  Co4  1  0.77405800  0.77405800  0.77405800  1
  Co  Co5  1  0.00000000  0.72594200  0.50000000  1
  Co  Co6  1  0.50000000  0.00000000  0.72594200  1
  Co  Co7  1  0.72594200  0.50000000  0.00000000  1
  N  N0  1  0.00000000  0.00000000  0.00000000  1
  N  N1  1  0.00000000  0.50000000  0.50000000  1
  N  N2  1  0.50000000  0.00000000  0.50000000  1
  N  N3  1  0.50000000  0.50000000  0.00000000  1
  N  N4  1  0.21669200  0.25000000  0.46669200  1
  N  N5  1  0.28330800  0.75000000  0.03330800  1
  N  N6  1  0.46669200  0.21669200  0.25000000  1
  N  N7  1  0.03330800  0.28330800  0.75000000  1
  N  N8  1  0.75000000  0.03330800  0.28330800  1
  N  N9  1  0.25000000  0.46669200  0.21669200  1
  N  N10  1  0.78330800  0.75000000  0.53330800  1
  N  N11  1  0.71669200  0.25000000  0.96669200  1
  N  N12  1  0.53330800  0.78330800  0.75000000  1
  N  N13  1  0.96669200  0.71669200  0.25000000  1
  N  N14  1  0.25000000  0.96669200  0.71669200  1
  N  N15  1  0.75000000  0.53330800  0.78330800  1
loop_
_geom_bond_atom_site_label_1
_geom_bond_atom_site_label_2
_geom_bond_distance
_geom_bond_site_symmetry_2
Li0 N6 2.026698 1_555
Li0 N9 2.037118 1_555
Li0 N3 2.132910 1_555
Li0 N10 2.218796 1_555
Li1 N7 2.026701 1_655
Li1 N8 2.037120 1_555
Li1 N2 2.132902 1_555
Li1 N10 2.218799 1_545
Li2 N6 2.026706 1_555
Li2 N8 2.037116 1_555
Li2 N1 2.132906 1_655
Li2 N11 2.218793 1_554
Li3 N7 2.026698 1_655
Li3 N9 2.037118 1_656
Li3 N0 2.132910 1_656
Li3 N11 2.218796 1_555
Li4 N8 2.026701 1_565
Li4 N5 2.037120 1_555
Li4 N3 2.132902 1_555
Li4 N12 2.218799 1_554
Li5 N9 2.026698 1_555
Li5 N4 2.037118 1_555
Li5 N1 2.132910 1_555
Li5 N12 2.218796 1_555
Li6 N8 2.026698 1_565
Li6 N4 2.037118 1_665
Li6 N0 2.132910 1_665
Li6 N13 2.218796 1_555
Li7 N9 2.026706 1_555
Li7 N5 2.037116 1_555
Li7 N2 2.132906 1_565
Li7 N13 2.218793 1_455
Li8 N4 2.026706 1_555
Li8 N7 2.037116 1_555
Li8 N3 2.132906 1_556
Li8 N14 2.218793 1_545
Li9 N5 2.026698 1_556
Li9 N6 2.037118 1_566
Li9 N0 2.132910 1_566
Li9 N14 2.218796 1_555
Li10 N4 2.026698 1_555
Li10 N6 2.037118 1_555
Li10 N2 2.132910 1_555
Li10 N15 2.218796 1_555
Li11 N5 2.026701 1_556
Li11 N7 2.037120 1_555
Li11 N1 2.132902 1_555
Li11 N15 2.218799 1_455
Li12 N12 2.026698 1_555
Li12 N15 2.037118 1_555
Li12 N3 2.132910 1_556
Li12 N4 2.218796 1_555
Li13 N13 2.026701 1_455
Li13 N14 2.037120 1_555
Li13 N2 2.132902 1_565
Li13 N4 2.218799 1_565
Li14 N12 2.026706 1_555
Li14 N14 2.037116 1_555
Li14 N1 2.132906 1_555
Li14 N5 2.218793 1_556
Li15 N13 2.026698 1_455
Li15 N15 2.037118 1_454
Li15 N0 2.132910 1_565
Li15 N5 2.218796 1_555
Li16 N14 2.026701 1_545
Li16 N11 2.037120 1_555
Li16 N3 2.132902 1_556
Li16 N6 2.218799 1_556
Li17 N15 2.026698 1_555
Li17 N10 2.037118 1_555
Li17 N1 2.132910 1_655
Li17 N6 2.218796 1_555
Li18 N14 2.026698 1_545
Li18 N10 2.037118 1_445
Li18 N0 2.132910 1_556
Li18 N7 2.218796 1_555
Li19 N15 2.026706 1_555
Li19 N11 2.037116 1_555
Li19 N2 2.132906 1_555
Li19 N7 2.218793 1_655
Li20 N10 2.026706 1_555
Li20 N13 2.037116 1_555
Li20 N3 2.132906 1_555
Li20 N8 2.218793 1_565
Li21 N11 2.026698 1_554
Li21 N12 2.037118 1_544
Li21 N0 2.132910 1_655
Li21 N8 2.218796 1_555
Li22 N10 2.026698 1_555
Li22 N12 2.037118 1_555
Li22 N2 2.132910 1_565
Li22 N9 2.218796 1_555
Li23 N11 2.026701 1_554
Li23 N13 2.037120 1_555
Li23 N1 2.132902 1_655
Li23 N9 2.218799 1_655
Co0 N0 1.846273 1_555
Co0 N4 1.940553 1_555
Co0 N6 1.940553 1_555
Co0 N9 1.940553 1_555
Co1 N1 1.846273 1_555
Co1 N8 1.940553 1_455
Co1 N7 1.940553 1_555
Co1 N4 1.940553 1_555
Co2 N2 1.846273 1_555
Co2 N5 1.940553 1_545
Co2 N6 1.940553 1_555
Co2 N8 1.940553 1_555
Co3 N3 1.846273 1_555
Co3 N7 1.940553 1_554
Co3 N5 1.940553 1_555
Co3 N9 1.940553 1_555
Co4 N0 1.846273 1_666
Co4 N12 1.940553 1_555
Co4 N10 1.940553 1_555
Co4 N15 1.940553 1_555
Co5 N1 1.846273 1_555
Co5 N14 1.940553 1_555
Co5 N13 1.940553 1_455
Co5 N10 1.940553 1_455
Co6 N2 1.846273 1_555
Co6 N12 1.940553 1_545
Co6 N14 1.940553 1_545
Co6 N11 1.940553 1_555
Co7 N3 1.846273 1_555
Co7 N13 1.940553 1_555
Co7 N11 1.940553 1_554
Co7 N15 1.940553 1_554
