# generated using pymatgen
data_Zn2W3O8
_symmetry_space_group_name_H-M   'P 1'
_cell_length_a   6.35385762
_cell_length_b   6.35385762
_cell_length_c   9.36110600
_cell_angle_alpha   90.00000000
_cell_angle_beta   90.00000000
_cell_angle_gamma   119.99999603
_symmetry_Int_Tables_number   1
_chemical_formula_structural   Zn2W3O8
_chemical_formula_sum   'Zn4 W6 O16'
_cell_volume   327.29002508
_cell_formula_units_Z   2
loop_
 _symmetry_equiv_pos_site_id
 _symmetry_equiv_pos_as_xyz
  1  'x, y, z'
loop_
 _atom_site_type_symbol
 _atom_site_label
 _atom_site_symmetry_multiplicity
 _atom_site_fract_x
 _atom_site_fract_y
 _atom_site_fract_z
 _atom_site_occupancy
  Zn  Zn0  1  0.66666700  0.33333300  0.04057200  1
  Zn  Zn1  1  0.33333300  0.66666700  0.54057200  1
  Zn  Zn2  1  0.66666700  0.33333300  0.40173900  1
  Zn  Zn3  1  0.33333300  0.66666700  0.90173900  1
  W  W0  1  0.67052500  0.83526300  0.24511800  1
  W  W1  1  0.83526300  0.16473700  0.74511800  1
  W  W2  1  0.16473700  0.32947500  0.24511800  1
  W  W3  1  0.83526300  0.67052500  0.74511800  1
  W  W4  1  0.32947500  0.16473700  0.74511800  1
  W  W5  1  0.16473700  0.83526300  0.24511800  1
  O  O0  1  0.83309000  0.16691000  0.14175500  1
  O  O1  1  0.66617900  0.83309000  0.64175500  1
  O  O2  1  0.16691000  0.33382100  0.64175500  1
  O  O3  1  0.83309000  0.66617900  0.14175500  1
  O  O4  1  0.33382100  0.16691000  0.14175500  1
  O  O5  1  0.16691000  0.83309000  0.64175500  1
  O  O6  1  0.51347500  0.48652500  0.86855800  1
  O  O7  1  0.02694900  0.51347500  0.36855800  1
  O  O8  1  0.48652500  0.97305100  0.36855800  1
  O  O9  1  0.51347500  0.02694900  0.86855800  1
  O  O10  1  0.00000000  0.00000000  0.35345500  1
  O  O11  1  0.00000000  0.00000000  0.85345500  1
  O  O12  1  0.33333300  0.66666700  0.13144200  1
  O  O13  1  0.97305100  0.48652500  0.86855800  1
  O  O14  1  0.48652500  0.51347500  0.36855800  1
  O  O15  1  0.66666700  0.33333300  0.63144200  1
loop_
_geom_bond_atom_site_label_1
_geom_bond_atom_site_label_2
_geom_bond_distance
_geom_bond_site_symmetry_2
O0 Zn0 2.061946 1_555
O0 W2 2.065672 1_655
O0 W0 2.065672 1_545
O1 Zn1 2.061946 1_555
O1 W1 2.065672 1_565
O1 W3 2.065682 1_555
O2 Zn1 2.061946 1_555
O2 W1 2.065672 1_455
O2 W4 2.065682 1_555
O3 Zn0 2.061946 1_555
O3 W5 2.065672 1_655
O3 W0 2.065682 1_555
O4 Zn0 2.061946 1_555
O4 W5 2.065672 1_545
O4 W2 2.065682 1_555
O5 Zn1 2.061946 1_555
O5 W4 2.065672 1_565
O5 W3 2.065672 1_455
O6 Zn3 2.006685 1_555
O6 W4 2.119456 1_555
O6 W3 2.119456 1_555
O6 Zn0 2.331344 1_556
O7 Zn2 2.006674 1_455
O7 W2 2.119456 1_555
O7 W5 2.119456 1_555
O7 Zn1 2.331345 1_555
O8 Zn2 2.006674 1_565
O8 W0 2.119456 1_555
O8 W5 2.119456 1_555
O8 Zn1 2.331345 1_555
O9 Zn3 2.006674 1_545
O9 W4 2.119456 1_555
O9 W1 2.119456 1_555
O9 Zn0 2.331345 1_556
O10 W5 2.077342 1_545
O10 W0 2.077347 1_445
O10 W2 2.077347 1_555
O11 W1 2.077342 1_455
O11 W3 2.077347 1_445
O11 W4 2.077347 1_555
O12 W5 2.138928 1_555
O12 W2 2.138928 1_555
O12 W0 2.138928 1_555
O12 Zn3 2.150274 1_554
O13 Zn3 2.006674 1_655
O13 W3 2.119456 1_555
O13 W1 2.119456 1_555
O13 Zn0 2.331345 1_556
O14 Zn2 2.006685 1_555
O14 W0 2.119456 1_555
O14 W2 2.119456 1_555
O14 Zn1 2.331344 1_555
O15 W1 2.138928 1_555
O15 W3 2.138928 1_555
O15 W4 2.138928 1_555
O15 Zn2 2.150274 1_555
