# generated using pymatgen
data_Li9Co7O16
_symmetry_space_group_name_H-M   'P 1'
_cell_length_a   2.97977500
_cell_length_b   9.86659191
_cell_length_c   10.27513828
_cell_angle_alpha   106.56729187
_cell_angle_beta   98.25743456
_cell_angle_gamma   88.58683919
_symmetry_Int_Tables_number   1
_chemical_formula_structural   Li9Co7O16
_chemical_formula_sum   'Li9 Co7 O16'
_cell_volume   286.50609812
_cell_formula_units_Z   1
loop_
 _symmetry_equiv_pos_site_id
 _symmetry_equiv_pos_as_xyz
  1  'x, y, z'
loop_
 _atom_site_type_symbol
 _atom_site_label
 _atom_site_symmetry_multiplicity
 _atom_site_fract_x
 _atom_site_fract_y
 _atom_site_fract_z
 _atom_site_occupancy
  Li  Li0  1  0.43906900  0.68306600  0.87652400  1
  Li  Li1  1  0.93541600  0.18619600  0.87229600  1
  Li  Li2  1  0.06458400  0.81380400  0.12770400  1
  Li  Li3  1  0.56093100  0.31693400  0.12347600  1
  Li  Li4  1  0.68668900  0.93852100  0.37443600  1
  Li  Li5  1  0.18204100  0.43795900  0.37354600  1
  Li  Li6  1  0.31331100  0.06147900  0.62556400  1
  Li  Li7  1  0.81795900  0.56204100  0.62645400  1
  Li  Li8  1  0.00000000  0.50000000  0.00000000  1
  Co  Co0  1  0.37779200  0.38007700  0.75938800  1
  Co  Co1  1  0.62220800  0.61992300  0.24061200  1
  Co  Co2  1  0.87516700  0.87611100  0.74696800  1
  Co  Co3  1  0.50000000  0.00000000  0.00000000  1
  Co  Co4  1  0.12483300  0.12388900  0.25303200  1
  Co  Co5  1  0.25392600  0.74838800  0.49724700  1
  Co  Co6  1  0.74607400  0.25161200  0.50275300  1
  O  O0  1  0.93872700  0.51848300  0.80735700  1
  O  O1  1  0.39797200  0.02084100  0.81239900  1
  O  O2  1  0.54347100  0.65670700  0.08288900  1
  O  O3  1  0.03415700  0.14834800  0.06495200  1
  O  O4  1  0.19863200  0.77103000  0.31672300  1
  O  O5  1  0.65003400  0.27483100  0.31916000  1
  O  O6  1  0.78486800  0.89911000  0.56571600  1
  O  O7  1  0.27614100  0.39703600  0.57336600  1
  O  O8  1  0.96584300  0.85165200  0.93504800  1
  O  O9  1  0.45652900  0.34329300  0.91711100  1
  O  O10  1  0.60202800  0.97915900  0.18760100  1
  O  O11  1  0.06127300  0.48151700  0.19264300  1
  O  O12  1  0.21513200  0.10089000  0.43428400  1
  O  O13  1  0.72385900  0.60296400  0.42663400  1
  O  O14  1  0.80136800  0.22897000  0.68327700  1
  O  O15  1  0.34996600  0.72516900  0.68084000  1
loop_
_geom_bond_atom_site_label_1
_geom_bond_atom_site_label_2
_geom_bond_distance
_geom_bond_site_symmetry_2
Li0 O0 2.126444 1_455
Li0 O15 2.145565 1_555
Li0 O8 2.162004 1_455
Li0 O2 2.186700 1_556
Li0 O8 2.208957 1_555
Li0 O0 2.210277 1_555
Li1 O9 2.079290 1_555
Li1 O14 2.084725 1_555
Li1 O3 2.096081 1_656
Li1 O1 2.121418 1_655
Li1 O9 2.128862 1_655
Li1 O1 2.208701 1_555
Li2 O2 2.079290 1_555
Li2 O4 2.084725 1_555
Li2 O8 2.096081 1_454
Li2 O10 2.121418 1_455
Li2 O2 2.128862 1_455
Li2 O10 2.208701 1_555
Li3 O11 2.126444 1_655
Li3 O5 2.145565 1_555
Li3 O3 2.162004 1_655
Li3 O9 2.186700 1_554
Li3 O3 2.208957 1_555
Li3 O11 2.210277 1_555
Li4 O10 2.050546 1_555
Li4 O6 2.089204 1_555
Li4 O12 2.120001 1_565
Li4 O4 2.123575 1_555
Li4 O12 2.169934 1_665
Li4 O4 2.233011 1_655
Li5 O11 2.006279 1_555
Li5 O13 2.099972 1_455
Li5 O5 2.108958 1_555
Li5 O7 2.181516 1_555
Li5 O5 2.185026 1_455
Li5 O13 2.219207 1_555
Li6 O1 2.050546 1_555
Li6 O12 2.089204 1_555
Li6 O6 2.120001 1_545
Li6 O14 2.123575 1_555
Li6 O6 2.169934 1_445
Li6 O14 2.233011 1_455
Li7 O0 2.006279 1_555
Li7 O7 2.099972 1_655
Li7 O15 2.108958 1_555
Li7 O13 2.181516 1_555
Li7 O15 2.185026 1_655
Li7 O7 2.219207 1_555
Li8 O11 2.021177 1_555
Li8 O0 2.021177 1_454
Li8 O2 2.108233 1_455
Li8 O9 2.108233 1_554
Li8 O2 2.171376 1_555
Li8 O9 2.171376 1_454
Co0 O9 1.742184 1_555
Co0 O0 1.879557 1_455
Co0 O7 1.945969 1_555
Co0 O14 1.988279 1_555
Co0 O0 2.096106 1_555
Co0 O14 2.204575 1_455
Co1 O2 1.742184 1_555
Co1 O11 1.879557 1_655
Co1 O13 1.945969 1_555
Co1 O4 1.988279 1_555
Co1 O11 2.096106 1_555
Co1 O4 2.204575 1_655
Co2 O6 1.920012 1_555
Co2 O8 1.994680 1_555
Co2 O1 2.034700 1_565
Co2 O1 2.044361 1_665
Co2 O15 2.067948 1_655
Co2 O15 2.088359 1_555
Co3 O1 1.976128 1_554
Co3 O10 1.976128 1_545
Co3 O3 2.030627 1_555
Co3 O8 2.030627 1_544
Co3 O3 2.091388 1_655
Co3 O8 2.091388 1_444
Co4 O12 1.920012 1_555
Co4 O3 1.994680 1_555
Co4 O10 2.034700 1_545
Co4 O10 2.044361 1_445
Co4 O5 2.067948 1_455
Co4 O5 2.088359 1_555
Co5 O4 1.914277 1_555
Co5 O15 1.944532 1_555
Co5 O13 2.035942 1_555
Co5 O6 2.059920 1_455
Co5 O13 2.066122 1_455
Co5 O6 2.099797 1_555
Co6 O14 1.914277 1_555
Co6 O5 1.944532 1_555
Co6 O7 2.035942 1_555
Co6 O12 2.059920 1_655
Co6 O7 2.066122 1_655
Co6 O12 2.099797 1_555
