# generated using pymatgen
data_Nd13(B2O13)2
_symmetry_space_group_name_H-M   'P 1'
_cell_length_a   12.77593400
_cell_length_b   6.79947100
_cell_length_c   14.42633718
_cell_angle_alpha   80.34674610
_cell_angle_beta   90.00000000
_cell_angle_gamma   90.00000000
_symmetry_Int_Tables_number   1
_chemical_formula_structural   Nd13(B2O13)2
_chemical_formula_sum   'Nd26 B8 O52'
_cell_volume   1235.46534182
_cell_formula_units_Z   2
loop_
 _symmetry_equiv_pos_site_id
 _symmetry_equiv_pos_as_xyz
  1  'x, y, z'
loop_
 _atom_site_type_symbol
 _atom_site_label
 _atom_site_symmetry_multiplicity
 _atom_site_fract_x
 _atom_site_fract_y
 _atom_site_fract_z
 _atom_site_occupancy
  Nd  Nd0  1  0.50000000  0.00000000  0.50000000  1
  Nd  Nd1  1  0.00000000  0.00000000  0.00000000  1
  Nd  Nd2  1  0.61100600  0.48728600  0.58630900  1
  Nd  Nd3  1  0.11100600  0.51271400  0.91369100  1
  Nd  Nd4  1  0.38899400  0.51271400  0.41369100  1
  Nd  Nd5  1  0.88899400  0.48728600  0.08630900  1
  Nd  Nd6  1  0.69204400  0.85669900  0.97117600  1
  Nd  Nd7  1  0.19204400  0.14330100  0.52882400  1
  Nd  Nd8  1  0.30795600  0.14330100  0.02882400  1
  Nd  Nd9  1  0.80795600  0.85669900  0.47117600  1
  Nd  Nd10  1  0.88509900  0.32828700  0.55558700  1
  Nd  Nd11  1  0.38509900  0.67171300  0.94441300  1
  Nd  Nd12  1  0.11490100  0.67171300  0.44441300  1
  Nd  Nd13  1  0.61490100  0.32828700  0.05558700  1
  Nd  Nd14  1  0.80144100  0.37584900  0.83862200  1
  Nd  Nd15  1  0.30144100  0.62415100  0.66137800  1
  Nd  Nd16  1  0.19855900  0.62415100  0.16137800  1
  Nd  Nd17  1  0.69855900  0.37584900  0.33862200  1
  Nd  Nd18  1  0.99934000  0.76674500  0.66828700  1
  Nd  Nd19  1  0.49934000  0.23325500  0.83171300  1
  Nd  Nd20  1  0.00066000  0.23325500  0.33171300  1
  Nd  Nd21  1  0.50066000  0.76674500  0.16828700  1
  Nd  Nd22  1  0.71356000  0.94416400  0.70058100  1
  Nd  Nd23  1  0.21356000  0.05583600  0.79941900  1
  Nd  Nd24  1  0.28644000  0.05583600  0.29941900  1
  Nd  Nd25  1  0.78644000  0.94416400  0.20058100  1
  B  B0  1  0.90449800  0.86058300  0.83718400  1
  B  B1  1  0.40449800  0.13941700  0.66281600  1
  B  B2  1  0.09550200  0.13941700  0.16281600  1
  B  B3  1  0.59550200  0.86058300  0.33718400  1
  B  B4  1  0.55098500  0.67790700  0.78962600  1
  B  B5  1  0.05098500  0.32209300  0.71037400  1
  B  B6  1  0.44901500  0.32209300  0.21037400  1
  B  B7  1  0.94901500  0.67790700  0.28962600  1
  O  O0  1  0.35122800  0.98985000  0.62915300  1
  O  O1  1  0.85122800  0.01015000  0.87084700  1
  O  O2  1  0.64877200  0.01015000  0.37084700  1
  O  O3  1  0.14877200  0.98985000  0.12915300  1
  O  O4  1  0.01201700  0.83824500  0.84834500  1
  O  O5  1  0.51201700  0.16175500  0.65165500  1
  O  O6  1  0.98798300  0.16175500  0.15165500  1
  O  O7  1  0.48798300  0.83824500  0.34834500  1
  O  O8  1  0.84946900  0.73406600  0.78828800  1
  O  O9  1  0.34946900  0.26593400  0.71171200  1
  O  O10  1  0.15053100  0.26593400  0.21171200  1
  O  O11  1  0.65053100  0.73406600  0.28828800  1
  O  O12  1  0.63121500  0.57520100  0.75472000  1
  O  O13  1  0.13121500  0.42479900  0.74528000  1
  O  O14  1  0.36878500  0.42479900  0.24528000  1
  O  O15  1  0.86878500  0.57520100  0.25472000  1
  O  O16  1  0.95111200  0.40010500  0.71079700  1
  O  O17  1  0.45111200  0.59989500  0.78920300  1
  O  O18  1  0.04888800  0.59989500  0.28920300  1
  O  O19  1  0.54888800  0.40010500  0.21079700  1
  O  O20  1  0.57422500  0.85273100  0.82533000  1
  O  O21  1  0.07422500  0.14726900  0.67467000  1
  O  O22  1  0.42577500  0.14726900  0.17467000  1
  O  O23  1  0.92577500  0.85273100  0.32533000  1
  O  O24  1  0.65499200  0.83907500  0.56884300  1
  O  O25  1  0.15499200  0.16092500  0.93115700  1
  O  O26  1  0.34500800  0.16092500  0.43115700  1
  O  O27  1  0.84500800  0.83907500  0.06884300  1
  O  O28  1  0.05448400  0.65449600  0.04954600  1
  O  O29  1  0.55448400  0.34550400  0.45045400  1
  O  O30  1  0.94551600  0.34550400  0.95045400  1
  O  O31  1  0.44551600  0.65449600  0.54954600  1
  O  O32  1  0.73837500  0.28037600  0.67836600  1
  O  O33  1  0.23837500  0.71962400  0.82163400  1
  O  O34  1  0.26162500  0.71962400  0.32163400  1
  O  O35  1  0.76162500  0.28037600  0.17836600  1
  O  O36  1  0.86439500  0.97643100  0.60624400  1
  O  O37  1  0.36439500  0.02356900  0.89375600  1
  O  O38  1  0.13560500  0.02356900  0.39375600  1
  O  O39  1  0.63560500  0.97643100  0.10624400  1
  O  O40  1  0.75125000  0.52054000  0.97840100  1
  O  O41  1  0.25125000  0.47946000  0.52159900  1
  O  O42  1  0.24875000  0.47946000  0.02159900  1
  O  O43  1  0.74875000  0.52054000  0.47840100  1
  O  O44  1  0.15650700  0.80578900  0.59020700  1
  O  O45  1  0.65650700  0.19421100  0.90979300  1
  O  O46  1  0.84349300  0.19421100  0.40979300  1
  O  O47  1  0.34349300  0.80578900  0.09020700  1
  O  O48  1  0.95382900  0.66577900  0.53109800  1
  O  O49  1  0.45382900  0.33422100  0.96890200  1
  O  O50  1  0.04617100  0.33422100  0.46890200  1
  O  O51  1  0.54617100  0.66577900  0.03109800  1
loop_
_geom_bond_atom_site_label_1
_geom_bond_atom_site_label_2
_geom_bond_distance
_geom_bond_site_symmetry_2
Nd0 O26 2.395882 1_555
Nd0 O24 2.395882 1_545
Nd0 O29 2.439515 1_555
Nd0 O31 2.439515 1_545
Nd0 O7 2.612817 1_545
Nd0 O5 2.612817 1_555
Nd0 O0 2.654399 1_545
Nd0 O2 2.654399 1_555
Nd1 O25 2.395882 1_554
Nd1 O27 2.395882 1_445
Nd1 O30 2.439515 1_454
Nd1 O28 2.439515 1_545
Nd1 O6 2.612817 1_455
Nd1 O4 2.612817 1_544
Nd1 O3 2.654399 1_545
Nd1 O1 2.654399 1_454
Nd2 O43 2.335246 1_555
Nd2 O32 2.400911 1_555
Nd2 O31 2.417003 1_555
Nd2 O24 2.428729 1_555
Nd2 O29 2.434268 1_555
Nd2 O5 2.586043 1_555
Nd2 O12 2.610325 1_555
Nd3 O42 2.335246 1_556
Nd3 O33 2.400911 1_555
Nd3 O30 2.417003 1_455
Nd3 O25 2.428729 1_555
Nd3 O28 2.434268 1_556
Nd3 O4 2.586043 1_555
Nd3 O13 2.610325 1_555
Nd4 O41 2.335246 1_555
Nd4 O34 2.400911 1_555
Nd4 O29 2.417003 1_555
Nd4 O26 2.428729 1_555
Nd4 O31 2.434268 1_555
Nd4 O7 2.586043 1_555
Nd4 O14 2.610325 1_555
Nd5 O40 2.335246 1_554
Nd5 O35 2.400911 1_555
Nd5 O28 2.417003 1_655
Nd5 O27 2.428729 1_555
Nd5 O30 2.434268 1_554
Nd5 O6 2.586043 1_555
Nd5 O15 2.610325 1_555
Nd6 O39 2.347661 1_556
Nd6 O51 2.351463 1_556
Nd6 O45 2.361215 1_565
Nd6 O40 2.393233 1_555
Nd6 O27 2.400432 1_556
Nd6 O20 2.590840 1_555
Nd6 O1 2.610197 1_565
Nd7 O38 2.347661 1_555
Nd7 O50 2.351463 1_555
Nd7 O44 2.361215 1_545
Nd7 O41 2.393233 1_555
Nd7 O26 2.400432 1_555
Nd7 O21 2.590840 1_555
Nd7 O0 2.610197 1_545
Nd8 O37 2.347661 1_554
Nd8 O49 2.351463 1_554
Nd8 O47 2.361215 1_545
Nd8 O42 2.393233 1_555
Nd8 O25 2.400432 1_554
Nd8 O22 2.590840 1_555
Nd8 O3 2.610197 1_545
Nd9 O36 2.347661 1_555
Nd9 O48 2.351463 1_555
Nd9 O46 2.361215 1_565
Nd9 O43 2.393233 1_555
Nd9 O24 2.400432 1_555
Nd9 O23 2.590840 1_555
Nd9 O2 2.610197 1_565
Nd10 O43 2.344158 1_555
Nd10 O36 2.396126 1_545
Nd10 O50 2.404849 1_655
Nd10 O48 2.426916 1_555
Nd10 O46 2.486053 1_555
Nd10 O16 2.515962 1_555
Nd10 O32 2.561997 1_555
Nd11 O42 2.344158 1_556
Nd11 O37 2.396126 1_565
Nd11 O51 2.404849 1_556
Nd11 O49 2.426916 1_555
Nd11 O47 2.486053 1_556
Nd11 O17 2.515962 1_555
Nd11 O33 2.561997 1_555
Nd12 O41 2.344158 1_555
Nd12 O38 2.396126 1_565
Nd12 O48 2.404849 1_455
Nd12 O50 2.426916 1_555
Nd12 O44 2.486053 1_555
Nd12 O18 2.515962 1_555
Nd12 O34 2.561997 1_555
Nd13 O40 2.344158 1_554
Nd13 O39 2.396126 1_545
Nd13 O49 2.404849 1_554
Nd13 O51 2.426916 1_555
Nd13 O45 2.486053 1_554
Nd13 O19 2.515962 1_555
Nd13 O35 2.561997 1_555
Nd14 O45 2.362820 1_555
Nd14 O30 2.433497 1_555
Nd14 O40 2.471981 1_555
Nd14 O8 2.498639 1_555
Nd14 O1 2.532985 1_555
Nd14 O32 2.630372 1_555
Nd14 O16 2.642380 1_555
Nd14 O12 2.735309 1_555
Nd15 O44 2.362820 1_555
Nd15 O31 2.433497 1_555
Nd15 O41 2.471981 1_555
Nd15 O9 2.498639 1_555
Nd15 O0 2.532985 1_555
Nd15 O33 2.630372 1_555
Nd15 O17 2.642380 1_555
Nd15 O13 2.735309 1_555
Nd16 O47 2.362820 1_555
Nd16 O28 2.433497 1_555
Nd16 O42 2.471981 1_555
Nd16 O10 2.498639 1_555
Nd16 O3 2.532985 1_555
Nd16 O34 2.630372 1_555
Nd16 O18 2.642380 1_555
Nd16 O14 2.735309 1_555
Nd17 O46 2.362820 1_555
Nd17 O29 2.433497 1_555
Nd17 O43 2.471981 1_555
Nd17 O11 2.498639 1_555
Nd17 O2 2.532985 1_555
Nd17 O35 2.630372 1_555
Nd17 O19 2.642380 1_555
Nd17 O15 2.735309 1_555
Nd18 O48 2.276406 1_555
Nd18 O44 2.295838 1_655
Nd18 O36 2.319108 1_555
Nd18 O16 2.541231 1_555
Nd18 O8 2.565847 1_555
Nd18 O4 2.726447 1_655
Nd18 O21 2.774554 1_665
Nd18 O13 2.934643 1_655
Nd19 O49 2.276406 1_555
Nd19 O45 2.295838 1_555
Nd19 O37 2.319108 1_555
Nd19 O17 2.541231 1_555
Nd19 O9 2.565847 1_555
Nd19 O5 2.726447 1_555
Nd19 O20 2.774554 1_545
Nd19 O12 2.934643 1_555
Nd20 O50 2.276406 1_555
Nd20 O46 2.295838 1_455
Nd20 O38 2.319108 1_555
Nd20 O18 2.541231 1_555
Nd20 O10 2.565847 1_555
Nd20 O6 2.726447 1_455
Nd20 O23 2.774554 1_445
Nd20 O15 2.934643 1_455
Nd21 O51 2.276406 1_555
Nd21 O47 2.295838 1_555
Nd21 O39 2.319108 1_555
Nd21 O19 2.541231 1_555
Nd21 O11 2.565847 1_555
Nd21 O7 2.726447 1_555
Nd21 O22 2.774554 1_565
Nd21 O14 2.934643 1_555
Nd22 O24 2.266671 1_555
Nd22 O32 2.276752 1_565
Nd22 O36 2.348127 1_555
Nd22 O8 2.459776 1_555
Nd22 O20 2.533569 1_555
Nd22 O12 2.711733 1_555
Nd22 O5 2.994497 1_565
Nd22 O1 3.114145 1_565
Nd23 O25 2.266671 1_555
Nd23 O33 2.276752 1_545
Nd23 O37 2.348127 1_555
Nd23 O9 2.459776 1_555
Nd23 O21 2.533569 1_555
Nd23 O13 2.711733 1_555
Nd23 O4 2.994497 1_545
Nd23 O0 3.114145 1_545
Nd24 O26 2.266671 1_555
Nd24 O34 2.276752 1_545
Nd24 O38 2.348127 1_555
Nd24 O10 2.459776 1_555
Nd24 O22 2.533569 1_555
Nd24 O14 2.711733 1_555
Nd24 O7 2.994497 1_545
Nd24 O3 3.114145 1_545
Nd25 O27 2.266671 1_555
Nd25 O35 2.276752 1_565
Nd25 O39 2.348127 1_555
Nd25 O11 2.459776 1_555
Nd25 O23 2.533569 1_555
Nd25 O15 2.711733 1_555
Nd25 O6 2.994497 1_565
Nd25 O2 3.114145 1_565
B0 O1 1.378004 1_565
B0 O4 1.388425 1_655
B0 O8 1.391181 1_555
B1 O0 1.378004 1_545
B1 O5 1.388425 1_555
B1 O9 1.391181 1_555
B2 O3 1.378004 1_545
B2 O6 1.388425 1_455
B2 O10 1.391181 1_555
B3 O2 1.378004 1_565
B3 O7 1.388425 1_555
B3 O11 1.391181 1_555
B4 O12 1.381975 1_555
B4 O17 1.382241 1_555
B4 O20 1.404221 1_555
B5 O13 1.381975 1_555
B5 O16 1.382241 1_455
B5 O21 1.404221 1_555
B6 O14 1.381975 1_555
B6 O19 1.382241 1_555
B6 O22 1.404221 1_555
B7 O15 1.381975 1_555
B7 O18 1.382241 1_655
B7 O23 1.404221 1_555
