# generated using pymatgen
data_KNaMg30O31
_symmetry_space_group_name_H-M   'P 1'
_cell_length_a   8.61809938
_cell_length_b   8.65251451
_cell_length_c   8.62975251
_cell_angle_alpha   90.00000000
_cell_angle_beta   90.00000000
_cell_angle_gamma   90.00000000
_symmetry_Int_Tables_number   1
_chemical_formula_structural   KNaMg30O31
_chemical_formula_sum   'K1 Na1 Mg30 O31'
_cell_volume   643.50536944
_cell_formula_units_Z   1
loop_
 _symmetry_equiv_pos_site_id
 _symmetry_equiv_pos_as_xyz
  1  'x, y, z'
loop_
 _atom_site_type_symbol
 _atom_site_label
 _atom_site_symmetry_multiplicity
 _atom_site_fract_x
 _atom_site_fract_y
 _atom_site_fract_z
 _atom_site_occupancy
  K  K0  1  0.99544803  0.00000000  -0.00000000  1
  Na  Na0  1  0.99707486  0.50000000  0.50000000  1
  Mg  Mg0  1  0.97916937  0.00000000  0.50000000  1
  Mg  Mg1  1  0.99852763  0.50000000  -0.00000000  1
  Mg  Mg2  1  0.49987429  0.00000000  -0.00000000  1
  Mg  Mg3  1  0.51972470  0.00000000  0.50000000  1
  Mg  Mg4  1  0.50112393  0.50000000  -0.00000000  1
  Mg  Mg5  1  0.50102671  0.50000000  0.50000000  1
  Mg  Mg6  1  0.00163271  0.25369288  0.25240658  1
  Mg  Mg7  1  0.00163271  0.25369288  0.74759342  1
  Mg  Mg8  1  0.00163271  0.74630712  0.25240658  1
  Mg  Mg9  1  0.00163271  0.74630712  0.74759342  1
  Mg  Mg10  1  0.49909297  0.25044649  0.25055908  1
  Mg  Mg11  1  0.49909297  0.25044649  0.74944092  1
  Mg  Mg12  1  0.49909297  0.74955351  0.25055908  1
  Mg  Mg13  1  0.49909297  0.74955351  0.74944092  1
  Mg  Mg14  1  0.24924546  0.00000000  0.22879751  1
  Mg  Mg15  1  0.24924546  0.00000000  0.77120249  1
  Mg  Mg16  1  0.24831628  0.50000000  0.24717138  1
  Mg  Mg17  1  0.24831628  0.50000000  0.75282862  1
  Mg  Mg18  1  0.74861857  0.00000000  0.24827782  1
  Mg  Mg19  1  0.74861857  0.00000000  0.75172218  1
  Mg  Mg20  1  0.75227468  0.50000000  0.24989234  1
  Mg  Mg21  1  0.75227468  0.50000000  0.75010766  1
  Mg  Mg22  1  0.25007289  0.25623403  -0.00000000  1
  Mg  Mg23  1  0.24563345  0.27327941  0.50000000  1
  Mg  Mg24  1  0.25007289  0.74376597  -0.00000000  1
  Mg  Mg25  1  0.24563345  0.72672059  0.50000000  1
  Mg  Mg26  1  0.74934399  0.25356736  -0.00000000  1
  Mg  Mg27  1  0.75328699  0.25490418  0.50000000  1
  Mg  Mg28  1  0.74934399  0.74643264  -0.00000000  1
  Mg  Mg29  1  0.75328699  0.74509582  0.50000000  1
  O  O0  1  0.27309471  0.00000000  -0.00000000  1
  O  O1  1  0.25759347  0.50000000  -0.00000000  1
  O  O2  1  0.26437483  0.50000000  0.50000000  1
  O  O3  1  0.72409684  0.00000000  -0.00000000  1
  O  O4  1  0.74753046  0.00000000  0.50000000  1
  O  O5  1  0.74343382  0.50000000  -0.00000000  1
  O  O6  1  0.73505045  0.50000000  0.50000000  1
  O  O7  1  0.25108063  0.24601136  0.25439144  1
  O  O8  1  0.25108063  0.24601136  0.74560856  1
  O  O9  1  0.25108063  0.75398864  0.25439144  1
  O  O10  1  0.25108063  0.75398864  0.74560856  1
  O  O11  1  0.75004768  0.24723088  0.25158337  1
  O  O12  1  0.75004768  0.24723088  0.74841663  1
  O  O13  1  0.75004768  0.75276912  0.25158337  1
  O  O14  1  0.75004768  0.75276912  0.74841663  1
  O  O15  1  0.01356593  0.00000000  0.27592075  1
  O  O16  1  0.01356593  0.00000000  0.72407925  1
  O  O17  1  0.00156692  0.50000000  0.24143565  1
  O  O18  1  0.00156692  0.50000000  0.75856435  1
  O  O19  1  0.49224977  0.00000000  0.26079250  1
  O  O20  1  0.49224977  0.00000000  0.73920750  1
  O  O21  1  0.49912022  0.50000000  0.25064319  1
  O  O22  1  0.49912022  0.50000000  0.74935681  1
  O  O23  1  0.00219012  0.27167704  -0.00000000  1
  O  O24  1  0.00608933  0.23763526  0.50000000  1
  O  O25  1  0.00219012  0.72832296  -0.00000000  1
  O  O26  1  0.00608933  0.76236474  0.50000000  1
  O  O27  1  0.49854466  0.25222715  -0.00000000  1
  O  O28  1  0.49260072  0.24198505  0.50000000  1
  O  O29  1  0.49854466  0.74777285  -0.00000000  1
  O  O30  1  0.49260072  0.75801495  0.50000000  1
loop_
_geom_bond_atom_site_label_1
_geom_bond_atom_site_label_2
_geom_bond_distance
_geom_bond_site_symmetry_2
K0 O3 2.338532 1_555
K0 O23 2.351408 1_655
K0 O25 2.351408 1_645
K0 O15 2.386242 1_655
K0 O16 2.386242 1_654
K0 O0 2.392787 1_655
Na0 O18 2.231682 1_655
Na0 O17 2.231682 1_655
Na0 O6 2.258152 1_555
Na0 O24 2.271444 1_655
Na0 O26 2.271444 1_655
Na0 O2 2.303618 1_655
Mg0 O16 1.956337 1_655
Mg0 O15 1.956337 1_655
Mg0 O4 1.996287 1_555
Mg0 O24 2.069190 1_655
Mg0 O26 2.069190 1_645
Mg1 O25 1.975820 1_655
Mg1 O23 1.975820 1_655
Mg1 O18 2.083695 1_654
Mg1 O17 2.083695 1_655
Mg1 O5 2.198424 1_555
Mg1 O1 2.232655 1_655
Mg2 O3 1.932372 1_555
Mg2 O0 1.954409 1_555
Mg2 O29 2.182429 1_545
Mg2 O27 2.182429 1_555
Mg2 O20 2.251534 1_554
Mg2 O19 2.251534 1_555
Mg3 O4 1.963253 1_555
Mg3 O19 2.077837 1_555
Mg3 O20 2.077837 1_555
Mg3 O28 2.106787 1_555
Mg3 O30 2.106787 1_545
Mg4 O5 2.088251 1_555
Mg4 O1 2.098770 1_555
Mg4 O27 2.143973 1_555
Mg4 O29 2.143973 1_555
Mg4 O21 2.163058 1_555
Mg4 O22 2.163058 1_554
Mg5 O6 2.016840 1_555
Mg5 O2 2.039489 1_555
Mg5 O22 2.151950 1_555
Mg5 O21 2.151950 1_555
Mg5 O30 2.233659 1_555
Mg5 O28 2.233659 1_555
Mg6 O17 2.133278 1_555
Mg6 O24 2.141527 1_555
Mg6 O7 2.150862 1_555
Mg6 O11 2.168917 1_455
Mg6 O23 2.183763 1_555
Mg6 O15 2.206838 1_555
Mg7 O18 2.133278 1_555
Mg7 O24 2.141527 1_555
Mg7 O8 2.150862 1_555
Mg7 O12 2.168917 1_455
Mg7 O23 2.183763 1_556
Mg7 O16 2.206838 1_555
Mg8 O17 2.133278 1_555
Mg8 O26 2.141527 1_555
Mg8 O9 2.150862 1_555
Mg8 O13 2.168917 1_455
Mg8 O25 2.183763 1_555
Mg8 O15 2.206838 1_565
Mg9 O18 2.133278 1_555
Mg9 O26 2.141527 1_555
Mg9 O10 2.150862 1_555
Mg9 O14 2.168917 1_455
Mg9 O25 2.183763 1_556
Mg9 O16 2.206838 1_565
Mg10 O7 2.137995 1_555
Mg10 O28 2.154585 1_555
Mg10 O21 2.159266 1_555
Mg10 O27 2.162323 1_555
Mg10 O11 2.162950 1_555
Mg10 O19 2.169592 1_555
Mg11 O8 2.137995 1_555
Mg11 O28 2.154585 1_555
Mg11 O22 2.159266 1_555
Mg11 O27 2.162323 1_556
Mg11 O12 2.162950 1_555
Mg11 O20 2.169592 1_555
Mg12 O9 2.137995 1_555
Mg12 O30 2.154585 1_555
Mg12 O21 2.159266 1_555
Mg12 O29 2.162323 1_555
Mg12 O13 2.162950 1_555
Mg12 O19 2.169592 1_565
Mg13 O10 2.137995 1_555
Mg13 O30 2.154585 1_555
Mg13 O22 2.159266 1_555
Mg13 O29 2.162323 1_556
Mg13 O14 2.162950 1_555
Mg13 O20 2.169592 1_565
Mg14 O0 1.985135 1_555
Mg14 O15 2.071420 1_555
Mg14 O19 2.112358 1_555
Mg14 O7 2.140104 1_555
Mg14 O9 2.140104 1_545
Mg15 O0 1.985135 1_556
Mg15 O16 2.071420 1_555
Mg15 O20 2.112358 1_555
Mg15 O8 2.140104 1_555
Mg15 O10 2.140104 1_545
Mg16 O17 2.127087 1_555
Mg16 O1 2.134526 1_555
Mg16 O21 2.161661 1_555
Mg16 O2 2.186233 1_555
Mg16 O9 2.198653 1_555
Mg16 O7 2.198653 1_555
Mg17 O18 2.127087 1_555
Mg17 O1 2.134526 1_556
Mg17 O22 2.161661 1_555
Mg17 O2 2.186233 1_555
Mg17 O10 2.198653 1_555
Mg17 O8 2.198653 1_555
Mg18 O11 2.139394 1_555
Mg18 O13 2.139394 1_545
Mg18 O3 2.152973 1_555
Mg18 O4 2.172320 1_555
Mg18 O19 2.212050 1_555
Mg18 O15 2.295770 1_655
Mg19 O12 2.139394 1_555
Mg19 O14 2.139394 1_545
Mg19 O3 2.152973 1_556
Mg19 O4 2.172320 1_555
Mg19 O20 2.212050 1_555
Mg19 O16 2.295770 1_655
Mg20 O17 2.149664 1_655
Mg20 O5 2.157855 1_555
Mg20 O6 2.163466 1_555
Mg20 O21 2.181720 1_555
Mg20 O13 2.187221 1_555
Mg20 O11 2.187221 1_555
Mg21 O18 2.149664 1_655
Mg21 O5 2.157855 1_556
Mg21 O6 2.163466 1_555
Mg21 O22 2.181720 1_555
Mg21 O14 2.187221 1_555
Mg21 O12 2.187221 1_555
Mg22 O1 2.110184 1_555
Mg22 O23 2.140453 1_555
Mg22 O27 2.141635 1_555
Mg22 O8 2.197134 1_554
Mg22 O7 2.197134 1_555
Mg22 O0 2.225929 1_555
Mg23 O2 1.968341 1_555
Mg23 O24 2.087325 1_555
Mg23 O7 2.133149 1_555
Mg23 O8 2.133149 1_555
Mg23 O28 2.145543 1_555
Mg24 O1 2.110184 1_555
Mg24 O25 2.140453 1_555
Mg24 O29 2.141635 1_555
Mg24 O9 2.197134 1_555
Mg24 O10 2.197134 1_554
Mg24 O0 2.225929 1_565
Mg25 O2 1.968341 1_555
Mg25 O26 2.087325 1_555
Mg25 O10 2.133149 1_555
Mg25 O9 2.133149 1_555
Mg25 O30 2.145543 1_555
Mg26 O5 2.132870 1_555
Mg26 O27 2.161445 1_555
Mg26 O11 2.171803 1_555
Mg26 O12 2.171803 1_554
Mg26 O23 2.184680 1_655
Mg26 O3 2.204758 1_555
Mg27 O6 2.126511 1_555
Mg27 O12 2.144984 1_555
Mg27 O11 2.144984 1_555
Mg27 O24 2.183793 1_655
Mg27 O4 2.206120 1_555
Mg27 O28 2.249399 1_555
Mg28 O5 2.132870 1_555
Mg28 O29 2.161445 1_555
Mg28 O14 2.171803 1_554
Mg28 O13 2.171803 1_555
Mg28 O25 2.184680 1_655
Mg28 O3 2.204758 1_565
Mg29 O6 2.126511 1_555
Mg29 O14 2.144984 1_555
Mg29 O13 2.144984 1_555
Mg29 O26 2.183793 1_655
Mg29 O4 2.206120 1_565
Mg29 O30 2.249399 1_555
