# generated using pymatgen
data_BaLa(SbSe3)2
_symmetry_space_group_name_H-M   'P 1'
_cell_length_a   15.46137000
_cell_length_b   4.43027300
_cell_length_c   17.10164472
_cell_angle_alpha   87.19043483
_cell_angle_beta   90.00000000
_cell_angle_gamma   90.00000000
_symmetry_Int_Tables_number   1
_chemical_formula_structural   BaLa(SbSe3)2
_chemical_formula_sum   'Ba4 La4 Sb8 Se24'
_cell_volume   1170.02190404
_cell_formula_units_Z   4
loop_
 _symmetry_equiv_pos_site_id
 _symmetry_equiv_pos_as_xyz
  1  'x, y, z'
loop_
 _atom_site_type_symbol
 _atom_site_label
 _atom_site_symmetry_multiplicity
 _atom_site_fract_x
 _atom_site_fract_y
 _atom_site_fract_z
 _atom_site_occupancy
  Ba  Ba0  1  0.29065200  0.73860000  0.67223800  1
  Ba  Ba1  1  0.79065200  0.26140000  0.82776200  1
  Ba  Ba2  1  0.70934800  0.26140000  0.32776200  1
  Ba  Ba3  1  0.20934800  0.73860000  0.17223800  1
  La  La0  1  0.12692600  0.70620100  0.90698500  1
  La  La1  1  0.62692600  0.29379900  0.59301500  1
  La  La2  1  0.87307400  0.29379900  0.09301500  1
  La  La3  1  0.37307400  0.70620100  0.40698500  1
  Sb  Sb0  1  0.36952200  0.29633000  0.97349600  1
  Sb  Sb1  1  0.86952200  0.70367000  0.52650400  1
  Sb  Sb2  1  0.63047800  0.70367000  0.02650400  1
  Sb  Sb3  1  0.13047800  0.29633000  0.47349600  1
  Sb  Sb4  1  0.02705600  0.26923600  0.69671000  1
  Sb  Sb5  1  0.52705600  0.73076400  0.80329000  1
  Sb  Sb6  1  0.97294400  0.73076400  0.30329000  1
  Sb  Sb7  1  0.47294400  0.26923600  0.19671000  1
  Se  Se0  1  0.98724200  0.17440800  0.94151400  1
  Se  Se1  1  0.48724200  0.82559200  0.55848600  1
  Se  Se2  1  0.01275800  0.82559200  0.05848600  1
  Se  Se3  1  0.51275800  0.17440800  0.44151400  1
  Se  Se4  1  0.32865500  0.75074300  0.87248700  1
  Se  Se5  1  0.82865500  0.24925700  0.62751300  1
  Se  Se6  1  0.67134500  0.24925700  0.12751300  1
  Se  Se7  1  0.17134500  0.75074300  0.37248700  1
  Se  Se8  1  0.20714800  0.23268800  0.02174700  1
  Se  Se9  1  0.70714800  0.76731200  0.47825300  1
  Se  Se10  1  0.79285200  0.76731200  0.97825300  1
  Se  Se11  1  0.29285200  0.23268800  0.52174700  1
  Se  Se12  1  0.58713200  0.30096800  0.91072400  1
  Se  Se13  1  0.08713200  0.69903200  0.58927600  1
  Se  Se14  1  0.41286800  0.69903200  0.08927600  1
  Se  Se15  1  0.91286800  0.30096800  0.41072400  1
  Se  Se16  1  0.17421800  0.22177500  0.77983500  1
  Se  Se17  1  0.67421800  0.77822500  0.72016500  1
  Se  Se18  1  0.82578200  0.77822500  0.22016500  1
  Se  Se19  1  0.32578200  0.22177500  0.27983500  1
  Se  Se20  1  0.96800000  0.67155900  0.79534600  1
  Se  Se21  1  0.46800000  0.32844100  0.70465400  1
  Se  Se22  1  0.03200000  0.32844100  0.20465400  1
  Se  Se23  1  0.53200000  0.67155900  0.29534600  1
loop_
_geom_bond_atom_site_label_1
_geom_bond_atom_site_label_2
_geom_bond_distance
_geom_bond_site_symmetry_2
Ba0 Se11 3.296059 1_565
Ba0 Se21 3.321036 1_555
Ba0 Se16 3.384719 1_555
Ba0 Se16 3.405149 1_565
Ba0 Se13 3.459736 1_555
Ba0 Se4 3.477643 1_555
Ba0 Se11 3.494831 1_555
Ba0 Se1 3.619154 1_555
Ba0 Se21 3.846651 1_565
Ba1 Se10 3.296059 1_545
Ba1 Se20 3.321036 1_555
Ba1 Se17 3.384719 1_555
Ba1 Se17 3.405149 1_545
Ba1 Se12 3.459736 1_555
Ba1 Se5 3.477643 1_555
Ba1 Se10 3.494831 1_555
Ba1 Se0 3.619154 1_555
Ba1 Se20 3.846651 1_545
Ba2 Se9 3.296059 1_545
Ba2 Se23 3.321036 1_555
Ba2 Se18 3.384719 1_555
Ba2 Se18 3.405149 1_545
Ba2 Se15 3.459736 1_555
Ba2 Se6 3.477643 1_555
Ba2 Se9 3.494831 1_555
Ba2 Se3 3.619154 1_555
Ba2 Se23 3.846651 1_545
Ba3 Se8 3.296059 1_565
Ba3 Se22 3.321036 1_555
Ba3 Se19 3.384719 1_555
Ba3 Se19 3.405149 1_565
Ba3 Se14 3.459736 1_555
Ba3 Se7 3.477643 1_555
Ba3 Se8 3.494831 1_555
Ba3 Se2 3.619154 1_555
Ba3 Se22 3.846651 1_565
La0 Se8 3.063892 1_556
La0 Se0 3.071768 1_465
La0 Se20 3.120138 1_455
La0 Se16 3.161225 1_565
La0 Se4 3.178647 1_555
La0 Se2 3.200449 1_556
La0 Se16 3.213471 1_555
La0 Se0 3.229136 1_455
La0 Se8 3.358506 1_566
La1 Se9 3.063892 1_555
La1 Se1 3.071768 1_545
La1 Se21 3.120138 1_555
La1 Se17 3.161225 1_545
La1 Se5 3.178647 1_555
La1 Se3 3.200449 1_555
La1 Se17 3.213471 1_555
La1 Se1 3.229136 1_555
La1 Se9 3.358506 1_545
La2 Se10 3.063892 1_554
La2 Se2 3.071768 1_645
La2 Se22 3.120138 1_655
La2 Se18 3.161225 1_545
La2 Se6 3.178647 1_555
La2 Se0 3.200449 1_554
La2 Se18 3.213471 1_555
La2 Se2 3.229136 1_655
La2 Se10 3.358506 1_544
La3 Se11 3.063892 1_555
La3 Se3 3.071768 1_565
La3 Se23 3.120138 1_555
La3 Se19 3.161225 1_565
La3 Se7 3.178647 1_555
La3 Se1 3.200449 1_555
La3 Se19 3.213471 1_555
La3 Se3 3.229136 1_555
La3 Se11 3.358506 1_565
Sb0 Se8 2.653362 1_556
Sb0 Se4 2.663677 1_555
Sb0 Se14 2.810500 1_556
Sb0 Se4 3.104016 1_545
Sb0 Se14 3.295202 1_546
Sb1 Se9 2.653362 1_555
Sb1 Se5 2.663677 1_555
Sb1 Se15 2.810500 1_555
Sb1 Se5 3.104016 1_565
Sb1 Se15 3.295202 1_565
Sb2 Se10 2.653362 1_554
Sb2 Se6 2.663677 1_555
Sb2 Se12 2.810500 1_554
Sb2 Se6 3.104016 1_565
Sb2 Se12 3.295202 1_564
Sb3 Se11 2.653362 1_555
Sb3 Se7 2.663677 1_555
Sb3 Se13 2.810500 1_555
Sb3 Se7 3.104016 1_545
Sb3 Se13 3.295202 1_545
Sb4 Se20 2.674107 1_455
Sb4 Se16 2.685683 1_555
Sb4 Se13 2.742467 1_555
Sb4 Se20 3.201954 1_445
Sb4 Se5 3.290649 1_455
Sb4 Se13 3.327901 1_545
Sb5 Se21 2.674107 1_555
Sb5 Se17 2.685683 1_555
Sb5 Se12 2.742467 1_555
Sb5 Se21 3.201954 1_565
Sb5 Se4 3.290649 1_555
Sb5 Se12 3.327901 1_565
Sb6 Se22 2.674107 1_655
Sb6 Se18 2.685683 1_555
Sb6 Se15 2.742467 1_555
Sb6 Se22 3.201954 1_665
Sb6 Se7 3.290649 1_655
Sb6 Se15 3.327901 1_565
Sb7 Se23 2.674107 1_555
Sb7 Se19 2.685683 1_555
Sb7 Se14 2.742467 1_555
Sb7 Se23 3.201954 1_545
Sb7 Se6 3.290649 1_555
Sb7 Se14 3.327901 1_545
Se0 Se2 2.498469 1_646
Se1 Se3 2.498469 1_565
