# generated using pymatgen
data_Zr4Al3
_symmetry_space_group_name_H-M   'P 1'
_cell_length_a   5.43807389
_cell_length_b   5.43807436
_cell_length_c   5.39832504
_cell_angle_alpha   90.00000000
_cell_angle_beta   90.00000000
_cell_angle_gamma   119.99999709
_symmetry_Int_Tables_number   1
_chemical_formula_structural   Zr4Al3
_chemical_formula_sum   'Zr4 Al3'
_cell_volume   138.25470530
_cell_formula_units_Z   1
loop_
 _symmetry_equiv_pos_site_id
 _symmetry_equiv_pos_as_xyz
  1  'x, y, z'
loop_
 _atom_site_type_symbol
 _atom_site_label
 _atom_site_symmetry_multiplicity
 _atom_site_fract_x
 _atom_site_fract_y
 _atom_site_fract_z
 _atom_site_occupancy
  Zr  Zr0  1  0.33333300  0.66666700  0.26033483  1
  Zr  Zr1  1  0.33333300  0.66666700  0.73966517  1
  Zr  Zr2  1  0.66666700  0.33333300  0.50000000  1
  Zr  Zr3  1  -0.00000000  -0.00000000  0.50000000  1
  Al  Al0  1  0.33333200  0.16666925  -0.00000000  1
  Al  Al1  1  0.83333725  0.66666800  0.00000000  1
  Al  Al2  1  0.83333075  0.16666275  0.00000000  1
loop_
_geom_bond_atom_site_label_1
_geom_bond_atom_site_label_2
_geom_bond_distance
_geom_bond_site_symmetry_2
Zr0 Zr1 2.587581 1_555
Zr0 Zr1 2.810744 1_554
Zr0 Zr3 3.395795 1_565
Zr0 Zr2 3.395795 1_455
Zr0 Zr2 3.395795 1_565
Zr0 Zr3 3.395799 1_665
Zr0 Zr3 3.395800 1_555
Zr0 Zr2 3.395804 1_555
Zr1 Zr3 3.395795 1_565
Zr1 Zr2 3.395795 1_455
Zr1 Zr2 3.395795 1_565
Zr1 Zr3 3.395799 1_665
Zr1 Zr3 3.395800 1_555
Zr1 Zr2 3.395804 1_555
Zr2 Zr3 3.139670 1_655
Zr2 Zr3 3.139675 1_555
Zr2 Zr3 3.139675 1_665
Al0 Al2 2.719026 1_455
Al0 Al1 2.719026 1_445
Al0 Al2 2.719048 1_555
Al0 Al1 2.719048 1_555
Al0 Zr1 3.060744 1_554
Al0 Zr0 3.060744 1_555
Al0 Zr0 3.060770 1_545
Al0 Zr1 3.060770 1_544
Al0 Zr3 3.122474 1_555
Al0 Zr3 3.122474 1_554
Al0 Zr2 3.122481 1_554
Al0 Zr2 3.122481 1_555
Al1 Al2 2.719026 1_565
Al1 Al2 2.719048 1_555
Al1 Zr1 3.060739 1_654
Al1 Zr0 3.060739 1_655
Al1 Zr0 3.060775 1_555
Al1 Zr1 3.060775 1_554
Al1 Zr3 3.122474 1_665
Al1 Zr3 3.122474 1_664
Al1 Zr2 3.122482 1_554
Al1 Zr2 3.122482 1_555
Al2 Zr1 3.060741 1_544
Al2 Zr0 3.060741 1_545
Al2 Zr1 3.060773 1_654
Al2 Zr0 3.060773 1_655
Al2 Zr3 3.122474 1_654
Al2 Zr3 3.122474 1_655
Al2 Zr2 3.122479 1_554
Al2 Zr2 3.122479 1_555
