# generated using pymatgen
data_Li3Ti(NiO2)4
_symmetry_space_group_name_H-M   'P 1'
_cell_length_a   5.89780767
_cell_length_b   5.90359853
_cell_length_c   5.91950147
_cell_angle_alpha   119.91030387
_cell_angle_beta   59.75634118
_cell_angle_gamma   90.45492734
_symmetry_Int_Tables_number   1
_chemical_formula_structural   Li3Ti(NiO2)4
_chemical_formula_sum   'Li3 Ti1 Ni4 O8'
_cell_volume   145.97082977
_cell_formula_units_Z   1
loop_
 _symmetry_equiv_pos_site_id
 _symmetry_equiv_pos_as_xyz
  1  'x, y, z'
loop_
 _atom_site_type_symbol
 _atom_site_label
 _atom_site_symmetry_multiplicity
 _atom_site_fract_x
 _atom_site_fract_y
 _atom_site_fract_z
 _atom_site_occupancy
  Li  Li0  1  0.99998300  0.50002000  0.00000600  1
  Li  Li1  1  0.49994300  0.50002900  0.50001800  1
  Li  Li2  1  0.00001800  0.50000200  0.50001700  1
  Ti  Ti0  1  0.49997900  0.00003700  0.00003400  1
  Ni  Ni0  1  0.00002200  0.99961700  0.99981000  1
  Ni  Ni1  1  0.99998400  0.00010600  0.49992700  1
  Ni  Ni2  1  0.49982600  0.50028900  0.00001200  1
  Ni  Ni3  1  0.50012600  0.99980200  0.50015100  1
  O  O0  1  0.75437400  0.77633700  0.52164200  1
  O  O1  1  0.24569000  0.22358600  0.47831700  1
  O  O2  1  0.23432700  0.77167900  0.50007300  1
  O  O3  1  0.76582800  0.22837600  0.49997600  1
  O  O4  1  0.26962600  0.75383100  0.98395200  1
  O  O5  1  0.73516100  0.76482000  0.00291000  1
  O  O6  1  0.26481400  0.23528200  0.99707900  1
  O  O7  1  0.73029900  0.24618600  0.01607700  1
loop_
_geom_bond_atom_site_label_1
_geom_bond_atom_site_label_2
_geom_bond_distance
_geom_bond_site_symmetry_2
Li0 O4 2.176056 1_654
Li0 O7 2.176323 1_555
Li0 O0 2.191424 1_555
Li0 O1 2.191653 1_654
Li0 O6 2.206145 1_654
Li0 O5 2.206463 1_555
Li1 O4 2.031814 1_555
Li1 O7 2.031845 1_555
Li1 O1 2.207865 1_555
Li1 O0 2.208026 1_555
Li1 O2 2.250520 1_555
Li1 O3 2.251700 1_555
Li2 O0 2.102169 1_455
Li2 O1 2.102339 1_555
Li2 O3 2.108068 1_455
Li2 O2 2.108747 1_555
Li2 O5 2.111665 1_456
Li2 O6 2.111805 1_554
Ni0 O5 2.079423 1_456
Ni0 O6 2.082613 1_565
Ni0 O4 2.095959 1_555
Ni0 O7 2.097955 1_466
Ni0 O2 2.100706 1_555
Ni0 O3 2.102391 1_466
Ni1 O3 1.937009 1_555
Ni1 O2 1.939267 1_645
Ni1 O1 1.951460 1_655
Ni1 O0 1.952279 1_545
Ni1 O4 2.164902 1_644
Ni1 O7 2.165671 1_556
Ni2 O5 2.080489 1_555
Ni2 O6 2.081301 1_554
Ni2 O4 2.096894 1_554
Ni2 O7 2.100460 1_555
Ni2 O2 2.102858 1_555
Ni2 O3 2.103093 1_554
Ni3 O2 2.058586 1_555
Ni3 O3 2.059796 1_565
Ni3 O6 2.086021 1_565
Ni3 O5 2.087559 1_555
Ni3 O0 2.096680 1_555
Ni3 O1 2.100257 1_565
O0 Ti0 2.009037 1_566
O1 Ti0 2.008591 1_555
O4 Ti0 1.982018 1_566
O5 Ti0 1.982537 1_565
O6 Ti0 1.982916 1_556
O7 Ti0 1.981638 1_555
