# generated using pymatgen
data_Rb2LiNd2(WO4)4
_symmetry_space_group_name_H-M   'P 1'
_cell_length_a   7.68993804
_cell_length_b   8.09199381
_cell_length_c   7.59099981
_cell_angle_alpha   62.71201043
_cell_angle_beta   63.03916642
_cell_angle_gamma   89.68609977
_symmetry_Int_Tables_number   1
_chemical_formula_structural   Rb2LiNd2(WO4)4
_chemical_formula_sum   'Rb2 Li1 Nd2 W4 O16'
_cell_volume   361.75369370
_cell_formula_units_Z   1
loop_
 _symmetry_equiv_pos_site_id
 _symmetry_equiv_pos_as_xyz
  1  'x, y, z'
loop_
 _atom_site_type_symbol
 _atom_site_label
 _atom_site_symmetry_multiplicity
 _atom_site_fract_x
 _atom_site_fract_y
 _atom_site_fract_z
 _atom_site_occupancy
  Rb  Rb0  1  0.79414900  0.19975600  0.74648200  1
  Rb  Rb1  1  0.15370300  0.87610300  0.24115100  1
  Li  Li0  1  0.36418500  0.61273100  0.24907600  1
  Nd  Nd0  1  0.24993300  0.78822300  0.73716800  1
  Nd  Nd1  1  0.75729700  0.20882000  0.25691500  1
  W  W0  1  0.69040200  0.69029700  0.79435800  1
  W  W1  1  0.70658400  0.68118400  0.29370600  1
  W  W2  1  0.31244200  0.29272700  0.20309500  1
  W  W3  1  0.29727300  0.31050500  0.70322200  1
  O  O0  1  0.59999300  0.38438200  0.45694700  1
  O  O1  1  0.24769300  0.05330400  0.79393800  1
  O  O2  1  0.04936300  0.33829400  0.87665800  1
  O  O3  1  0.39287700  0.06987700  0.35497000  1
  O  O4  1  0.74254000  0.62314700  0.56604100  1
  O  O5  1  0.37754800  0.26606800  0.92283500  1
  O  O6  1  0.62916800  0.91799900  0.63649800  1
  O  O7  1  0.39938900  0.62121200  0.51661700  1
  O  O8  1  0.03943400  0.22702500  0.30153400  1
  O  O9  1  0.76849200  0.93564300  0.20727000  1
  O  O10  1  0.37216700  0.59246300  0.98510300  1
  O  O11  1  0.95557700  0.65434700  0.12560000  1
  O  O12  1  0.24186500  0.35760600  0.45391600  1
  O  O13  1  0.63482100  0.74155500  0.05913900  1
  O  O14  1  0.95769500  0.76509600  0.69840800  1
  O  O15  1  0.63207600  0.41663700  0.02470900  1
loop_
_geom_bond_atom_site_label_1
_geom_bond_atom_site_label_2
_geom_bond_distance
_geom_bond_site_symmetry_2
Li0 O12 1.821054 1_555
Li0 O13 1.849738 1_555
Li0 O10 2.058072 1_554
Li0 O7 2.197523 1_555
Li0 Rb1 2.664289 1_555
Nd0 O1 2.372263 1_565
Nd0 O10 2.406081 1_555
Nd0 O14 2.413830 1_455
Nd0 O3 2.427487 1_565
Nd0 O11 2.457120 1_456
Nd0 O7 2.502626 1_555
Nd0 O6 2.732850 1_555
Nd1 O8 2.357806 1_655
Nd1 O15 2.380259 1_555
Nd1 O9 2.401728 1_545
Nd1 O2 2.418329 1_654
Nd1 O6 2.458650 1_545
Nd1 O0 2.465923 1_555
Nd1 O3 2.654648 1_555
O0 W3 2.077435 1_555
O0 W1 2.085025 1_555
O0 Rb0 3.038436 1_555
O1 W3 1.846001 1_555
O1 Rb1 2.725094 1_546
O2 W3 1.846393 1_555
O2 Rb0 2.980493 1_455
O3 W2 1.921389 1_555
O3 Rb1 3.050035 1_545
O4 W0 1.921164 1_555
O4 W1 2.048752 1_555
O4 Rb1 2.939497 1_655
O4 Rb0 3.153845 1_555
O5 W3 1.915881 1_555
O5 W2 2.068108 1_556
O5 Rb1 2.838297 1_546
O5 Rb0 3.015680 1_555
O6 W0 1.878919 1_555
O6 Rb0 3.200384 1_565
O7 W1 2.077084 1_555
O7 W3 2.166094 1_555
O8 W2 1.863872 1_555
O8 Rb0 2.925574 1_455
O8 Rb1 3.137965 1_545
O9 W1 1.840018 1_555
O9 Rb0 3.060347 1_564
O9 Rb1 3.103992 1_655
O10 W0 2.114055 1_555
O10 W2 2.115414 1_556
O11 W1 1.837329 1_555
O11 Rb1 2.999285 1_655
O12 W3 1.994070 1_555
O12 W2 2.042488 1_555
O12 Rb0 2.988507 1_455
O13 W1 1.950431 1_555
O13 W0 2.092400 1_554
O13 Rb0 3.197763 1_564
O14 W0 1.836757 1_555
O14 Rb1 2.745685 1_655
O15 W0 1.977822 1_554
O15 W2 2.155133 1_555
O15 Rb0 3.175194 1_554
