# generated using pymatgen
data_Li4Zn(H2N)6
_symmetry_space_group_name_H-M   'P 1'
_cell_length_a   5.23496200
_cell_length_b   8.38192258
_cell_length_c   10.55242500
_cell_angle_alpha   90.00000000
_cell_angle_beta   90.00000000
_cell_angle_gamma   108.19650219
_symmetry_Int_Tables_number   1
_chemical_formula_structural   Li4Zn(H2N)6
_chemical_formula_sum   'Li8 Zn2 H24 N12'
_cell_volume   439.87471404
_cell_formula_units_Z   2
loop_
 _symmetry_equiv_pos_site_id
 _symmetry_equiv_pos_as_xyz
  1  'x, y, z'
loop_
 _atom_site_type_symbol
 _atom_site_label
 _atom_site_symmetry_multiplicity
 _atom_site_fract_x
 _atom_site_fract_y
 _atom_site_fract_z
 _atom_site_occupancy
  Li  Li0  1  0.34096200  0.68192400  0.25000000  1
  Li  Li1  1  0.65903800  0.31807600  0.75000000  1
  Li  Li2  1  0.50275100  0.00000000  0.00000000  1
  Li  Li3  1  0.49724900  0.00000000  0.50000000  1
  Li  Li4  1  0.49677900  0.99355700  0.25000000  1
  Li  Li5  1  0.50322100  0.00644300  0.75000000  1
  Li  Li6  1  0.84316900  0.68633700  0.25000000  1
  Li  Li7  1  0.15683100  0.31366300  0.75000000  1
  Zn  Zn0  1  0.67023300  0.34046600  0.25000000  1
  Zn  Zn1  1  0.32976700  0.65953400  0.75000000  1
  H  H0  1  0.12259100  0.44084000  0.14658800  1
  H  H1  1  0.68175000  0.55916000  0.85341200  1
  H  H2  1  0.87740900  0.55916000  0.64658800  1
  H  H3  1  0.31825000  0.44084000  0.35341200  1
  H  H4  1  0.93118900  0.52616300  0.07087000  1
  H  H5  1  0.40502700  0.47383700  0.92913000  1
  H  H6  1  0.06881100  0.47383700  0.57087000  1
  H  H7  1  0.59497300  0.52616300  0.42913000  1
  H  H8  1  0.81839900  0.23662600  0.45141000  1
  H  H9  1  0.58177300  0.76337400  0.54859000  1
  H  H10  1  0.18160100  0.76337400  0.95141000  1
  H  H11  1  0.41822700  0.23662600  0.04859000  1
  H  H12  1  0.94327600  0.15852400  0.33719000  1
  H  H13  1  0.78475200  0.84147600  0.66281000  1
  H  H14  1  0.05672400  0.84147600  0.83719000  1
  H  H15  1  0.21524800  0.15852400  0.16281000  1
  H  H16  1  0.15670500  0.76085200  0.43878000  1
  H  H17  1  0.39585300  0.23914800  0.56122000  1
  H  H18  1  0.84329500  0.23914800  0.93878000  1
  H  H19  1  0.60414700  0.76085200  0.06122000  1
  H  H20  1  0.07043100  0.91022000  0.37422200  1
  H  H21  1  0.16021100  0.08978000  0.62577800  1
  H  H22  1  0.92956900  0.08978000  0.87422200  1
  H  H23  1  0.83978900  0.91022000  0.12577800  1
  N  N0  1  0.99321100  0.50953500  0.16051700  1
  N  N1  1  0.48367700  0.49046500  0.83948300  1
  N  N2  1  0.00678900  0.49046500  0.66051700  1
  N  N3  1  0.51632300  0.50953500  0.33948300  1
  N  N4  1  0.76507400  0.17144400  0.36833900  1
  N  N5  1  0.59363000  0.82855600  0.63166100  1
  N  N6  1  0.23492600  0.82855600  0.86833900  1
  N  N7  1  0.40637000  0.17144400  0.13166100  1
  N  N8  1  0.19554600  0.83851400  0.36109200  1
  N  N9  1  0.35703200  0.16148600  0.63890800  1
  N  N10  1  0.80445400  0.16148600  0.86109200  1
  N  N11  1  0.64296800  0.83851400  0.13890800  1
loop_
_geom_bond_atom_site_label_1
_geom_bond_atom_site_label_2
_geom_bond_distance
_geom_bond_site_symmetry_2
Li0 N8 2.073767 1_555
Li0 N11 2.073767 1_555
Li0 N3 2.156551 1_555
Li0 N0 2.156554 1_455
Li1 N10 2.073767 1_555
Li1 N9 2.073767 1_555
Li1 N1 2.156551 1_555
Li1 N2 2.156554 1_655
Li2 N7 2.168580 1_555
Li2 N6 2.168580 1_544
Li2 N11 2.267175 1_545
Li2 N10 2.267175 1_554
Li3 N5 2.168580 1_545
Li3 N4 2.168580 1_555
Li3 N9 2.267175 1_555
Li3 N8 2.267175 1_545
Li4 N11 2.066383 1_555
Li4 N8 2.066386 1_555
Li4 N4 2.108869 1_565
Li4 N7 2.108871 1_565
Li5 N9 2.066383 1_555
Li5 N10 2.066386 1_555
Li5 N6 2.108869 1_545
Li5 N5 2.108871 1_545
Li6 N0 2.105166 1_555
Li6 N3 2.105172 1_555
Li6 N8 2.221385 1_655
Li6 N11 2.221389 1_555
Li7 N2 2.105166 1_555
Li7 N1 2.105172 1_555
Li7 N10 2.221385 1_455
Li7 N9 2.221389 1_555
H0 N0 1.027350 1_455
H1 N1 1.027341 1_555
H2 N2 1.027350 1_655
H3 N3 1.027341 1_555
H4 N0 1.023724 1_555
H5 N1 1.023724 1_555
H6 N2 1.023724 1_555
H7 N3 1.023724 1_555
H8 N4 1.024500 1_555
H8 Li3 2.222747 1_555
H9 N5 1.024500 1_555
H9 Li3 2.222747 1_565
H10 N6 1.024500 1_555
H10 Li2 2.222747 1_566
H11 N7 1.024500 1_555
H11 Li2 2.222747 1_555
H12 N4 1.026222 1_555
H13 N5 1.026222 1_555
H14 N6 1.026222 1_555
H15 N7 1.026222 1_555
H16 N8 1.026883 1_555
H17 N9 1.026883 1_555
H18 N10 1.026883 1_555
H19 N11 1.026883 1_555
H20 N8 1.027273 1_555
H21 N9 1.027273 1_555
H22 N10 1.027273 1_555
H23 N11 1.027273 1_555
N0 Zn0 2.064496 1_555
N1 Zn1 2.064499 1_555
N2 Zn1 2.064496 1_555
N3 Zn0 2.064499 1_555
N4 Zn0 2.062120 1_555
N5 Zn1 2.062120 1_555
N6 Zn1 2.062120 1_555
N7 Zn0 2.062120 1_555
