# generated using pymatgen
data_Lu6FeBi2
_symmetry_space_group_name_H-M   'P 1'
_cell_length_a   8.11113206
_cell_length_b   8.11113206
_cell_length_c   4.12000081
_cell_angle_alpha   90.00000000
_cell_angle_beta   90.00000000
_cell_angle_gamma   119.99999818
_symmetry_Int_Tables_number   1
_chemical_formula_structural   Lu6FeBi2
_chemical_formula_sum   'Lu6 Fe1 Bi2'
_cell_volume   234.74204593
_cell_formula_units_Z   1
loop_
 _symmetry_equiv_pos_site_id
 _symmetry_equiv_pos_as_xyz
  1  'x, y, z'
loop_
 _atom_site_type_symbol
 _atom_site_label
 _atom_site_symmetry_multiplicity
 _atom_site_fract_x
 _atom_site_fract_y
 _atom_site_fract_z
 _atom_site_occupancy
  Lu  Lu0  1  0.23343152  0.00000000  0.50000000  1
  Lu  Lu1  1  0.00000000  0.23343152  0.50000000  1
  Lu  Lu2  1  0.76656848  0.76656848  0.50000000  1
  Lu  Lu3  1  0.61350002  -0.00000000  0.00000000  1
  Lu  Lu4  1  -0.00000000  0.61350002  -0.00000000  1
  Lu  Lu5  1  0.38649998  0.38649998  -0.00000000  1
  Fe  Fe0  1  -0.00000000  -0.00000000  -0.00000000  1
  Bi  Bi0  1  0.33333300  0.66666700  0.50000000  1
  Bi  Bi1  1  0.66666700  0.33333300  0.50000000  1
loop_
_geom_bond_atom_site_label_1
_geom_bond_atom_site_label_2
_geom_bond_distance
_geom_bond_site_symmetry_2
Lu0 Lu1 3.279454 1_555
Lu0 Lu2 3.279454 1_445
Lu0 Lu5 3.423561 1_556
Lu0 Lu5 3.423561 1_555
Lu0 Lu4 3.423561 1_545
Lu0 Lu4 3.423561 1_546
Lu0 Lu3 3.707718 1_555
Lu0 Lu3 3.707718 1_556
Lu1 Lu2 3.279454 1_445
Lu1 Lu5 3.423561 1_556
Lu1 Lu5 3.423561 1_555
Lu1 Lu3 3.423561 1_455
Lu1 Lu3 3.423561 1_456
Lu1 Lu4 3.707718 1_555
Lu1 Lu4 3.707718 1_556
Lu2 Lu4 3.423561 1_656
Lu2 Lu4 3.423561 1_655
Lu2 Lu3 3.423561 1_565
Lu2 Lu3 3.423561 1_566
Lu2 Lu5 3.707718 1_556
Lu2 Lu5 3.707718 1_555
Fe0 Lu0 2.797953 1_555
Fe0 Lu1 2.797953 1_555
Fe0 Lu0 2.797953 1_554
Fe0 Lu1 2.797953 1_554
Fe0 Lu2 2.797953 1_445
Fe0 Lu2 2.797953 1_444
Fe0 Lu3 3.134952 1_455
Fe0 Lu4 3.134952 1_545
Fe0 Lu5 3.134952 1_555
Bi0 Lu0 3.187083 1_565
Bi0 Lu1 3.187089 1_555
Bi0 Lu2 3.187091 1_555
Bi0 Lu4 3.251715 1_556
Bi0 Lu4 3.251715 1_555
Bi0 Lu3 3.251717 1_565
Bi0 Lu3 3.251717 1_566
Bi0 Lu5 3.251721 1_556
Bi0 Lu5 3.251721 1_555
Bi1 Lu1 3.187083 1_655
Bi1 Lu0 3.187089 1_555
Bi1 Lu2 3.187091 1_555
Bi1 Lu3 3.251715 1_555
Bi1 Lu3 3.251715 1_556
Bi1 Lu4 3.251717 1_656
Bi1 Lu4 3.251717 1_655
Bi1 Lu5 3.251721 1_555
Bi1 Lu5 3.251721 1_556
