# generated using pymatgen
data_Ti3Sb
_symmetry_space_group_name_H-M   'P 1'
_cell_length_a   5.23097607
_cell_length_b   5.23094826
_cell_length_c   5.23095244
_cell_angle_alpha   90.00000000
_cell_angle_beta   90.00000000
_cell_angle_gamma   90.00000000
_symmetry_Int_Tables_number   1
_chemical_formula_structural   Ti3Sb
_chemical_formula_sum   'Ti6 Sb2'
_cell_volume   143.13436943
_cell_formula_units_Z   2
loop_
 _symmetry_equiv_pos_site_id
 _symmetry_equiv_pos_as_xyz
  1  'x, y, z'
loop_
 _atom_site_type_symbol
 _atom_site_label
 _atom_site_symmetry_multiplicity
 _atom_site_fract_x
 _atom_site_fract_y
 _atom_site_fract_z
 _atom_site_occupancy
  Ti  Ti0  1  0.50000000  0.24999757  -0.00000000  1
  Ti  Ti1  1  0.50000000  0.75000243  0.00000000  1
  Ti  Ti2  1  0.25000100  -0.00000000  0.50000000  1
  Ti  Ti3  1  0.74999900  -0.00000000  0.50000000  1
  Ti  Ti4  1  -0.00000000  0.50000000  0.25000243  1
  Ti  Ti5  1  -0.00000000  0.50000000  0.74999757  1
  Sb  Sb0  1  0.50000000  0.50000000  0.50000000  1
  Sb  Sb1  1  -0.00000000  -0.00000000  0.00000000  1
loop_
_geom_bond_atom_site_label_1
_geom_bond_atom_site_label_2
_geom_bond_distance
_geom_bond_site_symmetry_2
Ti0 Ti1 2.615449 1_545
Ti0 Ti1 2.615500 1_555
Ti2 Ti3 2.615478 1_555
Ti2 Ti3 2.615498 1_455
Ti4 Ti5 2.615451 1_555
Ti4 Ti5 2.615502 1_554
Sb0 Ti3 2.924190 1_565
Sb0 Ti2 2.924190 1_555
Sb0 Ti2 2.924190 1_565
Sb0 Ti3 2.924190 1_555
Sb0 Ti4 2.924196 1_555
Sb0 Ti4 2.924196 1_655
Sb0 Ti5 2.924196 1_555
Sb0 Ti5 2.924196 1_655
Sb0 Ti0 2.924197 1_556
Sb0 Ti0 2.924197 1_555
Sb0 Ti1 2.924197 1_555
Sb0 Ti1 2.924197 1_556
Sb1 Ti5 2.924195 1_544
Sb1 Ti4 2.924195 1_555
Sb1 Ti5 2.924195 1_554
Sb1 Ti4 2.924195 1_545
Sb1 Ti0 2.924196 1_455
Sb1 Ti0 2.924196 1_555
Sb1 Ti1 2.924196 1_545
Sb1 Ti1 2.924196 1_445
Sb1 Ti2 2.924196 1_554
Sb1 Ti2 2.924196 1_555
Sb1 Ti3 2.924196 1_454
Sb1 Ti3 2.924196 1_455
