# generated using pymatgen
data_Ti2FeB2Rh5
_symmetry_space_group_name_H-M   'P 1'
_cell_length_a   9.08714900
_cell_length_b   9.08714900
_cell_length_c   3.11057800
_cell_angle_alpha   90.00000000
_cell_angle_beta   90.00000000
_cell_angle_gamma   90.00000000
_symmetry_Int_Tables_number   1
_chemical_formula_structural   Ti2FeB2Rh5
_chemical_formula_sum   'Ti4 Fe2 B4 Rh10'
_cell_volume   256.85995040
_cell_formula_units_Z   2
loop_
 _symmetry_equiv_pos_site_id
 _symmetry_equiv_pos_as_xyz
  1  'x, y, z'
loop_
 _atom_site_type_symbol
 _atom_site_label
 _atom_site_symmetry_multiplicity
 _atom_site_fract_x
 _atom_site_fract_y
 _atom_site_fract_z
 _atom_site_occupancy
  Ti  Ti0  1  0.67600700  0.17600700  0.00000000  1
  Ti  Ti1  1  0.32399300  0.82399300  0.00000000  1
  Ti  Ti2  1  0.17600700  0.32399300  0.00000000  1
  Ti  Ti3  1  0.82399300  0.67600700  0.00000000  1
  Fe  Fe0  1  0.50000000  0.50000000  0.00000000  1
  Fe  Fe1  1  0.00000000  0.00000000  0.00000000  1
  B  B0  1  0.12497300  0.62497300  0.00000000  1
  B  B1  1  0.87502700  0.37502700  0.00000000  1
  B  B2  1  0.62497300  0.87502700  0.00000000  1
  B  B3  1  0.37502700  0.12497300  0.00000000  1
  Rh  Rh0  1  0.57318700  0.71377900  0.50000000  1
  Rh  Rh1  1  0.42681300  0.28622100  0.50000000  1
  Rh  Rh2  1  0.07318700  0.78622100  0.50000000  1
  Rh  Rh3  1  0.92681300  0.21377900  0.50000000  1
  Rh  Rh4  1  0.28622100  0.57318700  0.50000000  1
  Rh  Rh5  1  0.71377900  0.42681300  0.50000000  1
  Rh  Rh6  1  0.21377900  0.07318700  0.50000000  1
  Rh  Rh7  1  0.78622100  0.92681300  0.50000000  1
  Rh  Rh8  1  0.50000000  0.00000000  0.50000000  1
  Rh  Rh9  1  0.00000000  0.50000000  0.50000000  1
loop_
_geom_bond_atom_site_label_1
_geom_bond_atom_site_label_2
_geom_bond_distance
_geom_bond_site_symmetry_2
Fe0 Rh0 2.575866 1_555
Fe0 Rh0 2.575866 1_554
Fe0 Rh5 2.575866 1_554
Fe0 Rh5 2.575866 1_555
Fe0 Rh1 2.575866 1_555
Fe0 Rh4 2.575866 1_555
Fe0 Rh4 2.575866 1_554
Fe0 Rh1 2.575866 1_554
Fe1 Rh6 2.575866 1_554
Fe1 Rh7 2.575866 1_445
Fe1 Rh2 2.575866 1_544
Fe1 Rh2 2.575866 1_545
Fe1 Rh7 2.575866 1_444
Fe1 Rh3 2.575866 1_454
Fe1 Rh3 2.575866 1_455
Fe1 Rh6 2.575866 1_555
B0 Rh2 2.188021 1_555
B0 Rh2 2.188021 1_554
B0 Rh4 2.188021 1_555
B0 Rh4 2.188021 1_554
B0 Rh9 2.235692 1_554
B0 Rh9 2.235692 1_555
B0 Ti1 2.557640 1_555
B0 Ti2 2.774088 1_555
B0 Ti3 2.774088 1_455
B1 Rh3 2.188021 1_554
B1 Rh3 2.188021 1_555
B1 Rh5 2.188021 1_554
B1 Rh5 2.188021 1_555
B1 Rh9 2.235692 1_654
B1 Rh9 2.235692 1_655
B1 Ti0 2.557640 1_555
B1 Ti2 2.774088 1_655
B1 Ti3 2.774088 1_555
B2 Rh7 2.188021 1_555
B2 Rh7 2.188021 1_554
B2 Rh0 2.188021 1_555
B2 Rh0 2.188021 1_554
B2 Rh8 2.235692 1_565
B2 Rh8 2.235692 1_564
B2 Ti3 2.557640 1_555
B2 Ti0 2.774088 1_565
B2 Ti1 2.774088 1_555
B3 Rh1 2.188021 1_554
B3 Rh6 2.188021 1_555
B3 Rh6 2.188021 1_554
B3 Rh1 2.188021 1_555
B3 Rh8 2.235692 1_555
B3 Rh8 2.235692 1_554
B3 Ti2 2.557640 1_555
B3 Ti0 2.774088 1_555
B3 Ti1 2.774088 1_545
Rh0 Ti3 2.780483 1_556
Rh0 Ti3 2.780483 1_555
Rh0 Ti1 2.924001 1_555
Rh0 Ti1 2.924001 1_556
Rh1 Ti2 2.780483 1_555
Rh1 Ti2 2.780483 1_556
Rh1 Ti0 2.924001 1_555
Rh1 Ti0 2.924001 1_556
Rh2 Ti1 2.780483 1_555
Rh2 Ti1 2.780483 1_556
Rh2 Ti3 2.924001 1_455
Rh2 Ti3 2.924001 1_456
Rh3 Ti0 2.780483 1_556
Rh3 Ti0 2.780483 1_555
Rh3 Ti2 2.924001 1_655
Rh3 Ti2 2.924001 1_656
Rh4 Ti1 2.780483 1_555
Rh4 Ti1 2.780483 1_556
Rh4 Ti2 2.924001 1_555
Rh4 Ti2 2.924001 1_556
Rh5 Ti0 2.780483 1_556
Rh5 Ti0 2.780483 1_555
Rh5 Ti3 2.924001 1_556
Rh5 Ti3 2.924001 1_555
Rh6 Ti2 2.780483 1_555
Rh6 Ti2 2.780483 1_556
Rh6 Ti1 2.924001 1_546
Rh6 Ti1 2.924001 1_545
Rh7 Ti3 2.780483 1_556
Rh7 Ti3 2.780483 1_555
Rh7 Ti0 2.924001 1_566
Rh7 Ti0 2.924001 1_565
Rh8 Ti0 2.745013 1_556
Rh8 Ti0 2.745013 1_555
Rh8 Ti1 2.745013 1_546
Rh8 Ti1 2.745013 1_545
Rh9 Ti3 2.745013 1_455
Rh9 Ti3 2.745013 1_456
Rh9 Ti2 2.745013 1_555
Rh9 Ti2 2.745013 1_556
