# generated using pymatgen
data_Li9Mn2Co5O16
_symmetry_space_group_name_H-M   'P 1'
_cell_length_a   2.98142300
_cell_length_b   8.09021463
_cell_length_c   11.93557556
_cell_angle_alpha   90.74826770
_cell_angle_beta   93.69444760
_cell_angle_gamma   90.84394876
_symmetry_Int_Tables_number   1
_chemical_formula_structural   Li9Mn2Co5O16
_chemical_formula_sum   'Li9 Mn2 Co5 O16'
_cell_volume   287.23253312
_cell_formula_units_Z   1
loop_
 _symmetry_equiv_pos_site_id
 _symmetry_equiv_pos_as_xyz
  1  'x, y, z'
loop_
 _atom_site_type_symbol
 _atom_site_label
 _atom_site_symmetry_multiplicity
 _atom_site_fract_x
 _atom_site_fract_y
 _atom_site_fract_z
 _atom_site_occupancy
  Li  Li0  1  0.99598800  0.98898300  0.25457200  1
  Li  Li1  1  0.50496500  0.75369200  0.62372200  1
  Li  Li2  1  0.01165300  0.50085500  0.99530900  1
  Li  Li3  1  0.50436900  0.24600800  0.37496400  1
  Li  Li4  1  0.00406800  0.99972000  0.74884800  1
  Li  Li5  1  0.49167400  0.75194500  0.13347200  1
  Li  Li6  1  0.98469400  0.50844300  0.50089900  1
  Li  Li7  1  0.50080200  0.25156700  0.87405900  1
  Li  Li8  1  0.51206300  0.75557600  0.36888600  1
  Mn  Mn0  1  0.99865800  0.99929800  0.00030500  1
  Mn  Mn1  1  0.99556800  0.50714100  0.25374600  1
  Co  Co0  1  0.99804800  0.49898400  0.74816600  1
  Co  Co1  1  0.48502800  0.24857800  0.12834600  1
  Co  Co2  1  0.00677500  0.99052400  0.49592000  1
  Co  Co3  1  0.50946400  0.74765600  0.87400300  1
  Co  Co4  1  0.49490200  0.24975200  0.62343600  1
  O  O0  1  0.46762300  0.01101400  0.12262600  1
  O  O1  1  0.99634500  0.77586800  0.50420900  1
  O  O2  1  0.51320700  0.51053300  0.86930900  1
  O  O3  1  0.96466200  0.26019500  0.24272300  1
  O  O4  1  0.47501700  0.01530300  0.61848100  1
  O  O5  1  0.97497000  0.75623700  0.99234400  1
  O  O6  1  0.52090500  0.49938700  0.36010800  1
  O  O7  1  0.96254200  0.26021700  0.74470900  1
  O  O8  1  0.53312000  0.00196900  0.38639600  1
  O  O9  1  0.04047500  0.73835000  0.75451800  1
  O  O10  1  0.47370200  0.48872300  0.14068000  1
  O  O11  1  0.02581000  0.23228400  0.50706900  1
  O  O12  1  0.53293900  0.98722200  0.87695000  1
  O  O13  1  0.00705200  0.73221100  0.24795600  1
  O  O14  1  0.48553600  0.48774700  0.62636400  1
  O  O15  1  0.02738300  0.24401600  0.00690000  1
loop_
_geom_bond_atom_site_label_1
_geom_bond_atom_site_label_2
_geom_bond_distance
_geom_bond_site_symmetry_2
Li0 O13 2.078638 1_655
Li0 O8 2.161202 1_565
Li0 O0 2.165485 1_565
Li0 O8 2.171903 1_665
Li0 O0 2.185062 1_665
Li0 O3 2.203523 1_565
Li1 O1 2.025440 1_455
Li1 O1 2.116950 1_555
Li1 O4 2.121254 1_565
Li1 O14 2.152176 1_555
Li1 O9 2.156133 1_555
Li1 O9 2.165937 1_655
Li2 O2 2.048100 1_455
Li2 O5 2.071239 1_455
Li2 O15 2.085300 1_556
Li2 O10 2.149010 1_556
Li2 O2 2.189357 1_555
Li2 O10 2.439459 1_456
Li3 O8 1.983545 1_555
Li3 O6 2.059992 1_555
Li3 O11 2.146886 1_655
Li3 O3 2.160312 1_555
Li3 O3 2.185518 1_455
Li3 O11 2.196363 1_555
Li4 O7 2.113964 1_465
Li4 O9 2.120658 1_555
Li4 O12 2.128915 1_555
Li4 O12 2.144201 1_455
Li4 O4 2.149346 1_465
Li4 O4 2.165641 1_565
Li5 O13 1.998997 1_655
Li5 O13 2.057569 1_555
Li5 O0 2.103596 1_565
Li5 O10 2.132406 1_555
Li5 O5 2.209170 1_454
Li5 O5 2.286399 1_554
Li6 O14 2.055721 1_655
Li6 O6 2.106072 1_555
Li6 O1 2.163097 1_555
Li6 O14 2.184418 1_555
Li6 O11 2.241258 1_655
Li6 O6 2.394029 1_655
Li7 O2 2.096444 1_555
Li7 O7 2.134818 1_555
Li7 O12 2.142791 1_545
Li7 O7 2.156522 1_455
Li7 O15 2.160322 1_656
Li7 O15 2.190495 1_556
Li8 O8 2.001223 1_565
Li8 O13 2.022488 1_555
Li8 O6 2.074545 1_555
Li8 O1 2.099034 1_555
Li8 O13 2.138351 1_655
Li8 O1 2.306593 1_455
Mn0 O0 1.955718 1_665
Mn0 O12 1.958058 1_554
Mn0 O5 1.967478 1_554
Mn0 O15 1.980729 1_665
Mn0 O0 2.223924 1_565
Mn0 O12 2.240023 1_654
Mn1 O13 1.822979 1_655
Mn1 O6 1.953823 1_655
Mn1 O6 1.961949 1_555
Mn1 O10 1.995379 1_555
Mn1 O3 2.000835 1_555
Mn1 O10 2.030862 1_655
Co0 O7 1.932773 1_555
Co0 O9 1.938964 1_655
Co0 O14 2.040280 1_555
Co0 O2 2.040698 1_655
Co0 O2 2.111565 1_555
Co0 O14 2.122937 1_655
Co1 O3 1.912713 1_555
Co1 O0 1.922082 1_555
Co1 O15 1.925204 1_555
Co1 O10 1.947430 1_555
Co1 O3 2.133848 1_455
Co1 O15 2.240439 1_655
Co2 O1 1.740653 1_455
Co2 O8 1.865678 1_465
Co2 O11 1.958416 1_565
Co2 O4 1.962114 1_565
Co2 O8 2.107900 1_565
Co2 O4 2.234756 1_465
Co3 O5 1.915213 1_555
Co3 O2 1.918680 1_555
Co3 O9 1.931767 1_555
Co3 O12 1.938151 1_555
Co3 O5 2.197740 1_455
Co3 O9 2.199451 1_655
Co4 O4 1.896827 1_555
Co4 O11 1.908856 1_555
Co4 O14 1.925938 1_555
Co4 O7 1.944080 1_555
Co4 O11 2.176985 1_655
Co4 O7 2.217728 1_455
