# generated using pymatgen
data_Mg3Fe2(GeO4)3
_symmetry_space_group_name_H-M   'P 1'
_cell_length_a   10.48803356
_cell_length_b   10.48803356
_cell_length_c   10.48803356
_cell_angle_alpha   109.47122063
_cell_angle_beta   109.47122063
_cell_angle_gamma   109.47122063
_symmetry_Int_Tables_number   1
_chemical_formula_structural   Mg3Fe2(GeO4)3
_chemical_formula_sum   'Mg12 Fe8 Ge12 O48'
_cell_volume   888.09681900
_cell_formula_units_Z   4
loop_
 _symmetry_equiv_pos_site_id
 _symmetry_equiv_pos_as_xyz
  1  'x, y, z'
loop_
 _atom_site_type_symbol
 _atom_site_label
 _atom_site_symmetry_multiplicity
 _atom_site_fract_x
 _atom_site_fract_y
 _atom_site_fract_z
 _atom_site_occupancy
  Mg  Mg0  1  0.25000000  0.87500000  0.62500000  1
  Mg  Mg1  1  0.75000000  0.62500000  0.87500000  1
  Mg  Mg2  1  0.62500000  0.87500000  0.75000000  1
  Mg  Mg3  1  0.87500000  0.62500000  0.25000000  1
  Mg  Mg4  1  0.62500000  0.25000000  0.87500000  1
  Mg  Mg5  1  0.87500000  0.75000000  0.62500000  1
  Mg  Mg6  1  0.75000000  0.12500000  0.37500000  1
  Mg  Mg7  1  0.25000000  0.37500000  0.12500000  1
  Mg  Mg8  1  0.37500000  0.12500000  0.25000000  1
  Mg  Mg9  1  0.12500000  0.37500000  0.75000000  1
  Mg  Mg10  1  0.37500000  0.75000000  0.12500000  1
  Mg  Mg11  1  0.12500000  0.25000000  0.37500000  1
  Fe  Fe0  1  0.50000000  0.50000000  0.50000000  1
  Fe  Fe1  1  0.50000000  0.00000000  0.50000000  1
  Fe  Fe2  1  0.00000000  0.50000000  0.50000000  1
  Fe  Fe3  1  0.50000000  0.50000000  0.00000000  1
  Fe  Fe4  1  0.00000000  0.00000000  0.50000000  1
  Fe  Fe5  1  0.00000000  0.50000000  0.00000000  1
  Fe  Fe6  1  0.50000000  0.00000000  0.00000000  1
  Fe  Fe7  1  0.00000000  0.00000000  0.00000000  1
  Ge  Ge0  1  0.12500000  0.75000000  0.87500000  1
  Ge  Ge1  1  0.87500000  0.25000000  0.12500000  1
  Ge  Ge2  1  0.62500000  0.37500000  0.25000000  1
  Ge  Ge3  1  0.75000000  0.87500000  0.12500000  1
  Ge  Ge4  1  0.87500000  0.12500000  0.75000000  1
  Ge  Ge5  1  0.25000000  0.62500000  0.37500000  1
  Ge  Ge6  1  0.75000000  0.37500000  0.62500000  1
  Ge  Ge7  1  0.25000000  0.12500000  0.87500000  1
  Ge  Ge8  1  0.12500000  0.87500000  0.25000000  1
  Ge  Ge9  1  0.37500000  0.62500000  0.75000000  1
  Ge  Ge10  1  0.62500000  0.75000000  0.37500000  1
  Ge  Ge11  1  0.37500000  0.25000000  0.62500000  1
  O  O0  1  0.41701000  0.81734100  0.78956400  1
  O  O1  1  0.87255400  0.40033000  0.08299000  1
  O  O2  1  0.09967000  0.97222400  0.68265900  1
  O  O3  1  0.52777600  0.62744600  0.71043600  1
  O  O4  1  0.68265900  0.08299000  0.71043600  1
  O  O5  1  0.62744600  0.71043600  0.52777600  1
  O  O6  1  0.62744600  0.41701000  0.09967000  1
  O  O7  1  0.71043600  0.52777600  0.62744600  1
  O  O8  1  0.81734100  0.52777600  0.40033000  1
  O  O9  1  0.97222400  0.78956400  0.87255400  1
  O  O10  1  0.78956400  0.87255400  0.97222400  1
  O  O11  1  0.71043600  0.68265900  0.08299000  1
  O  O12  1  0.41701000  0.09967000  0.62744600  1
  O  O13  1  0.40033000  0.81734100  0.52777600  1
  O  O14  1  0.08299000  0.71043600  0.68265900  1
  O  O15  1  0.09967000  0.62744600  0.41701000  1
  O  O16  1  0.52777600  0.40033000  0.81734100  1
  O  O17  1  0.08299000  0.87255400  0.40033000  1
  O  O18  1  0.97222400  0.68265900  0.09967000  1
  O  O19  1  0.18265900  0.47222400  0.59967000  1
  O  O20  1  0.68265900  0.09967000  0.97222400  1
  O  O21  1  0.78956400  0.41701000  0.81734100  1
  O  O22  1  0.40033000  0.08299000  0.87255400  1
  O  O23  1  0.87255400  0.97222400  0.78956400  1
  O  O24  1  0.58299000  0.18265900  0.21043600  1
  O  O25  1  0.12744600  0.59967000  0.91701000  1
  O  O26  1  0.90033000  0.02777600  0.31734100  1
  O  O27  1  0.47222400  0.37255400  0.28956400  1
  O  O28  1  0.31734100  0.91701000  0.28956400  1
  O  O29  1  0.37255400  0.28956400  0.47222400  1
  O  O30  1  0.37255400  0.58299000  0.90033000  1
  O  O31  1  0.28956400  0.47222400  0.37255400  1
  O  O32  1  0.12744600  0.02777600  0.21043600  1
  O  O33  1  0.59967000  0.91701000  0.12744600  1
  O  O34  1  0.21043600  0.58299000  0.18265900  1
  O  O35  1  0.18265900  0.21043600  0.58299000  1
  O  O36  1  0.31734100  0.90033000  0.02777600  1
  O  O37  1  0.02777600  0.31734100  0.90033000  1
  O  O38  1  0.91701000  0.12744600  0.59967000  1
  O  O39  1  0.47222400  0.59967000  0.18265900  1
  O  O40  1  0.90033000  0.37255400  0.58299000  1
  O  O41  1  0.91701000  0.28956400  0.31734100  1
  O  O42  1  0.59967000  0.18265900  0.47222400  1
  O  O43  1  0.58299000  0.90033000  0.37255400  1
  O  O44  1  0.28956400  0.31734100  0.91701000  1
  O  O45  1  0.21043600  0.12744600  0.02777600  1
  O  O46  1  0.02777600  0.21043600  0.12744600  1
  O  O47  1  0.81734100  0.78956400  0.41701000  1
loop_
_geom_bond_atom_site_label_1
_geom_bond_atom_site_label_2
_geom_bond_distance
_geom_bond_site_symmetry_2
Mg0 O2 2.277650 1_555
Mg0 O13 2.277650 1_555
Mg0 O22 2.277654 1_565
Mg0 O15 2.277654 1_555
Mg0 O14 2.408166 1_555
Mg0 O0 2.408166 1_555
Mg0 O12 2.408174 1_565
Mg0 O17 2.408174 1_555
Mg1 O11 2.277654 1_556
Mg1 O21 2.277654 1_555
Mg1 O7 2.277654 1_555
Mg1 O10 2.277654 1_555
Mg1 O3 2.408174 1_555
Mg1 O9 2.408174 1_555
Mg1 O18 2.408178 1_556
Mg1 O16 2.408178 1_555
Mg2 O4 2.277654 1_565
Mg2 O0 2.277654 1_555
Mg2 O23 2.277654 1_555
Mg2 O3 2.277654 1_555
Mg2 O10 2.408174 1_555
Mg2 O5 2.408174 1_555
Mg2 O20 2.408178 1_565
Mg2 O13 2.408178 1_555
Mg3 O18 2.277650 1_555
Mg3 O8 2.277650 1_555
Mg3 O17 2.277654 1_655
Mg3 O6 2.277654 1_555
Mg3 O11 2.408166 1_555
Mg3 O47 2.408166 1_555
Mg3 O1 2.408174 1_555
Mg3 O15 2.408174 1_655
Mg4 O16 2.277650 1_555
Mg4 O20 2.277650 1_555
Mg4 O12 2.277654 1_555
Mg4 O1 2.277654 1_556
Mg4 O4 2.408166 1_555
Mg4 O21 2.408166 1_555
Mg4 O6 2.408174 1_556
Mg4 O22 2.408174 1_555
Mg5 O14 2.277654 1_655
Mg5 O47 2.277654 1_555
Mg5 O9 2.277654 1_555
Mg5 O5 2.277654 1_555
Mg5 O7 2.408174 1_555
Mg5 O23 2.408174 1_555
Mg5 O2 2.408178 1_655
Mg5 O8 2.408178 1_555
Mg6 O42 2.277650 1_555
Mg6 O26 2.277650 1_555
Mg6 O40 2.277654 1_555
Mg6 O33 2.277654 1_545
Mg6 O24 2.408166 1_555
Mg6 O41 2.408166 1_555
Mg6 O38 2.408174 1_555
Mg6 O43 2.408174 1_545
Mg7 O34 2.277654 1_555
Mg7 O44 2.277654 1_554
Mg7 O31 2.277654 1_555
Mg7 O45 2.277654 1_555
Mg7 O27 2.408174 1_555
Mg7 O46 2.408174 1_555
Mg7 O37 2.408178 1_554
Mg7 O39 2.408178 1_555
Mg8 O24 2.277654 1_555
Mg8 O28 2.277654 1_545
Mg8 O27 2.277654 1_555
Mg8 O32 2.277654 1_555
Mg8 O29 2.408174 1_555
Mg8 O45 2.408174 1_555
Mg8 O42 2.408178 1_555
Mg8 O36 2.408178 1_545
Mg9 O19 2.277650 1_555
Mg9 O37 2.277650 1_555
Mg9 O38 2.277654 1_455
Mg9 O30 2.277654 1_555
Mg9 O35 2.408166 1_555
Mg9 O44 2.408166 1_555
Mg9 O25 2.408174 1_555
Mg9 O40 2.408174 1_455
Mg10 O39 2.277650 1_555
Mg10 O36 2.277650 1_555
Mg10 O43 2.277654 1_555
Mg10 O25 2.277654 1_554
Mg10 O34 2.408166 1_555
Mg10 O28 2.408166 1_555
Mg10 O30 2.408174 1_554
Mg10 O33 2.408174 1_555
Mg11 O35 2.277654 1_555
Mg11 O41 2.277654 1_455
Mg11 O29 2.277654 1_555
Mg11 O46 2.277654 1_555
Mg11 O31 2.408174 1_555
Mg11 O32 2.408174 1_555
Mg11 O26 2.408178 1_455
Mg11 O19 2.408178 1_555
Fe0 O7 2.021802 1_555
Fe0 O3 2.021802 1_555
Fe0 O27 2.021802 1_555
Fe0 O5 2.021802 1_555
Fe0 O31 2.021802 1_555
Fe0 O29 2.021802 1_555
Fe1 O13 2.021793 1_545
Fe1 O42 2.021793 1_555
Fe1 O4 2.021797 1_555
Fe1 O28 2.021797 1_545
Fe1 O12 2.021802 1_555
Fe1 O43 2.021802 1_545
Fe2 O19 2.021793 1_555
Fe2 O8 2.021793 1_455
Fe2 O14 2.021797 1_555
Fe2 O41 2.021797 1_455
Fe2 O15 2.021802 1_555
Fe2 O40 2.021802 1_455
Fe3 O39 2.021793 1_555
Fe3 O16 2.021793 1_554
Fe3 O11 2.021797 1_555
Fe3 O44 2.021797 1_554
Fe3 O6 2.021802 1_555
Fe3 O30 2.021802 1_554
Fe4 O26 2.021793 1_455
Fe4 O2 2.021793 1_545
Fe4 O47 2.021797 1_445
Fe4 O35 2.021797 1_555
Fe4 O17 2.021802 1_545
Fe4 O38 2.021802 1_455
Fe5 O37 2.021793 1_554
Fe5 O18 2.021793 1_455
Fe5 O21 2.021797 1_454
Fe5 O34 2.021797 1_555
Fe5 O1 2.021802 1_455
Fe5 O25 2.021802 1_554
Fe6 O36 2.021793 1_545
Fe6 O20 2.021793 1_554
Fe6 O0 2.021797 1_544
Fe6 O24 2.021797 1_555
Fe6 O22 2.021802 1_554
Fe6 O33 2.021802 1_545
Fe7 O10 2.021802 1_444
Fe7 O9 2.021802 1_444
Fe7 O23 2.021802 1_444
Fe7 O45 2.021802 1_555
Fe7 O46 2.021802 1_555
Fe7 O32 2.021802 1_555
Ge0 O25 1.778543 1_555
Ge0 O9 1.778543 1_455
Ge0 O36 1.778549 1_556
Ge0 O14 1.778553 1_555
Ge1 O1 1.778543 1_555
Ge1 O46 1.778543 1_655
Ge1 O20 1.778549 1_554
Ge1 O41 1.778553 1_555
Ge2 O27 1.778543 1_555
Ge2 O6 1.778543 1_555
Ge2 O8 1.778549 1_555
Ge2 O24 1.778553 1_555
Ge3 O33 1.778543 1_555
Ge3 O10 1.778543 1_554
Ge3 O26 1.778549 1_565
Ge3 O11 1.778553 1_555
Ge4 O38 1.778543 1_555
Ge4 O23 1.778543 1_545
Ge4 O37 1.778549 1_655
Ge4 O4 1.778553 1_555
Ge5 O15 1.778543 1_555
Ge5 O31 1.778543 1_555
Ge5 O13 1.778549 1_555
Ge5 O34 1.778553 1_555
Ge6 O40 1.778543 1_555
Ge6 O7 1.778543 1_555
Ge6 O42 1.778549 1_555
Ge6 O21 1.778553 1_555
Ge7 O22 1.778543 1_555
Ge7 O45 1.778543 1_556
Ge7 O2 1.778549 1_545
Ge7 O44 1.778553 1_555
Ge8 O17 1.778543 1_555
Ge8 O32 1.778543 1_565
Ge8 O18 1.778549 1_455
Ge8 O28 1.778553 1_555
Ge9 O30 1.778543 1_555
Ge9 O3 1.778543 1_555
Ge9 O19 1.778549 1_555
Ge9 O0 1.778553 1_555
Ge10 O43 1.778543 1_555
Ge10 O5 1.778543 1_555
Ge10 O39 1.778549 1_555
Ge10 O47 1.778553 1_555
Ge11 O12 1.778543 1_555
Ge11 O29 1.778543 1_555
Ge11 O16 1.778549 1_555
Ge11 O35 1.778553 1_555
