# generated using pymatgen
data_LiV3Zn2O8
_symmetry_space_group_name_H-M   'P 1'
_cell_length_a   5.96797756
_cell_length_b   5.96495555
_cell_length_c   10.33657460
_cell_angle_alpha   89.99488920
_cell_angle_beta   106.71668083
_cell_angle_gamma   60.39712873
_symmetry_Int_Tables_number   1
_chemical_formula_structural   LiV3Zn2O8
_chemical_formula_sum   'Li2 V6 Zn4 O16'
_cell_volume   301.91761542
_cell_formula_units_Z   2
loop_
 _symmetry_equiv_pos_site_id
 _symmetry_equiv_pos_as_xyz
  1  'x, y, z'
loop_
 _atom_site_type_symbol
 _atom_site_label
 _atom_site_symmetry_multiplicity
 _atom_site_fract_x
 _atom_site_fract_y
 _atom_site_fract_z
 _atom_site_occupancy
  Li  Li0  1  0.37722300  0.05910500  0.31324700  1
  Li  Li1  1  0.37468000  0.56201100  0.81425500  1
  V  V0  1  0.37884400  0.81635500  0.56223500  1
  V  V1  1  0.37180900  0.06166700  0.81020400  1
  V  V2  1  0.87322300  0.56412700  0.81090400  1
  V  V3  1  0.37395800  0.31000800  0.06600500  1
  V  V4  1  0.37873500  0.56257200  0.31290600  1
  V  V5  1  0.88205600  0.05692900  0.31492700  1
  Zn  Zn0  1  0.99006800  0.99248200  0.00171500  1
  Zn  Zn1  1  0.99170900  0.49714300  0.50076300  1
  Zn  Zn2  1  0.75105600  0.63276000  0.12081800  1
  Zn  Zn3  1  0.75601900  0.13411900  0.62076600  1
  O  O0  1  0.62522000  0.41237600  0.18627200  1
  O  O1  1  0.62939900  0.92868900  0.70158100  1
  O  O2  1  0.12371400  0.70641400  0.43315500  1
  O  O3  1  0.13044400  0.20003600  0.93236800  1
  O  O4  1  0.15849400  0.42927100  0.17911900  1
  O  O5  1  0.16210800  0.94130900  0.69656400  1
  O  O6  1  0.59075200  0.69332400  0.43592100  1
  O  O7  1  0.57985100  0.19086300  0.93714600  1
  O  O8  1  0.11361900  0.93052200  0.20400200  1
  O  O9  1  0.12738000  0.42088600  0.70541000  1
  O  O10  1  0.12425400  0.15724300  0.43583700  1
  O  O11  1  0.11949300  0.65255800  0.93407100  1
  O  O12  1  0.62246000  0.97198200  0.18622000  1
  O  O13  1  0.63700900  0.46612400  0.69600800  1
  O  O14  1  0.63337500  0.19268200  0.41859300  1
  O  O15  1  0.62304900  0.70644300  0.91898800  1
loop_
_geom_bond_atom_site_label_1
_geom_bond_atom_site_label_2
_geom_bond_distance
_geom_bond_site_symmetry_2
Li0 O6 2.077331 1_545
Li0 O14 2.098445 1_555
Li0 O10 2.110721 1_555
Li0 O12 2.119040 1_545
Li0 O8 2.123349 1_545
Li0 O4 2.147611 1_555
Li1 O11 2.101777 1_555
Li1 O9 2.103582 1_555
Li1 O7 2.107291 1_555
Li1 O15 2.109502 1_555
Li1 O5 2.117585 1_555
Li1 O13 2.118579 1_555
O0 V3 1.999805 1_555
O0 Zn2 2.004331 1_555
O0 V5 2.056550 1_555
O0 V4 2.117969 1_555
O1 V1 2.010348 1_565
O1 Zn3 2.012013 1_565
O1 V2 2.012606 1_555
O1 V0 2.123822 1_555
O2 V5 1.987817 1_465
O2 Zn1 1.988813 1_455
O2 V0 2.084845 1_555
O2 V4 2.096621 1_555
O3 Zn0 2.029396 1_446
O3 V1 2.054920 1_555
O3 V3 2.058548 1_556
O3 V2 2.060695 1_455
O4 V3 1.867601 1_555
O4 Zn2 1.997498 1_455
O4 V4 2.063820 1_555
O5 V1 1.871786 1_565
O5 Zn3 1.990931 1_465
O5 V0 2.058506 1_555
O6 Zn1 1.963491 1_555
O6 V4 1.968691 1_555
O6 V0 1.968709 1_555
O7 V1 1.966077 1_555
O7 V3 1.966725 1_556
O7 Zn0 2.009222 1_546
O8 V5 1.917090 1_465
O8 Zn0 1.973842 1_455
O8 V4 2.032687 1_555
O9 V2 1.972581 1_455
O9 V1 1.973585 1_555
O9 Zn1 1.996957 1_455
O10 V5 1.955684 1_455
O10 Zn1 1.976856 1_455
O10 V0 1.988814 1_545
O11 V2 1.936190 1_455
O11 Zn0 1.990081 1_456
O11 V3 2.020768 1_556
O12 V3 1.947847 1_565
O12 Zn2 1.976063 1_555
O12 V5 2.004215 1_565
O13 V2 1.894908 1_555
O13 Zn3 1.989901 1_555
O13 V0 2.060119 1_555
O14 V5 1.932422 1_555
O14 Zn3 1.972878 1_555
O14 V4 2.025542 1_555
O15 Zn2 1.969872 1_556
O15 V1 1.973097 1_565
O15 V2 1.976241 1_555
