# generated using pymatgen
data_TiBe4Nb
_symmetry_space_group_name_H-M   'P 1'
_cell_length_a   4.57583223
_cell_length_b   4.57583223
_cell_length_c   4.57583223
_cell_angle_alpha   60.00000000
_cell_angle_beta   60.00000000
_cell_angle_gamma   60.00000000
_symmetry_Int_Tables_number   1
_chemical_formula_structural   TiBe4Nb
_chemical_formula_sum   'Ti1 Be4 Nb1'
_cell_volume   67.74781318
_cell_formula_units_Z   1
loop_
 _symmetry_equiv_pos_site_id
 _symmetry_equiv_pos_as_xyz
  1  'x, y, z'
loop_
 _atom_site_type_symbol
 _atom_site_label
 _atom_site_symmetry_multiplicity
 _atom_site_fract_x
 _atom_site_fract_y
 _atom_site_fract_z
 _atom_site_occupancy
  Ti  Ti0  1  0.00000000  0.00000000  0.00000000  1
  Be  Be0  1  0.62491300  0.62491300  0.12526000  1
  Be  Be1  1  0.62491300  0.12526000  0.62491300  1
  Be  Be2  1  0.12526000  0.62491300  0.62491300  1
  Be  Be3  1  0.62491300  0.62491300  0.62491300  1
  Nb  Nb0  1  0.25000000  0.25000000  0.25000000  1
loop_
_geom_bond_atom_site_label_1
_geom_bond_atom_site_label_2
_geom_bond_distance
_geom_bond_site_symmetry_2
Be0 Be1 2.286328 1_555
Be0 Be2 2.286328 1_555
Be0 Be3 2.286328 1_555
Be0 Be2 2.289504 1_654
Be0 Be3 2.289504 1_554
Be0 Be1 2.289504 1_564
Be0 Nb0 2.682648 1_555
Be0 Nb0 2.682652 1_655
Be0 Nb0 2.682652 1_565
Be0 Ti0 2.682987 1_655
Be0 Ti0 2.682987 1_565
Be0 Ti0 2.682991 1_665
Be1 Be2 2.286328 1_555
Be1 Be3 2.286328 1_555
Be1 Be3 2.289504 1_545
Be1 Be2 2.289504 1_645
Be1 Nb0 2.682648 1_555
Be1 Nb0 2.682652 1_556
Be1 Nb0 2.682652 1_655
Be1 Ti0 2.682987 1_655
Be1 Ti0 2.682987 1_556
Be1 Ti0 2.682991 1_656
Be2 Be3 2.286328 1_555
Be2 Be3 2.289504 1_455
Be2 Nb0 2.682648 1_555
Be2 Nb0 2.682652 1_556
Be2 Nb0 2.682652 1_565
Be2 Ti0 2.682987 1_556
Be2 Ti0 2.682987 1_565
Be2 Ti0 2.682991 1_566
Be3 Nb0 2.682650 1_556
Be3 Nb0 2.682650 1_565
Be3 Nb0 2.682650 1_655
Be3 Ti0 2.682989 1_566
Be3 Ti0 2.682989 1_665
Be3 Ti0 2.682989 1_656
Nb0 Ti0 2.802114 1_556
Nb0 Ti0 2.802114 1_555
Nb0 Ti0 2.802114 1_565
Nb0 Ti0 2.802114 1_655
