# generated using pymatgen
data_La2Ti3VO10
_symmetry_space_group_name_H-M   'P 1'
_cell_length_a   13.32276783
_cell_length_b   13.32276783
_cell_length_c   13.32276783
_cell_angle_alpha   163.15793746
_cell_angle_beta   163.15793746
_cell_angle_gamma   23.90563499
_symmetry_Int_Tables_number   1
_chemical_formula_structural   La2Ti3VO10
_chemical_formula_sum   'La2 Ti3 V1 O10'
_cell_volume   198.46298593
_cell_formula_units_Z   1
loop_
 _symmetry_equiv_pos_site_id
 _symmetry_equiv_pos_as_xyz
  1  'x, y, z'
loop_
 _atom_site_type_symbol
 _atom_site_label
 _atom_site_symmetry_multiplicity
 _atom_site_fract_x
 _atom_site_fract_y
 _atom_site_fract_z
 _atom_site_occupancy
  La  La0  1  0.58174500  0.58174500  0.00000000  1
  La  La1  1  0.41825500  0.41825500  0.00000000  1
  Ti  Ti0  1  0.84198300  0.84198300  0.00000000  1
  Ti  Ti1  1  0.15801700  0.15801700  0.00000000  1
  Ti  Ti2  1  0.00000000  0.00000000  0.00000000  1
  V  V0  1  0.25000000  0.75000000  0.50000000  1
  O  O0  1  0.77052400  0.77052400  0.00000000  1
  O  O1  1  0.22947600  0.22947600  0.00000000  1
  O  O2  1  0.92577100  0.92577100  0.00000000  1
  O  O3  1  0.07422900  0.07422900  0.00000000  1
  O  O4  1  0.35504400  0.85504400  0.50000000  1
  O  O5  1  0.85702900  0.35702900  0.50000000  1
  O  O6  1  0.64297100  0.14297100  0.50000000  1
  O  O7  1  0.14495600  0.64495600  0.50000000  1
  O  O8  1  0.49974300  0.99974300  0.50000000  1
  O  O9  1  0.00025700  0.50025700  0.50000000  1
loop_
_geom_bond_atom_site_label_1
_geom_bond_atom_site_label_2
_geom_bond_distance
_geom_bond_site_symmetry_2
La0 O6 2.520709 1_554
La0 O6 2.520709 1_565
La0 O7 2.553786 1_554
La0 O7 2.553786 1_655
La0 O3 2.766174 1_666
La0 O3 2.766174 1_655
La0 O3 2.766174 1_554
La0 O3 2.766174 1_565
La0 O9 2.884260 1_554
La0 O9 2.884260 1_655
La0 O8 2.894142 1_544
La0 O8 2.894142 1_555
La1 O5 2.520709 1_555
La1 O5 2.520709 1_454
La1 O4 2.553786 1_544
La1 O4 2.553786 1_555
La1 O2 2.766174 1_455
La1 O2 2.766174 1_556
La1 O2 2.766174 1_444
La1 O2 2.766174 1_545
La1 O8 2.884260 1_555
La1 O8 2.884260 1_544
La1 O9 2.894142 1_655
La1 O9 2.894142 1_554
O0 Ti0 1.862780 1_555
O0 V0 2.023094 1_554
O0 V0 2.023094 1_655
O1 Ti1 1.862780 1_555
O1 V0 2.023094 1_555
O1 V0 2.023094 1_544
O2 Ti2 1.934988 1_665
O2 Ti0 2.184171 1_555
O3 Ti2 1.934988 1_555
O3 Ti1 2.184171 1_555
O4 Ti0 1.980552 1_455
O4 Ti0 1.980552 1_556
O4 V0 2.738268 1_555
O5 Ti0 1.990101 1_545
O5 Ti0 1.990101 1_556
O6 Ti1 1.990101 1_555
O6 Ti1 1.990101 1_656
O7 Ti1 1.980552 1_555
O7 Ti1 1.980552 1_566
O7 V0 2.738268 1_555
O8 Ti2 1.951080 1_565
O8 Ti2 1.951080 1_666
O9 Ti2 1.951080 1_555
O9 Ti2 1.951080 1_566
