# generated using pymatgen
data_SrCeEuNbO6
_symmetry_space_group_name_H-M   'P 1'
_cell_length_a   5.85737357
_cell_length_b   5.85737357
_cell_length_c   8.56339008
_cell_angle_alpha   90.00000000
_cell_angle_beta   90.00000000
_cell_angle_gamma   90.00000000
_symmetry_Int_Tables_number   1
_chemical_formula_structural   SrCeEuNbO6
_chemical_formula_sum   'Sr2 Ce2 Eu2 Nb2 O12'
_cell_volume   293.79985285
_cell_formula_units_Z   2
loop_
 _symmetry_equiv_pos_site_id
 _symmetry_equiv_pos_as_xyz
  1  'x, y, z'
loop_
 _atom_site_type_symbol
 _atom_site_label
 _atom_site_symmetry_multiplicity
 _atom_site_fract_x
 _atom_site_fract_y
 _atom_site_fract_z
 _atom_site_occupancy
  Sr  Sr0  1  0.50000000  -0.00000000  0.25000000  1
  Sr  Sr1  1  -0.00000000  0.50000000  0.75000000  1
  Ce  Ce0  1  -0.00000000  -0.00000000  -0.00000000  1
  Ce  Ce1  1  0.50000000  0.50000000  0.50000000  1
  Eu  Eu0  1  -0.00000000  0.50000000  0.25000000  1
  Eu  Eu1  1  0.50000000  0.00000000  0.75000000  1
  Nb  Nb0  1  -0.00000000  0.00000000  0.50000000  1
  Nb  Nb1  1  0.50000000  0.50000000  0.00000000  1
  O  O0  1  -0.00000000  -0.00000000  0.26216677  1
  O  O1  1  0.50000000  0.50000000  0.23783323  1
  O  O2  1  -0.00000000  0.00000000  0.73783323  1
  O  O3  1  0.50000000  0.50000000  0.76216677  1
  O  O4  1  0.34015688  0.19189770  0.99714774  1
  O  O5  1  0.65984312  0.80810230  0.99714774  1
  O  O6  1  0.80810230  0.34015688  0.00285226  1
  O  O7  1  0.19189770  0.65984312  0.00285226  1
  O  O8  1  0.84015688  0.30810230  0.49714774  1
  O  O9  1  0.15984312  0.69189770  0.49714774  1
  O  O10  1  0.30810230  0.15984312  0.50285226  1
  O  O11  1  0.69189770  0.84015688  0.50285226  1
loop_
_geom_bond_atom_site_label_1
_geom_bond_atom_site_label_2
_geom_bond_distance
_geom_bond_site_symmetry_2
Ce0 O0 2.245036 1_555
Ce0 O2 2.245036 1_554
Ce0 O7 2.287744 1_545
Ce0 O4 2.287744 1_554
Ce0 O5 2.287744 1_444
Ce0 O6 2.287744 1_455
Ce1 O3 2.245036 1_555
Ce1 O1 2.245036 1_555
Ce1 O10 2.287744 1_555
Ce1 O8 2.287744 1_555
Ce1 O11 2.287744 1_555
Ce1 O9 2.287744 1_555
Eu0 O7 2.572789 1_555
Eu0 O8 2.572789 1_455
Eu0 O9 2.572789 1_555
Eu0 O6 2.572789 1_455
Eu0 O1 2.930539 1_455
Eu0 O1 2.930539 1_555
Eu0 O0 2.930539 1_565
Eu0 O0 2.930539 1_555
Eu1 O11 2.572789 1_545
Eu1 O10 2.572789 1_555
Eu1 O4 2.572789 1_555
Eu1 O5 2.572789 1_545
Eu1 O2 2.930539 1_655
Eu1 O3 2.930539 1_545
Eu1 O2 2.930539 1_555
Eu1 O3 2.930539 1_555
Nb0 O10 2.033228 1_555
Nb0 O11 2.033228 1_445
Nb0 O9 2.033228 1_545
Nb0 O8 2.033228 1_455
Nb0 O0 2.036659 1_555
Nb0 O2 2.036659 1_555
Nb1 O5 2.033228 1_554
Nb1 O6 2.033228 1_555
Nb1 O7 2.033228 1_555
Nb1 O4 2.033228 1_554
Nb1 O3 2.036659 1_554
Nb1 O1 2.036659 1_555
O0 Sr0 2.930539 1_555
O0 Sr0 2.930539 1_455
O1 Sr0 2.930539 1_565
O1 Sr0 2.930539 1_555
O2 Sr1 2.930539 1_555
O2 Sr1 2.930539 1_545
O3 Sr1 2.930539 1_655
O3 Sr1 2.930539 1_555
O4 Sr0 2.613121 1_556
O5 Sr0 2.613121 1_566
O6 Sr1 2.613121 1_654
O7 Sr1 2.613121 1_554
O8 Sr1 2.613121 1_655
O9 Sr1 2.613121 1_555
O10 Sr0 2.613121 1_555
O11 Sr0 2.613121 1_565
