# generated using pymatgen
data_WO3
_symmetry_space_group_name_H-M   'P 1'
_cell_length_a   7.38885511
_cell_length_b   7.54426365
_cell_length_c   7.73825526
_cell_angle_alpha   88.87619406
_cell_angle_beta   89.73269002
_cell_angle_gamma   89.73143903
_symmetry_Int_Tables_number   1
_chemical_formula_structural   WO3
_chemical_formula_sum   'W8 O24'
_cell_volume   431.26498609
_cell_formula_units_Z   8
loop_
 _symmetry_equiv_pos_site_id
 _symmetry_equiv_pos_as_xyz
  1  'x, y, z'
loop_
 _atom_site_type_symbol
 _atom_site_label
 _atom_site_symmetry_multiplicity
 _atom_site_fract_x
 _atom_site_fract_y
 _atom_site_fract_z
 _atom_site_occupancy
  W  W0  1  0.75145804  0.52414424  0.72041969  1
  W  W1  1  0.24854196  0.47585576  0.27958031  1
  W  W2  1  0.75782266  0.02141075  0.78095765  1
  W  W3  1  0.24217734  0.97858925  0.21904235  1
  W  W4  1  0.74862801  0.52271144  0.21967220  1
  W  W5  1  0.25137199  0.47728856  0.78032780  1
  W  W6  1  0.74210384  0.02006302  0.28177129  1
  W  W7  1  0.25789616  0.97993698  0.71822871  1
  O  O0  1  0.78667087  -0.00011943  0.50607970  1
  O  O1  1  0.21332913  1.00011943  0.49392030  1
  O  O2  1  0.78463928  0.50108794  0.99444959  1
  O  O3  1  0.21536072  0.49891206  0.00555041  1
  O  O4  1  0.71537359  0.51845116  0.49439517  1
  O  O5  1  0.28462641  0.48154884  0.50560483  1
  O  O6  1  0.71320562  0.01722093  0.00608876  1
  O  O7  1  0.28679438  0.98277907  0.99391124  1
  O  O8  1  0.00106939  0.96475865  0.78664429  1
  O  O9  1  0.99893061  0.03524135  0.21335571  1
  O  O10  1  0.50211428  0.46436292  0.78354202  1
  O  O11  1  0.49788572  0.53563708  0.21645798  1
  O  O12  1  0.00215278  0.53597025  0.71607612  1
  O  O13  1  0.99784722  0.46402975  0.28392388  1
  O  O14  1  0.50101300  0.03527945  0.71392575  1
  O  O15  1  0.49898700  0.96472055  0.28607425  1
  O  O16  1  0.28529209  0.74216906  0.73826934  1
  O  O17  1  0.71470791  0.25783094  0.26173066  1
  O  O18  1  0.21285022  0.24182637  0.76057025  1
  O  O19  1  0.78714978  0.75817363  0.23942975  1
  O  O20  1  0.21458221  0.74236657  0.25501936  1
  O  O21  1  0.78541779  0.25763343  0.74498064  1
  O  O22  1  0.28741653  0.24199161  0.24402679  1
  O  O23  1  0.71258347  0.75800839  0.75597321  1
loop_
_geom_bond_atom_site_label_1
_geom_bond_atom_site_label_2
_geom_bond_distance
_geom_bond_site_symmetry_2
O0 W6 1.771713 1_555
O0 W2 2.145989 1_555
O1 W7 1.771713 1_555
O1 W3 2.145989 1_555
O2 W4 1.772368 1_556
O2 W0 2.139375 1_555
O3 W5 1.772368 1_554
O3 W1 2.139375 1_555
O4 W0 1.771853 1_555
O4 W4 2.138522 1_555
O5 W1 1.771853 1_555
O5 W5 2.138522 1_555
O6 W2 1.771228 1_554
O6 W6 2.145487 1_555
O7 W3 1.771228 1_556
O7 W7 2.145487 1_555
O8 W2 1.846008 1_465
O8 W7 1.970984 1_555
O9 W3 1.846008 1_645
O9 W6 1.970984 1_555
O10 W5 1.855063 1_555
O10 W0 1.956286 1_555
O11 W4 1.855063 1_555
O11 W1 1.956286 1_555
O12 W0 1.855028 1_455
O12 W5 1.956114 1_555
O13 W1 1.855028 1_655
O13 W4 1.956114 1_555
O14 W7 1.846144 1_545
O14 W2 1.971248 1_555
O15 W6 1.846144 1_565
O15 W3 1.971248 1_555
O16 W7 1.807944 1_555
O16 W5 2.034816 1_555
O17 W6 1.807944 1_555
O17 W4 2.034816 1_555
O18 W5 1.809902 1_555
O18 W7 2.034695 1_545
O19 W4 1.809902 1_555
O19 W6 2.034695 1_565
O20 W3 1.810654 1_555
O20 W1 2.030378 1_555
O21 W2 1.810654 1_555
O21 W0 2.030378 1_555
O22 W1 1.812352 1_555
O22 W3 2.029750 1_545
O23 W0 1.812352 1_555
O23 W2 2.029750 1_565
