# generated using pymatgen
data_Li3Y(NO3)6
_symmetry_space_group_name_H-M   'P 1'
_cell_length_a   7.65662732
_cell_length_b   7.93274930
_cell_length_c   24.37510651
_cell_angle_alpha   91.38769307
_cell_angle_beta   90.00000000
_cell_angle_gamma   90.00000000
_symmetry_Int_Tables_number   1
_chemical_formula_structural   Li3Y(NO3)6
_chemical_formula_sum   'Li12 Y4 N24 O72'
_cell_volume   1480.06357060
_cell_formula_units_Z   4
loop_
 _symmetry_equiv_pos_site_id
 _symmetry_equiv_pos_as_xyz
  1  'x, y, z'
loop_
 _atom_site_type_symbol
 _atom_site_label
 _atom_site_symmetry_multiplicity
 _atom_site_fract_x
 _atom_site_fract_y
 _atom_site_fract_z
 _atom_site_occupancy
  Li  Li0  1  0.81630254  0.70802505  0.63456713  1
  Li  Li1  1  0.18369746  0.29197495  0.36543287  1
  Li  Li2  1  0.31630254  0.79197495  0.86543287  1
  Li  Li3  1  0.68369746  0.20802505  0.13456713  1
  Li  Li4  1  0.55804678  0.99884765  0.74510249  1
  Li  Li5  1  0.44195322  0.00115235  0.25489751  1
  Li  Li6  1  0.05804678  0.50115235  0.75489751  1
  Li  Li7  1  0.94195322  0.49884765  0.24510249  1
  Li  Li8  1  0.28968534  0.74198855  0.52555441  1
  Li  Li9  1  0.71031466  0.25801145  0.47444559  1
  Li  Li10  1  0.78968534  0.75801145  0.97444559  1
  Li  Li11  1  0.21031466  0.24198855  0.02555441  1
  Y  Y0  1  0.30559920  0.24304334  0.60961592  1
  Y  Y1  1  0.69440080  0.75695666  0.39038408  1
  Y  Y2  1  0.80559920  0.25695666  0.89038408  1
  Y  Y3  1  0.19440080  0.74304334  0.10961592  1
  N  N0  1  0.79850897  0.73521343  0.73528779  1
  N  N1  1  0.20149103  0.26478657  0.26471221  1
  N  N2  1  0.29850897  0.76478657  0.76471221  1
  N  N3  1  0.70149103  0.23521343  0.23528779  1
  N  N4  1  0.30223072  0.26080787  0.72993047  1
  N  N5  1  0.69776928  0.73919213  0.27006953  1
  N  N6  1  0.80223072  0.23919213  0.77006953  1
  N  N7  1  0.19776928  0.76080787  0.22993047  1
  N  N8  1  0.49302153  0.14594149  0.94584456  1
  N  N9  1  0.50697847  0.85405851  0.05415544  1
  N  N10  1  0.99302153  0.35405851  0.55415544  1
  N  N11  1  0.00697847  0.64594149  0.44584456  1
  N  N12  1  0.12772334  0.39953410  0.93606707  1
  N  N13  1  0.87227666  0.60046590  0.06393293  1
  N  N14  1  0.62772334  0.10046590  0.56393293  1
  N  N15  1  0.37227666  0.89953410  0.43606707  1
  N  N16  1  0.11489664  0.92472730  0.60634233  1
  N  N17  1  0.88510336  0.07527270  0.39365767  1
  N  N18  1  0.61489664  0.57527270  0.89365767  1
  N  N19  1  0.38510336  0.42472730  0.10634233  1
  N  N20  1  0.00677111  0.94562448  0.90276800  1
  N  N21  1  0.99322889  0.05437552  0.09723200  1
  N  N22  1  0.50677111  0.55437552  0.59723200  1
  N  N23  1  0.49322889  0.44562448  0.40276800  1
  O  O0  1  0.39721602  0.15491465  0.70204460  1
  O  O1  1  0.60278398  0.84508535  0.29795540  1
  O  O2  1  0.89721602  0.34508535  0.79795540  1
  O  O3  1  0.10278398  0.65491465  0.20204460  1
  O  O4  1  0.52442110  0.09148561  0.89721563  1
  O  O5  1  0.47557890  0.90851439  0.10278437  1
  O  O6  1  0.02442110  0.40851439  0.60278437  1
  O  O7  1  0.97557890  0.59148561  0.39721563  1
  O  O8  1  0.60609132  0.24601199  0.96779124  1
  O  O9  1  0.39390868  0.75398801  0.03220876  1
  O  O10  1  0.10609132  0.25398801  0.53220876  1
  O  O11  1  0.89390868  0.74601199  0.46779124  1
  O  O12  1  0.30029697  0.26855155  0.78010716  1
  O  O13  1  0.69970303  0.73144845  0.21989284  1
  O  O14  1  0.80029697  0.23144845  0.71989284  1
  O  O15  1  0.19970303  0.76855155  0.28010716  1
  O  O16  1  0.26274214  0.45559480  0.95713980  1
  O  O17  1  0.73725786  0.54440520  0.04286020  1
  O  O18  1  0.76274214  0.04440520  0.54286020  1
  O  O19  1  0.23725786  0.95559480  0.45713980  1
  O  O20  1  0.04720705  0.05602365  0.86796664  1
  O  O21  1  0.95279295  0.94397635  0.13203336  1
  O  O22  1  0.54720705  0.44397635  0.63203336  1
  O  O23  1  0.45279295  0.55602365  0.36796664  1
  O  O24  1  0.35837693  0.10357030  0.97075141  1
  O  O25  1  0.64162307  0.89642970  0.02924859  1
  O  O26  1  0.85837693  0.39642970  0.52924859  1
  O  O27  1  0.14162307  0.60357030  0.47075141  1
  O  O28  1  0.29602670  0.75442766  0.71389971  1
  O  O29  1  0.70397330  0.24557234  0.28610029  1
  O  O30  1  0.79602670  0.74557234  0.78610029  1
  O  O31  1  0.20397330  0.25442766  0.21389971  1
  O  O32  1  0.63656984  0.46994633  0.42965165  1
  O  O33  1  0.36343016  0.53005367  0.57034835  1
  O  O34  1  0.13656984  0.03005367  0.07034835  1
  O  O35  1  0.86343016  0.96994633  0.92965165  1
  O  O36  1  0.03304029  0.79082438  0.59966605  1
  O  O37  1  0.96695971  0.20917562  0.40033395  1
  O  O38  1  0.53304029  0.70917562  0.90033395  1
  O  O39  1  0.46695971  0.29082438  0.09966605  1
  O  O40  1  0.02326117  0.30325868  0.96451883  1
  O  O41  1  0.97673883  0.69674132  0.03548117  1
  O  O42  1  0.52326117  0.19674132  0.53548117  1
  O  O43  1  0.47673883  0.80325868  0.46451883  1
  O  O44  1  0.08084070  0.42689081  0.88738169  1
  O  O45  1  0.91915930  0.57310919  0.11261831  1
  O  O46  1  0.58084070  0.07310919  0.61261831  1
  O  O47  1  0.41915930  0.92689081  0.38738169  1
  O  O48  1  0.20843503  0.35927311  0.70023139  1
  O  O49  1  0.79156497  0.64072689  0.29976861  1
  O  O50  1  0.70843503  0.14072689  0.79976861  1
  O  O51  1  0.29156497  0.85927311  0.20023139  1
  O  O52  1  0.59884861  0.67960176  0.58853165  1
  O  O53  1  0.40115139  0.32039824  0.41146835  1
  O  O54  1  0.09884861  0.82039824  0.91146835  1
  O  O55  1  0.90115139  0.17960176  0.08853165  1
  O  O56  1  0.06507771  0.04603622  0.63723207  1
  O  O57  1  0.93492229  0.95396378  0.36276793  1
  O  O58  1  0.56507771  0.45396378  0.86276793  1
  O  O59  1  0.43492229  0.54603622  0.13723207  1
  O  O60  1  0.26000342  0.94512816  0.58023523  1
  O  O61  1  0.73999658  0.05487184  0.41976477  1
  O  O62  1  0.76000342  0.55487184  0.91976477  1
  O  O63  1  0.23999658  0.44512816  0.08023523  1
  O  O64  1  0.39183862  0.87508744  0.79073329  1
  O  O65  1  0.60816138  0.12491256  0.20926671  1
  O  O66  1  0.89183862  0.62491256  0.70926671  1
  O  O67  1  0.10816138  0.37508744  0.29073329  1
  O  O68  1  0.70899624  0.83330840  0.70511040  1
  O  O69  1  0.29100376  0.16669160  0.29488960  1
  O  O70  1  0.20899624  0.66669160  0.79488960  1
  O  O71  1  0.79100376  0.33330840  0.20511040  1
loop_
_geom_bond_atom_site_label_1
_geom_bond_atom_site_label_2
_geom_bond_distance
_geom_bond_site_symmetry_2
Li0 O36 1.983956 1_655
Li0 O52 2.017385 1_555
Li0 O66 2.035356 1_555
Li0 O68 2.129944 1_555
Li1 O37 1.983956 1_455
Li1 O53 2.017385 1_555
Li1 O67 2.035356 1_555
Li1 O69 2.129944 1_555
Li2 O38 1.983956 1_555
Li2 O54 2.017385 1_555
Li2 O64 2.035356 1_555
Li2 O70 2.129944 1_555
Li3 O39 1.983956 1_555
Li3 O55 2.017385 1_555
Li3 O65 2.035356 1_555
Li3 O71 2.129944 1_555
Li4 O64 1.968082 1_555
Li4 O68 1.987081 1_555
Li4 O0 2.052709 1_565
Li4 O50 2.072560 1_565
Li5 O65 1.968082 1_555
Li5 O69 1.987081 1_555
Li5 O1 2.052709 1_545
Li5 O51 2.072560 1_545
Li6 O66 1.968082 1_455
Li6 O70 1.987081 1_555
Li6 O2 2.052709 1_455
Li6 O48 2.072560 1_555
Li7 O67 1.968082 1_655
Li7 O71 1.987081 1_555
Li7 O3 2.052709 1_655
Li7 O49 2.072560 1_555
Li8 O27 2.050429 1_555
Li8 O60 2.078677 1_555
Li8 O33 2.103901 1_555
Li8 O43 2.129753 1_555
Li8 O19 2.439306 1_555
Li9 O26 2.050429 1_555
Li9 O61 2.078677 1_555
Li9 O32 2.103901 1_555
Li9 O42 2.129753 1_555
Li9 O18 2.439306 1_555
Li10 O25 2.050429 1_556
Li10 O62 2.078677 1_555
Li10 O35 2.103901 1_555
Li10 O41 2.129753 1_556
Li10 O17 2.439306 1_556
Li11 O24 2.050429 1_554
Li11 O63 2.078677 1_555
Li11 O34 2.103901 1_555
Li11 O40 2.129753 1_554
Li11 O16 2.439306 1_554
N0 O30 1.239442 1_555
N0 O68 1.282209 1_555
N0 O66 1.285169 1_555
N1 O31 1.239442 1_555
N1 O69 1.282209 1_555
N1 O67 1.285169 1_555
N2 O28 1.239442 1_555
N2 O70 1.282209 1_555
N2 O64 1.285169 1_555
N3 O29 1.239442 1_555
N3 O71 1.282209 1_555
N3 O65 1.285169 1_555
N4 O12 1.223207 1_555
N4 O0 1.291868 1_555
N4 O48 1.295112 1_555
N5 O13 1.223207 1_555
N5 O1 1.291868 1_555
N5 O49 1.295112 1_555
N6 O14 1.223207 1_555
N6 O2 1.291868 1_555
N6 O50 1.295112 1_555
N7 O15 1.223207 1_555
N7 O3 1.291868 1_555
N7 O51 1.295112 1_555
N8 O24 1.246693 1_555
N8 O4 1.274609 1_555
N8 O8 1.282682 1_555
N9 O25 1.246693 1_555
N9 O5 1.274609 1_555
N9 O9 1.282682 1_555
N10 O26 1.246693 1_555
N10 O6 1.274609 1_655
N10 O10 1.282682 1_655
N11 O27 1.246693 1_555
N11 O7 1.274609 1_455
N11 O11 1.282682 1_455
N12 O16 1.232584 1_555
N12 O44 1.263609 1_555
N12 O40 1.315151 1_555
N13 O17 1.232584 1_555
N13 O45 1.263609 1_555
N13 O41 1.315151 1_555
N14 O18 1.232584 1_555
N14 O46 1.263609 1_555
N14 O42 1.315151 1_555
N15 O19 1.232584 1_555
N15 O47 1.263609 1_555
N15 O43 1.315151 1_555
N16 O36 1.240655 1_555
N16 O56 1.266243 1_565
N16 O60 1.292487 1_555
N17 O37 1.240655 1_555
N17 O57 1.266243 1_545
N17 O61 1.292487 1_555
N18 O38 1.240655 1_555
N18 O58 1.266243 1_555
N18 O62 1.292487 1_555
N19 O39 1.240655 1_555
N19 O59 1.266243 1_555
N19 O63 1.292487 1_555
N20 O54 1.240576 1_555
N20 O20 1.272163 1_565
N20 O35 1.290362 1_455
N21 O55 1.240576 1_555
N21 O21 1.272163 1_545
N21 O34 1.290362 1_655
N22 O52 1.240576 1_555
N22 O22 1.272163 1_555
N22 O33 1.290362 1_555
N23 O53 1.240576 1_555
N23 O23 1.272163 1_555
N23 O32 1.290362 1_555
O0 Y0 2.476474 1_555
O1 Y1 2.476474 1_555
O2 Y2 2.476474 1_555
O3 Y3 2.476474 1_555
O4 Y2 2.529074 1_555
O5 Y3 2.529074 1_555
O6 Y0 2.529074 1_555
O7 Y1 2.529074 1_555
O8 Y2 2.430833 1_555
O9 Y3 2.430833 1_555
O10 Y0 2.430833 1_555
O11 Y1 2.430833 1_555
O20 Y2 2.493835 1_455
O21 Y3 2.493835 1_655
O22 Y0 2.493835 1_555
O23 Y1 2.493835 1_555
O32 Y1 2.530115 1_555
O33 Y0 2.530115 1_555
O34 Y3 2.530115 1_545
O35 Y2 2.530115 1_565
O40 Y2 2.479027 1_455
O41 Y3 2.479027 1_655
O42 Y0 2.479027 1_555
O43 Y1 2.479027 1_555
O44 Y2 2.503714 1_455
O45 Y3 2.503714 1_655
O46 Y0 2.503714 1_555
O47 Y1 2.503714 1_555
O48 Y0 2.486679 1_555
O49 Y1 2.486679 1_555
O50 Y2 2.486679 1_555
O51 Y3 2.486679 1_555
O56 Y0 2.517514 1_555
O57 Y1 2.517514 1_555
O58 Y2 2.517514 1_555
O59 Y3 2.517514 1_555
O60 Y0 2.477480 1_565
O61 Y1 2.477480 1_545
O62 Y2 2.477480 1_555
O63 Y3 2.477480 1_555
