# generated using pymatgen
data_PrCo5P3
_symmetry_space_group_name_H-M   'P 1'
_cell_length_a   3.70754905
_cell_length_b   10.34958346
_cell_length_c   11.78834657
_cell_angle_alpha   90.00000000
_cell_angle_beta   90.00000000
_cell_angle_gamma   90.00000000
_symmetry_Int_Tables_number   1
_chemical_formula_structural   PrCo5P3
_chemical_formula_sum   'Pr4 Co20 P12'
_cell_volume   452.33758162
_cell_formula_units_Z   4
loop_
 _symmetry_equiv_pos_site_id
 _symmetry_equiv_pos_as_xyz
  1  'x, y, z'
loop_
 _atom_site_type_symbol
 _atom_site_label
 _atom_site_symmetry_multiplicity
 _atom_site_fract_x
 _atom_site_fract_y
 _atom_site_fract_z
 _atom_site_occupancy
  Pr  Pr0  1  0.25000000  0.58292194  0.70009436  1
  Pr  Pr1  1  0.25000000  0.91707806  0.20009436  1
  Pr  Pr2  1  0.75000000  0.41707806  0.29990564  1
  Pr  Pr3  1  0.75000000  0.08292194  0.79990564  1
  Co  Co0  1  0.25000000  0.70726079  0.98741943  1
  Co  Co1  1  0.25000000  0.79273921  0.48741943  1
  Co  Co2  1  0.75000000  0.29273921  0.01258057  1
  Co  Co3  1  0.75000000  0.20726079  0.51258057  1
  Co  Co4  1  0.25000000  0.40304674  0.48986205  1
  Co  Co5  1  0.25000000  0.09695326  0.98986205  1
  Co  Co6  1  0.75000000  0.59695326  0.51013795  1
  Co  Co7  1  0.75000000  0.90304674  0.01013795  1
  Co  Co8  1  0.25000000  0.22069786  0.17417541  1
  Co  Co9  1  0.25000000  0.27930214  0.67417541  1
  Co  Co10  1  0.75000000  0.77930214  0.82582459  1
  Co  Co11  1  0.75000000  0.72069786  0.32582459  1
  Co  Co12  1  0.25000000  0.88316160  0.69633855  1
  Co  Co13  1  0.25000000  0.61683840  0.19633855  1
  Co  Co14  1  0.75000000  0.11683840  0.30366145  1
  Co  Co15  1  0.75000000  0.38316160  0.80366145  1
  Co  Co16  1  0.25000000  0.46864969  0.93424061  1
  Co  Co17  1  0.25000000  0.03135031  0.43424061  1
  Co  Co18  1  0.75000000  0.53135031  0.06575939  1
  Co  Co19  1  0.75000000  0.96864969  0.56575939  1
  P  P0  1  0.25000000  0.41893126  0.11081357  1
  P  P1  1  0.25000000  0.08106874  0.61081357  1
  P  P2  1  0.75000000  0.58106874  0.88918643  1
  P  P3  1  0.75000000  0.91893126  0.38918643  1
  P  P4  1  0.25000000  0.27777839  0.86590362  1
  P  P5  1  0.25000000  0.22222161  0.36590362  1
  P  P6  1  0.75000000  0.72222161  0.13409638  1
  P  P7  1  0.75000000  0.77777839  0.63409638  1
  P  P8  1  0.25000000  0.60659196  0.39479158  1
  P  P9  1  0.25000000  0.89340804  0.89479158  1
  P  P10  1  0.75000000  0.39340804  0.60520842  1
  P  P11  1  0.75000000  0.10659196  0.10520842  1
loop_
_geom_bond_atom_site_label_1
_geom_bond_atom_site_label_2
_geom_bond_distance
_geom_bond_site_symmetry_2
Co0 P9 2.214473 1_555
Co0 P6 2.539718 1_456
Co0 P6 2.539718 1_556
Co0 P2 2.546209 1_455
Co0 P2 2.546209 1_555
Co0 Pr1 3.316773 1_556
Co1 P8 2.214473 1_555
Co1 P7 2.539718 1_455
Co1 P7 2.539718 1_555
Co1 P3 2.546209 1_555
Co1 P3 2.546209 1_455
Co1 Pr0 3.316773 1_555
Co2 P11 2.214473 1_555
Co2 P4 2.539718 1_654
Co2 P4 2.539718 1_554
Co2 P0 2.546209 1_555
Co2 P0 2.546209 1_655
Co2 Pr3 3.316773 1_554
Co3 P10 2.214473 1_555
Co3 P5 2.539718 1_655
Co3 P5 2.539718 1_555
Co3 P1 2.546209 1_655
Co3 P1 2.546209 1_555
Co3 Pr2 3.316773 1_555
Co4 P10 2.301159 1_555
Co4 P10 2.301159 1_455
Co4 P5 2.374379 1_555
Co4 P8 2.386173 1_555
Co4 Pr2 2.910654 1_455
Co4 Pr2 2.910654 1_555
Co4 Pr0 3.099614 1_555
Co5 P11 2.301159 1_456
Co5 P11 2.301159 1_556
Co5 P4 2.374379 1_555
Co5 P9 2.386173 1_545
Co5 Pr3 2.910654 1_455
Co5 Pr3 2.910654 1_555
Co5 Pr1 3.099614 1_546
Co6 P8 2.301159 1_555
Co6 P8 2.301159 1_655
Co6 P7 2.374379 1_555
Co6 P10 2.386173 1_555
Co6 Pr0 2.910654 1_555
Co6 Pr0 2.910654 1_655
Co6 Pr2 3.099614 1_555
Co7 P9 2.301159 1_654
Co7 P9 2.301159 1_554
Co7 P6 2.374379 1_555
Co7 P11 2.386173 1_565
Co7 Pr1 2.910654 1_655
Co7 Pr1 2.910654 1_555
Co7 Pr3 3.099614 1_564
Co8 P0 2.183370 1_555
Co8 P5 2.260214 1_555
Co8 P11 2.343523 1_455
Co8 P11 2.343523 1_555
Co8 Pr2 3.124759 1_555
Co8 Pr2 3.124759 1_455
Co8 Pr1 3.157158 1_545
Co9 P1 2.183370 1_555
Co9 P4 2.260214 1_555
Co9 P10 2.343523 1_455
Co9 P10 2.343523 1_555
Co9 Pr3 3.124759 1_455
Co9 Pr3 3.124759 1_555
Co9 Pr0 3.157158 1_555
Co10 P2 2.183370 1_555
Co10 P7 2.260214 1_555
Co10 P9 2.343523 1_655
Co10 P9 2.343523 1_555
Co10 Pr0 3.124759 1_555
Co10 Pr0 3.124759 1_655
Co10 Pr3 3.157158 1_565
Co11 P3 2.183370 1_555
Co11 P6 2.260214 1_555
Co11 P8 2.343523 1_555
Co11 P8 2.343523 1_655
Co11 Pr1 3.124759 1_655
Co11 Pr1 3.124759 1_555
Co11 Pr2 3.157158 1_555
Co12 P7 2.272534 1_455
Co12 P7 2.272534 1_555
Co12 P1 2.282941 1_565
Co12 P9 2.341835 1_555
Co12 Pr3 3.033370 1_565
Co12 Pr3 3.033370 1_465
Co12 Pr0 3.107671 1_555
Co13 P6 2.272534 1_555
Co13 P6 2.272534 1_455
Co13 P0 2.282941 1_555
Co13 P8 2.341835 1_555
Co13 Pr2 3.033370 1_455
Co13 Pr2 3.033370 1_555
Co13 Pr1 3.107671 1_555
Co14 P5 2.272534 1_655
Co14 P5 2.272534 1_555
Co14 P3 2.282941 1_545
Co14 P11 2.341835 1_555
Co14 Pr1 3.033370 1_545
Co14 Pr1 3.033370 1_645
Co14 Pr2 3.107671 1_555
Co15 P4 2.272534 1_555
Co15 P4 2.272534 1_655
Co15 P2 2.282941 1_555
Co15 P10 2.341835 1_555
Co15 Pr0 3.033370 1_555
Co15 Pr0 3.033370 1_655
Co15 Pr3 3.107671 1_555
Co16 P4 2.133381 1_555
Co16 P0 2.144163 1_556
Co16 P2 2.252171 1_455
Co16 P2 2.252171 1_555
Co16 Pr0 3.002898 1_555
Co17 P5 2.133381 1_555
Co17 P1 2.144163 1_555
Co17 P3 2.252171 1_445
Co17 P3 2.252171 1_545
Co17 Pr1 3.002898 1_545
Co18 P6 2.133381 1_555
Co18 P2 2.144163 1_554
Co18 P0 2.252171 1_655
Co18 P0 2.252171 1_555
Co18 Pr2 3.002898 1_555
Co19 P7 2.133381 1_555
Co19 P3 2.144163 1_555
Co19 P1 2.252171 1_565
Co19 P1 2.252171 1_665
Co19 Pr3 3.002898 1_565
P0 Pr2 2.899251 1_555
P0 Pr2 2.899251 1_455
P1 Pr3 2.899251 1_455
P1 Pr3 2.899251 1_555
P2 Pr0 2.899251 1_555
P2 Pr0 2.899251 1_655
P3 Pr1 2.899251 1_655
P3 Pr1 2.899251 1_555
P4 Pr3 2.847593 1_455
P4 Pr3 2.847593 1_555
P5 Pr2 2.847593 1_455
P5 Pr2 2.847593 1_555
P6 Pr1 2.847593 1_555
P6 Pr1 2.847593 1_655
P7 Pr0 2.847593 1_655
P7 Pr0 2.847593 1_555
P8 Pr2 2.921418 1_455
P8 Pr2 2.921418 1_555
P9 Pr3 2.921418 1_565
P9 Pr3 2.921418 1_465
P10 Pr0 2.921418 1_555
P10 Pr0 2.921418 1_655
P11 Pr1 2.921418 1_545
P11 Pr1 2.921418 1_645
