# generated using pymatgen
data_SrRuO3
_symmetry_space_group_name_H-M   'P 1'
_cell_length_a   5.19951900
_cell_length_b   5.21016600
_cell_length_c   14.28288800
_cell_angle_alpha   90.00000000
_cell_angle_beta   90.00000000
_cell_angle_gamma   90.00000000
_symmetry_Int_Tables_number   1
_chemical_formula_structural   SrRuO3
_chemical_formula_sum   'Sr4 Ru4 O12'
_cell_volume   386.92853648
_cell_formula_units_Z   4
loop_
 _symmetry_equiv_pos_site_id
 _symmetry_equiv_pos_as_xyz
  1  'x, y, z'
loop_
 _atom_site_type_symbol
 _atom_site_label
 _atom_site_symmetry_multiplicity
 _atom_site_fract_x
 _atom_site_fract_y
 _atom_site_fract_z
 _atom_site_occupancy
  Sr  Sr0  1  0.49964700  0.51948300  0.25000000  1
  Sr  Sr1  1  0.00035300  0.01948300  0.25000000  1
  Sr  Sr2  1  0.50035300  0.48051700  0.75000000  1
  Sr  Sr3  1  0.99964700  0.98051700  0.75000000  1
  Ru  Ru0  1  0.50000000  0.50000000  0.50000000  1
  Ru  Ru1  1  0.00000000  0.00000000  0.00000000  1
  Ru  Ru2  1  0.50000000  0.50000000  0.00000000  1
  Ru  Ru3  1  0.00000000  0.00000000  0.50000000  1
  O  O0  1  0.50212100  0.01872400  0.25000000  1
  O  O1  1  0.99787900  0.51872400  0.25000000  1
  O  O2  1  0.49787900  0.98127600  0.75000000  1
  O  O3  1  0.00212100  0.48127600  0.75000000  1
  O  O4  1  0.25080600  0.75025000  0.00874100  1
  O  O5  1  0.24919400  0.25025000  0.49125900  1
  O  O6  1  0.74919400  0.24975000  0.50874100  1
  O  O7  1  0.75080600  0.74975000  0.99125900  1
  O  O8  1  0.74919400  0.24975000  0.99125900  1
  O  O9  1  0.75080600  0.74975000  0.50874100  1
  O  O10  1  0.25080600  0.75025000  0.49125900  1
  O  O11  1  0.24919400  0.25025000  0.00874100  1
loop_
_geom_bond_atom_site_label_1
_geom_bond_atom_site_label_2
_geom_bond_distance
_geom_bond_site_symmetry_2
O0 Sr1 2.590570 1_655
O0 Sr0 2.601160 1_545
O0 Sr1 2.608955 1_555
O0 Sr0 2.609069 1_555
O1 Sr0 2.590570 1_555
O1 Sr1 2.601160 1_655
O1 Sr0 2.608955 1_655
O1 Sr1 2.609069 1_665
O2 Sr3 2.590570 1_455
O2 Sr2 2.601160 1_565
O2 Sr3 2.608955 1_555
O2 Sr2 2.609069 1_555
O3 Sr2 2.590570 1_555
O3 Sr3 2.601160 1_455
O3 Sr2 2.608955 1_455
O3 Sr3 2.609069 1_445
O4 Ru2 1.842391 1_555
O4 Ru1 1.846459 1_565
O5 Ru3 1.842391 1_555
O5 Ru0 1.846459 1_555
O6 Ru0 1.842391 1_555
O6 Ru3 1.846459 1_655
O7 Ru1 1.842391 1_666
O7 Ru2 1.846459 1_556
O8 Ru2 1.842391 1_556
O8 Ru1 1.846459 1_656
O9 Ru3 1.842391 1_665
O9 Ru0 1.846459 1_555
O10 Ru0 1.842391 1_555
O10 Ru3 1.846459 1_565
O11 Ru1 1.842391 1_555
O11 Ru2 1.846459 1_555
