# generated using pymatgen
data_MgMnPO5
_symmetry_space_group_name_H-M   'P 1'
_cell_length_a   6.88566167
_cell_length_b   6.90696187
_cell_length_c   8.37519906
_cell_angle_alpha   90.07011282
_cell_angle_beta   90.03007472
_cell_angle_gamma   66.03830228
_symmetry_Int_Tables_number   1
_chemical_formula_structural   MgMnPO5
_chemical_formula_sum   'Mg4 Mn4 P4 O20'
_cell_volume   363.98782623
_cell_formula_units_Z   4
loop_
 _symmetry_equiv_pos_site_id
 _symmetry_equiv_pos_as_xyz
  1  'x, y, z'
loop_
 _atom_site_type_symbol
 _atom_site_label
 _atom_site_symmetry_multiplicity
 _atom_site_fract_x
 _atom_site_fract_y
 _atom_site_fract_z
 _atom_site_occupancy
  Mg  Mg0  1  0.17673500  0.29798900  0.93186800  1
  Mg  Mg1  1  0.67674100  0.29793600  0.43185700  1
  Mg  Mg2  1  0.18186400  0.79284500  0.56568500  1
  Mg  Mg3  1  0.68184800  0.79282200  0.06567800  1
  Mn  Mn0  1  0.74580700  0.49178900  0.74000700  1
  Mn  Mn1  1  0.74763600  0.99226100  0.75728700  1
  Mn  Mn2  1  0.24573900  0.49185800  0.24010800  1
  Mn  Mn3  1  0.24755800  0.99219400  0.25726200  1
  P  P0  1  0.26747900  0.23388300  0.60575500  1
  P  P1  1  0.76742800  0.23392200  0.10575700  1
  P  P2  1  0.26355900  0.73294800  0.89476800  1
  P  P3  1  0.76351200  0.73299300  0.39476300  1
  O  O0  1  0.21718900  0.06643400  0.51374400  1
  O  O1  1  0.71717200  0.06643200  0.01375900  1
  O  O2  1  0.35461700  0.35224000  0.48696700  1
  O  O3  1  0.85459600  0.35225100  0.98697400  1
  O  O4  1  0.35387800  0.84921300  0.01268400  1
  O  O5  1  0.85385200  0.84921900  0.51267900  1
  O  O6  1  0.19819600  0.57651200  0.98842200  1
  O  O7  1  0.69816700  0.57651400  0.48839800  1
  O  O8  1  0.42178100  0.61773500  0.75702100  1
  O  O9  1  0.92174400  0.61775800  0.25701000  1
  O  O10  1  0.07390900  0.89190700  0.79526300  1
  O  O11  1  0.57386200  0.89192400  0.29525800  1
  O  O12  1  0.07135800  0.39258000  0.69959600  1
  O  O13  1  0.57131800  0.39259800  0.19959700  1
  O  O14  1  0.42239200  0.13079800  0.74833500  1
  O  O15  1  0.92233800  0.13082200  0.24835200  1
  O  O16  1  0.25187000  0.73532600  0.33745700  1
  O  O17  1  0.75191600  0.73531900  0.83744600  1
  O  O18  1  0.25742000  0.23289000  0.15819100  1
  O  O19  1  0.75747400  0.23287500  0.65817200  1
loop_
_geom_bond_atom_site_label_1
_geom_bond_atom_site_label_2
_geom_bond_distance
_geom_bond_site_symmetry_2
Mg0 O18 1.975304 1_556
Mg0 O6 2.043426 1_555
Mg0 O12 2.086670 1_555
Mg0 O3 2.144532 1_455
Mg0 O14 2.229188 1_555
Mg1 O19 1.975272 1_555
Mg1 O7 2.043660 1_555
Mg1 O13 2.086731 1_555
Mg1 O2 2.144369 1_555
Mg1 O15 2.228688 1_555
Mg2 O16 1.971652 1_555
Mg2 O0 2.048100 1_565
Mg2 O10 2.074340 1_555
Mg2 O5 2.175988 1_455
Mg2 O8 2.266910 1_555
Mg3 O17 1.971743 1_554
Mg3 O1 2.048198 1_565
Mg3 O11 2.074454 1_555
Mg3 O4 2.175660 1_555
Mg3 O9 2.266737 1_555
Mn0 O17 1.884441 1_555
Mn0 O19 1.885370 1_555
Mn0 O8 2.044150 1_555
Mn0 O12 2.088443 1_655
Mn0 O7 2.176473 1_555
Mn0 O3 2.277086 1_555
Mn1 O19 1.884276 1_565
Mn1 O17 1.887196 1_555
Mn1 O14 2.048432 1_565
Mn1 O10 2.088966 1_655
Mn1 O1 2.197923 1_566
Mn1 O5 2.262221 1_555
Mn2 O16 1.883788 1_555
Mn2 O18 1.885934 1_555
Mn2 O9 2.043894 1_455
Mn2 O13 2.088722 1_555
Mn2 O6 2.176968 1_554
Mn2 O2 2.276520 1_555
Mn3 O18 1.884687 1_565
Mn3 O16 1.886745 1_555
Mn3 O15 2.048284 1_465
Mn3 O11 2.089253 1_555
Mn3 O0 2.198096 1_565
Mn3 O4 2.261971 1_555
O0 P0 1.540854 1_555
O1 P1 1.540914 1_555
O2 P0 1.555340 1_555
O3 P1 1.555305 1_556
O4 P2 1.552416 1_554
O5 P3 1.552321 1_555
O6 P2 1.543604 1_555
O7 P3 1.543695 1_555
O8 P2 1.563966 1_555
O9 P3 1.564071 1_555
O10 P2 1.562617 1_555
O11 P3 1.562547 1_555
O12 P0 1.561890 1_555
O13 P1 1.561792 1_555
O14 P0 1.566706 1_555
O15 P1 1.566810 1_555
