# generated using pymatgen
data_Y3VH3O8
_symmetry_space_group_name_H-M   'P 1'
_cell_length_a   5.60946419
_cell_length_b   5.98396645
_cell_length_c   10.43065100
_cell_angle_alpha   90.00000000
_cell_angle_beta   90.00000000
_cell_angle_gamma   105.05618220
_symmetry_Int_Tables_number   1
_chemical_formula_structural   Y3VH3O8
_chemical_formula_sum   'Y6 V2 H6 O16'
_cell_volume   338.10484305
_cell_formula_units_Z   2
loop_
 _symmetry_equiv_pos_site_id
 _symmetry_equiv_pos_as_xyz
  1  'x, y, z'
loop_
 _atom_site_type_symbol
 _atom_site_label
 _atom_site_symmetry_multiplicity
 _atom_site_fract_x
 _atom_site_fract_y
 _atom_site_fract_z
 _atom_site_occupancy
  Y  Y0  1  0.76715800  0.79871400  0.75000000  1
  Y  Y1  1  0.23284200  0.20128600  0.25000000  1
  Y  Y2  1  0.68504300  0.30555500  0.54024600  1
  Y  Y3  1  0.31495700  0.69444500  0.04024600  1
  Y  Y4  1  0.31495700  0.69444500  0.45975400  1
  Y  Y5  1  0.68504300  0.30555500  0.95975400  1
  V  V0  1  0.18491500  0.46226600  0.75000000  1
  V  V1  1  0.81508500  0.53773400  0.25000000  1
  H  H0  1  0.84456400  0.90231000  0.46239700  1
  H  H1  1  0.15543600  0.09769000  0.96239700  1
  H  H2  1  0.15543600  0.09769000  0.53760300  1
  H  H3  1  0.84456400  0.90231000  0.03760300  1
  H  H4  1  0.38472600  0.09142100  0.75000000  1
  H  H5  1  0.61527400  0.90857900  0.25000000  1
  O  O0  1  0.00058300  0.59874500  0.62431800  1
  O  O1  1  0.99941700  0.40125500  0.12431800  1
  O  O2  1  0.99941700  0.40125500  0.37568200  1
  O  O3  1  0.00058300  0.59874500  0.87568200  1
  O  O4  1  0.45693500  0.54004000  0.62970200  1
  O  O5  1  0.54306500  0.45996000  0.12970200  1
  O  O6  1  0.54306500  0.45996000  0.37029800  1
  O  O7  1  0.45693500  0.54004000  0.87029800  1
  O  O8  1  0.72740600  0.93683900  0.52338600  1
  O  O9  1  0.27259400  0.06316100  0.02338600  1
  O  O10  1  0.27259400  0.06316100  0.47661400  1
  O  O11  1  0.72740600  0.93683900  0.97661400  1
  O  O12  1  0.06558600  0.16346000  0.75000000  1
  O  O13  1  0.93441400  0.83654000  0.25000000  1
  O  O14  1  0.56411200  0.10880900  0.75000000  1
  O  O15  1  0.43588800  0.89119100  0.25000000  1
loop_
_geom_bond_atom_site_label_1
_geom_bond_atom_site_label_2
_geom_bond_distance
_geom_bond_site_symmetry_2
H0 O8 0.974595 1_555
H1 O9 0.974595 1_556
H2 O10 0.974595 1_555
H3 O11 0.974595 1_554
H4 O14 0.984372 1_555
H5 O15 0.984372 1_555
O0 V0 1.973180 1_555
O0 Y2 2.316603 1_455
O0 Y0 2.383058 1_455
O0 Y4 2.420643 1_555
O1 V1 1.973180 1_555
O1 Y3 2.316603 1_655
O1 Y1 2.383058 1_655
O1 Y5 2.420643 1_554
O2 V1 1.973180 1_555
O2 Y4 2.316603 1_655
O2 Y1 2.383058 1_655
O2 Y2 2.420643 1_555
O3 V0 1.973180 1_555
O3 Y5 2.316603 1_455
O3 Y0 2.383058 1_455
O3 Y3 2.420643 1_556
O4 V0 1.936613 1_555
O4 Y4 2.238891 1_555
O4 Y2 2.325842 1_555
O4 Y0 2.366282 1_555
O5 V1 1.936613 1_555
O5 Y5 2.238891 1_554
O5 Y3 2.325842 1_555
O5 Y1 2.366282 1_555
O6 V1 1.936613 1_555
O6 Y2 2.238891 1_555
O6 Y4 2.325842 1_555
O6 Y1 2.366282 1_555
O7 V0 1.936613 1_555
O7 Y3 2.238891 1_556
O7 Y5 2.325842 1_555
O7 Y0 2.366282 1_555
O8 Y2 2.286466 1_565
O8 Y4 2.480679 1_555
O8 Y0 2.532956 1_555
O9 Y3 2.286466 1_545
O9 Y5 2.480679 1_554
O9 Y1 2.532956 1_555
O10 Y4 2.286466 1_545
O10 Y2 2.480679 1_555
O10 Y1 2.532956 1_555
O11 Y5 2.286466 1_565
O11 Y3 2.480679 1_556
O11 Y0 2.532956 1_555
O12 V0 1.738779 1_555
O12 Y0 2.380748 1_445
O13 V1 1.738779 1_555
O13 Y1 2.380748 1_665
O14 Y0 2.416308 1_545
O14 Y5 2.493614 1_555
O14 Y2 2.493614 1_555
O15 Y1 2.416308 1_565
O15 Y3 2.493614 1_555
O15 Y4 2.493614 1_555
