# generated using pymatgen
data_LiMg14Cu
_symmetry_space_group_name_H-M   'P 1'
_cell_length_a   6.33290380
_cell_length_b   6.33290330
_cell_length_c   9.90351655
_cell_angle_alpha   90.00000000
_cell_angle_beta   90.00000000
_cell_angle_gamma   120.00000263
_symmetry_Int_Tables_number   1
_chemical_formula_structural   LiMg14Cu
_chemical_formula_sum   'Li1 Mg14 Cu1'
_cell_volume   343.97414455
_cell_formula_units_Z   1
loop_
 _symmetry_equiv_pos_site_id
 _symmetry_equiv_pos_as_xyz
  1  'x, y, z'
loop_
 _atom_site_type_symbol
 _atom_site_label
 _atom_site_symmetry_multiplicity
 _atom_site_fract_x
 _atom_site_fract_y
 _atom_site_fract_z
 _atom_site_occupancy
  Li  Li0  1  0.16666700  0.33333300  0.62500000  1
  Mg  Mg0  1  0.16389251  0.83194575  0.12500000  1
  Mg  Mg1  1  0.16818649  0.83409274  0.62500000  1
  Mg  Mg2  1  0.66805425  0.33610749  0.12500000  1
  Mg  Mg3  1  0.66590726  0.33181351  0.62500000  1
  Mg  Mg4  1  0.66805425  0.83194575  0.12500000  1
  Mg  Mg5  1  0.66590726  0.83409274  0.62500000  1
  Mg  Mg6  1  0.32841417  0.17158583  0.36887535  1
  Mg  Mg7  1  0.32841417  0.17158583  0.88112465  1
  Mg  Mg8  1  0.32841417  0.65682933  0.36887535  1
  Mg  Mg9  1  0.32841417  0.65682933  0.88112465  1
  Mg  Mg10  1  0.84317067  0.17158583  0.36887535  1
  Mg  Mg11  1  0.84317067  0.17158583  0.88112465  1
  Mg  Mg12  1  0.83333300  0.66666700  0.37662303  1
  Mg  Mg13  1  0.83333300  0.66666700  0.87337697  1
  Cu  Cu0  1  0.16666700  0.33333300  0.12500000  1
loop_
_geom_bond_atom_site_label_1
_geom_bond_atom_site_label_2
_geom_bond_distance
_geom_bond_site_symmetry_2
Li0 Mg7 3.095442 1_555
Li0 Mg6 3.095442 1_555
Li0 Mg9 3.095448 1_555
Li0 Mg8 3.095448 1_555
Li0 Mg10 3.095448 1_455
Li0 Mg11 3.095448 1_455
Li0 Mg1 3.166463 1_555
Li0 Mg5 3.166463 1_555
Li0 Mg5 3.166463 1_445
Li0 Mg1 3.166463 1_545
Li0 Mg3 3.166463 1_455
Li0 Mg3 3.166463 1_555
Mg0 Mg9 3.050278 1_554
Mg0 Mg8 3.050278 1_555
Mg0 Mg6 3.050284 1_565
Mg0 Mg7 3.050284 1_564
Mg0 Mg13 3.081652 1_454
Mg0 Mg12 3.081652 1_455
Mg0 Mg2 3.140096 1_455
Mg0 Mg4 3.140096 1_455
Mg0 Mg2 3.192808 1_565
Mg0 Mg4 3.192808 1_555
Mg1 Mg12 3.069745 1_455
Mg1 Mg13 3.069745 1_455
Mg1 Mg9 3.140534 1_555
Mg1 Mg8 3.140534 1_555
Mg1 Mg7 3.140540 1_565
Mg1 Mg6 3.140540 1_565
Mg1 Mg3 3.152018 1_565
Mg1 Mg5 3.152018 1_555
Mg1 Mg3 3.180886 1_455
Mg1 Mg5 3.180886 1_455
Mg2 Mg7 3.050284 1_554
Mg2 Mg6 3.050284 1_555
Mg2 Mg4 3.140096 1_555
Mg2 Mg4 3.192808 1_545
Mg3 Mg7 3.140540 1_555
Mg3 Mg6 3.140540 1_555
Mg3 Mg5 3.152018 1_545
Mg3 Mg5 3.180886 1_555
Mg4 Mg9 3.050284 1_554
Mg4 Mg8 3.050284 1_555
Mg5 Mg9 3.140540 1_555
Mg5 Mg8 3.140540 1_555
Mg6 Mg8 3.073000 1_555
Mg6 Mg8 3.259903 1_545
Mg7 Mg9 3.073000 1_555
Mg7 Mg9 3.259903 1_545
Mg10 Mg2 3.050278 1_555
Mg10 Mg4 3.050284 1_545
Mg10 Mg8 3.073000 1_655
Mg10 Mg6 3.073000 1_655
Mg10 Mg3 3.140534 1_555
Mg10 Mg5 3.140540 1_545
Mg10 Mg12 3.167841 1_545
Mg10 Mg12 3.167841 1_555
Mg10 Mg8 3.259903 1_545
Mg10 Mg6 3.259903 1_555
Mg11 Mg2 3.050278 1_556
Mg11 Mg4 3.050284 1_546
Mg11 Mg9 3.073000 1_655
Mg11 Mg7 3.073000 1_655
Mg11 Mg3 3.140534 1_555
Mg11 Mg5 3.140540 1_545
Mg11 Mg13 3.167841 1_545
Mg11 Mg13 3.167841 1_555
Mg11 Mg9 3.259903 1_545
Mg11 Mg7 3.259903 1_555
Mg12 Mg5 3.069738 1_555
Mg12 Mg3 3.069745 1_555
Mg12 Mg4 3.081645 1_555
Mg12 Mg2 3.081651 1_555
Mg12 Mg6 3.167841 1_665
Mg12 Mg6 3.167841 1_555
Mg12 Mg8 3.167841 1_555
Mg12 Mg8 3.167841 1_655
Mg13 Mg5 3.069738 1_555
Mg13 Mg3 3.069745 1_555
Mg13 Mg4 3.081645 1_556
Mg13 Mg2 3.081651 1_556
Mg13 Mg7 3.167841 1_665
Mg13 Mg7 3.167841 1_555
Mg13 Mg9 3.167841 1_555
Mg13 Mg9 3.167841 1_655
Cu0 Mg6 2.996841 1_555
Cu0 Mg7 2.996841 1_554
Cu0 Mg8 2.996847 1_555
Cu0 Mg9 2.996847 1_554
Cu0 Mg10 2.996847 1_455
Cu0 Mg11 2.996847 1_454
Cu0 Mg0 3.166488 1_555
Cu0 Mg4 3.166488 1_445
Cu0 Mg4 3.166488 1_555
Cu0 Mg0 3.166488 1_545
Cu0 Mg2 3.166488 1_455
Cu0 Mg2 3.166488 1_555
