# generated using pymatgen
data_AlCo4
_symmetry_space_group_name_H-M   'P 1'
_cell_length_a   20.16972130
_cell_length_b   20.16972130
_cell_length_c   20.16972108
_cell_angle_alpha   14.69059295
_cell_angle_beta   14.69059295
_cell_angle_gamma   14.69059684
_symmetry_Int_Tables_number   1
_chemical_formula_structural   AlCo4
_chemical_formula_sum   'Al8 Co32'
_cell_volume   459.51370227
_cell_formula_units_Z   8
loop_
 _symmetry_equiv_pos_site_id
 _symmetry_equiv_pos_as_xyz
  1  'x, y, z'
loop_
 _atom_site_type_symbol
 _atom_site_label
 _atom_site_symmetry_multiplicity
 _atom_site_fract_x
 _atom_site_fract_y
 _atom_site_fract_z
 _atom_site_occupancy
  Al  Al0_0  1  0.00000000  0.00000000  0.00000000  1
  Al  Al0_1  1  0.00000000  0.00000000  0.50000000  1
  Al  Al0_2  1  0.00000000  0.50000000  0.00000000  1
  Al  Al0_3  1  0.00000000  0.50000000  0.50000000  1
  Al  Al0_4  1  0.50000000  0.00000000  0.00000000  1
  Al  Al0_5  1  0.50000000  0.00000000  0.50000000  1
  Al  Al0_6  1  0.50000000  0.50000000  0.00000000  1
  Al  Al0_7  1  0.50000000  0.50000000  0.50000000  1
  Co  Co0_0  1  0.29942750  0.29942750  0.29942750  1
  Co  Co0_1  1  0.29942750  0.29942750  0.79942750  1
  Co  Co0_2  1  0.29942750  0.79942750  0.29942750  1
  Co  Co0_3  1  0.29942750  0.79942750  0.79942750  1
  Co  Co0_4  1  0.79942750  0.29942750  0.29942750  1
  Co  Co0_5  1  0.79942750  0.29942750  0.79942750  1
  Co  Co0_6  1  0.79942750  0.79942750  0.29942750  1
  Co  Co0_7  1  0.79942750  0.79942750  0.79942750  1
  Co  Co1_0  1  0.10016050  0.10016050  0.10016050  1
  Co  Co1_1  1  0.10016050  0.10016050  0.60016050  1
  Co  Co1_2  1  0.10016050  0.60016050  0.10016050  1
  Co  Co1_3  1  0.10016050  0.60016050  0.60016050  1
  Co  Co1_4  1  0.60016050  0.10016050  0.10016050  1
  Co  Co1_5  1  0.60016050  0.10016050  0.60016050  1
  Co  Co1_6  1  0.60016050  0.60016050  0.10016050  1
  Co  Co1_7  1  0.60016050  0.60016050  0.60016050  1
  Co  Co2_0  1  0.39983950  0.39983950  0.39983950  1
  Co  Co2_1  1  0.39983950  0.39983950  0.89983950  1
  Co  Co2_2  1  0.39983950  0.89983950  0.39983950  1
  Co  Co2_3  1  0.39983950  0.89983950  0.89983950  1
  Co  Co2_4  1  0.89983950  0.39983950  0.39983950  1
  Co  Co2_5  1  0.89983950  0.39983950  0.89983950  1
  Co  Co2_6  1  0.89983950  0.89983950  0.39983950  1
  Co  Co2_7  1  0.89983950  0.89983950  0.89983950  1
  Co  Co3_0  1  0.20057250  0.20057250  0.20057250  1
  Co  Co3_1  1  0.20057250  0.20057250  0.70057250  1
  Co  Co3_2  1  0.20057250  0.70057250  0.20057250  1
  Co  Co3_3  1  0.20057250  0.70057250  0.70057250  1
  Co  Co3_4  1  0.70057250  0.20057250  0.20057250  1
  Co  Co3_5  1  0.70057250  0.20057250  0.70057250  1
  Co  Co3_6  1  0.70057250  0.70057250  0.20057250  1
  Co  Co3_7  1  0.70057250  0.70057250  0.70057250  1
loop_
_geom_bond_atom_site_label_1
_geom_bond_atom_site_label_2
_geom_bond_distance
_geom_bond_site_symmetry_2
Al0_0 Co3_1 2.516725 1_554
Al0_0 Co0_6 2.516725 1_445
Al0_0 Co0_3 2.516725 1_544
Al0_0 Co0_5 2.516725 1_454
Al0_0 Co3_4 2.516725 1_455
Al0_0 Co3_2 2.516725 1_545
Al0_0 Al0_5 2.578673 1_455
Al0_0 Al0_3 2.578673 1_545
Al0_0 Al0_3 2.578673 1_554
Al0_0 Al0_5 2.578673 1_554
Al0_0 Al0_6 2.578674 1_545
Al0_0 Al0_6 2.578674 1_455
Al0_1 Co3_0 2.516725 1_555
Al0_1 Co0_7 2.516725 1_445
Al0_1 Co0_2 2.516725 1_545
Al0_1 Co0_4 2.516725 1_455
Al0_1 Co3_3 2.516725 1_545
Al0_1 Co3_5 2.516725 1_455
Al0_1 Al0_4 2.578673 1_555
Al0_1 Al0_4 2.578673 1_456
Al0_1 Al0_2 2.578673 1_555
Al0_1 Al0_2 2.578673 1_546
Al0_1 Al0_7 2.578674 1_455
Al0_1 Al0_7 2.578674 1_545
Al0_2 Co0_4 2.516725 1_455
Al0_2 Co3_3 2.516725 1_554
Al0_2 Co3_6 2.516725 1_455
Al0_2 Co0_1 2.516725 1_554
Al0_2 Co3_0 2.516725 1_555
Al0_2 Co0_7 2.516725 1_454
Al0_2 Al0_7 2.578673 1_554
Al0_2 Al0_7 2.578673 1_455
Al0_2 Al0_4 2.578674 1_555
Al0_2 Al0_4 2.578674 1_465
Al0_3 Co0_5 2.516725 1_455
Al0_3 Co3_2 2.516725 1_555
Al0_3 Co3_7 2.516725 1_455
Al0_3 Co0_0 2.516725 1_555
Al0_3 Co3_1 2.516725 1_555
Al0_3 Co0_6 2.516725 1_455
Al0_3 Al0_6 2.578673 1_555
Al0_3 Al0_6 2.578673 1_456
Al0_3 Al0_5 2.578674 1_465
Al0_3 Al0_5 2.578674 1_555
Al0_4 Co0_2 2.516725 1_545
Al0_4 Co3_5 2.516725 1_554
Al0_4 Co3_6 2.516725 1_545
Al0_4 Co0_1 2.516725 1_554
Al0_4 Co3_0 2.516725 1_555
Al0_4 Co0_7 2.516725 1_544
Al0_4 Al0_7 2.578673 1_554
Al0_4 Al0_7 2.578673 1_545
Al0_5 Co3_4 2.516725 1_555
Al0_5 Co0_3 2.516725 1_545
Al0_5 Co3_7 2.516725 1_545
Al0_5 Co3_1 2.516725 1_555
Al0_5 Co0_0 2.516725 1_555
Al0_5 Co0_6 2.516725 1_545
Al0_5 Al0_6 2.578673 1_546
Al0_5 Al0_6 2.578673 1_555
Al0_6 Co3_7 2.516725 1_554
Al0_6 Co0_0 2.516725 1_555
Al0_6 Co0_3 2.516725 1_554
Al0_6 Co0_5 2.516725 1_554
Al0_6 Co3_4 2.516725 1_555
Al0_6 Co3_2 2.516725 1_555
Al0_7 Co0_1 2.516725 1_555
Al0_7 Co3_6 2.516725 1_555
Al0_7 Co0_2 2.516725 1_555
Al0_7 Co0_4 2.516725 1_555
Al0_7 Co3_3 2.516725 1_555
Al0_7 Co3_5 2.516725 1_555
Co0_0 Co1_1 2.454168 1_555
Co0_0 Co1_2 2.454168 1_555
Co0_0 Co1_4 2.454168 1_555
Co0_0 Co0_3 2.578673 1_554
Co0_0 Co0_5 2.578673 1_455
Co0_0 Co0_3 2.578673 1_545
Co0_0 Co0_5 2.578673 1_554
Co0_0 Co0_6 2.578674 1_545
Co0_0 Co0_6 2.578674 1_455
Co0_1 Co1_0 2.454168 1_556
Co0_1 Co1_5 2.454168 1_555
Co0_1 Co1_3 2.454168 1_555
Co0_1 Co0_2 2.578673 1_546
Co0_1 Co0_4 2.578673 1_555
Co0_1 Co0_2 2.578673 1_555
Co0_1 Co0_4 2.578673 1_456
Co0_1 Co0_7 2.578674 1_455
Co0_1 Co0_7 2.578674 1_545
Co0_2 Co1_3 2.454168 1_555
Co0_2 Co1_0 2.454168 1_565
Co0_2 Co1_6 2.454168 1_555
Co0_2 Co0_7 2.578673 1_554
Co0_2 Co0_7 2.578673 1_455
Co0_2 Co0_4 2.578674 1_555
Co0_2 Co0_4 2.578674 1_465
Co0_3 Co1_2 2.454168 1_556
Co0_3 Co1_7 2.454168 1_555
Co0_3 Co1_1 2.454168 1_565
Co0_3 Co0_6 2.578673 1_555
Co0_3 Co0_6 2.578673 1_456
Co0_3 Co0_5 2.578674 1_465
Co0_3 Co0_5 2.578674 1_555
Co0_4 Co1_5 2.454168 1_555
Co0_4 Co1_0 2.454168 1_655
Co0_4 Co1_6 2.454168 1_555
Co0_4 Co0_7 2.578673 1_554
Co0_4 Co0_7 2.578673 1_545
Co0_5 Co1_4 2.454168 1_556
Co0_5 Co1_7 2.454168 1_555
Co0_5 Co1_1 2.454168 1_655
Co0_5 Co0_6 2.578673 1_546
Co0_5 Co0_6 2.578673 1_555
Co0_6 Co1_7 2.454168 1_555
Co0_6 Co1_2 2.454168 1_655
Co0_6 Co1_4 2.454168 1_565
Co0_7 Co1_6 2.454168 1_556
Co0_7 Co1_3 2.454168 1_655
Co0_7 Co1_5 2.454168 1_565
Co1_0 Co2_6 2.504606 1_445
Co1_0 Co2_3 2.504606 1_544
Co1_0 Co2_5 2.504606 1_454
Co1_0 Co1_5 2.578673 1_455
Co1_0 Co1_3 2.578673 1_545
Co1_0 Co1_3 2.578673 1_554
Co1_0 Co1_5 2.578673 1_554
Co1_0 Co1_6 2.578674 1_545
Co1_0 Co1_6 2.578674 1_455
Co1_1 Co2_7 2.504606 1_445
Co1_1 Co2_4 2.504606 1_455
Co1_1 Co2_2 2.504606 1_545
Co1_1 Co1_4 2.578673 1_555
Co1_1 Co1_2 2.578673 1_555
Co1_1 Co1_2 2.578673 1_546
Co1_1 Co1_4 2.578673 1_456
Co1_1 Co1_7 2.578674 1_455
Co1_1 Co1_7 2.578674 1_545
Co1_2 Co2_4 2.504606 1_455
Co1_2 Co2_7 2.504606 1_454
Co1_2 Co2_1 2.504606 1_554
Co1_2 Co1_7 2.578673 1_455
Co1_2 Co1_7 2.578673 1_554
Co1_2 Co1_4 2.578674 1_555
Co1_2 Co1_4 2.578674 1_465
Co1_3 Co2_5 2.504606 1_455
Co1_3 Co2_6 2.504606 1_455
Co1_3 Co2_0 2.504606 1_555
Co1_3 Co1_6 2.578673 1_555
Co1_3 Co1_6 2.578673 1_456
Co1_3 Co1_5 2.578674 1_465
Co1_3 Co1_5 2.578674 1_555
Co1_4 Co2_2 2.504606 1_545
Co1_4 Co2_7 2.504606 1_544
Co1_4 Co2_1 2.504606 1_554
Co1_4 Co1_7 2.578673 1_554
Co1_4 Co1_7 2.578673 1_545
Co1_5 Co2_3 2.504606 1_545
Co1_5 Co2_6 2.504606 1_545
Co1_5 Co2_0 2.504606 1_555
Co1_5 Co1_6 2.578673 1_555
Co1_5 Co1_6 2.578673 1_546
Co1_6 Co2_0 2.504606 1_555
Co1_6 Co2_5 2.504606 1_554
Co1_6 Co2_3 2.504606 1_554
Co1_7 Co2_1 2.504606 1_555
Co1_7 Co2_4 2.504606 1_555
Co1_7 Co2_2 2.504606 1_555
Co2_0 Co3_1 2.454168 1_555
Co2_0 Co3_2 2.454168 1_555
Co2_0 Co3_4 2.454168 1_555
Co2_0 Co2_5 2.578673 1_455
Co2_0 Co2_3 2.578673 1_545
Co2_0 Co2_3 2.578673 1_554
Co2_0 Co2_5 2.578673 1_554
Co2_0 Co2_6 2.578674 1_455
Co2_0 Co2_6 2.578674 1_545
Co2_1 Co3_0 2.454168 1_556
Co2_1 Co3_5 2.454168 1_555
Co2_1 Co3_3 2.454168 1_555
Co2_1 Co2_2 2.578673 1_546
Co2_1 Co2_4 2.578673 1_456
Co2_1 Co2_4 2.578673 1_555
Co2_1 Co2_2 2.578673 1_555
Co2_1 Co2_7 2.578674 1_455
Co2_1 Co2_7 2.578674 1_545
Co2_2 Co3_3 2.454168 1_555
Co2_2 Co3_0 2.454168 1_565
Co2_2 Co3_6 2.454168 1_555
Co2_2 Co2_7 2.578673 1_455
Co2_2 Co2_7 2.578673 1_554
Co2_2 Co2_4 2.578674 1_555
Co2_2 Co2_4 2.578674 1_465
Co2_3 Co3_2 2.454168 1_556
Co2_3 Co3_1 2.454168 1_565
Co2_3 Co3_7 2.454168 1_555
Co2_3 Co2_6 2.578673 1_555
Co2_3 Co2_6 2.578673 1_456
Co2_3 Co2_5 2.578674 1_555
Co2_3 Co2_5 2.578674 1_465
Co2_4 Co3_5 2.454168 1_555
Co2_4 Co3_0 2.454168 1_655
Co2_4 Co3_6 2.454168 1_555
Co2_4 Co2_7 2.578673 1_545
Co2_4 Co2_7 2.578673 1_554
Co2_5 Co3_4 2.454168 1_556
Co2_5 Co3_1 2.454168 1_655
Co2_5 Co3_7 2.454168 1_555
Co2_5 Co2_6 2.578673 1_555
Co2_5 Co2_6 2.578673 1_546
Co2_6 Co3_7 2.454168 1_555
Co2_6 Co3_2 2.454168 1_655
Co2_6 Co3_4 2.454168 1_565
Co2_7 Co3_6 2.454168 1_556
Co2_7 Co3_5 2.454168 1_565
Co2_7 Co3_3 2.454168 1_655
Co3_0 Co3_5 2.578673 1_455
Co3_0 Co3_3 2.578673 1_545
Co3_0 Co3_5 2.578673 1_554
Co3_0 Co3_3 2.578673 1_554
Co3_0 Co3_6 2.578674 1_545
Co3_0 Co3_6 2.578674 1_455
Co3_1 Co3_2 2.578673 1_555
Co3_1 Co3_4 2.578673 1_555
Co3_1 Co3_2 2.578673 1_546
Co3_1 Co3_4 2.578673 1_456
Co3_1 Co3_7 2.578674 1_455
Co3_1 Co3_7 2.578674 1_545
Co3_2 Co3_7 2.578673 1_554
Co3_2 Co3_7 2.578673 1_455
Co3_2 Co3_4 2.578674 1_555
Co3_2 Co3_4 2.578674 1_465
Co3_3 Co3_6 2.578673 1_555
Co3_3 Co3_6 2.578673 1_456
Co3_3 Co3_5 2.578674 1_465
Co3_3 Co3_5 2.578674 1_555
Co3_4 Co3_7 2.578673 1_554
Co3_4 Co3_7 2.578673 1_545
Co3_5 Co3_6 2.578673 1_555
Co3_5 Co3_6 2.578673 1_546
