# generated using pymatgen
data_Mn2Zn3(SiO4)3
_symmetry_space_group_name_H-M   'P 1'
_cell_length_a   10.28216086
_cell_length_b   10.28216083
_cell_length_c   10.28216010
_cell_angle_alpha   112.47533622
_cell_angle_beta   107.99037215
_cell_angle_gamma   107.99037262
_symmetry_Int_Tables_number   1
_chemical_formula_structural   Mn2Zn3(SiO4)3
_chemical_formula_sum   'Mn8 Zn12 Si12 O48'
_cell_volume   835.08325382
_cell_formula_units_Z   4
loop_
 _symmetry_equiv_pos_site_id
 _symmetry_equiv_pos_as_xyz
  1  'x, y, z'
loop_
 _atom_site_type_symbol
 _atom_site_label
 _atom_site_symmetry_multiplicity
 _atom_site_fract_x
 _atom_site_fract_y
 _atom_site_fract_z
 _atom_site_occupancy
  Mn  Mn0  1  0.00000000  0.00000000  0.00000000  1
  Mn  Mn1  1  0.00000000  0.50000000  0.00000000  1
  Mn  Mn2  1  0.00000000  0.00000000  0.50000000  1
  Mn  Mn3  1  0.00000000  0.50000000  0.50000000  1
  Mn  Mn4  1  0.50000000  0.00000000  0.50000000  1
  Mn  Mn5  1  0.50000000  0.50000000  0.00000000  1
  Mn  Mn6  1  0.50000000  0.50000000  0.50000000  1
  Mn  Mn7  1  0.50000000  0.00000000  0.00000000  1
  Zn  Zn0  1  0.36823500  0.75000000  0.11823500  1
  Zn  Zn1  1  0.13176500  0.25000000  0.38176500  1
  Zn  Zn2  1  0.36823500  0.11823500  0.25000000  1
  Zn  Zn3  1  0.13176500  0.38176500  0.75000000  1
  Zn  Zn4  1  0.86823500  0.75000000  0.61823500  1
  Zn  Zn5  1  0.75000000  0.12500000  0.37500000  1
  Zn  Zn6  1  0.75000000  0.62500000  0.87500000  1
  Zn  Zn7  1  0.63176500  0.25000000  0.88176500  1
  Zn  Zn8  1  0.25000000  0.87500000  0.62500000  1
  Zn  Zn9  1  0.86823500  0.61823500  0.25000000  1
  Zn  Zn10  1  0.63176500  0.88176500  0.75000000  1
  Zn  Zn11  1  0.25000000  0.37500000  0.12500000  1
  Si  Si0  1  0.25000000  0.12500000  0.87500000  1
  Si  Si1  1  0.75000000  0.87500000  0.12500000  1
  Si  Si2  1  0.37464300  0.25000000  0.62464300  1
  Si  Si3  1  0.62535700  0.37535700  0.25000000  1
  Si  Si4  1  0.12535700  0.75000000  0.87535700  1
  Si  Si5  1  0.87464300  0.12464300  0.75000000  1
  Si  Si6  1  0.75000000  0.37500000  0.62500000  1
  Si  Si7  1  0.37464300  0.62464300  0.75000000  1
  Si  Si8  1  0.12535700  0.87535700  0.25000000  1
  Si  Si9  1  0.87464300  0.25000000  0.12464300  1
  Si  Si10  1  0.62535700  0.75000000  0.37535700  1
  Si  Si11  1  0.25000000  0.62500000  0.37500000  1
  O  O0  1  0.29165300  0.48071400  0.37249500  1
  O  O1  1  0.01642600  0.31085800  0.89557200  1
  O  O2  1  0.12210300  0.60128300  0.90289000  1
  O  O3  1  0.20834700  0.58084100  0.18906000  1
  O  O4  1  0.20834700  0.12750500  0.01928600  1
  O  O5  1  0.58471400  0.18914200  0.20556900  1
  O  O6  1  0.60821900  0.18906000  0.48071400  1
  O  O7  1  0.19839300  0.21921300  0.59711000  1
  O  O8  1  0.89178100  0.37249500  0.58084100  1
  O  O9  1  0.30160700  0.90289000  0.28078700  1
  O  O10  1  0.91528600  0.29443100  0.31085800  1
  O  O11  1  0.01642600  0.20556900  0.12085500  1
  O  O12  1  0.19839300  0.47918200  0.60128300  1
  O  O13  1  0.58471400  0.89557200  0.37914500  1
  O  O14  1  0.12210300  0.02081800  0.21921300  1
  O  O15  1  0.48357400  0.60442800  0.18914200  1
  O  O16  1  0.37789700  0.59711000  0.89871700  1
  O  O17  1  0.89178100  0.01928600  0.31094000  1
  O  O18  1  0.60821900  0.91915900  0.12750500  1
  O  O19  1  0.10821900  0.62750600  0.41915900  1
  O  O20  1  0.91528600  0.12085500  0.60442800  1
  O  O21  1  0.37789700  0.28078700  0.47918200  1
  O  O22  1  0.30160700  0.89871700  0.02081800  1
  O  O23  1  0.29165300  0.31094000  0.91915900  1
  O  O24  1  0.70834700  0.51928600  0.62750600  1
  O  O25  1  0.98357400  0.68914200  0.10442800  1
  O  O26  1  0.87789700  0.39871700  0.09711000  1
  O  O27  1  0.79165300  0.41915900  0.81094000  1
  O  O28  1  0.79165300  0.87249400  0.98071400  1
  O  O29  1  0.41528600  0.81085800  0.79443100  1
  O  O30  1  0.39178100  0.81094000  0.51928600  1
  O  O31  1  0.80160700  0.78078700  0.40289000  1
  O  O32  1  0.70834700  0.68906000  0.08084100  1
  O  O33  1  0.69839300  0.10128300  0.97918200  1
  O  O34  1  0.62210300  0.71921300  0.52081800  1
  O  O35  1  0.51642600  0.62085500  0.70556900  1
  O  O36  1  0.08471400  0.87914500  0.39557200  1
  O  O37  1  0.39178100  0.08084100  0.87249400  1
  O  O38  1  0.10821900  0.98071400  0.68906000  1
  O  O39  1  0.62210300  0.40289000  0.10128300  1
  O  O40  1  0.51642600  0.39557200  0.81085800  1
  O  O41  1  0.87789700  0.97918200  0.78078700  1
  O  O42  1  0.41528600  0.10442800  0.62085500  1
  O  O43  1  0.80160700  0.52081800  0.39871700  1
  O  O44  1  0.98357400  0.79443100  0.87914500  1
  O  O45  1  0.08471400  0.70556900  0.68914200  1
  O  O46  1  0.69839300  0.09711000  0.71921300  1
  O  O47  1  0.48357400  0.37914500  0.29443100  1
loop_
_geom_bond_atom_site_label_1
_geom_bond_atom_site_label_2
_geom_bond_distance
_geom_bond_site_symmetry_2
Mn0 O11 1.918862 1_555
Mn0 O44 1.918862 1_444
Mn0 O4 2.037476 1_555
Mn0 O28 2.037479 1_444
Mn0 O14 2.102278 1_555
Mn0 O41 2.102278 1_444
Mn1 O25 1.918852 1_455
Mn1 O1 1.918852 1_554
Mn1 O3 2.037474 1_555
Mn1 O27 2.037474 1_454
Mn1 O2 2.102268 1_554
Mn1 O26 2.102268 1_455
Mn2 O36 1.918858 1_545
Mn2 O20 1.918858 1_455
Mn2 O17 2.037468 1_455
Mn2 O38 2.037468 1_545
Mn2 O7 2.102268 1_555
Mn2 O31 2.102268 1_445
Mn3 O45 1.918858 1_555
Mn3 O10 1.918858 1_455
Mn3 O8 2.037468 1_455
Mn3 O19 2.037474 1_555
Mn3 O12 2.102256 1_555
Mn3 O43 2.102256 1_455
Mn4 O42 1.918858 1_555
Mn4 O13 1.918858 1_545
Mn4 O30 2.037468 1_545
Mn4 O6 2.037468 1_555
Mn4 O46 2.102268 1_555
Mn4 O9 2.102268 1_545
Mn5 O40 1.918852 1_554
Mn5 O15 1.918852 1_555
Mn5 O23 2.037474 1_554
Mn5 O32 2.037474 1_555
Mn5 O39 2.102268 1_555
Mn5 O16 2.102268 1_554
Mn6 O47 1.918862 1_555
Mn6 O35 1.918862 1_555
Mn6 O0 2.037476 1_555
Mn6 O24 2.037479 1_555
Mn6 O34 2.102278 1_555
Mn6 O21 2.102278 1_555
Mn7 O5 1.918858 1_555
Mn7 O29 1.918858 1_544
Mn7 O18 2.037468 1_545
Mn7 O37 2.037474 1_554
Mn7 O33 2.102256 1_554
Mn7 O22 2.102256 1_545
O0 Si11 1.659868 1_555
O0 Zn11 2.182926 1_555
O0 Zn1 2.489967 1_555
O1 Si5 1.663853 1_455
O1 Zn3 2.361176 1_555
O1 Zn11 2.469858 1_556
O2 Si4 1.650678 1_555
O2 Zn3 2.257839 1_555
O2 Zn0 2.281475 1_556
O3 Si11 1.659875 1_555
O3 Zn11 2.182917 1_555
O3 Zn0 2.489966 1_555
O4 Si0 1.659868 1_554
O4 Zn11 2.182926 1_555
O4 Zn2 2.489967 1_555
O5 Si3 1.663856 1_555
O5 Zn2 2.361170 1_555
O5 Zn5 2.469852 1_555
O6 Si6 1.659873 1_555
O6 Zn5 2.182923 1_555
O6 Zn2 2.489971 1_555
O7 Si2 1.650678 1_555
O7 Zn3 2.257839 1_555
O7 Zn1 2.281475 1_555
O8 Si6 1.659874 1_555
O8 Zn5 2.182922 1_555
O8 Zn3 2.489971 1_655
O9 Si8 1.650678 1_555
O9 Zn0 2.257839 1_555
O9 Zn2 2.281475 1_565
O10 Si9 1.663856 1_555
O10 Zn1 2.361170 1_655
O10 Zn5 2.469852 1_555
O11 Si9 1.663846 1_455
O11 Zn1 2.361171 1_555
O11 Zn11 2.469860 1_555
O12 Si7 1.650673 1_555
O12 Zn1 2.257851 1_555
O12 Zn3 2.281487 1_555
O13 Si10 1.663856 1_555
O13 Zn0 2.361170 1_555
O13 Zn5 2.469852 1_565
O14 Si8 1.650657 1_545
O14 Zn1 2.257855 1_555
O14 Zn2 2.281476 1_555
O15 Si10 1.663853 1_555
O15 Zn0 2.361176 1_555
O15 Zn11 2.469858 1_555
O16 Si7 1.650677 1_555
O16 Zn0 2.257839 1_556
O16 Zn3 2.281475 1_555
O17 Si1 1.659873 1_545
O17 Zn5 2.182923 1_555
O17 Zn1 2.489971 1_655
O18 Si1 1.659874 1_555
O18 Zn5 2.182922 1_565
O18 Zn0 2.489971 1_555
O19 Si11 1.659875 1_555
O19 Zn8 2.182916 1_555
O19 Zn9 2.489966 1_455
O20 Si5 1.663856 1_555
O20 Zn3 2.361170 1_655
O20 Zn5 2.469852 1_555
O21 Si2 1.650657 1_555
O21 Zn2 2.257854 1_555
O21 Zn1 2.281476 1_555
O22 Si4 1.650673 1_554
O22 Zn2 2.257851 1_565
O22 Zn0 2.281487 1_555
O23 Si0 1.659875 1_555
O23 Zn11 2.182916 1_556
O23 Zn3 2.489966 1_555
O24 Si6 1.659865 1_555
O24 Zn6 2.182916 1_555
O24 Zn4 2.489974 1_555
O25 Si8 1.663853 1_655
O25 Zn9 2.361176 1_555
O25 Zn6 2.469858 1_554
O26 Si9 1.650678 1_555
O26 Zn9 2.257839 1_555
O26 Zn7 2.281475 1_554
O27 Si6 1.659875 1_555
O27 Zn6 2.182917 1_555
O27 Zn7 2.489966 1_555
O28 Si1 1.659865 1_556
O28 Zn6 2.182916 1_555
O28 Zn10 2.489973 1_555
O29 Si7 1.663856 1_555
O29 Zn10 2.361170 1_555
O29 Zn8 2.469852 1_555
O30 Si11 1.659873 1_555
O30 Zn8 2.182923 1_555
O30 Zn10 2.489971 1_555
O31 Si10 1.650678 1_555
O31 Zn9 2.257839 1_555
O31 Zn4 2.281475 1_555
O32 Si1 1.659875 1_555
O32 Zn6 2.182916 1_554
O32 Zn9 2.489966 1_555
O33 Si9 1.650673 1_556
O33 Zn10 2.257851 1_545
O33 Zn7 2.281487 1_555
O34 Si10 1.650657 1_555
O34 Zn10 2.257854 1_555
O34 Zn4 2.281476 1_555
O35 Si7 1.663846 1_555
O35 Zn10 2.361171 1_555
O35 Zn6 2.469860 1_555
O36 Si8 1.663856 1_555
O36 Zn9 2.361170 1_455
O36 Zn8 2.469852 1_555
O37 Si0 1.659875 1_555
O37 Zn8 2.182916 1_545
O37 Zn7 2.489966 1_555
O38 Si0 1.659873 1_565
O38 Zn8 2.182923 1_555
O38 Zn4 2.489971 1_455
O39 Si3 1.650677 1_555
O39 Zn7 2.257839 1_554
O39 Zn9 2.281475 1_555
O40 Si2 1.663853 1_555
O40 Zn7 2.361176 1_555
O40 Zn6 2.469858 1_555
O41 Si5 1.650657 1_565
O41 Zn4 2.257855 1_555
O41 Zn10 2.281476 1_555
O42 Si2 1.663856 1_555
O42 Zn7 2.361170 1_555
O42 Zn8 2.469852 1_545
O43 Si3 1.650673 1_555
O43 Zn4 2.257851 1_555
O43 Zn9 2.281487 1_555
O44 Si4 1.663846 1_655
O44 Zn4 2.361171 1_555
O44 Zn6 2.469860 1_555
O45 Si4 1.663856 1_555
O45 Zn4 2.361170 1_455
O45 Zn8 2.469852 1_555
O46 Si5 1.650678 1_555
O46 Zn7 2.257839 1_555
O46 Zn10 2.281475 1_545
O47 Si3 1.663846 1_555
O47 Zn2 2.361171 1_555
O47 Zn11 2.469860 1_555
