# generated using pymatgen
data_NiH20C12S2(NO4)2
_symmetry_space_group_name_H-M   'P 1'
_cell_length_a   5.24258400
_cell_length_b   13.31309400
_cell_length_c   18.57476813
_cell_angle_alpha   47.55676255
_cell_angle_beta   90.00000000
_cell_angle_gamma   90.00000000
_symmetry_Int_Tables_number   1
_chemical_formula_structural   NiH20C12S2(NO4)2
_chemical_formula_sum   'Ni2 H40 C24 S4 N4 O16'
_cell_volume   956.69288424
_cell_formula_units_Z   2
loop_
 _symmetry_equiv_pos_site_id
 _symmetry_equiv_pos_as_xyz
  1  'x, y, z'
loop_
 _atom_site_type_symbol
 _atom_site_label
 _atom_site_symmetry_multiplicity
 _atom_site_fract_x
 _atom_site_fract_y
 _atom_site_fract_z
 _atom_site_occupancy
  Ni  Ni0  1  0.50000000  0.00000000  0.50000000  1
  Ni  Ni1  1  0.00000000  0.00000000  0.00000000  1
  H  H0  1  0.32687000  0.05746500  0.33808200  1
  H  H1  1  0.17313000  0.05746500  0.83808200  1
  H  H2  1  0.67313000  0.94253500  0.66191800  1
  H  H3  1  0.82687000  0.94253500  0.16191800  1
  H  H4  1  0.08373900  0.00787700  0.40811800  1
  H  H5  1  0.41626100  0.00787700  0.90811800  1
  H  H6  1  0.91626100  0.99212300  0.59188200  1
  H  H7  1  0.58373900  0.99212300  0.09188200  1
  H  H8  1  0.48348400  0.15858500  0.16642600  1
  H  H9  1  0.01651600  0.15858500  0.66642600  1
  H  H10  1  0.51651600  0.84141500  0.83357400  1
  H  H11  1  0.98348400  0.84141500  0.33357400  1
  H  H12  1  0.64731900  0.02752900  0.24738600  1
  H  H13  1  0.85268100  0.02752900  0.74738600  1
  H  H14  1  0.35268100  0.97247100  0.75261400  1
  H  H15  1  0.14731900  0.97247100  0.25261400  1
  H  H16  1  0.12920200  0.41555700  0.66481300  1
  H  H17  1  0.37079800  0.41555700  0.16481300  1
  H  H18  1  0.87079800  0.58444300  0.33518700  1
  H  H19  1  0.62920200  0.58444300  0.83518700  1
  H  H20  1  0.33894600  0.33640700  0.76579700  1
  H  H21  1  0.16105400  0.33640700  0.26579700  1
  H  H22  1  0.66105400  0.66359300  0.23420300  1
  H  H23  1  0.83894600  0.66359300  0.73420300  1
  H  H24  1  0.22615000  0.50685600  0.69977600  1
  H  H25  1  0.27385000  0.50685600  0.19977600  1
  H  H26  1  0.77385000  0.49314400  0.30022400  1
  H  H27  1  0.72615000  0.49314400  0.80022400  1
  H  H28  1  0.70937500  0.30968700  0.69240700  1
  H  H29  1  0.79062500  0.30968700  0.19240700  1
  H  H30  1  0.29062500  0.69031300  0.30759300  1
  H  H31  1  0.20937500  0.69031300  0.80759300  1
  H  H32  1  0.47348200  0.35386700  0.60641800  1
  H  H33  1  0.02651800  0.35386700  0.10641800  1
  H  H34  1  0.52651800  0.64613300  0.39358200  1
  H  H35  1  0.97348200  0.64613300  0.89358200  1
  H  H36  1  0.76629500  0.44842900  0.56442600  1
  H  H37  1  0.73370500  0.44842900  0.06442600  1
  H  H38  1  0.23370500  0.55157100  0.43557400  1
  H  H39  1  0.26629500  0.55157100  0.93557400  1
  C  C0  1  0.51262400  0.72529400  0.57002700  1
  C  C1  1  0.98737600  0.72529400  0.07002700  1
  C  C2  1  0.48737600  0.27470600  0.42997300  1
  C  C3  1  0.01262400  0.27470600  0.92997300  1
  C  C4  1  0.58491000  0.61393400  0.57734300  1
  C  C5  1  0.91509000  0.61393400  0.07734300  1
  C  C6  1  0.41509000  0.38606600  0.42265700  1
  C  C7  1  0.08491000  0.38606600  0.92265700  1
  C  C8  1  0.78604500  0.69919200  0.50203800  1
  C  C9  1  0.71395500  0.69919200  0.00203800  1
  C  C10  1  0.21395500  0.30080800  0.49796200  1
  C  C11  1  0.28604500  0.30080800  0.99796200  1
  C  C12  1  0.71087400  0.80959900  0.49897100  1
  C  C13  1  0.78912600  0.80959900  0.99897100  1
  C  C14  1  0.28912600  0.19040100  0.50102900  1
  C  C15  1  0.21087400  0.19040100  0.00102900  1
  C  C16  1  0.28601300  0.43378700  0.69397900  1
  C  C17  1  0.21398700  0.43378700  0.19397900  1
  C  C18  1  0.71398700  0.56621300  0.30602100  1
  C  C19  1  0.78601300  0.56621300  0.80602100  1
  C  C20  1  0.62190100  0.39535800  0.62188100  1
  C  C21  1  0.87809900  0.39535800  0.12188100  1
  C  C22  1  0.37809900  0.60464200  0.37811900  1
  C  C23  1  0.12190100  0.60464200  0.87811900  1
  S  S0  1  0.30340700  0.76966300  0.61217600  1
  S  S1  1  0.19659300  0.76966300  0.11217600  1
  S  S2  1  0.69659300  0.23033700  0.38782400  1
  S  S3  1  0.80340700  0.23033700  0.88782400  1
  N  N0  1  0.50403600  0.48828900  0.62843200  1
  N  N1  1  0.99596400  0.48828900  0.12843200  1
  N  N2  1  0.49596400  0.51171100  0.37156800  1
  N  N3  1  0.00403600  0.51171100  0.87156800  1
  O  O0  1  0.93725500  0.68303500  0.45874700  1
  O  O1  1  0.56274500  0.68303500  0.95874700  1
  O  O2  1  0.06274500  0.31696500  0.54125300  1
  O  O3  1  0.43725500  0.31696500  0.04125300  1
  O  O4  1  0.76948900  0.93156000  0.45503000  1
  O  O5  1  0.73051100  0.93156000  0.95503000  1
  O  O6  1  0.23051100  0.06844000  0.54497000  1
  O  O7  1  0.26948900  0.06844000  0.04497000  1
  O  O8  1  0.24722100  0.05880900  0.38564000  1
  O  O9  1  0.25277900  0.05880900  0.88564000  1
  O  O10  1  0.75277900  0.94119100  0.61436000  1
  O  O11  1  0.74722100  0.94119100  0.11436000  1
  O  O12  1  0.47899600  0.06971800  0.23502900  1
  O  O13  1  0.02100400  0.06971800  0.73502900  1
  O  O14  1  0.52100400  0.93028200  0.76497100  1
  O  O15  1  0.97899600  0.93028200  0.26497100  1
loop_
_geom_bond_atom_site_label_1
_geom_bond_atom_site_label_2
_geom_bond_distance
_geom_bond_site_symmetry_2
Ni0 O4 2.133364 1_545
Ni0 O6 2.133364 1_555
Ni0 O8 2.153304 1_555
Ni0 O10 2.153304 1_545
Ni0 S0 2.486608 1_545
Ni0 S2 2.486608 1_555
Ni1 O5 2.133364 1_444
Ni1 O7 2.133364 1_555
Ni1 O9 2.153304 1_554
Ni1 O11 2.153304 1_445
Ni1 S3 2.486608 1_454
Ni1 S1 2.486608 1_545
H0 O8 0.988116 1_555
H1 O9 0.988116 1_555
H2 O10 0.988116 1_555
H3 O11 0.988116 1_555
H4 O8 0.993250 1_555
H5 O9 0.993250 1_555
H6 O10 0.993250 1_555
H7 O11 0.993250 1_555
H8 O12 0.994602 1_555
H9 O13 0.994602 1_555
H10 O14 0.994602 1_555
H11 O15 0.994602 1_555
H12 O12 0.986338 1_555
H13 O13 0.986338 1_655
H14 O14 0.986338 1_555
H15 O15 0.986338 1_455
C0 C12 1.443096 1_555
C0 C4 1.445026 1_555
C0 S0 1.670058 1_555
C1 C13 1.443096 1_554
C1 C5 1.445026 1_555
C1 S1 1.670058 1_655
C2 C6 1.445026 1_555
C2 S2 1.670058 1_555
C3 C7 1.445026 1_555
C3 S3 1.670058 1_455
C4 N0 1.317505 1_555
C5 N1 1.317505 1_555
C6 N2 1.317505 1_555
C7 N3 1.317505 1_555
C8 O0 1.246898 1_555
C9 O1 1.246898 1_554
C10 O2 1.246898 1_555
C11 O3 1.246898 1_556
C12 O4 1.268163 1_555
C13 O5 1.268163 1_555
C14 O6 1.268163 1_555
C14 C2 1.443096 1_555
C15 O7 1.268163 1_555
C15 C3 1.443096 1_554
C16 H24 1.094421 1_555
C16 H20 1.096833 1_555
C16 H16 1.098044 1_555
C16 N0 1.457026 1_555
C17 H25 1.094421 1_555
C17 H21 1.096833 1_555
C17 H17 1.098044 1_555
C17 N1 1.457026 1_455
C18 H26 1.094421 1_555
C18 H22 1.096833 1_555
C18 H18 1.098044 1_555
C18 N2 1.457026 1_555
C19 H27 1.094421 1_555
C19 H23 1.096833 1_555
C19 H19 1.098044 1_555
C19 N3 1.457026 1_655
C20 H36 1.092457 1_555
C20 H32 1.098721 1_555
C20 H28 1.100281 1_555
C20 N0 1.459618 1_555
C21 H37 1.092457 1_555
C21 H33 1.098721 1_655
C21 H29 1.100281 1_555
C21 N1 1.459618 1_555
C22 H38 1.092457 1_555
C22 H34 1.098721 1_555
C22 H30 1.100281 1_555
C22 N2 1.459618 1_555
C23 H39 1.092457 1_555
C23 H35 1.098721 1_455
C23 H31 1.100281 1_555
C23 N3 1.459618 1_555
