# generated using pymatgen
data_Ir2Pb2O7
_symmetry_space_group_name_H-M   'P 1'
_cell_length_a   7.28117602
_cell_length_b   7.28117602
_cell_length_c   7.28117602
_cell_angle_alpha   60.00000000
_cell_angle_beta   60.00000000
_cell_angle_gamma   60.00000000
_symmetry_Int_Tables_number   1
_chemical_formula_structural   Ir2Pb2O7
_chemical_formula_sum   'Ir4 Pb4 O14'
_cell_volume   272.95408154
_cell_formula_units_Z   2
loop_
 _symmetry_equiv_pos_site_id
 _symmetry_equiv_pos_as_xyz
  1  'x, y, z'
loop_
 _atom_site_type_symbol
 _atom_site_label
 _atom_site_symmetry_multiplicity
 _atom_site_fract_x
 _atom_site_fract_y
 _atom_site_fract_z
 _atom_site_occupancy
  Ir  Ir0  1  0.12500000  0.62500000  0.62500000  1
  Ir  Ir1  1  0.62500000  0.12500000  0.62500000  1
  Ir  Ir2  1  0.62500000  0.62500000  0.12500000  1
  Ir  Ir3  1  0.62500000  0.62500000  0.62500000  1
  Pb  Pb0  1  0.62500000  0.12500000  0.12500000  1
  Pb  Pb1  1  0.12500000  0.62500000  0.12500000  1
  Pb  Pb2  1  0.12500000  0.12500000  0.62500000  1
  Pb  Pb3  1  0.12500000  0.12500000  0.12500000  1
  O  O0  1  0.70536702  0.70536702  0.29463298  1
  O  O1  1  0.29463298  0.29463298  0.70536702  1
  O  O2  1  0.70536702  0.29463298  0.70536702  1
  O  O3  1  0.29463298  0.70536702  0.29463298  1
  O  O4  1  0.29463298  0.70536702  0.70536702  1
  O  O5  1  0.70536702  0.29463298  0.29463298  1
  O  O6  1  0.54463298  0.54463298  0.95536702  1
  O  O7  1  0.95536702  0.95536702  0.54463298  1
  O  O8  1  0.54463298  0.95536702  0.54463298  1
  O  O9  1  0.95536702  0.54463298  0.95536702  1
  O  O10  1  0.95536702  0.54463298  0.54463298  1
  O  O11  1  0.54463298  0.95536702  0.95536702  1
  O  O12  1  0.25000000  0.25000000  0.25000000  1
  O  O13  1  -0.00000000  -0.00000000  -0.00000000  1
loop_
_geom_bond_atom_site_label_1
_geom_bond_atom_site_label_2
_geom_bond_distance
_geom_bond_site_symmetry_2
Ir0 O10 1.999577 1_455
Ir0 O1 1.999577 1_555
Ir0 O3 1.999577 1_555
Ir0 O9 1.999577 1_455
Ir0 O7 1.999577 1_455
Ir0 O4 1.999577 1_555
Ir1 O8 1.999577 1_545
Ir1 O1 1.999577 1_555
Ir1 O5 1.999577 1_555
Ir1 O7 1.999577 1_545
Ir1 O11 1.999577 1_545
Ir1 O2 1.999577 1_555
Ir2 O6 1.999577 1_554
Ir2 O5 1.999577 1_555
Ir2 O3 1.999577 1_555
Ir2 O9 1.999577 1_554
Ir2 O11 1.999577 1_554
Ir2 O0 1.999577 1_555
Ir3 O2 1.999577 1_555
Ir3 O4 1.999577 1_555
Ir3 O0 1.999577 1_555
Ir3 O8 1.999577 1_555
Ir3 O10 1.999577 1_555
Ir3 O6 1.999577 1_555
O0 Pb1 2.522806 1_655
O0 Pb0 2.522806 1_565
O1 Pb3 2.522806 1_556
O1 Pb2 2.522806 1_555
O2 Pb0 2.522806 1_556
O2 Pb2 2.522806 1_655
O3 Pb3 2.522806 1_565
O3 Pb1 2.522806 1_555
O4 Pb1 2.522806 1_556
O4 Pb2 2.522806 1_565
O5 Pb3 2.522806 1_655
O5 Pb0 2.522806 1_555
O6 Pb1 2.522806 1_556
O6 Pb0 2.522806 1_556
O7 Pb2 2.522806 1_665
O7 Pb3 2.522806 1_665
O8 Pb2 2.522806 1_565
O8 Pb0 2.522806 1_565
O9 Pb1 2.522806 1_656
O9 Pb3 2.522806 1_656
O10 Pb2 2.522806 1_655
O10 Pb1 2.522806 1_655
O11 Pb0 2.522806 1_566
O11 Pb3 2.522806 1_566
O12 Pb1 2.229396 1_555
O12 Pb0 2.229396 1_555
O12 Pb3 2.229396 1_555
O12 Pb2 2.229396 1_555
O13 Pb1 2.229396 1_545
O13 Pb0 2.229396 1_455
O13 Pb2 2.229396 1_554
O13 Pb3 2.229396 1_555
