# generated using pymatgen
data_Er21(In2Rh5)2
_symmetry_space_group_name_H-M   'P 1'
_cell_length_a   14.91314816
_cell_length_b   14.91314816
_cell_length_c   14.91314816
_cell_angle_alpha   134.14245627
_cell_angle_beta   134.14245627
_cell_angle_gamma   66.86558903
_symmetry_Int_Tables_number   1
_chemical_formula_structural   Er21(In2Rh5)2
_chemical_formula_sum   'Er42 In8 Rh20'
_cell_volume   1680.42482527
_cell_formula_units_Z   2
loop_
 _symmetry_equiv_pos_site_id
 _symmetry_equiv_pos_as_xyz
  1  'x, y, z'
loop_
 _atom_site_type_symbol
 _atom_site_label
 _atom_site_symmetry_multiplicity
 _atom_site_fract_x
 _atom_site_fract_y
 _atom_site_fract_z
 _atom_site_occupancy
  Er  Er0  1  0.26932800  0.39467800  0.28132200  1
  Er  Er1  1  0.73067200  0.60532200  0.71867800  1
  Er  Er2  1  0.11335600  0.98800600  0.71867800  1
  Er  Er3  1  0.39467800  0.11335600  0.12535000  1
  Er  Er4  1  0.38664400  0.10532200  0.87465000  1
  Er  Er5  1  0.88664400  0.01199400  0.28132200  1
  Er  Er6  1  0.60532200  0.88664400  0.87465000  1
  Er  Er7  1  0.61335600  0.89467800  0.12535000  1
  Er  Er8  1  0.98800600  0.26932800  0.87465000  1
  Er  Er9  1  0.23067200  0.51199400  0.12535000  1
  Er  Er10  1  0.01199400  0.73067200  0.12535000  1
  Er  Er11  1  0.76932800  0.48800600  0.87465000  1
  Er  Er12  1  0.51199400  0.38664400  0.28132200  1
  Er  Er13  1  0.48800600  0.61335600  0.71867800  1
  Er  Er14  1  0.10532200  0.23067200  0.71867800  1
  Er  Er15  1  0.89467800  0.76932800  0.28132200  1
  Er  Er16  1  0.60223500  0.10223500  0.50000000  1
  Er  Er17  1  0.39776500  0.89776500  0.50000000  1
  Er  Er18  1  0.10223500  0.60223500  0.50000000  1
  Er  Er19  1  0.89776500  0.39776500  0.50000000  1
  Er  Er20  1  0.65052100  0.15052100  0.80104300  1
  Er  Er21  1  0.34947900  0.84947900  0.19895700  1
  Er  Er22  1  0.15052100  0.34947900  0.50000000  1
  Er  Er23  1  0.84947900  0.65052100  0.50000000  1
  Er  Er24  1  0.27091000  0.14561600  0.27669800  1
  Er  Er25  1  0.72909000  0.85438400  0.72330200  1
  Er  Er26  1  0.86891800  0.99421200  0.72330200  1
  Er  Er27  1  0.14561600  0.86891800  0.87470600  1
  Er  Er28  1  0.63108200  0.35438400  0.12529400  1
  Er  Er29  1  0.13108200  0.00578800  0.27669800  1
  Er  Er30  1  0.85438400  0.13108200  0.12529400  1
  Er  Er31  1  0.36891800  0.64561600  0.87470600  1
  Er  Er32  1  0.99421200  0.27091000  0.12529400  1
  Er  Er33  1  0.22909000  0.50578800  0.87470600  1
  Er  Er34  1  0.00578800  0.72909000  0.87470600  1
  Er  Er35  1  0.77091000  0.49421200  0.12529400  1
  Er  Er36  1  0.50578800  0.63108200  0.27669800  1
  Er  Er37  1  0.49421200  0.36891800  0.72330200  1
  Er  Er38  1  0.35438400  0.22909000  0.72330200  1
  Er  Er39  1  0.64561600  0.77091000  0.27669800  1
  Er  Er40  1  0.75000000  0.25000000  0.50000000  1
  Er  Er41  1  0.25000000  0.75000000  0.50000000  1
  In  In0  1  0.34130400  0.84130400  0.81258600  1
  In  In1  1  0.65869600  0.15869600  0.18741400  1
  In  In2  1  0.02871800  0.52871800  0.18741400  1
  In  In3  1  0.84130400  0.02871800  0.50000000  1
  In  In4  1  0.47128200  0.65869600  0.50000000  1
  In  In5  1  0.97128200  0.47128200  0.81258600  1
  In  In6  1  0.15869600  0.97128200  0.50000000  1
  In  In7  1  0.52871800  0.34130400  0.50000000  1
  Rh  Rh0  1  0.79215900  0.29215900  0.86993100  1
  Rh  Rh1  1  0.20784100  0.70784100  0.13006900  1
  Rh  Rh2  1  0.42222800  0.92222800  0.13006900  1
  Rh  Rh3  1  0.29215900  0.42222800  0.50000000  1
  Rh  Rh4  1  0.07777200  0.20784100  0.50000000  1
  Rh  Rh5  1  0.57777200  0.07777200  0.86993100  1
  Rh  Rh6  1  0.70784100  0.57777200  0.50000000  1
  Rh  Rh7  1  0.92222800  0.79215900  0.50000000  1
  Rh  Rh8  1  0.09741500  0.59741500  0.69483000  1
  Rh  Rh9  1  0.90258500  0.40258500  0.30517000  1
  Rh  Rh10  1  0.59741500  0.90258500  0.50000000  1
  Rh  Rh11  1  0.40258500  0.09741500  0.50000000  1
  Rh  Rh12  1  0.00000000  0.00000000  0.00000000  1
  Rh  Rh13  1  0.50000000  0.50000000  0.00000000  1
  Rh  Rh14  1  0.13137500  0.13137500  0.00000000  1
  Rh  Rh15  1  0.86862500  0.86862500  0.00000000  1
  Rh  Rh16  1  0.36862500  0.36862500  0.00000000  1
  Rh  Rh17  1  0.63137500  0.63137500  0.00000000  1
  Rh  Rh18  1  0.25000000  0.25000000  0.00000000  1
  Rh  Rh19  1  0.75000000  0.75000000  0.00000000  1
loop_
_geom_bond_atom_site_label_1
_geom_bond_atom_site_label_2
_geom_bond_distance
_geom_bond_site_symmetry_2
Er0 Rh3 2.759892 1_555
Er0 Rh18 2.921563 1_555
Er0 Rh14 2.937982 1_555
Er0 In7 3.139629 1_555
Er0 In2 3.177461 1_555
Er0 In4 3.600094 1_555
Er1 Rh6 2.759892 1_555
Er1 Rh19 2.921563 1_556
Er1 Rh15 2.937982 1_556
Er1 In4 3.139629 1_555
Er1 In5 3.177461 1_555
Er1 In7 3.600094 1_555
Er2 Rh7 2.759892 1_455
Er2 Rh18 2.921563 1_566
Er2 Rh14 2.937982 1_566
Er2 In3 3.139629 1_465
Er2 In0 3.177461 1_555
Er2 In6 3.600094 1_555
Er3 Rh2 2.759892 1_545
Er3 Rh18 2.921563 1_555
Er3 Rh14 2.937982 1_555
Er3 In0 3.139629 1_544
Er3 In7 3.177461 1_555
Er3 In1 3.600094 1_555
Er4 Rh5 2.759892 1_555
Er4 Rh18 2.921563 1_556
Er4 Rh16 2.937982 1_556
Er4 In1 3.139629 1_556
Er4 In6 3.177461 1_545
Er4 In0 3.600094 1_545
Er5 Rh4 2.759892 1_655
Er5 Rh19 2.921563 1_545
Er5 Rh15 2.937982 1_545
Er5 In6 3.139629 1_645
Er5 In1 3.177461 1_555
Er5 In3 3.600094 1_555
Er6 Rh5 2.759892 1_565
Er6 Rh19 2.921563 1_556
Er6 Rh15 2.937982 1_556
Er6 In1 3.139629 1_566
Er6 In4 3.177461 1_555
Er6 In0 3.600094 1_555
Er7 Rh2 2.759892 1_555
Er7 Rh19 2.921563 1_555
Er7 Rh17 2.937982 1_555
Er7 In0 3.139629 1_554
Er7 In3 3.177461 1_565
Er7 In1 3.600094 1_565
Er8 Rh0 2.759892 1_555
Er8 Rh18 2.921563 1_656
Er8 Rh14 2.937982 1_656
Er8 In2 3.139629 1_656
Er8 In3 3.177461 1_555
Er8 In5 3.600094 1_555
Er9 Rh1 2.759892 1_555
Er9 Rh18 2.921563 1_555
Er9 Rh16 2.937982 1_555
Er9 In5 3.139629 1_454
Er9 In4 3.177461 1_555
Er9 In2 3.600094 1_555
Er10 Rh1 2.759892 1_555
Er10 Rh19 2.921563 1_455
Er10 Rh15 2.937982 1_455
Er10 In5 3.139629 1_454
Er10 In6 3.177461 1_555
Er10 In2 3.600094 1_555
Er11 Rh0 2.759892 1_555
Er11 Rh19 2.921563 1_556
Er11 Rh17 2.937982 1_556
Er11 In2 3.139629 1_656
Er11 In7 3.177461 1_555
Er11 In5 3.600094 1_555
Er12 Rh6 2.759892 1_555
Er12 Rh18 2.921563 1_555
Er12 Rh16 2.937982 1_555
Er12 In4 3.139629 1_555
Er12 In1 3.177461 1_555
Er12 In7 3.600094 1_555
Er13 Rh3 2.759892 1_555
Er13 Rh19 2.921563 1_556
Er13 Rh17 2.937982 1_556
Er13 In7 3.139629 1_555
Er13 In0 3.177461 1_555
Er13 In4 3.600094 1_555
Er14 Rh4 2.759892 1_555
Er14 Rh18 2.921563 1_556
Er14 Rh16 2.937982 1_556
Er14 In6 3.139629 1_545
Er14 In5 3.177461 1_455
Er14 In3 3.600094 1_455
Er15 Rh7 2.759892 1_555
Er15 Rh19 2.921563 1_555
Er15 Rh17 2.937982 1_555
Er15 In3 3.139629 1_565
Er15 In2 3.177461 1_655
Er15 In6 3.600094 1_655
Er16 Rh10 3.006378 1_545
Er16 Rh11 3.006378 1_555
Er16 Rh2 3.042052 1_545
Er16 Rh0 3.042052 1_555
Er16 In3 3.292672 1_555
Er16 In7 3.292672 1_555
Er17 Rh10 3.006378 1_555
Er17 Rh11 3.006378 1_565
Er17 Rh5 3.042052 1_565
Er17 Rh1 3.042052 1_555
Er17 In4 3.292672 1_555
Er17 In6 3.292672 1_555
Er18 Rh9 3.006378 1_455
Er18 Rh8 3.006378 1_555
Er18 Rh7 3.042052 1_455
Er18 Rh3 3.042052 1_555
Er18 In2 3.292672 1_555
Er18 In0 3.292672 1_555
Er19 Rh9 3.006378 1_555
Er19 Rh8 3.006378 1_655
Er19 Rh6 3.042052 1_555
Er19 Rh4 3.042052 1_655
Er19 In5 3.292672 1_555
Er19 In1 3.292672 1_555
Er20 Rh5 2.727520 1_555
Er20 Rh0 2.727544 1_555
Er20 Rh10 2.946351 1_545
Er20 Rh11 2.946351 1_555
Er21 Rh2 2.727520 1_555
Er21 Rh1 2.727544 1_555
Er21 Rh10 2.946351 1_555
Er21 Rh11 2.946351 1_565
Er22 Rh4 2.727534 1_555
Er22 Rh3 2.727534 1_555
Er22 Rh9 2.946344 1_455
Er22 Rh8 2.946344 1_555
Er23 Rh7 2.727534 1_555
Er23 Rh6 2.727534 1_555
Er23 Rh9 2.946344 1_555
Er23 Rh8 2.946344 1_655
Er24 Rh14 2.927283 1_555
Er24 Rh11 2.929014 1_555
Er24 Rh3 2.937659 1_555
Er24 Rh12 3.042535 1_555
Er24 Rh2 3.433866 1_545
Er24 In7 3.440121 1_555
Er25 Rh15 2.927283 1_556
Er25 Rh10 2.929014 1_555
Er25 Rh6 2.937659 1_555
Er25 Rh12 3.042535 1_666
Er25 Rh5 3.433866 1_565
Er25 In4 3.440121 1_555
Er26 Rh14 2.927283 1_666
Er26 Rh10 2.929014 1_555
Er26 Rh7 2.937659 1_555
Er26 Rh12 3.042535 1_666
Er26 Rh0 3.433866 1_565
Er26 In3 3.440121 1_565
Er27 Rh14 2.927283 1_566
Er27 Rh8 2.929014 1_555
Er27 Rh2 2.937659 1_556
Er27 Rh12 3.042535 1_566
Er27 Rh7 3.433866 1_455
Er27 In0 3.440121 1_555
Er28 Rh16 2.927283 1_555
Er28 Rh9 2.929014 1_555
Er28 Rh5 2.937659 1_554
Er28 Rh13 3.042535 1_555
Er28 Rh6 3.433866 1_555
Er28 In1 3.440121 1_555
Er29 Rh15 2.927283 1_445
Er29 Rh11 2.929014 1_555
Er29 Rh4 2.937659 1_555
Er29 Rh12 3.042535 1_555
Er29 Rh1 3.433866 1_545
Er29 In6 3.440121 1_545
Er30 Rh15 2.927283 1_545
Er30 Rh9 2.929014 1_555
Er30 Rh5 2.937659 1_554
Er30 Rh12 3.042535 1_655
Er30 Rh4 3.433866 1_655
Er30 In1 3.440121 1_555
Er31 Rh17 2.927283 1_556
Er31 Rh8 2.929014 1_555
Er31 Rh2 2.937659 1_556
Er31 Rh13 3.042535 1_556
Er31 Rh3 3.433866 1_555
Er31 In0 3.440121 1_555
Er32 Rh14 2.927283 1_655
Er32 Rh9 2.929014 1_555
Er32 Rh0 2.937659 1_554
Er32 Rh12 3.042535 1_655
Er32 Rh3 3.433866 1_655
Er32 In2 3.440121 1_655
Er33 Rh16 2.927283 1_556
Er33 Rh8 2.929014 1_555
Er33 Rh1 2.937659 1_556
Er33 Rh13 3.042535 1_556
Er33 Rh4 3.433866 1_555
Er33 In5 3.440121 1_455
Er34 Rh15 2.927283 1_456
Er34 Rh8 2.929014 1_555
Er34 Rh1 2.937659 1_556
Er34 Rh12 3.042535 1_566
Er34 Rh6 3.433866 1_455
Er34 In5 3.440121 1_455
Er35 Rh17 2.927283 1_555
Er35 Rh9 2.929014 1_555
Er35 Rh0 2.937659 1_554
Er35 Rh13 3.042535 1_555
Er35 Rh7 3.433866 1_555
Er35 In2 3.440121 1_655
Er36 Rh16 2.927283 1_555
Er36 Rh10 2.929014 1_555
Er36 Rh6 2.937659 1_555
Er36 Rh13 3.042535 1_555
Er36 Rh1 3.433866 1_555
Er36 In4 3.440121 1_555
Er37 Rh17 2.927283 1_556
Er37 Rh11 2.929014 1_555
Er37 Rh3 2.937659 1_555
Er37 Rh13 3.042535 1_556
Er37 Rh0 3.433866 1_555
Er37 In7 3.440121 1_555
Er38 Rh16 2.927283 1_556
Er38 Rh11 2.929014 1_555
Er38 Rh4 2.937659 1_555
Er38 Rh13 3.042535 1_556
Er38 Rh5 3.433866 1_555
Er38 In6 3.440121 1_545
Er39 Rh17 2.927283 1_555
Er39 Rh10 2.929014 1_555
Er39 Rh7 2.937659 1_555
Er39 Rh13 3.042535 1_555
Er39 Rh2 3.433866 1_555
Er39 In3 3.440121 1_565
Er40 In5 3.035341 1_555
Er40 In7 3.035341 1_555
Er40 In1 3.035341 1_555
Er40 In3 3.035341 1_555
Er41 In0 3.035341 1_555
Er41 In4 3.035341 1_555
Er41 In6 3.035341 1_555
Er41 In2 3.035341 1_555
In0 Rh2 3.249097 1_556
In1 Rh5 3.249097 1_554
In2 Rh0 3.249097 1_454
In3 Rh7 3.249097 1_545
In4 Rh6 3.249097 1_555
In5 Rh1 3.249097 1_656
In6 Rh4 3.249097 1_565
In7 Rh3 3.249097 1_555
