# generated using pymatgen
data_Cd2Cu(PO4)2
_symmetry_space_group_name_H-M   'P 1'
_cell_length_a   4.78145622
_cell_length_b   5.62142419
_cell_length_c   6.75447252
_cell_angle_alpha   105.57312031
_cell_angle_beta   86.46558860
_cell_angle_gamma   109.90541799
_symmetry_Int_Tables_number   1
_chemical_formula_structural   Cd2Cu(PO4)2
_chemical_formula_sum   'Cd2 Cu1 P2 O8'
_cell_volume   164.34859170
_cell_formula_units_Z   1
loop_
 _symmetry_equiv_pos_site_id
 _symmetry_equiv_pos_as_xyz
  1  'x, y, z'
loop_
 _atom_site_type_symbol
 _atom_site_label
 _atom_site_symmetry_multiplicity
 _atom_site_fract_x
 _atom_site_fract_y
 _atom_site_fract_z
 _atom_site_occupancy
  Cd  Cd0  1  0.70352120  0.28117220  0.69053090  1
  Cd  Cd1  1  0.29647880  0.71882780  0.30946910  1
  Cu  Cu0  1  0.00000000  0.00000000  -0.00000000  1
  P  P0  1  0.37273765  0.68252245  0.78729619  1
  P  P1  1  0.62726235  0.31747755  0.21270381  1
  O  O0  1  0.37988357  0.86555679  0.65245127  1
  O  O1  1  0.62011643  0.13444321  0.34754873  1
  O  O2  1  0.22921346  0.77556595  0.99226194  1
  O  O3  1  0.77078654  0.22443405  0.00773806  1
  O  O4  1  0.30929371  0.30502079  0.16142448  1
  O  O5  1  0.20571521  0.39708741  0.67720459  1
  O  O6  1  0.79428479  0.60291259  0.32279541  1
  O  O7  1  0.69070629  0.69497921  0.83857552  1
loop_
_geom_bond_atom_site_label_1
_geom_bond_atom_site_label_2
_geom_bond_distance
_geom_bond_site_symmetry_2
Cd0 O1 2.251717 1_555
Cd0 O5 2.266707 1_655
Cd0 O0 2.276811 1_545
Cd0 O7 2.292456 1_555
Cd0 O3 2.305972 1_556
Cd0 O5 2.685565 1_555
Cd1 O0 2.251717 1_555
Cd1 O6 2.266707 1_455
Cd1 O1 2.276811 1_565
Cd1 O4 2.292456 1_555
Cd1 O2 2.305972 1_554
Cd1 O6 2.685565 1_555
Cu0 O3 1.922161 1_455
Cu0 O2 1.922161 1_544
Cu0 O4 1.945309 1_555
Cu0 O7 1.945309 1_444
O0 P0 1.537793 1_555
O1 P1 1.537793 1_555
O2 P0 1.549079 1_555
O3 P1 1.549079 1_555
O4 P1 1.554270 1_555
O5 P0 1.524903 1_555
O6 P1 1.524903 1_555
O7 P0 1.554270 1_555
