# generated using pymatgen
data_Li7Fe3Sb(PO4)6
_symmetry_space_group_name_H-M   'P 1'
_cell_length_a   8.94527533
_cell_length_b   8.94527533
_cell_length_c   8.94527565
_cell_angle_alpha   58.37209221
_cell_angle_beta   58.37209221
_cell_angle_gamma   58.37209007
_symmetry_Int_Tables_number   1
_chemical_formula_structural   Li7Fe3Sb(PO4)6
_chemical_formula_sum   'Li7 Fe3 Sb1 P6 O24'
_cell_volume   487.27292370
_cell_formula_units_Z   1
loop_
 _symmetry_equiv_pos_site_id
 _symmetry_equiv_pos_as_xyz
  1  'x, y, z'
loop_
 _atom_site_type_symbol
 _atom_site_label
 _atom_site_symmetry_multiplicity
 _atom_site_fract_x
 _atom_site_fract_y
 _atom_site_fract_z
 _atom_site_occupancy
  Li  Li0  1  0.93027300  0.63577400  0.29238700  1
  Li  Li1  1  0.63577400  0.29238700  0.93027300  1
  Li  Li2  1  0.29238700  0.93027300  0.63577400  1
  Li  Li3  1  0.24885000  0.40301300  0.69811200  1
  Li  Li4  1  0.69811200  0.24885000  0.40301300  1
  Li  Li5  1  0.40301300  0.69811200  0.24885000  1
  Li  Li6  1  0.99598400  0.99598400  0.99598400  1
  Fe  Fe0  1  0.65716400  0.65716400  0.65716400  1
  Fe  Fe1  1  0.85912100  0.85912100  0.85912100  1
  Fe  Fe2  1  0.34358300  0.34358300  0.34358300  1
  Sb  Sb0  1  0.15904300  0.15904300  0.15904300  1
  P  P0  1  0.24586600  0.57162700  0.93974200  1
  P  P1  1  0.04103600  0.76138400  0.46382700  1
  P  P2  1  0.57162700  0.93974200  0.24586600  1
  P  P3  1  0.46382700  0.04103600  0.76138400  1
  P  P4  1  0.93974200  0.24586600  0.57162700  1
  P  P5  1  0.76138400  0.46382700  0.04103600  1
  O  O0  1  0.19652500  0.52386900  0.15039000  1
  O  O1  1  0.12899300  0.78400600  0.86280800  1
  O  O2  1  0.45783400  0.53745000  0.82848500  1
  O  O3  1  0.15039000  0.19652500  0.52386900  1
  O  O4  1  0.00886400  0.80952400  0.62174600  1
  O  O5  1  0.11394400  0.90137200  0.26353800  1
  O  O6  1  0.52386900  0.15039000  0.19652500  1
  O  O7  1  0.19992200  0.44754100  0.90957800  1
  O  O8  1  0.20262600  0.56970600  0.46392200  1
  O  O9  1  0.78400600  0.86280800  0.12899300  1
  O  O10  1  0.53745000  0.82848500  0.45783400  1
  O  O11  1  0.44754100  0.90957800  0.19992200  1
  O  O12  1  0.62174600  0.00886400  0.80952400  1
  O  O13  1  0.46392200  0.20262600  0.56970600  1
  O  O14  1  0.26353800  0.11394400  0.90137200  1
  O  O15  1  0.82848500  0.45783400  0.53745000  1
  O  O16  1  0.80952400  0.62174600  0.00886400  1
  O  O17  1  0.47350700  0.86182500  0.76550600  1
  O  O18  1  0.86280800  0.12899300  0.78400600  1
  O  O19  1  0.90957800  0.19992200  0.44754100  1
  O  O20  1  0.86182500  0.76550600  0.47350700  1
  O  O21  1  0.56970600  0.46392200  0.20262600  1
  O  O22  1  0.76550600  0.47350700  0.86182500  1
  O  O23  1  0.90137200  0.26353800  0.11394400  1
loop_
_geom_bond_atom_site_label_1
_geom_bond_atom_site_label_2
_geom_bond_distance
_geom_bond_site_symmetry_2
Li0 O15 1.983735 1_555
Li0 O0 1.986992 1_655
Li0 O9 2.019475 1_555
Li0 O20 2.129054 1_555
Li1 O2 1.983735 1_555
Li1 O6 1.986992 1_556
Li1 O18 2.019475 1_555
Li1 O22 2.129054 1_555
Li2 O10 1.983735 1_555
Li2 O3 1.986992 1_565
Li2 O1 2.019475 1_555
Li2 O17 2.129054 1_555
Li3 O7 1.915077 1_555
Li3 O8 1.941299 1_555
Li3 O13 2.111549 1_555
Li3 O14 2.229974 1_555
Li4 O19 1.915077 1_555
Li4 O13 1.941299 1_555
Li4 O21 2.111549 1_555
Li4 O23 2.229974 1_555
Li5 O11 1.915077 1_555
Li5 O21 1.941299 1_555
Li5 O8 2.111549 1_555
Li5 O5 2.229974 1_555
Li6 O1 2.224138 1_655
Li6 O9 2.224138 1_556
Li6 O18 2.224138 1_565
Fe0 O17 2.006594 1_555
Fe0 O22 2.006594 1_555
Fe0 O20 2.006594 1_555
Fe0 O15 2.022414 1_555
Fe0 O10 2.022414 1_555
Fe0 O2 2.022414 1_555
Fe1 O12 1.970159 1_565
Fe1 O16 1.970159 1_556
Fe1 O4 1.970159 1_655
Fe1 O1 2.153920 1_655
Fe1 O18 2.153920 1_565
Fe1 O9 2.153921 1_556
Fe2 O6 2.134036 1_555
Fe2 O0 2.134036 1_555
Fe2 O3 2.134036 1_555
Fe2 O8 2.241712 1_555
Fe2 O21 2.241712 1_555
Fe2 O13 2.241712 1_555
O0 P0 1.552140 1_554
O1 P0 1.573556 1_555
O2 P0 1.552794 1_555
O3 P4 1.552140 1_455
O4 P1 1.531479 1_555
O5 P1 1.575247 1_555
O5 Sb0 2.160860 1_565
O6 P2 1.552140 1_545
O7 P0 1.543581 1_555
O7 Sb0 2.422272 1_556
O8 P1 1.558738 1_555
O9 P2 1.573556 1_555
O10 P2 1.552794 1_555
O11 P2 1.543581 1_555
O11 Sb0 2.422272 1_565
O12 P3 1.531479 1_555
O13 P3 1.558739 1_555
O14 P3 1.575247 1_555
O14 Sb0 2.160860 1_556
O15 P4 1.552794 1_555
O16 P5 1.531479 1_555
O17 P3 1.540950 1_565
O18 P4 1.573556 1_555
O19 P4 1.543581 1_555
O19 Sb0 2.422272 1_655
O20 P1 1.540950 1_655
O21 P5 1.558739 1_555
O22 P5 1.540951 1_556
O23 P5 1.575247 1_555
O23 Sb0 2.160860 1_655
