# generated using pymatgen
data_Er3Ga5O12
_symmetry_space_group_name_H-M   'P 1'
_cell_length_a   10.58208774
_cell_length_b   10.58208704
_cell_length_c   10.58208773
_cell_angle_alpha   109.47112718
_cell_angle_beta   109.47113131
_cell_angle_gamma   109.47112828
_symmetry_Int_Tables_number   1
_chemical_formula_structural   Er3Ga5O12
_chemical_formula_sum   'Er12 Ga20 O48'
_cell_volume   912.20747908
_cell_formula_units_Z   4
loop_
 _symmetry_equiv_pos_site_id
 _symmetry_equiv_pos_as_xyz
  1  'x, y, z'
loop_
 _atom_site_type_symbol
 _atom_site_label
 _atom_site_symmetry_multiplicity
 _atom_site_fract_x
 _atom_site_fract_y
 _atom_site_fract_z
 _atom_site_occupancy
  Er  Er0  1  0.87499980  0.62500034  0.25000007  1
  Er  Er1  1  0.62500011  0.25000007  0.87499972  1
  Er  Er2  1  0.87500020  0.74999997  0.62499992  1
  Er  Er3  1  0.74999996  0.62499996  0.87500003  1
  Er  Er4  1  0.24999989  0.87499979  0.62500039  1
  Er  Er5  1  0.62499999  0.87500021  0.75000019  1
  Er  Er6  1  0.12500012  0.37499976  0.74999990  1
  Er  Er7  1  0.37499965  0.74999986  0.12500025  1
  Er  Er8  1  0.12499973  0.25000007  0.37500013  1
  Er  Er9  1  0.25000005  0.37500026  0.12500007  1
  Er  Er10  1  0.75000012  0.12500028  0.37499979  1
  Er  Er11  1  0.37500020  0.12499995  0.25000017  1
  Ga  Ga0  1  0.12499875  0.87499906  0.24999914  1
  Ga  Ga1  1  0.87500128  0.12500107  0.75000078  1
  Ga  Ga2  1  0.25000076  0.62500120  0.37500147  1
  Ga  Ga3  1  0.37500105  0.25000066  0.62500089  1
  Ga  Ga4  1  0.75000087  0.87500143  0.12500124  1
  Ga  Ga5  1  0.12500112  0.75000078  0.87500121  1
  Ga  Ga6  1  0.37499881  0.62499860  0.74999913  1
  Ga  Ga7  1  0.62499870  0.74999910  0.37499898  1
  Ga  Ga8  1  0.87499915  0.24999926  0.12499876  1
  Ga  Ga9  1  0.24999915  0.12499894  0.87499910  1
  Ga  Ga10  1  0.74999917  0.37499913  0.62499885  1
  Ga  Ga11  1  0.62500118  0.37500138  0.25000085  1
  Ga  Ga12  1  0.50000001  0.50000001  0.50000005  1
  Ga  Ga13  1  0.50000000  -0.00000002  0.49999998  1
  Ga  Ga14  1  -0.00000008  0.49999993  0.49999998  1
  Ga  Ga15  1  0.50000005  0.50000002  -0.00000009  1
  Ga  Ga16  1  -0.00000004  -0.00000001  0.49999998  1
  Ga  Ga17  1  0.00000007  0.50000009  0.00000006  1
  Ga  Ga18  1  0.49999998  -0.00000002  -0.00000001  1
  Ga  Ga19  1  0.00000000  -0.00000010  -0.00000002  1
  O  O0  1  0.46996885  0.37642507  0.29290100  1
  O  O1  1  0.32293192  0.90645566  0.03003077  1
  O  O2  1  0.59354375  0.91647652  0.12357533  1
  O  O3  1  0.58352363  0.17706771  0.20709964  1
  O  O4  1  0.12357492  0.03003120  0.20709901  1
  O  O5  1  0.17706758  0.20709973  0.58352354  1
  O  O6  1  0.17706815  0.46996948  0.59354448  1
  O  O7  1  0.20709974  0.58352337  0.17706754  1
  O  O8  1  0.37642464  0.58352348  0.90645604  1
  O  O9  1  0.91647673  0.29290014  0.32293259  1
  O  O10  1  0.29290028  0.32293247  0.91647650  1
  O  O11  1  0.20709895  0.12357496  0.03003123  1
  O  O12  1  0.46996942  0.59354442  0.17706827  1
  O  O13  1  0.90645623  0.37642450  0.58352355  1
  O  O14  1  0.03003122  0.20709906  0.12357484  1
  O  O15  1  0.59354419  0.17706808  0.46996913  1
  O  O16  1  0.58352327  0.90645615  0.37642432  1
  O  O17  1  0.03003077  0.32293185  0.90645558  1
  O  O18  1  0.91647654  0.12357539  0.59354388  1
  O  O19  1  0.62357537  0.41647640  0.09354387  1
  O  O20  1  0.12357547  0.59354382  0.91647647  1
  O  O21  1  0.29290084  0.46996851  0.37642483  1
  O  O22  1  0.90645571  0.03003073  0.32293185  1
  O  O23  1  0.32293225  0.91647641  0.29290041  1
  O  O24  1  0.53003121  0.62357489  0.70709902  1
  O  O25  1  0.67706802  0.09354419  0.96996928  1
  O  O26  1  0.40645606  0.08352329  0.87642435  1
  O  O27  1  0.41647635  0.82293227  0.79290037  1
  O  O28  1  0.87642500  0.96996868  0.79290087  1
  O  O29  1  0.82293250  0.79290021  0.41647646  1
  O  O30  1  0.82293184  0.53003065  0.40645561  1
  O  O31  1  0.79290036  0.41647652  0.82293245  1
  O  O32  1  0.67706768  0.08352362  0.70709959  1
  O  O33  1  0.09354446  0.96996902  0.67706804  1
  O  O34  1  0.70709915  0.53003135  0.62357497  1
  O  O35  1  0.62357509  0.70709905  0.53003142  1
  O  O36  1  0.87642458  0.40645626  0.08352354  1
  O  O37  1  0.08352354  0.87642469  0.40645610  1
  O  O38  1  0.96996947  0.67706818  0.09354441  1
  O  O39  1  0.41647643  0.09354386  0.62357526  1
  O  O40  1  0.40645568  0.82293207  0.53003086  1
  O  O41  1  0.96996830  0.79290077  0.87642469  1
  O  O42  1  0.09354375  0.62357550  0.41647657  1
  O  O43  1  0.53003096  0.40645571  0.82293199  1
  O  O44  1  0.79290090  0.87642499  0.96996863  1
  O  O45  1  0.70709991  0.67706759  0.08352360  1
  O  O46  1  0.08352360  0.70709969  0.67706769  1
  O  O47  1  0.37642493  0.29290085  0.46996864  1
loop_
_geom_bond_atom_site_label_1
_geom_bond_atom_site_label_2
_geom_bond_distance
_geom_bond_site_symmetry_2
Er0 O30 2.324415 1_555
Er0 O38 2.324415 1_555
Er0 O37 2.324420 1_655
Er0 O19 2.324422 1_555
Er0 O29 2.403515 1_555
Er0 O45 2.403515 1_555
Er0 O42 2.403527 1_655
Er0 O36 2.403528 1_555
Er1 O43 2.324411 1_555
Er1 O25 2.324417 1_555
Er1 O39 2.324421 1_555
Er1 O36 2.324422 1_556
Er1 O31 2.403517 1_555
Er1 O32 2.403519 1_555
Er1 O19 2.403527 1_556
Er1 O26 2.403528 1_555
Er2 O46 2.324406 1_655
Er2 O29 2.324406 1_555
Er2 O41 2.324418 1_555
Er2 O35 2.324421 1_555
Er2 O34 2.403524 1_555
Er2 O28 2.403525 1_555
Er2 O33 2.403530 1_655
Er2 O30 2.403531 1_555
Er3 O45 2.324406 1_556
Er3 O31 2.324407 1_555
Er3 O44 2.324420 1_555
Er3 O34 2.324421 1_555
Er3 O41 2.403523 1_555
Er3 O24 2.403524 1_555
Er3 O43 2.403530 1_555
Er3 O38 2.403533 1_556
Er4 O33 2.324410 1_555
Er4 O40 2.324415 1_555
Er4 O26 2.324417 1_565
Er4 O42 2.324420 1_555
Er4 O46 2.403516 1_555
Er4 O27 2.403517 1_555
Er4 O37 2.403529 1_555
Er4 O39 2.403530 1_565
Er5 O27 2.324408 1_555
Er5 O32 2.324408 1_565
Er5 O28 2.324421 1_555
Er5 O24 2.324422 1_555
Er5 O44 2.403523 1_555
Er5 O35 2.403526 1_555
Er5 O25 2.403529 1_565
Er5 O40 2.403532 1_555
Er6 O17 2.324414 1_555
Er6 O6 2.324414 1_555
Er6 O18 2.324420 1_455
Er6 O8 2.324422 1_555
Er6 O5 2.403517 1_555
Er6 O10 2.403518 1_555
Er6 O13 2.403525 1_455
Er6 O20 2.403527 1_555
Er7 O12 2.324414 1_555
Er7 O1 2.324415 1_555
Er7 O16 2.324418 1_555
Er7 O20 2.324420 1_554
Er7 O7 2.403516 1_555
Er7 O23 2.403518 1_555
Er7 O2 2.403530 1_555
Er7 O8 2.403530 1_554
Er8 O9 2.324401 1_455
Er8 O5 2.324406 1_555
Er8 O47 2.324422 1_555
Er8 O14 2.324422 1_555
Er8 O21 2.403524 1_555
Er8 O4 2.403527 1_555
Er8 O22 2.403530 1_455
Er8 O6 2.403532 1_555
Er9 O7 2.324403 1_555
Er9 O10 2.324407 1_554
Er9 O21 2.324418 1_555
Er9 O11 2.324422 1_555
Er9 O14 2.403525 1_555
Er9 O0 2.403526 1_555
Er9 O12 2.403531 1_555
Er9 O17 2.403532 1_554
Er10 O22 2.324414 1_555
Er10 O15 2.324416 1_555
Er10 O13 2.324420 1_555
Er10 O2 2.324421 1_545
Er10 O9 2.403515 1_555
Er10 O3 2.403518 1_555
Er10 O16 2.403528 1_545
Er10 O18 2.403528 1_555
Er11 O23 2.324407 1_545
Er11 O3 2.324408 1_555
Er11 O0 2.324421 1_555
Er11 O4 2.324422 1_555
Er11 O47 2.403524 1_555
Er11 O11 2.403527 1_555
Er11 O15 2.403528 1_555
Er11 O1 2.403532 1_545
Ga0 O38 1.845580 1_455
Ga0 O4 1.845589 1_565
Ga0 O37 1.845589 1_555
Ga0 O23 1.845599 1_555
Ga1 O17 1.845580 1_655
Ga1 O18 1.845589 1_555
Ga1 O28 1.845591 1_545
Ga1 O32 1.845600 1_555
Ga2 O40 1.845581 1_555
Ga2 O42 1.845589 1_555
Ga2 O21 1.845593 1_555
Ga2 O7 1.845603 1_555
Ga3 O43 1.845584 1_555
Ga3 O39 1.845588 1_555
Ga3 O47 1.845591 1_555
Ga3 O5 1.845599 1_555
Ga4 O22 1.845579 1_565
Ga4 O2 1.845589 1_555
Ga4 O44 1.845593 1_554
Ga4 O45 1.845602 1_555
Ga5 O1 1.845581 1_556
Ga5 O20 1.845589 1_555
Ga5 O41 1.845594 1_455
Ga5 O46 1.845599 1_555
Ga6 O6 1.845578 1_555
Ga6 O8 1.845587 1_555
Ga6 O24 1.845591 1_555
Ga6 O27 1.845600 1_555
Ga7 O12 1.845579 1_555
Ga7 O35 1.845591 1_555
Ga7 O16 1.845592 1_555
Ga7 O29 1.845602 1_555
Ga8 O25 1.845583 1_554
Ga8 O14 1.845589 1_655
Ga8 O36 1.845590 1_555
Ga8 O9 1.845603 1_555
Ga9 O33 1.845583 1_545
Ga9 O11 1.845590 1_556
Ga9 O26 1.845592 1_555
Ga9 O10 1.845599 1_555
Ga10 O15 1.845583 1_555
Ga10 O34 1.845589 1_555
Ga10 O13 1.845591 1_555
Ga10 O31 1.845600 1_555
Ga11 O30 1.845579 1_555
Ga11 O19 1.845588 1_555
Ga11 O0 1.845591 1_555
Ga11 O3 1.845600 1_555
Ga12 O24 1.990470 1_555
Ga12 O35 1.990470 1_555
Ga12 O34 1.990471 1_555
Ga12 O0 1.990471 1_555
Ga12 O47 1.990471 1_555
Ga12 O21 1.990471 1_555
Ga13 O16 1.990465 1_545
Ga13 O39 1.990465 1_555
Ga13 O40 1.990468 1_545
Ga13 O15 1.990469 1_555
Ga13 O32 1.990478 1_555
Ga13 O23 1.990478 1_545
Ga14 O13 1.990466 1_455
Ga14 O42 1.990466 1_555
Ga14 O6 1.990469 1_555
Ga14 O30 1.990469 1_455
Ga14 O9 1.990479 1_455
Ga14 O46 1.990479 1_555
Ga15 O8 1.990465 1_554
Ga15 O19 1.990466 1_555
Ga15 O43 1.990469 1_554
Ga15 O12 1.990471 1_555
Ga15 O45 1.990479 1_555
Ga15 O10 1.990479 1_554
Ga16 O18 1.990465 1_455
Ga16 O37 1.990466 1_545
Ga16 O22 1.990469 1_455
Ga16 O33 1.990471 1_545
Ga16 O29 1.990478 1_445
Ga16 O5 1.990479 1_555
Ga17 O20 1.990466 1_554
Ga17 O36 1.990466 1_455
Ga17 O38 1.990468 1_455
Ga17 O17 1.990470 1_554
Ga17 O7 1.990478 1_555
Ga17 O31 1.990478 1_454
Ga18 O2 1.990464 1_545
Ga18 O26 1.990466 1_554
Ga18 O25 1.990468 1_554
Ga18 O1 1.990469 1_545
Ga18 O27 1.990478 1_544
Ga18 O3 1.990478 1_555
Ga19 O11 1.990470 1_555
Ga19 O41 1.990470 1_444
Ga19 O4 1.990470 1_555
Ga19 O44 1.990470 1_444
Ga19 O28 1.990471 1_444
Ga19 O14 1.990471 1_555
