# generated using pymatgen
data_Fe3S4
_symmetry_space_group_name_H-M   'P 1'
_cell_length_a   12.71955248
_cell_length_b   12.71955248
_cell_length_c   12.71955268
_cell_angle_alpha   13.91263388
_cell_angle_beta   13.91263388
_cell_angle_gamma   13.91263580
_symmetry_Int_Tables_number   1
_chemical_formula_structural   Fe3S4
_chemical_formula_sum   'Fe3 S4'
_cell_volume   103.53702563
_cell_formula_units_Z   1
loop_
 _symmetry_equiv_pos_site_id
 _symmetry_equiv_pos_as_xyz
  1  'x, y, z'
loop_
 _atom_site_type_symbol
 _atom_site_label
 _atom_site_symmetry_multiplicity
 _atom_site_fract_x
 _atom_site_fract_y
 _atom_site_fract_z
 _atom_site_occupancy
  Fe  Fe0  1  0.54042900  0.54042900  0.54042900  1
  Fe  Fe1  1  0.29765000  0.29765000  0.29765000  1
  Fe  Fe2  1  0.11620300  0.11620300  0.11620300  1
  S  S0  1  0.99779000  0.99779000  0.99779000  1
  S  S1  1  0.91516300  0.91516300  0.91516300  1
  S  S2  1  0.83240900  0.83240900  0.83240900  1
  S  S3  1  0.75035700  0.75035700  0.75035700  1
loop_
_geom_bond_atom_site_label_1
_geom_bond_atom_site_label_2
_geom_bond_distance
_geom_bond_site_symmetry_2
Fe0 S2 2.367599 1_554
Fe0 S2 2.367599 1_545
Fe0 S2 2.367599 1_455
Fe0 S1 2.368779 1_554
Fe0 S1 2.368780 1_545
Fe0 S1 2.368780 1_455
Fe1 S0 2.182604 1_445
Fe1 S0 2.182604 1_454
Fe1 S0 2.182604 1_544
Fe1 S1 2.571651 1_445
Fe1 S1 2.571652 1_544
Fe1 S1 2.571652 1_454
Fe2 S3 2.161773 1_445
Fe2 S3 2.161773 1_454
Fe2 S3 2.161773 1_544
Fe2 S2 2.582195 1_544
Fe2 S2 2.582195 1_454
Fe2 S2 2.582195 1_445
