# generated using pymatgen
data_Ba4Mg5Sn7
_symmetry_space_group_name_H-M   'P 1'
_cell_length_a   7.09129200
_cell_length_b   7.09129200
_cell_length_c   98.85950800
_cell_angle_alpha   90.00000000
_cell_angle_beta   90.00000000
_cell_angle_gamma   90.00000000
_symmetry_Int_Tables_number   1
_chemical_formula_structural   Ba4Mg5Sn7
_chemical_formula_sum   'Ba32 Mg40 Sn56'
_cell_volume   4971.29096067
_cell_formula_units_Z   8
loop_
 _symmetry_equiv_pos_site_id
 _symmetry_equiv_pos_as_xyz
  1  'x, y, z'
loop_
 _atom_site_type_symbol
 _atom_site_label
 _atom_site_symmetry_multiplicity
 _atom_site_fract_x
 _atom_site_fract_y
 _atom_site_fract_z
 _atom_site_occupancy
  Ba  Ba0_0  1  0.25000000  0.25000000  0.18640950  1
  Ba  Ba0_1  1  0.25000000  0.25000000  0.68640950  1
  Ba  Ba0_2  1  0.25000000  0.75000000  0.18640950  1
  Ba  Ba0_3  1  0.25000000  0.75000000  0.68640950  1
  Ba  Ba0_4  1  0.75000000  0.25000000  0.18640950  1
  Ba  Ba0_5  1  0.75000000  0.25000000  0.68640950  1
  Ba  Ba0_6  1  0.75000000  0.75000000  0.18640950  1
  Ba  Ba0_7  1  0.75000000  0.75000000  0.68640950  1
  Ba  Ba1_0  1  0.25000000  0.25000000  0.31359050  1
  Ba  Ba1_1  1  0.25000000  0.25000000  0.81359050  1
  Ba  Ba1_2  1  0.25000000  0.75000000  0.31359050  1
  Ba  Ba1_3  1  0.25000000  0.75000000  0.81359050  1
  Ba  Ba1_4  1  0.75000000  0.25000000  0.31359050  1
  Ba  Ba1_5  1  0.75000000  0.25000000  0.81359050  1
  Ba  Ba1_6  1  0.75000000  0.75000000  0.31359050  1
  Ba  Ba1_7  1  0.75000000  0.75000000  0.81359050  1
  Ba  Ba2_0  1  0.25000000  0.25000000  0.43680400  1
  Ba  Ba2_1  1  0.25000000  0.25000000  0.93680400  1
  Ba  Ba2_2  1  0.25000000  0.75000000  0.43680400  1
  Ba  Ba2_3  1  0.25000000  0.75000000  0.93680400  1
  Ba  Ba2_4  1  0.75000000  0.25000000  0.43680400  1
  Ba  Ba2_5  1  0.75000000  0.25000000  0.93680400  1
  Ba  Ba2_6  1  0.75000000  0.75000000  0.43680400  1
  Ba  Ba2_7  1  0.75000000  0.75000000  0.93680400  1
  Ba  Ba3_0  1  0.25000000  0.25000000  0.06319600  1
  Ba  Ba3_1  1  0.25000000  0.25000000  0.56319600  1
  Ba  Ba3_2  1  0.25000000  0.75000000  0.06319600  1
  Ba  Ba3_3  1  0.25000000  0.75000000  0.56319600  1
  Ba  Ba3_4  1  0.75000000  0.25000000  0.06319600  1
  Ba  Ba3_5  1  0.75000000  0.25000000  0.56319600  1
  Ba  Ba3_6  1  0.75000000  0.75000000  0.06319600  1
  Ba  Ba3_7  1  0.75000000  0.75000000  0.56319600  1
  Mg  Mg0_0  1  0.25000000  0.25000000  0.12544050  1
  Mg  Mg0_1  1  0.25000000  0.25000000  0.62544050  1
  Mg  Mg0_2  1  0.25000000  0.75000000  0.12544050  1
  Mg  Mg0_3  1  0.25000000  0.75000000  0.62544050  1
  Mg  Mg0_4  1  0.75000000  0.25000000  0.12544050  1
  Mg  Mg0_5  1  0.75000000  0.25000000  0.62544050  1
  Mg  Mg0_6  1  0.75000000  0.75000000  0.12544050  1
  Mg  Mg0_7  1  0.75000000  0.75000000  0.62544050  1
  Mg  Mg1_0  1  0.25000000  0.25000000  0.37455950  1
  Mg  Mg1_1  1  0.25000000  0.25000000  0.87455950  1
  Mg  Mg1_2  1  0.25000000  0.75000000  0.37455950  1
  Mg  Mg1_3  1  0.25000000  0.75000000  0.87455950  1
  Mg  Mg1_4  1  0.75000000  0.25000000  0.37455950  1
  Mg  Mg1_5  1  0.75000000  0.25000000  0.87455950  1
  Mg  Mg1_6  1  0.75000000  0.75000000  0.37455950  1
  Mg  Mg1_7  1  0.75000000  0.75000000  0.87455950  1
  Mg  Mg2_0  1  0.25000000  0.25000000  0.00000000  1
  Mg  Mg2_1  1  0.25000000  0.25000000  0.50000000  1
  Mg  Mg2_2  1  0.25000000  0.75000000  0.00000000  1
  Mg  Mg2_3  1  0.25000000  0.75000000  0.50000000  1
  Mg  Mg2_4  1  0.75000000  0.25000000  0.00000000  1
  Mg  Mg2_5  1  0.75000000  0.25000000  0.50000000  1
  Mg  Mg2_6  1  0.75000000  0.75000000  0.00000000  1
  Mg  Mg2_7  1  0.75000000  0.75000000  0.50000000  1
  Mg  Mg3_0  1  0.25000000  0.25000000  0.27831100  1
  Mg  Mg3_1  1  0.25000000  0.25000000  0.77831100  1
  Mg  Mg3_2  1  0.25000000  0.75000000  0.27831100  1
  Mg  Mg3_3  1  0.25000000  0.75000000  0.77831100  1
  Mg  Mg3_4  1  0.75000000  0.25000000  0.27831100  1
  Mg  Mg3_5  1  0.75000000  0.25000000  0.77831100  1
  Mg  Mg3_6  1  0.75000000  0.75000000  0.27831100  1
  Mg  Mg3_7  1  0.75000000  0.75000000  0.77831100  1
  Mg  Mg4_0  1  0.25000000  0.25000000  0.22168900  1
  Mg  Mg4_1  1  0.25000000  0.25000000  0.72168900  1
  Mg  Mg4_2  1  0.25000000  0.75000000  0.22168900  1
  Mg  Mg4_3  1  0.25000000  0.75000000  0.72168900  1
  Mg  Mg4_4  1  0.75000000  0.25000000  0.22168900  1
  Mg  Mg4_5  1  0.75000000  0.25000000  0.72168900  1
  Mg  Mg4_6  1  0.75000000  0.75000000  0.22168900  1
  Mg  Mg4_7  1  0.75000000  0.75000000  0.72168900  1
  Sn  Sn0_0  1  0.25000000  0.25000000  0.02929350  1
  Sn  Sn0_1  1  0.25000000  0.25000000  0.52929350  1
  Sn  Sn0_2  1  0.25000000  0.75000000  0.02929350  1
  Sn  Sn0_3  1  0.25000000  0.75000000  0.52929350  1
  Sn  Sn0_4  1  0.75000000  0.25000000  0.02929350  1
  Sn  Sn0_5  1  0.75000000  0.25000000  0.52929350  1
  Sn  Sn0_6  1  0.75000000  0.75000000  0.02929350  1
  Sn  Sn0_7  1  0.75000000  0.75000000  0.52929350  1
  Sn  Sn1_0  1  0.25000000  0.25000000  0.47070650  1
  Sn  Sn1_1  1  0.25000000  0.25000000  0.97070650  1
  Sn  Sn1_2  1  0.25000000  0.75000000  0.47070650  1
  Sn  Sn1_3  1  0.25000000  0.75000000  0.97070650  1
  Sn  Sn1_4  1  0.75000000  0.25000000  0.47070650  1
  Sn  Sn1_5  1  0.75000000  0.25000000  0.97070650  1
  Sn  Sn1_6  1  0.75000000  0.75000000  0.47070650  1
  Sn  Sn1_7  1  0.75000000  0.75000000  0.97070650  1
  Sn  Sn2_0  1  0.25000000  0.25000000  0.34638550  1
  Sn  Sn2_1  1  0.25000000  0.25000000  0.84638550  1
  Sn  Sn2_2  1  0.25000000  0.75000000  0.34638550  1
  Sn  Sn2_3  1  0.25000000  0.75000000  0.84638550  1
  Sn  Sn2_4  1  0.75000000  0.25000000  0.34638550  1
  Sn  Sn2_5  1  0.75000000  0.25000000  0.84638550  1
  Sn  Sn2_6  1  0.75000000  0.75000000  0.34638550  1
  Sn  Sn2_7  1  0.75000000  0.75000000  0.84638550  1
  Sn  Sn3_0  1  0.25000000  0.25000000  0.15361450  1
  Sn  Sn3_1  1  0.25000000  0.25000000  0.65361450  1
  Sn  Sn3_2  1  0.25000000  0.75000000  0.15361450  1
  Sn  Sn3_3  1  0.25000000  0.75000000  0.65361450  1
  Sn  Sn3_4  1  0.75000000  0.25000000  0.15361450  1
  Sn  Sn3_5  1  0.75000000  0.25000000  0.65361450  1
  Sn  Sn3_6  1  0.75000000  0.75000000  0.15361450  1
  Sn  Sn3_7  1  0.75000000  0.75000000  0.65361450  1
  Sn  Sn4_0  1  0.25000000  0.25000000  0.09693000  1
  Sn  Sn4_1  1  0.25000000  0.25000000  0.59693000  1
  Sn  Sn4_2  1  0.25000000  0.75000000  0.09693000  1
  Sn  Sn4_3  1  0.25000000  0.75000000  0.59693000  1
  Sn  Sn4_4  1  0.75000000  0.25000000  0.09693000  1
  Sn  Sn4_5  1  0.75000000  0.25000000  0.59693000  1
  Sn  Sn4_6  1  0.75000000  0.75000000  0.09693000  1
  Sn  Sn4_7  1  0.75000000  0.75000000  0.59693000  1
  Sn  Sn5_0  1  0.25000000  0.25000000  0.40307000  1
  Sn  Sn5_1  1  0.25000000  0.25000000  0.90307000  1
  Sn  Sn5_2  1  0.25000000  0.75000000  0.40307000  1
  Sn  Sn5_3  1  0.25000000  0.75000000  0.90307000  1
  Sn  Sn5_4  1  0.75000000  0.25000000  0.40307000  1
  Sn  Sn5_5  1  0.75000000  0.25000000  0.90307000  1
  Sn  Sn5_6  1  0.75000000  0.75000000  0.40307000  1
  Sn  Sn5_7  1  0.75000000  0.75000000  0.90307000  1
  Sn  Sn6_0  1  0.25000000  0.25000000  0.25000000  1
  Sn  Sn6_1  1  0.25000000  0.25000000  0.75000000  1
  Sn  Sn6_2  1  0.25000000  0.75000000  0.25000000  1
  Sn  Sn6_3  1  0.25000000  0.75000000  0.75000000  1
  Sn  Sn6_4  1  0.75000000  0.25000000  0.25000000  1
  Sn  Sn6_5  1  0.75000000  0.25000000  0.75000000  1
  Sn  Sn6_6  1  0.75000000  0.75000000  0.25000000  1
  Sn  Sn6_7  1  0.75000000  0.75000000  0.75000000  1
loop_
_geom_bond_atom_site_label_1
_geom_bond_atom_site_label_2
_geom_bond_distance
_geom_bond_site_symmetry_2
Ba0_0 Sn3_0 3.242098 1_555
Ba0_0 Mg4_0 3.487714 1_555
Ba0_0 Ba0_4 3.545646 1_455
Ba0_0 Ba0_2 3.545646 1_545
Ba0_0 Ba0_2 3.545646 1_555
Ba0_0 Ba0_4 3.545646 1_555
Ba0_1 Sn3_1 3.242098 1_555
Ba0_1 Mg4_1 3.487714 1_555
Ba0_1 Ba0_3 3.545646 1_545
Ba0_1 Ba0_5 3.545646 1_455
Ba0_1 Ba0_3 3.545646 1_555
Ba0_1 Ba0_5 3.545646 1_555
Ba0_2 Sn3_2 3.242098 1_555
Ba0_2 Mg4_2 3.487714 1_555
Ba0_2 Ba0_6 3.545646 1_455
Ba0_2 Ba0_6 3.545646 1_555
Ba0_3 Sn3_3 3.242098 1_555
Ba0_3 Mg4_3 3.487714 1_555
Ba0_3 Ba0_7 3.545646 1_455
Ba0_3 Ba0_7 3.545646 1_555
Ba0_4 Sn3_4 3.242098 1_555
Ba0_4 Mg4_4 3.487714 1_555
Ba0_4 Ba0_6 3.545646 1_545
Ba0_4 Ba0_6 3.545646 1_555
Ba0_5 Sn3_5 3.242098 1_555
Ba0_5 Mg4_5 3.487714 1_555
Ba0_5 Ba0_7 3.545646 1_545
Ba0_5 Ba0_7 3.545646 1_555
Ba0_6 Sn3_6 3.242098 1_555
Ba0_6 Mg4_6 3.487714 1_555
Ba0_7 Sn3_7 3.242098 1_555
Ba0_7 Mg4_7 3.487714 1_555
Ba1_0 Sn2_0 3.242098 1_555
Ba1_0 Mg3_0 3.487714 1_555
Ba1_0 Ba1_2 3.545646 1_545
Ba1_0 Ba1_4 3.545646 1_455
Ba1_0 Ba1_4 3.545646 1_555
Ba1_0 Ba1_2 3.545646 1_555
Ba1_1 Sn2_1 3.242098 1_555
Ba1_1 Mg3_1 3.487714 1_555
Ba1_1 Ba1_5 3.545646 1_455
Ba1_1 Ba1_3 3.545646 1_545
Ba1_1 Ba1_5 3.545646 1_555
Ba1_1 Ba1_3 3.545646 1_555
Ba1_2 Sn2_2 3.242098 1_555
Ba1_2 Mg3_2 3.487714 1_555
Ba1_2 Ba1_6 3.545646 1_455
Ba1_2 Ba1_6 3.545646 1_555
Ba1_3 Sn2_3 3.242098 1_555
Ba1_3 Mg3_3 3.487714 1_555
Ba1_3 Ba1_7 3.545646 1_455
Ba1_3 Ba1_7 3.545646 1_555
Ba1_4 Sn2_4 3.242098 1_555
Ba1_4 Mg3_4 3.487714 1_555
Ba1_4 Ba1_6 3.545646 1_545
Ba1_4 Ba1_6 3.545646 1_555
Ba1_5 Sn2_5 3.242098 1_555
Ba1_5 Mg3_5 3.487714 1_555
Ba1_5 Ba1_7 3.545646 1_545
Ba1_5 Ba1_7 3.545646 1_555
Ba1_6 Sn2_6 3.242098 1_555
Ba1_6 Mg3_6 3.487714 1_555
Ba1_7 Sn2_7 3.242098 1_555
Ba1_7 Mg3_7 3.487714 1_555
Ba2_0 Sn5_0 3.334927 1_555
Ba2_0 Sn1_0 3.351584 1_555
Ba2_0 Ba2_4 3.545646 1_455
Ba2_0 Ba2_2 3.545646 1_545
Ba2_0 Ba2_2 3.545646 1_555
Ba2_0 Ba2_4 3.545646 1_555
Ba2_1 Sn5_1 3.334927 1_555
Ba2_1 Sn1_1 3.351584 1_555
Ba2_1 Ba2_5 3.545646 1_455
Ba2_1 Ba2_3 3.545646 1_545
Ba2_1 Ba2_5 3.545646 1_555
Ba2_1 Ba2_3 3.545646 1_555
Ba2_2 Sn5_2 3.334927 1_555
Ba2_2 Sn1_2 3.351584 1_555
Ba2_2 Ba2_6 3.545646 1_455
Ba2_2 Ba2_6 3.545646 1_555
Ba2_3 Sn5_3 3.334927 1_555
Ba2_3 Sn1_3 3.351584 1_555
Ba2_3 Ba2_7 3.545646 1_455
Ba2_3 Ba2_7 3.545646 1_555
Ba2_4 Sn5_4 3.334927 1_555
Ba2_4 Sn1_4 3.351584 1_555
Ba2_4 Ba2_6 3.545646 1_545
Ba2_4 Ba2_6 3.545646 1_555
Ba2_5 Sn5_5 3.334927 1_555
Ba2_5 Sn1_5 3.351584 1_555
Ba2_5 Ba2_7 3.545646 1_545
Ba2_5 Ba2_7 3.545646 1_555
Ba2_6 Sn5_6 3.334927 1_555
Ba2_6 Sn1_6 3.351584 1_555
Ba2_7 Sn5_7 3.334927 1_555
Ba2_7 Sn1_7 3.351584 1_555
Ba3_0 Sn4_0 3.334927 1_555
Ba3_0 Sn0_0 3.351584 1_555
Ba3_0 Ba3_4 3.545646 1_455
Ba3_0 Ba3_2 3.545646 1_545
Ba3_0 Ba3_4 3.545646 1_555
Ba3_0 Ba3_2 3.545646 1_555
Ba3_1 Sn4_1 3.334927 1_555
Ba3_1 Sn0_1 3.351584 1_555
Ba3_1 Ba3_5 3.545646 1_455
Ba3_1 Ba3_3 3.545646 1_545
Ba3_1 Ba3_5 3.545646 1_555
Ba3_1 Ba3_3 3.545646 1_555
Ba3_2 Sn4_2 3.334927 1_555
Ba3_2 Sn0_2 3.351584 1_555
Ba3_2 Ba3_6 3.545646 1_455
Ba3_2 Ba3_6 3.545646 1_555
Ba3_3 Sn4_3 3.334927 1_555
Ba3_3 Sn0_3 3.351584 1_555
Ba3_3 Ba3_7 3.545646 1_455
Ba3_3 Ba3_7 3.545646 1_555
Ba3_4 Sn4_4 3.334927 1_555
Ba3_4 Sn0_4 3.351584 1_555
Ba3_4 Ba3_6 3.545646 1_545
Ba3_4 Ba3_6 3.545646 1_555
Ba3_5 Sn4_5 3.334927 1_555
Ba3_5 Sn0_5 3.351584 1_555
Ba3_5 Ba3_7 3.545646 1_545
Ba3_5 Ba3_7 3.545646 1_555
Ba3_6 Sn4_6 3.334927 1_555
Ba3_6 Sn0_6 3.351584 1_555
Ba3_7 Sn4_7 3.334927 1_555
Ba3_7 Sn0_7 3.351584 1_555
Mg0_0 Sn3_0 2.785268 1_555
Mg0_0 Sn4_0 2.818534 1_555
Mg0_1 Sn3_1 2.785268 1_555
Mg0_1 Sn4_1 2.818534 1_555
Mg0_2 Sn3_2 2.785268 1_555
Mg0_2 Sn4_2 2.818534 1_555
Mg0_3 Sn3_3 2.785268 1_555
Mg0_3 Sn4_3 2.818534 1_555
Mg0_4 Sn3_4 2.785268 1_555
Mg0_4 Sn4_4 2.818534 1_555
Mg0_5 Sn3_5 2.785268 1_555
Mg0_5 Sn4_5 2.818534 1_555
Mg0_6 Sn3_6 2.785268 1_555
Mg0_6 Sn4_6 2.818534 1_555
Mg0_7 Sn3_7 2.785268 1_555
Mg0_7 Sn4_7 2.818534 1_555
Mg1_0 Sn2_0 2.785268 1_555
Mg1_0 Sn5_0 2.818534 1_555
Mg1_1 Sn2_1 2.785268 1_555
Mg1_1 Sn5_1 2.818534 1_555
Mg1_2 Sn2_2 2.785268 1_555
Mg1_2 Sn5_2 2.818534 1_555
Mg1_3 Sn2_3 2.785268 1_555
Mg1_3 Sn5_3 2.818534 1_555
Mg1_4 Sn2_4 2.785268 1_555
Mg1_4 Sn5_4 2.818534 1_555
Mg1_5 Sn2_5 2.785268 1_555
Mg1_5 Sn5_5 2.818534 1_555
Mg1_6 Sn2_6 2.785268 1_555
Mg1_6 Sn5_6 2.818534 1_555
Mg1_7 Sn2_7 2.785268 1_555
Mg1_7 Sn5_7 2.818534 1_555
Mg2_0 Sn0_0 2.895941 1_555
Mg2_0 Sn1_1 2.895941 1_554
Mg2_1 Sn0_1 2.895941 1_555
Mg2_1 Sn1_0 2.895941 1_555
Mg2_2 Sn0_2 2.895941 1_555
Mg2_2 Sn1_3 2.895941 1_554
Mg2_3 Sn0_3 2.895941 1_555
Mg2_3 Sn1_2 2.895941 1_555
Mg2_4 Sn0_4 2.895941 1_555
Mg2_4 Sn1_5 2.895941 1_554
Mg2_5 Sn0_5 2.895941 1_555
Mg2_5 Sn1_4 2.895941 1_555
Mg2_6 Sn0_6 2.895941 1_555
Mg2_6 Sn1_7 2.895941 1_554
Mg2_7 Sn0_7 2.895941 1_555
Mg2_7 Sn1_6 2.895941 1_555
Mg3_0 Sn6_0 2.798812 1_555
Mg3_0 Mg3_2 3.545646 1_545
Mg3_0 Mg3_4 3.545646 1_455
Mg3_0 Mg3_4 3.545646 1_555
Mg3_0 Mg3_2 3.545646 1_555
Mg3_1 Sn6_1 2.798812 1_555
Mg3_1 Mg3_5 3.545646 1_455
Mg3_1 Mg3_3 3.545646 1_545
Mg3_1 Mg3_5 3.545646 1_555
Mg3_1 Mg3_3 3.545646 1_555
Mg3_2 Sn6_2 2.798812 1_555
Mg3_2 Mg3_6 3.545646 1_455
Mg3_2 Mg3_6 3.545646 1_555
Mg3_3 Sn6_3 2.798812 1_555
Mg3_3 Mg3_7 3.545646 1_455
Mg3_3 Mg3_7 3.545646 1_555
Mg3_4 Sn6_4 2.798812 1_555
Mg3_4 Mg3_6 3.545646 1_545
Mg3_4 Mg3_6 3.545646 1_555
Mg3_5 Sn6_5 2.798812 1_555
Mg3_5 Mg3_7 3.545646 1_545
Mg3_5 Mg3_7 3.545646 1_555
Mg3_6 Sn6_6 2.798812 1_555
Mg3_7 Sn6_7 2.798812 1_555
Mg4_0 Sn6_0 2.798812 1_555
Mg4_0 Mg4_4 3.545646 1_455
Mg4_0 Mg4_2 3.545646 1_545
Mg4_0 Mg4_2 3.545646 1_555
Mg4_0 Mg4_4 3.545646 1_555
Mg4_1 Sn6_1 2.798812 1_555
Mg4_1 Mg4_5 3.545646 1_455
Mg4_1 Mg4_3 3.545646 1_545
Mg4_1 Mg4_3 3.545646 1_555
Mg4_1 Mg4_5 3.545646 1_555
Mg4_2 Sn6_2 2.798812 1_555
Mg4_2 Mg4_6 3.545646 1_455
Mg4_2 Mg4_6 3.545646 1_555
Mg4_3 Sn6_3 2.798812 1_555
Mg4_3 Mg4_7 3.545646 1_455
Mg4_3 Mg4_7 3.545646 1_555
Mg4_4 Sn6_4 2.798812 1_555
Mg4_4 Mg4_6 3.545646 1_545
Mg4_4 Mg4_6 3.545646 1_555
Mg4_5 Sn6_5 2.798812 1_555
Mg4_5 Mg4_7 3.545646 1_545
Mg4_5 Mg4_7 3.545646 1_555
Mg4_6 Sn6_6 2.798812 1_555
Mg4_7 Sn6_7 2.798812 1_555
