# generated using pymatgen
data_GdCrB4
_symmetry_space_group_name_H-M   'P 1'
_cell_length_a   5.96167935
_cell_length_b   11.52777590
_cell_length_c   3.46047606
_cell_angle_alpha   90.00000000
_cell_angle_beta   90.00000000
_cell_angle_gamma   90.00000000
_symmetry_Int_Tables_number   1
_chemical_formula_structural   GdCrB4
_chemical_formula_sum   'Gd4 Cr4 B16'
_cell_volume   237.82088341
_cell_formula_units_Z   4
loop_
 _symmetry_equiv_pos_site_id
 _symmetry_equiv_pos_as_xyz
  1  'x, y, z'
loop_
 _atom_site_type_symbol
 _atom_site_label
 _atom_site_symmetry_multiplicity
 _atom_site_fract_x
 _atom_site_fract_y
 _atom_site_fract_z
 _atom_site_occupancy
  Gd  Gd0  1  0.62474626  0.34904280  -0.00000000  1
  Gd  Gd1  1  0.37525374  0.65095720  0.00000000  1
  Gd  Gd2  1  0.12474626  0.15095720  -0.00000000  1
  Gd  Gd3  1  0.87525374  0.84904280  0.00000000  1
  Cr  Cr0  1  0.62349317  0.08079210  -0.00000000  1
  Cr  Cr1  1  0.37650683  0.91920790  0.00000000  1
  Cr  Cr2  1  0.12349317  0.41920790  -0.00000000  1
  Cr  Cr3  1  0.87650683  0.58079210  0.00000000  1
  B  B0  1  0.78007731  0.18334104  0.50000000  1
  B  B1  1  0.21992269  0.81665896  0.50000000  1
  B  B2  1  0.28007731  0.31665896  0.50000000  1
  B  B3  1  0.71992269  0.68334104  0.50000000  1
  B  B4  1  0.86080519  0.03242168  0.50000000  1
  B  B5  1  0.13919481  0.96757832  0.50000000  1
  B  B6  1  0.36080519  0.46757832  0.50000000  1
  B  B7  1  0.63919481  0.53242168  0.50000000  1
  B  B8  1  0.88683035  0.45340360  0.50000000  1
  B  B9  1  0.11316965  0.54659640  0.50000000  1
  B  B10  1  0.38683035  0.04659640  0.50000000  1
  B  B11  1  0.61316965  0.95340360  0.50000000  1
  B  B12  1  0.97559304  0.30969453  0.50000000  1
  B  B13  1  0.02440696  0.69030447  0.50000000  1
  B  B14  1  0.47559304  0.19030547  0.50000000  1
  B  B15  1  0.52440696  0.80969553  0.50000000  1
loop_
_geom_bond_atom_site_label_1
_geom_bond_atom_site_label_2
_geom_bond_distance
_geom_bond_site_symmetry_2
B0 B4 1.805105 1_555
B0 B14 1.817012 1_555
B0 B12 1.865540 1_555
B0 Cr0 2.294049 1_555
B0 Cr0 2.294049 1_556
B0 Gd2 2.712068 1_655
B0 Gd2 2.712068 1_656
B0 Gd0 2.738617 1_555
B0 Gd0 2.738617 1_556
B1 B5 1.805105 1_555
B1 B15 1.817012 1_555
B1 B13 1.865549 1_555
B1 Cr1 2.294049 1_555
B1 Cr1 2.294049 1_556
B1 Gd3 2.712068 1_455
B1 Gd3 2.712068 1_456
B1 Gd1 2.738617 1_555
B1 Gd1 2.738617 1_556
B2 B6 1.805105 1_555
B2 Cr2 2.294049 1_555
B2 Cr2 2.294049 1_556
B2 Gd0 2.712068 1_556
B2 Gd0 2.712068 1_555
B2 Gd2 2.738617 1_555
B2 Gd2 2.738617 1_556
B3 B7 1.805105 1_555
B3 Cr3 2.294049 1_556
B3 Cr3 2.294049 1_555
B3 Gd1 2.712068 1_556
B3 Gd1 2.712068 1_555
B3 Gd3 2.738617 1_555
B3 Gd3 2.738617 1_556
B4 B5 1.820236 1_645
B4 Cr0 2.303528 1_555
B4 Cr0 2.303528 1_556
B4 Gd2 2.708674 1_655
B4 Gd2 2.708674 1_656
B4 Gd3 2.733117 1_545
B4 Gd3 2.733117 1_546
B5 Cr1 2.303528 1_555
B5 Cr1 2.303528 1_556
B5 Gd3 2.708674 1_455
B5 Gd3 2.708674 1_456
B5 Gd2 2.733117 1_565
B5 Gd2 2.733117 1_566
B6 B9 1.734726 1_555
B6 B7 1.820236 1_555
B6 Cr2 2.303528 1_556
B6 Cr2 2.303528 1_555
B6 Gd0 2.708674 1_555
B6 Gd0 2.708674 1_556
B6 Gd1 2.733117 1_556
B6 Gd1 2.733117 1_555
B7 B8 1.734726 1_555
B7 Cr3 2.303528 1_556
B7 Cr3 2.303528 1_555
B7 Gd1 2.708674 1_556
B7 Gd1 2.708674 1_555
B7 Gd0 2.733117 1_555
B7 Gd0 2.733117 1_556
B8 B9 1.724793 1_655
B8 Cr2 2.267108 1_655
B8 Cr2 2.267108 1_656
B8 Cr3 2.270247 1_556
B8 Cr3 2.270247 1_555
B8 Gd0 2.623420 1_555
B8 Gd0 2.623420 1_556
B9 Cr3 2.267108 1_456
B9 Cr3 2.267108 1_455
B9 Cr2 2.270247 1_555
B9 Cr2 2.270247 1_556
B9 Gd1 2.623420 1_555
B9 Gd1 2.623420 1_556
B10 B11 1.724793 1_545
B10 B5 1.734726 1_545
B10 B14 1.739109 1_555
B10 Cr0 2.267108 1_555
B10 Cr0 2.267108 1_556
B10 Cr1 2.270247 1_546
B10 Cr1 2.270247 1_545
B10 Gd2 2.623420 1_555
B10 Gd2 2.623420 1_556
B11 B4 1.734726 1_565
B11 B15 1.739098 1_555
B11 Cr1 2.267108 1_555
B11 Cr1 2.267108 1_556
B11 Cr0 2.270247 1_565
B11 Cr0 2.270247 1_566
B11 Gd3 2.623420 1_556
B11 Gd3 2.623420 1_555
B12 B8 1.739109 1_555
B12 B2 1.817012 1_655
B12 Cr2 2.316235 1_655
B12 Cr2 2.316235 1_656
B12 Gd2 2.670749 1_655
B12 Gd2 2.670749 1_656
B12 Gd0 2.752166 1_555
B12 Gd0 2.752166 1_556
B13 B9 1.739098 1_555
B13 B3 1.817012 1_455
B13 Cr3 2.316229 1_456
B13 Cr3 2.316229 1_455
B13 Gd3 2.670757 1_455
B13 Gd3 2.670757 1_456
B13 Gd1 2.752164 1_556
B13 Gd1 2.752164 1_555
B14 B2 1.865540 1_555
B14 Cr0 2.316235 1_556
B14 Cr0 2.316235 1_555
B14 Gd0 2.670749 1_555
B14 Gd0 2.670749 1_556
B14 Gd2 2.752166 1_555
B14 Gd2 2.752166 1_556
B15 B3 1.865549 1_555
B15 Cr1 2.316229 1_555
B15 Cr1 2.316229 1_556
B15 Gd1 2.670757 1_556
B15 Gd1 2.670757 1_555
B15 Gd3 2.752164 1_556
B15 Gd3 2.752164 1_555
