# generated using pymatgen
data_Ba2LiHoRuO6
_symmetry_space_group_name_H-M   'P 1'
_cell_length_a   6.31737052
_cell_length_b   5.87472776
_cell_length_c   5.87817531
_cell_angle_alpha   60.01940155
_cell_angle_beta   62.34613326
_cell_angle_gamma   62.29196348
_symmetry_Int_Tables_number   1
_chemical_formula_structural   Ba2LiHoRuO6
_chemical_formula_sum   'Ba2 Li1 Ho1 Ru1 O6'
_cell_volume   159.47193047
_cell_formula_units_Z   1
loop_
 _symmetry_equiv_pos_site_id
 _symmetry_equiv_pos_as_xyz
  1  'x, y, z'
loop_
 _atom_site_type_symbol
 _atom_site_label
 _atom_site_symmetry_multiplicity
 _atom_site_fract_x
 _atom_site_fract_y
 _atom_site_fract_z
 _atom_site_occupancy
  Ba  Ba0  1  0.77693300  0.74044700  0.74217300  1
  Ba  Ba1  1  0.37039300  0.21005700  0.20949300  1
  Li  Li0  1  0.89320100  0.36771400  0.37137000  1
  Ho  Ho0  1  0.43928100  0.52005600  0.52060800  1
  Ru  Ru0  1  0.99233300  0.00228700  0.00309200  1
  O  O0  1  0.21348000  0.77003500  0.76988000  1
  O  O1  1  0.21516700  0.76968500  0.24546200  1
  O  O2  1  0.74895500  0.24719600  0.75665300  1
  O  O3  1  0.21348000  0.24660500  0.76988000  1
  O  O4  1  0.75068000  0.24676700  0.24840300  1
  O  O5  1  0.75068000  0.75415000  0.24840300  1
loop_
_geom_bond_atom_site_label_1
_geom_bond_atom_site_label_2
_geom_bond_distance
_geom_bond_site_symmetry_2
Ba0 O3 2.924615 1_655
Ba0 O0 2.924615 1_655
Ba0 O2 2.941267 1_565
Ba0 O2 2.941267 1_555
Ba0 O1 2.942208 1_655
Ba0 O5 2.942398 1_556
Ba0 O4 2.942398 1_556
Ba0 O5 2.942653 1_555
Ba0 O4 2.942653 1_565
Ba0 O1 3.401685 1_556
Ba0 O3 3.412016 1_565
Ba0 O0 3.412016 1_555
Ba1 Li0 2.544146 1_455
Ba1 O2 2.616889 1_554
Ba1 O5 2.628988 1_545
Ba1 O4 2.628988 1_555
Ba1 O1 3.052743 1_555
Ba1 O1 3.052748 1_545
Ba1 O3 3.054799 1_554
Ba1 O0 3.054799 1_554
Ba1 O3 3.058984 1_555
Ba1 O0 3.058984 1_545
Li0 O2 1.882161 1_555
Li0 O4 1.884216 1_555
Li0 O5 1.884221 1_555
Ho0 O1 2.143667 1_555
Ho0 O0 2.144940 1_555
Ho0 O3 2.144944 1_555
Ho0 O2 2.388004 1_555
Ho0 O5 2.390868 1_555
Ho0 O4 2.390872 1_555
O0 Ru0 2.002901 1_466
O1 Ru0 2.001470 1_465
O2 Ru0 2.111827 1_556
O3 Ru0 2.002906 1_456
O4 Ru0 2.111901 1_555
O5 Ru0 2.111897 1_565
