# generated using pymatgen
data_La(SiAu)2
_symmetry_space_group_name_H-M   'P 1'
_cell_length_a   4.38376701
_cell_length_b   4.38376617
_cell_length_c   5.96241200
_cell_angle_alpha   111.56872255
_cell_angle_beta   111.56872594
_cell_angle_gamma   89.99999445
_symmetry_Int_Tables_number   1
_chemical_formula_structural   La(SiAu)2
_chemical_formula_sum   'La1 Si2 Au2'
_cell_volume   97.87992558
_cell_formula_units_Z   1
loop_
 _symmetry_equiv_pos_site_id
 _symmetry_equiv_pos_as_xyz
  1  'x, y, z'
loop_
 _atom_site_type_symbol
 _atom_site_label
 _atom_site_symmetry_multiplicity
 _atom_site_fract_x
 _atom_site_fract_y
 _atom_site_fract_z
 _atom_site_occupancy
  La  La0  1  0.00000000  0.00000000  0.00000000  1
  Si  Si0  1  0.61581607  0.61581607  0.23163213  1
  Si  Si1  1  0.38418393  0.38418393  0.76836787  1
  Au  Au0  1  0.25000000  0.75000000  0.50000000  1
  Au  Au1  1  0.75000000  0.25000000  0.50000000  1
loop_
_geom_bond_atom_site_label_1
_geom_bond_atom_site_label_2
_geom_bond_distance
_geom_bond_site_symmetry_2
La0 Si1 3.316710 1_544
La0 Si0 3.316710 1_455
La0 Si1 3.316710 1_454
La0 Si0 3.316710 1_545
La0 Si1 3.316710 1_444
La0 Si0 3.316710 1_555
La0 Si0 3.316710 1_445
La0 Si1 3.316710 1_554
Si0 Si1 2.359541 1_554
Au0 Si1 2.583157 1_565
Au0 Si1 2.583158 1_555
Au0 Si0 2.583158 1_455
Au0 Si0 2.583158 1_555
Au0 La0 3.360024 1_555
Au0 La0 3.360024 1_565
Au0 La0 3.360025 1_666
Au0 La0 3.360025 1_566
Au1 Si0 2.583157 1_545
Au1 Si0 2.583158 1_555
Au1 Si1 2.583158 1_655
Au1 Si1 2.583158 1_555
Au1 La0 3.360024 1_666
Au1 La0 3.360024 1_656
Au1 La0 3.360025 1_555
Au1 La0 3.360025 1_655
