# generated using pymatgen
data_K3Mo3C3(Se2N)2
_symmetry_space_group_name_H-M   'P 1'
_cell_length_a   9.59133180
_cell_length_b   9.59133180
_cell_length_c   9.59133180
_cell_angle_alpha   104.58281151
_cell_angle_beta   104.58281151
_cell_angle_gamma   119.76487741
_symmetry_Int_Tables_number   1
_chemical_formula_structural   K3Mo3C3(Se2N)2
_chemical_formula_sum   'K6 Mo6 C6 Se8 N4'
_cell_volume   662.53129570
_cell_formula_units_Z   2
loop_
 _symmetry_equiv_pos_site_id
 _symmetry_equiv_pos_as_xyz
  1  'x, y, z'
loop_
 _atom_site_type_symbol
 _atom_site_label
 _atom_site_symmetry_multiplicity
 _atom_site_fract_x
 _atom_site_fract_y
 _atom_site_fract_z
 _atom_site_occupancy
  K  K0  1  0.87007700  0.77864800  0.64872500  1
  K  K1  1  0.12992300  0.22135200  0.35127500  1
  K  K2  1  0.77864800  0.12992300  0.90857200  1
  K  K3  1  0.22135200  0.87007700  0.09142800  1
  K  K4  1  0.25000000  0.75000000  0.50000000  1
  K  K5  1  0.75000000  0.25000000  0.50000000  1
  Mo  Mo0  1  0.70351200  0.70351200  0.00000000  1
  Mo  Mo1  1  0.29648800  0.29648800  0.00000000  1
  Mo  Mo2  1  0.55361800  0.65486600  0.20848400  1
  Mo  Mo3  1  0.44638200  0.34513400  0.79151600  1
  Mo  Mo4  1  0.65486600  0.44638200  0.10124800  1
  Mo  Mo5  1  0.34513400  0.55361800  0.89875200  1
  C  C0  1  0.93436900  0.93436900  0.00000000  1
  C  C1  1  0.06563100  0.06563100  0.00000000  1
  C  C2  1  0.60574700  0.83227500  0.43802200  1
  C  C3  1  0.39425300  0.16772500  0.56197800  1
  C  C4  1  0.83227500  0.39425300  0.22652900  1
  C  C5  1  0.16772500  0.60574700  0.77347100  1
  Se  Se0  1  0.48974500  0.59379100  0.70414500  1
  Se  Se1  1  0.51025500  0.40620900  0.29585500  1
  Se  Se2  1  0.88964700  0.78560000  0.29585500  1
  Se  Se3  1  0.59379100  0.88964700  0.10404600  1
  Se  Se4  1  0.11035300  0.21440000  0.70414500  1
  Se  Se5  1  0.40620900  0.11035300  0.89595400  1
  Se  Se6  1  0.78560000  0.48974500  0.89595400  1
  Se  Se7  1  0.21440000  0.51025500  0.10404600  1
  N  N0  1  0.63105100  0.92984000  0.56089200  1
  N  N1  1  0.36894900  0.07016000  0.43910900  1
  N  N2  1  0.92984000  0.36894900  0.29878900  1
  N  N3  1  0.07016000  0.63105100  0.70121100  1
loop_
_geom_bond_atom_site_label_1
_geom_bond_atom_site_label_2
_geom_bond_distance
_geom_bond_site_symmetry_2
K0 N3 2.917203 1_655
K0 Se4 3.429649 1_665
K0 Se0 3.429649 1_555
K0 Se1 3.451893 1_555
K0 Se2 3.451896 1_555
K1 N2 2.917203 1_455
K1 Se2 3.429649 1_445
K1 Se1 3.429649 1_555
K1 Se0 3.451893 1_555
K1 Se4 3.451896 1_555
K2 N0 2.917203 1_545
K2 Se3 3.429636 1_546
K2 Se7 3.429650 1_656
K2 Se5 3.451886 1_555
K2 Se6 3.451896 1_555
K3 N1 2.917211 1_565
K3 Se5 3.429636 1_564
K3 Se6 3.429650 1_454
K3 Se3 3.451886 1_555
K3 Se7 3.451896 1_555
K4 N0 2.971938 1_555
K4 N3 2.971941 1_555
K4 N2 2.971941 1_455
K4 N1 2.971941 1_565
K4 Se2 3.741232 1_455
K4 Se5 3.741236 1_565
K4 Se7 3.741241 1_555
K4 Se0 3.741241 1_555
K5 N3 2.971941 1_655
K5 N1 2.971941 1_555
K5 N2 2.971941 1_555
K5 N0 2.971946 1_545
K5 Se4 3.741232 1_655
K5 Se3 3.741236 1_545
K5 Se6 3.741241 1_555
K5 Se1 3.741241 1_555
Mo0 Se0 2.605315 1_554
Mo0 Se6 2.605315 1_554
Mo0 Se2 2.605318 1_555
Mo0 Se3 2.605323 1_555
Mo1 Se1 2.605315 1_555
Mo1 Se7 2.605315 1_555
Mo1 Se4 2.605318 1_554
Mo1 Se5 2.605323 1_554
Mo2 Se7 2.586782 1_555
Mo2 Se3 2.586790 1_555
Mo2 Se1 2.600054 1_555
Mo2 Se2 2.600063 1_555
Mo3 Se6 2.586782 1_555
Mo3 Se5 2.586790 1_555
Mo3 Se0 2.600054 1_555
Mo3 Se4 2.600063 1_555
Mo4 Se1 2.586782 1_555
Mo4 Se2 2.586782 1_555
Mo4 Se6 2.600054 1_554
Mo4 Se5 2.600060 1_554
Mo5 Se0 2.586782 1_555
Mo5 Se4 2.586782 1_555
Mo5 Se7 2.600054 1_556
Mo5 Se3 2.600060 1_556
C0 C1 1.263449 1_665
C0 Mo0 2.222091 1_555
C0 K2 3.076987 1_564
C0 K3 3.076989 1_655
C0 K0 3.076990 1_554
C0 K1 3.076990 1_665
C1 Mo1 2.222091 1_555
C1 K3 3.076987 1_545
C1 K2 3.076989 1_454
C1 K0 3.076990 1_444
C1 K1 3.076990 1_555
C2 N0 1.182610 1_555
C2 Mo2 2.169538 1_555
C3 N1 1.182603 1_555
C3 Mo3 2.169538 1_555
C4 N2 1.182599 1_555
C4 Mo4 2.169542 1_555
C5 N3 1.182599 1_555
C5 Mo5 2.169542 1_555
