# generated using pymatgen
data_Al2Si2H4O9
_symmetry_space_group_name_H-M   'P 1'
_cell_length_a   5.21745143
_cell_length_b   5.21745143
_cell_length_c   7.13750952
_cell_angle_alpha   89.07518436
_cell_angle_beta   89.07518436
_cell_angle_gamma   119.61166746
_symmetry_Int_Tables_number   1
_chemical_formula_structural   Al2Si2H4O9
_chemical_formula_sum   'Al2 Si2 H4 O9'
_cell_volume   168.83270198
_cell_formula_units_Z   1
loop_
 _symmetry_equiv_pos_site_id
 _symmetry_equiv_pos_as_xyz
  1  'x, y, z'
loop_
 _atom_site_type_symbol
 _atom_site_label
 _atom_site_symmetry_multiplicity
 _atom_site_fract_x
 _atom_site_fract_y
 _atom_site_fract_z
 _atom_site_occupancy
  Al  Al0  1  0.34114000  0.01211800  0.51776000  1
  Al  Al1  1  0.01211800  0.34114000  0.51776000  1
  Si  Si0  1  0.32199700  0.66331300  0.12908700  1
  Si  Si1  1  0.66331300  0.32199700  0.12908700  1
  H  H0  1  0.88331600  0.88331600  0.35425800  1
  H  H1  1  0.39619800  0.39619800  0.76032500  1
  H  H2  1  0.65850200  0.01303500  0.77861900  1
  H  H3  1  0.01303500  0.65850200  0.77861900  1
  O  O0  1  0.50749900  0.99668900  0.03391900  1
  O  O1  1  0.99668900  0.50749900  0.03391900  1
  O  O2  1  0.49413000  0.49413000  0.05148400  1
  O  O3  1  0.67504000  0.29735900  0.35495500  1
  O  O4  1  0.29735900  0.67504000  0.35495500  1
  O  O5  1  0.06769200  0.06769200  0.36462600  1
  O  O6  1  0.66951000  0.05341700  0.64383000  1
  O  O7  1  0.05341700  0.66951000  0.64383000  1
  O  O8  1  0.28234500  0.28234500  0.65536600  1
loop_
_geom_bond_atom_site_label_1
_geom_bond_atom_site_label_2
_geom_bond_distance
_geom_bond_site_symmetry_2
Al0 O6 1.866162 1_555
Al0 O8 1.873217 1_555
Al0 O7 1.873805 1_545
Al0 O5 1.939874 1_555
Al0 O3 1.979073 1_555
Al0 O4 2.042790 1_545
Al1 O7 1.866162 1_555
Al1 O8 1.873217 1_555
Al1 O6 1.873805 1_455
Al1 O5 1.939874 1_555
Al1 O4 1.979073 1_555
Al1 O3 2.042790 1_455
H0 O5 0.972804 1_665
H1 O8 0.973120 1_555
H2 O6 0.976196 1_555
H3 O7 0.976196 1_555
O0 Si1 1.641496 1_565
O0 Si0 1.643331 1_555
O1 Si0 1.641496 1_655
O1 Si1 1.643331 1_555
O2 Si0 1.635754 1_555
O2 Si1 1.635754 1_555
O3 Si1 1.619727 1_555
O4 Si0 1.619727 1_555
