# generated using pymatgen
data_Sr3IrN3
_symmetry_space_group_name_H-M   'P 1'
_cell_length_a   7.70334941
_cell_length_b   7.70345621
_cell_length_c   5.30343206
_cell_angle_alpha   90.00000000
_cell_angle_beta   90.00000000
_cell_angle_gamma   119.99873327
_symmetry_Int_Tables_number   1
_chemical_formula_structural   Sr3IrN3
_chemical_formula_sum   'Sr6 Ir2 N6'
_cell_volume   272.55766504
_cell_formula_units_Z   2
loop_
 _symmetry_equiv_pos_site_id
 _symmetry_equiv_pos_as_xyz
  1  'x, y, z'
loop_
 _atom_site_type_symbol
 _atom_site_label
 _atom_site_symmetry_multiplicity
 _atom_site_fract_x
 _atom_site_fract_y
 _atom_site_fract_z
 _atom_site_occupancy
  Sr  Sr0  1  0.90305929  0.63666185  0.25000000  1
  Sr  Sr1  1  0.73366855  0.09691149  0.25000000  1
  Sr  Sr2  1  0.36325718  0.26636649  0.25000000  1
  Sr  Sr3  1  0.09695166  0.36334382  0.75000000  1
  Sr  Sr4  1  0.26632593  0.90307716  0.75000000  1
  Sr  Sr5  1  0.63673745  0.73363786  0.75000000  1
  Ir  Ir0  1  0.66666327  0.33331454  0.75000000  1
  Ir  Ir1  1  0.33333654  0.66668683  0.25000000  1
  N  N0  1  0.89498202  0.59464711  0.75000000  1
  N  N1  1  0.69969394  0.10502765  0.75000000  1
  N  N2  1  0.40535465  0.30036062  0.75000000  1
  N  N3  1  0.10503662  0.40537536  0.25000000  1
  N  N4  1  0.30030996  0.89495228  0.25000000  1
  N  N5  1  0.59462194  0.69963695  0.25000000  1
loop_
_geom_bond_atom_site_label_1
_geom_bond_atom_site_label_2
_geom_bond_distance
_geom_bond_site_symmetry_2
Ir0 N1 1.898648 1_555
Ir0 N2 1.898798 1_555
Ir0 N0 1.898847 1_555
Ir1 N4 1.898465 1_555
Ir1 N5 1.898631 1_555
Ir1 N3 1.898692 1_555
N0 Sr4 2.651757 1_655
N0 Sr0 2.668349 1_555
N0 Sr0 2.668349 1_556
N0 Sr5 2.689583 1_555
N0 Sr3 2.892703 1_655
N1 Sr5 2.651977 1_545
N1 Sr1 2.668401 1_555
N1 Sr1 2.668401 1_556
N1 Sr3 2.689861 1_655
N1 Sr4 2.893387 1_545
N2 Sr3 2.651823 1_555
N2 Sr2 2.668412 1_556
N2 Sr2 2.668412 1_555
N2 Sr4 2.689948 1_545
N2 Sr5 2.892830 1_555
N3 Sr1 2.651967 1_455
N3 Sr3 2.668361 1_554
N3 Sr3 2.668361 1_555
N3 Sr2 2.689516 1_555
N3 Sr0 2.892638 1_455
N4 Sr2 2.652188 1_565
N4 Sr4 2.668414 1_555
N4 Sr4 2.668414 1_554
N4 Sr0 2.689786 1_455
N4 Sr1 2.893320 1_565
N5 Sr0 2.652045 1_555
N5 Sr5 2.668424 1_554
N5 Sr5 2.668424 1_555
N5 Sr1 2.689860 1_565
N5 Sr2 2.892780 1_555
