# generated using pymatgen
data_Mg6NbCu
_symmetry_space_group_name_H-M   'P 1'
_cell_length_a   4.81643700
_cell_length_b   5.97397700
_cell_length_c   10.94878300
_cell_angle_alpha   90.00000000
_cell_angle_beta   90.00000000
_cell_angle_gamma   90.00000000
_symmetry_Int_Tables_number   1
_chemical_formula_structural   Mg6NbCu
_chemical_formula_sum   'Mg12 Nb2 Cu2'
_cell_volume   315.03244118
_cell_formula_units_Z   2
loop_
 _symmetry_equiv_pos_site_id
 _symmetry_equiv_pos_as_xyz
  1  'x, y, z'
loop_
 _atom_site_type_symbol
 _atom_site_label
 _atom_site_symmetry_multiplicity
 _atom_site_fract_x
 _atom_site_fract_y
 _atom_site_fract_z
 _atom_site_occupancy
  Mg  Mg0  1  0.50000000  0.25029600  0.42510200  1
  Mg  Mg1  1  0.50000000  0.74970400  0.42510200  1
  Mg  Mg2  1  0.00000000  0.74639300  0.08326700  1
  Mg  Mg3  1  0.00000000  0.25360700  0.08326700  1
  Mg  Mg4  1  0.00000000  0.00000000  0.31508900  1
  Mg  Mg5  1  0.00000000  0.50000000  0.32714600  1
  Mg  Mg6  1  0.50000000  0.75029600  0.92510200  1
  Mg  Mg7  1  0.50000000  0.24970400  0.92510200  1
  Mg  Mg8  1  0.00000000  0.24639300  0.58326700  1
  Mg  Mg9  1  0.00000000  0.75360700  0.58326700  1
  Mg  Mg10  1  0.00000000  0.50000000  0.81508900  1
  Mg  Mg11  1  0.00000000  0.00000000  0.82714600  1
  Nb  Nb0  1  0.50000000  0.50000000  0.17680100  1
  Nb  Nb1  1  0.50000000  0.00000000  0.67680100  1
  Cu  Cu0  1  0.50000000  0.00000000  0.16422200  1
  Cu  Cu1  1  0.50000000  0.50000000  0.66422200  1
loop_
_geom_bond_atom_site_label_1
_geom_bond_atom_site_label_2
_geom_bond_distance
_geom_bond_site_symmetry_2
Mg0 Mg8 2.966293 1_655
Mg0 Mg8 2.966293 1_555
Mg0 Mg1 2.983452 1_555
Mg0 Mg1 2.990525 1_545
Mg0 Mg5 3.029029 1_655
Mg0 Mg5 3.029029 1_555
Mg0 Mg4 3.079962 1_655
Mg0 Mg4 3.079962 1_555
Mg0 Nb0 3.100967 1_555
Mg0 Nb1 3.135320 1_555
Mg1 Mg9 2.966293 1_555
Mg1 Mg9 2.966293 1_655
Mg1 Mg5 3.029029 1_655
Mg1 Mg5 3.029029 1_555
Mg1 Mg4 3.079962 1_565
Mg1 Mg4 3.079962 1_665
Mg1 Nb0 3.100967 1_555
Mg1 Nb1 3.135320 1_565
Mg2 Mg3 2.943892 1_555
Mg2 Mg4 2.955952 1_565
Mg2 Mg6 2.966293 1_454
Mg2 Mg6 2.966293 1_554
Mg2 Nb0 3.002480 1_455
Mg2 Nb0 3.002480 1_555
Mg2 Mg3 3.030085 1_565
Mg2 Mg5 3.049013 1_555
Mg3 Mg4 2.955952 1_555
Mg3 Mg7 2.966293 1_554
Mg3 Mg7 2.966293 1_454
Mg3 Nb0 3.002480 1_455
Mg3 Nb0 3.002480 1_555
Mg3 Mg5 3.049013 1_555
Mg4 Mg5 2.989904 1_545
Mg4 Mg5 2.989904 1_555
Mg4 Mg8 3.284514 1_555
Mg4 Mg9 3.284514 1_545
Mg5 Nb0 2.917044 1_455
Mg5 Nb0 2.917044 1_555
Mg5 Mg9 3.187313 1_555
Mg5 Mg8 3.187313 1_555
Mg6 Mg7 2.983452 1_565
Mg6 Mg7 2.990525 1_555
Mg6 Nb1 3.100967 1_565
Mg6 Nb0 3.135320 1_556
Mg7 Nb1 3.100967 1_555
Mg7 Nb0 3.135320 1_556
Mg8 Mg9 2.943892 1_545
Mg8 Nb1 3.002480 1_455
Mg8 Nb1 3.002480 1_555
Mg8 Mg9 3.030085 1_555
Mg9 Nb1 3.002480 1_465
Mg9 Nb1 3.002480 1_565
Mg10 Mg9 2.955952 1_555
Mg10 Mg8 2.955952 1_555
Mg10 Mg11 2.989904 1_565
Mg10 Mg11 2.989904 1_555
Mg10 Mg6 3.079962 1_455
Mg10 Mg6 3.079962 1_555
Mg10 Mg7 3.079962 1_455
Mg10 Mg7 3.079962 1_555
Mg10 Mg2 3.284514 1_556
Mg10 Mg3 3.284514 1_556
Mg11 Nb1 2.917044 1_555
Mg11 Nb1 2.917044 1_455
Mg11 Mg7 3.029029 1_555
Mg11 Mg7 3.029029 1_455
Mg11 Mg6 3.029029 1_545
Mg11 Mg6 3.029029 1_445
Mg11 Mg8 3.049013 1_555
Mg11 Mg9 3.049013 1_545
Mg11 Mg3 3.187313 1_556
Mg11 Mg2 3.187313 1_546
Cu0 Mg4 2.920273 1_555
Cu0 Mg4 2.920273 1_655
Cu0 Mg3 2.980017 1_655
Cu0 Mg3 2.980017 1_555
Cu0 Mg2 2.980017 1_545
Cu0 Mg2 2.980017 1_645
Cu0 Nb0 2.990162 1_545
Cu0 Nb0 2.990162 1_555
Cu0 Mg7 3.013230 1_554
Cu0 Mg6 3.013230 1_544
Cu0 Mg0 3.224029 1_555
Cu0 Mg1 3.224029 1_545
Cu1 Mg10 2.920273 1_555
Cu1 Mg10 2.920273 1_655
Cu1 Mg9 2.980017 1_655
Cu1 Mg9 2.980017 1_555
Cu1 Mg8 2.980017 1_555
Cu1 Mg8 2.980017 1_655
Cu1 Nb1 2.990162 1_565
Cu1 Nb1 2.990162 1_555
Cu1 Mg1 3.013230 1_555
Cu1 Mg0 3.013230 1_555
Cu1 Mg6 3.224029 1_555
Cu1 Mg7 3.224029 1_555
