# generated using pymatgen
data_Ce3(MgRh2)2
_symmetry_space_group_name_H-M   'P 1'
_cell_length_a   7.21625553
_cell_length_b   7.21625553
_cell_length_c   3.91331600
_cell_angle_alpha   90.00000000
_cell_angle_beta   90.00000000
_cell_angle_gamma   114.55172682
_symmetry_Int_Tables_number   1
_chemical_formula_structural   Ce3(MgRh2)2
_chemical_formula_sum   'Ce3 Mg2 Rh4'
_cell_volume   185.35859899
_cell_formula_units_Z   1
loop_
 _symmetry_equiv_pos_site_id
 _symmetry_equiv_pos_as_xyz
  1  'x, y, z'
loop_
 _atom_site_type_symbol
 _atom_site_label
 _atom_site_symmetry_multiplicity
 _atom_site_fract_x
 _atom_site_fract_y
 _atom_site_fract_z
 _atom_site_occupancy
  Ce  Ce0  1  0.42320600  0.42320600  0.00000000  1
  Ce  Ce1  1  0.61450500  0.96370600  0.00000000  1
  Ce  Ce2  1  0.96370600  0.61450500  0.00000000  1
  Mg  Mg0  1  0.25721000  0.99944100  0.50000000  1
  Mg  Mg1  1  0.99944100  0.25721000  0.50000000  1
  Rh  Rh0  1  0.30796600  0.64408100  0.50000000  1
  Rh  Rh1  1  0.64408100  0.30796600  0.50000000  1
  Rh  Rh2  1  0.02946700  0.02946700  0.00000000  1
  Rh  Rh3  1  0.76031900  0.76031900  0.50000000  1
loop_
_geom_bond_atom_site_label_1
_geom_bond_atom_site_label_2
_geom_bond_distance
_geom_bond_site_symmetry_2
Ce0 Rh1 2.856934 1_555
Ce0 Rh0 2.856934 1_554
Ce0 Rh1 2.856934 1_554
Ce0 Rh0 2.856934 1_555
Ce0 Rh2 3.072007 1_555
Ce0 Rh3 3.278182 1_554
Ce0 Rh3 3.278182 1_555
Ce0 Mg0 3.401561 1_545
Ce0 Mg1 3.401561 1_455
Ce0 Mg1 3.401561 1_454
Ce0 Mg0 3.401561 1_544
Ce0 Ce2 3.555861 1_555
Ce0 Ce1 3.555861 1_555
Ce1 Rh2 2.830397 1_665
Ce1 Rh3 2.893652 1_554
Ce1 Rh3 2.893652 1_555
Ce1 Rh1 3.099198 1_565
Ce1 Rh1 3.099198 1_564
Ce1 Rh0 3.130759 1_555
Ce1 Rh0 3.130759 1_554
Ce1 Mg0 3.330967 1_555
Ce1 Mg0 3.330967 1_554
Ce1 Mg1 3.337864 1_565
Ce1 Mg1 3.337864 1_564
Ce2 Rh2 2.830397 1_665
Ce2 Rh3 2.893652 1_554
Ce2 Rh3 2.893652 1_555
Ce2 Rh0 3.099198 1_655
Ce2 Rh0 3.099198 1_654
Ce2 Rh1 3.130759 1_554
Ce2 Rh1 3.130759 1_555
Ce2 Mg1 3.330967 1_554
Ce2 Mg1 3.330967 1_555
Ce2 Mg0 3.337864 1_654
Ce2 Mg0 3.337864 1_655
Mg0 Rh2 2.621511 1_565
Mg0 Rh2 2.621511 1_566
Mg0 Rh0 2.736911 1_555
Mg0 Rh1 2.754169 1_565
Mg0 Rh3 3.270000 1_455
Mg1 Rh2 2.621511 1_656
Mg1 Rh2 2.621511 1_655
Mg1 Rh1 2.736911 1_555
Mg1 Rh0 2.754169 1_655
Mg1 Rh3 3.270000 1_545
Rh0 Rh3 3.013929 1_555
Rh1 Rh3 3.013929 1_555
Rh2 Rh3 2.870230 1_445
Rh2 Rh3 2.870230 1_444
