# generated using pymatgen
data_NpB2C
_symmetry_space_group_name_H-M   'P 1'
_cell_length_a   5.18845533
_cell_length_b   5.18845557
_cell_length_c   5.18845533
_cell_angle_alpha   78.20115207
_cell_angle_beta   78.20115965
_cell_angle_gamma   78.20115207
_symmetry_Int_Tables_number   1
_chemical_formula_structural   NpB2C
_chemical_formula_sum   'Np3 B6 C3'
_cell_volume   131.89112519
_cell_formula_units_Z   3
loop_
 _symmetry_equiv_pos_site_id
 _symmetry_equiv_pos_as_xyz
  1  'x, y, z'
loop_
 _atom_site_type_symbol
 _atom_site_label
 _atom_site_symmetry_multiplicity
 _atom_site_fract_x
 _atom_site_fract_y
 _atom_site_fract_z
 _atom_site_occupancy
  Np  Np0  1  0.00000000  0.00000000  0.00000000  1
  Np  Np1  1  0.68888900  0.68888900  0.68888900  1
  Np  Np2  1  0.31111100  0.31111100  0.31111100  1
  B  B0  1  0.77146800  0.50000000  0.22853200  1
  B  B1  1  0.22853200  0.77146800  0.50000000  1
  B  B2  1  0.50000000  0.22853200  0.77146800  1
  B  B3  1  0.77146800  0.22853200  0.50000000  1
  B  B4  1  0.50000000  0.77146800  0.22853200  1
  B  B5  1  0.22853200  0.50000000  0.77146800  1
  C  C0  1  0.00000000  0.50000000  0.00000000  1
  C  C1  1  0.00000000  0.00000000  0.50000000  1
  C  C2  1  0.50000000  0.00000000  0.00000000  1
loop_
_geom_bond_atom_site_label_1
_geom_bond_atom_site_label_2
_geom_bond_distance
_geom_bond_site_symmetry_2
B0 C0 1.495639 1_655
B1 C1 1.495639 1_565
B2 C2 1.495639 1_556
B3 C1 1.495639 1_655
B4 C2 1.495639 1_565
B5 C0 1.495639 1_556
C0 Np2 2.437896 1_555
C0 Np1 2.437896 1_454
C0 Np0 2.594228 1_565
C0 Np0 2.594228 1_555
C1 Np2 2.437896 1_555
C1 Np1 2.437896 1_445
C1 Np0 2.594228 1_555
C1 Np0 2.594228 1_556
C2 Np2 2.437896 1_555
C2 Np1 2.437896 1_544
C2 Np0 2.594228 1_655
C2 Np0 2.594228 1_555
