# generated using pymatgen
data_Cs2NbCuSe4
_symmetry_space_group_name_H-M   'P 1'
_cell_length_a   15.03250619
_cell_length_b   13.35981600
_cell_length_c   8.02981431
_cell_angle_alpha   85.45910256
_cell_angle_beta   62.36727308
_cell_angle_gamma   32.17362436
_symmetry_Int_Tables_number   1
_chemical_formula_structural   Cs2NbCuSe4
_chemical_formula_sum   'Cs4 Nb2 Cu2 Se8'
_cell_volume   568.60880581
_cell_formula_units_Z   2
loop_
 _symmetry_equiv_pos_site_id
 _symmetry_equiv_pos_as_xyz
  1  'x, y, z'
loop_
 _atom_site_type_symbol
 _atom_site_label
 _atom_site_symmetry_multiplicity
 _atom_site_fract_x
 _atom_site_fract_y
 _atom_site_fract_z
 _atom_site_occupancy
  Cs  Cs0  1  0.57223200  0.57223200  0.92776800  1
  Cs  Cs1  1  0.92776800  0.92776800  0.57223200  1
  Cs  Cs2  1  0.67776800  0.67776800  0.32223200  1
  Cs  Cs3  1  0.32223200  0.32223200  0.67776800  1
  Nb  Nb0  1  0.50000000  0.50000000  0.50000000  1
  Nb  Nb1  1  0.75000000  0.75000000  0.75000000  1
  Cu  Cu0  1  0.25000000  0.25000000  0.25000000  1
  Cu  Cu1  1  0.00000000  0.00000000  0.00000000  1
  Se  Se0  1  0.21436300  0.89226800  0.59880800  1
  Se  Se1  1  0.29456100  0.59880800  0.89226800  1
  Se  Se2  1  0.59880800  0.29456100  0.21436300  1
  Se  Se3  1  0.89226800  0.21436300  0.29456100  1
  Se  Se4  1  0.65119200  0.95543900  0.03563700  1
  Se  Se5  1  0.35773200  0.03563700  0.95543900  1
  Se  Se6  1  0.95543900  0.65119200  0.35773200  1
  Se  Se7  1  0.03563700  0.35773200  0.65119200  1
loop_
_geom_bond_atom_site_label_1
_geom_bond_atom_site_label_2
_geom_bond_distance
_geom_bond_site_symmetry_2
Cs0 Se0 3.751846 1_556
Cs0 Se3 3.751846 1_555
Cs0 Se3 3.792034 1_466
Cs0 Se0 3.792034 1_645
Cs0 Se5 3.812339 1_565
Cs0 Se7 3.812339 1_655
Cs0 Se2 4.026063 1_556
Cs0 Se1 4.026063 1_555
Cs1 Se2 3.751846 1_655
Cs1 Se1 3.751846 1_565
Cs1 Se1 3.792034 1_654
Cs1 Se2 3.792034 1_566
Cs1 Se4 3.812339 1_556
Cs1 Se6 3.812339 1_555
Cs1 Se3 4.026063 1_565
Cs1 Se0 4.026063 1_655
Cs2 Se5 3.751846 1_565
Cs2 Se7 3.751846 1_654
Cs2 Se5 3.792034 1_654
Cs2 Se7 3.792034 1_565
Cs2 Se3 3.812339 1_555
Cs2 Se0 3.812339 1_555
Cs2 Se6 4.026063 1_555
Cs2 Se4 4.026063 1_555
Cs3 Se6 3.751846 1_545
Cs3 Se4 3.751846 1_456
Cs3 Se6 3.792034 1_456
Cs3 Se4 3.792034 1_545
Cs3 Se1 3.812339 1_555
Cs3 Se2 3.812339 1_555
Cs3 Se5 4.026063 1_555
Cs3 Se7 4.026063 1_555
Nb0 Se1 2.436219 1_555
Nb0 Se3 2.436219 1_555
Nb0 Se0 2.436219 1_555
Nb0 Se2 2.436219 1_555
Nb1 Se4 2.436219 1_556
Nb1 Se6 2.436219 1_555
Nb1 Se7 2.436219 1_655
Nb1 Se5 2.436219 1_565
Cu0 Se5 2.467134 1_554
Cu0 Se7 2.467134 1_555
Cu0 Se6 2.467134 1_455
Cu0 Se4 2.467134 1_545
Cu1 Se3 2.467134 1_455
Cu1 Se0 2.467134 1_544
Cu1 Se1 2.467134 1_544
Cu1 Se2 2.467134 1_455
