# generated using pymatgen
data_Mg6CdCu
_symmetry_space_group_name_H-M   'P 1'
_cell_length_a   5.00848000
_cell_length_b   6.11946100
_cell_length_c   10.72413000
_cell_angle_alpha   90.00000000
_cell_angle_beta   90.00000000
_cell_angle_gamma   90.00000000
_symmetry_Int_Tables_number   1
_chemical_formula_structural   Mg6CdCu
_chemical_formula_sum   'Mg12 Cd2 Cu2'
_cell_volume   328.68598406
_cell_formula_units_Z   2
loop_
 _symmetry_equiv_pos_site_id
 _symmetry_equiv_pos_as_xyz
  1  'x, y, z'
loop_
 _atom_site_type_symbol
 _atom_site_label
 _atom_site_symmetry_multiplicity
 _atom_site_fract_x
 _atom_site_fract_y
 _atom_site_fract_z
 _atom_site_occupancy
  Mg  Mg0  1  0.00000000  0.75011900  0.08428300  1
  Mg  Mg1  1  0.00000000  0.24988100  0.08428300  1
  Mg  Mg2  1  0.00000000  0.00000000  0.33260500  1
  Mg  Mg3  1  0.50000000  0.25787700  0.41162500  1
  Mg  Mg4  1  0.50000000  0.74212300  0.41162500  1
  Mg  Mg5  1  0.50000000  0.00000000  0.16789000  1
  Mg  Mg6  1  0.00000000  0.25011900  0.58428300  1
  Mg  Mg7  1  0.00000000  0.74988100  0.58428300  1
  Mg  Mg8  1  0.00000000  0.50000000  0.83260500  1
  Mg  Mg9  1  0.50000000  0.75787700  0.91162500  1
  Mg  Mg10  1  0.50000000  0.24212300  0.91162500  1
  Mg  Mg11  1  0.50000000  0.50000000  0.66789000  1
  Cd  Cd0  1  0.50000000  0.50000000  0.16780100  1
  Cd  Cd1  1  0.50000000  0.00000000  0.66780100  1
  Cu  Cu0  1  0.00000000  0.50000000  0.33988800  1
  Cu  Cu1  1  0.00000000  0.00000000  0.83988800  1
loop_
_geom_bond_atom_site_label_1
_geom_bond_atom_site_label_2
_geom_bond_distance
_geom_bond_site_symmetry_2
Mg0 Mg1 3.058274 1_565
Mg0 Mg1 3.061187 1_555
Mg0 Mg5 3.068125 1_465
Mg0 Mg5 3.068125 1_565
Mg0 Mg2 3.070835 1_565
Mg0 Mg8 3.102816 1_554
Mg0 Mg9 3.114790 1_454
Mg0 Mg9 3.114790 1_554
Mg1 Mg5 3.068125 1_455
Mg1 Mg5 3.068125 1_555
Mg1 Mg2 3.070835 1_555
Mg1 Mg8 3.102816 1_554
Mg1 Mg10 3.114790 1_454
Mg1 Mg10 3.114790 1_554
Mg2 Mg5 3.064551 1_455
Mg2 Mg5 3.064551 1_555
Mg2 Mg3 3.078902 1_555
Mg2 Mg3 3.078902 1_455
Mg2 Mg4 3.078902 1_445
Mg2 Mg4 3.078902 1_545
Mg2 Mg7 3.102816 1_545
Mg2 Mg6 3.102816 1_555
Mg3 Mg4 2.963325 1_555
Mg3 Mg5 3.053275 1_555
Mg3 Mg6 3.114790 1_555
Mg3 Mg6 3.114790 1_655
Mg3 Mg4 3.156136 1_545
Mg4 Mg5 3.053275 1_565
Mg4 Mg7 3.114790 1_555
Mg4 Mg7 3.114790 1_655
Mg5 Mg9 3.122184 1_544
Mg6 Mg7 3.058274 1_555
Mg6 Mg7 3.061187 1_545
Mg6 Mg8 3.070835 1_555
Mg7 Mg8 3.070835 1_555
Mg8 Mg9 3.078902 1_455
Mg8 Mg9 3.078902 1_555
Mg10 Mg9 2.963325 1_545
Mg10 Mg11 3.053275 1_555
Mg10 Mg8 3.078902 1_555
Mg10 Mg8 3.078902 1_655
Mg10 Mg5 3.122184 1_556
Mg10 Mg9 3.156136 1_555
Mg11 Mg9 3.053275 1_555
Mg11 Mg8 3.064551 1_555
Mg11 Mg8 3.064551 1_655
Mg11 Mg7 3.068125 1_555
Mg11 Mg7 3.068125 1_655
Mg11 Mg6 3.068125 1_555
Mg11 Mg6 3.068125 1_655
Mg11 Mg4 3.122184 1_555
Mg11 Mg3 3.122184 1_555
Cd0 Mg4 3.005412 1_555
Cd0 Mg3 3.005412 1_555
Cd0 Mg5 3.059731 1_555
Cd0 Mg5 3.059731 1_565
Cd0 Mg0 3.068573 1_555
Cd0 Mg0 3.068573 1_655
Cd0 Mg1 3.068573 1_655
Cd0 Mg1 3.068573 1_555
Cd0 Cu0 3.110792 1_655
Cd0 Cu0 3.110792 1_555
Cd0 Mg9 3.168243 1_554
Cd0 Mg10 3.168243 1_554
Cd1 Mg10 3.005412 1_555
Cd1 Mg9 3.005412 1_545
Cd1 Mg11 3.059731 1_545
Cd1 Mg11 3.059731 1_555
Cd1 Mg6 3.068573 1_555
Cd1 Mg7 3.068573 1_645
Cd1 Mg6 3.068573 1_655
Cd1 Mg7 3.068573 1_545
Cd1 Cu1 3.110792 1_555
Cd1 Cu1 3.110792 1_655
Cd1 Mg3 3.168243 1_555
Cd1 Mg4 3.168243 1_545
Cu0 Mg4 3.009716 1_455
Cu0 Mg4 3.009716 1_555
Cu0 Mg3 3.009716 1_555
Cu0 Mg3 3.009716 1_455
Cu0 Mg6 3.034386 1_555
Cu0 Mg7 3.034386 1_555
Cu0 Mg2 3.060727 1_565
Cu0 Mg2 3.060727 1_555
Cu0 Mg1 3.139518 1_555
Cu0 Mg0 3.139518 1_555
Cu1 Mg10 3.009716 1_555
Cu1 Mg10 3.009716 1_455
Cu1 Mg9 3.009716 1_545
Cu1 Mg9 3.009716 1_445
Cu1 Mg1 3.034386 1_556
Cu1 Mg0 3.034386 1_546
Cu1 Mg8 3.060727 1_555
Cu1 Mg8 3.060727 1_545
Cu1 Mg6 3.139518 1_555
Cu1 Mg7 3.139518 1_545
