# generated using pymatgen
data_Ti4Si2O17
_symmetry_space_group_name_H-M   'P 1'
_cell_length_a   11.16549800
_cell_length_b   11.16549800
_cell_length_c   12.20682200
_cell_angle_alpha   90.00000000
_cell_angle_beta   90.00000000
_cell_angle_gamma   90.00000000
_symmetry_Int_Tables_number   1
_chemical_formula_structural   Ti4Si2O17
_chemical_formula_sum   'Ti16 Si8 O68'
_cell_volume   1521.80430363
_cell_formula_units_Z   4
loop_
 _symmetry_equiv_pos_site_id
 _symmetry_equiv_pos_as_xyz
  1  'x, y, z'
loop_
 _atom_site_type_symbol
 _atom_site_label
 _atom_site_symmetry_multiplicity
 _atom_site_fract_x
 _atom_site_fract_y
 _atom_site_fract_z
 _atom_site_occupancy
  Ti  Ti0  1  0.48204000  0.34610700  0.39897500  1
  Ti  Ti1  1  0.34569700  0.51771500  0.89918400  1
  Ti  Ti2  1  0.01771500  0.84569700  0.39918400  1
  Ti  Ti3  1  0.84610700  0.98204000  0.89897500  1
  Ti  Ti4  1  0.48228500  0.34569700  0.10081600  1
  Ti  Ti5  1  0.34610700  0.51796000  0.60102500  1
  Ti  Ti6  1  0.01796000  0.84610700  0.10102500  1
  Ti  Ti7  1  0.84569700  0.98228500  0.60081600  1
  Ti  Ti8  1  0.51771500  0.65430300  0.10081600  1
  Ti  Ti9  1  0.65389300  0.48204000  0.60102500  1
  Ti  Ti10  1  0.98204000  0.15389300  0.10102500  1
  Ti  Ti11  1  0.15430300  0.01771500  0.60081600  1
  Ti  Ti12  1  0.51796000  0.65389300  0.39897500  1
  Ti  Ti13  1  0.65430300  0.48228500  0.89918400  1
  Ti  Ti14  1  0.98228500  0.15430300  0.39918400  1
  Ti  Ti15  1  0.15389300  0.01796000  0.89897500  1
  Si  Si0  1  0.22031400  0.27879000  0.50015400  1
  Si  Si1  1  0.27968600  0.77879000  0.99984600  1
  Si  Si2  1  0.27879000  0.77968600  0.49984600  1
  Si  Si3  1  0.77879000  0.72031400  0.00015400  1
  Si  Si4  1  0.22121000  0.27968600  0.00015400  1
  Si  Si5  1  0.77968600  0.72121000  0.50015400  1
  Si  Si6  1  0.72121000  0.22031400  0.49984600  1
  Si  Si7  1  0.72031400  0.22121000  0.99984600  1
  O  O0  1  0.49080300  0.35742400  0.25008100  1
  O  O1  1  0.35742400  0.50919700  0.74991900  1
  O  O2  1  0.00919700  0.85742400  0.24991900  1
  O  O3  1  0.85742400  0.99080300  0.75008100  1
  O  O4  1  0.50919700  0.64257600  0.25008100  1
  O  O5  1  0.64257600  0.49080300  0.74991900  1
  O  O6  1  0.99080300  0.14257600  0.24991900  1
  O  O7  1  0.14257600  0.00919700  0.75008100  1
  O  O8  1  0.48616700  0.39895800  0.57199500  1
  O  O9  1  0.39892800  0.51373900  0.07176400  1
  O  O10  1  0.01373900  0.89892800  0.57176400  1
  O  O11  1  0.89895800  0.98616700  0.07199500  1
  O  O12  1  0.48626100  0.39892800  0.92823600  1
  O  O13  1  0.39895800  0.51383300  0.42800500  1
  O  O14  1  0.01383300  0.89895800  0.92800500  1
  O  O15  1  0.89892800  0.98626100  0.42823600  1
  O  O16  1  0.51373900  0.60107200  0.92823600  1
  O  O17  1  0.60104200  0.48616700  0.42800500  1
  O  O18  1  0.98616700  0.10104200  0.92800500  1
  O  O19  1  0.10107200  0.01373900  0.42823600  1
  O  O20  1  0.51383300  0.60104200  0.57199500  1
  O  O21  1  0.60107200  0.48626100  0.07176400  1
  O  O22  1  0.98626100  0.10107200  0.57176400  1
  O  O23  1  0.10104200  0.01383300  0.07199500  1
  O  O24  1  0.33554500  0.27133100  0.41690400  1
  O  O25  1  0.27130500  0.66415500  0.91677200  1
  O  O26  1  0.16415500  0.77130500  0.41677200  1
  O  O27  1  0.77133100  0.83554500  0.91690400  1
  O  O28  1  0.33584500  0.27130500  0.08322800  1
  O  O29  1  0.27133100  0.66445500  0.58309600  1
  O  O30  1  0.16445500  0.77133100  0.08309600  1
  O  O31  1  0.77130500  0.83584500  0.58322800  1
  O  O32  1  0.66415500  0.72869500  0.08322800  1
  O  O33  1  0.72866900  0.33554500  0.58309600  1
  O  O34  1  0.83554500  0.22866900  0.08309600  1
  O  O35  1  0.22869500  0.16415500  0.58322800  1
  O  O36  1  0.66445500  0.72866900  0.41690400  1
  O  O37  1  0.72869500  0.33584500  0.91677200  1
  O  O38  1  0.83584500  0.22869500  0.41677200  1
  O  O39  1  0.22866900  0.16445500  0.91690400  1
  O  O40  1  0.44865200  0.21944600  0.75216000  1
  O  O41  1  0.21944600  0.55134800  0.24784000  1
  O  O42  1  0.05134800  0.71944600  0.74784000  1
  O  O43  1  0.71944600  0.94865200  0.25216000  1
  O  O44  1  0.55134800  0.78055400  0.75216000  1
  O  O45  1  0.78055400  0.44865200  0.24784000  1
  O  O46  1  0.94865200  0.28055400  0.74784000  1
  O  O47  1  0.28055400  0.05134800  0.25216000  1
  O  O48  1  0.59540700  0.22855400  0.43067600  1
  O  O49  1  0.22951500  0.40444600  0.93076300  1
  O  O50  1  0.90444600  0.72951500  0.43076300  1
  O  O51  1  0.72855400  0.09540700  0.93067600  1
  O  O52  1  0.59555400  0.22951500  0.06923700  1
  O  O53  1  0.22855400  0.40459300  0.56932400  1
  O  O54  1  0.90459300  0.72855400  0.06932400  1
  O  O55  1  0.72951500  0.09555400  0.56923700  1
  O  O56  1  0.40444600  0.77048500  0.06923700  1
  O  O57  1  0.77144600  0.59540700  0.56932400  1
  O  O58  1  0.09540700  0.27144600  0.06932400  1
  O  O59  1  0.27048500  0.90444600  0.56923700  1
  O  O60  1  0.40459300  0.77144600  0.43067600  1
  O  O61  1  0.77048500  0.59555400  0.93076300  1
  O  O62  1  0.09555400  0.27048500  0.43076300  1
  O  O63  1  0.27144600  0.90459300  0.93067600  1
  O  O64  1  0.50000000  0.00000000  0.33235500  1
  O  O65  1  0.50000000  0.00000000  0.83235500  1
  O  O66  1  0.00000000  0.50000000  0.66764500  1
  O  O67  1  0.00000000  0.50000000  0.16764500  1
loop_
_geom_bond_atom_site_label_1
_geom_bond_atom_site_label_2
_geom_bond_distance
_geom_bond_site_symmetry_2
O0 Ti0 1.824535 1_555
O0 Ti4 1.829224 1_555
O1 Ti5 1.824535 1_555
O1 Ti1 1.829224 1_555
O2 Ti6 1.824535 1_555
O2 Ti2 1.829224 1_555
O3 Ti3 1.824535 1_555
O3 Ti7 1.829224 1_555
O4 Ti12 1.824535 1_555
O4 Ti8 1.829224 1_555
O5 Ti9 1.824535 1_555
O5 Ti13 1.829224 1_555
O6 Ti10 1.824535 1_555
O6 Ti14 1.829224 1_555
O7 Ti15 1.824535 1_555
O7 Ti11 1.829224 1_555
O8 Ti5 2.082464 1_555
O8 Ti9 2.119737 1_555
O8 Ti0 2.193399 1_555
O9 Ti8 2.085211 1_555
O9 Ti4 2.124243 1_555
O9 Ti1 2.189340 1_554
O10 Ti11 2.085211 1_565
O10 Ti7 2.124243 1_455
O10 Ti2 2.189340 1_555
O11 Ti6 2.082464 1_655
O11 Ti10 2.119737 1_565
O11 Ti3 2.193399 1_554
O12 Ti1 2.085211 1_555
O12 Ti13 2.124243 1_555
O12 Ti4 2.189340 1_556
O13 Ti12 2.082464 1_555
O13 Ti0 2.119737 1_555
O13 Ti5 2.193399 1_555
O14 Ti15 2.082464 1_565
O14 Ti3 2.119737 1_455
O14 Ti6 2.193399 1_556
O15 Ti2 2.085211 1_655
O15 Ti14 2.124243 1_565
O15 Ti7 2.189340 1_555
O16 Ti13 2.085211 1_555
O16 Ti1 2.124243 1_555
O16 Ti8 2.189340 1_556
O17 Ti0 2.082464 1_555
O17 Ti12 2.119737 1_555
O17 Ti9 2.193399 1_555
O18 Ti3 2.082464 1_545
O18 Ti15 2.119737 1_655
O18 Ti10 2.193399 1_556
O19 Ti14 2.085211 1_455
O19 Ti2 2.124243 1_545
O19 Ti11 2.189340 1_555
O20 Ti9 2.082464 1_555
O20 Ti5 2.119737 1_555
O20 Ti12 2.193399 1_555
O21 Ti4 2.085211 1_555
O21 Ti8 2.124243 1_555
O21 Ti13 2.189340 1_554
O22 Ti7 2.085211 1_545
O22 Ti11 2.124243 1_655
O22 Ti14 2.189340 1_555
O23 Ti10 2.082464 1_455
O23 Ti6 2.119737 1_545
O23 Ti15 2.193399 1_554
O24 Si0 1.641647 1_555
O24 Ti0 1.849447 1_555
O25 Si1 1.635660 1_555
O25 Ti1 1.846483 1_555
O26 Si2 1.635660 1_555
O26 Ti2 1.846483 1_555
O27 Si3 1.641647 1_556
O27 Ti3 1.849447 1_555
O28 Si4 1.635660 1_555
O28 Ti4 1.846483 1_555
O29 Si2 1.641647 1_555
O29 Ti5 1.849447 1_555
O30 Si1 1.641647 1_554
O30 Ti6 1.849447 1_555
O31 Si5 1.635660 1_555
O31 Ti7 1.846483 1_555
O32 Si3 1.635660 1_555
O32 Ti8 1.846483 1_555
O33 Si6 1.641647 1_555
O33 Ti9 1.849447 1_555
O34 Si7 1.641647 1_554
O34 Ti10 1.849447 1_555
O35 Si0 1.635660 1_555
O35 Ti11 1.846483 1_555
O36 Si5 1.641647 1_555
O36 Ti12 1.849447 1_555
O37 Si7 1.635660 1_555
O37 Ti13 1.846483 1_555
O38 Si6 1.635660 1_555
O38 Ti14 1.846483 1_555
O39 Si4 1.641647 1_556
O39 Ti15 1.849447 1_555
O48 Si6 1.641473 1_555
O48 Ti0 1.864067 1_555
O49 Si4 1.632958 1_556
O49 Ti1 1.852263 1_555
O50 Si5 1.632958 1_555
O50 Ti2 1.852263 1_655
O51 Si7 1.641473 1_555
O51 Ti3 1.864067 1_545
O52 Si7 1.632958 1_554
O52 Ti4 1.852263 1_555
O53 Si0 1.641473 1_555
O53 Ti5 1.864067 1_555
O54 Si3 1.641473 1_555
O54 Ti6 1.864067 1_655
O55 Si6 1.632958 1_555
O55 Ti7 1.852263 1_545
O56 Si1 1.632958 1_554
O56 Ti8 1.852263 1_555
O57 Si5 1.641473 1_555
O57 Ti9 1.864067 1_555
O58 Si4 1.641473 1_555
O58 Ti10 1.864067 1_455
O59 Si2 1.632958 1_555
O59 Ti11 1.852263 1_565
O60 Si2 1.641473 1_555
O60 Ti12 1.864067 1_555
O61 Si3 1.632958 1_556
O61 Ti13 1.852263 1_555
O62 Si0 1.632958 1_555
O62 Ti14 1.852263 1_455
O63 Si1 1.641473 1_555
O63 Ti15 1.864067 1_565
