# generated using pymatgen
data_BaEu2CuO5
_symmetry_space_group_name_H-M   'P 1'
_cell_length_a   5.80514300
_cell_length_b   12.47098800
_cell_length_c   7.48190000
_cell_angle_alpha   90.00000000
_cell_angle_beta   90.00000000
_cell_angle_gamma   90.00000000
_symmetry_Int_Tables_number   1
_chemical_formula_structural   BaEu2CuO5
_chemical_formula_sum   'Ba4 Eu8 Cu4 O20'
_cell_volume   541.65864996
_cell_formula_units_Z   4
loop_
 _symmetry_equiv_pos_site_id
 _symmetry_equiv_pos_as_xyz
  1  'x, y, z'
loop_
 _atom_site_type_symbol
 _atom_site_label
 _atom_site_symmetry_multiplicity
 _atom_site_fract_x
 _atom_site_fract_y
 _atom_site_fract_z
 _atom_site_occupancy
  Ba  Ba0  1  0.75000000  0.59494300  0.93110400  1
  Ba  Ba1  1  0.25000000  0.40505700  0.06889600  1
  Ba  Ba2  1  0.25000000  0.90505700  0.43110400  1
  Ba  Ba3  1  0.75000000  0.09494300  0.56889600  1
  Eu  Eu0  1  0.75000000  0.42695300  0.39076100  1
  Eu  Eu1  1  0.25000000  0.57304700  0.60923900  1
  Eu  Eu2  1  0.25000000  0.07304700  0.89076100  1
  Eu  Eu3  1  0.75000000  0.92695300  0.10923900  1
  Eu  Eu4  1  0.75000000  0.71382500  0.38598500  1
  Eu  Eu5  1  0.25000000  0.28617500  0.61401500  1
  Eu  Eu6  1  0.25000000  0.78617500  0.88598500  1
  Eu  Eu7  1  0.75000000  0.21382500  0.11401500  1
  Cu  Cu0  1  0.75000000  0.83904100  0.71887400  1
  Cu  Cu1  1  0.25000000  0.16095900  0.28112600  1
  Cu  Cu2  1  0.25000000  0.66095900  0.21887400  1
  Cu  Cu3  1  0.75000000  0.33904100  0.78112600  1
  O  O0  1  0.98676100  0.73272600  0.64950800  1
  O  O1  1  0.01323900  0.26727400  0.35049200  1
  O  O2  1  0.01323900  0.76727400  0.14950800  1
  O  O3  1  0.48676100  0.26727400  0.35049200  1
  O  O4  1  0.98676100  0.23272600  0.85049200  1
  O  O5  1  0.51323900  0.73272600  0.64950800  1
  O  O6  1  0.51323900  0.23272600  0.85049200  1
  O  O7  1  0.48676100  0.76727400  0.14950800  1
  O  O8  1  0.75000000  0.90276400  0.42187500  1
  O  O9  1  0.25000000  0.09723600  0.57812500  1
  O  O10  1  0.25000000  0.59723600  0.92187500  1
  O  O11  1  0.75000000  0.40276400  0.07812500  1
  O  O12  1  0.98176100  0.93139900  0.82610300  1
  O  O13  1  0.01823900  0.06860100  0.17389700  1
  O  O14  1  0.01823900  0.56860100  0.32610300  1
  O  O15  1  0.48176100  0.06860100  0.17389700  1
  O  O16  1  0.98176100  0.43139900  0.67389700  1
  O  O17  1  0.51823900  0.93139900  0.82610300  1
  O  O18  1  0.51823900  0.43139900  0.67389700  1
  O  O19  1  0.48176100  0.56860100  0.32610300  1
loop_
_geom_bond_atom_site_label_1
_geom_bond_atom_site_label_2
_geom_bond_distance
_geom_bond_site_symmetry_2
Ba0 O11 2.637040 1_556
Ba0 O10 2.903534 1_555
Ba0 O10 2.903534 1_655
Ba0 O5 3.046391 1_555
Ba0 O0 3.046391 1_555
Ba0 O2 3.102292 1_656
Ba0 O7 3.102292 1_556
Ba0 O18 3.110178 1_555
Ba0 O16 3.110178 1_555
Ba0 O14 3.356596 1_656
Ba0 O19 3.356596 1_556
Ba1 O10 2.637040 1_554
Ba1 O11 2.903534 1_455
Ba1 O11 2.903534 1_555
Ba1 O3 3.046391 1_555
Ba1 O1 3.046391 1_555
Ba1 O4 3.102292 1_454
Ba1 O6 3.102292 1_554
Ba1 O19 3.110178 1_555
Ba1 O14 3.110178 1_555
Ba1 O16 3.356596 1_454
Ba1 O18 3.356596 1_554
Ba2 O9 2.637040 1_565
Ba2 O8 2.903534 1_455
Ba2 O8 2.903534 1_555
Ba2 O2 3.046391 1_555
Ba2 O7 3.046391 1_555
Ba2 O5 3.102292 1_555
Ba2 O0 3.102292 1_455
Ba2 O15 3.110178 1_565
Ba2 O13 3.110178 1_565
Ba2 O17 3.356596 1_555
Ba2 O12 3.356596 1_455
Ba3 O8 2.637040 1_545
Ba3 O9 2.903534 1_555
Ba3 O9 2.903534 1_655
Ba3 O6 3.046391 1_555
Ba3 O4 3.046391 1_555
Ba3 O3 3.102292 1_555
Ba3 O1 3.102292 1_655
Ba3 O12 3.110178 1_545
Ba3 O17 3.110178 1_545
Ba3 O13 3.356596 1_655
Ba3 O15 3.356596 1_555
Eu0 O11 2.358483 1_555
Eu0 O14 2.404014 1_655
Eu0 O19 2.404014 1_555
Eu0 O16 2.510137 1_555
Eu0 O18 2.510137 1_555
Eu0 O3 2.528138 1_555
Eu0 O1 2.528138 1_655
Eu1 O10 2.358483 1_555
Eu1 O18 2.404014 1_555
Eu1 O16 2.404014 1_455
Eu1 O14 2.510137 1_555
Eu1 O19 2.510137 1_555
Eu1 O0 2.528138 1_455
Eu1 O5 2.528138 1_555
Eu2 O9 2.358483 1_555
Eu2 O12 2.404014 1_445
Eu2 O17 2.404014 1_545
Eu2 O13 2.510137 1_556
Eu2 O15 2.510137 1_556
Eu2 O6 2.528138 1_555
Eu2 O4 2.528138 1_455
Eu3 O8 2.358483 1_555
Eu3 O13 2.404014 1_665
Eu3 O15 2.404014 1_565
Eu3 O17 2.510137 1_554
Eu3 O12 2.510137 1_554
Eu3 O2 2.528138 1_655
Eu3 O7 2.528138 1_555
Eu4 O8 2.371508 1_555
Eu4 O5 2.414961 1_555
Eu4 O0 2.414961 1_555
Eu4 O19 2.430130 1_555
Eu4 O14 2.430130 1_655
Eu4 O7 2.431035 1_555
Eu4 O2 2.431035 1_655
Eu5 O9 2.371508 1_555
Eu5 O3 2.414961 1_555
Eu5 O1 2.414961 1_555
Eu5 O18 2.430130 1_555
Eu5 O16 2.430130 1_455
Eu5 O6 2.431035 1_555
Eu5 O4 2.431035 1_455
Eu6 O10 2.371508 1_555
Eu6 O7 2.414961 1_556
Eu6 O2 2.414961 1_556
Eu6 O17 2.430130 1_555
Eu6 O12 2.430130 1_455
Eu6 O5 2.431035 1_555
Eu6 O0 2.431035 1_455
Eu7 O11 2.371508 1_555
Eu7 O6 2.414961 1_554
Eu7 O4 2.414961 1_554
Eu7 O13 2.430130 1_655
Eu7 O15 2.430130 1_555
Eu7 O3 2.431035 1_555
Eu7 O1 2.431035 1_655
Cu0 O12 1.944324 1_555
Cu0 O17 1.944324 1_555
Cu0 O5 1.978964 1_555
Cu0 O0 1.978964 1_555
Cu0 O8 2.359944 1_555
Cu1 O15 1.944324 1_555
Cu1 O13 1.944324 1_555
Cu1 O3 1.978964 1_555
Cu1 O1 1.978964 1_555
Cu1 O9 2.359944 1_555
Cu2 O14 1.944324 1_555
Cu2 O19 1.944324 1_555
Cu2 O7 1.978964 1_555
Cu2 O2 1.978964 1_555
Cu2 O10 2.359944 1_554
Cu3 O18 1.944324 1_555
Cu3 O16 1.944324 1_555
Cu3 O6 1.978964 1_555
Cu3 O4 1.978964 1_555
Cu3 O11 2.359944 1_556
