# generated using pymatgen
data_KZn4SbO7
_symmetry_space_group_name_H-M   'P 1'
_cell_length_a   6.23785261
_cell_length_b   6.23785261
_cell_length_c   10.10553600
_cell_angle_alpha   90.00000000
_cell_angle_beta   90.00000000
_cell_angle_gamma   120.00000646
_symmetry_Int_Tables_number   1
_chemical_formula_structural   KZn4SbO7
_chemical_formula_sum   'K2 Zn8 Sb2 O14'
_cell_volume   340.53376072
_cell_formula_units_Z   2
loop_
 _symmetry_equiv_pos_site_id
 _symmetry_equiv_pos_as_xyz
  1  'x, y, z'
loop_
 _atom_site_type_symbol
 _atom_site_label
 _atom_site_symmetry_multiplicity
 _atom_site_fract_x
 _atom_site_fract_y
 _atom_site_fract_z
 _atom_site_occupancy
  K  K0  1  0.33333300  0.66666700  0.82249100  1
  K  K1  1  0.66666700  0.33333300  0.32249100  1
  Zn  Zn0  1  0.00000000  0.00000000  0.25245900  1
  Zn  Zn1  1  0.00000000  0.00000000  0.75245900  1
  Zn  Zn2  1  0.34641800  0.17320900  0.00693900  1
  Zn  Zn3  1  0.82679100  0.65358200  0.00693900  1
  Zn  Zn4  1  0.82679100  0.17320900  0.00693900  1
  Zn  Zn5  1  0.65358200  0.82679100  0.50693900  1
  Zn  Zn6  1  0.17320900  0.34641800  0.50693900  1
  Zn  Zn7  1  0.17320900  0.82679100  0.50693900  1
  Sb  Sb0  1  0.33333300  0.66666700  0.19502500  1
  Sb  Sb1  1  0.66666700  0.33333300  0.69502500  1
  O  O0  1  0.00000000  0.00000000  0.05714200  1
  O  O1  1  0.00000000  0.00000000  0.55714200  1
  O  O2  1  0.17839300  0.35678500  0.31074100  1
  O  O3  1  0.17839300  0.82160700  0.31074100  1
  O  O4  1  0.64321500  0.82160700  0.31074100  1
  O  O5  1  0.82160700  0.64321500  0.81074100  1
  O  O6  1  0.82160700  0.17839300  0.81074100  1
  O  O7  1  0.35678500  0.17839300  0.81074100  1
  O  O8  1  0.48821600  0.97643300  0.08005500  1
  O  O9  1  0.48821600  0.51178400  0.08005500  1
  O  O10  1  0.02356700  0.51178400  0.08005500  1
  O  O11  1  0.51178400  0.02356700  0.58005500  1
  O  O12  1  0.51178400  0.48821600  0.58005500  1
  O  O13  1  0.97643300  0.48821600  0.58005500  1
loop_
_geom_bond_atom_site_label_1
_geom_bond_atom_site_label_2
_geom_bond_distance
_geom_bond_site_symmetry_2
K0 O8 3.094341 1_556
K0 O10 3.094341 1_556
K0 O9 3.094341 1_556
K0 O11 3.117612 1_565
K0 O13 3.117612 1_455
K0 O12 3.117619 1_555
K0 O6 3.123756 1_565
K0 O6 3.123756 1_455
K0 O5 3.123756 1_455
K0 O7 3.123756 1_565
K0 O7 3.123756 1_555
K0 O5 3.123756 1_555
K1 O13 3.094341 1_555
K1 O11 3.094341 1_555
K1 O12 3.094341 1_555
K1 O10 3.117612 1_655
K1 O8 3.117612 1_545
K1 O9 3.117619 1_555
K1 O3 3.123756 1_655
K1 O3 3.123756 1_545
K1 O4 3.123756 1_545
K1 O2 3.123756 1_655
K1 O2 3.123756 1_555
K1 O4 3.123756 1_555
O0 Zn2 1.938946 1_555
O0 Zn3 1.938946 1_445
O0 Zn4 1.938946 1_455
O0 Zn0 1.973783 1_555
O1 Zn5 1.938946 1_445
O1 Zn6 1.938946 1_555
O1 Zn7 1.938946 1_545
O1 Zn1 1.973783 1_555
O2 Zn6 1.983477 1_555
O2 Zn0 2.015382 1_555
O2 Sb0 2.042007 1_555
O3 Zn7 1.983477 1_555
O3 Zn0 2.015387 1_565
O3 Sb0 2.041998 1_555
O4 Zn5 1.983477 1_555
O4 Zn0 2.015382 1_665
O4 Sb0 2.042007 1_555
O5 Zn3 1.983477 1_556
O5 Zn1 2.015382 1_665
O5 Sb1 2.042007 1_555
O6 Zn4 1.983477 1_556
O6 Zn1 2.015387 1_655
O6 Sb1 2.041998 1_555
O7 Zn2 1.983477 1_556
O7 Zn1 2.015382 1_555
O7 Sb1 2.042007 1_555
O8 Zn2 1.980068 1_565
O8 Zn4 1.980073 1_565
O8 Sb0 2.037184 1_555
O9 Zn3 1.980073 1_555
O9 Zn2 1.980073 1_555
O9 Sb0 2.037185 1_555
O10 Zn3 1.980068 1_455
O10 Zn4 1.980073 1_455
O10 Sb0 2.037184 1_555
O11 Zn5 1.980068 1_545
O11 Zn7 1.980073 1_545
O11 Sb1 2.037184 1_555
O12 Zn5 1.980073 1_555
O12 Zn6 1.980073 1_555
O12 Sb1 2.037185 1_555
O13 Zn6 1.980068 1_655
O13 Zn7 1.980073 1_655
O13 Sb1 2.037184 1_555
