# generated using pymatgen
data_FeC4S2N3O5
_symmetry_space_group_name_H-M   'P 1'
_cell_length_a   6.45162733
_cell_length_b   8.68087260
_cell_length_c   12.95389658
_cell_angle_alpha   62.01879913
_cell_angle_beta   84.63591813
_cell_angle_gamma   86.23370209
_symmetry_Int_Tables_number   1
_chemical_formula_structural   FeC4S2N3O5
_chemical_formula_sum   'Fe2 C8 S4 N6 O10'
_cell_volume   637.68153048
_cell_formula_units_Z   2
loop_
 _symmetry_equiv_pos_site_id
 _symmetry_equiv_pos_as_xyz
  1  'x, y, z'
loop_
 _atom_site_type_symbol
 _atom_site_label
 _atom_site_symmetry_multiplicity
 _atom_site_fract_x
 _atom_site_fract_y
 _atom_site_fract_z
 _atom_site_occupancy
  Fe  Fe0  1  0.92826600  0.35375100  0.97609200  1
  Fe  Fe1  1  0.07173400  0.64624900  0.02390800  1
  C  C0  1  0.63259700  0.28418400  0.69068600  1
  C  C1  1  0.36740300  0.71581600  0.30931400  1
  C  C2  1  0.65553600  0.20540300  0.62846900  1
  C  C3  1  0.34446400  0.79459700  0.37153100  1
  C  C4  1  0.63768400  0.26817300  0.79608900  1
  C  C5  1  0.36231600  0.73182700  0.20391100  1
  C  C6  1  0.74034300  0.98554800  0.56096700  1
  C  C7  1  0.25965700  0.01445200  0.43903300  1
  S  S0  1  0.94681700  0.65509900  0.85454700  1
  S  S1  1  0.05318300  0.34490100  0.14545300  1
  S  S2  1  0.23171200  0.65286100  0.73570100  1
  S  S3  1  0.76828800  0.34713900  0.26429900  1
  N  N0  1  0.66026200  0.27647500  0.01249500  1
  N  N1  1  0.33973800  0.72352500  0.98750500  1
  N  N2  1  0.06129900  0.21781400  0.91288300  1
  N  N3  1  0.93870100  0.78218600  0.08711700  1
  N  N4  1  0.69330800  0.10761900  0.58181400  1
  N  N5  1  0.30669200  0.89238100  0.41818600  1
  O  O0  1  0.14015800  0.60394700  0.65745000  1
  O  O1  1  0.85984200  0.39605300  0.34255000  1
  O  O2  1  0.30002000  0.83186000  0.68623200  1
  O  O3  1  0.69998000  0.16814000  0.31376800  1
  O  O4  1  0.36817800  0.52001500  0.81928700  1
  O  O5  1  0.63182200  0.47998500  0.18071300  1
  O  O6  1  0.48600100  0.24261800  0.03992600  1
  O  O7  1  0.51399900  0.75738200  0.96007400  1
  O  O8  1  0.15333200  0.13664000  0.87182300  1
  O  O9  1  0.84666800  0.86336000  0.12817700  1
loop_
_geom_bond_atom_site_label_1
_geom_bond_atom_site_label_2
_geom_bond_distance
_geom_bond_site_symmetry_2
Fe0 N0 1.834428 1_556
Fe0 N2 1.855216 1_655
Fe0 S0 2.340419 1_555
Fe0 S1 2.373357 1_656
Fe1 N1 1.834428 1_554
Fe1 N3 1.855216 1_455
Fe1 S1 2.340419 1_555
Fe1 S0 2.373357 1_454
C0 C2 1.273097 1_555
C0 C4 1.309335 1_555
C1 C3 1.273097 1_555
C1 C5 1.309335 1_555
C2 N4 1.253743 1_555
C3 N5 1.253743 1_555
C6 N4 1.224296 1_565
C7 N5 1.224296 1_545
S0 S2 2.289800 1_655
S1 S3 2.289800 1_455
N0 O6 1.160750 1_555
N1 O7 1.160750 1_555
N2 O8 1.170337 1_555
N3 O9 1.170337 1_555
O0 S2 1.451024 1_555
O1 S3 1.451024 1_555
O2 S2 1.456762 1_555
O3 S3 1.456762 1_555
O4 S2 1.466490 1_555
O5 S3 1.466490 1_555
