# generated using pymatgen
data_K7(FeTe2)4
_symmetry_space_group_name_H-M   'P 1'
_cell_length_a   12.23307800
_cell_length_b   12.23307800
_cell_length_c   8.69776600
_cell_angle_alpha   90.00000000
_cell_angle_beta   90.00000000
_cell_angle_gamma   90.00000000
_symmetry_Int_Tables_number   1
_chemical_formula_structural   K7(FeTe2)4
_chemical_formula_sum   'K14 Fe8 Te16'
_cell_volume   1301.60500291
_cell_formula_units_Z   2
loop_
 _symmetry_equiv_pos_site_id
 _symmetry_equiv_pos_as_xyz
  1  'x, y, z'
loop_
 _atom_site_type_symbol
 _atom_site_label
 _atom_site_symmetry_multiplicity
 _atom_site_fract_x
 _atom_site_fract_y
 _atom_site_fract_z
 _atom_site_occupancy
  K  K0  1  0.00000000  0.00000000  0.00000000  1
  K  K1  1  0.50000000  0.50000000  0.50000000  1
  K  K2  1  0.50000000  0.00000000  0.95816400  1
  K  K3  1  0.50000000  0.00000000  0.45816400  1
  K  K4  1  0.00000000  0.50000000  0.54183600  1
  K  K5  1  0.00000000  0.50000000  0.04183600  1
  K  K6  1  0.75824600  0.24175400  0.00000000  1
  K  K7  1  0.75824600  0.75824600  0.00000000  1
  K  K8  1  0.24175400  0.24175400  0.00000000  1
  K  K9  1  0.24175400  0.75824600  0.00000000  1
  K  K10  1  0.74175400  0.25824600  0.50000000  1
  K  K11  1  0.74175400  0.74175400  0.50000000  1
  K  K12  1  0.25824600  0.25824600  0.50000000  1
  K  K13  1  0.25824600  0.74175400  0.50000000  1
  Fe  Fe0  1  0.50000000  0.39522000  0.89396900  1
  Fe  Fe1  1  0.50000000  0.60478000  0.89396900  1
  Fe  Fe2  1  0.89522000  0.00000000  0.39396900  1
  Fe  Fe3  1  0.10478000  0.00000000  0.39396900  1
  Fe  Fe4  1  0.00000000  0.10478000  0.60603100  1
  Fe  Fe5  1  0.00000000  0.89522000  0.60603100  1
  Fe  Fe6  1  0.60478000  0.50000000  0.10603100  1
  Fe  Fe7  1  0.39522000  0.50000000  0.10603100  1
  Te  Te0  1  0.50000000  0.31875200  0.17476700  1
  Te  Te1  1  0.50000000  0.68124800  0.17476700  1
  Te  Te2  1  0.81875200  0.00000000  0.67476700  1
  Te  Te3  1  0.18124800  0.00000000  0.67476700  1
  Te  Te4  1  0.00000000  0.18124800  0.32523300  1
  Te  Te5  1  0.00000000  0.81875200  0.32523300  1
  Te  Te6  1  0.68124800  0.50000000  0.82523300  1
  Te  Te7  1  0.31875200  0.50000000  0.82523300  1
  Te  Te8  1  0.50000000  0.77291300  0.71378500  1
  Te  Te9  1  0.50000000  0.22708700  0.71378500  1
  Te  Te10  1  0.27291300  0.00000000  0.21378500  1
  Te  Te11  1  0.72708700  0.00000000  0.21378500  1
  Te  Te12  1  0.00000000  0.72708700  0.78621500  1
  Te  Te13  1  0.00000000  0.27291300  0.78621500  1
  Te  Te14  1  0.22708700  0.50000000  0.28621500  1
  Te  Te15  1  0.77291300  0.50000000  0.28621500  1
loop_
_geom_bond_atom_site_label_1
_geom_bond_atom_site_label_2
_geom_bond_distance
_geom_bond_site_symmetry_2
K0 Te2 3.594187 1_454
K0 Te5 3.594187 1_545
K0 Te4 3.594187 1_555
K0 Te3 3.594187 1_554
K0 Te12 3.821464 1_544
K0 Te11 3.821464 1_455
K0 Te13 3.821464 1_554
K0 Te10 3.821464 1_555
K1 Te1 3.594187 1_555
K1 Te6 3.594187 1_555
K1 Te0 3.594187 1_555
K1 Te7 3.594187 1_555
K1 Te14 3.821464 1_555
K1 Te8 3.821464 1_555
K1 Te9 3.821464 1_555
K1 Te15 3.821464 1_555
K2 Te9 3.497871 1_555
K2 Te8 3.497871 1_545
K2 Te10 3.558137 1_556
K2 Te11 3.558137 1_556
K3 Te10 3.497871 1_555
K3 Te11 3.497871 1_555
K3 Te9 3.558137 1_555
K3 Te8 3.558137 1_545
K4 Te13 3.497871 1_555
K4 Te12 3.497871 1_555
K4 Te15 3.558137 1_455
K4 Te14 3.558137 1_555
K5 Te15 3.497871 1_455
K5 Te14 3.497871 1_555
K5 Te13 3.558137 1_554
K5 Te12 3.558137 1_554
K6 Te13 3.514120 1_654
K6 Te11 3.514120 1_555
K6 Te0 3.630159 1_555
K6 Te6 3.630159 1_554
K6 Te9 4.026121 1_554
K6 Te15 4.026121 1_555
K7 Te12 3.514120 1_654
K7 Te11 3.514120 1_565
K7 Te6 3.630159 1_554
K7 Te1 3.630159 1_555
K7 Te8 4.026121 1_554
K7 Te15 4.026121 1_555
K8 Te13 3.514120 1_554
K8 Te10 3.514120 1_555
K8 Te0 3.630159 1_555
K8 Te7 3.630159 1_554
K8 Te9 4.026121 1_554
K8 Te14 4.026121 1_555
K9 Te10 3.514120 1_565
K9 Te12 3.514120 1_554
K9 Te1 3.630159 1_555
K9 Te7 3.630159 1_554
K9 Te8 4.026121 1_554
K9 Te14 4.026121 1_555
K10 Te15 3.514120 1_555
K10 Te9 3.514120 1_555
K10 Te4 3.630159 1_655
K10 Te2 3.630159 1_555
K10 Te11 4.026121 1_555
K10 Te13 4.026121 1_655
K11 Te15 3.514120 1_555
K11 Te8 3.514120 1_555
K11 Te5 3.630159 1_655
K11 Te2 3.630159 1_565
K11 Te11 4.026121 1_565
K11 Te12 4.026121 1_655
K12 Te9 3.514120 1_555
K12 Te14 3.514120 1_555
K12 Te4 3.630159 1_555
K12 Te3 3.630159 1_555
K12 Te13 4.026121 1_555
K12 Te10 4.026121 1_555
K13 Te14 3.514120 1_555
K13 Te8 3.514120 1_555
K13 Te5 3.630159 1_555
K13 Te3 3.630159 1_565
K13 Te10 4.026121 1_565
K13 Te12 4.026121 1_555
Fe0 Te9 2.585821 1_555
Fe0 Te0 2.615330 1_556
Fe0 Te6 2.629916 1_555
Fe0 Te7 2.629916 1_555
Fe0 K1 3.658537 1_555
Fe1 Te8 2.585821 1_555
Fe1 Te1 2.615330 1_556
Fe1 Te6 2.629916 1_555
Fe1 Te7 2.629916 1_555
Fe1 K1 3.658537 1_555
Fe2 Te11 2.585821 1_555
Fe2 Te2 2.615330 1_555
Fe2 Te5 2.629916 1_645
Fe2 Te4 2.629916 1_655
Fe2 K0 3.658537 1_655
Fe3 Te10 2.585821 1_555
Fe3 Te3 2.615330 1_555
Fe3 Te5 2.629916 1_545
Fe3 Te4 2.629916 1_555
Fe3 K0 3.658537 1_555
Fe4 Te13 2.585821 1_555
Fe4 Te4 2.615330 1_555
Fe4 Te2 2.629916 1_455
Fe4 Te3 2.629916 1_555
Fe4 K0 3.658537 1_556
Fe5 Te12 2.585821 1_555
Fe5 Te5 2.615330 1_555
Fe5 Te2 2.629916 1_465
Fe5 Te3 2.629916 1_565
Fe5 K0 3.658537 1_566
Fe6 Te15 2.585821 1_555
Fe6 Te6 2.615330 1_554
Fe6 Te1 2.629916 1_555
Fe6 Te0 2.629916 1_555
Fe6 K1 3.658537 1_555
Fe7 Te14 2.585821 1_555
Fe7 Te7 2.615330 1_554
Fe7 Te1 2.629916 1_555
Fe7 Te0 2.629916 1_555
Fe7 K1 3.658537 1_555
