# generated using pymatgen
data_Y3TlF10
_symmetry_space_group_name_H-M   'P 1'
_cell_length_a   8.19346100
_cell_length_b   8.19346168
_cell_length_c   13.37013867
_cell_angle_alpha   89.99979426
_cell_angle_beta   90.00023822
_cell_angle_gamma   119.99990754
_symmetry_Int_Tables_number   1
_chemical_formula_structural   Y3TlF10
_chemical_formula_sum   'Y12 Tl4 F40'
_cell_volume   777.32344309
_cell_formula_units_Z   4
loop_
 _symmetry_equiv_pos_site_id
 _symmetry_equiv_pos_as_xyz
  1  'x, y, z'
loop_
 _atom_site_type_symbol
 _atom_site_label
 _atom_site_symmetry_multiplicity
 _atom_site_fract_x
 _atom_site_fract_y
 _atom_site_fract_z
 _atom_site_occupancy
  Y  Y0  1  0.17380619  0.34760890  0.72599675  1
  Y  Y1  1  0.17380746  0.82619248  0.72599625  1
  Y  Y2  1  0.82618340  0.65238310  0.22598755  1
  Y  Y3  1  0.65239086  0.82619321  0.72599677  1
  Y  Y4  1  0.82619254  0.17380707  0.22598753  1
  Y  Y5  1  0.34761706  0.17381527  0.22598803  1
  Y  Y6  1  0.50587579  0.01174963  0.98565254  1
  Y  Y7  1  0.50587620  0.49412437  0.98565527  1
  Y  Y8  1  0.49413329  0.98825921  0.48566044  1
  Y  Y9  1  0.98824997  0.49412403  0.98565225  1
  Y  Y10  1  0.49413231  0.50586787  0.48565899  1
  Y  Y11  1  0.01174092  0.50586748  0.48566019  1
  Tl  Tl0  1  0.66666664  0.33333325  0.73229738  1
  Tl  Tl1  1  0.33327421  0.66672625  0.23234888  1
  Tl  Tl2  1  0.00000112  -0.00000124  0.97821863  1
  Tl  Tl3  1  0.00000080  -0.00000106  0.47827088  1
  F  F0  1  0.18350264  0.36699962  0.54958282  1
  F  F1  1  0.18350161  0.81649828  0.54958282  1
  F  F2  1  0.81650953  0.63301643  0.04953679  1
  F  F3  1  0.63300137  0.81649498  0.54958437  1
  F  F4  1  0.81650954  0.18349060  0.04953629  1
  F  F5  1  0.36698332  0.18349012  0.04953675  1
  F  F6  1  0.66666788  0.33333195  0.94206068  1
  F  F7  1  0.33333487  0.66666483  0.44212370  1
  F  F8  1  0.66666650  0.33333297  0.27531849  1
  F  F9  1  0.33333467  0.66666566  0.77529368  1
  F  F10  1  0.77775727  0.55550721  0.52221577  1
  F  F11  1  0.77775716  0.22224286  0.52221323  1
  F  F12  1  0.22226435  0.44452858  0.02224623  1
  F  F13  1  0.44449755  0.22224344  0.52221937  1
  F  F14  1  0.22226605  0.77773452  0.02224710  1
  F  F15  1  0.55547118  0.77773541  0.02224601  1
  F  F16  1  0.88995069  0.77989645  0.69187042  1
  F  F17  1  0.88995004  0.11005063  0.69187069  1
  F  F18  1  0.11002940  0.22006018  0.19186453  1
  F  F19  1  0.22010322  0.11004873  0.69187024  1
  F  F20  1  0.11003323  0.88996695  0.19186716  1
  F  F21  1  0.77993999  0.88997067  0.19186453  1
  F  F22  1  0.66105998  0.66374200  0.85507341  1
  F  F23  1  0.00268755  0.33894068  0.85507280  1
  F  F24  1  0.33891508  0.33623137  0.35509485  1
  F  F25  1  0.00268639  0.66374365  0.85507312  1
  F  F26  1  0.33625670  0.99731381  0.85507285  1
  F  F27  1  0.99731930  0.66108024  0.35509014  1
  F  F28  1  0.33625835  0.33893997  0.85507335  1
  F  F29  1  0.99731874  0.33623312  0.35509037  1
  F  F30  1  0.66376699  0.00268142  0.35509072  1
  F  F31  1  0.66376791  0.66108460  0.35509498  1
  F  F32  1  0.66105997  0.99731329  0.85507272  1
  F  F33  1  0.33891996  0.00267639  0.35508992  1
  F  F34  1  0.47904543  0.95808709  0.66017850  1
  F  F35  1  0.47904656  0.52095417  0.66017749  1
  F  F36  1  0.52098941  0.04197952  0.16016734  1
  F  F37  1  0.04191276  0.52095452  0.66017824  1
  F  F38  1  0.52098658  0.47901285  0.16016870  1
  F  F39  1  0.95802058  0.47901042  0.16016751  1
loop_
_geom_bond_atom_site_label_1
_geom_bond_atom_site_label_2
_geom_bond_distance
_geom_bond_site_symmetry_2
F0 Y0 2.362688 1_555
F0 Y11 2.367877 1_555
F0 Y10 2.367892 1_555
F0 Tl3 2.773203 1_555
F1 Y1 2.362681 1_555
F1 Y11 2.367892 1_555
F1 Y8 2.367898 1_555
F1 Tl3 2.773199 1_565
F2 Y2 2.363170 1_555
F2 Y7 2.367697 1_554
F2 Y9 2.367712 1_554
F2 Tl2 2.773106 1_664
F3 Y3 2.362667 1_555
F3 Y10 2.367881 1_555
F3 Y8 2.367902 1_555
F3 Tl3 2.773202 1_665
F4 Y4 2.363176 1_555
F4 Y6 2.367711 1_554
F4 Y9 2.367711 1_554
F4 Tl2 2.773113 1_654
F5 Y5 2.363177 1_555
F5 Y7 2.367704 1_554
F5 Y6 2.367711 1_554
F5 Tl2 2.773104 1_554
F6 Y9 2.355121 1_555
F6 Y6 2.355124 1_555
F6 Y7 2.355146 1_555
F7 Y10 2.355015 1_555
F7 Y11 2.355023 1_555
F7 Y8 2.355027 1_555
F8 Y5 2.358014 1_555
F8 Y2 2.358021 1_555
F8 Y4 2.358034 1_555
F9 Y1 2.357917 1_555
F9 Y3 2.357938 1_555
F9 Y0 2.357941 1_555
F10 Y11 2.204418 1_655
F10 Y10 2.204432 1_555
F11 Y8 2.204413 1_545
F11 Y11 2.204418 1_655
F12 Y9 2.204545 1_454
F12 Y7 2.204556 1_554
F13 Y8 2.204412 1_545
F13 Y10 2.204452 1_555
F14 Y6 2.204555 1_564
F14 Y9 2.204562 1_454
F15 Y6 2.204542 1_564
F15 Y7 2.204551 1_554
F16 Y1 2.208856 1_655
F16 Y3 2.208856 1_555
F17 Y0 2.208849 1_655
F17 Y3 2.208859 1_545
F18 Y5 2.208805 1_555
F18 Y4 2.208818 1_455
F19 Y1 2.208853 1_545
F19 Y0 2.208861 1_555
F20 Y5 2.208871 1_565
F20 Y2 2.208878 1_455
F21 Y2 2.208796 1_555
F21 Y4 2.208816 1_565
F22 Y7 2.197547 1_555
F22 Y3 2.202163 1_555
F23 Y9 2.197533 1_455
F23 Y0 2.202159 1_555
F24 Y10 2.197484 1_555
F24 Y5 2.202399 1_555
F25 Y9 2.197518 1_455
F25 Y1 2.202168 1_555
F26 Y6 2.197522 1_565
F26 Y1 2.202166 1_555
F27 Y11 2.197526 1_655
F27 Y2 2.202448 1_555
F28 Y7 2.197549 1_555
F28 Y0 2.202167 1_555
F29 Y11 2.197530 1_655
F29 Y4 2.202399 1_555
F30 Y8 2.197526 1_545
F30 Y4 2.202402 1_555
F31 Y10 2.197480 1_555
F31 Y2 2.202402 1_555
F32 Y6 2.197538 1_565
F32 Y3 2.202163 1_555
F33 Y8 2.197521 1_545
F33 Y5 2.202457 1_555
F34 Y8 2.343132 1_555
F34 Y1 2.343997 1_555
F34 Y3 2.344001 1_555
F35 Y10 2.343139 1_555
F35 Y3 2.344011 1_555
F35 Y0 2.344021 1_555
F36 Y6 2.343127 1_554
F36 Y4 2.343806 1_555
F36 Y5 2.343841 1_555
F37 Y11 2.343131 1_555
F37 Y1 2.343998 1_555
F37 Y0 2.344001 1_555
F38 Y7 2.343102 1_554
F38 Y2 2.343757 1_555
F38 Y5 2.343765 1_555
F39 Y9 2.343133 1_554
F39 Y4 2.343807 1_555
F39 Y2 2.343849 1_555
