# generated using pymatgen
data_TbBiRh
_symmetry_space_group_name_H-M   'P 1'
_cell_length_a   7.62266593
_cell_length_b   7.62266593
_cell_length_c   3.98785052
_cell_angle_alpha   90.00000000
_cell_angle_beta   90.00000000
_cell_angle_gamma   119.99999831
_symmetry_Int_Tables_number   1
_chemical_formula_structural   TbBiRh
_chemical_formula_sum   'Tb3 Bi3 Rh3'
_cell_volume   200.67038468
_cell_formula_units_Z   3
loop_
 _symmetry_equiv_pos_site_id
 _symmetry_equiv_pos_as_xyz
  1  'x, y, z'
loop_
 _atom_site_type_symbol
 _atom_site_label
 _atom_site_symmetry_multiplicity
 _atom_site_fract_x
 _atom_site_fract_y
 _atom_site_fract_z
 _atom_site_occupancy
  Tb  Tb0  1  0.60049049  0.00000000  0.00000000  1
  Tb  Tb1  1  0.00000000  0.60049049  -0.00000000  1
  Tb  Tb2  1  0.39950951  0.39950951  0.00000000  1
  Bi  Bi0  1  0.26596805  0.00000000  0.50000000  1
  Bi  Bi1  1  0.00000000  0.26596805  0.50000000  1
  Bi  Bi2  1  0.73403195  0.73403195  0.50000000  1
  Rh  Rh0  1  0.33333300  0.66666700  0.50000000  1
  Rh  Rh1  1  0.66666700  0.33333300  0.50000000  1
  Rh  Rh2  1  -0.00000000  0.00000000  0.00000000  1
loop_
_geom_bond_atom_site_label_1
_geom_bond_atom_site_label_2
_geom_bond_distance
_geom_bond_site_symmetry_2
Bi0 Rh0 2.832760 1_545
Bi0 Rh1 2.832765 1_555
Bi0 Rh2 2.843595 1_556
Bi0 Rh2 2.843595 1_555
Bi0 Tb0 3.236973 1_555
Bi0 Tb0 3.236973 1_556
Bi0 Tb2 3.344547 1_555
Bi0 Tb2 3.344547 1_556
Bi0 Tb1 3.344547 1_546
Bi0 Tb1 3.344547 1_545
Bi1 Rh1 2.832760 1_455
Bi1 Rh0 2.832765 1_555
Bi1 Rh2 2.843595 1_556
Bi1 Rh2 2.843595 1_555
Bi1 Tb1 3.236973 1_555
Bi1 Tb1 3.236973 1_556
Bi1 Tb2 3.344547 1_555
Bi1 Tb2 3.344547 1_556
Bi1 Tb0 3.344547 1_456
Bi1 Tb0 3.344547 1_455
Bi2 Rh0 2.832768 1_555
Bi2 Rh1 2.832768 1_555
Bi2 Rh2 2.843595 1_665
Bi2 Rh2 2.843595 1_666
Bi2 Tb2 3.236974 1_555
Bi2 Tb2 3.236974 1_556
Bi2 Tb0 3.344547 1_565
Bi2 Tb0 3.344547 1_566
Bi2 Tb1 3.344547 1_656
Bi2 Tb1 3.344547 1_655
Rh0 Tb1 3.066688 1_555
Rh0 Tb1 3.066688 1_556
Rh0 Tb0 3.066690 1_565
Rh0 Tb0 3.066690 1_566
Rh0 Tb2 3.066693 1_555
Rh0 Tb2 3.066693 1_556
Rh1 Tb0 3.066688 1_555
Rh1 Tb0 3.066688 1_556
Rh1 Tb1 3.066690 1_656
Rh1 Tb1 3.066690 1_655
Rh1 Tb2 3.066693 1_555
Rh1 Tb2 3.066693 1_556
Rh2 Tb0 3.045328 1_455
Rh2 Tb1 3.045328 1_545
Rh2 Tb2 3.045328 1_555
