# generated using pymatgen
data_AlNi3Se2ClO8
_symmetry_space_group_name_H-M   'P 1'
_cell_length_a   5.58955600
_cell_length_b   8.02417100
_cell_length_c   9.64081300
_cell_angle_alpha   90.00000000
_cell_angle_beta   90.00000000
_cell_angle_gamma   90.00000000
_symmetry_Int_Tables_number   1
_chemical_formula_structural   AlNi3Se2ClO8
_chemical_formula_sum   'Al2 Ni6 Se4 Cl2 O16'
_cell_volume   432.40543676
_cell_formula_units_Z   2
loop_
 _symmetry_equiv_pos_site_id
 _symmetry_equiv_pos_as_xyz
  1  'x, y, z'
loop_
 _atom_site_type_symbol
 _atom_site_label
 _atom_site_symmetry_multiplicity
 _atom_site_fract_x
 _atom_site_fract_y
 _atom_site_fract_z
 _atom_site_occupancy
  Al  Al0  1  0.50000000  0.64777200  0.00000000  1
  Al  Al1  1  0.00000000  0.35222800  0.50000000  1
  Ni  Ni0  1  0.25000000  0.50000000  0.75000000  1
  Ni  Ni1  1  0.25000000  0.50000000  0.25000000  1
  Ni  Ni2  1  0.75000000  0.50000000  0.75000000  1
  Ni  Ni3  1  0.00000000  0.73072100  0.50000000  1
  Ni  Ni4  1  0.50000000  0.26927900  0.00000000  1
  Ni  Ni5  1  0.75000000  0.50000000  0.25000000  1
  Se  Se0  1  0.00000000  0.86181800  0.83129300  1
  Se  Se1  1  0.50000000  0.13818200  0.66870700  1
  Se  Se2  1  0.00000000  0.86181800  0.16870700  1
  Se  Se3  1  0.50000000  0.13818200  0.33129300  1
  Cl  Cl0  1  0.50000000  0.68035400  0.50000000  1
  Cl  Cl1  1  0.00000000  0.31964600  0.00000000  1
  O  O0  1  0.50000000  0.46606600  0.87794000  1
  O  O1  1  0.50000000  0.10143900  0.84151400  1
  O  O2  1  0.00000000  0.89856100  0.34151400  1
  O  O3  1  0.24940700  0.72122300  0.85834100  1
  O  O4  1  0.25059300  0.27877700  0.35834100  1
  O  O5  1  0.74940700  0.27877700  0.35834100  1
  O  O6  1  0.00000000  0.53393400  0.62206000  1
  O  O7  1  0.75059300  0.72122300  0.85834100  1
  O  O8  1  0.75059300  0.72122300  0.14165900  1
  O  O9  1  0.74940700  0.27877700  0.64165900  1
  O  O10  1  0.50000000  0.46606600  0.12206000  1
  O  O11  1  0.00000000  0.53393400  0.37794000  1
  O  O12  1  0.25059300  0.27877700  0.64165900  1
  O  O13  1  0.24940700  0.72122300  0.14165900  1
  O  O14  1  0.00000000  0.89856100  0.65848600  1
  O  O15  1  0.50000000  0.10143900  0.15848600  1
loop_
_geom_bond_atom_site_label_1
_geom_bond_atom_site_label_2
_geom_bond_distance
_geom_bond_site_symmetry_2
Al0 O0 1.873670 1_554
Al0 O10 1.873670 1_555
Al0 O3 2.043160 1_554
Al0 O7 2.043160 1_554
Al0 O13 2.043160 1_555
Al0 O8 2.043160 1_555
Al1 O6 1.873670 1_555
Al1 O11 1.873670 1_555
Al1 O5 2.043160 1_455
Al1 O9 2.043160 1_455
Al1 O12 2.043160 1_555
Al1 O4 2.043160 1_555
Ni0 O0 1.883674 1_555
Ni0 O6 1.883674 1_555
Ni0 O3 2.059629 1_555
Ni0 O12 2.059629 1_555
Ni1 O11 1.883674 1_555
Ni1 O10 1.883674 1_555
Ni1 O13 2.059629 1_555
Ni1 O4 2.059629 1_555
Ni2 O6 1.883674 1_655
Ni2 O0 1.883674 1_555
Ni2 O7 2.059629 1_555
Ni2 O9 2.059629 1_555
Ni3 O6 1.969306 1_555
Ni3 O11 1.969306 1_555
Ni3 O2 2.036760 1_555
Ni3 O14 2.036760 1_555
Ni4 O0 1.969306 1_554
Ni4 O10 1.969306 1_555
Ni4 O15 2.036760 1_555
Ni4 O1 2.036760 1_554
Ni5 O10 1.883674 1_555
Ni5 O11 1.883674 1_655
Ni5 O8 2.059629 1_555
Ni5 O5 2.059629 1_555
Cl0 Ni3 2.823849 1_555
Cl0 Ni3 2.823849 1_655
Cl1 Ni4 2.823849 1_555
Cl1 Ni4 2.823849 1_455
O1 Se1 1.691887 1_555
O2 Se2 1.691887 1_555
O3 Se0 1.812231 1_555
O4 Se3 1.812231 1_555
O5 Se3 1.812231 1_555
O7 Se0 1.812231 1_655
O8 Se2 1.812231 1_655
O9 Se1 1.812231 1_555
O12 Se1 1.812231 1_555
O13 Se2 1.812231 1_555
O14 Se0 1.691887 1_555
O15 Se3 1.691887 1_555
