# generated using pymatgen
data_Tb4FeGe8
_symmetry_space_group_name_H-M   'P 1'
_cell_length_a   3.99653900
_cell_length_b   4.15672000
_cell_length_c   16.00843900
_cell_angle_alpha   90.00000000
_cell_angle_beta   90.00000000
_cell_angle_gamma   90.00000000
_symmetry_Int_Tables_number   1
_chemical_formula_structural   Tb4FeGe8
_chemical_formula_sum   'Tb4 Fe1 Ge8'
_cell_volume   265.94009031
_cell_formula_units_Z   1
loop_
 _symmetry_equiv_pos_site_id
 _symmetry_equiv_pos_as_xyz
  1  'x, y, z'
loop_
 _atom_site_type_symbol
 _atom_site_label
 _atom_site_symmetry_multiplicity
 _atom_site_fract_x
 _atom_site_fract_y
 _atom_site_fract_z
 _atom_site_occupancy
  Tb  Tb0  1  0.25000000  0.00000000  0.39808900  1
  Tb  Tb1  1  0.25000000  0.50000000  0.89485500  1
  Tb  Tb2  1  0.75000000  0.50000000  0.10281100  1
  Tb  Tb3  1  0.75000000  0.00000000  0.60428300  1
  Fe  Fe0  1  0.25000000  0.00000000  0.19027700  1
  Ge  Ge0  1  0.25000000  0.50000000  0.25911900  1
  Ge  Ge1  1  0.25000000  0.00000000  0.75157000  1
  Ge  Ge2  1  0.75000000  0.00000000  0.26037300  1
  Ge  Ge3  1  0.75000000  0.50000000  0.74844000  1
  Ge  Ge4  1  0.25000000  0.00000000  0.04565100  1
  Ge  Ge5  1  0.25000000  0.50000000  0.55191100  1
  Ge  Ge6  1  0.75000000  0.50000000  0.44597900  1
  Ge  Ge7  1  0.75000000  0.00000000  0.94384300  1
loop_
_geom_bond_atom_site_label_1
_geom_bond_atom_site_label_2
_geom_bond_distance
_geom_bond_site_symmetry_2
Fe0 Ge2 2.291779 1_455
Fe0 Ge2 2.291779 1_555
Fe0 Ge4 2.315236 1_555
Fe0 Ge0 2.352467 1_545
Fe0 Ge0 2.352467 1_555
Fe0 Tb2 3.205184 1_445
Fe0 Tb2 3.205184 1_545
Fe0 Tb2 3.205184 1_555
Fe0 Tb2 3.205184 1_455
Ge0 Ge2 2.883239 1_565
Ge0 Ge2 2.883239 1_465
Ge0 Ge2 2.883239 1_455
Ge0 Ge2 2.883239 1_555
Ge0 Tb0 3.044477 1_555
Ge0 Tb0 3.044477 1_565
Ge0 Tb2 3.202237 1_555
Ge0 Tb2 3.202237 1_455
Ge1 Ge3 2.883604 1_545
Ge1 Ge3 2.883604 1_555
Ge1 Ge3 2.883604 1_455
Ge1 Ge3 2.883604 1_445
Ge1 Tb3 3.090707 1_555
Ge1 Tb3 3.090707 1_455
Ge1 Tb1 3.095312 1_555
Ge1 Tb1 3.095312 1_545
Ge2 Tb0 2.975470 1_555
Ge2 Tb0 2.975470 1_655
Ge2 Tb2 3.268285 1_555
Ge2 Tb2 3.268285 1_545
Ge3 Tb1 3.080070 1_555
Ge3 Tb1 3.080070 1_655
Ge3 Tb3 3.105671 1_565
Ge3 Tb3 3.105671 1_555
Ge4 Ge7 2.578621 1_454
Ge4 Ge7 2.578621 1_554
Ge4 Tb2 3.024891 1_445
Ge4 Tb2 3.024891 1_545
Ge4 Tb2 3.024891 1_555
Ge4 Tb2 3.024891 1_455
Ge4 Tb1 3.185438 1_544
Ge4 Tb1 3.185438 1_554
Ge5 Ge6 2.620847 1_455
Ge5 Ge6 2.620847 1_555
Ge5 Tb3 3.002593 1_555
Ge5 Tb3 3.002593 1_465
Ge5 Tb3 3.002593 1_455
Ge5 Tb3 3.002593 1_565
Ge5 Tb0 3.222304 1_565
Ge5 Tb0 3.222304 1_555
Ge6 Tb0 2.983355 1_655
Ge6 Tb0 2.983355 1_555
Ge6 Tb0 2.983355 1_565
Ge6 Tb0 2.983355 1_665
Ge6 Tb3 3.277461 1_555
Ge6 Tb3 3.277461 1_565
Ge7 Tb1 2.987920 1_655
Ge7 Tb1 2.987920 1_545
Ge7 Tb1 2.987920 1_645
Ge7 Tb1 2.987920 1_555
Ge7 Tb2 3.285687 1_556
Ge7 Tb2 3.285687 1_546
