# generated using pymatgen
data_Mn5O3F5
_symmetry_space_group_name_H-M   'P 1'
_cell_length_a   6.35125179
_cell_length_b   11.13754251
_cell_length_c   6.40310679
_cell_angle_alpha   73.42089912
_cell_angle_beta   60.52094837
_cell_angle_gamma   91.13652799
_symmetry_Int_Tables_number   1
_chemical_formula_structural   Mn5O3F5
_chemical_formula_sum   'Mn10 O6 F10'
_cell_volume   370.87092335
_cell_formula_units_Z   2
loop_
 _symmetry_equiv_pos_site_id
 _symmetry_equiv_pos_as_xyz
  1  'x, y, z'
loop_
 _atom_site_type_symbol
 _atom_site_label
 _atom_site_symmetry_multiplicity
 _atom_site_fract_x
 _atom_site_fract_y
 _atom_site_fract_z
 _atom_site_occupancy
  Mn  Mn0  1  0.55418300  0.18885800  0.36512600  1
  Mn  Mn1  1  0.06154800  0.68157600  0.37181900  1
  Mn  Mn2  1  0.46465300  0.48836200  0.98621200  1
  Mn  Mn3  1  0.58103600  0.69169700  0.38733600  1
  Mn  Mn4  1  0.06954900  0.68724700  0.89207800  1
  Mn  Mn5  1  0.96439100  0.98765100  0.98440500  1
  Mn  Mn6  1  0.82301800  0.44381600  0.37464700  1
  Mn  Mn7  1  0.32596100  0.94309300  0.38634100  1
  Mn  Mn8  1  0.07415700  0.19114600  0.37480000  1
  Mn  Mn9  1  0.56463000  0.19148800  0.88285200  1
  O  O0  1  0.63849400  0.05667100  0.14494200  1
  O  O1  1  0.16128300  0.56878300  0.13607300  1
  O  O2  1  0.43098200  0.29644900  0.12788900  1
  O  O3  1  0.90696800  0.78977900  0.15289700  1
  O  O4  1  0.19589000  0.05381300  0.58683400  1
  O  O5  1  0.68284800  0.57516200  0.58773600  1
  F  F0  1  0.18077000  0.05539700  0.12444400  1
  F  F1  1  0.68780800  0.56772700  0.11414200  1
  F  F2  1  0.92424200  0.30817200  0.61306300  1
  F  F3  1  0.42663500  0.80938000  0.62145900  1
  F  F4  1  0.91662800  0.30586200  0.17542600  1
  F  F5  1  0.43593400  0.80943900  0.19910000  1
  F  F6  1  0.69656600  0.09259600  0.60903500  1
  F  F7  1  0.23009500  0.59622000  0.59384400  1
  F  F8  1  0.48350300  0.30555500  0.60662000  1
  F  F9  1  0.01024000  0.81140700  0.59555600  1
loop_
_geom_bond_atom_site_label_1
_geom_bond_atom_site_label_2
_geom_bond_distance
_geom_bond_site_symmetry_2
Mn0 O2 2.126967 1_555
Mn0 O0 2.216913 1_555
Mn0 O4 2.218594 1_555
Mn1 O1 2.104910 1_555
Mn1 O5 2.186363 1_455
Mn1 O3 2.195124 1_455
Mn2 O2 2.030200 1_556
Mn2 O1 2.043228 1_556
Mn2 O5 2.103400 1_555
Mn3 O3 1.909980 1_555
Mn3 O5 1.910176 1_555
Mn4 O1 2.066675 1_556
Mn4 O3 2.144121 1_456
Mn5 O0 2.086108 1_566
Mn5 O3 2.092306 1_556
Mn5 O4 2.094753 1_665
Mn6 O1 2.079504 1_655
Mn6 O5 2.188478 1_555
Mn7 O0 1.922061 1_565
Mn7 O4 1.936814 1_565
Mn8 O2 2.078721 1_555
Mn8 O4 2.162298 1_555
Mn9 O2 2.079458 1_556
Mn9 O0 2.157724 1_556
F0 Mn5 2.195403 1_444
F0 Mn9 2.331883 1_554
F0 Mn7 2.365952 1_545
F0 Mn8 2.381088 1_555
F1 Mn2 2.228742 1_554
F1 Mn4 2.251875 1_654
F1 Mn6 2.359560 1_555
F1 Mn3 2.382066 1_555
F2 Mn9 2.146513 1_555
F2 Mn8 2.165003 1_655
F2 Mn6 2.171291 1_555
F3 Mn7 2.144497 1_555
F3 Mn3 2.156933 1_555
F3 Mn4 2.158965 1_555
F4 Mn8 2.154099 1_655
F4 Mn0 2.167576 1_555
F4 Mn6 2.179395 1_555
F5 Mn3 2.064190 1_555
F5 Mn7 2.092051 1_555
F5 Mn1 2.298655 1_555
F6 Mn8 2.149774 1_655
F6 Mn9 2.163779 1_555
F6 Mn0 2.208915 1_555
F7 Mn3 2.012486 1_555
F7 Mn1 2.199476 1_555
F7 Mn4 2.223425 1_555
F8 Mn6 2.153594 1_555
F8 Mn9 2.156042 1_555
F8 Mn0 2.183747 1_555
F9 Mn7 2.021101 1_555
F9 Mn4 2.210268 1_555
F9 Mn1 2.234029 1_555
