# generated using pymatgen
data_Li7Mn4CoO12
_symmetry_space_group_name_H-M   'P 1'
_cell_length_a   3.04251200
_cell_length_b   5.06975016
_cell_length_c   14.53754071
_cell_angle_alpha   87.27104872
_cell_angle_beta   86.68555651
_cell_angle_gamma   86.44543293
_symmetry_Int_Tables_number   1
_chemical_formula_structural   Li7Mn4CoO12
_chemical_formula_sum   'Li7 Mn4 Co1 O12'
_cell_volume   223.21433235
_cell_formula_units_Z   1
loop_
 _symmetry_equiv_pos_site_id
 _symmetry_equiv_pos_as_xyz
  1  'x, y, z'
loop_
 _atom_site_type_symbol
 _atom_site_label
 _atom_site_symmetry_multiplicity
 _atom_site_fract_x
 _atom_site_fract_y
 _atom_site_fract_z
 _atom_site_occupancy
  Li  Li0  1  0.00000000  0.50000000  0.50000000  1
  Li  Li1  1  0.47875600  0.33160500  0.15448000  1
  Li  Li2  1  0.00504500  0.15479000  0.84741900  1
  Li  Li3  1  0.50000000  0.00000000  0.50000000  1
  Li  Li4  1  0.99495500  0.84521000  0.15258100  1
  Li  Li5  1  0.52124400  0.66839500  0.84552000  1
  Li  Li6  1  0.50000000  0.00000000  0.00000000  1
  Mn  Mn0  1  0.00207300  0.83100700  0.67026700  1
  Mn  Mn1  1  0.99792700  0.16899300  0.32973300  1
  Mn  Mn2  1  0.49801500  0.66884700  0.32983100  1
  Mn  Mn3  1  0.50198500  0.33115300  0.67016900  1
  Co  Co0  1  0.00000000  0.50000000  0.00000000  1
  O  O0  1  0.46692000  0.65641000  0.59052500  1
  O  O1  1  0.97677800  0.49851000  0.25495400  1
  O  O2  1  0.51861200  0.35013300  0.92832100  1
  O  O3  1  0.97236100  0.15626800  0.59136600  1
  O  O4  1  0.47109700  0.99547400  0.25186100  1
  O  O5  1  0.99557700  0.79312000  0.92612000  1
  O  O6  1  0.53308000  0.34359000  0.40947500  1
  O  O7  1  0.00442300  0.20688000  0.07388000  1
  O  O8  1  0.52890300  0.00452600  0.74813900  1
  O  O9  1  0.02763900  0.84373200  0.40863400  1
  O  O10  1  0.48138800  0.64986700  0.07167900  1
  O  O11  1  0.02322200  0.50149000  0.74504600  1
loop_
_geom_bond_atom_site_label_1
_geom_bond_atom_site_label_2
_geom_bond_distance
_geom_bond_site_symmetry_2
Li0 O9 2.143108 1_555
Li0 O3 2.143108 1_455
Li0 O0 2.164330 1_455
Li0 O6 2.164330 1_555
Li0 O0 2.198643 1_555
Li0 O6 2.198643 1_455
Li1 O10 1.966715 1_555
Li1 O7 2.014733 1_655
Li1 O7 2.057847 1_555
Li1 O4 2.163340 1_545
Li1 O1 2.209421 1_455
Li1 O1 2.382859 1_555
Li2 O2 2.069361 1_455
Li2 O5 2.115377 1_445
Li2 O8 2.211764 1_555
Li2 O11 2.249632 1_555
Li2 O8 2.290276 1_455
Li2 O2 2.306691 1_555
Li3 O0 2.136451 1_545
Li3 O6 2.136451 1_555
Li3 O9 2.159847 1_645
Li3 O3 2.159847 1_455
Li3 O3 2.217974 1_555
Li3 O9 2.217974 1_545
Li4 O10 2.069361 1_655
Li4 O7 2.115377 1_665
Li4 O4 2.211764 1_555
Li4 O1 2.249632 1_555
Li4 O4 2.290276 1_655
Li4 O10 2.306691 1_555
Li5 O2 1.966715 1_555
Li5 O5 2.014733 1_455
Li5 O5 2.057847 1_555
Li5 O8 2.163340 1_565
Li5 O11 2.209421 1_655
Li5 O11 2.382859 1_555
Li6 O10 2.017297 1_545
Li6 O2 2.017297 1_554
Li6 O5 2.061787 1_544
Li6 O7 2.061787 1_555
Li6 O5 2.259733 1_444
Li6 O7 2.259733 1_655
Mn0 O11 1.948990 1_555
Mn0 O3 1.963776 1_465
Mn0 O8 1.969089 1_465
Mn0 O0 1.969906 1_555
Mn0 O8 2.259245 1_565
Mn0 O0 2.296328 1_455
Mn1 O1 1.948990 1_555
Mn1 O9 1.963776 1_645
Mn1 O4 1.969089 1_645
Mn1 O6 1.969906 1_555
Mn1 O4 2.259245 1_545
Mn1 O6 2.296328 1_655
Mn2 O1 1.950034 1_555
Mn2 O4 1.961826 1_555
Mn2 O6 1.970209 1_555
Mn2 O9 1.973937 1_555
Mn2 O1 2.214624 1_455
Mn2 O9 2.276490 1_655
Mn3 O11 1.950034 1_555
Mn3 O8 1.961826 1_555
Mn3 O0 1.970209 1_555
Mn3 O3 1.973937 1_555
Mn3 O11 2.214624 1_655
Mn3 O3 2.276490 1_455
Co0 O5 1.791444 1_454
Co0 O7 1.791444 1_555
Co0 O2 1.972168 1_554
Co0 O10 1.972168 1_455
Co0 O10 2.048928 1_555
Co0 O2 2.048928 1_454
