# generated using pymatgen
data_Rb2SrP2O7
_symmetry_space_group_name_H-M   'P 1'
_cell_length_a   6.00007486
_cell_length_b   6.00007486
_cell_length_c   13.70841984
_cell_angle_alpha   75.49723596
_cell_angle_beta   75.49723596
_cell_angle_gamma   59.55143348
_symmetry_Int_Tables_number   1
_chemical_formula_structural   Rb2SrP2O7
_chemical_formula_sum   'Rb4 Sr2 P4 O14'
_cell_volume   407.35939199
_cell_formula_units_Z   2
loop_
 _symmetry_equiv_pos_site_id
 _symmetry_equiv_pos_as_xyz
  1  'x, y, z'
loop_
 _atom_site_type_symbol
 _atom_site_label
 _atom_site_symmetry_multiplicity
 _atom_site_fract_x
 _atom_site_fract_y
 _atom_site_fract_z
 _atom_site_occupancy
  Rb  Rb0  1  0.86779300  0.42678600  0.33566900  1
  Rb  Rb1  1  0.57321400  0.13220700  0.16433100  1
  Rb  Rb2  1  0.13220700  0.57321400  0.66433100  1
  Rb  Rb3  1  0.42678600  0.86779300  0.83566900  1
  Sr  Sr0  1  0.50000000  0.00000000  0.50000000  1
  Sr  Sr1  1  0.00000000  0.50000000  0.00000000  1
  P  P0  1  0.79983400  0.25455900  0.63521500  1
  P  P1  1  0.74544100  0.20016600  0.86478500  1
  P  P2  1  0.20016600  0.74544100  0.36478500  1
  P  P3  1  0.25455900  0.79983400  0.13521500  1
  O  O0  1  0.66062900  0.33937100  0.75000000  1
  O  O1  1  0.33937100  0.66062900  0.25000000  1
  O  O2  1  0.70011100  0.51983300  0.56703500  1
  O  O3  1  0.48016700  0.29988900  0.93296500  1
  O  O4  1  0.29988900  0.48016700  0.43296500  1
  O  O5  1  0.51983300  0.70011100  0.06703500  1
  O  O6  1  0.09699200  0.10625100  0.63361900  1
  O  O7  1  0.89374900  0.90300800  0.86638100  1
  O  O8  1  0.90300800  0.89374900  0.36638100  1
  O  O9  1  0.10625100  0.09699200  0.13361900  1
  O  O10  1  0.08314700  0.68945700  0.12235500  1
  O  O11  1  0.31054300  0.91685300  0.37764500  1
  O  O12  1  0.91685300  0.31054300  0.87764500  1
  O  O13  1  0.68945700  0.08314700  0.62235500  1
loop_
_geom_bond_atom_site_label_1
_geom_bond_atom_site_label_2
_geom_bond_distance
_geom_bond_site_symmetry_2
O0 P1 1.656671 1_555
O0 P0 1.656671 1_555
O0 Rb3 3.151385 1_555
O0 Rb2 3.151385 1_555
O1 P2 1.656671 1_555
O1 P3 1.656671 1_555
O1 Rb0 3.151385 1_555
O1 Rb1 3.151385 1_555
O2 P0 1.527980 1_555
O2 Sr0 2.511388 1_565
O2 Rb0 3.178475 1_555
O2 Rb2 3.213085 1_555
O2 Rb2 3.375007 1_655
O3 P1 1.527980 1_555
O3 Sr1 2.511388 1_556
O3 Rb1 3.178475 1_556
O3 Rb3 3.213085 1_555
O3 Rb3 3.375007 1_545
O4 P2 1.527980 1_555
O4 Sr0 2.511388 1_555
O4 Rb2 3.178475 1_555
O4 Rb0 3.213085 1_555
O4 Rb0 3.375007 1_455
O5 P3 1.527980 1_555
O5 Sr1 2.511388 1_655
O5 Rb3 3.178475 1_554
O5 Rb1 3.213085 1_555
O5 Rb1 3.375007 1_565
O6 P0 1.534101 1_455
O6 Sr0 2.532338 1_555
O6 Rb2 3.022584 1_545
O6 Rb2 3.050807 1_555
O6 Rb3 3.394874 1_545
O7 P1 1.534101 1_565
O7 Sr1 2.532338 1_656
O7 Rb3 3.022584 1_655
O7 Rb3 3.050807 1_555
O7 Rb2 3.394874 1_655
O8 P2 1.534101 1_655
O8 Sr0 2.532338 1_565
O8 Rb0 3.022584 1_565
O8 Rb0 3.050807 1_555
O8 Rb1 3.394874 1_565
O9 P3 1.534101 1_545
O9 Sr1 2.532338 1_555
O9 Rb1 3.022584 1_455
O9 Rb1 3.050807 1_555
O9 Rb0 3.394874 1_455
O10 P3 1.538538 1_555
O10 Sr1 2.510632 1_555
O10 Rb1 2.897497 1_465
O10 Rb1 3.174255 1_555
O10 Rb0 3.250811 1_455
O11 P2 1.538538 1_555
O11 Sr0 2.510632 1_565
O11 Rb0 2.897497 1_465
O11 Rb0 3.174255 1_555
O11 Rb1 3.250811 1_565
O12 P1 1.538538 1_555
O12 Sr1 2.510632 1_656
O12 Rb3 2.897497 1_645
O12 Rb3 3.174255 1_555
O12 Rb2 3.250811 1_655
O13 P0 1.538538 1_555
O13 Sr0 2.510632 1_555
O13 Rb2 2.897497 1_645
O13 Rb2 3.174255 1_555
O13 Rb3 3.250811 1_545
