# generated using pymatgen
data_YFe5Co5Mo2
_symmetry_space_group_name_H-M   'P 1'
_cell_length_a   4.69186979
_cell_length_b   6.47048936
_cell_length_c   6.48943940
_cell_angle_alpha   97.68376599
_cell_angle_beta   111.68448581
_cell_angle_gamma   68.75884568
_symmetry_Int_Tables_number   1
_chemical_formula_structural   YFe5Co5Mo2
_chemical_formula_sum   'Y1 Fe5 Co5 Mo2'
_cell_volume   170.63195340
_cell_formula_units_Z   1
loop_
 _symmetry_equiv_pos_site_id
 _symmetry_equiv_pos_as_xyz
  1  'x, y, z'
loop_
 _atom_site_type_symbol
 _atom_site_label
 _atom_site_symmetry_multiplicity
 _atom_site_fract_x
 _atom_site_fract_y
 _atom_site_fract_z
 _atom_site_occupancy
  Y  Y0  1  0.00000000  0.00000000  0.00000000  1
  Fe  Fe0  1  0.64121100  0.35692300  0.64140600  1
  Fe  Fe1  1  0.35878900  0.64307700  0.35859400  1
  Fe  Fe2  1  0.00000000  0.00000000  0.50000000  1
  Fe  Fe3  1  0.50000000  0.50000000  0.00000000  1
  Fe  Fe4  1  0.00000000  0.50000000  0.00000000  1
  Co  Co0  1  0.71992500  0.78020700  0.21905100  1
  Co  Co1  1  0.28007500  0.21979300  0.78094900  1
  Co  Co2  1  0.49943200  0.77669400  0.77580200  1
  Co  Co3  1  0.50056800  0.22330600  0.22419800  1
  Co  Co4  1  0.50000000  0.00000000  0.50000000  1
  Mo  Mo0  1  0.00203100  0.35602800  0.35785300  1
  Mo  Mo1  1  0.99796900  0.64397200  0.64214700  1
loop_
_geom_bond_atom_site_label_1
_geom_bond_atom_site_label_2
_geom_bond_distance
_geom_bond_site_symmetry_2
Fe0 Fe1 2.426147 1_555
Fe0 Fe4 2.600842 1_656
Fe0 Fe2 2.601413 1_655
Fe0 Fe3 2.613452 1_556
Fe0 Mo0 2.882952 1_555
Fe0 Mo1 2.914780 1_555
Fe0 Mo1 2.916299 1_455
Fe0 Mo0 2.923027 1_655
Fe0 Y0 3.050893 1_656
Fe1 Fe4 2.600842 1_555
Fe1 Fe2 2.601413 1_565
Fe1 Fe3 2.613452 1_555
Fe1 Mo1 2.882952 1_555
Fe1 Mo0 2.914780 1_555
Fe1 Mo0 2.916299 1_655
Fe1 Mo1 2.923027 1_455
Fe1 Y0 3.050893 1_565
Fe2 Mo1 2.597805 1_445
Fe2 Mo0 2.597805 1_555
Fe2 Y0 3.244720 1_556
Fe2 Y0 3.244720 1_555
Fe3 Fe4 2.345935 1_655
Fe3 Fe4 2.345935 1_555
Fe3 Mo0 2.599080 1_655
Fe3 Mo1 2.599080 1_454
Fe3 Y0 3.235866 1_565
Fe3 Y0 3.235866 1_655
Fe4 Mo1 2.610852 1_454
Fe4 Mo0 2.610852 1_555
Fe4 Y0 3.235245 1_555
Fe4 Y0 3.235245 1_565
Co0 Fe3 2.440312 1_555
Co0 Fe2 2.442068 1_665
Co0 Fe4 2.449413 1_655
Co0 Co4 2.458643 1_565
Co0 Fe1 2.621823 1_655
Co0 Fe1 2.629916 1_555
Co0 Co3 2.672477 1_565
Co0 Co2 2.673043 1_554
Co0 Mo1 2.680400 1_555
Co0 Mo0 2.691487 1_655
Co0 Y0 2.994040 1_565
Co0 Y0 3.007530 1_665
Co1 Fe3 2.440312 1_556
Co1 Fe2 2.442068 1_555
Co1 Fe4 2.449413 1_556
Co1 Co4 2.458643 1_555
Co1 Fe0 2.621823 1_455
Co1 Fe0 2.629916 1_555
Co1 Co2 2.672477 1_545
Co1 Co3 2.673043 1_556
Co1 Mo0 2.680400 1_555
Co1 Mo1 2.691487 1_455
Co1 Y0 2.994040 1_656
Co1 Y0 3.007530 1_556
Co2 Fe2 2.433303 1_565
Co2 Fe4 2.441865 1_656
Co2 Co4 2.447241 1_565
Co2 Fe3 2.452013 1_556
Co2 Mo1 2.604279 1_455
Co2 Mo1 2.608754 1_555
Co2 Fe1 2.642035 1_555
Co2 Fe0 2.658304 1_555
Co2 Y0 3.015299 1_666
Co2 Y0 3.033051 1_566
Co3 Fe2 2.433303 1_655
Co3 Fe4 2.441865 1_555
Co3 Co4 2.447241 1_555
Co3 Fe3 2.452013 1_555
Co3 Mo0 2.604279 1_655
Co3 Mo0 2.608754 1_555
Co3 Fe0 2.642035 1_555
Co3 Fe1 2.658304 1_555
Co3 Y0 3.015299 1_555
Co3 Y0 3.033051 1_655
Co4 Fe2 2.345935 1_555
Co4 Fe2 2.345935 1_655
Co4 Mo1 2.586935 1_545
Co4 Mo0 2.586935 1_555
Co4 Fe0 2.589860 1_555
Co4 Fe1 2.589860 1_545
Co4 Y0 3.225910 1_656
Co4 Y0 3.225910 1_555
Mo0 Mo1 2.440577 1_455
Mo0 Y0 3.044487 1_555
Mo1 Y0 3.044487 1_666
