# generated using pymatgen
data_Mo2O7
_symmetry_space_group_name_H-M   'P 1'
_cell_length_a   3.74596300
_cell_length_b   7.45112200
_cell_length_c   9.90838704
_cell_angle_alpha   77.34294925
_cell_angle_beta   90.00000000
_cell_angle_gamma   90.00000000
_symmetry_Int_Tables_number   1
_chemical_formula_structural   Mo2O7
_chemical_formula_sum   'Mo4 O14'
_cell_volume   269.83855993
_cell_formula_units_Z   2
loop_
 _symmetry_equiv_pos_site_id
 _symmetry_equiv_pos_as_xyz
  1  'x, y, z'
loop_
 _atom_site_type_symbol
 _atom_site_label
 _atom_site_symmetry_multiplicity
 _atom_site_fract_x
 _atom_site_fract_y
 _atom_site_fract_z
 _atom_site_occupancy
  Mo  Mo0  1  0.25000000  0.80741100  0.98536000  1
  Mo  Mo1  1  0.75000000  0.19258900  0.01464000  1
  Mo  Mo2  1  0.75000000  0.84763500  0.41988300  1
  Mo  Mo3  1  0.25000000  0.15236500  0.58011700  1
  O  O0  1  0.75000000  0.71686400  0.64499900  1
  O  O1  1  0.25000000  0.28313600  0.35500100  1
  O  O2  1  0.25000000  0.63504000  0.89450100  1
  O  O3  1  0.75000000  0.36496000  0.10549900  1
  O  O4  1  0.75000000  0.89930900  0.96729800  1
  O  O5  1  0.25000000  0.10069100  0.03270200  1
  O  O6  1  0.25000000  0.68925800  0.15493000  1
  O  O7  1  0.75000000  0.31074200  0.84507000  1
  O  O8  1  0.25000000  0.88900900  0.47418400  1
  O  O9  1  0.75000000  0.11099100  0.52581600  1
  O  O10  1  0.25000000  0.01362500  0.74722900  1
  O  O11  1  0.75000000  0.98637500  0.25277100  1
  O  O12  1  0.75000000  0.62564600  0.39750300  1
  O  O13  1  0.25000000  0.37435400  0.60249700  1
loop_
_geom_bond_atom_site_label_1
_geom_bond_atom_site_label_2
_geom_bond_distance
_geom_bond_site_symmetry_2
Mo0 O6 1.717496 1_556
Mo0 O2 1.722429 1_555
Mo0 O4 1.988783 1_455
Mo0 O4 1.988783 1_555
Mo0 O5 2.333375 1_566
Mo0 O10 2.517808 1_565
Mo1 O7 1.717496 1_554
Mo1 O3 1.722429 1_555
Mo1 O5 1.988783 1_555
Mo1 O5 1.988783 1_655
Mo1 O4 2.333375 1_544
Mo1 O11 2.517808 1_545
Mo2 O12 1.716348 1_555
Mo2 O11 1.749359 1_555
Mo2 O8 1.991298 1_555
Mo2 O8 1.991298 1_655
Mo2 O0 2.229860 1_555
Mo2 O9 2.419698 1_565
Mo3 O13 1.716348 1_555
Mo3 O10 1.749359 1_555
Mo3 O9 1.991298 1_555
Mo3 O9 1.991298 1_455
Mo3 O1 2.229860 1_555
Mo3 O8 2.419698 1_545
