# generated using pymatgen
data_TmZnPd
_symmetry_space_group_name_H-M   'P 1'
_cell_length_a   4.03158900
_cell_length_b   7.03633900
_cell_length_c   8.21039000
_cell_angle_alpha   90.00000000
_cell_angle_beta   90.00000000
_cell_angle_gamma   90.00000000
_symmetry_Int_Tables_number   1
_chemical_formula_structural   TmZnPd
_chemical_formula_sum   'Tm4 Zn4 Pd4'
_cell_volume   232.90928033
_cell_formula_units_Z   4
loop_
 _symmetry_equiv_pos_site_id
 _symmetry_equiv_pos_as_xyz
  1  'x, y, z'
loop_
 _atom_site_type_symbol
 _atom_site_label
 _atom_site_symmetry_multiplicity
 _atom_site_fract_x
 _atom_site_fract_y
 _atom_site_fract_z
 _atom_site_occupancy
  Tm  Tm0  1  0.75000000  0.44949200  0.18742500  1
  Tm  Tm1  1  0.75000000  0.94949200  0.31257500  1
  Tm  Tm2  1  0.25000000  0.55050800  0.81257500  1
  Tm  Tm3  1  0.25000000  0.05050800  0.68742500  1
  Zn  Zn0  1  0.75000000  0.86992700  0.93642700  1
  Zn  Zn1  1  0.75000000  0.36992700  0.56357300  1
  Zn  Zn2  1  0.25000000  0.13007300  0.06357300  1
  Zn  Zn3  1  0.25000000  0.63007300  0.43642700  1
  Pd  Pd0  1  0.75000000  0.25518600  0.87698800  1
  Pd  Pd1  1  0.75000000  0.75518600  0.62301200  1
  Pd  Pd2  1  0.25000000  0.74481400  0.12301200  1
  Pd  Pd3  1  0.25000000  0.24481400  0.37698800  1
loop_
_geom_bond_atom_site_label_1
_geom_bond_atom_site_label_2
_geom_bond_distance
_geom_bond_site_symmetry_2
Pd0 Zn2 2.680531 1_556
Pd0 Zn2 2.680531 1_656
Pd0 Zn1 2.696941 1_555
Pd0 Zn0 2.754391 1_545
Pd0 Tm0 2.892347 1_556
Pd0 Tm3 2.925730 1_555
Pd0 Tm3 2.925730 1_655
Pd0 Tm2 2.942982 1_555
Pd0 Tm2 2.942982 1_655
Pd1 Zn3 2.680531 1_555
Pd1 Zn3 2.680531 1_655
Pd1 Zn0 2.696941 1_555
Pd1 Zn1 2.754391 1_555
Pd1 Tm1 2.892347 1_555
Pd1 Tm2 2.925730 1_555
Pd1 Tm2 2.925730 1_655
Pd1 Tm3 2.942982 1_565
Pd1 Tm3 2.942982 1_665
Pd2 Zn0 2.680531 1_454
Pd2 Zn0 2.680531 1_554
Pd2 Zn3 2.696941 1_555
Pd2 Zn2 2.754391 1_565
Pd2 Tm2 2.892347 1_554
Pd2 Tm1 2.925730 1_555
Pd2 Tm1 2.925730 1_455
Pd2 Tm0 2.942982 1_455
Pd2 Tm0 2.942982 1_555
Pd3 Zn1 2.680531 1_555
Pd3 Zn1 2.680531 1_455
Pd3 Zn2 2.696941 1_555
Pd3 Zn3 2.754391 1_555
Pd3 Tm3 2.892347 1_555
Pd3 Tm0 2.925730 1_455
Pd3 Tm0 2.925730 1_555
Pd3 Tm1 2.942982 1_545
Pd3 Tm1 2.942982 1_445
