# generated using pymatgen
data_Ca3Lu
_symmetry_space_group_name_H-M   'P 1'
_cell_length_a   7.50673457
_cell_length_b   7.50673457
_cell_length_c   6.21419800
_cell_angle_alpha   90.00000000
_cell_angle_beta   90.00000000
_cell_angle_gamma   120.00000501
_symmetry_Int_Tables_number   1
_chemical_formula_structural   Ca3Lu
_chemical_formula_sum   'Ca6 Lu2'
_cell_volume   303.26187540
_cell_formula_units_Z   2
loop_
 _symmetry_equiv_pos_site_id
 _symmetry_equiv_pos_as_xyz
  1  'x, y, z'
loop_
 _atom_site_type_symbol
 _atom_site_label
 _atom_site_symmetry_multiplicity
 _atom_site_fract_x
 _atom_site_fract_y
 _atom_site_fract_z
 _atom_site_occupancy
  Ca  Ca0  1  0.34077000  0.17038500  0.75000000  1
  Ca  Ca1  1  0.82961500  0.65923000  0.75000000  1
  Ca  Ca2  1  0.17038500  0.82961500  0.25000000  1
  Ca  Ca3  1  0.65923000  0.82961500  0.25000000  1
  Ca  Ca4  1  0.17038500  0.34077000  0.25000000  1
  Ca  Ca5  1  0.82961500  0.17038500  0.75000000  1
  Lu  Lu0  1  0.66666700  0.33333300  0.25000000  1
  Lu  Lu1  1  0.33333300  0.66666700  0.75000000  1
loop_
_geom_bond_atom_site_label_1
_geom_bond_atom_site_label_2
_geom_bond_distance
_geom_bond_site_symmetry_2
Ca0 Ca1 3.669629 1_555
Ca0 Ca5 3.669630 1_555
Ca0 Lu1 3.753675 1_545
Ca0 Lu1 3.753682 1_555
Ca0 Lu0 3.760691 1_556
Ca0 Lu0 3.760691 1_555
Ca0 Ca2 3.816000 1_545
Ca0 Ca2 3.816000 1_546
Ca0 Ca4 3.816000 1_555
Ca0 Ca4 3.816000 1_556
Ca0 Ca1 3.837105 1_445
Ca0 Ca5 3.837105 1_455
Ca1 Ca5 3.669630 1_555
Ca1 Lu1 3.753675 1_655
Ca1 Lu1 3.753682 1_555
Ca1 Lu0 3.760691 1_556
Ca1 Lu0 3.760691 1_555
Ca1 Ca2 3.816000 1_655
Ca1 Ca2 3.816000 1_656
Ca1 Ca3 3.816000 1_555
Ca1 Ca3 3.816000 1_556
Ca1 Ca5 3.837105 1_565
Ca2 Ca3 3.669630 1_555
Ca2 Ca4 3.669630 1_555
Ca2 Lu0 3.753678 1_455
Ca2 Lu0 3.753678 1_565
Ca2 Lu1 3.760688 1_554
Ca2 Lu1 3.760688 1_555
Ca2 Ca4 3.837105 1_565
Ca2 Ca3 3.837105 1_455
Ca3 Ca4 3.669629 1_555
Ca3 Lu0 3.753675 1_565
Ca3 Lu0 3.753682 1_555
Ca3 Lu1 3.760691 1_554
Ca3 Lu1 3.760691 1_555
Ca3 Ca5 3.816000 1_564
Ca3 Ca5 3.816000 1_565
Ca3 Ca4 3.837105 1_665
Ca4 Lu0 3.753675 1_455
Ca4 Lu0 3.753682 1_555
Ca4 Lu1 3.760691 1_554
Ca4 Lu1 3.760691 1_555
Ca4 Ca5 3.816000 1_455
Ca4 Ca5 3.816000 1_454
Ca5 Lu1 3.753678 1_545
Ca5 Lu1 3.753678 1_655
Ca5 Lu0 3.760688 1_556
Ca5 Lu0 3.760688 1_555
