# generated using pymatgen
data_PRuS
_symmetry_space_group_name_H-M   'P 1'
_cell_length_a   5.77208556
_cell_length_b   5.74396314
_cell_length_c   5.81108362
_cell_angle_alpha   69.39807935
_cell_angle_beta   90.00000000
_cell_angle_gamma   90.00000000
_symmetry_Int_Tables_number   1
_chemical_formula_structural   PRuS
_chemical_formula_sum   'P4 Ru4 S4'
_cell_volume   180.34309912
_cell_formula_units_Z   4
loop_
 _symmetry_equiv_pos_site_id
 _symmetry_equiv_pos_as_xyz
  1  'x, y, z'
loop_
 _atom_site_type_symbol
 _atom_site_label
 _atom_site_symmetry_multiplicity
 _atom_site_fract_x
 _atom_site_fract_y
 _atom_site_fract_z
 _atom_site_occupancy
  P  P0  1  0.12140815  0.84884333  0.87239092  1
  P  P1  1  0.62140815  0.15115667  0.62760908  1
  P  P2  1  0.87859185  0.15115667  0.12760908  1
  P  P3  1  0.37859185  0.84884333  0.37239092  1
  Ru  Ru0  1  0.49754805  0.72619171  0.79275704  1
  Ru  Ru1  1  0.99754805  0.27380829  0.70724296  1
  Ru  Ru2  1  0.50245195  0.27380829  0.20724296  1
  Ru  Ru3  1  0.00245195  0.72619171  0.29275704  1
  S  S0  1  0.87919808  0.66467089  0.69137589  1
  S  S1  1  0.37919808  0.33532911  0.80862411  1
  S  S2  1  0.12080192  0.33532911  0.30862411  1
  S  S3  1  0.62080192  0.66467089  0.19137589  1
loop_
_geom_bond_atom_site_label_1
_geom_bond_atom_site_label_2
_geom_bond_distance
_geom_bond_site_symmetry_2
P0 S0 2.227839 1_455
P0 Ru0 2.377737 1_555
P0 Ru3 2.392458 1_556
P0 Ru1 2.396235 1_465
P1 S1 2.227839 1_555
P1 Ru1 2.377737 1_555
P1 Ru2 2.392458 1_555
P1 Ru0 2.396235 1_545
P2 S2 2.227839 1_655
P2 Ru2 2.377737 1_555
P2 Ru1 2.392458 1_554
P2 Ru3 2.396235 1_645
P3 S3 2.227839 1_555
P3 Ru3 2.377737 1_555
P3 Ru0 2.392458 1_555
P3 Ru2 2.396235 1_565
Ru0 S1 2.317317 1_555
Ru0 S3 2.328239 1_556
Ru0 S0 2.339082 1_555
Ru1 S0 2.317317 1_555
Ru1 S2 2.328239 1_655
Ru1 S1 2.339082 1_655
Ru2 S3 2.317317 1_555
Ru2 S1 2.328239 1_554
Ru2 S2 2.339082 1_555
Ru3 S2 2.317317 1_555
Ru3 S0 2.328239 1_455
Ru3 S3 2.339082 1_455
