# generated using pymatgen
data_Mg14CrCuO16
_symmetry_space_group_name_H-M   'P 1'
_cell_length_a   8.49543591
_cell_length_b   8.59536457
_cell_length_c   4.25420380
_cell_angle_alpha   90.00000000
_cell_angle_beta   90.00000000
_cell_angle_gamma   90.00000000
_symmetry_Int_Tables_number   1
_chemical_formula_structural   Mg14CrCuO16
_chemical_formula_sum   'Mg14 Cr1 Cu1 O16'
_cell_volume   310.64778475
_cell_formula_units_Z   1
loop_
 _symmetry_equiv_pos_site_id
 _symmetry_equiv_pos_as_xyz
  1  'x, y, z'
loop_
 _atom_site_type_symbol
 _atom_site_label
 _atom_site_symmetry_multiplicity
 _atom_site_fract_x
 _atom_site_fract_y
 _atom_site_fract_z
 _atom_site_occupancy
  Mg  Mg0  1  0.50000000  0.00000000  0.00000000  1
  Mg  Mg1  1  0.50000000  0.50000000  0.00000000  1
  Mg  Mg2  1  0.00000000  0.24498460  0.50000000  1
  Mg  Mg3  1  0.00000000  0.75501540  0.50000000  1
  Mg  Mg4  1  0.50000000  0.24895086  0.50000000  1
  Mg  Mg5  1  0.50000000  0.75104914  0.50000000  1
  Mg  Mg6  1  0.24772591  0.00000000  0.50000000  1
  Mg  Mg7  1  0.25070069  0.50000000  0.50000000  1
  Mg  Mg8  1  0.75227409  0.00000000  0.50000000  1
  Mg  Mg9  1  0.74929931  0.50000000  0.50000000  1
  Mg  Mg10  1  0.24865235  0.24608020  0.00000000  1
  Mg  Mg11  1  0.24865235  0.75391980  0.00000000  1
  Mg  Mg12  1  0.75134765  0.24608020  0.00000000  1
  Mg  Mg13  1  0.75134765  0.75391980  0.00000000  1
  Cr  Cr0  1  0.00000000  0.50000000  0.00000000  1
  Cu  Cu0  1  0.00000000  0.00000000  0.00000000  1
  O  O0  1  0.25786132  0.00000000  0.00000000  1
  O  O1  1  0.24701473  0.50000000  0.00000000  1
  O  O2  1  0.74213868  0.00000000  0.00000000  1
  O  O3  1  0.75298527  0.50000000  0.00000000  1
  O  O4  1  0.24894204  0.25051435  0.50000000  1
  O  O5  1  0.24894204  0.74948565  0.50000000  1
  O  O6  1  0.75105796  0.25051435  0.50000000  1
  O  O7  1  0.75105796  0.74948565  0.50000000  1
  O  O8  1  0.00000000  0.00000000  0.50000000  1
  O  O9  1  0.00000000  0.50000000  0.50000000  1
  O  O10  1  0.50000000  0.00000000  0.50000000  1
  O  O11  1  0.50000000  0.50000000  0.50000000  1
  O  O12  1  0.00000000  0.26530392  0.00000000  1
  O  O13  1  0.00000000  0.73469608  0.00000000  1
  O  O14  1  0.50000000  0.25325177  0.00000000  1
  O  O15  1  0.50000000  0.74674823  0.00000000  1
loop_
_geom_bond_atom_site_label_1
_geom_bond_atom_site_label_2
_geom_bond_distance
_geom_bond_site_symmetry_2
Mg0 O0 2.057074 1_555
Mg0 O2 2.057074 1_555
Mg0 O10 2.127102 1_555
Mg0 O10 2.127102 1_554
Mg0 O14 2.176791 1_555
Mg0 O15 2.176791 1_545
Mg1 O15 2.120891 1_555
Mg1 O14 2.120891 1_555
Mg1 O11 2.127102 1_554
Mg1 O11 2.127102 1_555
Mg1 O3 2.149220 1_555
Mg1 O1 2.149220 1_555
Mg2 O8 2.105732 1_555
Mg2 O6 2.115405 1_455
Mg2 O4 2.115405 1_555
Mg2 O12 2.134260 1_556
Mg2 O12 2.134260 1_555
Mg2 O9 2.191950 1_555
Mg3 O8 2.105732 1_565
Mg3 O7 2.115405 1_455
Mg3 O5 2.115405 1_555
Mg3 O13 2.134260 1_555
Mg3 O13 2.134260 1_556
Mg3 O9 2.191950 1_555
Mg4 O14 2.127423 1_556
Mg4 O14 2.127423 1_555
Mg4 O4 2.132889 1_555
Mg4 O6 2.132889 1_555
Mg4 O10 2.139823 1_555
Mg4 O11 2.157859 1_555
Mg5 O15 2.127423 1_556
Mg5 O15 2.127423 1_555
Mg5 O5 2.132889 1_555
Mg5 O7 2.132889 1_555
Mg5 O10 2.139823 1_565
Mg5 O11 2.157859 1_555
Mg6 O8 2.104540 1_555
Mg6 O0 2.128844 1_556
Mg6 O0 2.128844 1_555
Mg6 O10 2.143178 1_555
Mg6 O4 2.153287 1_555
Mg6 O5 2.153287 1_545
Mg7 O11 2.117906 1_555
Mg7 O1 2.127332 1_556
Mg7 O1 2.127332 1_555
Mg7 O9 2.129812 1_555
Mg7 O5 2.144472 1_555
Mg7 O4 2.144472 1_555
Mg8 O8 2.104540 1_655
Mg8 O2 2.128844 1_555
Mg8 O2 2.128844 1_556
Mg8 O10 2.143178 1_555
Mg8 O6 2.153287 1_555
Mg8 O7 2.153287 1_545
Mg9 O11 2.117906 1_555
Mg9 O3 2.127332 1_556
Mg9 O3 2.127332 1_555
Mg9 O9 2.129812 1_655
Mg9 O6 2.144472 1_555
Mg9 O7 2.144472 1_555
Mg10 O0 2.116595 1_555
Mg10 O12 2.118863 1_555
Mg10 O4 2.127445 1_554
Mg10 O4 2.127445 1_555
Mg10 O14 2.136197 1_555
Mg10 O1 2.182578 1_555
Mg11 O0 2.116595 1_565
Mg11 O13 2.118863 1_555
Mg11 O5 2.127445 1_554
Mg11 O5 2.127445 1_555
Mg11 O15 2.136197 1_555
Mg11 O1 2.182578 1_555
Mg12 O2 2.116595 1_555
Mg12 O12 2.118863 1_655
Mg12 O6 2.127445 1_554
Mg12 O6 2.127445 1_555
Mg12 O14 2.136197 1_555
Mg12 O3 2.182578 1_555
Mg13 O2 2.116595 1_565
Mg13 O13 2.118863 1_655
Mg13 O7 2.127445 1_554
Mg13 O7 2.127445 1_555
Mg13 O15 2.136197 1_555
Mg13 O3 2.182578 1_555
Cr0 O12 2.017298 1_555
Cr0 O13 2.017298 1_555
Cr0 O3 2.098498 1_455
Cr0 O1 2.098498 1_555
Cr0 O9 2.127102 1_554
Cr0 O9 2.127102 1_555
Cu0 O8 2.127102 1_555
Cu0 O8 2.127102 1_554
Cu0 O2 2.190644 1_455
Cu0 O0 2.190644 1_555
Cu0 O12 2.280384 1_555
Cu0 O13 2.280384 1_545
