# generated using pymatgen
data_RbPr(WO4)2
_symmetry_space_group_name_H-M   'P 1'
_cell_length_a   5.32167600
_cell_length_b   8.40452400
_cell_length_c   19.16004400
_cell_angle_alpha   90.00000000
_cell_angle_beta   90.00000000
_cell_angle_gamma   90.00000000
_symmetry_Int_Tables_number   1
_chemical_formula_structural   RbPr(WO4)2
_chemical_formula_sum   'Rb4 Pr4 W8 O32'
_cell_volume   856.95507212
_cell_formula_units_Z   4
loop_
 _symmetry_equiv_pos_site_id
 _symmetry_equiv_pos_as_xyz
  1  'x, y, z'
loop_
 _atom_site_type_symbol
 _atom_site_label
 _atom_site_symmetry_multiplicity
 _atom_site_fract_x
 _atom_site_fract_y
 _atom_site_fract_z
 _atom_site_occupancy
  Rb  Rb0  1  0.00000000  0.75000000  0.76938500  1
  Rb  Rb1  1  0.00000000  0.25000000  0.23061500  1
  Rb  Rb2  1  0.50000000  0.25000000  0.73061500  1
  Rb  Rb3  1  0.50000000  0.75000000  0.26938500  1
  Pr  Pr0  1  0.00000000  0.75000000  0.00731000  1
  Pr  Pr1  1  0.00000000  0.25000000  0.99269000  1
  Pr  Pr2  1  0.50000000  0.25000000  0.49269000  1
  Pr  Pr3  1  0.50000000  0.75000000  0.50731000  1
  W  W0  1  0.02137600  0.51776000  0.39943400  1
  W  W1  1  0.97862400  0.48224000  0.60056600  1
  W  W2  1  0.47862400  0.01776000  0.10056600  1
  W  W3  1  0.97862400  0.98224000  0.39943400  1
  W  W4  1  0.52137600  0.98224000  0.89943400  1
  W  W5  1  0.02137600  0.01776000  0.60056600  1
  W  W6  1  0.52137600  0.48224000  0.10056600  1
  W  W7  1  0.47862400  0.51776000  0.89943400  1
  O  O0  1  0.10127600  0.97539600  0.31314600  1
  O  O1  1  0.89872400  0.02460400  0.68685400  1
  O  O2  1  0.39872400  0.47539600  0.18685400  1
  O  O3  1  0.89872400  0.52460400  0.31314600  1
  O  O4  1  0.60127600  0.52460400  0.81314600  1
  O  O5  1  0.10127600  0.47539600  0.68685400  1
  O  O6  1  0.60127600  0.02460400  0.18685400  1
  O  O7  1  0.39872400  0.97539600  0.81314600  1
  O  O8  1  0.27701100  0.84303000  0.09912800  1
  O  O9  1  0.72298900  0.15697000  0.90087200  1
  O  O10  1  0.22298900  0.34303000  0.40087200  1
  O  O11  1  0.72298900  0.65697000  0.09912800  1
  O  O12  1  0.77701100  0.65697000  0.59912800  1
  O  O13  1  0.27701100  0.34303000  0.90087200  1
  O  O14  1  0.77701100  0.15697000  0.40087200  1
  O  O15  1  0.22298900  0.84303000  0.59912800  1
  O  O16  1  0.25739600  0.50235200  0.03587500  1
  O  O17  1  0.74260400  0.49764800  0.96412500  1
  O  O18  1  0.24260400  0.00235200  0.46412500  1
  O  O19  1  0.74260400  0.99764800  0.03587500  1
  O  O20  1  0.75739600  0.99764800  0.53587500  1
  O  O21  1  0.25739600  0.00235200  0.96412500  1
  O  O22  1  0.75739600  0.49764800  0.46412500  1
  O  O23  1  0.24260400  0.50235200  0.53587500  1
  O  O24  1  0.23591000  0.68822800  0.40865600  1
  O  O25  1  0.76409000  0.31177200  0.59134400  1
  O  O26  1  0.26409000  0.18822800  0.09134400  1
  O  O27  1  0.76409000  0.81177200  0.40865600  1
  O  O28  1  0.73591000  0.81177200  0.90865600  1
  O  O29  1  0.23591000  0.18822800  0.59134400  1
  O  O30  1  0.73591000  0.31177200  0.09134400  1
  O  O31  1  0.26409000  0.68822800  0.90865600  1
loop_
_geom_bond_atom_site_label_1
_geom_bond_atom_site_label_2
_geom_bond_distance
_geom_bond_site_symmetry_2
O0 W3 1.778394 1_455
O0 Rb1 2.849115 1_565
O0 Rb3 2.965458 1_555
O1 W5 1.778394 1_655
O1 Rb0 2.849115 1_645
O1 Rb2 2.965458 1_555
O2 W6 1.778394 1_555
O2 Rb3 2.849115 1_555
O2 Rb1 2.965458 1_555
O3 W0 1.778394 1_655
O3 Rb1 2.849115 1_655
O3 Rb3 2.965458 1_555
O4 W7 1.778394 1_555
O4 Rb2 2.849115 1_555
O4 Rb0 2.965458 1_655
O5 W1 1.778394 1_455
O5 Rb0 2.849115 1_555
O5 Rb2 2.965458 1_555
O6 W2 1.778394 1_555
O6 Rb3 2.849115 1_545
O6 Rb1 2.965458 1_655
O7 W4 1.778394 1_555
O7 Rb2 2.849115 1_565
O7 Rb0 2.965458 1_555
O8 W2 1.818921 1_565
O8 Pr0 2.424747 1_555
O9 W4 1.818921 1_545
O9 Pr1 2.424747 1_655
O10 W0 1.818921 1_555
O10 Pr2 2.424747 1_555
O11 W6 1.818921 1_555
O11 Pr0 2.424747 1_655
O12 W1 1.818921 1_555
O12 Pr3 2.424747 1_555
O13 W7 1.818921 1_555
O13 Pr1 2.424747 1_555
O14 W3 1.818921 1_545
O14 Pr2 2.424747 1_555
O15 W5 1.818921 1_565
O15 Pr3 2.424747 1_555
O16 W6 1.881063 1_555
O16 Pr0 2.551061 1_555
O16 Pr1 2.656904 1_554
O17 W7 1.881063 1_555
O17 Pr1 2.551061 1_655
O17 Pr0 2.656904 1_656
O18 W3 1.881063 1_445
O18 Pr2 2.551061 1_555
O18 Pr3 2.656904 1_545
O19 W2 1.881063 1_565
O19 Pr0 2.551061 1_655
O19 Pr1 2.656904 1_664
O20 W5 1.881063 1_665
O20 Pr3 2.551061 1_555
O20 Pr2 2.656904 1_565
O21 W4 1.881063 1_545
O21 Pr1 2.551061 1_555
O21 Pr0 2.656904 1_546
O22 W0 1.881063 1_655
O22 Pr2 2.551061 1_555
O22 Pr3 2.656904 1_555
O23 W1 1.881063 1_455
O23 Pr3 2.551061 1_555
O23 Pr2 2.656904 1_555
O24 W0 1.840459 1_555
O24 Pr3 2.411970 1_555
O24 Rb3 3.060269 1_555
O25 W1 1.840459 1_555
O25 Pr2 2.411970 1_555
O25 Rb2 3.060269 1_555
O26 W2 1.840459 1_555
O26 Pr1 2.411970 1_554
O26 Rb1 3.060269 1_555
O27 W3 1.840459 1_555
O27 Pr3 2.411970 1_555
O27 Rb3 3.060269 1_555
O28 W4 1.840459 1_555
O28 Pr0 2.411970 1_656
O28 Rb0 3.060269 1_655
O29 W5 1.840459 1_555
O29 Pr2 2.411970 1_555
O29 Rb2 3.060269 1_555
O30 W6 1.840459 1_555
O30 Pr1 2.411970 1_654
O30 Rb1 3.060269 1_655
O31 W7 1.840459 1_555
O31 Pr0 2.411970 1_556
O31 Rb0 3.060269 1_555
