# generated using pymatgen
data_Mn10CuGe5
_symmetry_space_group_name_H-M   'P 1'
_cell_length_a   7.06260328
_cell_length_b   7.06260328
_cell_length_c   7.06260328
_cell_angle_alpha   96.68331290
_cell_angle_beta   96.68331290
_cell_angle_gamma   140.10642231
_symmetry_Int_Tables_number   1
_chemical_formula_structural   Mn10CuGe5
_chemical_formula_sum   'Mn10 Cu1 Ge5'
_cell_volume   212.38858634
_cell_formula_units_Z   1
loop_
 _symmetry_equiv_pos_site_id
 _symmetry_equiv_pos_as_xyz
  1  'x, y, z'
loop_
 _atom_site_type_symbol
 _atom_site_label
 _atom_site_symmetry_multiplicity
 _atom_site_fract_x
 _atom_site_fract_y
 _atom_site_fract_z
 _atom_site_occupancy
  Mn  Mn0  1  0.50000000  0.00000000  0.50000000  1
  Mn  Mn1  1  0.00000000  0.50000000  0.50000000  1
  Mn  Mn2  1  0.47742500  0.33040100  0.30346200  1
  Mn  Mn3  1  0.02693900  0.17396300  0.69653800  1
  Mn  Mn4  1  0.52257500  0.82603700  0.85297600  1
  Mn  Mn5  1  0.97306100  0.66959900  0.14702400  1
  Mn  Mn6  1  0.33040100  0.02693900  0.85297600  1
  Mn  Mn7  1  0.17396300  0.47742500  0.14702400  1
  Mn  Mn8  1  0.82603700  0.97306100  0.30346200  1
  Mn  Mn9  1  0.66959900  0.52257500  0.69653800  1
  Cu  Cu0  1  0.00000000  0.00000000  0.00000000  1
  Ge  Ge0  1  0.58804500  0.08804500  0.17609000  1
  Ge  Ge1  1  0.91195500  0.41195500  0.82391000  1
  Ge  Ge2  1  0.41195500  0.58804500  0.50000000  1
  Ge  Ge3  1  0.08804500  0.91195500  0.50000000  1
  Ge  Ge4  1  0.50000000  0.50000000  0.00000000  1
loop_
_geom_bond_atom_site_label_1
_geom_bond_atom_site_label_2
_geom_bond_distance
_geom_bond_site_symmetry_2
Cu0 Ge4 2.409388 1_445
Cu0 Ge4 2.409388 1_555
Cu0 Mn4 2.547217 1_444
Cu0 Mn3 2.547217 1_554
Cu0 Mn9 2.547217 1_444
Cu0 Mn2 2.547217 1_555
Cu0 Mn8 2.547217 1_445
Cu0 Mn7 2.547217 1_555
Cu0 Mn6 2.547217 1_554
Cu0 Mn5 2.547217 1_445
Ge0 Mn0 2.464865 1_555
Ge0 Mn1 2.464865 1_655
Ge0 Mn2 2.491303 1_555
Ge0 Mn8 2.491303 1_545
Ge0 Mn6 2.510813 1_554
Ge0 Mn4 2.510813 1_544
Ge0 Mn5 2.737578 1_555
Ge0 Mn7 2.737578 1_545
Ge0 Mn5 2.756024 1_445
Ge0 Mn7 2.756024 1_655
Ge1 Mn0 2.464865 1_555
Ge1 Mn1 2.464865 1_655
Ge1 Mn3 2.491303 1_655
Ge1 Mn9 2.491303 1_555
Ge1 Mn7 2.510813 1_656
Ge1 Mn5 2.510813 1_556
Ge1 Mn6 2.737578 1_555
Ge1 Mn4 2.737578 1_655
Ge1 Mn4 2.756024 1_545
Ge1 Mn6 2.756024 1_665
Ge2 Mn1 2.464865 1_555
Ge2 Mn0 2.464865 1_565
Ge2 Mn4 2.491303 1_555
Ge2 Mn7 2.491303 1_555
Ge2 Mn9 2.510813 1_555
Ge2 Mn2 2.510813 1_555
Ge2 Mn3 2.737578 1_555
Ge2 Mn8 2.737578 1_555
Ge2 Mn8 2.756024 1_445
Ge2 Mn3 2.756024 1_665
Ge3 Mn1 2.464865 1_555
Ge3 Mn0 2.464865 1_565
Ge3 Mn6 2.491303 1_565
Ge3 Mn5 2.491303 1_455
Ge3 Mn3 2.510813 1_565
Ge3 Mn8 2.510813 1_455
Ge3 Mn9 2.737578 1_565
Ge3 Mn2 2.737578 1_455
Ge3 Mn2 2.756024 1_565
Ge3 Mn9 2.756024 1_455
Ge4 Mn4 2.537252 1_554
Ge4 Mn9 2.537252 1_554
Ge4 Mn2 2.537252 1_555
Ge4 Mn8 2.537252 1_555
Ge4 Mn3 2.537252 1_554
Ge4 Mn5 2.537252 1_555
Ge4 Mn7 2.537252 1_555
Ge4 Mn6 2.537252 1_554
