# generated using pymatgen
data_Al3GeW2
_symmetry_space_group_name_H-M   'P 1'
_cell_length_a   4.85811600
_cell_length_b   4.86535472
_cell_length_c   13.46003803
_cell_angle_alpha   90.17323035
_cell_angle_beta   89.97265475
_cell_angle_gamma   119.91247563
_symmetry_Int_Tables_number   1
_chemical_formula_structural   Al3GeW2
_chemical_formula_sum   'Al9 Ge3 W6'
_cell_volume   275.76514225
_cell_formula_units_Z   3
loop_
 _symmetry_equiv_pos_site_id
 _symmetry_equiv_pos_as_xyz
  1  'x, y, z'
loop_
 _atom_site_type_symbol
 _atom_site_label
 _atom_site_symmetry_multiplicity
 _atom_site_fract_x
 _atom_site_fract_y
 _atom_site_fract_z
 _atom_site_occupancy
  Al  Al0  1  0.86092800  0.14901300  0.75247400  1
  Al  Al1  1  0.30224900  0.15159000  0.41663900  1
  Al  Al2  1  0.29734100  0.15270400  0.91452700  1
  Al  Al3  1  0.17593900  0.35352100  0.08154200  1
  Al  Al4  1  0.17426500  0.35000700  0.58310100  1
  Al  Al5  1  0.17419100  0.82527100  0.25164700  1
  Al  Al6  1  0.18797400  0.81513100  0.75148200  1
  Al  Al7  1  0.63515200  0.81617500  0.41675200  1
  Al  Al8  1  0.63037100  0.82010100  0.91548000  1
  Ge  Ge0  1  0.85058500  0.70357800  0.08181500  1
  Ge  Ge1  1  0.85465400  0.70049300  0.58256100  1
  Ge  Ge2  1  0.85019700  0.15508800  0.25195400  1
  W  W0  1  0.51754600  0.04135900  0.08655500  1
  W  W1  1  0.52219400  0.04175600  0.58497700  1
  W  W2  1  0.51539000  0.48284200  0.24626700  1
  W  W3  1  0.52580600  0.47626300  0.74658000  1
  W  W4  1  0.96653900  0.48325600  0.41671400  1
  W  W5  1  0.95867800  0.48185100  0.91893600  1
loop_
_geom_bond_atom_site_label_1
_geom_bond_atom_site_label_2
_geom_bond_distance
_geom_bond_site_symmetry_2
Al0 Al4 2.645057 1_655
Al0 W5 2.660866 1_555
Al0 W1 2.683867 1_555
Al0 W3 2.788932 1_555
Al0 W3 2.801051 1_655
Al0 W3 2.838000 1_545
Al1 Al5 2.614294 1_545
Al1 Al4 2.631155 1_555
Al1 W1 2.672157 1_555
Al1 W2 2.698915 1_555
Al1 W4 2.797299 1_555
Al1 W4 2.808670 1_455
Al1 W4 2.818539 1_445
Al2 Al3 2.629880 1_556
Al2 W3 2.663979 1_555
Al2 W0 2.717980 1_556
Al2 W5 2.785424 1_555
Al2 W5 2.811061 1_455
Al2 W5 2.830010 1_445
Al3 W5 2.638549 1_454
Al3 W2 2.644162 1_555
Al3 Ge2 2.680266 1_455
Al3 Ge0 2.740977 1_445
Al3 W0 2.753175 1_555
Al3 W0 2.774409 1_455
Al3 Ge0 2.841735 1_555
Al3 Ge0 2.843221 1_455
Al3 W0 2.901355 1_565
Al4 W3 2.661771 1_555
Al4 W4 2.667928 1_455
Al4 Ge1 2.739235 1_445
Al4 W1 2.747152 1_455
Al4 W1 2.763239 1_555
Al4 Ge1 2.821277 1_455
Al4 Ge1 2.865673 1_555
Al4 W1 2.917319 1_565
Al5 W4 2.658774 1_455
Al5 W0 2.662179 1_565
Al5 Ge0 2.667310 1_455
Al5 Ge2 2.751638 1_465
Al5 W2 2.775003 1_565
Al5 W2 2.775919 1_455
Al5 Ge2 2.826812 1_455
Al5 Ge2 2.846822 1_565
Al5 W2 2.877839 1_555
Al6 W1 2.664737 1_565
Al6 W5 2.677433 1_455
Al6 Ge1 2.682898 1_455
Al6 W3 2.789387 1_565
Al6 W3 2.789416 1_455
Al6 W3 2.848548 1_555
Al7 Ge2 2.651898 1_565
Al7 Ge1 2.653921 1_555
Al7 W1 2.686506 1_565
Al7 W2 2.696699 1_555
Al7 W4 2.795759 1_555
Al7 W4 2.813250 1_565
Al7 W4 2.815500 1_455
Al8 Ge0 2.663336 1_556
Al8 W0 2.708116 1_566
Al8 W3 2.712106 1_555
Al8 W5 2.791012 1_565
Al8 W5 2.805851 1_555
Al8 W5 2.828970 1_455
Ge0 W5 2.606829 1_554
Ge0 W2 2.640370 1_555
Ge0 W0 2.793687 1_555
Ge0 W0 2.809327 1_665
Ge0 W0 2.823800 1_565
Ge1 W3 2.624752 1_555
Ge1 W4 2.636912 1_555
Ge1 W1 2.778393 1_555
Ge1 W1 2.811462 1_665
Ge1 W1 2.835620 1_565
Ge2 W4 2.620417 1_555
Ge2 W0 2.641640 1_555
Ge2 W2 2.789634 1_555
Ge2 W2 2.802286 1_655
Ge2 W2 2.835808 1_545
