# generated using pymatgen
data_Er5Ge3C
_symmetry_space_group_name_H-M   'P 1'
_cell_length_a   8.36558664
_cell_length_b   8.36558664
_cell_length_c   6.39010124
_cell_angle_alpha   89.99998481
_cell_angle_beta   90.00001519
_cell_angle_gamma   119.99999210
_symmetry_Int_Tables_number   1
_chemical_formula_structural   Er5Ge3C
_chemical_formula_sum   'Er10 Ge6 C2'
_cell_volume   387.28547397
_cell_formula_units_Z   2
loop_
 _symmetry_equiv_pos_site_id
 _symmetry_equiv_pos_as_xyz
  1  'x, y, z'
loop_
 _atom_site_type_symbol
 _atom_site_label
 _atom_site_symmetry_multiplicity
 _atom_site_fract_x
 _atom_site_fract_y
 _atom_site_fract_z
 _atom_site_occupancy
  Er  Er0  1  0.66666500  0.33333300  -0.00000501  1
  Er  Er1  1  0.33333500  0.66666900  -0.00000501  1
  Er  Er2  1  0.33333500  0.66666900  0.50000601  1
  Er  Er3  1  0.66666500  0.33333300  0.50000601  1
  Er  Er4  1  0.78010471  0.78010571  0.75000000  1
  Er  Er5  1  0.21989529  0.00000100  0.75000000  1
  Er  Er6  1  -0.00000000  0.21989329  0.75000000  1
  Er  Er7  1  0.21990005  0.21989905  0.25000000  1
  Er  Er8  1  0.78009995  0.99999900  0.25000000  1
  Er  Er9  1  0.00000000  0.78010095  0.25000000  1
  Ge  Ge0  1  0.40860529  0.40860529  0.75000000  1
  Ge  Ge1  1  0.59139471  0.00000000  0.75000000  1
  Ge  Ge2  1  0.00000000  0.59139471  0.75000000  1
  Ge  Ge3  1  0.59139451  0.59139351  0.25000000  1
  Ge  Ge4  1  0.40860549  -0.00000000  0.25000000  1
  Ge  Ge5  1  -0.00000000  0.40860549  0.25000000  1
  C  C0  1  -0.00000000  0.00000000  -0.00000104  1
  C  C1  1  0.00000000  -0.00000000  0.50000104  1
loop_
_geom_bond_atom_site_label_1
_geom_bond_atom_site_label_2
_geom_bond_distance
_geom_bond_site_symmetry_2
Er0 Ge0 2.994730 1_554
Er0 Ge1 2.994742 1_554
Er0 Ge2 2.994750 1_654
Er0 Ge3 2.994762 1_555
Er0 Ge4 2.994770 1_555
Er0 Ge5 2.994785 1_655
Er1 Ge1 2.994726 1_564
Er1 Ge2 2.994747 1_554
Er1 Ge0 2.994749 1_554
Er1 Ge4 2.994762 1_565
Er1 Ge3 2.994779 1_555
Er1 Ge5 2.994788 1_555
Er2 Ge1 2.994723 1_565
Er2 Ge2 2.994744 1_555
Er2 Ge0 2.994745 1_555
Er2 Ge4 2.994765 1_565
Er2 Ge3 2.994783 1_555
Er2 Ge5 2.994791 1_555
Er3 Ge0 2.994728 1_555
Er3 Ge1 2.994738 1_555
Er3 Ge2 2.994746 1_655
Er3 Ge3 2.994765 1_555
Er3 Ge4 2.994773 1_555
Er3 Ge5 2.994789 1_655
Er4 Ge1 2.963133 1_565
Er4 Ge2 2.963147 1_655
Er4 Ge0 3.107815 1_555
Er4 Ge3 3.563787 1_556
Er4 Ge3 3.563787 1_555
Er5 Ge0 2.963133 1_555
Er5 Ge2 2.963148 1_545
Er5 Ge1 3.107815 1_555
Er5 Ge4 3.563785 1_556
Er5 Ge4 3.563786 1_555
Er6 Ge0 2.963140 1_555
Er6 Ge1 2.963140 1_455
Er6 Ge2 3.107827 1_555
Er6 Ge5 3.563790 1_555
Er6 Ge5 3.563791 1_556
Er7 Ge4 2.963136 1_555
Er7 Ge5 2.963151 1_555
Er7 Ge3 3.107769 1_555
Er7 Ge0 3.563767 1_554
Er7 Ge0 3.563767 1_555
Er8 Ge3 2.963144 1_555
Er8 Ge5 2.963151 1_665
Er8 Ge4 3.107773 1_565
Er8 Ge1 3.563767 1_564
Er8 Ge1 3.563767 1_565
Er9 Ge3 2.963143 1_455
Er9 Ge4 2.963143 1_565
Er9 Ge5 3.107777 1_555
Er9 Ge2 3.563768 1_555
Er9 Ge2 3.563769 1_554
C0 Er6 2.436382 1_554
C0 Er4 2.436392 1_444
C0 Er5 2.436392 1_554
C0 Er9 2.436427 1_545
C0 Er7 2.436431 1_555
C0 Er8 2.436431 1_445
C1 Er6 2.436383 1_555
C1 Er5 2.436392 1_555
C1 Er4 2.436392 1_445
C1 Er9 2.436428 1_545
C1 Er8 2.436430 1_445
C1 Er7 2.436431 1_555
