# generated using pymatgen
data_MgMn4Cu2(PO4)6
_symmetry_space_group_name_H-M   'P 1'
_cell_length_a   8.35917693
_cell_length_b   8.30749622
_cell_length_c   9.38006093
_cell_angle_alpha   59.20311101
_cell_angle_beta   58.79414886
_cell_angle_gamma   62.36155788
_symmetry_Int_Tables_number   1
_chemical_formula_structural   MgMn4Cu2(PO4)6
_chemical_formula_sum   'Mg1 Mn4 Cu2 P6 O24'
_cell_volume   460.75600837
_cell_formula_units_Z   1
loop_
 _symmetry_equiv_pos_site_id
 _symmetry_equiv_pos_as_xyz
  1  'x, y, z'
loop_
 _atom_site_type_symbol
 _atom_site_label
 _atom_site_symmetry_multiplicity
 _atom_site_fract_x
 _atom_site_fract_y
 _atom_site_fract_z
 _atom_site_occupancy
  Mg  Mg0  1  0.27937400  0.86795300  0.61931900  1
  Mn  Mn0  1  0.13569900  0.14153900  0.15263800  1
  Mn  Mn1  1  0.35245800  0.37491400  0.33950500  1
  Mn  Mn2  1  0.65556200  0.62073800  0.68162700  1
  Mn  Mn3  1  0.84751700  0.85814500  0.85100100  1
  Cu  Cu0  1  0.99520800  0.00260500  0.00091400  1
  Cu  Cu1  1  0.51469600  0.49505600  0.49002500  1
  P  P0  1  0.07791800  0.74382400  0.47388500  1
  P  P1  1  0.45097900  0.04154000  0.74453700  1
  P  P2  1  0.75652800  0.43006600  0.03822200  1
  P  P3  1  0.23892400  0.56108800  0.96817600  1
  P  P4  1  0.53367700  0.96781700  0.23788200  1
  P  P5  1  0.93584200  0.26700700  0.52741700  1
  O  O0  1  0.10596400  0.32548000  0.49347000  1
  O  O1  1  0.28231500  0.55115100  0.10927300  1
  O  O2  1  0.07087400  0.89941300  0.29038800  1
  O  O3  1  0.47043900  0.11749800  0.32047800  1
  O  O4  1  0.08803600  0.81083600  0.59404300  1
  O  O5  1  0.27006000  0.57655000  0.43873600  1
  O  O6  1  0.24967100  0.05429800  0.90090300  1
  O  O7  1  0.46574100  0.23895000  0.58934700  1
  O  O8  1  0.16871600  0.39751000  0.01143800  1
  O  O9  1  0.59189300  0.43972300  0.21981700  1
  O  O10  1  0.09242100  0.77399600  0.90734100  1
  O  O11  1  0.39928200  0.02118100  0.14643900  1
  O  O12  1  0.61232300  0.95492100  0.81617100  1
  O  O13  1  0.91082000  0.22647100  0.07847700  1
  O  O14  1  0.40911000  0.57441800  0.77745100  1
  O  O15  1  0.84474100  0.59504300  0.96433700  1
  O  O16  1  0.50763200  0.77557500  0.41021000  1
  O  O17  1  0.74542300  0.93936300  0.10055200  1
  O  O18  1  0.74273800  0.43715900  0.55184100  1
  O  O19  1  0.96604600  0.21064500  0.38446100  1
  O  O20  1  0.47336000  0.89824300  0.66879200  1
  O  O21  1  0.92213100  0.09757400  0.71477300  1
  O  O22  1  0.68907600  0.43688500  0.91195300  1
  O  O23  1  0.89680300  0.67326100  0.56791000  1
loop_
_geom_bond_atom_site_label_1
_geom_bond_atom_site_label_2
_geom_bond_distance
_geom_bond_site_symmetry_2
Mg0 O4 2.012907 1_555
Mg0 O20 2.045984 1_555
Mg0 O16 2.093231 1_555
Mg0 O14 2.198227 1_555
Mg0 O10 2.224367 1_555
Mn0 O2 1.906173 1_545
Mn0 O8 1.906304 1_555
Mn0 O11 1.934074 1_555
Mn0 O13 2.034032 1_455
Mn0 O19 2.096835 1_455
Mn0 O6 2.406093 1_554
Mn1 O0 1.895827 1_555
Mn1 O9 1.899631 1_555
Mn1 O3 1.956864 1_555
Mn1 O5 2.002126 1_555
Mn1 O1 2.104556 1_555
Mn1 O7 2.502272 1_555
Mn2 O23 1.872316 1_555
Mn2 O14 1.913806 1_555
Mn2 O22 1.982462 1_555
Mn2 O18 2.071177 1_555
Mn2 O20 2.072945 1_555
Mn3 O12 1.883752 1_555
Mn3 O15 1.884196 1_555
Mn3 O21 1.923716 1_565
Mn3 O10 2.091410 1_655
Mn3 O4 2.285074 1_655
Mn3 O17 2.382417 1_556
Cu0 O6 1.989031 1_654
Cu0 O17 2.000514 1_545
Cu0 O13 2.030324 1_555
Cu0 O10 2.138592 1_644
Cu1 O7 1.986228 1_555
Cu1 O16 2.031349 1_555
Cu1 O18 2.051937 1_555
Cu1 O5 2.067149 1_555
O0 P5 1.540441 1_455
O1 P3 1.499269 1_554
O2 P0 1.546935 1_555
O3 P4 1.542133 1_545
O4 P0 1.540251 1_555
O5 P0 1.571351 1_555
O6 P1 1.558961 1_555
O7 P1 1.542997 1_555
O8 P3 1.511370 1_554
O9 P2 1.552496 1_555
O10 P3 1.623201 1_555
O11 P4 1.530171 1_545
O12 P1 1.527033 1_565
O13 P2 1.579091 1_555
O14 P3 1.594577 1_555
O15 P2 1.529016 1_556
O16 P4 1.589120 1_555
O17 P4 1.552146 1_555
O18 P5 1.577229 1_555
O19 P5 1.504497 1_555
O20 P1 1.574379 1_565
O21 P5 1.578228 1_555
O22 P2 1.522378 1_556
O23 P0 1.524450 1_655
