# generated using pymatgen
data_Ba(VN2)2
_symmetry_space_group_name_H-M   'P 1'
_cell_length_a   10.93607600
_cell_length_b   10.93607600
_cell_length_c   10.93607600
_cell_angle_alpha   90.00000000
_cell_angle_beta   90.00000000
_cell_angle_gamma   90.00000000
_symmetry_Int_Tables_number   1
_chemical_formula_structural   Ba(VN2)2
_chemical_formula_sum   'Ba12 V24 N48'
_cell_volume   1307.93017396
_cell_formula_units_Z   12
loop_
 _symmetry_equiv_pos_site_id
 _symmetry_equiv_pos_as_xyz
  1  'x, y, z'
loop_
 _atom_site_type_symbol
 _atom_site_label
 _atom_site_symmetry_multiplicity
 _atom_site_fract_x
 _atom_site_fract_y
 _atom_site_fract_z
 _atom_site_occupancy
  Ba  Ba0  1  0.50000000  0.50000000  0.00000000  1
  Ba  Ba1  1  0.50000000  0.00000000  0.50000000  1
  Ba  Ba2  1  0.00000000  0.50000000  0.50000000  1
  Ba  Ba3  1  0.00000000  0.00000000  0.00000000  1
  Ba  Ba4  1  0.12530000  0.87470000  0.37470000  1
  Ba  Ba5  1  0.87470000  0.37470000  0.12530000  1
  Ba  Ba6  1  0.37470000  0.12530000  0.87470000  1
  Ba  Ba7  1  0.62530000  0.62530000  0.62530000  1
  Ba  Ba8  1  0.87470000  0.12530000  0.62530000  1
  Ba  Ba9  1  0.12530000  0.62530000  0.87470000  1
  Ba  Ba10  1  0.62530000  0.87470000  0.12530000  1
  Ba  Ba11  1  0.37470000  0.37470000  0.37470000  1
  V  V0  1  0.38698500  0.69349900  0.34439900  1
  V  V1  1  0.61301500  0.19349900  0.15560100  1
  V  V2  1  0.11301500  0.30650100  0.84439900  1
  V  V3  1  0.88698500  0.80650100  0.65560100  1
  V  V4  1  0.34439900  0.38698500  0.69349900  1
  V  V5  1  0.15560100  0.61301500  0.19349900  1
  V  V6  1  0.84439900  0.11301500  0.30650100  1
  V  V7  1  0.65560100  0.88698500  0.80650100  1
  V  V8  1  0.69349900  0.34439900  0.38698500  1
  V  V9  1  0.19349900  0.15560100  0.61301500  1
  V  V10  1  0.30650100  0.84439900  0.11301500  1
  V  V11  1  0.80650100  0.65560100  0.88698500  1
  V  V12  1  0.61301500  0.30650100  0.65560100  1
  V  V13  1  0.38698500  0.80650100  0.84439900  1
  V  V14  1  0.88698500  0.69349900  0.15560100  1
  V  V15  1  0.11301500  0.19349900  0.34439900  1
  V  V16  1  0.65560100  0.61301500  0.30650100  1
  V  V17  1  0.84439900  0.38698500  0.80650100  1
  V  V18  1  0.15560100  0.88698500  0.69349900  1
  V  V19  1  0.34439900  0.11301500  0.19349900  1
  V  V20  1  0.30650100  0.65560100  0.61301500  1
  V  V21  1  0.80650100  0.84439900  0.38698500  1
  V  V22  1  0.69349900  0.15560100  0.88698500  1
  V  V23  1  0.19349900  0.34439900  0.11301500  1
  N  N0  1  0.37875900  0.83816200  0.26120400  1
  N  N1  1  0.62124100  0.33816200  0.23879600  1
  N  N2  1  0.12124100  0.16183800  0.76120400  1
  N  N3  1  0.87875900  0.66183800  0.73879600  1
  N  N4  1  0.26120400  0.37875900  0.83816200  1
  N  N5  1  0.23879600  0.62124100  0.33816200  1
  N  N6  1  0.76120400  0.12124100  0.16183800  1
  N  N7  1  0.73879600  0.87875900  0.66183800  1
  N  N8  1  0.83816200  0.26120400  0.37875900  1
  N  N9  1  0.33816200  0.23879600  0.62124100  1
  N  N10  1  0.16183800  0.76120400  0.12124100  1
  N  N11  1  0.66183800  0.73879600  0.87875900  1
  N  N12  1  0.62124100  0.16183800  0.73879600  1
  N  N13  1  0.37875900  0.66183800  0.76120400  1
  N  N14  1  0.87875900  0.83816200  0.23879600  1
  N  N15  1  0.12124100  0.33816200  0.26120400  1
  N  N16  1  0.73879600  0.62124100  0.16183800  1
  N  N17  1  0.76120400  0.37875900  0.66183800  1
  N  N18  1  0.23879600  0.87875900  0.83816200  1
  N  N19  1  0.26120400  0.12124100  0.33816200  1
  N  N20  1  0.16183800  0.73879600  0.62124100  1
  N  N21  1  0.66183800  0.76120400  0.37875900  1
  N  N22  1  0.83816200  0.23879600  0.87875900  1
  N  N23  1  0.33816200  0.26120400  0.12124100  1
  N  N24  1  0.41364800  0.72364000  0.50613700  1
  N  N25  1  0.58635200  0.22364000  0.99386300  1
  N  N26  1  0.08635200  0.27636000  0.00613700  1
  N  N27  1  0.91364800  0.77636000  0.49386300  1
  N  N28  1  0.50613700  0.41364800  0.72364000  1
  N  N29  1  0.99386300  0.58635200  0.22364000  1
  N  N30  1  0.00613700  0.08635200  0.27636000  1
  N  N31  1  0.49386300  0.91364800  0.77636000  1
  N  N32  1  0.72364000  0.50613700  0.41364800  1
  N  N33  1  0.22364000  0.99386300  0.58635200  1
  N  N34  1  0.27636000  0.00613700  0.08635200  1
  N  N35  1  0.77636000  0.49386300  0.91364800  1
  N  N36  1  0.58635200  0.27636000  0.49386300  1
  N  N37  1  0.41364800  0.77636000  0.00613700  1
  N  N38  1  0.91364800  0.72364000  0.99386300  1
  N  N39  1  0.08635200  0.22364000  0.50613700  1
  N  N40  1  0.49386300  0.58635200  0.27636000  1
  N  N41  1  0.00613700  0.41364800  0.77636000  1
  N  N42  1  0.99386300  0.91364800  0.72364000  1
  N  N43  1  0.50613700  0.08635200  0.22364000  1
  N  N44  1  0.27636000  0.49386300  0.58635200  1
  N  N45  1  0.77636000  0.00613700  0.41364800  1
  N  N46  1  0.72364000  0.99386300  0.91364800  1
  N  N47  1  0.22364000  0.50613700  0.08635200  1
loop_
_geom_bond_atom_site_label_1
_geom_bond_atom_site_label_2
_geom_bond_distance
_geom_bond_site_symmetry_2
Ba0 N47 3.167107 1_555
Ba0 N25 3.167107 1_554
Ba0 N40 3.167107 1_555
Ba0 N28 3.167107 1_554
Ba0 N37 3.167107 1_555
Ba0 N35 3.167107 1_554
Ba0 N16 3.422039 1_555
Ba0 N1 3.422039 1_555
Ba0 N11 3.422039 1_554
Ba0 N13 3.422039 1_554
Ba0 N23 3.422039 1_555
Ba0 N4 3.422039 1_554
Ba1 N43 3.167107 1_555
Ba1 N33 3.167107 1_545
Ba1 N36 3.167107 1_555
Ba1 N24 3.167107 1_545
Ba1 N31 3.167107 1_545
Ba1 N45 3.167107 1_555
Ba1 N12 3.422039 1_555
Ba1 N9 3.422039 1_555
Ba1 N7 3.422039 1_545
Ba1 N21 3.422039 1_545
Ba1 N19 3.422039 1_555
Ba1 N0 3.422039 1_545
Ba2 N39 3.167107 1_555
Ba2 N29 3.167107 1_455
Ba2 N44 3.167107 1_555
Ba2 N32 3.167107 1_455
Ba2 N41 3.167107 1_555
Ba2 N27 3.167107 1_455
Ba2 N20 3.422039 1_555
Ba2 N5 3.422039 1_555
Ba2 N3 3.422039 1_455
Ba2 N17 3.422039 1_455
Ba2 N15 3.422039 1_555
Ba2 N8 3.422039 1_455
Ba3 N34 3.167107 1_555
Ba3 N30 3.167107 1_555
Ba3 N26 3.167107 1_555
Ba3 N42 3.167107 1_444
Ba3 N46 3.167107 1_444
Ba3 N38 3.167107 1_444
Ba3 N2 3.422039 1_554
Ba3 N10 3.422039 1_545
Ba3 N6 3.422039 1_455
Ba3 N22 3.422039 1_454
Ba3 N18 3.422039 1_544
Ba3 N14 3.422039 1_445
Ba4 N33 2.865735 1_555
Ba4 N30 2.865735 1_565
Ba4 N27 2.865735 1_455
Ba4 N0 3.063230 1_555
Ba4 N5 3.063230 1_555
Ba4 N10 3.063230 1_555
Ba4 N20 3.104524 1_555
Ba4 N19 3.104524 1_565
Ba4 N14 3.104524 1_455
Ba5 N29 2.865735 1_555
Ba5 N26 2.865735 1_655
Ba5 N35 2.865735 1_554
Ba5 N8 3.063230 1_555
Ba5 N1 3.063230 1_555
Ba5 N6 3.063230 1_555
Ba5 N16 3.104524 1_555
Ba5 N15 3.104524 1_655
Ba5 N22 3.104524 1_554
Ba6 N25 2.865735 1_555
Ba6 N34 2.865735 1_556
Ba6 N31 2.865735 1_545
Ba6 N4 3.063230 1_555
Ba6 N9 3.063230 1_555
Ba6 N2 3.063230 1_555
Ba6 N12 3.104524 1_555
Ba6 N23 3.104524 1_556
Ba6 N18 3.104524 1_545
Ba7 N32 2.865735 1_555
Ba7 N24 2.865735 1_555
Ba7 N28 2.865735 1_555
Ba7 N7 3.063230 1_555
Ba7 N3 3.063230 1_555
Ba7 N11 3.063230 1_555
Ba7 N17 3.104524 1_555
Ba7 N13 3.104524 1_555
Ba7 N21 3.104524 1_555
Ba8 N39 2.865735 1_655
Ba8 N42 2.865735 1_545
Ba8 N45 2.865735 1_555
Ba8 N17 3.063230 1_555
Ba8 N22 3.063230 1_555
Ba8 N12 3.063230 1_555
Ba8 N2 3.104524 1_655
Ba8 N7 3.104524 1_545
Ba8 N8 3.104524 1_555
Ba9 N47 2.865735 1_556
Ba9 N38 2.865735 1_455
Ba9 N41 2.865735 1_555
Ba9 N13 3.063230 1_555
Ba9 N18 3.063230 1_555
Ba9 N20 3.063230 1_555
Ba9 N10 3.104524 1_556
Ba9 N3 3.104524 1_455
Ba9 N4 3.104524 1_555
Ba10 N43 2.865735 1_565
Ba10 N46 2.865735 1_554
Ba10 N37 2.865735 1_555
Ba10 N21 3.063230 1_555
Ba10 N14 3.063230 1_555
Ba10 N16 3.063230 1_555
Ba10 N6 3.104524 1_565
Ba10 N11 3.104524 1_554
Ba10 N0 3.104524 1_555
Ba11 N44 2.865735 1_555
Ba11 N40 2.865735 1_555
Ba11 N36 2.865735 1_555
Ba11 N23 3.063230 1_555
Ba11 N19 3.063230 1_555
Ba11 N15 3.063230 1_555
Ba11 N5 3.104524 1_555
Ba11 N9 3.104524 1_555
Ba11 N1 3.104524 1_555
N0 V10 1.804290 1_555
N0 V0 1.827224 1_555
N1 V8 1.804290 1_555
N1 V1 1.827224 1_555
N2 V9 1.804290 1_555
N2 V2 1.827224 1_555
N3 V11 1.804290 1_555
N3 V3 1.827224 1_555
N4 V2 1.804290 1_555
N4 V4 1.827224 1_555
N5 V0 1.804290 1_555
N5 V5 1.827224 1_555
N6 V1 1.804290 1_555
N6 V6 1.827224 1_555
N7 V3 1.804290 1_555
N7 V7 1.827224 1_555
N8 V6 1.804290 1_555
N8 V8 1.827224 1_555
N9 V4 1.804290 1_555
N9 V9 1.827224 1_555
N10 V5 1.804290 1_555
N10 V10 1.827224 1_555
N11 V7 1.804290 1_555
N11 V11 1.827224 1_555
N12 V22 1.804290 1_555
N12 V12 1.827224 1_555
N13 V20 1.804290 1_555
N13 V13 1.827224 1_555
N14 V21 1.804290 1_555
N14 V14 1.827224 1_555
N15 V23 1.804290 1_555
N15 V15 1.827224 1_555
N16 V14 1.804290 1_555
N16 V16 1.827224 1_555
N17 V12 1.804290 1_555
N17 V17 1.827224 1_555
N18 V13 1.804290 1_555
N18 V18 1.827224 1_555
N19 V15 1.804290 1_555
N19 V19 1.827224 1_555
N20 V18 1.804290 1_555
N20 V20 1.827224 1_555
N21 V16 1.804290 1_555
N21 V21 1.827224 1_555
N22 V17 1.804290 1_555
N22 V22 1.827224 1_555
N23 V19 1.804290 1_555
N23 V23 1.827224 1_555
N24 V20 1.814621 1_555
N24 V0 1.822706 1_555
N25 V22 1.814621 1_555
N25 V1 1.822706 1_556
N26 V23 1.814621 1_555
N26 V2 1.822706 1_554
N27 V21 1.814621 1_555
N27 V3 1.822706 1_555
N28 V12 1.814621 1_555
N28 V4 1.822706 1_555
N29 V14 1.814621 1_555
N29 V5 1.822706 1_655
N30 V15 1.814621 1_555
N30 V6 1.822706 1_455
N31 V13 1.814621 1_555
N31 V7 1.822706 1_555
N32 V16 1.814621 1_555
N32 V8 1.822706 1_555
N33 V18 1.814621 1_555
N33 V9 1.822706 1_565
N34 V19 1.814621 1_555
N34 V10 1.822706 1_545
N35 V17 1.814621 1_555
N35 V11 1.822706 1_555
N36 V8 1.814621 1_555
N36 V12 1.822706 1_555
N37 V10 1.814621 1_555
N37 V13 1.822706 1_554
N38 V11 1.814621 1_555
N38 V14 1.822706 1_556
N39 V9 1.814621 1_555
N39 V15 1.822706 1_555
N40 V0 1.814621 1_555
N40 V16 1.822706 1_555
N41 V2 1.814621 1_555
N41 V17 1.822706 1_455
N42 V3 1.814621 1_555
N42 V18 1.822706 1_655
N43 V1 1.814621 1_555
N43 V19 1.822706 1_555
N44 V4 1.814621 1_555
N44 V20 1.822706 1_555
N45 V6 1.814621 1_555
N45 V21 1.822706 1_545
N46 V7 1.814621 1_555
N46 V22 1.822706 1_565
N47 V5 1.814621 1_555
N47 V23 1.822706 1_555
