# generated using pymatgen
data_H6C2SO4
_symmetry_space_group_name_H-M   'P 1'
_cell_length_a   6.28079400
_cell_length_b   7.16509265
_cell_length_c   9.60896235
_cell_angle_alpha   81.76450128
_cell_angle_beta   70.92415006
_cell_angle_gamma   64.00509680
_symmetry_Int_Tables_number   1
_chemical_formula_structural   H6C2SO4
_chemical_formula_sum   'H12 C4 S2 O8'
_cell_volume   367.33605185
_cell_formula_units_Z   2
loop_
 _symmetry_equiv_pos_site_id
 _symmetry_equiv_pos_as_xyz
  1  'x, y, z'
loop_
 _atom_site_type_symbol
 _atom_site_label
 _atom_site_symmetry_multiplicity
 _atom_site_fract_x
 _atom_site_fract_y
 _atom_site_fract_z
 _atom_site_occupancy
  H  H0  1  0.10356800  0.32775900  0.17049400  1
  H  H1  1  0.60182100  0.67224100  0.82950600  1
  H  H2  1  0.18132700  0.17224100  0.67049400  1
  H  H3  1  0.02406200  0.82775900  0.32950600  1
  H  H4  1  0.32395800  0.41028100  0.03782600  1
  H  H5  1  0.77206500  0.58971900  0.96217400  1
  H  H6  1  0.48423900  0.08971900  0.53782600  1
  H  H7  1  0.11178300  0.91028100  0.46217400  1
  H  H8  1  0.21908000  0.24269300  0.98263700  1
  H  H9  1  0.44441000  0.75730700  0.01736300  1
  H  H10  1  0.21177300  0.25730700  0.48263700  1
  H  H11  1  0.95171800  0.74269300  0.51736300  1
  C  C0  1  0.26330100  0.28448000  0.07194800  1
  C  C1  1  0.61972900  0.71552000  0.92805200  1
  C  C2  1  0.29778100  0.21552000  0.57194800  1
  C  C3  1  0.08524900  0.78448000  0.42805200  1
  S  S0  1  0.72226300  0.00000000  0.00000000  1
  S  S1  1  0.47226300  0.50000000  0.50000000  1
  O  O0  1  0.79617000  0.15605100  0.91767600  1
  O  O1  1  0.86989600  0.84394900  0.08232400  1
  O  O2  1  0.70222100  0.34394900  0.41767600  1
  O  O3  1  0.46384600  0.65605100  0.58232400  1
  O  O4  1  0.45551700  0.10290300  0.11700100  1
  O  O5  1  0.67542100  0.89709700  0.88299900  1
  O  O6  1  0.30841900  0.39709700  0.61700100  1
  O  O7  1  0.32251800  0.60290300  0.38299900  1
loop_
_geom_bond_atom_site_label_1
_geom_bond_atom_site_label_2
_geom_bond_distance
_geom_bond_site_symmetry_2
C0 H0 1.090776 1_555
C0 H4 1.095366 1_555
C0 H8 1.097986 1_554
C0 O4 1.463213 1_555
C1 H1 1.090776 1_555
C1 H5 1.095366 1_555
C1 H9 1.097986 1_556
C1 O5 1.463213 1_555
C2 H2 1.090776 1_555
C2 H6 1.095366 1_555
C2 H10 1.097986 1_555
C2 O6 1.463209 1_555
C3 H3 1.090776 1_555
C3 H7 1.095362 1_555
C3 H11 1.097983 1_455
C3 O7 1.463213 1_555
O0 S0 1.432825 1_556
O1 S0 1.432822 1_565
O2 S1 1.432825 1_555
O3 S1 1.432825 1_555
O4 S0 1.593098 1_555
O5 S0 1.593098 1_566
O6 S1 1.593102 1_555
O7 S1 1.593098 1_555
