# generated using pymatgen
data_C2SNOF
_symmetry_space_group_name_H-M   'P 1'
_cell_length_a   4.25654300
_cell_length_b   15.08457600
_cell_length_c   15.20194500
_cell_angle_alpha   90.00000000
_cell_angle_beta   90.00000000
_cell_angle_gamma   90.00000000
_symmetry_Int_Tables_number   1
_chemical_formula_structural   C2SNOF
_chemical_formula_sum   'C16 S8 N8 O8 F8'
_cell_volume   976.08870983
_cell_formula_units_Z   8
loop_
 _symmetry_equiv_pos_site_id
 _symmetry_equiv_pos_as_xyz
  1  'x, y, z'
loop_
 _atom_site_type_symbol
 _atom_site_label
 _atom_site_symmetry_multiplicity
 _atom_site_fract_x
 _atom_site_fract_y
 _atom_site_fract_z
 _atom_site_occupancy
  C  C0  1  0.30053200  0.01508400  0.83076800  1
  C  C1  1  0.69946800  0.51508400  0.16923200  1
  C  C2  1  0.30053200  0.51508400  0.66923200  1
  C  C3  1  0.69946800  0.01508400  0.33076800  1
  C  C4  1  0.26723200  0.00263700  0.67502000  1
  C  C5  1  0.73276800  0.50263700  0.32498000  1
  C  C6  1  0.26723200  0.50263700  0.82498000  1
  C  C7  1  0.73276800  0.00263700  0.17502000  1
  C  C8  1  0.81792300  0.24559500  0.88696500  1
  C  C9  1  0.18207700  0.74559500  0.11303500  1
  C  C10  1  0.81792300  0.74559500  0.61303500  1
  C  C11  1  0.18207700  0.24559500  0.38696500  1
  C  C12  1  0.76841100  0.25767200  0.73183300  1
  C  C13  1  0.23158900  0.75767200  0.26816700  1
  C  C14  1  0.76841100  0.75767200  0.76816700  1
  C  C15  1  0.23158900  0.25767200  0.23183300  1
  S  S0  1  0.41542600  0.99800500  0.92564100  1
  S  S1  1  0.58457400  0.49800500  0.07435900  1
  S  S2  1  0.41542600  0.49800500  0.57435900  1
  S  S3  1  0.58457400  0.99800500  0.42564100  1
  S  S4  1  0.94161400  0.26333500  0.98077600  1
  S  S5  1  0.05838600  0.76333500  0.01922400  1
  S  S6  1  0.94161400  0.76333500  0.51922400  1
  S  S7  1  0.05838600  0.26333500  0.48077600  1
  N  N0  1  0.19604300  0.03314700  0.75744500  1
  N  N1  1  0.80395700  0.53314700  0.24255500  1
  N  N2  1  0.19604300  0.53314700  0.74255500  1
  N  N3  1  0.80395700  0.03314700  0.25744500  1
  N  N4  1  0.70585500  0.22670800  0.81462200  1
  N  N5  1  0.29414500  0.72670800  0.18537800  1
  N  N6  1  0.70585500  0.72670800  0.68537800  1
  N  N7  1  0.29414500  0.22670800  0.31462200  1
  O  O0  1  0.44410500  0.94450200  0.65286700  1
  O  O1  1  0.55589500  0.44450200  0.34713300  1
  O  O2  1  0.44410500  0.44450200  0.84713300  1
  O  O3  1  0.55589500  0.94450200  0.15286700  1
  O  O4  1  0.94270800  0.31613400  0.70897500  1
  O  O5  1  0.05729200  0.81613400  0.29102500  1
  O  O6  1  0.94270800  0.81613400  0.79102500  1
  O  O7  1  0.05729200  0.31613400  0.20897500  1
  F  F0  1  0.10137400  0.05026200  0.61428300  1
  F  F1  1  0.89862600  0.55026200  0.38571700  1
  F  F2  1  0.10137400  0.55026200  0.88571700  1
  F  F3  1  0.89862600  0.05026200  0.11428300  1
  F  F4  1  0.59805500  0.21035900  0.67172200  1
  F  F5  1  0.40194500  0.71035900  0.32827800  1
  F  F6  1  0.59805500  0.71035900  0.82827800  1
  F  F7  1  0.40194500  0.21035900  0.17172200  1
loop_
_geom_bond_atom_site_label_1
_geom_bond_atom_site_label_2
_geom_bond_distance
_geom_bond_site_symmetry_2
C0 N0 1.230652 1_555
C0 S0 1.544552 1_545
C1 N1 1.230652 1_555
C1 S1 1.544552 1_555
C2 N2 1.230652 1_555
C2 S2 1.544552 1_555
C3 N3 1.230652 1_555
C3 S3 1.544552 1_545
C4 O0 1.203848 1_545
C4 F0 1.366394 1_555
C4 N0 1.368829 1_555
C5 O1 1.203848 1_555
C5 F1 1.366394 1_555
C5 N1 1.368829 1_555
C6 O2 1.203848 1_555
C6 F2 1.366394 1_555
C6 N2 1.368829 1_555
C7 O3 1.203848 1_545
C7 F3 1.366394 1_555
C7 N3 1.368829 1_555
C8 N4 1.232144 1_555
C8 S4 1.543566 1_555
C9 N5 1.232144 1_555
C9 S5 1.543566 1_555
C10 N6 1.232144 1_555
C10 S6 1.543566 1_555
C11 N7 1.232144 1_555
C11 S7 1.543566 1_555
C12 O4 1.203690 1_555
C12 F4 1.367557 1_555
C12 N4 1.368584 1_555
C13 O5 1.203690 1_555
C13 F5 1.367557 1_555
C13 N5 1.368584 1_555
C14 O6 1.203690 1_555
C14 F6 1.367557 1_555
C14 N6 1.368584 1_555
C15 O7 1.203690 1_555
C15 F7 1.367557 1_555
C15 N7 1.368584 1_555
