# generated using pymatgen
data_CaDy2(GeO3)4
_symmetry_space_group_name_H-M   'P 1'
_cell_length_a   10.11461039
_cell_length_b   10.11461039
_cell_length_c   5.11217000
_cell_angle_alpha   90.00000000
_cell_angle_beta   90.00000000
_cell_angle_gamma   90.11491026
_symmetry_Int_Tables_number   1
_chemical_formula_structural   CaDy2(GeO3)4
_chemical_formula_sum   'Ca2 Dy4 Ge8 O24'
_cell_volume   523.00125526
_cell_formula_units_Z   2
loop_
 _symmetry_equiv_pos_site_id
 _symmetry_equiv_pos_as_xyz
  1  'x, y, z'
loop_
 _atom_site_type_symbol
 _atom_site_label
 _atom_site_symmetry_multiplicity
 _atom_site_fract_x
 _atom_site_fract_y
 _atom_site_fract_z
 _atom_site_occupancy
  Ca  Ca0  1  0.50000000  0.50000000  0.50000000  1
  Ca  Ca1  1  0.00000000  0.00000000  0.50000000  1
  Dy  Dy0  1  0.00000000  0.50000000  0.50000000  1
  Dy  Dy1  1  0.50000000  0.00000000  0.50000000  1
  Dy  Dy2  1  0.75000000  0.75000000  0.50000000  1
  Dy  Dy3  1  0.25000000  0.25000000  0.50000000  1
  Ge  Ge0  1  0.75116500  0.02107000  0.99881300  1
  Ge  Ge1  1  0.24883500  0.97893000  0.00118700  1
  Ge  Ge2  1  0.25116500  0.52107000  0.00118700  1
  Ge  Ge3  1  0.74883500  0.47893000  0.99881300  1
  Ge  Ge4  1  0.02107000  0.75116500  0.00118700  1
  Ge  Ge5  1  0.97893000  0.24883500  0.99881300  1
  Ge  Ge6  1  0.52107000  0.25116500  0.99881300  1
  Ge  Ge7  1  0.47893000  0.74883500  0.00118700  1
  O  O0  1  0.87094800  0.12905200  0.15673000  1
  O  O1  1  0.37491600  0.87491600  0.16179800  1
  O  O2  1  0.12508400  0.62508400  0.16179800  1
  O  O3  1  0.62905200  0.37094800  0.15673000  1
  O  O4  1  0.12905200  0.87094800  0.84327000  1
  O  O5  1  0.62508400  0.12508400  0.83820200  1
  O  O6  1  0.87491600  0.37491600  0.83820200  1
  O  O7  1  0.37094800  0.62905200  0.84327000  1
  O  O8  1  0.56620300  0.67682500  0.25539100  1
  O  O9  1  0.05989400  0.32769900  0.25804500  1
  O  O10  1  0.44010600  0.17230100  0.25804500  1
  O  O11  1  0.93379700  0.82317500  0.25539100  1
  O  O12  1  0.43379700  0.32317500  0.74460900  1
  O  O13  1  0.94010600  0.67230100  0.74195500  1
  O  O14  1  0.55989400  0.82769900  0.74195500  1
  O  O15  1  0.06620300  0.17682500  0.74460900  1
  O  O16  1  0.67682500  0.56620300  0.74460900  1
  O  O17  1  0.32769900  0.05989400  0.74195500  1
  O  O18  1  0.17230100  0.44010600  0.74195500  1
  O  O19  1  0.82317500  0.93379700  0.74460900  1
  O  O20  1  0.32317500  0.43379700  0.25539100  1
  O  O21  1  0.67230100  0.94010600  0.25804500  1
  O  O22  1  0.82769900  0.55989400  0.25804500  1
  O  O23  1  0.17682500  0.06620300  0.25539100  1
loop_
_geom_bond_atom_site_label_1
_geom_bond_atom_site_label_2
_geom_bond_distance
_geom_bond_site_symmetry_2
Ca0 O16 2.281684 1_555
Ca0 O12 2.281684 1_555
Ca0 O8 2.281684 1_555
Ca0 O20 2.281684 1_555
Ca0 O7 2.548337 1_555
Ca0 O3 2.548337 1_555
Ca1 O19 2.281684 1_445
Ca1 O15 2.281684 1_555
Ca1 O23 2.281684 1_555
Ca1 O11 2.281684 1_445
Ca1 O0 2.548337 1_455
Ca1 O4 2.548337 1_545
Dy0 O9 2.222250 1_555
Dy0 O13 2.222250 1_455
Dy0 O22 2.222250 1_455
Dy0 O18 2.222250 1_555
Dy0 O6 2.486800 1_455
Dy0 O2 2.486800 1_555
Dy1 O14 2.222250 1_545
Dy1 O17 2.222250 1_555
Dy1 O10 2.222250 1_555
Dy1 O21 2.222250 1_545
Dy1 O1 2.486800 1_545
Dy1 O5 2.486800 1_555
Dy2 O16 2.358390 1_555
Dy2 O8 2.358390 1_555
Dy2 O11 2.358390 1_555
Dy2 O19 2.358390 1_555
Dy2 O22 2.418883 1_555
Dy2 O13 2.418883 1_555
Dy2 O14 2.418883 1_555
Dy2 O21 2.418883 1_555
Dy3 O20 2.358390 1_555
Dy3 O23 2.358390 1_555
Dy3 O15 2.358390 1_555
Dy3 O12 2.358390 1_555
Dy3 O10 2.418883 1_555
Dy3 O9 2.418883 1_555
Dy3 O18 2.418883 1_555
Dy3 O17 2.418883 1_555
Ge0 O19 1.732363 1_545
Ge0 O21 1.749444 1_546
Ge0 O0 1.818568 1_556
Ge0 O5 1.847339 1_555
Ge1 O23 1.732363 1_565
Ge1 O17 1.749444 1_564
Ge1 O4 1.818568 1_554
Ge1 O1 1.847339 1_555
Ge2 O20 1.732363 1_555
Ge2 O18 1.749444 1_554
Ge2 O7 1.818568 1_554
Ge2 O2 1.847339 1_555
Ge3 O16 1.732363 1_555
Ge3 O22 1.749444 1_556
Ge3 O3 1.818568 1_556
Ge3 O6 1.847339 1_555
Ge4 O11 1.732363 1_455
Ge4 O13 1.749444 1_454
Ge4 O4 1.818568 1_554
Ge4 O2 1.847339 1_555
Ge5 O15 1.732363 1_655
Ge5 O9 1.749444 1_656
Ge5 O0 1.818568 1_556
Ge5 O6 1.847339 1_555
Ge6 O12 1.732363 1_555
Ge6 O10 1.749444 1_556
Ge6 O3 1.818568 1_556
Ge6 O5 1.847339 1_555
Ge7 O8 1.732363 1_555
Ge7 O14 1.749444 1_554
Ge7 O7 1.818568 1_554
Ge7 O1 1.847339 1_555
