# generated using pymatgen
data_ThGeTe
_symmetry_space_group_name_H-M   'P 1'
_cell_length_a   9.68155790
_cell_length_b   9.68155790
_cell_length_c   9.68155790
_cell_angle_alpha   154.75576360
_cell_angle_beta   154.75576360
_cell_angle_gamma   36.00203648
_symmetry_Int_Tables_number   1
_chemical_formula_structural   ThGeTe
_chemical_formula_sum   'Th2 Ge2 Te2'
_cell_volume   164.84728141
_cell_formula_units_Z   2
loop_
 _symmetry_equiv_pos_site_id
 _symmetry_equiv_pos_as_xyz
  1  'x, y, z'
loop_
 _atom_site_type_symbol
 _atom_site_label
 _atom_site_symmetry_multiplicity
 _atom_site_fract_x
 _atom_site_fract_y
 _atom_site_fract_z
 _atom_site_occupancy
  Th  Th0  1  0.87779133  0.87779133  -0.00000000  1
  Th  Th1  1  0.12220867  0.12220867  0.00000000  1
  Ge  Ge0  1  0.00000000  0.50000000  0.50000000  1
  Ge  Ge1  1  0.50000000  0.00000000  0.50000000  1
  Te  Te0  1  0.68879056  0.68879056  0.00000000  1
  Te  Te1  1  0.31120944  0.31120944  -0.00000000  1
loop_
_geom_bond_atom_site_label_1
_geom_bond_atom_site_label_2
_geom_bond_distance
_geom_bond_site_symmetry_2
Ge0 Ge1 2.991930 1_566
Ge0 Ge1 2.991930 1_465
Ge0 Ge1 2.991930 1_555
Ge0 Ge1 2.991930 1_454
Ge0 Th0 3.088789 1_456
Ge0 Th1 3.088789 1_555
Ge0 Th0 3.088789 1_445
Ge0 Th1 3.088789 1_566
Ge1 Th1 3.088789 1_555
Ge1 Th0 3.088789 1_445
Ge1 Th1 3.088789 1_656
Ge1 Th0 3.088789 1_546
Te0 Th1 3.233424 1_666
Te0 Th1 3.233424 1_565
Te0 Th1 3.233424 1_655
Te0 Th1 3.233424 1_554
Te0 Th0 3.480508 1_555
Te1 Th0 3.233424 1_545
Te1 Th0 3.233424 1_556
Te1 Th0 3.233424 1_455
Te1 Th0 3.233424 1_444
Te1 Th1 3.480508 1_555
