# generated using pymatgen
data_Ca3Co2(TeO6)2
_symmetry_space_group_name_H-M   'P 1'
_cell_length_a   5.38699100
_cell_length_b   5.50484231
_cell_length_c   7.81994470
_cell_angle_alpha   90.60186214
_cell_angle_beta   90.87371276
_cell_angle_gamma   92.02575314
_symmetry_Int_Tables_number   1
_chemical_formula_structural   Ca3Co2(TeO6)2
_chemical_formula_sum   'Ca3 Co2 Te2 O12'
_cell_volume   231.71080882
_cell_formula_units_Z   1
loop_
 _symmetry_equiv_pos_site_id
 _symmetry_equiv_pos_as_xyz
  1  'x, y, z'
loop_
 _atom_site_type_symbol
 _atom_site_label
 _atom_site_symmetry_multiplicity
 _atom_site_fract_x
 _atom_site_fract_y
 _atom_site_fract_z
 _atom_site_occupancy
  Ca  Ca0  1  0.98918300  0.05197800  0.25146800  1
  Ca  Ca1  1  0.00767700  0.95338900  0.74900400  1
  Ca  Ca2  1  0.47990800  0.44373400  0.75274600  1
  Co  Co0  1  0.50184700  0.99264300  0.01555200  1
  Co  Co1  1  0.98672600  0.50122200  0.48295200  1
  Te  Te0  1  0.99866200  0.50483300  0.00562400  1
  Te  Te1  1  0.49758000  0.98560500  0.49566300  1
  O  O0  1  0.71722200  0.28326600  0.46167000  1
  O  O1  1  0.19863300  0.22308900  0.95344700  1
  O  O2  1  0.80117800  0.81309800  0.46510400  1
  O  O3  1  0.28981800  0.71821800  0.94601700  1
  O  O4  1  0.90880600  0.52032500  0.76250100  1
  O  O5  1  0.58270600  0.02127300  0.73843700  1
  O  O6  1  0.28343200  0.70627100  0.55579300  1
  O  O7  1  0.22009600  0.19507300  0.54147600  1
  O  O8  1  0.08650600  0.47664500  0.24244300  1
  O  O9  1  0.70882400  0.28165800  0.03718500  1
  O  O10  1  0.40761000  0.97513700  0.25759900  1
  O  O11  1  0.82058300  0.80095100  0.03646200  1
loop_
_geom_bond_atom_site_label_1
_geom_bond_atom_site_label_2
_geom_bond_distance
_geom_bond_site_symmetry_2
Ca0 O10 2.307934 1_645
Ca0 O11 2.318887 1_545
Ca0 O2 2.355741 1_545
Ca0 O8 2.379654 1_655
Ca0 O0 2.575023 1_555
Ca0 O9 2.605725 1_555
Ca0 O7 2.667984 1_655
Ca0 O1 2.764555 1_654
Ca1 O5 2.332980 1_465
Ca1 O1 2.368615 1_565
Ca1 O7 2.389038 1_565
Ca1 O4 2.428017 1_455
Ca1 O3 2.543451 1_555
Ca1 O6 2.551111 1_555
Ca1 O2 2.567209 1_455
Ca1 O11 2.611894 1_456
Ca2 O4 2.333867 1_555
Ca2 O6 2.384576 1_555
Ca2 O3 2.392602 1_555
Ca2 O5 2.411427 1_555
Ca2 O1 2.493371 1_555
Ca2 O7 2.511701 1_555
Ca2 O9 2.701861 1_556
Ca2 O0 2.778859 1_555
Co0 O9 1.914735 1_565
Co0 O3 1.929824 1_554
Co0 O10 1.969606 1_555
Co0 O11 2.052218 1_555
Co0 O1 2.156016 1_564
Co0 O5 2.222988 1_564
Co1 O0 1.854806 1_555
Co1 O8 1.968537 1_655
Co1 O6 1.996114 1_655
Co1 O2 2.021922 1_555
Co1 O7 2.185999 1_655
Co1 O4 2.234363 1_555
O0 Te1 2.009293 1_545
O1 Te0 1.962301 1_456
O2 Te1 1.936656 1_555
O3 Te0 1.990144 1_456
O4 Te0 1.958171 1_556
O5 Te1 1.952516 1_545
O6 Te1 1.955182 1_555
O7 Te1 1.954970 1_545
O8 Te0 1.913658 1_455
O9 Te0 1.972453 1_555
O10 Te1 1.916301 1_555
O11 Te0 1.935187 1_555
