# generated using pymatgen
data_Sn5(GeN3)2
_symmetry_space_group_name_H-M   'P 1'
_cell_length_a   5.74280682
_cell_length_b   7.10310896
_cell_length_c   14.77184992
_cell_angle_alpha   90.00000047
_cell_angle_beta   94.04329666
_cell_angle_gamma   128.20196312
_symmetry_Int_Tables_number   1
_chemical_formula_structural   Sn5(GeN3)2
_chemical_formula_sum   'Sn10 Ge4 N12'
_cell_volume   471.61111637
_cell_formula_units_Z   2
loop_
 _symmetry_equiv_pos_site_id
 _symmetry_equiv_pos_as_xyz
  1  'x, y, z'
loop_
 _atom_site_type_symbol
 _atom_site_label
 _atom_site_symmetry_multiplicity
 _atom_site_fract_x
 _atom_site_fract_y
 _atom_site_fract_z
 _atom_site_occupancy
  Sn  Sn0  1  0.14997854  0.78958966  0.97159089  1
  Sn  Sn1  1  0.85002146  0.63961112  0.52840911  1
  Sn  Sn2  1  0.85002146  0.21041034  0.02840911  1
  Sn  Sn3  1  0.14997854  0.36038888  0.47159089  1
  Sn  Sn4  1  0.26428037  0.21878159  0.68339559  1
  Sn  Sn5  1  0.73571963  0.95450122  0.81660441  1
  Sn  Sn6  1  0.73571963  0.78121841  0.31660441  1
  Sn  Sn7  1  0.26428037  0.04549878  0.18339559  1
  Sn  Sn8  1  0.00000000  0.59913096  0.75000000  1
  Sn  Sn9  1  -0.00000000  0.40086904  0.25000000  1
  Ge  Ge0  1  0.52948279  0.97471313  0.59316607  1
  Ge  Ge1  1  0.47051721  0.44523035  0.90683393  1
  Ge  Ge2  1  0.47051721  0.02528687  0.40683393  1
  Ge  Ge3  1  0.52948279  0.55476965  0.09316607  1
  N  N0  1  0.78971290  0.98950754  0.67336982  1
  N  N1  1  0.21028710  0.19979464  0.82663018  1
  N  N2  1  0.21028710  0.01049246  0.32663018  1
  N  N3  1  0.78971290  0.80020536  0.17336982  1
  N  N4  1  0.19377465  0.88231471  0.65108460  1
  N  N5  1  0.80622535  0.68854005  0.84891540  1
  N  N6  1  0.80622535  0.11768529  0.34891540  1
  N  N7  1  0.19377465  0.31145995  0.15108460  1
  N  N8  1  0.70030638  0.24334492  0.51547654  1
  N  N9  1  0.29969362  0.54303753  0.98452346  1
  N  N10  1  0.29969362  0.75665508  0.48452346  1
  N  N11  1  0.70030638  0.45696247  0.01547654  1
loop_
_geom_bond_atom_site_label_1
_geom_bond_atom_site_label_2
_geom_bond_distance
_geom_bond_site_symmetry_2
Ge0 N0 1.790013 1_555
Ge0 N4 1.883385 1_555
Ge0 N8 1.940056 1_565
Ge0 N10 1.972122 1_555
Ge1 N1 1.790013 1_555
Ge1 N5 1.883385 1_555
Ge1 N9 1.940051 1_555
Ge1 N11 1.972120 1_556
Ge2 N2 1.790013 1_555
Ge2 N6 1.883385 1_555
Ge2 N10 1.940056 1_545
Ge2 N8 1.972122 1_555
Ge3 N3 1.790013 1_555
Ge3 N7 1.883385 1_555
Ge3 N11 1.940051 1_555
Ge3 N9 1.972120 1_554
N0 Sn4 2.134252 1_665
N0 Sn5 2.152187 1_555
N1 Sn5 2.134252 1_445
N1 Sn4 2.152187 1_555
N2 Sn6 2.134252 1_445
N2 Sn7 2.152187 1_555
N3 Sn7 2.134252 1_665
N3 Sn6 2.152187 1_555
N4 Sn4 2.208958 1_565
N4 Sn8 2.209096 1_555
N4 Sn1 2.332186 1_455
N5 Sn5 2.208959 1_555
N5 Sn8 2.209096 1_655
N5 Sn0 2.332186 1_655
N6 Sn6 2.208958 1_545
N6 Sn9 2.209096 1_655
N6 Sn3 2.332186 1_655
N7 Sn7 2.208959 1_555
N7 Sn9 2.209096 1_555
N7 Sn2 2.332186 1_455
N8 Sn3 2.315327 1_655
N8 Sn1 2.383679 1_555
N9 Sn2 2.315324 1_456
N9 Sn0 2.383686 1_555
N10 Sn1 2.315327 1_455
N10 Sn3 2.383679 1_555
N11 Sn0 2.315324 1_654
N11 Sn2 2.383686 1_555
