# generated using pymatgen
data_Sm(CuGe)2
_symmetry_space_group_name_H-M   'P 1'
_cell_length_a   4.09649360
_cell_length_b   4.09649212
_cell_length_c   5.85309878
_cell_angle_alpha   110.48378289
_cell_angle_beta   110.48377449
_cell_angle_gamma   89.99999813
_symmetry_Int_Tables_number   1
_chemical_formula_structural   Sm(CuGe)2
_chemical_formula_sum   'Sm1 Cu2 Ge2'
_cell_volume   85.35068553
_cell_formula_units_Z   1
loop_
 _symmetry_equiv_pos_site_id
 _symmetry_equiv_pos_as_xyz
  1  'x, y, z'
loop_
 _atom_site_type_symbol
 _atom_site_label
 _atom_site_symmetry_multiplicity
 _atom_site_fract_x
 _atom_site_fract_y
 _atom_site_fract_z
 _atom_site_occupancy
  Sm  Sm0  1  -0.00000000  -0.00000000  0.00000000  1
  Cu  Cu0  1  0.25000000  0.75000000  0.50000000  1
  Cu  Cu1  1  0.75000000  0.25000000  0.50000000  1
  Ge  Ge0  1  0.62242742  0.62242742  0.24485484  1
  Ge  Ge1  1  0.37757258  0.37757258  0.75514516  1
loop_
_geom_bond_atom_site_label_1
_geom_bond_atom_site_label_2
_geom_bond_distance
_geom_bond_site_symmetry_2
Cu0 Ge1 2.424727 1_565
Cu0 Ge1 2.424728 1_555
Cu0 Ge0 2.424728 1_555
Cu0 Ge0 2.424728 1_455
Cu0 Sm0 3.265325 1_555
Cu0 Sm0 3.265325 1_566
Cu0 Sm0 3.265325 1_565
Cu0 Sm0 3.265326 1_666
Cu1 Ge0 2.424727 1_545
Cu1 Ge0 2.424728 1_555
Cu1 Ge1 2.424728 1_555
Cu1 Ge1 2.424728 1_655
Cu1 Sm0 3.265325 1_666
Cu1 Sm0 3.265325 1_655
Cu1 Sm0 3.265325 1_656
Cu1 Sm0 3.265326 1_555
Ge0 Ge1 2.490699 1_554
Ge0 Sm0 3.153018 1_655
Ge0 Sm0 3.153018 1_665
Ge0 Sm0 3.153018 1_555
Ge0 Sm0 3.153018 1_565
Ge1 Sm0 3.153018 1_566
Ge1 Sm0 3.153018 1_556
Ge1 Sm0 3.153018 1_666
Ge1 Sm0 3.153018 1_656
