# generated using pymatgen
data_Rb3(Cr5Te8)4
_symmetry_space_group_name_H-M   'P 1'
_cell_length_a   11.14075700
_cell_length_b   11.88500424
_cell_length_c   13.72517750
_cell_angle_alpha   114.71947723
_cell_angle_beta   100.55725743
_cell_angle_gamma   102.31966786
_symmetry_Int_Tables_number   1
_chemical_formula_structural   Rb3(Cr5Te8)4
_chemical_formula_sum   'Rb3 Cr20 Te32'
_cell_volume   1534.90085160
_cell_formula_units_Z   1
loop_
 _symmetry_equiv_pos_site_id
 _symmetry_equiv_pos_as_xyz
  1  'x, y, z'
loop_
 _atom_site_type_symbol
 _atom_site_label
 _atom_site_symmetry_multiplicity
 _atom_site_fract_x
 _atom_site_fract_y
 _atom_site_fract_z
 _atom_site_occupancy
  Rb  Rb0  1  0.25531100  0.74469400  0.75536500  1
  Rb  Rb1  1  0.00000000  0.00000000  0.50000000  1
  Rb  Rb2  1  0.74468900  0.25530600  0.24463500  1
  Cr  Cr0  1  0.93009400  0.77251100  0.26356000  1
  Cr  Cr1  1  0.18082400  0.52269500  0.51411200  1
  Cr  Cr2  1  0.43048400  0.27432000  0.76394900  1
  Cr  Cr3  1  0.67916800  0.02345400  0.01294600  1
  Cr  Cr4  1  0.81917600  0.47730500  0.48588800  1
  Cr  Cr5  1  0.06990600  0.22748900  0.73644000  1
  Cr  Cr6  1  0.32083200  0.97654600  0.98705400  1
  Cr  Cr7  1  0.56951600  0.72568000  0.23605100  1
  Cr  Cr8  1  0.63173700  0.71413000  0.62390500  1
  Cr  Cr9  1  0.88259400  0.46406400  0.87436600  1
  Cr  Cr10  1  0.13261000  0.21461700  0.12264500  1
  Cr  Cr11  1  0.38141700  0.96487300  0.37261700  1
  Cr  Cr12  1  0.11740600  0.53593600  0.12563400  1
  Cr  Cr13  1  0.36826300  0.28587000  0.37609500  1
  Cr  Cr14  1  0.61858300  0.03512700  0.62738300  1
  Cr  Cr15  1  0.86739000  0.78538300  0.87735500  1
  Cr  Cr16  1  0.12482800  0.87500500  0.12487400  1
  Cr  Cr17  1  0.37471300  0.62489700  0.37465200  1
  Cr  Cr18  1  0.62528700  0.37510300  0.62534800  1
  Cr  Cr19  1  0.87517200  0.12499500  0.87512600  1
  Te  Te0  1  0.86910100  0.21703400  0.02195700  1
  Te  Te1  1  0.11892600  0.96694300  0.27204400  1
  Te  Te2  1  0.36903200  0.71636500  0.52215400  1
  Te  Te3  1  0.61896100  0.46617300  0.77137300  1
  Te  Te4  1  0.88107400  0.03305700  0.72795600  1
  Te  Te5  1  0.13089900  0.78296600  0.97804300  1
  Te  Te6  1  0.38103900  0.53382700  0.22862700  1
  Te  Te7  1  0.63096800  0.28363500  0.47784600  1
  Te  Te8  1  0.10837300  0.29118800  0.27290400  1
  Te  Te9  1  0.35875200  0.04118600  0.52325400  1
  Te  Te10  1  0.60899200  0.79111200  0.77396300  1
  Te  Te11  1  0.85826000  0.54161700  0.02327600  1
  Te  Te12  1  0.64124800  0.95881400  0.47674600  1
  Te  Te13  1  0.89162700  0.70881200  0.72709600  1
  Te  Te14  1  0.14174000  0.45838300  0.97672400  1
  Te  Te15  1  0.39100800  0.20888800  0.22603700  1
  Te  Te16  1  0.64236500  0.62388800  0.47348400  1
  Te  Te17  1  0.89266000  0.37415500  0.72368500  1
  Te  Te18  1  0.14272500  0.12458700  0.97286300  1
  Te  Te19  1  0.39266800  0.87448400  0.22265100  1
  Te  Te20  1  0.10734000  0.62584500  0.27631500  1
  Te  Te21  1  0.35763500  0.37611200  0.52651600  1
  Te  Te22  1  0.60733200  0.12551600  0.77734900  1
  Te  Te23  1  0.85727500  0.87541300  0.02713700  1
  Te  Te24  1  0.75324700  0.91546300  0.24258600  1
  Te  Te25  1  0.00408100  0.66561700  0.49303200  1
  Te  Te26  1  0.25375300  0.41561100  0.74280500  1
  Te  Te27  1  0.50320500  0.16583200  0.99229300  1
  Te  Te28  1  0.99591900  0.33438300  0.50696800  1
  Te  Te29  1  0.24675300  0.08453700  0.75741400  1
  Te  Te30  1  0.49679500  0.83416800  0.00770700  1
  Te  Te31  1  0.74624700  0.58438900  0.25719500  1
loop_
_geom_bond_atom_site_label_1
_geom_bond_atom_site_label_2
_geom_bond_distance
_geom_bond_site_symmetry_2
Rb0 Te5 3.482468 1_555
Rb0 Te30 3.556478 1_556
Rb0 Te2 3.568012 1_555
Rb0 Te25 3.746426 1_555
Rb0 Te10 3.805432 1_555
Rb0 Te26 3.838381 1_555
Rb0 Te13 3.911140 1_455
Rb0 Te29 4.048951 1_565
Rb1 Te1 3.523045 1_545
Rb1 Te4 3.523045 1_455
Rb1 Te29 3.652749 1_555
Rb1 Te24 3.652749 1_445
Rb1 Te9 3.857807 1_555
Rb1 Te12 3.857807 1_445
Rb1 Te25 3.945358 1_545
Rb1 Te28 3.945358 1_455
Rb2 Te0 3.482468 1_555
Rb2 Te27 3.556478 1_554
Rb2 Te7 3.568012 1_555
Rb2 Te28 3.746426 1_555
Rb2 Te15 3.805432 1_555
Rb2 Te31 3.838381 1_555
Rb2 Te8 3.911140 1_655
Rb2 Te24 4.048951 1_545
Cr0 Te31 2.649257 1_555
Cr0 Te1 2.718428 1_655
Cr0 Te24 2.912179 1_555
Cr0 Te20 2.926736 1_655
Cr0 Rb1 3.047119 1_665
Cr0 Te11 3.094187 1_555
Cr1 Te28 2.652775 1_455
Cr1 Te2 2.711084 1_555
Cr1 Te25 2.911317 1_555
Cr1 Te21 2.921260 1_555
Cr1 Rb0 3.060448 1_555
Cr1 Te8 3.104351 1_555
Cr2 Te29 2.660599 1_555
Cr2 Te3 2.702367 1_555
Cr2 Te26 2.896517 1_555
Cr2 Te22 2.944397 1_555
Cr2 Te9 3.108328 1_555
Cr3 Te30 2.656112 1_545
Cr3 Te0 2.715628 1_555
Cr3 Te27 2.898259 1_554
Cr3 Te23 2.950544 1_545
Cr3 Rb2 3.033254 1_555
Cr3 Te10 3.091788 1_544
Cr4 Te25 2.652775 1_655
Cr4 Te7 2.711084 1_555
Cr4 Te28 2.911317 1_555
Cr4 Te16 2.921260 1_555
Cr4 Rb2 3.060448 1_555
Cr4 Te13 3.104351 1_555
Cr5 Te26 2.649257 1_555
Cr5 Te4 2.718428 1_455
Cr5 Te29 2.912179 1_555
Cr5 Te17 2.926736 1_455
Cr5 Rb1 3.047119 1_555
Cr5 Te14 3.094187 1_555
Cr6 Te27 2.656112 1_565
Cr6 Te5 2.715628 1_555
Cr6 Te30 2.898259 1_556
Cr6 Te18 2.950544 1_565
Cr6 Rb0 3.033254 1_555
Cr6 Te15 3.091788 1_566
Cr7 Te24 2.660599 1_555
Cr7 Te6 2.702367 1_555
Cr7 Te31 2.896517 1_555
Cr7 Te19 2.944397 1_555
Cr7 Te12 3.108328 1_555
Cr8 Te16 1.928357 1_555
Cr8 Te10 1.964008 1_555
Cr9 Te17 1.928572 1_555
Cr9 Te11 1.958155 1_556
Cr9 Te3 3.027365 1_555
Cr10 Te18 1.918458 1_554
Cr10 Te8 1.973206 1_555
Cr11 Te19 1.925899 1_555
Cr11 Te9 1.970206 1_565
Cr12 Te20 1.928572 1_555
Cr12 Te14 1.958155 1_554
Cr12 Te6 3.027365 1_555
Cr13 Te21 1.928357 1_555
Cr13 Te15 1.964008 1_555
Cr14 Te22 1.925899 1_555
Cr14 Te12 1.970206 1_545
Cr15 Te23 1.918458 1_556
Cr15 Te13 1.973206 1_555
Cr16 Te5 1.870912 1_554
Cr16 Te1 1.873977 1_555
Cr17 Te6 1.861019 1_555
Cr17 Te2 1.876167 1_555
Cr18 Te3 1.861019 1_555
Cr18 Te7 1.876167 1_555
Cr19 Te0 1.870912 1_556
Cr19 Te4 1.873977 1_555
