# generated using pymatgen
data_FeSiO3
_symmetry_space_group_name_H-M   'P 1'
_cell_length_a   5.39201758
_cell_length_b   6.77681291
_cell_length_c   6.78857860
_cell_angle_alpha   86.18256993
_cell_angle_beta   75.73327589
_cell_angle_gamma   75.75190409
_symmetry_Int_Tables_number   1
_chemical_formula_structural   FeSiO3
_chemical_formula_sum   'Fe4 Si4 O12'
_cell_volume   233.00914797
_cell_formula_units_Z   4
loop_
 _symmetry_equiv_pos_site_id
 _symmetry_equiv_pos_as_xyz
  1  'x, y, z'
loop_
 _atom_site_type_symbol
 _atom_site_label
 _atom_site_symmetry_multiplicity
 _atom_site_fract_x
 _atom_site_fract_y
 _atom_site_fract_z
 _atom_site_occupancy
  Fe  Fe0  1  0.24948400  0.74587100  0.75447800  1
  Fe  Fe1  1  0.75029100  0.25425200  0.24571700  1
  Fe  Fe2  1  0.25015900  0.09755200  0.40232100  1
  Fe  Fe3  1  0.74987900  0.90229300  0.59748200  1
  Si  Si0  1  0.23091500  0.21335600  0.88473600  1
  Si  Si1  1  0.26900500  0.61514500  0.28664300  1
  Si  Si2  1  0.76911500  0.78661800  0.11511000  1
  Si  Si3  1  0.73099200  0.38489100  0.71342900  1
  O  O0  1  0.96493600  0.37275600  0.83511500  1
  O  O1  1  0.53503900  0.66460900  0.12741300  1
  O  O2  1  0.03499400  0.62721100  0.16505600  1
  O  O3  1  0.46483700  0.33544700  0.87250600  1
  O  O4  1  0.13445900  0.14018200  0.11824800  1
  O  O5  1  0.36575900  0.38141300  0.36022700  1
  O  O6  1  0.86568800  0.85962000  0.88164100  1
  O  O7  1  0.63445700  0.61869700  0.64010200  1
  O  O8  1  0.83984300  0.21056300  0.53615300  1
  O  O9  1  0.66002100  0.96401500  0.28916500  1
  O  O10  1  0.16020600  0.78944600  0.46390700  1
  O  O11  1  0.33992400  0.03606400  0.71055300  1
loop_
_geom_bond_atom_site_label_1
_geom_bond_atom_site_label_2
_geom_bond_distance
_geom_bond_site_symmetry_2
Fe0 O6 2.011184 1_455
Fe0 O7 2.017080 1_555
Fe0 O11 2.125203 1_565
Fe0 O10 2.128480 1_555
Fe1 O4 2.013611 1_655
Fe1 O5 2.015237 1_555
Fe1 O9 2.125036 1_545
Fe1 O8 2.128226 1_555
Fe2 O9 2.136456 1_545
Fe2 O8 2.138855 1_455
Fe2 O5 2.144747 1_555
Fe2 O4 2.149802 1_555
Fe2 O10 2.247669 1_545
Fe2 O11 2.251682 1_555
Fe3 O11 2.137108 1_565
Fe3 O10 2.138422 1_655
Fe3 O7 2.142575 1_555
Fe3 O6 2.150644 1_555
Fe3 O8 2.248647 1_565
Fe3 O9 2.252554 1_555
O0 Si3 1.653436 1_555
O0 Si0 1.662603 1_655
O1 Si2 1.654138 1_555
O1 Si1 1.662135 1_555
O2 Si1 1.653372 1_555
O2 Si2 1.663039 1_455
O3 Si0 1.653878 1_555
O3 Si3 1.662135 1_555
O4 Si0 1.626417 1_554
O5 Si1 1.626944 1_555
O6 Si2 1.625888 1_556
O7 Si3 1.626639 1_555
O8 Si3 1.639610 1_555
O9 Si2 1.638870 1_555
O10 Si1 1.639429 1_555
O11 Si0 1.638969 1_555
