# generated using pymatgen
data_Ba2SmNb4FeO15
_symmetry_space_group_name_H-M   'P 1'
_cell_length_a   12.60942600
_cell_length_b   4.07701700
_cell_length_c   12.71338285
_cell_angle_alpha   89.78579013
_cell_angle_beta   90.00000000
_cell_angle_gamma   90.00000000
_symmetry_Int_Tables_number   1
_chemical_formula_structural   Ba2SmNb4FeO15
_chemical_formula_sum   'Ba4 Sm2 Nb8 Fe2 O30'
_cell_volume   653.57575003
_cell_formula_units_Z   2
loop_
 _symmetry_equiv_pos_site_id
 _symmetry_equiv_pos_as_xyz
  1  'x, y, z'
loop_
 _atom_site_type_symbol
 _atom_site_label
 _atom_site_symmetry_multiplicity
 _atom_site_fract_x
 _atom_site_fract_y
 _atom_site_fract_z
 _atom_site_occupancy
  Ba  Ba0  1  0.09111700  0.35574100  0.32120100  1
  Ba  Ba1  1  0.42684700  0.35564700  0.67216400  1
  Ba  Ba2  1  0.57315300  0.35564700  0.17216400  1
  Ba  Ba3  1  0.90888300  0.35574100  0.82120100  1
  Sm  Sm0  1  0.73813400  0.37350800  0.52238600  1
  Sm  Sm1  1  0.26186600  0.37350800  0.02238600  1
  Nb  Nb0  1  0.24975000  0.87149000  0.49621400  1
  Nb  Nb1  1  0.75025000  0.87149000  0.99621400  1
  Nb  Nb2  1  0.46393600  0.86972700  0.92188400  1
  Nb  Nb3  1  0.04057000  0.86718200  0.07675000  1
  Nb  Nb4  1  0.95943000  0.86718200  0.57675000  1
  Nb  Nb5  1  0.53606400  0.86972700  0.42188400  1
  Nb  Nb6  1  0.17833100  0.86352600  0.78922600  1
  Nb  Nb7  1  0.82166900  0.86352600  0.28922600  1
  Fe  Fe0  1  0.32664700  0.84256300  0.21329800  1
  Fe  Fe1  1  0.67335300  0.84256300  0.71329800  1
  O  O0  1  0.58882100  0.82178700  0.01108900  1
  O  O1  1  0.90822800  0.81786200  0.99128100  1
  O  O2  1  0.09177200  0.81786200  0.49128100  1
  O  O3  1  0.41117900  0.82178700  0.51108900  1
  O  O4  1  0.17856300  0.81557800  0.14195000  1
  O  O5  1  0.31978200  0.80448800  0.85346700  1
  O  O6  1  0.68021800  0.80448800  0.35346700  1
  O  O7  1  0.82143700  0.81557800  0.64195000  1
  O  O8  1  0.24561700  0.82809700  0.34538000  1
  O  O9  1  0.25458100  0.81691600  0.65603800  1
  O  O10  1  0.74541900  0.81691600  0.15603800  1
  O  O11  1  0.75438300  0.82809700  0.84538000  1
  O  O12  1  0.96822600  0.82956200  0.21923700  1
  O  O13  1  0.52754600  0.84308900  0.78154400  1
  O  O14  1  0.47245400  0.84308900  0.28154400  1
  O  O15  1  0.03177400  0.82956200  0.71923700  1
  O  O16  1  0.82612300  0.32150300  0.30037300  1
  O  O17  1  0.67510500  0.33439000  0.68911500  1
  O  O18  1  0.32489500  0.33439000  0.18911500  1
  O  O19  1  0.17387700  0.32150300  0.80037300  1
  O  O20  1  0.25202200  0.32787200  0.50053600  1
  O  O21  1  0.74797800  0.32787200  0.00053600  1
  O  O22  1  0.36848200  0.83661800  0.05355800  1
  O  O23  1  0.12259100  0.80939700  0.93939000  1
  O  O24  1  0.87740900  0.80939700  0.43939000  1
  O  O25  1  0.63151800  0.83661800  0.55355800  1
  O  O26  1  0.55414200  0.33458200  0.42895200  1
  O  O27  1  0.94870700  0.32917700  0.57496600  1
  O  O28  1  0.05129300  0.32917700  0.07496600  1
  O  O29  1  0.44585800  0.33458200  0.92895200  1
loop_
_geom_bond_atom_site_label_1
_geom_bond_atom_site_label_2
_geom_bond_distance
_geom_bond_site_symmetry_2
Ba0 O8 2.757345 1_555
Ba0 O12 2.791892 1_455
Ba0 O2 2.873287 1_555
Ba0 O8 2.917633 1_545
Ba0 O12 2.950335 1_445
Ba0 O20 3.053798 1_555
Ba0 O2 3.073941 1_545
Ba0 O4 3.145145 1_555
Ba0 O28 3.172748 1_555
Ba0 O16 3.354844 1_455
Ba0 O4 3.361041 1_545
Ba0 O18 3.393840 1_555
Ba1 O13 2.741548 1_555
Ba1 O3 2.795568 1_555
Ba1 O13 2.809123 1_545
Ba1 O9 2.879958 1_555
Ba1 O3 3.000546 1_545
Ba1 O9 3.096447 1_545
Ba1 O20 3.104069 1_555
Ba1 O17 3.138974 1_555
Ba1 O5 3.242788 1_555
Ba1 O29 3.274240 1_555
Ba2 O14 2.741548 1_555
Ba2 O0 2.795568 1_555
Ba2 O14 2.809123 1_545
Ba2 O10 2.879958 1_555
Ba2 O0 3.000546 1_545
Ba2 O10 3.096447 1_545
Ba2 O21 3.104069 1_555
Ba2 O18 3.138974 1_555
Ba2 O6 3.242788 1_555
Ba2 O26 3.274240 1_555
Ba3 O11 2.757345 1_555
Ba3 O15 2.791892 1_655
Ba3 O1 2.873287 1_555
Ba3 O11 2.917633 1_545
Ba3 O15 2.950335 1_645
Ba3 O21 3.053798 1_556
Ba3 O1 3.073941 1_545
Ba3 O7 3.145145 1_555
Ba3 O27 3.172748 1_555
Ba3 O19 3.354844 1_655
Ba3 O7 3.361041 1_545
Ba3 O17 3.393840 1_555
Nb0 O20 1.861914 1_565
Nb0 O8 1.927117 1_555
Nb0 O2 2.004982 1_555
Nb0 O9 2.044130 1_555
Nb0 O3 2.054242 1_555
Nb0 O20 2.217001 1_555
Nb1 O21 1.861914 1_566
Nb1 O11 1.927117 1_555
Nb1 O1 2.004982 1_555
Nb1 O10 2.044130 1_556
Nb1 O0 2.054242 1_556
Nb1 O21 2.217001 1_556
Nb2 O29 1.911328 1_565
Nb2 O0 1.949997 1_556
Nb2 O13 1.959577 1_555
Nb2 O5 2.032997 1_555
Nb2 O22 2.065813 1_556
Nb2 O29 2.195177 1_555
Nb3 O28 1.888460 1_565
Nb3 O4 1.938479 1_555
Nb3 O1 2.001878 1_454
Nb3 O12 2.033492 1_455
Nb3 O23 2.043973 1_554
Nb3 O28 2.197821 1_555
Nb4 O27 1.888460 1_565
Nb4 O7 1.938479 1_555
Nb4 O2 2.001878 1_655
Nb4 O15 2.033492 1_655
Nb4 O24 2.043973 1_555
Nb4 O27 2.197821 1_555
Nb5 O26 1.911328 1_565
Nb5 O3 1.949997 1_555
Nb5 O14 1.959577 1_555
Nb5 O6 2.032997 1_555
Nb5 O25 2.065813 1_555
Nb5 O26 2.195177 1_555
Nb6 O19 1.873920 1_565
Nb6 O9 1.957065 1_555
Nb6 O5 1.976053 1_555
Nb6 O23 2.045527 1_555
Nb6 O15 2.055952 1_555
Nb6 O19 2.214560 1_555
Nb7 O16 1.873920 1_565
Nb7 O10 1.957065 1_555
Nb7 O6 1.976053 1_555
Nb7 O24 2.045527 1_555
Nb7 O12 2.055952 1_555
Nb7 O16 2.214560 1_555
Fe0 O8 1.966326 1_555
Fe0 O18 2.027604 1_565
Fe0 O14 2.032991 1_555
Fe0 O4 2.079008 1_555
Fe0 O18 2.095771 1_555
Fe0 O22 2.098457 1_555
Fe1 O11 1.966326 1_555
Fe1 O17 2.027604 1_565
Fe1 O13 2.032991 1_555
Fe1 O7 2.079008 1_555
Fe1 O17 2.095771 1_555
Fe1 O25 2.098457 1_555
O4 Sm1 2.585112 1_555
O4 Sm1 2.926141 1_565
O5 Sm1 2.864340 1_556
O5 Sm1 3.250296 1_566
O6 Sm0 2.864340 1_555
O6 Sm0 3.250296 1_565
O7 Sm0 2.585112 1_555
O7 Sm0 2.926141 1_565
O16 Sm0 3.040906 1_555
O17 Sm0 2.268840 1_555
O18 Sm1 2.268840 1_555
O19 Sm1 3.040906 1_556
O22 Sm1 2.352641 1_555
O22 Sm1 2.597925 1_565
O23 Sm1 2.709554 1_556
O23 Sm1 3.083044 1_566
O24 Sm0 2.709554 1_555
O24 Sm0 3.083044 1_565
O25 Sm0 2.352641 1_555
O25 Sm0 2.597925 1_565
O26 Sm0 2.611545 1_555
O27 Sm0 2.743852 1_555
O28 Sm1 2.743852 1_555
O29 Sm1 2.611545 1_556
