# generated using pymatgen
data_Sr3CrN3
_symmetry_space_group_name_H-M   'P 1'
_cell_length_a   7.78656902
_cell_length_b   7.78656989
_cell_length_c   5.22955166
_cell_angle_alpha   90.00000000
_cell_angle_beta   90.00000000
_cell_angle_gamma   119.99999392
_symmetry_Int_Tables_number   1
_chemical_formula_structural   Sr3CrN3
_chemical_formula_sum   'Sr6 Cr2 N6'
_cell_volume   274.59172120
_cell_formula_units_Z   2
loop_
 _symmetry_equiv_pos_site_id
 _symmetry_equiv_pos_as_xyz
  1  'x, y, z'
loop_
 _atom_site_type_symbol
 _atom_site_label
 _atom_site_symmetry_multiplicity
 _atom_site_fract_x
 _atom_site_fract_y
 _atom_site_fract_z
 _atom_site_occupancy
  Sr  Sr0  1  0.64292854  0.72655448  0.75000000  1
  Sr  Sr1  1  0.91637506  0.64292854  0.25000000  1
  Sr  Sr2  1  0.72655448  0.08362494  0.25000000  1
  Sr  Sr3  1  0.27344552  0.91637506  0.75000000  1
  Sr  Sr4  1  0.08362494  0.35707146  0.75000000  1
  Sr  Sr5  1  0.35707146  0.27344552  0.25000000  1
  Cr  Cr0  1  0.66666700  0.33333300  0.75000000  1
  Cr  Cr1  1  0.33333300  0.66666700  0.25000000  1
  N  N0  1  0.56256464  0.68424467  0.25000000  1
  N  N1  1  0.87831997  0.56256464  0.75000000  1
  N  N2  1  0.68424467  0.12168003  0.75000000  1
  N  N3  1  0.31575533  0.87831997  0.25000000  1
  N  N4  1  0.12168003  0.43743536  0.25000000  1
  N  N5  1  0.43743536  0.31575533  0.75000000  1
loop_
_geom_bond_atom_site_label_1
_geom_bond_atom_site_label_2
_geom_bond_distance
_geom_bond_site_symmetry_2
Cr0 N2 1.720573 1_555
Cr0 N1 1.720578 1_555
Cr0 N5 1.720581 1_555
Cr1 N3 1.720573 1_555
Cr1 N4 1.720578 1_555
Cr1 N0 1.720581 1_555
N0 Sr0 2.670395 1_555
N0 Sr0 2.670395 1_554
N0 Sr2 2.707476 1_565
N0 Sr5 2.770170 1_555
N0 Sr1 2.929105 1_555
N1 Sr1 2.670395 1_555
N1 Sr1 2.670395 1_556
N1 Sr0 2.707483 1_555
N1 Sr4 2.770163 1_655
N1 Sr3 2.929101 1_655
N2 Sr2 2.670396 1_556
N2 Sr2 2.670396 1_555
N2 Sr4 2.707477 1_655
N2 Sr3 2.770170 1_545
N2 Sr0 2.929098 1_545
N3 Sr3 2.670396 1_554
N3 Sr3 2.670396 1_555
N3 Sr1 2.707477 1_455
N3 Sr2 2.770170 1_565
N3 Sr5 2.929098 1_565
N4 Sr4 2.670395 1_555
N4 Sr4 2.670395 1_554
N4 Sr5 2.707483 1_555
N4 Sr1 2.770163 1_455
N4 Sr2 2.929101 1_455
N5 Sr5 2.670395 1_555
N5 Sr5 2.670395 1_556
N5 Sr3 2.707476 1_545
N5 Sr0 2.770170 1_555
N5 Sr4 2.929105 1_555
