# generated using pymatgen
data_Mg3MnO4
_symmetry_space_group_name_H-M   'P 1'
_cell_length_a   6.11956866
_cell_length_b   9.68148831
_cell_length_c   6.11957574
_cell_angle_alpha   71.57712266
_cell_angle_beta   89.99802711
_cell_angle_gamma   108.42290382
_symmetry_Int_Tables_number   1
_chemical_formula_structural   Mg3MnO4
_chemical_formula_sum   'Mg12 Mn4 O16'
_cell_volume   324.33655416
_cell_formula_units_Z   4
loop_
 _symmetry_equiv_pos_site_id
 _symmetry_equiv_pos_as_xyz
  1  'x, y, z'
loop_
 _atom_site_type_symbol
 _atom_site_label
 _atom_site_symmetry_multiplicity
 _atom_site_fract_x
 _atom_site_fract_y
 _atom_site_fract_z
 _atom_site_occupancy
  Mg  Mg0  1  0.24999300  0.50000100  0.74998700  1
  Mg  Mg1  1  0.00001200  0.99999400  0.50000100  1
  Mg  Mg2  1  0.74998400  0.50000300  0.25000200  1
  Mg  Mg3  1  0.49999600  0.00000200  0.00000400  1
  Mg  Mg4  1  0.12498300  0.74999400  0.87500500  1
  Mg  Mg5  1  0.87499700  0.25000100  0.62501400  1
  Mg  Mg6  1  0.62500400  0.75000400  0.37499600  1
  Mg  Mg7  1  0.37500300  0.25000100  0.12498700  1
  Mg  Mg8  1  0.12500700  0.75000000  0.37498800  1
  Mg  Mg9  1  0.87500000  0.25000300  0.12499000  1
  Mg  Mg10  1  0.62500200  0.74999000  0.87500800  1
  Mg  Mg11  1  0.37499200  0.24999700  0.62500800  1
  Mn  Mn0  1  0.50001200  0.99998900  0.50003700  1
  Mn  Mn1  1  0.25006200  0.50002500  0.24997900  1
  Mn  Mn2  1  0.75002900  0.50001000  0.74999500  1
  Mn  Mn3  1  0.99992800  0.99999200  0.00002200  1
  O  O0  1  0.49998100  0.50000400  0.49998400  1
  O  O1  1  0.25001400  0.99999800  0.25000900  1
  O  O2  1  0.00000800  0.49999300  0.00001200  1
  O  O3  1  0.74999300  0.00000400  0.74998700  1
  O  O4  1  0.49999000  0.50000300  0.00001300  1
  O  O5  1  0.25001400  0.99999800  0.74998500  1
  O  O6  1  0.00001600  0.49999500  0.49998600  1
  O  O7  1  0.74999000  0.00000400  0.25000800  1
  O  O8  1  0.87944300  0.75893800  0.62055700  1
  O  O9  1  0.62943700  0.25892600  0.37056300  1
  O  O10  1  0.37943200  0.75892400  0.12056800  1
  O  O11  1  0.12943900  0.25893800  0.87055500  1
  O  O12  1  0.37056500  0.74107300  0.62943100  1
  O  O13  1  0.12055300  0.24107200  0.37944000  1
  O  O14  1  0.87056200  0.74106400  0.12943600  1
  O  O15  1  0.62056000  0.24106000  0.87944100  1
loop_
_geom_bond_atom_site_label_1
_geom_bond_atom_site_label_2
_geom_bond_distance
_geom_bond_site_symmetry_2
Mg0 O11 2.087778 1_555
Mg0 O12 2.087856 1_555
Mg0 O0 2.163506 1_555
Mg0 O6 2.163538 1_555
Mg0 O2 2.163567 1_556
Mg0 O4 2.163732 1_556
Mg1 O8 2.087717 1_455
Mg1 O13 2.087908 1_565
Mg1 O1 2.163515 1_555
Mg1 O5 2.163572 1_555
Mg1 O3 2.163623 1_465
Mg1 O7 2.163698 1_465
Mg2 O14 2.087761 1_555
Mg2 O9 2.087899 1_555
Mg2 O0 2.163498 1_555
Mg2 O4 2.163559 1_555
Mg2 O2 2.163662 1_655
Mg2 O6 2.163702 1_655
Mg3 O15 2.087735 1_554
Mg3 O10 2.087908 1_545
Mg3 O1 2.163485 1_545
Mg3 O3 2.163610 1_554
Mg3 O7 2.163624 1_555
Mg3 O5 2.163637 1_544
Mg4 O14 2.164604 1_456
Mg4 O8 2.164967 1_455
Mg4 O10 2.165066 1_556
Mg4 O2 2.165188 1_556
Mg4 O5 2.165214 1_555
Mg4 O12 2.165270 1_555
Mg5 O15 2.164611 1_555
Mg5 O11 2.164943 1_655
Mg5 O9 2.165061 1_555
Mg5 O6 2.165127 1_655
Mg5 O3 2.165153 1_555
Mg5 O13 2.165194 1_655
Mg6 O12 2.164695 1_555
Mg6 O10 2.165012 1_555
Mg6 O8 2.165016 1_555
Mg6 O7 2.165179 1_565
Mg6 O0 2.165179 1_555
Mg6 O14 2.165193 1_555
Mg7 O13 2.164828 1_555
Mg7 O11 2.165000 1_554
Mg7 O9 2.165056 1_555
Mg7 O15 2.165133 1_554
Mg7 O4 2.165196 1_555
Mg7 O1 2.165205 1_545
Mg8 O10 2.164597 1_555
Mg8 O14 2.165003 1_455
Mg8 O12 2.165018 1_555
Mg8 O1 2.165162 1_555
Mg8 O6 2.165222 1_555
Mg8 O8 2.165249 1_455
Mg9 O11 2.164679 1_654
Mg9 O15 2.164971 1_554
Mg9 O13 2.165028 1_655
Mg9 O2 2.165092 1_655
Mg9 O7 2.165170 1_555
Mg9 O9 2.165192 1_555
Mg10 O8 2.164704 1_555
Mg10 O14 2.164962 1_556
Mg10 O4 2.165066 1_556
Mg10 O12 2.165071 1_555
Mg10 O10 2.165217 1_556
Mg10 O3 2.165300 1_565
Mg11 O9 2.164772 1_555
Mg11 O15 2.165021 1_555
Mg11 O13 2.165043 1_555
Mg11 O11 2.165120 1_555
Mg11 O5 2.165170 1_545
Mg11 O0 2.165240 1_555
Mn0 O3 2.163334 1_565
Mn0 O5 2.163364 1_555
Mn0 O7 2.163524 1_565
Mn0 O1 2.163745 1_555
Mn0 O12 2.242398 1_555
Mn0 O9 2.242580 1_565
Mn1 O4 2.163195 1_555
Mn1 O0 2.163304 1_555
Mn1 O6 2.163658 1_555
Mn1 O2 2.163724 1_555
Mn1 O10 2.242251 1_555
Mn1 O13 2.242718 1_555
Mn2 O6 2.163606 1_655
Mn2 O2 2.163615 1_656
Mn2 O4 2.163775 1_556
Mn2 O0 2.163888 1_555
Mn2 O8 2.242502 1_555
Mn2 O15 2.242692 1_555
Mn3 O7 2.163281 1_565
Mn3 O3 2.163503 1_564
Mn3 O1 2.163949 1_655
Mn3 O5 2.164065 1_654
Mn3 O14 2.242502 1_555
Mn3 O11 2.242658 1_664
