# generated using pymatgen
data_Li7Mn4(P2O7)4
_symmetry_space_group_name_H-M   'P 1'
_cell_length_a   9.86777300
_cell_length_b   9.89260006
_cell_length_c   11.36929925
_cell_angle_alpha   102.54337788
_cell_angle_beta   90.18497580
_cell_angle_gamma   90.14587197
_symmetry_Int_Tables_number   1
_chemical_formula_structural   Li7Mn4(P2O7)4
_chemical_formula_sum   'Li14 Mn8 P16 O56'
_cell_volume   1083.34584842
_cell_formula_units_Z   2
loop_
 _symmetry_equiv_pos_site_id
 _symmetry_equiv_pos_as_xyz
  1  'x, y, z'
loop_
 _atom_site_type_symbol
 _atom_site_label
 _atom_site_symmetry_multiplicity
 _atom_site_fract_x
 _atom_site_fract_y
 _atom_site_fract_z
 _atom_site_occupancy
  Li  Li0  1  0.27996300  0.11376400  0.44877600  1
  Li  Li1  1  0.59179600  0.18632300  0.55541500  1
  Li  Li2  1  0.89298400  0.08550900  0.02851900  1
  Li  Li3  1  0.08965300  0.34634500  0.95651300  1
  Li  Li4  1  0.59119900  0.15546400  0.04129500  1
  Li  Li5  1  0.39275700  0.41306900  0.97050100  1
  Li  Li6  1  0.05857500  0.35694600  0.47439500  1
  Li  Li7  1  0.94142500  0.64305400  0.52560500  1
  Li  Li8  1  0.60724300  0.58693100  0.02949900  1
  Li  Li9  1  0.40880100  0.84453600  0.95870500  1
  Li  Li10  1  0.91034700  0.65365500  0.04348700  1
  Li  Li11  1  0.10701600  0.91449100  0.97148100  1
  Li  Li12  1  0.40820400  0.81367700  0.44458500  1
  Li  Li13  1  0.72003700  0.88623600  0.55122400  1
  Mn  Mn0  1  0.07683300  0.20133000  0.67232700  1
  Mn  Mn1  1  0.78621300  0.25336000  0.82086700  1
  Mn  Mn2  1  0.28458000  0.24904800  0.17905600  1
  Mn  Mn3  1  0.57968700  0.30116100  0.32961000  1
  Mn  Mn4  1  0.42031300  0.69883900  0.67039000  1
  Mn  Mn5  1  0.71542000  0.75095200  0.82094400  1
  Mn  Mn6  1  0.21378700  0.74664000  0.17913300  1
  Mn  Mn7  1  0.92316700  0.79867000  0.32767300  1
  P  P0  1  0.54361100  0.02205300  0.75693300  1
  P  P1  1  0.29641000  0.11794800  0.89189500  1
  P  P2  1  0.06853200  0.06105300  0.24334300  1
  P  P3  1  0.84798600  0.12359600  0.42193900  1
  P  P4  1  0.35043300  0.37899800  0.57783700  1
  P  P5  1  0.56441200  0.43914300  0.75742800  1
  P  P6  1  0.95480300  0.52293600  0.75782800  1
  P  P7  1  0.79476300  0.38074000  0.10772300  1
  P  P8  1  0.20523700  0.61926000  0.89227700  1
  P  P9  1  0.04519700  0.47706400  0.24217200  1
  P  P10  1  0.43558800  0.56085700  0.24257200  1
  P  P11  1  0.64956700  0.62100200  0.42216300  1
  P  P12  1  0.15201400  0.87640400  0.57806100  1
  P  P13  1  0.93146800  0.93894700  0.75665700  1
  P  P14  1  0.70359000  0.88205200  0.10810500  1
  P  P15  1  0.45638900  0.97794700  0.24306700  1
  O  O0  1  0.58554200  0.02557600  0.62970500  1
  O  O1  1  0.16984100  0.02510300  0.56117600  1
  O  O2  1  0.91320900  0.08452100  0.73013300  1
  O  O3  1  0.63655900  0.10258100  0.85649600  1
  O  O4  1  0.39765000  0.09519400  0.77573600  1
  O  O5  1  0.17117700  0.18343200  0.84816900  1
  O  O6  1  0.36889400  0.22070500  0.99764100  1
  O  O7  1  0.72276800  0.02136000  0.07731900  1
  O  O8  1  0.91954400  0.11447100  0.29195900  1
  O  O9  1  0.06579600  0.06421400  0.11071700  1
  O  O10  1  0.47348300  0.13151500  0.22465800  1
  O  O11  1  0.70538100  0.18385400  0.40843400  1
  O  O12  1  0.17579100  0.16306100  0.31120000  1
  O  O13  1  0.93905900  0.21435400  0.51481100  1
  O  O14  1  0.43672400  0.27926000  0.48547900  1
  O  O15  1  0.66814800  0.33404400  0.69289900  1
  O  O16  1  0.20790000  0.31838900  0.58065700  1
  O  O17  1  0.96928000  0.37596000  0.78713100  1
  O  O18  1  0.41604600  0.38068100  0.70891400  1
  O  O19  1  0.56256300  0.44367600  0.89103200  1
  O  O20  1  0.22435400  0.48059800  0.92542300  1
  O  O21  1  0.86289600  0.27578800  0.00181700  1
  O  O22  1  0.66889000  0.31756100  0.15338900  1
  O  O23  1  0.89746900  0.40279000  0.22089900  1
  O  O24  1  0.42209600  0.41433600  0.27317900  1
  O  O25  1  0.13836100  0.38981100  0.14601400  1
  O  O26  1  0.92318800  0.52032000  0.62829700  1
  O  O27  1  0.65186200  0.46987900  0.43501700  1
  O  O28  1  0.34813800  0.53012100  0.56498300  1
  O  O29  1  0.07681200  0.47968000  0.37170300  1
  O  O30  1  0.86163900  0.61018900  0.85398600  1
  O  O31  1  0.57790400  0.58566400  0.72682100  1
  O  O32  1  0.10253100  0.59721000  0.77910100  1
  O  O33  1  0.33111000  0.68243900  0.84661100  1
  O  O34  1  0.13710400  0.72421200  0.99818300  1
  O  O35  1  0.77564600  0.51940200  0.07457700  1
  O  O36  1  0.43743700  0.55632400  0.10896800  1
  O  O37  1  0.58395400  0.61931900  0.29108600  1
  O  O38  1  0.03072000  0.62404000  0.21286900  1
  O  O39  1  0.79210000  0.68161100  0.41934300  1
  O  O40  1  0.33185200  0.66595600  0.30710100  1
  O  O41  1  0.56327600  0.72074000  0.51452100  1
  O  O42  1  0.06094100  0.78564600  0.48518900  1
  O  O43  1  0.82420900  0.83693900  0.68880000  1
  O  O44  1  0.29461900  0.81614600  0.59156500  1
  O  O45  1  0.52651700  0.86848500  0.77534200  1
  O  O46  1  0.93420400  0.93578600  0.88928300  1
  O  O47  1  0.08045600  0.88552900  0.70804100  1
  O  O48  1  0.27723200  0.97864000  0.92268100  1
  O  O49  1  0.63110600  0.77929500  0.00235900  1
  O  O50  1  0.82882300  0.81656800  0.15183100  1
  O  O51  1  0.60235000  0.90480600  0.22426400  1
  O  O52  1  0.36344100  0.89741900  0.14350400  1
  O  O53  1  0.08679100  0.91547900  0.26986700  1
  O  O54  1  0.83015900  0.97489700  0.43882400  1
  O  O55  1  0.41445800  0.97442400  0.37029500  1
loop_
_geom_bond_atom_site_label_1
_geom_bond_atom_site_label_2
_geom_bond_distance
_geom_bond_site_symmetry_2
Li0 O55 1.985027 1_545
Li0 O12 2.016070 1_555
Li0 O1 2.018445 1_555
Li0 O14 2.221158 1_555
Li0 O16 2.355290 1_555
Li1 O0 1.956831 1_555
Li1 O11 2.010930 1_555
Li1 O14 2.033689 1_555
Li1 O15 2.034962 1_555
Li2 O7 1.919714 1_555
Li2 O46 1.963156 1_544
Li2 O9 1.975532 1_655
Li2 O21 1.993501 1_555
Li3 O20 1.963045 1_555
Li3 O5 1.978017 1_555
Li3 O25 2.155833 1_556
Li3 O17 2.331807 1_455
Li3 O21 2.432064 1_456
Li4 O7 1.963319 1_555
Li4 O22 1.970553 1_555
Li4 O3 2.101956 1_554
Li4 O6 2.369454 1_554
Li4 O10 2.445447 1_555
Li5 O20 1.902434 1_555
Li5 O36 1.924671 1_556
Li5 O19 1.960020 1_555
Li5 O6 2.006298 1_555
Li6 O29 1.866999 1_555
Li6 O13 1.966825 1_455
Li6 O16 1.991933 1_555
Li6 O26 2.501258 1_455
Li7 O26 1.866999 1_555
Li7 O42 1.966825 1_655
Li7 O39 1.991933 1_555
Li7 O29 2.501258 1_655
Li8 O35 1.902434 1_555
Li8 O19 1.924671 1_554
Li8 O36 1.960020 1_555
Li8 O49 2.006298 1_555
Li9 O48 1.963319 1_555
Li9 O33 1.970553 1_555
Li9 O52 2.101956 1_556
Li9 O49 2.369454 1_556
Li9 O45 2.445447 1_555
Li10 O35 1.963045 1_555
Li10 O50 1.978017 1_555
Li10 O30 2.155833 1_554
Li10 O38 2.331807 1_655
Li10 O34 2.432064 1_654
Li11 O48 1.919714 1_555
Li11 O9 1.963156 1_566
Li11 O46 1.975532 1_455
Li11 O34 1.993501 1_555
Li12 O55 1.956831 1_555
Li12 O44 2.010921 1_555
Li12 O41 2.033689 1_555
Li12 O40 2.034962 1_555
Li13 O0 1.985027 1_565
Li13 O43 2.016070 1_555
Li13 O54 2.018445 1_555
Li13 O41 2.221158 1_555
Li13 O39 2.355290 1_555
Mn0 O1 2.130080 1_555
Mn0 O16 2.150644 1_555
Mn0 O2 2.168267 1_455
Mn0 O17 2.203022 1_455
Mn0 O5 2.244420 1_555
Mn0 O13 2.270997 1_455
Mn1 O15 2.146939 1_555
Mn1 O21 2.155230 1_556
Mn1 O2 2.166784 1_555
Mn1 O3 2.196550 1_555
Mn1 O17 2.253167 1_555
Mn2 O25 2.096663 1_555
Mn2 O12 2.166568 1_555
Mn2 O6 2.187706 1_554
Mn2 O24 2.208952 1_555
Mn2 O10 2.315603 1_555
Mn3 O27 1.961836 1_555
Mn3 O11 2.034721 1_555
Mn3 O24 2.097092 1_555
Mn3 O10 2.109916 1_555
Mn3 O22 2.228684 1_555
Mn3 O14 2.314921 1_555
Mn4 O28 1.961836 1_555
Mn4 O44 2.034728 1_555
Mn4 O31 2.097092 1_555
Mn4 O45 2.109916 1_555
Mn4 O33 2.228684 1_555
Mn4 O41 2.314921 1_555
Mn5 O30 2.096663 1_555
Mn5 O43 2.166568 1_555
Mn5 O49 2.187706 1_556
Mn5 O31 2.208952 1_555
Mn5 O45 2.315603 1_555
Mn6 O40 2.146939 1_555
Mn6 O34 2.155230 1_554
Mn6 O53 2.166784 1_555
Mn6 O52 2.196550 1_555
Mn6 O38 2.253167 1_555
Mn7 O54 2.130080 1_555
Mn7 O39 2.150644 1_555
Mn7 O53 2.168267 1_655
Mn7 O38 2.203022 1_655
Mn7 O50 2.244420 1_555
Mn7 O42 2.270997 1_655
O0 P0 1.513422 1_555
O1 P12 1.534033 1_545
O2 P13 1.544962 1_545
O3 P0 1.534629 1_555
O4 P0 1.607431 1_555
O4 P1 1.635036 1_555
O5 P1 1.527717 1_555
O6 P1 1.565330 1_555
O7 P14 1.505374 1_545
O8 P2 1.621272 1_655
O8 P3 1.624718 1_555
O9 P2 1.515119 1_555
O10 P15 1.586575 1_545
O11 P3 1.549757 1_555
O12 P2 1.544306 1_555
O13 P3 1.518761 1_555
O14 P4 1.536619 1_555
O15 P5 1.531672 1_555
O16 P4 1.530708 1_555
O17 P6 1.567353 1_555
O18 P4 1.619651 1_555
O18 P5 1.622974 1_555
O19 P5 1.510050 1_555
O20 P8 1.511499 1_555
O21 P7 1.563827 1_555
O22 P7 1.531054 1_555
O23 P7 1.612123 1_555
O23 P9 1.624339 1_655
O24 P10 1.567862 1_555
O25 P9 1.544681 1_555
O26 P6 1.499070 1_555
O27 P11 1.533605 1_555
O28 P4 1.533605 1_555
O29 P9 1.499070 1_555
O30 P6 1.544681 1_555
O31 P5 1.567862 1_555
O32 P8 1.612123 1_555
O32 P6 1.624339 1_455
O33 P8 1.531054 1_555
O34 P8 1.563827 1_555
O35 P7 1.511499 1_555
O36 P10 1.510050 1_555
O37 P11 1.619651 1_555
O37 P10 1.622974 1_555
O38 P9 1.567353 1_555
O39 P11 1.530708 1_555
O40 P10 1.531672 1_555
O41 P11 1.536619 1_555
O42 P12 1.518761 1_555
O43 P13 1.544306 1_555
O44 P12 1.549755 1_555
O45 P0 1.586575 1_565
O46 P13 1.515119 1_555
O47 P13 1.621272 1_455
O47 P12 1.624718 1_555
O48 P1 1.505374 1_565
O49 P14 1.565330 1_555
O50 P14 1.527717 1_555
O51 P15 1.607431 1_555
O51 P14 1.635036 1_555
O52 P15 1.534629 1_555
O53 P2 1.544962 1_565
O54 P3 1.534033 1_565
O55 P15 1.513422 1_555
