# generated using pymatgen
data_Eu3Mg
_symmetry_space_group_name_H-M   'P 1'
_cell_length_a   7.11182655
_cell_length_b   7.11776119
_cell_length_c   7.11776119
_cell_angle_alpha   145.82995023
_cell_angle_beta   131.12271223
_cell_angle_gamma   60.99380812
_symmetry_Int_Tables_number   1
_chemical_formula_structural   Eu3Mg
_chemical_formula_sum   'Eu3 Mg1'
_cell_volume   150.94019806
_cell_formula_units_Z   1
loop_
 _symmetry_equiv_pos_site_id
 _symmetry_equiv_pos_as_xyz
  1  'x, y, z'
loop_
 _atom_site_type_symbol
 _atom_site_label
 _atom_site_symmetry_multiplicity
 _atom_site_fract_x
 _atom_site_fract_y
 _atom_site_fract_z
 _atom_site_occupancy
  Eu  Eu0  1  0.80487876  0.72809938  0.07678038  1
  Eu  Eu1  1  0.08844945  0.50001265  0.58843680  1
  Eu  Eu2  1  0.34868814  0.27188205  0.07680609  1
  Mg  Mg0  1  0.59130964  0.00000591  0.59130373  1
loop_
_geom_bond_atom_site_label_1
_geom_bond_atom_site_label_2
_geom_bond_distance
_geom_bond_site_symmetry_2
Eu0 Mg0 3.493129 1_565
Eu0 Mg0 3.493132 1_554
Eu1 Mg0 3.596955 1_454
Eu1 Mg0 3.596955 1_465
Eu1 Mg0 3.624473 1_566
Eu1 Mg0 3.624473 1_555
Eu2 Mg0 3.493270 1_554
Eu2 Mg0 3.493270 1_565
