# generated using pymatgen
data_Rb3TmCl6
_symmetry_space_group_name_H-M   'P 1'
_cell_length_a   13.44320736
_cell_length_b   13.44320736
_cell_length_c   12.72915764
_cell_angle_alpha   80.95674070
_cell_angle_beta   80.95674070
_cell_angle_gamma   34.12085168
_symmetry_Int_Tables_number   1
_chemical_formula_structural   Rb3TmCl6
_chemical_formula_sum   'Rb12 Tm4 Cl24'
_cell_volume   1272.83269044
_cell_formula_units_Z   4
loop_
 _symmetry_equiv_pos_site_id
 _symmetry_equiv_pos_as_xyz
  1  'x, y, z'
loop_
 _atom_site_type_symbol
 _atom_site_label
 _atom_site_symmetry_multiplicity
 _atom_site_fract_x
 _atom_site_fract_y
 _atom_site_fract_z
 _atom_site_occupancy
  Rb  Rb0  1  0.29351152  0.81021798  0.56337802  1
  Rb  Rb1  1  0.70648848  0.18978202  0.43662198  1
  Rb  Rb2  1  0.18978202  0.70648848  0.93662198  1
  Rb  Rb3  1  0.81021798  0.29351152  0.06337802  1
  Rb  Rb4  1  0.47122338  0.83677793  0.85461870  1
  Rb  Rb5  1  0.52877662  0.16322207  0.14538130  1
  Rb  Rb6  1  0.16322207  0.52877662  0.64538130  1
  Rb  Rb7  1  0.83677793  0.47122338  0.35461870  1
  Rb  Rb8  1  0.65359944  0.02181954  0.80184617  1
  Rb  Rb9  1  0.34640056  0.97818046  0.19815383  1
  Rb  Rb10  1  0.97818046  0.34640056  0.69815383  1
  Rb  Rb11  1  0.02181954  0.65359944  0.30184617  1
  Tm  Tm0  1  0.79137240  0.20862760  0.75000000  1
  Tm  Tm1  1  0.20862760  0.79137240  0.25000000  1
  Tm  Tm2  1  0.50000000  0.00000000  0.50000000  1
  Tm  Tm3  1  -0.00000000  0.50000000  0.00000000  1
  Cl  Cl0  1  0.62188841  0.72253286  0.57779412  1
  Cl  Cl1  1  0.37811159  0.27746714  0.42220588  1
  Cl  Cl2  1  0.27746714  0.37811159  0.92220588  1
  Cl  Cl3  1  0.72253286  0.62188841  0.07779412  1
  Cl  Cl4  1  0.50679510  0.37412676  0.68000546  1
  Cl  Cl5  1  0.49320490  0.62587324  0.31999454  1
  Cl  Cl6  1  0.62587324  0.49320490  0.81999454  1
  Cl  Cl7  1  0.37412676  0.50679510  0.18000546  1
  Cl  Cl8  1  0.78552884  0.85815420  0.53382387  1
  Cl  Cl9  1  0.21447116  0.14184580  0.46617613  1
  Cl  Cl10  1  0.14184580  0.21447116  0.96617613  1
  Cl  Cl11  1  0.85815420  0.78552884  0.03382387  1
  Cl  Cl12  1  0.90346734  0.97682888  0.19965979  1
  Cl  Cl13  1  0.09653266  0.02317112  0.80034021  1
  Cl  Cl14  1  0.02317112  0.09653266  0.30034021  1
  Cl  Cl15  1  0.97682888  0.90346734  0.69965979  1
  Cl  Cl16  1  0.72842153  0.15824213  0.93642508  1
  Cl  Cl17  1  0.27157847  0.84175787  0.06357492  1
  Cl  Cl18  1  0.84175787  0.27157847  0.56357492  1
  Cl  Cl19  1  0.15824213  0.72842153  0.43642508  1
  Cl  Cl20  1  0.36588075  0.13430003  0.68739412  1
  Cl  Cl21  1  0.63411925  0.86569997  0.31260588  1
  Cl  Cl22  1  0.86569997  0.63411925  0.81260588  1
  Cl  Cl23  1  0.13430003  0.36588075  0.18739412  1
loop_
_geom_bond_atom_site_label_1
_geom_bond_atom_site_label_2
_geom_bond_distance
_geom_bond_site_symmetry_2
Cl0 Tm2 2.609229 1_565
Cl0 Rb10 3.260088 1_555
Cl0 Rb7 3.479566 1_555
Cl0 Rb0 3.532905 1_555
Cl0 Rb4 3.631130 1_555
Cl1 Tm2 2.609229 1_555
Cl1 Rb11 3.260088 1_555
Cl1 Rb6 3.479566 1_555
Cl1 Rb1 3.532905 1_555
Cl1 Rb5 3.631130 1_555
Cl2 Tm3 2.609229 1_556
Cl2 Rb8 3.260088 1_555
Cl2 Rb5 3.479566 1_556
Cl2 Rb2 3.532905 1_555
Cl2 Rb6 3.631130 1_555
Cl3 Tm3 2.609229 1_655
Cl3 Rb9 3.260088 1_555
Cl3 Rb4 3.479566 1_554
Cl3 Rb3 3.532905 1_555
Cl3 Rb7 3.631130 1_555
Cl4 Tm0 2.595207 1_555
Cl4 Rb6 3.209723 1_555
Cl4 Rb1 3.424922 1_555
Cl4 Rb8 3.450874 1_555
Cl5 Tm1 2.595207 1_555
Cl5 Rb7 3.209723 1_555
Cl5 Rb0 3.424922 1_555
Cl5 Rb9 3.450874 1_555
Cl6 Tm0 2.595207 1_555
Cl6 Rb4 3.209723 1_555
Cl6 Rb3 3.424922 1_556
Cl6 Rb10 3.450874 1_555
Cl7 Tm1 2.595207 1_555
Cl7 Rb5 3.209723 1_555
Cl7 Rb2 3.424922 1_554
Cl7 Rb11 3.450874 1_555
Cl8 Tm2 2.587990 1_565
Cl8 Rb6 3.235530 1_655
Cl8 Rb11 3.393057 1_655
Cl8 Rb1 3.656647 1_565
Cl8 Rb8 3.690898 1_565
Cl9 Tm2 2.587990 1_555
Cl9 Rb7 3.235530 1_455
Cl9 Rb10 3.393057 1_455
Cl9 Rb0 3.656647 1_545
Cl9 Rb9 3.690898 1_545
Cl10 Tm3 2.587990 1_556
Cl10 Rb4 3.235530 1_545
Cl10 Rb9 3.393057 1_546
Cl10 Rb3 3.656647 1_456
Cl10 Rb10 3.690898 1_455
Cl11 Tm3 2.587990 1_655
Cl11 Rb5 3.235530 1_565
Cl11 Rb8 3.393057 1_564
Cl11 Rb2 3.656647 1_654
Cl11 Rb11 3.690898 1_655
Cl12 Tm1 2.616400 1_655
Cl12 Rb11 3.245243 1_655
Cl12 Rb5 3.432224 1_565
Cl12 Rb1 3.458023 1_565
Cl12 Rb3 3.497242 1_565
Cl13 Tm0 2.616400 1_455
Cl13 Rb10 3.245243 1_455
Cl13 Rb4 3.432224 1_545
Cl13 Rb0 3.458023 1_545
Cl13 Rb2 3.497242 1_545
Cl14 Tm1 2.616400 1_545
Cl14 Rb9 3.245243 1_545
Cl14 Rb7 3.432224 1_455
Cl14 Rb3 3.458023 1_455
Cl14 Rb1 3.497242 1_455
Cl15 Tm0 2.616400 1_565
Cl15 Rb8 3.245243 1_565
Cl15 Rb6 3.432224 1_655
Cl15 Rb2 3.458023 1_655
Cl15 Rb0 3.497242 1_655
Cl16 Tm0 2.572688 1_555
Cl16 Rb5 3.434638 1_556
Cl16 Rb8 3.448670 1_555
Cl16 Rb3 3.452610 1_556
Cl16 Rb2 3.603425 1_645
Cl17 Tm1 2.572688 1_555
Cl17 Rb4 3.434638 1_554
Cl17 Rb9 3.448670 1_555
Cl17 Rb2 3.452610 1_554
Cl17 Rb3 3.603425 1_465
Cl18 Tm0 2.572688 1_555
Cl18 Rb7 3.434638 1_555
Cl18 Rb10 3.448670 1_555
Cl18 Rb1 3.452610 1_555
Cl18 Rb0 3.603425 1_645
Cl19 Tm1 2.572688 1_555
Cl19 Rb6 3.434638 1_555
Cl19 Rb11 3.448670 1_555
Cl19 Rb0 3.452610 1_555
Cl19 Rb1 3.603425 1_465
Cl20 Tm2 2.610082 1_555
Cl20 Rb10 3.256696 1_455
Cl20 Rb8 3.280947 1_555
Cl20 Rb4 3.380366 1_545
Cl20 Rb6 3.387624 1_555
Cl21 Tm2 2.610082 1_565
Cl21 Rb11 3.256696 1_655
Cl21 Rb9 3.280947 1_555
Cl21 Rb5 3.380366 1_565
Cl21 Rb7 3.387624 1_555
Cl22 Tm3 2.610082 1_656
Cl22 Rb8 3.256696 1_565
Cl22 Rb10 3.280947 1_555
Cl22 Rb6 3.380366 1_655
Cl22 Rb4 3.387624 1_555
Cl23 Tm3 2.610082 1_555
Cl23 Rb9 3.256696 1_545
Cl23 Rb11 3.280947 1_555
Cl23 Rb7 3.380366 1_455
Cl23 Rb5 3.387624 1_555
