# generated using pymatgen
data_Li2ZnSi
_symmetry_space_group_name_H-M   'P 1'
_cell_length_a   4.18544392
_cell_length_b   4.18544375
_cell_length_c   16.46711015
_cell_angle_alpha   90.00000000
_cell_angle_beta   90.00000000
_cell_angle_gamma   119.99999346
_symmetry_Int_Tables_number   1
_chemical_formula_structural   Li2ZnSi
_chemical_formula_sum   'Li8 Zn4 Si4'
_cell_volume   249.82223389
_cell_formula_units_Z   4
loop_
 _symmetry_equiv_pos_site_id
 _symmetry_equiv_pos_as_xyz
  1  'x, y, z'
loop_
 _atom_site_type_symbol
 _atom_site_label
 _atom_site_symmetry_multiplicity
 _atom_site_fract_x
 _atom_site_fract_y
 _atom_site_fract_z
 _atom_site_occupancy
  Li  Li0  1  0.66666700  0.33333300  0.79137103  1
  Li  Li1  1  0.33333300  0.66666700  0.20862897  1
  Li  Li2  1  0.66666700  0.33333300  0.45858664  1
  Li  Li3  1  0.66666700  0.33333300  0.29156016  1
  Li  Li4  1  0.33333300  0.66666700  0.04143389  1
  Li  Li5  1  0.66666700  0.33333300  0.95856611  1
  Li  Li6  1  0.33333300  0.66666700  0.70843984  1
  Li  Li7  1  0.33333300  0.66666700  0.54141336  1
  Zn  Zn0  1  -0.00000000  -0.00000000  0.87450525  1
  Zn  Zn1  1  0.00000000  0.00000000  0.37560413  1
  Zn  Zn2  1  -0.00000000  -0.00000000  0.62439587  1
  Zn  Zn3  1  -0.00000000  0.00000000  0.12549475  1
  Si  Si0  1  0.33333300  0.66666700  0.87484800  1
  Si  Si1  1  0.66666700  0.33333300  0.62484960  1
  Si  Si2  1  0.33333300  0.66666700  0.37515040  1
  Si  Si3  1  0.66666700  0.33333300  0.12515200  1
loop_
_geom_bond_atom_site_label_1
_geom_bond_atom_site_label_2
_geom_bond_distance
_geom_bond_site_symmetry_2
Li0 Si1 2.742127 1_555
Li0 Li5 2.753220 1_555
Li0 Li6 2.775656 1_545
Li0 Li6 2.775656 1_655
Li0 Li6 2.775662 1_555
Li0 Zn0 2.777302 1_655
Li0 Zn0 2.777306 1_665
Li0 Zn0 2.777306 1_555
Li0 Si0 2.780089 1_545
Li0 Si0 2.780089 1_655
Li0 Si0 2.780095 1_555
Li1 Si2 2.742127 1_555
Li1 Li4 2.753220 1_555
Li1 Li3 2.775656 1_565
Li1 Li3 2.775656 1_455
Li1 Li3 2.775662 1_555
Li1 Zn3 2.777302 1_565
Li1 Zn3 2.777306 1_555
Li1 Zn3 2.777306 1_665
Li1 Si3 2.780089 1_565
Li1 Si3 2.780089 1_455
Li1 Si3 2.780095 1_555
Li2 Si1 2.737870 1_555
Li2 Li3 2.750443 1_555
Li2 Li7 2.774810 1_545
Li2 Li7 2.774810 1_655
Li2 Li7 2.774816 1_555
Li2 Zn1 2.776072 1_655
Li2 Zn1 2.776075 1_665
Li2 Zn1 2.776075 1_555
Li2 Si2 2.779757 1_545
Li2 Si2 2.779757 1_655
Li2 Si2 2.779764 1_555
Li3 Si3 2.740262 1_555
Li3 Si2 2.781012 1_545
Li3 Si2 2.781012 1_655
Li3 Si2 2.781018 1_555
Li3 Zn1 2.784717 1_655
Li3 Zn1 2.784721 1_665
Li3 Zn1 2.784721 1_555
Li4 Si0 2.743188 1_554
Li4 Li5 2.775142 1_564
Li4 Li5 2.775143 1_454
Li4 Li5 2.775149 1_554
Li4 Si3 2.782055 1_565
Li4 Si3 2.782055 1_455
Li4 Si3 2.782061 1_555
Li4 Zn3 2.784855 1_565
Li4 Zn3 2.784859 1_555
Li4 Zn3 2.784859 1_665
Li5 Si3 2.743188 1_556
Li5 Si0 2.782055 1_545
Li5 Si0 2.782055 1_655
Li5 Si0 2.782061 1_555
Li5 Zn0 2.784855 1_655
Li5 Zn0 2.784859 1_665
Li5 Zn0 2.784859 1_555
Li6 Si0 2.740262 1_555
Li6 Li7 2.750443 1_555
Li6 Si1 2.781012 1_565
Li6 Si1 2.781012 1_455
Li6 Si1 2.781018 1_555
Li6 Zn2 2.784717 1_565
Li6 Zn2 2.784721 1_555
Li6 Zn2 2.784721 1_665
Li7 Si2 2.737870 1_555
Li7 Zn2 2.776072 1_565
Li7 Zn2 2.776075 1_555
Li7 Zn2 2.776075 1_665
Li7 Si1 2.779757 1_565
Li7 Si1 2.779757 1_455
Li7 Si1 2.779764 1_555
Si0 Zn0 2.416471 1_565
Si0 Zn0 2.416475 1_555
Si0 Zn0 2.416475 1_665
Si1 Zn2 2.416476 1_655
Si1 Zn2 2.416480 1_665
Si1 Zn2 2.416480 1_555
Si2 Zn1 2.416476 1_565
Si2 Zn1 2.416480 1_555
Si2 Zn1 2.416480 1_665
Si3 Zn3 2.416471 1_655
Si3 Zn3 2.416475 1_665
Si3 Zn3 2.416475 1_555
