# generated using pymatgen
data_Hf2Be17
_symmetry_space_group_name_H-M   'P 1'
_cell_length_a   7.47671241
_cell_length_b   7.47671241
_cell_length_c   21.76655700
_cell_angle_alpha   90.00000000
_cell_angle_beta   90.00000000
_cell_angle_gamma   120.00000361
_symmetry_Int_Tables_number   1
_chemical_formula_structural   Hf2Be17
_chemical_formula_sum   'Hf12 Be102'
_cell_volume   1053.75999261
_cell_formula_units_Z   6
loop_
 _symmetry_equiv_pos_site_id
 _symmetry_equiv_pos_as_xyz
  1  'x, y, z'
loop_
 _atom_site_type_symbol
 _atom_site_label
 _atom_site_symmetry_multiplicity
 _atom_site_fract_x
 _atom_site_fract_y
 _atom_site_fract_z
 _atom_site_occupancy
  Hf  Hf0  1  0.33333300  0.66666700  0.58582000  1
  Hf  Hf1  1  0.66666700  0.33333300  0.41418000  1
  Hf  Hf2  1  0.66666700  0.33333300  0.08582000  1
  Hf  Hf3  1  0.33333300  0.66666700  0.91418000  1
  Hf  Hf4  1  0.33333300  0.66666700  0.25000000  1
  Hf  Hf5  1  0.66666700  0.33333300  0.75000000  1
  Hf  Hf6  1  0.00000000  0.00000000  0.08050500  1
  Hf  Hf7  1  0.00000000  0.00000000  0.91949500  1
  Hf  Hf8  1  0.00000000  0.00000000  0.58050500  1
  Hf  Hf9  1  0.00000000  0.00000000  0.41949500  1
  Hf  Hf10  1  0.33333300  0.66666700  0.75000000  1
  Hf  Hf11  1  0.66666700  0.33333300  0.25000000  1
  Be  Be0  1  0.16534600  0.33069100  0.99555300  1
  Be  Be1  1  0.83465400  0.66930900  0.00444700  1
  Be  Be2  1  0.66930900  0.83465400  0.99555300  1
  Be  Be3  1  0.83465400  0.66930900  0.49555300  1
  Be  Be4  1  0.33069100  0.16534600  0.00444700  1
  Be  Be5  1  0.16534600  0.33069100  0.50444700  1
  Be  Be6  1  0.16534600  0.83465400  0.99555300  1
  Be  Be7  1  0.33069100  0.16534600  0.49555300  1
  Be  Be8  1  0.83465400  0.16534600  0.00444700  1
  Be  Be9  1  0.66930900  0.83465400  0.50444700  1
  Be  Be10  1  0.83465400  0.16534600  0.49555300  1
  Be  Be11  1  0.16534600  0.83465400  0.50444700  1
  Be  Be12  1  0.33333300  0.66666700  0.13124000  1
  Be  Be13  1  0.66666700  0.33333300  0.86876000  1
  Be  Be14  1  0.66666700  0.33333300  0.63124000  1
  Be  Be15  1  0.33333300  0.66666700  0.36876000  1
  Be  Be16  1  0.04467500  0.37805400  0.08324700  1
  Be  Be17  1  0.95532500  0.62194600  0.91675300  1
  Be  Be18  1  0.62194600  0.66662200  0.08324700  1
  Be  Be19  1  0.95532500  0.62194600  0.58324700  1
  Be  Be20  1  0.37805400  0.04467500  0.91675300  1
  Be  Be21  1  0.37805400  0.33337800  0.91675300  1
  Be  Be22  1  0.04467500  0.37805400  0.41675300  1
  Be  Be23  1  0.62194600  0.95532500  0.08324700  1
  Be  Be24  1  0.33337800  0.95532500  0.08324700  1
  Be  Be25  1  0.37805400  0.33337800  0.58324700  1
  Be  Be26  1  0.66662200  0.62194600  0.91675300  1
  Be  Be27  1  0.66662200  0.04467500  0.91675300  1
  Be  Be28  1  0.62194600  0.66662200  0.41675300  1
  Be  Be29  1  0.33337800  0.37805400  0.08324700  1
  Be  Be30  1  0.62194600  0.95532500  0.41675300  1
  Be  Be31  1  0.37805400  0.04467500  0.58324700  1
  Be  Be32  1  0.66662200  0.04467500  0.58324700  1
  Be  Be33  1  0.33337800  0.37805400  0.41675300  1
  Be  Be34  1  0.33337800  0.95532500  0.41675300  1
  Be  Be35  1  0.66662200  0.62194600  0.58324700  1
  Be  Be36  1  0.95532500  0.33337800  0.91675300  1
  Be  Be37  1  0.04467500  0.66662200  0.08324700  1
  Be  Be38  1  0.04467500  0.66662200  0.41675300  1
  Be  Be39  1  0.95532500  0.33337800  0.58324700  1
  Be  Be40  1  0.50183500  0.00367100  0.17106000  1
  Be  Be41  1  0.49816500  0.99632900  0.82894000  1
  Be  Be42  1  0.99632900  0.49816500  0.17106000  1
  Be  Be43  1  0.49816500  0.99632900  0.67106000  1
  Be  Be44  1  0.00367100  0.50183500  0.82894000  1
  Be  Be45  1  0.50183500  0.00367100  0.32894000  1
  Be  Be46  1  0.50183500  0.49816500  0.17106000  1
  Be  Be47  1  0.00367100  0.50183500  0.67106000  1
  Be  Be48  1  0.49816500  0.50183500  0.82894000  1
  Be  Be49  1  0.99632900  0.49816500  0.32894000  1
  Be  Be50  1  0.49816500  0.50183500  0.67106000  1
  Be  Be51  1  0.50183500  0.49816500  0.32894000  1
  Be  Be52  1  0.00000000  0.00000000  0.20143300  1
  Be  Be53  1  0.00000000  0.00000000  0.79856700  1
  Be  Be54  1  0.00000000  0.00000000  0.70143300  1
  Be  Be55  1  0.00000000  0.00000000  0.29856700  1
  Be  Be56  1  0.16770600  0.33541200  0.66265600  1
  Be  Be57  1  0.83229400  0.66458800  0.33734400  1
  Be  Be58  1  0.66458800  0.83229400  0.66265600  1
  Be  Be59  1  0.83229400  0.66458800  0.16265600  1
  Be  Be60  1  0.33541200  0.16770600  0.33734400  1
  Be  Be61  1  0.16770600  0.33541200  0.83734400  1
  Be  Be62  1  0.16770600  0.83229400  0.66265600  1
  Be  Be63  1  0.33541200  0.16770600  0.16265600  1
  Be  Be64  1  0.83229400  0.16770600  0.33734400  1
  Be  Be65  1  0.66458800  0.83229400  0.83734400  1
  Be  Be66  1  0.83229400  0.16770600  0.16265600  1
  Be  Be67  1  0.16770600  0.83229400  0.83734400  1
  Be  Be68  1  0.16657600  0.33315200  0.16633500  1
  Be  Be69  1  0.83342400  0.66684800  0.83366500  1
  Be  Be70  1  0.66684800  0.83342400  0.16633500  1
  Be  Be71  1  0.83342400  0.66684800  0.66633500  1
  Be  Be72  1  0.33315200  0.16657600  0.83366500  1
  Be  Be73  1  0.16657600  0.33315200  0.33366500  1
  Be  Be74  1  0.16657600  0.83342400  0.16633500  1
  Be  Be75  1  0.33315200  0.16657600  0.66633500  1
  Be  Be76  1  0.83342400  0.16657600  0.83366500  1
  Be  Be77  1  0.66684800  0.83342400  0.33366500  1
  Be  Be78  1  0.83342400  0.16657600  0.66633500  1
  Be  Be79  1  0.16657600  0.83342400  0.33366500  1
  Be  Be80  1  0.33333300  0.66666700  0.03480200  1
  Be  Be81  1  0.66666700  0.33333300  0.96519800  1
  Be  Be82  1  0.66666700  0.33333300  0.53480200  1
  Be  Be83  1  0.33333300  0.66666700  0.46519800  1
  Be  Be84  1  0.99878000  0.28756000  0.25000000  1
  Be  Be85  1  0.00122000  0.71244000  0.75000000  1
  Be  Be86  1  0.71244000  0.71121900  0.25000000  1
  Be  Be87  1  0.28756000  0.99878000  0.75000000  1
  Be  Be88  1  0.28756000  0.28878100  0.75000000  1
  Be  Be89  1  0.71244000  0.00122000  0.25000000  1
  Be  Be90  1  0.28878100  0.00122000  0.25000000  1
  Be  Be91  1  0.71121900  0.71244000  0.75000000  1
  Be  Be92  1  0.71121900  0.99878000  0.75000000  1
  Be  Be93  1  0.28878100  0.28756000  0.25000000  1
  Be  Be94  1  0.00122000  0.28878100  0.75000000  1
  Be  Be95  1  0.99878000  0.71121900  0.25000000  1
  Be  Be96  1  0.50000000  0.00000000  0.00000000  1
  Be  Be97  1  0.00000000  0.50000000  0.00000000  1
  Be  Be98  1  0.50000000  0.00000000  0.50000000  1
  Be  Be99  1  0.50000000  0.50000000  0.00000000  1
  Be  Be100  1  0.00000000  0.50000000  0.50000000  1
  Be  Be101  1  0.50000000  0.50000000  0.50000000  1
loop_
_geom_bond_atom_site_label_1
_geom_bond_atom_site_label_2
_geom_bond_distance
_geom_bond_site_symmetry_2
Be0 Be4 2.149959 1_556
Be0 Be8 2.149972 1_456
Be0 Be99 2.169104 1_556
Be0 Be97 2.169110 1_556
Be0 Be29 2.214130 1_556
Be0 Be16 2.214137 1_556
Be0 Be21 2.332298 1_555
Be0 Be36 2.332298 1_455
Be0 Be80 2.337188 1_556
Be0 Hf7 2.706589 1_555
Be0 Hf3 2.805312 1_555
Be0 Hf6 2.829150 1_556
Be1 Be2 2.149959 1_554
Be1 Be6 2.149972 1_654
Be1 Be99 2.169104 1_555
Be1 Be97 2.169110 1_655
Be1 Be26 2.214130 1_554
Be1 Be17 2.214137 1_554
Be1 Be18 2.332298 1_555
Be1 Be37 2.332298 1_655
Be1 Be81 2.337188 1_554
Be1 Hf6 2.706589 1_665
Be1 Hf2 2.805312 1_555
Be1 Hf7 2.829150 1_664
Be2 Be8 2.149972 1_566
Be2 Be99 2.169104 1_556
Be2 Be96 2.169110 1_566
Be2 Be23 2.214137 1_556
Be2 Be26 2.332298 1_555
Be2 Be27 2.332298 1_565
Be2 Be80 2.337188 1_556
Be2 Hf7 2.706589 1_665
Be2 Hf3 2.805312 1_555
Be2 Hf6 2.829150 1_666
Be3 Be9 2.149959 1_555
Be3 Be35 2.214130 1_555
Be3 Be38 2.332298 1_655
Be3 Be82 2.337188 1_555
Be3 Hf9 2.706589 1_665
Be3 Hf1 2.805312 1_555
Be3 Hf8 2.829150 1_665
Be4 Be6 2.149972 1_544
Be4 Be99 2.169104 1_555
Be4 Be96 2.169110 1_555
Be4 Be81 2.337188 1_554
Be4 Hf6 2.706589 1_555
Be4 Hf2 2.805312 1_555
Be4 Hf7 2.829150 1_554
Be5 Be7 2.149959 1_555
Be5 Be83 2.337188 1_555
Be5 Hf8 2.706589 1_555
Be5 Hf0 2.805312 1_555
Be5 Hf9 2.829150 1_555
Be6 Be96 2.169104 1_566
Be6 Be97 2.169104 1_556
Be6 Be80 2.337176 1_556
Be6 Hf7 2.706594 1_565
Be6 Hf3 2.805302 1_555
Be6 Hf6 2.829155 1_566
Be7 Be98 2.169110 1_555
Be7 Be82 2.337188 1_555
Be7 Hf9 2.706589 1_555
Be7 Hf1 2.805312 1_555
Be7 Hf8 2.829150 1_555
Be8 Be97 2.169104 1_655
Be8 Be96 2.169104 1_555
Be8 Be81 2.337176 1_554
Be8 Hf6 2.706594 1_655
Be8 Hf2 2.805302 1_555
Be8 Hf7 2.829155 1_654
Be9 Be98 2.169110 1_565
Be9 Hf8 2.706589 1_665
Be9 Hf0 2.805312 1_555
Be9 Hf9 2.829150 1_665
Be10 Be5 2.149972 1_655
Be10 Be9 2.149972 1_545
Be10 Be100 2.169104 1_655
Be10 Be98 2.169104 1_555
Be10 Be39 2.214132 1_555
Be10 Be32 2.214132 1_555
Be10 Be30 2.332298 1_545
Be10 Be22 2.332298 1_655
Be10 Be82 2.337176 1_555
Be10 Hf9 2.706594 1_655
Be10 Hf1 2.805302 1_555
Be10 Hf8 2.829155 1_655
Be11 Be7 2.149972 1_565
Be11 Be3 2.149972 1_455
Be11 Be98 2.169104 1_565
Be11 Be34 2.214132 1_555
Be11 Be38 2.214132 1_555
Be11 Be19 2.332298 1_455
Be11 Be31 2.332298 1_565
Be11 Be83 2.337176 1_555
Be11 Hf8 2.706594 1_565
Be11 Hf0 2.805302 1_555
Be11 Hf9 2.829155 1_565
Be12 Be80 2.099123 1_555
Be12 Be74 2.290639 1_555
Be12 Be68 2.290645 1_555
Be12 Be70 2.290645 1_555
Be12 Be40 2.347944 1_565
Be12 Be42 2.347944 1_455
Be12 Be46 2.347945 1_555
Be12 Be16 2.397589 1_555
Be12 Be23 2.397589 1_555
Be12 Be37 2.397589 1_555
Be12 Be24 2.397589 1_555
Be12 Be29 2.397589 1_555
Be12 Be18 2.397589 1_555
Be12 Hf4 2.584996 1_555
Be13 Be81 2.099123 1_555
Be13 Be76 2.290639 1_555
Be13 Be69 2.290645 1_555
Be13 Be72 2.290645 1_555
Be13 Be44 2.347944 1_655
Be13 Be41 2.347944 1_545
Be13 Be48 2.347945 1_555
Be13 Be17 2.397589 1_555
Be13 Be20 2.397589 1_555
Be13 Be27 2.397589 1_555
Be13 Be36 2.397589 1_555
Be13 Be21 2.397589 1_555
Be13 Be26 2.397589 1_555
Be13 Hf5 2.584996 1_555
Be14 Be82 2.099123 1_555
Be14 Be78 2.290639 1_555
Be14 Be71 2.290645 1_555
Be14 Be75 2.290645 1_555
Be14 Be47 2.347944 1_655
Be14 Be43 2.347944 1_545
Be14 Be50 2.347945 1_555
Be14 Be19 2.397589 1_555
Be14 Be31 2.397589 1_555
Be14 Be32 2.397589 1_555
Be14 Be39 2.397589 1_555
Be14 Be25 2.397589 1_555
Be14 Be35 2.397589 1_555
Be14 Hf5 2.584996 1_555
Be15 Be83 2.099123 1_555
Be15 Be79 2.290639 1_555
Be15 Be73 2.290645 1_555
Be15 Be77 2.290645 1_555
Be15 Be45 2.347944 1_565
Be15 Be49 2.347944 1_455
Be15 Be51 2.347945 1_555
Be15 Be22 2.397589 1_555
Be15 Be30 2.397589 1_555
Be15 Be38 2.397589 1_555
Be15 Be34 2.397589 1_555
Be15 Be33 2.397589 1_555
Be15 Be28 2.397589 1_555
Be15 Hf4 2.584996 1_555
Be16 Be68 2.126073 1_555
Be16 Be97 2.128558 1_555
Be16 Be37 2.157540 1_555
Be16 Be29 2.158549 1_555
Be16 Be42 2.217011 1_455
Be16 Be8 2.332298 1_455
Be16 Be66 2.342036 1_455
Be16 Be80 2.401892 1_555
Be16 Hf2 2.675381 1_455
Be16 Hf6 2.675941 1_555
Be17 Be69 2.126073 1_555
Be17 Be97 2.128558 1_656
Be17 Be36 2.157540 1_555
Be17 Be26 2.158549 1_555
Be17 Be44 2.217011 1_655
Be17 Be6 2.332298 1_655
Be17 Be67 2.342036 1_655
Be17 Be81 2.401892 1_555
Be17 Hf3 2.675381 1_655
Be17 Hf7 2.675941 1_665
Be18 Be70 2.126070 1_555
Be18 Be99 2.128561 1_555
Be18 Be29 2.157540 1_555
Be18 Be23 2.158549 1_555
Be18 Be2 2.214130 1_554
Be18 Be46 2.217011 1_555
Be18 Be59 2.342039 1_555
Be18 Be80 2.401892 1_555
Be18 Hf2 2.675396 1_555
Be18 Hf6 2.675938 1_665
Be19 Be71 2.126073 1_555
Be19 Be39 2.157540 1_555
Be19 Be35 2.158549 1_555
Be19 Be3 2.214137 1_555
Be19 Be47 2.217011 1_655
Be19 Be62 2.342036 1_655
Be19 Be82 2.401892 1_555
Be19 Hf0 2.675381 1_655
Be19 Hf8 2.675941 1_665
Be20 Be72 2.126073 1_555
Be20 Be96 2.128558 1_556
Be20 Be27 2.157540 1_555
Be20 Be21 2.158549 1_555
Be20 Be4 2.214137 1_556
Be20 Be41 2.217011 1_545
Be20 Be6 2.332298 1_545
Be20 Be67 2.342036 1_545
Be20 Be81 2.401892 1_555
Be20 Hf3 2.675381 1_545
Be20 Hf7 2.675941 1_555
Be21 Be72 2.126070 1_555
Be21 Be99 2.128561 1_556
Be21 Be26 2.157540 1_555
Be21 Be4 2.214130 1_556
Be21 Be48 2.217011 1_555
Be21 Be61 2.342039 1_555
Be21 Be81 2.401892 1_555
Be21 Hf3 2.675396 1_555
Be21 Hf7 2.675938 1_555
Be22 Be73 2.126073 1_555
Be22 Be38 2.157540 1_555
Be22 Be33 2.158549 1_555
Be22 Be5 2.214137 1_555
Be22 Be49 2.217011 1_455
Be22 Be64 2.342036 1_455
Be22 Be83 2.401892 1_555
Be22 Hf1 2.675381 1_455
Be22 Hf9 2.675941 1_555
Be23 Be70 2.126073 1_555
Be23 Be96 2.128558 1_565
Be23 Be24 2.157540 1_555
Be23 Be40 2.217011 1_565
Be23 Be8 2.332298 1_565
Be23 Be66 2.342036 1_565
Be23 Be80 2.401892 1_555
Be23 Hf2 2.675381 1_565
Be23 Hf6 2.675941 1_665
Be24 Be74 2.126071 1_555
Be24 Be96 2.128562 1_565
Be24 Be37 2.158549 1_555
Be24 Be6 2.214132 1_554
Be24 Be40 2.217011 1_565
Be24 Be4 2.332298 1_565
Be24 Be63 2.342034 1_565
Be24 Be80 2.401892 1_555
Be24 Hf2 2.675387 1_565
Be24 Hf6 2.675933 1_565
Be25 Be75 2.126070 1_555
Be25 Be35 2.157540 1_555
Be25 Be31 2.158549 1_555
Be25 Be7 2.214130 1_555
Be25 Be50 2.217011 1_555
Be25 Be5 2.332298 1_555
Be25 Be56 2.342039 1_555
Be25 Be82 2.401892 1_555
Be25 Hf0 2.675396 1_555
Be25 Hf8 2.675938 1_555
Be26 Be69 2.126070 1_555
Be26 Be99 2.128561 1_556
Be26 Be48 2.217011 1_555
Be26 Be65 2.342039 1_555
Be26 Be81 2.401892 1_555
Be26 Hf3 2.675396 1_555
Be26 Hf7 2.675938 1_665
Be27 Be76 2.126071 1_555
Be27 Be96 2.128562 1_556
Be27 Be36 2.158549 1_555
Be27 Be8 2.214132 1_556
Be27 Be41 2.217011 1_545
Be27 Be65 2.342034 1_545
Be27 Be81 2.401892 1_555
Be27 Hf3 2.675387 1_545
Be27 Hf7 2.675933 1_655
Be28 Be77 2.126070 1_555
Be28 Be33 2.157540 1_555
Be28 Be30 2.158549 1_555
Be28 Be9 2.214130 1_555
Be28 Be51 2.217011 1_555
Be28 Be3 2.332298 1_555
Be28 Be57 2.342039 1_555
Be28 Be83 2.401892 1_555
Be28 Hf1 2.675396 1_555
Be28 Hf9 2.675938 1_665
Be29 Be68 2.126070 1_555
Be29 Be99 2.128561 1_555
Be29 Be46 2.217011 1_555
Be29 Be4 2.332298 1_555
Be29 Be63 2.342039 1_555
Be29 Be80 2.401892 1_555
Be29 Hf2 2.675396 1_555
Be29 Hf6 2.675938 1_555
Be30 Be77 2.126073 1_555
Be30 Be98 2.128558 1_565
Be30 Be34 2.157540 1_555
Be30 Be9 2.214137 1_555
Be30 Be45 2.217011 1_565
Be30 Be64 2.342036 1_565
Be30 Be83 2.401892 1_555
Be30 Hf1 2.675381 1_565
Be30 Hf9 2.675941 1_665
Be31 Be75 2.126073 1_555
Be31 Be98 2.128558 1_555
Be31 Be32 2.157540 1_555
Be31 Be7 2.214137 1_555
Be31 Be43 2.217011 1_545
Be31 Be62 2.342036 1_545
Be31 Be82 2.401892 1_555
Be31 Hf0 2.675381 1_545
Be31 Hf8 2.675941 1_555
Be32 Be78 2.126071 1_555
Be32 Be98 2.128562 1_555
Be32 Be39 2.158549 1_555
Be32 Be43 2.217011 1_545
Be32 Be9 2.332298 1_545
Be32 Be58 2.342034 1_545
Be32 Be82 2.401892 1_555
Be32 Hf0 2.675387 1_545
Be32 Hf8 2.675933 1_655
Be33 Be73 2.126070 1_555
Be33 Be5 2.214130 1_555
Be33 Be51 2.217011 1_555
Be33 Be7 2.332298 1_555
Be33 Be60 2.342039 1_555
Be33 Be83 2.401892 1_555
Be33 Hf1 2.675396 1_555
Be33 Hf9 2.675938 1_555
Be34 Be79 2.126071 1_555
Be34 Be98 2.128562 1_565
Be34 Be38 2.158549 1_555
Be34 Be45 2.217011 1_565
Be34 Be7 2.332298 1_565
Be34 Be60 2.342034 1_565
Be34 Be83 2.401892 1_555
Be34 Hf1 2.675387 1_565
Be34 Hf9 2.675933 1_565
Be35 Be71 2.126070 1_555
Be35 Be50 2.217011 1_555
Be35 Be9 2.332298 1_555
Be35 Be58 2.342039 1_555
Be35 Be82 2.401892 1_555
Be35 Hf0 2.675396 1_555
Be35 Hf8 2.675938 1_665
Be36 Be76 2.126071 1_555
Be36 Be97 2.128562 1_656
Be36 Be8 2.214132 1_556
Be36 Be44 2.217011 1_655
Be36 Be61 2.342034 1_655
Be36 Be81 2.401892 1_555
Be36 Hf3 2.675387 1_655
Be36 Hf7 2.675933 1_655
Be37 Be74 2.126071 1_555
Be37 Be97 2.128562 1_555
Be37 Be6 2.214132 1_554
Be37 Be42 2.217011 1_455
Be37 Be59 2.342034 1_455
Be37 Be80 2.401892 1_555
Be37 Hf2 2.675387 1_455
Be37 Hf6 2.675933 1_565
Be38 Be79 2.126071 1_555
Be38 Be49 2.217011 1_455
Be38 Be57 2.342034 1_455
Be38 Be83 2.401892 1_555
Be38 Hf1 2.675387 1_455
Be38 Hf9 2.675933 1_565
Be39 Be78 2.126071 1_555
Be39 Be47 2.217011 1_655
Be39 Be5 2.332298 1_655
Be39 Be56 2.342034 1_655
Be39 Be82 2.401892 1_555
Be39 Hf0 2.675387 1_655
Be39 Hf8 2.675933 1_655
Be40 Be63 2.147547 1_555
Be40 Be66 2.147553 1_555
Be40 Be74 2.173333 1_545
Be40 Be70 2.173339 1_545
Be40 Be90 2.336879 1_555
Be40 Be89 2.336889 1_555
Be40 Hf11 2.740214 1_555
Be40 Hf4 2.777407 1_545
Be40 Hf2 2.828219 1_555
Be41 Be65 2.147547 1_555
Be41 Be67 2.147553 1_555
Be41 Be76 2.173333 1_565
Be41 Be72 2.173339 1_565
Be41 Be92 2.336879 1_555
Be41 Be87 2.336889 1_555
Be41 Hf10 2.740214 1_555
Be41 Hf5 2.777407 1_565
Be41 Hf3 2.828219 1_555
Be42 Be59 2.147547 1_555
Be42 Be66 2.147553 1_555
Be42 Be74 2.173333 1_655
Be42 Be68 2.173339 1_655
Be42 Be95 2.336879 1_555
Be42 Be84 2.336889 1_555
Be42 Hf11 2.740214 1_555
Be42 Hf4 2.777407 1_655
Be42 Hf2 2.828219 1_555
Be43 Be58 2.147547 1_555
Be43 Be62 2.147553 1_555
Be43 Be78 2.173333 1_565
Be43 Be75 2.173339 1_565
Be43 Be92 2.336879 1_555
Be43 Be87 2.336889 1_555
Be43 Hf10 2.740214 1_555
Be43 Hf5 2.777407 1_565
Be43 Hf0 2.828219 1_555
Be44 Be61 2.147547 1_555
Be44 Be67 2.147553 1_555
Be44 Be76 2.173333 1_455
Be44 Be69 2.173339 1_455
Be44 Be94 2.336879 1_555
Be44 Be85 2.336889 1_555
Be44 Hf10 2.740214 1_555
Be44 Hf5 2.777407 1_455
Be44 Hf3 2.828219 1_555
Be45 Be60 2.147547 1_555
Be45 Be64 2.147553 1_555
Be45 Be79 2.173333 1_545
Be45 Be77 2.173339 1_545
Be45 Be90 2.336879 1_555
Be45 Be89 2.336889 1_555
Be45 Hf11 2.740214 1_555
Be45 Hf4 2.777407 1_545
Be45 Hf1 2.828219 1_555
Be46 Be63 2.147553 1_555
Be46 Be59 2.147553 1_555
Be46 Be70 2.173333 1_555
Be46 Be68 2.173333 1_555
Be46 Be93 2.336884 1_555
Be46 Be86 2.336884 1_555
Be46 Hf11 2.740224 1_555
Be46 Hf4 2.777407 1_555
Be46 Hf2 2.828229 1_555
Be47 Be56 2.147547 1_555
Be47 Be62 2.147553 1_555
Be47 Be78 2.173333 1_455
Be47 Be71 2.173339 1_455
Be47 Be94 2.336879 1_555
Be47 Be85 2.336889 1_555
Be47 Hf10 2.740214 1_555
Be47 Hf5 2.777407 1_455
Be47 Hf0 2.828219 1_555
Be48 Be61 2.147553 1_555
Be48 Be65 2.147553 1_555
Be48 Be72 2.173333 1_555
Be48 Be69 2.173333 1_555
Be48 Be88 2.336884 1_555
Be48 Be91 2.336884 1_555
Be48 Hf10 2.740224 1_555
Be48 Hf5 2.777407 1_555
Be48 Hf3 2.828229 1_555
Be49 Be57 2.147547 1_555
Be49 Be64 2.147553 1_555
Be49 Be79 2.173333 1_655
Be49 Be73 2.173339 1_655
Be49 Be95 2.336879 1_555
Be49 Be84 2.336889 1_555
Be49 Hf11 2.740214 1_555
Be49 Hf4 2.777407 1_655
Be49 Hf1 2.828219 1_555
Be50 Be56 2.147553 1_555
Be50 Be58 2.147553 1_555
Be50 Be71 2.173333 1_555
Be50 Be75 2.173333 1_555
Be50 Be88 2.336884 1_555
Be50 Be91 2.336884 1_555
Be50 Hf10 2.740224 1_555
Be50 Hf5 2.777407 1_555
Be50 Hf0 2.828229 1_555
Be51 Be60 2.147553 1_555
Be51 Be57 2.147553 1_555
Be51 Be77 2.173333 1_555
Be51 Be73 2.173333 1_555
Be51 Be93 2.336884 1_555
Be51 Be86 2.336884 1_555
Be51 Hf11 2.740224 1_555
Be51 Hf4 2.777407 1_555
Be51 Hf1 2.828229 1_555
Be52 Be55 2.114273 1_555
Be52 Be70 2.288451 1_445
Be52 Be68 2.288451 1_555
Be52 Be74 2.288451 1_545
Be52 Be63 2.330048 1_555
Be52 Be59 2.330048 1_445
Be52 Be66 2.330048 1_455
Be52 Be89 2.399947 1_455
Be52 Be84 2.399947 1_455
Be52 Be93 2.399950 1_555
Be52 Be86 2.399950 1_445
Be52 Be90 2.399954 1_555
Be52 Be95 2.399954 1_445
Be52 Hf6 2.632186 1_555
Be53 Be54 2.114273 1_555
Be53 Be72 2.288451 1_555
Be53 Be69 2.288451 1_445
Be53 Be76 2.288451 1_455
Be53 Be61 2.330048 1_555
Be53 Be65 2.330048 1_445
Be53 Be67 2.330048 1_545
Be53 Be85 2.399947 1_545
Be53 Be87 2.399947 1_545
Be53 Be88 2.399950 1_555
Be53 Be91 2.399950 1_445
Be53 Be94 2.399954 1_555
Be53 Be92 2.399954 1_445
Be53 Hf7 2.632186 1_555
Be54 Be71 2.288451 1_445
Be54 Be75 2.288451 1_555
Be54 Be78 2.288451 1_455
Be54 Be56 2.330048 1_555
Be54 Be58 2.330048 1_445
Be54 Be62 2.330048 1_545
Be54 Be85 2.399947 1_545
Be54 Be87 2.399947 1_545
Be54 Be88 2.399950 1_555
Be54 Be91 2.399950 1_445
Be54 Be94 2.399954 1_555
Be54 Be92 2.399954 1_445
Be54 Hf8 2.632186 1_555
Be55 Be73 2.288451 1_555
Be55 Be77 2.288451 1_445
Be55 Be79 2.288451 1_545
Be55 Be60 2.330048 1_555
Be55 Be57 2.330048 1_445
Be55 Be64 2.330048 1_455
Be55 Be89 2.399947 1_455
Be55 Be84 2.399947 1_455
Be55 Be93 2.399950 1_555
Be55 Be86 2.399950 1_445
Be55 Be90 2.399954 1_555
Be55 Be95 2.399954 1_445
Be55 Hf9 2.632186 1_555
Be56 Be78 2.166001 1_455
Be56 Be75 2.166002 1_555
Be56 Be88 2.202608 1_555
Be56 Be94 2.202611 1_555
Be56 Hf0 2.719859 1_555
Be56 Hf8 2.813215 1_555
Be56 Hf10 2.866183 1_555
Be57 Be79 2.166001 1_655
Be57 Be77 2.166002 1_555
Be57 Be86 2.202608 1_555
Be57 Be95 2.202611 1_555
Be57 Hf1 2.719859 1_555
Be57 Hf9 2.813215 1_665
Be57 Hf11 2.866183 1_555
Be58 Be78 2.166001 1_565
Be58 Be71 2.166002 1_555
Be58 Be91 2.202608 1_555
Be58 Be92 2.202611 1_555
Be58 Hf0 2.719859 1_555
Be58 Hf8 2.813215 1_665
Be58 Hf10 2.866183 1_555
Be59 Be74 2.166001 1_655
Be59 Be70 2.166002 1_555
Be59 Be86 2.202608 1_555
Be59 Be95 2.202611 1_555
Be59 Hf2 2.719859 1_555
Be59 Hf6 2.813215 1_665
Be59 Hf11 2.866183 1_555
Be60 Be79 2.166001 1_545
Be60 Be73 2.166002 1_555
Be60 Be93 2.202608 1_555
Be60 Be90 2.202611 1_555
Be60 Hf1 2.719859 1_555
Be60 Hf9 2.813215 1_555
Be60 Hf11 2.866183 1_555
Be61 Be76 2.166001 1_455
Be61 Be72 2.166002 1_555
Be61 Be88 2.202608 1_555
Be61 Be94 2.202611 1_555
Be61 Hf3 2.719859 1_555
Be61 Hf7 2.813215 1_555
Be61 Hf10 2.866183 1_555
Be62 Be75 2.166001 1_565
Be62 Be71 2.166001 1_455
Be62 Be85 2.202610 1_555
Be62 Be87 2.202610 1_555
Be62 Hf0 2.719854 1_555
Be62 Hf8 2.813215 1_565
Be62 Hf10 2.866178 1_555
Be63 Be74 2.166001 1_545
Be63 Be68 2.166002 1_555
Be63 Be93 2.202608 1_555
Be63 Be90 2.202611 1_555
Be63 Hf2 2.719859 1_555
Be63 Hf6 2.813215 1_555
Be63 Hf11 2.866183 1_555
Be64 Be73 2.166001 1_655
Be64 Be77 2.166001 1_545
Be64 Be89 2.202610 1_555
Be64 Be84 2.202610 1_555
Be64 Hf1 2.719854 1_555
Be64 Hf9 2.813215 1_655
Be64 Hf11 2.866178 1_555
Be65 Be76 2.166001 1_565
Be65 Be69 2.166002 1_555
Be65 Be91 2.202608 1_555
Be65 Be92 2.202611 1_555
Be65 Hf3 2.719859 1_555
Be65 Hf7 2.813215 1_665
Be65 Hf10 2.866183 1_555
Be66 Be68 2.166001 1_655
Be66 Be70 2.166001 1_545
Be66 Be89 2.202610 1_555
Be66 Be84 2.202610 1_555
Be66 Hf2 2.719854 1_555
Be66 Hf6 2.813215 1_655
Be66 Hf11 2.866178 1_555
Be67 Be72 2.166001 1_565
Be67 Be69 2.166001 1_455
Be67 Be85 2.202610 1_555
Be67 Be87 2.202610 1_555
Be67 Hf3 2.719854 1_555
Be67 Hf7 2.813215 1_565
Be67 Hf10 2.866178 1_555
Be68 Be84 2.139830 1_455
Be68 Be93 2.139834 1_555
Be68 Hf4 2.824875 1_555
Be68 Hf6 2.853704 1_555
Be69 Be85 2.139830 1_655
Be69 Be91 2.139834 1_555
Be69 Hf5 2.824875 1_555
Be69 Hf7 2.853704 1_665
Be70 Be89 2.139830 1_565
Be70 Be86 2.139834 1_555
Be70 Hf4 2.824875 1_555
Be70 Hf6 2.853704 1_665
Be71 Be85 2.139830 1_655
Be71 Be91 2.139834 1_555
Be71 Hf5 2.824875 1_555
Be71 Hf8 2.853704 1_665
Be72 Be87 2.139830 1_545
Be72 Be88 2.139834 1_555
Be72 Hf5 2.824875 1_555
Be72 Hf7 2.853704 1_555
Be73 Be84 2.139830 1_455
Be73 Be93 2.139834 1_555
Be73 Hf4 2.824875 1_555
Be73 Hf9 2.853704 1_555
Be74 Be95 2.139831 1_455
Be74 Be90 2.139831 1_565
Be74 Hf4 2.824870 1_555
Be74 Hf6 2.853704 1_565
Be75 Be87 2.139830 1_545
Be75 Be88 2.139834 1_555
Be75 Hf5 2.824875 1_555
Be75 Hf8 2.853704 1_555
Be76 Be92 2.139831 1_545
Be76 Be94 2.139831 1_655
Be76 Hf5 2.824870 1_555
Be76 Hf7 2.853704 1_655
Be77 Be89 2.139830 1_565
Be77 Be86 2.139834 1_555
Be77 Hf4 2.824875 1_555
Be77 Hf9 2.853704 1_665
Be78 Be92 2.139831 1_545
Be78 Be94 2.139831 1_655
Be78 Hf5 2.824870 1_555
Be78 Hf8 2.853704 1_655
Be79 Be95 2.139831 1_455
Be79 Be90 2.139831 1_565
Be79 Hf4 2.824870 1_555
Be79 Hf9 2.853704 1_565
Be80 Be97 2.287414 1_555
Be80 Be96 2.287414 1_565
Be80 Be99 2.287420 1_555
Be80 Hf3 2.625526 1_554
Be81 Be97 2.287414 1_656
Be81 Be96 2.287414 1_556
Be81 Be99 2.287420 1_556
Be81 Hf2 2.625526 1_556
Be82 Be98 2.287414 1_555
Be82 Hf1 2.625526 1_555
Be83 Be98 2.287414 1_565
Be83 Be9 2.337188 1_555
Be83 Hf0 2.625526 1_555
Be84 Be89 2.140882 1_555
Be84 Be93 2.168254 1_655
Be84 Hf11 2.670725 1_555
Be84 Hf4 2.683467 1_655
Be85 Be87 2.140882 1_555
Be85 Be91 2.168254 1_455
Be85 Hf10 2.670725 1_555
Be85 Hf5 2.683467 1_455
Be86 Be95 2.140882 1_555
Be86 Be89 2.168254 1_565
Be86 Hf11 2.670725 1_555
Be86 Hf4 2.683473 1_555
Be87 Be88 2.168254 1_565
Be87 Hf10 2.670725 1_555
Be87 Hf5 2.683467 1_565
Be88 Be94 2.140882 1_555
Be88 Hf10 2.670725 1_555
Be88 Hf5 2.683473 1_555
Be89 Hf11 2.670725 1_555
Be89 Hf4 2.683467 1_545
Be90 Be93 2.140882 1_555
Be90 Be95 2.168254 1_445
Be90 Hf11 2.670725 1_555
Be90 Hf4 2.683459 1_545
Be91 Be92 2.140882 1_555
Be91 Hf10 2.670725 1_555
Be91 Hf5 2.683473 1_555
Be92 Be94 2.168254 1_665
Be92 Hf10 2.670725 1_555
Be92 Hf5 2.683459 1_565
Be93 Hf11 2.670725 1_555
Be93 Hf4 2.683473 1_555
Be94 Hf10 2.670725 1_555
Be94 Hf5 2.683459 1_455
Be95 Hf11 2.670725 1_555
Be95 Hf4 2.683459 1_655
Be96 Hf3 2.854448 1_544
Be96 Hf2 2.854448 1_555
Be97 Hf3 2.854448 1_554
Be97 Hf2 2.854448 1_455
Be98 Hf1 2.854448 1_555
Be98 Hf0 2.854448 1_545
Be99 Hf3 2.854453 1_554
Be99 Hf2 2.854453 1_555
Be100 Be19 2.128558 1_455
Be100 Be22 2.128558 1_555
Be100 Be38 2.128562 1_555
Be100 Be39 2.128562 1_455
Be100 Be11 2.169104 1_555
Be100 Be3 2.169110 1_455
Be100 Be5 2.169110 1_555
Be100 Be82 2.287414 1_455
Be100 Be83 2.287414 1_555
Be100 Hf1 2.854448 1_455
Be100 Hf0 2.854448 1_555
Be101 Be35 2.128561 1_555
Be101 Be28 2.128561 1_555
Be101 Be25 2.128561 1_555
Be101 Be33 2.128561 1_555
Be101 Be9 2.169104 1_555
Be101 Be5 2.169104 1_555
Be101 Be7 2.169104 1_555
Be101 Be3 2.169104 1_555
Be101 Be82 2.287420 1_555
Be101 Be83 2.287420 1_555
Be101 Hf1 2.854453 1_555
Be101 Hf0 2.854453 1_555
