# generated using pymatgen
data_Mg2S3(NO6)2
_symmetry_space_group_name_H-M   'P 1'
_cell_length_a   10.08546550
_cell_length_b   10.08546550
_cell_length_c   10.08546550
_cell_angle_alpha   90.00000000
_cell_angle_beta   90.00000000
_cell_angle_gamma   90.00000000
_symmetry_Int_Tables_number   1
_chemical_formula_structural   Mg2S3(NO6)2
_chemical_formula_sum   'Mg8 S12 N8 O48'
_cell_volume   1025.85940482
_cell_formula_units_Z   4
loop_
 _symmetry_equiv_pos_site_id
 _symmetry_equiv_pos_as_xyz
  1  'x, y, z'
loop_
 _atom_site_type_symbol
 _atom_site_label
 _atom_site_symmetry_multiplicity
 _atom_site_fract_x
 _atom_site_fract_y
 _atom_site_fract_z
 _atom_site_occupancy
  Mg  Mg0  1  0.91468454  0.41468454  0.08531546  1
  Mg  Mg1  1  0.41468454  0.08531546  0.91468454  1
  Mg  Mg2  1  0.08531546  0.91468454  0.41468454  1
  Mg  Mg3  1  0.58531546  0.58531546  0.58531546  1
  Mg  Mg4  1  0.64862095  0.14862095  0.35137905  1
  Mg  Mg5  1  0.14862095  0.35137905  0.64862095  1
  Mg  Mg6  1  0.35137905  0.64862095  0.14862095  1
  Mg  Mg7  1  0.85137905  0.85137905  0.85137905  1
  S  S0  1  0.23390432  0.37567491  0.96619939  1
  S  S1  1  0.03380061  0.73390432  0.12432509  1
  S  S2  1  0.87567491  0.53380061  0.76609568  1
  S  S3  1  0.73390432  0.12432509  0.03380061  1
  S  S4  1  0.53380061  0.76609568  0.87567491  1
  S  S5  1  0.37567491  0.96619939  0.23390432  1
  S  S6  1  0.76609568  0.87567491  0.53380061  1
  S  S7  1  0.96619939  0.23390432  0.37567491  1
  S  S8  1  0.12432509  0.03380061  0.73390432  1
  S  S9  1  0.26609568  0.62432509  0.46619939  1
  S  S10  1  0.46619939  0.26609568  0.62432509  1
  S  S11  1  0.62432509  0.46619939  0.26609568  1
  N  N0  1  0.43393892  0.93393892  0.56606108  1
  N  N1  1  0.93393892  0.56606108  0.43393892  1
  N  N2  1  0.56606108  0.43393892  0.93393892  1
  N  N3  1  0.06606108  0.06606108  0.06606108  1
  N  N4  1  0.20216787  0.70216787  0.79783213  1
  N  N5  1  0.70216787  0.79783213  0.20216787  1
  N  N6  1  0.79783213  0.20216787  0.70216787  1
  N  N7  1  0.29783213  0.29783213  0.29783213  1
  O  O0  1  0.09348804  0.35192224  0.00279466  1
  O  O1  1  0.99720534  0.59348804  0.14807776  1
  O  O2  1  0.85192224  0.49720534  0.90651196  1
  O  O3  1  0.59348804  0.14807776  0.99720534  1
  O  O4  1  0.49720534  0.90651196  0.85192224  1
  O  O5  1  0.35192224  0.00279466  0.09348804  1
  O  O6  1  0.90651196  0.85192224  0.49720534  1
  O  O7  1  0.00279466  0.09348804  0.35192224  1
  O  O8  1  0.14807776  0.99720534  0.59348804  1
  O  O9  1  0.40651196  0.64807776  0.50279466  1
  O  O10  1  0.50279466  0.40651196  0.64807776  1
  O  O11  1  0.64807776  0.50279466  0.40651196  1
  O  O12  1  0.30979033  0.25072786  0.98126434  1
  O  O13  1  0.01873566  0.80979033  0.24927214  1
  O  O14  1  0.75072786  0.51873566  0.69020967  1
  O  O15  1  0.80979033  0.24927214  0.01873566  1
  O  O16  1  0.51873566  0.69020967  0.75072786  1
  O  O17  1  0.25072786  0.98126434  0.30979033  1
  O  O18  1  0.69020967  0.75072786  0.51873566  1
  O  O19  1  0.98126434  0.30979033  0.25072786  1
  O  O20  1  0.24927214  0.01873566  0.80979033  1
  O  O21  1  0.19020967  0.74927214  0.48126434  1
  O  O22  1  0.48126434  0.19020967  0.74927214  1
  O  O23  1  0.74927214  0.48126434  0.19020967  1
  O  O24  1  0.23899614  0.41722019  0.82532680  1
  O  O25  1  0.17467320  0.73899614  0.08277981  1
  O  O26  1  0.91722019  0.67467320  0.76100386  1
  O  O27  1  0.73899614  0.08277981  0.17467320  1
  O  O28  1  0.67467320  0.76100386  0.91722019  1
  O  O29  1  0.41722019  0.82532680  0.23899614  1
  O  O30  1  0.76100386  0.91722019  0.67467320  1
  O  O31  1  0.82532680  0.23899614  0.41722019  1
  O  O32  1  0.08277981  0.17467320  0.73899614  1
  O  O33  1  0.26100386  0.58277981  0.32532680  1
  O  O34  1  0.32532680  0.26100386  0.58277981  1
  O  O35  1  0.58277981  0.32532680  0.26100386  1
  O  O36  1  0.29181995  0.47734262  0.05284329  1
  O  O37  1  0.94715671  0.79181995  0.02265738  1
  O  O38  1  0.97734262  0.44715671  0.70818005  1
  O  O39  1  0.79181995  0.02265738  0.94715671  1
  O  O40  1  0.44715671  0.70818005  0.97734262  1
  O  O41  1  0.47734262  0.05284329  0.29181995  1
  O  O42  1  0.70818005  0.97734262  0.44715671  1
  O  O43  1  0.05284329  0.29181995  0.47734262  1
  O  O44  1  0.02265738  0.94715671  0.79181995  1
  O  O45  1  0.20818005  0.52265738  0.55284329  1
  O  O46  1  0.55284329  0.20818005  0.52265738  1
  O  O47  1  0.52265738  0.55284329  0.20818005  1
loop_
_geom_bond_atom_site_label_1
_geom_bond_atom_site_label_2
_geom_bond_distance
_geom_bond_site_symmetry_2
Mg0 O0 2.084534 1_655
Mg0 O2 2.084534 1_554
Mg0 O1 2.084534 1_555
Mg0 O15 2.086422 1_555
Mg0 O23 2.086422 1_555
Mg0 O19 2.086422 1_555
Mg1 O5 2.084534 1_556
Mg1 O4 2.084534 1_545
Mg1 O3 2.084534 1_555
Mg1 O20 2.086422 1_555
Mg1 O22 2.086422 1_555
Mg1 O12 2.086422 1_555
Mg2 O7 2.084534 1_565
Mg2 O6 2.084534 1_455
Mg2 O8 2.084534 1_555
Mg2 O13 2.086422 1_555
Mg2 O21 2.086422 1_555
Mg2 O17 2.086422 1_555
Mg3 O10 2.084534 1_555
Mg3 O11 2.084534 1_555
Mg3 O9 2.084534 1_555
Mg3 O18 2.086422 1_555
Mg3 O14 2.086422 1_555
Mg3 O16 2.086422 1_555
Mg4 O42 2.068305 1_545
Mg4 O41 2.068305 1_555
Mg4 O46 2.068305 1_555
Mg4 O31 2.108988 1_555
Mg4 O35 2.108988 1_555
Mg4 O27 2.108988 1_555
Mg5 O43 2.068305 1_555
Mg5 O38 2.068305 1_455
Mg5 O45 2.068305 1_555
Mg5 O24 2.108988 1_555
Mg5 O34 2.108988 1_555
Mg5 O32 2.108988 1_555
Mg6 O36 2.068305 1_555
Mg6 O40 2.068305 1_554
Mg6 O47 2.068305 1_555
Mg6 O29 2.108988 1_555
Mg6 O33 2.108988 1_555
Mg6 O25 2.108988 1_555
Mg7 O44 2.068305 1_655
Mg7 O39 2.068305 1_565
Mg7 O37 2.068305 1_556
Mg7 O28 2.108988 1_555
Mg7 O26 2.108988 1_555
Mg7 O30 2.108988 1_555
O0 S0 1.482945 1_554
O1 S1 1.482945 1_655
O2 S2 1.482945 1_555
O3 S3 1.482945 1_556
O4 S4 1.482945 1_555
O5 S5 1.482945 1_545
O6 S6 1.482945 1_555
O7 S7 1.482945 1_455
O8 S8 1.482945 1_565
O9 S9 1.482945 1_555
O10 S10 1.482945 1_555
O11 S11 1.482945 1_555
O12 S0 1.482166 1_555
O13 S1 1.482166 1_555
O14 S2 1.482166 1_555
O15 S3 1.482166 1_555
O16 S4 1.482166 1_555
O17 S5 1.482166 1_555
O18 S6 1.482166 1_555
O19 S7 1.482166 1_555
O20 S8 1.482166 1_555
O21 S9 1.482166 1_555
O22 S10 1.482166 1_555
O23 S11 1.482166 1_555
O24 S0 1.482153 1_555
O25 S1 1.482153 1_555
O26 S2 1.482153 1_555
O27 S3 1.482153 1_555
O28 S4 1.482153 1_555
O29 S5 1.482153 1_555
O30 S6 1.482153 1_555
O31 S7 1.482153 1_555
O32 S8 1.482153 1_555
O33 S9 1.482153 1_555
O34 S10 1.482153 1_555
O35 S11 1.482153 1_555
O36 S0 1.468387 1_554
O37 S1 1.468387 1_655
O38 S2 1.468387 1_555
O39 S3 1.468387 1_556
O40 S4 1.468387 1_555
O41 S5 1.468387 1_545
O42 S6 1.468387 1_555
O43 S7 1.468387 1_455
O44 S8 1.468387 1_565
O45 S9 1.468387 1_555
O46 S10 1.468387 1_555
O47 S11 1.468387 1_555
