# generated using pymatgen
data_EuCo2SiGe
_symmetry_space_group_name_H-M   'P 1'
_cell_length_a   5.83656712
_cell_length_b   5.83656712
_cell_length_c   5.83656712
_cell_angle_alpha   140.31899660
_cell_angle_beta   140.31899660
_cell_angle_gamma   57.36926671
_symmetry_Int_Tables_number   1
_chemical_formula_structural   EuCo2SiGe
_chemical_formula_sum   'Eu1 Co2 Si1 Ge1'
_cell_volume   80.37099484
_cell_formula_units_Z   1
loop_
 _symmetry_equiv_pos_site_id
 _symmetry_equiv_pos_as_xyz
  1  'x, y, z'
loop_
 _atom_site_type_symbol
 _atom_site_label
 _atom_site_symmetry_multiplicity
 _atom_site_fract_x
 _atom_site_fract_y
 _atom_site_fract_z
 _atom_site_occupancy
  Eu  Eu0  1  0.99887200  0.99887200  0.00000000  1
  Co  Co0  1  0.75412200  0.25412200  0.50000000  1
  Co  Co1  1  0.25412200  0.75412200  0.50000000  1
  Si  Si0  1  0.36308600  0.36308600  0.00000000  1
  Ge  Ge0  1  0.62979800  0.62979800  0.00000000  1
loop_
_geom_bond_atom_site_label_1
_geom_bond_atom_site_label_2
_geom_bond_distance
_geom_bond_site_symmetry_2
Eu0 Ge0 3.105790 1_554
Eu0 Ge0 3.105790 1_565
Eu0 Ge0 3.105790 1_655
Eu0 Ge0 3.105790 1_666
Eu0 Si0 3.127597 1_666
Eu0 Si0 3.127597 1_655
Eu0 Si0 3.127597 1_554
Eu0 Si0 3.127597 1_565
Co0 Si0 2.273605 1_656
Co0 Si0 2.273605 1_555
Co0 Ge0 2.354794 1_556
Co0 Ge0 2.354794 1_545
Co0 Eu0 3.194693 1_556
Co0 Eu0 3.194693 1_545
Co0 Eu0 3.279730 1_445
Co0 Eu0 3.279730 1_546
Co1 Si0 2.273605 1_555
Co1 Si0 2.273605 1_566
Co1 Ge0 2.354794 1_556
Co1 Ge0 2.354794 1_455
Co1 Eu0 3.194693 1_455
Co1 Eu0 3.194693 1_556
Co1 Eu0 3.279730 1_456
Co1 Eu0 3.279730 1_445
Ge0 Si0 2.731277 1_555
