# generated using pymatgen
data_KSmMn4O12
_symmetry_space_group_name_H-M   'P 1'
_cell_length_a   5.35433966
_cell_length_b   5.35433966
_cell_length_c   7.60399900
_cell_angle_alpha   90.00000000
_cell_angle_beta   90.00000000
_cell_angle_gamma   89.62162642
_symmetry_Int_Tables_number   1
_chemical_formula_structural   KSmMn4O12
_chemical_formula_sum   'K1 Sm1 Mn4 O12'
_cell_volume   217.99393752
_cell_formula_units_Z   1
loop_
 _symmetry_equiv_pos_site_id
 _symmetry_equiv_pos_as_xyz
  1  'x, y, z'
loop_
 _atom_site_type_symbol
 _atom_site_label
 _atom_site_symmetry_multiplicity
 _atom_site_fract_x
 _atom_site_fract_y
 _atom_site_fract_z
 _atom_site_occupancy
  K  K0  1  0.99370771  0.99370771  0.50000000  1
  Sm  Sm0  1  0.51105232  0.51105232  -0.00000000  1
  Mn  Mn0  1  0.50320270  0.00602382  0.74273694  1
  Mn  Mn1  1  0.50320270  0.00602382  0.25726306  1
  Mn  Mn2  1  0.00602382  0.50320270  0.25726306  1
  Mn  Mn3  1  0.00602382  0.50320270  0.74273694  1
  O  O0  1  0.75543220  0.24369723  0.77749937  1
  O  O1  1  0.24369723  0.75543220  0.77749937  1
  O  O2  1  0.24369723  0.75543220  0.22250063  1
  O  O3  1  0.75543220  0.24369723  0.22250063  1
  O  O4  1  0.71563799  0.71563799  0.74149145  1
  O  O5  1  0.27011594  0.27011594  0.79047376  1
  O  O6  1  0.27011594  0.27011594  0.20952624  1
  O  O7  1  0.71563799  0.71563799  0.25850855  1
  O  O8  1  0.52100983  0.96657441  -0.00000000  1
  O  O9  1  0.47783148  0.04060449  0.50000000  1
  O  O10  1  0.96657441  0.52100983  -0.00000000  1
  O  O11  1  0.04060449  0.47783148  0.50000000  1
loop_
_geom_bond_atom_site_label_1
_geom_bond_atom_site_label_2
_geom_bond_distance
_geom_bond_site_symmetry_2
K0 O11 2.605947 1_665
K0 O9 2.605947 1_665
K0 O9 2.771915 1_565
K0 O11 2.771915 1_655
K0 O7 2.799072 1_555
K0 O4 2.799072 1_555
K0 O3 2.801666 1_565
K0 O0 2.801666 1_565
K0 O2 2.801666 1_655
K0 O1 2.801666 1_655
K0 O5 3.047665 1_665
K0 O6 3.047665 1_665
Mn0 O9 1.859913 1_555
Mn0 O0 1.880413 1_555
Mn0 O5 1.914557 1_555
Mn0 O4 1.920418 1_545
Mn0 O1 1.955876 1_545
Mn0 O8 1.969840 1_546
Mn1 O9 1.859913 1_555
Mn1 O3 1.880413 1_555
Mn1 O6 1.914557 1_555
Mn1 O7 1.920418 1_545
Mn1 O2 1.955876 1_545
Mn1 O8 1.969840 1_545
Mn2 O11 1.859913 1_555
Mn2 O2 1.880413 1_555
Mn2 O6 1.914557 1_555
Mn2 O7 1.920418 1_455
Mn2 O3 1.955876 1_455
Mn2 O10 1.969840 1_455
Mn3 O11 1.859913 1_555
Mn3 O1 1.880413 1_555
Mn3 O5 1.914557 1_555
Mn3 O4 1.920418 1_455
Mn3 O0 1.955876 1_455
Mn3 O10 1.969840 1_456
O0 Sm0 2.568880 1_556
O1 Sm0 2.568880 1_556
O2 Sm0 2.568880 1_555
O3 Sm0 2.568880 1_555
O4 Sm0 2.505936 1_556
O5 Sm0 2.426700 1_556
O6 Sm0 2.426700 1_555
O7 Sm0 2.505936 1_555
O8 Sm0 2.439955 1_555
O10 Sm0 2.439955 1_555
