# generated using pymatgen
data_BaNaSmWO6
_symmetry_space_group_name_H-M   'P 1'
_cell_length_a   8.41336510
_cell_length_b   8.46307184
_cell_length_c   8.48349910
_cell_angle_alpha   90.00000000
_cell_angle_beta   90.00000000
_cell_angle_gamma   90.00000000
_symmetry_Int_Tables_number   1
_chemical_formula_structural   BaNaSmWO6
_chemical_formula_sum   'Ba4 Na4 Sm4 W4 O24'
_cell_volume   604.04985054
_cell_formula_units_Z   4
loop_
 _symmetry_equiv_pos_site_id
 _symmetry_equiv_pos_as_xyz
  1  'x, y, z'
loop_
 _atom_site_type_symbol
 _atom_site_label
 _atom_site_symmetry_multiplicity
 _atom_site_fract_x
 _atom_site_fract_y
 _atom_site_fract_z
 _atom_site_occupancy
  Ba  Ba0  1  -0.00000000  0.00000000  0.00000000  1
  Ba  Ba1  1  0.50000000  0.50000000  0.50000000  1
  Ba  Ba2  1  0.50000000  0.50000000  0.00000000  1
  Ba  Ba3  1  -0.00000000  0.00000000  0.50000000  1
  Na  Na0  1  -0.00000000  0.50000000  0.50000000  1
  Na  Na1  1  0.50000000  0.00000000  0.50000000  1
  Na  Na2  1  0.50000000  0.00000000  -0.00000000  1
  Na  Na3  1  -0.00000000  0.50000000  -0.00000000  1
  Sm  Sm0  1  0.75000000  0.75000000  0.75000000  1
  Sm  Sm1  1  0.25000000  0.25000000  0.75000000  1
  Sm  Sm2  1  0.25000000  0.75000000  0.25000000  1
  Sm  Sm3  1  0.75000000  0.25000000  0.25000000  1
  W  W0  1  0.25000000  0.25000000  0.25000000  1
  W  W1  1  0.75000000  0.75000000  0.25000000  1
  W  W2  1  0.75000000  0.25000000  0.75000000  1
  W  W3  1  0.25000000  0.75000000  0.75000000  1
  O  O0  1  0.02062910  0.21830716  0.27147420  1
  O  O1  1  0.97937090  0.78169284  0.27147420  1
  O  O2  1  0.97937090  0.21830716  0.72852580  1
  O  O3  1  0.02062910  0.78169284  0.72852580  1
  O  O4  1  0.27088456  0.02216308  0.21617937  1
  O  O5  1  0.27088456  0.97783692  0.78382063  1
  O  O6  1  0.72911544  0.97783692  0.21617937  1
  O  O7  1  0.72911544  0.02216308  0.78382063  1
  O  O8  1  0.22072941  0.28028357  0.02210050  1
  O  O9  1  0.77927059  0.28028357  0.97789950  1
  O  O10  1  0.22072941  0.71971643  0.97789950  1
  O  O11  1  0.77927059  0.71971643  0.02210050  1
  O  O12  1  0.47937090  0.28169284  0.22852580  1
  O  O13  1  0.52062910  0.71830716  0.22852580  1
  O  O14  1  0.52062910  0.28169284  0.77147420  1
  O  O15  1  0.47937090  0.71830716  0.77147420  1
  O  O16  1  0.22911544  0.47783692  0.28382063  1
  O  O17  1  0.22911544  0.52216308  0.71617937  1
  O  O18  1  0.77088456  0.52216308  0.28382063  1
  O  O19  1  0.77088456  0.47783692  0.71617937  1
  O  O20  1  0.27927059  0.21971643  0.47789950  1
  O  O21  1  0.72072941  0.21971643  0.52210050  1
  O  O22  1  0.27927059  0.78028357  0.52210050  1
  O  O23  1  0.72072941  0.78028357  0.47789950  1
loop_
_geom_bond_atom_site_label_1
_geom_bond_atom_site_label_2
_geom_bond_distance
_geom_bond_site_symmetry_2
Ba0 O7 2.931323 1_454
Ba0 O6 2.931323 1_445
Ba0 O5 2.931323 1_544
Ba0 O4 2.931323 1_555
Ba0 O0 2.957635 1_555
Ba0 O3 2.957635 1_544
Ba0 O1 2.957635 1_445
Ba0 O2 2.957635 1_454
Ba0 O8 3.018370 1_555
Ba0 O11 3.018370 1_445
Ba0 O9 3.018370 1_454
Ba0 O10 3.018370 1_544
Ba1 O18 2.931323 1_555
Ba1 O16 2.931323 1_555
Ba1 O19 2.931323 1_555
Ba1 O17 2.931323 1_555
Ba1 O14 2.957635 1_555
Ba1 O12 2.957635 1_555
Ba1 O15 2.957635 1_555
Ba1 O13 2.957635 1_555
Ba1 O21 3.018370 1_555
Ba1 O20 3.018370 1_555
Ba1 O22 3.018370 1_555
Ba1 O23 3.018370 1_555
Ba2 O12 2.683675 1_555
Ba2 O14 2.683675 1_554
Ba2 O15 2.683675 1_554
Ba2 O13 2.683675 1_555
Ba2 O11 3.002241 1_555
Ba2 O8 3.002241 1_555
Ba2 O10 3.002241 1_554
Ba2 O9 3.002241 1_554
Ba3 O3 2.683675 1_545
Ba3 O0 2.683675 1_555
Ba3 O1 2.683675 1_445
Ba3 O2 2.683675 1_455
Ba3 O23 3.002241 1_445
Ba3 O22 3.002241 1_545
Ba3 O20 3.002241 1_555
Ba3 O21 3.002241 1_455
Na0 O19 2.667273 1_455
Na0 O17 2.667273 1_555
Na0 O16 2.667273 1_555
Na0 O18 2.667273 1_455
Na1 O23 2.634680 1_545
Na1 O22 2.634680 1_545
Na1 O21 2.634680 1_555
Na1 O20 2.634680 1_555
Na2 O5 2.667273 1_544
Na2 O6 2.667273 1_545
Na2 O4 2.667273 1_555
Na2 O7 2.667273 1_554
Na3 O11 2.634680 1_455
Na3 O10 2.634680 1_554
Na3 O8 2.634680 1_555
Na3 O9 2.634680 1_454
O0 W0 1.956830 1_555
O0 Sm3 2.299872 1_455
O1 W1 1.956830 1_555
O1 Sm2 2.299872 1_655
O2 W2 1.956830 1_555
O2 Sm1 2.299872 1_655
O3 W3 1.956830 1_555
O3 Sm0 2.299872 1_455
O4 W0 1.957333 1_555
O4 Sm2 2.327778 1_545
O5 W3 1.957333 1_555
O5 Sm1 2.327778 1_565
O6 W1 1.957333 1_555
O6 Sm3 2.327778 1_565
O7 W2 1.957333 1_555
O7 Sm0 2.327778 1_545
O8 W0 1.965785 1_555
O8 Sm1 2.335568 1_554
O9 W2 1.965785 1_555
O9 Sm3 2.335568 1_556
O10 W3 1.965785 1_555
O10 Sm2 2.335568 1_556
O11 W1 1.965785 1_555
O11 Sm0 2.335568 1_554
O12 W0 1.956830 1_555
O12 Sm3 2.299872 1_555
O13 W1 1.956830 1_555
O13 Sm2 2.299872 1_555
O14 W2 1.956830 1_555
O14 Sm1 2.299872 1_555
O15 W3 1.956830 1_555
O15 Sm0 2.299872 1_555
O16 W0 1.957333 1_555
O16 Sm2 2.327778 1_555
O17 W3 1.957333 1_555
O17 Sm1 2.327778 1_555
O18 W1 1.957333 1_555
O18 Sm3 2.327778 1_555
O19 W2 1.957333 1_555
O19 Sm0 2.327778 1_555
O20 W0 1.965785 1_555
O20 Sm1 2.335568 1_555
O21 W2 1.965785 1_555
O21 Sm3 2.335568 1_555
O22 W3 1.965785 1_555
O22 Sm2 2.335568 1_555
O23 W1 1.965785 1_555
O23 Sm0 2.335568 1_555
