# generated using pymatgen
data_SiC
_symmetry_space_group_name_H-M   'P 1'
_cell_length_a   3.09791783
_cell_length_b   3.09791783
_cell_length_c   70.75363000
_cell_angle_alpha   88.74556440
_cell_angle_beta   88.74556440
_cell_angle_gamma   59.99999983
_symmetry_Int_Tables_number   1
_chemical_formula_structural   SiC
_chemical_formula_sum   'Si28 C28'
_cell_volume   587.86869939
_cell_formula_units_Z   28
loop_
 _symmetry_equiv_pos_site_id
 _symmetry_equiv_pos_as_xyz
  1  'x, y, z'
loop_
 _atom_site_type_symbol
 _atom_site_label
 _atom_site_symmetry_multiplicity
 _atom_site_fract_x
 _atom_site_fract_y
 _atom_site_fract_z
 _atom_site_occupancy
  Si  Si0  1  0.00011910  0.00011910  0.99964271  1
  Si  Si1  1  0.96439231  0.96439231  0.10682308  1
  Si  Si2  1  0.92857719  0.92857719  0.21426842  1
  Si  Si3  1  0.89278563  0.89278563  0.32164311  1
  Si  Si4  1  0.85715598  0.85715598  0.42853205  1
  Si  Si5  1  0.82138740  0.82138740  0.53583780  1
  Si  Si6  1  0.78565911  0.78565911  0.64302267  1
  Si  Si7  1  0.74989104  0.74989104  0.75032688  1
  Si  Si8  1  0.70237669  0.70237669  0.89286993  1
  Si  Si9  1  0.67862194  0.67862194  0.96413418  1
  Si  Si10  1  0.65491830  0.65491830  0.03524509  1
  Si  Si11  1  0.60719508  0.60719508  0.17841475  1
  Si  Si12  1  0.58330224  0.58330224  0.25009327  1
  Si  Si13  1  0.53570596  0.53570596  0.39288213  1
  Si  Si14  1  0.51192010  0.51192010  0.46423970  1
  Si  Si15  1  0.46422549  0.46422549  0.60732354  1
  Si  Si16  1  0.44042178  0.44042178  0.67873466  1
  Si  Si17  1  0.39278593  0.39278593  0.82164220  1
  Si  Si18  1  0.35715024  0.35715024  0.92854928  1
  Si  Si19  1  0.30967544  0.30967544  0.07097368  1
  Si  Si20  1  0.28578006  0.28578006  0.14265981  1
  Si  Si21  1  0.23804147  0.23804147  0.28587558  1
  Si  Si22  1  0.21423598  0.21423598  0.35729206  1
  Si  Si23  1  0.16667101  0.16667101  0.49998697  1
  Si  Si24  1  0.14277829  0.14277829  0.57166513  1
  Si  Si25  1  0.09516392  0.09516392  0.71450823  1
  Si  Si26  1  0.07133540  0.07133540  0.78599381  1
  Si  Si27  1  0.04757357  0.04757357  0.85727930  1
  C  C0  1  0.99117038  0.99117038  0.02648885  1
  C  C1  1  0.95539864  0.95539864  0.13380407  1
  C  C2  1  0.91959254  0.91959254  0.24122238  1
  C  C3  1  0.88381821  0.88381821  0.34854537  1
  C  C4  1  0.84819281  0.84819281  0.45542157  1
  C  C5  1  0.81240712  0.81240712  0.56277864  1
  C  C6  1  0.77670667  0.77670667  0.66987999  1
  C  C7  1  0.74093161  0.74093161  0.77720518  1
  C  C8  1  0.69343247  0.69343247  0.91970258  1
  C  C9  1  0.66970721  0.66970721  0.99087838  1
  C  C10  1  0.64596124  0.64596124  0.06211627  1
  C  C11  1  0.59823443  0.59823443  0.20529671  1
  C  C12  1  0.57433919  0.57433919  0.27698243  1
  C  C13  1  0.52677365  0.52677365  0.41967905  1
  C  C14  1  0.50297100  0.50297100  0.49108699  1
  C  C15  1  0.45529398  0.45529398  0.63411805  1
  C  C16  1  0.43147220  0.43147220  0.70558341  1
  C  C17  1  0.38383536  0.38383536  0.84849393  1
  C  C18  1  0.34818987  0.34818987  0.95543039  1
  C  C19  1  0.30070318  0.30070318  0.09789045  1
  C  C20  1  0.27681927  0.27681927  0.16954220  1
  C  C21  1  0.22908817  0.22908817  0.31273550  1
  C  C22  1  0.20530259  0.20530259  0.38409223  1
  C  C23  1  0.15770988  0.15770988  0.52687035  1
  C  C24  1  0.13383600  0.13383600  0.59849200  1
  C  C25  1  0.08621333  0.08621333  0.74136001  1
  C  C26  1  0.06242001  0.06242001  0.81273998  1
  C  C27  1  0.03863234  0.03863234  0.88410299  1
loop_
_geom_bond_atom_site_label_1
_geom_bond_atom_site_label_2
_geom_bond_distance
_geom_bond_site_symmetry_2
C0 Si10 1.892779 1_655
C0 Si10 1.892779 1_565
C0 Si10 1.892779 1_555
C0 Si0 1.898855 1_664
C1 Si20 1.895093 1_665
C1 Si20 1.895093 1_655
C1 Si20 1.895093 1_565
C1 Si1 1.908393 1_555
C2 Si12 1.895448 1_565
C2 Si12 1.895448 1_655
C2 Si12 1.895448 1_555
C2 Si2 1.906481 1_555
C3 Si22 1.892558 1_665
C3 Si22 1.892558 1_565
C3 Si22 1.892558 1_655
C3 Si3 1.902824 1_555
C4 Si14 1.894216 1_565
C4 Si14 1.894216 1_655
C4 Si14 1.894216 1_555
C4 Si4 1.901923 1_555
C5 Si24 1.895813 1_665
C5 Si24 1.895813 1_655
C5 Si24 1.895813 1_565
C5 Si5 1.905553 1_555
C6 Si16 1.895068 1_655
C6 Si16 1.895068 1_565
C6 Si16 1.895068 1_555
C6 Si6 1.899646 1_555
C7 Si26 1.893529 1_665
C7 Si26 1.893529 1_565
C7 Si26 1.893529 1_655
C7 Si7 1.901130 1_555
C8 Si18 1.894882 1_555
C8 Si18 1.894882 1_655
C8 Si18 1.894882 1_565
C8 Si8 1.897901 1_555
C9 Si9 1.891645 1_555
C9 Si0 1.892966 1_665
C9 Si0 1.892966 1_655
C9 Si0 1.892966 1_565
C10 Si19 1.895132 1_555
C10 Si19 1.895132 1_655
C10 Si19 1.895132 1_565
C10 Si10 1.900626 1_555
C11 Si2 1.897820 1_555
C11 Si2 1.897820 1_545
C11 Si2 1.897820 1_455
C11 Si11 1.901388 1_555
C12 Si21 1.895969 1_655
C12 Si21 1.895969 1_565
C12 Si21 1.895969 1_555
C12 Si12 1.901898 1_555
C13 Si4 1.895029 1_555
C13 Si4 1.895029 1_455
C13 Si4 1.895029 1_545
C13 Si13 1.895373 1_555
C14 Si23 1.896130 1_555
C14 Si23 1.896130 1_655
C14 Si23 1.896130 1_565
C14 Si14 1.898936 1_555
C15 Si15 1.895203 1_555
C15 Si6 1.896239 1_545
C15 Si6 1.896239 1_455
C15 Si6 1.896239 1_555
C16 Si25 1.896714 1_655
C16 Si25 1.896714 1_565
C16 Si25 1.896714 1_555
C16 Si16 1.899039 1_555
C17 Si27 1.893454 1_655
C17 Si27 1.893454 1_565
C17 Si27 1.893454 1_555
C17 Si17 1.899250 1_555
C18 Si9 1.891568 1_555
C18 Si9 1.891568 1_455
C18 Si9 1.891568 1_545
C18 Si18 1.901328 1_555
C19 Si1 1.896898 1_445
C19 Si1 1.896898 1_455
C19 Si1 1.896898 1_545
C19 Si19 1.903851 1_555
C20 Si11 1.895486 1_555
C20 Si11 1.895486 1_455
C20 Si11 1.895486 1_545
C20 Si20 1.901419 1_555
C21 Si3 1.896309 1_455
C21 Si3 1.896309 1_545
C21 Si3 1.896309 1_445
C21 Si21 1.899830 1_555
C22 Si13 1.893559 1_455
C22 Si13 1.893559 1_545
C22 Si13 1.893559 1_555
C22 Si22 1.895603 1_555
C23 Si5 1.897719 1_445
C23 Si5 1.897719 1_455
C23 Si5 1.897719 1_545
C23 Si23 1.901489 1_555
C24 Si15 1.894528 1_545
C24 Si15 1.894528 1_455
C24 Si15 1.894528 1_555
C24 Si24 1.897492 1_555
C25 Si7 1.897706 1_545
C25 Si7 1.897706 1_455
C25 Si7 1.897706 1_445
C25 Si25 1.899254 1_555
C26 Si26 1.891784 1_555
C26 Si17 1.896182 1_555
C26 Si17 1.896182 1_545
C26 Si17 1.896182 1_455
C27 Si8 1.893026 1_545
C27 Si8 1.893026 1_455
C27 Si8 1.893026 1_445
C27 Si27 1.897267 1_555
