# generated using pymatgen
data_MgH6S2O3
_symmetry_space_group_name_H-M   'P 1'
_cell_length_a   5.85637300
_cell_length_b   16.83756700
_cell_length_c   8.04839500
_cell_angle_alpha   90.00000000
_cell_angle_beta   90.00000000
_cell_angle_gamma   90.00000000
_symmetry_Int_Tables_number   1
_chemical_formula_structural   MgH6S2O3
_chemical_formula_sum   'Mg4 H24 S8 O12'
_cell_volume   793.62867140
_cell_formula_units_Z   4
loop_
 _symmetry_equiv_pos_site_id
 _symmetry_equiv_pos_as_xyz
  1  'x, y, z'
loop_
 _atom_site_type_symbol
 _atom_site_label
 _atom_site_symmetry_multiplicity
 _atom_site_fract_x
 _atom_site_fract_y
 _atom_site_fract_z
 _atom_site_occupancy
  Mg  Mg0  1  0.00000000  0.00000000  0.00000000  1
  Mg  Mg1  1  0.50000000  0.50000000  0.00000000  1
  Mg  Mg2  1  0.00000000  0.00000000  0.50000000  1
  Mg  Mg3  1  0.50000000  0.50000000  0.50000000  1
  H  H0  1  0.39159100  0.22302300  0.53804200  1
  H  H1  1  0.60840900  0.77697700  0.46195800  1
  H  H2  1  0.89159100  0.27697700  0.46195800  1
  H  H3  1  0.60840900  0.77697700  0.03804200  1
  H  H4  1  0.10840900  0.72302300  0.53804200  1
  H  H5  1  0.39159100  0.22302300  0.96195800  1
  H  H6  1  0.10840900  0.72302300  0.96195800  1
  H  H7  1  0.89159100  0.27697700  0.03804200  1
  H  H8  1  0.34161900  0.32703600  0.13199100  1
  H  H9  1  0.65838100  0.67296400  0.86800900  1
  H  H10  1  0.84161900  0.17296400  0.86800900  1
  H  H11  1  0.65838100  0.67296400  0.63199100  1
  H  H12  1  0.15838100  0.82703600  0.13199100  1
  H  H13  1  0.34161900  0.32703600  0.36800900  1
  H  H14  1  0.15838100  0.82703600  0.36800900  1
  H  H15  1  0.84161900  0.17296400  0.63199100  1
  H  H16  1  0.64355200  0.74441900  0.09619200  1
  H  H17  1  0.35644800  0.25558100  0.90380800  1
  H  H18  1  0.14355200  0.75558100  0.90380800  1
  H  H19  1  0.35644800  0.25558100  0.59619200  1
  H  H20  1  0.85644800  0.24441900  0.09619200  1
  H  H21  1  0.64355200  0.74441900  0.40380800  1
  H  H22  1  0.85644800  0.24441900  0.40380800  1
  H  H23  1  0.14355200  0.75558100  0.59619200  1
  S  S0  1  0.29869900  0.01704100  0.25000000  1
  S  S1  1  0.70130100  0.98295900  0.75000000  1
  S  S2  1  0.79869900  0.48295900  0.75000000  1
  S  S3  1  0.20130100  0.51704100  0.25000000  1
  S  S4  1  0.49524600  0.30874200  0.25000000  1
  S  S5  1  0.50475400  0.69125800  0.75000000  1
  S  S6  1  0.99524600  0.19125800  0.75000000  1
  S  S7  1  0.00475400  0.80874200  0.25000000  1
  O  O0  1  0.20299300  0.46471900  0.09330400  1
  O  O1  1  0.79700700  0.53528100  0.90669600  1
  O  O2  1  0.70299300  0.03528100  0.90669600  1
  O  O3  1  0.79700700  0.53528100  0.59330400  1
  O  O4  1  0.29700700  0.96471900  0.09330400  1
  O  O5  1  0.20299300  0.46471900  0.40669600  1
  O  O6  1  0.29700700  0.96471900  0.40669600  1
  O  O7  1  0.70299300  0.03528100  0.59330400  1
  O  O8  1  0.03250900  0.04413000  0.25000000  1
  O  O9  1  0.96749100  0.95587000  0.75000000  1
  O  O10  1  0.53250900  0.45587000  0.75000000  1
  O  O11  1  0.46749100  0.54413000  0.25000000  1
loop_
_geom_bond_atom_site_label_1
_geom_bond_atom_site_label_2
_geom_bond_distance
_geom_bond_site_symmetry_2
Mg0 O2 1.985515 1_454
Mg0 O4 1.985515 1_545
Mg0 O8 2.153346 1_555
Mg0 O9 2.153346 1_444
Mg1 O0 1.985515 1_555
Mg1 O1 1.985515 1_554
Mg1 O10 2.153346 1_554
Mg1 O11 2.153346 1_555
Mg2 O7 1.985515 1_455
Mg2 O6 1.985515 1_545
Mg2 O9 2.153346 1_445
Mg2 O8 2.153346 1_555
Mg3 O5 1.985515 1_555
Mg3 O3 1.985515 1_555
Mg3 O11 2.153346 1_555
Mg3 O10 2.153346 1_555
H0 H19 0.749610 1_555
H1 H21 0.749610 1_555
H2 H22 0.749610 1_555
H8 S4 1.344032 1_555
H9 S5 1.344032 1_555
H10 S6 1.344032 1_555
H11 S5 1.344032 1_555
H12 S7 1.344032 1_555
H13 S4 1.344032 1_555
H14 S7 1.344032 1_555
H15 S6 1.344032 1_555
H16 H3 0.749610 1_555
H17 H5 0.749610 1_555
H18 H6 0.749610 1_555
H20 H7 0.749610 1_555
H23 H4 0.749610 1_555
O0 S3 1.538414 1_555
O1 S2 1.538414 1_555
O2 S1 1.538414 1_545
O3 S2 1.538414 1_555
O4 S0 1.538414 1_565
O5 S3 1.538414 1_555
O6 S0 1.538414 1_565
O7 S1 1.538414 1_545
O8 S0 1.624264 1_555
O9 S1 1.624264 1_555
O10 S2 1.624264 1_555
O11 S3 1.624264 1_555
