# generated using pymatgen
data_CaCoSe2
_symmetry_space_group_name_H-M   'P 1'
_cell_length_a   4.46231500
_cell_length_b   4.46231500
_cell_length_c   4.99944700
_cell_angle_alpha   90.00000000
_cell_angle_beta   90.00000000
_cell_angle_gamma   90.00000000
_symmetry_Int_Tables_number   1
_chemical_formula_structural   CaCoSe2
_chemical_formula_sum   'Ca1 Co1 Se2'
_cell_volume   99.55026432
_cell_formula_units_Z   1
loop_
 _symmetry_equiv_pos_site_id
 _symmetry_equiv_pos_as_xyz
  1  'x, y, z'
loop_
 _atom_site_type_symbol
 _atom_site_label
 _atom_site_symmetry_multiplicity
 _atom_site_fract_x
 _atom_site_fract_y
 _atom_site_fract_z
 _atom_site_occupancy
  Ca  Ca0  1  0.00000000  0.00000000  0.00000000  1
  Co  Co0  1  0.50000000  0.50000000  0.50000000  1
  Se  Se0  1  0.00000000  0.50000000  0.65049900  1
  Se  Se1  1  0.50000000  0.00000000  0.34950100  1
loop_
_geom_bond_atom_site_label_1
_geom_bond_atom_site_label_2
_geom_bond_distance
_geom_bond_site_symmetry_2
Ca0 Se1 2.833930 1_555
Ca0 Se0 2.833930 1_554
Ca0 Se1 2.833930 1_455
Ca0 Se0 2.833930 1_544
Co0 Se0 2.354610 1_655
Co0 Se0 2.354610 1_555
Co0 Se1 2.354610 1_565
Co0 Se1 2.354610 1_555
