# generated using pymatgen
data_VZnAs2O7
_symmetry_space_group_name_H-M   'P 1'
_cell_length_a   8.16845100
_cell_length_b   7.84950200
_cell_length_c   11.07130009
_cell_angle_alpha   58.78937804
_cell_angle_beta   90.00000000
_cell_angle_gamma   90.00000000
_symmetry_Int_Tables_number   1
_chemical_formula_structural   VZnAs2O7
_chemical_formula_sum   'V4 Zn4 As8 O28'
_cell_volume   607.13149778
_cell_formula_units_Z   4
loop_
 _symmetry_equiv_pos_site_id
 _symmetry_equiv_pos_as_xyz
  1  'x, y, z'
loop_
 _atom_site_type_symbol
 _atom_site_label
 _atom_site_symmetry_multiplicity
 _atom_site_fract_x
 _atom_site_fract_y
 _atom_site_fract_z
 _atom_site_occupancy
  V  V0  1  0.94328500  0.18991300  0.70521800  1
  V  V1  1  0.44328500  0.81008700  0.79478200  1
  V  V2  1  0.05671500  0.81008700  0.29478200  1
  V  V3  1  0.55671500  0.18991300  0.20521800  1
  Zn  Zn0  1  0.06737500  0.73812700  0.88020100  1
  Zn  Zn1  1  0.56737500  0.26187300  0.61979900  1
  Zn  Zn2  1  0.93262500  0.26187300  0.11979900  1
  Zn  Zn3  1  0.43262500  0.73812700  0.38020100  1
  As  As0  1  0.78597200  0.54809800  0.76261400  1
  As  As1  1  0.28597200  0.45190200  0.73738600  1
  As  As2  1  0.21402800  0.45190200  0.23738600  1
  As  As3  1  0.71402800  0.54809800  0.26261400  1
  As  As4  1  0.71078600  0.97058700  0.96324000  1
  As  As5  1  0.21078600  0.02941300  0.53676000  1
  As  As6  1  0.28921400  0.02941300  0.03676000  1
  As  As7  1  0.78921400  0.97058700  0.46324000  1
  O  O0  1  0.69873300  0.23798900  0.07895100  1
  O  O1  1  0.19873300  0.76201100  0.42104900  1
  O  O2  1  0.30126700  0.76201100  0.92104900  1
  O  O3  1  0.80126700  0.23798900  0.57895100  1
  O  O4  1  0.60476000  0.64325600  0.78087200  1
  O  O5  1  0.10476000  0.35674400  0.71912800  1
  O  O6  1  0.39524000  0.35674400  0.21912800  1
  O  O7  1  0.89524000  0.64325600  0.28087200  1
  O  O8  1  0.92733900  0.53120100  0.88346800  1
  O  O9  1  0.42733900  0.46879900  0.61653200  1
  O  O10  1  0.07266100  0.46879900  0.11653200  1
  O  O11  1  0.57266100  0.53120100  0.38346800  1
  O  O12  1  0.84536900  0.69797900  0.58564600  1
  O  O13  1  0.34536900  0.30202100  0.91435400  1
  O  O14  1  0.15463100  0.30202100  0.41435400  1
  O  O15  1  0.65463100  0.69797900  0.08564600  1
  O  O16  1  0.91843800  0.99058100  0.32435500  1
  O  O17  1  0.41843800  0.00941900  0.17564500  1
  O  O18  1  0.08156200  0.00941900  0.67564500  1
  O  O19  1  0.58156200  0.99058100  0.82435500  1
  O  O20  1  0.73423500  0.32038200  0.27799900  1
  O  O21  1  0.23423500  0.67961800  0.22200100  1
  O  O22  1  0.26576500  0.67961800  0.72200100  1
  O  O23  1  0.76576500  0.32038200  0.77799900  1
  O  O24  1  0.59514300  0.94697700  0.38420600  1
  O  O25  1  0.09514300  0.05302300  0.11579400  1
  O  O26  1  0.40485700  0.05302300  0.61579400  1
  O  O27  1  0.90485700  0.94697700  0.88420600  1
loop_
_geom_bond_atom_site_label_1
_geom_bond_atom_site_label_2
_geom_bond_distance
_geom_bond_site_symmetry_2
As0 O23 1.713396 1_555
As0 O4 1.716484 1_555
As0 O8 1.719707 1_555
As0 O12 1.751958 1_555
As1 O22 1.713396 1_555
As1 O5 1.716484 1_555
As1 O9 1.719707 1_555
As1 O13 1.751958 1_555
As2 O21 1.713396 1_555
As2 O6 1.716484 1_555
As2 O10 1.719707 1_555
As2 O14 1.751958 1_555
As3 O20 1.713396 1_555
As3 O7 1.716484 1_555
As3 O11 1.719707 1_555
As3 O15 1.751958 1_555
As4 O19 1.803626 1_555
As4 O27 1.865769 1_555
As4 O15 1.902759 1_556
As4 O23 2.471999 1_565
As5 O18 1.803626 1_555
As5 O26 1.865769 1_555
As5 O14 1.902759 1_555
As5 O22 2.471999 1_545
As6 O17 1.803626 1_555
As6 O25 1.865769 1_555
As6 O13 1.902759 1_554
As6 O21 2.471999 1_545
As7 O16 1.803626 1_555
As7 O24 1.865769 1_555
As7 O12 1.902759 1_555
As7 O20 2.471999 1_565
O0 V3 1.701667 1_555
O0 Zn2 1.994413 1_555
O1 V2 1.701667 1_555
O1 Zn3 1.994413 1_555
O2 V1 1.701667 1_555
O2 Zn0 1.994413 1_555
O3 V0 1.701667 1_555
O3 Zn1 1.994413 1_555
O4 V1 1.920256 1_555
O5 V0 1.920256 1_455
O6 V3 1.920256 1_555
O7 V2 1.920256 1_655
O8 Zn0 1.971577 1_655
O8 Zn2 2.363172 1_556
O9 Zn1 1.971577 1_555
O9 Zn3 2.363172 1_555
O10 Zn2 1.971577 1_455
O10 Zn0 2.363172 1_554
O11 Zn3 1.971577 1_555
O11 Zn1 2.363172 1_555
O16 V2 1.967491 1_655
O16 Zn2 2.163099 1_565
O17 V3 1.967491 1_555
O17 Zn3 2.163099 1_545
O18 V0 1.967491 1_455
O18 Zn0 2.163099 1_545
O19 V1 1.967491 1_555
O19 Zn1 2.163099 1_565
O20 V3 2.157778 1_555
O21 V2 2.157778 1_555
O22 V1 2.157778 1_555
O23 V0 2.157778 1_555
O24 V3 1.935328 1_565
O24 Zn3 2.127708 1_555
O25 V2 1.935328 1_545
O25 Zn2 2.127708 1_455
O26 V1 1.935328 1_545
O26 Zn1 2.127708 1_555
O27 V0 1.935328 1_565
O27 Zn0 2.127708 1_655
