# generated using pymatgen
data_Rb7Th6F32
_symmetry_space_group_name_H-M   'P 1'
_cell_length_a   9.79813654
_cell_length_b   9.79627651
_cell_length_c   9.79314526
_cell_angle_alpha   106.59323141
_cell_angle_beta   106.66478350
_cell_angle_gamma   106.62464593
_symmetry_Int_Tables_number   1
_chemical_formula_structural   Rb7Th6F32
_chemical_formula_sum   'Rb7 Th6 F32'
_cell_volume   790.65747422
_cell_formula_units_Z   1
loop_
 _symmetry_equiv_pos_site_id
 _symmetry_equiv_pos_as_xyz
  1  'x, y, z'
loop_
 _atom_site_type_symbol
 _atom_site_label
 _atom_site_symmetry_multiplicity
 _atom_site_fract_x
 _atom_site_fract_y
 _atom_site_fract_z
 _atom_site_occupancy
  Rb  Rb0  1  0.92307000  0.78322700  0.31646500  1
  Rb  Rb1  1  0.78265800  0.31750700  0.92262700  1
  Rb  Rb2  1  0.31692600  0.92272200  0.78231700  1
  Rb  Rb3  1  0.07620300  0.21775200  0.68260200  1
  Rb  Rb4  1  0.21755100  0.68227200  0.07588700  1
  Rb  Rb5  1  0.68302300  0.07680700  0.21657000  1
  Rb  Rb6  1  0.00068900  0.00056200  0.00141000  1
  Th  Th0  1  0.38115700  0.13914700  0.45810200  1
  Th  Th1  1  0.13928900  0.45864200  0.38057800  1
  Th  Th2  1  0.45754400  0.38063800  0.13847500  1
  Th  Th3  1  0.61968100  0.86068300  0.54222300  1
  Th  Th4  1  0.86079700  0.54249200  0.61933000  1
  Th  Th5  1  0.54212700  0.61869400  0.85959400  1
  F  F0  1  0.21889100  0.02897600  0.55421900  1
  F  F1  1  0.02755900  0.55392200  0.21797100  1
  F  F2  1  0.55300000  0.21853600  0.02655700  1
  F  F3  1  0.78177100  0.97206800  0.44640100  1
  F  F4  1  0.97277600  0.44712900  0.78163400  1
  F  F5  1  0.44672400  0.78045300  0.97168800  1
  F  F6  1  0.17991500  0.94465000  0.24581300  1
  F  F7  1  0.94573700  0.24722600  0.17668700  1
  F  F8  1  0.24560900  0.17726000  0.94551900  1
  F  F9  1  0.82238700  0.05413700  0.75425000  1
  F  F10  1  0.05414000  0.75418000  0.82266100  1
  F  F11  1  0.75352800  0.82188100  0.05345600  1
  F  F12  1  0.47705900  0.94516200  0.35848500  1
  F  F13  1  0.94579100  0.35959900  0.47586600  1
  F  F14  1  0.35805100  0.47490000  0.94378600  1
  F  F15  1  0.52382000  0.05380500  0.64145800  1
  F  F16  1  0.05394900  0.64242800  0.52331300  1
  F  F17  1  0.64108700  0.52403200  0.05452900  1
  F  F18  1  0.54201500  0.65155700  0.29991300  1
  F  F19  1  0.65361600  0.29835200  0.54218100  1
  F  F20  1  0.29753500  0.54138100  0.65278500  1
  F  F21  1  0.45917500  0.34654100  0.70175400  1
  F  F22  1  0.34713400  0.70214700  0.45869700  1
  F  F23  1  0.70014800  0.45822400  0.34750600  1
  F  F24  1  0.76723500  0.58490100  0.82639300  1
  F  F25  1  0.58509800  0.82526700  0.76620900  1
  F  F26  1  0.82658300  0.76749800  0.58617400  1
  F  F27  1  0.23551400  0.41687200  0.17552600  1
  F  F28  1  0.41640800  0.17726500  0.23552000  1
  F  F29  1  0.17043400  0.22943500  0.40998000  1
  F  F30  1  0.59046400  0.58870000  0.58795900  1
  F  F31  1  0.40623100  0.41037200  0.41892900  1
loop_
_geom_bond_atom_site_label_1
_geom_bond_atom_site_label_2
_geom_bond_distance
_geom_bond_site_symmetry_2
F0 Th0 2.243958 1_555
F0 Rb2 2.768655 1_545
F0 Rb3 2.848660 1_555
F0 Rb0 2.924597 1_445
F1 Th1 2.244836 1_555
F1 Rb0 2.769362 1_455
F1 Rb4 2.850976 1_555
F1 Rb1 2.915635 1_454
F2 Th2 2.245328 1_555
F2 Rb1 2.769161 1_554
F2 Rb5 2.853326 1_555
F2 Rb2 2.915750 1_544
F3 Th3 2.245337 1_555
F3 Rb5 2.773615 1_565
F3 Rb0 2.844233 1_555
F3 Rb3 2.913038 1_665
F4 Th4 2.244398 1_555
F4 Rb3 2.763823 1_655
F4 Rb1 2.848173 1_555
F4 Rb4 2.906179 1_656
F5 Th5 2.243328 1_555
F5 Rb4 2.765404 1_556
F5 Rb2 2.852520 1_555
F5 Rb5 2.921115 1_566
F6 Th0 2.253259 1_565
F6 Rb4 2.821908 1_555
F6 Rb6 2.828605 1_565
F6 Rb0 2.942640 1_455
F7 Th1 2.256469 1_655
F7 Rb6 2.825031 1_655
F7 Rb5 2.838275 1_555
F7 Rb1 2.923233 1_554
F8 Th2 2.254806 1_556
F8 Rb6 2.823533 1_556
F8 Rb3 2.837409 1_555
F8 Rb2 2.936279 1_545
F9 Th3 2.254142 1_545
F9 Rb6 2.830399 1_656
F9 Rb1 2.835512 1_555
F9 Rb3 2.934016 1_655
F10 Th4 2.254853 1_455
F10 Rb6 2.828450 1_566
F10 Rb2 2.834665 1_555
F10 Rb4 2.928383 1_556
F11 Th5 2.254740 1_554
F11 Rb6 2.824957 1_665
F11 Rb0 2.828440 1_555
F11 Rb5 2.933798 1_565
F12 Th0 2.436107 1_565
F12 Th3 2.438344 1_555
F12 Rb5 2.968226 1_565
F12 Rb4 2.983814 1_555
F13 Th1 2.426103 1_655
F13 Th4 2.442262 1_555
F13 Rb3 2.966768 1_655
F13 Rb5 2.983735 1_555
F14 Th2 2.427519 1_556
F14 Th5 2.445316 1_555
F14 Rb3 2.966907 1_555
F14 Rb4 2.969220 1_556
F15 Th3 2.428179 1_545
F15 Th0 2.442069 1_555
F15 Rb2 2.964349 1_545
F15 Rb1 2.978348 1_555
F16 Th4 2.431164 1_455
F16 Th1 2.447245 1_555
F16 Rb0 2.961152 1_455
F16 Rb2 2.972839 1_555
F17 Th5 2.430734 1_554
F17 Th2 2.438294 1_555
F17 Rb1 2.970996 1_554
F17 Rb0 2.976880 1_555
F18 Th3 2.388043 1_555
F18 Th2 2.413367 1_555
F19 Th4 2.392061 1_555
F19 Th0 2.420853 1_555
F20 Th5 2.391736 1_555
F20 Th1 2.417340 1_555
F21 Th0 2.387885 1_555
F21 Th5 2.417375 1_555
F22 Th1 2.388998 1_555
F22 Th3 2.420922 1_555
F23 Th2 2.388580 1_555
F23 Th4 2.417346 1_555
F24 Th5 2.418221 1_555
F24 Th4 2.434731 1_555
F24 Rb1 3.054083 1_555
F25 Th3 2.416702 1_555
F25 Th5 2.428811 1_555
F25 Rb2 3.070447 1_555
F26 Th4 2.417761 1_555
F26 Th3 2.431301 1_555
F26 Rb0 3.078189 1_555
F27 Th2 2.410684 1_555
F27 Th1 2.434371 1_555
F27 Rb4 3.058609 1_555
F28 Th0 2.415175 1_555
F28 Th2 2.424164 1_555
F28 Rb5 3.077656 1_555
F29 Th1 2.434889 1_555
F29 Th0 2.447921 1_555
F29 Rb3 3.085675 1_555
F30 Th4 2.759347 1_555
F30 Th3 2.774960 1_555
F30 Th5 2.782606 1_555
F31 Th1 2.729725 1_555
F31 Th0 2.744060 1_555
F31 Th2 2.880954 1_555
