# generated using pymatgen
data_Co4CuNiS8
_symmetry_space_group_name_H-M   'P 1'
_cell_length_a   6.64376460
_cell_length_b   6.64376460
_cell_length_c   6.64376460
_cell_angle_alpha   60.00000000
_cell_angle_beta   60.00000000
_cell_angle_gamma   60.00000000
_symmetry_Int_Tables_number   1
_chemical_formula_structural   Co4CuNiS8
_chemical_formula_sum   'Co4 Cu1 Ni1 S8'
_cell_volume   207.36130175
_cell_formula_units_Z   1
loop_
 _symmetry_equiv_pos_site_id
 _symmetry_equiv_pos_as_xyz
  1  'x, y, z'
loop_
 _atom_site_type_symbol
 _atom_site_label
 _atom_site_symmetry_multiplicity
 _atom_site_fract_x
 _atom_site_fract_y
 _atom_site_fract_z
 _atom_site_occupancy
  Co  Co0  1  0.62574300  0.12475200  0.12475200  1
  Co  Co1  1  0.12475200  0.62574300  0.12475200  1
  Co  Co2  1  0.12475200  0.12475200  0.62574300  1
  Co  Co3  1  0.12475200  0.12475200  0.12475200  1
  Cu  Cu0  1  0.75000000  0.75000000  0.75000000  1
  Ni  Ni0  1  0.50000000  0.50000000  0.50000000  1
  S  S0  1  0.33719200  0.88760300  0.88760300  1
  S  S1  1  0.88760300  0.33719200  0.88760300  1
  S  S2  1  0.88760300  0.88760300  0.33719200  1
  S  S3  1  0.88760300  0.88760300  0.88760300  1
  S  S4  1  0.90372000  0.36542700  0.36542700  1
  S  S5  1  0.36542700  0.90372000  0.36542700  1
  S  S6  1  0.36542700  0.36542700  0.90372000  1
  S  S7  1  0.36542700  0.36542700  0.36542700  1
loop_
_geom_bond_atom_site_label_1
_geom_bond_atom_site_label_2
_geom_bond_distance
_geom_bond_site_symmetry_2
Co0 S3 2.234221 1_544
Co0 S2 2.234230 1_545
Co0 S1 2.234230 1_554
Co0 S6 2.265063 1_554
Co0 S5 2.265063 1_545
Co0 S7 2.265072 1_555
Co1 S3 2.234221 1_454
Co1 S0 2.234230 1_554
Co1 S2 2.234230 1_455
Co1 S4 2.265063 1_455
Co1 S6 2.265063 1_554
Co1 S7 2.265072 1_555
Co2 S3 2.234221 1_445
Co2 S1 2.234230 1_455
Co2 S0 2.234230 1_545
Co2 S4 2.265063 1_455
Co2 S5 2.265063 1_545
Co2 S7 2.265072 1_555
Co3 S1 2.234220 1_454
Co3 S0 2.234220 1_544
Co3 S2 2.234220 1_445
Co3 S4 2.265073 1_455
Co3 S6 2.265073 1_554
Co3 S5 2.265073 1_545
Cu0 S2 2.239323 1_555
Cu0 S1 2.239323 1_555
Cu0 S0 2.239323 1_555
Cu0 S3 2.239328 1_555
Ni0 S7 2.190019 1_555
Ni0 S5 2.190024 1_555
Ni0 S6 2.190024 1_555
Ni0 S4 2.190024 1_555
