# generated using pymatgen
data_TmAl3(BO3)4
_symmetry_space_group_name_H-M   'P 1'
_cell_length_a   5.91260939
_cell_length_b   5.91260939
_cell_length_c   5.91260903
_cell_angle_alpha   104.33874635
_cell_angle_beta   104.33874635
_cell_angle_gamma   104.33874097
_symmetry_Int_Tables_number   1
_chemical_formula_structural   TmAl3(BO3)4
_chemical_formula_sum   'Tm1 Al3 B4 O12'
_cell_volume   183.20815383
_cell_formula_units_Z   1
loop_
 _symmetry_equiv_pos_site_id
 _symmetry_equiv_pos_as_xyz
  1  'x, y, z'
loop_
 _atom_site_type_symbol
 _atom_site_label
 _atom_site_symmetry_multiplicity
 _atom_site_fract_x
 _atom_site_fract_y
 _atom_site_fract_z
 _atom_site_occupancy
  Tm  Tm0  1  0.00000000  0.00000000  0.00000000  1
  Al  Al0  1  0.44500000  0.00000000  0.55500000  1
  Al  Al1  1  0.55500000  0.44500000  0.00000000  1
  Al  Al2  1  0.00000000  0.55500000  0.44500000  1
  B  B0  1  0.94418700  0.05581300  0.50000000  1
  B  B1  1  0.50000000  0.94418700  0.05581300  1
  B  B2  1  0.05581300  0.50000000  0.94418700  1
  B  B3  1  0.50000000  0.50000000  0.50000000  1
  O  O0  1  0.90762200  0.50000000  0.09237800  1
  O  O1  1  0.50000000  0.09237800  0.90762200  1
  O  O2  1  0.09237800  0.90762200  0.50000000  1
  O  O3  1  0.64869200  0.50000000  0.35130800  1
  O  O4  1  0.50000000  0.35130800  0.64869200  1
  O  O5  1  0.35130800  0.64869200  0.50000000  1
  O  O6  1  0.02871400  0.63100500  0.78175800  1
  O  O7  1  0.63100500  0.78175800  0.02871400  1
  O  O8  1  0.78175800  0.02871400  0.63100500  1
  O  O9  1  0.36899500  0.97128600  0.21824200  1
  O  O10  1  0.97128600  0.21824200  0.36899500  1
  O  O11  1  0.21824200  0.36899500  0.97128600  1
loop_
_geom_bond_atom_site_label_1
_geom_bond_atom_site_label_2
_geom_bond_distance
_geom_bond_site_symmetry_2
Al0 O9 1.883323 1_545
Al0 O8 1.883323 1_555
Al0 O4 1.932210 1_555
Al0 O5 1.932210 1_545
Al0 O1 1.939875 1_555
Al0 O2 1.939875 1_545
Al1 O7 1.883323 1_555
Al1 O11 1.883323 1_554
Al1 O4 1.932210 1_554
Al1 O3 1.932210 1_555
Al1 O1 1.939875 1_554
Al1 O0 1.939875 1_555
Al2 O6 1.883323 1_555
Al2 O10 1.883323 1_455
Al2 O3 1.932210 1_455
Al2 O5 1.932210 1_555
Al2 O0 1.939875 1_455
Al2 O2 1.939875 1_555
B0 O10 1.379017 1_555
B0 O8 1.379017 1_555
B0 O2 1.384086 1_645
B1 O9 1.379017 1_555
B1 O7 1.379017 1_555
B1 O1 1.384086 1_564
B2 O6 1.379017 1_555
B2 O11 1.379017 1_555
B2 O0 1.384086 1_456
B3 O5 1.388765 1_555
B3 O4 1.388765 1_555
B3 O3 1.388765 1_555
O6 Tm0 2.313304 1_566
O7 Tm0 2.313304 1_665
O8 Tm0 2.313304 1_656
O9 Tm0 2.313304 1_565
O10 Tm0 2.313304 1_655
O11 Tm0 2.313304 1_556
