# generated using pymatgen
data_BaDyNbSnO6
_symmetry_space_group_name_H-M   'P 1'
_cell_length_a   8.43497518
_cell_length_b   8.43300045
_cell_length_c   8.47521235
_cell_angle_alpha   90.00000000
_cell_angle_beta   90.00000000
_cell_angle_gamma   90.00000000
_symmetry_Int_Tables_number   1
_chemical_formula_structural   BaDyNbSnO6
_chemical_formula_sum   'Ba4 Dy4 Nb4 Sn4 O24'
_cell_volume   602.86007183
_cell_formula_units_Z   4
loop_
 _symmetry_equiv_pos_site_id
 _symmetry_equiv_pos_as_xyz
  1  'x, y, z'
loop_
 _atom_site_type_symbol
 _atom_site_label
 _atom_site_symmetry_multiplicity
 _atom_site_fract_x
 _atom_site_fract_y
 _atom_site_fract_z
 _atom_site_occupancy
  Ba  Ba0  1  -0.00000000  0.00000000  -0.00000000  1
  Ba  Ba1  1  0.50000000  0.50000000  0.50000000  1
  Ba  Ba2  1  -0.00000000  0.50000000  0.50000000  1
  Ba  Ba3  1  -0.00000000  0.00000000  0.50000000  1
  Dy  Dy0  1  0.74527074  0.75010886  0.75481969  1
  Dy  Dy1  1  0.25472926  0.24989114  0.75481969  1
  Dy  Dy2  1  0.25472926  0.75010886  0.24518031  1
  Dy  Dy3  1  0.74527074  0.24989114  0.24518031  1
  Nb  Nb0  1  0.25037096  0.25347815  0.24604268  1
  Nb  Nb1  1  0.74962904  0.74652185  0.24604268  1
  Nb  Nb2  1  0.74962904  0.25347815  0.75395732  1
  Nb  Nb3  1  0.25037096  0.74652185  0.75395732  1
  Sn  Sn0  1  0.50000000  0.00000000  0.50000000  1
  Sn  Sn1  1  0.50000000  0.50000000  -0.00000000  1
  Sn  Sn2  1  0.50000000  0.00000000  -0.00000000  1
  Sn  Sn3  1  -0.00000000  0.50000000  -0.00000000  1
  O  O0  1  0.01435037  0.22317861  0.27512585  1
  O  O1  1  0.98564963  0.77682139  0.27512585  1
  O  O2  1  0.98564963  0.22317861  0.72487415  1
  O  O3  1  0.01435037  0.77682139  0.72487415  1
  O  O4  1  0.28307001  0.01525146  0.20842993  1
  O  O5  1  0.28307001  0.98474854  0.79157007  1
  O  O6  1  0.71692999  0.98474854  0.20842993  1
  O  O7  1  0.71692999  0.01525146  0.79157007  1
  O  O8  1  0.20852911  0.28491868  0.01333568  1
  O  O9  1  0.79147089  0.28491868  0.98666432  1
  O  O10  1  0.20852911  0.71508132  0.98666432  1
  O  O11  1  0.79147089  0.71508132  0.01333568  1
  O  O12  1  0.48551615  0.28986751  0.21070798  1
  O  O13  1  0.51448385  0.71013249  0.21070798  1
  O  O14  1  0.51448385  0.28986751  0.78929202  1
  O  O15  1  0.48551615  0.71013249  0.78929202  1
  O  O16  1  0.22994487  0.48652682  0.28339133  1
  O  O17  1  0.22994487  0.51347318  0.71660867  1
  O  O18  1  0.77005513  0.51347318  0.28339133  1
  O  O19  1  0.77005513  0.48652682  0.71660867  1
  O  O20  1  0.28597381  0.21727631  0.48499950  1
  O  O21  1  0.71402619  0.21727631  0.51500050  1
  O  O22  1  0.28597381  0.78272369  0.51500050  1
  O  O23  1  0.71402619  0.78272369  0.48499950  1
loop_
_geom_bond_atom_site_label_1
_geom_bond_atom_site_label_2
_geom_bond_distance
_geom_bond_site_symmetry_2
Ba0 O5 2.972891 1_544
Ba0 O7 2.972891 1_454
Ba0 O6 2.972891 1_445
Ba0 O4 2.972891 1_555
Ba0 O9 2.979882 1_454
Ba0 O11 2.979882 1_445
Ba0 O10 2.979882 1_544
Ba0 O8 2.979882 1_555
Ba0 O1 2.998980 1_445
Ba0 O0 2.998980 1_555
Ba0 O2 2.998980 1_454
Ba0 O3 2.998980 1_544
Ba1 O18 2.927790 1_555
Ba1 O16 2.927790 1_555
Ba1 O19 2.927790 1_555
Ba1 O17 2.927790 1_555
Ba1 O21 2.993283 1_555
Ba1 O22 2.993283 1_555
Ba1 O20 2.993283 1_555
Ba1 O23 2.993283 1_555
Ba1 O14 3.027616 1_555
Ba1 O15 3.027616 1_555
Ba1 O12 3.027616 1_555
Ba1 O13 3.027616 1_555
Ba2 O16 2.673024 1_555
Ba2 O18 2.673024 1_455
Ba2 O17 2.673024 1_555
Ba2 O19 2.673024 1_455
Ba2 O0 3.016045 1_555
Ba2 O2 3.016045 1_455
Ba2 O1 3.016045 1_455
Ba2 O3 3.016045 1_555
Ba3 O3 2.681251 1_545
Ba3 O1 2.681251 1_445
Ba3 O2 2.681251 1_455
Ba3 O0 2.681251 1_555
Ba3 O20 3.031844 1_555
Ba3 O21 3.031844 1_455
Ba3 O22 3.031844 1_545
Ba3 O23 3.031844 1_445
Dy0 O15 2.235977 1_555
Dy0 O11 2.244883 1_556
Dy0 O19 2.255962 1_555
Dy0 O7 2.270159 1_565
Dy0 O3 2.294908 1_655
Dy0 O23 2.318293 1_555
Dy1 O14 2.235977 1_555
Dy1 O8 2.244883 1_556
Dy1 O17 2.255962 1_555
Dy1 O5 2.270159 1_545
Dy1 O2 2.294908 1_455
Dy1 O20 2.318293 1_555
Dy2 O13 2.235977 1_555
Dy2 O10 2.244883 1_554
Dy2 O16 2.255962 1_555
Dy2 O4 2.270159 1_565
Dy2 O1 2.294908 1_455
Dy2 O22 2.318293 1_555
Dy3 O12 2.235977 1_555
Dy3 O9 2.244883 1_554
Dy3 O18 2.255962 1_555
Dy3 O6 2.270159 1_545
Dy3 O0 2.294908 1_655
Dy3 O21 2.318293 1_555
Nb0 O16 1.998070 1_555
Nb0 O8 2.021039 1_555
Nb0 O0 2.022236 1_555
Nb0 O12 2.029261 1_555
Nb0 O4 2.052714 1_555
Nb0 O20 2.069991 1_555
Nb1 O18 1.998070 1_555
Nb1 O11 2.021039 1_555
Nb1 O1 2.022236 1_555
Nb1 O13 2.029261 1_555
Nb1 O6 2.052714 1_555
Nb1 O23 2.069991 1_555
Nb2 O19 1.998070 1_555
Nb2 O9 2.021039 1_555
Nb2 O2 2.022236 1_555
Nb2 O14 2.029261 1_555
Nb2 O7 2.052714 1_555
Nb2 O21 2.069991 1_555
Nb3 O17 1.998070 1_555
Nb3 O10 2.021039 1_555
Nb3 O3 2.022236 1_555
Nb3 O15 2.029261 1_555
Nb3 O5 2.052714 1_555
Nb3 O22 2.069991 1_555
O4 Sn2 2.546603 1_555
O5 Sn2 2.546603 1_566
O6 Sn2 2.546603 1_565
O7 Sn2 2.546603 1_556
O8 Sn3 2.529118 1_555
O9 Sn3 2.529118 1_656
O10 Sn3 2.529118 1_556
O11 Sn3 2.529118 1_655
O12 Sn1 2.518758 1_555
O13 Sn1 2.518758 1_555
O14 Sn1 2.518758 1_556
O15 Sn1 2.518758 1_556
O20 Sn0 2.575380 1_555
O21 Sn0 2.575380 1_555
O22 Sn0 2.575380 1_565
O23 Sn0 2.575380 1_565
