# generated using pymatgen
data_K2MnH8(SO6)2
_symmetry_space_group_name_H-M   'P 1'
_cell_length_a   7.78954800
_cell_length_b   7.79287988
_cell_length_c   10.05709261
_cell_angle_alpha   86.09688518
_cell_angle_beta   86.02571216
_cell_angle_gamma   77.72038618
_symmetry_Int_Tables_number   1
_chemical_formula_structural   K2MnH8(SO6)2
_chemical_formula_sum   'K4 Mn2 H16 S4 O24'
_cell_volume   594.20272180
_cell_formula_units_Z   2
loop_
 _symmetry_equiv_pos_site_id
 _symmetry_equiv_pos_as_xyz
  1  'x, y, z'
loop_
 _atom_site_type_symbol
 _atom_site_label
 _atom_site_symmetry_multiplicity
 _atom_site_fract_x
 _atom_site_fract_y
 _atom_site_fract_z
 _atom_site_occupancy
  K  K0  1  0.09346600  0.56816900  0.25167900  1
  K  K1  1  0.56584900  0.09703700  0.24451800  1
  K  K2  1  0.90691700  0.43149200  0.75059800  1
  K  K3  1  0.43618800  0.90320400  0.75159700  1
  Mn  Mn0  1  0.00033600  0.99933100  0.99914800  1
  Mn  Mn1  1  0.49808800  0.49929200  0.49923500  1
  H  H0  1  0.91399700  0.94473700  0.72489000  1
  H  H1  1  0.07315800  0.06736200  0.27372800  1
  H  H2  1  0.93584900  0.94376900  0.28222100  1
  H  H3  1  0.06269600  0.05551900  0.71727800  1
  H  H4  1  0.17837200  0.66279600  0.61165500  1
  H  H5  1  0.66881500  0.17542000  0.61508300  1
  H  H6  1  0.82123600  0.33356100  0.38619500  1
  H  H7  1  0.33402000  0.82030000  0.38526300  1
  H  H8  1  0.27697300  0.55350200  0.73231900  1
  H  H9  1  0.55228100  0.27574100  0.73208400  1
  H  H10  1  0.72221500  0.44735400  0.26778000  1
  H  H11  1  0.44830300  0.72171800  0.26766700  1
  H  H12  1  0.23089300  0.65692100  0.96157700  1
  H  H13  1  0.65655200  0.23153100  0.96155500  1
  H  H14  1  0.76925400  0.34331300  0.03846500  1
  H  H15  1  0.34359000  0.76851200  0.03873100  1
  S  S0  1  0.79611200  0.78423200  0.52305500  1
  S  S1  1  0.21083300  0.20430900  0.47108200  1
  S  S2  1  0.29453400  0.29548100  0.95427100  1
  S  S3  1  0.70547300  0.70454400  0.04507900  1
  O  O0  1  0.21788400  0.46933400  0.88485400  1
  O  O1  1  0.46943700  0.21870100  0.88533900  1
  O  O2  1  0.78196100  0.53056300  0.11468700  1
  O  O3  1  0.53082400  0.78141200  0.11358600  1
  O  O4  1  0.31761100  0.31929600  0.09531700  1
  O  O5  1  0.68298100  0.68042200  0.90386000  1
  O  O6  1  0.99545100  0.98653200  0.77987200  1
  O  O7  1  0.00814800  0.00679100  0.21909500  1
  O  O8  1  0.82641400  0.82597400  0.05966200  1
  O  O9  1  0.17382400  0.17389500  0.93955800  1
  O  O10  1  0.22827300  0.77193200  0.00018300  1
  O  O11  1  0.77228400  0.22842200  0.99925900  1
  O  O12  1  0.33204900  0.32795400  0.43324900  1
  O  O13  1  0.66427900  0.67282700  0.56501500  1
  O  O14  1  0.29687000  0.62404000  0.64819900  1
  O  O15  1  0.62299100  0.29475400  0.64766100  1
  O  O16  1  0.70215400  0.37687800  0.35183700  1
  O  O17  1  0.37614100  0.70093400  0.35075300  1
  O  O18  1  0.97418000  0.68317800  0.55437600  1
  O  O19  1  0.75024900  0.94574400  0.60170600  1
  O  O20  1  0.03643000  0.28172400  0.41746800  1
  O  O21  1  0.28531600  0.03573600  0.40677400  1
  O  O22  1  0.79101400  0.83167000  0.37699100  1
  O  O23  1  0.19493600  0.17544000  0.61904800  1
loop_
_geom_bond_atom_site_label_1
_geom_bond_atom_site_label_2
_geom_bond_distance
_geom_bond_site_symmetry_2
K0 O20 2.787972 1_555
K0 O4 2.806603 1_555
K0 O17 2.885337 1_555
K0 O2 2.948343 1_455
K0 O12 2.969486 1_555
K0 O22 3.039463 1_455
K0 O10 3.133031 1_555
K0 O8 3.216175 1_455
K0 O18 3.249496 1_455
K1 O21 2.740417 1_555
K1 O22 2.744776 1_545
K1 O4 2.759410 1_555
K1 O16 2.917566 1_555
K1 O3 2.938423 1_545
K1 O12 2.957957 1_555
K2 O5 2.788682 1_555
K2 O18 2.789751 1_555
K2 O15 2.927224 1_555
K2 O0 2.930700 1_655
K2 O23 2.968009 1_655
K2 O13 3.015282 1_555
K2 O11 3.108343 1_555
K2 O9 3.196379 1_655
K3 O5 2.771490 1_555
K3 O23 2.841788 1_565
K3 O19 2.851830 1_555
K3 O14 2.908692 1_555
K3 O13 2.922444 1_555
K3 O1 2.947961 1_565
Mn0 O8 2.140832 1_456
Mn0 O9 2.143530 1_565
Mn0 O6 2.217621 1_455
Mn0 O7 2.222120 1_566
Mn0 O10 2.225892 1_556
Mn0 O11 2.234700 1_465
Mn1 O17 2.200847 1_555
Mn1 O16 2.203443 1_555
Mn1 O12 2.206851 1_555
Mn1 O14 2.207005 1_555
Mn1 O13 2.219803 1_555
Mn1 O15 2.221092 1_555
H0 O6 0.987664 1_555
H1 O7 0.978106 1_555
H2 O7 0.993511 1_665
H2 K0 2.951375 1_655
H3 O6 0.993824 1_445
H3 K2 2.955357 1_455
H4 O14 0.995809 1_555
H5 O15 0.991790 1_555
H6 O16 0.994555 1_555
H6 O20 1.685145 1_655
H7 O17 0.995859 1_555
H7 O21 1.666273 1_565
H8 O14 0.998328 1_555
H8 O0 1.699696 1_555
H9 O15 0.999490 1_555
H9 O1 1.697202 1_555
H10 O16 0.997841 1_555
H11 O17 0.997811 1_555
H12 O10 0.996472 1_556
H12 O0 1.723382 1_555
H13 O11 0.996955 1_555
H13 O1 1.717338 1_555
H14 O11 0.997712 1_554
H15 O10 0.997283 1_555
O0 S2 1.504771 1_555
O1 S2 1.507840 1_555
O2 S3 1.506081 1_555
O3 S3 1.504635 1_555
O4 S2 1.471160 1_554
O5 S3 1.472412 1_556
O8 S3 1.490547 1_555
O9 S2 1.490342 1_555
O12 S1 1.500679 1_555
O13 S0 1.501878 1_555
O18 S0 1.485094 1_555
O19 S0 1.497529 1_555
O20 S1 1.486238 1_555
O21 S1 1.489994 1_555
O22 S0 1.491325 1_555
O23 S1 1.490349 1_555
