# generated using pymatgen
data_CsMoS(ClO)2
_symmetry_space_group_name_H-M   'P 1'
_cell_length_a   21.15812800
_cell_length_b   7.62247900
_cell_length_c   10.71794791
_cell_angle_alpha   85.25451157
_cell_angle_beta   90.00000000
_cell_angle_gamma   90.00000000
_symmetry_Int_Tables_number   1
_chemical_formula_structural   CsMoS(ClO)2
_chemical_formula_sum   'Cs8 Mo8 S8 Cl16 O16'
_cell_volume   1722.63714812
_cell_formula_units_Z   8
loop_
 _symmetry_equiv_pos_site_id
 _symmetry_equiv_pos_as_xyz
  1  'x, y, z'
loop_
 _atom_site_type_symbol
 _atom_site_label
 _atom_site_symmetry_multiplicity
 _atom_site_fract_x
 _atom_site_fract_y
 _atom_site_fract_z
 _atom_site_occupancy
  Cs  Cs0  1  0.92986500  0.79797800  0.51387500  1
  Cs  Cs1  1  0.42986500  0.20202200  0.98612500  1
  Cs  Cs2  1  0.07013500  0.20202200  0.48612500  1
  Cs  Cs3  1  0.57013500  0.79797800  0.01387500  1
  Cs  Cs4  1  0.70131400  0.40254500  0.78054800  1
  Cs  Cs5  1  0.20131400  0.59745500  0.71945200  1
  Cs  Cs6  1  0.29868600  0.59745500  0.21945200  1
  Cs  Cs7  1  0.79868600  0.40254500  0.28054800  1
  Mo  Mo0  1  0.92004300  0.25555500  0.76960300  1
  Mo  Mo1  1  0.42004300  0.74444500  0.73039700  1
  Mo  Mo2  1  0.07995700  0.74444500  0.23039700  1
  Mo  Mo3  1  0.57995700  0.25555500  0.26960300  1
  Mo  Mo4  1  0.82343500  0.99254000  0.01697500  1
  Mo  Mo5  1  0.32343500  0.00746000  0.48302500  1
  Mo  Mo6  1  0.17656500  0.00746000  0.98302500  1
  Mo  Mo7  1  0.67656500  0.99254000  0.51697500  1
  S  S0  1  0.84889900  0.83047000  0.83645900  1
  S  S1  1  0.34889900  0.16953000  0.66354100  1
  S  S2  1  0.15110100  0.16953000  0.16354100  1
  S  S3  1  0.65110100  0.83047000  0.33645900  1
  S  S4  1  0.58021300  0.17793800  0.48392200  1
  S  S5  1  0.08021300  0.82206200  0.01607800  1
  S  S6  1  0.41978700  0.82206200  0.51607800  1
  S  S7  1  0.91978700  0.17793800  0.98392200  1
  Cl  Cl0  1  0.92020100  0.35970700  0.50980700  1
  Cl  Cl1  1  0.42020100  0.64029300  0.99019300  1
  Cl  Cl2  1  0.07979900  0.64029300  0.49019300  1
  Cl  Cl3  1  0.57979900  0.35970700  0.00980700  1
  Cl  Cl4  1  0.64934000  0.94140400  0.73326000  1
  Cl  Cl5  1  0.14934000  0.05859600  0.76674000  1
  Cl  Cl6  1  0.35066000  0.05859600  0.26674000  1
  Cl  Cl7  1  0.85066000  0.94140400  0.23326000  1
  Cl  Cl8  1  0.75587700  0.75449600  0.54759100  1
  Cl  Cl9  1  0.25587700  0.24550400  0.95240900  1
  Cl  Cl10  1  0.24412300  0.24550400  0.45240900  1
  Cl  Cl11  1  0.74412300  0.75449600  0.04759100  1
  Cl  Cl12  1  0.49759700  0.52934200  0.72348500  1
  Cl  Cl13  1  0.99759700  0.47065800  0.77651500  1
  Cl  Cl14  1  0.50240300  0.47065800  0.27651500  1
  Cl  Cl15  1  0.00240300  0.52934200  0.22348500  1
  O  O0  1  0.88724200  0.77645200  0.96004500  1
  O  O1  1  0.38724200  0.22354800  0.53995500  1
  O  O2  1  0.11275800  0.22354800  0.03995500  1
  O  O3  1  0.61275800  0.77645200  0.46004500  1
  O  O4  1  0.84088300  0.30415600  0.74423900  1
  O  O5  1  0.34088300  0.69584400  0.75576100  1
  O  O6  1  0.15911700  0.69584400  0.25576100  1
  O  O7  1  0.65911700  0.30415600  0.24423900  1
  O  O8  1  0.94250300  0.05892400  0.70896200  1
  O  O9  1  0.44250300  0.94107600  0.79103800  1
  O  O10  1  0.05749700  0.94107600  0.29103800  1
  O  O11  1  0.55749700  0.05892400  0.20896200  1
  O  O12  1  0.72918500  0.16551400  0.49523700  1
  O  O13  1  0.22918500  0.83448600  0.00476300  1
  O  O14  1  0.27081500  0.83448600  0.50476300  1
  O  O15  1  0.77081500  0.16551400  0.99523700  1
loop_
_geom_bond_atom_site_label_1
_geom_bond_atom_site_label_2
_geom_bond_distance
_geom_bond_site_symmetry_2
Cs0 O8 3.014628 1_565
Cs1 O9 3.014628 1_545
Cs2 O10 3.014628 1_545
Cs3 O11 3.014628 1_565
Cs4 O4 3.079368 1_555
Cs4 O15 3.167591 1_555
Cs4 O12 3.725232 1_555
Cs5 O5 3.079368 1_555
Cs5 O14 3.167591 1_555
Cs5 O13 3.725232 1_556
Cs6 O6 3.079368 1_555
Cs6 O13 3.167591 1_555
Cs6 O14 3.725232 1_555
Cs7 O7 3.079368 1_555
Cs7 O12 3.167591 1_555
Cs7 O15 3.725232 1_554
Mo0 O4 1.731963 1_555
Mo0 O8 1.748110 1_555
Mo0 S7 2.324152 1_555
Mo1 O5 1.731963 1_555
Mo1 O9 1.748110 1_555
Mo1 S6 2.324152 1_555
Mo2 O6 1.731963 1_555
Mo2 O10 1.748110 1_555
Mo2 S5 2.324152 1_555
Mo3 O7 1.731963 1_555
Mo3 O11 1.748110 1_555
Mo3 S4 2.324152 1_555
Mo4 O15 1.726673 1_564
Mo4 O0 2.252604 1_554
Mo4 S0 2.440328 1_554
Mo4 S7 2.489133 1_564
Mo5 O14 1.726673 1_545
Mo5 O1 2.252604 1_555
Mo5 S1 2.440328 1_555
Mo5 S6 2.489133 1_545
Mo6 O13 1.726673 1_546
Mo6 O2 2.252604 1_556
Mo6 S2 2.440328 1_556
Mo6 S5 2.489133 1_546
Mo7 O12 1.726673 1_565
Mo7 O3 2.252604 1_555
Mo7 S3 2.440328 1_555
Mo7 S4 2.489133 1_565
Cl0 Mo0 2.831581 1_555
Cl0 Cs0 3.350845 1_555
Cl0 Cs2 3.409285 1_655
Cl0 Cs7 3.552721 1_555
Cl1 Mo1 2.831581 1_555
Cl1 Cs1 3.350845 1_555
Cl1 Cs3 3.409285 1_556
Cl1 Cs6 3.552721 1_556
Cl2 Mo2 2.831581 1_555
Cl2 Cs2 3.350845 1_555
Cl2 Cs0 3.409285 1_455
Cl2 Cs5 3.552721 1_555
Cl3 Mo3 2.831581 1_555
Cl3 Cs3 3.350845 1_555
Cl3 Cs1 3.409285 1_554
Cl3 Cs4 3.552721 1_554
Cl4 Mo7 2.389136 1_555
Cl4 Cs3 3.536288 1_556
Cl4 Cs4 3.757182 1_565
Cl5 Mo6 2.389136 1_555
Cl5 Cs2 3.536288 1_555
Cl5 Cs5 3.757182 1_545
Cl6 Mo5 2.389136 1_555
Cl6 Cs1 3.536288 1_554
Cl6 Cs6 3.757182 1_545
Cl7 Mo4 2.389136 1_555
Cl7 Cs0 3.536288 1_555
Cl7 Cs7 3.757182 1_565
Cl8 Mo7 2.473361 1_555
Cl8 Cs4 3.695357 1_555
Cl8 Cs0 3.711105 1_555
Cl9 Mo6 2.473361 1_555
Cl9 Cs5 3.695357 1_555
Cl9 Cs1 3.711105 1_555
Cl10 Mo5 2.473361 1_555
Cl10 Cs6 3.695357 1_555
Cl10 Cs2 3.711105 1_555
Cl11 Mo4 2.473361 1_555
Cl11 Cs7 3.695357 1_555
Cl11 Cs3 3.711105 1_555
Cl12 Mo1 2.325183 1_555
Cl13 Mo0 2.325183 1_555
Cl14 Mo3 2.325183 1_555
Cl15 Mo2 2.325183 1_555
O0 S0 1.578602 1_555
O1 S1 1.578602 1_555
O2 S2 1.578602 1_555
O3 S3 1.578602 1_555
