# generated using pymatgen
data_MnAl2Sb2(PO4)6
_symmetry_space_group_name_H-M   'P 1'
_cell_length_a   8.54433562
_cell_length_b   8.54433562
_cell_length_c   8.54433514
_cell_angle_alpha   60.12156972
_cell_angle_beta   60.12156972
_cell_angle_gamma   60.12157556
_symmetry_Int_Tables_number   1
_chemical_formula_structural   MnAl2Sb2(PO4)6
_chemical_formula_sum   'Mn1 Al2 Sb2 P6 O24'
_cell_volume   442.29738396
_cell_formula_units_Z   1
loop_
 _symmetry_equiv_pos_site_id
 _symmetry_equiv_pos_as_xyz
  1  'x, y, z'
loop_
 _atom_site_type_symbol
 _atom_site_label
 _atom_site_symmetry_multiplicity
 _atom_site_fract_x
 _atom_site_fract_y
 _atom_site_fract_z
 _atom_site_occupancy
  Mn  Mn0  1  0.50000000  0.50000000  0.50000000  1
  Al  Al0  1  0.64443600  0.64443600  0.64443600  1
  Al  Al1  1  0.35556400  0.35556400  0.35556400  1
  Sb  Sb0  1  0.13759400  0.13759400  0.13759400  1
  Sb  Sb1  1  0.86240600  0.86240600  0.86240600  1
  P  P0  1  0.46485400  0.04277100  0.73854900  1
  P  P1  1  0.04277100  0.73854900  0.46485400  1
  P  P2  1  0.73854900  0.46485400  0.04277100  1
  P  P3  1  0.95722900  0.26145100  0.53514600  1
  P  P4  1  0.26145100  0.53514600  0.95722900  1
  P  P5  1  0.53514600  0.95722900  0.26145100  1
  O  O0  1  0.56339500  0.76148500  0.42191800  1
  O  O1  1  0.76148500  0.42191800  0.56339500  1
  O  O2  1  0.42191800  0.56339500  0.76148500  1
  O  O3  1  0.04984500  0.91521700  0.27730500  1
  O  O4  1  0.91521700  0.27730500  0.04984500  1
  O  O5  1  0.27730500  0.04984500  0.91521700  1
  O  O6  1  0.43660500  0.23851500  0.57808200  1
  O  O7  1  0.23851500  0.57808200  0.43660500  1
  O  O8  1  0.57808200  0.43660500  0.23851500  1
  O  O9  1  0.95015500  0.08478300  0.72269500  1
  O  O10  1  0.08478300  0.72269500  0.95015500  1
  O  O11  1  0.72269500  0.95015500  0.08478300  1
  O  O12  1  0.50944600  0.87534800  0.68951000  1
  O  O13  1  0.87534800  0.68951000  0.50944600  1
  O  O14  1  0.68951000  0.50944600  0.87534800  1
  O  O15  1  0.97587300  0.21335200  0.37016800  1
  O  O16  1  0.21335200  0.37016800  0.97587300  1
  O  O17  1  0.37016800  0.97587300  0.21335200  1
  O  O18  1  0.49055400  0.12465200  0.31049000  1
  O  O19  1  0.12465200  0.31049000  0.49055400  1
  O  O20  1  0.31049000  0.49055400  0.12465200  1
  O  O21  1  0.02412700  0.78664800  0.62983200  1
  O  O22  1  0.78664800  0.62983200  0.02412700  1
  O  O23  1  0.62983200  0.02412700  0.78664800  1
loop_
_geom_bond_atom_site_label_1
_geom_bond_atom_site_label_2
_geom_bond_distance
_geom_bond_site_symmetry_2
Mn0 O2 2.256287 1_555
Mn0 O8 2.256287 1_555
Mn0 O0 2.256287 1_555
Mn0 O6 2.256287 1_555
Mn0 O1 2.256287 1_555
Mn0 O7 2.256287 1_555
Al0 O14 1.848932 1_555
Al0 O13 1.848932 1_555
Al0 O12 1.848932 1_555
Al0 O0 1.954927 1_555
Al0 O2 1.954927 1_555
Al0 O1 1.954927 1_555
Al1 O20 1.848932 1_555
Al1 O19 1.848932 1_555
Al1 O18 1.848932 1_555
Al1 O6 1.954927 1_555
Al1 O8 1.954927 1_555
Al1 O7 1.954927 1_555
O0 P5 1.542141 1_555
O1 P3 1.542142 1_555
O2 P4 1.542141 1_555
O3 P1 1.560306 1_555
O3 Sb0 1.966005 1_565
O4 P2 1.560307 1_555
O4 Sb0 1.966005 1_655
O5 P0 1.560307 1_555
O5 Sb0 1.966005 1_556
O6 P0 1.542141 1_555
O7 P1 1.542142 1_555
O8 P2 1.542141 1_555
O9 P3 1.560306 1_555
O9 Sb1 1.966005 1_545
O10 P4 1.560307 1_555
O10 Sb1 1.966005 1_455
O11 P5 1.560307 1_555
O11 Sb1 1.966005 1_554
O12 P0 1.504066 1_565
O13 P1 1.504066 1_655
O14 P2 1.504066 1_556
O15 P3 1.571483 1_555
O15 Sb0 1.982908 1_655
O16 P4 1.571483 1_555
O16 Sb0 1.982908 1_556
O17 P5 1.571483 1_555
O17 Sb0 1.982908 1_565
O18 P5 1.504066 1_545
O19 P3 1.504066 1_455
O20 P4 1.504066 1_554
O21 P1 1.571483 1_555
O21 Sb1 1.982908 1_455
O22 P2 1.571483 1_555
O22 Sb1 1.982908 1_554
O23 P0 1.571483 1_555
O23 Sb1 1.982908 1_545
