# generated using pymatgen
data_Li7Mn2(CoO4)3
_symmetry_space_group_name_H-M   'P 1'
_cell_length_a   5.14988705
_cell_length_b   5.14988705
_cell_length_c   15.39829994
_cell_angle_alpha   80.63903787
_cell_angle_beta   80.63903787
_cell_angle_gamma   32.76125207
_symmetry_Int_Tables_number   1
_chemical_formula_structural   Li7Mn2(CoO4)3
_chemical_formula_sum   'Li7 Mn2 Co3 O12'
_cell_volume   217.79343317
_cell_formula_units_Z   1
loop_
 _symmetry_equiv_pos_site_id
 _symmetry_equiv_pos_as_xyz
  1  'x, y, z'
loop_
 _atom_site_type_symbol
 _atom_site_label
 _atom_site_symmetry_multiplicity
 _atom_site_fract_x
 _atom_site_fract_y
 _atom_site_fract_z
 _atom_site_occupancy
  Li  Li0  1  0.75296700  0.75296700  0.90517600  1
  Li  Li1  1  0.24329800  0.24329800  0.75367400  1
  Li  Li2  1  0.74274600  0.74274600  0.58845300  1
  Li  Li3  1  0.25616800  0.25616800  0.42308200  1
  Li  Li4  1  0.74685700  0.74685700  0.24528300  1
  Li  Li5  1  0.25535700  0.25535700  0.07946000  1
  Li  Li6  1  0.50264600  0.50264600  0.83334800  1
  Mn  Mn0  1  0.00459800  0.00459800  0.99440100  1
  Mn  Mn1  1  0.00019000  0.00019000  0.33434600  1
  Co  Co0  1  0.99215300  0.99215300  0.68151400  1
  Co  Co1  1  0.50004300  0.50004300  0.51012300  1
  Co  Co2  1  0.49857700  0.49857700  0.16503400  1
  O  O0  1  0.11738700  0.11738700  0.88769800  1
  O  O1  1  0.61351700  0.61351700  0.70363300  1
  O  O2  1  0.12217200  0.12217200  0.53500300  1
  O  O3  1  0.60978200  0.60978200  0.36989500  1
  O  O4  1  0.11171000  0.11171000  0.21503500  1
  O  O5  1  0.61036700  0.61036700  0.04147400  1
  O  O6  1  0.39262500  0.39262500  0.96424000  1
  O  O7  1  0.87497100  0.87497100  0.78372900  1
  O  O8  1  0.38558600  0.38558600  0.61797200  1
  O  O9  1  0.89279400  0.89279400  0.44923400  1
  O  O10  1  0.38932100  0.38932100  0.29596700  1
  O  O11  1  0.88416900  0.88416900  0.12222600  1
loop_
_geom_bond_atom_site_label_1
_geom_bond_atom_site_label_2
_geom_bond_distance
_geom_bond_site_symmetry_2
Li0 O0 2.024596 1_655
Li0 O0 2.024596 1_565
Li0 O7 2.046024 1_555
Li0 O6 2.294917 1_565
Li0 O6 2.294917 1_655
Li0 O5 2.321133 1_556
Li1 O7 2.054433 1_455
Li1 O7 2.054433 1_545
Li1 O1 2.163988 1_545
Li1 O1 2.163988 1_455
Li1 O0 2.221814 1_555
Li1 O8 2.312382 1_555
Li2 O1 2.002089 1_555
Li2 O8 2.127399 1_565
Li2 O8 2.127399 1_655
Li2 O2 2.130458 1_565
Li2 O2 2.130458 1_655
Li2 O9 2.390884 1_555
Li3 O2 1.987360 1_555
Li3 O9 2.068480 1_455
Li3 O9 2.068480 1_545
Li3 O10 2.165468 1_555
Li3 O3 2.296577 1_545
Li3 O3 2.296577 1_455
Li4 O4 2.078629 1_655
Li4 O4 2.078629 1_565
Li4 O11 2.135382 1_555
Li4 O3 2.152981 1_555
Li4 O10 2.252296 1_565
Li4 O10 2.252296 1_655
Li5 O6 2.042471 1_554
Li5 O11 2.108894 1_455
Li5 O11 2.108894 1_545
Li5 O5 2.188239 1_455
Li5 O5 2.188239 1_545
Li5 O4 2.316961 1_555
Li6 O0 2.101682 1_655
Li6 O0 2.101682 1_565
Li6 O1 2.109004 1_555
Li6 O6 2.121627 1_555
Li6 O7 2.147489 1_455
Li6 O7 2.147489 1_545
Mn0 O0 1.822330 1_555
Mn0 O6 1.929658 1_545
Mn0 O6 1.929658 1_455
Mn0 O5 1.995998 1_546
Mn0 O5 1.995998 1_456
Mn0 O11 2.120410 1_446
Mn1 O9 1.902451 1_445
Mn1 O3 1.944935 1_545
Mn1 O3 1.944935 1_455
Mn1 O10 1.969365 1_545
Mn1 O10 1.969365 1_455
Mn1 O4 1.975650 1_555
Co0 O7 1.788902 1_555
Co0 O1 1.949903 1_655
Co0 O1 1.949903 1_565
Co0 O8 2.127202 1_655
Co0 O8 2.127202 1_565
Co0 O2 2.399489 1_665
Co1 O8 1.843977 1_555
Co1 O2 1.967066 1_565
Co1 O2 1.967066 1_655
Co1 O9 2.109149 1_455
Co1 O9 2.109149 1_545
Co1 O3 2.245986 1_555
Co2 O11 2.018579 1_455
Co2 O11 2.018579 1_545
Co2 O5 2.031649 1_555
Co2 O4 2.060045 1_655
Co2 O4 2.060045 1_565
Co2 O10 2.119528 1_555
