# generated using pymatgen
data_Eu2MnSi2O7
_symmetry_space_group_name_H-M   'P 1'
_cell_length_a   8.23299500
_cell_length_b   8.23299500
_cell_length_c   5.20419200
_cell_angle_alpha   90.00000000
_cell_angle_beta   90.00000000
_cell_angle_gamma   90.00000000
_symmetry_Int_Tables_number   1
_chemical_formula_structural   Eu2MnSi2O7
_chemical_formula_sum   'Eu4 Mn2 Si4 O14'
_cell_volume   352.75161769
_cell_formula_units_Z   2
loop_
 _symmetry_equiv_pos_site_id
 _symmetry_equiv_pos_as_xyz
  1  'x, y, z'
loop_
 _atom_site_type_symbol
 _atom_site_label
 _atom_site_symmetry_multiplicity
 _atom_site_fract_x
 _atom_site_fract_y
 _atom_site_fract_z
 _atom_site_occupancy
  Eu  Eu0  1  0.33322000  0.83322000  0.50521000  1
  Eu  Eu1  1  0.16678000  0.33322000  0.49479000  1
  Eu  Eu2  1  0.66678000  0.16678000  0.50521000  1
  Eu  Eu3  1  0.83322000  0.66678000  0.49479000  1
  Mn  Mn0  1  0.50000000  0.50000000  0.00000000  1
  Mn  Mn1  1  0.00000000  0.00000000  0.00000000  1
  Si  Si0  1  0.13794600  0.63794600  0.94233100  1
  Si  Si1  1  0.36205400  0.13794600  0.05766900  1
  Si  Si2  1  0.86205400  0.36205400  0.94233100  1
  Si  Si3  1  0.63794600  0.86205400  0.05766900  1
  O  O0  1  0.50000000  0.00000000  0.15530300  1
  O  O1  1  0.00000000  0.50000000  0.84469700  1
  O  O2  1  0.14344400  0.64344400  0.25292900  1
  O  O3  1  0.35655600  0.14344400  0.74707100  1
  O  O4  1  0.85655600  0.35655600  0.25292900  1
  O  O5  1  0.64344400  0.85655600  0.74707100  1
  O  O6  1  0.30414600  0.57925100  0.79211500  1
  O  O7  1  0.19585400  0.07925100  0.20788500  1
  O  O8  1  0.69585400  0.42074900  0.79211500  1
  O  O9  1  0.80414600  0.92074900  0.20788500  1
  O  O10  1  0.57925100  0.69585400  0.20788500  1
  O  O11  1  0.92074900  0.19585400  0.79211500  1
  O  O12  1  0.42074900  0.30414600  0.20788500  1
  O  O13  1  0.07925100  0.80414600  0.79211500  1
loop_
_geom_bond_atom_site_label_1
_geom_bond_atom_site_label_2
_geom_bond_distance
_geom_bond_site_symmetry_2
Eu0 O2 2.570233 1_555
Eu0 O13 2.580434 1_555
Eu0 O6 2.580434 1_555
Eu0 O0 2.662101 1_565
Eu0 O10 2.788584 1_555
Eu0 O7 2.788584 1_565
Eu0 O3 2.853857 1_565
Eu0 O5 2.853857 1_555
Eu1 O3 2.570233 1_555
Eu1 O7 2.580434 1_555
Eu1 O12 2.580434 1_555
Eu1 O1 2.662101 1_555
Eu1 O6 2.788584 1_555
Eu1 O11 2.788584 1_455
Eu1 O2 2.853857 1_555
Eu1 O4 2.853857 1_455
Eu2 O4 2.570233 1_555
Eu2 O11 2.580434 1_555
Eu2 O8 2.580434 1_555
Eu2 O0 2.662101 1_555
Eu2 O9 2.788584 1_545
Eu2 O12 2.788584 1_555
Eu2 O3 2.853857 1_555
Eu2 O5 2.853857 1_545
Eu3 O5 2.570233 1_555
Eu3 O9 2.580434 1_555
Eu3 O10 2.580434 1_555
Eu3 O1 2.662101 1_655
Eu3 O13 2.788584 1_655
Eu3 O8 2.788584 1_555
Eu3 O2 2.853857 1_655
Eu3 O4 2.853857 1_555
Mn0 O10 2.048466 1_555
Mn0 O12 2.048466 1_555
Mn0 O8 2.048466 1_554
Mn0 O6 2.048466 1_554
Mn1 O9 2.048466 1_445
Mn1 O13 2.048466 1_544
Mn1 O11 2.048466 1_454
Mn1 O7 2.048466 1_555
O0 Si3 1.684589 1_545
O0 Si1 1.684589 1_555
O1 Si0 1.684589 1_555
O1 Si2 1.684589 1_455
O2 Si0 1.617679 1_554
O3 Si1 1.617679 1_556
O4 Si2 1.617679 1_554
O5 Si3 1.617679 1_556
O6 Si0 1.648322 1_555
O7 Si1 1.648322 1_555
O8 Si2 1.648322 1_555
O9 Si3 1.648322 1_555
O10 Si3 1.648322 1_555
O11 Si2 1.648322 1_555
O12 Si1 1.648322 1_555
O13 Si0 1.648322 1_555
