# generated using pymatgen
data_LaAs2Au
_symmetry_space_group_name_H-M   'P 1'
_cell_length_a   10.89600893
_cell_length_b   10.89628723
_cell_length_c   4.15203625
_cell_angle_alpha   79.01264773
_cell_angle_beta   79.02018782
_cell_angle_gamma   21.96716445
_symmetry_Int_Tables_number   1
_chemical_formula_structural   LaAs2Au
_chemical_formula_sum   'La2 As4 Au2'
_cell_volume   180.89576919
_cell_formula_units_Z   2
loop_
 _symmetry_equiv_pos_site_id
 _symmetry_equiv_pos_as_xyz
  1  'x, y, z'
loop_
 _atom_site_type_symbol
 _atom_site_label
 _atom_site_symmetry_multiplicity
 _atom_site_fract_x
 _atom_site_fract_y
 _atom_site_fract_z
 _atom_site_occupancy
  La  La0  1  0.11082490  0.12375560  0.88917510  1
  La  La1  1  0.87624440  0.88917510  0.12375560  1
  As  As0  1  0.32925960  0.34300464  0.67074040  1
  As  As1  1  0.65699536  0.67074040  0.34300464  1
  As  As2  1  0.50838674  0.49161326  0.06395486  1
  As  As3  1  0.93604514  0.06395486  0.49161326  1
  Au  Au0  1  0.74947143  0.75052857  0.75052857  1
  Au  Au1  1  0.24947143  0.25052857  0.25052857  1
loop_
_geom_bond_atom_site_label_1
_geom_bond_atom_site_label_2
_geom_bond_distance
_geom_bond_site_symmetry_2
As0 Au0 2.732991 1_455
As0 Au1 2.732991 1_556
As0 Au0 2.772733 1_545
As0 Au1 2.772733 1_555
As0 La1 3.092602 1_456
As0 La1 3.093892 1_546
As0 La1 3.093892 1_455
As0 La1 3.097140 1_545
As1 Au1 2.732991 1_565
As1 Au0 2.732991 1_555
As1 Au1 2.772733 1_655
As1 Au0 2.772733 1_554
As1 La0 3.092602 1_565
As1 La0 3.093892 1_655
As1 La0 3.093892 1_564
As1 La0 3.097140 1_654
As2 As3 2.510711 1_555
As2 As3 2.967003 1_465
As2 As3 2.967003 1_554
As2 La0 3.189649 1_654
As2 La1 3.189649 1_545
As2 La0 3.268829 1_564
As2 La1 3.268829 1_455
As3 La0 3.189649 1_654
As3 La1 3.189649 1_545
As3 La0 3.268829 1_655
As3 La1 3.268829 1_546
Au0 Au1 2.935417 1_656
Au0 Au1 2.935417 1_565
Au0 Au1 2.936449 1_566
Au0 Au1 2.936449 1_655
Au0 La1 3.459104 1_555
Au0 La0 3.459104 1_655
Au0 La1 3.488577 1_556
Au0 La0 3.488577 1_565
Au1 La1 3.459104 1_545
Au1 La0 3.459104 1_554
Au1 La1 3.488577 1_455
Au1 La0 3.488577 1_555
