# generated using pymatgen
data_LaY3(MnSi)4
_symmetry_space_group_name_H-M   'P 1'
_cell_length_a   3.95850800
_cell_length_b   3.95850800
_cell_length_c   14.60459900
_cell_angle_alpha   90.00000000
_cell_angle_beta   90.00000000
_cell_angle_gamma   90.00000000
_symmetry_Int_Tables_number   1
_chemical_formula_structural   LaY3(MnSi)4
_chemical_formula_sum   'La1 Y3 Mn4 Si4'
_cell_volume   228.85093490
_cell_formula_units_Z   1
loop_
 _symmetry_equiv_pos_site_id
 _symmetry_equiv_pos_as_xyz
  1  'x, y, z'
loop_
 _atom_site_type_symbol
 _atom_site_label
 _atom_site_symmetry_multiplicity
 _atom_site_fract_x
 _atom_site_fract_y
 _atom_site_fract_z
 _atom_site_occupancy
  La  La0  1  0.50000000  0.50000000  0.16759300  1
  Y  Y0  1  0.50000000  0.50000000  0.66524600  1
  Y  Y1  1  0.00000000  0.00000000  0.34763100  1
  Y  Y2  1  0.00000000  0.00000000  0.83320700  1
  Mn  Mn0  1  0.50000000  0.00000000  0.99225100  1
  Mn  Mn1  1  0.50000000  0.00000000  0.50478100  1
  Mn  Mn2  1  0.00000000  0.50000000  0.99225100  1
  Mn  Mn3  1  0.00000000  0.50000000  0.50478100  1
  Si  Si0  1  0.50000000  0.50000000  0.40817300  1
  Si  Si1  1  0.50000000  0.50000000  0.89491600  1
  Si  Si2  1  0.00000000  0.00000000  0.08628500  1
  Si  Si3  1  0.00000000  0.00000000  0.60288300  1
loop_
_geom_bond_atom_site_label_1
_geom_bond_atom_site_label_2
_geom_bond_distance
_geom_bond_site_symmetry_2
La0 Si2 3.040556 1_665
La0 Si2 3.040556 1_565
La0 Si2 3.040556 1_655
La0 Si2 3.040556 1_555
La0 Mn0 3.236532 1_564
La0 Mn2 3.236532 1_554
La0 Mn2 3.236532 1_654
La0 Mn0 3.236532 1_554
La0 Si0 3.513574 1_555
La0 Y1 3.840384 1_565
La0 Y1 3.840384 1_665
La0 Y1 3.840384 1_555
La0 Y1 3.840384 1_655
Mn0 Si2 2.409041 1_556
Mn0 Si2 2.409041 1_656
Mn0 Si1 2.436846 1_545
Mn0 Si1 2.436846 1_555
Mn0 Y2 3.051676 1_555
Mn0 Y2 3.051676 1_655
Mn1 Si0 2.430668 1_545
Mn1 Si0 2.430668 1_555
Mn1 Si3 2.443398 1_555
Mn1 Si3 2.443398 1_655
Mn1 Y1 3.030675 1_555
Mn1 Y1 3.030675 1_655
Mn1 Y0 3.067501 1_545
Mn1 Y0 3.067501 1_555
Mn2 Si2 2.409041 1_556
Mn2 Si2 2.409041 1_566
Mn2 Si1 2.436846 1_555
Mn2 Si1 2.436846 1_455
Mn2 Y2 3.051676 1_555
Mn2 Y2 3.051676 1_565
Mn3 Si0 2.430668 1_555
Mn3 Si0 2.430668 1_455
Mn3 Si3 2.443398 1_565
Mn3 Si3 2.443398 1_555
Mn3 Y1 3.030675 1_555
Mn3 Y1 3.030675 1_565
Mn3 Y0 3.067501 1_455
Mn3 Y0 3.067501 1_555
Si0 Y1 2.935419 1_665
Si0 Y1 2.935419 1_555
Si0 Y1 2.935419 1_655
Si0 Y1 2.935419 1_565
Si1 Y2 2.940598 1_565
Si1 Y2 2.940598 1_655
Si1 Y2 2.940598 1_665
Si1 Y2 2.940598 1_555
Si1 Y0 3.354238 1_555
Si3 Y0 2.943540 1_455
Si3 Y0 2.943540 1_445
Si3 Y0 2.943540 1_545
Si3 Y0 2.943540 1_555
Si3 Y2 3.363790 1_555
