# generated using pymatgen
data_NaMn7O12
_symmetry_space_group_name_H-M   'P 1'
_cell_length_a   6.44860529
_cell_length_b   6.44860529
_cell_length_c   6.44860529
_cell_angle_alpha   109.47122063
_cell_angle_beta   109.47122063
_cell_angle_gamma   109.47122063
_symmetry_Int_Tables_number   1
_chemical_formula_structural   NaMn7O12
_chemical_formula_sum   'Na1 Mn7 O12'
_cell_volume   206.43127494
_cell_formula_units_Z   1
loop_
 _symmetry_equiv_pos_site_id
 _symmetry_equiv_pos_as_xyz
  1  'x, y, z'
loop_
 _atom_site_type_symbol
 _atom_site_label
 _atom_site_symmetry_multiplicity
 _atom_site_fract_x
 _atom_site_fract_y
 _atom_site_fract_z
 _atom_site_occupancy
  Na  Na0  1  0.00000000  0.00000000  0.00000000  1
  Mn  Mn0  1  0.50000000  0.00000000  0.00000000  1
  Mn  Mn1  1  0.00000000  0.50000000  0.00000000  1
  Mn  Mn2  1  0.00000000  0.50000000  0.50000000  1
  Mn  Mn3  1  0.50000000  0.50000000  0.50000000  1
  Mn  Mn4  1  0.00000000  0.00000000  0.50000000  1
  Mn  Mn5  1  0.50000000  0.50000000  0.00000000  1
  Mn  Mn6  1  0.50000000  0.00000000  0.50000000  1
  O  O0  1  0.81481900  0.12913300  0.31431400  1
  O  O1  1  0.81481900  0.50050500  0.68568600  1
  O  O2  1  0.87086700  0.68568600  0.18518100  1
  O  O3  1  0.49949500  0.31431400  0.18518100  1
  O  O4  1  0.31431400  0.81481900  0.12913300  1
  O  O5  1  0.18518100  0.87086700  0.68568600  1
  O  O6  1  0.68568600  0.81481900  0.50050500  1
  O  O7  1  0.18518100  0.49949500  0.31431400  1
  O  O8  1  0.12913300  0.31431400  0.81481900  1
  O  O9  1  0.31431400  0.18518100  0.49949500  1
  O  O10  1  0.68568600  0.18518100  0.87086700  1
  O  O11  1  0.50050500  0.68568600  0.81481900  1
loop_
_geom_bond_atom_site_label_1
_geom_bond_atom_site_label_2
_geom_bond_distance
_geom_bond_site_symmetry_2
Na0 O10 2.716440 1_454
Na0 O2 2.716440 1_445
Na0 O5 2.716440 1_544
Na0 O7 2.716440 1_555
Na0 O9 2.716440 1_555
Na0 O3 2.716440 1_555
Na0 O8 2.716440 1_554
Na0 O1 2.716440 1_444
Na0 O0 2.716440 1_455
Na0 O6 2.716440 1_444
Na0 O11 2.716440 1_444
Na0 O4 2.716440 1_545
Mn0 O10 1.981836 1_554
Mn0 O11 1.981836 1_544
Mn0 O0 1.981836 1_555
Mn0 O4 1.981836 1_545
Mn0 O3 1.981836 1_555
Mn0 O5 1.981836 1_544
Mn1 O2 1.981836 1_455
Mn1 O1 1.981836 1_454
Mn1 O4 1.981836 1_555
Mn1 O8 1.981836 1_554
Mn1 O7 1.981836 1_555
Mn1 O10 1.981836 1_454
Mn2 O7 1.952715 1_555
Mn2 O5 1.952715 1_555
Mn2 O1 1.952715 1_455
Mn2 O0 1.952715 1_455
Mn3 O1 1.981836 1_555
Mn3 O11 1.981836 1_555
Mn3 O6 1.981836 1_555
Mn3 O7 1.981836 1_555
Mn3 O3 1.981836 1_555
Mn3 O9 1.981836 1_555
Mn4 O5 1.981836 1_545
Mn4 O8 1.981836 1_555
Mn4 O0 1.981836 1_455
Mn4 O6 1.981836 1_445
Mn4 O9 1.981836 1_555
Mn4 O2 1.981836 1_445
Mn5 O3 1.952715 1_555
Mn5 O2 1.952715 1_555
Mn5 O8 1.952715 1_554
Mn5 O11 1.952715 1_554
Mn6 O9 1.952715 1_555
Mn6 O10 1.952715 1_555
Mn6 O4 1.952715 1_545
Mn6 O6 1.952715 1_545
