# generated using pymatgen
data_CuAg10(PbO4)3
_symmetry_space_group_name_H-M   'P 1'
_cell_length_a   8.75138779
_cell_length_b   8.75138779
_cell_length_c   5.90450843
_cell_angle_alpha   70.38040887
_cell_angle_beta   70.38040887
_cell_angle_gamma   71.72834375
_symmetry_Int_Tables_number   1
_chemical_formula_structural   CuAg10(PbO4)3
_chemical_formula_sum   'Cu1 Ag10 Pb3 O12'
_cell_volume   390.81576998
_cell_formula_units_Z   1
loop_
 _symmetry_equiv_pos_site_id
 _symmetry_equiv_pos_as_xyz
  1  'x, y, z'
loop_
 _atom_site_type_symbol
 _atom_site_label
 _atom_site_symmetry_multiplicity
 _atom_site_fract_x
 _atom_site_fract_y
 _atom_site_fract_z
 _atom_site_occupancy
  Cu  Cu0  1  0.41849600  0.58150400  0.00000000  1
  Ag  Ag0  1  0.25284600  0.25424800  0.99889600  1
  Ag  Ag1  1  0.74693700  0.74632500  0.50278300  1
  Ag  Ag2  1  0.25367500  0.25306300  0.49721700  1
  Ag  Ag3  1  0.74575200  0.74715400  0.00110400  1
  Ag  Ag4  1  0.49798300  0.99674800  0.75050200  1
  Ag  Ag5  1  0.00325200  0.50201700  0.24949800  1
  Ag  Ag6  1  0.12213000  0.61055100  0.62963800  1
  Ag  Ag7  1  0.60969900  0.12117500  0.13941600  1
  Ag  Ag8  1  0.38944900  0.87787000  0.37036200  1
  Ag  Ag9  1  0.87882500  0.39030100  0.86058400  1
  Pb  Pb0  1  0.91509300  0.08490700  0.50000000  1
  Pb  Pb1  1  0.57164400  0.42835600  0.50000000  1
  Pb  Pb2  1  0.09481600  0.90518400  0.00000000  1
  O  O0  1  0.64413800  0.53694400  0.73200400  1
  O  O1  1  0.15888400  0.03541100  0.21619900  1
  O  O2  1  0.52430600  0.65822200  0.19633900  1
  O  O3  1  0.03715400  0.15461000  0.71984000  1
  O  O4  1  0.35461600  0.82892300  0.78670600  1
  O  O5  1  0.84321100  0.34879700  0.28341400  1
  O  O6  1  0.34177800  0.47569400  0.80366100  1
  O  O7  1  0.84539000  0.96284600  0.28016000  1
  O  O8  1  0.46305600  0.35586200  0.26799600  1
  O  O9  1  0.96458900  0.84111600  0.78380100  1
  O  O10  1  0.65120300  0.15678900  0.71658600  1
  O  O11  1  0.17107700  0.64538400  0.21329400  1
loop_
_geom_bond_atom_site_label_1
_geom_bond_atom_site_label_2
_geom_bond_distance
_geom_bond_site_symmetry_2
Cu0 O2 2.070160 1_555
Cu0 O6 2.070160 1_554
Cu0 O8 2.094880 1_555
Cu0 O0 2.094880 1_554
Cu0 O4 2.114116 1_554
Cu0 O11 2.114116 1_555
Ag0 O6 2.129152 1_555
Ag0 O1 2.149174 1_556
Ag1 O0 2.132904 1_555
Ag1 O7 2.156664 1_555
Ag2 O8 2.132904 1_555
Ag2 O3 2.156664 1_555
Ag3 O2 2.129152 1_555
Ag3 O9 2.149174 1_554
Ag4 O4 2.131073 1_555
Ag4 O10 2.146773 1_565
Ag5 O11 2.131073 1_555
Ag5 O5 2.146773 1_455
Ag6 O11 2.278412 1_555
Ag6 O6 2.287599 1_555
Ag6 O9 2.333887 1_455
Ag7 O8 2.276328 1_555
Ag7 O10 2.324127 1_554
Ag7 O7 2.334663 1_545
Ag8 O4 2.278412 1_555
Ag8 O2 2.287599 1_555
Ag8 O1 2.333887 1_565
Ag9 O0 2.276328 1_555
Ag9 O5 2.324127 1_556
Ag9 O3 2.334663 1_655
O0 Pb1 2.240083 1_555
O1 Pb0 2.248236 1_455
O1 Pb2 2.258564 1_545
O2 Pb1 2.233200 1_555
O3 Pb0 2.251567 1_455
O3 Pb2 2.280525 1_546
O4 Pb2 2.211532 1_556
O5 Pb0 2.238407 1_555
O5 Pb1 2.299502 1_555
O6 Pb1 2.233200 1_555
O7 Pb0 2.251567 1_565
O7 Pb2 2.280525 1_655
O8 Pb1 2.240083 1_555
O9 Pb0 2.248236 1_565
O9 Pb2 2.258564 1_656
O10 Pb0 2.238407 1_555
O10 Pb1 2.299502 1_555
O11 Pb2 2.211532 1_555
