# generated using pymatgen
data_Na2LiNiF6
_symmetry_space_group_name_H-M   'P 1'
_cell_length_a   5.47236500
_cell_length_b   5.47236516
_cell_length_c   5.47236508
_cell_angle_alpha   59.99999266
_cell_angle_beta   59.99999444
_cell_angle_gamma   59.99999490
_symmetry_Int_Tables_number   1
_chemical_formula_structural   Na2LiNiF6
_chemical_formula_sum   'Na2 Li1 Ni1 F6'
_cell_volume   115.88043895
_cell_formula_units_Z   1
loop_
 _symmetry_equiv_pos_site_id
 _symmetry_equiv_pos_as_xyz
  1  'x, y, z'
loop_
 _atom_site_type_symbol
 _atom_site_label
 _atom_site_symmetry_multiplicity
 _atom_site_fract_x
 _atom_site_fract_y
 _atom_site_fract_z
 _atom_site_occupancy
  Na  Na0  1  0.25000000  0.25000000  0.25000000  1
  Na  Na1  1  0.75000000  0.75000000  0.75000000  1
  Li  Li0  1  0.50000000  0.50000000  0.50000000  1
  Ni  Ni0  1  0.00000000  0.00000000  0.00000000  1
  F  F0  1  0.24330400  0.75669600  0.24330400  1
  F  F1  1  0.75669600  0.75669600  0.24330400  1
  F  F2  1  0.75669600  0.24330400  0.75669600  1
  F  F3  1  0.75669600  0.24330400  0.24330400  1
  F  F4  1  0.24330400  0.75669600  0.75669600  1
  F  F5  1  0.24330400  0.24330400  0.75669600  1
loop_
_geom_bond_atom_site_label_1
_geom_bond_atom_site_label_2
_geom_bond_distance
_geom_bond_site_symmetry_2
F0 Ni0 1.882952 1_565
F0 Li0 1.986594 1_555
F0 Na1 2.736673 1_455
F0 Na1 2.736673 1_554
F0 Na0 2.736673 1_555
F0 Na0 2.736673 1_565
F1 Ni0 1.882952 1_665
F1 Li0 1.986594 1_555
F1 Na0 2.736673 1_565
F1 Na0 2.736673 1_655
F1 Na1 2.736673 1_555
F1 Na1 2.736673 1_554
F2 Ni0 1.882952 1_656
F2 Li0 1.986594 1_555
F2 Na0 2.736673 1_655
F2 Na0 2.736673 1_556
F2 Na1 2.736673 1_555
F2 Na1 2.736673 1_545
F3 Ni0 1.882952 1_655
F3 Li0 1.986594 1_555
F3 Na1 2.736673 1_545
F3 Na1 2.736673 1_554
F3 Na0 2.736673 1_555
F3 Na0 2.736673 1_655
F4 Ni0 1.882952 1_566
F4 Li0 1.986594 1_555
F4 Na0 2.736673 1_565
F4 Na0 2.736673 1_556
F4 Na1 2.736673 1_555
F4 Na1 2.736673 1_455
F5 Ni0 1.882952 1_556
F5 Li0 1.986594 1_555
F5 Na1 2.736673 1_545
F5 Na1 2.736673 1_455
F5 Na0 2.736673 1_555
F5 Na0 2.736673 1_556
