# generated using pymatgen
data_Ca2AlBiO5
_symmetry_space_group_name_H-M   'P 1'
_cell_length_a   5.67084277
_cell_length_b   6.01830721
_cell_length_c   8.75300818
_cell_angle_alpha   110.00923785
_cell_angle_beta   107.61252839
_cell_angle_gamma   89.98814357
_symmetry_Int_Tables_number   1
_chemical_formula_structural   Ca2AlBiO5
_chemical_formula_sum   'Ca4 Al2 Bi2 O10'
_cell_volume   265.75377326
_cell_formula_units_Z   2
loop_
 _symmetry_equiv_pos_site_id
 _symmetry_equiv_pos_as_xyz
  1  'x, y, z'
loop_
 _atom_site_type_symbol
 _atom_site_label
 _atom_site_symmetry_multiplicity
 _atom_site_fract_x
 _atom_site_fract_y
 _atom_site_fract_z
 _atom_site_occupancy
  Ca  Ca0  1  0.16192000  0.63048200  0.23986600  1
  Ca  Ca1  1  0.41599100  0.88433600  0.71165800  1
  Ca  Ca2  1  0.91721800  0.32495700  0.71195400  1
  Ca  Ca3  1  0.66045900  0.10995600  0.24031900  1
  Al  Al0  1  0.27682200  0.30771700  0.48473800  1
  Al  Al1  1  0.77689800  0.67521800  0.48452000  1
  Bi  Bi0  1  0.51863000  0.49959300  0.00812200  1
  Bi  Bi1  1  0.01703600  0.00952700  0.00836700  1
  O  O0  1  0.58621500  0.43946800  0.50598900  1
  O  O1  1  0.08672400  0.56471700  0.50764000  1
  O  O2  1  0.63525300  0.74982300  0.29840500  1
  O  O3  1  0.28848300  0.22534000  0.66336300  1
  O  O4  1  0.13530200  0.04792800  0.29851700  1
  O  O5  1  0.78802400  0.93504600  0.66282400  1
  O  O6  1  0.11389400  0.61033200  0.96586600  1
  O  O7  1  0.35014100  0.29549300  0.12607000  1
  O  O8  1  0.85154000  0.33281300  0.12919200  1
  O  O9  1  0.61308200  0.85761900  0.96673100  1
loop_
_geom_bond_atom_site_label_1
_geom_bond_atom_site_label_2
_geom_bond_distance
_geom_bond_site_symmetry_2
Ca0 O8 2.242234 1_455
Ca0 O6 2.290533 1_554
Ca0 O7 2.337560 1_555
Ca0 O4 2.400454 1_565
Ca0 O2 2.626776 1_555
Ca0 O1 2.659280 1_555
Ca1 O9 2.235017 1_555
Ca1 O3 2.306827 1_565
Ca1 O5 2.315626 1_555
Ca1 O1 2.451220 1_555
Ca2 O6 2.240910 1_655
Ca2 O3 2.310810 1_655
Ca2 O5 2.312511 1_545
Ca2 O0 2.459740 1_555
Ca2 O1 3.001858 1_655
Ca3 O7 2.245451 1_555
Ca3 O9 2.288053 1_544
Ca3 O8 2.334612 1_555
Ca3 O2 2.403069 1_545
Ca3 O4 2.636177 1_655
Ca3 O0 2.637000 1_555
Al0 O3 1.778368 1_555
Al0 O4 1.791733 1_555
Al0 O0 1.855748 1_555
Al0 O1 1.874166 1_555
Al1 O5 1.776317 1_555
Al1 O2 1.791423 1_555
Al1 O1 1.856509 1_655
Al1 O0 1.877152 1_555
Bi0 O7 2.225503 1_555
Bi0 O8 2.282769 1_555
Bi0 O6 2.345894 1_554
Bi0 O2 2.350776 1_555
Bi0 O9 2.390202 1_554
Bi0 O3 2.782616 1_554
Bi1 O8 2.230806 1_455
Bi1 O7 2.280759 1_555
Bi1 O9 2.341763 1_444
Bi1 O4 2.349648 1_555
Bi1 O6 2.392376 1_544
Bi1 O5 2.780431 1_444
