# generated using pymatgen
data_Sr10Mg2Fe3(MoO6)5
_symmetry_space_group_name_H-M   'P 1'
_cell_length_a   7.93815771
_cell_length_b   9.79048979
_cell_length_c   9.85691660
_cell_angle_alpha   81.19636756
_cell_angle_beta   66.30850153
_cell_angle_gamma   66.09301412
_symmetry_Int_Tables_number   1
_chemical_formula_structural   Sr10Mg2Fe3(MoO6)5
_chemical_formula_sum   'Sr10 Mg2 Fe3 Mo5 O30'
_cell_volume   641.27258849
_cell_formula_units_Z   1
loop_
 _symmetry_equiv_pos_site_id
 _symmetry_equiv_pos_as_xyz
  1  'x, y, z'
loop_
 _atom_site_type_symbol
 _atom_site_label
 _atom_site_symmetry_multiplicity
 _atom_site_fract_x
 _atom_site_fract_y
 _atom_site_fract_z
 _atom_site_occupancy
  Sr  Sr0  1  0.75004300  0.49491100  0.49837000  1
  Sr  Sr1  1  0.14789300  0.30112700  0.89934200  1
  Sr  Sr2  1  0.54637100  0.10068600  0.29981200  1
  Sr  Sr3  1  0.94363100  0.90307800  0.70186000  1
  Sr  Sr4  1  0.36213100  0.70123300  0.09980400  1
  Sr  Sr5  1  0.25636900  0.49692200  0.49814000  1
  Sr  Sr6  1  0.65362900  0.29931400  0.90018800  1
  Sr  Sr7  1  0.05210700  0.09887300  0.30065800  1
  Sr  Sr8  1  0.44995700  0.90508900  0.70163000  1
  Sr  Sr9  1  0.83786900  0.69876700  0.10019600  1
  Mg  Mg0  1  0.80022800  0.59900400  0.79950100  1
  Mg  Mg1  1  0.39977200  0.80099600  0.40049900  1
  Fe  Fe0  1  0.99773700  0.00234700  0.00015700  1
  Fe  Fe1  1  0.60000000  0.20000000  0.60000000  1
  Fe  Fe2  1  0.20226300  0.39765300  0.19984300  1
  Mo  Mo0  1  0.70057900  0.39991800  0.20064300  1
  Mo  Mo1  1  0.10000000  0.20000000  0.60000000  1
  Mo  Mo2  1  0.49942100  0.00008200  0.99935700  1
  Mo  Mo3  1  0.90228900  0.79618500  0.39814100  1
  Mo  Mo4  1  0.29771100  0.60381500  0.80185900  1
  O  O0  1  0.34163400  0.70360000  0.61358600  1
  O  O1  1  0.75383300  0.49461100  0.00181900  1
  O  O2  1  0.14771900  0.30281300  0.39897500  1
  O  O3  1  0.55099600  0.09955900  0.79760200  1
  O  O4  1  0.95391800  0.89280000  0.20264700  1
  O  O5  1  0.64900400  0.30044100  0.40239800  1
  O  O6  1  0.05228100  0.09718700  0.80102500  1
  O  O7  1  0.44616700  0.90538900  0.19818100  1
  O  O8  1  0.85836600  0.69640000  0.58641400  1
  O  O9  1  0.24608200  0.50720000  0.99735300  1
  O  O10  1  0.19218300  0.79626800  0.90275300  1
  O  O11  1  0.79638000  0.99148800  0.49530600  1
  O  O12  1  0.38749700  0.20704200  0.09534800  1
  O  O13  1  0.99372900  0.39129700  0.69536900  1
  O  O14  1  0.58590300  0.59611300  0.30283600  1
  O  O15  1  0.00781700  0.60373200  0.29724700  1
  O  O16  1  0.61409700  0.80388700  0.89716400  1
  O  O17  1  0.20627100  0.00870300  0.50463100  1
  O  O18  1  0.81250300  0.19295800  0.10465200  1
  O  O19  1  0.40362000  0.40851200  0.70469400  1
  O  O20  1  0.63710900  0.83179400  0.41525700  1
  O  O21  1  0.23270700  0.03176200  0.01587100  1
  O  O22  1  0.82501000  0.23045900  0.61697800  1
  O  O23  1  0.43419000  0.42971000  0.21410700  1
  O  O24  1  0.03665700  0.63140100  0.81485600  1
  O  O25  1  0.56289100  0.56820600  0.78474300  1
  O  O26  1  0.16334300  0.76859900  0.38514400  1
  O  O27  1  0.76581000  0.97029000  0.98589300  1
  O  O28  1  0.37499000  0.16954100  0.58302200  1
  O  O29  1  0.96729300  0.36823800  0.18412900  1
loop_
_geom_bond_atom_site_label_1
_geom_bond_atom_site_label_2
_geom_bond_distance
_geom_bond_site_symmetry_2
Mg0 O16 2.044341 1_555
Mg0 O1 2.061108 1_556
Mg0 O25 2.087034 1_555
Mg0 O24 2.090787 1_655
Mg0 O13 2.094871 1_555
Mg0 O8 2.120965 1_555
Mg1 O14 2.044341 1_555
Mg1 O7 2.061108 1_555
Mg1 O20 2.087034 1_555
Mg1 O26 2.090787 1_555
Mg1 O17 2.094871 1_565
Mg1 O0 2.120965 1_555
Fe0 O18 1.962859 1_555
Fe0 O6 1.996832 1_654
Fe0 O27 2.048825 1_544
Fe0 O10 2.062270 1_644
Fe0 O21 2.065722 1_655
Fe0 O4 2.084276 1_545
Fe1 O28 1.998631 1_555
Fe1 O22 1.998631 1_555
Fe1 O5 2.006719 1_555
Fe1 O3 2.006719 1_555
Fe1 O11 2.106004 1_545
Fe1 O19 2.106004 1_555
Fe2 O12 1.962859 1_555
Fe2 O2 1.996832 1_555
Fe2 O23 2.048825 1_555
Fe2 O15 2.062270 1_555
Fe2 O29 2.065722 1_455
Fe2 O9 2.084276 1_554
Mo0 O29 1.952322 1_555
Mo0 O23 1.964888 1_555
Mo0 O14 1.992768 1_555
Mo0 O1 1.993666 1_555
Mo0 O5 2.036426 1_555
Mo0 O18 2.059717 1_555
Mo1 O17 1.929797 1_555
Mo1 O13 1.929797 1_455
Mo1 O28 2.018945 1_555
Mo1 O22 2.018945 1_455
Mo1 O2 2.044097 1_555
Mo1 O6 2.044097 1_555
Mo2 O21 1.952322 1_556
Mo2 O27 1.964888 1_545
Mo2 O16 1.992768 1_545
Mo2 O7 1.993666 1_546
Mo2 O3 2.036426 1_555
Mo2 O12 2.059717 1_556
Mo3 O20 1.928468 1_555
Mo3 O8 1.929012 1_555
Mo3 O26 1.930634 1_655
Mo3 O15 1.966165 1_655
Mo3 O11 1.972515 1_555
Mo3 O4 1.974217 1_555
Mo4 O25 1.928468 1_555
Mo4 O0 1.929012 1_555
Mo4 O24 1.930634 1_555
Mo4 O10 1.966165 1_555
Mo4 O19 1.972515 1_555
Mo4 O9 1.974217 1_555
O0 Sr3 2.804110 1_455
O0 Sr8 2.807592 1_555
O0 Sr5 2.877731 1_555
O0 Sr0 2.890950 1_555
O1 Sr9 2.752144 1_555
O1 Sr1 2.763606 1_654
O1 Sr6 2.784167 1_554
O1 Sr4 2.789247 1_555
O2 Sr0 2.780104 1_455
O2 Sr5 2.808110 1_555
O2 Sr7 2.813107 1_555
O2 Sr2 2.813641 1_555
O3 Sr8 2.749914 1_545
O3 Sr3 2.763672 1_545
O3 Sr1 2.836949 1_555
O3 Sr6 2.840739 1_555
O4 Sr4 2.839373 1_655
O4 Sr7 2.843890 1_665
O4 Sr9 2.868872 1_555
O4 Sr2 2.880265 1_565
O5 Sr0 2.749914 1_555
O5 Sr5 2.763672 1_555
O5 Sr7 2.836949 1_655
O5 Sr2 2.840739 1_555
O6 Sr8 2.780104 1_545
O6 Sr3 2.808110 1_445
O6 Sr1 2.813107 1_555
O6 Sr6 2.813641 1_455
O7 Sr4 2.752144 1_555
O7 Sr7 2.763606 1_565
O7 Sr2 2.784167 1_565
O7 Sr9 2.789247 1_555
O8 Sr5 2.804110 1_655
O8 Sr0 2.807592 1_555
O8 Sr3 2.877731 1_555
O8 Sr8 2.890950 1_555
O9 Sr9 2.839373 1_456
O9 Sr1 2.843890 1_555
O9 Sr4 2.868872 1_556
O9 Sr6 2.880265 1_555
O10 Sr4 2.644525 1_556
O10 Sr8 2.666993 1_555
O10 Sr3 3.121090 1_455
O10 Sr9 3.133384 1_456
O11 Sr3 2.610330 1_555
O11 Sr7 2.624841 1_665
O11 Sr8 3.046018 1_555
O11 Sr2 3.085103 1_565
O12 Sr6 2.593978 1_554
O12 Sr2 2.659404 1_555
O12 Sr1 3.031033 1_554
O12 Sr7 3.099133 1_555
O13 Sr1 2.622522 1_655
O13 Sr5 2.659024 1_655
O13 Sr6 3.034722 1_555
O13 Sr0 3.060526 1_555
O14 Sr0 2.604112 1_555
O14 Sr9 2.608555 1_555
O14 Sr5 2.988609 1_555
O14 Sr4 2.994043 1_555
O15 Sr9 2.644525 1_455
O15 Sr0 2.666993 1_455
O15 Sr5 3.121090 1_555
O15 Sr4 3.133384 1_555
O16 Sr8 2.604112 1_555
O16 Sr4 2.608555 1_556
O16 Sr3 2.988609 1_555
O16 Sr9 2.994043 1_556
O17 Sr7 2.622522 1_555
O17 Sr3 2.659024 1_445
O17 Sr2 3.034722 1_555
O17 Sr8 3.060526 1_545
O18 Sr2 2.593978 1_555
O18 Sr6 2.659404 1_554
O18 Sr7 3.031033 1_655
O18 Sr1 3.099133 1_654
O19 Sr5 2.610330 1_555
O19 Sr1 2.624841 1_555
O19 Sr0 3.046018 1_555
O19 Sr6 3.085103 1_555
O20 Sr2 2.636098 1_565
O20 Sr8 2.660056 1_555
O20 Sr9 3.075521 1_555
O20 Sr0 3.117671 1_555
O21 Sr7 2.633241 1_555
O21 Sr1 2.642474 1_554
O21 Sr8 3.042362 1_544
O21 Sr4 3.062817 1_545
O22 Sr0 2.609258 1_555
O22 Sr6 2.622761 1_555
O22 Sr3 3.037461 1_545
O22 Sr7 3.075914 1_655
O23 Sr5 2.626593 1_555
O23 Sr4 2.651801 1_555
O23 Sr6 3.051863 1_554
O23 Sr2 3.054511 1_555
O24 Sr9 2.644475 1_456
O24 Sr3 2.650061 1_455
O24 Sr1 3.062925 1_555
O24 Sr5 3.089119 1_555
O25 Sr6 2.636098 1_555
O25 Sr0 2.660056 1_555
O25 Sr4 3.075521 1_556
O25 Sr8 3.117671 1_555
O26 Sr4 2.644475 1_555
O26 Sr5 2.650061 1_555
O26 Sr7 3.062925 1_565
O26 Sr3 3.089119 1_455
O27 Sr3 2.626593 1_555
O27 Sr9 2.651801 1_556
O27 Sr2 3.051863 1_566
O27 Sr6 3.054511 1_565
O28 Sr8 2.609258 1_545
O28 Sr2 2.622761 1_555
O28 Sr5 3.037461 1_555
O28 Sr1 3.075914 1_555
O29 Sr1 2.633241 1_654
O29 Sr7 2.642474 1_655
O29 Sr0 3.042362 1_555
O29 Sr9 3.062817 1_555
