# generated using pymatgen
data_Yb(Ga2Cu)4
_symmetry_space_group_name_H-M   'P 1'
_cell_length_a   6.80922489
_cell_length_b   6.80922489
_cell_length_c   6.80922489
_cell_angle_alpha   98.41515724
_cell_angle_beta   98.41515724
_cell_angle_gamma   135.01651277
_symmetry_Int_Tables_number   1
_chemical_formula_structural   Yb(Ga2Cu)4
_chemical_formula_sum   'Yb1 Ga8 Cu4'
_cell_volume   206.20258179
_cell_formula_units_Z   1
loop_
 _symmetry_equiv_pos_site_id
 _symmetry_equiv_pos_as_xyz
  1  'x, y, z'
loop_
 _atom_site_type_symbol
 _atom_site_label
 _atom_site_symmetry_multiplicity
 _atom_site_fract_x
 _atom_site_fract_y
 _atom_site_fract_z
 _atom_site_occupancy
  Yb  Yb0  1  0.00000000  0.00000000  0.00000000  1
  Ga  Ga0  1  0.00000000  0.34582900  0.34582900  1
  Ga  Ga1  1  0.00000000  0.65417100  0.65417100  1
  Ga  Ga2  1  0.65417100  0.00000000  0.65417100  1
  Ga  Ga3  1  0.34582900  0.00000000  0.34582900  1
  Ga  Ga4  1  0.50000000  0.28398500  0.78398500  1
  Ga  Ga5  1  0.50000000  0.71601500  0.21601500  1
  Ga  Ga6  1  0.71601500  0.50000000  0.21601500  1
  Ga  Ga7  1  0.28398500  0.50000000  0.78398500  1
  Cu  Cu0  1  0.00000000  0.00000000  0.50000000  1
  Cu  Cu1  1  0.50000000  0.50000000  0.50000000  1
  Cu  Cu2  1  0.50000000  0.00000000  0.00000000  1
  Cu  Cu3  1  0.00000000  0.50000000  0.00000000  1
loop_
_geom_bond_atom_site_label_1
_geom_bond_atom_site_label_2
_geom_bond_distance
_geom_bond_site_symmetry_2
Ga0 Ga1 2.743384 1_555
Ga0 Ga5 2.849445 1_555
Ga0 Ga5 2.849445 1_445
Ga0 Ga6 2.875000 1_455
Ga0 Ga7 2.875000 1_555
Ga0 Yb0 3.076914 1_555
Ga1 Ga4 2.849445 1_565
Ga1 Ga4 2.849445 1_455
Ga1 Ga7 2.875000 1_555
Ga1 Ga6 2.875000 1_455
Ga1 Yb0 3.076914 1_566
Ga2 Ga3 2.743384 1_555
Ga2 Ga7 2.849445 1_655
Ga2 Ga7 2.849445 1_545
Ga2 Ga4 2.875000 1_555
Ga2 Ga5 2.875000 1_545
Ga2 Yb0 3.076914 1_656
Ga3 Ga6 2.849445 1_445
Ga3 Ga6 2.849445 1_555
Ga3 Ga4 2.875000 1_555
Ga3 Ga5 2.875000 1_545
Ga3 Yb0 3.076914 1_555
Ga4 Ga6 2.718021 1_556
Ga4 Ga7 2.718021 1_555
Ga4 Yb0 3.237155 1_556
Ga4 Yb0 3.237155 1_666
Ga5 Ga6 2.718021 1_555
Ga5 Ga7 2.718021 1_554
Ga5 Yb0 3.237155 1_555
Ga5 Yb0 3.237155 1_665
Ga6 Yb0 3.237155 1_555
Ga6 Yb0 3.237155 1_665
Ga7 Yb0 3.237155 1_556
Ga7 Yb0 3.237155 1_666
Cu0 Ga5 2.595244 1_445
Cu0 Ga6 2.595244 1_445
Cu0 Ga4 2.595244 1_555
Cu0 Ga7 2.595244 1_555
Cu0 Cu1 2.604871 1_445
Cu0 Cu1 2.604871 1_555
Cu0 Ga3 2.714923 1_555
Cu0 Ga0 2.714923 1_555
Cu0 Ga2 2.714923 1_455
Cu0 Ga1 2.714923 1_545
Cu0 Yb0 3.404612 1_555
Cu0 Yb0 3.404612 1_556
Cu1 Ga6 2.595244 1_555
Cu1 Ga5 2.595244 1_555
Cu1 Ga4 2.595244 1_555
Cu1 Ga7 2.595244 1_555
Cu1 Ga3 2.714923 1_555
Cu1 Ga0 2.714923 1_555
Cu1 Ga2 2.714923 1_565
Cu1 Ga1 2.714923 1_655
Cu1 Yb0 3.404612 1_666
Cu1 Yb0 3.404612 1_555
Cu2 Ga7 2.595244 1_544
Cu2 Ga4 2.595244 1_554
Cu2 Ga5 2.595244 1_545
Cu2 Ga6 2.595244 1_555
Cu2 Cu3 2.604871 1_655
Cu2 Cu3 2.604871 1_545
Cu2 Ga3 2.714923 1_555
Cu2 Ga1 2.714923 1_544
Cu2 Ga2 2.714923 1_554
Cu2 Ga0 2.714923 1_655
Cu2 Yb0 3.404612 1_655
Cu2 Yb0 3.404612 1_555
Cu3 Ga4 2.595244 1_454
Cu3 Ga5 2.595244 1_555
Cu3 Ga7 2.595244 1_554
Cu3 Ga6 2.595244 1_455
Cu3 Ga3 2.714923 1_565
Cu3 Ga0 2.714923 1_555
Cu3 Ga2 2.714923 1_454
Cu3 Ga1 2.714923 1_554
Cu3 Yb0 3.404612 1_565
Cu3 Yb0 3.404612 1_555
