# generated using pymatgen
data_Ba2Mn3AlO7
_symmetry_space_group_name_H-M   'P 1'
_cell_length_a   3.82125800
_cell_length_b   4.00489900
_cell_length_c   11.71632200
_cell_angle_alpha   90.00000000
_cell_angle_beta   90.00000000
_cell_angle_gamma   90.00000000
_symmetry_Int_Tables_number   1
_chemical_formula_structural   Ba2Mn3AlO7
_chemical_formula_sum   'Ba2 Mn3 Al1 O7'
_cell_volume   179.30369026
_cell_formula_units_Z   1
loop_
 _symmetry_equiv_pos_site_id
 _symmetry_equiv_pos_as_xyz
  1  'x, y, z'
loop_
 _atom_site_type_symbol
 _atom_site_label
 _atom_site_symmetry_multiplicity
 _atom_site_fract_x
 _atom_site_fract_y
 _atom_site_fract_z
 _atom_site_occupancy
  Ba  Ba0  1  0.50000000  0.00000000  0.31655700  1
  Ba  Ba1  1  0.50000000  0.00000000  0.68344300  1
  Mn  Mn0  1  0.00000000  0.50000000  0.14455700  1
  Mn  Mn1  1  0.00000000  0.50000000  0.85544300  1
  Mn  Mn2  1  0.00000000  0.50000000  0.50000000  1
  Al  Al0  1  0.50000000  0.00000000  0.00000000  1
  O  O0  1  0.00000000  0.00000000  0.50000000  1
  O  O1  1  0.50000000  0.50000000  0.10701800  1
  O  O2  1  0.50000000  0.50000000  0.89298200  1
  O  O3  1  0.00000000  0.00000000  0.10669700  1
  O  O4  1  0.00000000  0.00000000  0.89330300  1
  O  O5  1  0.00000000  0.50000000  0.32885400  1
  O  O6  1  0.00000000  0.50000000  0.67114600  1
loop_
_geom_bond_atom_site_label_1
_geom_bond_atom_site_label_2
_geom_bond_distance
_geom_bond_site_symmetry_2
Ba0 O5 2.771473 1_645
Ba0 O5 2.771473 1_555
Ba0 O5 2.771473 1_655
Ba0 O5 2.771473 1_545
Ba0 O0 2.875743 1_555
Ba0 O0 2.875743 1_655
Ba0 O3 3.113862 1_655
Ba0 O3 3.113862 1_555
Ba0 O1 3.168116 1_555
Ba0 O1 3.168116 1_545
Ba1 O6 2.771473 1_555
Ba1 O6 2.771473 1_655
Ba1 O6 2.771473 1_545
Ba1 O6 2.771473 1_645
Ba1 O0 2.875743 1_555
Ba1 O0 2.875743 1_655
Ba1 O4 3.113862 1_655
Ba1 O4 3.113862 1_555
Ba1 O2 3.168116 1_555
Ba1 O2 3.168116 1_545
Mn0 O1 1.960598 1_455
Mn0 O1 1.960598 1_555
Mn0 O3 2.050992 1_555
Mn0 O3 2.050992 1_565
Mn0 O5 2.159283 1_555
Mn1 O2 1.960598 1_455
Mn1 O2 1.960598 1_555
Mn1 O4 2.050992 1_565
Mn1 O4 2.050992 1_555
Mn1 O6 2.159283 1_555
Mn2 O0 2.002449 1_555
Mn2 O0 2.002449 1_565
Mn2 O5 2.005202 1_555
Mn2 O6 2.005202 1_555
Al0 O4 2.283253 1_554
Al0 O4 2.283253 1_654
Al0 O3 2.283253 1_555
Al0 O3 2.283253 1_655
Al0 O1 2.362618 1_555
Al0 O1 2.362618 1_545
Al0 O2 2.362618 1_544
Al0 O2 2.362618 1_554
