# generated using pymatgen
data_AgMo5P8O33
_symmetry_space_group_name_H-M   'P 1'
_cell_length_a   4.97733050
_cell_length_b   16.71629735
_cell_length_c   16.85504535
_cell_angle_alpha   90.99392813
_cell_angle_beta   81.50917372
_cell_angle_gamma   98.56182859
_symmetry_Int_Tables_number   1
_chemical_formula_structural   AgMo5P8O33
_chemical_formula_sum   'Ag2 Mo10 P16 O66'
_cell_volume   1371.53917605
_cell_formula_units_Z   2
loop_
 _symmetry_equiv_pos_site_id
 _symmetry_equiv_pos_as_xyz
  1  'x, y, z'
loop_
 _atom_site_type_symbol
 _atom_site_label
 _atom_site_symmetry_multiplicity
 _atom_site_fract_x
 _atom_site_fract_y
 _atom_site_fract_z
 _atom_site_occupancy
  Ag  Ag0  1  0.08256779  0.73793977  0.25176495  1
  Ag  Ag1  1  0.40360704  0.23793977  0.75176495  1
  Mo  Mo0  1  0.54798989  0.95959771  0.14871253  1
  Mo  Mo1  1  0.73377586  0.53960175  0.35126404  1
  Mo  Mo2  1  0.45456185  0.03960175  0.85126404  1
  Mo  Mo3  1  0.26289529  0.45959771  0.64871253  1
  Mo  Mo4  1  0.58879210  0.85185598  0.46018998  1
  Mo  Mo5  1  0.19822720  0.64747008  0.03886541  1
  Mo  Mo6  1  0.41037746  0.14747008  0.53886541  1
  Mo  Mo7  1  0.80287390  0.35185598  0.96018998  1
  Mo  Mo8  1  0.00756885  0.24981663  0.24994921  1
  Mo  Mo9  1  0.99229856  0.74981663  0.74994921  1
  P  P0  1  0.99854752  0.74631750  0.54872889  1
  P  P1  1  0.80121840  0.75361113  0.95130481  1
  P  P2  1  0.00108792  0.25361113  0.45130481  1
  P  P3  1  0.19904110  0.24631750  0.04872889  1
  P  P4  1  0.00899362  0.83644878  0.08818772  1
  P  P5  1  0.26381317  0.66479694  0.41265586  1
  P  P6  1  0.98832791  0.16479694  0.91265586  1
  P  P7  1  0.73926744  0.33644878  0.58818772  1
  P  P8  1  0.04851912  0.04909064  0.25254195  1
  P  P9  1  0.25166183  0.45073610  0.24714462  1
  P  P10  1  0.95192965  0.95073610  0.74714462  1
  P  P11  1  0.74802957  0.54909064  0.75254195  1
  P  P12  1  0.17915060  0.91354370  0.33641364  1
  P  P13  1  0.60217207  0.58697667  0.16395033  1
  P  P14  1  0.82085427  0.08697667  0.66395033  1
  P  P15  1  0.39797947  0.41354370  0.83641364  1
  O  O0  1  0.28983991  0.88703170  0.25167862  1
  O  O1  1  0.66091573  0.61200295  0.24832930  1
  O  O2  1  0.70275791  0.11200295  0.74832930  1
  O  O3  1  0.34551317  0.38703170  0.75167862  1
  O  O4  1  0.73934504  0.01398668  0.07137247  1
  O  O5  1  0.79929737  0.48659510  0.42876024  1
  O  O6  1  0.25853749  0.98659510  0.92876024  1
  O  O7  1  0.20326917  0.51398668  0.57137247  1
  O  O8  1  0.91005351  0.85769208  0.36643644  1
  O  O9  1  0.41525337  0.64186934  0.13426500  1
  O  O10  1  0.09235097  0.14186934  0.63426500  1
  O  O11  1  0.58120213  0.35769208  0.86643644  1
  O  O12  1  0.93388025  0.71820397  0.63674964  1
  O  O13  1  0.85246974  0.78168083  0.86334399  1
  O  O14  1  0.06586710  0.28168083  0.36334399  1
  O  O15  1  0.14757407  0.21820397  0.13674964  1
  O  O16  1  0.66736265  0.24998168  0.25002157  1
  O  O17  1  0.33259746  0.74998168  0.75002157  1
  O  O18  1  0.76233785  0.01215287  0.23683713  1
  O  O19  1  0.98710779  0.48784058  0.26334683  1
  O  O20  1  0.23738595  0.98784058  0.76334683  1
  O  O21  1  0.01297789  0.51215287  0.73683713  1
  O  O22  1  0.38714741  0.91992943  0.39449654  1
  O  O23  1  0.86115660  0.58092936  0.10517529  1
  O  O24  1  0.61459746  0.08092936  0.60517529  1
  O  O25  1  0.13828549  0.41992943  0.89449654  1
  O  O26  1  0.41014952  0.74940775  0.38898870  1
  O  O27  1  0.05054190  0.75139672  0.11243987  1
  O  O28  1  0.58841495  0.25139672  0.61243987  1
  O  O29  1  0.95026953  0.24940775  0.88898870  1
  O  O30  1  0.22948206  0.81794875  0.53736984  1
  O  O31  1  0.94870358  0.68184660  0.96290216  1
  O  O32  1  0.77024087  0.18184660  0.46290216  1
  O  O33  1  0.05109685  0.31794875  0.03736984  1
  O  O34  1  0.10997458  0.00481977  0.33064104  1
  O  O35  1  0.43569543  0.49540443  0.16950433  1
  O  O36  1  0.89020467  0.99540443  0.66950433  1
  O  O37  1  0.56420414  0.50481977  0.83064104  1
  O  O38  1  0.76377580  0.86275795  0.14289854  1
  O  O39  1  0.04592327  0.63873809  0.35619205  1
  O  O40  1  0.23662277  0.13873809  0.85619205  1
  O  O41  1  0.95608361  0.36275795  0.64289854  1
  O  O42  1  0.05134799  0.13721977  0.28061331  1
  O  O43  1  0.19483395  0.36265227  0.21936629  1
  O  O44  1  0.94845203  0.86265227  0.71936629  1
  O  O45  1  0.80525847  0.63721977  0.78061331  1
  O  O46  1  0.74057561  0.76131213  0.51618695  1
  O  O47  1  0.49536167  0.73837344  0.98369059  1
  O  O48  1  0.25932119  0.23837344  0.48369059  1
  O  O49  1  0.50454957  0.26131213  0.01618695  1
  O  O50  1  0.27705003  0.04086851  0.18333341  1
  O  O51  1  0.41849780  0.45880968  0.31675038  1
  O  O52  1  0.72356150  0.95880968  0.81675038  1
  O  O53  1  0.58048507  0.54086851  0.68333341  1
  O  O54  1  0.09966493  0.66799853  0.50270706  1
  O  O55  1  0.93634052  0.83106084  0.99750214  1
  O  O56  1  0.89721818  0.33106084  0.49750214  1
  O  O57  1  0.06562654  0.16799853  0.00270706  1
  O  O58  1  0.27002551  0.89733323  0.08272636  1
  O  O59  1  0.45274904  0.60207981  0.41700328  1
  O  O60  1  0.73232749  0.10207981  0.91700328  1
  O  O61  1  0.54458136  0.39733323  0.58272636  1
  O  O62  1  0.71712039  0.92933699  0.51595498  1
  O  O63  1  0.30477625  0.56993479  0.98374175  1
  O  O64  1  0.28141679  0.06993479  0.48374175  1
  O  O65  1  0.69626162  0.42933699  0.01595498  1
loop_
_geom_bond_atom_site_label_1
_geom_bond_atom_site_label_2
_geom_bond_distance
_geom_bond_site_symmetry_2
Ag0 O27 2.393786 1_555
Ag0 O39 2.407823 1_555
Ag0 O0 2.551435 1_555
Ag0 O1 2.748798 1_455
Ag1 O28 2.393786 1_555
Ag1 O40 2.407823 1_555
Ag1 O3 2.551435 1_555
Ag1 O2 2.748798 1_555
Mo0 O4 1.688102 1_565
Mo0 O58 2.054243 1_555
Mo0 O18 2.063953 1_565
Mo0 O38 2.065136 1_555
Mo0 O50 2.071326 1_565
Mo0 O0 2.254953 1_555
Mo1 O5 1.688086 1_555
Mo1 O59 2.052367 1_555
Mo1 O51 2.058199 1_555
Mo1 O19 2.064717 1_555
Mo1 O39 2.105648 1_655
Mo1 O1 2.235116 1_555
Mo2 O6 1.688086 1_545
Mo2 O60 2.052367 1_555
Mo2 O52 2.058199 1_545
Mo2 O20 2.064717 1_545
Mo2 O40 2.105648 1_555
Mo2 O2 2.235116 1_555
Mo3 O7 1.688102 1_555
Mo3 O61 2.054243 1_555
Mo3 O21 2.063953 1_555
Mo3 O41 2.065136 1_455
Mo3 O53 2.071326 1_555
Mo3 O3 2.254953 1_555
Mo4 O62 1.690470 1_555
Mo4 O22 2.059175 1_555
Mo4 O30 2.061228 1_555
Mo4 O8 2.067902 1_555
Mo4 O46 2.086387 1_555
Mo4 O26 2.225782 1_555
Mo5 O63 1.685753 1_554
Mo5 O31 2.054173 1_454
Mo5 O23 2.057881 1_455
Mo5 O9 2.075916 1_555
Mo5 O47 2.082045 1_554
Mo5 O27 2.265525 1_555
Mo6 O64 1.685753 1_555
Mo6 O32 2.054174 1_555
Mo6 O24 2.057881 1_555
Mo6 O10 2.075916 1_555
Mo6 O48 2.082045 1_555
Mo6 O28 2.265525 1_555
Mo7 O65 1.690470 1_556
Mo7 O25 2.059175 1_655
Mo7 O33 2.061228 1_656
Mo7 O11 2.067902 1_555
Mo7 O49 2.086387 1_556
Mo7 O29 2.225782 1_555
Mo8 O16 1.693552 1_455
Mo8 O42 2.011572 1_555
Mo8 O43 2.015091 1_555
Mo8 O15 2.021707 1_555
Mo8 O14 2.025665 1_555
Mo9 O17 1.693552 1_655
Mo9 O45 2.011572 1_555
Mo9 O44 2.015091 1_555
Mo9 O12 2.021707 1_555
Mo9 O13 2.025665 1_555
O0 P12 1.535616 1_555
O1 P13 1.532620 1_555
O2 P14 1.532620 1_555
O3 P15 1.535616 1_555
O8 P12 1.538050 1_655
O9 P13 1.538014 1_555
O10 P14 1.538014 1_455
O11 P15 1.538050 1_555
O12 P0 1.537414 1_555
O13 P1 1.536264 1_555
O14 P2 1.536264 1_555
O15 P3 1.537414 1_555
O18 P8 1.524497 1_655
O19 P9 1.524564 1_655
O20 P10 1.524564 1_455
O21 P11 1.524497 1_455
O22 P12 1.518012 1_555
O23 P13 1.520360 1_555
O24 P14 1.520360 1_555
O25 P15 1.518012 1_555
O26 P5 1.522218 1_555
O27 P4 1.537504 1_555
O28 P7 1.537504 1_555
O29 P6 1.522218 1_555
O30 P0 1.524732 1_455
O31 P1 1.526086 1_555
O32 P2 1.526086 1_655
O33 P3 1.524732 1_555
O34 P8 1.610636 1_555
O34 P12 1.620970 1_545
O35 P9 1.607910 1_555
O35 P13 1.625714 1_555
O36 P10 1.607910 1_555
O36 P14 1.625714 1_565
O37 P11 1.610636 1_555
O37 P15 1.620970 1_555
O38 P4 1.531949 1_655
O39 P5 1.556082 1_555
O40 P6 1.556082 1_455
O41 P7 1.531949 1_555
O42 P8 1.538171 1_555
O43 P9 1.535731 1_555
O44 P10 1.535731 1_555
O45 P11 1.538171 1_555
O46 P0 1.523461 1_555
O47 P1 1.524588 1_555
O48 P2 1.524588 1_555
O49 P3 1.523461 1_555
O50 P8 1.524024 1_555
O51 P9 1.527423 1_555
O52 P10 1.527423 1_555
O53 P11 1.524024 1_555
O54 P0 1.617004 1_455
O54 P5 1.618072 1_555
O55 P1 1.610967 1_555
O55 P4 1.619868 1_656
O56 P2 1.610967 1_655
O56 P7 1.619868 1_555
O57 P3 1.617004 1_555
O57 P6 1.618072 1_454
O58 P4 1.518734 1_555
O59 P5 1.518363 1_555
O60 P6 1.518363 1_555
O61 P7 1.518734 1_555
