# generated using pymatgen
data_Zr2CuGe4
_symmetry_space_group_name_H-M   'P 1'
_cell_length_a   16.88874004
_cell_length_b   16.88874004
_cell_length_c   3.81197300
_cell_angle_alpha   90.00000000
_cell_angle_beta   90.00000000
_cell_angle_gamma   166.95513701
_symmetry_Int_Tables_number   1
_chemical_formula_structural   Zr2CuGe4
_chemical_formula_sum   'Zr4 Cu2 Ge8'
_cell_volume   245.41588421
_cell_formula_units_Z   2
loop_
 _symmetry_equiv_pos_site_id
 _symmetry_equiv_pos_as_xyz
  1  'x, y, z'
loop_
 _atom_site_type_symbol
 _atom_site_label
 _atom_site_symmetry_multiplicity
 _atom_site_fract_x
 _atom_site_fract_y
 _atom_site_fract_z
 _atom_site_occupancy
  Zr  Zr0  1  0.32239000  0.67761000  0.25000000  1
  Zr  Zr1  1  0.67761000  0.32239000  0.75000000  1
  Zr  Zr2  1  0.04720300  0.95279700  0.25000000  1
  Zr  Zr3  1  0.95279700  0.04720300  0.75000000  1
  Cu  Cu0  1  0.25009400  0.74990600  0.75000000  1
  Cu  Cu1  1  0.74990600  0.25009400  0.25000000  1
  Ge  Ge0  1  0.88680100  0.11319900  0.25000000  1
  Ge  Ge1  1  0.11319900  0.88680100  0.75000000  1
  Ge  Ge2  1  0.20244000  0.79756000  0.25000000  1
  Ge  Ge3  1  0.79756000  0.20244000  0.75000000  1
  Ge  Ge4  1  0.52717600  0.47282400  0.75000000  1
  Ge  Ge5  1  0.47282400  0.52717600  0.25000000  1
  Ge  Ge6  1  0.38714800  0.61285200  0.75000000  1
  Ge  Ge7  1  0.61285200  0.38714800  0.25000000  1
loop_
_geom_bond_atom_site_label_1
_geom_bond_atom_site_label_2
_geom_bond_distance
_geom_bond_site_symmetry_2
Cu0 Ge2 2.488025 1_556
Cu0 Ge2 2.488025 1_555
Cu0 Ge3 2.493535 1_565
Cu0 Ge3 2.493535 1_455
Cu0 Cu1 2.704292 1_456
Cu0 Cu1 2.704292 1_565
Cu0 Cu1 2.704292 1_566
Cu0 Cu1 2.704292 1_455
Cu0 Zr0 3.085302 1_555
Cu0 Zr0 3.085302 1_556
Cu0 Zr1 3.097956 1_565
Cu0 Zr1 3.097956 1_455
Cu1 Ge3 2.488025 1_555
Cu1 Ge3 2.488025 1_554
Cu1 Ge2 2.493535 1_655
Cu1 Ge2 2.493535 1_545
Cu1 Zr1 3.085302 1_555
Cu1 Zr1 3.085302 1_554
Cu1 Zr0 3.097956 1_655
Cu1 Zr0 3.097956 1_545
Ge0 Ge6 2.704310 1_655
Ge0 Ge6 2.704310 1_654
Ge0 Ge6 2.704310 1_545
Ge0 Ge6 2.704310 1_544
Ge0 Zr0 2.890105 1_655
Ge0 Zr0 2.890105 1_545
Ge0 Zr3 2.921969 1_555
Ge0 Zr3 2.921969 1_554
Ge1 Ge7 2.704310 1_455
Ge1 Ge7 2.704310 1_456
Ge1 Ge7 2.704310 1_566
Ge1 Ge7 2.704310 1_565
Ge1 Zr1 2.890105 1_565
Ge1 Zr1 2.890105 1_455
Ge1 Zr2 2.921969 1_556
Ge1 Zr2 2.921969 1_555
Ge2 Zr1 2.829750 1_565
Ge2 Zr1 2.829750 1_564
Ge2 Zr1 2.829750 1_455
Ge2 Zr1 2.829750 1_454
Ge3 Zr0 2.829750 1_656
Ge3 Zr0 2.829750 1_546
Ge3 Zr0 2.829750 1_545
Ge3 Zr0 2.829750 1_655
Ge4 Ge5 2.638129 1_555
Ge4 Ge5 2.638129 1_556
Ge4 Zr2 2.786548 1_545
Ge4 Zr2 2.786548 1_546
Ge4 Zr2 2.786548 1_655
Ge4 Zr2 2.786548 1_656
Ge4 Zr3 3.148135 1_455
Ge4 Zr3 3.148135 1_565
Ge5 Zr3 2.786548 1_455
Ge5 Zr3 2.786548 1_454
Ge5 Zr3 2.786548 1_565
Ge5 Zr3 2.786548 1_564
Ge5 Zr2 3.148135 1_545
Ge5 Zr2 3.148135 1_655
Ge6 Zr0 2.890606 1_555
Ge6 Zr0 2.890606 1_556
Ge6 Zr3 2.921308 1_565
Ge6 Zr3 2.921308 1_455
Ge7 Zr1 2.890606 1_555
Ge7 Zr1 2.890606 1_554
Ge7 Zr2 2.921308 1_545
Ge7 Zr2 2.921308 1_655
