# generated using pymatgen
data_KMg14BO15
_symmetry_space_group_name_H-M   'P 1'
_cell_length_a   4.49324200
_cell_length_b   8.49023900
_cell_length_c   8.62329700
_cell_angle_alpha   90.00000000
_cell_angle_beta   90.00000000
_cell_angle_gamma   90.00000000
_symmetry_Int_Tables_number   1
_chemical_formula_structural   KMg14BO15
_chemical_formula_sum   'K1 Mg14 B1 O15'
_cell_volume   328.96755703
_cell_formula_units_Z   1
loop_
 _symmetry_equiv_pos_site_id
 _symmetry_equiv_pos_as_xyz
  1  'x, y, z'
loop_
 _atom_site_type_symbol
 _atom_site_label
 _atom_site_symmetry_multiplicity
 _atom_site_fract_x
 _atom_site_fract_y
 _atom_site_fract_z
 _atom_site_occupancy
  K  K0  1  0.00000000  0.96470800  0.00000000  1
  Mg  Mg0  1  0.00000000  0.00636800  0.50000000  1
  Mg  Mg1  1  0.00000000  0.51239300  0.00000000  1
  Mg  Mg2  1  0.50000000  0.00414700  0.25092700  1
  Mg  Mg3  1  0.50000000  0.00414700  0.74907300  1
  Mg  Mg4  1  0.50000000  0.49941700  0.26954500  1
  Mg  Mg5  1  0.50000000  0.49941700  0.73045500  1
  Mg  Mg6  1  0.50000000  0.74161600  0.00000000  1
  Mg  Mg7  1  0.50000000  0.75128200  0.50000000  1
  Mg  Mg8  1  0.50000000  0.25215700  0.00000000  1
  Mg  Mg9  1  0.50000000  0.25092500  0.50000000  1
  Mg  Mg10  1  0.00000000  0.74853300  0.27854300  1
  Mg  Mg11  1  0.00000000  0.74853300  0.72145700  1
  Mg  Mg12  1  0.00000000  0.24493800  0.24232500  1
  Mg  Mg13  1  0.00000000  0.24493800  0.75767500  1
  B  B0  1  0.00000000  0.43854500  0.50000000  1
  O  O0  1  0.00000000  0.77361000  0.50000000  1
  O  O1  1  0.00000000  0.28064300  0.00000000  1
  O  O2  1  0.00000000  0.26692400  0.50000000  1
  O  O3  1  0.50000000  0.74758900  0.25292200  1
  O  O4  1  0.50000000  0.74758900  0.74707800  1
  O  O5  1  0.50000000  0.25549200  0.24996100  1
  O  O6  1  0.50000000  0.25549200  0.75003900  1
  O  O7  1  0.50000000  0.00510300  0.00000000  1
  O  O8  1  0.50000000  0.01059100  0.50000000  1
  O  O9  1  0.50000000  0.50015500  0.00000000  1
  O  O10  1  0.50000000  0.49200800  0.50000000  1
  O  O11  1  0.00000000  0.00864500  0.27250600  1
  O  O12  1  0.00000000  0.00864500  0.72749400  1
  O  O13  1  0.00000000  0.49272500  0.33715300  1
  O  O14  1  0.00000000  0.49272500  0.66284700  1
loop_
_geom_bond_atom_site_label_1
_geom_bond_atom_site_label_2
_geom_bond_distance
_geom_bond_site_symmetry_2
K0 O7 2.272648 1_465
K0 O7 2.272648 1_565
K0 O11 2.379325 1_565
K0 O12 2.379325 1_564
K0 O1 2.682364 1_565
Mg0 O12 1.961844 1_555
Mg0 O11 1.961844 1_555
Mg0 O0 1.976171 1_545
Mg0 O2 2.212183 1_555
Mg0 O8 2.246907 1_555
Mg0 O8 2.246907 1_455
Mg1 O1 1.967613 1_555
Mg1 O9 2.249022 1_455
Mg1 O9 2.249022 1_555
Mg2 O5 2.133995 1_555
Mg2 O8 2.148527 1_555
Mg2 O7 2.163833 1_555
Mg2 O3 2.178307 1_545
Mg2 O11 2.254638 1_555
Mg2 O11 2.254638 1_655
Mg3 O6 2.133995 1_555
Mg3 O8 2.148527 1_555
Mg3 O7 2.163833 1_556
Mg3 O4 2.178307 1_545
Mg3 O12 2.254638 1_655
Mg3 O12 2.254638 1_555
Mg4 O10 1.988277 1_555
Mg4 O5 2.077856 1_555
Mg4 O3 2.111910 1_555
Mg4 O13 2.321729 1_655
Mg4 O13 2.321729 1_555
Mg4 O9 2.324375 1_555
Mg5 O10 1.988277 1_555
Mg5 O6 2.077856 1_555
Mg5 O4 2.111910 1_555
Mg5 O14 2.321729 1_555
Mg5 O14 2.321729 1_655
Mg5 O9 2.324375 1_556
Mg6 O9 2.050062 1_555
Mg6 O4 2.181611 1_554
Mg6 O3 2.181611 1_555
Mg6 O7 2.237068 1_565
Mg7 O4 2.130858 1_555
Mg7 O3 2.130858 1_555
Mg7 O10 2.201298 1_555
Mg7 O8 2.201595 1_565
Mg7 O0 2.254605 1_555
Mg7 O0 2.254605 1_655
Mg8 O7 2.097548 1_555
Mg8 O9 2.105562 1_555
Mg8 O5 2.155674 1_555
Mg8 O6 2.155674 1_554
Mg8 O1 2.259601 1_555
Mg8 O1 2.259601 1_655
Mg9 O8 2.040493 1_555
Mg9 O10 2.046852 1_555
Mg9 O5 2.156509 1_555
Mg9 O6 2.156509 1_555
Mg9 O2 2.250724 1_655
Mg9 O2 2.250724 1_555
Mg10 O0 1.921521 1_555
Mg10 O11 2.209027 1_565
Mg10 O13 2.229902 1_555
Mg10 O3 2.257473 1_455
Mg10 O3 2.257473 1_555
Mg11 O0 1.921521 1_555
Mg11 O12 2.209027 1_565
Mg11 O14 2.229902 1_555
Mg11 O4 2.257473 1_455
Mg11 O4 2.257473 1_555
Mg12 O11 2.022995 1_555
Mg12 O1 2.111514 1_555
Mg12 O2 2.229835 1_555
Mg12 O5 2.249371 1_455
Mg12 O5 2.249371 1_555
Mg12 O13 2.257107 1_555
Mg13 O12 2.022995 1_555
Mg13 O1 2.111514 1_556
Mg13 O2 2.229835 1_555
Mg13 O6 2.249371 1_455
Mg13 O6 2.249371 1_555
Mg13 O14 2.257107 1_555
B0 O2 1.457103 1_555
B0 O14 1.477700 1_555
B0 O13 1.477700 1_555
