# generated using pymatgen
data_Ho6Mn4Al43
_symmetry_space_group_name_H-M   'P 1'
_cell_length_a   10.89272426
_cell_length_b   10.89272426
_cell_length_c   17.53404800
_cell_angle_alpha   90.00000000
_cell_angle_beta   90.00000000
_cell_angle_gamma   120.00000158
_symmetry_Int_Tables_number   1
_chemical_formula_structural   Ho6Mn4Al43
_chemical_formula_sum   'Ho12 Mn8 Al86'
_cell_volume   1801.71392796
_cell_formula_units_Z   2
loop_
 _symmetry_equiv_pos_site_id
 _symmetry_equiv_pos_as_xyz
  1  'x, y, z'
loop_
 _atom_site_type_symbol
 _atom_site_label
 _atom_site_symmetry_multiplicity
 _atom_site_fract_x
 _atom_site_fract_y
 _atom_site_fract_z
 _atom_site_occupancy
  Ho  Ho0  1  0.53194600  0.00000000  0.59511000  1
  Ho  Ho1  1  0.46805400  0.00000000  0.40489000  1
  Ho  Ho2  1  0.00000000  0.53194600  0.59511000  1
  Ho  Ho3  1  0.46805400  0.00000000  0.09511000  1
  Ho  Ho4  1  0.00000000  0.53194600  0.90489000  1
  Ho  Ho5  1  0.00000000  0.46805400  0.40489000  1
  Ho  Ho6  1  0.53194600  0.00000000  0.90489000  1
  Ho  Ho7  1  0.00000000  0.46805400  0.09511000  1
  Ho  Ho8  1  0.46805400  0.46805400  0.59511000  1
  Ho  Ho9  1  0.53194600  0.53194600  0.40489000  1
  Ho  Ho10  1  0.53194600  0.53194600  0.09511000  1
  Ho  Ho11  1  0.46805400  0.46805400  0.90489000  1
  Mn  Mn0  1  0.00000000  0.00000000  0.50000000  1
  Mn  Mn1  1  0.00000000  0.00000000  0.00000000  1
  Mn  Mn2  1  0.73257800  0.00000000  0.75000000  1
  Mn  Mn3  1  0.26742200  0.00000000  0.25000000  1
  Mn  Mn4  1  0.00000000  0.73257800  0.75000000  1
  Mn  Mn5  1  0.00000000  0.26742200  0.25000000  1
  Mn  Mn6  1  0.26742200  0.26742200  0.75000000  1
  Mn  Mn7  1  0.73257800  0.73257800  0.25000000  1
  Al  Al0  1  0.14514400  0.59814000  0.75000000  1
  Al  Al1  1  0.85485600  0.40186000  0.25000000  1
  Al  Al2  1  0.40186000  0.54700300  0.75000000  1
  Al  Al3  1  0.59814000  0.14514400  0.75000000  1
  Al  Al4  1  0.59814000  0.45299700  0.25000000  1
  Al  Al5  1  0.40186000  0.85485600  0.25000000  1
  Al  Al6  1  0.45299700  0.85485600  0.75000000  1
  Al  Al7  1  0.54700300  0.40186000  0.75000000  1
  Al  Al8  1  0.54700300  0.14514400  0.25000000  1
  Al  Al9  1  0.45299700  0.59814000  0.25000000  1
  Al  Al10  1  0.85485600  0.45299700  0.75000000  1
  Al  Al11  1  0.14514400  0.54700300  0.25000000  1
  Al  Al12  1  0.15618000  0.00000000  0.11566800  1
  Al  Al13  1  0.84382000  0.00000000  0.88433200  1
  Al  Al14  1  0.00000000  0.15618000  0.11566800  1
  Al  Al15  1  0.84382000  0.00000000  0.61566800  1
  Al  Al16  1  0.00000000  0.15618000  0.38433200  1
  Al  Al17  1  0.00000000  0.84382000  0.88433200  1
  Al  Al18  1  0.15618000  0.00000000  0.38433200  1
  Al  Al19  1  0.00000000  0.84382000  0.61566800  1
  Al  Al20  1  0.84382000  0.84382000  0.11566800  1
  Al  Al21  1  0.15618000  0.15618000  0.88433200  1
  Al  Al22  1  0.15618000  0.15618000  0.61566800  1
  Al  Al23  1  0.84382000  0.84382000  0.38433200  1
  Al  Al24  1  0.24658500  0.49317100  0.50000000  1
  Al  Al25  1  0.75341500  0.50682900  0.50000000  1
  Al  Al26  1  0.50682900  0.75341500  0.50000000  1
  Al  Al27  1  0.75341500  0.50682900  0.00000000  1
  Al  Al28  1  0.49317100  0.24658500  0.00000000  1
  Al  Al29  1  0.49317100  0.24658500  0.50000000  1
  Al  Al30  1  0.24658500  0.49317100  0.00000000  1
  Al  Al31  1  0.50682900  0.75341500  0.00000000  1
  Al  Al32  1  0.24658500  0.75341500  0.50000000  1
  Al  Al33  1  0.75341500  0.24658500  0.50000000  1
  Al  Al34  1  0.75341500  0.24658500  0.00000000  1
  Al  Al35  1  0.24658500  0.75341500  0.00000000  1
  Al  Al36  1  0.14554800  0.00000000  0.75000000  1
  Al  Al37  1  0.85445200  0.00000000  0.25000000  1
  Al  Al38  1  0.00000000  0.14554800  0.75000000  1
  Al  Al39  1  0.00000000  0.85445200  0.25000000  1
  Al  Al40  1  0.85445200  0.85445200  0.75000000  1
  Al  Al41  1  0.14554800  0.14554800  0.25000000  1
  Al  Al42  1  0.33333300  0.66666700  0.62693000  1
  Al  Al43  1  0.66666700  0.33333300  0.37307000  1
  Al  Al44  1  0.66666700  0.33333300  0.12693000  1
  Al  Al45  1  0.66666700  0.33333300  0.87307000  1
  Al  Al46  1  0.33333300  0.66666700  0.87307000  1
  Al  Al47  1  0.33333300  0.66666700  0.12693000  1
  Al  Al48  1  0.33333300  0.66666700  0.37307000  1
  Al  Al49  1  0.66666700  0.33333300  0.62693000  1
  Al  Al50  1  0.25200900  0.00000000  0.53046900  1
  Al  Al51  1  0.74799100  0.00000000  0.46953100  1
  Al  Al52  1  0.00000000  0.25200900  0.53046900  1
  Al  Al53  1  0.74799100  0.00000000  0.03046900  1
  Al  Al54  1  0.00000000  0.25200900  0.96953100  1
  Al  Al55  1  0.00000000  0.74799100  0.46953100  1
  Al  Al56  1  0.25200900  0.00000000  0.96953100  1
  Al  Al57  1  0.00000000  0.74799100  0.03046900  1
  Al  Al58  1  0.74799100  0.74799100  0.53046900  1
  Al  Al59  1  0.25200900  0.25200900  0.46953100  1
  Al  Al60  1  0.25200900  0.25200900  0.03046900  1
  Al  Al61  1  0.74799100  0.74799100  0.96953100  1
  Al  Al62  1  0.15815300  0.39122400  0.66559200  1
  Al  Al63  1  0.84184700  0.60877600  0.33440800  1
  Al  Al64  1  0.60877600  0.76692900  0.66559200  1
  Al  Al65  1  0.84184700  0.60877600  0.16559200  1
  Al  Al66  1  0.39122400  0.15815300  0.83440800  1
  Al  Al67  1  0.39122400  0.23307100  0.33440800  1
  Al  Al68  1  0.15815300  0.39122400  0.83440800  1
  Al  Al69  1  0.60877600  0.84184700  0.16559200  1
  Al  Al70  1  0.23307100  0.84184700  0.66559200  1
  Al  Al71  1  0.39122400  0.23307100  0.16559200  1
  Al  Al72  1  0.76692900  0.60877600  0.83440800  1
  Al  Al73  1  0.76692900  0.15815300  0.33440800  1
  Al  Al74  1  0.60877600  0.76692900  0.83440800  1
  Al  Al75  1  0.23307100  0.39122400  0.16559200  1
  Al  Al76  1  0.60877600  0.84184700  0.33440800  1
  Al  Al77  1  0.39122400  0.15815300  0.66559200  1
  Al  Al78  1  0.76692900  0.15815300  0.16559200  1
  Al  Al79  1  0.23307100  0.39122400  0.33440800  1
  Al  Al80  1  0.23307100  0.84184700  0.83440800  1
  Al  Al81  1  0.76692900  0.60877600  0.66559200  1
  Al  Al82  1  0.84184700  0.23307100  0.83440800  1
  Al  Al83  1  0.15815300  0.76692900  0.16559200  1
  Al  Al84  1  0.15815300  0.76692900  0.33440800  1
  Al  Al85  1  0.84184700  0.23307100  0.66559200  1
loop_
_geom_bond_atom_site_label_1
_geom_bond_atom_site_label_2
_geom_bond_distance
_geom_bond_site_symmetry_2
Ho0 Ho1 3.407163 1_555
Ho0 Mn2 3.485962 1_555
Ho1 Mn3 3.485962 1_555
Ho2 Ho5 3.407163 1_555
Ho2 Mn4 3.485962 1_555
Ho3 Ho6 3.407163 1_554
Ho3 Mn3 3.485962 1_555
Ho4 Ho7 3.407163 1_556
Ho4 Mn4 3.485962 1_555
Ho5 Mn5 3.485962 1_555
Ho6 Mn2 3.485962 1_555
Ho7 Mn5 3.485962 1_555
Ho8 Ho9 3.407163 1_555
Ho8 Mn6 3.485962 1_555
Ho9 Mn7 3.485962 1_555
Ho10 Ho11 3.407163 1_554
Ho10 Mn7 3.485962 1_555
Ho11 Mn6 3.485962 1_555
Al0 Mn4 2.638047 1_555
Al0 Al10 2.738396 1_455
Al0 Al68 2.758600 1_555
Al0 Al62 2.758600 1_555
Al0 Al70 2.759043 1_555
Al0 Al80 2.759043 1_555
Al0 Al42 2.808149 1_555
Al0 Al46 2.808149 1_555
Al0 Ho2 3.042263 1_555
Al0 Ho4 3.042263 1_555
Al1 Mn5 2.638047 1_655
Al1 Al11 2.738396 1_655
Al1 Al63 2.758600 1_555
Al1 Al65 2.758600 1_555
Al1 Al73 2.759043 1_555
Al1 Al78 2.759043 1_555
Al1 Al43 2.808149 1_555
Al1 Al44 2.808149 1_555
Al1 Ho7 3.042263 1_655
Al1 Ho5 3.042263 1_655
Al2 Mn6 2.638037 1_555
Al2 Al7 2.738377 1_555
Al2 Al64 2.758605 1_555
Al2 Al74 2.758605 1_555
Al2 Al68 2.759041 1_555
Al2 Al62 2.759041 1_555
Al2 Al42 2.808162 1_555
Al2 Al46 2.808162 1_555
Al2 Ho11 3.042259 1_555
Al2 Ho8 3.042259 1_555
Al3 Mn2 2.638047 1_555
Al3 Al6 2.738396 1_545
Al3 Al77 2.758600 1_555
Al3 Al66 2.758600 1_555
Al3 Al85 2.759043 1_555
Al3 Al82 2.759043 1_555
Al3 Al45 2.808149 1_555
Al3 Al49 2.808149 1_555
Al3 Ho0 3.042263 1_555
Al3 Ho6 3.042263 1_555
Al4 Mn7 2.638037 1_555
Al4 Al9 2.738377 1_555
Al4 Al67 2.758605 1_555
Al4 Al71 2.758605 1_555
Al4 Al63 2.759041 1_555
Al4 Al65 2.759041 1_555
Al4 Al43 2.808162 1_555
Al4 Al44 2.808162 1_555
Al4 Ho10 3.042259 1_555
Al4 Ho9 3.042259 1_555
Al5 Mn3 2.638047 1_565
Al5 Al8 2.738396 1_565
Al5 Al76 2.758600 1_555
Al5 Al69 2.758600 1_555
Al5 Al84 2.759043 1_555
Al5 Al83 2.759043 1_555
Al5 Ho3 3.042263 1_565
Al5 Ho1 3.042263 1_565
Al6 Mn2 2.638037 1_565
Al6 Al70 2.758609 1_555
Al6 Al80 2.758609 1_555
Al6 Al64 2.759034 1_555
Al6 Al74 2.759034 1_555
Al6 Ho0 3.042263 1_565
Al6 Ho6 3.042263 1_565
Al7 Mn6 2.638037 1_555
Al7 Al81 2.758605 1_555
Al7 Al72 2.758605 1_555
Al7 Al77 2.759041 1_555
Al7 Ho11 3.042259 1_555
Al7 Ho8 3.042259 1_555
Al8 Mn3 2.638037 1_555
Al8 Ho3 3.042263 1_555
Al8 Ho1 3.042263 1_555
Al9 Mn7 2.638037 1_555
Al9 Ho10 3.042259 1_555
Al9 Ho9 3.042259 1_555
Al10 Mn4 2.638037 1_655
Al10 Al85 2.758609 1_555
Al10 Al82 2.758609 1_555
Al10 Al72 2.759034 1_555
Al10 Al81 2.759034 1_555
Al10 Al45 2.808151 1_555
Al10 Al49 2.808151 1_555
Al10 Ho4 3.042263 1_655
Al10 Ho2 3.042263 1_655
Al11 Mn5 2.638037 1_555
Al11 Al84 2.758609 1_555
Al11 Al83 2.758609 1_555
Al11 Al75 2.759034 1_555
Al11 Al79 2.759034 1_555
Al11 Al47 2.808151 1_555
Al11 Al48 2.808151 1_555
Al11 Ho7 3.042263 1_555
Al11 Ho5 3.042263 1_555
Al12 Mn1 2.647163 1_555
Al12 Mn3 2.648796 1_555
Al12 Al71 2.695680 1_555
Al12 Al83 2.695680 1_545
Al12 Al56 2.766831 1_554
Al12 Al57 2.826882 1_545
Al12 Al60 2.826882 1_555
Al12 Al39 2.873742 1_545
Al12 Al41 2.873742 1_555
Al12 Al20 2.946609 1_445
Al12 Al14 2.946609 1_555
Al12 Ho3 3.416228 1_555
Al13 Mn1 2.647163 1_656
Al13 Mn2 2.648796 1_555
Al13 Al74 2.695680 1_545
Al13 Al82 2.695680 1_555
Al13 Al53 2.766831 1_556
Al13 Al54 2.826882 1_655
Al13 Al61 2.826882 1_545
Al13 Al38 2.873742 1_655
Al13 Al40 2.873742 1_545
Al13 Al21 2.946609 1_655
Al13 Al17 2.946609 1_645
Al13 Ho6 3.416228 1_555
Al14 Mn1 2.647163 1_555
Al14 Mn5 2.648796 1_555
Al14 Al75 2.695680 1_555
Al14 Al78 2.695680 1_455
Al14 Al54 2.766831 1_554
Al14 Al53 2.826882 1_455
Al14 Al60 2.826882 1_555
Al14 Al37 2.873742 1_455
Al14 Al41 2.873742 1_555
Al14 Al20 2.946609 1_445
Al14 Ho7 3.416228 1_555
Al15 Mn0 2.647163 1_655
Al15 Mn2 2.648796 1_555
Al15 Al64 2.695680 1_545
Al15 Al85 2.695680 1_555
Al15 Al51 2.766831 1_555
Al15 Al52 2.826882 1_655
Al15 Al58 2.826882 1_545
Al15 Al38 2.873742 1_655
Al15 Al40 2.873742 1_545
Al15 Al22 2.946609 1_655
Al15 Al19 2.946609 1_645
Al15 Ho0 3.416228 1_555
Al16 Mn0 2.647163 1_555
Al16 Mn5 2.648796 1_555
Al16 Al79 2.695680 1_555
Al16 Al73 2.695680 1_455
Al16 Al52 2.766831 1_555
Al16 Al51 2.826882 1_455
Al16 Al59 2.826882 1_555
Al16 Al37 2.873742 1_455
Al16 Al41 2.873742 1_555
Al16 Al23 2.946609 1_445
Al16 Al18 2.946609 1_555
Al16 Ho5 3.416228 1_555
Al17 Mn1 2.647163 1_566
Al17 Mn4 2.648796 1_555
Al17 Al72 2.695680 1_455
Al17 Al80 2.695680 1_555
Al17 Al57 2.766831 1_556
Al17 Al56 2.826882 1_565
Al17 Al61 2.826882 1_455
Al17 Al36 2.873742 1_565
Al17 Al40 2.873742 1_455
Al17 Al21 2.946609 1_565
Al17 Ho4 3.416228 1_555
Al18 Mn0 2.647163 1_555
Al18 Mn3 2.648796 1_555
Al18 Al67 2.695680 1_555
Al18 Al84 2.695680 1_545
Al18 Al50 2.766831 1_555
Al18 Al55 2.826882 1_545
Al18 Al59 2.826882 1_555
Al18 Al39 2.873742 1_545
Al18 Al41 2.873742 1_555
Al18 Al23 2.946609 1_445
Al18 Ho1 3.416228 1_555
Al19 Mn0 2.647163 1_565
Al19 Mn4 2.648796 1_555
Al19 Al81 2.695680 1_455
Al19 Al70 2.695680 1_555
Al19 Al55 2.766831 1_555
Al19 Al50 2.826882 1_565
Al19 Al58 2.826882 1_455
Al19 Al36 2.873742 1_565
Al19 Al40 2.873742 1_455
Al19 Al22 2.946609 1_565
Al19 Ho2 3.416228 1_555
Al20 Mn1 2.647163 1_665
Al20 Mn7 2.648796 1_555
Al20 Al65 2.695680 1_555
Al20 Al69 2.695680 1_555
Al20 Al61 2.766831 1_554
Al20 Al57 2.826882 1_655
Al20 Al53 2.826882 1_565
Al20 Al37 2.873742 1_565
Al20 Al39 2.873742 1_655
Al20 Ho10 3.416228 1_555
Al21 Mn1 2.647163 1_556
Al21 Mn6 2.648796 1_555
Al21 Al66 2.695680 1_555
Al21 Al68 2.695680 1_555
Al21 Al60 2.766831 1_556
Al21 Al54 2.826882 1_555
Al21 Al56 2.826882 1_555
Al21 Al36 2.873742 1_555
Al21 Al38 2.873742 1_555
Al21 Ho11 3.416228 1_555
Al22 Mn0 2.647163 1_555
Al22 Mn6 2.648796 1_555
Al22 Al62 2.695680 1_555
Al22 Al77 2.695680 1_555
Al22 Al59 2.766831 1_555
Al22 Al52 2.826882 1_555
Al22 Al50 2.826882 1_555
Al22 Al36 2.873742 1_555
Al22 Al38 2.873742 1_555
Al22 Ho8 3.416228 1_555
Al23 Mn0 2.647163 1_665
Al23 Mn7 2.648796 1_555
Al23 Al63 2.695680 1_555
Al23 Al76 2.695680 1_555
Al23 Al58 2.766831 1_555
Al23 Al55 2.826882 1_655
Al23 Al51 2.826882 1_565
Al23 Al37 2.873742 1_565
Al23 Al39 2.873742 1_655
Al23 Ho9 3.416228 1_555
Al24 Al52 2.710119 1_555
Al24 Al59 2.710124 1_555
Al24 Al48 2.762592 1_555
Al24 Al42 2.762592 1_555
Al24 Al26 2.834766 1_555
Al24 Al32 2.834766 1_555
Al24 Ho5 3.055420 1_555
Al24 Ho8 3.055429 1_555
Al24 Al62 3.085719 1_555
Al24 Al79 3.085720 1_555
Al24 Ho2 3.362806 1_555
Al24 Ho9 3.362815 1_555
Al25 Al55 2.710119 1_655
Al25 Al58 2.710124 1_555
Al25 Al49 2.762592 1_555
Al25 Al43 2.762592 1_555
Al25 Al29 2.834766 1_555
Al25 Al33 2.834766 1_555
Al25 Ho2 3.055420 1_655
Al25 Ho9 3.055429 1_555
Al25 Al63 3.085719 1_555
Al25 Al81 3.085720 1_555
Al25 Ho5 3.362806 1_655
Al25 Ho8 3.362815 1_555
Al26 Al51 2.710119 1_565
Al26 Al58 2.710124 1_555
Al26 Al48 2.762592 1_555
Al26 Al42 2.762592 1_555
Al26 Al32 2.834766 1_555
Al26 Ho0 3.055420 1_565
Al26 Ho9 3.055429 1_555
Al26 Al76 3.085719 1_555
Al26 Al64 3.085720 1_555
Al26 Ho1 3.362806 1_565
Al26 Ho8 3.362815 1_555
Al27 Al57 2.710119 1_655
Al27 Al61 2.710124 1_554
Al27 Al45 2.762592 1_554
Al27 Al44 2.762592 1_555
Al27 Al28 2.834766 1_555
Al27 Al34 2.834766 1_555
Al27 Ho4 3.055420 1_654
Al27 Ho10 3.055429 1_555
Al27 Al65 3.085719 1_555
Al27 Al72 3.085720 1_554
Al27 Ho7 3.362806 1_655
Al27 Ho11 3.362815 1_554
Al28 Al56 2.710119 1_554
Al28 Al60 2.710124 1_555
Al28 Al45 2.762592 1_554
Al28 Al44 2.762592 1_555
Al28 Al34 2.834766 1_555
Al28 Ho3 3.055420 1_555
Al28 Ho11 3.055429 1_554
Al28 Al66 3.085719 1_554
Al28 Al71 3.085720 1_555
Al28 Ho6 3.362806 1_554
Al28 Ho10 3.362815 1_555
Al29 Al50 2.710119 1_555
Al29 Al59 2.710124 1_555
Al29 Al43 2.762592 1_555
Al29 Al49 2.762592 1_555
Al29 Al33 2.834766 1_555
Al29 Ho1 3.055420 1_555
Al29 Ho8 3.055429 1_555
Al29 Al77 3.085719 1_555
Al29 Al67 3.085720 1_555
Al29 Ho0 3.362806 1_555
Al29 Ho9 3.362815 1_555
Al30 Al54 2.710119 1_554
Al30 Al60 2.710124 1_555
Al30 Al46 2.762592 1_554
Al30 Al47 2.762592 1_555
Al30 Al31 2.834766 1_555
Al30 Al35 2.834766 1_555
Al30 Ho7 3.055420 1_555
Al30 Ho11 3.055429 1_554
Al30 Al68 3.085719 1_554
Al30 Al75 3.085720 1_555
Al30 Ho4 3.362806 1_554
Al30 Ho10 3.362815 1_555
Al31 Al53 2.710119 1_565
Al31 Al61 2.710124 1_554
Al31 Al46 2.762592 1_554
Al31 Al47 2.762592 1_555
Al31 Al35 2.834766 1_555
Al31 Ho6 3.055420 1_564
Al31 Ho10 3.055429 1_555
Al31 Al69 3.085719 1_555
Al31 Al74 3.085720 1_554
Al31 Ho3 3.362806 1_565
Al31 Ho11 3.362815 1_554
Al32 Al55 2.710114 1_555
Al32 Al50 2.710114 1_565
Al32 Al48 2.762592 1_555
Al32 Al42 2.762592 1_555
Al32 Ho2 3.055424 1_555
Al32 Ho1 3.055424 1_565
Al32 Al70 3.085717 1_555
Al32 Al84 3.085717 1_555
Al32 Ho5 3.362811 1_555
Al32 Ho0 3.362811 1_565
Al33 Al51 2.710114 1_555
Al33 Al52 2.710114 1_655
Al33 Al43 2.762592 1_555
Al33 Al49 2.762592 1_555
Al33 Ho0 3.055424 1_555
Al33 Ho5 3.055424 1_655
Al33 Al85 3.085717 1_555
Al33 Al73 3.085717 1_555
Al33 Ho1 3.362811 1_555
Al33 Ho2 3.362811 1_655
Al34 Al53 2.710114 1_555
Al34 Al54 2.710114 1_654
Al34 Al44 2.762592 1_555
Al34 Al45 2.762592 1_554
Al34 Ho6 3.055424 1_554
Al34 Ho7 3.055424 1_655
Al34 Al82 3.085717 1_554
Al34 Al78 3.085717 1_555
Al34 Ho3 3.362811 1_555
Al34 Ho4 3.362811 1_654
Al35 Al57 2.710114 1_555
Al35 Al56 2.710114 1_564
Al35 Al46 2.762592 1_554
Al35 Al47 2.762592 1_555
Al35 Ho4 3.055424 1_554
Al35 Ho3 3.055424 1_565
Al35 Al83 3.085717 1_555
Al35 Al80 3.085717 1_554
Al35 Ho7 3.362811 1_555
Al35 Ho6 3.362811 1_564
Al36 Mn4 2.525985 1_545
Al36 Mn6 2.525985 1_555
Al36 Al40 2.746018 1_445
Al36 Al38 2.746018 1_555
Al36 Al66 2.776594 1_555
Al36 Al77 2.776594 1_555
Al36 Al70 2.776594 1_545
Al36 Al80 2.776594 1_545
Al37 Mn5 2.525985 1_655
Al37 Mn7 2.525985 1_545
Al37 Al41 2.746018 1_655
Al37 Al39 2.746018 1_645
Al37 Al76 2.776594 1_545
Al37 Al69 2.776594 1_545
Al37 Al73 2.776594 1_555
Al37 Al78 2.776594 1_555
Al38 Mn2 2.525985 1_455
Al38 Mn6 2.525985 1_555
Al38 Al40 2.746018 1_445
Al38 Al68 2.776594 1_555
Al38 Al62 2.776594 1_555
Al38 Al82 2.776594 1_455
Al38 Al85 2.776594 1_455
Al39 Mn3 2.525985 1_565
Al39 Mn7 2.525985 1_455
Al39 Al41 2.746018 1_565
Al39 Al63 2.776594 1_455
Al39 Al65 2.776594 1_455
Al39 Al84 2.776594 1_555
Al39 Al83 2.776594 1_555
Al40 Mn4 2.525985 1_655
Al40 Mn2 2.525985 1_565
Al40 Al64 2.776594 1_555
Al40 Al72 2.776594 1_555
Al40 Al81 2.776594 1_555
Al40 Al74 2.776594 1_555
Al41 Mn5 2.525985 1_555
Al41 Mn3 2.525985 1_555
Al41 Al67 2.776594 1_555
Al41 Al79 2.776594 1_555
Al41 Al71 2.776594 1_555
Al41 Al75 2.776594 1_555
Al42 Al70 2.716146 1_555
Al42 Al62 2.716155 1_555
Al42 Al64 2.716156 1_555
Al42 Al6 2.808151 1_555
Al42 Ho2 3.212472 1_555
Al42 Ho0 3.212473 1_565
Al42 Ho8 3.212482 1_555
Al43 Al73 2.716146 1_555
Al43 Al63 2.716155 1_555
Al43 Al67 2.716156 1_555
Al43 Al8 2.808151 1_555
Al43 Ho5 3.212472 1_655
Al43 Ho1 3.212473 1_555
Al43 Ho9 3.212482 1_555
Al44 Al78 2.716146 1_555
Al44 Al65 2.716155 1_555
Al44 Al71 2.716156 1_555
Al44 Al8 2.808151 1_555
Al44 Ho7 3.212472 1_655
Al44 Ho3 3.212473 1_555
Al44 Ho10 3.212482 1_555
Al45 Al82 2.716146 1_555
Al45 Al66 2.716155 1_555
Al45 Al72 2.716156 1_555
Al45 Al7 2.808162 1_555
Al45 Ho6 3.212472 1_555
Al45 Ho4 3.212473 1_655
Al45 Ho11 3.212482 1_555
Al46 Al80 2.716146 1_555
Al46 Al68 2.716155 1_555
Al46 Al74 2.716156 1_555
Al46 Al6 2.808151 1_555
Al46 Ho4 3.212472 1_555
Al46 Ho6 3.212473 1_565
Al46 Ho11 3.212482 1_555
Al47 Al83 2.716146 1_555
Al47 Al69 2.716155 1_555
Al47 Al75 2.716156 1_555
Al47 Al5 2.808149 1_555
Al47 Al9 2.808162 1_555
Al47 Ho3 3.212472 1_565
Al47 Ho7 3.212473 1_555
Al47 Ho10 3.212482 1_555
Al48 Al84 2.716146 1_555
Al48 Al76 2.716155 1_555
Al48 Al79 2.716156 1_555
Al48 Al5 2.808149 1_555
Al48 Al9 2.808162 1_555
Al48 Ho1 3.212472 1_565
Al48 Ho5 3.212473 1_555
Al48 Ho9 3.212482 1_555
Al49 Al85 2.716146 1_555
Al49 Al77 2.716155 1_555
Al49 Al81 2.716156 1_555
Al49 Al7 2.808162 1_555
Al49 Ho0 3.212472 1_555
Al49 Ho2 3.212473 1_655
Al49 Ho8 3.212482 1_555
Al50 Mn0 2.796569 1_555
Al50 Al77 2.875464 1_555
Al50 Al70 2.875464 1_545
Al50 Al55 2.945683 1_545
Al50 Al59 2.945683 1_555
Al50 Ho1 3.222811 1_555
Al50 Ho0 3.253110 1_555
Al51 Mn0 2.796569 1_655
Al51 Al76 2.875464 1_545
Al51 Al73 2.875464 1_555
Al51 Al52 2.945683 1_655
Al51 Al58 2.945683 1_545
Al51 Ho0 3.222811 1_555
Al51 Ho1 3.253110 1_555
Al52 Mn0 2.796569 1_555
Al52 Al62 2.875464 1_555
Al52 Al85 2.875464 1_455
Al52 Al59 2.945683 1_555
Al52 Ho5 3.222811 1_555
Al52 Ho2 3.253110 1_555
Al53 Mn1 2.796569 1_655
Al53 Al69 2.875464 1_545
Al53 Al78 2.875464 1_555
Al53 Al54 2.945683 1_654
Al53 Al61 2.945683 1_544
Al53 Ho6 3.222811 1_554
Al53 Ho3 3.253110 1_555
Al54 Mn1 2.796569 1_556
Al54 Al68 2.875464 1_555
Al54 Al82 2.875464 1_455
Al54 Al60 2.945683 1_556
Al54 Ho7 3.222811 1_556
Al54 Ho4 3.253110 1_555
Al55 Mn0 2.796569 1_565
Al55 Al63 2.875464 1_455
Al55 Al84 2.875464 1_555
Al55 Al58 2.945683 1_455
Al55 Ho2 3.222811 1_555
Al55 Ho5 3.253110 1_555
Al56 Mn1 2.796569 1_556
Al56 Al66 2.875464 1_555
Al56 Al80 2.875464 1_545
Al56 Al57 2.945683 1_546
Al56 Al60 2.945683 1_556
Al56 Ho3 3.222811 1_556
Al56 Ho6 3.253110 1_555
Al57 Mn1 2.796569 1_565
Al57 Al65 2.875464 1_455
Al57 Al83 2.875464 1_555
Al57 Al61 2.945683 1_454
Al57 Ho4 3.222811 1_554
Al57 Ho7 3.253110 1_555
Al58 Mn0 2.796569 1_665
Al58 Al64 2.875464 1_555
Al58 Al81 2.875464 1_555
Al58 Ho9 3.222811 1_555
Al58 Ho8 3.253110 1_555
Al59 Mn0 2.796569 1_555
Al59 Al79 2.875464 1_555
Al59 Al67 2.875464 1_555
Al59 Ho8 3.222811 1_555
Al59 Ho9 3.253110 1_555
Al60 Mn1 2.796569 1_555
Al60 Al75 2.875464 1_555
Al60 Al71 2.875464 1_555
Al60 Ho11 3.222811 1_554
Al60 Ho10 3.253110 1_555
Al61 Mn1 2.796569 1_666
Al61 Al72 2.875464 1_555
Al61 Al74 2.875464 1_555
Al61 Ho10 3.222811 1_556
Al61 Ho11 3.253110 1_555
Al62 Mn6 2.651557 1_555
Al62 Al68 2.960028 1_555
Al62 Al85 2.983833 1_455
Al62 Ho2 3.079824 1_555
Al62 Ho8 3.285991 1_555
Al63 Mn7 2.651557 1_555
Al63 Al65 2.960028 1_555
Al63 Al84 2.983833 1_655
Al63 Ho5 3.079824 1_655
Al63 Ho9 3.285991 1_555
Al64 Mn2 2.651557 1_565
Al64 Al74 2.960028 1_555
Al64 Al81 2.983833 1_555
Al64 Ho8 3.079824 1_555
Al64 Ho0 3.285991 1_565
Al65 Mn7 2.651557 1_555
Al65 Al83 2.983833 1_655
Al65 Ho7 3.079824 1_655
Al65 Ho10 3.285991 1_555
Al66 Mn6 2.651557 1_555
Al66 Al7 2.759041 1_555
Al66 Al77 2.960028 1_555
Al66 Al80 2.983833 1_545
Al66 Ho6 3.079824 1_555
Al66 Ho11 3.285991 1_555
Al67 Mn3 2.651557 1_555
Al67 Al8 2.759034 1_555
Al67 Al71 2.960028 1_555
Al67 Al79 2.983833 1_555
Al67 Ho9 3.079824 1_555
Al67 Ho1 3.285991 1_555
Al68 Mn6 2.651557 1_555
Al68 Al82 2.983833 1_455
Al68 Ho4 3.079824 1_555
Al68 Ho11 3.285991 1_555
Al69 Mn7 2.651557 1_555
Al69 Al9 2.759041 1_555
Al69 Al76 2.960028 1_555
Al69 Al78 2.983833 1_565
Al69 Ho3 3.079824 1_565
Al69 Ho10 3.285991 1_555
Al70 Mn4 2.651557 1_555
Al70 Al80 2.960028 1_555
Al70 Al77 2.983833 1_565
Al70 Ho0 3.079824 1_565
Al70 Ho2 3.285991 1_555
Al71 Mn3 2.651557 1_555
Al71 Al8 2.759034 1_555
Al71 Al75 2.983833 1_555
Al71 Ho10 3.079824 1_555
Al71 Ho3 3.285991 1_555
Al72 Mn4 2.651557 1_655
Al72 Al81 2.960028 1_555
Al72 Al74 2.983833 1_555
Al72 Ho11 3.079824 1_555
Al72 Ho4 3.285991 1_655
Al73 Mn5 2.651557 1_655
Al73 Al8 2.758609 1_555
Al73 Al78 2.960028 1_555
Al73 Al76 2.983833 1_545
Al73 Ho1 3.079824 1_555
Al73 Ho5 3.285991 1_655
Al74 Mn2 2.651557 1_565
Al74 Ho11 3.079824 1_555
Al74 Ho6 3.285991 1_565
Al75 Mn5 2.651557 1_555
Al75 Al9 2.758605 1_555
Al75 Al79 2.960028 1_555
Al75 Ho10 3.079824 1_555
Al75 Ho7 3.285991 1_555
Al76 Mn7 2.651557 1_555
Al76 Al9 2.759041 1_555
Al76 Ho1 3.079824 1_565
Al76 Ho9 3.285991 1_555
Al77 Mn6 2.651557 1_555
Al77 Ho0 3.079824 1_555
Al77 Ho8 3.285991 1_555
Al78 Mn5 2.651557 1_655
Al78 Al8 2.758609 1_555
Al78 Ho3 3.079824 1_555
Al78 Ho7 3.285991 1_655
Al79 Mn5 2.651557 1_555
Al79 Al9 2.758605 1_555
Al79 Ho9 3.079824 1_555
Al79 Ho5 3.285991 1_555
Al80 Mn4 2.651557 1_555
Al80 Ho6 3.079824 1_565
Al80 Ho4 3.285991 1_555
Al81 Mn4 2.651557 1_655
Al81 Ho8 3.079824 1_555
Al81 Ho2 3.285991 1_655
Al82 Mn2 2.651557 1_555
Al82 Al85 2.960028 1_555
Al82 Ho4 3.079824 1_655
Al82 Ho6 3.285991 1_555
Al83 Mn3 2.651557 1_565
Al83 Al84 2.960028 1_555
Al83 Ho7 3.079824 1_555
Al83 Ho3 3.285991 1_565
Al84 Mn3 2.651557 1_565
Al84 Ho5 3.079824 1_555
Al84 Ho1 3.285991 1_565
Al85 Mn2 2.651557 1_555
Al85 Ho2 3.079824 1_655
Al85 Ho0 3.285991 1_555
