# generated using pymatgen
data_K14P16Pd9O56
_symmetry_space_group_name_H-M   'P 1'
_cell_length_a   11.95238515
_cell_length_b   11.95238515
_cell_length_c   12.42171254
_cell_angle_alpha   66.42744422
_cell_angle_beta   66.42744422
_cell_angle_gamma   72.53823002
_symmetry_Int_Tables_number   1
_chemical_formula_structural   K14P16Pd9O56
_chemical_formula_sum   'K14 P16 Pd9 O56'
_cell_volume   1469.86828817
_cell_formula_units_Z   1
loop_
 _symmetry_equiv_pos_site_id
 _symmetry_equiv_pos_as_xyz
  1  'x, y, z'
loop_
 _atom_site_type_symbol
 _atom_site_label
 _atom_site_symmetry_multiplicity
 _atom_site_fract_x
 _atom_site_fract_y
 _atom_site_fract_z
 _atom_site_occupancy
  K  K0  1  0.12087483  0.58579348  0.41717655  1
  K  K1  1  0.58579348  0.12087483  0.41717655  1
  K  K2  1  0.87837493  0.41514960  0.58277963  1
  K  K3  1  0.41514960  0.87837493  0.58277963  1
  K  K4  1  0.11353652  0.64807732  0.09833627  1
  K  K5  1  0.64807732  0.11353652  0.09833627  1
  K  K6  1  0.88371862  0.35413441  0.90129600  1
  K  K7  1  0.35413441  0.88371862  0.90129600  1
  K  K8  1  0.84140378  0.84140378  0.40708406  1
  K  K9  1  0.15749220  0.15749220  0.59415071  1
  K  K10  1  0.99924510  0.99924510  0.50114419  1
  K  K11  1  0.74094204  0.25896450  0.50016043  1
  K  K12  1  0.25896450  0.74094204  0.50016043  1
  K  K13  1  0.25284998  0.25284998  0.99926425  1
  P  P0  1  0.92416846  0.13969602  0.19616250  1
  P  P1  1  0.13969602  0.92416846  0.19616250  1
  P  P2  1  0.07548401  0.85994913  0.80369106  1
  P  P3  1  0.85994913  0.07548401  0.80369106  1
  P  P4  1  0.81922689  0.60436585  0.31080202  1
  P  P5  1  0.60436585  0.81922689  0.31080202  1
  P  P6  1  0.18063212  0.39579210  0.68844477  1
  P  P7  1  0.39579210  0.18063212  0.68844477  1
  P  P8  1  0.10889302  0.32093374  0.30092701  1
  P  P9  1  0.32093374  0.10889302  0.30092701  1
  P  P10  1  0.89072130  0.68002599  0.69990008  1
  P  P11  1  0.68002599  0.89072130  0.69990008  1
  P  P12  1  0.62817843  0.42548978  0.19289087  1
  P  P13  1  0.42548978  0.62817843  0.19289087  1
  P  P14  1  0.37166979  0.57584609  0.80669161  1
  P  P15  1  0.57584609  0.37166979  0.80669161  1
  Pd  Pd0  1  0.43453900  0.43453900  0.45248839  1
  Pd  Pd1  1  0.56603434  0.56603434  0.54693853  1
  Pd  Pd2  1  0.91563115  0.41316820  0.15629952  1
  Pd  Pd3  1  0.41316820  0.91563115  0.15629952  1
  Pd  Pd4  1  0.08325810  0.58796272  0.84358792  1
  Pd  Pd5  1  0.58796272  0.08325810  0.84358792  1
  Pd  Pd6  1  0.00004441  0.00004441  0.99956460  1
  Pd  Pd7  1  0.37379335  0.37379335  0.24283718  1
  Pd  Pd8  1  0.62695420  0.62695420  0.75676899  1
  O  O0  1  0.93174365  0.60643294  0.33800548  1
  O  O1  1  0.60643294  0.93174365  0.33800548  1
  O  O2  1  0.06794231  0.39360814  0.66242426  1
  O  O3  1  0.39360814  0.06794231  0.66242426  1
  O  O4  1  0.20330593  0.20330593  0.25856971  1
  O  O5  1  0.79762521  0.79762521  0.74001424  1
  O  O6  1  0.76456238  0.41447445  0.11552038  1
  O  O7  1  0.41447445  0.76456238  0.11552038  1
  O  O8  1  0.23561282  0.58285200  0.88585682  1
  O  O9  1  0.58285200  0.23561282  0.88585682  1
  O  O10  1  0.99025346  0.25297143  0.10921199  1
  O  O11  1  0.25297143  0.99025346  0.10921199  1
  O  O12  1  0.01206993  0.74598247  0.89065186  1
  O  O13  1  0.74598247  0.01206993  0.89065186  1
  O  O14  1  0.00511721  0.27260101  0.41601713  1
  O  O15  1  0.27260101  0.00511721  0.41601713  1
  O  O16  1  0.99483036  0.72749198  0.58373109  1
  O  O17  1  0.72749198  0.99483036  0.58373109  1
  O  O18  1  0.56449684  0.34796295  0.16643740  1
  O  O19  1  0.34796295  0.56449684  0.16643740  1
  O  O20  1  0.43542925  0.65215071  0.83373846  1
  O  O21  1  0.65215071  0.43542925  0.83373846  1
  O  O22  1  0.88177772  0.09085613  0.12219703  1
  O  O23  1  0.09085613  0.88177772  0.12219703  1
  O  O24  1  0.11803817  0.90961724  0.87747680  1
  O  O25  1  0.90961724  0.11803817  0.87747680  1
  O  O26  1  0.74719014  0.74719014  0.28676354  1
  O  O27  1  0.25250939  0.25250939  0.71376315  1
  O  O28  1  0.18683727  0.38557450  0.32686327  1
  O  O29  1  0.38557450  0.18683727  0.32686327  1
  O  O30  1  0.81323068  0.61440178  0.67371933  1
  O  O31  1  0.61440178  0.81323068  0.67371933  1
  O  O32  1  0.73170507  0.51992416  0.42471233  1
  O  O33  1  0.51992416  0.73170507  0.42471233  1
  O  O34  1  0.26820543  0.48008707  0.57575576  1
  O  O35  1  0.48008707  0.26820543  0.57575576  1
  O  O36  1  0.82244388  0.15332229  0.31255508  1
  O  O37  1  0.15332229  0.82244388  0.31255508  1
  O  O38  1  0.17811417  0.84786510  0.68682192  1
  O  O39  1  0.84786510  0.17811417  0.68682192  1
  O  O40  1  0.07635717  0.40523508  0.18152794  1
  O  O41  1  0.40523508  0.07635717  0.18152794  1
  O  O42  1  0.92573334  0.59270880  0.81674173  1
  O  O43  1  0.59270880  0.92573334  0.81674173  1
  O  O44  1  0.56948351  0.56948351  0.14206384  1
  O  O45  1  0.43019044  0.43019044  0.85808433  1
  O  O46  1  0.60593092  0.39170303  0.33288506  1
  O  O47  1  0.39170303  0.60593092  0.33288506  1
  O  O48  1  0.39370116  0.60820257  0.66732938  1
  O  O49  1  0.60820257  0.39370116  0.66732938  1
  O  O50  1  0.02986267  0.02986267  0.24666043  1
  O  O51  1  0.97049663  0.97049663  0.75287747  1
  O  O52  1  0.84675257  0.57813093  0.19030062  1
  O  O53  1  0.57813093  0.84675257  0.19030062  1
  O  O54  1  0.15412310  0.42005490  0.81045384  1
  O  O55  1  0.42005490  0.15412310  0.81045384  1
loop_
_geom_bond_atom_site_label_1
_geom_bond_atom_site_label_2
_geom_bond_distance
_geom_bond_site_symmetry_2
K0 O37 2.674900 1_555
K0 O0 2.718009 1_455
K0 O28 2.813284 1_555
K0 O34 2.833029 1_555
K0 O16 2.862988 1_455
K0 O2 2.948050 1_555
K0 O47 3.031146 1_555
K0 O19 3.254328 1_555
K1 O36 2.674900 1_555
K1 O1 2.718009 1_545
K1 O29 2.813284 1_555
K1 O35 2.833029 1_555
K1 O17 2.862988 1_545
K1 O3 2.948050 1_555
K1 O46 3.031146 1_555
K1 O18 3.254328 1_555
K2 O39 2.672911 1_555
K2 O2 2.723573 1_655
K2 O30 2.808810 1_555
K2 O32 2.822328 1_555
K2 O14 2.872769 1_655
K2 O0 2.939862 1_555
K2 O49 3.027443 1_555
K2 O21 3.249160 1_555
K3 O38 2.672911 1_555
K3 O3 2.723573 1_565
K3 O31 2.808810 1_555
K3 O33 2.822328 1_555
K3 O15 2.872769 1_565
K3 O1 2.939862 1_555
K3 O48 3.027443 1_555
K3 O20 3.249160 1_555
K4 O8 2.754244 1_554
K4 O40 2.774508 1_555
K4 O23 2.847316 1_555
K4 O0 2.849942 1_455
K4 O12 2.954936 1_554
K4 O19 3.017374 1_555
K4 O52 3.177155 1_455
K4 O24 3.228777 1_554
K5 O9 2.754244 1_554
K5 O41 2.774508 1_555
K5 O22 2.847316 1_555
K5 O1 2.849942 1_545
K5 O13 2.954936 1_554
K5 O18 3.017374 1_555
K5 O53 3.177155 1_545
K5 O25 3.228777 1_554
K6 O6 2.741705 1_556
K6 O42 2.743837 1_555
K6 O2 2.855418 1_655
K6 O25 2.866507 1_555
K6 O21 2.983382 1_555
K6 O10 2.993702 1_556
K6 O54 3.199999 1_655
K6 O22 3.243292 1_556
K7 O7 2.741705 1_556
K7 O43 2.743837 1_555
K7 O3 2.855418 1_565
K7 O24 2.866507 1_555
K7 O20 2.983382 1_555
K7 O11 2.993702 1_556
K7 O55 3.199999 1_565
K7 O23 3.243292 1_556
K8 O26 2.867599 1_555
K8 O1 3.025912 1_555
K8 O0 3.025912 1_555
K8 O17 3.059714 1_555
K8 O16 3.059714 1_555
K8 O50 3.159675 1_665
K8 O30 3.303563 1_555
K8 O31 3.303563 1_555
K8 O37 3.396150 1_655
K8 O36 3.396150 1_565
K9 O27 2.874087 1_555
K9 O2 3.033947 1_555
K9 O3 3.033947 1_555
K9 O15 3.064391 1_555
K9 O14 3.064391 1_555
K9 O51 3.134807 1_445
K9 O28 3.313819 1_555
K9 O29 3.313819 1_555
K9 O38 3.369547 1_545
K9 O39 3.369547 1_455
K10 O51 2.892423 1_555
K10 O50 2.913833 1_665
K10 O17 2.999966 1_555
K10 O16 2.999966 1_555
K10 O14 3.018776 1_665
K10 O15 3.018776 1_665
K11 O36 2.788115 1_555
K11 O39 2.789267 1_555
K11 O49 2.815821 1_555
K11 O46 2.819090 1_555
K11 O35 2.854736 1_555
K11 O32 2.856101 1_555
K11 O17 2.936018 1_545
K11 O14 2.936318 1_655
K12 O37 2.788115 1_555
K12 O38 2.789267 1_555
K12 O48 2.815821 1_555
K12 O47 2.819090 1_555
K12 O34 2.854736 1_555
K12 O33 2.856101 1_555
K12 O16 2.936018 1_455
K12 O15 2.936318 1_565
K13 O54 2.817174 1_555
K13 O55 2.817174 1_555
K13 O4 2.869773 1_556
K13 O11 2.878672 1_546
K13 O10 2.878672 1_456
K13 O45 2.968395 1_555
K13 O40 3.172633 1_556
K13 O41 3.172633 1_556
O0 P4 1.521016 1_555
O1 P5 1.521016 1_555
O2 P6 1.515049 1_555
O3 P7 1.515049 1_555
O4 P9 1.640587 1_555
O4 P8 1.640587 1_555
O5 P11 1.624872 1_555
O5 P10 1.624872 1_555
O6 P12 1.522375 1_555
O6 Pd2 2.055588 1_555
O7 P13 1.522375 1_555
O7 Pd3 2.055588 1_555
O8 P14 1.524358 1_555
O8 Pd4 2.065860 1_555
O9 P15 1.524358 1_555
O9 Pd5 2.065860 1_555
O10 P0 1.553511 1_555
O10 Pd2 2.063353 1_555
O11 P1 1.553511 1_555
O11 Pd3 2.063353 1_555
O12 P2 1.544261 1_555
O12 Pd4 2.038092 1_555
O13 P3 1.544261 1_555
O13 Pd5 2.038092 1_555
O14 P8 1.505735 1_555
O15 P9 1.505735 1_555
O16 P10 1.511717 1_555
O17 P11 1.511717 1_555
O18 P12 1.553327 1_555
O18 Pd7 2.067201 1_555
O19 P13 1.553327 1_555
O19 Pd7 2.067201 1_555
O20 P14 1.546736 1_555
O20 Pd8 2.076336 1_555
O21 P15 1.546736 1_555
O21 Pd8 2.076336 1_555
O22 P0 1.555778 1_555
O22 Pd6 2.043564 1_654
O23 P1 1.555778 1_555
O23 Pd6 2.043564 1_564
O24 P2 1.562188 1_555
O24 Pd6 2.035336 1_565
O25 P3 1.562188 1_555
O25 Pd6 2.035336 1_655
O26 P4 1.631103 1_555
O26 P5 1.631103 1_555
O27 P7 1.634691 1_555
O27 P6 1.634691 1_555
O28 P8 1.561971 1_555
O28 Pd7 2.041033 1_555
O29 P9 1.561971 1_555
O29 Pd7 2.041033 1_555
O30 P10 1.568360 1_555
O30 Pd8 2.032260 1_555
O31 P11 1.568360 1_555
O31 Pd8 2.032260 1_555
O32 P4 1.556472 1_555
O32 Pd1 2.034605 1_555
O33 P5 1.556472 1_555
O33 Pd1 2.034605 1_555
O34 P6 1.550206 1_555
O34 Pd0 2.043482 1_555
O35 P7 1.550206 1_555
O35 Pd0 2.043482 1_555
O36 P0 1.502883 1_555
O37 P1 1.502883 1_555
O38 P2 1.506698 1_555
O39 P3 1.506698 1_555
O40 P8 1.548252 1_555
O40 Pd2 2.036195 1_455
O41 P9 1.548252 1_555
O41 Pd3 2.036195 1_545
O42 P10 1.543691 1_555
O42 Pd4 2.020470 1_655
O43 P11 1.543691 1_555
O43 Pd5 2.020470 1_565
O44 P12 1.616605 1_555
O44 P13 1.616605 1_555
O45 P14 1.632502 1_555
O45 P15 1.632502 1_555
O46 P12 1.546196 1_555
O46 Pd0 2.051977 1_555
O47 P13 1.546196 1_555
O47 Pd0 2.051977 1_555
O48 P14 1.541663 1_555
O48 Pd1 2.061375 1_555
O49 P15 1.541663 1_555
O49 Pd1 2.061375 1_555
O50 P1 1.640931 1_545
O50 P0 1.640931 1_455
O51 P2 1.640212 1_655
O51 P3 1.640212 1_565
O52 P4 1.538406 1_555
O52 Pd2 2.039001 1_555
O53 P5 1.538406 1_555
O53 Pd3 2.039001 1_555
O54 P6 1.547168 1_555
O54 Pd4 2.067883 1_555
O55 P7 1.547168 1_555
O55 Pd5 2.067883 1_555
