# generated using pymatgen
data_K4HfO4
_symmetry_space_group_name_H-M   'P 1'
_cell_length_a   6.53076724
_cell_length_b   6.54184030
_cell_length_c   9.73665804
_cell_angle_alpha   72.09670756
_cell_angle_beta   80.04036639
_cell_angle_gamma   66.92962840
_symmetry_Int_Tables_number   1
_chemical_formula_structural   K4HfO4
_chemical_formula_sum   'K8 Hf2 O8'
_cell_volume   363.52569511
_cell_formula_units_Z   2
loop_
 _symmetry_equiv_pos_site_id
 _symmetry_equiv_pos_as_xyz
  1  'x, y, z'
loop_
 _atom_site_type_symbol
 _atom_site_label
 _atom_site_symmetry_multiplicity
 _atom_site_fract_x
 _atom_site_fract_y
 _atom_site_fract_z
 _atom_site_occupancy
  K  K0  1  0.77706359  0.04097459  0.38370264  1
  K  K1  1  0.22293641  0.95902541  0.61629736  1
  K  K2  1  0.73973966  0.58672117  0.16937403  1
  K  K3  1  0.26026034  0.41327883  0.83062597  1
  K  K4  1  0.24081692  0.76114219  0.02634555  1
  K  K5  1  0.75918308  0.23885781  0.97365445  1
  K  K6  1  0.27376577  0.51418004  0.44108743  1
  K  K7  1  0.72623423  0.48581996  0.55891257  1
  Hf  Hf0  1  0.27856889  0.15393104  0.24547694  1
  Hf  Hf1  1  0.72143111  0.84606896  0.75452306  1
  O  O0  1  0.03880637  0.28969463  0.37765172  1
  O  O1  1  0.96119363  0.71030537  0.62234828  1
  O  O2  1  0.54088685  0.15659176  0.64708725  1
  O  O3  1  0.45911315  0.84340824  0.35291275  1
  O  O4  1  0.46475358  0.34238207  0.19269347  1
  O  O5  1  0.53524642  0.65761793  0.80730653  1
  O  O6  1  0.13786866  0.16065523  0.08198851  1
  O  O7  1  0.86213134  0.83934477  0.91801149  1
loop_
_geom_bond_atom_site_label_1
_geom_bond_atom_site_label_2
_geom_bond_distance
_geom_bond_site_symmetry_2
K0 O1 2.713317 1_545
K0 O4 2.722573 1_555
K0 O0 2.767466 1_655
K0 O2 2.904772 1_555
K0 O3 2.937486 1_545
K1 O0 2.713317 1_565
K1 O5 2.722573 1_555
K1 O1 2.767466 1_455
K1 O3 2.904772 1_555
K1 O2 2.937486 1_565
K2 O7 2.689201 1_554
K2 O3 2.769889 1_555
K2 O0 2.770546 1_655
K2 O4 2.777988 1_555
K2 O6 3.204103 1_655
K3 O6 2.689201 1_556
K3 O2 2.769889 1_555
K3 O1 2.770546 1_455
K3 O5 2.777988 1_555
K3 O7 3.204103 1_455
K4 O6 2.635076 1_565
K4 O7 2.658875 1_454
K4 O5 2.674576 1_554
K4 O4 2.686690 1_555
K5 O7 2.635076 1_545
K5 O6 2.658875 1_656
K5 O4 2.674576 1_556
K5 O5 2.686690 1_555
K6 O1 2.649779 1_455
K6 O3 2.718058 1_555
K6 O0 2.746688 1_555
K6 O2 2.768733 1_555
K6 O4 2.863071 1_555
K7 O0 2.649779 1_655
K7 O2 2.718058 1_555
K7 O1 2.746688 1_555
K7 O3 2.768733 1_555
K7 O5 2.863071 1_555
Hf0 O6 1.952289 1_555
Hf0 O0 1.952593 1_555
Hf0 O4 1.957437 1_555
Hf0 O3 1.963175 1_545
Hf1 O7 1.952289 1_555
Hf1 O1 1.952593 1_555
Hf1 O5 1.957437 1_555
Hf1 O2 1.963175 1_565
