# generated using pymatgen
data_Mg14AlCu
_symmetry_space_group_name_H-M   'P 1'
_cell_length_a   6.22203846
_cell_length_b   6.23744684
_cell_length_c   10.21644909
_cell_angle_alpha   90.00000000
_cell_angle_beta   90.00000000
_cell_angle_gamma   120.08195833
_symmetry_Int_Tables_number   1
_chemical_formula_structural   Mg14AlCu
_chemical_formula_sum   'Mg14 Al1 Cu1'
_cell_volume   343.09223823
_cell_formula_units_Z   1
loop_
 _symmetry_equiv_pos_site_id
 _symmetry_equiv_pos_as_xyz
  1  'x, y, z'
loop_
 _atom_site_type_symbol
 _atom_site_label
 _atom_site_symmetry_multiplicity
 _atom_site_fract_x
 _atom_site_fract_y
 _atom_site_fract_z
 _atom_site_occupancy
  Mg  Mg0  1  0.16869662  0.33434781  0.62500000  1
  Mg  Mg1  1  0.16783620  0.83391760  0.62500000  1
  Mg  Mg2  1  0.67284555  0.33644851  0.12500000  1
  Mg  Mg3  1  0.66590526  0.33340875  0.62500000  1
  Mg  Mg4  1  0.67284555  0.83639604  0.12500000  1
  Mg  Mg5  1  0.66590526  0.83249552  0.62500000  1
  Mg  Mg6  1  0.32614560  0.16135843  0.35875019  1
  Mg  Mg7  1  0.32614560  0.16135843  0.89124981  1
  Mg  Mg8  1  0.32614560  0.66478817  0.35875019  1
  Mg  Mg9  1  0.32614560  0.66478817  0.89124981  1
  Mg  Mg10  1  0.83831733  0.16915916  0.37155075  1
  Mg  Mg11  1  0.83831733  0.16915916  0.87844925  1
  Mg  Mg12  1  0.84126336  0.67063218  0.36625024  1
  Mg  Mg13  1  0.84126336  0.67063218  0.88374976  1
  Al  Al0  1  0.16017868  0.33008884  0.12500000  1
  Cu  Cu0  1  0.16204311  0.83102106  0.12500000  1
loop_
_geom_bond_atom_site_label_1
_geom_bond_atom_site_label_2
_geom_bond_distance
_geom_bond_site_symmetry_2
Mg0 Mg5 3.096591 1_555
Mg0 Mg3 3.096591 1_555
Mg0 Mg1 3.118727 1_545
Mg0 Mg1 3.118727 1_555
Mg0 Mg5 3.125455 1_445
Mg0 Mg3 3.125455 1_455
Mg0 Mg11 3.141452 1_455
Mg0 Mg10 3.141452 1_455
Mg0 Mg6 3.253115 1_555
Mg0 Mg7 3.253115 1_555
Mg0 Mg8 3.253121 1_555
Mg0 Mg9 3.253121 1_555
Mg1 Mg3 3.103460 1_565
Mg1 Mg5 3.103460 1_555
Mg1 Mg3 3.118597 1_455
Mg1 Mg5 3.118597 1_455
Mg1 Mg13 3.174839 1_455
Mg1 Mg12 3.174839 1_455
Mg1 Mg8 3.244059 1_555
Mg1 Mg9 3.244059 1_555
Mg1 Mg6 3.244064 1_565
Mg1 Mg7 3.244064 1_565
Mg2 Mg7 3.031077 1_554
Mg2 Mg6 3.031077 1_555
Mg2 Mg4 3.118396 1_555
Mg2 Mg4 3.119051 1_545
Mg3 Mg5 3.113027 1_555
Mg3 Mg5 3.124420 1_545
Mg3 Mg6 3.278029 1_555
Mg3 Mg7 3.278029 1_555
Mg4 Mg9 3.031077 1_554
Mg4 Mg8 3.031077 1_555
Mg5 Mg8 3.278029 1_555
Mg5 Mg9 3.278029 1_555
Mg10 Mg8 3.062758 1_655
Mg10 Mg6 3.062758 1_655
Mg10 Mg2 3.093626 1_555
Mg10 Mg4 3.093632 1_545
Mg10 Mg12 3.119234 1_545
Mg10 Mg12 3.119234 1_555
Mg10 Mg3 3.163368 1_555
Mg10 Mg5 3.163374 1_545
Mg10 Mg8 3.165346 1_545
Mg10 Mg6 3.165347 1_555
Mg11 Mg9 3.062758 1_655
Mg11 Mg7 3.062758 1_655
Mg11 Mg2 3.093626 1_556
Mg11 Mg4 3.093632 1_546
Mg11 Mg13 3.119234 1_545
Mg11 Mg13 3.119234 1_555
Mg11 Mg3 3.163368 1_555
Mg11 Mg5 3.163374 1_545
Mg11 Mg9 3.165346 1_545
Mg11 Mg7 3.165347 1_555
Mg12 Mg6 3.036358 1_665
Mg12 Mg8 3.036358 1_655
Mg12 Mg4 3.054200 1_555
Mg12 Mg2 3.054207 1_555
Mg12 Mg6 3.187888 1_555
Mg12 Mg8 3.187889 1_555
Mg12 Mg5 3.209704 1_555
Mg12 Mg3 3.209710 1_555
Mg13 Mg7 3.036358 1_665
Mg13 Mg9 3.036358 1_655
Mg13 Mg4 3.054200 1_556
Mg13 Mg2 3.054207 1_556
Mg13 Mg7 3.187888 1_555
Mg13 Mg9 3.187889 1_555
Mg13 Mg5 3.209704 1_555
Mg13 Mg3 3.209710 1_555
Al0 Mg7 2.994416 1_554
Al0 Mg6 2.994416 1_555
Al0 Mg9 2.994422 1_554
Al0 Mg8 2.994422 1_555
Al0 Mg4 3.052281 1_445
Al0 Mg2 3.052282 1_455
Al0 Mg10 3.057394 1_455
Al0 Mg11 3.057394 1_454
Al0 Cu0 3.118740 1_545
Al0 Cu0 3.118740 1_555
Al0 Mg4 3.170135 1_555
Al0 Mg2 3.170136 1_555
Cu0 Mg9 2.980263 1_554
Cu0 Mg8 2.980263 1_555
Cu0 Mg7 2.980270 1_564
Cu0 Mg6 2.980270 1_565
Cu0 Mg13 3.009590 1_454
Cu0 Mg12 3.009590 1_455
Cu0 Mg2 3.060748 1_455
Cu0 Mg4 3.060748 1_455
Cu0 Mg2 3.161561 1_565
Cu0 Mg4 3.161561 1_555
