# generated using pymatgen
data_InMoHSeO7
_symmetry_space_group_name_H-M   'P 1'
_cell_length_a   10.79341827
_cell_length_b   10.79341827
_cell_length_c   14.12514003
_cell_angle_alpha   49.56986501
_cell_angle_beta   49.56986501
_cell_angle_gamma   30.68348257
_symmetry_Int_Tables_number   1
_chemical_formula_structural   InMoHSeO7
_chemical_formula_sum   'In4 Mo4 H4 Se4 O28'
_cell_volume   621.48284923
_cell_formula_units_Z   4
loop_
 _symmetry_equiv_pos_site_id
 _symmetry_equiv_pos_as_xyz
  1  'x, y, z'
loop_
 _atom_site_type_symbol
 _atom_site_label
 _atom_site_symmetry_multiplicity
 _atom_site_fract_x
 _atom_site_fract_y
 _atom_site_fract_z
 _atom_site_occupancy
  In  In0  1  0.88276100  0.57994500  0.40571800  1
  In  In1  1  0.42005500  0.11723900  0.09428200  1
  In  In2  1  0.11723900  0.42005500  0.59428200  1
  In  In3  1  0.57994500  0.88276100  0.90571800  1
  Mo  Mo0  1  0.46286300  0.74507800  0.70088700  1
  Mo  Mo1  1  0.25492200  0.53713700  0.79911300  1
  Mo  Mo2  1  0.53713800  0.25492200  0.29911300  1
  Mo  Mo3  1  0.74507800  0.46286300  0.20088700  1
  H  H0  1  0.74958900  0.20230000  0.82396900  1
  H  H1  1  0.79770000  0.25041100  0.67603100  1
  H  H2  1  0.25041100  0.79770000  0.17603100  1
  H  H3  1  0.20230000  0.74958900  0.32396900  1
  Se  Se0  1  0.27172700  0.96934500  0.43032800  1
  Se  Se1  1  0.03065500  0.72827300  0.06967200  1
  Se  Se2  1  0.72827300  0.03065500  0.56967200  1
  Se  Se3  1  0.96934500  0.27172700  0.93032800  1
  O  O0  1  0.50292200  0.77116600  0.50281700  1
  O  O1  1  0.22883400  0.49707800  0.99718300  1
  O  O2  1  0.49707800  0.22883400  0.49718300  1
  O  O3  1  0.77116600  0.50292200  0.00281700  1
  O  O4  1  0.78815000  0.58584500  0.59899900  1
  O  O5  1  0.41415500  0.21185000  0.90100100  1
  O  O6  1  0.21185000  0.41415500  0.40100100  1
  O  O7  1  0.58584500  0.78815000  0.09899900  1
  O  O8  1  0.01744700  0.22904700  0.49179200  1
  O  O9  1  0.77095300  0.98255300  0.00820800  1
  O  O10  1  0.98255300  0.77095300  0.50820800  1
  O  O11  1  0.22904700  0.01744700  0.99179200  1
  O  O12  1  0.21977300  0.78022700  0.75000000  1
  O  O13  1  0.78022700  0.21977300  0.25000000  1
  O  O14  1  0.67154700  0.32845300  0.75000000  1
  O  O15  1  0.32845300  0.67154700  0.25000000  1
  O  O16  1  0.50144300  0.63466600  0.84862000  1
  O  O17  1  0.36533400  0.49855700  0.65138000  1
  O  O18  1  0.49855700  0.36533400  0.15138000  1
  O  O19  1  0.63466600  0.50144300  0.34862000  1
  O  O20  1  0.38714900  0.05829200  0.28105900  1
  O  O21  1  0.94170800  0.61285100  0.21894100  1
  O  O22  1  0.61285100  0.94170800  0.71894100  1
  O  O23  1  0.05829200  0.38714900  0.78105900  1
  O  O24  1  0.26775700  0.06287300  0.66126200  1
  O  O25  1  0.93712700  0.73224300  0.83873800  1
  O  O26  1  0.73224300  0.93712700  0.33873800  1
  O  O27  1  0.06287300  0.26775700  0.16126200  1
loop_
_geom_bond_atom_site_label_1
_geom_bond_atom_site_label_2
_geom_bond_distance
_geom_bond_site_symmetry_2
In0 O21 2.118365 1_555
In0 O6 2.176793 1_655
In0 O0 2.184804 1_555
In0 O8 2.187634 1_655
In0 O26 2.210697 1_555
In0 O4 2.235621 1_555
In1 O20 2.118365 1_555
In1 O7 2.176793 1_545
In1 O1 2.184804 1_554
In1 O9 2.187634 1_545
In1 O27 2.210697 1_555
In1 O5 2.235621 1_554
In2 O23 2.118365 1_555
In2 O4 2.176793 1_455
In2 O2 2.184804 1_555
In2 O10 2.187634 1_455
In2 O24 2.210697 1_555
In2 O6 2.235621 1_555
In3 O22 2.118365 1_555
In3 O5 2.176793 1_565
In3 O3 2.184804 1_556
In3 O11 2.187634 1_565
In3 O25 2.210697 1_555
In3 O7 2.235621 1_556
Mo0 O16 1.730931 1_555
Mo0 O24 1.768631 1_565
Mo0 O4 1.904599 1_555
Mo0 O12 1.943653 1_555
Mo0 O0 2.390049 1_555
Mo0 O14 2.516965 1_555
Mo1 O17 1.730931 1_555
Mo1 O25 1.768631 1_455
Mo1 O5 1.904599 1_555
Mo1 O12 1.943653 1_555
Mo1 O1 2.390049 1_555
Mo1 O14 2.516965 1_555
Mo2 O18 1.730935 1_555
Mo2 O26 1.768634 1_545
Mo2 O6 1.904605 1_555
Mo2 O13 1.943643 1_555
Mo2 O2 2.390044 1_555
Mo2 O15 2.516960 1_555
Mo3 O19 1.730931 1_555
Mo3 O27 1.768631 1_655
Mo3 O7 1.904599 1_555
Mo3 O13 1.943653 1_555
Mo3 O3 2.390049 1_555
Mo3 O15 2.516965 1_555
H0 O14 0.989311 1_555
H1 O14 0.989311 1_555
H2 O15 0.989311 1_555
H3 O15 0.989311 1_555
O0 Se0 1.772913 1_555
O1 Se1 1.772913 1_556
O2 Se2 1.772913 1_555
O3 Se3 1.772913 1_554
O8 Se0 1.725448 1_545
O9 Se1 1.725448 1_655
O10 Se2 1.725448 1_565
O11 Se3 1.725448 1_455
O20 Se0 1.715805 1_545
O21 Se1 1.715805 1_655
O22 Se2 1.715805 1_565
O23 Se3 1.715805 1_455
