# generated using pymatgen
data_In9Sn4S17
_symmetry_space_group_name_H-M   'P 1'
_cell_length_a   3.88636800
_cell_length_b   15.39342500
_cell_length_c   22.83683900
_cell_angle_alpha   90.00000000
_cell_angle_beta   90.00000000
_cell_angle_gamma   90.00000000
_symmetry_Int_Tables_number   1
_chemical_formula_structural   In9Sn4S17
_chemical_formula_sum   'In18 Sn8 S34'
_cell_volume   1366.20280202
_cell_formula_units_Z   2
loop_
 _symmetry_equiv_pos_site_id
 _symmetry_equiv_pos_as_xyz
  1  'x, y, z'
loop_
 _atom_site_type_symbol
 _atom_site_label
 _atom_site_symmetry_multiplicity
 _atom_site_fract_x
 _atom_site_fract_y
 _atom_site_fract_z
 _atom_site_occupancy
  In  In0  1  0.00000000  0.05162700  0.42058400  1
  In  In1  1  0.00000000  0.94837300  0.57941600  1
  In  In2  1  0.00000000  0.44837300  0.92058400  1
  In  In3  1  0.00000000  0.55162700  0.07941600  1
  In  In4  1  0.50000000  0.27077800  0.38924200  1
  In  In5  1  0.50000000  0.72922200  0.61075800  1
  In  In6  1  0.50000000  0.22922200  0.88924200  1
  In  In7  1  0.50000000  0.77077800  0.11075800  1
  In  In8  1  0.00000000  0.16851600  0.25915700  1
  In  In9  1  0.00000000  0.83148400  0.74084300  1
  In  In10  1  0.00000000  0.33148400  0.75915700  1
  In  In11  1  0.00000000  0.66851600  0.24084300  1
  In  In12  1  0.50000000  0.06722600  0.13619500  1
  In  In13  1  0.50000000  0.93277400  0.86380500  1
  In  In14  1  0.50000000  0.43277400  0.63619500  1
  In  In15  1  0.50000000  0.56722600  0.36380500  1
  In  In16  1  0.00000000  0.00000000  0.00000000  1
  In  In17  1  0.00000000  0.50000000  0.50000000  1
  Sn  Sn0  1  0.50000000  0.40968000  0.21624700  1
  Sn  Sn1  1  0.50000000  0.59032000  0.78375300  1
  Sn  Sn2  1  0.50000000  0.09032000  0.71624700  1
  Sn  Sn3  1  0.50000000  0.90968000  0.28375300  1
  Sn  Sn4  1  0.50000000  0.29534200  0.06424200  1
  Sn  Sn5  1  0.50000000  0.70465800  0.93575800  1
  Sn  Sn6  1  0.50000000  0.20465800  0.56424200  1
  Sn  Sn7  1  0.50000000  0.79534200  0.43575800  1
  S  S0  1  0.00000000  0.01957600  0.21017800  1
  S  S1  1  0.00000000  0.98042400  0.78982200  1
  S  S2  1  0.00000000  0.48042400  0.71017800  1
  S  S3  1  0.00000000  0.51957600  0.28982200  1
  S  S4  1  0.00000000  0.21145700  0.45968100  1
  S  S5  1  0.00000000  0.78854300  0.54031900  1
  S  S6  1  0.00000000  0.28854300  0.95968100  1
  S  S7  1  0.00000000  0.71145700  0.04031900  1
  S  S8  1  0.50000000  0.22302700  0.19155900  1
  S  S9  1  0.50000000  0.77697300  0.80844100  1
  S  S10  1  0.50000000  0.27697300  0.69155900  1
  S  S11  1  0.50000000  0.72302700  0.30844100  1
  S  S12  1  0.50000000  0.43255100  0.43346300  1
  S  S13  1  0.50000000  0.56744900  0.56653700  1
  S  S14  1  0.50000000  0.06744900  0.93346300  1
  S  S15  1  0.50000000  0.93255100  0.06653700  1
  S  S16  1  0.50000000  0.00000000  0.50000000  1
  S  S17  1  0.50000000  0.50000000  0.00000000  1
  S  S18  1  0.00000000  0.13384100  0.07036300  1
  S  S19  1  0.00000000  0.86615900  0.92963700  1
  S  S20  1  0.00000000  0.36615900  0.57036300  1
  S  S21  1  0.00000000  0.63384100  0.42963700  1
  S  S22  1  0.00000000  0.31009000  0.31675100  1
  S  S23  1  0.00000000  0.68991000  0.68324900  1
  S  S24  1  0.00000000  0.18991000  0.81675100  1
  S  S25  1  0.00000000  0.81009000  0.18324900  1
  S  S26  1  0.00000000  0.39591000  0.12748500  1
  S  S27  1  0.00000000  0.60409000  0.87251500  1
  S  S28  1  0.00000000  0.10409000  0.62748500  1
  S  S29  1  0.00000000  0.89591000  0.37251500  1
  S  S30  1  0.50000000  0.10067500  0.34127200  1
  S  S31  1  0.50000000  0.89932500  0.65872800  1
  S  S32  1  0.50000000  0.39932500  0.84127200  1
  S  S33  1  0.50000000  0.60067500  0.15872800  1
loop_
_geom_bond_atom_site_label_1
_geom_bond_atom_site_label_2
_geom_bond_distance
_geom_bond_site_symmetry_2
In0 S4 2.617330 1_555
In0 S29 2.636425 1_545
In0 S30 2.761628 1_455
In0 S30 2.761628 1_555
In0 S16 2.774296 1_455
In0 S16 2.774296 1_555
In1 S5 2.617330 1_555
In1 S28 2.636425 1_565
In1 S31 2.761628 1_555
In1 S31 2.761628 1_455
In1 S16 2.774296 1_465
In1 S16 2.774296 1_565
In2 S6 2.617330 1_555
In2 S27 2.636425 1_555
In2 S32 2.761628 1_455
In2 S32 2.761628 1_555
In2 S17 2.774296 1_456
In2 S17 2.774296 1_556
In3 S7 2.617330 1_555
In3 S26 2.636425 1_555
In3 S33 2.761628 1_455
In3 S33 2.761628 1_555
In3 S17 2.774296 1_455
In3 S17 2.774296 1_555
In4 S22 2.623496 1_555
In4 S22 2.623496 1_655
In4 S4 2.682801 1_655
In4 S4 2.682801 1_555
In4 S12 2.687216 1_555
In4 S30 2.838390 1_555
In5 S23 2.623496 1_555
In5 S23 2.623496 1_655
In5 S5 2.682801 1_555
In5 S5 2.682801 1_655
In5 S13 2.687216 1_555
In5 S31 2.838390 1_555
In6 S24 2.623496 1_555
In6 S24 2.623496 1_655
In6 S6 2.682801 1_555
In6 S6 2.682801 1_655
In6 S14 2.687216 1_555
In6 S32 2.838390 1_555
In7 S25 2.623496 1_555
In7 S25 2.623496 1_655
In7 S7 2.682801 1_555
In7 S7 2.682801 1_655
In7 S15 2.687216 1_555
In7 S33 2.838390 1_555
In8 S22 2.545449 1_555
In8 S0 2.550991 1_555
In8 S8 2.619763 1_455
In8 S8 2.619763 1_555
In8 S30 2.895356 1_555
In8 S30 2.895356 1_455
In9 S23 2.545449 1_555
In9 S1 2.550991 1_555
In9 S9 2.619763 1_555
In9 S9 2.619763 1_455
In9 S31 2.895356 1_455
In9 S31 2.895356 1_555
In10 S24 2.545449 1_555
In10 S2 2.550991 1_555
In10 S10 2.619763 1_455
In10 S10 2.619763 1_555
In10 S32 2.895356 1_455
In10 S32 2.895356 1_555
In11 S25 2.545449 1_555
In11 S3 2.550991 1_555
In11 S11 2.619763 1_555
In11 S11 2.619763 1_455
In11 S33 2.895356 1_555
In11 S33 2.895356 1_455
In12 S15 2.613107 1_545
In12 S18 2.662268 1_655
In12 S18 2.662268 1_555
In12 S0 2.677409 1_655
In12 S0 2.677409 1_555
In12 S8 2.711171 1_555
In13 S14 2.613107 1_565
In13 S19 2.662268 1_655
In13 S19 2.662268 1_555
In13 S1 2.677409 1_655
In13 S1 2.677409 1_555
In13 S9 2.711171 1_555
In14 S13 2.613107 1_555
In14 S20 2.662268 1_555
In14 S20 2.662268 1_655
In14 S2 2.677409 1_555
In14 S2 2.677409 1_655
In14 S10 2.711171 1_555
In15 S12 2.613107 1_555
In15 S21 2.662268 1_555
In15 S21 2.662268 1_655
In15 S3 2.677409 1_655
In15 S3 2.677409 1_555
In15 S11 2.711171 1_555
In16 S19 2.612804 1_544
In16 S18 2.612804 1_555
In16 S14 2.676347 1_454
In16 S14 2.676347 1_554
In16 S15 2.676347 1_445
In16 S15 2.676347 1_545
In17 S20 2.612804 1_555
In17 S21 2.612804 1_555
In17 S13 2.676347 1_455
In17 S13 2.676347 1_555
In17 S12 2.676347 1_555
In17 S12 2.676347 1_455
S0 Sn3 3.075853 1_445
S0 Sn3 3.075853 1_545
S1 Sn2 3.075853 1_465
S1 Sn2 3.075853 1_565
S2 Sn1 3.075853 1_455
S2 Sn1 3.075853 1_555
S3 Sn0 3.075853 1_455
S3 Sn0 3.075853 1_555
S4 Sn6 3.080375 1_555
S4 Sn6 3.080375 1_455
S5 Sn7 3.080375 1_455
S5 Sn7 3.080375 1_555
S6 Sn4 3.080375 1_456
S6 Sn4 3.080375 1_556
S7 Sn5 3.080375 1_554
S7 Sn5 3.080375 1_454
S8 Sn0 2.928022 1_555
S8 Sn4 3.113329 1_555
S9 Sn1 2.928022 1_555
S9 Sn5 3.113329 1_555
S10 Sn2 2.928022 1_555
S10 Sn6 3.113329 1_555
S11 Sn3 2.928022 1_555
S11 Sn7 3.113329 1_555
S18 Sn4 3.158475 1_555
S18 Sn4 3.158475 1_455
S19 Sn5 3.158475 1_455
S19 Sn5 3.158475 1_555
S20 Sn6 3.158475 1_455
S20 Sn6 3.158475 1_555
S21 Sn7 3.158475 1_455
S21 Sn7 3.158475 1_555
S26 Sn0 2.815990 1_455
S26 Sn0 2.815990 1_555
S26 Sn4 2.873752 1_555
S26 Sn4 2.873752 1_455
S27 Sn1 2.815990 1_555
S27 Sn1 2.815990 1_455
S27 Sn5 2.873752 1_455
S27 Sn5 2.873752 1_555
S28 Sn2 2.815990 1_455
S28 Sn2 2.815990 1_555
S28 Sn6 2.873752 1_455
S28 Sn6 2.873752 1_555
S29 Sn3 2.815990 1_555
S29 Sn3 2.815990 1_455
S29 Sn7 2.873752 1_455
S29 Sn7 2.873752 1_555
