# generated using pymatgen
data_V2FeSe4
_symmetry_space_group_name_H-M   'P 1'
_cell_length_a   6.81853896
_cell_length_b   6.81853896
_cell_length_c   6.18588388
_cell_angle_alpha   64.45132228
_cell_angle_beta   64.45132228
_cell_angle_gamma   28.49083069
_symmetry_Int_Tables_number   1
_chemical_formula_structural   V2FeSe4
_chemical_formula_sum   'V2 Fe1 Se4'
_cell_volume   122.85966740
_cell_formula_units_Z   1
loop_
 _symmetry_equiv_pos_site_id
 _symmetry_equiv_pos_as_xyz
  1  'x, y, z'
loop_
 _atom_site_type_symbol
 _atom_site_label
 _atom_site_symmetry_multiplicity
 _atom_site_fract_x
 _atom_site_fract_y
 _atom_site_fract_z
 _atom_site_occupancy
  V  V0  1  0.74500300  0.74500300  0.31539700  1
  V  V1  1  0.25499700  0.25499700  0.68460300  1
  Fe  Fe0  1  0.00000000  0.00000000  0.00000000  1
  Se  Se0  1  0.89501500  0.89501500  0.44318200  1
  Se  Se1  1  0.10498500  0.10498500  0.55681800  1
  Se  Se2  1  0.63959100  0.63959100  0.02503800  1
  Se  Se3  1  0.36040900  0.36040900  0.97496200  1
loop_
_geom_bond_atom_site_label_1
_geom_bond_atom_site_label_2
_geom_bond_distance
_geom_bond_site_symmetry_2
Fe0 Se0 2.460856 1_445
Fe0 Se1 2.460856 1_554
Fe0 Se2 2.549095 1_455
Fe0 Se2 2.549095 1_545
Fe0 Se3 2.549095 1_544
Fe0 Se3 2.549095 1_454
Se0 V0 2.439513 1_555
Se0 V1 2.451748 1_565
Se0 V1 2.451748 1_655
Se1 V1 2.439513 1_555
Se1 V0 2.451748 1_455
Se1 V0 2.451748 1_545
Se2 V1 2.591947 1_654
Se2 V1 2.591947 1_564
Se2 V0 2.719276 1_555
Se3 V0 2.591947 1_546
Se3 V0 2.591947 1_456
Se3 V1 2.719276 1_555
