# generated using pymatgen
data_Sr3Mn2O7
_symmetry_space_group_name_H-M   'P 1'
_cell_length_a   3.88005279
_cell_length_b   3.88005215
_cell_length_c   10.50390485
_cell_angle_alpha   100.64339291
_cell_angle_beta   100.64339295
_cell_angle_gamma   90.00000238
_symmetry_Int_Tables_number   1
_chemical_formula_structural   Sr3Mn2O7
_chemical_formula_sum   'Sr3 Mn2 O7'
_cell_volume   152.64461828
_cell_formula_units_Z   1
loop_
 _symmetry_equiv_pos_site_id
 _symmetry_equiv_pos_as_xyz
  1  'x, y, z'
loop_
 _atom_site_type_symbol
 _atom_site_label
 _atom_site_symmetry_multiplicity
 _atom_site_fract_x
 _atom_site_fract_y
 _atom_site_fract_z
 _atom_site_occupancy
  Sr  Sr0  1  0.49999900  0.50000000  0.00000000  1
  Sr  Sr1  1  0.31703100  0.31703300  0.63406400  1
  Sr  Sr2  1  0.68296900  0.68296700  0.36593500  1
  Mn  Mn0  1  0.09730900  0.09730900  0.19461700  1
  Mn  Mn1  1  0.90269100  0.90269100  0.80538300  1
  O  O0  1  0.90423000  0.40423100  0.80846200  1
  O  O1  1  0.40423100  0.90423100  0.80846200  1
  O  O2  1  0.09577000  0.59576900  0.19153800  1
  O  O3  1  0.59576900  0.09576900  0.19153800  1
  O  O4  1  0.80738000  0.80738200  0.61476200  1
  O  O5  1  0.00000000  0.00000000  0.00000000  1
  O  O6  1  0.19261800  0.19261800  0.38523800  1
loop_
_geom_bond_atom_site_label_1
_geom_bond_atom_site_label_2
_geom_bond_distance
_geom_bond_site_symmetry_2
Mn0 O6 1.932756 1_555
Mn0 O2 1.940275 1_555
Mn0 O3 1.940276 1_555
Mn0 O2 1.940279 1_545
Mn0 O3 1.940280 1_455
Mn0 O5 1.973273 1_555
Mn1 O4 1.932756 1_555
Mn1 O0 1.940275 1_555
Mn1 O1 1.940276 1_555
Mn1 O0 1.940279 1_565
Mn1 O1 1.940280 1_655
Mn1 O5 1.973273 1_666
O0 Sr1 2.624970 1_655
O0 Sr1 2.624970 1_555
O0 Sr0 2.745046 1_556
O0 Sr0 2.745046 1_656
O1 Sr1 2.624967 1_555
O1 Sr1 2.624973 1_565
O1 Sr0 2.745045 1_566
O1 Sr0 2.745045 1_556
O2 Sr2 2.624962 1_455
O2 Sr2 2.624965 1_555
O2 Sr0 2.745040 1_555
O2 Sr0 2.745051 1_455
O3 Sr2 2.624962 1_555
O3 Sr2 2.624965 1_545
O3 Sr0 2.745045 1_545
O3 Sr0 2.745045 1_555
O4 Sr2 2.522922 1_555
O4 Sr1 2.750583 1_665
O4 Sr1 2.750583 1_555
O4 Sr1 2.750583 1_565
O4 Sr1 2.750583 1_655
O5 Sr0 2.743609 1_555
O5 Sr0 2.743609 1_545
O5 Sr0 2.743614 1_445
O5 Sr0 2.743614 1_455
O6 Sr1 2.522912 1_555
O6 Sr2 2.750575 1_445
O6 Sr2 2.750578 1_455
O6 Sr2 2.750589 1_545
O6 Sr2 2.750592 1_555
