# generated using pymatgen
data_Zn5SeS4
_symmetry_space_group_name_H-M   'P 1'
_cell_length_a   13.87257636
_cell_length_b   13.87257636
_cell_length_c   13.87257636
_cell_angle_alpha   164.05519107
_cell_angle_beta   164.05519107
_cell_angle_gamma   22.62335043
_symmetry_Int_Tables_number   1
_chemical_formula_structural   Zn5SeS4
_chemical_formula_sum   'Zn5 Se1 S4'
_cell_volume   201.43771888
_cell_formula_units_Z   1
loop_
 _symmetry_equiv_pos_site_id
 _symmetry_equiv_pos_as_xyz
  1  'x, y, z'
loop_
 _atom_site_type_symbol
 _atom_site_label
 _atom_site_symmetry_multiplicity
 _atom_site_fract_x
 _atom_site_fract_y
 _atom_site_fract_z
 _atom_site_occupancy
  Zn  Zn0  1  0.30440483  0.30440483  -0.00000000  1
  Zn  Zn1  1  0.69559517  0.69559517  0.00000000  1
  Zn  Zn2  1  0.09769493  0.09769493  -0.00000000  1
  Zn  Zn3  1  0.50000000  0.50000000  0.00000000  1
  Zn  Zn4  1  0.90230507  0.90230507  0.00000000  1
  Se  Se0  1  0.25000000  0.75000000  0.50000000  1
  S  S0  1  0.64659232  0.14659232  0.50000000  1
  S  S1  1  0.04884743  0.54884743  0.50000000  1
  S  S2  1  0.45115257  0.95115257  0.50000000  1
  S  S3  1  0.85340768  0.35340768  0.50000000  1
loop_
_geom_bond_atom_site_label_1
_geom_bond_atom_site_label_2
_geom_bond_distance
_geom_bond_site_symmetry_2
Se0 Zn1 2.427529 1_455
Se0 Zn1 2.427529 1_556
Se0 Zn0 2.427529 1_566
Se0 Zn0 2.427529 1_555
S0 Zn2 2.339185 1_656
S0 Zn2 2.339185 1_555
S0 Zn1 2.340818 1_545
S0 Zn1 2.340818 1_556
S1 Zn3 2.338412 1_556
S1 Zn3 2.338412 1_455
S1 Zn2 2.338413 1_566
S1 Zn2 2.338413 1_555
S2 Zn3 2.338412 1_555
S2 Zn3 2.338412 1_566
S2 Zn4 2.338413 1_455
S2 Zn4 2.338413 1_556
S3 Zn4 2.339185 1_545
S3 Zn4 2.339185 1_556
S3 Zn0 2.340818 1_555
S3 Zn0 2.340818 1_656
