# generated using pymatgen
data_BaMg14Mn
_symmetry_space_group_name_H-M   'P 1'
_cell_length_a   6.61631177
_cell_length_b   6.45379031
_cell_length_c   10.48461701
_cell_angle_alpha   90.00000000
_cell_angle_beta   90.00000000
_cell_angle_gamma   119.19071605
_symmetry_Int_Tables_number   1
_chemical_formula_structural   BaMg14Mn
_chemical_formula_sum   'Ba1 Mg14 Mn1'
_cell_volume   390.83925973
_cell_formula_units_Z   1
loop_
 _symmetry_equiv_pos_site_id
 _symmetry_equiv_pos_as_xyz
  1  'x, y, z'
loop_
 _atom_site_type_symbol
 _atom_site_label
 _atom_site_symmetry_multiplicity
 _atom_site_fract_x
 _atom_site_fract_y
 _atom_site_fract_z
 _atom_site_occupancy
  Ba  Ba0  1  0.14976416  0.82488158  0.12500000  1
  Mg  Mg0  1  0.16117660  0.33058780  0.62500000  1
  Mg  Mg1  1  0.16892756  0.83446328  0.62500000  1
  Mg  Mg2  1  0.64754280  0.33344525  0.12500000  1
  Mg  Mg3  1  0.66442599  0.32640460  0.62500000  1
  Mg  Mg4  1  0.64754280  0.81409655  0.12500000  1
  Mg  Mg5  1  0.66442599  0.83802039  0.62500000  1
  Mg  Mg6  1  0.34051207  0.18081844  0.38456019  1
  Mg  Mg7  1  0.34051207  0.18081844  0.86543981  1
  Mg  Mg8  1  0.34051207  0.65969463  0.38456019  1
  Mg  Mg9  1  0.34051207  0.65969463  0.86543981  1
  Mg  Mg10  1  0.84798201  0.17399150  0.35862673  1
  Mg  Mg11  1  0.84798201  0.17399150  0.89137327  1
  Mg  Mg12  1  0.82463675  0.66231887  0.39389348  1
  Mg  Mg13  1  0.82463675  0.66231887  0.85610652  1
  Mn  Mn0  1  0.18890831  0.34445365  0.12500000  1
loop_
_geom_bond_atom_site_label_1
_geom_bond_atom_site_label_2
_geom_bond_distance
_geom_bond_site_symmetry_2
Ba0 Mn0 3.234806 1_565
Ba0 Mn0 3.234807 1_555
Ba0 Mg2 3.289467 1_455
Ba0 Mg4 3.289467 1_455
Ba0 Mg2 3.327960 1_565
Ba0 Mg4 3.327961 1_555
Ba0 Mg8 3.383438 1_555
Ba0 Mg9 3.383438 1_554
Ba0 Mg7 3.383444 1_564
Ba0 Mg6 3.383444 1_565
Ba0 Mg13 3.387454 1_454
Ba0 Mg12 3.387454 1_455
Mg0 Mg6 3.133034 1_555
Mg0 Mg7 3.133034 1_555
Mg0 Mg8 3.133040 1_555
Mg0 Mg9 3.133040 1_555
Mg0 Mg1 3.227206 1_555
Mg0 Mg1 3.227206 1_545
Mg0 Mg5 3.273574 1_445
Mg0 Mg3 3.273575 1_455
Mg0 Mg10 3.327526 1_455
Mg0 Mg11 3.327526 1_455
Mg0 Mg5 3.342905 1_555
Mg0 Mg3 3.342905 1_555
Mg1 Mg13 3.134633 1_455
Mg1 Mg12 3.134633 1_455
Mg1 Mg8 3.188271 1_555
Mg1 Mg9 3.188271 1_555
Mg1 Mg6 3.188278 1_565
Mg1 Mg7 3.188278 1_565
Mg1 Mg3 3.267237 1_565
Mg1 Mg5 3.267237 1_555
Mg1 Mg3 3.349196 1_455
Mg1 Mg5 3.349196 1_455
Mg2 Mn0 3.069746 1_555
Mg2 Mg4 3.102023 1_555
Mg2 Mg7 3.248234 1_554
Mg2 Mg6 3.248234 1_555
Mg2 Mg4 3.351768 1_545
Mg2 Mn0 3.547735 1_655
Mg3 Mg6 3.141118 1_555
Mg3 Mg7 3.141118 1_555
Mg3 Mg5 3.151929 1_545
Mg3 Mg5 3.301861 1_555
Mg4 Mn0 3.069746 1_555
Mg4 Mg9 3.248234 1_554
Mg4 Mg8 3.248234 1_555
Mg4 Mn0 3.547734 1_665
Mg5 Mg8 3.141117 1_555
Mg5 Mg9 3.141117 1_555
Mg6 Mg8 3.090567 1_555
Mg6 Mn0 3.249714 1_555
Mg6 Mg8 3.363224 1_545
Mg7 Mg9 3.090567 1_555
Mg7 Mn0 3.249714 1_556
Mg7 Mg9 3.363224 1_545
Mg8 Mn0 3.249720 1_555
Mg9 Mn0 3.249720 1_556
Mg10 Mn0 3.142890 1_655
Mg10 Mg2 3.185738 1_555
Mg10 Mg4 3.185745 1_545
Mg10 Mg8 3.248870 1_655
Mg10 Mg6 3.248870 1_655
Mg10 Mg12 3.250809 1_545
Mg10 Mg12 3.250809 1_555
Mg10 Mg3 3.377511 1_555
Mg10 Mg5 3.377517 1_545
Mg10 Mg8 3.390208 1_545
Mg10 Mg6 3.390208 1_555
Mg11 Mn0 3.142890 1_656
Mg11 Mg2 3.185738 1_556
Mg11 Mg4 3.185745 1_546
Mg11 Mg9 3.248870 1_655
Mg11 Mg7 3.248870 1_655
Mg11 Mg13 3.250809 1_545
Mg11 Mg13 3.250809 1_555
Mg11 Mg3 3.377511 1_555
Mg11 Mg5 3.377517 1_545
Mg11 Mg9 3.390208 1_545
Mg11 Mg7 3.390208 1_555
Mg12 Mg5 3.074593 1_555
Mg12 Mg3 3.074600 1_555
Mg12 Mg6 3.196392 1_555
Mg12 Mg8 3.196392 1_555
Mg12 Mg4 3.376402 1_555
Mg12 Mg2 3.376408 1_555
Mg12 Mg6 3.422883 1_665
Mg12 Mg8 3.422883 1_655
Mg13 Mg5 3.074593 1_555
Mg13 Mg3 3.074600 1_555
Mg13 Mg7 3.196392 1_555
Mg13 Mg9 3.196392 1_555
Mg13 Mg4 3.376402 1_556
Mg13 Mg2 3.376408 1_556
Mg13 Mg7 3.422883 1_665
Mg13 Mg9 3.422883 1_655
