# generated using pymatgen
data_Li4Cr3Cu(PO4)4
_symmetry_space_group_name_H-M   'P 1'
_cell_length_a   6.24362500
_cell_length_b   4.76901400
_cell_length_c   10.22045214
_cell_angle_alpha   89.96290514
_cell_angle_beta   90.00000000
_cell_angle_gamma   90.00000000
_symmetry_Int_Tables_number   1
_chemical_formula_structural   Li4Cr3Cu(PO4)4
_chemical_formula_sum   'Li4 Cr3 Cu1 P4 O16'
_cell_volume   304.32345524
_cell_formula_units_Z   1
loop_
 _symmetry_equiv_pos_site_id
 _symmetry_equiv_pos_as_xyz
  1  'x, y, z'
loop_
 _atom_site_type_symbol
 _atom_site_label
 _atom_site_symmetry_multiplicity
 _atom_site_fract_x
 _atom_site_fract_y
 _atom_site_fract_z
 _atom_site_occupancy
  Li  Li0  1  0.25599900  0.00373400  0.99532900  1
  Li  Li1  1  0.74400100  0.00373400  0.99532900  1
  Li  Li2  1  0.74464100  0.50010400  0.50293500  1
  Li  Li3  1  0.25535900  0.50010400  0.50293500  1
  Cr  Cr0  1  0.50000000  0.45948500  0.21542000  1
  Cr  Cr1  1  0.00000000  0.53124500  0.78025400  1
  Cr  Cr2  1  0.00000000  0.95675400  0.28263400  1
  Cu  Cu0  1  0.50000000  0.04229400  0.71383500  1
  P  P0  1  0.00000000  0.08407900  0.59587800  1
  P  P1  1  0.00000000  0.41790200  0.09317700  1
  P  P2  1  0.50000000  0.58052600  0.90567800  1
  P  P3  1  0.50000000  0.91706800  0.40629400  1
  O  O0  1  0.00000000  0.19347800  0.45202200  1
  O  O1  1  0.19726900  0.22232400  0.66553900  1
  O  O2  1  0.80273100  0.22232400  0.66553900  1
  O  O3  1  0.50000000  0.24187700  0.39818800  1
  O  O4  1  0.50000000  0.25672500  0.90374900  1
  O  O5  1  0.19863100  0.28354800  0.16122600  1
  O  O6  1  0.80136900  0.28354800  0.16122600  1
  O  O7  1  0.00000000  0.30404400  0.94961400  1
  O  O8  1  0.50000000  0.70162200  0.04873900  1
  O  O9  1  0.70261500  0.71125400  0.83895700  1
  O  O10  1  0.29738500  0.71125400  0.83895700  1
  O  O11  1  0.00000000  0.74202800  0.10035700  1
  O  O12  1  0.00000000  0.75927200  0.60269200  1
  O  O13  1  0.69915500  0.78365600  0.33740600  1
  O  O14  1  0.30084500  0.78365600  0.33740600  1
  O  O15  1  0.50000000  0.80236200  0.54868400  1
loop_
_geom_bond_atom_site_label_1
_geom_bond_atom_site_label_2
_geom_bond_distance
_geom_bond_site_symmetry_2
Li0 O10 2.137629 1_545
Li0 O4 2.156664 1_555
Li0 O8 2.166495 1_546
Li0 O5 2.187878 1_556
Li0 O7 2.196211 1_555
Li0 O11 2.294120 1_546
Li1 O9 2.137629 1_545
Li1 O4 2.156664 1_555
Li1 O8 2.166495 1_546
Li1 O6 2.187878 1_556
Li1 O7 2.196211 1_655
Li1 O11 2.294120 1_646
Li2 O15 2.151845 1_555
Li2 O2 2.155340 1_555
Li2 O13 2.183674 1_555
Li2 O0 2.225329 1_655
Li2 O3 2.235501 1_555
Li2 O12 2.260703 1_655
Li3 O15 2.151845 1_555
Li3 O1 2.155340 1_555
Li3 O14 2.183674 1_555
Li3 O0 2.225329 1_555
Li3 O3 2.235501 1_555
Li3 O12 2.260703 1_555
Cr0 O8 2.057428 1_555
Cr0 O5 2.133528 1_555
Cr0 O6 2.133528 1_555
Cr0 O3 2.136302 1_555
Cr0 O13 2.343735 1_555
Cr0 O14 2.343735 1_555
Cr1 O7 2.041503 1_555
Cr1 O12 2.115039 1_555
Cr1 O9 2.131937 1_455
Cr1 O10 2.131937 1_555
Cr1 O1 2.250407 1_555
Cr1 O2 2.250407 1_455
Cr2 O0 2.067406 1_565
Cr2 O11 2.126430 1_555
Cr2 O13 2.126613 1_455
Cr2 O14 2.126613 1_555
Cr2 O5 2.346083 1_565
Cr2 O6 2.346083 1_465
Cu0 O15 2.039816 1_545
Cu0 O1 2.133743 1_555
Cu0 O2 2.133743 1_555
Cu0 O4 2.194502 1_555
Cu0 O9 2.392798 1_545
Cu0 O10 2.392798 1_545
O0 P0 1.559778 1_555
O1 P0 1.568181 1_555
O2 P0 1.568181 1_655
O3 P3 1.551179 1_545
O4 P2 1.544350 1_555
O5 P1 1.559396 1_555
O6 P1 1.559396 1_655
O7 P1 1.564857 1_556
O8 P2 1.572414 1_554
O9 P2 1.566366 1_555
O10 P2 1.566366 1_555
O11 P1 1.547550 1_555
O12 P0 1.550529 1_565
O13 P3 1.564373 1_555
O14 P3 1.564373 1_555
O15 P3 1.554376 1_555
