# generated using pymatgen
data_Li7Mn5O12
_symmetry_space_group_name_H-M   'P 1'
_cell_length_a   5.08930896
_cell_length_b   15.07506216
_cell_length_c   5.99169773
_cell_angle_alpha   93.96345275
_cell_angle_beta   103.96584038
_cell_angle_gamma   96.85389440
_symmetry_Int_Tables_number   1
_chemical_formula_structural   Li7Mn5O12
_chemical_formula_sum   'Li14 Mn10 O24'
_cell_volume   440.62298148
_cell_formula_units_Z   2
loop_
 _symmetry_equiv_pos_site_id
 _symmetry_equiv_pos_as_xyz
  1  'x, y, z'
loop_
 _atom_site_type_symbol
 _atom_site_label
 _atom_site_symmetry_multiplicity
 _atom_site_fract_x
 _atom_site_fract_y
 _atom_site_fract_z
 _atom_site_occupancy
  Li  Li0  1  0.56270900  0.07882400  0.15058200  1
  Li  Li1  1  0.10376200  0.58786700  0.18266000  1
  Li  Li2  1  0.58047200  0.08096600  0.66835900  1
  Li  Li3  1  0.08623500  0.58576400  0.66498000  1
  Li  Li4  1  0.33337500  0.33334200  0.16665900  1
  Li  Li5  1  0.83332100  0.83336000  0.16652600  1
  Li  Li6  1  0.76415300  0.25346700  0.51440800  1
  Li  Li7  1  0.24862800  0.75546500  0.49614500  1
  Li  Li8  1  0.90235800  0.41321500  0.81885900  1
  Li  Li9  1  0.41824300  0.91117300  0.83711000  1
  Li  Li10  1  0.74050800  0.25283200  0.00377500  1
  Li  Li11  1  0.23802700  0.75386200  0.00562600  1
  Li  Li12  1  0.92606000  0.41387800  0.32932500  1
  Li  Li13  1  0.42869300  0.91276100  0.32749900  1
  Mn  Mn0  1  0.83365800  0.83327100  0.66678100  1
  Mn  Mn1  1  0.49458300  0.49818700  0.99281900  1
  Mn  Mn2  1  0.99016200  0.99845400  0.99894900  1
  Mn  Mn3  1  0.17187300  0.16856500  0.34052700  1
  Mn  Mn4  1  0.67626200  0.66823600  0.33434900  1
  Mn  Mn5  1  0.33344600  0.33337200  0.66675300  1
  Mn  Mn6  1  0.49606700  0.49792700  0.48722800  1
  Mn  Mn7  1  0.99462000  0.99682200  0.49132900  1
  Mn  Mn8  1  0.17057500  0.16862700  0.84599300  1
  Mn  Mn9  1  0.67167300  0.66974900  0.84174900  1
  O  O0  1  0.27262200  0.05043700  0.84507700  1
  O  O1  1  0.74934500  0.54011400  0.80294300  1
  O  O2  1  0.91717800  0.12644100  0.53001700  1
  O  O3  1  0.39309500  0.61608700  0.48760500  1
  O  O4  1  0.27886700  0.04724700  0.34981400  1
  O  O5  1  0.77566600  0.54186500  0.34500300  1
  O  O6  1  0.89070600  0.12477800  0.98752000  1
  O  O7  1  0.38652300  0.61941200  0.98296400  1
  O  O8  1  0.42160900  0.20276300  0.14832500  1
  O  O9  1  0.94846700  0.70290600  0.17940300  1
  O  O10  1  0.24566900  0.46357400  0.18481600  1
  O  O11  1  0.71750600  0.96410600  0.15418000  1
  O  O12  1  0.45052200  0.21594200  0.68995700  1
  O  O13  1  0.95084900  0.71534500  0.68920400  1
  O  O14  1  0.21671500  0.45068500  0.64323000  1
  O  O15  1  0.71689000  0.95155700  0.64514700  1
  O  O16  1  0.60462300  0.37834100  0.50815700  1
  O  O17  1  0.10747300  0.87813400  0.51035100  1
  O  O18  1  0.06262400  0.28817600  0.82587700  1
  O  O19  1  0.55929500  0.78828900  0.82330000  1
  O  O20  1  0.59478700  0.37735900  0.96675500  1
  O  O21  1  0.09146300  0.87796700  0.96742800  1
  O  O22  1  0.07267000  0.28962000  0.36703800  1
  O  O23  1  0.57537500  0.78886600  0.36689800  1
loop_
_geom_bond_atom_site_label_1
_geom_bond_atom_site_label_2
_geom_bond_distance
_geom_bond_site_symmetry_2
Li0 O11 1.983432 1_545
Li0 O0 2.037134 1_554
Li0 O8 2.079847 1_555
Li0 O4 2.117817 1_555
Li0 O6 2.196759 1_554
Li0 O2 2.534559 1_555
Li1 O9 1.989199 1_455
Li1 O3 2.032748 1_555
Li1 O10 2.086725 1_555
Li1 O7 2.115450 1_554
Li1 O5 2.194565 1_455
Li1 O1 2.535909 1_454
Li2 O0 2.117463 1_555
Li2 O4 2.126708 1_555
Li2 O2 2.139453 1_555
Li2 O15 2.153958 1_545
Li2 O6 2.169136 1_555
Li2 O12 2.218227 1_555
Li3 O3 2.115488 1_555
Li3 O7 2.121043 1_555
Li3 O1 2.139552 1_455
Li3 O13 2.154548 1_455
Li3 O5 2.173507 1_455
Li3 O14 2.220900 1_555
Li4 O10 2.066039 1_555
Li4 O8 2.072088 1_555
Li4 O22 2.075065 1_555
Li4 O20 2.076841 1_554
Li4 O18 2.181129 1_554
Li4 O16 2.184901 1_555
Li5 O21 2.063440 1_654
Li5 O23 2.067978 1_555
Li5 O9 2.119222 1_555
Li5 O11 2.124649 1_555
Li5 O19 2.198207 1_554
Li5 O17 2.200428 1_655
Li6 O22 2.018302 1_655
Li6 O18 2.090684 1_655
Li6 O16 2.136394 1_555
Li6 O2 2.151219 1_555
Li6 O12 2.156674 1_555
Li6 O8 2.457458 1_555
Li7 O23 2.023409 1_555
Li7 O17 2.065876 1_555
Li7 O9 2.160320 1_455
Li7 O13 2.173637 1_455
Li7 O19 2.184106 1_555
Li7 O3 2.308670 1_555
Li8 O20 2.015312 1_555
Li8 O16 2.085921 1_555
Li8 O18 2.140447 1_655
Li8 O1 2.149432 1_555
Li8 O14 2.159885 1_655
Li8 O10 2.457866 1_656
Li9 O21 2.026885 1_555
Li9 O19 2.068511 1_555
Li9 O11 2.160863 1_556
Li9 O15 2.173347 1_555
Li9 O17 2.182937 1_555
Li9 O0 2.309467 1_565
Li10 O12 2.083980 1_554
Li10 O8 2.104846 1_555
Li10 O20 2.105641 1_554
Li10 O6 2.163901 1_554
Li10 O18 2.195677 1_654
Li10 O22 2.395006 1_655
Li11 O13 2.091763 1_454
Li11 O21 2.102109 1_554
Li11 O9 2.104022 1_455
Li11 O19 2.207741 1_554
Li11 O7 2.252722 1_554
Li11 O23 2.396609 1_555
Li12 O14 2.085766 1_655
Li12 O22 2.104134 1_655
Li12 O10 2.106036 1_655
Li12 O5 2.163196 1_555
Li12 O16 2.197166 1_555
Li12 O20 2.389589 1_554
Li13 O15 2.099913 1_555
Li13 O23 2.100017 1_555
Li13 O11 2.101045 1_555
Li13 O17 2.210260 1_555
Li13 O4 2.256168 1_565
Li13 O21 2.390956 1_554
Mn0 O17 1.941895 1_655
Mn0 O13 1.944618 1_555
Mn0 O19 1.944999 1_555
Mn0 O15 1.948676 1_555
Mn0 O23 1.971840 1_555
Mn0 O21 1.975054 1_655
Mn1 O20 1.955276 1_555
Mn1 O10 1.956804 1_556
Mn1 O7 1.970967 1_555
Mn1 O1 1.997671 1_555
Mn1 O14 2.240820 1_555
Mn1 O5 2.249187 1_556
Mn2 O11 1.891235 1_556
Mn2 O21 1.955419 1_655
Mn2 O0 2.000328 1_665
Mn2 O6 2.029475 1_565
Mn2 O15 2.250106 1_555
Mn2 O4 2.270858 1_666
Mn3 O22 1.956777 1_555
Mn3 O8 1.959485 1_555
Mn3 O4 1.970159 1_555
Mn3 O2 1.996515 1_455
Mn3 O12 2.241222 1_555
Mn3 O6 2.253368 1_454
Mn4 O9 1.889256 1_555
Mn4 O23 1.957237 1_555
Mn4 O3 2.001555 1_555
Mn4 O5 2.029895 1_555
Mn4 O13 2.257897 1_555
Mn4 O7 2.275299 1_554
Mn5 O14 1.935250 1_555
Mn5 O12 1.937518 1_555
Mn5 O16 1.940622 1_555
Mn5 O18 1.942394 1_555
Mn5 O22 1.974396 1_555
Mn5 O20 1.977507 1_555
Mn6 O5 1.904767 1_555
Mn6 O3 1.915823 1_555
Mn6 O10 1.942569 1_555
Mn6 O16 1.951012 1_555
Mn6 O14 1.973309 1_555
Mn6 O1 2.026197 1_555
Mn7 O17 1.945782 1_655
Mn7 O15 1.948951 1_555
Mn7 O4 1.951467 1_665
Mn7 O2 2.047568 1_565
Mn7 O11 2.152700 1_555
Mn7 O0 2.278219 1_665
Mn8 O6 1.902775 1_455
Mn8 O0 1.914462 1_555
Mn8 O8 1.943100 1_556
Mn8 O18 1.949026 1_555
Mn8 O12 1.976183 1_555
Mn8 O2 2.027607 1_455
Mn9 O19 1.942526 1_555
Mn9 O13 1.951196 1_555
Mn9 O7 1.953557 1_555
Mn9 O1 2.048259 1_555
Mn9 O9 2.154944 1_556
Mn9 O3 2.281204 1_555
