# generated using pymatgen
data_Yb12Ga19Au25
_symmetry_space_group_name_H-M   'P 1'
_cell_length_a   4.57136500
_cell_length_b   13.25564100
_cell_length_c   18.52860500
_cell_angle_alpha   90.00000000
_cell_angle_beta   90.00000000
_cell_angle_gamma   90.00000000
_symmetry_Int_Tables_number   1
_chemical_formula_structural   Yb12Ga19Au25
_chemical_formula_sum   'Yb12 Ga19 Au25'
_cell_volume   1122.76626568
_cell_formula_units_Z   1
loop_
 _symmetry_equiv_pos_site_id
 _symmetry_equiv_pos_as_xyz
  1  'x, y, z'
loop_
 _atom_site_type_symbol
 _atom_site_label
 _atom_site_symmetry_multiplicity
 _atom_site_fract_x
 _atom_site_fract_y
 _atom_site_fract_z
 _atom_site_occupancy
  Yb  Yb0  1  0.00000000  0.29329100  0.24634800  1
  Yb  Yb1  1  0.00000000  0.70670900  0.24634800  1
  Yb  Yb2  1  0.00000000  0.00000000  0.26038500  1
  Yb  Yb3  1  0.50000000  0.50000000  0.50513200  1
  Yb  Yb4  1  0.50000000  0.50000000  0.00769300  1
  Yb  Yb5  1  0.50000000  0.20704800  0.50985600  1
  Yb  Yb6  1  0.50000000  0.79295200  0.50985600  1
  Yb  Yb7  1  0.50000000  0.20234000  0.00627200  1
  Yb  Yb8  1  0.50000000  0.79766000  0.00627200  1
  Yb  Yb9  1  0.00000000  0.00000000  0.75328800  1
  Yb  Yb10  1  0.00000000  0.29801200  0.74835200  1
  Yb  Yb11  1  0.00000000  0.70198800  0.74835200  1
  Ga  Ga0  1  0.50000000  0.00000000  0.91526200  1
  Ga  Ga1  1  0.00000000  0.32588200  0.07337500  1
  Ga  Ga2  1  0.00000000  0.67411800  0.07337500  1
  Ga  Ga3  1  0.00000000  0.14807100  0.89831400  1
  Ga  Ga4  1  0.00000000  0.85192900  0.89831400  1
  Ga  Ga5  1  0.50000000  0.50000000  0.24514100  1
  Ga  Ga6  1  0.50000000  0.16648000  0.68050700  1
  Ga  Ga7  1  0.50000000  0.83352000  0.68050700  1
  Ga  Ga8  1  0.50000000  0.16636800  0.32942900  1
  Ga  Ga9  1  0.50000000  0.83363200  0.32942900  1
  Ga  Ga10  1  0.50000000  0.00000000  0.09137100  1
  Ga  Ga11  1  0.00000000  0.13870400  0.11437500  1
  Ga  Ga12  1  0.00000000  0.86129600  0.11437500  1
  Ga  Ga13  1  0.00000000  0.00000000  0.50861900  1
  Ga  Ga14  1  0.50000000  0.34808700  0.86143200  1
  Ga  Ga15  1  0.50000000  0.65191300  0.86143200  1
  Ga  Ga16  1  0.00000000  0.50000000  0.84584700  1
  Ga  Ga17  1  0.00000000  0.33210900  0.42109700  1
  Ga  Ga18  1  0.00000000  0.66789100  0.42109700  1
  Au  Au0  1  0.00000000  0.34816400  0.93572100  1
  Au  Au1  1  0.00000000  0.65183600  0.93572100  1
  Au  Au2  1  0.50000000  0.14236500  0.19212800  1
  Au  Au3  1  0.50000000  0.85763500  0.19212800  1
  Au  Au4  1  0.50000000  0.15214700  0.81995300  1
  Au  Au5  1  0.50000000  0.84785300  0.81995300  1
  Au  Au6  1  0.50000000  0.36561900  0.35506600  1
  Au  Au7  1  0.50000000  0.63438100  0.35506600  1
  Au  Au8  1  0.50000000  0.36052400  0.14003100  1
  Au  Au9  1  0.50000000  0.63947600  0.14003100  1
  Au  Au10  1  0.00000000  0.50000000  0.15742200  1
  Au  Au11  1  0.50000000  0.50000000  0.76973000  1
  Au  Au12  1  0.50000000  0.36441800  0.64661400  1
  Au  Au13  1  0.50000000  0.63558200  0.64661400  1
  Au  Au14  1  0.00000000  0.50000000  0.33951300  1
  Au  Au15  1  0.50000000  0.00000000  0.41477200  1
  Au  Au16  1  0.00000000  0.13525000  0.39966200  1
  Au  Au17  1  0.00000000  0.86475000  0.39966200  1
  Au  Au18  1  0.00000000  0.13511900  0.61882000  1
  Au  Au19  1  0.00000000  0.86488100  0.61882000  1
  Au  Au20  1  0.00000000  0.34784000  0.55680500  1
  Au  Au21  1  0.00000000  0.65216000  0.55680500  1
  Au  Au22  1  0.00000000  0.50000000  0.66727200  1
  Au  Au23  1  0.00000000  0.00000000  0.00296700  1
  Au  Au24  1  0.50000000  0.00000000  0.59237600  1
loop_
_geom_bond_atom_site_label_1
_geom_bond_atom_site_label_2
_geom_bond_distance
_geom_bond_site_symmetry_2
Ga0 Yb7 3.168198 1_556
Ga0 Yb8 3.168198 1_546
Ga1 Ga11 2.594856 1_555
Ga1 Yb7 3.074415 1_555
Ga1 Yb7 3.074415 1_455
Ga1 Yb0 3.233934 1_555
Ga1 Yb4 3.468789 1_455
Ga1 Yb4 3.468789 1_555
Ga2 Yb8 3.074415 1_455
Ga2 Yb8 3.074415 1_555
Ga2 Yb1 3.233934 1_555
Ga2 Yb4 3.468789 1_455
Ga2 Yb4 3.468789 1_555
Ga3 Yb7 3.121391 1_456
Ga3 Yb7 3.121391 1_556
Ga3 Yb9 3.327635 1_555
Ga3 Yb10 3.416278 1_555
Ga4 Yb8 3.121391 1_556
Ga4 Yb8 3.121391 1_456
Ga4 Yb9 3.327635 1_565
Ga4 Yb11 3.416278 1_555
Ga5 Yb0 3.568301 1_655
Ga5 Yb0 3.568301 1_555
Ga5 Yb1 3.568301 1_655
Ga5 Yb1 3.568301 1_555
Ga6 Yb10 3.137597 1_655
Ga6 Yb10 3.137597 1_555
Ga6 Yb5 3.207328 1_555
Ga6 Yb9 3.451498 1_555
Ga6 Yb9 3.451498 1_655
Ga7 Yb11 3.137597 1_555
Ga7 Yb11 3.137597 1_655
Ga7 Yb6 3.207328 1_555
Ga7 Yb9 3.451498 1_565
Ga7 Yb9 3.451498 1_665
Ga8 Yb0 3.228722 1_555
Ga8 Yb0 3.228722 1_655
Ga8 Yb5 3.386271 1_555
Ga8 Yb2 3.424082 1_555
Ga8 Yb2 3.424082 1_655
Ga9 Yb1 3.228722 1_655
Ga9 Yb1 3.228722 1_555
Ga9 Yb6 3.386271 1_555
Ga9 Yb2 3.424082 1_565
Ga9 Yb2 3.424082 1_665
Ga10 Yb7 3.111286 1_555
Ga10 Yb8 3.111286 1_545
Ga11 Yb7 3.154029 1_555
Ga11 Yb7 3.154029 1_455
Ga11 Yb0 3.190359 1_555
Ga11 Yb2 3.271004 1_555
Ga12 Ga2 2.594856 1_555
Ga12 Yb8 3.154029 1_555
Ga12 Yb8 3.154029 1_455
Ga12 Yb1 3.190359 1_555
Ga12 Yb2 3.271004 1_565
Ga13 Yb6 3.571757 1_545
Ga13 Yb6 3.571757 1_445
Ga13 Yb5 3.571757 1_455
Ga13 Yb5 3.571757 1_555
Ga14 Yb10 3.170941 1_655
Ga14 Yb10 3.170941 1_555
Ga14 Yb7 3.306760 1_556
Ga14 Yb4 3.376266 1_556
Ga15 Yb11 3.170941 1_655
Ga15 Yb11 3.170941 1_555
Ga15 Yb8 3.306760 1_556
Ga15 Yb4 3.376266 1_556
Ga16 Yb11 3.229884 1_555
Ga16 Yb10 3.229884 1_555
Ga17 Yb5 3.267594 1_455
Ga17 Yb5 3.267594 1_555
Ga17 Yb0 3.278487 1_555
Ga18 Yb6 3.267594 1_455
Ga18 Yb6 3.267594 1_555
Ga18 Yb1 3.278487 1_555
Au0 Ga1 2.567582 1_556
Au0 Ga16 2.612263 1_555
Au0 Ga14 2.668149 1_455
Au0 Ga14 2.668149 1_555
Au0 Ga3 2.741424 1_555
Au0 Yb7 3.266435 1_556
Au0 Yb7 3.266435 1_456
Au0 Yb4 3.324691 1_556
Au0 Yb4 3.324691 1_456
Au0 Yb10 3.534764 1_555
Au1 Ga2 2.567582 1_556
Au1 Ga16 2.612263 1_555
Au1 Ga15 2.668149 1_555
Au1 Ga15 2.668149 1_455
Au1 Ga4 2.741424 1_555
Au1 Yb8 3.266435 1_456
Au1 Yb8 3.266435 1_556
Au1 Yb4 3.324691 1_456
Au1 Yb4 3.324691 1_556
Au1 Yb11 3.534764 1_555
Au2 Ga8 2.563816 1_555
Au2 Ga10 2.654536 1_555
Au2 Ga11 2.702256 1_555
Au2 Ga11 2.702256 1_655
Au2 Au8 3.048688 1_555
Au2 Yb0 3.199389 1_555
Au2 Yb0 3.199389 1_655
Au2 Yb2 3.222596 1_555
Au2 Yb2 3.222596 1_655
Au2 Yb7 3.534230 1_555
Au3 Ga9 2.563816 1_555
Au3 Ga10 2.654536 1_565
Au3 Ga12 2.702256 1_555
Au3 Ga12 2.702256 1_655
Au3 Au9 3.048688 1_555
Au3 Yb1 3.199389 1_555
Au3 Yb1 3.199389 1_655
Au3 Yb2 3.222596 1_565
Au3 Yb2 3.222596 1_665
Au3 Yb8 3.534230 1_555
Au4 Ga6 2.590716 1_555
Au4 Ga0 2.680683 1_555
Au4 Ga3 2.708382 1_655
Au4 Ga3 2.708382 1_555
Au4 Ga14 2.708632 1_555
Au4 Yb10 3.274590 1_655
Au4 Yb10 3.274590 1_555
Au4 Yb9 3.289011 1_655
Au4 Yb9 3.289011 1_555
Au4 Yb7 3.515761 1_556
Au5 Ga7 2.590716 1_555
Au5 Ga0 2.680683 1_565
Au5 Ga4 2.708382 1_555
Au5 Ga4 2.708382 1_655
Au5 Ga15 2.708632 1_555
Au5 Yb11 3.274590 1_555
Au5 Yb11 3.274590 1_655
Au5 Yb9 3.289011 1_665
Au5 Yb9 3.289011 1_565
Au5 Yb8 3.515761 1_556
Au6 Ga17 2.630307 1_555
Au6 Ga17 2.630307 1_655
Au6 Ga8 2.683576 1_555
Au6 Ga5 2.705814 1_555
Au6 Yb0 3.193952 1_555
Au6 Yb0 3.193952 1_655
Au6 Yb3 3.302167 1_555
Au6 Yb5 3.555827 1_555
Au7 Ga18 2.630307 1_555
Au7 Ga18 2.630307 1_655
Au7 Ga9 2.683576 1_555
Au7 Ga5 2.705814 1_555
Au7 Yb1 3.193952 1_555
Au7 Yb1 3.193952 1_655
Au7 Yb3 3.302167 1_555
Au7 Yb6 3.555827 1_555
Au8 Ga1 2.638284 1_655
Au8 Ga1 2.638284 1_555
Au8 Ga5 2.685357 1_555
Au8 Yb4 3.070947 1_555
Au8 Yb0 3.146290 1_555
Au8 Yb0 3.146290 1_655
Au8 Yb7 3.246383 1_555
Au9 Ga2 2.638284 1_555
Au9 Ga2 2.638284 1_655
Au9 Ga5 2.685357 1_555
Au9 Yb4 3.070947 1_555
Au9 Yb1 3.146290 1_555
Au9 Yb1 3.146290 1_655
Au9 Yb8 3.246383 1_555
Au10 Ga2 2.784273 1_555
Au10 Ga1 2.784273 1_555
Au10 Ga5 2.804635 1_455
Au10 Ga5 2.804635 1_555
Au10 Au8 2.957431 1_555
Au10 Au8 2.957431 1_455
Au10 Au9 2.957431 1_455
Au10 Au9 2.957431 1_555
Au10 Yb0 3.197305 1_555
Au10 Yb1 3.197305 1_555
Au10 Yb4 3.594568 1_555
Au10 Yb4 3.594568 1_455
Au11 Ga15 2.634764 1_555
Au11 Ga14 2.634764 1_555
Au11 Ga16 2.685779 1_655
Au11 Ga16 2.685779 1_555
Au11 Au12 2.904092 1_555
Au11 Au13 2.904092 1_555
Au11 Yb11 3.542618 1_555
Au11 Yb11 3.542618 1_655
Au11 Yb10 3.542618 1_555
Au11 Yb10 3.542618 1_655
Au12 Ga6 2.697901 1_555
Au12 Au20 2.835780 1_555
Au12 Au20 2.835780 1_655
Au12 Au22 2.932725 1_555
Au12 Au22 2.932725 1_655
Au12 Yb10 3.090737 1_555
Au12 Yb10 3.090737 1_655
Au12 Yb3 3.178380 1_555
Au12 Yb5 3.282132 1_555
Au13 Ga7 2.697901 1_555
Au13 Au21 2.835780 1_555
Au13 Au21 2.835780 1_655
Au13 Au22 2.932725 1_555
Au13 Au22 2.932725 1_655
Au13 Yb11 3.090737 1_555
Au13 Yb11 3.090737 1_655
Au13 Yb3 3.178380 1_555
Au13 Yb6 3.282132 1_555
Au14 Ga17 2.690337 1_555
Au14 Ga18 2.690337 1_555
Au14 Ga5 2.877826 1_555
Au14 Ga5 2.877826 1_455
Au14 Yb0 3.238481 1_555
Au14 Yb1 3.238481 1_555
Au15 Ga9 2.713647 1_545
Au15 Ga8 2.713647 1_555
Au15 Ga13 2.871926 1_655
Au15 Ga13 2.871926 1_555
Au15 Yb5 3.261353 1_555
Au15 Yb6 3.261353 1_545
Au15 Yb2 3.661590 1_655
Au15 Yb2 3.661590 1_555
Au16 Ga17 2.639543 1_555
Au16 Ga8 2.662316 1_555
Au16 Ga8 2.662316 1_455
Au16 Ga13 2.699974 1_555
Au16 Yb2 3.142255 1_555
Au16 Yb5 3.209180 1_455
Au16 Yb5 3.209180 1_555
Au16 Yb0 3.529631 1_555
Au17 Ga18 2.639543 1_555
Au17 Ga9 2.662316 1_555
Au17 Ga9 2.662316 1_455
Au17 Ga13 2.699974 1_565
Au17 Yb2 3.142255 1_565
Au17 Yb6 3.209180 1_555
Au17 Yb6 3.209180 1_455
Au17 Yb1 3.529631 1_555
Au18 Ga6 2.589121 1_555
Au18 Ga6 2.589121 1_455
Au18 Ga13 2.716107 1_555
Au18 Yb9 3.068484 1_555
Au18 Yb5 3.195247 1_455
Au18 Yb5 3.195247 1_555
Au18 Yb10 3.228404 1_555
Au19 Ga7 2.589121 1_555
Au19 Ga7 2.589121 1_455
Au19 Ga13 2.716107 1_565
Au19 Yb9 3.068484 1_565
Au19 Yb6 3.195247 1_555
Au19 Yb6 3.195247 1_455
Au19 Yb11 3.228404 1_555
Au20 Ga17 2.523112 1_555
Au20 Yb5 3.076378 1_455
Au20 Yb5 3.076378 1_555
Au20 Yb3 3.195186 1_455
Au20 Yb3 3.195186 1_555
Au20 Yb10 3.610037 1_555
Au21 Ga18 2.523112 1_555
Au21 Yb6 3.076378 1_455
Au21 Yb6 3.076378 1_555
Au21 Yb3 3.195186 1_555
Au21 Yb3 3.195186 1_455
Au21 Yb11 3.610037 1_555
Au22 Yb11 3.070147 1_555
Au22 Yb10 3.070147 1_555
Au23 Ga4 2.759076 1_544
Au23 Ga3 2.759076 1_554
Au23 Ga12 2.764336 1_545
Au23 Ga11 2.764336 1_555
Au23 Ga0 2.804485 1_554
Au23 Ga0 2.804485 1_454
Au23 Ga10 2.812010 1_555
Au23 Ga10 2.812010 1_455
Au23 Yb8 3.524486 1_445
Au23 Yb8 3.524486 1_545
Au23 Yb7 3.524486 1_555
Au23 Yb7 3.524486 1_455
Au24 Ga7 2.745263 1_545
Au24 Ga6 2.745263 1_555
Au24 Ga13 2.762741 1_655
Au24 Ga13 2.762741 1_555
Au24 Yb5 3.141713 1_555
Au24 Yb6 3.141713 1_545
