# generated using pymatgen
data_Sr2Al7Ge
_symmetry_space_group_name_H-M   'P 1'
_cell_length_a   4.47314100
_cell_length_b   4.47314100
_cell_length_c   11.08781300
_cell_angle_alpha   90.00000000
_cell_angle_beta   90.00000000
_cell_angle_gamma   90.00000000
_symmetry_Int_Tables_number   1
_chemical_formula_structural   Sr2Al7Ge
_chemical_formula_sum   'Sr2 Al7 Ge1'
_cell_volume   221.85594394
_cell_formula_units_Z   1
loop_
 _symmetry_equiv_pos_site_id
 _symmetry_equiv_pos_as_xyz
  1  'x, y, z'
loop_
 _atom_site_type_symbol
 _atom_site_label
 _atom_site_symmetry_multiplicity
 _atom_site_fract_x
 _atom_site_fract_y
 _atom_site_fract_z
 _atom_site_occupancy
  Sr  Sr0  1  0.00000000  0.00000000  0.99921300  1
  Sr  Sr1  1  0.50000000  0.50000000  0.50104500  1
  Al  Al0  1  0.00000000  0.50000000  0.25058000  1
  Al  Al1  1  0.50000000  0.00000000  0.75017100  1
  Al  Al2  1  0.50000000  0.00000000  0.25058000  1
  Al  Al3  1  0.00000000  0.50000000  0.75017100  1
  Al  Al4  1  0.00000000  0.00000000  0.61782600  1
  Al  Al5  1  0.00000000  0.00000000  0.38054900  1
  Al  Al6  1  0.50000000  0.50000000  0.88243500  1
  Ge  Ge0  1  0.50000000  0.50000000  0.11743100  1
loop_
_geom_bond_atom_site_label_1
_geom_bond_atom_site_label_2
_geom_bond_distance
_geom_bond_site_symmetry_2
Al0 Al5 2.660627 1_565
Al0 Al5 2.660627 1_555
Al0 Ge0 2.679888 1_555
Al0 Ge0 2.679888 1_455
Al0 Sr1 3.565751 1_455
Al0 Sr1 3.565751 1_555
Al0 Sr0 3.573546 1_554
Al0 Sr0 3.573546 1_564
Al1 Al6 2.674495 1_545
Al1 Al6 2.674495 1_555
Al1 Al4 2.674988 1_655
Al1 Al4 2.674988 1_555
Al1 Sr0 3.553477 1_555
Al1 Sr0 3.553477 1_655
Al1 Sr1 3.554201 1_555
Al1 Sr1 3.554201 1_545
Al2 Al5 2.660627 1_555
Al2 Al5 2.660627 1_655
Al2 Ge0 2.679888 1_545
Al2 Ge0 2.679888 1_555
Al2 Sr1 3.565751 1_545
Al2 Sr1 3.565751 1_555
Al2 Sr0 3.573546 1_554
Al2 Sr0 3.573546 1_654
Al3 Al6 2.674495 1_555
Al3 Al6 2.674495 1_455
Al3 Al4 2.674988 1_565
Al3 Al4 2.674988 1_555
Al3 Sr0 3.553477 1_555
Al3 Sr0 3.553477 1_565
Al3 Sr1 3.554201 1_555
Al3 Sr1 3.554201 1_455
Al4 Al5 2.630883 1_555
Al4 Sr1 3.417766 1_555
Al4 Sr1 3.417766 1_445
Al4 Sr1 3.417766 1_545
Al4 Sr1 3.417766 1_455
Al5 Sr1 3.433583 1_445
Al5 Sr1 3.433583 1_545
Al5 Sr1 3.433583 1_455
Al5 Sr1 3.433583 1_555
Al6 Ge0 2.605592 1_556
Al6 Sr0 3.417753 1_655
Al6 Sr0 3.417753 1_555
Al6 Sr0 3.417753 1_565
Al6 Sr0 3.417753 1_665
Ge0 Sr0 3.423834 1_654
Ge0 Sr0 3.423834 1_564
Ge0 Sr0 3.423834 1_554
Ge0 Sr0 3.423834 1_664
