# generated using pymatgen
data_CeMg14Sb
_symmetry_space_group_name_H-M   'P 1'
_cell_length_a   6.42162915
_cell_length_b   6.42162863
_cell_length_c   10.55270559
_cell_angle_alpha   90.00000000
_cell_angle_beta   90.00000000
_cell_angle_gamma   120.00000275
_symmetry_Int_Tables_number   1
_chemical_formula_structural   CeMg14Sb
_chemical_formula_sum   'Ce1 Mg14 Sb1'
_cell_volume   376.86416971
_cell_formula_units_Z   1
loop_
 _symmetry_equiv_pos_site_id
 _symmetry_equiv_pos_as_xyz
  1  'x, y, z'
loop_
 _atom_site_type_symbol
 _atom_site_label
 _atom_site_symmetry_multiplicity
 _atom_site_fract_x
 _atom_site_fract_y
 _atom_site_fract_z
 _atom_site_occupancy
  Ce  Ce0  1  0.16666700  0.33333300  0.12500000  1
  Mg  Mg0  1  0.17920419  0.83960159  0.12500000  1
  Mg  Mg1  1  0.15999187  0.82999544  0.62500000  1
  Mg  Mg2  1  0.66039841  0.32079581  0.12500000  1
  Mg  Mg3  1  0.67000456  0.34000813  0.62500000  1
  Mg  Mg4  1  0.66039841  0.83960159  0.12500000  1
  Mg  Mg5  1  0.67000456  0.82999544  0.62500000  1
  Mg  Mg6  1  0.33295502  0.16704498  0.37888988  1
  Mg  Mg7  1  0.33295502  0.16704498  0.87111012  1
  Mg  Mg8  1  0.33295502  0.66591105  0.37888988  1
  Mg  Mg9  1  0.33295502  0.66591105  0.87111012  1
  Mg  Mg10  1  0.83408895  0.16704498  0.37888988  1
  Mg  Mg11  1  0.83408895  0.16704498  0.87111012  1
  Mg  Mg12  1  0.83333300  0.66666700  0.36146935  1
  Mg  Mg13  1  0.83333300  0.66666700  0.88853065  1
  Sb  Sb0  1  0.16666700  0.33333300  0.62500000  1
loop_
_geom_bond_atom_site_label_1
_geom_bond_atom_site_label_2
_geom_bond_distance
_geom_bond_site_symmetry_2
Ce0 Mg0 3.211571 1_555
Ce0 Mg4 3.211571 1_555
Ce0 Mg4 3.211571 1_445
Ce0 Mg0 3.211571 1_545
Ce0 Mg2 3.211571 1_455
Ce0 Mg2 3.211572 1_555
Ce0 Mg7 3.255625 1_554
Ce0 Mg6 3.255625 1_555
Ce0 Mg8 3.255631 1_555
Ce0 Mg9 3.255631 1_554
Ce0 Mg11 3.255631 1_454
Ce0 Mg10 3.255631 1_455
Mg0 Mg2 3.090051 1_565
Mg0 Mg4 3.090051 1_555
Mg0 Mg12 3.150682 1_455
Mg0 Mg13 3.150682 1_454
Mg0 Mg9 3.240120 1_554
Mg0 Mg8 3.240120 1_555
Mg0 Mg7 3.240127 1_564
Mg0 Mg6 3.240127 1_565
Mg0 Mg2 3.331578 1_455
Mg0 Mg4 3.331578 1_455
Mg1 Mg3 3.146517 1_455
Mg1 Mg5 3.146517 1_455
Mg1 Mg8 3.203020 1_555
Mg1 Mg9 3.203020 1_555
Mg1 Mg6 3.203026 1_565
Mg1 Mg7 3.203026 1_565
Mg1 Sb0 3.211029 1_565
Mg1 Sb0 3.211029 1_555
Mg1 Mg3 3.275112 1_565
Mg1 Mg5 3.275112 1_555
Mg1 Mg12 3.321739 1_455
Mg1 Mg13 3.321739 1_455
Mg2 Mg4 3.090051 1_545
Mg2 Mg6 3.240127 1_555
Mg2 Mg7 3.240127 1_554
Mg2 Mg4 3.331578 1_555
Mg3 Mg5 3.146517 1_555
Mg3 Mg6 3.203026 1_555
Mg3 Mg7 3.203026 1_555
Mg3 Sb0 3.211029 1_555
Mg3 Sb0 3.211029 1_655
Mg3 Mg5 3.275112 1_545
Mg4 Mg9 3.240126 1_554
Mg4 Mg8 3.240126 1_555
Mg5 Mg8 3.203026 1_555
Mg5 Mg9 3.203026 1_555
Mg5 Sb0 3.211029 1_665
Mg5 Sb0 3.211029 1_555
Mg6 Sb0 3.188404 1_555
Mg6 Mg8 3.203533 1_555
Mg6 Mg8 3.218096 1_545
Mg7 Sb0 3.188404 1_555
Mg7 Mg9 3.203533 1_555
Mg7 Mg9 3.218096 1_545
Mg8 Sb0 3.188410 1_555
Mg9 Sb0 3.188410 1_555
Mg10 Sb0 3.188410 1_655
Mg10 Mg3 3.203020 1_555
Mg10 Mg5 3.203026 1_545
Mg10 Mg8 3.203533 1_655
Mg10 Mg6 3.203533 1_655
Mg10 Mg12 3.216075 1_555
Mg10 Mg12 3.216075 1_545
Mg10 Mg8 3.218096 1_545
Mg10 Mg6 3.218096 1_555
Mg10 Mg2 3.240120 1_555
Mg10 Mg4 3.240126 1_545
Mg11 Sb0 3.188410 1_655
Mg11 Mg3 3.203020 1_555
Mg11 Mg5 3.203026 1_545
Mg11 Mg9 3.203533 1_655
Mg11 Mg7 3.203533 1_655
Mg11 Mg13 3.216075 1_555
Mg11 Mg13 3.216075 1_545
Mg11 Mg9 3.218096 1_545
Mg11 Mg7 3.218096 1_555
Mg11 Mg2 3.240120 1_556
Mg11 Mg4 3.240126 1_546
Mg12 Mg4 3.150675 1_555
Mg12 Mg2 3.150682 1_555
Mg12 Mg6 3.216075 1_665
Mg12 Mg6 3.216075 1_555
Mg12 Mg8 3.216076 1_655
Mg12 Mg8 3.216076 1_555
Mg12 Mg5 3.321733 1_555
Mg12 Mg3 3.321739 1_555
Mg13 Mg4 3.150675 1_556
Mg13 Mg2 3.150682 1_556
Mg13 Mg7 3.216075 1_665
Mg13 Mg7 3.216075 1_555
Mg13 Mg9 3.216076 1_655
Mg13 Mg9 3.216076 1_555
Mg13 Mg5 3.321733 1_555
Mg13 Mg3 3.321739 1_555
