# generated using pymatgen
data_Pm3Gd
_symmetry_space_group_name_H-M   'P 1'
_cell_length_a   5.14596222
_cell_length_b   5.14595576
_cell_length_c   5.14592566
_cell_angle_alpha   90.00000000
_cell_angle_beta   90.00000000
_cell_angle_gamma   90.00000000
_symmetry_Int_Tables_number   1
_chemical_formula_structural   Pm3Gd
_chemical_formula_sum   'Pm3 Gd1'
_cell_volume   136.26871156
_cell_formula_units_Z   1
loop_
 _symmetry_equiv_pos_site_id
 _symmetry_equiv_pos_as_xyz
  1  'x, y, z'
loop_
 _atom_site_type_symbol
 _atom_site_label
 _atom_site_symmetry_multiplicity
 _atom_site_fract_x
 _atom_site_fract_y
 _atom_site_fract_z
 _atom_site_occupancy
  Pm  Pm0  1  0.50000000  0.00000000  0.50000000  1
  Pm  Pm1  1  -0.00000000  0.50000000  0.50000000  1
  Pm  Pm2  1  0.50000000  0.50000000  0.00000000  1
  Gd  Gd0  1  -0.00000000  0.00000000  0.00000000  1
loop_
_geom_bond_atom_site_label_1
_geom_bond_atom_site_label_2
_geom_bond_distance
_geom_bond_site_symmetry_2
Pm0 Pm2 3.638730 1_545
Pm0 Pm2 3.638730 1_546
Pm0 Pm2 3.638730 1_556
Pm0 Pm2 3.638730 1_555
Pm0 Pm1 3.638742 1_545
Pm0 Pm1 3.638742 1_655
Pm0 Pm1 3.638742 1_555
Pm0 Pm1 3.638742 1_645
Pm1 Pm2 3.638732 1_456
Pm1 Pm2 3.638732 1_455
Pm1 Pm2 3.638732 1_555
Pm1 Pm2 3.638732 1_556
Gd0 Pm1 3.638730 1_554
Gd0 Pm1 3.638730 1_544
Gd0 Pm1 3.638730 1_545
Gd0 Pm1 3.638730 1_555
Gd0 Pm0 3.638732 1_554
Gd0 Pm0 3.638732 1_454
Gd0 Pm0 3.638732 1_455
Gd0 Pm0 3.638732 1_555
Gd0 Pm2 3.638742 1_455
Gd0 Pm2 3.638742 1_555
Gd0 Pm2 3.638742 1_545
Gd0 Pm2 3.638742 1_445
