# generated using pymatgen
data_HoAgTe2
_symmetry_space_group_name_H-M   'P 1'
_cell_length_a   4.64161863
_cell_length_b   7.12925411
_cell_length_c   7.12925411
_cell_angle_alpha   90.00000000
_cell_angle_beta   90.00000000
_cell_angle_gamma   90.00000000
_symmetry_Int_Tables_number   1
_chemical_formula_structural   HoAgTe2
_chemical_formula_sum   'Ho2 Ag2 Te4'
_cell_volume   235.91613464
_cell_formula_units_Z   2
loop_
 _symmetry_equiv_pos_site_id
 _symmetry_equiv_pos_as_xyz
  1  'x, y, z'
loop_
 _atom_site_type_symbol
 _atom_site_label
 _atom_site_symmetry_multiplicity
 _atom_site_fract_x
 _atom_site_fract_y
 _atom_site_fract_z
 _atom_site_occupancy
  Ho  Ho0  1  0.20267325  0.50000000  0.00000000  1
  Ho  Ho1  1  0.79732675  -0.00000000  0.50000000  1
  Ag  Ag0  1  0.00000000  -0.00000000  0.00000000  1
  Ag  Ag1  1  0.00000000  0.50000000  0.50000000  1
  Te  Te0  1  0.28409428  0.20188739  0.70188739  1
  Te  Te1  1  0.71590572  0.70188739  0.79811261  1
  Te  Te2  1  0.28409428  0.79811261  0.29811261  1
  Te  Te3  1  0.71590572  0.29811261  0.20188739  1
loop_
_geom_bond_atom_site_label_1
_geom_bond_atom_site_label_2
_geom_bond_distance
_geom_bond_site_symmetry_2
Ho0 Te2 3.029324 1_555
Ho0 Te0 3.029324 1_554
Ho0 Te3 3.041060 1_455
Ho0 Te1 3.041060 1_454
Ho0 Te3 3.133404 1_555
Ho0 Te1 3.133404 1_554
Ho1 Te1 3.029324 1_545
Ho1 Te3 3.029324 1_555
Ho1 Te0 3.041060 1_655
Ho1 Te2 3.041060 1_645
Ho1 Te2 3.133404 1_545
Ho1 Te0 3.133404 1_555
Ag0 Te0 2.885732 1_554
Ag0 Te1 2.885732 1_444
Ag0 Te2 2.885732 1_545
Ag0 Te3 2.885732 1_455
Ag1 Te0 2.885732 1_555
Ag1 Te2 2.885732 1_555
Ag1 Te3 2.885732 1_455
Ag1 Te1 2.885732 1_455
