# generated using pymatgen
data_Dy11(In3Si2)2
_symmetry_space_group_name_H-M   'P 1'
_cell_length_a   11.43636169
_cell_length_b   11.43636169
_cell_length_c   11.43636169
_cell_angle_alpha   119.98725617
_cell_angle_beta   119.98725617
_cell_angle_gamma   90.02207438
_symmetry_Int_Tables_number   1
_chemical_formula_structural   Dy11(In3Si2)2
_chemical_formula_sum   'Dy22 In12 Si8'
_cell_volume   1057.86989922
_cell_formula_units_Z   2
loop_
 _symmetry_equiv_pos_site_id
 _symmetry_equiv_pos_as_xyz
  1  'x, y, z'
loop_
 _atom_site_type_symbol
 _atom_site_label
 _atom_site_symmetry_multiplicity
 _atom_site_fract_x
 _atom_site_fract_y
 _atom_site_fract_z
 _atom_site_occupancy
  Dy  Dy0  1  0.68652844  0.93687093  0.25034249  1
  Dy  Dy1  1  0.68652844  0.43618596  0.74965751  1
  Dy  Dy2  1  0.93687093  0.68652844  0.25034249  1
  Dy  Dy3  1  0.43618596  0.68652844  0.74965751  1
  Dy  Dy4  1  0.31347156  0.06312907  0.74965751  1
  Dy  Dy5  1  0.31347156  0.56381404  0.25034249  1
  Dy  Dy6  1  0.06312907  0.31347156  0.74965751  1
  Dy  Dy7  1  0.56381404  0.31347156  0.25034249  1
  Dy  Dy8  1  0.89958647  0.24660091  0.34701445  1
  Dy  Dy9  1  0.89958647  0.55257102  0.65298555  1
  Dy  Dy10  1  0.24660091  0.89958647  0.34701445  1
  Dy  Dy11  1  0.55257102  0.89958647  0.65298555  1
  Dy  Dy12  1  0.10041353  0.75339909  0.65298555  1
  Dy  Dy13  1  0.10041353  0.44742898  0.34701445  1
  Dy  Dy14  1  0.75339909  0.10041353  0.65298555  1
  Dy  Dy15  1  0.44742898  0.10041353  0.34701445  1
  Dy  Dy16  1  0.33231242  0.33231242  0.66462383  1
  Dy  Dy17  1  0.66768758  0.66768758  0.33537617  1
  Dy  Dy18  1  0.33231242  0.66768758  0.00000000  1
  Dy  Dy19  1  0.66768758  0.33231242  0.00000000  1
  Dy  Dy20  1  0.83188431  0.83188431  0.00000000  1
  Dy  Dy21  1  0.16811569  0.16811569  0.00000000  1
  In  In0  1  0.03560066  0.03560066  0.41231605  1
  In  In1  1  0.62328561  0.62328561  0.58768395  1
  In  In2  1  0.03560066  0.62328561  0.00000000  1
  In  In3  1  0.62328561  0.03560066  -0.00000000  1
  In  In4  1  0.96439934  0.96439934  0.58768395  1
  In  In5  1  0.37671439  0.37671439  0.41231605  1
  In  In6  1  0.96439934  0.37671439  -0.00000000  1
  In  In7  1  0.37671439  0.96439934  -0.00000000  1
  In  In8  1  0.12835460  0.12835460  0.25671020  1
  In  In9  1  0.87164540  0.87164540  0.74328980  1
  In  In10  1  0.12835460  0.87164540  -0.00000000  1
  In  In11  1  0.87164540  0.12835460  0.00000000  1
  Si  Si0  1  0.15363264  0.50000000  0.65363264  1
  Si  Si1  1  0.84636736  0.50000000  0.34636736  1
  Si  Si2  1  0.50000000  0.84636736  0.34636736  1
  Si  Si3  1  0.50000000  0.15363264  0.65363264  1
  Si  Si4  1  0.62206871  0.62206871  0.00000000  1
  Si  Si5  1  0.37793129  0.37793129  -0.00000000  1
  Si  Si6  1  0.75000000  0.25000000  0.50000000  1
  Si  Si7  1  0.25000000  0.75000000  0.50000000  1
loop_
_geom_bond_atom_site_label_1
_geom_bond_atom_site_label_2
_geom_bond_distance
_geom_bond_site_symmetry_2
Dy0 Si6 3.034562 1_565
Dy0 Si4 3.047365 1_555
Dy0 Si2 3.209998 1_555
Dy0 In0 3.340195 1_665
Dy0 In3 3.340198 1_565
Dy0 In4 3.407561 1_555
Dy0 In7 3.407568 1_555
Dy1 Si6 3.034562 1_555
Dy1 Si4 3.047365 1_556
Dy1 Si3 3.209998 1_555
Dy1 In2 3.340198 1_656
Dy1 In1 3.340206 1_555
Dy1 In5 3.407562 1_555
Dy1 In6 3.407568 1_556
Dy2 Si7 3.034562 1_655
Dy2 Si4 3.047365 1_555
Dy2 Si1 3.209998 1_555
Dy2 In0 3.340195 1_665
Dy2 In2 3.340198 1_655
Dy2 In4 3.407561 1_555
Dy2 In6 3.407568 1_555
Dy3 Si7 3.034562 1_555
Dy3 Si4 3.047365 1_556
Dy3 Si0 3.209998 1_555
Dy3 In3 3.340198 1_566
Dy3 In1 3.340206 1_555
Dy3 In5 3.407562 1_555
Dy3 In7 3.407568 1_556
Dy4 Si7 3.034562 1_545
Dy4 Si5 3.047365 1_556
Dy4 Si3 3.209998 1_555
Dy4 In4 3.340195 1_445
Dy4 In7 3.340198 1_546
Dy4 In0 3.407561 1_555
Dy4 In3 3.407568 1_556
Dy5 Si7 3.034562 1_555
Dy5 Si5 3.047365 1_555
Dy5 Si2 3.209998 1_555
Dy5 In6 3.340198 1_455
Dy5 In5 3.340206 1_555
Dy5 In1 3.407562 1_555
Dy5 In2 3.407568 1_555
Dy6 Si6 3.034562 1_455
Dy6 Si5 3.047365 1_556
Dy6 Si0 3.209998 1_555
Dy6 In4 3.340195 1_445
Dy6 In6 3.340198 1_456
Dy6 In0 3.407561 1_555
Dy6 In2 3.407568 1_556
Dy7 Si6 3.034562 1_555
Dy7 Si5 3.047365 1_555
Dy7 Si1 3.209998 1_555
Dy7 In7 3.340198 1_545
Dy7 In5 3.340206 1_555
Dy7 In1 3.407562 1_555
Dy7 In3 3.407568 1_555
Dy8 Si0 2.964283 1_655
Dy8 Si1 2.964283 1_555
Dy8 Si6 2.985495 1_555
Dy8 In3 3.073000 1_555
Dy8 In0 3.073004 1_655
Dy8 In8 3.323823 1_655
Dy8 In11 3.323828 1_555
Dy9 Si0 2.964281 1_655
Dy9 Si1 2.964288 1_555
Dy9 Si6 2.985485 1_555
Dy9 In2 3.072995 1_656
Dy9 In1 3.073002 1_555
Dy9 In10 3.323834 1_656
Dy9 In9 3.323841 1_555
Dy10 Si3 2.964283 1_565
Dy10 Si2 2.964283 1_555
Dy10 Si7 2.985495 1_555
Dy10 In2 3.073000 1_555
Dy10 In0 3.073004 1_565
Dy10 In8 3.323823 1_565
Dy10 In10 3.323828 1_555
Dy11 Si3 2.964281 1_565
Dy11 Si2 2.964288 1_555
Dy11 Si7 2.985485 1_555
Dy11 In3 3.072995 1_566
Dy11 In1 3.073002 1_555
Dy11 In11 3.323834 1_566
Dy11 In9 3.323841 1_555
Dy12 Si1 2.964283 1_455
Dy12 Si0 2.964283 1_555
Dy12 Si7 2.985495 1_555
Dy12 In7 3.073000 1_556
Dy12 In4 3.073004 1_455
Dy12 In9 3.323823 1_455
Dy12 In10 3.323828 1_556
Dy13 Si1 2.964281 1_455
Dy13 Si0 2.964288 1_555
Dy13 Si7 2.985485 1_555
Dy13 In6 3.072995 1_455
Dy13 In5 3.073002 1_555
Dy13 In11 3.323834 1_455
Dy13 In8 3.323841 1_555
Dy14 Si2 2.964283 1_545
Dy14 Si3 2.964283 1_555
Dy14 Si6 2.985495 1_555
Dy14 In6 3.073000 1_556
Dy14 In4 3.073004 1_545
Dy14 In9 3.323823 1_545
Dy14 In11 3.323828 1_556
Dy15 Si2 2.964281 1_545
Dy15 Si3 2.964288 1_555
Dy15 Si6 2.985485 1_555
Dy15 In7 3.072995 1_545
Dy15 In5 3.073002 1_555
Dy15 In10 3.323834 1_545
Dy15 In8 3.323841 1_555
Dy16 Si0 2.802929 1_555
Dy16 Si3 2.802929 1_555
Dy16 In8 3.299322 1_555
Dy16 Si4 3.354776 1_556
Dy16 Si5 3.354785 1_556
Dy16 In5 3.430872 1_555
Dy16 In0 3.430898 1_555
Dy17 Si2 2.802929 1_555
Dy17 Si1 2.802929 1_555
Dy17 In9 3.299322 1_555
Dy17 Si5 3.354776 1_555
Dy17 Si4 3.354785 1_555
Dy17 In1 3.430872 1_555
Dy17 In4 3.430898 1_555
Dy18 Si0 2.802929 1_554
Dy18 Si2 2.802929 1_555
Dy18 In10 3.299339 1_555
Dy18 Si4 3.354774 1_555
Dy18 Si5 3.354774 1_555
Dy18 In2 3.430894 1_555
Dy18 In7 3.430894 1_555
Dy19 Si1 2.802929 1_555
Dy19 Si3 2.802929 1_554
Dy19 In11 3.299339 1_555
Dy19 Si4 3.354774 1_555
Dy19 Si5 3.354774 1_555
Dy19 In3 3.430894 1_555
Dy19 In6 3.430894 1_555
Dy20 In2 3.335156 1_655
Dy20 In3 3.335156 1_565
Dy20 In1 3.335164 1_554
Dy20 In0 3.335164 1_665
Dy20 Si4 3.392790 1_555
Dy20 In8 3.420723 1_665
Dy20 In10 3.420724 1_655
Dy20 In11 3.420724 1_565
Dy20 In9 3.420736 1_554
Dy21 In7 3.335156 1_545
Dy21 In6 3.335156 1_455
Dy21 In5 3.335164 1_555
Dy21 In4 3.335164 1_444
Dy21 Si5 3.392790 1_555
Dy21 In9 3.420723 1_444
Dy21 In10 3.420724 1_545
Dy21 In11 3.420724 1_455
Dy21 In8 3.420736 1_555
In0 In4 2.934769 1_445
In0 In8 3.031566 1_555
In1 In5 2.934798 1_555
In1 In9 3.031566 1_555
In2 In6 2.934791 1_455
In3 In7 2.934791 1_545
In4 In9 3.031566 1_555
In5 In8 3.031566 1_555
In10 In9 2.936390 1_454
In10 In8 2.936390 1_565
In10 In2 3.031566 1_555
In10 In7 3.031566 1_555
In11 In9 2.936390 1_544
In11 In8 2.936390 1_655
In11 In3 3.031566 1_555
In11 In6 3.031566 1_555
