# generated using pymatgen
data_Sr3Pt2
_symmetry_space_group_name_H-M   'P 1'
_cell_length_a   8.01254313
_cell_length_b   8.01254329
_cell_length_c   8.01254293
_cell_angle_alpha   71.54697479
_cell_angle_beta   71.54698108
_cell_angle_gamma   71.54699079
_symmetry_Int_Tables_number   1
_chemical_formula_structural   Sr3Pt2
_chemical_formula_sum   'Sr9 Pt6'
_cell_volume   449.29625611
_cell_formula_units_Z   3
loop_
 _symmetry_equiv_pos_site_id
 _symmetry_equiv_pos_as_xyz
  1  'x, y, z'
loop_
 _atom_site_type_symbol
 _atom_site_label
 _atom_site_symmetry_multiplicity
 _atom_site_fract_x
 _atom_site_fract_y
 _atom_site_fract_z
 _atom_site_occupancy
  Sr  Sr0  1  0.00000000  -0.00000000  -0.00000000  1
  Sr  Sr1  1  0.79788505  0.79788505  0.79788505  1
  Sr  Sr2  1  0.20211495  0.20211495  0.20211495  1
  Sr  Sr3  1  0.60985032  0.32679568  0.84431280  1
  Sr  Sr4  1  0.32679568  0.84431280  0.60985032  1
  Sr  Sr5  1  0.84431280  0.60985032  0.32679568  1
  Sr  Sr6  1  0.39014968  0.67320432  0.15568720  1
  Sr  Sr7  1  0.67320432  0.15568720  0.39014968  1
  Sr  Sr8  1  0.15568720  0.39014968  0.67320432  1
  Pt  Pt0  1  0.95986407  0.14775056  0.58676151  1
  Pt  Pt1  1  0.14775056  0.58676151  0.95986407  1
  Pt  Pt2  1  0.58676151  0.95986407  0.14775056  1
  Pt  Pt3  1  0.04013593  0.85224944  0.41323849  1
  Pt  Pt4  1  0.85224944  0.41323849  0.04013593  1
  Pt  Pt5  1  0.41323849  0.04013593  0.85224944  1
loop_
_geom_bond_atom_site_label_1
_geom_bond_atom_site_label_2
_geom_bond_distance
_geom_bond_site_symmetry_2
Sr0 Sr2 3.584509 1_555
Sr0 Sr1 3.584509 1_444
Sr0 Sr5 3.661135 1_445
Sr0 Sr8 3.661135 1_554
Sr0 Sr4 3.661135 1_544
Sr0 Sr7 3.661135 1_455
Sr0 Sr3 3.661135 1_454
Sr0 Sr6 3.661135 1_545
Pt0 Pt3 2.916623 1_645
Pt0 Sr2 3.058491 1_655
Pt0 Sr3 3.137724 1_555
Pt0 Sr7 3.145821 1_555
Pt0 Sr4 3.181794 1_645
Pt0 Sr8 3.191031 1_655
Pt0 Sr1 3.211846 1_545
Pt0 Sr0 3.227980 1_656
Pt0 Sr5 3.615740 1_555
Pt1 Pt4 2.916623 1_456
Pt1 Sr2 3.058491 1_556
Pt1 Sr4 3.137723 1_555
Pt1 Sr8 3.145821 1_555
Pt1 Sr5 3.181793 1_456
Pt1 Sr6 3.191031 1_556
Pt1 Sr1 3.211847 1_455
Pt1 Sr0 3.227980 1_566
Pt1 Sr3 3.615740 1_555
Pt2 Pt5 2.916623 1_564
Pt2 Sr2 3.058492 1_565
Pt2 Sr5 3.137724 1_555
Pt2 Sr6 3.145821 1_555
Pt2 Sr3 3.181793 1_564
Pt2 Sr7 3.191031 1_565
Pt2 Sr1 3.211847 1_554
Pt2 Sr0 3.227980 1_665
Pt2 Sr4 3.615739 1_555
Pt3 Sr1 3.058491 1_455
Pt3 Sr6 3.137724 1_555
Pt3 Sr4 3.145821 1_555
Pt3 Sr7 3.181794 1_465
Pt3 Sr5 3.191031 1_455
Pt3 Sr2 3.211846 1_565
Pt3 Sr0 3.227980 1_565
Pt3 Sr8 3.615740 1_555
Pt4 Sr1 3.058491 1_554
Pt4 Sr7 3.137723 1_555
Pt4 Sr5 3.145821 1_555
Pt4 Sr8 3.181793 1_654
Pt4 Sr3 3.191031 1_554
Pt4 Sr2 3.211847 1_655
Pt4 Sr0 3.227980 1_655
Pt4 Sr6 3.615740 1_555
Pt5 Sr1 3.058492 1_545
Pt5 Sr8 3.137724 1_555
Pt5 Sr3 3.145821 1_555
Pt5 Sr6 3.181793 1_546
Pt5 Sr4 3.191031 1_545
Pt5 Sr2 3.211847 1_556
Pt5 Sr0 3.227980 1_556
Pt5 Sr7 3.615739 1_555
