# generated using pymatgen
data_MnNiP
_symmetry_space_group_name_H-M   'P 1'
_cell_length_a   6.01140081
_cell_length_b   3.60773753
_cell_length_c   6.75524552
_cell_angle_alpha   90.00000000
_cell_angle_beta   90.00000000
_cell_angle_gamma   90.00000000
_symmetry_Int_Tables_number   1
_chemical_formula_structural   MnNiP
_chemical_formula_sum   'Mn4 Ni4 P4'
_cell_volume   146.50476760
_cell_formula_units_Z   4
loop_
 _symmetry_equiv_pos_site_id
 _symmetry_equiv_pos_as_xyz
  1  'x, y, z'
loop_
 _atom_site_type_symbol
 _atom_site_label
 _atom_site_symmetry_multiplicity
 _atom_site_fract_x
 _atom_site_fract_y
 _atom_site_fract_z
 _atom_site_occupancy
  Mn  Mn0  1  0.02416715  0.25000000  0.17364632  1
  Mn  Mn1  1  0.52416715  0.25000000  0.32635368  1
  Mn  Mn2  1  0.97583285  0.75000000  0.82635368  1
  Mn  Mn3  1  0.47583285  0.75000000  0.67364632  1
  Ni  Ni0  1  0.14158859  0.25000000  0.55950749  1
  Ni  Ni1  1  0.64158859  0.25000000  0.94049251  1
  Ni  Ni2  1  0.85841141  0.75000000  0.44049251  1
  Ni  Ni3  1  0.35841141  0.75000000  0.05950749  1
  P  P0  1  0.76506314  0.25000000  0.62562401  1
  P  P1  1  0.26506314  0.25000000  0.87437599  1
  P  P2  1  0.23493686  0.75000000  0.37437599  1
  P  P3  1  0.73493686  0.75000000  0.12562401  1
loop_
_geom_bond_atom_site_label_1
_geom_bond_atom_site_label_2
_geom_bond_distance
_geom_bond_site_symmetry_2
Mn0 P1 2.486786 1_554
Mn0 P3 2.526299 1_455
Mn0 P3 2.526299 1_445
Mn0 P2 2.588042 1_545
Mn0 P2 2.588042 1_555
Mn0 Ni0 2.700471 1_555
Mn0 Ni2 2.737921 1_445
Mn0 Ni2 2.737921 1_455
Mn0 Ni1 2.787453 1_454
Mn0 Ni3 2.808136 1_545
Mn0 Ni3 2.808136 1_555
Mn1 P0 2.486786 1_555
Mn1 P2 2.526299 1_555
Mn1 P2 2.526299 1_545
Mn1 P3 2.588042 1_555
Mn1 P3 2.588042 1_545
Mn1 Ni1 2.700471 1_554
Mn1 Ni3 2.737921 1_555
Mn1 Ni3 2.737921 1_545
Mn1 Ni0 2.787453 1_555
Mn1 Ni2 2.808136 1_555
Mn1 Ni2 2.808136 1_545
Mn2 P3 2.486786 1_556
Mn2 P1 2.526299 1_665
Mn2 P1 2.526299 1_655
Mn2 P0 2.588042 1_565
Mn2 P0 2.588042 1_555
Mn2 Ni2 2.700471 1_555
Mn2 Ni0 2.737921 1_655
Mn2 Ni0 2.737921 1_665
Mn2 Ni3 2.787453 1_656
Mn2 Ni1 2.808136 1_555
Mn2 Ni1 2.808136 1_565
Mn3 P2 2.486786 1_555
Mn3 P0 2.526299 1_565
Mn3 P0 2.526299 1_555
Mn3 P1 2.588042 1_565
Mn3 P1 2.588042 1_555
Mn3 Ni3 2.700471 1_556
Mn3 Ni1 2.737921 1_565
Mn3 Ni1 2.737921 1_555
Mn3 Ni2 2.787453 1_555
Mn3 Ni0 2.808136 1_565
Mn3 Ni0 2.808136 1_555
Ni0 P1 2.252805 1_555
Ni0 P2 2.265581 1_545
Ni0 P2 2.265581 1_555
Ni0 P0 2.307090 1_455
Ni1 P0 2.252805 1_555
Ni1 P3 2.265581 1_556
Ni1 P3 2.265581 1_546
Ni1 P1 2.307090 1_555
Ni2 P3 2.252805 1_555
Ni2 P0 2.265581 1_555
Ni2 P0 2.265581 1_565
Ni2 P2 2.307090 1_655
Ni3 P2 2.252805 1_555
Ni3 P1 2.265581 1_554
Ni3 P1 2.265581 1_564
Ni3 P3 2.307090 1_555
