# generated using pymatgen
data_RbLiCu2H3(SO5)2
_symmetry_space_group_name_H-M   'P 1'
_cell_length_a   5.82921440
_cell_length_b   6.23864514
_cell_length_c   7.63267178
_cell_angle_alpha   73.69521925
_cell_angle_beta   80.65273099
_cell_angle_gamma   114.38467790
_symmetry_Int_Tables_number   1
_chemical_formula_structural   RbLiCu2H3(SO5)2
_chemical_formula_sum   'Rb1 Li1 Cu2 H3 S2 O10'
_cell_volume   230.01659426
_cell_formula_units_Z   1
loop_
 _symmetry_equiv_pos_site_id
 _symmetry_equiv_pos_as_xyz
  1  'x, y, z'
loop_
 _atom_site_type_symbol
 _atom_site_label
 _atom_site_symmetry_multiplicity
 _atom_site_fract_x
 _atom_site_fract_y
 _atom_site_fract_z
 _atom_site_occupancy
  Rb  Rb0  1  0.49248600  0.00251800  0.50492600  1
  Li  Li0  1  0.25570100  0.22358800  0.99720600  1
  Cu  Cu0  1  0.98972500  0.50809100  0.00030700  1
  Cu  Cu1  1  0.52149600  0.89852200  0.04649200  1
  H  H0  1  0.73907700  0.55922700  0.75694900  1
  H  H1  1  0.23725800  0.44666100  0.22955200  1
  H  H2  1  0.58550900  0.55827000  0.95572800  1
  S  S0  1  0.06596100  0.22196300  0.70896500  1
  S  S1  1  0.92388400  0.77675000  0.29125200  1
  O  O0  1  0.76672700  0.07411900  0.77879300  1
  O  O1  1  0.15498200  0.44508000  0.77444000  1
  O  O2  1  0.22675900  0.92575200  0.21380800  1
  O  O3  1  0.82362900  0.54897900  0.23754700  1
  O  O4  1  0.68176200  0.47964200  0.89973100  1
  O  O5  1  0.29489900  0.52901200  0.08776000  1
  O  O6  1  0.17515800  0.05927700  0.80257500  1
  O  O7  1  0.83475600  0.95962900  0.19356800  1
  O  O8  1  0.16358800  0.31703400  0.49898300  1
  O  O9  1  0.83243400  0.69728000  0.50041800  1
loop_
_geom_bond_atom_site_label_1
_geom_bond_atom_site_label_2
_geom_bond_distance
_geom_bond_site_symmetry_2
Li0 O2 2.034679 1_546
Li0 O6 2.040172 1_555
Li0 O5 2.142864 1_556
Li0 O4 2.174875 1_555
Li0 O1 2.195463 1_555
Li0 O7 2.249916 1_446
Cu0 O5 1.967253 1_655
Cu0 O4 2.025971 1_554
Cu0 O3 2.043328 1_555
Cu0 O1 2.051420 1_654
Cu1 O0 1.979842 1_564
Cu1 O5 2.025078 1_555
Cu1 O2 2.064380 1_555
Cu1 O7 2.251972 1_555
H0 O4 0.993354 1_555
H1 O5 0.987549 1_555
H2 O4 1.002593 1_555
H2 Li0 2.066993 1_555
O0 S0 1.506948 1_655
O0 Rb0 2.853897 1_555
O1 S0 1.528054 1_555
O1 Rb0 3.035684 1_565
O2 S1 1.525744 1_455
O2 Rb0 2.944321 1_565
O3 S1 1.499306 1_555
O3 Rb0 2.982176 1_555
O6 S0 1.489895 1_555
O6 Rb0 2.887185 1_555
O7 S1 1.505049 1_555
O7 Rb0 2.992931 1_565
O8 S0 1.461378 1_555
O8 Rb0 3.257662 1_555
O9 S1 1.462756 1_555
O9 Rb0 3.268768 1_565
