# generated using pymatgen
data_Tb3Y
_symmetry_space_group_name_H-M   'P 1'
_cell_length_a   5.05923474
_cell_length_b   5.05923474
_cell_length_c   5.05923474
_cell_angle_alpha   90.00000000
_cell_angle_beta   90.00000000
_cell_angle_gamma   90.00000000
_symmetry_Int_Tables_number   1
_chemical_formula_structural   Tb3Y
_chemical_formula_sum   'Tb3 Y1'
_cell_volume   129.49544466
_cell_formula_units_Z   1
loop_
 _symmetry_equiv_pos_site_id
 _symmetry_equiv_pos_as_xyz
  1  'x, y, z'
loop_
 _atom_site_type_symbol
 _atom_site_label
 _atom_site_symmetry_multiplicity
 _atom_site_fract_x
 _atom_site_fract_y
 _atom_site_fract_z
 _atom_site_occupancy
  Tb  Tb0  1  -0.00000000  0.50000000  0.50000000  1
  Tb  Tb1  1  0.50000000  -0.00000000  0.50000000  1
  Tb  Tb2  1  0.50000000  0.50000000  -0.00000000  1
  Y  Y0  1  -0.00000000  -0.00000000  -0.00000000  1
loop_
_geom_bond_atom_site_label_1
_geom_bond_atom_site_label_2
_geom_bond_distance
_geom_bond_site_symmetry_2
Tb0 Y0 3.577419 1_566
Tb0 Tb1 3.577419 1_455
Tb0 Y0 3.577419 1_565
Tb0 Tb2 3.577419 1_456
Tb0 Tb1 3.577419 1_555
Tb0 Tb2 3.577419 1_455
Tb0 Tb1 3.577419 1_565
Tb0 Tb2 3.577419 1_555
Tb0 Tb1 3.577419 1_465
Tb0 Y0 3.577419 1_556
Tb0 Tb2 3.577419 1_556
Tb0 Y0 3.577419 1_555
Tb1 Tb2 3.577419 1_546
Tb1 Y0 3.577419 1_655
Tb1 Tb2 3.577419 1_545
Tb1 Y0 3.577419 1_556
Tb1 Tb2 3.577419 1_555
Tb1 Tb2 3.577419 1_556
Tb1 Y0 3.577419 1_656
Tb1 Y0 3.577419 1_555
Tb2 Y0 3.577419 1_655
Tb2 Y0 3.577419 1_665
Tb2 Y0 3.577419 1_565
Tb2 Y0 3.577419 1_555
