# generated using pymatgen
data_NaAuS
_symmetry_space_group_name_H-M   'P 1'
_cell_length_a   13.06986489
_cell_length_b   13.06986489
_cell_length_c   7.19171000
_cell_angle_alpha   90.00000000
_cell_angle_beta   90.00000000
_cell_angle_gamma   110.59937567
_symmetry_Int_Tables_number   1
_chemical_formula_structural   NaAuS
_chemical_formula_sum   'Na16 Au16 S16'
_cell_volume   1149.95173629
_cell_formula_units_Z   16
loop_
 _symmetry_equiv_pos_site_id
 _symmetry_equiv_pos_as_xyz
  1  'x, y, z'
loop_
 _atom_site_type_symbol
 _atom_site_label
 _atom_site_symmetry_multiplicity
 _atom_site_fract_x
 _atom_site_fract_y
 _atom_site_fract_z
 _atom_site_occupancy
  Na  Na0  1  0.74911800  0.74911800  0.00000000  1
  Na  Na1  1  0.75088200  0.75088200  0.50000000  1
  Na  Na2  1  0.24911800  0.24911800  0.50000000  1
  Na  Na3  1  0.25088200  0.25088200  0.00000000  1
  Na  Na4  1  0.61265200  0.38734800  0.00000000  1
  Na  Na5  1  0.11265200  0.88734800  0.50000000  1
  Na  Na6  1  0.88734800  0.11265200  0.50000000  1
  Na  Na7  1  0.38734800  0.61265200  0.00000000  1
  Na  Na8  1  0.37383500  0.00558500  0.65910500  1
  Na  Na9  1  0.49441500  0.12616500  0.15910500  1
  Na  Na10  1  0.50558500  0.87383500  0.15910500  1
  Na  Na11  1  0.62616500  0.99441500  0.65910500  1
  Na  Na12  1  0.12616500  0.49441500  0.84089500  1
  Na  Na13  1  0.00558500  0.37383500  0.34089500  1
  Na  Na14  1  0.99441500  0.62616500  0.34089500  1
  Na  Na15  1  0.87383500  0.50558500  0.84089500  1
  Au  Au0  1  0.49668800  0.74421600  0.52953200  1
  Au  Au1  1  0.75578400  0.00331200  0.02953200  1
  Au  Au2  1  0.24421600  0.99668800  0.02953200  1
  Au  Au3  1  0.50331200  0.25578400  0.52953200  1
  Au  Au4  1  0.00331200  0.75578400  0.97046800  1
  Au  Au5  1  0.74421600  0.49668800  0.47046800  1
  Au  Au6  1  0.25578400  0.50331200  0.47046800  1
  Au  Au7  1  0.99668800  0.24421600  0.97046800  1
  Au  Au8  1  0.50000000  0.50000000  0.28088500  1
  Au  Au9  1  0.00000000  0.00000000  0.78088500  1
  Au  Au10  1  0.00000000  0.00000000  0.21911500  1
  Au  Au11  1  0.50000000  0.50000000  0.71911500  1
  Au  Au12  1  0.25000000  0.75000000  0.75000000  1
  Au  Au13  1  0.75000000  0.25000000  0.25000000  1
  Au  Au14  1  0.25000000  0.75000000  0.25000000  1
  Au  Au15  1  0.75000000  0.25000000  0.75000000  1
  S  S0  1  0.56637400  0.69128000  0.26091000  1
  S  S1  1  0.80872000  0.93362600  0.76091000  1
  S  S2  1  0.19128000  0.06637400  0.76091000  1
  S  S3  1  0.43362600  0.30872000  0.26091000  1
  S  S4  1  0.93362600  0.80872000  0.23909000  1
  S  S5  1  0.69128000  0.56637400  0.73909000  1
  S  S6  1  0.30872000  0.43362600  0.73909000  1
  S  S7  1  0.06637400  0.19128000  0.23909000  1
  S  S8  1  0.43953900  0.81848700  0.78720100  1
  S  S9  1  0.68151300  0.06046100  0.28720100  1
  S  S10  1  0.31848700  0.93953900  0.28720100  1
  S  S11  1  0.56046100  0.18151300  0.78720100  1
  S  S12  1  0.06046100  0.68151300  0.71279900  1
  S  S13  1  0.81848700  0.43953900  0.21279900  1
  S  S14  1  0.18151300  0.56046100  0.21279900  1
  S  S15  1  0.93953900  0.31848700  0.71279900  1
loop_
_geom_bond_atom_site_label_1
_geom_bond_atom_site_label_2
_geom_bond_distance
_geom_bond_site_symmetry_2
Na0 S4 2.838458 1_555
Na0 S1 2.838458 1_554
Na0 S5 2.920008 1_554
Na0 S0 2.920008 1_555
Na1 S5 2.838458 1_555
Na1 S0 2.838458 1_555
Na1 S4 2.920008 1_555
Na1 S1 2.920008 1_555
Na2 S6 2.838458 1_555
Na2 S3 2.838458 1_555
Na2 S2 2.920008 1_555
Na2 S7 2.920008 1_555
Na3 S2 2.838458 1_554
Na3 S7 2.838458 1_555
Na3 S6 2.920008 1_554
Na3 S3 2.920008 1_555
Na4 S3 2.891331 1_555
Na4 S5 2.891331 1_554
Na4 S13 2.958627 1_555
Na4 S11 2.958627 1_554
Na5 S2 2.891331 1_565
Na5 S4 2.891331 1_455
Na5 S12 2.958627 1_555
Na5 S10 2.958627 1_555
Na6 S7 2.891331 1_655
Na6 S1 2.891331 1_545
Na6 S9 2.958627 1_555
Na6 S15 2.958627 1_555
Na7 S6 2.891331 1_554
Na7 S0 2.891331 1_555
Na7 S8 2.958627 1_554
Na7 S14 2.958627 1_555
Na8 S10 2.825360 1_545
Na8 S11 2.852852 1_555
Na8 S2 2.862523 1_555
Na8 S8 3.007234 1_545
Na9 S11 2.825360 1_554
Na9 S10 2.852852 1_545
Na9 S3 2.862523 1_555
Na9 S9 3.007234 1_555
Na10 S8 2.825360 1_554
Na10 S9 2.852852 1_565
Na10 S0 2.862523 1_555
Na10 S10 3.007234 1_555
Na11 S9 2.825360 1_565
Na11 S8 2.852852 1_555
Na11 S1 2.862523 1_555
Na11 S11 3.007234 1_565
Na12 S14 2.825360 1_556
Na12 S15 2.852852 1_455
Na12 S6 2.862523 1_555
Na12 S12 3.007234 1_555
Na13 S15 2.825360 1_455
Na13 S14 2.852852 1_555
Na13 S7 2.862523 1_555
Na13 S13 3.007234 1_455
Na14 S12 2.825360 1_655
Na14 S13 2.852852 1_555
Na14 S4 2.862523 1_555
Na14 S14 3.007234 1_655
Na15 S13 2.825360 1_556
Na15 S12 2.852852 1_655
Na15 S5 2.862523 1_555
Na15 S15 3.007234 1_555
Au0 S8 2.333300 1_555
Au0 S0 2.341724 1_555
Au0 Na10 3.137165 1_555
Au0 Na11 3.245225 1_555
Au0 Na1 3.299481 1_555
Au1 S9 2.333300 1_555
Au1 S1 2.341724 1_544
Au1 Na11 3.137165 1_544
Au1 Na10 3.245225 1_545
Au1 Na0 3.299481 1_545
Au2 S10 2.333300 1_555
Au2 S2 2.341724 1_564
Au2 Na8 3.137165 1_564
Au2 Na9 3.245225 1_565
Au2 Na3 3.299481 1_565
Au3 S11 2.333300 1_555
Au3 S3 2.341724 1_555
Au3 Na9 3.137165 1_555
Au3 Na8 3.245225 1_555
Au3 Na2 3.299481 1_555
Au4 S12 2.333300 1_555
Au4 S4 2.341724 1_456
Au4 Na14 3.137165 1_456
Au4 Na15 3.245225 1_455
Au4 Na0 3.299481 1_456
Au5 S13 2.333300 1_555
Au5 S5 2.341724 1_555
Au5 Na15 3.137165 1_555
Au5 Na14 3.245225 1_555
Au5 Na1 3.299481 1_555
Au6 S14 2.333300 1_555
Au6 S6 2.341724 1_555
Au6 Na12 3.137165 1_555
Au6 Na13 3.245225 1_555
Au6 Na2 3.299481 1_555
Au7 S15 2.333300 1_555
Au7 S7 2.341724 1_656
Au7 Na13 3.137165 1_656
Au7 Na12 3.245225 1_655
Au7 Na3 3.299481 1_656
Au8 S0 2.344598 1_555
Au8 S3 2.344598 1_555
Au8 Na7 3.153028 1_555
Au8 Na4 3.153028 1_555
Au9 S2 2.344598 1_555
Au9 S1 2.344598 1_445
Au9 Na5 3.153028 1_545
Au9 Na6 3.153028 1_455
Au10 S4 2.344598 1_445
Au10 S7 2.344598 1_555
Au10 Na5 3.153028 1_545
Au10 Na6 3.153028 1_455
Au11 S5 2.344598 1_555
Au11 S6 2.344598 1_555
Au11 Na7 3.153028 1_556
Au11 Na4 3.153028 1_556
Au12 S12 2.334363 1_555
Au12 S8 2.334363 1_555
Au12 Na8 3.225083 1_565
Au12 Na12 3.225083 1_555
Au12 Na7 3.456150 1_556
Au12 Na5 3.456150 1_555
Au13 S9 2.334363 1_555
Au13 S13 2.334363 1_555
Au13 Na13 3.225083 1_655
Au13 Na9 3.225083 1_555
Au13 Na6 3.456150 1_555
Au13 Na4 3.456150 1_555
Au14 S10 2.334363 1_555
Au14 S14 2.334363 1_555
Au14 Na14 3.225083 1_455
Au14 Na10 3.225083 1_555
Au14 Na7 3.456150 1_555
Au14 Na5 3.456150 1_555
Au15 S15 2.334363 1_555
Au15 S11 2.334363 1_555
Au15 Na15 3.225083 1_555
Au15 Na11 3.225083 1_545
Au15 Na6 3.456150 1_555
Au15 Na4 3.456150 1_556
