# generated using pymatgen
data_U4Si3Mo
_symmetry_space_group_name_H-M   'P 1'
_cell_length_a   5.30666500
_cell_length_b   7.98952048
_cell_length_c   7.98952048
_cell_angle_alpha   83.66787981
_cell_angle_beta   70.60361267
_cell_angle_gamma   70.60361267
_symmetry_Int_Tables_number   1
_chemical_formula_structural   U4Si3Mo
_chemical_formula_sum   'U8 Si6 Mo2'
_cell_volume   301.37750643
_cell_formula_units_Z   2
loop_
 _symmetry_equiv_pos_site_id
 _symmetry_equiv_pos_as_xyz
  1  'x, y, z'
loop_
 _atom_site_type_symbol
 _atom_site_label
 _atom_site_symmetry_multiplicity
 _atom_site_fract_x
 _atom_site_fract_y
 _atom_site_fract_z
 _atom_site_occupancy
  U  U0  1  0.09691600  0.13444300  0.67172600  1
  U  U1  1  0.90308400  0.86555700  0.32827400  1
  U  U2  1  0.76864200  0.32827400  0.13444300  1
  U  U3  1  0.40308400  0.32827400  0.86555700  1
  U  U4  1  0.23135800  0.67172600  0.86555700  1
  U  U5  1  0.59691600  0.67172600  0.13444300  1
  U  U6  1  0.73135800  0.86555700  0.67172600  1
  U  U7  1  0.26864200  0.13444300  0.32827400  1
  Si  Si0  1  0.14686600  0.50000000  0.20626900  1
  Si  Si1  1  0.85313400  0.50000000  0.79373100  1
  Si  Si2  1  0.35313400  0.79373100  0.50000000  1
  Si  Si3  1  0.64686600  0.20626900  0.50000000  1
  Si  Si4  1  0.25000000  0.00000000  0.00000000  1
  Si  Si5  1  0.75000000  0.00000000  0.00000000  1
  Mo  Mo0  1  0.25000000  0.50000000  0.50000000  1
  Mo  Mo1  1  0.75000000  0.50000000  0.50000000  1
loop_
_geom_bond_atom_site_label_1
_geom_bond_atom_site_label_2
_geom_bond_distance
_geom_bond_site_symmetry_2
U0 U7 2.588276 1_555
U1 U6 2.588276 1_555
U2 U5 2.588276 1_555
U3 U4 2.588276 1_555
Si0 U4 2.875327 1_554
Si0 U3 2.875327 1_554
Si0 U7 2.904242 1_555
Si0 U1 2.904242 1_455
Si0 U2 3.001326 1_555
Si0 U5 3.001326 1_455
Si0 U5 3.001326 1_555
Si0 U2 3.001326 1_455
Si1 U2 2.875327 1_556
Si1 U5 2.875327 1_556
Si1 U6 2.904242 1_555
Si1 U0 2.904242 1_655
Si1 U4 3.001326 1_555
Si1 U3 3.001326 1_655
Si1 U3 3.001326 1_555
Si1 U4 3.001326 1_655
Si2 U7 2.875327 1_565
Si2 U0 2.875327 1_565
Si2 U4 2.904242 1_555
Si2 U5 2.904242 1_555
Si2 U6 3.001326 1_455
Si2 U1 3.001326 1_555
Si2 U1 3.001326 1_455
Si2 U6 3.001326 1_555
Si3 U6 2.875327 1_545
Si3 U1 2.875327 1_545
Si3 U2 2.904242 1_555
Si3 U3 2.904242 1_555
Si3 U7 3.001326 1_655
Si3 U0 3.001326 1_555
Si3 U0 3.001326 1_655
Si3 U7 3.001326 1_555
Si4 Si5 2.653332 1_455
Si4 Si5 2.653332 1_555
Si4 U6 2.984410 1_544
Si4 U2 2.984410 1_455
Si4 U0 2.984410 1_554
Si4 U3 2.984410 1_554
Si4 U5 2.984412 1_545
Si4 U1 2.984412 1_445
Si4 U4 2.984412 1_544
Si4 U7 2.984412 1_555
Si5 U4 2.984410 1_644
Si5 U7 2.984410 1_555
Si5 U5 2.984410 1_545
Si5 U1 2.984410 1_545
Si5 U0 2.984412 1_654
Si5 U3 2.984412 1_554
Si5 U6 2.984412 1_544
Si5 U2 2.984412 1_555
Mo0 Si2 2.580689 1_555
Mo0 Si0 2.580689 1_555
Mo0 Si3 2.580691 1_555
Mo0 Si1 2.580691 1_455
Mo1 Si3 2.580689 1_555
Mo1 Si1 2.580689 1_555
Mo1 Si0 2.580691 1_655
Mo1 Si2 2.580691 1_555
