# generated using pymatgen
data_HgS2(IN2)2
_symmetry_space_group_name_H-M   'P 1'
_cell_length_a   9.26897600
_cell_length_b   9.26897600
_cell_length_c   13.27728500
_cell_angle_alpha   90.00000000
_cell_angle_beta   90.00000000
_cell_angle_gamma   90.00000000
_symmetry_Int_Tables_number   1
_chemical_formula_structural   HgS2(IN2)2
_chemical_formula_sum   'Hg4 S8 I8 N16'
_cell_volume   1140.70354937
_cell_formula_units_Z   4
loop_
 _symmetry_equiv_pos_site_id
 _symmetry_equiv_pos_as_xyz
  1  'x, y, z'
loop_
 _atom_site_type_symbol
 _atom_site_label
 _atom_site_symmetry_multiplicity
 _atom_site_fract_x
 _atom_site_fract_y
 _atom_site_fract_z
 _atom_site_occupancy
  Hg  Hg0  1  0.00000000  0.50000000  0.78756300  1
  Hg  Hg1  1  0.00000000  0.50000000  0.28756300  1
  Hg  Hg2  1  0.50000000  0.00000000  0.71243700  1
  Hg  Hg3  1  0.50000000  0.00000000  0.21243700  1
  S  S0  1  0.00000000  0.85282100  0.57355100  1
  S  S1  1  0.00000000  0.14717900  0.57355100  1
  S  S2  1  0.35282100  0.50000000  0.07355100  1
  S  S3  1  0.64717900  0.50000000  0.07355100  1
  S  S4  1  0.50000000  0.64717900  0.92644900  1
  S  S5  1  0.50000000  0.35282100  0.92644900  1
  S  S6  1  0.14717900  0.00000000  0.42644900  1
  S  S7  1  0.85282100  0.00000000  0.42644900  1
  I  I0  1  0.26324700  0.50000000  0.70263500  1
  I  I1  1  0.73675300  0.50000000  0.70263500  1
  I  I2  1  0.00000000  0.76324700  0.20263500  1
  I  I3  1  0.00000000  0.23675300  0.20263500  1
  I  I4  1  0.23675300  0.00000000  0.79736500  1
  I  I5  1  0.76324700  0.00000000  0.79736500  1
  I  I6  1  0.50000000  0.73675300  0.29736500  1
  I  I7  1  0.50000000  0.26324700  0.29736500  1
  N  N0  1  0.00000000  0.68697700  0.91333900  1
  N  N1  1  0.00000000  0.31302300  0.91333900  1
  N  N2  1  0.18697700  0.50000000  0.41333900  1
  N  N3  1  0.81302300  0.50000000  0.41333900  1
  N  N4  1  0.50000000  0.81302300  0.58666100  1
  N  N5  1  0.50000000  0.18697700  0.58666100  1
  N  N6  1  0.31302300  0.00000000  0.08666100  1
  N  N7  1  0.68697700  0.00000000  0.08666100  1
  N  N8  1  0.14079400  0.85920600  0.50000000  1
  N  N9  1  0.85920600  0.85920600  0.50000000  1
  N  N10  1  0.14079400  0.14079400  0.50000000  1
  N  N11  1  0.85920600  0.14079400  0.50000000  1
  N  N12  1  0.35920600  0.64079400  0.00000000  1
  N  N13  1  0.64079400  0.64079400  0.00000000  1
  N  N14  1  0.35920600  0.35920600  0.00000000  1
  N  N15  1  0.64079400  0.35920600  0.00000000  1
loop_
_geom_bond_atom_site_label_1
_geom_bond_atom_site_label_2
_geom_bond_distance
_geom_bond_site_symmetry_2
Hg0 N0 2.406733 1_555
Hg0 N1 2.406733 1_555
Hg0 I0 2.687984 1_555
Hg0 I1 2.687984 1_455
Hg1 N2 2.406733 1_555
Hg1 N3 2.406733 1_455
Hg1 I2 2.687984 1_555
Hg1 I3 2.687984 1_555
Hg2 N5 2.406733 1_555
Hg2 N4 2.406733 1_545
Hg2 I5 2.687984 1_555
Hg2 I4 2.687984 1_555
Hg3 N7 2.406733 1_555
Hg3 N6 2.406733 1_555
Hg3 I7 2.687984 1_555
Hg3 I6 2.687984 1_545
N8 S0 1.631023 1_555
N8 S6 1.631023 1_565
N9 S0 1.631023 1_655
N9 S7 1.631023 1_565
N10 S1 1.631023 1_555
N10 S6 1.631023 1_555
N11 S1 1.631023 1_655
N11 S7 1.631023 1_555
N12 S2 1.631023 1_555
N12 S4 1.631023 1_554
N13 S3 1.631023 1_555
N13 S4 1.631023 1_554
N14 S2 1.631023 1_555
N14 S5 1.631023 1_554
N15 S3 1.631023 1_555
N15 S5 1.631023 1_554
