# generated using pymatgen
data_LaPr3(GaO3)4
_symmetry_space_group_name_H-M   'P 1'
_cell_length_a   7.85951100
_cell_length_b   5.53851200
_cell_length_c   5.57012347
_cell_angle_alpha   89.97653702
_cell_angle_beta   90.00000000
_cell_angle_gamma   90.00000000
_symmetry_Int_Tables_number   1
_chemical_formula_structural   LaPr3(GaO3)4
_chemical_formula_sum   'La1 Pr3 Ga4 O12'
_cell_volume   242.46743184
_cell_formula_units_Z   1
loop_
 _symmetry_equiv_pos_site_id
 _symmetry_equiv_pos_as_xyz
  1  'x, y, z'
loop_
 _atom_site_type_symbol
 _atom_site_label
 _atom_site_symmetry_multiplicity
 _atom_site_fract_x
 _atom_site_fract_y
 _atom_site_fract_z
 _atom_site_occupancy
  La  La0  1  0.50000000  0.49209800  0.53132000  1
  Pr  Pr0  1  0.50000000  0.00933200  0.03667600  1
  Pr  Pr1  1  0.00000000  0.50961400  0.46231200  1
  Pr  Pr2  1  0.00000000  0.99132100  0.96300700  1
  Ga  Ga0  1  0.24935800  0.00011000  0.50043800  1
  Ga  Ga1  1  0.75039800  0.49998400  0.99905500  1
  Ga  Ga2  1  0.75064200  0.00011000  0.50043800  1
  Ga  Ga3  1  0.24960200  0.49998400  0.99905500  1
  O  O0  1  0.50000000  0.57917300  0.98558200  1
  O  O1  1  0.50000000  0.92452700  0.48316700  1
  O  O2  1  0.00000000  0.42125000  0.01726700  1
  O  O3  1  0.00000000  0.07962700  0.51710700  1
  O  O4  1  0.29127800  0.21377300  0.78696000  1
  O  O5  1  0.70863100  0.28316500  0.28418700  1
  O  O6  1  0.79263600  0.78358400  0.21577400  1
  O  O7  1  0.20632000  0.71591300  0.71536700  1
  O  O8  1  0.20736400  0.78358400  0.21577400  1
  O  O9  1  0.79368000  0.71591300  0.71536700  1
  O  O10  1  0.70872200  0.21377300  0.78696000  1
  O  O11  1  0.29136900  0.28316500  0.28418700  1
loop_
_geom_bond_atom_site_label_1
_geom_bond_atom_site_label_2
_geom_bond_distance
_geom_bond_site_symmetry_2
La0 O1 2.409876 1_555
La0 O11 2.433932 1_555
La0 O5 2.433932 1_555
La0 O0 2.576039 1_555
La0 O10 2.663297 1_555
La0 O4 2.663297 1_555
La0 O7 2.813595 1_555
La0 O9 2.813595 1_555
Ga0 O11 2.004021 1_555
Ga0 O7 2.005912 1_545
Ga0 O3 2.010859 1_555
Ga0 O4 2.014342 1_555
Ga0 O8 2.015644 1_545
Ga0 O1 2.016216 1_545
Ga1 O10 2.004327 1_555
Ga1 O6 2.009015 1_556
Ga1 O9 2.010316 1_555
Ga1 O2 2.012181 1_656
Ga1 O5 2.017596 1_556
Ga1 O0 2.017675 1_555
Ga2 O5 2.004021 1_555
Ga2 O9 2.005912 1_545
Ga2 O3 2.010859 1_655
Ga2 O10 2.014342 1_555
Ga2 O6 2.015644 1_545
Ga2 O1 2.016216 1_545
Ga3 O4 2.004327 1_555
Ga3 O8 2.009015 1_556
Ga3 O7 2.010316 1_555
Ga3 O2 2.012181 1_556
Ga3 O11 2.017596 1_556
Ga3 O0 2.017675 1_555
O0 Pr0 2.399495 1_566
O1 Pr0 2.530785 1_565
O2 Pr2 2.400394 1_544
O2 Pr1 2.527001 1_555
O3 Pr1 2.400843 1_555
O3 Pr2 2.531218 1_545
O4 Pr0 2.430357 1_556
O4 Pr2 2.778391 1_545
O5 Pr0 2.625135 1_555
O5 Pr1 2.793316 1_655
O6 Pr2 2.441502 1_654
O6 Pr1 2.615864 1_655
O6 Pr0 2.801310 1_565
O7 Pr1 2.433754 1_555
O7 Pr2 2.619279 1_555
O8 Pr2 2.441502 1_554
O8 Pr1 2.615864 1_555
O8 Pr0 2.801310 1_565
O9 Pr1 2.433754 1_655
O9 Pr2 2.619279 1_655
O10 Pr0 2.430357 1_556
O10 Pr2 2.778391 1_645
O11 Pr0 2.625135 1_555
O11 Pr1 2.793316 1_555
