# generated using pymatgen
data_LiMg
_symmetry_space_group_name_H-M   'P 1'
_cell_length_a   6.27243959
_cell_length_b   6.27243959
_cell_length_c   20.23445090
_cell_angle_alpha   90.00000000
_cell_angle_beta   90.00000000
_cell_angle_gamma   120.00002096
_symmetry_Int_Tables_number   1
_chemical_formula_structural   LiMg
_chemical_formula_sum   'Li16 Mg16'
_cell_volume   689.43755677
_cell_formula_units_Z   16
loop_
 _symmetry_equiv_pos_site_id
 _symmetry_equiv_pos_as_xyz
  1  'x, y, z'
loop_
 _atom_site_type_symbol
 _atom_site_label
 _atom_site_symmetry_multiplicity
 _atom_site_fract_x
 _atom_site_fract_y
 _atom_site_fract_z
 _atom_site_occupancy
  Li  Li0_0  1  0.33333350  0.16666650  0.31219277  1
  Li  Li0_1  1  0.33333350  0.16666650  0.81219277  1
  Li  Li0_2  1  0.33333350  0.66666650  0.31219277  1
  Li  Li0_3  1  0.33333350  0.66666650  0.81219277  1
  Li  Li0_4  1  0.83333350  0.16666650  0.31219277  1
  Li  Li0_5  1  0.83333350  0.16666650  0.81219277  1
  Li  Li0_6  1  0.83333350  0.66666650  0.31219277  1
  Li  Li0_7  1  0.83333350  0.66666650  0.81219277  1
  Li  Li1_0  1  0.16666650  0.33333350  0.18780722  1
  Li  Li1_1  1  0.16666650  0.33333350  0.68780722  1
  Li  Li1_2  1  0.16666650  0.83333350  0.18780722  1
  Li  Li1_3  1  0.16666650  0.83333350  0.68780722  1
  Li  Li1_4  1  0.66666650  0.33333350  0.18780722  1
  Li  Li1_5  1  0.66666650  0.33333350  0.68780722  1
  Li  Li1_6  1  0.66666650  0.83333350  0.18780722  1
  Li  Li1_7  1  0.66666650  0.83333350  0.68780722  1
  Mg  Mg0_0  1  0.16666650  0.33333350  0.43538971  1
  Mg  Mg0_1  1  0.16666650  0.33333350  0.93538970  1
  Mg  Mg0_2  1  0.16666650  0.83333350  0.43538971  1
  Mg  Mg0_3  1  0.16666650  0.83333350  0.93538970  1
  Mg  Mg0_4  1  0.66666650  0.33333350  0.43538971  1
  Mg  Mg0_5  1  0.66666650  0.33333350  0.93538970  1
  Mg  Mg0_6  1  0.66666650  0.83333350  0.43538971  1
  Mg  Mg0_7  1  0.66666650  0.83333350  0.93538970  1
  Mg  Mg1_0  1  0.33333350  0.16666650  0.06461029  1
  Mg  Mg1_1  1  0.33333350  0.16666650  0.56461029  1
  Mg  Mg1_2  1  0.33333350  0.66666650  0.06461029  1
  Mg  Mg1_3  1  0.33333350  0.66666650  0.56461029  1
  Mg  Mg1_4  1  0.83333350  0.16666650  0.06461029  1
  Mg  Mg1_5  1  0.83333350  0.16666650  0.56461029  1
  Mg  Mg1_6  1  0.83333350  0.66666650  0.06461029  1
  Mg  Mg1_7  1  0.83333350  0.66666650  0.56461029  1
loop_
_geom_bond_atom_site_label_1
_geom_bond_atom_site_label_2
_geom_bond_distance
_geom_bond_site_symmetry_2
Li0_0 Mg0_4 3.081035 1_555
Li0_0 Mg0_2 3.081035 1_545
Li0_0 Mg0_0 3.081039 1_555
Li0_0 Li1_2 3.100527 1_545
Li0_0 Li1_4 3.100527 1_555
Li0_0 Li1_0 3.100531 1_555
Li0_0 Li0_6 3.136219 1_445
Li0_0 Li0_6 3.136219 1_555
Li0_0 Li0_2 3.136220 1_545
Li0_0 Li0_4 3.136220 1_555
Li0_0 Li0_4 3.136220 1_455
Li0_0 Li0_2 3.136220 1_555
Li0_1 Mg0_3 3.081035 1_545
Li0_1 Mg0_5 3.081035 1_555
Li0_1 Mg0_1 3.081039 1_555
Li0_1 Li1_5 3.100527 1_555
Li0_1 Li1_3 3.100527 1_545
Li0_1 Li1_1 3.100531 1_555
Li0_1 Li0_7 3.136219 1_555
Li0_1 Li0_7 3.136219 1_445
Li0_1 Li0_5 3.136220 1_555
Li0_1 Li0_3 3.136220 1_545
Li0_1 Li0_3 3.136220 1_555
Li0_1 Li0_5 3.136220 1_455
Li0_2 Mg0_6 3.081035 1_555
Li0_2 Mg0_0 3.081035 1_555
Li0_2 Mg0_2 3.081039 1_555
Li0_2 Li1_0 3.100527 1_555
Li0_2 Li1_6 3.100527 1_555
Li0_2 Li1_2 3.100531 1_555
Li0_2 Li0_4 3.136219 1_565
Li0_2 Li0_4 3.136219 1_455
Li0_2 Li0_6 3.136220 1_555
Li0_2 Li0_6 3.136220 1_455
Li0_3 Mg0_1 3.081035 1_555
Li0_3 Mg0_7 3.081035 1_555
Li0_3 Mg0_3 3.081039 1_555
Li0_3 Li1_7 3.100527 1_555
Li0_3 Li1_1 3.100527 1_555
Li0_3 Li1_3 3.100531 1_555
Li0_3 Li0_5 3.136219 1_455
Li0_3 Li0_5 3.136219 1_565
Li0_3 Li0_7 3.136220 1_555
Li0_3 Li0_7 3.136220 1_455
Li0_4 Mg0_6 3.081035 1_545
Li0_4 Mg0_0 3.081035 1_655
Li0_4 Mg0_4 3.081039 1_555
Li0_4 Li1_6 3.100527 1_545
Li0_4 Li1_0 3.100527 1_655
Li0_4 Li1_4 3.100531 1_555
Li0_4 Li0_6 3.136220 1_545
Li0_4 Li0_6 3.136220 1_555
Li0_5 Mg0_7 3.081035 1_545
Li0_5 Mg0_1 3.081035 1_655
Li0_5 Mg0_5 3.081039 1_555
Li0_5 Li1_7 3.100527 1_545
Li0_5 Li1_1 3.100527 1_655
Li0_5 Li1_5 3.100531 1_555
Li0_5 Li0_7 3.136220 1_545
Li0_5 Li0_7 3.136220 1_555
Li0_6 Mg0_4 3.081035 1_555
Li0_6 Mg0_2 3.081035 1_655
Li0_6 Mg0_6 3.081039 1_555
Li0_6 Li1_4 3.100527 1_555
Li0_6 Li1_2 3.100527 1_655
Li0_6 Li1_6 3.100531 1_555
Li0_7 Mg0_5 3.081035 1_555
Li0_7 Mg0_3 3.081035 1_655
Li0_7 Mg0_7 3.081039 1_555
Li0_7 Li1_3 3.100527 1_655
Li0_7 Li1_5 3.100527 1_555
Li0_7 Li1_7 3.100531 1_555
Li1_0 Mg1_2 3.081035 1_555
Li1_0 Mg1_4 3.081035 1_455
Li1_0 Mg1_0 3.081039 1_555
Li1_0 Li1_6 3.136219 1_555
Li1_0 Li1_6 3.136219 1_445
Li1_0 Li1_4 3.136220 1_555
Li1_0 Li1_2 3.136220 1_555
Li1_0 Li1_4 3.136220 1_455
Li1_0 Li1_2 3.136220 1_545
Li1_1 Mg1_3 3.081035 1_555
Li1_1 Mg1_5 3.081035 1_455
Li1_1 Mg1_1 3.081039 1_555
Li1_1 Li1_7 3.136219 1_555
Li1_1 Li1_7 3.136219 1_445
Li1_1 Li1_3 3.136220 1_555
Li1_1 Li1_5 3.136220 1_555
Li1_1 Li1_3 3.136220 1_545
Li1_1 Li1_5 3.136220 1_455
Li1_2 Mg1_6 3.081035 1_455
Li1_2 Mg1_0 3.081035 1_565
Li1_2 Mg1_2 3.081039 1_555
Li1_2 Li1_4 3.136219 1_455
Li1_2 Li1_4 3.136219 1_565
Li1_2 Li1_6 3.136220 1_555
Li1_2 Li1_6 3.136220 1_455
Li1_3 Mg1_7 3.081035 1_455
Li1_3 Mg1_1 3.081035 1_565
Li1_3 Mg1_3 3.081039 1_555
Li1_3 Li1_5 3.136219 1_455
Li1_3 Li1_5 3.136219 1_565
Li1_3 Li1_7 3.136220 1_555
Li1_3 Li1_7 3.136220 1_455
Li1_4 Mg1_0 3.081035 1_555
Li1_4 Mg1_6 3.081035 1_555
Li1_4 Mg1_4 3.081039 1_555
Li1_4 Li1_6 3.136220 1_545
Li1_4 Li1_6 3.136220 1_555
Li1_5 Mg1_1 3.081035 1_555
Li1_5 Mg1_7 3.081035 1_555
Li1_5 Mg1_5 3.081039 1_555
Li1_5 Li1_7 3.136220 1_545
Li1_5 Li1_7 3.136220 1_555
Li1_6 Mg1_2 3.081035 1_555
Li1_6 Mg1_4 3.081035 1_565
Li1_6 Mg1_6 3.081039 1_555
Li1_7 Mg1_3 3.081035 1_555
Li1_7 Mg1_5 3.081035 1_565
Li1_7 Mg1_7 3.081039 1_555
Mg0_0 Mg0_6 3.136219 1_555
Mg0_0 Mg0_6 3.136219 1_445
Mg0_0 Mg0_4 3.136220 1_555
Mg0_0 Mg0_2 3.136220 1_555
Mg0_0 Mg0_2 3.136220 1_545
Mg0_0 Mg0_4 3.136220 1_455
Mg0_0 Mg1_5 3.180458 1_455
Mg0_0 Mg1_3 3.180458 1_555
Mg0_0 Mg1_1 3.180461 1_555
Mg0_1 Mg0_7 3.136219 1_555
Mg0_1 Mg0_7 3.136219 1_445
Mg0_1 Mg0_3 3.136220 1_555
Mg0_1 Mg0_5 3.136220 1_555
Mg0_1 Mg0_3 3.136220 1_545
Mg0_1 Mg0_5 3.136220 1_455
Mg0_1 Mg1_4 3.180458 1_456
Mg0_1 Mg1_2 3.180458 1_556
Mg0_1 Mg1_0 3.180461 1_556
Mg0_2 Mg0_4 3.136219 1_565
Mg0_2 Mg0_4 3.136219 1_455
Mg0_2 Mg0_6 3.136220 1_555
Mg0_2 Mg0_6 3.136220 1_455
Mg0_2 Mg1_7 3.180458 1_455
Mg0_2 Mg1_1 3.180458 1_565
Mg0_2 Mg1_3 3.180461 1_555
Mg0_3 Mg0_5 3.136219 1_455
Mg0_3 Mg0_5 3.136219 1_565
Mg0_3 Mg0_7 3.136220 1_555
Mg0_3 Mg0_7 3.136220 1_455
Mg0_3 Mg1_0 3.180458 1_566
Mg0_3 Mg1_6 3.180458 1_456
Mg0_3 Mg1_2 3.180461 1_556
Mg0_4 Mg0_6 3.136220 1_545
Mg0_4 Mg0_6 3.136220 1_555
Mg0_4 Mg1_1 3.180458 1_555
Mg0_4 Mg1_7 3.180458 1_555
Mg0_4 Mg1_5 3.180461 1_555
Mg0_5 Mg0_7 3.136220 1_545
Mg0_5 Mg0_7 3.136220 1_555
Mg0_5 Mg1_0 3.180458 1_556
Mg0_5 Mg1_6 3.180458 1_556
Mg0_5 Mg1_4 3.180461 1_556
Mg0_6 Mg1_3 3.180458 1_555
Mg0_6 Mg1_5 3.180458 1_565
Mg0_6 Mg1_7 3.180461 1_555
Mg0_7 Mg1_2 3.180458 1_556
Mg0_7 Mg1_4 3.180458 1_566
Mg0_7 Mg1_6 3.180461 1_556
Mg1_0 Mg1_6 3.136219 1_555
Mg1_0 Mg1_6 3.136219 1_445
Mg1_0 Mg1_2 3.136220 1_545
Mg1_0 Mg1_4 3.136220 1_555
Mg1_0 Mg1_2 3.136220 1_555
Mg1_0 Mg1_4 3.136220 1_455
Mg1_1 Mg1_7 3.136219 1_445
Mg1_1 Mg1_7 3.136219 1_555
Mg1_1 Mg1_5 3.136220 1_555
Mg1_1 Mg1_3 3.136220 1_545
Mg1_1 Mg1_5 3.136220 1_455
Mg1_1 Mg1_3 3.136220 1_555
Mg1_2 Mg1_4 3.136219 1_455
Mg1_2 Mg1_4 3.136219 1_565
Mg1_2 Mg1_6 3.136220 1_555
Mg1_2 Mg1_6 3.136220 1_455
Mg1_3 Mg1_5 3.136219 1_455
Mg1_3 Mg1_5 3.136219 1_565
Mg1_3 Mg1_7 3.136220 1_555
Mg1_3 Mg1_7 3.136220 1_455
Mg1_4 Mg1_6 3.136220 1_545
Mg1_4 Mg1_6 3.136220 1_555
Mg1_5 Mg1_7 3.136220 1_545
Mg1_5 Mg1_7 3.136220 1_555
