# generated using pymatgen
data_Y2(InPb)3
_symmetry_space_group_name_H-M   'P 1'
_cell_length_a   4.80200200
_cell_length_b   4.81311200
_cell_length_c   9.51312100
_cell_angle_alpha   90.00000000
_cell_angle_beta   90.00000000
_cell_angle_gamma   90.00000000
_symmetry_Int_Tables_number   1
_chemical_formula_structural   Y2(InPb)3
_chemical_formula_sum   'Y2 In3 Pb3'
_cell_volume   219.87270785
_cell_formula_units_Z   1
loop_
 _symmetry_equiv_pos_site_id
 _symmetry_equiv_pos_as_xyz
  1  'x, y, z'
loop_
 _atom_site_type_symbol
 _atom_site_label
 _atom_site_symmetry_multiplicity
 _atom_site_fract_x
 _atom_site_fract_y
 _atom_site_fract_z
 _atom_site_occupancy
  Y  Y0  1  0.00000000  0.00000000  0.24930700  1
  Y  Y1  1  0.00000000  0.00000000  0.75069300  1
  In  In0  1  0.50000000  0.50000000  0.25257300  1
  In  In1  1  0.50000000  0.50000000  0.74742700  1
  In  In2  1  0.00000000  0.50000000  0.50000000  1
  Pb  Pb0  1  0.00000000  0.50000000  0.00000000  1
  Pb  Pb1  1  0.50000000  0.00000000  0.50000000  1
  Pb  Pb2  1  0.50000000  0.00000000  0.00000000  1
loop_
_geom_bond_atom_site_label_1
_geom_bond_atom_site_label_2
_geom_bond_distance
_geom_bond_site_symmetry_2
In0 In2 3.362320 1_555
In0 In2 3.362320 1_655
In0 Pb1 3.366289 1_565
In0 Pb1 3.366289 1_555
In0 Pb0 3.396770 1_555
In0 Pb0 3.396770 1_655
In0 Y0 3.399600 1_655
In0 Y0 3.399600 1_555
In0 Y0 3.399600 1_565
In0 Y0 3.399600 1_665
In0 Pb2 3.400699 1_565
In0 Pb2 3.400699 1_555
In1 In2 3.362320 1_555
In1 In2 3.362320 1_655
In1 Pb1 3.366289 1_565
In1 Pb1 3.366289 1_555
In1 Pb0 3.396770 1_656
In1 Pb0 3.396770 1_556
In1 Y1 3.399600 1_555
In1 Y1 3.399600 1_665
In1 Y1 3.399600 1_565
In1 Y1 3.399600 1_655
In1 Pb2 3.400699 1_566
In1 Pb2 3.400699 1_556
In2 Y1 3.388087 1_565
In2 Y1 3.388087 1_555
In2 Y0 3.388087 1_555
In2 Y0 3.388087 1_565
In2 Pb1 3.399458 1_565
In2 Pb1 3.399458 1_455
In2 Pb1 3.399458 1_555
In2 Pb1 3.399458 1_465
Pb0 Y1 3.378818 1_554
Pb0 Y0 3.378818 1_555
Pb0 Y0 3.378818 1_565
Pb0 Y1 3.378818 1_564
Pb1 Y0 3.384143 1_555
Pb1 Y0 3.384143 1_655
Pb1 Y1 3.384143 1_555
Pb1 Y1 3.384143 1_655
Pb2 Y1 3.374864 1_554
Pb2 Y1 3.374864 1_654
Pb2 Y0 3.374864 1_555
Pb2 Y0 3.374864 1_655
