# generated using pymatgen
data_Ca2MnWO6
_symmetry_space_group_name_H-M   'P 1'
_cell_length_a   5.62075850
_cell_length_b   5.72751211
_cell_length_c   9.73754029
_cell_angle_alpha   106.48996845
_cell_angle_beta   90.02798005
_cell_angle_gamma   60.64733058
_symmetry_Int_Tables_number   1
_chemical_formula_structural   Ca2MnWO6
_chemical_formula_sum   'Ca4 Mn2 W2 O12'
_cell_volume   258.36670505
_cell_formula_units_Z   2
loop_
 _symmetry_equiv_pos_site_id
 _symmetry_equiv_pos_as_xyz
  1  'x, y, z'
loop_
 _atom_site_type_symbol
 _atom_site_label
 _atom_site_symmetry_multiplicity
 _atom_site_fract_x
 _atom_site_fract_y
 _atom_site_fract_z
 _atom_site_occupancy
  Ca  Ca0  1  0.60006600  0.81568100  0.13965600  1
  Ca  Ca1  1  0.10024500  0.81517200  0.63950900  1
  Ca  Ca2  1  0.35242400  0.31118100  0.88867600  1
  Ca  Ca3  1  0.85235800  0.31129200  0.38874800  1
  Mn  Mn0  1  0.25753100  0.50078800  0.25371800  1
  Mn  Mn1  1  0.75758300  0.50055900  0.75376500  1
  W  W0  1  0.51831900  0.97894900  0.50001100  1
  W  W1  1  0.01835600  0.97895800  0.00001500  1
  O  O0  1  0.69817900  0.19321700  0.56997700  1
  O  O1  1  0.19808500  0.19336700  0.06993400  1
  O  O2  1  0.37598100  0.71668700  0.43054400  1
  O  O3  1  0.87597900  0.71669400  0.93059100  1
  O  O4  1  0.31978200  0.19219800  0.37458600  1
  O  O5  1  0.81985200  0.19198100  0.87445800  1
  O  O6  1  0.21607400  0.19377300  0.66179900  1
  O  O7  1  0.71612700  0.19386700  0.16182100  1
  O  O8  1  0.82542800  0.71675000  0.33278000  1
  O  O9  1  0.32546000  0.71671100  0.83270100  1
  O  O10  1  0.74692300  0.71719900  0.60634100  1
  O  O11  1  0.24700900  0.71733800  0.10634300  1
loop_
_geom_bond_atom_site_label_1
_geom_bond_atom_site_label_2
_geom_bond_distance
_geom_bond_site_symmetry_2
Ca0 O11 2.313436 1_555
Ca0 O3 2.314478 1_554
Ca0 O8 2.315388 1_555
Ca0 O4 2.497589 1_565
Ca0 O7 2.506738 1_565
Ca0 O1 2.507192 1_565
Ca1 O10 2.313470 1_455
Ca1 O2 2.314100 1_555
Ca1 O9 2.315063 1_555
Ca1 O5 2.498333 1_465
Ca1 O0 2.507492 1_465
Ca1 O6 2.507952 1_565
Ca2 O1 2.361067 1_556
Ca2 O5 2.361394 1_555
Ca2 O6 2.362296 1_555
Ca2 O9 2.467469 1_555
Ca2 O3 2.469362 1_455
Ca2 O11 2.471013 1_556
Ca3 O0 2.361390 1_555
Ca3 O4 2.361550 1_655
Ca3 O7 2.362419 1_555
Ca3 O8 2.467110 1_555
Ca3 O2 2.468997 1_555
Ca3 O10 2.469732 1_555
Mn0 O2 2.129411 1_555
Mn0 O8 2.130146 1_455
Mn0 O11 2.130657 1_555
Mn0 O1 2.280777 1_555
Mn0 O7 2.280837 1_555
Mn0 O4 2.281619 1_555
Mn1 O3 2.129912 1_555
Mn1 O9 2.129913 1_555
Mn1 O10 2.131249 1_555
Mn1 O5 2.280285 1_555
Mn1 O0 2.280394 1_555
Mn1 O6 2.280428 1_655
O0 W0 1.932159 1_545
O1 W1 1.932106 1_545
O2 W0 1.988664 1_555
O3 W1 1.988791 1_656
O4 W0 1.933395 1_545
O5 W1 1.933705 1_646
O6 W0 1.932582 1_545
O7 W1 1.932630 1_645
O8 W0 1.989917 1_555
O9 W1 1.990418 1_556
O10 W0 1.990475 1_555
O11 W1 1.990101 1_555
