# generated using pymatgen
data_HfMnGe
_symmetry_space_group_name_H-M   'P 1'
_cell_length_a   6.74383568
_cell_length_b   6.74374214
_cell_length_c   3.76912919
_cell_angle_alpha   90.00000000
_cell_angle_beta   90.00000000
_cell_angle_gamma   119.99975503
_symmetry_Int_Tables_number   1
_chemical_formula_structural   HfMnGe
_chemical_formula_sum   'Hf3 Mn3 Ge3'
_cell_volume   148.45015752
_cell_formula_units_Z   3
loop_
 _symmetry_equiv_pos_site_id
 _symmetry_equiv_pos_as_xyz
  1  'x, y, z'
loop_
 _atom_site_type_symbol
 _atom_site_label
 _atom_site_symmetry_multiplicity
 _atom_site_fract_x
 _atom_site_fract_y
 _atom_site_fract_z
 _atom_site_occupancy
  Hf  Hf0  1  0.99996646  0.41253755  0.50000000  1
  Hf  Hf1  1  0.58747099  0.58748206  0.50000000  1
  Hf  Hf2  1  0.41255319  0.99997751  0.50000000  1
  Mn  Mn0  1  -0.00000673  0.75209998  -0.00000000  1
  Mn  Mn1  1  0.24790652  0.24790338  0.00000000  1
  Mn  Mn2  1  0.75210015  -0.00000585  -0.00000000  1
  Ge  Ge0  1  0.33335093  0.66669287  -0.00000000  1
  Ge  Ge1  1  0.66669054  0.33332295  -0.00000000  1
  Ge  Ge2  1  -0.00003206  -0.00001145  0.50000000  1
loop_
_geom_bond_atom_site_label_1
_geom_bond_atom_site_label_2
_geom_bond_distance
_geom_bond_site_symmetry_2
Hf0 Mn0 2.965621 1_656
Hf0 Mn0 2.965621 1_655
Hf0 Mn2 3.071696 1_556
Hf0 Mn2 3.071696 1_555
Hf0 Mn1 3.071880 1_655
Hf0 Mn1 3.071880 1_656
Hf1 Mn1 2.965758 1_555
Hf1 Mn1 2.965758 1_556
Hf1 Mn2 3.071567 1_566
Hf1 Mn2 3.071567 1_565
Hf1 Mn0 3.071653 1_656
Hf1 Mn0 3.071653 1_655
Hf2 Mn2 2.965592 1_566
Hf2 Mn2 2.965592 1_565
Hf2 Mn0 3.071796 1_555
Hf2 Mn0 3.071796 1_556
Hf2 Mn1 3.071857 1_566
Hf2 Mn1 3.071857 1_565
Ge0 Mn2 2.584490 1_565
Ge0 Mn0 2.584676 1_555
Ge0 Mn1 2.584729 1_555
Ge0 Hf2 2.772730 1_554
Ge0 Hf2 2.772730 1_555
Ge0 Hf1 2.772956 1_555
Ge0 Hf1 2.772956 1_554
Ge0 Hf0 2.773193 1_455
Ge0 Hf0 2.773193 1_454
Ge1 Mn2 2.584471 1_555
Ge1 Mn0 2.584601 1_655
Ge1 Mn1 2.584788 1_555
Ge1 Hf0 2.772694 1_555
Ge1 Hf0 2.772694 1_554
Ge1 Hf2 2.773024 1_545
Ge1 Hf2 2.773024 1_544
Ge1 Hf1 2.773160 1_555
Ge1 Hf1 2.773160 1_554
Ge2 Mn2 2.519092 1_455
Ge2 Mn2 2.519092 1_456
Ge2 Mn0 2.519214 1_546
Ge2 Mn0 2.519214 1_545
Ge2 Mn1 2.519340 1_555
Ge2 Mn1 2.519340 1_556
Ge2 Hf1 2.781835 1_445
Ge2 Hf0 2.782129 1_455
Ge2 Hf2 2.782444 1_545
