# generated using pymatgen
data_LiEu2CoO4
_symmetry_space_group_name_H-M   'P 1'
_cell_length_a   3.73591215
_cell_length_b   8.80044188
_cell_length_c   5.24618791
_cell_angle_alpha   106.99913130
_cell_angle_beta   44.58159349
_cell_angle_gamma   101.97828113
_symmetry_Int_Tables_number   1
_chemical_formula_structural   LiEu2CoO4
_chemical_formula_sum   'Li1 Eu2 Co1 O4'
_cell_volume   115.77994476
_cell_formula_units_Z   1
loop_
 _symmetry_equiv_pos_site_id
 _symmetry_equiv_pos_as_xyz
  1  'x, y, z'
loop_
 _atom_site_type_symbol
 _atom_site_label
 _atom_site_symmetry_multiplicity
 _atom_site_fract_x
 _atom_site_fract_y
 _atom_site_fract_z
 _atom_site_occupancy
  Li  Li0  1  0.99908800  0.00110900  0.50102100  1
  Eu  Eu0  1  0.99719000  0.65532100  0.32791000  1
  Eu  Eu1  1  0.99833800  0.34595900  0.67533800  1
  Co  Co0  1  0.99899100  0.00102500  0.00103900  1
  O  O0  1  0.99643300  0.38399400  0.19478100  1
  O  O1  1  0.49900200  0.00147300  0.50128000  1
  O  O2  1  0.49899400  0.00066500  0.00080200  1
  O  O3  1  0.99792700  0.61734100  0.80865700  1
loop_
_geom_bond_atom_site_label_1
_geom_bond_atom_site_label_2
_geom_bond_distance
_geom_bond_site_symmetry_2
Li0 O2 1.841215 1_556
Li0 O2 1.841219 1_655
Li0 O1 1.867940 1_655
Li0 O1 1.867977 1_555
Eu0 O0 2.283477 1_555
Eu0 O3 2.640434 1_455
Eu0 O3 2.641181 1_555
Eu0 O3 2.643580 1_654
Eu0 O3 2.643814 1_554
Eu1 O3 2.283935 1_555
Eu1 O0 2.637418 1_655
Eu1 O0 2.641637 1_556
Eu1 O0 2.643477 1_555
Eu1 O0 2.646707 1_456
Co0 O1 1.841142 1_654
Co0 O1 1.841293 1_555
Co0 O2 1.867742 1_655
Co0 O2 1.868175 1_555
