# generated using pymatgen
data_CeH3CSO7
_symmetry_space_group_name_H-M   'P 1'
_cell_length_a   7.06726800
_cell_length_b   7.06726800
_cell_length_c   12.03962000
_cell_angle_alpha   90.00000000
_cell_angle_beta   90.00000000
_cell_angle_gamma   90.00000000
_symmetry_Int_Tables_number   1
_chemical_formula_structural   CeH3CSO7
_chemical_formula_sum   'Ce4 H12 C4 S4 O28'
_cell_volume   601.33419530
_cell_formula_units_Z   4
loop_
 _symmetry_equiv_pos_site_id
 _symmetry_equiv_pos_as_xyz
  1  'x, y, z'
loop_
 _atom_site_type_symbol
 _atom_site_label
 _atom_site_symmetry_multiplicity
 _atom_site_fract_x
 _atom_site_fract_y
 _atom_site_fract_z
 _atom_site_occupancy
  Ce  Ce0  1  0.86558800  0.60746400  0.72389400  1
  Ce  Ce1  1  0.13441200  0.39253600  0.22389400  1
  Ce  Ce2  1  0.60746400  0.13441200  0.47389400  1
  Ce  Ce3  1  0.39253600  0.86558800  0.97389400  1
  H  H0  1  0.34954400  0.52382900  0.68139000  1
  H  H1  1  0.65045600  0.47617100  0.18139000  1
  H  H2  1  0.52382900  0.65045600  0.43139000  1
  H  H3  1  0.47617100  0.34954400  0.93139000  1
  H  H4  1  0.04547000  0.88513200  0.55178300  1
  H  H5  1  0.95453000  0.11486800  0.05178300  1
  H  H6  1  0.88513200  0.95453000  0.30178300  1
  H  H7  1  0.11486800  0.04547000  0.80178300  1
  H  H8  1  0.08685100  0.68527000  0.50082900  1
  H  H9  1  0.91314900  0.31473000  0.00082900  1
  H  H10  1  0.68527000  0.91314900  0.25082900  1
  H  H11  1  0.31473000  0.08685100  0.75082900  1
  C  C0  1  0.35570400  0.60611200  0.75915200  1
  C  C1  1  0.64429600  0.39388800  0.25915200  1
  C  C2  1  0.60611200  0.64429600  0.50915200  1
  C  C3  1  0.39388800  0.35570400  0.00915200  1
  S  S0  1  0.74123600  0.11082600  0.77825800  1
  S  S1  1  0.25876400  0.88917400  0.27825800  1
  S  S2  1  0.11082600  0.25876400  0.52825800  1
  S  S3  1  0.88917400  0.74123600  0.02825800  1
  O  O0  1  0.88567900  0.96046000  0.75430200  1
  O  O1  1  0.11432100  0.03954000  0.25430200  1
  O  O2  1  0.96046000  0.11432100  0.50430200  1
  O  O3  1  0.03954000  0.88567900  0.00430200  1
  O  O4  1  0.61994600  0.04721000  0.87101400  1
  O  O5  1  0.38005400  0.95279000  0.37101400  1
  O  O6  1  0.04721000  0.38005400  0.62101400  1
  O  O7  1  0.95279000  0.61994600  0.12101400  1
  O  O8  1  0.62348600  0.14707600  0.67849900  1
  O  O9  1  0.37651400  0.85292400  0.17849900  1
  O  O10  1  0.14707600  0.37651400  0.42849900  1
  O  O11  1  0.85292400  0.62348600  0.92849900  1
  O  O12  1  0.83830500  0.28792600  0.81265100  1
  O  O13  1  0.16169500  0.71207400  0.31265100  1
  O  O14  1  0.28792600  0.16169500  0.56265100  1
  O  O15  1  0.71207400  0.83830500  0.06265100  1
  O  O16  1  0.20165900  0.64799500  0.80806700  1
  O  O17  1  0.79834100  0.35200500  0.30806700  1
  O  O18  1  0.64799500  0.79834100  0.55806700  1
  O  O19  1  0.35200500  0.20165900  0.05806700  1
  O  O20  1  0.51649000  0.65465200  0.79800500  1
  O  O21  1  0.48351000  0.34534800  0.29800500  1
  O  O22  1  0.65465200  0.48351000  0.54800500  1
  O  O23  1  0.34534800  0.51649000  0.04800500  1
  O  O24  1  0.06663500  0.75116500  0.57135500  1
  O  O25  1  0.93336500  0.24883500  0.07135500  1
  O  O26  1  0.75116500  0.93336500  0.32135500  1
  O  O27  1  0.24883500  0.06663500  0.82135500  1
loop_
_geom_bond_atom_site_label_1
_geom_bond_atom_site_label_2
_geom_bond_distance
_geom_bond_site_symmetry_2
Ce0 O6 2.400992 1_655
Ce0 O11 2.467591 1_555
Ce0 O12 2.505759 1_555
Ce0 O0 2.525432 1_555
Ce0 O24 2.534361 1_655
Ce0 O16 2.598109 1_655
Ce0 O20 2.644670 1_555
Ce0 O22 2.733880 1_555
Ce0 O18 2.858413 1_555
Ce1 O7 2.400992 1_455
Ce1 O10 2.467591 1_555
Ce1 O13 2.505759 1_555
Ce1 O1 2.525432 1_555
Ce1 O25 2.534361 1_455
Ce1 O17 2.598109 1_455
Ce1 O21 2.644670 1_555
Ce1 O23 2.733880 1_555
Ce1 O19 2.858413 1_555
Ce2 O5 2.400992 1_545
Ce2 O8 2.467591 1_555
Ce2 O14 2.505759 1_555
Ce2 O2 2.525432 1_555
Ce2 O26 2.534361 1_545
Ce2 O18 2.598109 1_545
Ce2 O22 2.644670 1_555
Ce2 O21 2.733880 1_555
Ce2 O17 2.858413 1_555
Ce3 O4 2.400992 1_565
Ce3 O9 2.467591 1_556
Ce3 O15 2.505759 1_556
Ce3 O3 2.525432 1_556
Ce3 O27 2.534361 1_565
Ce3 O19 2.598109 1_566
Ce3 O23 2.644670 1_556
Ce3 O20 2.733880 1_555
Ce3 O16 2.858413 1_555
H4 O24 0.987063 1_555
H5 O25 0.987063 1_555
H6 O26 0.987063 1_555
H7 O27 0.987063 1_555
H8 O24 0.978912 1_555
H9 O25 0.978912 1_555
H10 O26 0.978912 1_555
H11 O27 0.978912 1_555
C0 H0 1.102984 1_555
C0 O16 1.272658 1_555
C0 O20 1.275818 1_555
C1 H1 1.102984 1_555
C1 O17 1.272658 1_555
C1 O21 1.275818 1_555
C2 H2 1.102984 1_555
C2 O18 1.272658 1_555
C2 O22 1.275818 1_555
C3 H3 1.102984 1_554
C3 O19 1.272658 1_555
C3 O23 1.275818 1_555
O0 S0 1.501512 1_565
O1 S1 1.501512 1_545
O2 S2 1.501512 1_655
O3 S3 1.501512 1_455
O4 S0 1.477846 1_555
O5 S1 1.477846 1_555
O6 S2 1.477846 1_555
O7 S3 1.477846 1_555
O8 S0 1.483471 1_555
O9 S1 1.483471 1_555
O10 S2 1.483471 1_555
O11 S3 1.483471 1_556
O12 S0 1.486139 1_555
O13 S1 1.486139 1_555
O14 S2 1.486139 1_555
O15 S3 1.486139 1_555
