# generated using pymatgen
data_Na2VAuF6
_symmetry_space_group_name_H-M   'P 1'
_cell_length_a   6.16089900
_cell_length_b   6.16089921
_cell_length_c   6.16089917
_cell_angle_alpha   60.00000008
_cell_angle_beta   59.99999557
_cell_angle_gamma   59.99999577
_symmetry_Int_Tables_number   1
_chemical_formula_structural   Na2VAuF6
_chemical_formula_sum   'Na2 V1 Au1 F6'
_cell_volume   165.35497604
_cell_formula_units_Z   1
loop_
 _symmetry_equiv_pos_site_id
 _symmetry_equiv_pos_as_xyz
  1  'x, y, z'
loop_
 _atom_site_type_symbol
 _atom_site_label
 _atom_site_symmetry_multiplicity
 _atom_site_fract_x
 _atom_site_fract_y
 _atom_site_fract_z
 _atom_site_occupancy
  Na  Na0  1  0.25000000  0.25000000  0.25000000  1
  Na  Na1  1  0.75000000  0.75000000  0.75000000  1
  V  V0  1  0.00000000  0.00000000  0.00000000  1
  Au  Au0  1  0.50000000  0.50000000  0.50000000  1
  F  F0  1  0.22321500  0.77678500  0.22321500  1
  F  F1  1  0.77678500  0.77678500  0.22321500  1
  F  F2  1  0.77678500  0.22321500  0.77678500  1
  F  F3  1  0.77678500  0.22321500  0.22321500  1
  F  F4  1  0.22321500  0.77678500  0.77678500  1
  F  F5  1  0.22321500  0.22321500  0.77678500  1
loop_
_geom_bond_atom_site_label_1
_geom_bond_atom_site_label_2
_geom_bond_distance
_geom_bond_site_symmetry_2
Au0 F4 2.411580 1_555
Au0 F3 2.411580 1_555
Au0 F2 2.411580 1_555
Au0 F1 2.411580 1_555
Au0 F0 2.411580 1_555
Au0 F5 2.411580 1_555
F0 V0 1.944834 1_565
F1 V0 1.944834 1_665
F2 V0 1.944834 1_656
F3 V0 1.944834 1_655
F4 V0 1.944834 1_566
F5 V0 1.944834 1_556
