# generated using pymatgen
data_C3S7O
_symmetry_space_group_name_H-M   'P 1'
_cell_length_a   4.55796372
_cell_length_b   9.15137889
_cell_length_c   12.49924197
_cell_angle_alpha   102.52828812
_cell_angle_beta   98.09712730
_cell_angle_gamma   88.56462150
_symmetry_Int_Tables_number   1
_chemical_formula_structural   C3S7O
_chemical_formula_sum   'C6 S14 O2'
_cell_volume   503.86782310
_cell_formula_units_Z   2
loop_
 _symmetry_equiv_pos_site_id
 _symmetry_equiv_pos_as_xyz
  1  'x, y, z'
loop_
 _atom_site_type_symbol
 _atom_site_label
 _atom_site_symmetry_multiplicity
 _atom_site_fract_x
 _atom_site_fract_y
 _atom_site_fract_z
 _atom_site_occupancy
  C  C0  1  0.31883800  0.64117600  0.21070200  1
  C  C1  1  0.68116200  0.35882400  0.78929800  1
  C  C2  1  0.35862100  0.71310800  0.32014600  1
  C  C3  1  0.64137900  0.28689200  0.67985400  1
  C  C4  1  0.66805300  0.46243500  0.31334200  1
  C  C5  1  0.33194700  0.53756500  0.68665800  1
  S  S0  1  0.18621300  0.88016200  0.37934000  1
  S  S1  1  0.81378700  0.11983800  0.62066000  1
  S  S2  1  0.39872400  0.04807100  0.33288300  1
  S  S3  1  0.60127600  0.95192900  0.66711700  1
  S  S4  1  0.16474200  0.06370700  0.18157800  1
  S  S5  1  0.83525800  0.93629300  0.81842200  1
  S  S6  1  0.30866800  0.87973000  0.07419400  1
  S  S7  1  0.69133200  0.12027000  0.92580600  1
  S  S8  1  0.09052800  0.69916300  0.10164200  1
  S  S9  1  0.90947200  0.30083700  0.89835800  1
  S  S10  1  0.49675400  0.46998500  0.17672700  1
  S  S11  1  0.50324600  0.53001500  0.82327300  1
  S  S12  1  0.58503400  0.62582100  0.41163200  1
  S  S13  1  0.41496600  0.37417900  0.58836800  1
  O  O0  1  0.82714000  0.36131100  0.33599800  1
  O  O1  1  0.17286000  0.63868900  0.66400200  1
loop_
_geom_bond_atom_site_label_1
_geom_bond_atom_site_label_2
_geom_bond_distance
_geom_bond_site_symmetry_2
C0 C2 1.372213 1_555
C0 S10 1.742706 1_555
C0 S8 1.763318 1_555
C1 C3 1.372213 1_555
C1 S11 1.742706 1_555
C1 S9 1.763318 1_555
C2 S12 1.741615 1_555
C2 S0 1.764930 1_555
C3 S13 1.741615 1_555
C3 S1 1.764930 1_555
C4 O0 1.218451 1_555
C4 S12 1.787131 1_555
C4 S10 1.789729 1_555
C5 O1 1.218451 1_555
C5 S13 1.787131 1_555
C5 S11 1.789729 1_555
S0 S2 2.063167 1_565
S1 S3 2.063167 1_545
S2 S4 2.067866 1_555
S3 S5 2.067866 1_555
S4 S6 2.068540 1_545
S5 S7 2.068540 1_565
S6 S8 2.064265 1_555
S7 S9 2.064265 1_555
