# generated using pymatgen
data_Na3MnO4
_symmetry_space_group_name_H-M   'P 1'
_cell_length_a   7.89456400
_cell_length_b   7.89456400
_cell_length_c   7.89456400
_cell_angle_alpha   90.00000000
_cell_angle_beta   90.00000000
_cell_angle_gamma   90.00000000
_symmetry_Int_Tables_number   1
_chemical_formula_structural   Na3MnO4
_chemical_formula_sum   'Na12 Mn4 O16'
_cell_volume   492.02191790
_cell_formula_units_Z   4
loop_
 _symmetry_equiv_pos_site_id
 _symmetry_equiv_pos_as_xyz
  1  'x, y, z'
loop_
 _atom_site_type_symbol
 _atom_site_label
 _atom_site_symmetry_multiplicity
 _atom_site_fract_x
 _atom_site_fract_y
 _atom_site_fract_z
 _atom_site_occupancy
  Na  Na0  1  0.00601500  0.00601500  0.00601500  1
  Na  Na1  1  0.49398500  0.99398500  0.50601500  1
  Na  Na2  1  0.99398500  0.50601500  0.49398500  1
  Na  Na3  1  0.50601500  0.49398500  0.99398500  1
  Na  Na4  1  0.21616300  0.21616300  0.21616300  1
  Na  Na5  1  0.28383700  0.78383700  0.71616300  1
  Na  Na6  1  0.78383700  0.71616300  0.28383700  1
  Na  Na7  1  0.71616300  0.28383700  0.78383700  1
  Na  Na8  1  0.74261100  0.74261100  0.74261100  1
  Na  Na9  1  0.75738900  0.25738900  0.24261100  1
  Na  Na10  1  0.25738900  0.24261100  0.75738900  1
  Na  Na11  1  0.24261100  0.75738900  0.25738900  1
  Mn  Mn0  1  0.49827500  0.49827500  0.49827500  1
  Mn  Mn1  1  0.00172500  0.50172500  0.99827500  1
  Mn  Mn2  1  0.50172500  0.99827500  0.00172500  1
  Mn  Mn3  1  0.99827500  0.00172500  0.50172500  1
  O  O0  1  0.37455000  0.37455000  0.37455000  1
  O  O1  1  0.12545000  0.62545000  0.87455000  1
  O  O2  1  0.62545000  0.87455000  0.12545000  1
  O  O3  1  0.87455000  0.12545000  0.62545000  1
  O  O4  1  0.97357000  0.05959600  0.29210500  1
  O  O5  1  0.52643000  0.94040400  0.79210500  1
  O  O6  1  0.02643000  0.55959600  0.20789500  1
  O  O7  1  0.29210500  0.97357000  0.05959600  1
  O  O8  1  0.47357000  0.44040400  0.70789500  1
  O  O9  1  0.79210500  0.52643000  0.94040400  1
  O  O10  1  0.20789500  0.02643000  0.55959600  1
  O  O11  1  0.70789500  0.47357000  0.44040400  1
  O  O12  1  0.05959600  0.29210500  0.97357000  1
  O  O13  1  0.55959600  0.20789500  0.02643000  1
  O  O14  1  0.44040400  0.70789500  0.47357000  1
  O  O15  1  0.94040400  0.79210500  0.52643000  1
loop_
_geom_bond_atom_site_label_1
_geom_bond_atom_site_label_2
_geom_bond_distance
_geom_bond_site_symmetry_2
Na0 O4 2.312057 1_455
Na0 O7 2.312057 1_545
Na0 O12 2.312057 1_554
Na1 O5 2.312057 1_555
Na1 O14 2.312057 1_555
Na1 O10 2.312057 1_565
Na2 O15 2.312057 1_555
Na2 O11 2.312057 1_555
Na2 O6 2.312057 1_655
Na3 O9 2.312057 1_555
Na3 O8 2.312057 1_555
Na3 O13 2.312057 1_556
Na4 O0 2.165750 1_555
Na4 O12 2.356918 1_554
Na4 O4 2.356918 1_455
Na4 O7 2.356918 1_545
Na5 O1 2.165750 1_555
Na5 O5 2.356918 1_555
Na5 O10 2.356918 1_565
Na5 O14 2.356918 1_555
Na6 O2 2.165750 1_555
Na6 O6 2.356918 1_655
Na6 O11 2.356918 1_555
Na6 O15 2.356918 1_555
Na7 O3 2.165750 1_555
Na7 O13 2.356918 1_556
Na7 O9 2.356918 1_555
Na7 O8 2.356918 1_555
Na8 O15 2.345974 1_555
Na8 O5 2.345974 1_555
Na8 O9 2.345974 1_555
Na9 O13 2.345974 1_555
Na9 O4 2.345974 1_555
Na9 O11 2.345974 1_555
Na10 O10 2.345974 1_555
Na10 O8 2.345974 1_555
Na10 O12 2.345974 1_555
Na11 O6 2.345974 1_555
Na11 O7 2.345974 1_555
Na11 O14 2.345974 1_555
Mn0 O0 1.691789 1_555
Mn0 O8 1.727809 1_555
Mn0 O11 1.727809 1_555
Mn0 O14 1.727809 1_555
Mn1 O1 1.691789 1_555
Mn1 O6 1.727809 1_556
Mn1 O12 1.727809 1_555
Mn1 O9 1.727809 1_455
Mn2 O2 1.691789 1_555
Mn2 O13 1.727809 1_565
Mn2 O7 1.727809 1_555
Mn2 O5 1.727809 1_554
Mn3 O3 1.691789 1_555
Mn3 O10 1.727809 1_655
Mn3 O4 1.727809 1_555
Mn3 O15 1.727809 1_545
