# generated using pymatgen
data_Pr3ReO8
_symmetry_space_group_name_H-M   'P 1'
_cell_length_a   6.20950775
_cell_length_b   7.50310395
_cell_length_c   15.02020728
_cell_angle_alpha   69.48239440
_cell_angle_beta   90.00000000
_cell_angle_gamma   90.00000000
_symmetry_Int_Tables_number   1
_chemical_formula_structural   Pr3ReO8
_chemical_formula_sum   'Pr12 Re4 O32'
_cell_volume   655.40804926
_cell_formula_units_Z   4
loop_
 _symmetry_equiv_pos_site_id
 _symmetry_equiv_pos_as_xyz
  1  'x, y, z'
loop_
 _atom_site_type_symbol
 _atom_site_label
 _atom_site_symmetry_multiplicity
 _atom_site_fract_x
 _atom_site_fract_y
 _atom_site_fract_z
 _atom_site_occupancy
  Pr  Pr0  1  0.23850246  0.40157265  0.70041385  1
  Pr  Pr1  1  0.73850246  0.59842735  0.79958615  1
  Pr  Pr2  1  0.76149754  0.59842735  0.29958615  1
  Pr  Pr3  1  0.26149754  0.40157265  0.20041385  1
  Pr  Pr4  1  0.29692982  0.33822761  0.44658350  1
  Pr  Pr5  1  0.79692982  0.66177239  0.05341650  1
  Pr  Pr6  1  0.70307018  0.66177239  0.55341650  1
  Pr  Pr7  1  0.20307018  0.33822761  0.94658350  1
  Pr  Pr8  1  0.31246930  0.89662383  0.16584002  1
  Pr  Pr9  1  0.81246930  0.10337617  0.33415998  1
  Pr  Pr10  1  0.68753070  0.10337617  0.83415998  1
  Pr  Pr11  1  0.18753070  0.89662383  0.66584002  1
  Re  Re0  1  0.24492764  0.82044817  0.90894190  1
  Re  Re1  1  0.74492764  0.17955183  0.59105810  1
  Re  Re2  1  0.75507236  0.17955183  0.09105810  1
  Re  Re3  1  0.25507236  0.82044817  0.40894190  1
  O  O0  1  0.20001657  0.97276069  0.47778982  1
  O  O1  1  0.70001657  0.02723931  0.02221018  1
  O  O2  1  0.79998343  0.02723931  0.52221018  1
  O  O3  1  0.29998343  0.97276069  0.97778982  1
  O  O4  1  0.96080351  0.75284981  0.40436806  1
  O  O5  1  0.46080351  0.24715019  0.09563194  1
  O  O6  1  0.03919649  0.24715019  0.59563194  1
  O  O7  1  0.53919649  0.75284981  0.90436806  1
  O  O8  1  0.34433535  0.67112192  0.33194752  1
  O  O9  1  0.84433535  0.32887808  0.16805248  1
  O  O10  1  0.65566465  0.32887808  0.66805248  1
  O  O11  1  0.15566465  0.67112192  0.83194752  1
  O  O12  1  0.04686202  0.12548359  0.09035767  1
  O  O13  1  0.54686202  0.87451641  0.40964233  1
  O  O14  1  0.95313798  0.87451641  0.90964233  1
  O  O15  1  0.45313798  0.12548359  0.59035767  1
  O  O16  1  0.47092855  0.68369832  0.67313167  1
  O  O17  1  0.97092855  0.31630168  0.82686833  1
  O  O18  1  0.52907145  0.31630168  0.32686833  1
  O  O19  1  0.02907145  0.68369832  0.17313167  1
  O  O20  1  0.97082316  0.64553058  0.66066622  1
  O  O21  1  0.47082316  0.35446942  0.83933378  1
  O  O22  1  0.02917684  0.35446942  0.33933378  1
  O  O23  1  0.52917684  0.64553058  0.16066622  1
  O  O24  1  0.29993196  0.59598256  0.51591401  1
  O  O25  1  0.79993196  0.40401744  0.98408599  1
  O  O26  1  0.70006804  0.40401744  0.48408599  1
  O  O27  1  0.20006804  0.59598256  0.01591401  1
  O  O28  1  0.29496404  0.02530590  0.79163644  1
  O  O29  1  0.79496404  0.97469410  0.70836356  1
  O  O30  1  0.70503596  0.97469410  0.20836356  1
  O  O31  1  0.20503596  0.02530590  0.29163644  1
loop_
_geom_bond_atom_site_label_1
_geom_bond_atom_site_label_2
_geom_bond_distance
_geom_bond_site_symmetry_2
O0 Re3 1.822284 1_555
O0 Pr11 2.679433 1_555
O0 Pr4 2.683313 1_565
O1 Re2 1.822284 1_555
O1 Pr10 2.679433 1_554
O1 Pr5 2.683313 1_545
O2 Re1 1.822284 1_555
O2 Pr9 2.679433 1_555
O2 Pr6 2.683313 1_545
O3 Re0 1.822284 1_555
O3 Pr8 2.679433 1_556
O3 Pr7 2.683313 1_565
O4 Re3 1.904020 1_655
O4 Pr2 2.574756 1_555
O4 Pr9 2.633126 1_565
O4 Pr6 2.639655 1_555
O5 Re2 1.904020 1_555
O5 Pr3 2.574756 1_555
O5 Pr8 2.633126 1_545
O5 Pr7 2.639655 1_554
O6 Re1 1.904020 1_455
O6 Pr0 2.574756 1_555
O6 Pr11 2.633126 1_545
O6 Pr4 2.639655 1_555
O7 Re0 1.904020 1_555
O7 Pr1 2.574756 1_555
O7 Pr10 2.633126 1_565
O7 Pr5 2.639655 1_556
O8 Re3 1.951476 1_555
O8 Pr8 2.483467 1_555
O8 Pr4 2.505068 1_555
O8 Pr2 2.725737 1_555
O9 Re2 1.951476 1_555
O9 Pr9 2.483467 1_555
O9 Pr5 2.505068 1_555
O9 Pr3 2.725737 1_655
O10 Re1 1.951476 1_555
O10 Pr10 2.483467 1_555
O10 Pr6 2.505068 1_555
O10 Pr0 2.725737 1_555
O11 Re0 1.951476 1_555
O11 Pr11 2.483467 1_555
O11 Pr7 2.505068 1_555
O11 Pr1 2.725737 1_455
O12 Re2 1.857566 1_455
O12 Pr8 2.364209 1_545
O12 Pr7 2.394987 1_554
O13 Re3 1.857566 1_555
O13 Pr9 2.364209 1_565
O13 Pr6 2.394987 1_555
O14 Re0 1.857566 1_655
O14 Pr10 2.364209 1_565
O14 Pr5 2.394987 1_556
O15 Re1 1.857566 1_555
O15 Pr11 2.364209 1_545
O15 Pr4 2.394987 1_555
O16 Pr11 2.353388 1_555
O16 Pr6 2.354918 1_555
O16 Pr1 2.434275 1_555
O16 Pr0 2.474622 1_555
O17 Pr10 2.353388 1_555
O17 Pr7 2.354918 1_655
O17 Pr0 2.434275 1_655
O17 Pr1 2.474622 1_555
O18 Pr9 2.353388 1_555
O18 Pr4 2.354918 1_555
O18 Pr3 2.434275 1_555
O18 Pr2 2.474622 1_555
O19 Pr8 2.353388 1_555
O19 Pr5 2.354918 1_455
O19 Pr2 2.434275 1_455
O19 Pr3 2.474622 1_555
O20 Pr6 2.288354 1_555
O20 Pr11 2.338549 1_655
O20 Pr0 2.388235 1_655
O20 Pr1 2.458246 1_555
O21 Pr7 2.288354 1_555
O21 Pr10 2.338549 1_555
O21 Pr1 2.388235 1_555
O21 Pr0 2.458246 1_555
O22 Pr4 2.288354 1_555
O22 Pr9 2.338549 1_455
O22 Pr2 2.388235 1_455
O22 Pr3 2.458246 1_555
O23 Pr5 2.288354 1_555
O23 Pr8 2.338549 1_555
O23 Pr3 2.388235 1_555
O23 Pr2 2.458246 1_555
O24 Re3 1.897047 1_555
O24 Pr4 2.497347 1_555
O24 Pr6 2.649971 1_555
O24 Pr0 2.668202 1_555
O25 Re2 1.897047 1_556
O25 Pr5 2.497347 1_556
O25 Pr7 2.649971 1_655
O25 Pr1 2.668202 1_555
O26 Re1 1.897047 1_555
O26 Pr6 2.497347 1_555
O26 Pr4 2.649971 1_555
O26 Pr2 2.668202 1_555
O27 Re0 1.897047 1_554
O27 Pr7 2.497347 1_554
O27 Pr5 2.649971 1_455
O27 Pr3 2.668202 1_555
O28 Re0 1.914456 1_545
O28 Pr11 2.495247 1_545
O28 Pr10 2.637321 1_555
O28 Pr0 2.694251 1_555
O29 Re1 1.914456 1_565
O29 Pr10 2.495247 1_565
O29 Pr11 2.637321 1_655
O29 Pr1 2.694251 1_555
O30 Re2 1.914456 1_565
O30 Pr9 2.495247 1_565
O30 Pr8 2.637321 1_555
O30 Pr2 2.694251 1_555
O31 Re3 1.914456 1_545
O31 Pr8 2.495247 1_545
O31 Pr9 2.637321 1_455
O31 Pr3 2.694251 1_555
