# generated using pymatgen
data_BaCeEuSbO6
_symmetry_space_group_name_H-M   'P 1'
_cell_length_a   8.66693240
_cell_length_b   8.62083694
_cell_length_c   8.65706583
_cell_angle_alpha   90.00000000
_cell_angle_beta   90.00000000
_cell_angle_gamma   90.00000000
_symmetry_Int_Tables_number   1
_chemical_formula_structural   BaCeEuSbO6
_chemical_formula_sum   'Ba4 Ce4 Eu4 Sb4 O24'
_cell_volume   646.82315711
_cell_formula_units_Z   4
loop_
 _symmetry_equiv_pos_site_id
 _symmetry_equiv_pos_as_xyz
  1  'x, y, z'
loop_
 _atom_site_type_symbol
 _atom_site_label
 _atom_site_symmetry_multiplicity
 _atom_site_fract_x
 _atom_site_fract_y
 _atom_site_fract_z
 _atom_site_occupancy
  Ba  Ba0  1  -0.00000000  0.00000000  0.00000000  1
  Ba  Ba1  1  0.50000000  0.50000000  0.50000000  1
  Ba  Ba2  1  0.50000000  0.00000000  0.50000000  1
  Ba  Ba3  1  0.50000000  0.00000000  -0.00000000  1
  Ce  Ce0  1  0.75477504  0.74718322  0.74846986  1
  Ce  Ce1  1  0.24522496  0.25281678  0.74846986  1
  Ce  Ce2  1  0.24522496  0.74718322  0.25153014  1
  Ce  Ce3  1  0.75477504  0.25281678  0.25153014  1
  Eu  Eu0  1  0.00000000  0.50000000  0.50000000  1
  Eu  Eu1  1  0.50000000  0.50000000  -0.00000000  1
  Eu  Eu2  1  -0.00000000  0.50000000  0.00000000  1
  Eu  Eu3  1  -0.00000000  0.00000000  0.50000000  1
  Sb  Sb0  1  0.24711763  0.25116415  0.25133468  1
  Sb  Sb1  1  0.75288237  0.74883585  0.25133468  1
  Sb  Sb2  1  0.75288237  0.25116415  0.74866532  1
  Sb  Sb3  1  0.24711763  0.74883585  0.74866532  1
  O  O0  1  0.01395119  0.20721248  0.28894192  1
  O  O1  1  0.98604881  0.79278752  0.28894192  1
  O  O2  1  0.98604881  0.20721248  0.71105808  1
  O  O3  1  0.01395119  0.79278752  0.71105808  1
  O  O4  1  0.27881325  0.01458614  0.21451510  1
  O  O5  1  0.27881325  0.98541386  0.78548490  1
  O  O6  1  0.72118675  0.98541386  0.21451510  1
  O  O7  1  0.72118675  0.01458614  0.78548490  1
  O  O8  1  0.20653477  0.28957946  0.01317959  1
  O  O9  1  0.79346523  0.28957946  0.98682041  1
  O  O10  1  0.20653477  0.71042054  0.98682041  1
  O  O11  1  0.79346523  0.71042054  0.01317959  1
  O  O12  1  0.48521426  0.29438574  0.21307009  1
  O  O13  1  0.51478574  0.70561426  0.21307009  1
  O  O14  1  0.51478574  0.29438574  0.78692991  1
  O  O15  1  0.48521426  0.70561426  0.78692991  1
  O  O16  1  0.20957104  0.48603460  0.29346058  1
  O  O17  1  0.20957104  0.51396540  0.70653942  1
  O  O18  1  0.79042896  0.51396540  0.29346058  1
  O  O19  1  0.79042896  0.48603460  0.70653942  1
  O  O20  1  0.28423992  0.22011633  0.48674373  1
  O  O21  1  0.71576008  0.22011633  0.51325627  1
  O  O22  1  0.28423992  0.77988367  0.51325627  1
  O  O23  1  0.71576008  0.77988367  0.48674373  1
loop_
_geom_bond_atom_site_label_1
_geom_bond_atom_site_label_2
_geom_bond_distance
_geom_bond_site_symmetry_2
Ba0 O5 3.050210 1_544
Ba0 O7 3.050210 1_454
Ba0 O6 3.050210 1_445
Ba0 O4 3.050210 1_555
Ba0 O10 3.073971 1_544
Ba0 O9 3.073971 1_454
Ba0 O8 3.073971 1_555
Ba0 O11 3.073971 1_445
Ba0 O2 3.076133 1_454
Ba0 O3 3.076133 1_544
Ba0 O1 3.076133 1_445
Ba0 O0 3.076133 1_555
Ba1 O14 3.054264 1_555
Ba1 O12 3.054264 1_555
Ba1 O13 3.054264 1_555
Ba1 O15 3.054264 1_555
Ba1 O20 3.054790 1_555
Ba1 O23 3.054790 1_555
Ba1 O21 3.054790 1_555
Ba1 O22 3.054790 1_555
Ba1 O18 3.089897 1_555
Ba1 O19 3.089897 1_555
Ba1 O16 3.089897 1_555
Ba1 O17 3.089897 1_555
Ba2 O20 2.666613 1_555
Ba2 O22 2.666613 1_545
Ba2 O21 2.666613 1_555
Ba2 O23 2.666613 1_545
Ba2 O4 3.130314 1_555
Ba2 O6 3.130314 1_545
Ba2 O7 3.130314 1_555
Ba2 O5 3.130314 1_545
Ba3 O7 2.671976 1_554
Ba3 O5 2.671976 1_544
Ba3 O4 2.671976 1_555
Ba3 O6 2.671976 1_545
Ba3 O13 3.139987 1_545
Ba3 O12 3.139987 1_555
Ba3 O15 3.139987 1_544
Ba3 O14 3.139987 1_554
Ce0 O19 2.301237 1_555
Ce0 O3 2.303292 1_655
Ce0 O23 2.308153 1_555
Ce0 O11 2.337597 1_556
Ce0 O7 2.345537 1_565
Ce0 O15 2.386925 1_555
Ce1 O17 2.301237 1_555
Ce1 O2 2.303292 1_455
Ce1 O20 2.308153 1_555
Ce1 O8 2.337597 1_556
Ce1 O5 2.345537 1_545
Ce1 O14 2.386925 1_555
Ce2 O16 2.301237 1_555
Ce2 O1 2.303292 1_455
Ce2 O22 2.308153 1_555
Ce2 O10 2.337597 1_554
Ce2 O4 2.345537 1_565
Ce2 O13 2.386925 1_555
Ce3 O18 2.301237 1_555
Ce3 O0 2.303292 1_655
Ce3 O21 2.308153 1_555
Ce3 O9 2.337597 1_554
Ce3 O6 2.345537 1_545
Ce3 O12 2.386925 1_555
Eu0 O16 2.551590 1_555
Eu0 O17 2.551590 1_555
Eu0 O18 2.551590 1_455
Eu0 O19 2.551590 1_455
Eu0 O1 3.118336 1_455
Eu0 O0 3.118336 1_555
Eu0 O2 3.118336 1_455
Eu0 O3 3.118336 1_555
Eu1 O15 2.561410 1_554
Eu1 O12 2.561410 1_555
Eu1 O13 2.561410 1_555
Eu1 O14 2.561410 1_554
Eu1 O10 3.126135 1_554
Eu1 O11 3.126135 1_555
Eu1 O9 3.126135 1_554
Eu1 O8 3.126135 1_555
Eu2 O8 2.551039 1_555
Eu2 O9 2.551039 1_454
Eu2 O10 2.551039 1_554
Eu2 O11 2.551039 1_455
Eu2 O17 3.125341 1_554
Eu2 O19 3.125341 1_454
Eu2 O16 3.125341 1_555
Eu2 O18 3.125341 1_455
Eu3 O0 2.558144 1_555
Eu3 O3 2.558144 1_545
Eu3 O1 2.558144 1_445
Eu3 O2 2.558144 1_455
Eu3 O23 3.111717 1_445
Eu3 O22 3.111717 1_545
Eu3 O20 3.111717 1_555
Eu3 O21 3.111717 1_455
O0 Sb0 2.081669 1_555
O1 Sb1 2.081669 1_555
O2 Sb2 2.081669 1_555
O3 Sb3 2.081669 1_555
O4 Sb0 2.082457 1_555
O5 Sb3 2.082457 1_555
O6 Sb1 2.082457 1_555
O7 Sb2 2.082457 1_555
O8 Sb0 2.117568 1_555
O9 Sb2 2.117568 1_555
O10 Sb3 2.117568 1_555
O11 Sb1 2.117568 1_555
O12 Sb0 2.122941 1_555
O13 Sb1 2.122941 1_555
O14 Sb2 2.122941 1_555
O15 Sb3 2.122941 1_555
O16 Sb0 2.082936 1_555
O17 Sb3 2.082936 1_555
O18 Sb1 2.082936 1_555
O19 Sb2 2.082936 1_555
O20 Sb0 2.080481 1_555
O21 Sb2 2.080481 1_555
O22 Sb3 2.080481 1_555
O23 Sb1 2.080481 1_555
