# generated using pymatgen
data_TiZnNiP2O9
_symmetry_space_group_name_H-M   'P 1'
_cell_length_a   6.27203400
_cell_length_b   7.34325300
_cell_length_c   14.35996600
_cell_angle_alpha   90.00000000
_cell_angle_beta   90.00000000
_cell_angle_gamma   90.00000000
_symmetry_Int_Tables_number   1
_chemical_formula_structural   TiZnNiP2O9
_chemical_formula_sum   'Ti4 Zn4 Ni4 P8 O36'
_cell_volume   661.37885657
_cell_formula_units_Z   4
loop_
 _symmetry_equiv_pos_site_id
 _symmetry_equiv_pos_as_xyz
  1  'x, y, z'
loop_
 _atom_site_type_symbol
 _atom_site_label
 _atom_site_symmetry_multiplicity
 _atom_site_fract_x
 _atom_site_fract_y
 _atom_site_fract_z
 _atom_site_occupancy
  Ti  Ti0  1  0.75000000  0.34762200  0.88512300  1
  Ti  Ti1  1  0.25000000  0.65237800  0.11487700  1
  Ti  Ti2  1  0.25000000  0.84762200  0.61487700  1
  Ti  Ti3  1  0.75000000  0.15237800  0.38512300  1
  Zn  Zn0  1  0.75000000  0.88400600  0.78329700  1
  Zn  Zn1  1  0.75000000  0.61599400  0.28329700  1
  Zn  Zn2  1  0.25000000  0.11599400  0.21670300  1
  Zn  Zn3  1  0.25000000  0.38400600  0.71670300  1
  Ni  Ni0  1  0.50000000  0.00000000  0.00000000  1
  Ni  Ni1  1  0.50000000  0.50000000  0.50000000  1
  Ni  Ni2  1  0.00000000  0.50000000  0.50000000  1
  Ni  Ni3  1  0.00000000  0.00000000  0.00000000  1
  P  P0  1  0.25000000  0.35624300  0.93043800  1
  P  P1  1  0.75000000  0.64375700  0.06956200  1
  P  P2  1  0.75000000  0.85624300  0.56956200  1
  P  P3  1  0.25000000  0.14375700  0.43043800  1
  P  P4  1  0.75000000  0.39003300  0.69852800  1
  P  P5  1  0.25000000  0.60996700  0.30147200  1
  P  P6  1  0.25000000  0.89003300  0.80147200  1
  P  P7  1  0.75000000  0.10996700  0.19852800  1
  O  O0  1  0.03809900  0.61076700  0.35954800  1
  O  O1  1  0.53809900  0.38923300  0.64045200  1
  O  O2  1  0.96190100  0.11076700  0.14045200  1
  O  O3  1  0.46190100  0.88923300  0.85954800  1
  O  O4  1  0.96190100  0.38923300  0.64045200  1
  O  O5  1  0.46190100  0.61076700  0.35954800  1
  O  O6  1  0.03809900  0.88923300  0.85954800  1
  O  O7  1  0.53809900  0.11076700  0.14045200  1
  O  O8  1  0.25000000  0.33297600  0.47541900  1
  O  O9  1  0.75000000  0.66702400  0.52458100  1
  O  O10  1  0.75000000  0.83297600  0.02458100  1
  O  O11  1  0.25000000  0.16702400  0.97541900  1
  O  O12  1  0.75000000  0.14355200  0.94750300  1
  O  O13  1  0.25000000  0.85644800  0.05249700  1
  O  O14  1  0.25000000  0.64355200  0.55249700  1
  O  O15  1  0.75000000  0.35644800  0.44750300  1
  O  O16  1  0.75000000  0.21370100  0.76155200  1
  O  O17  1  0.25000000  0.78629900  0.23844800  1
  O  O18  1  0.25000000  0.71370100  0.73844800  1
  O  O19  1  0.75000000  0.28629900  0.26155200  1
  O  O20  1  0.44025600  0.12107800  0.36260800  1
  O  O21  1  0.94025600  0.87892200  0.63739200  1
  O  O22  1  0.55974400  0.62107800  0.13739200  1
  O  O23  1  0.05974400  0.37892200  0.86260800  1
  O  O24  1  0.55974400  0.87892200  0.63739200  1
  O  O25  1  0.05974400  0.12107800  0.36260800  1
  O  O26  1  0.44025600  0.37892200  0.86260800  1
  O  O27  1  0.94025600  0.62107800  0.13739200  1
  O  O28  1  0.75000000  0.94992400  0.26961400  1
  O  O29  1  0.25000000  0.05007600  0.73038600  1
  O  O30  1  0.25000000  0.44992400  0.23038600  1
  O  O31  1  0.75000000  0.55007600  0.76961400  1
  O  O32  1  0.75000000  0.99969000  0.49309000  1
  O  O33  1  0.25000000  0.00031000  0.50691000  1
  O  O34  1  0.25000000  0.49969000  0.00691000  1
  O  O35  1  0.75000000  0.50031000  0.99309000  1
loop_
_geom_bond_atom_site_label_1
_geom_bond_atom_site_label_2
_geom_bond_distance
_geom_bond_site_symmetry_2
Ni0 O10 2.021769 1_545
Ni0 O11 2.021769 1_554
Ni0 O13 2.034246 1_545
Ni0 O12 2.034246 1_554
Ni0 O7 2.187815 1_555
Ni0 O3 2.187815 1_544
Ni1 O8 2.021769 1_555
Ni1 O9 2.021769 1_555
Ni1 O14 2.034246 1_555
Ni1 O15 2.034246 1_555
Ni1 O1 2.187815 1_555
Ni1 O5 2.187815 1_555
Ni2 O9 2.021769 1_455
Ni2 O8 2.021769 1_555
Ni2 O14 2.034246 1_555
Ni2 O15 2.034246 1_455
Ni2 O4 2.187815 1_455
Ni2 O0 2.187815 1_555
Ni3 O10 2.021769 1_445
Ni3 O11 2.021769 1_554
Ni3 O13 2.034246 1_545
Ni3 O12 2.034246 1_454
Ni3 O2 2.187815 1_455
Ni3 O6 2.187815 1_544
O0 P5 1.569049 1_555
O0 Zn1 2.113183 1_455
O1 P4 1.569049 1_555
O1 Zn3 2.113183 1_555
O2 P7 1.569049 1_555
O2 Zn2 2.113183 1_655
O3 P6 1.569049 1_555
O3 Zn0 2.113183 1_555
O4 P4 1.569049 1_555
O4 Zn3 2.113183 1_655
O5 P5 1.569049 1_555
O5 Zn1 2.113183 1_555
O6 P6 1.569049 1_555
O6 Zn0 2.113183 1_455
O7 P7 1.569049 1_555
O7 Zn2 2.113183 1_555
O8 P3 1.532280 1_555
O9 P2 1.532280 1_555
O10 P1 1.532280 1_555
O11 P0 1.532280 1_555
O12 Ti0 1.745860 1_555
O13 Ti1 1.745860 1_555
O14 Ti2 1.745860 1_555
O15 Ti3 1.745860 1_555
O16 P4 1.579780 1_555
O16 Ti0 2.028761 1_555
O16 Zn0 2.441088 1_545
O17 P5 1.579780 1_555
O17 Ti1 2.028761 1_555
O17 Zn2 2.441088 1_565
O18 P6 1.579780 1_555
O18 Ti2 2.028761 1_555
O18 Zn3 2.441088 1_555
O19 P7 1.579780 1_555
O19 Ti3 2.028761 1_555
O19 Zn1 2.441088 1_555
O20 P3 1.549331 1_555
O20 Ti3 1.982811 1_555
O20 Zn2 2.411465 1_555
O21 P2 1.549331 1_555
O21 Ti2 1.982811 1_655
O21 Zn0 2.411465 1_555
O22 P1 1.549331 1_555
O22 Ti1 1.982811 1_555
O22 Zn1 2.411465 1_555
O23 P0 1.549331 1_555
O23 Ti0 1.982811 1_455
O23 Zn3 2.411465 1_555
O24 P2 1.549331 1_555
O24 Ti2 1.982811 1_555
O24 Zn0 2.411465 1_555
O25 P3 1.549331 1_555
O25 Ti3 1.982811 1_455
O25 Zn2 2.411465 1_555
O26 P0 1.549331 1_555
O26 Ti0 1.982811 1_555
O26 Zn3 2.411465 1_555
O27 P1 1.549331 1_555
O27 Ti1 1.982811 1_655
O27 Zn1 2.411465 1_555
O28 P7 1.556662 1_565
O28 Ti3 2.227441 1_565
O28 Zn1 2.459992 1_555
O29 P6 1.556662 1_545
O29 Ti2 2.227441 1_545
O29 Zn3 2.459992 1_555
O30 P5 1.556662 1_555
O30 Ti1 2.227441 1_555
O30 Zn2 2.459992 1_555
O31 P4 1.556662 1_555
O31 Ti0 2.227441 1_555
O31 Zn0 2.459992 1_555
O32 P2 1.521672 1_555
O32 Ti3 1.913347 1_565
O33 P3 1.521672 1_555
O33 Ti2 1.913347 1_545
O34 P0 1.521672 1_554
O34 Ti1 1.913347 1_555
O35 P1 1.521672 1_556
O35 Ti0 1.913347 1_555
