# generated using pymatgen
data_DyAlNi
_symmetry_space_group_name_H-M   'P 1'
_cell_length_a   5.31443482
_cell_length_b   5.31575365
_cell_length_c   8.45869700
_cell_angle_alpha   90.00000000
_cell_angle_beta   90.00000000
_cell_angle_gamma   60.62709904
_symmetry_Int_Tables_number   1
_chemical_formula_structural   DyAlNi
_chemical_formula_sum   'Dy4 Al4 Ni4'
_cell_volume   208.24080202
_cell_formula_units_Z   4
loop_
 _symmetry_equiv_pos_site_id
 _symmetry_equiv_pos_as_xyz
  1  'x, y, z'
loop_
 _atom_site_type_symbol
 _atom_site_label
 _atom_site_symmetry_multiplicity
 _atom_site_fract_x
 _atom_site_fract_y
 _atom_site_fract_z
 _atom_site_occupancy
  Dy  Dy0  1  0.33272000  0.33268500  0.54524000  1
  Dy  Dy1  1  0.67012800  0.67015200  0.42452800  1
  Dy  Dy2  1  0.67012800  0.67015200  0.07547200  1
  Dy  Dy3  1  0.33272000  0.33268500  0.95476000  1
  Al  Al0  1  0.99562900  0.99571000  0.48841500  1
  Al  Al1  1  0.99562900  0.99571000  0.01158500  1
  Al  Al2  1  0.83197200  0.34101100  0.75000000  1
  Al  Al3  1  0.34099500  0.83195900  0.75000000  1
  Ni  Ni0  1  0.83109300  0.83109700  0.75000000  1
  Ni  Ni1  1  0.16797000  0.66395500  0.25000000  1
  Ni  Ni2  1  0.66405100  0.16792700  0.25000000  1
  Ni  Ni3  1  0.16696300  0.16695700  0.25000000  1
loop_
_geom_bond_atom_site_label_1
_geom_bond_atom_site_label_2
_geom_bond_distance
_geom_bond_site_symmetry_2
Dy0 Ni3 2.924060 1_555
Dy0 Ni2 2.931125 1_555
Dy0 Ni1 2.931175 1_555
Dy0 Ni0 3.193176 1_545
Dy0 Ni0 3.193345 1_455
Dy0 Dy1 3.234731 1_455
Dy0 Dy1 3.235173 1_545
Dy0 Dy1 3.260592 1_555
Dy0 Dy3 3.464006 1_555
Dy1 Dy2 2.952559 1_555
Dy1 Ni1 3.015788 1_655
Dy1 Ni2 3.016321 1_565
Dy1 Ni3 3.062130 1_565
Dy1 Ni3 3.062286 1_655
Dy1 Ni1 3.064084 1_555
Dy1 Ni2 3.064693 1_555
Dy1 Ni0 3.124270 1_555
Dy2 Ni1 3.015788 1_655
Dy2 Ni2 3.016321 1_565
Dy2 Ni3 3.062130 1_565
Dy2 Ni3 3.062286 1_655
Dy2 Ni1 3.064084 1_555
Dy2 Ni2 3.064693 1_555
Dy2 Ni0 3.124270 1_554
Dy2 Dy3 3.234731 1_654
Dy2 Dy3 3.235173 1_564
Dy2 Dy3 3.260592 1_554
Dy3 Ni3 2.924060 1_556
Dy3 Ni2 2.931125 1_556
Dy3 Ni1 2.931175 1_556
Dy3 Ni0 3.193176 1_545
Dy3 Ni0 3.193345 1_455
Al0 Ni2 2.535298 1_565
Al0 Ni1 2.536021 1_655
Al0 Ni3 2.556924 1_665
Al0 Ni0 2.678956 1_555
Al0 Al3 2.730404 1_655
Al0 Al2 2.730468 1_565
Al0 Dy1 3.035801 1_555
Al0 Dy0 3.108136 1_565
Al0 Dy0 3.109408 1_655
Al0 Dy0 3.130008 1_665
Al0 Dy1 3.170288 1_655
Al0 Dy1 3.170800 1_565
Al1 Ni2 2.535298 1_565
Al1 Ni1 2.536021 1_655
Al1 Ni3 2.556924 1_665
Al1 Ni0 2.678956 1_554
Al1 Al3 2.730404 1_654
Al1 Al2 2.730468 1_564
Al1 Dy2 3.035801 1_555
Al1 Dy3 3.108136 1_564
Al1 Dy3 3.109408 1_654
Al1 Dy3 3.130008 1_664
Al1 Dy2 3.170288 1_655
Al1 Dy2 3.170800 1_565
Al2 Ni0 2.602888 1_555
Al2 Al3 2.634207 1_555
Al2 Ni0 2.712872 1_545
Al2 Al3 2.731187 1_645
Al2 Dy2 3.147083 1_556
Al2 Dy1 3.147083 1_555
Al2 Dy0 3.157245 1_655
Al2 Dy3 3.157245 1_655
Al2 Dy0 3.186955 1_555
Al2 Dy3 3.186955 1_555
Al3 Ni0 2.602349 1_555
Al3 Ni0 2.712091 1_455
Al3 Dy2 3.146882 1_556
Al3 Dy1 3.146882 1_555
Al3 Dy0 3.157812 1_565
Al3 Dy3 3.157812 1_565
Al3 Dy0 3.187487 1_555
Al3 Dy3 3.187487 1_555
Ni1 Ni3 2.644548 1_555
Ni1 Ni2 2.661528 1_555
Ni1 Ni3 2.671214 1_565
Ni1 Ni2 2.703866 1_465
Ni2 Ni3 2.644275 1_555
Ni2 Ni3 2.670168 1_655
