# generated using pymatgen
data_Li3Mn2O5
_symmetry_space_group_name_H-M   'P 1'
_cell_length_a   2.88078700
_cell_length_b   12.24810742
_cell_length_c   5.20649626
_cell_angle_alpha   91.54405312
_cell_angle_beta   89.99875137
_cell_angle_gamma   96.75287149
_symmetry_Int_Tables_number   1
_chemical_formula_structural   Li3Mn2O5
_chemical_formula_sum   'Li6 Mn4 O10'
_cell_volume   182.36538377
_cell_formula_units_Z   2
loop_
 _symmetry_equiv_pos_site_id
 _symmetry_equiv_pos_as_xyz
  1  'x, y, z'
loop_
 _atom_site_type_symbol
 _atom_site_label
 _atom_site_symmetry_multiplicity
 _atom_site_fract_x
 _atom_site_fract_y
 _atom_site_fract_z
 _atom_site_occupancy
  Li  Li0  1  0.89998900  0.79999700  0.29997200  1
  Li  Li1  1  0.39995000  0.80001700  0.80001300  1
  Li  Li2  1  0.49536100  0.99061700  0.50277500  1
  Li  Li3  1  0.30464400  0.60938300  0.09724000  1
  Li  Li4  1  0.09921800  0.19835800  0.69605500  1
  Li  Li5  1  0.70084500  0.40163200  0.90397500  1
  Mn  Mn0  1  0.80456300  0.60928700  0.62450800  1
  Mn  Mn1  1  0.20081200  0.40146900  0.41309700  1
  Mn  Mn2  1  0.99537100  0.99073100  0.97549200  1
  Mn  Mn3  1  0.59923300  0.19851100  0.18692300  1
  O  O0  1  0.45533900  0.91058800  0.13577900  1
  O  O1  1  0.34463500  0.68942600  0.46421900  1
  O  O2  1  0.05158700  0.10328300  0.30622800  1
  O  O3  1  0.74837900  0.49667600  0.29376000  1
  O  O4  1  0.65414600  0.30812400  0.54642900  1
  O  O5  1  0.14593900  0.29184100  0.05353600  1
  O  O6  1  0.25702300  0.51416700  0.75106200  1
  O  O7  1  0.54295800  0.08586000  0.84894100  1
  O  O8  1  0.84577500  0.69168900  0.92000400  1
  O  O9  1  0.95423300  0.90834300  0.67999500  1
loop_
_geom_bond_atom_site_label_1
_geom_bond_atom_site_label_2
_geom_bond_distance
_geom_bond_site_symmetry_2
Li0 O1 2.162541 1_655
Li0 O0 2.162606 1_555
Li0 O1 2.162805 1_555
Li0 O0 2.162816 1_655
Li0 O8 2.346852 1_554
Li0 O9 2.347338 1_555
Li1 O9 2.060314 1_455
Li1 O8 2.060504 1_555
Li1 O8 2.060555 1_455
Li1 O9 2.060804 1_555
Li1 O0 2.176519 1_556
Li1 O1 2.176778 1_555
Li2 O9 1.994375 1_455
Li2 O9 1.994421 1_555
Li2 O7 2.115904 1_565
Li2 O0 2.120756 1_555
Li2 O2 2.252784 1_665
Li2 O2 2.253182 1_565
Li3 O8 1.994588 1_554
Li3 O8 1.994688 1_454
Li3 O6 2.115784 1_554
Li3 O1 2.120751 1_555
Li3 O3 2.253062 1_455
Li3 O3 2.253391 1_555
Li4 O4 2.126068 1_455
Li4 O4 2.126246 1_555
Li4 O7 2.153991 1_555
Li4 O7 2.154036 1_455
Li4 O5 2.154575 1_556
Li4 O2 2.308535 1_555
Li5 O5 2.126199 1_656
Li5 O5 2.126243 1_556
Li5 O6 2.154188 1_655
Li5 O6 2.154530 1_555
Li5 O4 2.155016 1_555
Li5 O3 2.308166 1_556
Mn0 O8 1.813242 1_555
Mn0 O1 1.940477 1_555
Mn0 O1 1.940481 1_655
Mn0 O6 1.971964 1_555
Mn0 O6 1.972045 1_655
Mn0 O3 2.171063 1_555
Mn1 O3 1.959727 1_555
Mn1 O3 1.959877 1_455
Mn1 O4 1.971906 1_455
Mn1 O4 1.971932 1_555
Mn1 O6 2.200987 1_555
Mn1 O5 2.268731 1_555
Mn2 O9 1.813156 1_555
Mn2 O0 1.940412 1_556
Mn2 O0 1.940587 1_656
Mn2 O7 1.972016 1_565
Mn2 O7 1.972113 1_665
Mn2 O2 2.170577 1_666
Mn3 O2 1.959830 1_655
Mn3 O2 1.959970 1_555
Mn3 O5 1.971831 1_555
Mn3 O5 1.972005 1_655
Mn3 O7 2.200713 1_554
Mn3 O4 2.268396 1_555
