# generated using pymatgen
data_Sm2CoRuO6
_symmetry_space_group_name_H-M   'P 1'
_cell_length_a   5.80951500
_cell_length_b   5.39517200
_cell_length_c   9.42225141
_cell_angle_alpha   55.27690370
_cell_angle_beta   90.00000000
_cell_angle_gamma   90.00000000
_symmetry_Int_Tables_number   1
_chemical_formula_structural   Sm2CoRuO6
_chemical_formula_sum   'Sm4 Co2 Ru2 O12'
_cell_volume   242.73170098
_cell_formula_units_Z   2
loop_
 _symmetry_equiv_pos_site_id
 _symmetry_equiv_pos_as_xyz
  1  'x, y, z'
loop_
 _atom_site_type_symbol
 _atom_site_label
 _atom_site_symmetry_multiplicity
 _atom_site_fract_x
 _atom_site_fract_y
 _atom_site_fract_z
 _atom_site_occupancy
  Sm  Sm0  1  0.07108500  0.72837100  0.75070500  1
  Sm  Sm1  1  0.92891500  0.27162900  0.24929500  1
  Sm  Sm2  1  0.57108500  0.27162900  0.74929500  1
  Sm  Sm3  1  0.42891500  0.72837100  0.25070500  1
  Co  Co0  1  0.50000000  0.50000000  0.00000000  1
  Co  Co1  1  0.00000000  0.50000000  0.50000000  1
  Ru  Ru0  1  0.50000000  0.00000000  0.50000000  1
  Ru  Ru1  1  0.00000000  0.00000000  0.00000000  1
  O  O0  1  0.46215900  0.85907900  0.74853500  1
  O  O1  1  0.53784100  0.14092100  0.25146500  1
  O  O2  1  0.96215900  0.14092100  0.75146500  1
  O  O3  1  0.03784100  0.85907900  0.24853500  1
  O  O4  1  0.30800700  0.64243200  0.55053400  1
  O  O5  1  0.69199300  0.35756800  0.44946600  1
  O  O6  1  0.80800700  0.35756800  0.94946600  1
  O  O7  1  0.19199300  0.64243200  0.05053400  1
  O  O8  1  0.79630300  0.75690300  0.55710900  1
  O  O9  1  0.20369700  0.24309700  0.44289100  1
  O  O10  1  0.29630300  0.24309700  0.94289100  1
  O  O11  1  0.70369700  0.75690300  0.05710900  1
loop_
_geom_bond_atom_site_label_1
_geom_bond_atom_site_label_2
_geom_bond_distance
_geom_bond_site_symmetry_2
Co0 O0 2.046002 1_554
Co0 O1 2.046002 1_555
Co0 O7 2.106158 1_555
Co0 O6 2.106158 1_554
Co0 O11 2.112034 1_555
Co0 O10 2.112034 1_554
Co1 O2 2.046002 1_455
Co1 O3 2.046002 1_555
Co1 O5 2.106158 1_455
Co1 O4 2.106158 1_555
Co1 O8 2.112034 1_455
Co1 O9 2.112034 1_555
O0 Ru0 2.020375 1_565
O0 Sm2 2.317918 1_565
O0 Sm0 2.375510 1_555
O1 Ru0 2.020375 1_555
O1 Sm3 2.317918 1_545
O1 Sm1 2.375510 1_555
O2 Ru1 2.020375 1_656
O2 Sm0 2.317918 1_645
O2 Sm2 2.375510 1_555
O3 Ru1 2.020375 1_565
O3 Sm1 2.317918 1_465
O3 Sm3 2.375510 1_555
O4 Ru0 2.036161 1_565
O4 Sm2 2.361602 1_555
O4 Sm0 2.581263 1_555
O4 Sm3 2.682748 1_555
O5 Ru0 2.036161 1_555
O5 Sm3 2.361602 1_555
O5 Sm1 2.581263 1_555
O5 Sm2 2.682748 1_555
O6 Ru1 2.036161 1_656
O6 Sm0 2.361602 1_655
O6 Sm2 2.581263 1_555
O6 Sm1 2.682748 1_556
O7 Ru1 2.036161 1_565
O7 Sm1 2.361602 1_455
O7 Sm3 2.581263 1_555
O7 Sm0 2.682748 1_554
O8 Ru0 2.041777 1_565
O8 Sm0 2.362101 1_655
O8 Sm2 2.538626 1_555
O8 Sm1 2.746205 1_565
O9 Ru0 2.041777 1_555
O9 Sm1 2.362101 1_455
O9 Sm3 2.538626 1_555
O9 Sm0 2.746205 1_545
O10 Ru1 2.041777 1_556
O10 Sm2 2.362101 1_555
O10 Sm0 2.538626 1_555
O10 Sm3 2.746205 1_546
O11 Ru1 2.041777 1_665
O11 Sm3 2.362101 1_555
O11 Sm1 2.538626 1_555
O11 Sm2 2.746205 1_564
