# generated using pymatgen
data_LiDy(WO4)2
_symmetry_space_group_name_H-M   'P 1'
_cell_length_a   5.90662300
_cell_length_b   5.10635000
_cell_length_c   10.98369720
_cell_angle_alpha   66.96006716
_cell_angle_beta   90.00000000
_cell_angle_gamma   90.00000000
_symmetry_Int_Tables_number   1
_chemical_formula_structural   LiDy(WO4)2
_chemical_formula_sum   'Li2 Dy2 W4 O16'
_cell_volume   304.85678018
_cell_formula_units_Z   2
loop_
 _symmetry_equiv_pos_site_id
 _symmetry_equiv_pos_as_xyz
  1  'x, y, z'
loop_
 _atom_site_type_symbol
 _atom_site_label
 _atom_site_symmetry_multiplicity
 _atom_site_fract_x
 _atom_site_fract_y
 _atom_site_fract_z
 _atom_site_occupancy
  Li  Li0  1  0.24190500  0.50000000  0.75000000  1
  Li  Li1  1  0.75809500  0.50000000  0.25000000  1
  Dy  Dy0  1  0.68521500  0.00000000  0.75000000  1
  Dy  Dy1  1  0.31478500  0.00000000  0.25000000  1
  W  W0  1  0.17484300  0.23529400  0.51419500  1
  W  W1  1  0.82515700  0.76470600  0.48580500  1
  W  W2  1  0.17484300  0.76470600  0.98580500  1
  W  W3  1  0.82515700  0.23529400  0.01419500  1
  O  O0  1  0.62559800  0.79648900  0.60561100  1
  O  O1  1  0.37440200  0.20351100  0.39438900  1
  O  O2  1  0.62559800  0.20351100  0.89438900  1
  O  O3  1  0.37440200  0.79648900  0.10561100  1
  O  O4  1  0.36815900  0.26936800  0.63716700  1
  O  O5  1  0.63184100  0.73063200  0.36283300  1
  O  O6  1  0.36815900  0.73063200  0.86283300  1
  O  O7  1  0.63184100  0.26936800  0.13716700  1
  O  O8  1  0.07789800  0.85398100  0.61371200  1
  O  O9  1  0.92210200  0.14601900  0.38628800  1
  O  O10  1  0.07789800  0.14601900  0.88628800  1
  O  O11  1  0.92210200  0.85398100  0.11371200  1
  O  O12  1  0.88700100  0.35577500  0.59611000  1
  O  O13  1  0.11299900  0.64422500  0.40389000  1
  O  O14  1  0.88700100  0.64422500  0.90389000  1
  O  O15  1  0.11299900  0.35577500  0.09611000  1
loop_
_geom_bond_atom_site_label_1
_geom_bond_atom_site_label_2
_geom_bond_distance
_geom_bond_site_symmetry_2
Li0 O10 2.080520 1_555
Li0 O8 2.080520 1_555
Li0 O6 2.149753 1_555
Li0 O4 2.149753 1_555
Li1 O11 2.080520 1_555
Li1 O9 2.080520 1_555
Li1 O7 2.149753 1_555
Li1 O5 2.149753 1_555
Dy0 O0 2.238108 1_545
Dy0 O2 2.238108 1_555
Dy0 O12 2.274739 1_555
Dy0 O14 2.274739 1_545
Dy0 O4 2.366576 1_555
Dy0 O6 2.366576 1_545
Dy1 O3 2.238108 1_545
Dy1 O1 2.238108 1_555
Dy1 O15 2.274739 1_555
Dy1 O13 2.274739 1_545
Dy1 O7 2.366576 1_555
Dy1 O5 2.366576 1_545
O0 W1 1.820581 1_555
O1 W0 1.820581 1_555
O2 W3 1.820581 1_556
O3 W2 1.820581 1_554
O4 W0 1.828221 1_555
O5 W1 1.828221 1_555
O6 W2 1.828221 1_555
O7 W3 1.828221 1_555
O8 W0 1.909977 1_565
O8 W1 2.216175 1_455
O9 W1 1.909977 1_545
O9 W0 2.216175 1_655
O10 W2 1.909977 1_545
O10 W3 2.216175 1_456
O11 W3 1.909977 1_565
O11 W2 2.216175 1_654
O12 W1 1.995340 1_555
O12 W0 2.124117 1_655
O13 W0 1.995340 1_555
O13 W1 2.124117 1_455
O14 W3 1.995340 1_556
O14 W2 2.124117 1_655
O15 W2 1.995340 1_554
O15 W3 2.124117 1_455
