# generated using pymatgen
data_CaAl2SiO6
_symmetry_space_group_name_H-M   'P 1'
_cell_length_a   5.33049900
_cell_length_b   8.73883193
_cell_length_c   9.71459065
_cell_angle_alpha   90.10340580
_cell_angle_beta   105.49290995
_cell_angle_gamma   90.24352067
_symmetry_Int_Tables_number   1
_chemical_formula_structural   CaAl2SiO6
_chemical_formula_sum   'Ca4 Al8 Si4 O24'
_cell_volume   436.07905795
_cell_formula_units_Z   4
loop_
 _symmetry_equiv_pos_site_id
 _symmetry_equiv_pos_as_xyz
  1  'x, y, z'
loop_
 _atom_site_type_symbol
 _atom_site_label
 _atom_site_symmetry_multiplicity
 _atom_site_fract_x
 _atom_site_fract_y
 _atom_site_fract_z
 _atom_site_occupancy
  Ca  Ca0  1  0.24325300  0.30959200  0.99623900  1
  Ca  Ca1  1  0.75730100  0.81382700  0.51316300  1
  Ca  Ca2  1  0.74373100  0.68748600  0.99647400  1
  Ca  Ca3  1  0.25736100  0.18848200  0.51355100  1
  Al  Al0  1  0.92053600  0.09685700  0.71222400  1
  Al  Al1  1  0.57355200  0.40272100  0.78281500  1
  Al  Al2  1  0.41924900  0.90164700  0.71068700  1
  Al  Al3  1  0.92495300  0.40156900  0.21510400  1
  Al  Al4  1  0.24975000  0.90985000  0.99762600  1
  Al  Al5  1  0.76411100  0.40719700  0.50440500  1
  Al  Al6  1  0.74726000  0.09353000  0.99533300  1
  Al  Al7  1  0.26152300  0.58883700  0.50150100  1
  Si  Si0  1  0.42482000  0.59661700  0.20822500  1
  Si  Si1  1  0.56787800  0.09452300  0.28550400  1
  Si  Si2  1  0.07664700  0.59637700  0.79088700  1
  Si  Si3  1  0.06791500  0.90241000  0.28699600  1
  O  O0  1  0.01973600  0.07283800  0.90265200  1
  O  O1  1  0.95669000  0.27474200  0.63662300  1
  O  O2  1  0.60905300  0.02497200  0.63548200  1
  O  O3  1  0.51778600  0.58505600  0.38519500  1
  O  O4  1  0.44427900  0.76404900  0.13661200  1
  O  O5  1  0.13165900  0.52465000  0.14558900  1
  O  O6  1  0.47943200  0.08141000  0.11095900  1
  O  O7  1  0.57191900  0.25813900  0.36324200  1
  O  O8  1  0.85610300  0.01060100  0.34482200  1
  O  O9  1  0.98732000  0.58895000  0.61334000  1
  O  O10  1  0.06031400  0.76202300  0.86630400  1
  O  O11  1  0.36769200  0.52433600  0.85332400  1
  O  O12  1  0.98720500  0.90685200  0.11201400  1
  O  O13  1  0.06445800  0.74261700  0.36924600  1
  O  O14  1  0.35675800  0.98822600  0.34645500  1
  O  O15  1  0.48807300  0.41849400  0.59406900  1
  O  O16  1  0.55224600  0.23233200  0.87078600  1
  O  O17  1  0.88218400  0.48719800  0.85562600  1
  O  O18  1  0.52016700  0.91840600  0.90325600  1
  O  O19  1  0.45545500  0.72604200  0.63020100  1
  O  O20  1  0.10941600  0.97553800  0.63576800  1
  O  O21  1  0.02100400  0.42746900  0.40287200  1
  O  O22  1  0.94500500  0.22766700  0.13172900  1
  O  O23  1  0.61620500  0.48586900  0.14310000  1
loop_
_geom_bond_atom_site_label_1
_geom_bond_atom_site_label_2
_geom_bond_distance
_geom_bond_site_symmetry_2
Ca0 O16 2.394350 1_555
Ca0 O22 2.425729 1_456
Ca0 O0 2.433160 1_555
Ca0 O6 2.466371 1_556
Ca0 O11 2.525873 1_555
Ca0 O5 2.540000 1_556
Ca0 O17 2.570550 1_455
Ca0 O23 2.609877 1_556
Ca1 O19 2.332391 1_555
Ca1 O9 2.387931 1_555
Ca1 O20 2.390742 1_655
Ca1 O2 2.438696 1_565
Ca1 O13 2.500223 1_655
Ca1 O3 2.508716 1_555
Ca1 O8 2.524146 1_565
Ca1 O14 2.773699 1_555
Ca2 O18 2.400612 1_555
Ca2 O12 2.410802 1_556
Ca2 O10 2.450480 1_655
Ca2 O4 2.452692 1_556
Ca2 O17 2.454014 1_555
Ca2 O23 2.472144 1_556
Ca2 O11 2.542421 1_555
Ca2 O5 2.613713 1_656
Ca3 O1 2.365827 1_455
Ca3 O15 2.371479 1_555
Ca3 O2 2.408695 1_555
Ca3 O20 2.447483 1_545
Ca3 O21 2.532167 1_555
Ca3 O14 2.536799 1_545
Ca3 O7 2.572302 1_555
Ca3 O8 2.787039 1_455
Al0 O2 1.742229 1_555
Al0 O1 1.752203 1_555
Al0 O20 1.759287 1_645
Al0 O0 1.796011 1_655
Al1 O16 1.736484 1_555
Al1 O17 1.765778 1_555
Al1 O15 1.773069 1_555
Al1 O11 1.792108 1_555
Al2 O20 1.744397 1_555
Al2 O19 1.755661 1_555
Al2 O2 1.762763 1_565
Al2 O18 1.808638 1_555
Al3 O22 1.737852 1_555
Al3 O23 1.771364 1_555
Al3 O21 1.771794 1_655
Al3 O5 1.793616 1_655
Al4 O10 1.900201 1_555
Al4 O18 1.905037 1_555
Al4 O4 1.947084 1_556
Al4 O0 1.948972 1_565
Al4 O12 2.006174 1_456
Al4 O6 2.053567 1_566
Al5 O1 1.831516 1_555
Al5 O21 1.897260 1_655
Al5 O15 1.902419 1_555
Al5 O7 1.964315 1_555
Al5 O9 2.088897 1_555
Al5 O3 2.166212 1_555
Al6 O16 1.833001 1_555
Al6 O22 1.865093 1_556
Al6 O0 1.911329 1_655
Al6 O18 2.002091 1_545
Al6 O6 2.041322 1_556
Al6 O12 2.198164 1_546
Al7 O19 1.833852 1_555
Al7 O13 1.964010 1_555
Al7 O21 1.968207 1_555
Al7 O15 1.980631 1_555
Al7 O3 1.992101 1_555
Al7 O9 2.040882 1_455
O3 Si0 1.660514 1_555
O4 Si0 1.636007 1_555
O5 Si0 1.640141 1_555
O6 Si1 1.637784 1_555
O7 Si1 1.613163 1_555
O8 Si1 1.663882 1_555
O8 Si3 1.682337 1_645
O9 Si2 1.663261 1_655
O10 Si2 1.634343 1_555
O11 Si2 1.636486 1_555
O12 Si3 1.638860 1_655
O13 Si3 1.612576 1_555
O14 Si3 1.667377 1_555
O14 Si1 1.681973 1_565
O17 Si2 1.649964 1_655
O23 Si0 1.651869 1_555
