# generated using pymatgen
data_K3Ac
_symmetry_space_group_name_H-M   'P 1'
_cell_length_a   8.86997553
_cell_length_b   8.86997553
_cell_length_c   7.32773800
_cell_angle_alpha   90.00000000
_cell_angle_beta   90.00000000
_cell_angle_gamma   119.99999647
_symmetry_Int_Tables_number   1
_chemical_formula_structural   K3Ac
_chemical_formula_sum   'K6 Ac2'
_cell_volume   499.28144119
_cell_formula_units_Z   2
loop_
 _symmetry_equiv_pos_site_id
 _symmetry_equiv_pos_as_xyz
  1  'x, y, z'
loop_
 _atom_site_type_symbol
 _atom_site_label
 _atom_site_symmetry_multiplicity
 _atom_site_fract_x
 _atom_site_fract_y
 _atom_site_fract_z
 _atom_site_occupancy
  K  K0  1  0.16834100  0.33668300  0.25000000  1
  K  K1  1  0.66331700  0.83165900  0.25000000  1
  K  K2  1  0.16834100  0.83165900  0.25000000  1
  K  K3  1  0.83165900  0.66331700  0.75000000  1
  K  K4  1  0.33668300  0.16834100  0.75000000  1
  K  K5  1  0.83165900  0.16834100  0.75000000  1
  Ac  Ac0  1  0.33333300  0.66666700  0.75000000  1
  Ac  Ac1  1  0.66666700  0.33333300  0.25000000  1
loop_
_geom_bond_atom_site_label_1
_geom_bond_atom_site_label_2
_geom_bond_distance
_geom_bond_site_symmetry_2
K0 K2 4.390425 1_555
K0 K1 4.390425 1_555
K0 K2 4.479551 1_545
K0 K1 4.479551 1_445
K0 K5 4.484719 1_454
K0 K5 4.484719 1_455
K0 K4 4.484727 1_554
K0 K4 4.484727 1_555
K1 K2 4.390425 1_555
K1 K2 4.479551 1_655
K1 K5 4.484719 1_564
K1 K5 4.484719 1_565
K1 K3 4.484727 1_555
K1 K3 4.484727 1_554
K2 K4 4.484719 1_565
K2 K4 4.484719 1_564
K2 K3 4.484719 1_455
K2 K3 4.484719 1_454
K3 K5 4.390425 1_555
K3 K4 4.390425 1_555
K3 K5 4.479551 1_565
K3 K4 4.479551 1_665
K4 K5 4.390425 1_555
K4 K5 4.479551 1_455
Ac0 K3 4.435054 1_455
Ac0 K4 4.435054 1_565
Ac0 K5 4.435063 1_565
Ac0 K5 4.435063 1_455
Ac0 K3 4.435071 1_555
Ac0 K4 4.435071 1_555
Ac0 K2 4.455246 1_556
Ac0 K2 4.455246 1_555
Ac0 K0 4.455246 1_555
Ac0 K1 4.455246 1_555
Ac0 K0 4.455246 1_556
Ac0 K1 4.455246 1_556
Ac1 K0 4.435054 1_655
Ac1 K1 4.435054 1_545
Ac1 K2 4.435063 1_545
Ac1 K2 4.435063 1_655
Ac1 K1 4.435071 1_555
Ac1 K0 4.435071 1_555
Ac1 K5 4.455246 1_554
Ac1 K5 4.455246 1_555
Ac1 K3 4.455246 1_555
Ac1 K4 4.455246 1_554
Ac1 K4 4.455246 1_555
Ac1 K3 4.455246 1_554
