# generated using pymatgen
data_Mn3Zn8N9
_symmetry_space_group_name_H-M   'P 1'
_cell_length_a   5.64176882
_cell_length_b   10.63370100
_cell_length_c   16.60139171
_cell_angle_alpha   90.00000000
_cell_angle_beta   89.09249924
_cell_angle_gamma   90.00000000
_symmetry_Int_Tables_number   1
_chemical_formula_structural   Mn3Zn8N9
_chemical_formula_sum   'Mn12 Zn32 N36'
_cell_volume   995.84042031
_cell_formula_units_Z   4
loop_
 _symmetry_equiv_pos_site_id
 _symmetry_equiv_pos_as_xyz
  1  'x, y, z'
loop_
 _atom_site_type_symbol
 _atom_site_label
 _atom_site_symmetry_multiplicity
 _atom_site_fract_x
 _atom_site_fract_y
 _atom_site_fract_z
 _atom_site_occupancy
  Mn  Mn0  1  0.52180500  0.14717200  0.74289000  1
  Mn  Mn1  1  0.47819500  0.64717200  0.75711000  1
  Mn  Mn2  1  0.47819500  0.85282800  0.25711000  1
  Mn  Mn3  1  0.52180500  0.35282800  0.24289000  1
  Mn  Mn4  1  0.88692100  0.83632400  0.55219300  1
  Mn  Mn5  1  0.11307900  0.33632400  0.94780700  1
  Mn  Mn6  1  0.11307900  0.16367600  0.44780700  1
  Mn  Mn7  1  0.88692100  0.66367600  0.05219300  1
  Mn  Mn8  1  0.81522100  0.32080700  0.54608900  1
  Mn  Mn9  1  0.18477900  0.82080700  0.95391100  1
  Mn  Mn10  1  0.18477900  0.67919300  0.45391100  1
  Mn  Mn11  1  0.81522100  0.17919300  0.04608900  1
  Zn  Zn0  1  0.56108200  0.84376900  0.08696000  1
  Zn  Zn1  1  0.43891800  0.34376900  0.41304000  1
  Zn  Zn2  1  0.43891800  0.15623100  0.91304000  1
  Zn  Zn3  1  0.56108200  0.65623100  0.58696000  1
  Zn  Zn4  1  0.54008500  0.11554800  0.55893400  1
  Zn  Zn5  1  0.45991500  0.61554800  0.94106600  1
  Zn  Zn6  1  0.45991500  0.88445200  0.44106600  1
  Zn  Zn7  1  0.54008500  0.38445200  0.05893400  1
  Zn  Zn8  1  0.84118400  0.89955600  0.74824200  1
  Zn  Zn9  1  0.15881600  0.39955600  0.75175800  1
  Zn  Zn10  1  0.15881600  0.10044400  0.25175800  1
  Zn  Zn11  1  0.84118400  0.60044400  0.24824200  1
  Zn  Zn12  1  0.65982700  0.42470600  0.68032700  1
  Zn  Zn13  1  0.34017300  0.92470600  0.81967300  1
  Zn  Zn14  1  0.34017300  0.57529400  0.31967300  1
  Zn  Zn15  1  0.65982700  0.07529400  0.18032700  1
  Zn  Zn16  1  0.64532600  0.39494100  0.85476300  1
  Zn  Zn17  1  0.35467400  0.89494100  0.64523700  1
  Zn  Zn18  1  0.35467400  0.60505900  0.14523700  1
  Zn  Zn19  1  0.64532600  0.10505900  0.35476300  1
  Zn  Zn20  1  0.96442000  0.14878800  0.84867800  1
  Zn  Zn21  1  0.03558000  0.64878800  0.65132200  1
  Zn  Zn22  1  0.03558000  0.85121200  0.15132200  1
  Zn  Zn23  1  0.96442000  0.35121200  0.34867800  1
  Zn  Zn24  1  0.03146800  0.16063800  0.65490200  1
  Zn  Zn25  1  0.96853200  0.66063800  0.84509800  1
  Zn  Zn26  1  0.96853200  0.83936200  0.34509800  1
  Zn  Zn27  1  0.03146800  0.33936200  0.15490200  1
  Zn  Zn28  1  0.24858600  0.42175600  0.56090200  1
  Zn  Zn29  1  0.75141400  0.92175600  0.93909800  1
  Zn  Zn30  1  0.75141400  0.57824400  0.43909800  1
  Zn  Zn31  1  0.24858600  0.07824400  0.06090200  1
  N  N0  1  0.52759100  0.31974400  0.58145700  1
  N  N1  1  0.47240900  0.81974400  0.91854300  1
  N  N2  1  0.47240900  0.68025600  0.41854300  1
  N  N3  1  0.52759100  0.18025600  0.08145700  1
  N  N4  1  0.48172200  0.30961800  0.76088800  1
  N  N5  1  0.51827800  0.80961800  0.73911200  1
  N  N6  1  0.51827800  0.69038200  0.23911200  1
  N  N7  1  0.48172200  0.19038200  0.26088800  1
  N  N8  1  0.77097000  0.10450400  0.94754400  1
  N  N9  1  0.22903000  0.60450400  0.55245600  1
  N  N10  1  0.22903000  0.89549600  0.05245600  1
  N  N11  1  0.77097000  0.39549600  0.44754400  1
  N  N12  1  0.59359600  0.88431000  0.55174100  1
  N  N13  1  0.40640400  0.38431000  0.94825900  1
  N  N14  1  0.40640400  0.11569000  0.44825900  1
  N  N15  1  0.59359600  0.61569000  0.05174100  1
  N  N16  1  0.82004000  0.09270500  0.74499200  1
  N  N17  1  0.17996000  0.59270500  0.75500800  1
  N  N18  1  0.17996000  0.90729500  0.25500800  1
  N  N19  1  0.82004000  0.40729500  0.24499200  1
  N  N20  1  0.99262200  0.36235800  0.63990800  1
  N  N21  1  0.00737800  0.86235800  0.86009200  1
  N  N22  1  0.00737800  0.63764200  0.36009200  1
  N  N23  1  0.99262200  0.13764200  0.13990800  1
  N  N24  1  0.98585100  0.34060500  0.85248600  1
  N  N25  1  0.01414900  0.84060500  0.64751400  1
  N  N26  1  0.01414900  0.65939500  0.14751400  1
  N  N27  1  0.98585100  0.15939500  0.35248600  1
  N  N28  1  0.91194400  0.15512700  0.53461200  1
  N  N29  1  0.08805600  0.65512700  0.96538800  1
  N  N30  1  0.08805600  0.84487300  0.46538800  1
  N  N31  1  0.91194400  0.34487300  0.03461200  1
  N  N32  1  0.35564800  0.08446900  0.66339600  1
  N  N33  1  0.64435200  0.58446900  0.83660400  1
  N  N34  1  0.64435200  0.91553100  0.33660400  1
  N  N35  1  0.35564800  0.41553100  0.16339600  1
loop_
_geom_bond_atom_site_label_1
_geom_bond_atom_site_label_2
_geom_bond_distance
_geom_bond_site_symmetry_2
Mn0 N32 1.761861 1_555
Mn0 N4 1.766973 1_555
Mn0 N16 1.780333 1_555
Mn1 N33 1.761861 1_555
Mn1 N5 1.766973 1_555
Mn1 N17 1.780333 1_555
Mn2 N34 1.761861 1_555
Mn2 N6 1.766973 1_555
Mn2 N18 1.780333 1_555
Mn3 N35 1.761861 1_555
Mn3 N7 1.766973 1_555
Mn3 N19 1.780333 1_555
Mn4 N12 1.731885 1_555
Mn4 N25 1.748560 1_655
Mn4 N30 1.822323 1_655
Mn5 N13 1.731885 1_555
Mn5 N24 1.748560 1_455
Mn5 N31 1.822323 1_456
Mn6 N14 1.731885 1_555
Mn6 N27 1.748560 1_455
Mn6 N28 1.822323 1_455
Mn7 N15 1.731885 1_555
Mn7 N26 1.748560 1_655
Mn7 N29 1.822323 1_654
Mn8 N0 1.716972 1_555
Mn8 N11 1.839156 1_555
Mn8 N28 1.853293 1_555
Mn8 N20 1.916299 1_555
Mn9 N1 1.716972 1_555
Mn9 N10 1.839156 1_556
Mn9 N29 1.853293 1_555
Mn9 N21 1.916299 1_555
Mn10 N2 1.716972 1_555
Mn10 N9 1.839156 1_555
Mn10 N30 1.853293 1_555
Mn10 N22 1.916299 1_555
Mn11 N3 1.716972 1_555
Mn11 N8 1.839156 1_554
Mn11 N31 1.853293 1_555
Mn11 N23 1.916299 1_555
N0 Zn28 1.946255 1_555
N0 Zn12 2.129614 1_555
N0 Zn4 2.204256 1_555
N1 Zn29 1.946255 1_555
N1 Zn13 2.129614 1_555
N1 Zn5 2.204256 1_555
N2 Zn30 1.946255 1_555
N2 Zn14 2.129614 1_555
N2 Zn6 2.204256 1_555
N3 Zn31 1.946255 1_555
N3 Zn15 2.129614 1_555
N3 Zn7 2.204256 1_555
N4 Zn16 2.037032 1_555
N4 Zn12 2.062408 1_555
N4 Zn9 2.065232 1_555
N5 Zn17 2.037032 1_555
N5 Zn13 2.062408 1_555
N5 Zn8 2.065232 1_555
N6 Zn18 2.037032 1_555
N6 Zn14 2.062408 1_555
N6 Zn11 2.065232 1_555
N7 Zn19 2.037032 1_555
N7 Zn15 2.062408 1_555
N7 Zn10 2.065232 1_555
N8 Zn29 1.951586 1_545
N8 Zn20 2.012479 1_555
N8 Zn2 2.043072 1_555
N9 Zn28 1.951586 1_555
N9 Zn21 2.012479 1_555
N9 Zn3 2.043072 1_555
N10 Zn31 1.951586 1_565
N10 Zn22 2.012479 1_555
N10 Zn0 2.043072 1_555
N11 Zn30 1.951586 1_555
N11 Zn23 2.012479 1_555
N11 Zn1 2.043072 1_555
N12 Zn6 1.997148 1_555
N12 Zn17 2.042711 1_555
N12 Zn4 2.480025 1_565
N12 Zn3 2.500861 1_555
N13 Zn7 1.997148 1_556
N13 Zn16 2.042711 1_555
N13 Zn5 2.480025 1_555
N13 Zn2 2.500861 1_555
N14 Zn4 1.997148 1_555
N14 Zn19 2.042711 1_555
N14 Zn6 2.480025 1_545
N14 Zn1 2.500861 1_555
N15 Zn5 1.997148 1_554
N15 Zn18 2.042711 1_555
N15 Zn7 2.480025 1_555
N15 Zn0 2.500861 1_555
N16 Zn20 2.006629 1_555
N16 Zn24 2.031019 1_655
N16 Zn8 2.058107 1_545
N17 Zn21 2.006629 1_555
N17 Zn25 2.031019 1_455
N17 Zn9 2.058107 1_555
N18 Zn22 2.006629 1_555
N18 Zn26 2.031019 1_455
N18 Zn10 2.058107 1_565
N19 Zn23 2.006629 1_555
N19 Zn27 2.031019 1_655
N19 Zn11 2.058107 1_555
N20 Zn28 2.035844 1_655
N20 Zn12 2.091676 1_555
N20 Zn9 2.130424 1_655
N20 Zn24 2.170916 1_655
N21 Zn29 2.035844 1_455
N21 Zn13 2.091676 1_555
N21 Zn8 2.130424 1_455
N21 Zn25 2.170916 1_455
N22 Zn30 2.035844 1_455
N22 Zn14 2.091676 1_555
N22 Zn11 2.130424 1_455
N22 Zn26 2.170916 1_455
N23 Zn31 2.035844 1_655
N23 Zn15 2.091676 1_555
N23 Zn10 2.130424 1_655
N23 Zn27 2.170916 1_655
N24 Zn16 2.005952 1_555
N24 Zn9 2.022338 1_655
N24 Zn20 2.044342 1_555
N25 Zn17 2.005952 1_555
N25 Zn8 2.022338 1_455
N25 Zn21 2.044342 1_555
N26 Zn18 2.005952 1_555
N26 Zn11 2.022338 1_455
N26 Zn22 2.044342 1_555
N27 Zn19 2.005952 1_555
N27 Zn10 2.022338 1_655
N27 Zn23 2.044342 1_555
N28 Zn24 2.118665 1_655
N28 Zn4 2.171336 1_555
N29 Zn25 2.118665 1_455
N29 Zn5 2.171336 1_555
N30 Zn26 2.118665 1_455
N30 Zn6 2.171336 1_555
N31 Zn27 2.118665 1_655
N31 Zn7 2.171336 1_555
N32 Zn24 2.007272 1_555
N32 Zn4 2.035265 1_555
N32 Zn17 2.037826 1_545
N33 Zn25 2.007272 1_555
N33 Zn5 2.035265 1_555
N33 Zn16 2.037826 1_555
N34 Zn26 2.007272 1_555
N34 Zn6 2.035265 1_555
N34 Zn19 2.037826 1_565
N35 Zn27 2.007272 1_555
N35 Zn7 2.035265 1_555
N35 Zn18 2.037826 1_555
