# generated using pymatgen
data_NaFe9H18(S3O22)2
_symmetry_space_group_name_H-M   'P 1'
_cell_length_a   7.48469700
_cell_length_b   10.27922786
_cell_length_c   12.04030292
_cell_angle_alpha   111.11061314
_cell_angle_beta   71.89144045
_cell_angle_gamma   90.00000000
_symmetry_Int_Tables_number   1
_chemical_formula_structural   NaFe9H18(S3O22)2
_chemical_formula_sum   'Na1 Fe9 H18 S6 O44'
_cell_volume   814.79797184
_cell_formula_units_Z   1
loop_
 _symmetry_equiv_pos_site_id
 _symmetry_equiv_pos_as_xyz
  1  'x, y, z'
loop_
 _atom_site_type_symbol
 _atom_site_label
 _atom_site_symmetry_multiplicity
 _atom_site_fract_x
 _atom_site_fract_y
 _atom_site_fract_z
 _atom_site_occupancy
  Na  Na0  1  0.00000000  0.00000000  0.00000000  1
  Fe  Fe0  1  0.99999800  0.49999900  0.50000100  1
  Fe  Fe1  1  0.32706700  0.16111700  0.83098800  1
  Fe  Fe2  1  0.67292800  0.83888100  0.16901400  1
  Fe  Fe3  1  0.16876900  0.82585700  0.66246200  1
  Fe  Fe4  1  0.49999900  0.50000100  0.00000200  1
  Fe  Fe5  1  0.83122900  0.17414500  0.33754300  1
  Fe  Fe6  1  0.15805800  0.83888100  0.16901400  1
  Fe  Fe7  1  0.50000100  0.49999900  0.50000100  1
  Fe  Fe8  1  0.84194400  0.16111700  0.83098800  1
  H  H0  1  0.14321200  0.57289900  0.13604000  1
  H  H1  1  0.47879500  0.24069900  0.45829600  1
  H  H2  1  0.81411600  0.90447000  0.78834500  1
  H  H3  1  0.00621700  0.29962600  0.98756700  1
  H  H4  1  0.33590300  0.95474100  0.32819400  1
  H  H5  1  0.67544800  0.62583500  0.64910200  1
  H  H6  1  0.72074800  0.57289900  0.13604000  1
  H  H7  1  0.06290900  0.24069900  0.45829600  1
  H  H8  1  0.39754000  0.90447000  0.78834500  1
  H  H9  1  0.85678800  0.42710100  0.86396000  1
  H  H10  1  0.18588400  0.09553000  0.21165500  1
  H  H11  1  0.52120500  0.75930100  0.54170400  1
  H  H12  1  0.99378300  0.70037400  0.01243300  1
  H  H13  1  0.32455200  0.37416500  0.35089800  1
  H  H14  1  0.66409700  0.04525900  0.67180600  1
  H  H15  1  0.27925200  0.42710100  0.86396000  1
  H  H16  1  0.60246000  0.09553000  0.21165500  1
  H  H17  1  0.93709100  0.75930100  0.54170400  1
  S  S0  1  0.87403100  0.43717500  0.25193700  1
  S  S1  1  0.20685300  0.10000800  0.58629200  1
  S  S2  1  0.53824400  0.77233400  0.92351300  1
  S  S3  1  0.12596900  0.56282500  0.74806300  1
  S  S4  1  0.46175600  0.22766600  0.07648700  1
  S  S5  1  0.79314700  0.89999200  0.41370800  1
  O  O0  1  0.93264900  0.46768100  0.13470100  1
  O  O1  1  0.26511300  0.12873700  0.46977600  1
  O  O2  1  0.59673500  0.79990700  0.80653100  1
  O  O3  1  0.06735100  0.53231900  0.86529900  1
  O  O4  1  0.40326500  0.20009300  0.19346900  1
  O  O5  1  0.73488700  0.87126300  0.53022400  1
  O  O6  1  0.24996200  0.62632800  0.11289700  1
  O  O7  1  0.58616000  0.29318900  0.43911100  1
  O  O8  1  0.92181800  0.95967100  0.78378400  1
  O  O9  1  0.04487300  0.21296200  0.91025400  1
  O  O10  1  0.37952500  0.88239400  0.24094800  1
  O  O11  1  0.71674700  0.54798300  0.56650600  1
  O  O12  1  0.63714000  0.62632800  0.11289700  1
  O  O13  1  0.97473000  0.29318900  0.43911100  1
  O  O14  1  0.29439800  0.95967100  0.78378400  1
  O  O15  1  0.75003800  0.37367200  0.88710300  1
  O  O16  1  0.07818200  0.04032900  0.21621600  1
  O  O17  1  0.41384000  0.70681100  0.56088900  1
  O  O18  1  0.95512700  0.78703800  0.08974600  1
  O  O19  1  0.28325300  0.45201700  0.43349400  1
  O  O20  1  0.62047500  0.11760600  0.75905200  1
  O  O21  1  0.36286000  0.37367200  0.88710300  1
  O  O22  1  0.70560200  0.04032900  0.21621600  1
  O  O23  1  0.02527000  0.70681100  0.56088900  1
  O  O24  1  0.00115700  0.49902500  0.32568000  1
  O  O25  1  0.33128700  0.16430200  0.66288000  1
  O  O26  1  0.66383600  0.83555900  0.99901600  1
  O  O27  1  0.89234500  0.28064100  0.21530900  1
  O  O28  1  0.22347700  0.94538200  0.55304800  1
  O  O29  1  0.55362800  0.61720600  0.89274400  1
  O  O30  1  0.67316400  0.49902500  0.32568000  1
  O  O31  1  0.00583300  0.16430200  0.66288000  1
  O  O32  1  0.33714600  0.83555900  0.99901600  1
  O  O33  1  0.99884300  0.50097500  0.67432000  1
  O  O34  1  0.33616400  0.16444100  0.00098400  1
  O  O35  1  0.66871300  0.83569800  0.33712000  1
  O  O36  1  0.10765500  0.71935900  0.78469100  1
  O  O37  1  0.44637200  0.38279400  0.10725600  1
  O  O38  1  0.77652300  0.05461800  0.44695200  1
  O  O39  1  0.32683600  0.50097500  0.67432000  1
  O  O40  1  0.66285400  0.16444100  0.00098400  1
  O  O41  1  0.99416700  0.83569800  0.33712000  1
  O  O42  1  0.63609600  0.31767200  0.72780800  1
  O  O43  1  0.36390400  0.68232800  0.27219200  1
loop_
_geom_bond_atom_site_label_1
_geom_bond_atom_site_label_2
_geom_bond_distance
_geom_bond_site_symmetry_2
Na0 O16 2.731496 1_555
Na0 O8 2.731496 1_444
Na0 O22 2.731496 1_455
Na0 O14 2.731496 1_544
Na0 O9 2.747881 1_554
Na0 O18 2.747881 1_445
Na0 O27 3.001018 1_455
Na0 O36 3.001018 1_544
Na0 O32 3.031841 1_544
Na0 O40 3.031841 1_455
Na0 O34 3.031854 1_555
Na0 O26 3.031854 1_444
Fe0 O11 2.009795 1_555
Fe0 O19 2.009820 1_655
Fe0 O13 2.013951 1_555
Fe0 O23 2.013976 1_655
Fe0 O33 2.092586 1_555
Fe0 O24 2.092608 1_655
Fe1 O14 1.977190 1_545
Fe1 O9 2.009108 1_555
Fe1 O25 2.026555 1_555
Fe1 O34 2.057052 1_556
Fe1 O20 2.076413 1_555
Fe1 O21 2.085954 1_555
Fe2 O22 1.977218 1_565
Fe2 O18 2.009141 1_555
Fe2 O35 2.026535 1_555
Fe2 O26 2.057070 1_554
Fe2 O10 2.076380 1_555
Fe2 O12 2.085926 1_555
Fe3 O17 1.971083 1_555
Fe3 O23 1.971088 1_555
Fe3 O28 2.059916 1_555
Fe3 O36 2.077380 1_555
Fe3 O14 2.077608 1_555
Fe3 O8 2.077608 1_455
Fe4 O37 2.019604 1_555
Fe4 O29 2.019625 1_554
Fe4 O12 2.045330 1_555
Fe4 O6 2.045336 1_555
Fe4 O21 2.045356 1_554
Fe4 O15 2.045362 1_554
Fe5 O13 1.971057 1_555
Fe5 O7 1.971057 1_555
Fe5 O38 2.059886 1_555
Fe5 O27 2.077414 1_555
Fe5 O16 2.077637 1_655
Fe5 O22 2.077642 1_555
Fe6 O16 1.977218 1_565
Fe6 O18 2.009141 1_455
Fe6 O41 2.026535 1_455
Fe6 O32 2.057065 1_554
Fe6 O10 2.076366 1_555
Fe6 O6 2.085924 1_555
Fe7 O11 2.009795 1_555
Fe7 O19 2.009820 1_555
Fe7 O7 2.013953 1_555
Fe7 O17 2.013978 1_555
Fe7 O39 2.092588 1_555
Fe7 O30 2.092610 1_555
Fe8 O8 1.977191 1_545
Fe8 O9 2.009115 1_655
Fe8 O31 2.026558 1_655
Fe8 O40 2.057045 1_556
Fe8 O20 2.076393 1_555
Fe8 O15 2.085950 1_555
H0 O6 0.994737 1_555
H1 O7 0.982156 1_555
H2 O8 0.984752 1_555
H3 O9 0.989473 1_555
H4 O10 0.993576 1_555
H5 O11 0.980094 1_555
H6 O12 0.994742 1_555
H7 O13 0.982151 1_455
H8 O14 0.984758 1_555
H9 O15 0.994737 1_555
H10 O16 0.984752 1_555
H11 O17 0.982156 1_555
H12 O18 0.989473 1_555
H13 O19 0.980094 1_555
H14 O20 0.993576 1_555
H15 O21 0.994742 1_555
H16 O22 0.984758 1_555
H17 O23 0.982151 1_655
O0 S0 1.489020 1_555
O1 S1 1.470918 1_555
O2 S2 1.469731 1_555
O3 S3 1.489020 1_555
O4 S4 1.469731 1_555
O5 S5 1.470918 1_555
O24 S0 1.488774 1_455
O25 S1 1.499808 1_555
O26 S2 1.496017 1_555
O27 S0 1.501193 1_555
O28 S1 1.487536 1_565
O29 S2 1.497059 1_555
O30 S0 1.488762 1_555
O31 S1 1.499796 1_555
O32 S2 1.496036 1_555
O33 S3 1.488774 1_655
O34 S4 1.496017 1_555
O35 S5 1.499808 1_555
O36 S3 1.501193 1_555
O37 S4 1.497059 1_555
O38 S5 1.487536 1_545
O39 S3 1.488762 1_555
O40 S4 1.496036 1_555
O41 S5 1.499796 1_555
