# generated using pymatgen
data_Ho2Ge5Ru3
_symmetry_space_group_name_H-M   'P 1'
_cell_length_a   8.46009899
_cell_length_b   8.46009899
_cell_length_c   8.46009899
_cell_angle_alpha   140.09031050
_cell_angle_beta   108.57570340
_cell_angle_gamma   85.08866469
_symmetry_Int_Tables_number   1
_chemical_formula_structural   Ho2Ge5Ru3
_chemical_formula_sum   'Ho4 Ge10 Ru6'
_cell_volume   355.48301248
_cell_formula_units_Z   2
loop_
 _symmetry_equiv_pos_site_id
 _symmetry_equiv_pos_as_xyz
  1  'x, y, z'
loop_
 _atom_site_type_symbol
 _atom_site_label
 _atom_site_symmetry_multiplicity
 _atom_site_fract_x
 _atom_site_fract_y
 _atom_site_fract_z
 _atom_site_occupancy
  Ho  Ho0  1  0.86932800  0.13750600  0.73182200  1
  Ho  Ho1  1  0.13067200  0.86249400  0.26817800  1
  Ho  Ho2  1  0.40568400  0.63750600  0.76817800  1
  Ho  Ho3  1  0.59431600  0.36249400  0.23182200  1
  Ge  Ge0  1  0.50000000  0.25000000  0.75000000  1
  Ge  Ge1  1  0.50000000  0.75000000  0.25000000  1
  Ge  Ge2  1  0.20841000  0.45841000  0.25000000  1
  Ge  Ge3  1  0.79159000  0.04159000  0.25000000  1
  Ge  Ge4  1  0.79159000  0.54159000  0.75000000  1
  Ge  Ge5  1  0.20841000  0.95841000  0.75000000  1
  Ge  Ge6  1  0.08522300  0.41088700  0.67433600  1
  Ge  Ge7  1  0.91477700  0.58911300  0.32566400  1
  Ge  Ge8  1  0.73655200  0.91088700  0.82566400  1
  Ge  Ge9  1  0.26344800  0.08911300  0.17433600  1
  Ru  Ru0  1  0.00000000  0.25000000  0.25000000  1
  Ru  Ru1  1  0.00000000  0.75000000  0.75000000  1
  Ru  Ru2  1  0.26015900  0.35304200  0.90711700  1
  Ru  Ru3  1  0.73984100  0.64695800  0.09288300  1
  Ru  Ru4  1  0.44592600  0.85304200  0.59288300  1
  Ru  Ru5  1  0.55407400  0.14695800  0.40711700  1
loop_
_geom_bond_atom_site_label_1
_geom_bond_atom_site_label_2
_geom_bond_distance
_geom_bond_site_symmetry_2
Ho0 Ru2 3.196364 1_655
Ho0 Ru3 3.198934 1_545
Ho0 Ru3 3.198934 1_556
Ho0 Ru5 3.209132 1_555
Ho0 Ru0 3.469561 1_656
Ho0 Ru1 3.469561 1_645
Ho1 Ru3 3.196364 1_455
Ho1 Ru2 3.198934 1_554
Ho1 Ru2 3.198934 1_565
Ho1 Ru4 3.209132 1_555
Ho1 Ru1 3.469561 1_554
Ho1 Ru0 3.469561 1_565
Ho2 Ru4 3.196367 1_555
Ho2 Ru5 3.198929 1_555
Ho2 Ru5 3.198934 1_566
Ho2 Ru3 3.209128 1_556
Ho2 Ru1 3.469561 1_555
Ho2 Ru0 3.469561 1_555
Ho3 Ru5 3.196367 1_555
Ho3 Ru4 3.198929 1_555
Ho3 Ru4 3.198934 1_544
Ho3 Ru2 3.209128 1_554
Ho3 Ru1 3.469561 1_655
Ho3 Ru0 3.469561 1_655
Ge0 Ru5 2.506344 1_555
Ge0 Ru4 2.506347 1_545
Ge0 Ru2 2.506348 1_555
Ge0 Ru3 2.506348 1_556
Ge0 Ho2 3.203851 1_555
Ge0 Ho0 3.203851 1_555
Ge0 Ho3 3.203851 1_556
Ge0 Ho1 3.203851 1_545
Ge1 Ru4 2.506344 1_555
Ge1 Ru5 2.506347 1_565
Ge1 Ru3 2.506348 1_555
Ge1 Ru2 2.506348 1_554
Ge1 Ho0 3.203851 1_565
Ge1 Ho2 3.203851 1_554
Ge1 Ho1 3.203851 1_555
Ge1 Ho3 3.203851 1_555
Ge2 Ru2 2.485233 1_554
Ge2 Ru4 2.485237 1_555
Ge2 Ru0 2.598045 1_555
Ge2 Ge9 2.694518 1_555
Ge2 Ge7 2.694519 1_455
Ge2 Ge5 2.887258 1_544
Ge2 Ge5 2.887258 1_555
Ge2 Ho0 3.143373 1_454
Ge2 Ho2 3.143373 1_555
Ge2 Ho3 3.319016 1_555
Ge2 Ho1 3.319016 1_555
Ge3 Ru3 2.485233 1_545
Ge3 Ru5 2.485241 1_555
Ge3 Ru0 2.598045 1_655
Ge3 Ge6 2.694519 1_655
Ge3 Ge8 2.694521 1_544
Ge3 Ge4 2.887258 1_544
Ge3 Ge4 2.887258 1_555
Ge3 Ho3 3.143373 1_555
Ge3 Ho1 3.143373 1_645
Ge3 Ho0 3.319016 1_555
Ge3 Ho2 3.319016 1_544
Ge4 Ru3 2.485233 1_556
Ge4 Ru5 2.485237 1_555
Ge4 Ru1 2.598045 1_655
Ge4 Ge8 2.694518 1_555
Ge4 Ge6 2.694519 1_655
Ge4 Ho1 3.143373 1_656
Ge4 Ho3 3.143373 1_555
Ge4 Ho0 3.319016 1_555
Ge4 Ho2 3.319016 1_555
Ge5 Ru2 2.485233 1_565
Ge5 Ru4 2.485241 1_555
Ge5 Ru1 2.598045 1_555
Ge5 Ge7 2.694519 1_455
Ge5 Ge9 2.694521 1_566
Ge5 Ho0 3.143373 1_465
Ge5 Ho2 3.143373 1_555
Ge5 Ho3 3.319016 1_566
Ge5 Ho1 3.319016 1_555
Ge6 Ru2 2.409505 1_555
Ge6 Ru1 2.506562 1_555
Ge6 Ru0 2.506562 1_555
Ge6 Ho2 2.973192 1_555
Ge6 Ho1 3.091798 1_545
Ge6 Ho1 3.091798 1_556
Ge6 Ho0 3.454946 1_455
Ge7 Ru3 2.409505 1_555
Ge7 Ru0 2.506562 1_655
Ge7 Ru1 2.506562 1_655
Ge7 Ho3 2.973192 1_555
Ge7 Ho0 3.091798 1_565
Ge7 Ho0 3.091798 1_554
Ge7 Ho1 3.454946 1_655
Ge8 Ru4 2.409505 1_555
Ge8 Ru1 2.506555 1_655
Ge8 Ru0 2.506558 1_666
Ge8 Ho0 2.973187 1_565
Ge8 Ho3 3.091798 1_555
Ge8 Ho3 3.091803 1_566
Ge8 Ho2 3.454953 1_555
Ge9 Ru5 2.409505 1_555
Ge9 Ru0 2.506555 1_555
Ge9 Ru1 2.506558 1_544
Ge9 Ho1 2.973187 1_545
Ge9 Ho2 3.091798 1_555
Ge9 Ho2 3.091803 1_544
Ge9 Ho3 3.454953 1_555
