# generated using pymatgen
data_Ti2AgN3
_symmetry_space_group_name_H-M   'P 1'
_cell_length_a   3.06187900
_cell_length_b   3.06187875
_cell_length_c   26.03080000
_cell_angle_alpha   90.00000000
_cell_angle_beta   90.00000000
_cell_angle_gamma   119.99999187
_symmetry_Int_Tables_number   1
_chemical_formula_structural   Ti2AgN3
_chemical_formula_sum   'Ti6 Ag3 N9'
_cell_volume   211.34607943
_cell_formula_units_Z   3
loop_
 _symmetry_equiv_pos_site_id
 _symmetry_equiv_pos_as_xyz
  1  'x, y, z'
loop_
 _atom_site_type_symbol
 _atom_site_label
 _atom_site_symmetry_multiplicity
 _atom_site_fract_x
 _atom_site_fract_y
 _atom_site_fract_z
 _atom_site_occupancy
  Ti  Ti0  1  0.33300000  0.00589700  0.11552000  1
  Ti  Ti1  1  0.67289700  0.66700000  0.78218600  1
  Ti  Ti2  1  0.99410300  0.32710300  0.44885300  1
  Ti  Ti3  1  0.66700000  0.67289700  0.21781400  1
  Ti  Ti4  1  0.00589700  0.33300000  0.88448000  1
  Ti  Ti5  1  0.32710300  0.99410300  0.55114700  1
  Ag  Ag0  1  0.00000000  0.33114700  0.66666700  1
  Ag  Ag1  1  0.33114700  0.00000000  0.33333300  1
  Ag  Ag2  1  0.66885300  0.66885300  0.00000000  1
  N  N0  1  0.00000000  0.33918800  0.16666700  1
  N  N1  1  0.33918800  0.00000000  0.83333300  1
  N  N2  1  0.66081200  0.66081200  0.50000000  1
  N  N3  1  0.32750700  0.99394000  0.41459800  1
  N  N4  1  0.66643300  0.67249300  0.08126400  1
  N  N5  1  0.00606000  0.33356700  0.74793100  1
  N  N6  1  0.67249300  0.66643300  0.91873600  1
  N  N7  1  0.99394000  0.32750700  0.58540200  1
  N  N8  1  0.33356700  0.00606000  0.25206900  1
loop_
_geom_bond_atom_site_label_1
_geom_bond_atom_site_label_2
_geom_bond_distance
_geom_bond_site_symmetry_2
Ag0 N5 2.115429 1_555
Ag0 N7 2.115455 1_455
Ag1 N8 2.115429 1_555
Ag1 N3 2.115455 1_545
Ag2 N4 2.115429 1_555
Ag2 N6 2.115429 1_554
N0 Ti0 2.212269 1_555
N0 Ti3 2.212269 1_445
N0 Ti3 2.213154 1_455
N0 Ti0 2.213154 1_565
N0 Ti0 2.213771 1_455
N0 Ti3 2.213771 1_555
N1 Ti4 2.212269 1_555
N1 Ti1 2.212269 1_445
N1 Ti1 2.213154 1_545
N1 Ti4 2.213154 1_655
N1 Ti4 2.213770 1_545
N1 Ti1 2.213770 1_555
N2 Ti2 2.212269 1_565
N2 Ti5 2.212269 1_655
N2 Ti5 2.213154 1_545
N2 Ti2 2.213154 1_455
N2 Ti2 2.213770 1_555
N2 Ti5 2.213770 1_555
N3 Ti2 1.979697 1_465
N3 Ti2 1.979766 1_565
N3 Ti2 1.980337 1_455
N4 Ti0 1.979709 1_665
N4 Ti0 1.979778 1_555
N4 Ti0 1.980348 1_565
N5 Ti1 1.979698 1_445
N5 Ti1 1.979766 1_455
N5 Ti1 1.980337 1_555
N6 Ti4 1.979709 1_665
N6 Ti4 1.979778 1_555
N6 Ti4 1.980348 1_655
N7 Ti5 1.979697 1_645
N7 Ti5 1.979766 1_655
N7 Ti5 1.980337 1_545
N8 Ti3 1.979698 1_445
N8 Ti3 1.979766 1_545
N8 Ti3 1.980337 1_555
