# generated using pymatgen
data_HoOs2
_symmetry_space_group_name_H-M   'P 1'
_cell_length_a   5.25971974
_cell_length_b   5.25971974
_cell_length_c   8.89168260
_cell_angle_alpha   90.00000241
_cell_angle_beta   89.99997991
_cell_angle_gamma   119.99991575
_symmetry_Int_Tables_number   1
_chemical_formula_structural   HoOs2
_chemical_formula_sum   'Ho4 Os8'
_cell_volume   213.02970198
_cell_formula_units_Z   4
loop_
 _symmetry_equiv_pos_site_id
 _symmetry_equiv_pos_as_xyz
  1  'x, y, z'
loop_
 _atom_site_type_symbol
 _atom_site_label
 _atom_site_symmetry_multiplicity
 _atom_site_fract_x
 _atom_site_fract_y
 _atom_site_fract_z
 _atom_site_occupancy
  Ho  Ho0  1  0.66666639  0.33333361  0.56573963  1
  Ho  Ho1  1  0.33333225  0.66666675  0.43426992  1
  Ho  Ho2  1  0.33333225  0.66666675  0.06573108  1
  Ho  Ho3  1  0.66666639  0.33333361  0.93426037  1
  Os  Os0  1  0.00000042  -0.00000042  0.50003805  1
  Os  Os1  1  0.00000042  -0.00000042  -0.00003805  1
  Os  Os2  1  0.17133040  0.34266807  0.74999900  1
  Os  Os3  1  0.17131592  0.82868408  0.75000000  1
  Os  Os4  1  0.65733193  0.82866960  0.75000000  1
  Os  Os5  1  0.82867519  0.65734136  0.25000000  1
  Os  Os6  1  0.82868880  0.17131120  0.25000000  1
  Os  Os7  1  0.34265864  0.17132481  0.25000000  1
loop_
_geom_bond_atom_site_label_1
_geom_bond_atom_site_label_2
_geom_bond_distance
_geom_bond_site_symmetry_2
Ho0 Os0 3.092383 1_665
Ho0 Os0 3.092383 1_555
Ho0 Os0 3.092389 1_655
Ho0 Os2 3.098735 1_655
Ho0 Os4 3.098740 1_545
Ho0 Os3 3.098754 1_545
Ho0 Os3 3.098755 1_655
Ho0 Os2 3.098763 1_555
Ho0 Os4 3.098768 1_555
Ho0 Os5 3.171752 1_555
Ho0 Os7 3.171753 1_555
Ho0 Os6 3.171830 1_555
Ho0 Ho1 3.253932 1_655
Ho0 Ho1 3.253935 1_555
Ho0 Ho1 3.253937 1_545
Ho0 Ho3 3.276769 1_555
Ho1 Os0 3.092485 1_565
Ho1 Os0 3.092500 1_555
Ho1 Os0 3.092505 1_665
Ho1 Os5 3.098774 1_455
Ho1 Os7 3.098775 1_565
Ho1 Os6 3.098797 1_455
Ho1 Os6 3.098800 1_565
Ho1 Os7 3.098821 1_555
Ho1 Os5 3.098823 1_555
Ho1 Os2 3.171650 1_555
Ho1 Os4 3.171661 1_555
Ho1 Os3 3.171731 1_555
Ho1 Ho2 3.276930 1_555
Ho2 Os1 3.092487 1_565
Ho2 Os1 3.092502 1_555
Ho2 Os1 3.092506 1_665
Ho2 Os5 3.098768 1_455
Ho2 Os7 3.098771 1_565
Ho2 Os6 3.098791 1_455
Ho2 Os6 3.098797 1_565
Ho2 Os7 3.098816 1_555
Ho2 Os5 3.098819 1_555
Ho2 Os4 3.171668 1_554
Ho2 Os2 3.171674 1_554
Ho2 Os3 3.171740 1_554
Ho2 Ho3 3.253936 1_454
Ho2 Ho3 3.253938 1_554
Ho2 Ho3 3.253939 1_564
Ho3 Os1 3.092383 1_556
Ho3 Os1 3.092383 1_666
Ho3 Os1 3.092389 1_656
Ho3 Os4 3.098739 1_545
Ho3 Os2 3.098744 1_655
Ho3 Os3 3.098754 1_655
Ho3 Os3 3.098755 1_545
Ho3 Os4 3.098768 1_555
Ho3 Os2 3.098773 1_555
Ho3 Os7 3.171752 1_556
Ho3 Os5 3.171753 1_556
Ho3 Os6 3.171830 1_556
Os0 Os3 2.715817 1_545
Os0 Os2 2.715909 1_555
Os0 Os4 2.715915 1_445
Os0 Os6 2.716350 1_455
Os0 Os7 2.716442 1_555
Os0 Os5 2.716443 1_445
Os1 Os3 2.715816 1_544
Os1 Os4 2.715916 1_444
Os1 Os2 2.715923 1_554
Os1 Os6 2.716350 1_455
Os1 Os5 2.716443 1_445
Os1 Os7 2.716443 1_555
Os2 Os4 2.556235 1_555
Os2 Os3 2.556346 1_555
Os2 Os3 2.703374 1_545
Os2 Os4 2.703491 1_445
Os3 Os4 2.556346 1_555
Os3 Os4 2.703374 1_455
Os5 Os7 2.556314 1_555
Os5 Os6 2.556418 1_555
Os5 Os6 2.703302 1_565
Os5 Os7 2.703412 1_665
Os6 Os7 2.556418 1_555
Os6 Os7 2.703302 1_655
