# generated using pymatgen
data_Ce2Fe2Si2C
_symmetry_space_group_name_H-M   'P 1'
_cell_length_a   5.67495536
_cell_length_b   5.67495536
_cell_length_c   7.00749957
_cell_angle_alpha   52.65486235
_cell_angle_beta   52.65486235
_cell_angle_gamma   40.98932364
_symmetry_Int_Tables_number   1
_chemical_formula_structural   Ce2Fe2Si2C
_chemical_formula_sum   'Ce2 Fe2 Si2 C1'
_cell_volume   112.79221303
_cell_formula_units_Z   1
loop_
 _symmetry_equiv_pos_site_id
 _symmetry_equiv_pos_as_xyz
  1  'x, y, z'
loop_
 _atom_site_type_symbol
 _atom_site_label
 _atom_site_symmetry_multiplicity
 _atom_site_fract_x
 _atom_site_fract_y
 _atom_site_fract_z
 _atom_site_occupancy
  Ce  Ce0  1  0.56312200  0.56312200  0.17208500  1
  Ce  Ce1  1  0.43687800  0.43687800  0.82791500  1
  Fe  Fe0  1  0.19728300  0.19728300  0.68838900  1
  Fe  Fe1  1  0.80271700  0.80271700  0.31161100  1
  Si  Si0  1  0.16343500  0.16343500  0.39295900  1
  Si  Si1  1  0.83656500  0.83656500  0.60704100  1
  C  C0  1  0.00000000  0.00000000  0.00000000  1
loop_
_geom_bond_atom_site_label_1
_geom_bond_atom_site_label_2
_geom_bond_distance
_geom_bond_site_symmetry_2
Ce0 Si1 3.036501 1_554
Ce0 Si1 3.087187 1_455
Ce0 Si1 3.087187 1_545
Ce0 Si0 3.101416 1_565
Ce0 Si0 3.101416 1_655
Ce1 Si0 3.036501 1_556
Ce1 Si0 3.087187 1_655
Ce1 Si0 3.087187 1_565
Ce1 Si1 3.101416 1_455
Ce1 Si1 3.101416 1_545
Fe0 Si1 2.317799 1_545
Fe0 Si1 2.317799 1_455
Fe0 Si0 2.319534 1_555
Fe1 Si0 2.317799 1_565
Fe1 Si0 2.317799 1_655
Fe1 Si1 2.319534 1_555
Si0 Si1 2.752216 1_445
C0 Fe0 1.798703 1_554
C0 Fe1 1.798703 1_445
C0 Ce0 2.626879 1_455
C0 Ce0 2.626879 1_545
C0 Ce1 2.626879 1_454
C0 Ce1 2.626879 1_544
