# generated using pymatgen
data_Tb11(In3Ge2)2
_symmetry_space_group_name_H-M   'P 1'
_cell_length_a   11.57741994
_cell_length_b   11.57741994
_cell_length_c   11.57741994
_cell_angle_alpha   119.87731658
_cell_angle_beta   119.87731658
_cell_angle_gamma   90.21262559
_symmetry_Int_Tables_number   1
_chemical_formula_structural   Tb11(In3Ge2)2
_chemical_formula_sum   'Tb22 In12 Ge8'
_cell_volume   1099.31388921
_cell_formula_units_Z   2
loop_
 _symmetry_equiv_pos_site_id
 _symmetry_equiv_pos_as_xyz
  1  'x, y, z'
loop_
 _atom_site_type_symbol
 _atom_site_label
 _atom_site_symmetry_multiplicity
 _atom_site_fract_x
 _atom_site_fract_y
 _atom_site_fract_z
 _atom_site_occupancy
  Tb  Tb0  1  0.68579900  0.93485800  0.24906000  1
  Tb  Tb1  1  0.68579900  0.43673900  0.75094000  1
  Tb  Tb2  1  0.93485800  0.68579900  0.24906000  1
  Tb  Tb3  1  0.43673900  0.68579900  0.75094000  1
  Tb  Tb4  1  0.31420100  0.06514200  0.75094000  1
  Tb  Tb5  1  0.31420100  0.56326100  0.24906000  1
  Tb  Tb6  1  0.06514200  0.31420100  0.75094000  1
  Tb  Tb7  1  0.56326100  0.31420100  0.24906000  1
  Tb  Tb8  1  0.89892400  0.24448700  0.34556200  1
  Tb  Tb9  1  0.89892400  0.55336200  0.65443800  1
  Tb  Tb10  1  0.24448700  0.89892400  0.34556200  1
  Tb  Tb11  1  0.55336200  0.89892400  0.65443800  1
  Tb  Tb12  1  0.10107600  0.75551300  0.65443800  1
  Tb  Tb13  1  0.10107600  0.44663800  0.34556200  1
  Tb  Tb14  1  0.75551300  0.10107600  0.65443800  1
  Tb  Tb15  1  0.44663800  0.10107600  0.34556200  1
  Tb  Tb16  1  0.33149700  0.33149700  0.66299500  1
  Tb  Tb17  1  0.66850300  0.66850300  0.33700500  1
  Tb  Tb18  1  0.33149700  0.66850300  0.00000000  1
  Tb  Tb19  1  0.66850300  0.33149700  0.00000000  1
  Tb  Tb20  1  0.83372300  0.83372300  0.00000000  1
  Tb  Tb21  1  0.16627700  0.16627700  0.00000000  1
  In  In0  1  0.03435900  0.03435900  0.41137000  1
  In  In1  1  0.62298900  0.62298900  0.58863000  1
  In  In2  1  0.03435900  0.62298900  0.00000000  1
  In  In3  1  0.62298900  0.03435900  0.00000000  1
  In  In4  1  0.96564100  0.96564100  0.58863000  1
  In  In5  1  0.37701100  0.37701100  0.41137000  1
  In  In6  1  0.96564100  0.37701100  0.00000000  1
  In  In7  1  0.37701100  0.96564100  0.00000000  1
  In  In8  1  0.12932100  0.12932100  0.25864200  1
  In  In9  1  0.87067900  0.87067900  0.74135800  1
  In  In10  1  0.12932100  0.87067900  0.00000000  1
  In  In11  1  0.87067900  0.12932100  0.00000000  1
  Ge  Ge0  1  0.15332800  0.50000000  0.65332800  1
  Ge  Ge1  1  0.84667200  0.50000000  0.34667200  1
  Ge  Ge2  1  0.50000000  0.84667200  0.34667200  1
  Ge  Ge3  1  0.50000000  0.15332800  0.65332800  1
  Ge  Ge4  1  0.61703300  0.61703300  0.00000000  1
  Ge  Ge5  1  0.38296700  0.38296700  0.00000000  1
  Ge  Ge6  1  0.75000000  0.25000000  0.50000000  1
  Ge  Ge7  1  0.25000000  0.75000000  0.50000000  1
loop_
_geom_bond_atom_site_label_1
_geom_bond_atom_site_label_2
_geom_bond_distance
_geom_bond_site_symmetry_2
In0 In4 2.953987 1_445
In0 In8 3.067329 1_555
In0 Tb8 3.105156 1_455
In0 Tb10 3.105156 1_545
In0 Tb20 3.374921 1_445
In0 Tb0 3.375900 1_445
In0 Tb2 3.375900 1_445
In0 Tb6 3.461929 1_555
In0 Tb4 3.461929 1_555
In0 Tb16 3.478279 1_555
In1 In5 2.953987 1_555
In1 In9 3.067329 1_555
In1 Tb11 3.105145 1_555
In1 Tb9 3.105145 1_555
In1 Tb20 3.374921 1_556
In1 Tb1 3.375899 1_555
In1 Tb3 3.375899 1_555
In1 Tb7 3.461934 1_555
In1 Tb5 3.461934 1_555
In1 Tb17 3.478292 1_555
In2 In6 2.953987 1_455
In2 Tb9 3.105145 1_454
In2 Tb10 3.105147 1_555
In2 Tb20 3.374921 1_455
In2 Tb1 3.375899 1_454
In2 Tb2 3.375908 1_455
In2 Tb5 3.461934 1_555
In2 Tb6 3.461940 1_554
In2 Tb18 3.478280 1_555
In3 In7 2.953987 1_545
In3 Tb11 3.105145 1_544
In3 Tb8 3.105147 1_555
In3 Tb20 3.374921 1_545
In3 Tb3 3.375899 1_544
In3 Tb0 3.375908 1_545
In3 Tb7 3.461934 1_555
In3 Tb4 3.461940 1_554
In3 Tb19 3.478280 1_555
In4 In9 3.067329 1_555
In4 Tb14 3.105156 1_565
In4 Tb12 3.105156 1_655
In4 Tb21 3.374921 1_666
In4 Tb6 3.375900 1_665
In4 Tb4 3.375900 1_665
In4 Tb2 3.461929 1_555
In4 Tb0 3.461929 1_555
In4 Tb17 3.478279 1_555
In5 In8 3.067329 1_555
In5 Tb13 3.105145 1_555
In5 Tb15 3.105145 1_555
In5 Tb21 3.374921 1_555
In5 Tb5 3.375899 1_555
In5 Tb7 3.375899 1_555
In5 Tb1 3.461934 1_555
In5 Tb3 3.461934 1_555
In5 Tb16 3.478292 1_555
In6 Tb13 3.105145 1_655
In6 Tb14 3.105147 1_554
In6 Tb21 3.374921 1_655
In6 Tb5 3.375899 1_655
In6 Tb6 3.375908 1_654
In6 Tb1 3.461934 1_554
In6 Tb2 3.461940 1_555
In6 Tb19 3.478280 1_555
In7 Tb15 3.105145 1_565
In7 Tb12 3.105147 1_554
In7 Tb21 3.374921 1_565
In7 Tb7 3.375899 1_565
In7 Tb4 3.375908 1_564
In7 Tb3 3.461934 1_554
In7 Tb0 3.461940 1_555
In7 Tb18 3.478280 1_555
In8 Tb16 3.316361 1_555
In8 Tb13 3.356984 1_555
In8 Tb15 3.356984 1_555
In8 Tb10 3.356987 1_545
In8 Tb8 3.356987 1_455
In8 Tb20 3.447328 1_445
In8 Tb21 3.447328 1_555
In9 Tb17 3.316361 1_555
In9 Tb11 3.356984 1_555
In9 Tb9 3.356984 1_555
In9 Tb14 3.356987 1_565
In9 Tb12 3.356987 1_655
In9 Tb21 3.447328 1_666
In9 Tb20 3.447328 1_556
In10 In8 2.999958 1_565
In10 In9 2.999958 1_454
In10 In2 3.067329 1_555
In10 In7 3.067329 1_555
In10 Tb18 3.316353 1_555
In10 Tb10 3.356982 1_555
In10 Tb12 3.356982 1_554
In10 Tb9 3.356984 1_454
In10 Tb15 3.356984 1_565
In10 Tb21 3.447328 1_565
In10 Tb20 3.447328 1_455
In11 In8 2.999958 1_655
In11 In9 2.999958 1_544
In11 In6 3.067329 1_555
In11 In3 3.067329 1_555
In11 Tb19 3.316353 1_555
In11 Tb8 3.356982 1_555
In11 Tb14 3.356982 1_554
In11 Tb13 3.356984 1_655
In11 Tb11 3.356984 1_544
In11 Tb21 3.447328 1_655
In11 Tb20 3.447328 1_545
Ge0 Tb18 2.844387 1_556
Ge0 Tb16 2.844387 1_555
Ge0 Tb12 3.016639 1_555
Ge0 Tb8 3.016646 1_455
Ge0 Tb13 3.016650 1_555
Ge0 Tb9 3.016650 1_455
Ge0 Tb6 3.240634 1_555
Ge0 Tb3 3.240639 1_555
Ge1 Tb19 2.844387 1_555
Ge1 Tb17 2.844387 1_555
Ge1 Tb8 3.016639 1_555
Ge1 Tb12 3.016646 1_655
Ge1 Tb13 3.016650 1_655
Ge1 Tb9 3.016650 1_555
Ge1 Tb2 3.240634 1_555
Ge1 Tb7 3.240639 1_555
Ge2 Tb18 2.844387 1_555
Ge2 Tb17 2.844387 1_555
Ge2 Tb10 3.016639 1_555
Ge2 Tb14 3.016646 1_565
Ge2 Tb15 3.016650 1_565
Ge2 Tb11 3.016650 1_555
Ge2 Tb0 3.240634 1_555
Ge2 Tb5 3.240639 1_555
Ge3 Tb19 2.844387 1_556
Ge3 Tb16 2.844387 1_555
Ge3 Tb14 3.016639 1_555
Ge3 Tb10 3.016646 1_545
Ge3 Tb15 3.016650 1_555
Ge3 Tb11 3.016650 1_545
Ge3 Tb4 3.240634 1_555
Ge3 Tb1 3.240639 1_555
Ge4 Tb2 3.099704 1_555
Ge4 Tb0 3.099704 1_555
Ge4 Tb3 3.099713 1_554
Ge4 Tb1 3.099713 1_554
Ge4 Tb17 3.361212 1_555
Ge4 Tb16 3.361221 1_554
Ge4 Tb19 3.361223 1_555
Ge4 Tb18 3.361223 1_555
Ge4 Tb20 3.541264 1_555
Ge5 Tb4 3.099704 1_554
Ge5 Tb6 3.099704 1_554
Ge5 Tb5 3.099713 1_555
Ge5 Tb7 3.099713 1_555
Ge5 Tb16 3.361212 1_554
Ge5 Tb17 3.361221 1_555
Ge5 Tb18 3.361223 1_555
Ge5 Tb19 3.361223 1_555
Ge5 Tb21 3.541264 1_555
Ge6 Tb15 3.021944 1_555
Ge6 Tb9 3.021944 1_555
Ge6 Tb8 3.021947 1_555
Ge6 Tb14 3.021947 1_555
Ge6 Tb7 3.093956 1_555
Ge6 Tb1 3.093956 1_555
Ge6 Tb6 3.093964 1_655
Ge6 Tb0 3.093964 1_545
Ge7 Tb11 3.021944 1_555
Ge7 Tb13 3.021944 1_555
Ge7 Tb12 3.021947 1_555
Ge7 Tb10 3.021947 1_555
Ge7 Tb5 3.093956 1_555
Ge7 Tb3 3.093956 1_555
Ge7 Tb4 3.093964 1_565
Ge7 Tb2 3.093964 1_455
