# generated using pymatgen
data_Cs2MnF4
_symmetry_space_group_name_H-M   'P 1'
_cell_length_a   7.93403102
_cell_length_b   7.93403102
_cell_length_c   7.93403102
_cell_angle_alpha   148.30785348
_cell_angle_beta   148.30785348
_cell_angle_gamma   45.43111681
_symmetry_Int_Tables_number   1
_chemical_formula_structural   Cs2MnF4
_chemical_formula_sum   'Cs2 Mn1 F4'
_cell_volume   137.39578829
_cell_formula_units_Z   1
loop_
 _symmetry_equiv_pos_site_id
 _symmetry_equiv_pos_as_xyz
  1  'x, y, z'
loop_
 _atom_site_type_symbol
 _atom_site_label
 _atom_site_symmetry_multiplicity
 _atom_site_fract_x
 _atom_site_fract_y
 _atom_site_fract_z
 _atom_site_occupancy
  Cs  Cs0  1  0.35149991  0.35149991  0.00000000  1
  Cs  Cs1  1  0.64850009  0.64850009  -0.00000000  1
  Mn  Mn0  1  -0.00000000  -0.00000000  -0.00000000  1
  F  F0  1  0.14268041  0.14268041  0.00000000  1
  F  F1  1  0.85731959  0.85731959  -0.00000000  1
  F  F2  1  0.50000000  -0.00000000  0.50000000  1
  F  F3  1  -0.00000000  0.50000000  0.50000000  1
loop_
_geom_bond_atom_site_label_1
_geom_bond_atom_site_label_2
_geom_bond_distance
_geom_bond_site_symmetry_2
Cs0 F0 3.056539 1_555
Cs0 F1 3.064962 1_545
Cs0 F1 3.064962 1_455
Cs0 F1 3.064962 1_444
Cs0 F1 3.064962 1_556
Cs0 F3 3.068882 1_655
Cs0 F2 3.068882 1_554
Cs0 F3 3.068882 1_554
Cs0 F2 3.068882 1_565
Cs1 F1 3.056539 1_555
Cs1 F0 3.064962 1_565
Cs1 F0 3.064962 1_666
Cs1 F0 3.064962 1_554
Cs1 F0 3.064962 1_655
Cs1 F3 3.068882 1_554
Cs1 F2 3.068882 1_554
Cs1 F3 3.068882 1_655
Cs1 F2 3.068882 1_565
F0 Mn0 2.088446 1_555
F1 Mn0 2.088446 1_665
F2 Mn0 2.166418 1_555
F2 Mn0 2.166418 1_656
F3 Mn0 2.166418 1_555
F3 Mn0 2.166418 1_566
