# generated using pymatgen
data_Na3VP3NO9
_symmetry_space_group_name_H-M   'P 1'
_cell_length_a   9.57255100
_cell_length_b   9.57255100
_cell_length_c   9.57255100
_cell_angle_alpha   90.00000000
_cell_angle_beta   90.00000000
_cell_angle_gamma   90.00000000
_symmetry_Int_Tables_number   1
_chemical_formula_structural   Na3VP3NO9
_chemical_formula_sum   'Na12 V4 P12 N4 O36'
_cell_volume   877.16857909
_cell_formula_units_Z   4
loop_
 _symmetry_equiv_pos_site_id
 _symmetry_equiv_pos_as_xyz
  1  'x, y, z'
loop_
 _atom_site_type_symbol
 _atom_site_label
 _atom_site_symmetry_multiplicity
 _atom_site_fract_x
 _atom_site_fract_y
 _atom_site_fract_z
 _atom_site_occupancy
  Na  Na0  1  0.48763200  0.98763200  0.51236800  1
  Na  Na1  1  0.98763200  0.51236800  0.48763200  1
  Na  Na2  1  0.51236800  0.48763200  0.98763200  1
  Na  Na3  1  0.01236800  0.01236800  0.01236800  1
  Na  Na4  1  0.10744600  0.60744600  0.89255400  1
  Na  Na5  1  0.60744600  0.89255400  0.10744600  1
  Na  Na6  1  0.89255400  0.10744600  0.60744600  1
  Na  Na7  1  0.39255400  0.39255400  0.39255400  1
  Na  Na8  1  0.19876400  0.30123600  0.69876400  1
  Na  Na9  1  0.30123600  0.69876400  0.19876400  1
  Na  Na10  1  0.80123600  0.80123600  0.80123600  1
  Na  Na11  1  0.69876400  0.19876400  0.30123600  1
  V  V0  1  0.08028800  0.91971200  0.41971200  1
  V  V1  1  0.58028800  0.58028800  0.58028800  1
  V  V2  1  0.41971200  0.08028800  0.91971200  1
  V  V3  1  0.91971200  0.41971200  0.08028800  1
  P  P0  1  0.25511900  0.66784200  0.58499900  1
  P  P1  1  0.41500100  0.75511900  0.83215800  1
  P  P2  1  0.16784200  0.91500100  0.74488100  1
  P  P3  1  0.75511900  0.83215800  0.41500100  1
  P  P4  1  0.91500100  0.74488100  0.16784200  1
  P  P5  1  0.66784200  0.58499900  0.25511900  1
  P  P6  1  0.74488100  0.16784200  0.91500100  1
  P  P7  1  0.58499900  0.25511900  0.66784200  1
  P  P8  1  0.83215800  0.41500100  0.75511900  1
  P  P9  1  0.24488100  0.33215800  0.08499900  1
  P  P10  1  0.08499900  0.24488100  0.33215800  1
  P  P11  1  0.33215800  0.08499900  0.24488100  1
  N  N0  1  0.30291800  0.80291800  0.69708200  1
  N  N1  1  0.80291800  0.69708200  0.30291800  1
  N  N2  1  0.69708200  0.30291800  0.80291800  1
  N  N3  1  0.19708200  0.19708200  0.19708200  1
  O  O0  1  0.15083500  0.72833000  0.47766300  1
  O  O1  1  0.52233700  0.65083500  0.77167000  1
  O  O2  1  0.22833000  0.02233700  0.84916500  1
  O  O3  1  0.65083500  0.77167000  0.52233700  1
  O  O4  1  0.02233700  0.84916500  0.22833000  1
  O  O5  1  0.72833000  0.47766300  0.15083500  1
  O  O6  1  0.84916500  0.22833000  0.02233700  1
  O  O7  1  0.47766300  0.15083500  0.72833000  1
  O  O8  1  0.77167000  0.52233700  0.65083500  1
  O  O9  1  0.34916500  0.27167000  0.97766300  1
  O  O10  1  0.97766300  0.34916500  0.27167000  1
  O  O11  1  0.27167000  0.97766300  0.34916500  1
  O  O12  1  0.38851200  0.62714500  0.50505800  1
  O  O13  1  0.49494200  0.88851200  0.87285500  1
  O  O14  1  0.12714500  0.99494200  0.61148800  1
  O  O15  1  0.88851200  0.87285500  0.49494200  1
  O  O16  1  0.99494200  0.61148800  0.12714500  1
  O  O17  1  0.62714500  0.50505800  0.38851200  1
  O  O18  1  0.61148800  0.12714500  0.99494200  1
  O  O19  1  0.50505800  0.38851200  0.62714500  1
  O  O20  1  0.87285500  0.49494200  0.88851200  1
  O  O21  1  0.11148800  0.37285500  0.00505800  1
  O  O22  1  0.00505800  0.11148800  0.37285500  1
  O  O23  1  0.37285500  0.00505800  0.11148800  1
  O  O24  1  0.19076300  0.54979700  0.66784900  1
  O  O25  1  0.33215100  0.69076300  0.95020300  1
  O  O26  1  0.04979700  0.83215100  0.80923700  1
  O  O27  1  0.69076300  0.95020300  0.33215100  1
  O  O28  1  0.83215100  0.80923700  0.04979700  1
  O  O29  1  0.54979700  0.66784900  0.19076300  1
  O  O30  1  0.80923700  0.04979700  0.83215100  1
  O  O31  1  0.66784900  0.19076300  0.54979700  1
  O  O32  1  0.95020300  0.33215100  0.69076300  1
  O  O33  1  0.30923700  0.45020300  0.16784900  1
  O  O34  1  0.16784900  0.30923700  0.45020300  1
  O  O35  1  0.45020300  0.16784900  0.30923700  1
loop_
_geom_bond_atom_site_label_1
_geom_bond_atom_site_label_2
_geom_bond_distance
_geom_bond_site_symmetry_2
Na0 O3 2.592981 1_555
Na0 O11 2.592981 1_555
Na0 O7 2.592981 1_565
Na0 O35 2.624019 1_565
Na0 O27 2.624019 1_555
Na0 O31 2.624019 1_565
Na1 O10 2.592981 1_555
Na1 O8 2.592981 1_555
Na1 O0 2.592981 1_655
Na1 O34 2.624019 1_655
Na1 O32 2.624019 1_555
Na1 O24 2.624019 1_655
Na2 O1 2.592981 1_555
Na2 O9 2.592981 1_555
Na2 O5 2.592981 1_556
Na2 O33 2.624019 1_556
Na2 O29 2.624019 1_556
Na2 O25 2.624019 1_555
Na3 O2 2.592981 1_554
Na3 O4 2.592981 1_545
Na3 O6 2.592981 1_455
Na3 O30 2.624019 1_454
Na3 O28 2.624019 1_445
Na3 O26 2.624019 1_544
Na4 O26 2.359541 1_555
Na4 O24 2.359541 1_555
Na4 O25 2.359541 1_555
Na4 O20 2.490822 1_455
Na4 O21 2.490822 1_556
Na4 O16 2.490822 1_456
Na5 O28 2.359541 1_555
Na5 O29 2.359541 1_555
Na5 O27 2.359541 1_555
Na5 O13 2.490822 1_554
Na5 O23 2.490822 1_565
Na5 O18 2.490822 1_564
Na6 O30 2.359541 1_555
Na6 O31 2.359541 1_555
Na6 O32 2.359541 1_555
Na6 O15 2.490822 1_545
Na6 O22 2.490822 1_655
Na6 O14 2.490822 1_645
Na7 O34 2.359541 1_555
Na7 O33 2.359541 1_555
Na7 O35 2.359541 1_555
Na7 O19 2.490822 1_555
Na7 O12 2.490822 1_555
Na7 O17 2.490822 1_555
Na8 O24 2.398919 1_555
Na8 O32 2.398919 1_455
Na8 O34 2.398919 1_555
Na9 O25 2.398919 1_554
Na9 O33 2.398919 1_555
Na9 O29 2.398919 1_555
Na10 O30 2.398919 1_565
Na10 O28 2.398919 1_556
Na10 O26 2.398919 1_655
Na11 O35 2.398919 1_555
Na11 O31 2.398919 1_555
Na11 O27 2.398919 1_545
N0 P0 1.741385 1_555
N0 P1 1.741385 1_555
N0 P2 1.741385 1_555
N0 Na0 3.062585 1_555
N1 P5 1.741385 1_555
N1 P3 1.741385 1_555
N1 P4 1.741385 1_555
N1 Na1 3.062585 1_555
N2 P7 1.741385 1_555
N2 P8 1.741385 1_555
N2 P6 1.741385 1_555
N2 Na2 3.062585 1_555
N3 P10 1.741385 1_555
N3 P11 1.741385 1_555
N3 P9 1.741385 1_555
N3 Na3 3.062585 1_555
O0 P0 1.545158 1_555
O0 V0 2.029793 1_555
O1 P1 1.545158 1_555
O1 V1 2.029793 1_555
O2 P2 1.545158 1_545
O2 V2 2.029793 1_555
O3 P3 1.545158 1_555
O3 V1 2.029793 1_555
O4 P4 1.545158 1_455
O4 V0 2.029793 1_555
O5 P5 1.545158 1_555
O5 V3 2.029793 1_555
O6 P6 1.545158 1_554
O6 V3 2.029793 1_555
O7 P7 1.545158 1_555
O7 V2 2.029793 1_555
O8 P8 1.545158 1_555
O8 V1 2.029793 1_555
O9 P9 1.545158 1_556
O9 V2 2.029793 1_555
O10 P10 1.545158 1_655
O10 V3 2.029793 1_555
O11 P11 1.545158 1_565
O11 V0 2.029793 1_555
O12 P0 1.538786 1_555
O12 V1 2.022351 1_555
O13 P1 1.538786 1_555
O13 V2 2.022351 1_565
O14 P2 1.538786 1_555
O14 V0 2.022351 1_555
O15 P3 1.538786 1_555
O15 V0 2.022351 1_655
O16 P4 1.538786 1_555
O16 V3 2.022351 1_555
O17 P5 1.538786 1_555
O17 V1 2.022351 1_555
O18 P6 1.538786 1_555
O18 V2 2.022351 1_555
O19 P7 1.538786 1_555
O19 V1 2.022351 1_555
O20 P8 1.538786 1_555
O20 V3 2.022351 1_556
O21 P9 1.538786 1_555
O21 V3 2.022351 1_455
O22 P10 1.538786 1_555
O22 V0 2.022351 1_545
O23 P11 1.538786 1_555
O23 V2 2.022351 1_554
O24 P0 1.511749 1_555
O25 P1 1.511749 1_555
O26 P2 1.511749 1_555
O27 P3 1.511749 1_555
O28 P4 1.511749 1_555
O29 P5 1.511749 1_555
O30 P6 1.511749 1_555
O31 P7 1.511749 1_555
O32 P8 1.511749 1_555
O33 P9 1.511749 1_555
O34 P10 1.511749 1_555
O35 P11 1.511749 1_555
