# generated using pymatgen
data_Dy5Ir3
_symmetry_space_group_name_H-M   'P 1'
_cell_length_a   6.35420366
_cell_length_b   10.82569793
_cell_length_c   10.82576621
_cell_angle_alpha   90.00000000
_cell_angle_beta   90.00000000
_cell_angle_gamma   90.00000000
_symmetry_Int_Tables_number   1
_chemical_formula_structural   Dy5Ir3
_chemical_formula_sum   'Dy20 Ir12'
_cell_volume   744.69026943
_cell_formula_units_Z   4
loop_
 _symmetry_equiv_pos_site_id
 _symmetry_equiv_pos_as_xyz
  1  'x, y, z'
loop_
 _atom_site_type_symbol
 _atom_site_label
 _atom_site_symmetry_multiplicity
 _atom_site_fract_x
 _atom_site_fract_y
 _atom_site_fract_z
 _atom_site_occupancy
  Dy  Dy0  1  0.38347524  0.83822279  0.54175282  1
  Dy  Dy1  1  0.88347524  0.66177721  0.54175282  1
  Dy  Dy2  1  0.88347524  0.83822279  0.95824718  1
  Dy  Dy3  1  0.38347524  0.66177721  0.95824718  1
  Dy  Dy4  1  0.88347883  0.54180545  0.83824683  1
  Dy  Dy5  1  0.38347783  0.95819455  0.83824683  1
  Dy  Dy6  1  0.38347883  0.54180545  0.66175217  1
  Dy  Dy7  1  0.88347883  0.95819455  0.66175217  1
  Dy  Dy8  1  0.61652556  0.16175441  0.45818366  1
  Dy  Dy9  1  0.11652456  0.33824559  0.45818366  1
  Dy  Dy10  1  0.11652556  0.16175441  0.04181634  1
  Dy  Dy11  1  0.61652556  0.33824559  0.04181634  1
  Dy  Dy12  1  0.11652478  0.45823670  0.16178233  1
  Dy  Dy13  1  0.61652478  0.04176330  0.16178233  1
  Dy  Dy14  1  0.61652478  0.45823670  0.33821867  1
  Dy  Dy15  1  0.11652478  0.04176330  0.33821867  1
  Dy  Dy16  1  0.49998812  0.75000000  0.25000100  1
  Dy  Dy17  1  -0.00001188  0.75000000  0.25000100  1
  Dy  Dy18  1  0.00000105  0.25000000  0.74999900  1
  Dy  Dy19  1  0.50000105  0.25000000  0.74999900  1
  Ir  Ir0  1  0.25000013  0.90347772  0.09652100  1
  Ir  Ir1  1  0.75000013  0.59652228  0.09652100  1
  Ir  Ir2  1  0.75000013  0.90347772  0.40348000  1
  Ir  Ir3  1  0.25000013  0.59652228  0.40348000  1
  Ir  Ir4  1  0.75000200  0.09648115  0.90351893  1
  Ir  Ir5  1  0.25000200  0.40351885  0.90351893  1
  Ir  Ir6  1  0.25000200  0.09648115  0.59648007  1
  Ir  Ir7  1  0.75000200  0.40351885  0.59648007  1
  Ir  Ir8  1  0.12853272  0.75000000  0.74999900  1
  Ir  Ir9  1  0.62853272  0.75000000  0.74999900  1
  Ir  Ir10  1  0.87146400  0.25000000  0.25000100  1
  Ir  Ir11  1  0.37146400  0.25000000  0.25000100  1
loop_
_geom_bond_atom_site_label_1
_geom_bond_atom_site_label_2
_geom_bond_distance
_geom_bond_site_symmetry_2
Dy0 Ir2 2.857254 1_555
Dy0 Ir9 2.901602 1_555
Dy0 Ir8 2.935789 1_555
Dy0 Ir6 2.981101 1_565
Dy0 Ir3 3.131538 1_555
Dy0 Dy16 3.381716 1_555
Dy1 Ir3 2.857254 1_655
Dy1 Ir8 2.901602 1_655
Dy1 Ir9 2.935789 1_555
Dy1 Ir7 2.981101 1_555
Dy1 Ir2 3.131538 1_555
Dy1 Dy17 3.381716 1_655
Dy2 Ir0 2.857260 1_656
Dy2 Ir8 2.901619 1_655
Dy2 Ir9 2.935805 1_555
Dy2 Ir4 2.981103 1_565
Dy2 Ir1 3.131543 1_556
Dy3 Ir1 2.857260 1_556
Dy3 Ir9 2.901619 1_555
Dy3 Ir8 2.935805 1_555
Dy3 Ir5 2.981103 1_555
Dy3 Ir0 3.131543 1_556
Dy4 Ir5 2.857365 1_655
Dy4 Ir8 2.901236 1_655
Dy4 Ir9 2.935451 1_555
Dy4 Ir1 2.981265 1_556
Dy4 Ir7 3.132221 1_555
Dy5 Ir4 2.857370 1_565
Dy5 Ir9 2.901239 1_555
Dy5 Ir8 2.935448 1_555
Dy5 Ir0 2.981263 1_556
Dy5 Ir6 3.132219 1_565
Dy6 Ir7 2.857365 1_555
Dy6 Ir9 2.901232 1_555
Dy6 Ir8 2.935448 1_555
Dy6 Ir3 2.981245 1_555
Dy6 Ir5 3.132221 1_555
Dy7 Ir6 2.857365 1_665
Dy7 Ir8 2.901232 1_655
Dy7 Ir9 2.935448 1_555
Dy7 Ir2 2.981245 1_555
Dy7 Ir4 3.132221 1_565
Dy8 Ir6 2.857430 1_555
Dy8 Ir11 2.901163 1_555
Dy8 Ir10 2.935327 1_555
Dy8 Ir2 2.981239 1_545
Dy8 Ir7 3.132241 1_555
Dy9 Ir7 2.857425 1_455
Dy9 Ir10 2.901160 1_455
Dy9 Ir11 2.935330 1_555
Dy9 Ir3 2.981241 1_555
Dy9 Ir6 3.132243 1_555
Dy10 Ir4 2.857436 1_454
Dy10 Ir10 2.901180 1_455
Dy10 Ir11 2.935343 1_555
Dy10 Ir0 2.981241 1_545
Dy10 Ir5 3.132246 1_554
Dy10 Dy18 3.382464 1_554
Dy11 Ir5 2.857436 1_554
Dy11 Ir11 2.901180 1_555
Dy11 Ir10 2.935343 1_555
Dy11 Ir1 2.981241 1_555
Dy11 Ir4 3.132246 1_554
Dy11 Dy19 3.382464 1_554
Dy12 Ir1 2.857338 1_455
Dy12 Ir10 2.901510 1_455
Dy12 Ir11 2.935675 1_555
Dy12 Ir5 2.981155 1_554
Dy12 Ir3 3.131588 1_555
Dy12 Dy17 3.381836 1_555
Dy13 Ir0 2.857338 1_545
Dy13 Ir11 2.901510 1_555
Dy13 Ir10 2.935675 1_555
Dy13 Ir4 2.981155 1_554
Dy13 Ir2 3.131588 1_545
Dy13 Dy16 3.381836 1_545
Dy14 Ir3 2.857338 1_555
Dy14 Ir11 2.901506 1_555
Dy14 Ir10 2.935671 1_555
Dy14 Ir7 2.981135 1_555
Dy14 Ir1 3.131588 1_555
Dy14 Dy16 3.381832 1_555
Dy15 Ir2 2.857338 1_445
Dy15 Ir10 2.901506 1_455
Dy15 Ir11 2.935671 1_555
Dy15 Ir6 2.981135 1_555
Dy15 Ir0 3.131588 1_545
Dy15 Dy17 3.381832 1_545
Dy16 Ir3 2.836286 1_555
Dy16 Ir0 2.836293 1_555
Dy16 Ir2 2.836372 1_555
Dy16 Ir1 2.836378 1_555
Dy16 Dy17 3.177102 1_655
Dy16 Dy17 3.177102 1_555
Dy16 Dy3 3.381736 1_554
Dy17 Ir2 2.836286 1_455
Dy17 Ir1 2.836293 1_455
Dy17 Ir3 2.836372 1_555
Dy17 Ir0 2.836378 1_555
Dy17 Dy2 3.381736 1_454
Dy18 Ir7 2.836840 1_455
Dy18 Ir4 2.836846 1_455
Dy18 Ir6 2.836846 1_555
Dy18 Ir5 2.836853 1_555
Dy18 Dy19 3.177102 1_455
Dy18 Dy19 3.177102 1_555
Dy18 Dy7 3.382328 1_445
Dy18 Dy4 3.382331 1_455
Dy18 Dy9 3.382443 1_555
Dy19 Ir6 2.836840 1_555
Dy19 Ir5 2.836846 1_555
Dy19 Ir7 2.836846 1_555
Dy19 Ir4 2.836853 1_555
Dy19 Dy6 3.382328 1_555
Dy19 Dy5 3.382332 1_545
Dy19 Dy8 3.382444 1_555
Ir8 Ir9 3.177102 1_455
Ir8 Ir9 3.177102 1_555
Ir10 Ir11 3.177102 1_555
Ir10 Ir11 3.177102 1_655
