# generated using pymatgen
data_SrCaMg2
_symmetry_space_group_name_H-M   'P 1'
_cell_length_a   13.49035291
_cell_length_b   13.49035291
_cell_length_c   13.49035291
_cell_angle_alpha   122.08529127
_cell_angle_beta   113.97725853
_cell_angle_gamma   93.58015824
_symmetry_Int_Tables_number   1
_chemical_formula_structural   SrCaMg2
_chemical_formula_sum   'Sr1 Ca1 Mg2'
_cell_volume   1773.54553973
_cell_formula_units_Z   1
loop_
 _symmetry_equiv_pos_site_id
 _symmetry_equiv_pos_as_xyz
  1  'x, y, z'
loop_
 _atom_site_type_symbol
 _atom_site_label
 _atom_site_symmetry_multiplicity
 _atom_site_fract_x
 _atom_site_fract_y
 _atom_site_fract_z
 _atom_site_occupancy
  Sr  Sr0  1  0.50000000  0.00000000  0.50000000  1
  Ca  Ca0  1  -0.00000000  -0.00000000  -0.00000000  1
  Mg  Mg0  1  0.75605470  0.00000000  0.75605470  1
  Mg  Mg1  1  0.24394530  -0.00000000  0.24394530  1
loop_
_geom_bond_atom_site_label_1
_geom_bond_atom_site_label_2
_geom_bond_distance
_geom_bond_site_symmetry_2
Ca0 Mg1 3.585810 1_555
Ca0 Mg0 3.585810 1_454
Mg0 Sr0 3.763808 1_555
Mg1 Sr0 3.763808 1_555
