# generated using pymatgen
data_Li2Cr5(PO4)4
_symmetry_space_group_name_H-M   'P 1'
_cell_length_a   5.51195900
_cell_length_b   8.05584968
_cell_length_c   8.64209689
_cell_angle_alpha   63.34773544
_cell_angle_beta   84.45070538
_cell_angle_gamma   79.16137416
_symmetry_Int_Tables_number   1
_chemical_formula_structural   Li2Cr5(PO4)4
_chemical_formula_sum   'Li2 Cr5 P4 O16'
_cell_volume   336.81378510
_cell_formula_units_Z   1
loop_
 _symmetry_equiv_pos_site_id
 _symmetry_equiv_pos_as_xyz
  1  'x, y, z'
loop_
 _atom_site_type_symbol
 _atom_site_label
 _atom_site_symmetry_multiplicity
 _atom_site_fract_x
 _atom_site_fract_y
 _atom_site_fract_z
 _atom_site_occupancy
  Li  Li0  1  0.63011100  0.10442800  0.70982300  1
  Li  Li1  1  0.36988900  0.89557200  0.29017700  1
  Cr  Cr0  1  0.82431400  0.44264500  0.79358800  1
  Cr  Cr1  1  0.28980400  0.74623100  0.71009400  1
  Cr  Cr2  1  0.71019600  0.25376900  0.28990600  1
  Cr  Cr3  1  0.00000000  0.00000000  0.00000000  1
  Cr  Cr4  1  0.17568600  0.55735500  0.20641200  1
  P  P0  1  0.12552800  0.19937400  0.58809600  1
  P  P1  1  0.66943900  0.69419100  0.00736600  1
  P  P2  1  0.33056100  0.30580900  0.99263400  1
  P  P3  1  0.87447200  0.80062600  0.41190400  1
  O  O0  1  0.74424200  0.63533200  0.52748000  1
  O  O1  1  0.10292300  0.81908800  0.49119400  1
  O  O2  1  0.56603100  0.25353800  0.90085800  1
  O  O3  1  0.39632500  0.35730100  0.13700500  1
  O  O4  1  0.98184500  0.78152000  0.24268500  1
  O  O5  1  0.43396900  0.74646200  0.09914200  1
  O  O6  1  0.83260900  0.51602100  0.14376800  1
  O  O7  1  0.01815500  0.21848000  0.75731500  1
  O  O8  1  0.18925800  0.13693400  0.08712400  1
  O  O9  1  0.89707700  0.18091200  0.50880600  1
  O  O10  1  0.81074200  0.86306600  0.91287600  1
  O  O11  1  0.25575800  0.36466800  0.47252000  1
  O  O12  1  0.32303700  0.01681600  0.65493700  1
  O  O13  1  0.67696300  0.98318400  0.34506300  1
  O  O14  1  0.60367600  0.64269900  0.86299500  1
  O  O15  1  0.16739100  0.48397900  0.85623200  1
loop_
_geom_bond_atom_site_label_1
_geom_bond_atom_site_label_2
_geom_bond_distance
_geom_bond_site_symmetry_2
Li0 O10 2.097615 1_545
Li0 O9 2.109302 1_555
Li0 O12 2.119633 1_555
Li0 O2 2.408336 1_555
Li1 O8 2.097615 1_565
Li1 O1 2.109302 1_555
Li1 O13 2.119633 1_555
Li1 O5 2.408336 1_555
Cr0 O7 2.053861 1_655
Cr0 O14 2.103599 1_555
Cr0 O2 2.121406 1_555
Cr0 O15 2.139271 1_655
Cr0 O0 2.151532 1_555
Cr1 O1 2.034126 1_555
Cr1 O12 2.052649 1_565
Cr1 O14 2.084582 1_555
Cr1 O15 2.119241 1_555
Cr2 O9 2.034126 1_555
Cr2 O13 2.052649 1_545
Cr2 O3 2.084578 1_555
Cr2 O6 2.119241 1_555
Cr3 O8 2.049843 1_555
Cr3 O10 2.049843 1_444
Cr3 O4 2.054365 1_445
Cr3 O7 2.054365 1_554
Cr4 O4 2.053861 1_455
Cr4 O3 2.103602 1_555
Cr4 O5 2.121406 1_555
Cr4 O6 2.139271 1_455
Cr4 O11 2.151532 1_555
O0 P3 1.521058 1_555
O1 P3 1.551136 1_455
O2 P2 1.544643 1_555
O3 P2 1.571140 1_554
O4 P3 1.585206 1_555
O5 P1 1.544643 1_555
O6 P1 1.568506 1_555
O7 P0 1.585206 1_555
O8 P2 1.550175 1_554
O9 P0 1.551136 1_655
O10 P1 1.550175 1_556
O11 P0 1.521058 1_555
O12 P0 1.561743 1_555
O13 P3 1.561743 1_555
O14 P1 1.571138 1_556
O15 P2 1.568506 1_555
