# generated using pymatgen
data_K2LiTaI6
_symmetry_space_group_name_H-M   'P 1'
_cell_length_a   8.21613956
_cell_length_b   8.21613956
_cell_length_c   8.21613956
_cell_angle_alpha   60.00000000
_cell_angle_beta   60.00000000
_cell_angle_gamma   60.00000000
_symmetry_Int_Tables_number   1
_chemical_formula_structural   K2LiTaI6
_chemical_formula_sum   'K2 Li1 Ta1 I6'
_cell_volume   392.18269397
_cell_formula_units_Z   1
loop_
 _symmetry_equiv_pos_site_id
 _symmetry_equiv_pos_as_xyz
  1  'x, y, z'
loop_
 _atom_site_type_symbol
 _atom_site_label
 _atom_site_symmetry_multiplicity
 _atom_site_fract_x
 _atom_site_fract_y
 _atom_site_fract_z
 _atom_site_occupancy
  K  K0  1  0.25000000  0.25000000  0.25000000  1
  K  K1  1  0.75000000  0.75000000  0.75000000  1
  Li  Li0  1  0.50000000  0.50000000  0.50000000  1
  Ta  Ta0  1  0.00000000  0.00000000  0.00000000  1
  I  I0  1  0.24428800  0.24428800  0.75571200  1
  I  I1  1  0.24428800  0.75571200  0.75571200  1
  I  I2  1  0.75571200  0.75571200  0.24428800  1
  I  I3  1  0.24428800  0.75571200  0.24428800  1
  I  I4  1  0.75571200  0.24428800  0.75571200  1
  I  I5  1  0.75571200  0.24428800  0.24428800  1
loop_
_geom_bond_atom_site_label_1
_geom_bond_atom_site_label_2
_geom_bond_distance
_geom_bond_site_symmetry_2
I0 Ta0 2.838474 1_556
I0 Li0 2.971214 1_555
I0 K0 4.108606 1_555
I0 K1 4.108606 1_455
I0 K1 4.108606 1_545
I0 K0 4.108606 1_556
I1 Ta0 2.838474 1_566
I1 Li0 2.971214 1_555
I1 K1 4.108606 1_455
I1 K0 4.108606 1_556
I1 K0 4.108606 1_565
I1 K1 4.108606 1_555
I2 Ta0 2.838474 1_665
I2 Li0 2.971214 1_555
I2 K1 4.108606 1_554
I2 K0 4.108606 1_655
I2 K0 4.108606 1_565
I2 K1 4.108606 1_555
I3 Ta0 2.838474 1_565
I3 Li0 2.971214 1_555
I3 K0 4.108606 1_555
I3 K1 4.108606 1_455
I3 K1 4.108606 1_554
I3 K0 4.108606 1_565
I4 Ta0 2.838474 1_656
I4 Li0 2.971214 1_555
I4 K1 4.108606 1_545
I4 K0 4.108606 1_655
I4 K0 4.108606 1_556
I4 K1 4.108606 1_555
I5 Ta0 2.838474 1_655
I5 Li0 2.971214 1_555
I5 K0 4.108606 1_555
I5 K1 4.108606 1_554
I5 K1 4.108606 1_545
I5 K0 4.108606 1_655
