# generated using pymatgen
data_NaMo6O17
_symmetry_space_group_name_H-M   'P 1'
_cell_length_a   5.52268368
_cell_length_b   9.53740243
_cell_length_c   13.12605650
_cell_angle_alpha   89.28191417
_cell_angle_beta   90.00000000
_cell_angle_gamma   90.00000000
_symmetry_Int_Tables_number   1
_chemical_formula_structural   NaMo6O17
_chemical_formula_sum   'Na2 Mo12 O34'
_cell_volume   691.32209441
_cell_formula_units_Z   2
loop_
 _symmetry_equiv_pos_site_id
 _symmetry_equiv_pos_as_xyz
  1  'x, y, z'
loop_
 _atom_site_type_symbol
 _atom_site_label
 _atom_site_symmetry_multiplicity
 _atom_site_fract_x
 _atom_site_fract_y
 _atom_site_fract_z
 _atom_site_occupancy
  Na  Na0  1  0.25000000  0.92614842  0.09994910  1
  Na  Na1  1  0.75000000  0.07385158  0.90005090  1
  Mo  Mo0  1  0.25000000  0.30490773  0.99571732  1
  Mo  Mo1  1  0.75000000  0.69509227  0.00428268  1
  Mo  Mo2  1  0.25000000  0.57558991  0.66173410  1
  Mo  Mo3  1  0.75000000  0.42441009  0.33826590  1
  Mo  Mo4  1  0.25000000  0.26538062  0.49219589  1
  Mo  Mo5  1  0.75000000  0.73461938  0.50780411  1
  Mo  Mo6  1  0.25000000  0.92040432  0.79961203  1
  Mo  Mo7  1  0.75000000  0.07959568  0.20038797  1
  Mo  Mo8  1  0.25000000  0.91462989  0.36022345  1
  Mo  Mo9  1  0.75000000  0.08537011  0.63977655  1
  Mo  Mo10  1  0.25000000  0.59806067  0.18442471  1
  Mo  Mo11  1  0.75000000  0.40193933  0.81557529  1
  O  O0  1  0.25000000  0.46956820  0.05830666  1
  O  O1  1  0.75000000  0.53043180  0.94169334  1
  O  O2  1  0.25000000  0.41720176  0.58150592  1
  O  O3  1  0.75000000  0.58279824  0.41849408  1
  O  O4  1  0.25000000  0.75126967  0.25916973  1
  O  O5  1  0.75000000  0.24873033  0.74083027  1
  O  O6  1  0.25000000  0.94196342  0.92955075  1
  O  O7  1  0.75000000  0.05803658  0.07044925  1
  O  O8  1  0.49153881  0.99080236  0.24853389  1
  O  O9  1  0.50846119  0.00919764  0.75146611  1
  O  O10  1  0.99153881  0.00919764  0.75146611  1
  O  O11  1  0.00846119  0.99080236  0.24853389  1
  O  O12  1  0.49039426  0.71257137  0.08367795  1
  O  O13  1  0.50960574  0.28742863  0.91632205  1
  O  O14  1  0.99039426  0.28742863  0.91632205  1
  O  O15  1  0.00960574  0.71257137  0.08367795  1
  O  O16  1  0.25000000  0.08504317  0.41405792  1
  O  O17  1  0.75000000  0.91495683  0.58594208  1
  O  O18  1  0.50041025  0.34262965  0.41209549  1
  O  O19  1  0.49958975  0.65737035  0.58790451  1
  O  O20  1  0.00041025  0.65737035  0.58790451  1
  O  O21  1  0.99958975  0.34262965  0.41209549  1
  O  O22  1  0.49538855  0.83309685  0.42628635  1
  O  O23  1  0.50461145  0.16690315  0.57371365  1
  O  O24  1  0.99538855  0.16690315  0.57371365  1
  O  O25  1  0.00461145  0.83309685  0.42628635  1
  O  O26  1  0.25000000  0.17433641  0.08634330  1
  O  O27  1  0.75000000  0.82566359  0.91365670  1
  O  O28  1  0.49602945  0.50939271  0.24317053  1
  O  O29  1  0.50397055  0.49060729  0.75682947  1
  O  O30  1  0.99602945  0.49060729  0.75682947  1
  O  O31  1  0.00397055  0.50939271  0.24317053  1
  O  O32  1  0.25000000  0.74161649  0.76239167  1
  O  O33  1  0.75000000  0.25838351  0.23760833  1
loop_
_geom_bond_atom_site_label_1
_geom_bond_atom_site_label_2
_geom_bond_distance
_geom_bond_site_symmetry_2
Na0 O6 2.239852 1_554
Na0 O26 2.371563 1_565
Na0 O15 2.443020 1_555
Na0 O12 2.443020 1_555
Na0 O8 2.448178 1_555
Na0 O11 2.448178 1_555
Na0 O4 2.657504 1_555
Na1 O7 2.239852 1_556
Na1 O27 2.371563 1_545
Na1 O14 2.443020 1_555
Na1 O13 2.443020 1_555
Na1 O10 2.448178 1_555
Na1 O9 2.448178 1_555
Na1 O5 2.657504 1_555
Mo0 O26 1.711352 1_556
Mo0 O0 1.781445 1_556
Mo0 O13 1.781508 1_555
Mo0 O14 1.781508 1_455
Mo1 O27 1.711352 1_554
Mo1 O1 1.781445 1_554
Mo1 O12 1.781508 1_555
Mo1 O15 1.781508 1_655
Mo2 O20 1.851635 1_555
Mo2 O19 1.851635 1_555
Mo2 O2 1.852241 1_555
Mo2 O29 2.038855 1_555
Mo2 O30 2.038855 1_455
Mo2 O32 2.074960 1_555
Mo3 O18 1.851635 1_555
Mo3 O21 1.851635 1_555
Mo3 O3 1.852241 1_555
Mo3 O28 2.038855 1_555
Mo3 O31 2.038855 1_655
Mo3 O33 2.074960 1_555
Mo4 O2 1.874420 1_555
Mo4 O21 1.881848 1_455
Mo4 O18 1.881848 1_555
Mo4 O23 1.994764 1_555
Mo4 O24 1.994764 1_455
Mo4 O16 2.013552 1_555
Mo5 O3 1.874420 1_555
Mo5 O19 1.881848 1_555
Mo5 O20 1.881848 1_655
Mo5 O22 1.994764 1_555
Mo5 O25 1.994764 1_655
Mo5 O17 2.013552 1_555
Mo6 O6 1.720489 1_555
Mo6 O10 1.772175 1_465
Mo6 O9 1.772175 1_565
Mo6 O32 1.779657 1_555
Mo7 O7 1.720489 1_555
Mo7 O8 1.772175 1_545
Mo7 O11 1.772175 1_645
Mo7 O33 1.779657 1_555
Mo8 O16 1.780371 1_565
Mo8 O22 1.782217 1_555
Mo8 O25 1.782217 1_555
Mo8 O4 2.058810 1_555
Mo8 O11 2.104703 1_555
Mo8 O8 2.104703 1_555
Mo9 O17 1.780371 1_545
Mo9 O24 1.782217 1_555
Mo9 O23 1.782217 1_555
Mo9 O5 2.058810 1_555
Mo9 O9 2.104703 1_555
Mo9 O10 2.104703 1_555
Mo10 O4 1.770214 1_555
Mo10 O28 1.771885 1_555
Mo10 O31 1.771885 1_555
Mo10 O0 2.071984 1_555
Mo10 O15 2.160532 1_555
Mo10 O12 2.160532 1_555
Mo11 O5 1.770214 1_555
Mo11 O29 1.771885 1_555
Mo11 O30 1.771885 1_555
Mo11 O1 2.071984 1_555
Mo11 O14 2.160532 1_555
Mo11 O13 2.160532 1_555
