# generated using pymatgen
data_Nd6Ni2Sn
_symmetry_space_group_name_H-M   'P 1'
_cell_length_a   8.75320336
_cell_length_b   8.75320336
_cell_length_c   8.75320336
_cell_angle_alpha   113.42793102
_cell_angle_beta   108.51903543
_cell_angle_gamma   106.54600106
_symmetry_Int_Tables_number   1
_chemical_formula_structural   Nd6Ni2Sn
_chemical_formula_sum   'Nd12 Ni4 Sn2'
_cell_volume   514.27069689
_cell_formula_units_Z   2
loop_
 _symmetry_equiv_pos_site_id
 _symmetry_equiv_pos_as_xyz
  1  'x, y, z'
loop_
 _atom_site_type_symbol
 _atom_site_label
 _atom_site_symmetry_multiplicity
 _atom_site_fract_x
 _atom_site_fract_y
 _atom_site_fract_z
 _atom_site_occupancy
  Nd  Nd0  1  0.43569800  0.23271600  0.20298200  1
  Nd  Nd1  1  0.56430200  0.76728400  0.79701800  1
  Nd  Nd2  1  0.02973400  0.23271600  0.79701800  1
  Nd  Nd3  1  0.97026600  0.76728400  0.20298200  1
  Nd  Nd4  1  0.18406500  0.28823700  0.47230300  1
  Nd  Nd5  1  0.81593500  0.71176300  0.52769700  1
  Nd  Nd6  1  0.18406500  0.71176300  0.89582800  1
  Nd  Nd7  1  0.81593500  0.28823700  0.10417200  1
  Nd  Nd8  1  0.32161800  0.62929200  0.30767400  1
  Nd  Nd9  1  0.67838200  0.37070800  0.69232600  1
  Nd  Nd10  1  0.32161800  0.01394400  0.69232600  1
  Nd  Nd11  1  0.67838200  0.98605600  0.30767400  1
  Ni  Ni0  1  0.36517400  0.00000000  0.36517400  1
  Ni  Ni1  1  0.63482600  0.00000000  0.63482600  1
  Ni  Ni2  1  0.11642100  0.61642100  0.50000000  1
  Ni  Ni3  1  0.88357900  0.38357900  0.50000000  1
  Sn  Sn0  1  0.50000000  0.50000000  0.00000000  1
  Sn  Sn1  1  0.00000000  0.00000000  0.00000000  1
loop_
_geom_bond_atom_site_label_1
_geom_bond_atom_site_label_2
_geom_bond_distance
_geom_bond_site_symmetry_2
Nd0 Ni0 2.947233 1_555
Nd0 Sn1 3.200584 1_555
Nd0 Ni3 3.423329 1_555
Nd0 Sn0 3.483966 1_555
Nd0 Nd11 3.600395 1_545
Nd0 Nd9 3.600395 1_555
Nd0 Nd5 3.647377 1_555
Nd0 Nd7 3.647378 1_555
Nd0 Nd6 3.693521 1_544
Nd0 Nd4 3.693527 1_555
Nd0 Nd10 3.730007 1_554
Nd0 Nd8 3.730007 1_555
Nd1 Ni1 2.947233 1_565
Nd1 Sn1 3.200584 1_666
Nd1 Ni2 3.423329 1_555
Nd1 Sn0 3.483966 1_556
Nd1 Nd8 3.600395 1_555
Nd1 Nd10 3.600395 1_565
Nd1 Nd4 3.647377 1_555
Nd1 Nd6 3.647378 1_555
Nd1 Nd7 3.693521 1_566
Nd1 Nd5 3.693527 1_555
Nd1 Nd9 3.730007 1_555
Nd1 Nd11 3.730007 1_556
Nd2 Ni1 2.947233 1_455
Nd2 Sn1 3.200584 1_556
Nd2 Ni3 3.423329 1_455
Nd2 Sn0 3.483966 1_556
Nd2 Nd9 3.600395 1_455
Nd2 Nd4 3.647369 1_555
Nd2 Nd6 3.647378 1_555
Nd2 Nd5 3.693520 1_445
Nd2 Nd7 3.693521 1_456
Nd2 Nd8 3.730007 1_556
Nd3 Ni0 2.947233 1_665
Nd3 Sn1 3.200584 1_665
Nd3 Ni2 3.423329 1_655
Nd3 Sn0 3.483966 1_555
Nd3 Nd8 3.600395 1_655
Nd3 Nd5 3.647369 1_555
Nd3 Nd7 3.647378 1_555
Nd3 Nd4 3.693520 1_665
Nd3 Nd6 3.693521 1_654
Nd3 Nd9 3.730007 1_554
Nd4 Ni3 3.027819 1_455
Nd4 Ni2 3.027823 1_555
Nd4 Ni0 3.331524 1_555
Nd4 Sn1 3.348427 1_555
Nd4 Nd7 3.764411 1_455
Nd4 Sn0 3.817950 1_556
Nd4 Nd9 3.843671 1_555
Nd4 Nd8 3.861888 1_555
Nd4 Nd6 4.069169 1_555
Nd5 Ni2 3.027819 1_655
Nd5 Ni3 3.027823 1_555
Nd5 Ni1 3.331524 1_565
Nd5 Sn1 3.348427 1_666
Nd5 Nd6 3.764411 1_655
Nd5 Sn0 3.817950 1_555
Nd5 Nd8 3.843671 1_555
Nd5 Nd9 3.861888 1_555
Nd5 Nd7 4.069169 1_555
Nd6 Ni3 3.027821 1_455
Nd6 Ni2 3.027821 1_555
Nd6 Ni0 3.331523 1_566
Nd6 Sn1 3.348421 1_566
Nd6 Sn0 3.817957 1_556
Nd6 Nd8 3.843672 1_556
Nd6 Nd9 3.861881 1_455
Nd7 Ni3 3.027821 1_555
Nd7 Ni2 3.027821 1_655
Nd7 Ni1 3.331523 1_554
Nd7 Sn1 3.348421 1_655
Nd7 Sn0 3.817957 1_555
Nd7 Nd9 3.843672 1_554
Nd7 Nd8 3.861881 1_655
Nd8 Ni2 2.833585 1_555
Nd8 Ni0 2.966938 1_565
Nd8 Ni1 2.966938 1_565
Nd8 Sn0 3.496548 1_555
Nd9 Ni3 2.833585 1_555
Nd9 Ni0 2.966938 1_555
Nd9 Ni1 2.966938 1_555
Nd9 Sn0 3.496548 1_556
Nd10 Ni2 2.833585 1_545
Nd10 Ni0 2.966938 1_555
Nd10 Ni1 2.966938 1_555
Nd10 Sn0 3.496548 1_556
Nd10 Nd3 3.600395 1_445
Nd10 Nd2 3.730007 1_555
Nd10 Nd4 3.843666 1_555
Nd10 Nd7 3.843672 1_556
Nd10 Nd5 3.861879 1_445
Nd10 Nd6 3.861881 1_545
Nd11 Ni3 2.833585 1_565
Nd11 Ni0 2.966938 1_565
Nd11 Ni1 2.966938 1_565
Nd11 Sn0 3.496548 1_555
Nd11 Nd2 3.600395 1_665
Nd11 Nd3 3.730007 1_555
Nd11 Nd5 3.843666 1_555
Nd11 Nd6 3.843672 1_554
Nd11 Nd4 3.861879 1_665
Nd11 Nd7 3.861881 1_565
Ni0 Ni1 2.757394 1_555
Ni2 Ni3 2.437595 1_455
