# generated using pymatgen
data_Y12(ReC3)5
_symmetry_space_group_name_H-M   'P 1'
_cell_length_a   5.11715300
_cell_length_b   10.77013877
_cell_length_c   10.77013877
_cell_angle_alpha   120.00000473
_cell_angle_beta   90.00000000
_cell_angle_gamma   90.00000000
_symmetry_Int_Tables_number   1
_chemical_formula_structural   Y12(ReC3)5
_chemical_formula_sum   'Y12 Re5 C15'
_cell_volume   514.04555904
_cell_formula_units_Z   1
loop_
 _symmetry_equiv_pos_site_id
 _symmetry_equiv_pos_as_xyz
  1  'x, y, z'
loop_
 _atom_site_type_symbol
 _atom_site_label
 _atom_site_symmetry_multiplicity
 _atom_site_fract_x
 _atom_site_fract_y
 _atom_site_fract_z
 _atom_site_occupancy
  Y  Y0  1  0.50000000  0.20596600  0.20596600  1
  Y  Y1  1  0.50000000  0.00000000  0.79403400  1
  Y  Y2  1  0.50000000  0.79403400  0.00000000  1
  Y  Y3  1  0.00000000  0.72917700  0.18540700  1
  Y  Y4  1  0.00000000  0.45623000  0.27082300  1
  Y  Y5  1  0.00000000  0.54377000  0.81459300  1
  Y  Y6  1  0.00000000  0.81459300  0.54377000  1
  Y  Y7  1  0.00000000  0.18540700  0.72917700  1
  Y  Y8  1  0.00000000  0.27082300  0.45623000  1
  Y  Y9  1  0.50000000  0.57560600  0.57560600  1
  Y  Y10  1  0.50000000  0.00000000  0.42439400  1
  Y  Y11  1  0.50000000  0.42439400  0.00000000  1
  Re  Re0  1  0.00000000  0.84750000  0.84750000  1
  Re  Re1  1  0.00000000  0.00000000  0.15250000  1
  Re  Re2  1  0.00000000  0.15250000  0.00000000  1
  Re  Re3  1  0.50000000  0.66666700  0.33333300  1
  Re  Re4  1  0.50000000  0.33333300  0.66666700  1
  C  C0  1  0.00000000  0.66722600  0.66722600  1
  C  C1  1  0.00000000  0.00000000  0.33277400  1
  C  C2  1  0.00000000  0.33277400  0.00000000  1
  C  C3  1  0.00000000  0.21422600  0.21422600  1
  C  C4  1  0.00000000  0.00000000  0.78577400  1
  C  C5  1  0.00000000  0.78577400  0.00000000  1
  C  C6  1  0.00000000  0.54130700  0.54130700  1
  C  C7  1  0.00000000  0.00000000  0.45869300  1
  C  C8  1  0.00000000  0.45869300  0.00000000  1
  C  C9  1  0.50000000  0.71804900  0.18731000  1
  C  C10  1  0.50000000  0.46926100  0.28195100  1
  C  C11  1  0.50000000  0.53073900  0.81269000  1
  C  C12  1  0.50000000  0.81269000  0.53073900  1
  C  C13  1  0.50000000  0.18731000  0.71804900  1
  C  C14  1  0.50000000  0.28195100  0.46926100  1
loop_
_geom_bond_atom_site_label_1
_geom_bond_atom_site_label_2
_geom_bond_distance
_geom_bond_site_symmetry_2
C0 C6 1.356165 1_555
C0 Re0 1.941576 1_555
C0 Y6 2.529304 1_555
C0 Y5 2.529304 1_555
C0 Y9 2.742263 1_555
C0 Y9 2.742263 1_455
C1 C7 1.356165 1_555
C1 Re1 1.941576 1_555
C1 Y3 2.529304 1_545
C1 Y8 2.529304 1_555
C1 Y10 2.742264 1_555
C1 Y10 2.742264 1_455
C2 C8 1.356165 1_555
C2 Re2 1.941576 1_555
C2 Y7 2.529304 1_554
C2 Y4 2.529304 1_555
C2 Y11 2.742264 1_455
C2 Y11 2.742264 1_555
C3 Re1 2.057056 1_555
C3 Re2 2.057056 1_555
C3 Y4 2.361399 1_555
C3 Y8 2.361399 1_555
C3 Y0 2.560123 1_455
C3 Y0 2.560123 1_555
C4 Re2 2.057056 1_556
C4 Re0 2.057056 1_545
C4 Y6 2.361399 1_545
C4 Y7 2.361399 1_555
C4 Y1 2.560123 1_555
C4 Y1 2.560123 1_455
C5 Re1 2.057056 1_565
C5 Re0 2.057056 1_554
C5 Y5 2.361399 1_554
C5 Y3 2.361399 1_555
C5 Y2 2.560123 1_455
C5 Y2 2.560123 1_555
C6 Y4 2.580066 1_555
C6 Y8 2.580066 1_555
C6 Y9 2.585106 1_555
C6 Y9 2.585106 1_455
C7 Y7 2.580066 1_555
C7 Y6 2.580066 1_545
C7 Y10 2.585106 1_555
C7 Y10 2.585106 1_455
C8 Y3 2.580066 1_555
C8 Y5 2.580066 1_554
C8 Y11 2.585106 1_455
C8 Y11 2.585106 1_555
C9 Re3 1.910471 1_555
C9 Y2 2.527922 1_555
C9 Y3 2.561943 1_555
C9 Y3 2.561943 1_655
C9 Y11 2.773468 1_555
C9 Y10 2.826194 1_565
C10 Re3 1.910482 1_555
C10 Y0 2.527922 1_555
C10 Y4 2.561943 1_555
C10 Y4 2.561943 1_655
C10 Y9 2.773468 1_555
C10 Y11 2.826194 1_555
C11 Re4 1.910479 1_555
C11 Y2 2.527922 1_556
C11 Y5 2.561943 1_655
C11 Y5 2.561943 1_555
C11 Y11 2.773468 1_556
C11 Y9 2.826194 1_555
C12 Re3 1.910479 1_555
C12 Y1 2.527922 1_565
C12 Y6 2.561943 1_555
C12 Y6 2.561943 1_655
C12 Y10 2.773468 1_565
C12 Y9 2.826194 1_555
C13 Re4 1.910471 1_555
C13 Y1 2.527922 1_555
C13 Y7 2.561943 1_655
C13 Y7 2.561943 1_555
C13 Y10 2.773468 1_555
C13 Y11 2.826194 1_556
C14 Re4 1.910482 1_555
C14 Y0 2.527922 1_555
C14 Y8 2.561943 1_655
C14 Y8 2.561943 1_555
C14 Y9 2.773468 1_555
C14 Y10 2.826194 1_555
