# generated using pymatgen
data_Si3N4
_symmetry_space_group_name_H-M   'P 1'
_cell_length_a   10.37125811
_cell_length_b   11.09950620
_cell_length_c   10.74710478
_cell_angle_alpha   94.49882203
_cell_angle_beta   87.67125090
_cell_angle_gamma   88.01084053
_symmetry_Int_Tables_number   1
_chemical_formula_structural   Si3N4
_chemical_formula_sum   'Si45 N60'
_cell_volume   1231.43945734
_cell_formula_units_Z   15
loop_
 _symmetry_equiv_pos_site_id
 _symmetry_equiv_pos_as_xyz
  1  'x, y, z'
loop_
 _atom_site_type_symbol
 _atom_site_label
 _atom_site_symmetry_multiplicity
 _atom_site_fract_x
 _atom_site_fract_y
 _atom_site_fract_z
 _atom_site_occupancy
  Si  Si0  1  0.04032600  0.51828000  0.51398800  1
  Si  Si1  1  0.72469900  0.66372400  0.39393400  1
  Si  Si2  1  0.57842000  0.06148500  0.56436500  1
  Si  Si3  1  0.12688000  0.34405900  0.28735700  1
  Si  Si4  1  0.40613200  0.27725800  0.27323100  1
  Si  Si5  1  0.56754700  0.41058400  0.87566200  1
  Si  Si6  1  0.77610200  0.93452200  0.96080100  1
  Si  Si7  1  0.90804800  0.75260700  0.60768500  1
  Si  Si8  1  0.09477100  0.63116100  0.83003700  1
  Si  Si9  1  0.14898200  0.69853600  0.08745900  1
  Si  Si10  1  0.39335500  0.86503500  0.47538800  1
  Si  Si11  1  0.39343100  0.79378800  0.15765500  1
  Si  Si12  1  0.70803600  0.09580200  0.10230400  1
  Si  Si13  1  0.53727500  0.30153800  0.04984900  1
  Si  Si14  1  0.55659200  0.43123000  0.64975800  1
  Si  Si15  1  0.54767400  0.84548300  0.81240800  1
  Si  Si16  1  0.86704200  0.34988000  0.47123500  1
  Si  Si17  1  0.43917200  0.03125700  0.03209600  1
  Si  Si18  1  0.40454300  0.04330600  0.28911300  1
  Si  Si19  1  0.02413100  0.84832500  0.87094700  1
  Si  Si20  1  0.88136900  0.02202300  0.49003200  1
  Si  Si21  1  0.04455700  0.45906000  0.02352600  1
  Si  Si22  1  0.16192400  0.07562000  0.18476900  1
  Si  Si23  1  0.16340900  0.12978900  0.42221300  1
  Si  Si24  1  0.41322400  0.62045800  0.84328400  1
  Si  Si25  1  0.32309200  0.54349300  0.64174200  1
  Si  Si26  1  0.97218900  0.74290300  0.34483400  1
  Si  Si27  1  0.10235100  0.91695900  0.53123300  1
  Si  Si28  1  0.65109100  0.23651100  0.47847200  1
  Si  Si29  1  0.88529600  0.49419600  0.76319400  1
  Si  Si30  1  0.18958300  0.84424800  0.33879300  1
  Si  Si31  1  0.66176600  0.63693800  0.91183900  1
  Si  Si32  1  0.97559300  0.11356800  0.98269300  1
  Si  Si33  1  0.66438000  0.93703300  0.35268300  1
  Si  Si34  1  0.28162000  0.35389000  0.50269500  1
  Si  Si35  1  0.75756100  0.73076600  0.17072100  1
  Si  Si36  1  0.18513000  0.92642500  0.99880000  1
  Si  Si37  1  0.88774700  0.94655600  0.19867700  1
  Si  Si38  1  0.88805500  0.32945900  0.16224600  1
  Si  Si39  1  0.57872300  0.72069700  0.62060300  1
  Si  Si40  1  0.49033700  0.67393100  0.32800400  1
  Si  Si41  1  0.35642300  0.50507600  0.08758900  1
  Si  Si42  1  0.61338000  0.05457200  0.80019800  1
  Si  Si43  1  0.64921000  0.40749400  0.29852400  1
  Si  Si44  1  0.72232700  0.47695900  0.03834300  1
  N  N0  1  0.99555100  0.66783100  0.48288300  1
  N  N1  1  0.71593400  0.97839100  0.49914800  1
  N  N2  1  0.81005800  0.37030900  0.31257300  1
  N  N3  1  0.63860800  0.77930300  0.29848900  1
  N  N4  1  0.64540200  0.38673200  0.13530200  1
  N  N5  1  0.92352300  0.97404100  0.90167100  1
  N  N6  1  0.51858800  0.72597900  0.90563800  1
  N  N7  1  0.68033400  0.38049700  0.54910000  1
  N  N8  1  0.00255400  0.73453000  0.74439400  1
  N  N9  1  0.60886500  0.55799400  0.35116800  1
  N  N10  1  0.82217900  0.19093400  0.48059000  1
  N  N11  1  0.39446700  0.35452900  0.12701900  1
  N  N12  1  0.28257800  0.37487000  0.34041000  1
  N  N13  1  0.47271800  0.98080900  0.87771400  1
  N  N14  1  0.49228500  0.98708100  0.41762200  1
  N  N15  1  0.40161900  0.40295400  0.60283200  1
  N  N16  1  0.42719100  0.50154200  0.93389200  1
  N  N17  1  0.19819900  0.50285300  0.55410000  1
  N  N18  1  0.49360600  0.59105800  0.68427400  1
  N  N19  1  0.23750000  0.00083100  0.30781900  1
  N  N20  1  0.05247500  0.72453200  0.96557000  1
  N  N21  1  0.90066000  0.89458700  0.34389400  1
  N  N22  1  0.91973600  0.45995100  0.60841000  1
  N  N23  1  0.82229200  0.84073400  0.08726800  1
  N  N24  1  0.84318400  0.18717500  0.08593200  1
  N  N25  1  0.87907500  0.43972300  0.05053300  1
  N  N26  1  0.03825900  0.99270100  0.12262700  1
  N  N27  1  0.48413500  0.73543200  0.49330200  1
  N  N28  1  0.46581500  0.93735400  0.15558700  1
  N  N29  1  0.18874100  0.54473800  0.06214700  1
  N  N30  1  0.05124400  0.22592800  0.71639300  1
  N  N31  1  0.54864500  0.14879200  0.07176000  1
  N  N32  1  0.27203600  0.20325800  0.50431200  1
  N  N33  1  0.94306900  0.90051400  0.59032700  1
  N  N34  1  0.81102400  0.33758600  0.80303800  1
  N  N35  1  0.05935000  0.36017500  0.14448100  1
  N  N36  1  0.27686000  0.05258600  0.73285900  1
  N  N37  1  0.55410300  0.29159800  0.34794600  1
  N  N38  1  0.12336300  0.29668400  0.70440600  1
  N  N39  1  0.70109100  0.89583900  0.82269400  1
  N  N40  1  0.73283300  0.02988200  0.24208900  1
  N  N41  1  0.42429400  0.63292200  0.17370600  1
  N  N42  1  0.10432300  0.74502500  0.24033300  1
  N  N43  1  0.26038400  0.89260700  0.56249500  1
  N  N44  1  0.85104100  0.65822200  0.27884500  1
  N  N45  1  0.35457300  0.79564000  0.32395300  1
  N  N46  1  0.17857500  0.04115400  0.77596700  1
  N  N47  1  0.37653300  0.24573400  0.82290600  1
  N  N48  1  0.26860400  0.05721100  0.05231300  1
  N  N49  1  0.26200200  0.62588900  0.78009300  1
  N  N50  1  0.26799300  0.80210200  0.05933300  1
  N  N51  1  0.02442600  0.49464600  0.85761600  1
  N  N52  1  0.82452400  0.23695600  0.81461800  1
  N  N53  1  0.28961600  0.27465000  0.88456500  1
  N  N54  1  0.02666100  0.39378700  0.41202200  1
  N  N55  1  0.76563100  0.59865400  0.79537300  1
  N  N56  1  0.74180800  0.70587500  0.55484500  1
  N  N57  1  0.11298800  0.19141100  0.28630500  1
  N  N58  1  0.69595700  0.63109000  0.06373700  1
  N  N59  1  0.04693700  0.06082100  0.49764200  1
loop_
_geom_bond_atom_site_label_1
_geom_bond_atom_site_label_2
_geom_bond_distance
_geom_bond_site_symmetry_2
N0 Si0 1.768885 1_655
N0 Si7 1.775331 1_555
N0 Si26 1.778572 1_555
N1 Si33 1.716509 1_555
N1 Si2 1.761238 1_565
N1 Si20 1.799853 1_565
N2 Si43 1.720021 1_555
N2 Si38 1.795400 1_555
N2 Si16 1.855128 1_555
N3 Si33 1.833270 1_555
N3 Si35 1.843334 1_555
N3 Si1 1.922629 1_555
N3 Si40 1.994151 1_555
N4 Si44 1.696141 1_555
N4 Si13 1.736729 1_555
N4 Si43 1.753454 1_555
N5 Si19 1.715670 1_655
N5 Si6 1.716166 1_555
N5 Si32 1.825644 1_565
N6 Si24 1.743617 1_555
N6 Si15 1.751013 1_555
N6 Si31 1.761457 1_555
N7 Si14 1.695820 1_555
N7 Si28 1.756230 1_555
N7 Si16 2.084085 1_555
N8 Si8 1.799807 1_555
N8 Si19 1.808340 1_555
N8 Si7 1.819118 1_455
N9 Si43 1.752039 1_555
N9 Si1 1.757788 1_555
N9 Si40 1.787286 1_555
N10 Si28 1.829671 1_555
N10 Si16 1.849348 1_555
N10 Si20 1.963958 1_555
N11 Si13 1.729337 1_555
N11 Si41 1.790639 1_555
N11 Si4 1.854471 1_555
N12 Si4 1.744375 1_555
N12 Si3 1.769786 1_555
N12 Si34 1.777261 1_555
N13 Si17 1.726620 1_566
N13 Si15 1.749944 1_555
N13 Si42 1.893068 1_565
N14 Si18 1.822886 1_565
N14 Si10 1.857386 1_555
N14 Si33 1.936606 1_555
N14 Si2 1.982063 1_565
N15 Si14 1.735569 1_555
N15 Si25 1.747363 1_555
N15 Si34 1.751450 1_555
N16 Si24 1.706224 1_555
N16 Si41 1.777070 1_556
N16 Si5 1.804079 1_555
N17 Si25 1.685675 1_555
N17 Si0 1.716252 1_555
N17 Si34 1.872453 1_555
N18 Si24 1.870739 1_555
N18 Si14 1.872984 1_555
N18 Si39 1.873925 1_555
N18 Si25 1.925542 1_555
N19 Si22 1.806538 1_555
N19 Si18 1.818603 1_555
N19 Si30 1.875014 1_545
N19 Si23 1.929127 1_555
N20 Si9 1.716634 1_556
N20 Si8 1.751524 1_555
N20 Si19 1.795548 1_555
N21 Si37 1.714405 1_555
N21 Si26 1.817024 1_555
N21 Si20 2.028237 1_565
N22 Si29 1.697740 1_555
N22 Si0 1.751917 1_655
N22 Si16 1.947803 1_555
N23 Si35 1.710153 1_555
N23 Si37 1.781804 1_555
N23 Si6 1.844105 1_554
N24 Si12 1.769414 1_555
N24 Si38 1.806155 1_555
N24 Si32 1.854838 1_554
N25 Si44 1.676292 1_555
N25 Si21 1.752344 1_655
N25 Si38 1.783158 1_555
N26 Si22 1.730079 1_565
N26 Si37 1.839716 1_455
N26 Si36 2.058223 1_554
N26 Si32 2.195286 1_464
N27 Si10 1.719597 1_555
N27 Si39 1.730284 1_555
N27 Si40 1.850246 1_555
N28 Si17 1.775075 1_565
N28 Si11 1.786222 1_555
N28 Si18 1.858863 1_565
N29 Si9 1.739922 1_555
N29 Si41 1.815852 1_555
N29 Si21 1.843913 1_555
N30 N38 1.114295 1_555
N31 Si13 1.730538 1_555
N31 Si12 1.786972 1_555
N31 Si17 1.796559 1_555
N32 Si23 1.656623 1_555
N32 Si34 1.679739 1_555
N33 Si7 1.716338 1_555
N33 Si27 1.766202 1_655
N33 Si20 1.901176 1_565
N34 N52 1.137990 1_555
N34 Si29 1.995320 1_555
N35 Si3 1.732650 1_555
N35 Si21 1.773791 1_555
N35 Si38 1.825785 1_455
N36 N46 1.117860 1_555
N37 Si43 1.750014 1_555
N37 Si4 1.766998 1_555
N37 Si28 1.886790 1_555
N39 Si15 1.709574 1_555
N39 Si6 1.734826 1_555
N39 Si42 1.990863 1_565
N40 Si12 1.746174 1_555
N40 Si33 1.775719 1_545
N40 Si37 1.850037 1_545
N41 Si41 1.811614 1_555
N41 Si11 1.825780 1_555
N41 Si40 1.849782 1_555
N42 Si9 1.722978 1_555
N42 Si26 1.738152 1_455
N42 Si30 1.753668 1_555
N43 Si10 1.640952 1_555
N43 Si27 1.703087 1_555
N44 Si26 1.736349 1_555
N44 Si1 1.761086 1_555
N44 Si35 1.767124 1_555
N45 Si30 1.773359 1_555
N45 Si10 1.811582 1_555
N45 Si11 1.814422 1_555
N45 Si40 1.921354 1_555
N47 N53 1.119251 1_555
N48 Si22 1.761525 1_555
N48 Si17 1.784136 1_555
N48 Si36 1.784459 1_544
N49 Si24 1.735228 1_555
N49 Si25 1.765932 1_555
N49 Si8 1.792214 1_555
N50 Si11 1.713543 1_555
N50 Si9 1.748989 1_555
N50 Si36 1.780424 1_554
N51 Si8 1.745200 1_555
N51 Si29 1.797382 1_455
N51 Si21 1.874538 1_556
N54 Si3 1.706173 1_555
N54 Si0 1.708513 1_555
N54 Si16 1.844460 1_455
N55 Si31 1.637940 1_555
N55 Si29 1.675255 1_555
N56 Si1 1.773336 1_555
N56 Si39 1.803505 1_555
N56 Si7 1.912997 1_555
N57 Si22 1.670280 1_555
N57 Si3 1.704603 1_555
N57 Si23 1.751755 1_555
N58 Si31 1.690255 1_554
N58 Si35 1.692161 1_555
N58 Si44 1.721699 1_555
N59 Si23 1.668618 1_555
N59 Si27 1.747560 1_545
N59 Si20 1.788284 1_455
