# generated using pymatgen
data_UAsC2N2(O2F)2
_symmetry_space_group_name_H-M   'P 1'
_cell_length_a   7.90740900
_cell_length_b   9.69453071
_cell_length_c   10.99265110
_cell_angle_alpha   81.56526381
_cell_angle_beta   68.92019650
_cell_angle_gamma   65.93151503
_symmetry_Int_Tables_number   1
_chemical_formula_structural   UAsC2N2(O2F)2
_chemical_formula_sum   'U4 As4 C8 N8 O16 F8'
_cell_volume   717.92844578
_cell_formula_units_Z   4
loop_
 _symmetry_equiv_pos_site_id
 _symmetry_equiv_pos_as_xyz
  1  'x, y, z'
loop_
 _atom_site_type_symbol
 _atom_site_label
 _atom_site_symmetry_multiplicity
 _atom_site_fract_x
 _atom_site_fract_y
 _atom_site_fract_z
 _atom_site_occupancy
  U  U0  1  0.95867600  0.08264800  0.75000000  1
  U  U1  1  0.29132400  0.41735200  0.75000000  1
  U  U2  1  0.04132400  0.91735200  0.25000000  1
  U  U3  1  0.70867600  0.58264800  0.25000000  1
  As  As0  1  0.99749400  0.25000000  0.00501300  1
  As  As1  1  0.75250600  0.25000000  0.49498700  1
  As  As2  1  0.00250600  0.75000000  0.99498700  1
  As  As3  1  0.24749400  0.75000000  0.50501300  1
  C  C0  1  0.55530200  0.75238300  0.67538100  1
  C  C1  1  0.48306500  0.74761700  0.82461900  1
  C  C2  1  0.69231600  0.75238300  0.82461900  1
  C  C3  1  0.76931800  0.74761700  0.67538100  1
  C  C4  1  0.44469800  0.24761700  0.32461900  1
  C  C5  1  0.51693500  0.25238300  0.17538100  1
  C  C6  1  0.30768400  0.24761700  0.17538100  1
  C  C7  1  0.23068200  0.25238300  0.32461900  1
  N  N0  1  0.66068800  0.84317100  0.59365000  1
  N  N1  1  0.59750900  0.65682900  0.90635000  1
  N  N2  1  0.49614100  0.84317100  0.90635000  1
  N  N3  1  0.74566300  0.65682900  0.59365000  1
  N  N4  1  0.33931200  0.15682900  0.40635000  1
  N  N5  1  0.40249100  0.34317100  0.09365000  1
  N  N6  1  0.50385900  0.15682900  0.09365000  1
  N  N7  1  0.25433700  0.34317100  0.40635000  1
  O  O0  1  0.87653800  0.40568400  0.10543700  1
  O  O1  1  0.88765900  0.09431600  0.39456300  1
  O  O2  1  0.71777900  0.40568400  0.39456300  1
  O  O3  1  0.01802500  0.09431600  0.10543700  1
  O  O4  1  0.12346200  0.59431600  0.89456300  1
  O  O5  1  0.11234100  0.90568400  0.60543700  1
  O  O6  1  0.28222100  0.59431600  0.60543700  1
  O  O7  1  0.98197500  0.90568400  0.89456300  1
  O  O8  1  0.87082200  0.24023200  0.90998700  1
  O  O9  1  0.52104100  0.25976800  0.59001300  1
  O  O10  1  0.88894600  0.24023200  0.59001300  1
  O  O11  1  0.21919100  0.25976800  0.90998700  1
  O  O12  1  0.12917800  0.75976800  0.09001300  1
  O  O13  1  0.47895900  0.74023200  0.40998700  1
  O  O14  1  0.11105400  0.75976800  0.40998700  1
  O  O15  1  0.78080900  0.74023200  0.09001300  1
  F  F0  1  0.23017800  0.07985400  0.72081600  1
  F  F1  1  0.53084800  0.42014600  0.77918400  1
  F  F2  1  0.68996800  0.07985400  0.77918400  1
  F  F3  1  0.04900600  0.42014600  0.72081600  1
  F  F4  1  0.76982200  0.92014600  0.27918400  1
  F  F5  1  0.46915200  0.57985400  0.22081600  1
  F  F6  1  0.31003200  0.92014600  0.22081600  1
  F  F7  1  0.95099400  0.57985400  0.27918400  1
loop_
_geom_bond_atom_site_label_1
_geom_bond_atom_site_label_2
_geom_bond_distance
_geom_bond_site_symmetry_2
As0 O11 1.721174 1_654
As0 O8 1.721180 1_554
As0 O0 1.721400 1_555
As0 O3 1.721400 1_655
As1 O9 1.721174 1_555
As1 O10 1.721180 1_555
As1 O2 1.721400 1_555
As1 O1 1.721400 1_555
As2 O15 1.721174 1_456
As2 O12 1.721180 1_556
As2 O4 1.721400 1_555
As2 O7 1.721400 1_455
As3 O13 1.721174 1_555
As3 O14 1.721180 1_555
As3 O6 1.721400 1_555
As3 O5 1.721400 1_555
C0 N3 1.437053 1_555
C0 N0 1.450515 1_555
C1 N2 1.437053 1_555
C1 N1 1.450519 1_555
C2 N1 1.437053 1_555
C2 N2 1.450519 1_555
C3 N0 1.437053 1_555
C3 N3 1.450515 1_555
C4 N7 1.437053 1_555
C4 N4 1.450515 1_555
C5 N6 1.437053 1_555
C5 N5 1.450519 1_555
C6 N5 1.437053 1_555
C6 N6 1.450519 1_555
C7 N4 1.437053 1_555
C7 N7 1.450515 1_555
O0 U3 2.157661 1_555
O1 U2 2.157661 1_645
O2 U3 2.157661 1_555
O3 U2 2.157661 1_545
O4 U1 2.157661 1_555
O5 U0 2.157661 1_465
O6 U1 2.157661 1_555
O7 U0 2.157661 1_565
O8 U0 2.225565 1_555
O9 U1 2.225565 1_555
O10 U0 2.225565 1_555
O11 U1 2.225565 1_555
O12 U2 2.225565 1_555
O13 U3 2.225565 1_555
O14 U2 2.225565 1_555
O15 U3 2.225565 1_555
F0 U0 2.042650 1_455
F1 U1 2.042650 1_555
F2 U0 2.042650 1_555
F3 U1 2.042650 1_555
F4 U2 2.042650 1_655
F5 U3 2.042650 1_555
F6 U2 2.042650 1_555
F7 U3 2.042650 1_555
