# generated using pymatgen
data_TiTl(VS2)4
_symmetry_space_group_name_H-M   'P 1'
_cell_length_a   3.30724500
_cell_length_b   8.53717773
_cell_length_c   9.15635259
_cell_angle_alpha   104.13642600
_cell_angle_beta   100.40461285
_cell_angle_gamma   90.00000000
_symmetry_Int_Tables_number   1
_chemical_formula_structural   TiTl(VS2)4
_chemical_formula_sum   'Ti1 Tl1 V4 S8'
_cell_volume   246.31041996
_cell_formula_units_Z   1
loop_
 _symmetry_equiv_pos_site_id
 _symmetry_equiv_pos_as_xyz
  1  'x, y, z'
loop_
 _atom_site_type_symbol
 _atom_site_label
 _atom_site_symmetry_multiplicity
 _atom_site_fract_x
 _atom_site_fract_y
 _atom_site_fract_z
 _atom_site_occupancy
  Ti  Ti0  1  0.00000000  0.50000000  0.00000000  1
  Tl  Tl0  1  0.50000000  0.00000000  0.00000000  1
  V  V0  1  0.71146700  0.85810500  0.42293400  1
  V  V1  1  0.28853300  0.14189500  0.57706600  1
  V  V2  1  0.65371700  0.49327200  0.30743400  1
  V  V3  1  0.34628300  0.50672800  0.69256600  1
  S  S0  1  0.83716000  0.99945000  0.67432100  1
  S  S1  1  0.16284000  0.00055000  0.32567900  1
  S  S2  1  0.75838000  0.33820600  0.51675900  1
  S  S3  1  0.24162000  0.66179400  0.48324100  1
  S  S4  1  0.91257000  0.68025100  0.82514100  1
  S  S5  1  0.08743000  0.31974900  0.17485900  1
  S  S6  1  0.57824900  0.67807800  0.15649800  1
  S  S7  1  0.42175100  0.32192200  0.84350200  1
loop_
_geom_bond_atom_site_label_1
_geom_bond_atom_site_label_2
_geom_bond_distance
_geom_bond_site_symmetry_2
S0 V0 2.285780 1_555
S0 V1 2.347212 1_565
S0 V1 2.347214 1_665
S1 V1 2.285780 1_555
S1 V0 2.347212 1_545
S1 V0 2.347214 1_445
S2 V3 2.485930 1_655
S2 V3 2.485932 1_555
S2 V1 2.508039 1_655
S2 V1 2.508041 1_555
S2 V2 2.558446 1_555
S3 V2 2.485930 1_455
S3 V2 2.485932 1_555
S3 V0 2.508039 1_455
S3 V0 2.508041 1_555
S3 V3 2.558446 1_555
S4 V3 2.340109 1_555
S4 V3 2.340111 1_655
S4 Ti0 2.459939 1_656
S5 V2 2.340109 1_555
S5 V2 2.340111 1_455
S5 Ti0 2.459939 1_555
S6 V2 2.324213 1_555
S6 Ti0 2.442948 1_655
S6 Ti0 2.442948 1_555
S6 V0 2.507610 1_555
S7 V3 2.324213 1_555
S7 Ti0 2.442948 1_556
S7 Ti0 2.442948 1_656
S7 V1 2.507610 1_555
