# generated using pymatgen
data_Na2Li18Ge17
_symmetry_space_group_name_H-M   'P 1'
_cell_length_a   8.15743311
_cell_length_b   17.28834646
_cell_length_c   17.28830618
_cell_angle_alpha   119.99992362
_cell_angle_beta   89.99970891
_cell_angle_gamma   90.00014551
_symmetry_Int_Tables_number   1
_chemical_formula_structural   Na2Li18Ge17
_chemical_formula_sum   'Na6 Li54 Ge51'
_cell_volume   2111.49661697
_cell_formula_units_Z   3
loop_
 _symmetry_equiv_pos_site_id
 _symmetry_equiv_pos_as_xyz
  1  'x, y, z'
loop_
 _atom_site_type_symbol
 _atom_site_label
 _atom_site_symmetry_multiplicity
 _atom_site_fract_x
 _atom_site_fract_y
 _atom_site_fract_z
 _atom_site_occupancy
  Na  Na0  1  0.43911150  0.65389815  0.65389455  1
  Na  Na1  1  0.43911150  0.34610185  0.99999640  1
  Na  Na2  1  0.43910345  0.00000000  0.34610101  1
  Na  Na3  1  0.39108079  0.66659917  0.33330214  1
  Na  Na4  1  0.39108079  0.33340083  0.66670298  1
  Na  Na5  1  0.60425492  -0.00000000  0.00000197  1
  Li  Li0  1  0.32002102  0.00000000  0.67076927  1
  Li  Li1  1  0.32002062  0.32923078  0.32923088  1
  Li  Li2  1  0.32002062  0.67076922  0.00000009  1
  Li  Li3  1  0.68359008  0.00000000  0.66667253  1
  Li  Li4  1  0.68359080  0.33332780  0.33332766  1
  Li  Li5  1  0.68359080  0.66667220  0.99999986  1
  Li  Li6  1  0.19382601  0.00000000  0.83480651  1
  Li  Li7  1  0.19382565  0.16519369  0.16519341  1
  Li  Li8  1  0.19382565  0.83480631  -0.00000028  1
  Li  Li9  1  0.19117947  0.83525861  0.50580999  1
  Li  Li10  1  0.19117760  0.49418906  0.32944852  1
  Li  Li11  1  0.19117938  0.67055178  0.16474122  1
  Li  Li12  1  0.19117947  0.16474139  0.67055138  1
  Li  Li13  1  0.19117938  0.32944822  0.49418944  1
  Li  Li14  1  0.19117760  0.50581094  0.83525946  1
  Li  Li15  1  0.82248529  0.00000000  0.82739686  1
  Li  Li16  1  0.82248507  0.17260327  0.17260306  1
  Li  Li17  1  0.82248507  0.82739673  -0.00000021  1
  Li  Li18  1  0.75926974  0.51430990  0.51430926  1
  Li  Li19  1  0.75926974  0.48569010  -0.00000064  1
  Li  Li20  1  0.75926954  -0.00000000  0.48569033  1
  Li  Li21  1  0.68474986  0.81044297  0.81044288  1
  Li  Li22  1  0.68474986  0.18955703  0.99999991  1
  Li  Li23  1  0.68474945  0.00000000  0.18955705  1
  Li  Li24  1  0.32590492  0.84446678  0.84446648  1
  Li  Li25  1  0.32590492  0.15553322  -0.00000030  1
  Li  Li26  1  0.32590556  0.00000000  0.15553388  1
  Li  Li27  1  0.03698516  0.75797339  0.75797339  1
  Li  Li28  1  0.03698516  0.24202661  -0.00000000  1
  Li  Li29  1  0.03698520  0.00000000  0.24202745  1
  Li  Li30  1  0.67866826  0.66322266  0.50121814  1
  Li  Li31  1  0.67866787  0.49878035  0.16200344  1
  Li  Li32  1  0.67866983  0.83799458  0.33677696  1
  Li  Li33  1  0.67866826  0.33677734  0.83799548  1
  Li  Li34  1  0.67866983  0.16200542  0.49878238  1
  Li  Li35  1  0.67866787  0.50121965  0.66322309  1
  Li  Li36  1  0.76695277  0.80948178  0.66172048  1
  Li  Li37  1  0.76695364  0.33827925  0.14776120  1
  Li  Li38  1  0.76695268  0.85223874  0.19051810  1
  Li  Li39  1  0.76695277  0.19051822  0.85223870  1
  Li  Li40  1  0.76695268  0.14776126  0.33827936  1
  Li  Li41  1  0.76695364  0.66172075  0.80948195  1
  Li  Li42  1  0.82157595  0.83099240  0.49857835  1
  Li  Li43  1  0.82157765  0.50141800  0.33241432  1
  Li  Li44  1  0.82157656  0.66758669  0.16900620  1
  Li  Li45  1  0.82157595  0.16900760  0.66758595  1
  Li  Li46  1  0.82157656  0.33241331  0.50141950  1
  Li  Li47  1  0.82157765  0.49858200  0.83099632  1
  Li  Li48  1  0.05526648  0.66117881  0.56664818  1
  Li  Li49  1  0.05526756  0.43335144  0.09453059  1
  Li  Li50  1  0.05526505  0.90546985  0.33882159  1
  Li  Li51  1  0.05526648  0.33882119  0.90546937  1
  Li  Li52  1  0.05526505  0.09453015  0.43335174  1
  Li  Li53  1  0.05526756  0.56664856  0.66117916  1
  Ge  Ge0  1  0.79457788  0.66064838  0.66064815  1
  Ge  Ge1  1  0.79457788  0.33935162  -0.00000023  1
  Ge  Ge2  1  0.79457929  0.00000000  0.33935311  1
  Ge  Ge3  1  0.02133455  0.66581901  0.41977427  1
  Ge  Ge4  1  0.02134741  0.58022026  0.24604136  1
  Ge  Ge5  1  0.02131934  0.75394983  0.33417918  1
  Ge  Ge6  1  0.02133455  0.33418099  0.75395526  1
  Ge  Ge7  1  0.02131934  0.24605017  0.58022935  1
  Ge  Ge8  1  0.02134741  0.41977974  0.66582110  1
  Ge  Ge9  1  0.75964703  0.66661518  0.33330767  1
  Ge  Ge10  1  0.75964703  0.33338482  0.66669248  1
  Ge  Ge11  1  0.97097273  0.91233893  0.91233859  1
  Ge  Ge12  1  0.97097273  0.08766107  -0.00000034  1
  Ge  Ge13  1  0.97097127  -0.00000000  0.08766104  1
  Ge  Ge14  1  0.23142521  0.00000000  0.99999969  1
  Ge  Ge15  1  0.51196538  0.91582148  0.76043309  1
  Ge  Ge16  1  0.51196685  0.23956647  0.15538802  1
  Ge  Ge17  1  0.51196721  0.84461227  0.08417861  1
  Ge  Ge18  1  0.51196538  0.08417852  0.84461162  1
  Ge  Ge19  1  0.51196721  0.15538773  0.23956634  1
  Ge  Ge20  1  0.51196685  0.76043353  0.91582155  1
  Ge  Ge21  1  0.50432886  0.82396548  0.58031946  1
  Ge  Ge22  1  0.50432771  0.41968065  0.24364553  1
  Ge  Ge23  1  0.50432809  0.75635419  0.17603528  1
  Ge  Ge24  1  0.50432886  0.17603452  0.75635398  1
  Ge  Ge25  1  0.50432809  0.24364581  0.41968109  1
  Ge  Ge26  1  0.50432771  0.58031935  0.82396488  1
  Ge  Ge27  1  0.50228005  0.90881105  0.49651207  1
  Ge  Ge28  1  0.50227998  0.50348843  0.41230000  1
  Ge  Ge29  1  0.50227972  0.58770105  0.09118942  1
  Ge  Ge30  1  0.50228005  0.09118895  0.58770102  1
  Ge  Ge31  1  0.50227972  0.41229895  0.50348837  1
  Ge  Ge32  1  0.50227998  0.49651157  0.90881157  1
  Ge  Ge33  1  0.25134630  0.82422114  0.67211619  1
  Ge  Ge34  1  0.25134397  0.32788360  0.15210494  1
  Ge  Ge35  1  0.25134644  0.84789518  0.17577916  1
  Ge  Ge36  1  0.25134630  0.17577886  0.84789505  1
  Ge  Ge37  1  0.25134644  0.15210482  0.32788397  1
  Ge  Ge38  1  0.25134397  0.67211640  0.82422135  1
  Ge  Ge39  1  0.25007298  0.50428351  0.50428338  1
  Ge  Ge40  1  0.25007298  0.49571649  0.99999987  1
  Ge  Ge41  1  0.25007125  0.00000000  0.49571639  1
  Ge  Ge42  1  0.00376875  0.00000000  0.58271136  1
  Ge  Ge43  1  0.00376841  0.41728905  0.41728861  1
  Ge  Ge44  1  0.00376841  0.58271095  0.99999956  1
  Ge  Ge45  1  0.00533783  0.91225772  0.67006663  1
  Ge  Ge46  1  0.00533725  0.32993284  0.24219002  1
  Ge  Ge47  1  0.00533599  0.75780891  0.08774242  1
  Ge  Ge48  1  0.00533783  0.08774228  0.75780891  1
  Ge  Ge49  1  0.00533599  0.24219109  0.32993351  1
  Ge  Ge50  1  0.00533725  0.67006716  0.91225719  1
loop_
_geom_bond_atom_site_label_1
_geom_bond_atom_site_label_2
_geom_bond_distance
_geom_bond_site_symmetry_2
Li0 Li3 2.966635 1_555
Li0 Li6 3.016980 1_555
Li0 Li9 3.037615 1_545
Li0 Li12 3.037615 1_555
Li1 Li4 2.966645 1_555
Li1 Li7 3.016994 1_555
Li1 Li13 3.037592 1_555
Li1 Li10 3.037605 1_555
Li2 Li5 2.966645 1_554
Li2 Li8 3.016994 1_555
Li11 Li2 3.037592 1_555
Li14 Li2 3.037604 1_556
Ge0 Li18 2.546297 1_555
Ge0 Li41 2.573748 1_555
Ge0 Li36 2.573749 1_555
Ge0 Li27 2.596406 1_655
Ge0 Li48 2.679201 1_655
Ge0 Li53 2.679221 1_655
Ge0 Li21 2.740293 1_555
Ge0 Na0 2.902042 1_555
Ge0 Li35 2.935243 1_555
Ge0 Li30 2.935259 1_555
Ge1 Li19 2.546297 1_555
Ge1 Li37 2.573748 1_555
Ge1 Li39 2.573749 1_554
Ge1 Li28 2.596406 1_655
Ge1 Li51 2.679201 1_654
Ge1 Li49 2.679221 1_655
Ge1 Li22 2.740293 1_554
Ge1 Na1 2.902042 1_554
Ge1 Li31 2.935243 1_555
Ge1 Li33 2.935259 1_554
Ge2 Li20 2.546265 1_555
Ge2 Li38 2.573766 1_545
Ge2 Li40 2.573766 1_555
Ge2 Li29 2.596391 1_655
Ge2 Li52 2.679186 1_655
Ge2 Li50 2.679186 1_645
Ge2 Li23 2.740322 1_555
Ge2 Na2 2.902115 1_555
Ge2 Li34 2.935261 1_555
Ge2 Li32 2.935261 1_545
Ge3 Li48 2.595053 1_555
Ge3 Ge5 2.601138 1_555
Ge3 Ge4 2.601243 1_555
Ge3 Ge9 2.610047 1_455
Ge3 Li9 2.890652 1_555
Ge3 Li10 2.920420 1_555
Ge3 Li43 2.953289 1_455
Ge3 Li42 2.962321 1_455
Ge3 Li30 3.140269 1_455
Ge3 Na3 3.369353 1_555
Ge4 Li49 2.594975 1_555
Ge4 Ge5 2.601200 1_555
Ge4 Ge9 2.609792 1_455
Ge4 Li10 2.890577 1_555
Ge4 Li11 2.920392 1_555
Ge4 Li44 2.953363 1_455
Ge4 Li43 2.962384 1_455
Ge4 Li31 3.140352 1_455
Ge4 Na3 3.368950 1_555
Ge5 Li50 2.595152 1_555
Ge5 Ge9 2.610284 1_455
Ge5 Li11 2.890679 1_555
Ge5 Li9 2.920496 1_555
Ge5 Li42 2.953193 1_455
Ge5 Li44 2.962243 1_455
Ge5 Li32 3.140189 1_455
Ge5 Na3 3.369866 1_555
Ge6 Li51 2.595053 1_555
Ge6 Ge7 2.601138 1_555
Ge6 Ge8 2.601243 1_555
Ge6 Li12 2.890652 1_555
Ge6 Li14 2.920420 1_555
Ge6 Li47 2.953289 1_455
Ge6 Li45 2.962321 1_455
Ge6 Li33 3.140269 1_455
Ge6 Na4 3.369353 1_555
Ge7 Li52 2.595152 1_555
Ge7 Ge8 2.601200 1_555
Ge7 Li13 2.890679 1_555
Ge7 Li12 2.920496 1_555
Ge7 Li45 2.953193 1_455
Ge7 Li46 2.962244 1_455
Ge7 Li34 3.140189 1_455
Ge7 Na4 3.369866 1_555
Ge8 Li53 2.594975 1_555
Ge8 Li14 2.890577 1_555
Ge8 Li13 2.920392 1_555
Ge8 Li46 2.953364 1_455
Ge8 Li47 2.962384 1_455
Ge8 Li35 3.140352 1_455
Ge8 Na4 3.368950 1_555
Ge9 Li43 2.892752 1_555
Ge9 Li44 2.893371 1_555
Ge9 Li42 2.894000 1_555
Ge9 Li31 3.005531 1_555
Ge9 Li30 3.006127 1_555
Ge9 Na3 3.006554 1_555
Ge9 Li32 3.006797 1_555
Ge10 Ge8 2.609792 1_655
Ge10 Ge6 2.610047 1_655
Ge10 Ge7 2.610284 1_655
Ge10 Li47 2.892752 1_555
Ge10 Li46 2.893371 1_555
Ge10 Li45 2.894000 1_555
Ge10 Li35 3.005531 1_555
Ge10 Li33 3.006127 1_555
Ge10 Na4 3.006554 1_555
Ge10 Li34 3.006796 1_555
Ge11 Ge14 2.609756 1_665
Ge11 Ge13 2.624949 1_566
Ge11 Ge12 2.624951 1_566
Ge11 Li27 2.722507 1_655
Ge11 Li17 2.854122 1_556
Ge11 Li15 2.854123 1_565
Ge11 Li21 2.924857 1_555
Ge11 Li6 3.070766 1_665
Ge11 Li8 3.070784 1_656
Ge11 Li24 3.124070 1_655
Ge11 Na5 3.353469 1_566
Ge12 Ge14 2.609756 1_654
Ge12 Ge13 2.624949 1_555
Ge12 Li28 2.722507 1_655
Ge12 Li16 2.854122 1_555
Ge12 Li15 2.854123 1_554
Ge12 Li22 2.924857 1_554
Ge12 Li6 3.070766 1_654
Ge12 Li7 3.070784 1_655
Ge12 Li25 3.124070 1_655
Ge12 Na5 3.353469 1_555
Ge13 Ge14 2.609757 1_654
Ge13 Li29 2.722525 1_655
Ge13 Li16 2.854126 1_555
Ge13 Li17 2.854126 1_545
Ge13 Li23 2.924839 1_555
Ge13 Li8 3.070788 1_645
Ge13 Li7 3.070788 1_655
Ge13 Li26 3.124097 1_655
Ge13 Na5 3.353442 1_555
Ge14 Li24 2.797183 1_545
Ge14 Li25 2.797183 1_556
Ge14 Li26 2.797201 1_556
Ge14 Li6 2.872334 1_555
Ge14 Li7 2.872348 1_556
Ge14 Li8 2.872348 1_546
Ge14 Na5 3.041333 1_556
Ge15 Ge18 2.520668 1_565
Ge15 Ge33 2.634577 1_555
Ge15 Ge21 2.697583 1_555
Ge15 Li36 2.735212 1_555
Ge15 Li21 2.761938 1_555
Ge15 Li24 2.779960 1_555
Ge15 Li15 2.861766 1_565
Ge15 Li6 2.938539 1_565
Ge15 Li3 3.010721 1_565
Ge15 Li0 3.037835 1_565
Ge16 Ge19 2.520663 1_555
Ge16 Ge34 2.634602 1_555
Ge16 Ge22 2.697597 1_555
Ge16 Li37 2.735207 1_555
Ge16 Li22 2.761918 1_554
Ge16 Li25 2.779981 1_555
Ge16 Li16 2.861752 1_555
Ge16 Li7 2.938547 1_555
Ge16 Li4 3.010737 1_555
Ge16 Li1 3.037838 1_555
Ge17 Ge20 2.520663 1_554
Ge17 Ge35 2.634581 1_555
Ge17 Ge23 2.697599 1_555
Ge17 Li38 2.735208 1_555
Ge17 Li23 2.761922 1_565
Ge17 Li26 2.779971 1_565
Ge17 Li17 2.861742 1_555
Ge17 Li8 2.938562 1_555
Ge17 Li5 3.010741 1_554
Ge17 Li2 3.037853 1_555
Ge18 Ge36 2.634577 1_555
Ge18 Ge24 2.697583 1_555
Ge18 Li39 2.735212 1_555
Ge18 Li22 2.761938 1_555
Ge18 Li25 2.779960 1_556
Ge18 Li15 2.861766 1_555
Ge18 Li6 2.938539 1_555
Ge18 Li3 3.010721 1_555
Ge18 Li0 3.037835 1_555
Ge19 Ge37 2.634581 1_555
Ge19 Ge25 2.697599 1_555
Ge19 Li40 2.735208 1_555
Ge19 Li23 2.761922 1_555
Ge19 Li26 2.779971 1_555
Ge19 Li16 2.861742 1_555
Ge19 Li7 2.938562 1_555
Ge19 Li4 3.010741 1_555
Ge19 Li1 3.037853 1_555
Ge20 Ge38 2.634602 1_555
Ge20 Ge26 2.697597 1_555
Ge20 Li41 2.735207 1_555
Ge20 Li21 2.761918 1_555
Ge20 Li24 2.779981 1_555
Ge20 Li17 2.861752 1_556
Ge20 Li8 2.938547 1_556
Ge20 Li5 3.010737 1_555
Ge20 Li2 3.037838 1_556
Ge21 Ge27 2.525164 1_555
Ge21 Ge33 2.601996 1_555
Ge21 Li36 2.642948 1_555
Ge21 Li30 2.795545 1_555
Ge21 Li9 2.911084 1_555
Ge21 Li42 2.980062 1_555
Ge21 Li3 3.014242 1_565
Ge21 Li0 3.034583 1_565
Ge22 Ge28 2.525187 1_555
Ge22 Ge34 2.602014 1_555
Ge22 Li37 2.642952 1_555
Ge22 Li31 2.795525 1_555
Ge22 Li10 2.911079 1_555
Ge22 Li43 2.980084 1_555
Ge22 Li4 3.014256 1_555
Ge22 Li1 3.034578 1_555
Ge23 Ge29 2.525173 1_555
Ge23 Ge35 2.602003 1_555
Ge23 Li38 2.642948 1_555
Ge23 Li32 2.795541 1_555
Ge23 Li11 2.911067 1_555
Ge23 Li44 2.980071 1_555
Ge23 Li5 3.014249 1_554
Ge23 Li2 3.034590 1_555
Ge24 Ge30 2.525164 1_555
Ge24 Ge36 2.601996 1_555
Ge24 Li39 2.642948 1_555
Ge24 Li33 2.795545 1_555
Ge24 Li12 2.911083 1_555
Ge24 Li45 2.980062 1_555
Ge24 Li3 3.014242 1_555
Ge24 Li0 3.034583 1_555
Ge25 Ge31 2.525173 1_555
Ge25 Ge37 2.602003 1_555
Ge25 Li40 2.642948 1_555
Ge25 Li34 2.795541 1_555
Ge25 Li13 2.911067 1_555
Ge25 Li46 2.980071 1_555
Ge25 Li4 3.014249 1_555
Ge25 Li1 3.034590 1_555
Ge26 Ge32 2.525187 1_555
Ge26 Ge38 2.602014 1_555
Ge26 Li41 2.642952 1_555
Ge26 Li35 2.795525 1_555
Ge26 Li14 2.911079 1_555
Ge26 Li47 2.980084 1_555
Ge26 Li5 3.014256 1_555
Ge26 Li2 3.034578 1_556
Ge27 Ge41 2.596163 1_565
Ge27 Li20 2.685161 1_565
Ge27 Ge30 2.730591 1_565
Ge27 Li32 2.795438 1_555
Ge27 Li9 2.878806 1_555
Ge27 Li42 2.939976 1_555
Ge27 Li3 2.947760 1_565
Ge27 Li0 3.003706 1_565
Ge28 Ge39 2.596129 1_555
Ge28 Li18 2.685156 1_555
Ge28 Ge31 2.730584 1_555
Ge28 Li30 2.795432 1_555
Ge28 Li10 2.878832 1_555
Ge28 Li43 2.939968 1_555
Ge28 Li4 2.947765 1_555
Ge28 Li1 3.003724 1_555
Ge29 Ge40 2.596152 1_554
Ge29 Li19 2.685172 1_555
Ge29 Ge32 2.730584 1_554
Ge29 Li31 2.795440 1_555
Ge29 Li11 2.878806 1_555
Ge29 Li44 2.939978 1_555
Ge29 Li5 2.947756 1_554
Ge29 Li2 3.003721 1_555
Ge30 Ge41 2.596163 1_555
Ge30 Li20 2.685160 1_555
Ge30 Li34 2.795438 1_555
Ge30 Li12 2.878806 1_555
Ge30 Li45 2.939976 1_555
Ge30 Li3 2.947760 1_555
Ge30 Li0 3.003706 1_555
Ge31 Ge39 2.596152 1_555
Ge31 Li18 2.685172 1_555
Ge31 Li35 2.795440 1_555
Ge31 Li13 2.878806 1_555
Ge31 Li46 2.939978 1_555
Ge31 Li4 2.947756 1_555
Ge31 Li1 3.003721 1_555
Ge32 Ge40 2.596129 1_555
Ge32 Li19 2.685156 1_556
Ge32 Li33 2.795432 1_555
Ge32 Li14 2.878832 1_555
Ge32 Li47 2.939968 1_555
Ge32 Li5 2.947765 1_555
Ge32 Li2 3.003724 1_556
Ge33 Ge45 2.529613 1_555
Ge33 Li27 2.876226 1_555
Ge33 Li24 2.885795 1_555
Ge33 Li48 2.947673 1_555
Ge33 Li6 2.969645 1_565
Ge33 Li9 3.015370 1_555
Ge33 Li0 3.101645 1_565
Ge33 Na0 3.191924 1_555
Ge34 Ge46 2.529581 1_555
Ge34 Li28 2.876227 1_555
Ge34 Li25 2.885806 1_555
Ge34 Li49 2.947657 1_555
Ge34 Li7 2.969633 1_555
Ge34 Li10 3.015365 1_555
Ge34 Li1 3.101646 1_555
Ge34 Na1 3.191996 1_554
Ge35 Ge47 2.529627 1_555
Ge35 Li29 2.876236 1_565
Ge35 Li26 2.885795 1_565
Ge35 Li50 2.947668 1_555
Ge35 Li8 2.969649 1_555
Ge35 Li11 3.015365 1_555
Ge35 Li2 3.101648 1_555
Ge35 Na2 3.191904 1_565
Ge36 Ge48 2.529613 1_555
Ge36 Li28 2.876226 1_556
Ge36 Li25 2.885795 1_556
Ge36 Li51 2.947673 1_555
Ge36 Li6 2.969645 1_555
Ge36 Li12 3.015370 1_555
Ge36 Li0 3.101645 1_555
Ge36 Na1 3.191924 1_555
Ge37 Ge49 2.529627 1_555
Ge37 Li29 2.876236 1_555
Ge37 Li26 2.885795 1_555
Ge37 Li52 2.947668 1_555
Ge37 Li7 2.969649 1_555
Ge37 Li13 3.015366 1_555
Ge37 Li1 3.101648 1_555
Ge37 Na2 3.191904 1_555
Ge38 Ge50 2.529581 1_555
Ge38 Li27 2.876227 1_555
Ge38 Li24 2.885806 1_555
Ge38 Li53 2.947657 1_555
Ge38 Li8 2.969633 1_556
Ge38 Li14 3.015365 1_555
Ge38 Li2 3.101645 1_556
Ge38 Na0 3.191996 1_555
Ge39 Ge43 2.509770 1_555
Ge39 Li53 2.849675 1_555
Ge39 Li48 2.849686 1_555
Ge39 Li10 2.978238 1_555
Ge39 Li13 2.978250 1_555
Ge39 Na0 3.011360 1_555
Ge39 Li1 3.079689 1_555
Ge40 Ge44 2.509770 1_555
Ge40 Li49 2.849675 1_556
Ge40 Li51 2.849686 1_555
Ge40 Li14 2.978238 1_555
Ge40 Li11 2.978250 1_556
Ge40 Na1 3.011360 1_555
Ge40 Li2 3.079689 1_556
Ge41 Ge42 2.509749 1_555
Ge41 Li50 2.849679 1_545
Ge41 Li52 2.849679 1_555
Ge41 Li12 2.978244 1_555
Ge41 Li9 2.978244 1_545
Ge41 Na2 3.011355 1_555
Ge41 Li0 3.079694 1_555
Ge42 Li20 2.606039 1_455
Ge42 Ge48 2.621616 1_555
Ge42 Ge45 2.621616 1_545
Ge42 Li12 2.903435 1_555
Ge42 Li9 2.903435 1_545
Ge42 Li45 2.934600 1_455
Ge42 Li42 2.934600 1_445
Ge42 Li3 2.988082 1_455
Ge42 Li0 2.995507 1_555
Ge43 Li18 2.606026 1_455
Ge43 Ge49 2.621628 1_555
Ge43 Ge46 2.621631 1_555
Ge43 Li10 2.903401 1_555
Ge43 Li13 2.903440 1_555
Ge43 Li43 2.934536 1_455
Ge43 Li46 2.934573 1_455
Ge43 Li4 2.988086 1_455
Ge43 Li1 2.995499 1_555
Ge44 Li19 2.606026 1_456
Ge44 Ge47 2.621628 1_556
Ge44 Ge50 2.621631 1_555
Ge44 Li14 2.903401 1_555
Ge44 Li11 2.903440 1_556
Ge44 Li47 2.934536 1_455
Ge44 Li44 2.934573 1_456
Ge44 Li5 2.988086 1_455
Ge44 Li2 2.995499 1_556
Ge45 Li36 2.589024 1_455
Ge45 Ge48 2.627383 1_565
Ge45 Li15 2.792524 1_465
Ge45 Li9 2.890341 1_555
Ge45 Li6 2.908000 1_565
Ge45 Li42 2.974119 1_455
Ge45 Li0 2.978636 1_565
Ge45 Li3 3.046675 1_465
Ge46 Li37 2.589012 1_455
Ge46 Ge49 2.627387 1_555
Ge46 Li16 2.792524 1_455
Ge46 Li10 2.890342 1_555
Ge46 Li7 2.907991 1_555
Ge46 Li43 2.974070 1_455
Ge46 Li1 2.978653 1_555
Ge46 Li4 3.046662 1_455
Ge47 Li38 2.589011 1_455
Ge47 Ge50 2.627387 1_554
Ge47 Li17 2.792530 1_455
Ge47 Li11 2.890351 1_555
Ge47 Li8 2.907997 1_555
Ge47 Li44 2.974069 1_455
Ge47 Li2 2.978646 1_555
Ge47 Li5 3.046660 1_454
Ge48 Li39 2.589024 1_455
Ge48 Li15 2.792524 1_455
Ge48 Li12 2.890341 1_555
Ge48 Li6 2.908000 1_555
Ge48 Li45 2.974120 1_455
Ge48 Li0 2.978636 1_555
Ge48 Li3 3.046675 1_455
Ge49 Li40 2.589011 1_455
Ge49 Li16 2.792530 1_455
Ge49 Li13 2.890351 1_555
Ge49 Li7 2.907997 1_555
Ge49 Li46 2.974069 1_455
Ge49 Li1 2.978646 1_555
Ge49 Li4 3.046660 1_455
Ge50 Li41 2.589012 1_455
Ge50 Li17 2.792524 1_456
Ge50 Li14 2.890342 1_555
Ge50 Li8 2.907991 1_556
Ge50 Li47 2.974070 1_455
Ge50 Li2 2.978653 1_556
Ge50 Li5 3.046662 1_455
