# generated using pymatgen
data_Eu3W
_symmetry_space_group_name_H-M   'P 1'
_cell_length_a   7.45157144
_cell_length_b   7.45157144
_cell_length_c   5.61468900
_cell_angle_alpha   90.00000000
_cell_angle_beta   90.00000000
_cell_angle_gamma   119.99999500
_symmetry_Int_Tables_number   1
_chemical_formula_structural   Eu3W
_chemical_formula_sum   'Eu6 W2'
_cell_volume   269.99274709
_cell_formula_units_Z   2
loop_
 _symmetry_equiv_pos_site_id
 _symmetry_equiv_pos_as_xyz
  1  'x, y, z'
loop_
 _atom_site_type_symbol
 _atom_site_label
 _atom_site_symmetry_multiplicity
 _atom_site_fract_x
 _atom_site_fract_y
 _atom_site_fract_z
 _atom_site_occupancy
  Eu  Eu0  1  0.17934200  0.35868500  0.25000000  1
  Eu  Eu1  1  0.64131500  0.82065800  0.25000000  1
  Eu  Eu2  1  0.17934200  0.82065800  0.25000000  1
  Eu  Eu3  1  0.82065800  0.64131500  0.75000000  1
  Eu  Eu4  1  0.35868500  0.17934200  0.75000000  1
  Eu  Eu5  1  0.82065800  0.17934200  0.75000000  1
  W  W0  1  0.33333300  0.66666700  0.75000000  1
  W  W1  1  0.66666700  0.33333300  0.25000000  1
loop_
_geom_bond_atom_site_label_1
_geom_bond_atom_site_label_2
_geom_bond_distance
_geom_bond_site_symmetry_2
Eu0 W0 3.439663 1_554
Eu0 W0 3.439663 1_555
Eu0 W1 3.729369 1_455
Eu0 W1 3.729383 1_555
Eu1 W0 3.439663 1_554
Eu1 W0 3.439663 1_555
Eu1 W1 3.729369 1_565
Eu1 W1 3.729383 1_555
Eu2 W0 3.439663 1_555
Eu2 W0 3.439663 1_554
Eu2 W1 3.729376 1_455
Eu2 W1 3.729376 1_565
Eu3 W1 3.439663 1_555
Eu3 W1 3.439663 1_556
Eu3 W0 3.729369 1_655
Eu3 W0 3.729383 1_555
Eu4 W1 3.439663 1_555
Eu4 W1 3.439663 1_556
Eu4 W0 3.729369 1_545
Eu4 W0 3.729383 1_555
Eu5 W1 3.439663 1_555
Eu5 W1 3.439663 1_556
Eu5 W0 3.729376 1_545
Eu5 W0 3.729376 1_655
