# generated using pymatgen
data_Ho(Al5Ru)2
_symmetry_space_group_name_H-M   'P 1'
_cell_length_a   6.79950260
_cell_length_b   6.79950260
_cell_length_c   9.06337125
_cell_angle_alpha   90.00000000
_cell_angle_beta   90.00000000
_cell_angle_gamma   96.99057817
_symmetry_Int_Tables_number   1
_chemical_formula_structural   Ho(Al5Ru)2
_chemical_formula_sum   'Ho2 Al20 Ru4'
_cell_volume   415.91399219
_cell_formula_units_Z   2
loop_
 _symmetry_equiv_pos_site_id
 _symmetry_equiv_pos_as_xyz
  1  'x, y, z'
loop_
 _atom_site_type_symbol
 _atom_site_label
 _atom_site_symmetry_multiplicity
 _atom_site_fract_x
 _atom_site_fract_y
 _atom_site_fract_z
 _atom_site_occupancy
  Ho  Ho0  1  0.87264832  0.12735168  0.75000000  1
  Ho  Ho1  1  0.12735168  0.87264832  0.25000000  1
  Al  Al0  1  0.62351956  0.37648044  0.54980882  1
  Al  Al1  1  0.37648044  0.62351956  0.45019118  1
  Al  Al2  1  0.37648044  0.62351956  0.04980882  1
  Al  Al3  1  0.62351956  0.37648044  0.95019118  1
  Al  Al4  1  0.22641623  0.22641623  0.50000000  1
  Al  Al5  1  0.77358377  0.77358377  0.50000000  1
  Al  Al6  1  0.77358377  0.77358377  0.00000000  1
  Al  Al7  1  0.22641623  0.22641623  0.00000000  1
  Al  Al8  1  0.84266587  0.15733413  0.10034286  1
  Al  Al9  1  0.15733413  0.84266587  0.89965714  1
  Al  Al10  1  0.15733413  0.84266587  0.60034286  1
  Al  Al11  1  0.84266587  0.15733413  0.39965714  1
  Al  Al12  1  0.85963606  0.58873691  0.75000000  1
  Al  Al13  1  0.14036394  0.41126309  0.25000000  1
  Al  Al14  1  0.41126309  0.14036394  0.75000000  1
  Al  Al15  1  0.58873691  0.85963606  0.25000000  1
  Al  Al16  1  0.21919402  0.48065577  0.75000000  1
  Al  Al17  1  0.78080598  0.51934423  0.25000000  1
  Al  Al18  1  0.51934423  0.78080598  0.75000000  1
  Al  Al19  1  0.48065577  0.21919402  0.25000000  1
  Ru  Ru0  1  -0.00000000  0.50000000  0.50000000  1
  Ru  Ru1  1  -0.00000000  0.50000000  0.00000000  1
  Ru  Ru2  1  0.50000000  0.00000000  0.00000000  1
  Ru  Ru3  1  0.50000000  0.00000000  0.50000000  1
loop_
_geom_bond_atom_site_label_1
_geom_bond_atom_site_label_2
_geom_bond_distance
_geom_bond_site_symmetry_2
Ho0 Ru2 3.430752 1_556
Ho0 Ru1 3.430752 1_656
Ho0 Ru0 3.430752 1_655
Ho0 Ru3 3.430752 1_555
Ho1 Ru0 3.430752 1_555
Ho1 Ru2 3.430752 1_565
Ho1 Ru3 3.430752 1_565
Ho1 Ru1 3.430752 1_555
Al0 Al11 2.614033 1_555
Al0 Ru3 2.634167 1_555
Al0 Ru0 2.634167 1_655
Al0 Al1 2.673022 1_555
Al0 Al14 2.718189 1_555
Al0 Al12 2.718189 1_555
Al0 Al4 2.804439 1_555
Al0 Al5 2.804439 1_555
Al0 Al19 3.036135 1_555
Al0 Al17 3.036135 1_555
Al0 Ho0 3.119212 1_555
Al1 Al10 2.614033 1_555
Al1 Ru0 2.634167 1_555
Al1 Ru3 2.634167 1_565
Al1 Al15 2.718189 1_555
Al1 Al13 2.718189 1_555
Al1 Al4 2.804439 1_555
Al1 Al5 2.804439 1_555
Al1 Al18 3.036135 1_555
Al1 Al16 3.036135 1_555
Al1 Ho1 3.119212 1_555
Al2 Al9 2.614033 1_554
Al2 Ru2 2.634167 1_565
Al2 Ru1 2.634167 1_555
Al2 Al3 2.673022 1_554
Al2 Al6 2.804439 1_555
Al2 Al7 2.804439 1_555
Al2 Ho1 3.119212 1_555
Al3 Al8 2.614033 1_556
Al3 Ru2 2.634167 1_556
Al3 Ru1 2.634167 1_656
Al3 Al7 2.804439 1_556
Al3 Al6 2.804439 1_556
Al3 Ho0 3.119212 1_555
Al4 Ru3 2.554933 1_555
Al4 Ru0 2.554933 1_555
Al4 Ho1 3.313539 1_545
Al4 Ho0 3.313539 1_455
Al5 Ru0 2.554933 1_655
Al5 Ru3 2.554933 1_565
Al5 Ho1 3.313539 1_655
Al5 Ho0 3.313539 1_565
Al6 Ru2 2.554933 1_565
Al6 Ru1 2.554933 1_655
Al6 Al9 2.749163 1_654
Al6 Al8 2.749163 1_565
Al6 Ho1 3.313539 1_655
Al6 Ho0 3.313539 1_564
Al7 Ru1 2.554933 1_555
Al7 Ru2 2.554933 1_555
Al7 Al9 2.749163 1_544
Al7 Al8 2.749163 1_455
Al7 Ho1 3.313539 1_545
Al7 Ho0 3.313539 1_454
Al8 Ru1 2.606440 1_655
Al8 Ru2 2.606440 1_555
Al8 Ho0 3.189936 1_554
Al8 Ho1 3.200926 1_645
Al9 Ru2 2.606440 1_566
Al9 Ru1 2.606440 1_556
Al9 Ho1 3.189936 1_556
Al9 Ho0 3.200926 1_465
Al10 Ru3 2.606440 1_565
Al10 Ru0 2.606440 1_555
Al10 Al9 2.712796 1_555
Al10 Al4 2.749163 1_565
Al10 Al5 2.749163 1_455
Al10 Al14 2.840351 1_565
Al10 Al12 2.840351 1_455
Al10 Al18 2.885771 1_555
Al10 Al16 2.885771 1_555
Al10 Ho1 3.189936 1_555
Al10 Ho0 3.200926 1_465
Al11 Ru0 2.606440 1_655
Al11 Ru3 2.606440 1_555
Al11 Al8 2.712796 1_555
Al11 Al4 2.749163 1_655
Al11 Al5 2.749163 1_545
Al11 Al13 2.840351 1_655
Al11 Al15 2.840351 1_545
Al11 Al17 2.885771 1_555
Al11 Al19 2.885771 1_555
Al11 Ho0 3.189936 1_555
Al11 Ho1 3.200926 1_645
Al12 Ru0 2.559132 1_655
Al12 Ru1 2.559132 1_656
Al12 Al16 2.637145 1_655
Al12 Al6 2.689818 1_556
Al12 Al5 2.689818 1_555
Al12 Al3 2.718189 1_555
Al12 Al18 2.791926 1_555
Al12 Al9 2.840351 1_655
Al12 Ho0 3.149183 1_555
Al12 Ho0 3.652600 1_565
Al13 Ru1 2.559132 1_555
Al13 Ru0 2.559132 1_555
Al13 Al17 2.637145 1_455
Al13 Al7 2.689818 1_555
Al13 Al4 2.689818 1_555
Al13 Al2 2.718189 1_555
Al13 Al19 2.791926 1_555
Al13 Al8 2.840351 1_455
Al13 Ho1 3.149183 1_555
Al13 Ho1 3.652600 1_545
Al14 Ru2 2.559132 1_556
Al14 Ru3 2.559132 1_555
Al14 Al18 2.637145 1_545
Al14 Al7 2.689818 1_556
Al14 Al4 2.689818 1_555
Al14 Al3 2.718189 1_555
Al14 Al16 2.791926 1_555
Al14 Al9 2.840351 1_545
Al14 Ho0 3.149183 1_555
Al14 Ho0 3.652600 1_455
Al15 Ru2 2.559132 1_565
Al15 Ru3 2.559132 1_565
Al15 Al19 2.637145 1_565
Al15 Al6 2.689818 1_555
Al15 Al5 2.689818 1_555
Al15 Al2 2.718189 1_555
Al15 Al17 2.791926 1_555
Al15 Al8 2.840351 1_565
Al15 Ho1 3.149183 1_555
Al15 Ho1 3.652600 1_655
Al16 Al18 2.704897 1_555
Al16 Ru0 2.724038 1_555
Al16 Ru1 2.724038 1_556
Al16 Al7 2.854038 1_556
Al16 Al4 2.854038 1_555
Al16 Al9 2.885771 1_555
Al16 Al2 3.036135 1_556
Al16 Ho0 3.153645 1_455
Al17 Al19 2.704897 1_555
Al17 Ru0 2.724038 1_655
Al17 Ru1 2.724038 1_655
Al17 Al6 2.854038 1_555
Al17 Al5 2.854038 1_555
Al17 Al8 2.885771 1_555
Al17 Al3 3.036135 1_554
Al17 Ho1 3.153645 1_655
Al18 Ru3 2.724038 1_565
Al18 Ru2 2.724038 1_566
Al18 Al6 2.854038 1_556
Al18 Al5 2.854038 1_555
Al18 Al9 2.885771 1_555
Al18 Al2 3.036135 1_556
Al18 Ho0 3.153645 1_565
Al19 Ru3 2.724038 1_555
Al19 Ru2 2.724038 1_555
Al19 Al7 2.854038 1_555
Al19 Al4 2.854038 1_555
Al19 Al8 2.885771 1_555
Al19 Al3 3.036135 1_554
Al19 Ho1 3.153645 1_545
