# generated using pymatgen
data_SmGaCo
_symmetry_space_group_name_H-M   'P 1'
_cell_length_a   4.67503120
_cell_length_b   4.67503120
_cell_length_c   5.76236700
_cell_angle_alpha   90.00000000
_cell_angle_beta   90.00000000
_cell_angle_gamma   107.29114358
_symmetry_Int_Tables_number   1
_chemical_formula_structural   SmGaCo
_chemical_formula_sum   'Sm2 Ga2 Co2'
_cell_volume   120.25009377
_cell_formula_units_Z   2
loop_
 _symmetry_equiv_pos_site_id
 _symmetry_equiv_pos_as_xyz
  1  'x, y, z'
loop_
 _atom_site_type_symbol
 _atom_site_label
 _atom_site_symmetry_multiplicity
 _atom_site_fract_x
 _atom_site_fract_y
 _atom_site_fract_z
 _atom_site_occupancy
  Sm  Sm0  1  0.84191200  0.15808800  0.75000000  1
  Sm  Sm1  1  0.15808800  0.84191200  0.25000000  1
  Ga  Ga0  1  0.76123300  0.23876700  0.25000000  1
  Ga  Ga1  1  0.23876700  0.76123300  0.75000000  1
  Co  Co0  1  0.50000000  0.50000000  0.50000000  1
  Co  Co1  1  0.50000000  0.50000000  0.00000000  1
loop_
_geom_bond_atom_site_label_1
_geom_bond_atom_site_label_2
_geom_bond_distance
_geom_bond_site_symmetry_2
Ga0 Sm1 2.878045 1_545
Ga0 Sm1 2.878045 1_655
Ga0 Sm0 2.944539 1_554
Ga0 Sm0 2.944539 1_555
Ga0 Sm1 2.988405 1_645
Ga1 Sm0 2.878045 1_455
Ga1 Sm0 2.878045 1_565
Ga1 Sm1 2.944539 1_555
Ga1 Sm1 2.944539 1_556
Ga1 Sm0 2.988405 1_465
Co0 Ga1 2.438227 1_555
Co0 Ga0 2.438227 1_555
Co0 Co1 2.881184 1_555
Co0 Co1 2.881184 1_556
Co0 Sm1 2.950295 1_555
Co0 Sm0 2.950295 1_555
Co0 Sm1 3.342501 1_655
Co0 Sm0 3.342501 1_455
Co0 Sm1 3.342501 1_545
Co0 Sm0 3.342501 1_565
Co1 Ga1 2.438227 1_554
Co1 Ga0 2.438227 1_555
Co1 Sm0 2.950295 1_554
Co1 Sm1 2.950295 1_555
Co1 Sm1 3.342501 1_655
Co1 Sm0 3.342501 1_454
Co1 Sm1 3.342501 1_545
Co1 Sm0 3.342501 1_564
