# generated using pymatgen
data_C50Cl11
_symmetry_space_group_name_H-M   'P 1'
_cell_length_a   13.98590117
_cell_length_b   13.98590117
_cell_length_c   20.84293457
_cell_angle_alpha   100.09973673
_cell_angle_beta   100.09973673
_cell_angle_gamma   111.97168025
_symmetry_Int_Tables_number   1
_chemical_formula_structural   C50Cl11
_chemical_formula_sum   'C200 Cl44'
_cell_volume   3590.29422365
_cell_formula_units_Z   4
loop_
 _symmetry_equiv_pos_site_id
 _symmetry_equiv_pos_as_xyz
  1  'x, y, z'
loop_
 _atom_site_type_symbol
 _atom_site_label
 _atom_site_symmetry_multiplicity
 _atom_site_fract_x
 _atom_site_fract_y
 _atom_site_fract_z
 _atom_site_occupancy
  C  C0  1  0.31722464  0.71795764  0.65286717  1
  C  C1  1  0.71795764  0.31722464  0.15286717  1
  C  C2  1  0.38986480  0.74712313  0.61074079  1
  C  C3  1  0.74712313  0.38986480  0.11074079  1
  C  C4  1  0.45341984  0.85783381  0.61491738  1
  C  C5  1  0.85783381  0.45341984  0.11491738  1
  C  C6  1  0.42876621  0.93411249  0.65391132  1
  C  C7  1  0.93411249  0.42876621  0.15391132  1
  C  C8  1  0.35744482  0.90527562  0.69669358  1
  C  C9  1  0.90527562  0.35744482  0.19669358  1
  C  C10  1  0.30860825  0.80070217  0.70135029  1
  C  C11  1  0.80070217  0.30860825  0.20135029  1
  C  C12  1  0.29491301  0.78514297  0.76665584  1
  C  C13  1  0.78514297  0.29491301  0.26665584  1
  C  C14  1  0.27993088  0.68653431  0.78276952  1
  C  C15  1  0.68653431  0.27993088  0.28276952  1
  C  C16  1  0.24565004  0.58860548  0.72436927  1
  C  C17  1  0.58860548  0.24565004  0.22436927  1
  C  C18  1  0.28747524  0.61648892  0.66497780  1
  C  C19  1  0.61648892  0.28747524  0.16497780  1
  C  C20  1  0.32965709  0.54560628  0.63984877  1
  C  C21  1  0.54560628  0.32965709  0.13984877  1
  C  C22  1  0.39935123  0.57252260  0.60029026  1
  C  C23  1  0.57252260  0.39935123  0.10029026  1
  C  C24  1  0.42842080  0.67203018  0.58559307  1
  C  C25  1  0.67203018  0.42842080  0.08559307  1
  C  C26  1  0.53483545  0.70711580  0.57640378  1
  C  C27  1  0.70711580  0.53483545  0.07640378  1
  C  C28  1  0.59922968  0.81416202  0.58381160  1
  C  C29  1  0.81416202  0.59922968  0.08381160  1
  C  C30  1  0.55721228  0.89386053  0.60131492  1
  C  C31  1  0.89386053  0.55721228  0.10131492  1
  C  C32  1  0.62842508  0.00453291  0.62615931  1
  C  C33  1  0.00453291  0.62842508  0.12615931  1
  C  C34  1  0.60203516  0.07690396  0.66796971  1
  C  C35  1  0.07690396  0.60203516  0.16796971  1
  C  C36  1  0.50198224  0.04135527  0.68043442  1
  C  C37  1  0.04135527  0.50198224  0.18043442  1
  C  C38  1  0.47573016  0.09250980  0.74178383  1
  C  C39  1  0.09250980  0.47573016  0.24178383  1
  C  C40  1  0.38993331  0.99718496  0.75178179  1
  C  C41  1  0.99718496  0.38993331  0.25178179  1
  C  C42  1  0.38335462  0.98375332  0.81400333  1
  C  C43  1  0.98375332  0.38335462  0.31400333  1
  C  C44  1  0.33613774  0.87880783  0.82166755  1
  C  C45  1  0.87880783  0.33613774  0.32166755  1
  C  C46  1  0.37437651  0.87786427  0.88840980  1
  C  C47  1  0.87786427  0.37437651  0.38840980  1
  C  C48  1  0.36836733  0.78339295  0.90298711  1
  C  C49  1  0.78339295  0.36836733  0.40298711  1
  C  C50  1  0.31682945  0.68592947  0.84990337  1
  C  C51  1  0.68592947  0.31682945  0.34990337  1
  C  C52  1  0.32177206  0.58441114  0.86423125  1
  C  C53  1  0.58441114  0.32177206  0.36423125  1
  C  C54  1  0.32950403  0.51255615  0.80403910  1
  C  C55  1  0.51255615  0.32950403  0.30403910  1
  C  C56  1  0.29422869  0.51296445  0.74063757  1
  C  C57  1  0.51296445  0.29422869  0.24063757  1
  C  C58  1  0.33236206  0.47077117  0.68274086  1
  C  C59  1  0.47077117  0.33236206  0.18274086  1
  C  C60  1  0.44587632  0.47979309  0.70682400  1
  C  C61  1  0.47979309  0.44587632  0.20682400  1
  C  C62  1  0.52073344  0.51431271  0.66911975  1
  C  C63  1  0.51431271  0.52073344  0.16911975  1
  C  C64  1  0.48833391  0.53637115  0.60207746  1
  C  C65  1  0.53637115  0.48833391  0.10207746  1
  C  C66  1  0.57655007  0.63227720  0.59271016  1
  C  C67  1  0.63227720  0.57655007  0.09271016  1
  C  C68  1  0.68397387  0.66574001  0.62233610  1
  C  C69  1  0.66574001  0.68397387  0.12233610  1
  C  C70  1  0.75493209  0.77080496  0.62005229  1
  C  C71  1  0.77080496  0.75493209  0.12005229  1
  C  C72  1  0.71273832  0.84408020  0.59975864  1
  C  C73  1  0.84408020  0.71273832  0.09975864  1
  C  C74  1  0.78124077  0.95372952  0.61828108  1
  C  C75  1  0.95372952  0.78124077  0.11828108  1
  C  C76  1  0.74214557  0.04063922  0.62035737  1
  C  C77  1  0.04063922  0.74214557  0.12035737  1
  C  C78  1  0.82291647  0.12387246  0.68279643  1
  C  C79  1  0.12387246  0.82291647  0.18279643  1
  C  C80  1  0.79650659  0.18352461  0.72726296  1
  C  C81  1  0.18352461  0.79650659  0.22726296  1
  C  C82  1  0.68642677  0.18010222  0.71657610  1
  C  C83  1  0.18010222  0.68642677  0.21657610  1
  C  C84  1  0.67139544  0.18423015  0.78733622  1
  C  C85  1  0.18423015  0.67139544  0.28733622  1
  C  C86  1  0.57340563  0.13911895  0.80205246  1
  C  C87  1  0.13911895  0.57340563  0.30205246  1
  C  C88  1  0.57091181  0.11408130  0.86502817  1
  C  C89  1  0.11408130  0.57091181  0.36502817  1
  C  C90  1  0.46125323  0.06224246  0.87876808  1
  C  C91  1  0.06224246  0.46125323  0.37876808  1
  C  C92  1  0.45459429  0.99037121  0.93095530  1
  C  C93  1  0.99037121  0.45459429  0.43095530  1
  C  C94  1  0.55848262  0.98347689  0.95956719  1
  C  C95  1  0.98347689  0.55848262  0.45956719  1
  C  C96  1  0.54784193  0.89325241  0.98178341  1
  C  C97  1  0.89325241  0.54784193  0.48178341  1
  C  C98  1  0.44323324  0.79416151  0.96854099  1
  C  C99  1  0.79416151  0.44323324  0.46854099  1
  C  C100  1  0.48198343  0.70701789  0.96040280  1
  C  C101  1  0.70701789  0.48198343  0.46040280  1
  C  C102  1  0.42561307  0.61022625  0.91361368  1
  C  C103  1  0.61022625  0.42561307  0.41361368  1
  C  C104  1  0.47984044  0.55017385  0.89039006  1
  C  C105  1  0.55017385  0.47984044  0.39039006  1
  C  C106  1  0.41093683  0.46929866  0.82363294  1
  C  C107  1  0.46929866  0.41093683  0.32363294  1
  C  C108  1  0.47883454  0.47233860  0.77394211  1
  C  C109  1  0.47233860  0.47883454  0.27394211  1
  C  C110  1  0.58544908  0.49672917  0.80001600  1
  C  C111  1  0.49672917  0.58544908  0.30001600  1
  C  C112  1  0.66099300  0.53259662  0.76329771  1
  C  C113  1  0.53259662  0.66099300  0.26329771  1
  C  C114  1  0.63240749  0.54719662  0.69810716  1
  C  C115  1  0.54719662  0.63240749  0.19810716  1
  C  C116  1  0.71693199  0.61881747  0.67560462  1
  C  C117  1  0.61881747  0.71693199  0.17560462  1
  C  C118  1  0.82223026  0.66891182  0.71861618  1
  C  C119  1  0.66891182  0.82223026  0.21861618  1
  C  C120  1  0.90769628  0.75570628  0.70009394  1
  C  C121  1  0.75570628  0.90769628  0.20009394  1
  C  C122  1  0.86260905  0.81309515  0.65739258  1
  C  C123  1  0.81309515  0.86260905  0.15739258  1
  C  C124  1  0.92539794  0.92267635  0.67846591  1
  C  C125  1  0.92267635  0.92539794  0.17846591  1
  C  C126  1  0.88472591  0.99268847  0.65897408  1
  C  C127  1  0.99268847  0.88472591  0.15897408  1
  C  C128  1  0.92249909  0.10466155  0.70131002  1
  C  C129  1  0.10466155  0.92249909  0.20131002  1
  C  C130  1  0.95367171  0.10728148  0.77581408  1
  C  C131  1  0.10728148  0.95367171  0.27581408  1
  C  C132  1  0.92169408  0.16688472  0.82208383  1
  C  C133  1  0.16688472  0.92169408  0.32208383  1
  C  C134  1  0.85781640  0.22762091  0.80061850  1
  C  C135  1  0.22762091  0.85781640  0.30061850  1
  C  C136  1  0.76672670  0.20734332  0.83422710  1
  C  C137  1  0.20734332  0.76672670  0.33422710  1
  C  C138  1  0.76601107  0.17837883  0.89526088  1
  C  C139  1  0.17837883  0.76601107  0.39526088  1
  C  C140  1  0.66687625  0.12507663  0.90941855  1
  C  C141  1  0.12507663  0.66687625  0.40941855  1
  C  C142  1  0.66027487  0.05210535  0.95412443  1
  C  C143  1  0.05210535  0.66027487  0.45412443  1
  C  C144  1  0.74944405  0.02789939  0.97406898  1
  C  C145  1  0.02789939  0.74944405  0.47406898  1
  C  C146  1  0.73477421  0.92718932  0.98647487  1
  C  C147  1  0.92718932  0.73477421  0.48647487  1
  C  C148  1  0.63385828  0.86362327  0.99148996  1
  C  C149  1  0.86362327  0.63385828  0.49148996  1
  C  C150  1  0.59416647  0.74957454  0.97775397  1
  C  C151  1  0.74957454  0.59416647  0.47775397  1
  C  C152  1  0.65195184  0.69444012  0.95344664  1
  C  C153  1  0.69444012  0.65195184  0.45344664  1
  C  C154  1  0.59124951  0.58835267  0.91196029  1
  C  C155  1  0.58835267  0.59124951  0.41196029  1
  C  C156  1  0.64080575  0.52512154  0.87454362  1
  C  C157  1  0.52512154  0.64080575  0.37454362  1
  C  C158  1  0.76451002  0.58974116  0.87951352  1
  C  C159  1  0.58974116  0.76451002  0.37951352  1
  C  C160  1  0.76552716  0.58627800  0.80609627  1
  C  C161  1  0.58627800  0.76552716  0.30609627  1
  C  C162  1  0.84618226  0.65518747  0.78510132  1
  C  C163  1  0.65518747  0.84618226  0.28510132  1
  C  C164  1  0.94395244  0.73579775  0.84027515  1
  C  C165  1  0.73579775  0.94395244  0.34027515  1
  C  C166  1  0.99505424  0.83995201  0.82331935  1
  C  C167  1  0.83995201  0.99505424  0.32331935  1
  C  C168  1  0.98234756  0.84823880  0.76003039  1
  C  C169  1  0.84823880  0.98234756  0.26003039  1
  C  C170  1  0.00933091  0.95466403  0.74335247  1
  C  C171  1  0.95466403  0.00933091  0.24335247  1
  C  C172  1  0.99520249  0.03541574  0.79601390  1
  C  C173  1  0.03541574  0.99520249  0.29601390  1
  C  C174  1  0.00417043  0.02376065  0.86222190  1
  C  C175  1  0.02376065  0.00417043  0.36222190  1
  C  C176  1  0.96855934  0.08162064  0.90675537  1
  C  C177  1  0.08162064  0.96855934  0.40675537  1
  C  C178  1  0.92829869  0.15153204  0.88708271  1
  C  C179  1  0.15153204  0.92829869  0.38708271  1
  C  C180  1  0.87141131  0.18594172  0.93530768  1
  C  C181  1  0.18594172  0.87141131  0.43530768  1
  C  C182  1  0.86232871  0.10875430  0.98366981  1
  C  C183  1  0.10875430  0.86232871  0.48366981  1
  C  C184  1  0.94396653  0.05625877  0.97102605  1
  C  C185  1  0.05625877  0.94396653  0.47102605  1
  C  C186  1  0.90233908  0.93589300  0.96041545  1
  C  C187  1  0.93589300  0.90233908  0.46041545  1
  C  C188  1  0.80514187  0.87463139  0.97314803  1
  C  C189  1  0.87463139  0.80514187  0.47314803  1
  C  C190  1  0.76203727  0.75850090  0.95312967  1
  C  C191  1  0.75850090  0.76203727  0.45312967  1
  C  C192  1  0.81480035  0.70830371  0.91697960  1
  C  C193  1  0.70830371  0.81480035  0.41697960  1
  C  C194  1  0.90659409  0.77154172  0.90090276  1
  C  C195  1  0.77154172  0.90659409  0.40090276  1
  C  C196  1  0.95057428  0.88329947  0.92313769  1
  C  C197  1  0.88329947  0.95057428  0.42313769  1
  C  C198  1  0.02650869  0.93408468  0.88271425  1
  C  C199  1  0.93408468  0.02650869  0.38271425  1
  Cl  Cl0  1  0.09859987  0.51776385  0.69805588  1
  Cl  Cl1  1  0.51776385  0.09859987  0.19805588  1
  Cl  Cl2  1  0.42609112  0.19052804  0.72376199  1
  Cl  Cl3  1  0.19052804  0.42609112  0.22376199  1
  Cl  Cl4  1  0.20769646  0.51598098  0.89579173  1
  Cl  Cl5  1  0.51598098  0.20769646  0.39579173  1
  Cl  Cl6  1  0.24471540  0.33229790  0.63575452  1
  Cl  Cl7  1  0.33229790  0.24471540  0.13575452  1
  Cl  Cl8  1  0.45231668  0.41712535  0.53310714  1
  Cl  Cl9  1  0.41712535  0.45231668  0.03310714  1
  Cl  Cl10  1  0.75082133  0.08994842  0.54415910  1
  Cl  Cl11  1  0.08994842  0.75082133  0.04415910  1
  Cl  Cl12  1  0.68242282  0.29539191  0.68746196  1
  Cl  Cl13  1  0.29539191  0.68242282  0.18746196  1
  Cl  Cl14  1  0.42377527  0.17037534  0.90462228  1
  Cl  Cl15  1  0.17037534  0.42377527  0.40462228  1
  Cl  Cl16  1  0.41380037  0.03635774  0.00372540  1
  Cl  Cl17  1  0.03635774  0.41380037  0.50372540  1
  Cl  Cl18  1  0.38269293  0.79371113  0.03914439  1
  Cl  Cl19  1  0.79371113  0.38269293  0.53914439  1
  Cl  Cl20  1  0.34064514  0.33516508  0.83302781  1
  Cl  Cl21  1  0.33516508  0.34064514  0.33302781  1
  Cl  Cl22  1  0.98434195  0.69488327  0.65783058  1
  Cl  Cl23  1  0.69488327  0.98434195  0.15783058  1
  Cl  Cl24  1  0.03410354  0.20104041  0.68044288  1
  Cl  Cl25  1  0.20104041  0.03410354  0.18044288  1
  Cl  Cl26  1  0.94429629  0.36935951  0.81815012  1
  Cl  Cl27  1  0.36935951  0.94429629  0.31815012  1
  Cl  Cl28  1  0.61331945  0.40431828  0.90217344  1
  Cl  Cl29  1  0.40431828  0.61331945  0.40217344  1
  Cl  Cl30  1  0.84627054  0.53016200  0.91728675  1
  Cl  Cl31  1  0.53016200  0.84627054  0.41728675  1
  Cl  Cl32  1  0.04479330  0.68343413  0.85914334  1
  Cl  Cl33  1  0.68343413  0.04479330  0.35914334  1
  Cl  Cl34  1  0.14574595  0.01112336  0.73473314  1
  Cl  Cl35  1  0.01112336  0.14574595  0.23473314  1
  Cl  Cl36  1  0.95351337  0.32531861  0.98108914  1
  Cl  Cl37  1  0.32531861  0.95351337  0.48108914  1
  Cl  Cl38  1  0.89224115  0.17763395  0.07115626  1
  Cl  Cl39  1  0.17763395  0.89224115  0.57115626  1
  Cl  Cl40  1  0.06577153  0.11815227  0.03912471  1
  Cl  Cl41  1  0.11815227  0.06577153  0.53912471  1
  Cl  Cl42  1  0.16618851  0.98238449  0.92909015  1
  Cl  Cl43  1  0.98238449  0.16618851  0.42909015  1
loop_
_geom_bond_atom_site_label_1
_geom_bond_atom_site_label_2
_geom_bond_distance
_geom_bond_site_symmetry_2
C0 C18 1.404065 1_555
C0 C2 1.448392 1_555
C0 C10 1.453221 1_555
C1 C19 1.404065 1_555
C1 C3 1.448392 1_555
C1 C11 1.453221 1_555
C2 C24 1.413638 1_555
C2 C4 1.445985 1_555
C3 C5 1.445985 1_555
C4 C6 1.409614 1_555
C5 C7 1.409614 1_555
C6 C8 1.445631 1_555
C7 C9 1.445631 1_555
C10 C8 1.393028 1_555
C10 C12 1.449459 1_555
C11 C9 1.393028 1_555
C11 C13 1.449459 1_555
C12 C14 1.424640 1_555
C12 C44 1.428059 1_555
C13 C15 1.424640 1_555
C13 C45 1.428059 1_555
C14 C50 1.406589 1_555
C14 C16 1.518756 1_555
C15 C51 1.406589 1_555
C15 C17 1.518756 1_555
C16 C56 1.509506 1_555
C16 C18 1.509707 1_555
C16 Cl0 1.844235 1_555
C17 C57 1.509506 1_555
C17 C19 1.509707 1_555
C17 Cl1 1.844235 1_555
C18 C20 1.403234 1_555
C19 C21 1.403234 1_555
C20 C22 1.373973 1_555
C20 C58 1.497346 1_555
C21 C23 1.373973 1_555
C21 C59 1.497346 1_555
C22 C24 1.402061 1_555
C22 C64 1.505662 1_555
C23 C25 1.402061 1_555
C23 C65 1.505662 1_555
C24 C26 1.441864 1_555
C25 C3 1.413638 1_555
C25 C27 1.441864 1_555
C26 C28 1.391963 1_555
C26 C66 1.436527 1_555
C27 C29 1.391963 1_555
C27 C67 1.436527 1_555
C28 C72 1.440441 1_555
C28 C30 1.464107 1_555
C29 C73 1.440441 1_555
C29 C31 1.464107 1_555
C30 C32 1.428416 1_565
C30 C4 1.445204 1_555
C31 C33 1.428416 1_655
C31 C5 1.445204 1_555
C32 C34 1.415325 1_555
C32 C76 1.512329 1_555
C33 C35 1.415325 1_555
C33 C77 1.512329 1_555
C34 C36 1.387448 1_555
C34 C82 1.515145 1_555
C35 C37 1.387448 1_555
C35 C83 1.515145 1_555
C36 C6 1.401854 1_545
C36 C38 1.523847 1_555
C37 C7 1.401854 1_455
C37 C39 1.523847 1_555
C38 C40 1.499587 1_545
C38 C86 1.521075 1_555
C38 Cl2 1.817603 1_555
C39 C41 1.499587 1_455
C39 C87 1.521075 1_555
C39 Cl3 1.817603 1_555
C40 C42 1.356470 1_555
C40 C8 1.428103 1_555
C41 C43 1.356470 1_555
C41 C9 1.428103 1_555
C42 C44 1.417693 1_555
C42 C90 1.511207 1_565
C43 C45 1.417693 1_555
C43 C91 1.511207 1_655
C44 C46 1.404333 1_555
C45 C47 1.404333 1_555
C46 C48 1.382672 1_555
C46 C92 1.536777 1_555
C47 C49 1.382672 1_555
C47 C93 1.536777 1_555
C48 C50 1.434543 1_555
C48 C98 1.514584 1_555
C49 C51 1.434543 1_555
C49 C99 1.514584 1_555
C50 C52 1.524723 1_555
C51 C53 1.524723 1_555
C52 C54 1.510733 1_555
C52 Cl4 1.827684 1_555
C53 C55 1.510733 1_555
C53 Cl5 1.827684 1_555
C54 C56 1.328843 1_555
C55 C57 1.328843 1_555
C56 C58 1.516694 1_555
C57 C59 1.516694 1_555
C58 C60 1.528642 1_555
C58 Cl6 1.830225 1_555
C59 C61 1.528642 1_555
C59 Cl7 1.830225 1_555
C60 C62 1.410732 1_555
C61 C63 1.410732 1_555
C62 C64 1.512232 1_555
C63 C65 1.512232 1_555
C64 C66 1.515744 1_555
C64 Cl8 1.837995 1_555
C65 C67 1.515744 1_555
C65 Cl9 1.837995 1_555
C66 C68 1.380107 1_555
C67 C69 1.380107 1_555
C68 C70 1.447841 1_555
C69 C71 1.447841 1_555
C70 C72 1.447217 1_555
C71 C73 1.447217 1_555
C72 C74 1.407801 1_555
C73 C75 1.407801 1_555
C74 C76 1.505155 1_565
C75 C77 1.505155 1_655
C76 C78 1.514572 1_555
C76 Cl10 1.844395 1_555
C77 C79 1.514572 1_555
C77 Cl11 1.844395 1_555
C78 C80 1.330759 1_555
C79 C81 1.330759 1_555
C80 C82 1.497669 1_555
C81 C83 1.497669 1_555
C82 C84 1.520088 1_555
C82 Cl12 1.835789 1_555
C83 C85 1.520088 1_555
C83 Cl13 1.835789 1_555
C84 C86 1.392347 1_555
C85 C87 1.392347 1_555
C86 C88 1.419464 1_555
C87 C89 1.419464 1_555
C88 C90 1.534477 1_555
C89 C91 1.534477 1_555
C90 C92 1.597243 1_545
C90 Cl14 1.805191 1_555
C91 C93 1.597243 1_455
C91 Cl15 1.805191 1_555
C92 C94 1.515642 1_555
C92 Cl16 1.809872 1_566
C93 C95 1.515642 1_555
C93 Cl17 1.809872 1_655
C94 C96 1.384723 1_555
C95 C97 1.384723 1_555
C96 C98 1.531113 1_555
C97 C99 1.531113 1_555
C98 Cl18 1.821751 1_556
C99 Cl19 1.821751 1_555
C100 C102 1.368894 1_555
C100 C150 1.404795 1_555
C100 C98 1.503969 1_555
C101 C103 1.368894 1_555
C101 C151 1.404795 1_555
C101 C99 1.503969 1_555
C102 C104 1.406320 1_555
C102 C52 1.500662 1_555
C103 C105 1.406320 1_555
C103 C53 1.500662 1_555
C104 C154 1.400938 1_555
C104 C106 1.518617 1_555
C105 C155 1.400938 1_555
C105 C107 1.518617 1_555
C106 C54 1.506337 1_555
C106 C108 1.518691 1_555
C106 Cl20 1.827680 1_555
C107 C55 1.506337 1_555
C107 C109 1.518691 1_555
C107 Cl21 1.827680 1_555
C108 C110 1.380305 1_555
C108 C60 1.428750 1_555
C109 C111 1.380305 1_555
C109 C61 1.428750 1_555
C110 C112 1.405450 1_555
C110 C156 1.517193 1_555
C111 C113 1.405450 1_555
C111 C157 1.517193 1_555
C112 C160 1.408267 1_555
C112 C114 1.419732 1_555
C113 C161 1.408267 1_555
C113 C115 1.419732 1_555
C114 C62 1.431795 1_555
C114 C116 1.447057 1_555
C115 C63 1.431795 1_555
C115 C117 1.447057 1_555
C116 C118 1.417023 1_555
C116 C68 1.475893 1_555
C117 C119 1.417023 1_555
C117 C69 1.475893 1_555
C118 C162 1.431065 1_555
C118 C120 1.513873 1_555
C119 C163 1.431065 1_555
C119 C121 1.513873 1_555
C120 C122 1.505470 1_555
C120 C168 1.513266 1_555
C120 Cl22 1.843752 1_555
C121 C123 1.505470 1_555
C121 C169 1.513266 1_555
C121 Cl23 1.843752 1_555
C122 C124 1.390845 1_555
C122 C70 1.408696 1_555
C123 C125 1.390845 1_555
C123 C71 1.408696 1_555
C124 C126 1.386611 1_555
C124 C170 1.498401 1_655
C125 C127 1.386611 1_555
C125 C171 1.498401 1_565
C126 C74 1.388631 1_555
C126 C128 1.497659 1_565
C127 C75 1.388631 1_555
C127 C129 1.497659 1_655
C128 C78 1.512859 1_555
C128 C130 1.527582 1_555
C128 Cl24 1.819836 1_655
C129 C79 1.512859 1_555
C129 C131 1.527582 1_555
C129 Cl25 1.819836 1_565
C130 C132 1.404733 1_555
C130 C172 1.422812 1_555
C131 C133 1.404733 1_555
C131 C173 1.422812 1_555
C132 C178 1.401074 1_555
C132 C134 1.510249 1_555
C133 C179 1.401074 1_555
C133 C135 1.510249 1_555
C134 C80 1.505670 1_555
C134 C136 1.518699 1_555
C134 Cl26 1.822878 1_555
C135 C81 1.505670 1_555
C135 C137 1.518699 1_555
C135 Cl27 1.822878 1_555
C136 C84 1.395358 1_555
C136 C138 1.401667 1_555
C137 C85 1.395358 1_555
C137 C139 1.401667 1_555
C138 C140 1.418583 1_555
C138 C180 1.517148 1_555
C139 C141 1.418583 1_555
C139 C181 1.517148 1_555
C140 C88 1.428700 1_555
C140 C142 1.487122 1_555
C141 C89 1.428700 1_555
C141 C143 1.487122 1_555
C142 C144 1.423436 1_555
C142 C94 1.425921 1_545
C143 C145 1.423436 1_555
C143 C95 1.425921 1_455
C144 C146 1.422316 1_545
C144 C182 1.511711 1_555
C145 C147 1.422316 1_455
C145 C183 1.511711 1_555
C146 C148 1.392387 1_555
C146 C188 1.466849 1_555
C147 C149 1.392387 1_555
C147 C189 1.466849 1_555
C148 C96 1.406051 1_555
C148 C150 1.433840 1_555
C149 C97 1.406051 1_555
C149 C151 1.433840 1_555
C150 C152 1.406186 1_555
C151 C153 1.406186 1_555
C152 C154 1.421225 1_555
C152 C190 1.465156 1_555
C153 C155 1.421225 1_555
C153 C191 1.465156 1_555
C154 C156 1.508966 1_555
C155 C157 1.508966 1_555
C156 C158 1.598462 1_555
C156 Cl28 1.807445 1_555
C157 C159 1.598462 1_555
C157 Cl29 1.807445 1_555
C158 C160 1.525225 1_555
C158 C192 1.527949 1_555
C158 Cl30 1.802528 1_555
C159 C161 1.525225 1_555
C159 C193 1.527949 1_555
C159 Cl31 1.802528 1_555
C160 C162 1.378518 1_555
C161 C163 1.378518 1_555
C162 C164 1.517725 1_555
C163 C165 1.517725 1_555
C164 C166 1.499246 1_555
C164 C194 1.524860 1_555
C164 Cl32 1.832885 1_655
C165 C167 1.499246 1_555
C165 C195 1.524860 1_555
C165 Cl33 1.832885 1_565
C166 C168 1.331137 1_555
C166 C198 1.504435 1_655
C167 C169 1.331137 1_555
C167 C199 1.504435 1_565
C168 C170 1.511917 1_655
C169 C171 1.511917 1_565
C170 C172 1.525652 1_465
C170 Cl34 1.827146 1_565
C171 C173 1.525652 1_645
C171 Cl35 1.827146 1_655
C172 C174 1.407162 1_655
C173 C175 1.407162 1_565
C174 C176 1.401700 1_455
C174 C198 1.512397 1_545
C175 C177 1.401700 1_545
C175 C199 1.512397 1_455
C176 C178 1.383060 1_555
C176 C184 1.508502 1_555
C177 C179 1.383060 1_555
C177 C185 1.508502 1_555
C178 C180 1.507410 1_555
C179 C181 1.507410 1_555
C180 C182 1.587942 1_555
C180 Cl36 1.821339 1_555
C181 C183 1.587942 1_555
C181 Cl37 1.821339 1_555
C182 C184 1.605340 1_555
C182 Cl38 1.800802 1_556
C183 C185 1.605340 1_555
C183 Cl39 1.800802 1_555
C184 C186 1.520741 1_545
C184 Cl40 1.812070 1_656
C185 C187 1.520741 1_455
C185 Cl41 1.812070 1_565
C186 C196 1.398059 1_555
C186 C188 1.409678 1_555
C187 C197 1.398059 1_555
C187 C189 1.409678 1_555
C188 C190 1.454965 1_555
C189 C191 1.454965 1_555
C190 C192 1.415030 1_555
C191 C193 1.415030 1_555
C192 C194 1.395661 1_555
C193 C195 1.395661 1_555
C194 C196 1.400976 1_555
C195 C197 1.400976 1_555
C196 C198 1.517068 1_655
C197 C199 1.517068 1_565
C198 Cl42 1.824343 1_555
C199 Cl43 1.824343 1_555
