# generated using pymatgen
data_MgMn4(Si4O11)2
_symmetry_space_group_name_H-M   'P 1'
_cell_length_a   9.46460733
_cell_length_b   7.48343956
_cell_length_c   7.33525045
_cell_angle_alpha   115.86380218
_cell_angle_beta   107.51394395
_cell_angle_gamma   91.43993707
_symmetry_Int_Tables_number   1
_chemical_formula_structural   MgMn4(Si4O11)2
_chemical_formula_sum   'Mg1 Mn4 Si8 O22'
_cell_volume   438.35967226
_cell_formula_units_Z   1
loop_
 _symmetry_equiv_pos_site_id
 _symmetry_equiv_pos_as_xyz
  1  'x, y, z'
loop_
 _atom_site_type_symbol
 _atom_site_label
 _atom_site_symmetry_multiplicity
 _atom_site_fract_x
 _atom_site_fract_y
 _atom_site_fract_z
 _atom_site_occupancy
  Mg  Mg0  1  0.49730800  0.49497900  0.99517600  1
  Mn  Mn0  1  0.27782500  0.68676700  0.73071800  1
  Mn  Mn1  1  0.38659200  0.63860500  0.34989500  1
  Mn  Mn2  1  0.60809800  0.35133700  0.64060200  1
  Mn  Mn3  1  0.71672300  0.30356600  0.25975800  1
  Si  Si0  1  0.05991400  0.36763200  0.24216800  1
  Si  Si1  1  0.20924300  0.20276300  0.92626300  1
  Si  Si2  1  0.24821600  0.17355600  0.51198700  1
  Si  Si3  1  0.60222900  0.99986800  0.80537200  1
  Si  Si4  1  0.39237700  0.99003300  0.18507700  1
  Si  Si5  1  0.74643600  0.81647000  0.47849300  1
  Si  Si6  1  0.78548000  0.78717500  0.06423400  1
  Si  Si7  1  0.93469900  0.62248300  0.74837500  1
  O  O0  1  0.09550500  0.56891200  0.74546600  1
  O  O1  1  0.11132200  0.21248500  0.34704400  1
  O  O2  1  0.20116900  0.56923000  0.38767200  1
  O  O3  1  0.05891000  0.24813300  0.98954700  1
  O  O4  1  0.18869300  0.11576700  0.67088200  1
  O  O5  1  0.31491900  0.98075300  0.35841200  1
  O  O6  1  0.39160900  0.36670400  0.65359500  1
  O  O7  1  0.45866400  0.80965800  0.66424300  1
  O  O8  1  0.42589500  0.76813800  0.05638100  1
  O  O9  1  0.27403800  0.02474700  0.98863200  1
  O  O10  1  0.33154800  0.41216800  0.06849400  1
  O  O11  1  0.66325100  0.57772800  0.92211900  1
  O  O12  1  0.72061600  0.96508400  0.00168400  1
  O  O13  1  0.56864700  0.22171600  0.93398100  1
  O  O14  1  0.53593100  0.18024700  0.32624200  1
  O  O15  1  0.60314200  0.62318600  0.33682400  1
  O  O16  1  0.67952500  0.00915000  0.63185700  1
  O  O17  1  0.80602100  0.87433700  0.31969800  1
  O  O18  1  0.93584200  0.74187500  0.00106600  1
  O  O19  1  0.79346900  0.42085900  0.60289300  1
  O  O20  1  0.88324800  0.77770400  0.64360400  1
  O  O21  1  0.89914700  0.42118100  0.24487900  1
loop_
_geom_bond_atom_site_label_1
_geom_bond_atom_site_label_2
_geom_bond_distance
_geom_bond_site_symmetry_2
Mg0 O10 1.970868 1_556
Mg0 O11 1.970941 1_555
Mg0 O8 2.070846 1_556
Mg0 O13 2.071264 1_555
Mg0 O6 2.131865 1_555
Mg0 O15 2.132448 1_556
Mn0 O0 1.971375 1_555
Mn0 O2 2.137761 1_555
Mn0 O8 2.171247 1_556
Mn0 O7 2.197142 1_555
Mn0 O9 2.418298 1_565
Mn0 O6 2.555539 1_555
Mn1 O10 1.913181 1_555
Mn1 O2 1.949002 1_555
Mn1 O7 1.963402 1_555
Mn1 O15 2.084158 1_555
Mn2 O11 1.913483 1_555
Mn2 O19 1.948613 1_555
Mn2 O14 1.963488 1_555
Mn2 O6 2.083376 1_555
Mn3 O21 1.971929 1_555
Mn3 O19 2.138527 1_555
Mn3 O13 2.171149 1_554
Mn3 O14 2.198403 1_555
Mn3 O12 2.421613 1_545
Mn3 O15 2.551759 1_555
O0 Si7 1.587545 1_455
O1 Si2 1.615677 1_555
O1 Si0 1.660998 1_555
O2 Si0 1.684487 1_555
O3 Si1 1.624668 1_555
O3 Si0 1.666360 1_556
O4 Si1 1.637429 1_555
O4 Si2 1.638778 1_555
O5 Si4 1.671636 1_555
O5 Si2 1.674842 1_565
O6 Si2 1.659239 1_555
O7 Si3 1.647622 1_555
O8 Si4 1.608806 1_555
O9 Si1 1.662527 1_555
O9 Si4 1.663788 1_546
O10 Si1 1.624710 1_554
O11 Si6 1.624558 1_556
O12 Si6 1.662664 1_555
O12 Si3 1.663553 1_554
O13 Si3 1.608648 1_545
O14 Si4 1.647576 1_545
O15 Si5 1.659257 1_555
O16 Si3 1.671823 1_545
O16 Si5 1.674860 1_545
O17 Si6 1.637889 1_555
O17 Si5 1.638749 1_555
O18 Si6 1.624488 1_555
O18 Si7 1.666319 1_554
O19 Si7 1.684466 1_555
O20 Si5 1.615307 1_555
O20 Si7 1.661048 1_555
O21 Si0 1.586865 1_655
