# generated using pymatgen
data_Ba2Eu(CuO2)4
_symmetry_space_group_name_H-M   'P 1'
_cell_length_a   13.99946854
_cell_length_b   13.99946854
_cell_length_c   3.91390400
_cell_angle_alpha   90.00000000
_cell_angle_beta   90.00000000
_cell_angle_gamma   164.06366492
_symmetry_Int_Tables_number   1
_chemical_formula_structural   Ba2Eu(CuO2)4
_chemical_formula_sum   'Ba2 Eu1 Cu4 O8'
_cell_volume   210.61285556
_cell_formula_units_Z   1
loop_
 _symmetry_equiv_pos_site_id
 _symmetry_equiv_pos_as_xyz
  1  'x, y, z'
loop_
 _atom_site_type_symbol
 _atom_site_label
 _atom_site_symmetry_multiplicity
 _atom_site_fract_x
 _atom_site_fract_y
 _atom_site_fract_z
 _atom_site_occupancy
  Ba  Ba0  1  0.63536400  0.36463600  0.50000000  1
  Ba  Ba1  1  0.36463600  0.63536400  0.50000000  1
  Eu  Eu0  1  0.50000000  0.50000000  0.50000000  1
  Cu  Cu0  1  0.93722400  0.06277600  0.00000000  1
  Cu  Cu1  1  0.06277600  0.93722400  0.00000000  1
  Cu  Cu2  1  0.78729700  0.21270300  0.00000000  1
  Cu  Cu3  1  0.21270300  0.78729700  0.00000000  1
  O  O0  1  0.85407400  0.14592600  0.00000000  1
  O  O1  1  0.14592600  0.85407400  0.00000000  1
  O  O2  1  0.55440700  0.44559300  0.00000000  1
  O  O3  1  0.44559300  0.55440700  0.00000000  1
  O  O4  1  0.71918500  0.28081500  0.00000000  1
  O  O5  1  0.28081500  0.71918500  0.00000000  1
  O  O6  1  0.94508000  0.05492000  0.50000000  1
  O  O7  1  0.05492000  0.94508000  0.50000000  1
loop_
_geom_bond_atom_site_label_1
_geom_bond_atom_site_label_2
_geom_bond_distance
_geom_bond_site_symmetry_2
Ba0 O1 2.771560 1_546
Ba0 O1 2.771560 1_545
Ba0 O1 2.771560 1_656
Ba0 O1 2.771560 1_655
Ba0 O7 2.956635 1_545
Ba0 O7 2.956635 1_655
Ba0 O2 2.978070 1_555
Ba0 O2 2.978070 1_556
Ba0 O4 3.038380 1_555
Ba0 O4 3.038380 1_556
Ba1 O0 2.771560 1_456
Ba1 O0 2.771560 1_455
Ba1 O0 2.771560 1_566
Ba1 O0 2.771560 1_565
Ba1 O6 2.956635 1_455
Ba1 O6 2.956635 1_565
Ba1 O3 2.978070 1_556
Ba1 O3 2.978070 1_555
Ba1 O5 3.038380 1_555
Ba1 O5 3.038380 1_556
Eu0 O7 2.466820 1_545
Eu0 O6 2.466820 1_455
Eu0 O6 2.466820 1_565
Eu0 O7 2.466820 1_655
Eu0 O3 2.470957 1_556
Eu0 O3 2.470957 1_555
Eu0 O2 2.470957 1_555
Eu0 O2 2.470957 1_556
Cu0 O3 1.954473 1_655
Cu0 O3 1.954473 1_545
Cu0 O6 1.969039 1_554
Cu0 O6 1.969039 1_555
Cu0 O0 2.305634 1_555
Cu1 O2 1.954473 1_565
Cu1 O2 1.954473 1_455
Cu1 O7 1.969039 1_555
Cu1 O7 1.969039 1_554
Cu1 O1 2.305634 1_555
Cu2 O0 1.851634 1_555
Cu2 O4 1.888651 1_555
Cu2 O5 1.948953 1_545
Cu2 O5 1.948953 1_655
Cu3 O1 1.851634 1_555
Cu3 O5 1.888651 1_555
Cu3 O4 1.948953 1_455
Cu3 O4 1.948953 1_565
