# generated using pymatgen
data_Si
_symmetry_space_group_name_H-M   'P 1'
_cell_length_a   5.33115474
_cell_length_b   5.33115530
_cell_length_c   9.01253854
_cell_angle_alpha   90.00000000
_cell_angle_beta   90.00000000
_cell_angle_gamma   120.00000836
_symmetry_Int_Tables_number   1
_chemical_formula_structural   Si
_chemical_formula_sum   Si16
_cell_volume   221.83003725
_cell_formula_units_Z   16
loop_
 _symmetry_equiv_pos_site_id
 _symmetry_equiv_pos_as_xyz
  1  'x, y, z'
loop_
 _atom_site_type_symbol
 _atom_site_label
 _atom_site_symmetry_multiplicity
 _atom_site_fract_x
 _atom_site_fract_y
 _atom_site_fract_z
 _atom_site_occupancy
  Si  Si0_0  1  0.16666650  0.33333350  0.12500000  1
  Si  Si0_1  1  0.16666650  0.33333350  0.62500000  1
  Si  Si0_2  1  0.16666650  0.83333350  0.12500000  1
  Si  Si0_3  1  0.16666650  0.83333350  0.62500000  1
  Si  Si0_4  1  0.66666650  0.33333350  0.12500000  1
  Si  Si0_5  1  0.66666650  0.33333350  0.62500000  1
  Si  Si0_6  1  0.66666650  0.83333350  0.12500000  1
  Si  Si0_7  1  0.66666650  0.83333350  0.62500000  1
  Si  Si1_0  1  0.33333350  0.16666650  0.37500000  1
  Si  Si1_1  1  0.33333350  0.16666650  0.87500000  1
  Si  Si1_2  1  0.33333350  0.66666650  0.37500000  1
  Si  Si1_3  1  0.33333350  0.66666650  0.87500000  1
  Si  Si1_4  1  0.83333350  0.16666650  0.37500000  1
  Si  Si1_5  1  0.83333350  0.16666650  0.87500000  1
  Si  Si1_6  1  0.83333350  0.66666650  0.37500000  1
  Si  Si1_7  1  0.83333350  0.66666650  0.87500000  1
loop_
_geom_bond_atom_site_label_1
_geom_bond_atom_site_label_2
_geom_bond_distance
_geom_bond_site_symmetry_2
Si0_0 Si0_6 2.665577 1_445
Si0_0 Si0_6 2.665577 1_555
Si0_0 Si0_4 2.665577 1_455
Si0_0 Si0_4 2.665577 1_555
Si0_0 Si0_2 2.665578 1_545
Si0_0 Si0_2 2.665578 1_555
Si0_0 Si1_4 2.728561 1_455
Si0_0 Si1_5 2.728561 1_454
Si0_0 Si1_2 2.728561 1_555
Si0_0 Si1_3 2.728561 1_554
Si0_0 Si1_0 2.728564 1_555
Si0_0 Si1_1 2.728564 1_554
Si0_1 Si0_7 2.665577 1_445
Si0_1 Si0_7 2.665577 1_555
Si0_1 Si0_5 2.665577 1_455
Si0_1 Si0_5 2.665577 1_555
Si0_1 Si0_3 2.665578 1_545
Si0_1 Si0_3 2.665578 1_555
Si0_1 Si1_5 2.728561 1_455
Si0_1 Si1_4 2.728561 1_455
Si0_1 Si1_3 2.728561 1_555
Si0_1 Si1_2 2.728561 1_555
Si0_1 Si1_1 2.728564 1_555
Si0_1 Si1_0 2.728564 1_555
Si0_2 Si0_4 2.665577 1_455
Si0_2 Si0_4 2.665577 1_565
Si0_2 Si0_6 2.665577 1_455
Si0_2 Si0_6 2.665577 1_555
Si0_2 Si1_6 2.728561 1_455
Si0_2 Si1_7 2.728561 1_454
Si0_2 Si1_0 2.728561 1_565
Si0_2 Si1_1 2.728561 1_564
Si0_2 Si1_2 2.728564 1_555
Si0_2 Si1_3 2.728564 1_554
Si0_3 Si0_5 2.665577 1_565
Si0_3 Si0_5 2.665577 1_455
Si0_3 Si0_7 2.665577 1_455
Si0_3 Si0_7 2.665577 1_555
Si0_3 Si1_7 2.728561 1_455
Si0_3 Si1_6 2.728561 1_455
Si0_3 Si1_1 2.728561 1_565
Si0_3 Si1_0 2.728561 1_565
Si0_3 Si1_3 2.728564 1_555
Si0_3 Si1_2 2.728564 1_555
Si0_4 Si0_6 2.665578 1_545
Si0_4 Si0_6 2.665578 1_555
Si0_4 Si1_0 2.728561 1_555
Si0_4 Si1_1 2.728561 1_554
Si0_4 Si1_6 2.728561 1_555
Si0_4 Si1_7 2.728561 1_554
Si0_4 Si1_4 2.728564 1_555
Si0_4 Si1_5 2.728564 1_554
Si0_5 Si0_7 2.665578 1_545
Si0_5 Si0_7 2.665578 1_555
Si0_5 Si1_1 2.728561 1_555
Si0_5 Si1_0 2.728561 1_555
Si0_5 Si1_7 2.728561 1_555
Si0_5 Si1_6 2.728561 1_555
Si0_5 Si1_5 2.728564 1_555
Si0_5 Si1_4 2.728564 1_555
Si0_6 Si1_2 2.728561 1_555
Si0_6 Si1_3 2.728561 1_554
Si0_6 Si1_4 2.728561 1_565
Si0_6 Si1_5 2.728561 1_564
Si0_6 Si1_6 2.728564 1_555
Si0_6 Si1_7 2.728564 1_554
Si0_7 Si1_3 2.728561 1_555
Si0_7 Si1_2 2.728561 1_555
Si0_7 Si1_5 2.728561 1_565
Si0_7 Si1_4 2.728561 1_565
Si0_7 Si1_7 2.728564 1_555
Si0_7 Si1_6 2.728564 1_555
Si1_0 Si1_6 2.665577 1_445
Si1_0 Si1_6 2.665577 1_555
Si1_0 Si1_4 2.665577 1_455
Si1_0 Si1_4 2.665577 1_555
Si1_0 Si1_2 2.665578 1_545
Si1_0 Si1_2 2.665578 1_555
Si1_1 Si1_7 2.665577 1_555
Si1_1 Si1_7 2.665577 1_445
Si1_1 Si1_5 2.665577 1_455
Si1_1 Si1_5 2.665577 1_555
Si1_1 Si1_3 2.665578 1_545
Si1_1 Si1_3 2.665578 1_555
Si1_2 Si1_4 2.665577 1_565
Si1_2 Si1_4 2.665577 1_455
Si1_2 Si1_6 2.665577 1_455
Si1_2 Si1_6 2.665577 1_555
Si1_3 Si1_5 2.665577 1_565
Si1_3 Si1_5 2.665577 1_455
Si1_3 Si1_7 2.665577 1_455
Si1_3 Si1_7 2.665577 1_555
Si1_4 Si1_6 2.665578 1_545
Si1_4 Si1_6 2.665578 1_555
Si1_5 Si1_7 2.665578 1_545
Si1_5 Si1_7 2.665578 1_555
