# generated using pymatgen
data_Sc6Ga16Os7
_symmetry_space_group_name_H-M   'P 1'
_cell_length_a   8.81463474
_cell_length_b   8.81463474
_cell_length_c   8.81463474
_cell_angle_alpha   60.00000000
_cell_angle_beta   60.00000000
_cell_angle_gamma   60.00000000
_symmetry_Int_Tables_number   1
_chemical_formula_structural   Sc6Ga16Os7
_chemical_formula_sum   'Sc6 Ga16 Os7'
_cell_volume   484.28159575
_cell_formula_units_Z   1
loop_
 _symmetry_equiv_pos_site_id
 _symmetry_equiv_pos_as_xyz
  1  'x, y, z'
loop_
 _atom_site_type_symbol
 _atom_site_label
 _atom_site_symmetry_multiplicity
 _atom_site_fract_x
 _atom_site_fract_y
 _atom_site_fract_z
 _atom_site_occupancy
  Sc  Sc0  1  0.71660700  0.71660700  0.28339300  1
  Sc  Sc1  1  0.28339300  0.71660700  0.28339300  1
  Sc  Sc2  1  0.71660700  0.28339300  0.28339300  1
  Sc  Sc3  1  0.28339300  0.28339300  0.71660700  1
  Sc  Sc4  1  0.71660700  0.28339300  0.71660700  1
  Sc  Sc5  1  0.28339300  0.71660700  0.71660700  1
  Ga  Ga0  1  0.87814300  0.87814300  0.36557100  1
  Ga  Ga1  1  0.87814300  0.36557100  0.87814300  1
  Ga  Ga2  1  0.36557100  0.87814300  0.87814300  1
  Ga  Ga3  1  0.87814300  0.87814300  0.87814300  1
  Ga  Ga4  1  0.12185700  0.12185700  0.63442900  1
  Ga  Ga5  1  0.12185700  0.63442900  0.12185700  1
  Ga  Ga6  1  0.63442900  0.12185700  0.12185700  1
  Ga  Ga7  1  0.12185700  0.12185700  0.12185700  1
  Ga  Ga8  1  0.65741700  0.65741700  0.02775000  1
  Ga  Ga9  1  0.65741700  0.02775000  0.65741700  1
  Ga  Ga10  1  0.02775000  0.65741700  0.65741700  1
  Ga  Ga11  1  0.65741700  0.65741700  0.65741700  1
  Ga  Ga12  1  0.34258300  0.34258300  0.97225000  1
  Ga  Ga13  1  0.34258300  0.97225000  0.34258300  1
  Ga  Ga14  1  0.97225000  0.34258300  0.34258300  1
  Ga  Ga15  1  0.34258300  0.34258300  0.34258300  1
  Os  Os0  1  0.00000000  0.00000000  0.00000000  1
  Os  Os1  1  0.00000000  0.00000000  0.50000000  1
  Os  Os2  1  0.50000000  0.00000000  0.50000000  1
  Os  Os3  1  0.00000000  0.50000000  0.50000000  1
  Os  Os4  1  0.50000000  0.50000000  0.00000000  1
  Os  Os5  1  0.00000000  0.50000000  0.00000000  1
  Os  Os6  1  0.50000000  0.00000000  0.00000000  1
loop_
_geom_bond_atom_site_label_1
_geom_bond_atom_site_label_2
_geom_bond_distance
_geom_bond_site_symmetry_2
Ga0 Os0 2.631058 1_665
Ga0 Os3 2.722292 1_655
Ga0 Os1 2.722292 1_665
Ga0 Os2 2.722292 1_565
Ga0 Sc2 2.944461 1_565
Ga0 Sc0 2.944461 1_555
Ga0 Sc1 2.944461 1_655
Ga1 Os0 2.631058 1_656
Ga1 Os3 2.722292 1_655
Ga1 Os5 2.722292 1_656
Ga1 Os4 2.722292 1_556
Ga1 Sc2 2.944461 1_556
Ga1 Sc4 2.944461 1_555
Ga1 Sc3 2.944461 1_655
Ga2 Os0 2.631058 1_566
Ga2 Os2 2.722292 1_565
Ga2 Os6 2.722292 1_566
Ga2 Os4 2.722292 1_556
Ga2 Sc3 2.944461 1_565
Ga2 Sc1 2.944461 1_556
Ga2 Sc5 2.944461 1_555
Ga3 Os0 2.631058 1_666
Ga3 Os6 2.722292 1_566
Ga3 Os1 2.722292 1_665
Ga3 Os5 2.722292 1_656
Ga3 Sc0 2.944461 1_556
Ga3 Sc4 2.944461 1_565
Ga3 Sc5 2.944461 1_655
Ga4 Os0 2.631058 1_556
Ga4 Os1 2.722292 1_555
Ga4 Os2 2.722292 1_555
Ga4 Os3 2.722292 1_555
Ga4 Sc5 2.944461 1_545
Ga4 Sc4 2.944461 1_455
Ga4 Sc3 2.944461 1_555
Ga5 Os0 2.631058 1_565
Ga5 Os5 2.722292 1_555
Ga5 Os4 2.722292 1_555
Ga5 Os3 2.722292 1_555
Ga5 Sc5 2.944461 1_554
Ga5 Sc0 2.944461 1_455
Ga5 Sc1 2.944461 1_555
Ga6 Os0 2.631058 1_655
Ga6 Os4 2.722292 1_555
Ga6 Os2 2.722292 1_555
Ga6 Os6 2.722292 1_555
Ga6 Sc4 2.944461 1_554
Ga6 Sc2 2.944461 1_555
Ga6 Sc0 2.944461 1_545
Ga7 Os0 2.631058 1_555
Ga7 Os6 2.722292 1_555
Ga7 Os1 2.722292 1_555
Ga7 Os5 2.722292 1_555
Ga7 Sc3 2.944461 1_554
Ga7 Sc1 2.944461 1_545
Ga7 Sc2 2.944461 1_455
Ga8 Os5 2.552389 1_655
Ga8 Os6 2.552389 1_565
Ga8 Os4 2.552397 1_555
Ga8 Sc0 2.871552 1_555
Ga8 Sc1 2.871558 1_555
Ga8 Sc2 2.871558 1_555
Ga9 Os6 2.552389 1_556
Ga9 Os1 2.552389 1_655
Ga9 Os2 2.552397 1_555
Ga9 Sc4 2.871552 1_555
Ga9 Sc3 2.871558 1_555
Ga9 Sc2 2.871558 1_555
Ga10 Os1 2.552389 1_565
Ga10 Os5 2.552389 1_556
Ga10 Os3 2.552397 1_555
Ga10 Sc5 2.871552 1_555
Ga10 Sc3 2.871558 1_555
Ga10 Sc1 2.871558 1_555
Ga11 Os3 2.552391 1_655
Ga11 Os2 2.552391 1_565
Ga11 Os4 2.552391 1_556
Ga11 Sc5 2.871561 1_555
Ga11 Sc0 2.871561 1_555
Ga11 Sc4 2.871561 1_555
Ga12 Os5 2.552389 1_556
Ga12 Os6 2.552389 1_556
Ga12 Os4 2.552397 1_556
Ga12 Sc3 2.871552 1_555
Ga12 Sc4 2.871558 1_555
Ga12 Sc5 2.871558 1_555
Ga13 Os6 2.552389 1_565
Ga13 Os1 2.552389 1_565
Ga13 Os2 2.552397 1_565
Ga13 Sc1 2.871552 1_555
Ga13 Sc5 2.871558 1_555
Ga13 Sc0 2.871558 1_555
Ga14 Os1 2.552389 1_655
Ga14 Os5 2.552389 1_655
Ga14 Os3 2.552397 1_655
Ga14 Sc2 2.871552 1_555
Ga14 Sc4 2.871558 1_555
Ga14 Sc0 2.871558 1_555
Ga15 Os4 2.552391 1_555
Ga15 Os2 2.552391 1_555
Ga15 Os3 2.552391 1_555
Ga15 Sc2 2.871561 1_555
Ga15 Sc1 2.871561 1_555
Ga15 Sc3 2.871561 1_555
Os1 Sc2 3.144122 1_455
Os1 Sc5 3.144122 1_545
Os1 Sc4 3.144122 1_455
Os1 Sc1 3.144122 1_545
Os2 Sc2 3.144122 1_555
Os2 Sc5 3.144122 1_545
Os2 Sc0 3.144122 1_545
Os2 Sc3 3.144122 1_555
Os3 Sc4 3.144122 1_455
Os3 Sc1 3.144122 1_555
Os3 Sc3 3.144122 1_555
Os3 Sc0 3.144122 1_455
Os4 Sc5 3.144122 1_554
Os4 Sc2 3.144122 1_555
Os4 Sc1 3.144122 1_555
Os4 Sc4 3.144122 1_554
Os5 Sc5 3.144122 1_554
Os5 Sc2 3.144122 1_455
Os5 Sc0 3.144122 1_455
Os5 Sc3 3.144122 1_554
Os6 Sc1 3.144122 1_545
Os6 Sc4 3.144122 1_554
Os6 Sc0 3.144122 1_545
Os6 Sc3 3.144122 1_554
