# generated using pymatgen
data_Al2Cu2Bi2S3Cl8
_symmetry_space_group_name_H-M   'P 1'
_cell_length_a   6.61010401
_cell_length_b   6.61010401
_cell_length_c   23.42188100
_cell_angle_alpha   90.00000000
_cell_angle_beta   90.00000000
_cell_angle_gamma   120.00000012
_symmetry_Int_Tables_number   1
_chemical_formula_structural   Al2Cu2Bi2S3Cl8
_chemical_formula_sum   'Al4 Cu4 Bi4 S6 Cl16'
_cell_volume   886.27599790
_cell_formula_units_Z   2
loop_
 _symmetry_equiv_pos_site_id
 _symmetry_equiv_pos_as_xyz
  1  'x, y, z'
loop_
 _atom_site_type_symbol
 _atom_site_label
 _atom_site_symmetry_multiplicity
 _atom_site_fract_x
 _atom_site_fract_y
 _atom_site_fract_z
 _atom_site_occupancy
  Al  Al0  1  0.66666700  0.33333300  0.57739500  1
  Al  Al1  1  0.33333300  0.66666700  0.07739500  1
  Al  Al2  1  0.33333300  0.66666700  0.42260500  1
  Al  Al3  1  0.66666700  0.33333300  0.92260500  1
  Cu  Cu0  1  0.66666700  0.33333300  0.75000000  1
  Cu  Cu1  1  0.33333300  0.66666700  0.25000000  1
  Cu  Cu2  1  0.00000000  0.00000000  0.75000000  1
  Cu  Cu3  1  0.00000000  0.00000000  0.25000000  1
  Bi  Bi0  1  0.33333300  0.66666700  0.67533500  1
  Bi  Bi1  1  0.66666700  0.33333300  0.17533500  1
  Bi  Bi2  1  0.66666700  0.33333300  0.32466500  1
  Bi  Bi3  1  0.33333300  0.66666700  0.82466500  1
  S  S0  1  0.33265000  0.97793900  0.75000000  1
  S  S1  1  0.02206100  0.35471200  0.75000000  1
  S  S2  1  0.64528800  0.66735000  0.75000000  1
  S  S3  1  0.66735000  0.02206100  0.25000000  1
  S  S4  1  0.97793900  0.64528800  0.25000000  1
  S  S5  1  0.35471200  0.33265000  0.25000000  1
  Cl  Cl0  1  0.66666700  0.33333300  0.48753200  1
  Cl  Cl1  1  0.33333300  0.66666700  0.98753200  1
  Cl  Cl2  1  0.33333300  0.66666700  0.51246800  1
  Cl  Cl3  1  0.66666700  0.33333300  0.01246800  1
  Cl  Cl4  1  0.90873000  0.66793400  0.61497000  1
  Cl  Cl5  1  0.33206600  0.24079500  0.61497000  1
  Cl  Cl6  1  0.75920500  0.09127000  0.61497000  1
  Cl  Cl7  1  0.09127000  0.33206600  0.11497000  1
  Cl  Cl8  1  0.66793400  0.75920500  0.11497000  1
  Cl  Cl9  1  0.24079500  0.90873000  0.11497000  1
  Cl  Cl10  1  0.09127000  0.33206600  0.38503000  1
  Cl  Cl11  1  0.66793400  0.75920500  0.38503000  1
  Cl  Cl12  1  0.24079500  0.90873000  0.38503000  1
  Cl  Cl13  1  0.90873000  0.66793400  0.88503000  1
  Cl  Cl14  1  0.33206600  0.24079500  0.88503000  1
  Cl  Cl15  1  0.75920500  0.09127000  0.88503000  1
loop_
_geom_bond_atom_site_label_1
_geom_bond_atom_site_label_2
_geom_bond_distance
_geom_bond_site_symmetry_2
Al0 Cl0 2.104760 1_555
Al0 Cl4 2.165093 1_555
Al0 Cl5 2.165093 1_555
Al0 Cl6 2.165093 1_555
Al1 Cl1 2.104760 1_554
Al1 Cl7 2.165093 1_555
Al1 Cl8 2.165093 1_555
Al1 Cl9 2.165093 1_555
Al2 Cl2 2.104760 1_555
Al2 Cl10 2.165093 1_555
Al2 Cl11 2.165093 1_555
Al2 Cl12 2.165093 1_555
Al3 Cl3 2.104760 1_556
Al3 Cl13 2.165093 1_555
Al3 Cl14 2.165093 1_555
Al3 Cl15 2.165093 1_555
Cu0 S1 2.281817 1_655
Cu0 S0 2.281823 1_545
Cu0 S2 2.281830 1_555
Cu1 S4 2.281817 1_455
Cu1 S3 2.281823 1_565
Cu1 S5 2.281830 1_555
Cu2 S0 2.275271 1_545
Cu2 S2 2.275275 1_445
Cu2 S1 2.275278 1_555
Cu3 S3 2.275271 1_455
Cu3 S5 2.275275 1_555
Cu3 S4 2.275278 1_445
Bi0 S1 2.702048 1_555
Bi0 S2 2.702048 1_555
Bi0 S0 2.702048 1_555
Bi0 Cl4 3.146423 1_455
Bi0 Cl6 3.146429 1_565
Bi0 Cl5 3.146435 1_555
Bi1 S4 2.702048 1_555
Bi1 S5 2.702048 1_555
Bi1 S3 2.702048 1_555
Bi1 Cl7 3.146423 1_655
Bi1 Cl9 3.146429 1_545
Bi1 Cl8 3.146435 1_555
Bi2 S4 2.702048 1_555
Bi2 S5 2.702048 1_555
Bi2 S3 2.702048 1_555
Bi2 Cl10 3.146423 1_655
Bi2 Cl12 3.146429 1_545
Bi2 Cl11 3.146435 1_555
Bi3 S1 2.702048 1_555
Bi3 S2 2.702048 1_555
Bi3 S0 2.702048 1_555
Bi3 Cl13 3.146423 1_455
Bi3 Cl15 3.146429 1_565
Bi3 Cl14 3.146435 1_555
