# generated using pymatgen
data_VAu3
_symmetry_space_group_name_H-M   'P 1'
_cell_length_a   5.85359974
_cell_length_b   5.85359974
_cell_length_c   4.69982300
_cell_angle_alpha   90.00000000
_cell_angle_beta   90.00000000
_cell_angle_gamma   119.99999703
_symmetry_Int_Tables_number   1
_chemical_formula_structural   VAu3
_chemical_formula_sum   'V2 Au6'
_cell_volume   139.46273954
_cell_formula_units_Z   2
loop_
 _symmetry_equiv_pos_site_id
 _symmetry_equiv_pos_as_xyz
  1  'x, y, z'
loop_
 _atom_site_type_symbol
 _atom_site_label
 _atom_site_symmetry_multiplicity
 _atom_site_fract_x
 _atom_site_fract_y
 _atom_site_fract_z
 _atom_site_occupancy
  V  V0  1  0.33333300  0.66666700  0.75000000  1
  V  V1  1  0.66666700  0.33333300  0.25000000  1
  Au  Au0  1  0.16936300  0.33872600  0.25000000  1
  Au  Au1  1  0.66127400  0.83063700  0.25000000  1
  Au  Au2  1  0.16936300  0.83063700  0.25000000  1
  Au  Au3  1  0.83063700  0.66127400  0.75000000  1
  Au  Au4  1  0.33872600  0.16936300  0.75000000  1
  Au  Au5  1  0.83063700  0.16936300  0.75000000  1
loop_
_geom_bond_atom_site_label_1
_geom_bond_atom_site_label_2
_geom_bond_distance
_geom_bond_site_symmetry_2
Au0 V0 2.878512 1_555
Au0 V0 2.878512 1_554
Au0 V1 2.926925 1_455
Au0 V1 2.926930 1_555
Au1 V0 2.878512 1_555
Au1 V0 2.878512 1_554
Au1 V1 2.926925 1_565
Au1 V1 2.926930 1_555
Au2 V0 2.878510 1_555
Au2 V0 2.878510 1_554
Au2 V1 2.926928 1_455
Au2 V1 2.926928 1_565
Au3 V1 2.878512 1_555
Au3 V1 2.878512 1_556
Au3 V0 2.926925 1_655
Au3 V0 2.926930 1_555
Au4 V1 2.878512 1_555
Au4 V1 2.878512 1_556
Au4 V0 2.926925 1_545
Au4 V0 2.926930 1_555
Au5 V1 2.878510 1_555
Au5 V1 2.878510 1_556
Au5 V0 2.926928 1_545
Au5 V0 2.926928 1_655
