# generated using pymatgen
data_GdH(SeO4)2
_symmetry_space_group_name_H-M   'P 1'
_cell_length_a   9.19307896
_cell_length_b   10.06180923
_cell_length_c   13.49009738
_cell_angle_alpha   90.00000000
_cell_angle_beta   90.00000000
_cell_angle_gamma   90.00000000
_symmetry_Int_Tables_number   1
_chemical_formula_structural   GdH(SeO4)2
_chemical_formula_sum   'Gd8 H8 Se16 O64'
_cell_volume   1247.82060837
_cell_formula_units_Z   8
loop_
 _symmetry_equiv_pos_site_id
 _symmetry_equiv_pos_as_xyz
  1  'x, y, z'
loop_
 _atom_site_type_symbol
 _atom_site_label
 _atom_site_symmetry_multiplicity
 _atom_site_fract_x
 _atom_site_fract_y
 _atom_site_fract_z
 _atom_site_occupancy
  Gd  Gd0  1  0.72045046  0.45202703  0.10567420  1
  Gd  Gd1  1  0.22045046  0.54797297  0.39432580  1
  Gd  Gd2  1  0.27954954  0.04797297  0.60567420  1
  Gd  Gd3  1  0.77954954  0.95202703  0.89432580  1
  Gd  Gd4  1  0.27954954  0.54797297  0.89432580  1
  Gd  Gd5  1  0.77954954  0.45202703  0.60567420  1
  Gd  Gd6  1  0.72045046  0.95202703  0.39432580  1
  Gd  Gd7  1  0.22045046  0.04797297  0.10567420  1
  H  H0  1  0.15697387  0.75480860  0.19893791  1
  H  H1  1  0.65697387  0.24519140  0.30106209  1
  H  H2  1  0.84302613  0.74519140  0.69893791  1
  H  H3  1  0.34302613  0.25480860  0.80106209  1
  H  H4  1  0.84302613  0.24519140  0.80106209  1
  H  H5  1  0.34302613  0.75480860  0.69893791  1
  H  H6  1  0.15697387  0.25480860  0.30106209  1
  H  H7  1  0.65697387  0.74519140  0.19893791  1
  Se  Se0  1  0.81039294  0.59993856  0.34930523  1
  Se  Se1  1  0.31039294  0.40006144  0.15069477  1
  Se  Se2  1  0.18960706  0.90006144  0.84930523  1
  Se  Se3  1  0.68960706  0.09993856  0.65069477  1
  Se  Se4  1  0.18960706  0.40006144  0.65069477  1
  Se  Se5  1  0.68960706  0.59993856  0.84930523  1
  Se  Se6  1  0.81039294  0.09993856  0.15069477  1
  Se  Se7  1  0.31039294  0.90006144  0.34930523  1
  Se  Se8  1  0.99317953  0.71700808  0.06531645  1
  Se  Se9  1  0.49317953  0.28299192  0.43468355  1
  Se  Se10  1  0.00682047  0.78299192  0.56531645  1
  Se  Se11  1  0.50682047  0.21700808  0.93468355  1
  Se  Se12  1  0.00682047  0.28299192  0.93468355  1
  Se  Se13  1  0.50682047  0.71700808  0.56531645  1
  Se  Se14  1  0.99317953  0.21700808  0.43468355  1
  Se  Se15  1  0.49317953  0.78299192  0.06531645  1
  O  O0  1  0.98779627  0.59091109  0.34340037  1
  O  O1  1  0.48779627  0.40908891  0.15659963  1
  O  O2  1  0.01220373  0.90908891  0.84340037  1
  O  O3  1  0.51220373  0.09091109  0.65659963  1
  O  O4  1  0.01220373  0.40908891  0.65659963  1
  O  O5  1  0.51220373  0.59091109  0.84340037  1
  O  O6  1  0.98779627  0.09091109  0.15659963  1
  O  O7  1  0.48779627  0.90908891  0.34340037  1
  O  O8  1  0.73416098  0.48678021  0.27865559  1
  O  O9  1  0.23416098  0.51321979  0.22134441  1
  O  O10  1  0.26583902  0.01321979  0.77865559  1
  O  O11  1  0.76583902  0.98678021  0.72134441  1
  O  O12  1  0.26583902  0.51321979  0.72134441  1
  O  O13  1  0.76583902  0.48678021  0.77865559  1
  O  O14  1  0.73416098  0.98678021  0.22134441  1
  O  O15  1  0.23416098  0.01321979  0.27865559  1
  O  O16  1  0.75603991  0.58463794  0.46495406  1
  O  O17  1  0.25603991  0.41536206  0.03504594  1
  O  O18  1  0.24396009  0.91536206  0.96495406  1
  O  O19  1  0.74396009  0.08463794  0.53504594  1
  O  O20  1  0.24396009  0.41536206  0.53504594  1
  O  O21  1  0.74396009  0.58463794  0.96495406  1
  O  O22  1  0.75603991  0.08463794  0.03504594  1
  O  O23  1  0.25603991  0.91536206  0.46495406  1
  O  O24  1  0.75311637  0.74785640  0.31004292  1
  O  O25  1  0.25311637  0.25214360  0.18995708  1
  O  O26  1  0.24688363  0.75214360  0.81004292  1
  O  O27  1  0.74688363  0.24785640  0.68995708  1
  O  O28  1  0.24688363  0.25214360  0.68995708  1
  O  O29  1  0.74688363  0.74785640  0.81004292  1
  O  O30  1  0.75311637  0.24785640  0.18995708  1
  O  O31  1  0.25311637  0.75214360  0.31004292  1
  O  O32  1  0.88891714  0.84008730  0.03263511  1
  O  O33  1  0.38891714  0.15991270  0.46736489  1
  O  O34  1  0.11108286  0.65991270  0.53263511  1
  O  O35  1  0.61108286  0.34008730  0.96736489  1
  O  O36  1  0.11108286  0.15991270  0.96736489  1
  O  O37  1  0.61108286  0.84008730  0.53263511  1
  O  O38  1  0.88891714  0.34008730  0.46736489  1
  O  O39  1  0.38891714  0.65991270  0.03263511  1
  O  O40  1  0.91908394  0.34624988  0.02789732  1
  O  O41  1  0.41908394  0.65375012  0.47210268  1
  O  O42  1  0.08091606  0.15375012  0.52789732  1
  O  O43  1  0.58091606  0.84624988  0.97210268  1
  O  O44  1  0.08091606  0.65375012  0.97210268  1
  O  O45  1  0.58091606  0.34624988  0.52789732  1
  O  O46  1  0.91908394  0.84624988  0.47210268  1
  O  O47  1  0.41908394  0.15375012  0.02789732  1
  O  O48  1  0.91654681  0.60611540  0.13596106  1
  O  O49  1  0.41654681  0.39388460  0.36403894  1
  O  O50  1  0.08345319  0.89388460  0.63596106  1
  O  O51  1  0.58345319  0.10611540  0.86403894  1
  O  O52  1  0.08345319  0.39388460  0.86403894  1
  O  O53  1  0.58345319  0.60611540  0.63596106  1
  O  O54  1  0.91654681  0.10611540  0.36403894  1
  O  O55  1  0.41654681  0.89388460  0.13596106  1
  O  O56  1  0.11428389  0.80393493  0.14127519  1
  O  O57  1  0.61428389  0.19606507  0.35872481  1
  O  O58  1  0.88571611  0.69606507  0.64127519  1
  O  O59  1  0.38571611  0.30393493  0.85872481  1
  O  O60  1  0.88571611  0.19606507  0.85872481  1
  O  O61  1  0.38571611  0.80393493  0.64127519  1
  O  O62  1  0.11428389  0.30393493  0.35872481  1
  O  O63  1  0.61428389  0.69606507  0.14127519  1
loop_
_geom_bond_atom_site_label_1
_geom_bond_atom_site_label_2
_geom_bond_distance
_geom_bond_site_symmetry_2
Gd0 O1 2.287599 1_555
Gd0 O21 2.330393 1_554
Gd0 O40 2.359679 1_555
Gd0 O8 2.362954 1_555
Gd0 O30 2.367101 1_555
Gd0 O35 2.400146 1_554
Gd0 O48 2.412577 1_555
Gd0 O63 2.685615 1_555
Gd1 O0 2.287599 1_455
Gd1 O20 2.330393 1_555
Gd1 O41 2.359679 1_555
Gd1 O9 2.362954 1_555
Gd1 O31 2.367101 1_555
Gd1 O34 2.400146 1_555
Gd1 O49 2.412577 1_555
Gd1 O62 2.685615 1_555
Gd2 O3 2.287599 1_555
Gd2 O23 2.330393 1_545
Gd2 O42 2.359679 1_555
Gd2 O10 2.362954 1_555
Gd2 O28 2.367101 1_555
Gd2 O33 2.400146 1_555
Gd2 O50 2.412577 1_545
Gd2 O61 2.685615 1_545
Gd3 O2 2.287599 1_655
Gd3 O22 2.330393 1_566
Gd3 O43 2.359679 1_555
Gd3 O11 2.362954 1_555
Gd3 O29 2.367101 1_555
Gd3 O32 2.400146 1_556
Gd3 O51 2.412577 1_565
Gd3 O60 2.685615 1_565
Gd4 O5 2.287599 1_555
Gd4 O17 2.330393 1_556
Gd4 O44 2.359679 1_555
Gd4 O12 2.362954 1_555
Gd4 O26 2.367101 1_555
Gd4 O39 2.400146 1_556
Gd4 O52 2.412577 1_555
Gd4 O59 2.685615 1_555
Gd5 O4 2.287599 1_655
Gd5 O16 2.330393 1_555
Gd5 O45 2.359679 1_555
Gd5 O13 2.362954 1_555
Gd5 O27 2.367101 1_555
Gd5 O38 2.400146 1_555
Gd5 O53 2.412577 1_555
Gd5 O58 2.685615 1_555
Gd6 O7 2.287599 1_555
Gd6 O19 2.330393 1_565
Gd6 O46 2.359679 1_555
Gd6 O14 2.362954 1_555
Gd6 O24 2.367101 1_555
Gd6 O37 2.400146 1_555
Gd6 O54 2.412577 1_565
Gd6 O57 2.685615 1_565
Gd7 O6 2.287599 1_455
Gd7 O18 2.330393 1_544
Gd7 O47 2.359679 1_555
Gd7 O15 2.362954 1_555
Gd7 O25 2.367101 1_555
Gd7 O36 2.400146 1_554
Gd7 O55 2.412577 1_545
Gd7 O56 2.685615 1_545
H0 O56 1.001719 1_555
H0 O31 1.740217 1_555
H1 O57 1.001719 1_555
H1 O30 1.740217 1_555
H2 O58 1.001719 1_555
H2 O29 1.740217 1_555
H3 O59 1.001719 1_555
H3 O28 1.740217 1_555
H4 O60 1.001719 1_555
H4 O27 1.740217 1_555
H5 O61 1.001719 1_555
H5 O26 1.740217 1_555
H6 O62 1.001719 1_555
H6 O25 1.740217 1_555
H7 O63 1.001719 1_555
H7 O24 1.740217 1_555
O0 Se0 1.635352 1_555
O1 Se1 1.635352 1_555
O2 Se2 1.635352 1_555
O3 Se3 1.635352 1_555
O4 Se4 1.635352 1_555
O5 Se5 1.635352 1_555
O6 Se6 1.635352 1_555
O7 Se7 1.635352 1_555
O8 Se0 1.641899 1_555
O9 Se1 1.641899 1_555
O10 Se2 1.641899 1_545
O11 Se3 1.641899 1_565
O12 Se4 1.641899 1_555
O13 Se5 1.641899 1_555
O14 Se6 1.641899 1_565
O15 Se7 1.641899 1_545
O16 Se0 1.645396 1_555
O17 Se1 1.645396 1_555
O18 Se2 1.645396 1_555
O19 Se3 1.645396 1_555
O20 Se4 1.645396 1_555
O21 Se5 1.645396 1_555
O22 Se6 1.645396 1_555
O23 Se7 1.645396 1_555
O24 Se0 1.665198 1_555
O25 Se1 1.665198 1_555
O26 Se2 1.665198 1_555
O27 Se3 1.665198 1_555
O28 Se4 1.665198 1_555
O29 Se5 1.665198 1_555
O30 Se6 1.665198 1_555
O31 Se7 1.665198 1_555
O32 Se8 1.626872 1_555
O33 Se9 1.626872 1_555
O34 Se10 1.626872 1_555
O35 Se11 1.626872 1_555
O36 Se12 1.626872 1_555
O37 Se13 1.626872 1_555
O38 Se14 1.626872 1_555
O39 Se15 1.626872 1_555
O40 Se12 1.623849 1_654
O41 Se13 1.623849 1_555
O42 Se14 1.623849 1_455
O43 Se15 1.623849 1_556
O44 Se8 1.623849 1_456
O45 Se9 1.623849 1_555
O46 Se10 1.623849 1_655
O47 Se11 1.623849 1_554
O48 Se8 1.627725 1_555
O49 Se9 1.627725 1_555
O50 Se10 1.627725 1_555
O51 Se11 1.627725 1_555
O52 Se12 1.627725 1_555
O53 Se13 1.627725 1_555
O54 Se14 1.627725 1_555
O55 Se15 1.627725 1_555
O56 Se8 1.747706 1_455
O57 Se9 1.747706 1_555
O58 Se10 1.747706 1_655
O59 Se11 1.747706 1_555
O60 Se12 1.747706 1_655
O61 Se13 1.747706 1_555
O62 Se14 1.747706 1_455
O63 Se15 1.747706 1_555
