# generated using pymatgen
data_SrCa7Ti2Mn6O22
_symmetry_space_group_name_H-M   'P 1'
_cell_length_a   7.76838301
_cell_length_b   7.70547775
_cell_length_c   7.67134726
_cell_angle_alpha   89.97646376
_cell_angle_beta   89.93893906
_cell_angle_gamma   90.49178730
_symmetry_Int_Tables_number   1
_chemical_formula_structural   SrCa7Ti2Mn6O22
_chemical_formula_sum   'Sr1 Ca7 Ti2 Mn6 O22'
_cell_volume   459.18274577
_cell_formula_units_Z   1
loop_
 _symmetry_equiv_pos_site_id
 _symmetry_equiv_pos_as_xyz
  1  'x, y, z'
loop_
 _atom_site_type_symbol
 _atom_site_label
 _atom_site_symmetry_multiplicity
 _atom_site_fract_x
 _atom_site_fract_y
 _atom_site_fract_z
 _atom_site_occupancy
  Sr  Sr0  1  0.25248800  0.25202200  0.23647500  1
  Ca  Ca0  1  0.25150500  0.25953900  0.73473400  1
  Ca  Ca1  1  0.24737900  0.74322800  0.23321600  1
  Ca  Ca2  1  0.25105100  0.74398600  0.72577400  1
  Ca  Ca3  1  0.75429000  0.25337100  0.25083300  1
  Ca  Ca4  1  0.75241600  0.26568500  0.72161100  1
  Ca  Ca5  1  0.75018200  0.74700700  0.24938600  1
  Ca  Ca6  1  0.75022800  0.74654300  0.69579600  1
  Ti  Ti0  1  0.99186100  0.99122900  0.98026700  1
  Ti  Ti1  1  0.50846900  0.99603100  0.00583200  1
  Mn  Mn0  1  0.00163600  0.99982600  0.50193600  1
  Mn  Mn1  1  0.99331800  0.50233400  0.00592700  1
  Mn  Mn2  1  0.00108100  0.50227100  0.49432500  1
  Mn  Mn3  1  0.50036000  0.99920500  0.49675400  1
  Mn  Mn4  1  0.50634500  0.50527300  0.99158400  1
  Mn  Mn5  1  0.50139000  0.50299300  0.50779100  1
  O  O0  1  0.95908600  0.95527700  0.75672400  1
  O  O1  1  0.02657500  0.46474200  0.25197800  1
  O  O2  1  0.96768200  0.53397400  0.75165600  1
  O  O3  1  0.47144200  0.02798400  0.25637100  1
  O  O4  1  0.52953000  0.96604500  0.75607000  1
  O  O5  1  0.53731900  0.53852400  0.75057700  1
  O  O6  1  0.24065500  0.99101900  0.00393900  1
  O  O7  1  0.24874700  0.00149400  0.53675600  1
  O  O8  1  0.25782200  0.51032100  0.99278700  1
  O  O9  1  0.25390900  0.50052400  0.52435400  1
  O  O10  1  0.75653700  0.00576800  0.06265300  1
  O  O11  1  0.75418800  0.00201900  0.46241400  1
  O  O12  1  0.73865500  0.49282000  0.06310600  1
  O  O13  1  0.74627900  0.49849700  0.46386500  1
  O  O14  1  0.99877400  0.24633200  0.98282100  1
  O  O15  1  0.99915500  0.24880400  0.52776300  1
  O  O16  1  0.99385400  0.75265100  0.05453300  1
  O  O17  1  0.00606200  0.75431100  0.45275300  1
  O  O18  1  0.49746200  0.25276700  0.98489100  1
  O  O19  1  0.50240400  0.25490500  0.52393000  1
  O  O20  1  0.50361400  0.74628500  0.05294800  1
  O  O21  1  0.49625000  0.74439200  0.45487000  1
loop_
_geom_bond_atom_site_label_1
_geom_bond_atom_site_label_2
_geom_bond_distance
_geom_bond_site_symmetry_2
Ca0 O9 2.459672 1_555
Ca0 O7 2.502495 1_555
Ca0 O15 2.524820 1_455
Ca0 O19 2.531775 1_555
Ca0 O18 2.710280 1_555
Ca0 O14 2.734121 1_455
Ca0 O8 2.767156 1_555
Ca0 O6 2.923390 1_546
Ca1 O16 2.402327 1_455
Ca1 O20 2.422495 1_555
Ca1 O17 2.520726 1_555
Ca1 O8 2.575684 1_554
Ca1 O21 2.576016 1_555
Ca1 O6 2.596361 1_555
Ca1 O1 2.739292 1_555
Ca1 O3 2.794837 1_565
Ca1 O9 2.913184 1_555
Ca1 O7 3.063683 1_565
Ca2 O9 2.431129 1_555
Ca2 O7 2.457300 1_565
Ca2 O8 2.727477 1_555
Ca2 O2 2.727928 1_455
Ca2 O5 2.747586 1_555
Ca2 O4 2.756744 1_555
Ca2 O0 2.813165 1_455
Ca2 O21 2.817559 1_555
Ca2 O17 2.833022 1_555
Ca2 O6 2.861643 1_556
Ca3 O12 2.344144 1_555
Ca3 O10 2.393142 1_555
Ca3 O13 2.499314 1_555
Ca3 O11 2.526465 1_555
Ca3 O1 2.658539 1_655
Ca3 O3 2.789304 1_555
Ca3 O14 2.798357 1_554
Ca3 O15 2.853508 1_555
Ca3 O18 2.855042 1_554
Ca3 O19 2.865274 1_555
Ca4 O15 2.429127 1_555
Ca4 O19 2.466236 1_555
Ca4 O2 2.658041 1_555
Ca4 O13 2.669973 1_555
Ca4 O5 2.705783 1_555
Ca4 O14 2.777239 1_555
Ca4 O18 2.828386 1_555
Ca4 O11 2.843470 1_555
Ca4 O4 2.885935 1_545
Ca4 O0 2.904717 1_545
Ca5 O16 2.410807 1_555
Ca5 O12 2.426090 1_555
Ca5 O20 2.438397 1_555
Ca5 O10 2.454757 1_565
Ca5 O21 2.523733 1_555
Ca5 O13 2.524119 1_555
Ca5 O17 2.528455 1_655
Ca5 O11 2.556266 1_565
Ca6 O0 2.322779 1_555
Ca6 O5 2.331069 1_555
Ca6 O2 2.401787 1_555
Ca6 O4 2.462245 1_555
Ca6 O13 2.611819 1_555
Ca6 O11 2.660359 1_565
Ca6 O21 2.704843 1_555
Ca6 O17 2.723897 1_655
Mn0 O15 1.929038 1_465
Mn0 O17 1.929808 1_555
Mn0 O7 1.938364 1_565
Mn0 O11 1.946568 1_465
Mn0 O0 2.010859 1_455
Mn1 O1 1.927523 1_655
Mn1 O16 1.964644 1_555
Mn1 O2 1.976162 1_554
Mn1 O14 1.981450 1_554
Mn1 O12 2.026614 1_555
Mn1 O8 2.057524 1_654
Mn2 O1 1.892048 1_555
Mn2 O17 1.968016 1_555
Mn2 O15 1.969680 1_455
Mn2 O9 1.977932 1_555
Mn2 O13 1.993357 1_455
Mn2 O2 2.006081 1_455
Mn3 O3 1.871258 1_565
Mn3 O7 1.978474 1_565
Mn3 O19 1.981304 1_565
Mn3 O11 1.989007 1_565
Mn3 O21 1.989694 1_555
Mn3 O4 2.018787 1_555
Mn4 O5 1.881326 1_555
Mn4 O12 1.890008 1_556
Mn4 O20 1.916322 1_556
Mn4 O8 1.931360 1_555
Mn4 O18 1.947011 1_555
Mn5 O5 1.903146 1_555
Mn5 O21 1.904482 1_555
Mn5 O19 1.915675 1_555
Mn5 O9 1.926517 1_555
Mn5 O13 1.932257 1_555
O0 Ti0 1.755699 1_555
O1 Sr0 2.414512 1_555
O3 Ti1 1.959020 1_545
O3 Sr0 2.438717 1_555
O4 Ti1 1.936904 1_556
O6 Ti0 1.941447 1_454
O6 Ti1 2.080575 1_555
O6 Sr0 2.689885 1_565
O7 Sr0 3.004840 1_555
O8 Sr0 2.730047 1_556
O9 Sr0 2.923519 1_555
O10 Ti0 1.937783 1_544
O10 Ti1 1.977026 1_545
O14 Ti0 1.966069 1_545
O14 Sr0 2.771231 1_656
O15 Sr0 2.976011 1_655
O16 Ti0 1.924585 1_554
O18 Ti1 1.987299 1_546
O18 Sr0 2.708961 1_556
O19 Sr0 2.939538 1_555
O20 Ti1 1.957953 1_555
