# generated using pymatgen
data_Pt3Cl3F
_symmetry_space_group_name_H-M   'P 1'
_cell_length_a   5.02256800
_cell_length_b   5.02256800
_cell_length_c   5.02256800
_cell_angle_alpha   90.00000000
_cell_angle_beta   90.00000000
_cell_angle_gamma   90.00000000
_symmetry_Int_Tables_number   1
_chemical_formula_structural   Pt3Cl3F
_chemical_formula_sum   'Pt3 Cl3 F1'
_cell_volume   126.70025121
_cell_formula_units_Z   1
loop_
 _symmetry_equiv_pos_site_id
 _symmetry_equiv_pos_as_xyz
  1  'x, y, z'
loop_
 _atom_site_type_symbol
 _atom_site_label
 _atom_site_symmetry_multiplicity
 _atom_site_fract_x
 _atom_site_fract_y
 _atom_site_fract_z
 _atom_site_occupancy
  Pt  Pt0  1  0.50000000  0.00000000  0.00000000  1
  Pt  Pt1  1  0.00000000  0.50000000  0.00000000  1
  Pt  Pt2  1  0.00000000  0.00000000  0.50000000  1
  Cl  Cl0  1  0.50000000  0.00000000  0.50000000  1
  Cl  Cl1  1  0.50000000  0.50000000  0.00000000  1
  Cl  Cl2  1  0.00000000  0.50000000  0.50000000  1
  F  F0  1  0.00000000  0.00000000  0.00000000  1
loop_
_geom_bond_atom_site_label_1
_geom_bond_atom_site_label_2
_geom_bond_distance
_geom_bond_site_symmetry_2
Cl0 Pt2 2.511284 1_555
Cl0 Pt0 2.511284 1_556
Cl0 Pt0 2.511284 1_555
Cl0 Pt2 2.511284 1_655
Cl1 Pt1 2.511284 1_555
Cl1 Pt1 2.511284 1_655
Cl1 Pt0 2.511284 1_555
Cl1 Pt0 2.511284 1_565
Cl2 Pt2 2.511284 1_555
Cl2 Pt1 2.511284 1_555
Cl2 Pt1 2.511284 1_556
Cl2 Pt2 2.511284 1_565
F0 Pt1 2.511284 1_555
F0 Pt2 2.511284 1_555
F0 Pt2 2.511284 1_554
F0 Pt1 2.511284 1_545
F0 Pt0 2.511284 1_455
F0 Pt0 2.511284 1_555
