# generated using pymatgen
data_LaMgTiCrO6
_symmetry_space_group_name_H-M   'P 1'
_cell_length_a   5.50527600
_cell_length_b   5.37002800
_cell_length_c   9.38989542
_cell_angle_alpha   55.19668364
_cell_angle_beta   90.00000000
_cell_angle_gamma   90.00000000
_symmetry_Int_Tables_number   1
_chemical_formula_structural   LaMgTiCrO6
_chemical_formula_sum   'La2 Mg2 Ti2 Cr2 O12'
_cell_volume   227.94024400
_cell_formula_units_Z   2
loop_
 _symmetry_equiv_pos_site_id
 _symmetry_equiv_pos_as_xyz
  1  'x, y, z'
loop_
 _atom_site_type_symbol
 _atom_site_label
 _atom_site_symmetry_multiplicity
 _atom_site_fract_x
 _atom_site_fract_y
 _atom_site_fract_z
 _atom_site_occupancy
  La  La0  1  0.21347600  0.74242500  0.25045600  1
  La  La1  1  0.78652400  0.74242500  0.75045600  1
  Mg  Mg0  1  0.70325900  0.26514000  0.25203500  1
  Mg  Mg1  1  0.29674100  0.26514000  0.75203500  1
  Ti  Ti0  1  0.25637900  0.50218100  0.99881400  1
  Ti  Ti1  1  0.74362100  0.50218100  0.49881400  1
  Cr  Cr0  1  0.24887300  0.99910600  0.50084800  1
  Cr  Cr1  1  0.75112700  0.99910600  0.00084800  1
  O  O0  1  0.70635000  0.17732700  0.74712900  1
  O  O1  1  0.46868500  0.73170100  0.04676600  1
  O  O2  1  0.47327300  0.33237800  0.44906700  1
  O  O3  1  0.94823200  0.62822000  0.05804800  1
  O  O4  1  0.94131300  0.25056500  0.44349200  1
  O  O5  1  0.22853300  0.87095900  0.75334300  1
  O  O6  1  0.29365000  0.17732700  0.24712900  1
  O  O7  1  0.53131500  0.73170100  0.54676600  1
  O  O8  1  0.52672700  0.33237800  0.94906700  1
  O  O9  1  0.05176800  0.62822000  0.55804800  1
  O  O10  1  0.05868700  0.25056500  0.94349200  1
  O  O11  1  0.77146700  0.87095900  0.25334300  1
loop_
_geom_bond_atom_site_label_1
_geom_bond_atom_site_label_2
_geom_bond_distance
_geom_bond_site_symmetry_2
La0 O6 2.359400 1_565
La0 O2 2.384234 1_555
La0 O1 2.400252 1_555
La0 O11 2.533744 1_455
La0 O3 2.652806 1_455
La0 O4 2.653641 1_455
La0 O9 2.736545 1_555
La0 O10 2.738950 1_564
La1 O0 2.359400 1_565
La1 O8 2.384234 1_555
La1 O7 2.400252 1_555
La1 O5 2.533744 1_655
La1 O9 2.652806 1_655
La1 O10 2.653641 1_655
La1 O3 2.736545 1_556
La1 O4 2.738950 1_565
Mg0 O11 2.142933 1_545
Mg0 O4 2.189749 1_555
Mg0 O3 2.210016 1_555
Mg0 O6 2.309623 1_555
Mg0 O2 2.432887 1_555
Mg0 O1 2.479411 1_555
Mg1 O5 2.142933 1_545
Mg1 O10 2.189749 1_555
Mg1 O9 2.210016 1_555
Mg1 O0 2.309623 1_555
Mg1 O8 2.432887 1_555
Mg1 O7 2.479411 1_555
Cr0 O7 1.989708 1_555
Cr0 O2 1.993041 1_565
Cr0 O6 2.012403 1_565
Cr0 O4 2.037214 1_465
Cr0 O9 2.052214 1_555
Cr0 O5 2.060297 1_555
Cr1 O1 1.989708 1_555
Cr1 O8 1.993041 1_564
Cr1 O0 2.012403 1_564
Cr1 O10 2.037214 1_664
Cr1 O3 2.052214 1_555
Cr1 O11 2.060297 1_555
O0 Ti1 1.969453 1_555
O1 Ti0 1.929111 1_554
O2 Ti1 1.936761 1_555
O3 Ti0 2.018684 1_654
O4 Ti1 2.020218 1_555
O5 Ti0 2.011833 1_555
O6 Ti0 1.969453 1_554
O7 Ti1 1.929111 1_555
O8 Ti0 1.936761 1_555
O9 Ti1 2.018684 1_455
O10 Ti0 2.020218 1_555
O11 Ti1 2.011833 1_555
