# generated using pymatgen
data_Rb3Au3Br8
_symmetry_space_group_name_H-M   'P 1'
_cell_length_a   7.43904593
_cell_length_b   7.43904593
_cell_length_c   18.94591729
_cell_angle_alpha   81.80699710
_cell_angle_beta   81.80699710
_cell_angle_gamma   64.37420424
_symmetry_Int_Tables_number   1
_chemical_formula_structural   Rb3Au3Br8
_chemical_formula_sum   'Rb6 Au6 Br16'
_cell_volume   931.82911302
_cell_formula_units_Z   2
loop_
 _symmetry_equiv_pos_site_id
 _symmetry_equiv_pos_as_xyz
  1  'x, y, z'
loop_
 _atom_site_type_symbol
 _atom_site_label
 _atom_site_symmetry_multiplicity
 _atom_site_fract_x
 _atom_site_fract_y
 _atom_site_fract_z
 _atom_site_occupancy
  Rb  Rb0  1  0.69107362  0.68151163  0.42100438  1
  Rb  Rb1  1  0.30892638  0.31848837  0.57899562  1
  Rb  Rb2  1  0.31848837  0.30892638  0.07899562  1
  Rb  Rb3  1  0.68151163  0.69107362  0.92100438  1
  Rb  Rb4  1  0.98368579  0.01631421  0.25000000  1
  Rb  Rb5  1  0.01631421  0.98368579  0.75000000  1
  Au  Au0  1  -0.00000000  -0.00000000  -0.00000000  1
  Au  Au1  1  -0.00000000  -0.00000000  0.50000000  1
  Au  Au2  1  0.61337587  0.60335291  0.19497360  1
  Au  Au3  1  0.38662413  0.39664709  0.80502640  1
  Au  Au4  1  0.39664709  0.38662413  0.30502640  1
  Au  Au5  1  0.60335291  0.61337587  0.69497360  1
  Br  Br0  1  0.32821863  0.73983933  0.12399636  1
  Br  Br1  1  0.67178137  0.26016067  0.87600364  1
  Br  Br2  1  0.26016067  0.67178137  0.37600364  1
  Br  Br3  1  0.73983933  0.32821863  0.62399636  1
  Br  Br4  1  0.49907428  0.08468748  0.24558298  1
  Br  Br5  1  0.50092572  0.91531252  0.75441702  1
  Br  Br6  1  0.91531252  0.50092572  0.25441702  1
  Br  Br7  1  0.08468748  0.49907428  0.74558298  1
  Br  Br8  1  0.79709038  0.83557324  0.07143145  1
  Br  Br9  1  0.20290962  0.16442676  0.92856855  1
  Br  Br10  1  0.16442676  0.20290962  0.42856855  1
  Br  Br11  1  0.83557324  0.79709038  0.57143145  1
  Br  Br12  1  0.71268558  0.16267317  0.42496182  1
  Br  Br13  1  0.28731442  0.83732683  0.57503818  1
  Br  Br14  1  0.83732683  0.28731442  0.07503818  1
  Br  Br15  1  0.16267317  0.71268558  0.92496182  1
loop_
_geom_bond_atom_site_label_1
_geom_bond_atom_site_label_2
_geom_bond_distance
_geom_bond_site_symmetry_2
Au0 Br9 2.479746 1_554
Au0 Br8 2.479746 1_445
Au0 Br15 2.488424 1_544
Au0 Br14 2.488424 1_455
Au1 Br11 2.479746 1_445
Au1 Br10 2.479746 1_555
Au1 Br13 2.488424 1_545
Au1 Br12 2.488424 1_455
Au2 Br6 2.426934 1_555
Au2 Br0 2.428984 1_555
Au2 Br8 3.210684 1_555
Au2 Br14 3.243736 1_555
Au3 Br7 2.426934 1_555
Au3 Br1 2.428984 1_555
Au3 Br9 3.210684 1_555
Au3 Br15 3.243736 1_555
Au4 Br4 2.426934 1_555
Au4 Br2 2.428984 1_555
Au4 Br10 3.210684 1_555
Au4 Br12 3.243736 1_555
Au5 Br5 2.426934 1_555
Au5 Br3 2.428984 1_555
Au5 Br11 3.210684 1_555
Au5 Br13 3.243736 1_555
Br0 Rb4 3.404979 1_465
Br0 Rb2 3.464842 1_555
Br1 Rb5 3.404979 1_645
Br1 Rb3 3.464842 1_555
Br2 Rb4 3.404979 1_465
Br2 Rb0 3.464842 1_555
Br3 Rb5 3.404979 1_645
Br3 Rb1 3.464842 1_555
Br4 Rb4 3.427807 1_555
Br4 Rb2 3.509718 1_555
Br5 Rb5 3.427807 1_555
Br5 Rb3 3.509718 1_555
Br6 Rb4 3.427807 1_555
Br6 Rb0 3.509718 1_555
Br7 Rb5 3.427807 1_555
Br7 Rb1 3.509718 1_555
Br8 Rb3 3.519678 1_554
Br8 Rb2 3.774942 1_565
Br9 Rb2 3.519678 1_556
Br9 Rb3 3.774942 1_545
Br10 Rb1 3.519678 1_555
Br10 Rb0 3.774942 1_455
Br11 Rb0 3.519678 1_555
Br11 Rb1 3.774942 1_655
Br12 Rb0 3.663488 1_545
Br12 Rb4 3.669195 1_555
Br12 Rb0 3.783210 1_555
Br12 Rb1 3.786291 1_555
Br13 Rb1 3.663488 1_565
Br13 Rb5 3.669195 1_555
Br13 Rb1 3.783210 1_555
Br13 Rb0 3.786291 1_555
Br14 Rb2 3.663488 1_655
Br14 Rb4 3.669195 1_555
Br14 Rb2 3.783210 1_555
Br14 Rb3 3.786291 1_554
Br15 Rb3 3.663488 1_455
Br15 Rb5 3.669195 1_555
Br15 Rb3 3.783210 1_555
Br15 Rb2 3.786291 1_556
