# generated using pymatgen
data_Y2AlFe3
_symmetry_space_group_name_H-M   'P 1'
_cell_length_a   5.29127047
_cell_length_b   5.29127047
_cell_length_c   5.32791870
_cell_angle_alpha   89.99045056
_cell_angle_beta   60.25134051
_cell_angle_gamma   120.01317317
_symmetry_Int_Tables_number   1
_chemical_formula_structural   Y2AlFe3
_chemical_formula_sum   'Y2 Al1 Fe3'
_cell_volume   105.84746440
_cell_formula_units_Z   1
loop_
 _symmetry_equiv_pos_site_id
 _symmetry_equiv_pos_as_xyz
  1  'x, y, z'
loop_
 _atom_site_type_symbol
 _atom_site_label
 _atom_site_symmetry_multiplicity
 _atom_site_fract_x
 _atom_site_fract_y
 _atom_site_fract_z
 _atom_site_occupancy
  Y  Y0  1  0.50559903  0.75275782  0.74164314  1
  Y  Y1  1  0.99440097  0.99724218  0.00835686  1
  Al  Al0  1  0.75000000  0.37500000  0.87500000  1
  Fe  Fe0  1  0.25000000  0.37500000  0.37500000  1
  Fe  Fe1  1  0.25000000  0.87500000  0.37500000  1
  Fe  Fe2  1  0.75000000  0.37500000  0.37500000  1
loop_
_geom_bond_atom_site_label_1
_geom_bond_atom_site_label_2
_geom_bond_distance
_geom_bond_site_symmetry_2
Y0 Y1 3.201556 1_555
Y0 Y1 3.268486 1_556
Y0 Y1 3.268487 1_446
Y0 Y1 3.270456 1_456
Al0 Fe2 2.663959 1_555
Al0 Fe2 2.663959 1_556
Al0 Fe1 2.663960 1_655
Al0 Fe1 2.663960 1_546
Al0 Fe0 2.664924 1_655
Al0 Fe0 2.664924 1_556
Al0 Y1 3.109615 1_546
Al0 Y0 3.109615 1_555
Al0 Y1 3.109754 1_556
Al0 Y0 3.109754 1_545
Al0 Y1 3.109754 1_446
Al0 Y0 3.109754 1_655
Fe0 Fe1 2.645635 1_555
Fe0 Fe1 2.645635 1_545
Fe0 Fe2 2.645635 1_455
Fe0 Fe2 2.645635 1_555
Fe0 Y0 3.091777 1_555
Fe0 Y1 3.091777 1_445
Fe0 Y1 3.091778 1_555
Fe0 Y0 3.091778 1_445
Fe0 Y1 3.158445 1_446
Fe0 Y0 3.158445 1_554
Fe1 Fe2 2.645108 1_565
Fe1 Fe2 2.645108 1_455
Fe1 Y1 3.091918 1_455
Fe1 Y0 3.091918 1_555
Fe1 Y1 3.092539 1_555
Fe1 Y0 3.092539 1_455
Fe1 Y1 3.159326 1_456
Fe1 Y0 3.159326 1_554
Fe2 Y0 3.091918 1_545
Fe2 Y1 3.091918 1_555
Fe2 Y0 3.092538 1_555
Fe2 Y1 3.092538 1_545
Fe2 Y1 3.159327 1_446
Fe2 Y0 3.159327 1_654
