# generated using pymatgen
data_AlW3Se2ClO8
_symmetry_space_group_name_H-M   'P 1'
_cell_length_a   7.53440600
_cell_length_b   8.50930792
_cell_length_c   10.85458947
_cell_angle_alpha   69.21657904
_cell_angle_beta   81.92261115
_cell_angle_gamma   78.36714828
_symmetry_Int_Tables_number   1
_chemical_formula_structural   AlW3Se2ClO8
_chemical_formula_sum   'Al2 W6 Se4 Cl2 O16'
_cell_volume   635.45764628
_cell_formula_units_Z   2
loop_
 _symmetry_equiv_pos_site_id
 _symmetry_equiv_pos_as_xyz
  1  'x, y, z'
loop_
 _atom_site_type_symbol
 _atom_site_label
 _atom_site_symmetry_multiplicity
 _atom_site_fract_x
 _atom_site_fract_y
 _atom_site_fract_z
 _atom_site_occupancy
  Al  Al0  1  0.22730200  0.61203300  0.69592600  1
  Al  Al1  1  0.82713200  0.35603700  0.29134800  1
  W  W0  1  0.89045300  0.59937500  0.95754100  1
  W  W1  1  0.04098100  0.05563000  0.54747700  1
  W  W2  1  0.95171400  0.94551200  0.99530300  1
  W  W3  1  0.35396600  0.35658700  0.31580600  1
  W  W4  1  0.61564800  0.55454200  0.71054300  1
  W  W5  1  0.97709600  0.48107900  0.50511600  1
  Se  Se0  1  0.70859800  0.89101700  0.86388400  1
  Se  Se1  1  0.49821700  0.02436200  0.11856500  1
  Se  Se2  1  0.77616600  0.26515200  0.63579800  1
  Se  Se3  1  0.43006200  0.03614700  0.33154100  1
  Cl  Cl0  1  0.24239700  0.64014700  0.34188900  1
  Cl  Cl1  1  0.14427500  0.02278600  0.78322200  1
  O  O0  1  0.73964300  0.51087600  0.85778700  1
  O  O1  1  0.42867700  0.43179700  0.73561800  1
  O  O2  1  0.58659700  0.36820000  0.33150000  1
  O  O3  1  0.09986900  0.58655100  0.85066000  1
  O  O4  1  0.93415000  0.15187800  0.37839400  1
  O  O5  1  0.89450000  0.51041400  0.34065900  1
  O  O6  1  0.01484100  0.71356000  0.05958400  1
  O  O7  1  0.11335600  0.02801600  0.04578800  1
  O  O8  1  0.11744500  0.49752200  0.62573700  1
  O  O9  1  0.75273800  0.02264100  0.09783300  1
  O  O10  1  0.76236100  0.64244900  0.55620400  1
  O  O11  1  0.17953400  0.27691200  0.47052200  1
  O  O12  1  0.83309100  0.43559500  0.11722800  1
  O  O13  1  0.11615400  0.82237800  0.59448100  1
  O  O14  1  0.30562000  0.42358800  0.15256600  1
  O  O15  1  0.43741400  0.73722000  0.69147700  1
loop_
_geom_bond_atom_site_label_1
_geom_bond_atom_site_label_2
_geom_bond_distance
_geom_bond_site_symmetry_2
Al0 O3 1.778248 1_555
Al0 O8 1.801204 1_555
Al0 O13 1.836700 1_555
Al0 O1 1.901625 1_555
Al0 O15 2.065259 1_555
Al1 O4 1.745060 1_555
Al1 O12 1.764316 1_555
Al1 O5 1.764658 1_555
Al1 O2 1.794284 1_555
Se0 W0 2.509839 1_555
Se0 W2 2.674223 1_555
Se1 Se3 2.329843 1_555
Se2 W5 2.519650 1_555
Se2 W1 2.705472 1_655
Se2 W4 2.850603 1_555
Se3 W3 2.619057 1_555
Cl0 W3 2.491749 1_555
Cl0 W5 2.713069 1_455
Cl1 W2 2.491713 1_445
Cl1 W1 2.682582 1_555
O0 W4 1.850267 1_555
O0 W0 2.073677 1_555
O1 W4 1.852933 1_555
O2 W3 1.810131 1_555
O3 W0 1.831224 1_455
O4 W1 1.941552 1_655
O5 W5 1.889317 1_555
O6 W2 1.829233 1_454
O6 W0 2.114702 1_454
O7 W2 1.755500 1_444
O8 W5 1.852232 1_455
O9 W2 1.889322 1_544
O9 Se1 1.896848 1_555
O10 W4 1.873964 1_555
O10 W5 2.050117 1_555
O11 W3 1.984507 1_555
O11 W5 2.172340 1_455
O11 W1 2.182767 1_555
O12 W0 1.857838 1_554
O13 W1 1.851966 1_565
O14 W3 1.725711 1_555
O15 W4 1.808451 1_555
