# generated using pymatgen
data_Al11Cr4
_symmetry_space_group_name_H-M   'P 1'
_cell_length_a   5.09907913
_cell_length_b   5.14864292
_cell_length_c   8.95948970
_cell_angle_alpha   74.28008993
_cell_angle_beta   89.59568907
_cell_angle_gamma   79.42228313
_symmetry_Int_Tables_number   1
_chemical_formula_structural   Al11Cr4
_chemical_formula_sum   'Al11 Cr4'
_cell_volume   222.34477518
_cell_formula_units_Z   1
loop_
 _symmetry_equiv_pos_site_id
 _symmetry_equiv_pos_as_xyz
  1  'x, y, z'
loop_
 _atom_site_type_symbol
 _atom_site_label
 _atom_site_symmetry_multiplicity
 _atom_site_fract_x
 _atom_site_fract_y
 _atom_site_fract_z
 _atom_site_occupancy
  Al  Al0  1  0.18370300  0.27824600  0.36974600  1
  Al  Al1  1  0.81629700  0.72175400  0.63025400  1
  Al  Al2  1  0.84993800  0.46568300  0.12512500  1
  Al  Al3  1  0.15006200  0.53431700  0.87487500  1
  Al  Al4  1  0.00000000  0.00000000  0.00000000  1
  Al  Al5  1  0.48370400  0.10247200  0.12376000  1
  Al  Al6  1  0.51629600  0.89752800  0.87624000  1
  Al  Al7  1  0.42475300  0.32931300  0.62768700  1
  Al  Al8  1  0.57524700  0.67068700  0.37231300  1
  Al  Al9  1  0.05674600  0.82863900  0.31690300  1
  Al  Al10  1  0.94325400  0.17136100  0.68309700  1
  Cr  Cr0  1  0.69908400  0.14501400  0.40004700  1
  Cr  Cr1  1  0.30091600  0.85498600  0.59995300  1
  Cr  Cr2  1  0.34227700  0.60260200  0.13364800  1
  Cr  Cr3  1  0.65772300  0.39739800  0.86635200  1
loop_
_geom_bond_atom_site_label_1
_geom_bond_atom_site_label_2
_geom_bond_distance
_geom_bond_site_symmetry_2
Al0 Cr1 2.542424 1_545
Al0 Cr2 2.544538 1_555
Al0 Cr0 2.588009 1_555
Al0 Al2 2.633396 1_455
Al0 Al9 2.673988 1_545
Al0 Cr0 2.676302 1_455
Al0 Al9 2.697655 1_555
Al0 Al7 2.721893 1_555
Al0 Al5 2.922539 1_555
Al1 Cr0 2.542424 1_565
Al1 Cr3 2.544538 1_555
Al1 Cr1 2.588009 1_555
Al1 Al3 2.633396 1_655
Al1 Al10 2.673988 1_565
Al1 Cr1 2.676302 1_655
Al1 Al10 2.697655 1_555
Al1 Al8 2.721893 1_555
Al1 Al6 2.922539 1_555
Al2 Cr2 2.561263 1_555
Al2 Cr3 2.657034 1_554
Al2 Al3 2.686024 1_654
Al2 Cr2 2.736218 1_655
Al2 Cr0 2.760541 1_555
Al2 Al5 2.877403 1_555
Al2 Al4 2.891667 1_655
Al2 Al4 2.915456 1_665
Al2 Al8 2.942932 1_555
Al2 Al6 2.964539 1_554
Al3 Cr3 2.561263 1_555
Al3 Cr2 2.657034 1_556
Al3 Cr3 2.736218 1_455
Al3 Cr1 2.760541 1_555
Al3 Al6 2.877403 1_555
Al3 Al4 2.891667 1_566
Al3 Al4 2.915456 1_556
Al3 Al7 2.942932 1_555
Al3 Al5 2.964539 1_556
Al4 Cr3 2.461120 1_454
Al4 Cr2 2.461120 1_545
Al4 Al9 2.735720 1_545
Al4 Al6 2.864345 1_544
Al4 Al5 2.864345 1_455
Al4 Al5 2.902506 1_555
Al4 Al6 2.902506 1_444
Al5 Cr2 2.568936 1_555
Al5 Cr3 2.641982 1_554
Al5 Al8 2.659001 1_545
Al5 Al6 2.693961 1_544
Al5 Cr2 2.776426 1_545
Al5 Cr0 2.793232 1_555
Al5 Al9 3.077934 1_545
Al6 Cr3 2.568936 1_555
Al6 Cr2 2.641982 1_556
Al6 Al7 2.659001 1_565
Al6 Cr3 2.776426 1_565
Al6 Cr1 2.793232 1_555
Al7 Cr3 2.588701 1_555
Al7 Cr1 2.606910 1_555
Al7 Al8 2.684103 1_555
Al7 Cr1 2.705869 1_545
Al7 Cr0 2.745532 1_555
Al8 Cr2 2.588701 1_555
Al8 Cr0 2.606910 1_555
Al8 Al9 2.628360 1_555
Al8 Cr0 2.705869 1_565
Al8 Al9 2.726336 1_655
Al8 Cr1 2.745532 1_555
Al9 Cr0 2.466165 1_465
Al9 Cr2 2.559197 1_555
Al9 Cr1 2.879708 1_555
Al10 Cr1 2.466165 1_645
Al10 Cr3 2.559197 1_555
Al10 Al7 2.628360 1_555
Al10 Al7 2.726336 1_655
Al10 Al4 2.735720 1_656
Al10 Cr0 2.879708 1_555
Al10 Al6 3.077934 1_545
