# generated using pymatgen
data_Co2(SO4)3
_symmetry_space_group_name_H-M   'P 1'
_cell_length_a   8.33370299
_cell_length_b   11.86072792
_cell_length_c   8.55229600
_cell_angle_alpha   90.00000000
_cell_angle_beta   90.00000000
_cell_angle_gamma   90.81427650
_symmetry_Int_Tables_number   1
_chemical_formula_structural   Co2(SO4)3
_chemical_formula_sum   'Co8 S12 O48'
_cell_volume   845.25592890
_cell_formula_units_Z   4
loop_
 _symmetry_equiv_pos_site_id
 _symmetry_equiv_pos_as_xyz
  1  'x, y, z'
loop_
 _atom_site_type_symbol
 _atom_site_label
 _atom_site_symmetry_multiplicity
 _atom_site_fract_x
 _atom_site_fract_y
 _atom_site_fract_z
 _atom_site_occupancy
  Co  Co0  1  0.24888000  0.88970900  0.02910400  1
  Co  Co1  1  0.25112000  0.61029100  0.52910400  1
  Co  Co2  1  0.25373500  0.38276300  0.96840600  1
  Co  Co3  1  0.24626500  0.11723700  0.46840600  1
  Co  Co4  1  0.75373500  0.88276300  0.53159400  1
  Co  Co5  1  0.74626500  0.61723700  0.03159400  1
  Co  Co6  1  0.74888000  0.38970900  0.47089600  1
  Co  Co7  1  0.75112000  0.11029100  0.97089600  1
  S  S0  1  0.04036000  0.49317200  0.24600500  1
  S  S1  1  0.10963200  0.85059600  0.37997800  1
  S  S2  1  0.11696800  0.14447200  0.11294900  1
  S  S3  1  0.39036800  0.64940400  0.87997800  1
  S  S4  1  0.38303200  0.35552800  0.61294900  1
  S  S5  1  0.45964000  0.00682800  0.74600500  1
  S  S6  1  0.54036000  0.99317200  0.25399500  1
  S  S7  1  0.61696800  0.64447200  0.38705100  1
  S  S8  1  0.60963200  0.35059600  0.12002200  1
  S  S9  1  0.88303200  0.85552800  0.88705100  1
  S  S10  1  0.89036800  0.14940400  0.62002200  1
  S  S11  1  0.95964000  0.50682800  0.75399500  1
  O  O0  1  0.05204200  0.44539500  0.87182600  1
  O  O1  1  0.04980100  0.89997500  0.88480100  1
  O  O2  1  0.05369900  0.59796200  0.67808400  1
  O  O3  1  0.05650900  0.18587700  0.57998300  1
  O  O4  1  0.10130400  0.57837700  0.36058700  1
  O  O5  1  0.12694200  0.83490400  0.20518900  1
  O  O6  1  0.13365800  0.97045600  0.41733900  1
  O  O7  1  0.12609900  0.24199000  0.00533400  1
  O  O8  1  0.16575300  0.18290100  0.27356800  1
  O  O9  1  0.18460000  0.44179900  0.17154800  1
  O  O10  1  0.22742400  0.78001800  0.46187400  1
  O  O11  1  0.27257600  0.71998200  0.96187400  1
  O  O12  1  0.23109300  0.05681500  0.06261300  1
  O  O13  1  0.26890700  0.44318500  0.56261300  1
  O  O14  1  0.31540000  0.05820100  0.67154800  1
  O  O15  1  0.33424700  0.31709900  0.77356800  1
  O  O16  1  0.36634200  0.52954400  0.91733900  1
  O  O17  1  0.37390100  0.25801000  0.50533400  1
  O  O18  1  0.37305800  0.66509600  0.70518900  1
  O  O19  1  0.39869600  0.92162300  0.86058700  1
  O  O20  1  0.44630100  0.90203800  0.17808400  1
  O  O21  1  0.45019900  0.60002500  0.38480100  1
  O  O22  1  0.44349100  0.31412300  0.07998300  1
  O  O23  1  0.44795800  0.05460500  0.37182600  1
  O  O24  1  0.55204200  0.94539500  0.62817400  1
  O  O25  1  0.55650900  0.68587700  0.92001700  1
  O  O26  1  0.54980100  0.39997500  0.61519900  1
  O  O27  1  0.55369900  0.09796200  0.82191600  1
  O  O28  1  0.60130400  0.07837700  0.13941300  1
  O  O29  1  0.62694200  0.33490400  0.29481100  1
  O  O30  1  0.62609900  0.74199000  0.49466600  1
  O  O31  1  0.63365800  0.47045600  0.08266100  1
  O  O32  1  0.66575300  0.68290100  0.22643200  1
  O  O33  1  0.68460000  0.94179900  0.32845200  1
  O  O34  1  0.73109300  0.55681500  0.43738700  1
  O  O35  1  0.76890700  0.94318500  0.93738700  1
  O  O36  1  0.72742400  0.28001800  0.03812600  1
  O  O37  1  0.77257600  0.21998200  0.53812600  1
  O  O38  1  0.81540000  0.55820100  0.82845200  1
  O  O39  1  0.83424700  0.81709900  0.72643200  1
  O  O40  1  0.87390100  0.75801000  0.99466600  1
  O  O41  1  0.86634200  0.02954400  0.58266100  1
  O  O42  1  0.87305800  0.16509600  0.79481100  1
  O  O43  1  0.89869600  0.42162300  0.63941300  1
  O  O44  1  0.94349100  0.81412300  0.42001700  1
  O  O45  1  0.94630100  0.40203800  0.32191600  1
  O  O46  1  0.95019900  0.10002500  0.11519900  1
  O  O47  1  0.94795800  0.55460500  0.12817400  1
loop_
_geom_bond_atom_site_label_1
_geom_bond_atom_site_label_2
_geom_bond_distance
_geom_bond_site_symmetry_2
Co0 O5 1.924641 1_555
Co0 O19 1.940550 1_554
Co0 O12 2.010167 1_565
Co0 O1 2.072709 1_554
Co0 O20 2.084411 1_555
Co0 O11 2.105564 1_554
Co1 O18 1.924641 1_555
Co1 O4 1.940550 1_555
Co1 O13 2.010167 1_555
Co1 O21 2.072709 1_555
Co1 O2 2.084411 1_555
Co1 O10 2.105564 1_555
Co2 O15 1.961684 1_555
Co2 O9 1.962658 1_556
Co2 O7 1.992104 1_556
Co2 O16 2.013901 1_555
Co2 O0 2.023569 1_555
Co2 O22 2.027483 1_556
Co3 O8 1.961684 1_555
Co3 O14 1.962658 1_555
Co3 O17 1.992104 1_555
Co3 O6 2.013901 1_545
Co3 O23 2.023569 1_555
Co3 O3 2.027483 1_555
Co4 O39 1.961684 1_555
Co4 O33 1.962658 1_555
Co4 O30 1.992104 1_555
Co4 O41 2.013901 1_565
Co4 O24 2.023569 1_555
Co4 O44 2.027483 1_555
Co5 O32 1.961684 1_555
Co5 O38 1.962658 1_554
Co5 O40 1.992104 1_554
Co5 O31 2.013901 1_555
Co5 O47 2.023569 1_555
Co5 O25 2.027483 1_554
Co6 O29 1.924641 1_555
Co6 O43 1.940550 1_555
Co6 O34 2.010167 1_555
Co6 O26 2.072709 1_555
Co6 O45 2.084411 1_555
Co6 O37 2.105564 1_555
Co7 O42 1.924641 1_555
Co7 O28 1.940550 1_556
Co7 O35 2.010167 1_545
Co7 O46 2.072709 1_556
Co7 O27 2.084411 1_555
Co7 O36 2.105564 1_556
O0 S11 1.468112 1_455
O1 S9 1.479531 1_455
O2 S11 1.476554 1_455
O3 S10 1.484724 1_455
O4 S0 1.491624 1_555
O5 S1 1.513533 1_555
O6 S1 1.468032 1_555
O7 S2 1.479238 1_555
O8 S2 1.501572 1_555
O9 S0 1.497501 1_555
O10 S1 1.475902 1_555
O11 S3 1.475902 1_555
O12 S2 1.482873 1_555
O13 S4 1.482873 1_555
O14 S5 1.497501 1_555
O15 S4 1.501572 1_555
O16 S3 1.468032 1_555
O17 S4 1.479238 1_555
O18 S3 1.513533 1_555
O19 S5 1.491624 1_565
O20 S6 1.476554 1_555
O21 S7 1.479531 1_555
O22 S8 1.484724 1_555
O23 S6 1.468112 1_545
O24 S5 1.468112 1_565
O25 S3 1.484724 1_555
O26 S4 1.479531 1_555
O27 S5 1.476554 1_555
O28 S6 1.491624 1_545
O29 S8 1.513533 1_555
O30 S7 1.479238 1_555
O31 S8 1.468032 1_555
O32 S7 1.501572 1_555
O33 S6 1.497501 1_555
O34 S7 1.482873 1_555
O35 S9 1.482873 1_555
O36 S8 1.475902 1_555
O37 S10 1.475902 1_555
O38 S11 1.497501 1_555
O39 S9 1.501572 1_555
O40 S9 1.479238 1_555
O41 S10 1.468032 1_555
O42 S10 1.513533 1_555
O43 S11 1.491624 1_555
O44 S1 1.484724 1_655
O45 S0 1.476554 1_655
O46 S2 1.479531 1_655
O47 S0 1.468112 1_655
