# generated using pymatgen
data_AgPt4
_symmetry_space_group_name_H-M   'P 1'
_cell_length_a   23.71559876
_cell_length_b   23.71559876
_cell_length_c   23.71560044
_cell_angle_alpha   13.41558913
_cell_angle_beta   13.41558913
_cell_angle_gamma   13.41558777
_symmetry_Int_Tables_number   1
_chemical_formula_structural   AgPt4
_chemical_formula_sum   'Ag8 Pt32'
_cell_volume   624.64817890
_cell_formula_units_Z   8
loop_
 _symmetry_equiv_pos_site_id
 _symmetry_equiv_pos_as_xyz
  1  'x, y, z'
loop_
 _atom_site_type_symbol
 _atom_site_label
 _atom_site_symmetry_multiplicity
 _atom_site_fract_x
 _atom_site_fract_y
 _atom_site_fract_z
 _atom_site_occupancy
  Ag  Ag0_0  1  0.00000000  0.00000000  0.00000000  1
  Ag  Ag0_1  1  0.00000000  0.00000000  0.50000000  1
  Ag  Ag0_2  1  0.00000000  0.50000000  0.00000000  1
  Ag  Ag0_3  1  0.00000000  0.50000000  0.50000000  1
  Ag  Ag0_4  1  0.50000000  1.00000000  0.00000000  1
  Ag  Ag0_5  1  0.50000000  0.00000000  0.50000000  1
  Ag  Ag0_6  1  0.50000000  0.50000000  0.00000000  1
  Ag  Ag0_7  1  0.50000000  0.50000000  0.50000000  1
  Pt  Pt0_0  1  0.29942781  0.29942780  0.29942781  1
  Pt  Pt0_1  1  0.29942780  0.29942780  0.79942781  1
  Pt  Pt0_2  1  0.29942781  0.79942780  0.29942780  1
  Pt  Pt0_3  1  0.29942781  0.79942780  0.79942781  1
  Pt  Pt0_4  1  0.79942781  0.29942780  0.29942780  1
  Pt  Pt0_5  1  0.79942780  0.29942780  0.79942781  1
  Pt  Pt0_6  1  0.79942781  0.79942780  0.29942781  1
  Pt  Pt0_7  1  0.79942781  0.79942780  0.79942781  1
  Pt  Pt1_0  1  0.09972499  0.09972498  0.09972499  1
  Pt  Pt1_1  1  0.09972498  0.09972498  0.59972499  1
  Pt  Pt1_2  1  0.09972499  0.59972498  0.09972499  1
  Pt  Pt1_3  1  0.09972499  0.59972498  0.59972499  1
  Pt  Pt1_4  1  0.59972499  0.09972498  0.09972499  1
  Pt  Pt1_5  1  0.59972499  0.09972498  0.59972499  1
  Pt  Pt1_6  1  0.59972499  0.59972498  0.09972499  1
  Pt  Pt1_7  1  0.59972499  0.59972498  0.59972498  1
  Pt  Pt2_0  1  0.40027502  0.40027501  0.40027502  1
  Pt  Pt2_1  1  0.40027502  0.40027501  0.90027502  1
  Pt  Pt2_2  1  0.40027502  0.90027502  0.40027502  1
  Pt  Pt2_3  1  0.40027502  0.90027501  0.90027502  1
  Pt  Pt2_4  1  0.90027502  0.40027501  0.40027502  1
  Pt  Pt2_5  1  0.90027502  0.40027501  0.90027502  1
  Pt  Pt2_6  1  0.90027502  0.90027501  0.40027502  1
  Pt  Pt2_7  1  0.90027502  0.90027501  0.90027502  1
  Pt  Pt3_0  1  0.20057220  0.20057219  0.20057220  1
  Pt  Pt3_1  1  0.20057220  0.20057219  0.70057220  1
  Pt  Pt3_2  1  0.20057220  0.70057219  0.20057220  1
  Pt  Pt3_3  1  0.20057220  0.70057220  0.70057220  1
  Pt  Pt3_4  1  0.70057220  0.20057219  0.20057220  1
  Pt  Pt3_5  1  0.70057220  0.20057219  0.70057220  1
  Pt  Pt3_6  1  0.70057220  0.70057219  0.20057220  1
  Pt  Pt3_7  1  0.70057220  0.70057219  0.70057220  1
loop_
_geom_bond_atom_site_label_1
_geom_bond_atom_site_label_2
_geom_bond_distance
_geom_bond_site_symmetry_2
Ag0_0 Ag0_6 2.770120 1_455
Ag0_0 Ag0_6 2.770120 1_545
Ag0_0 Ag0_5 2.770121 1_455
Ag0_0 Ag0_3 2.770121 1_554
Ag0_0 Ag0_3 2.770121 1_545
Ag0_0 Ag0_5 2.770121 1_554
Ag0_0 Pt3_1 2.875942 1_554
Ag0_0 Pt0_6 2.875942 1_445
Ag0_0 Pt0_3 2.875943 1_544
Ag0_0 Pt0_5 2.875943 1_454
Ag0_0 Pt3_4 2.875943 1_455
Ag0_0 Pt3_2 2.875943 1_545
Ag0_1 Ag0_7 2.770120 1_455
Ag0_1 Ag0_7 2.770120 1_545
Ag0_1 Ag0_4 2.770121 1_545
Ag0_1 Ag0_2 2.770121 1_546
Ag0_1 Ag0_2 2.770121 1_555
Ag0_1 Ag0_4 2.770121 1_446
Ag0_1 Pt0_7 2.875942 1_445
Ag0_1 Pt3_0 2.875942 1_555
Ag0_1 Pt0_2 2.875943 1_545
Ag0_1 Pt3_5 2.875943 1_455
Ag0_1 Pt0_4 2.875943 1_455
Ag0_1 Pt3_3 2.875943 1_545
Ag0_2 Ag0_4 2.770120 1_455
Ag0_2 Ag0_4 2.770120 1_545
Ag0_2 Ag0_7 2.770121 1_455
Ag0_2 Ag0_7 2.770121 1_554
Ag0_2 Pt3_3 2.875942 1_554
Ag0_2 Pt0_4 2.875942 1_455
Ag0_2 Pt0_7 2.875943 1_454
Ag0_2 Pt3_6 2.875943 1_455
Ag0_2 Pt3_0 2.875943 1_555
Ag0_2 Pt0_1 2.875943 1_554
Ag0_3 Ag0_5 2.770120 1_465
Ag0_3 Ag0_5 2.770120 1_555
Ag0_3 Ag0_6 2.770121 1_456
Ag0_3 Ag0_6 2.770121 1_555
Ag0_3 Pt3_2 2.875942 1_555
Ag0_3 Pt0_5 2.875942 1_455
Ag0_3 Pt3_7 2.875943 1_455
Ag0_3 Pt3_1 2.875943 1_555
Ag0_3 Pt0_6 2.875943 1_455
Ag0_3 Pt0_0 2.875943 1_555
Ag0_4 Ag0_7 2.770121 1_555
Ag0_4 Ag0_7 2.770121 1_564
Ag0_4 Pt0_2 2.875942 1_555
Ag0_4 Pt3_5 2.875942 1_564
Ag0_4 Pt0_7 2.875943 1_554
Ag0_4 Pt3_0 2.875943 1_565
Ag0_4 Pt3_6 2.875943 1_555
Ag0_4 Pt0_1 2.875943 1_564
Ag0_5 Ag0_6 2.770121 1_555
Ag0_5 Ag0_6 2.770121 1_546
Ag0_5 Pt3_4 2.875942 1_555
Ag0_5 Pt0_3 2.875942 1_545
Ag0_5 Pt3_7 2.875943 1_545
Ag0_5 Pt3_1 2.875943 1_555
Ag0_5 Pt0_6 2.875943 1_545
Ag0_5 Pt0_0 2.875943 1_555
Ag0_6 Pt3_7 2.875942 1_554
Ag0_6 Pt0_0 2.875942 1_555
Ag0_6 Pt3_4 2.875943 1_555
Ag0_6 Pt3_2 2.875943 1_555
Ag0_6 Pt0_3 2.875943 1_554
Ag0_6 Pt0_5 2.875943 1_554
Ag0_7 Pt3_6 2.875942 1_555
Ag0_7 Pt0_1 2.875942 1_555
Ag0_7 Pt0_2 2.875943 1_555
Ag0_7 Pt3_5 2.875943 1_555
Ag0_7 Pt0_4 2.875943 1_555
Ag0_7 Pt3_3 2.875943 1_555
Pt0_0 Pt0_6 2.770120 1_455
Pt0_0 Pt0_6 2.770120 1_545
Pt0_0 Pt0_3 2.770121 1_554
Pt0_0 Pt0_5 2.770121 1_554
Pt0_0 Pt0_5 2.770121 1_455
Pt0_0 Pt0_3 2.770121 1_545
Pt0_0 Pt1_1 2.825210 1_555
Pt0_0 Pt1_2 2.825211 1_555
Pt0_0 Pt1_4 2.825211 1_555
Pt0_1 Pt0_7 2.770120 1_455
Pt0_1 Pt0_7 2.770120 1_545
Pt0_1 Pt0_4 2.770121 1_456
Pt0_1 Pt0_2 2.770121 1_546
Pt0_1 Pt0_4 2.770121 1_555
Pt0_1 Pt0_2 2.770121 1_555
Pt0_1 Pt1_0 2.825210 1_556
Pt0_1 Pt1_3 2.825211 1_555
Pt0_1 Pt1_5 2.825211 1_555
Pt0_2 Pt0_4 2.770120 1_555
Pt0_2 Pt0_4 2.770120 1_465
Pt0_2 Pt0_7 2.770121 1_554
Pt0_2 Pt0_7 2.770121 1_455
Pt0_2 Pt1_3 2.825210 1_555
Pt0_2 Pt1_0 2.825211 1_565
Pt0_2 Pt1_6 2.825211 1_555
Pt0_3 Pt0_5 2.770120 1_465
Pt0_3 Pt0_5 2.770120 1_555
Pt0_3 Pt0_6 2.770121 1_456
Pt0_3 Pt0_6 2.770121 1_555
Pt0_3 Pt1_2 2.825210 1_556
Pt0_3 Pt1_1 2.825211 1_565
Pt0_3 Pt1_7 2.825211 1_555
Pt0_4 Pt0_7 2.770121 1_554
Pt0_4 Pt0_7 2.770121 1_545
Pt0_4 Pt1_5 2.825210 1_555
Pt0_4 Pt1_0 2.825211 1_655
Pt0_4 Pt1_6 2.825211 1_555
Pt0_5 Pt0_6 2.770121 1_555
Pt0_5 Pt0_6 2.770121 1_546
Pt0_5 Pt1_4 2.825210 1_556
Pt0_5 Pt1_1 2.825211 1_655
Pt0_5 Pt1_7 2.825211 1_555
Pt0_6 Pt1_7 2.825210 1_555
Pt0_6 Pt1_2 2.825211 1_655
Pt0_6 Pt1_4 2.825211 1_565
Pt0_7 Pt1_6 2.825210 1_556
Pt0_7 Pt1_3 2.825211 1_655
Pt0_7 Pt1_5 2.825211 1_565
Pt1_0 Pt1_6 2.770120 1_455
Pt1_0 Pt1_6 2.770120 1_545
Pt1_0 Pt1_5 2.770121 1_455
Pt1_0 Pt1_3 2.770121 1_545
Pt1_0 Pt1_5 2.770121 1_554
Pt1_0 Pt1_3 2.770121 1_554
Pt1_0 Pt2_6 2.810535 1_445
Pt1_0 Pt2_5 2.810535 1_454
Pt1_0 Pt2_3 2.810535 1_544
Pt1_1 Pt1_7 2.770120 1_455
Pt1_1 Pt1_7 2.770120 1_545
Pt1_1 Pt1_2 2.770121 1_546
Pt1_1 Pt1_4 2.770121 1_456
Pt1_1 Pt1_2 2.770121 1_555
Pt1_1 Pt1_4 2.770121 1_555
Pt1_1 Pt2_7 2.810535 1_445
Pt1_1 Pt2_2 2.810535 1_545
Pt1_1 Pt2_4 2.810535 1_455
Pt1_2 Pt1_4 2.770120 1_555
Pt1_2 Pt1_4 2.770120 1_465
Pt1_2 Pt1_7 2.770121 1_455
Pt1_2 Pt1_7 2.770121 1_554
Pt1_2 Pt2_4 2.810535 1_455
Pt1_2 Pt2_7 2.810535 1_454
Pt1_2 Pt2_1 2.810535 1_554
Pt1_3 Pt1_5 2.770120 1_465
Pt1_3 Pt1_5 2.770120 1_555
Pt1_3 Pt1_6 2.770121 1_555
Pt1_3 Pt1_6 2.770121 1_456
Pt1_3 Pt2_5 2.810535 1_455
Pt1_3 Pt2_0 2.810535 1_555
Pt1_3 Pt2_6 2.810535 1_455
Pt1_4 Pt1_7 2.770121 1_545
Pt1_4 Pt1_7 2.770121 1_554
Pt1_4 Pt2_2 2.810535 1_545
Pt1_4 Pt2_7 2.810535 1_544
Pt1_4 Pt2_1 2.810535 1_554
Pt1_5 Pt1_6 2.770121 1_555
Pt1_5 Pt1_6 2.770121 1_546
Pt1_5 Pt2_3 2.810535 1_545
Pt1_5 Pt2_0 2.810535 1_555
Pt1_5 Pt2_6 2.810535 1_545
Pt1_6 Pt2_0 2.810535 1_555
Pt1_6 Pt2_3 2.810535 1_554
Pt1_6 Pt2_5 2.810535 1_554
Pt1_7 Pt2_1 2.810535 1_555
Pt1_7 Pt2_2 2.810535 1_555
Pt1_7 Pt2_4 2.810535 1_555
Pt2_0 Pt2_6 2.770120 1_455
Pt2_0 Pt2_6 2.770120 1_545
Pt2_0 Pt2_5 2.770121 1_455
Pt2_0 Pt2_3 2.770121 1_554
Pt2_0 Pt2_3 2.770121 1_545
Pt2_0 Pt2_5 2.770121 1_554
Pt2_0 Pt3_1 2.825210 1_555
Pt2_0 Pt3_2 2.825211 1_555
Pt2_0 Pt3_4 2.825211 1_555
Pt2_1 Pt2_7 2.770120 1_455
Pt2_1 Pt2_7 2.770120 1_545
Pt2_1 Pt2_4 2.770121 1_555
Pt2_1 Pt2_2 2.770121 1_546
Pt2_1 Pt2_4 2.770121 1_456
Pt2_1 Pt2_2 2.770121 1_555
Pt2_1 Pt3_0 2.825210 1_556
Pt2_1 Pt3_3 2.825211 1_555
Pt2_1 Pt3_5 2.825211 1_555
Pt2_2 Pt2_4 2.770120 1_555
Pt2_2 Pt2_4 2.770120 1_465
Pt2_2 Pt2_7 2.770121 1_554
Pt2_2 Pt2_7 2.770121 1_455
Pt2_2 Pt3_3 2.825210 1_555
Pt2_2 Pt3_0 2.825211 1_565
Pt2_2 Pt3_6 2.825211 1_555
Pt2_3 Pt2_5 2.770120 1_465
Pt2_3 Pt2_5 2.770120 1_555
Pt2_3 Pt2_6 2.770121 1_555
Pt2_3 Pt2_6 2.770121 1_456
Pt2_3 Pt3_2 2.825210 1_556
Pt2_3 Pt3_7 2.825211 1_555
Pt2_3 Pt3_1 2.825211 1_565
Pt2_4 Pt2_7 2.770121 1_554
Pt2_4 Pt2_7 2.770121 1_545
Pt2_4 Pt3_5 2.825210 1_555
Pt2_4 Pt3_0 2.825211 1_655
Pt2_4 Pt3_6 2.825211 1_555
Pt2_5 Pt2_6 2.770121 1_555
Pt2_5 Pt2_6 2.770121 1_546
Pt2_5 Pt3_4 2.825210 1_556
Pt2_5 Pt3_7 2.825211 1_555
Pt2_5 Pt3_1 2.825211 1_655
Pt2_6 Pt3_7 2.825210 1_555
Pt2_6 Pt3_2 2.825211 1_655
Pt2_6 Pt3_4 2.825211 1_565
Pt2_7 Pt3_6 2.825210 1_556
Pt2_7 Pt3_3 2.825211 1_655
Pt2_7 Pt3_5 2.825211 1_565
Pt3_0 Pt3_6 2.770120 1_455
Pt3_0 Pt3_6 2.770120 1_545
Pt3_0 Pt3_5 2.770121 1_554
Pt3_0 Pt3_5 2.770121 1_455
Pt3_0 Pt3_3 2.770121 1_554
Pt3_0 Pt3_3 2.770121 1_545
Pt3_1 Pt3_7 2.770120 1_455
Pt3_1 Pt3_7 2.770120 1_545
Pt3_1 Pt3_4 2.770121 1_555
Pt3_1 Pt3_2 2.770121 1_555
Pt3_1 Pt3_4 2.770121 1_456
Pt3_1 Pt3_2 2.770121 1_546
Pt3_2 Pt3_4 2.770120 1_555
Pt3_2 Pt3_4 2.770120 1_465
Pt3_2 Pt3_7 2.770121 1_554
Pt3_2 Pt3_7 2.770121 1_455
Pt3_3 Pt3_5 2.770120 1_555
Pt3_3 Pt3_5 2.770120 1_465
Pt3_3 Pt3_6 2.770121 1_555
Pt3_3 Pt3_6 2.770121 1_456
Pt3_4 Pt3_7 2.770121 1_554
Pt3_4 Pt3_7 2.770121 1_545
Pt3_5 Pt3_6 2.770121 1_555
Pt3_5 Pt3_6 2.770121 1_546
