# generated using pymatgen
data_K5Bi4
_symmetry_space_group_name_H-M   'P 1'
_cell_length_a   6.92896969
_cell_length_b   6.92896969
_cell_length_c   11.68467302
_cell_angle_alpha   70.66067304
_cell_angle_beta   70.66067304
_cell_angle_gamma   47.53190648
_symmetry_Int_Tables_number   1
_chemical_formula_structural   K5Bi4
_chemical_formula_sum   'K5 Bi4'
_cell_volume   385.77388604
_cell_formula_units_Z   1
loop_
 _symmetry_equiv_pos_site_id
 _symmetry_equiv_pos_as_xyz
  1  'x, y, z'
loop_
 _atom_site_type_symbol
 _atom_site_label
 _atom_site_symmetry_multiplicity
 _atom_site_fract_x
 _atom_site_fract_y
 _atom_site_fract_z
 _atom_site_occupancy
  K  K0  1  0.90481666  0.90481666  0.38771965  1
  K  K1  1  0.09518334  0.09518334  0.61228035  1
  K  K2  1  0.24409658  0.24409658  0.16642997  1
  K  K3  1  0.75590342  0.75590342  0.83357003  1
  K  K4  1  -0.00000000  -0.00000000  0.00000000  1
  Bi  Bi0  1  0.60982362  0.60982362  0.39176304  1
  Bi  Bi1  1  0.39017638  0.39017638  0.60823696  1
  Bi  Bi2  1  0.54429163  0.54429163  0.17104610  1
  Bi  Bi3  1  0.45570837  0.45570837  0.82895390  1
loop_
_geom_bond_atom_site_label_1
_geom_bond_atom_site_label_2
_geom_bond_distance
_geom_bond_site_symmetry_2
Bi0 Bi2 2.982158 1_555
Bi0 Bi1 3.009809 1_555
Bi0 K0 3.724496 1_555
Bi0 K1 3.758310 1_565
Bi0 K1 3.758310 1_655
Bi0 K2 3.792753 1_655
Bi0 K2 3.792753 1_565
Bi0 K0 3.827381 1_455
Bi0 K0 3.827381 1_545
Bi1 Bi3 2.982158 1_555
Bi1 K1 3.724496 1_555
Bi1 K0 3.758310 1_455
Bi1 K0 3.758310 1_545
Bi1 K3 3.792753 1_455
Bi1 K3 3.792753 1_545
Bi1 K1 3.827381 1_565
Bi1 K1 3.827381 1_655
Bi2 K4 3.594431 1_565
Bi2 K4 3.594431 1_655
Bi2 K0 3.754367 1_545
Bi2 K0 3.754367 1_455
Bi2 K2 3.758055 1_565
Bi2 K2 3.758055 1_655
Bi2 K2 3.827154 1_555
Bi2 K3 3.885045 1_554
Bi3 K4 3.594431 1_656
Bi3 K4 3.594431 1_566
Bi3 K1 3.754367 1_655
Bi3 K1 3.754367 1_565
Bi3 K3 3.758055 1_455
Bi3 K3 3.758055 1_545
Bi3 K3 3.827154 1_555
Bi3 K2 3.885045 1_556
