# generated using pymatgen
data_Sm3Sb4Pt7
_symmetry_space_group_name_H-M   'P 1'
_cell_length_a   4.27341332
_cell_length_b   8.55987272
_cell_length_c   8.59120908
_cell_angle_alpha   75.40627241
_cell_angle_beta   75.59891254
_cell_angle_gamma   75.54503974
_symmetry_Int_Tables_number   1
_chemical_formula_structural   Sm3Sb4Pt7
_chemical_formula_sum   'Sm3 Sb4 Pt7'
_cell_volume   288.65130510
_cell_formula_units_Z   1
loop_
 _symmetry_equiv_pos_site_id
 _symmetry_equiv_pos_as_xyz
  1  'x, y, z'
loop_
 _atom_site_type_symbol
 _atom_site_label
 _atom_site_symmetry_multiplicity
 _atom_site_fract_x
 _atom_site_fract_y
 _atom_site_fract_z
 _atom_site_occupancy
  Sm  Sm0  1  0.50000000  -0.00000000  0.00000000  1
  Sm  Sm1  1  0.17141587  0.34221446  0.31495579  1
  Sm  Sm2  1  0.82858413  0.65778554  0.68504421  1
  Sb  Sb0  1  0.36022559  0.86987931  0.40967150  1
  Sb  Sb1  1  0.82876953  0.31797833  0.02448261  1
  Sb  Sb2  1  0.17123047  0.68202167  0.97551739  1
  Sb  Sb3  1  0.63977441  0.13012069  0.59032850  1
  Pt  Pt0  1  0.16953532  0.92981162  0.73111774  1
  Pt  Pt1  1  0.37714999  0.40107359  0.84462444  1
  Pt  Pt2  1  0.50000000  0.50000000  0.50000000  1
  Pt  Pt3  1  0.83046468  0.07018838  0.26888226  1
  Pt  Pt4  1  0.01725709  0.29238966  0.67309616  1
  Pt  Pt5  1  0.98274291  0.70761034  0.32690384  1
  Pt  Pt6  1  0.62285001  0.59892641  0.15537556  1
loop_
_geom_bond_atom_site_label_1
_geom_bond_atom_site_label_2
_geom_bond_distance
_geom_bond_site_symmetry_2
Sb0 Sm2 3.357939 1_555
Sb0 Sm2 3.357950 1_455
Sb0 Sm0 3.360911 1_565
Sb1 Sm1 3.262645 1_555
Sb1 Sm1 3.262650 1_655
Sb1 Sm0 3.430933 1_555
Sb1 Sm0 3.430934 1_655
Sb1 Sm2 3.562337 1_554
Sb2 Sm2 3.262645 1_555
Sb2 Sm2 3.262650 1_455
Sb2 Sm0 3.430933 1_566
Sb2 Sm0 3.430934 1_466
Sb2 Sm1 3.562337 1_556
Sb3 Sm1 3.357939 1_555
Sb3 Sm1 3.357950 1_655
Sb3 Sm0 3.360911 1_556
Pt0 Sb2 2.581324 1_555
Pt0 Sb3 2.811966 1_565
Pt0 Sb3 2.811972 1_465
Pt0 Sb0 2.817723 1_555
Pt0 Pt4 2.945821 1_565
Pt0 Sm2 3.185376 1_555
Pt0 Sm2 3.185381 1_455
Pt0 Sm0 3.230663 1_566
Pt0 Sm0 3.230663 1_466
Pt1 Sb1 2.619630 1_456
Pt1 Sb1 2.619637 1_556
Pt1 Sb2 2.763411 1_555
Pt1 Pt4 2.816909 1_555
Pt1 Pt4 2.816916 1_655
Pt1 Pt2 2.818514 1_555
Pt1 Sm2 3.116498 1_455
Pt1 Sm2 3.116498 1_555
Pt1 Sm0 3.314108 1_556
Pt2 Pt6 2.818514 1_555
Pt2 Pt5 2.932226 1_455
Pt2 Pt4 2.932226 1_655
Pt2 Pt5 2.932226 1_555
Pt2 Pt4 2.932226 1_555
Pt2 Sb3 3.005262 1_555
Pt2 Sb0 3.005262 1_555
Pt2 Sm1 3.076104 1_555
Pt2 Sm2 3.076104 1_555
Pt2 Sm1 3.076110 1_655
Pt2 Sm2 3.076110 1_455
Pt3 Sb1 2.581324 1_555
Pt3 Sb0 2.811966 1_545
Pt3 Sb0 2.811972 1_645
Pt3 Sb3 2.817723 1_555
Pt3 Pt5 2.945821 1_545
Pt3 Sm1 3.185376 1_555
Pt3 Sm1 3.185381 1_655
Pt3 Sm0 3.230663 1_555
Pt3 Sm0 3.230663 1_655
Pt4 Sb3 2.687758 1_555
Pt4 Sb3 2.687765 1_455
Pt4 Sm1 2.924668 1_555
Pt4 Sb1 2.974180 1_456
Pt4 Sm2 3.050413 1_455
Pt5 Sb0 2.687758 1_555
Pt5 Sb0 2.687765 1_655
Pt5 Pt6 2.816909 1_555
Pt5 Pt6 2.816916 1_655
Pt5 Sm2 2.924668 1_555
Pt5 Sb2 2.974180 1_654
Pt5 Sm1 3.050413 1_655
Pt6 Sb2 2.619630 1_654
Pt6 Sb2 2.619637 1_554
Pt6 Sb1 2.763411 1_555
Pt6 Sm1 3.116498 1_655
Pt6 Sm1 3.116498 1_555
Pt6 Sm0 3.314108 1_565
