# generated using pymatgen
data_Hf4GeSb7
_symmetry_space_group_name_H-M   'P 1'
_cell_length_a   3.96976430
_cell_length_b   7.30166391
_cell_length_c   9.54238133
_cell_angle_alpha   89.56348069
_cell_angle_beta   90.00000000
_cell_angle_gamma   90.00000000
_symmetry_Int_Tables_number   1
_chemical_formula_structural   Hf4GeSb7
_chemical_formula_sum   'Hf4 Ge1 Sb7'
_cell_volume   276.58633811
_cell_formula_units_Z   1
loop_
 _symmetry_equiv_pos_site_id
 _symmetry_equiv_pos_as_xyz
  1  'x, y, z'
loop_
 _atom_site_type_symbol
 _atom_site_label
 _atom_site_symmetry_multiplicity
 _atom_site_fract_x
 _atom_site_fract_y
 _atom_site_fract_z
 _atom_site_occupancy
  Hf  Hf0  1  0.00000000  0.75688873  0.65909317  1
  Hf  Hf1  1  -0.00000000  0.26434231  0.83092787  1
  Hf  Hf2  1  0.50000000  0.24083631  0.34310718  1
  Hf  Hf3  1  0.50000000  0.74153713  0.16491943  1
  Ge  Ge0  1  -0.00000000  0.36770307  0.54526119  1
  Sb  Sb0  1  0.00000000  0.43342776  0.15151599  1
  Sb  Sb1  1  0.00000000  0.92901321  0.35525874  1
  Sb  Sb2  1  0.50000000  0.56928786  0.84829657  1
  Sb  Sb3  1  0.50000000  0.07905105  0.64177521  1
  Sb  Sb4  1  0.00000000  0.86997121  0.95335332  1
  Sb  Sb5  1  0.50000000  0.61211197  0.46109312  1
  Sb  Sb6  1  0.50000000  0.13582540  0.04539923  1
loop_
_geom_bond_atom_site_label_1
_geom_bond_atom_site_label_2
_geom_bond_distance
_geom_bond_site_symmetry_2
Hf0 Sb4 2.932854 1_555
Hf0 Sb5 2.942359 1_455
Hf0 Sb5 2.942359 1_555
Hf0 Sb2 3.006339 1_555
Hf0 Sb2 3.006339 1_455
Hf0 Sb3 3.081324 1_465
Hf0 Sb3 3.081324 1_565
Hf0 Sb1 3.151186 1_555
Hf1 Sb2 2.988418 1_555
Hf1 Sb2 2.988418 1_455
Hf1 Sb6 2.996582 1_456
Hf1 Sb6 2.996582 1_556
Hf1 Sb3 3.010864 1_555
Hf1 Sb3 3.010864 1_455
Hf1 Sb4 3.099258 1_545
Hf1 Sb0 3.307619 1_556
Hf2 Sb5 2.943336 1_555
Hf2 Sb6 2.948133 1_555
Hf2 Sb1 3.022106 1_645
Hf2 Sb1 3.022106 1_545
Hf2 Sb0 3.036534 1_655
Hf2 Sb0 3.036534 1_555
Hf2 Sb3 3.076800 1_555
Hf3 Sb5 2.973178 1_555
Hf3 Sb4 2.977596 1_654
Hf3 Sb4 2.977596 1_554
Hf3 Sb0 3.003614 1_655
Hf3 Sb0 3.003614 1_555
Hf3 Sb1 3.024964 1_555
Hf3 Sb1 3.024964 1_655
Hf3 Sb6 3.088550 1_565
Hf3 Sb2 3.281493 1_554
Ge0 Sb5 2.783479 1_455
Ge0 Sb5 2.783479 1_555
Ge0 Hf1 2.822939 1_555
Ge0 Hf2 2.923397 1_555
Ge0 Hf2 2.923397 1_455
Ge0 Sb3 3.033236 1_455
Ge0 Sb3 3.033236 1_555
Ge0 Hf0 3.049951 1_555
Sb0 Sb6 3.117780 1_555
Sb0 Sb6 3.117780 1_455
Sb2 Sb4 3.130248 1_555
Sb2 Sb4 3.130248 1_655
Sb4 Sb6 2.916399 1_466
Sb4 Sb6 2.916399 1_566
