# generated using pymatgen
data_Li7Co5O12
_symmetry_space_group_name_H-M   'P 1'
_cell_length_a   14.65236741
_cell_length_b   14.65236741
_cell_length_c   5.06362641
_cell_angle_alpha   80.58677239
_cell_angle_beta   80.58677239
_cell_angle_gamma   11.48088180
_symmetry_Int_Tables_number   1
_chemical_formula_structural   Li7Co5O12
_chemical_formula_sum   'Li7 Co5 O12'
_cell_volume   213.43793468
_cell_formula_units_Z   1
loop_
 _symmetry_equiv_pos_site_id
 _symmetry_equiv_pos_as_xyz
  1  'x, y, z'
loop_
 _atom_site_type_symbol
 _atom_site_label
 _atom_site_symmetry_multiplicity
 _atom_site_fract_x
 _atom_site_fract_y
 _atom_site_fract_z
 _atom_site_occupancy
  Li  Li0  1  0.24995600  0.24995600  0.75209100  1
  Li  Li1  1  0.41848200  0.41848200  0.91445000  1
  Li  Li2  1  0.58151800  0.58151800  0.08555000  1
  Li  Li3  1  0.91824200  0.91824200  0.42311700  1
  Li  Li4  1  0.08175800  0.08175800  0.57688300  1
  Li  Li5  1  0.75004400  0.75004400  0.24790900  1
  Li  Li6  1  0.50000000  0.50000000  0.50000000  1
  Co  Co0  1  0.00000000  0.00000000  0.00000000  1
  Co  Co1  1  0.16639200  0.16639200  0.16645300  1
  Co  Co2  1  0.33352100  0.33352100  0.33345100  1
  Co  Co3  1  0.66647900  0.66647900  0.66654900  1
  Co  Co4  1  0.83360800  0.83360800  0.83354700  1
  O  O0  1  0.37311300  0.37311300  0.63004300  1
  O  O1  1  0.53618100  0.53618100  0.81679800  1
  O  O2  1  0.70540400  0.70540400  0.96504500  1
  O  O3  1  0.03655500  0.03655500  0.25216700  1
  O  O4  1  0.20467300  0.20467300  0.46413700  1
  O  O5  1  0.87118200  0.87118200  0.13366200  1
  O  O6  1  0.12881800  0.12881800  0.86633800  1
  O  O7  1  0.29459600  0.29459600  0.03495500  1
  O  O8  1  0.46381900  0.46381900  0.18320200  1
  O  O9  1  0.79532700  0.79532700  0.53586300  1
  O  O10  1  0.96344500  0.96344500  0.74783300  1
  O  O11  1  0.62688700  0.62688700  0.36995700  1
loop_
_geom_bond_atom_site_label_1
_geom_bond_atom_site_label_2
_geom_bond_distance
_geom_bond_site_symmetry_2
Li0 O7 2.087728 1_556
Li0 O4 2.121857 1_555
Li0 O2 2.130170 1_455
Li0 O2 2.130170 1_545
Li0 O9 2.149555 1_455
Li0 O9 2.149555 1_545
Li1 O8 2.047156 1_556
Li1 O10 2.053001 1_545
Li1 O10 2.053001 1_455
Li1 O0 2.109560 1_555
Li1 O5 2.186044 1_546
Li1 O5 2.186044 1_456
Li2 O1 2.047156 1_554
Li2 O3 2.053001 1_655
Li2 O3 2.053001 1_565
Li2 O11 2.109560 1_555
Li2 O6 2.186044 1_654
Li2 O6 2.186044 1_564
Li3 O0 2.126960 1_655
Li3 O0 2.126960 1_565
Li3 O5 2.166166 1_555
Li3 O8 2.204311 1_565
Li3 O8 2.204311 1_655
Li3 O10 2.270058 1_555
Li4 O11 2.126960 1_545
Li4 O11 2.126960 1_455
Li4 O6 2.166166 1_555
Li4 O1 2.204311 1_455
Li4 O1 2.204311 1_545
Li4 O3 2.270058 1_555
Li5 O2 2.087728 1_554
Li5 O9 2.121857 1_555
Li5 O7 2.130170 1_655
Li5 O7 2.130170 1_565
Li5 O4 2.149555 1_565
Li5 O4 2.149555 1_655
Li6 O8 2.059752 1_555
Li6 O1 2.059752 1_555
Li6 O3 2.102153 1_655
Li6 O3 2.102153 1_565
Li6 O10 2.102153 1_545
Li6 O10 2.102153 1_455
Co0 O3 1.792739 1_555
Co0 O10 1.792739 1_444
Co0 O1 1.949264 1_544
Co0 O1 1.949264 1_454
Co0 O8 1.949264 1_455
Co0 O8 1.949264 1_545
Co1 O6 2.014207 1_554
Co1 O4 2.017708 1_555
Co1 O2 2.024969 1_454
Co1 O2 2.024969 1_544
Co1 O11 2.036254 1_545
Co1 O11 2.036254 1_455
Co2 O5 2.002984 1_545
Co2 O5 2.002984 1_455
Co2 O9 2.015772 1_545
Co2 O9 2.015772 1_455
Co2 O7 2.033880 1_555
Co2 O0 2.039153 1_555
Co3 O6 2.002984 1_655
Co3 O6 2.002984 1_565
Co3 O4 2.015772 1_565
Co3 O4 2.015772 1_655
Co3 O2 2.033880 1_555
Co3 O11 2.039153 1_555
Co4 O5 2.014207 1_556
Co4 O9 2.017708 1_555
Co4 O7 2.024969 1_656
Co4 O7 2.024969 1_566
Co4 O0 2.036254 1_655
Co4 O0 2.036254 1_565
