# generated using pymatgen
data_Gd(Co5Mo)2
_symmetry_space_group_name_H-M   'P 1'
_cell_length_a   4.69991800
_cell_length_b   6.44717407
_cell_length_c   6.44717407
_cell_angle_alpha   97.69107100
_cell_angle_beta   111.37647203
_cell_angle_gamma   68.62352797
_symmetry_Int_Tables_number   1
_chemical_formula_structural   Gd(Co5Mo)2
_chemical_formula_sum   'Gd1 Co10 Mo2'
_cell_volume   169.40254416
_cell_formula_units_Z   1
loop_
 _symmetry_equiv_pos_site_id
 _symmetry_equiv_pos_as_xyz
  1  'x, y, z'
loop_
 _atom_site_type_symbol
 _atom_site_label
 _atom_site_symmetry_multiplicity
 _atom_site_fract_x
 _atom_site_fract_y
 _atom_site_fract_z
 _atom_site_occupancy
  Gd  Gd0  1  0.00000000  0.00000000  0.00000000  1
  Co  Co0  1  0.71239700  0.78760300  0.21239700  1
  Co  Co1  1  0.28760300  0.21239700  0.78760300  1
  Co  Co2  1  0.50000000  0.77967900  0.77967900  1
  Co  Co3  1  0.50000000  0.22032100  0.22032100  1
  Co  Co4  1  0.50000000  0.00000000  0.50000000  1
  Co  Co5  1  0.00000000  0.00000000  0.50000000  1
  Co  Co6  1  0.50000000  0.50000000  0.00000000  1
  Co  Co7  1  0.00000000  0.50000000  0.00000000  1
  Co  Co8  1  0.64081800  0.35918200  0.64081800  1
  Co  Co9  1  0.35918200  0.64081800  0.35918200  1
  Mo  Mo0  1  0.00000000  0.35813400  0.35813400  1
  Mo  Mo1  1  0.00000000  0.64186600  0.64186600  1
loop_
_geom_bond_atom_site_label_1
_geom_bond_atom_site_label_2
_geom_bond_distance
_geom_bond_site_symmetry_2
Gd0 Mo0 3.039003 1_555
Gd0 Mo1 3.039003 1_544
Co0 Co6 2.446022 1_555
Co0 Co7 2.446022 1_655
Co0 Co4 2.446022 1_565
Co0 Co5 2.446022 1_665
Co0 Co2 2.598267 1_554
Co0 Co3 2.598267 1_565
Co0 Co9 2.660308 1_555
Co0 Co9 2.660308 1_655
Co0 Mo1 2.723721 1_655
Co0 Mo0 2.723721 1_655
Co0 Gd0 2.962771 1_565
Co0 Gd0 2.962771 1_665
Co1 Co4 2.446022 1_555
Co1 Co5 2.446022 1_555
Co1 Co6 2.446022 1_556
Co1 Co7 2.446022 1_556
Co1 Co2 2.598267 1_545
Co1 Co3 2.598267 1_556
Co1 Co8 2.660308 1_555
Co1 Co8 2.660308 1_455
Co1 Mo0 2.723721 1_555
Co1 Mo1 2.723721 1_555
Co1 Gd0 2.962771 1_656
Co1 Gd0 2.962771 1_556
Co2 Co6 2.440193 1_556
Co2 Co7 2.440193 1_656
Co2 Co4 2.440193 1_565
Co2 Co5 2.440193 1_565
Co2 Mo1 2.624859 1_555
Co2 Mo1 2.624859 1_655
Co2 Co8 2.657715 1_555
Co2 Co9 2.657715 1_555
Co2 Gd0 3.002931 1_566
Co2 Gd0 3.002931 1_666
Co3 Co6 2.440193 1_555
Co3 Co4 2.440193 1_555
Co3 Co7 2.440193 1_555
Co3 Co5 2.440193 1_655
Co3 Mo0 2.624859 1_655
Co3 Mo0 2.624859 1_555
Co3 Co8 2.657715 1_555
Co3 Co9 2.657715 1_555
Co3 Gd0 3.002931 1_655
Co3 Gd0 3.002931 1_555
Co4 Co5 2.349959 1_655
Co4 Co5 2.349959 1_555
Co4 Mo0 2.594818 1_555
Co4 Mo1 2.594818 1_645
Co4 Co9 2.596397 1_545
Co4 Co8 2.596397 1_555
Co4 Gd0 3.223587 1_656
Co4 Gd0 3.223587 1_555
Co5 Mo0 2.594818 1_555
Co5 Mo1 2.594818 1_545
Co5 Co9 2.596397 1_545
Co5 Co8 2.596397 1_455
Co5 Gd0 3.223587 1_555
Co5 Gd0 3.223587 1_556
Co6 Co7 2.349959 1_555
Co6 Co7 2.349959 1_655
Co6 Mo0 2.594818 1_655
Co6 Mo1 2.594818 1_554
Co6 Co9 2.596397 1_555
Co6 Co8 2.596397 1_554
Co6 Gd0 3.223587 1_565
Co6 Gd0 3.223587 1_655
Co7 Mo0 2.594818 1_555
Co7 Mo1 2.594818 1_554
Co7 Co9 2.596397 1_555
Co7 Co8 2.596397 1_454
Co7 Gd0 3.223587 1_565
Co7 Gd0 3.223587 1_555
Co8 Co9 2.392557 1_555
Co8 Mo1 2.898722 1_555
Co8 Mo1 2.898722 1_655
Co8 Mo0 2.898722 1_655
Co8 Mo0 2.898722 1_555
Co8 Gd0 3.051327 1_656
Co9 Mo1 2.898722 1_555
Co9 Mo1 2.898722 1_655
Co9 Mo0 2.898722 1_655
Co9 Mo0 2.898722 1_555
Co9 Gd0 3.051327 1_565
Mo0 Mo1 2.407653 1_555
