# generated using pymatgen
data_Mg2Nb2SnO8
_symmetry_space_group_name_H-M   'P 1'
_cell_length_a   10.88120254
_cell_length_b   10.88120254
_cell_length_c   5.30827853
_cell_angle_alpha   88.98273729
_cell_angle_beta   88.98273729
_cell_angle_gamma   32.67588755
_symmetry_Int_Tables_number   1
_chemical_formula_structural   Mg2Nb2SnO8
_chemical_formula_sum   'Mg4 Nb4 Sn2 O16'
_cell_volume   339.26208247
_cell_formula_units_Z   2
loop_
 _symmetry_equiv_pos_site_id
 _symmetry_equiv_pos_as_xyz
  1  'x, y, z'
loop_
 _atom_site_type_symbol
 _atom_site_label
 _atom_site_symmetry_multiplicity
 _atom_site_fract_x
 _atom_site_fract_y
 _atom_site_fract_z
 _atom_site_occupancy
  Mg  Mg0  1  0.87105600  0.58929100  0.25582300  1
  Mg  Mg1  1  0.41070900  0.12894400  0.24417700  1
  Mg  Mg2  1  0.12894400  0.41070900  0.74417700  1
  Mg  Mg3  1  0.58929100  0.87105600  0.75582300  1
  Nb  Nb0  1  0.04462900  0.70077900  0.23356200  1
  Nb  Nb1  1  0.29922100  0.95537100  0.26643800  1
  Nb  Nb2  1  0.95537100  0.29922100  0.76643800  1
  Nb  Nb3  1  0.70077900  0.04462900  0.73356200  1
  Sn  Sn0  1  0.69439800  0.30560200  0.25000000  1
  Sn  Sn1  1  0.30560200  0.69439800  0.75000000  1
  O  O0  1  0.00369600  0.82836000  0.54440100  1
  O  O1  1  0.17164000  0.99630400  0.95559900  1
  O  O2  1  0.99630400  0.17164000  0.45559900  1
  O  O3  1  0.82836000  0.00369600  0.04440100  1
  O  O4  1  0.30877200  0.55339400  0.11612700  1
  O  O5  1  0.44660600  0.69122800  0.38387300  1
  O  O6  1  0.69122800  0.44660600  0.88387300  1
  O  O7  1  0.55339400  0.30877200  0.61612700  1
  O  O8  1  0.91959200  0.69574800  0.95283800  1
  O  O9  1  0.30425200  0.08040800  0.54716200  1
  O  O10  1  0.44999100  0.15690100  0.88178600  1
  O  O11  1  0.84309900  0.55000900  0.61821400  1
  O  O12  1  0.55000900  0.84309900  0.11821400  1
  O  O13  1  0.15690100  0.44999100  0.38178600  1
  O  O14  1  0.69574800  0.91959200  0.45283800  1
  O  O15  1  0.08040800  0.30425200  0.04716200  1
loop_
_geom_bond_atom_site_label_1
_geom_bond_atom_site_label_2
_geom_bond_distance
_geom_bond_site_symmetry_2
Mg0 O12 2.035095 1_555
Mg0 O11 2.035849 1_555
Mg0 O15 2.043002 1_655
Mg0 O13 2.126006 1_655
Mg0 O8 2.267396 1_554
Mg0 O14 2.484094 1_555
Mg1 O13 2.035095 1_555
Mg1 O10 2.035849 1_554
Mg1 O14 2.043002 1_545
Mg1 O12 2.126006 1_545
Mg1 O9 2.267396 1_555
Mg1 O15 2.484094 1_555
Mg2 O10 2.035095 1_555
Mg2 O13 2.035849 1_555
Mg2 O8 2.043002 1_455
Mg2 O11 2.126006 1_455
Mg2 O15 2.267396 1_556
Mg2 O9 2.484094 1_555
Mg3 O11 2.035095 1_555
Mg3 O12 2.035849 1_556
Mg3 O9 2.043002 1_565
Mg3 O10 2.126006 1_565
Mg3 O14 2.267396 1_555
Mg3 O8 2.484094 1_555
Nb0 O4 1.852986 1_555
Nb0 O0 1.965313 1_555
Nb0 O13 1.975827 1_555
Nb0 O8 2.067596 1_454
Nb0 O3 2.078155 1_465
Nb0 O14 2.482009 1_455
Nb1 O5 1.852986 1_555
Nb1 O1 1.965313 1_554
Nb1 O12 1.975827 1_555
Nb1 O9 2.067596 1_565
Nb1 O2 2.078155 1_465
Nb1 O15 2.482009 1_565
Nb2 O6 1.852986 1_555
Nb2 O2 1.965313 1_555
Nb2 O11 1.975827 1_555
Nb2 O15 2.067596 1_656
Nb2 O1 2.078155 1_645
Nb2 O9 2.482009 1_655
Nb3 O7 1.852986 1_555
Nb3 O3 1.965313 1_556
Nb3 O10 1.975827 1_555
Nb3 O14 2.067596 1_545
Nb3 O0 2.078155 1_645
Nb3 O8 2.482009 1_545
O0 Sn1 2.473283 1_555
O1 Sn1 2.473283 1_555
O2 Sn0 2.473283 1_555
O3 Sn0 2.473283 1_555
O4 Sn1 2.437183 1_554
O4 Sn0 2.524544 1_555
O5 Sn1 2.437183 1_555
O5 Sn0 2.524544 1_555
O6 Sn0 2.437183 1_556
O6 Sn1 2.524544 1_555
O7 Sn0 2.437183 1_555
O7 Sn1 2.524544 1_555
