# generated using pymatgen
data_Sn2N2O
_symmetry_space_group_name_H-M   'P 1'
_cell_length_a   14.46468597
_cell_length_b   14.46468597
_cell_length_c   14.46468597
_cell_angle_alpha   154.23057245
_cell_angle_beta   154.23057245
_cell_angle_gamma   36.76455850
_symmetry_Int_Tables_number   1
_chemical_formula_structural   Sn2N2O
_chemical_formula_sum   'Sn16 N16 O8'
_cell_volume   571.23144164
_cell_formula_units_Z   8
loop_
 _symmetry_equiv_pos_site_id
 _symmetry_equiv_pos_as_xyz
  1  'x, y, z'
loop_
 _atom_site_type_symbol
 _atom_site_label
 _atom_site_symmetry_multiplicity
 _atom_site_fract_x
 _atom_site_fract_y
 _atom_site_fract_z
 _atom_site_occupancy
  Sn  Sn0  1  0.87500000  0.12500000  0.75000000  1
  Sn  Sn1  1  0.37500000  0.12500000  0.25000000  1
  Sn  Sn2  1  0.87500000  0.12500000  0.25000000  1
  Sn  Sn3  1  0.54284200  0.29384700  0.75100500  1
  Sn  Sn4  1  0.08105400  0.58105400  0.50000000  1
  Sn  Sn5  1  0.33105400  0.33105400  0.00000000  1
  Sn  Sn6  1  0.20816300  0.45715800  0.75100500  1
  Sn  Sn7  1  0.70615300  0.45715800  0.24899500  1
  Sn  Sn8  1  0.54284200  0.79183700  0.24899500  1
  Sn  Sn9  1  0.87500000  0.62500000  0.75000000  1
  Sn  Sn10  1  0.20715800  0.45816300  0.25100500  1
  Sn  Sn11  1  0.54183700  0.79284200  0.74899500  1
  Sn  Sn12  1  0.04384700  0.79284200  0.25100500  1
  Sn  Sn13  1  0.41894600  0.91894600  0.50000000  1
  Sn  Sn14  1  0.66894600  0.66894600  0.00000000  1
  Sn  Sn15  1  0.20715800  0.95615300  0.74899500  1
  N  N0  1  0.62352200  0.35757000  0.73404900  1
  N  N1  1  0.46281200  0.22966100  0.76684800  1
  N  N2  1  0.64243000  0.37647800  0.26595100  1
  N  N3  1  0.11052700  0.37647800  0.73404900  1
  N  N4  1  0.30403600  0.53718800  0.76684800  1
  N  N5  1  0.77033900  0.53718800  0.23315200  1
  N  N6  1  0.46281200  0.69596400  0.23315200  1
  N  N7  1  0.12647800  0.36052700  0.23404900  1
  N  N8  1  0.62352200  0.88947300  0.26595100  1
  N  N9  1  0.28718800  0.55403600  0.26684800  1
  N  N10  1  0.97966100  0.71281200  0.26684800  1
  N  N11  1  0.44596400  0.71281200  0.73315200  1
  N  N12  1  0.63947300  0.87352200  0.76595100  1
  N  N13  1  0.10757000  0.87352200  0.23404900  1
  N  N14  1  0.28718800  0.02033900  0.73315200  1
  N  N15  1  0.12647800  0.89243000  0.76595100  1
  O  O0  1  0.95174100  0.23826700  0.28652600  1
  O  O1  1  0.98826700  0.20174100  0.78652600  1
  O  O2  1  0.41521500  0.20174100  0.21347400  1
  O  O3  1  0.95174100  0.66521500  0.71347400  1
  O  O4  1  0.79825900  0.58478500  0.78652600  1
  O  O5  1  0.33478500  0.04825900  0.28652600  1
  O  O6  1  0.76173300  0.04825900  0.71347400  1
  O  O7  1  0.79825900  0.01173300  0.21347400  1
loop_
_geom_bond_atom_site_label_1
_geom_bond_atom_site_label_2
_geom_bond_distance
_geom_bond_site_symmetry_2
N0 Sn14 2.120981 1_556
N0 Sn0 2.209566 1_555
N0 Sn1 2.209570 1_555
N0 Sn3 2.217611 1_555
N1 Sn13 2.100857 1_545
N1 Sn3 2.199443 1_555
N1 Sn6 2.205974 1_555
N1 Sn7 2.205979 1_556
N2 Sn5 2.120981 1_555
N2 Sn2 2.209566 1_555
N2 Sn9 2.209570 1_555
N2 Sn7 2.217611 1_555
N3 Sn5 2.120970 1_556
N3 Sn2 2.209570 1_455
N3 Sn9 2.209570 1_455
N3 Sn6 2.217624 1_555
N4 Sn4 2.100847 1_555
N4 Sn6 2.199456 1_555
N4 Sn3 2.205977 1_555
N4 Sn8 2.205977 1_556
N5 Sn4 2.100857 1_655
N5 Sn7 2.199443 1_555
N5 Sn8 2.205974 1_555
N5 Sn3 2.205979 1_554
N6 Sn13 2.100847 1_555
N6 Sn8 2.199456 1_555
N6 Sn7 2.205977 1_555
N6 Sn6 2.205977 1_554
N7 Sn4 2.120970 1_555
N7 Sn0 2.209570 1_454
N7 Sn1 2.209570 1_555
N7 Sn10 2.217624 1_555
N8 Sn14 2.120970 1_555
N8 Sn0 2.209570 1_565
N8 Sn1 2.209570 1_565
N8 Sn8 2.217624 1_555
N9 Sn5 2.100847 1_555
N9 Sn10 2.199456 1_555
N9 Sn12 2.205977 1_555
N9 Sn11 2.205977 1_555
N10 Sn14 2.100857 1_555
N10 Sn12 2.199443 1_655
N10 Sn10 2.205974 1_655
N10 Sn15 2.205979 1_655
N11 Sn14 2.100847 1_556
N11 Sn11 2.199456 1_555
N11 Sn10 2.205977 1_555
N11 Sn15 2.205977 1_555
N12 Sn13 2.120970 1_555
N12 Sn9 2.209570 1_555
N12 Sn2 2.209570 1_566
N12 Sn11 2.217624 1_555
N13 Sn13 2.120981 1_555
N13 Sn2 2.209566 1_465
N13 Sn9 2.209570 1_454
N13 Sn12 2.217611 1_555
N14 Sn5 2.100857 1_556
N14 Sn15 2.199443 1_545
N14 Sn11 2.205974 1_545
N14 Sn12 2.205979 1_545
N15 Sn4 2.120981 1_555
N15 Sn0 2.209566 1_465
N15 Sn1 2.209570 1_566
N15 Sn15 2.217611 1_555
O0 Sn2 2.119922 1_555
O0 Sn6 2.130831 1_655
O0 Sn7 2.130831 1_555
O1 Sn0 2.119922 1_555
O1 Sn15 2.130831 1_645
O1 Sn10 2.130831 1_656
O2 Sn1 2.119922 1_555
O2 Sn15 2.130831 1_544
O2 Sn10 2.130831 1_555
O3 Sn9 2.119922 1_555
O3 Sn7 2.130831 1_555
O3 Sn6 2.130831 1_655
O4 Sn9 2.119922 1_555
O4 Sn11 2.130831 1_555
O4 Sn12 2.130831 1_656
O5 Sn1 2.119922 1_555
O5 Sn8 2.130831 1_545
O5 Sn3 2.130831 1_555
O6 Sn0 2.119922 1_555
O6 Sn8 2.130831 1_545
O6 Sn3 2.130831 1_555
O7 Sn2 2.119922 1_555
O7 Sn11 2.130831 1_544
O7 Sn12 2.130831 1_645
