# generated using pymatgen
data_Li2Ni3(BO3)3
_symmetry_space_group_name_H-M   'P 1'
_cell_length_a   6.07849900
_cell_length_b   8.10327900
_cell_length_c   8.10838210
_cell_angle_alpha   60.14935192
_cell_angle_beta   90.00000000
_cell_angle_gamma   90.00000000
_symmetry_Int_Tables_number   1
_chemical_formula_structural   Li2Ni3(BO3)3
_chemical_formula_sum   'Li4 Ni6 B6 O18'
_cell_volume   346.39659460
_cell_formula_units_Z   2
loop_
 _symmetry_equiv_pos_site_id
 _symmetry_equiv_pos_as_xyz
  1  'x, y, z'
loop_
 _atom_site_type_symbol
 _atom_site_label
 _atom_site_symmetry_multiplicity
 _atom_site_fract_x
 _atom_site_fract_y
 _atom_site_fract_z
 _atom_site_occupancy
  Li  Li0  1  0.50000000  0.69711800  0.27985900  1
  Li  Li1  1  0.00000000  0.27927700  0.02157800  1
  Li  Li2  1  0.00000000  0.02520300  0.69881500  1
  Li  Li3  1  0.50000000  0.02363500  0.69964700  1
  Ni  Ni0  1  0.24966900  0.98518100  0.37640000  1
  Ni  Ni1  1  0.75033100  0.98518100  0.37640000  1
  Ni  Ni2  1  0.24917500  0.38424500  0.63325400  1
  Ni  Ni3  1  0.75082500  0.38424500  0.63325400  1
  Ni  Ni4  1  0.25048200  0.62875300  0.98997400  1
  Ni  Ni5  1  0.74951800  0.62875300  0.98997400  1
  B  B0  1  0.50000000  0.33336600  0.33431300  1
  B  B1  1  0.00000000  0.33075100  0.33640900  1
  B  B2  1  0.25125100  0.00132400  0.99571200  1
  B  B3  1  0.74874900  0.00132400  0.99571200  1
  B  B4  1  0.00000000  0.66836800  0.67013500  1
  B  B5  1  0.50000000  0.66864100  0.66410300  1
  O  O0  1  0.73404600  0.80550100  0.09135400  1
  O  O1  1  0.26595400  0.80550100  0.09135400  1
  O  O2  1  0.50000000  0.78484000  0.46617400  1
  O  O3  1  0.00000000  0.78345200  0.47548100  1
  O  O4  1  0.50000000  0.45739300  0.14117600  1
  O  O5  1  0.00000000  0.44702900  0.14074800  1
  O  O6  1  0.23461100  0.09228900  0.09960700  1
  O  O7  1  0.76538900  0.09228900  0.09960700  1
  O  O8  1  0.00000000  0.74821400  0.78848100  1
  O  O9  1  0.50000000  0.74952400  0.78065000  1
  O  O10  1  0.50000000  0.41137600  0.45311400  1
  O  O11  1  0.00000000  0.40016800  0.46012200  1
  O  O12  1  0.00000000  0.13405500  0.41283800  1
  O  O13  1  0.50000000  0.13784200  0.41226500  1
  O  O14  1  0.00000000  0.47093200  0.75134600  1
  O  O15  1  0.50000000  0.47378300  0.74224300  1
  O  O16  1  0.25092100  0.10031800  0.79873600  1
  O  O17  1  0.74907900  0.10031800  0.79873600  1
loop_
_geom_bond_atom_site_label_1
_geom_bond_atom_site_label_2
_geom_bond_distance
_geom_bond_site_symmetry_2
Li0 O1 1.948117 1_555
Li0 O0 1.948117 1_555
Li0 O2 1.963812 1_555
Li0 O10 2.024037 1_555
Li1 O6 1.943079 1_555
Li1 O7 1.943079 1_455
Li1 O14 1.955884 1_554
Li1 O5 2.022143 1_555
Li2 O17 1.960647 1_455
Li2 O16 1.960647 1_555
Li2 O8 1.985439 1_545
Li2 O12 2.029489 1_555
Li3 O16 1.954718 1_555
Li3 O17 1.954718 1_555
Li3 O9 1.978083 1_545
Li3 O13 2.034591 1_555
Ni0 O6 1.964594 1_565
Ni0 O12 2.049531 1_565
Ni0 O13 2.070838 1_565
Ni0 O2 2.074694 1_555
Ni0 O3 2.076867 1_555
Ni1 O7 1.964594 1_565
Ni1 O12 2.049531 1_665
Ni1 O13 2.070838 1_565
Ni1 O2 2.074694 1_555
Ni1 O3 2.076867 1_655
Ni2 O16 2.005182 1_555
Ni2 O11 2.025115 1_555
Ni2 O10 2.046135 1_555
Ni2 O15 2.066449 1_555
Ni2 O14 2.091395 1_555
Ni3 O17 2.005182 1_555
Ni3 O11 2.025115 1_655
Ni3 O10 2.046135 1_555
Ni3 O15 2.066449 1_555
Ni3 O14 2.091395 1_655
Ni4 O1 1.976841 1_556
Ni4 O4 2.009201 1_556
Ni4 O5 2.046723 1_556
Ni4 O8 2.085688 1_555
Ni4 O9 2.117861 1_555
Ni5 O0 1.976841 1_556
Ni5 O4 2.009201 1_556
Ni5 O5 2.046723 1_656
Ni5 O8 2.085688 1_655
Ni5 O9 2.117861 1_555
B0 O4 1.376857 1_555
B0 O13 1.383067 1_555
B0 O10 1.390571 1_555
B1 O11 1.372717 1_555
B1 O5 1.384440 1_555
B1 O12 1.393276 1_555
B2 O6 1.371640 1_556
B2 O1 1.379253 1_546
B2 O16 1.385275 1_555
B3 O7 1.371640 1_556
B3 O0 1.379253 1_546
B3 O17 1.385275 1_555
B4 O3 1.376791 1_555
B4 O14 1.394445 1_555
B4 O8 1.399112 1_555
B5 O15 1.377944 1_555
B5 O9 1.392547 1_555
B5 O2 1.399261 1_555
