# generated using pymatgen
data_KNaMg14O15
_symmetry_space_group_name_H-M   'P 1'
_cell_length_a   8.49326568
_cell_length_b   8.84161892
_cell_length_c   4.38954470
_cell_angle_alpha   90.00000000
_cell_angle_beta   90.00000000
_cell_angle_gamma   90.00000000
_symmetry_Int_Tables_number   1
_chemical_formula_structural   KNaMg14O15
_chemical_formula_sum   'K1 Na1 Mg14 O15'
_cell_volume   329.62942894
_cell_formula_units_Z   1
loop_
 _symmetry_equiv_pos_site_id
 _symmetry_equiv_pos_as_xyz
  1  'x, y, z'
loop_
 _atom_site_type_symbol
 _atom_site_label
 _atom_site_symmetry_multiplicity
 _atom_site_fract_x
 _atom_site_fract_y
 _atom_site_fract_z
 _atom_site_occupancy
  K  K0  1  0.07170370  0.00000000  -0.00000000  1
  Na  Na0  1  0.98966649  0.50000000  -0.00000000  1
  Mg  Mg0  1  0.52090585  0.00000000  -0.00000000  1
  Mg  Mg1  1  0.50055918  0.50000000  -0.00000000  1
  Mg  Mg2  1  0.99557028  0.25779042  0.50000000  1
  Mg  Mg3  1  0.99557028  0.74220958  0.50000000  1
  Mg  Mg4  1  0.49711347  0.24642339  0.50000000  1
  Mg  Mg5  1  0.49711347  0.75357661  0.50000000  1
  Mg  Mg6  1  0.24597593  0.00000000  0.50000000  1
  Mg  Mg7  1  0.24313985  0.50000000  0.50000000  1
  Mg  Mg8  1  0.76864623  0.00000000  0.50000000  1
  Mg  Mg9  1  0.75028950  0.50000000  0.50000000  1
  Mg  Mg10  1  0.24021779  0.28279553  0.00000000  1
  Mg  Mg11  1  0.24021779  0.71720447  0.00000000  1
  Mg  Mg12  1  0.76123144  0.24704034  0.00000000  1
  Mg  Mg13  1  0.76123144  0.75295966  -0.00000000  1
  O  O0  1  0.26635463  0.50000000  -0.00000000  1
  O  O1  1  0.74673572  0.00000000  -0.00000000  1
  O  O2  1  0.72871802  0.50000000  -0.00000000  1
  O  O3  1  0.24643283  0.23905562  0.50000000  1
  O  O4  1  0.24643283  0.76094438  0.50000000  1
  O  O5  1  0.74450807  0.24724885  0.50000000  1
  O  O6  1  0.74450807  0.75275115  0.50000000  1
  O  O7  1  0.00441207  0.00000000  0.50000000  1
  O  O8  1  0.00160651  0.50000000  0.50000000  1
  O  O9  1  0.48237213  0.00000000  0.50000000  1
  O  O10  1  0.49199517  0.50000000  0.50000000  1
  O  O11  1  0.00280611  0.25756108  -0.00000000  1
  O  O12  1  0.00280611  0.74243892  -0.00000000  1
  O  O13  1  0.48057951  0.23289918  -0.00000000  1
  O  O14  1  0.48057951  0.76710082  -0.00000000  1
loop_
_geom_bond_atom_site_label_1
_geom_bond_atom_site_label_2
_geom_bond_distance
_geom_bond_site_symmetry_2
K0 O7 2.267965 1_554
K0 O7 2.267965 1_555
K0 O12 2.351237 1_545
K0 O11 2.351237 1_555
K0 O1 2.760039 1_455
Na0 O12 2.146456 1_655
Na0 O11 2.146456 1_655
Na0 O8 2.197114 1_655
Na0 O8 2.197114 1_654
Na0 O2 2.216305 1_555
Na0 O0 2.349986 1_655
Mg0 O1 1.918033 1_555
Mg0 O14 2.087495 1_545
Mg0 O13 2.087495 1_555
Mg0 O9 2.219039 1_554
Mg0 O9 2.219039 1_555
Mg1 O2 1.937814 1_555
Mg1 O0 1.989161 1_555
Mg1 O10 2.195977 1_555
Mg1 O10 2.195977 1_554
Mg1 O14 2.367692 1_555
Mg1 O13 2.367692 1_555
Mg2 O5 2.134374 1_555
Mg2 O3 2.137072 1_655
Mg2 O8 2.142138 1_655
Mg2 O11 2.195634 1_655
Mg2 O11 2.195634 1_656
Mg2 O7 2.280521 1_655
Mg3 O6 2.134374 1_555
Mg3 O4 2.137072 1_655
Mg3 O8 2.142138 1_655
Mg3 O12 2.195634 1_656
Mg3 O12 2.195634 1_655
Mg3 O7 2.280521 1_665
Mg4 O5 2.101201 1_555
Mg4 O3 2.130094 1_555
Mg4 O9 2.182376 1_555
Mg4 O13 2.202509 1_555
Mg4 O13 2.202509 1_556
Mg4 O10 2.242449 1_555
Mg5 O6 2.101201 1_555
Mg5 O4 2.130094 1_555
Mg5 O9 2.182376 1_565
Mg5 O14 2.202509 1_555
Mg5 O14 2.202509 1_556
Mg5 O10 2.242449 1_555
Mg6 O9 2.007776 1_555
Mg6 O7 2.051666 1_555
Mg6 O3 2.113642 1_555
Mg6 O4 2.113642 1_545
Mg7 O8 2.051407 1_555
Mg7 O10 2.113594 1_555
Mg7 O0 2.203611 1_555
Mg7 O0 2.203611 1_556
Mg7 O3 2.307340 1_555
Mg7 O4 2.307340 1_555
Mg8 O7 2.002422 1_655
Mg8 O6 2.195672 1_545
Mg8 O5 2.195672 1_555
Mg8 O1 2.202647 1_556
Mg8 O1 2.202647 1_555
Mg8 O9 2.431402 1_555
Mg9 O8 2.134502 1_655
Mg9 O10 2.193762 1_555
Mg9 O2 2.202406 1_556
Mg9 O2 2.202406 1_555
Mg9 O5 2.235269 1_555
Mg9 O6 2.235269 1_555
Mg10 O0 1.933227 1_555
Mg10 O11 2.028707 1_555
Mg10 O13 2.088581 1_555
Mg10 O3 2.229209 1_554
Mg10 O3 2.229209 1_555
Mg11 O0 1.933227 1_555
Mg11 O12 2.028707 1_555
Mg11 O14 2.088581 1_555
Mg11 O4 2.229209 1_554
Mg11 O4 2.229209 1_555
Mg12 O11 2.053865 1_655
Mg12 O1 2.187704 1_555
Mg12 O5 2.199364 1_555
Mg12 O5 2.199364 1_554
Mg12 O2 2.253556 1_555
Mg12 O13 2.386928 1_555
Mg13 O12 2.053865 1_655
Mg13 O1 2.187704 1_565
Mg13 O6 2.199364 1_555
Mg13 O6 2.199364 1_554
Mg13 O2 2.253556 1_555
Mg13 O14 2.386928 1_555
