# generated using pymatgen
data_Ca2PbN2
_symmetry_space_group_name_H-M   'P 1'
_cell_length_a   4.04352307
_cell_length_b   4.04427382
_cell_length_c   6.71422901
_cell_angle_alpha   89.99362714
_cell_angle_beta   90.00084111
_cell_angle_gamma   120.01450499
_symmetry_Int_Tables_number   1
_chemical_formula_structural   Ca2PbN2
_chemical_formula_sum   'Ca2 Pb1 N2'
_cell_volume   95.07443656
_cell_formula_units_Z   1
loop_
 _symmetry_equiv_pos_site_id
 _symmetry_equiv_pos_as_xyz
  1  'x, y, z'
loop_
 _atom_site_type_symbol
 _atom_site_label
 _atom_site_symmetry_multiplicity
 _atom_site_fract_x
 _atom_site_fract_y
 _atom_site_fract_z
 _atom_site_occupancy
  Ca  Ca0  1  0.66666600  0.33336900  0.15891900  1
  Ca  Ca1  1  0.33333400  0.66663100  0.84108100  1
  Pb  Pb0  1  0.00000000  0.00000000  0.50000000  1
  N  N0  1  0.66670500  0.33336500  0.77203500  1
  N  N1  1  0.33329500  0.66663500  0.22796500  1
loop_
_geom_bond_atom_site_label_1
_geom_bond_atom_site_label_2
_geom_bond_distance
_geom_bond_site_symmetry_2
Ca0 N1 2.379671 1_655
Ca0 N1 2.380381 1_545
Ca0 N1 2.380425 1_555
Ca0 N0 2.597628 1_554
Ca0 Pb0 3.269932 1_555
Ca0 Pb0 3.270427 1_665
Ca0 Pb0 3.270503 1_655
Ca1 N0 2.379671 1_455
Ca1 N0 2.380381 1_565
Ca1 N0 2.380425 1_555
Ca1 N1 2.597628 1_556
Ca1 Pb0 3.269932 1_665
Ca1 Pb0 3.270427 1_555
Ca1 Pb0 3.270503 1_565
N0 Pb0 2.963956 1_665
N0 Pb0 2.964049 1_555
N0 Pb0 2.964535 1_655
N1 Pb0 2.963956 1_555
N1 Pb0 2.964049 1_665
N1 Pb0 2.964535 1_565
