# generated using pymatgen
data_KMg14SbO16
_symmetry_space_group_name_H-M   'P 1'
_cell_length_a   8.73681627
_cell_length_b   8.73681627
_cell_length_c   4.45806671
_cell_angle_alpha   90.00000000
_cell_angle_beta   90.00000000
_cell_angle_gamma   90.00000000
_symmetry_Int_Tables_number   1
_chemical_formula_structural   KMg14SbO16
_chemical_formula_sum   'K1 Mg14 Sb1 O16'
_cell_volume   340.29296326
_cell_formula_units_Z   1
loop_
 _symmetry_equiv_pos_site_id
 _symmetry_equiv_pos_as_xyz
  1  'x, y, z'
loop_
 _atom_site_type_symbol
 _atom_site_label
 _atom_site_symmetry_multiplicity
 _atom_site_fract_x
 _atom_site_fract_y
 _atom_site_fract_z
 _atom_site_occupancy
  K  K0  1  -0.00000000  0.00000000  0.00000000  1
  Mg  Mg0  1  -0.00000000  0.50000000  0.00000000  1
  Mg  Mg1  1  0.50000000  0.00000000  0.00000000  1
  Mg  Mg2  1  -0.00000000  0.24896032  0.50000000  1
  Mg  Mg3  1  -0.00000000  0.75103968  0.50000000  1
  Mg  Mg4  1  0.50000000  0.23599018  0.50000000  1
  Mg  Mg5  1  0.50000000  0.76400982  0.50000000  1
  Mg  Mg6  1  0.24896032  0.00000000  0.50000000  1
  Mg  Mg7  1  0.23599018  0.50000000  0.50000000  1
  Mg  Mg8  1  0.75103968  0.00000000  0.50000000  1
  Mg  Mg9  1  0.76400982  0.50000000  0.50000000  1
  Mg  Mg10  1  0.24256854  0.24256854  0.00000000  1
  Mg  Mg11  1  0.24256854  0.75743146  0.00000000  1
  Mg  Mg12  1  0.75743146  0.24256854  -0.00000000  1
  Mg  Mg13  1  0.75743146  0.75743146  -0.00000000  1
  Sb  Sb0  1  0.50000000  0.50000000  0.00000000  1
  O  O0  1  0.27450681  0.00000000  0.00000000  1
  O  O1  1  0.24177330  0.50000000  -0.00000000  1
  O  O2  1  0.72549319  0.00000000  -0.00000000  1
  O  O3  1  0.75822670  0.50000000  0.00000000  1
  O  O4  1  0.25234433  0.25234433  0.50000000  1
  O  O5  1  0.25234433  0.74765567  0.50000000  1
  O  O6  1  0.74765567  0.25234433  0.50000000  1
  O  O7  1  0.74765567  0.74765567  0.50000000  1
  O  O8  1  -0.00000000  0.00000000  0.50000000  1
  O  O9  1  -0.00000000  0.50000000  0.50000000  1
  O  O10  1  0.50000000  0.00000000  0.50000000  1
  O  O11  1  0.50000000  0.50000000  0.50000000  1
  O  O12  1  -0.00000000  0.27450681  -0.00000000  1
  O  O13  1  -0.00000000  0.72549319  -0.00000000  1
  O  O14  1  0.50000000  0.24177330  -0.00000000  1
  O  O15  1  0.50000000  0.75822670  0.00000000  1
loop_
_geom_bond_atom_site_label_1
_geom_bond_atom_site_label_2
_geom_bond_distance
_geom_bond_site_symmetry_2
K0 O8 2.229033 1_554
K0 O8 2.229033 1_555
K0 O0 2.398316 1_555
K0 O13 2.398316 1_545
K0 O12 2.398316 1_555
K0 O2 2.398316 1_455
Mg0 O12 1.970093 1_555
Mg0 O13 1.970093 1_555
Mg0 O3 2.112329 1_455
Mg0 O1 2.112329 1_555
Mg0 O9 2.229033 1_554
Mg0 O9 2.229033 1_555
Mg1 O0 1.970093 1_555
Mg1 O2 1.970093 1_555
Mg1 O14 2.112329 1_555
Mg1 O15 2.112329 1_545
Mg1 O10 2.229033 1_555
Mg1 O10 2.229033 1_554
Mg2 O8 2.175121 1_555
Mg2 O9 2.193288 1_555
Mg2 O6 2.204884 1_455
Mg2 O4 2.204884 1_555
Mg2 O12 2.240180 1_556
Mg2 O12 2.240180 1_555
Mg3 O8 2.175121 1_565
Mg3 O9 2.193288 1_555
Mg3 O5 2.204884 1_555
Mg3 O7 2.204884 1_455
Mg3 O13 2.240180 1_555
Mg3 O13 2.240180 1_556
Mg4 O10 2.061803 1_555
Mg4 O4 2.168435 1_555
Mg4 O6 2.168435 1_555
Mg4 O14 2.229606 1_556
Mg4 O14 2.229606 1_555
Mg4 O11 2.306605 1_555
Mg5 O10 2.061803 1_565
Mg5 O7 2.168435 1_555
Mg5 O5 2.168435 1_555
Mg5 O15 2.229606 1_556
Mg5 O15 2.229606 1_555
Mg5 O11 2.306605 1_555
Mg6 O8 2.175121 1_555
Mg6 O10 2.193288 1_555
Mg6 O5 2.204884 1_545
Mg6 O4 2.204884 1_555
Mg6 O0 2.240180 1_555
Mg6 O0 2.240180 1_556
Mg7 O9 2.061803 1_555
Mg7 O4 2.168435 1_555
Mg7 O5 2.168435 1_555
Mg7 O1 2.229606 1_556
Mg7 O1 2.229606 1_555
Mg7 O11 2.306605 1_555
Mg8 O8 2.175121 1_655
Mg8 O10 2.193288 1_555
Mg8 O6 2.204884 1_555
Mg8 O7 2.204884 1_545
Mg8 O2 2.240180 1_556
Mg8 O2 2.240180 1_555
Mg9 O9 2.061803 1_655
Mg9 O6 2.168435 1_555
Mg9 O7 2.168435 1_555
Mg9 O3 2.229606 1_556
Mg9 O3 2.229606 1_555
Mg9 O11 2.306605 1_555
Mg10 O0 2.137568 1_555
Mg10 O12 2.137568 1_555
Mg10 O4 2.232304 1_554
Mg10 O4 2.232304 1_555
Mg10 O1 2.249142 1_555
Mg10 O14 2.249142 1_555
Mg11 O13 2.137568 1_555
Mg11 O0 2.137568 1_565
Mg11 O5 2.232304 1_554
Mg11 O5 2.232304 1_555
Mg11 O15 2.249142 1_555
Mg11 O1 2.249142 1_555
Mg12 O2 2.137568 1_555
Mg12 O12 2.137568 1_655
Mg12 O6 2.232304 1_555
Mg12 O6 2.232304 1_554
Mg12 O14 2.249142 1_555
Mg12 O3 2.249142 1_555
Mg13 O2 2.137568 1_565
Mg13 O13 2.137568 1_655
Mg13 O7 2.232304 1_555
Mg13 O7 2.232304 1_554
Mg13 O15 2.249142 1_555
Mg13 O3 2.249142 1_555
O1 Sb0 2.256079 1_555
O3 Sb0 2.256079 1_555
O11 Sb0 2.229033 1_555
O11 Sb0 2.229033 1_556
O14 Sb0 2.256079 1_555
O15 Sb0 2.256079 1_555
