# generated using pymatgen
data_Lu3Tl2Cu5Se8
_symmetry_space_group_name_H-M   'P 1'
_cell_length_a   7.44285986
_cell_length_b   7.44285986
_cell_length_c   14.69692519
_cell_angle_alpha   70.24154046
_cell_angle_beta   70.24154046
_cell_angle_gamma   31.69309133
_symmetry_Int_Tables_number   1
_chemical_formula_structural   Lu3Tl2Cu5Se8
_chemical_formula_sum   'Lu3 Tl2 Cu5 Se8'
_cell_volume   400.45088390
_cell_formula_units_Z   1
loop_
 _symmetry_equiv_pos_site_id
 _symmetry_equiv_pos_as_xyz
  1  'x, y, z'
loop_
 _atom_site_type_symbol
 _atom_site_label
 _atom_site_symmetry_multiplicity
 _atom_site_fract_x
 _atom_site_fract_y
 _atom_site_fract_z
 _atom_site_occupancy
  Lu  Lu0  1  0.03537200  0.03537200  0.59268900  1
  Lu  Lu1  1  0.33632700  0.33632700  0.82576400  1
  Lu  Lu2  1  0.20010000  0.20010000  0.20993300  1
  Tl  Tl0  1  0.00854000  0.00854000  0.00973300  1
  Tl  Tl1  1  0.35875700  0.35875700  0.41533100  1
  Cu  Cu0  1  0.72774800  0.72774800  0.01681100  1
  Cu  Cu1  1  0.65153500  0.65153500  0.40115000  1
  Cu  Cu2  1  0.98297900  0.98297900  0.24059300  1
  Cu  Cu3  1  0.78359800  0.78359800  0.67182200  1
  Cu  Cu4  1  0.58814900  0.58814900  0.74858900  1
  Se  Se0  1  0.57784200  0.57784200  0.16536800  1
  Se  Se1  1  0.32541900  0.32541900  0.01679600  1
  Se  Se2  1  0.69445000  0.69445000  0.85303200  1
  Se  Se3  1  0.80833200  0.80833200  0.25789500  1
  Se  Se4  1  0.05321500  0.05321500  0.39672000  1
  Se  Se5  1  0.67698700  0.67698700  0.56676800  1
  Se  Se6  1  0.38678900  0.38678900  0.62285300  1
  Se  Se7  1  0.98592200  0.98592200  0.79532200  1
loop_
_geom_bond_atom_site_label_1
_geom_bond_atom_site_label_2
_geom_bond_distance
_geom_bond_site_symmetry_2
Lu0 Se4 2.800587 1_555
Lu0 Se5 2.800918 1_455
Lu0 Se5 2.800918 1_545
Lu0 Se7 2.808606 1_445
Lu0 Se6 2.862033 1_455
Lu0 Se6 2.862033 1_545
Lu1 Se1 2.756574 1_556
Lu1 Se2 2.801174 1_545
Lu1 Se2 2.801174 1_455
Lu1 Se6 2.810862 1_555
Lu1 Se7 2.871600 1_455
Lu1 Se7 2.871600 1_545
Lu2 Se1 2.774448 1_555
Lu2 Se3 2.792372 1_455
Lu2 Se3 2.792372 1_545
Lu2 Se4 2.811070 1_555
Lu2 Se0 2.903525 1_545
Lu2 Se0 2.903525 1_455
Cu0 Se0 2.465977 1_555
Cu0 Se1 2.467082 1_565
Cu0 Se1 2.467082 1_655
Cu0 Se2 2.613026 1_554
Cu1 Se3 2.480281 1_555
Cu1 Se4 2.486254 1_565
Cu1 Se4 2.486254 1_655
Cu1 Se5 2.584777 1_555
Cu2 Se3 2.423310 1_555
Cu2 Se0 2.478429 1_655
Cu2 Se0 2.478429 1_565
Cu2 Se4 2.810468 1_665
Cu2 Lu2 2.980831 1_665
Cu2 Tl1 3.267924 1_565
Cu2 Tl1 3.267924 1_655
Cu2 Tl0 3.282243 1_665
Cu3 Se6 2.466697 1_655
Cu3 Se6 2.466697 1_565
Cu3 Se2 2.516544 1_555
Cu3 Se5 2.524126 1_555
Cu4 Se7 2.457348 1_545
Cu4 Se7 2.457348 1_455
Cu4 Se2 2.513087 1_555
Cu4 Se5 2.523860 1_555
Se1 Tl0 3.290347 1_655
Se1 Tl0 3.290347 1_565
Se6 Tl1 3.213052 1_555
Se7 Tl0 3.279052 1_666
