# generated using pymatgen
data_CaH18Br2O9
_symmetry_space_group_name_H-M   'P 1'
_cell_length_a   7.93057540
_cell_length_b   8.85077600
_cell_length_c   18.53139214
_cell_angle_alpha   90.00000000
_cell_angle_beta   100.58019524
_cell_angle_gamma   90.00000000
_symmetry_Int_Tables_number   1
_chemical_formula_structural   CaH18Br2O9
_chemical_formula_sum   'Ca4 H72 Br8 O36'
_cell_volume   1278.63655144
_cell_formula_units_Z   4
loop_
 _symmetry_equiv_pos_site_id
 _symmetry_equiv_pos_as_xyz
  1  'x, y, z'
loop_
 _atom_site_type_symbol
 _atom_site_label
 _atom_site_symmetry_multiplicity
 _atom_site_fract_x
 _atom_site_fract_y
 _atom_site_fract_z
 _atom_site_occupancy
  Ca  Ca0  1  0.08607500  0.73932600  0.39796100  1
  Ca  Ca1  1  0.58607500  0.76067400  0.89796100  1
  Ca  Ca2  1  0.91392500  0.26067400  0.60203900  1
  Ca  Ca3  1  0.41392500  0.23932600  0.10203900  1
  H  H0  1  0.47322700  0.81244900  0.43249000  1
  H  H1  1  0.97322700  0.68755100  0.93249000  1
  H  H2  1  0.52677300  0.18755100  0.56751000  1
  H  H3  1  0.02677300  0.31244900  0.06751000  1
  H  H4  1  0.42989900  0.70139100  0.49200700  1
  H  H5  1  0.92989900  0.79860900  0.99200700  1
  H  H6  1  0.57010100  0.29860900  0.50799300  1
  H  H7  1  0.07010100  0.20139100  0.00799300  1
  H  H8  1  0.22664600  0.03062000  0.48446300  1
  H  H9  1  0.72664600  0.46938000  0.98446300  1
  H  H10  1  0.77335400  0.96938000  0.51553700  1
  H  H11  1  0.27335400  0.53062000  0.01553700  1
  H  H12  1  0.18369600  0.06008500  0.39842000  1
  H  H13  1  0.68369600  0.43991500  0.89842000  1
  H  H14  1  0.81630400  0.93991500  0.60158000  1
  H  H15  1  0.31630400  0.56008500  0.10158000  1
  H  H16  1  0.18948200  0.73541600  0.56606000  1
  H  H17  1  0.68948200  0.76458400  0.06606000  1
  H  H18  1  0.81051800  0.26458400  0.43394000  1
  H  H19  1  0.31051800  0.23541600  0.93394000  1
  H  H20  1  0.01782700  0.83390000  0.54880000  1
  H  H21  1  0.51782700  0.66610000  0.04880000  1
  H  H22  1  0.98217300  0.16610000  0.45120000  1
  H  H23  1  0.48217300  0.33390000  0.95120000  1
  H  H24  1  0.76263900  0.84086300  0.29349300  1
  H  H25  1  0.26263900  0.65913700  0.79349300  1
  H  H26  1  0.23736100  0.15913700  0.70650700  1
  H  H27  1  0.73736100  0.34086300  0.20650700  1
  H  H28  1  0.86994200  0.99375700  0.30725600  1
  H  H29  1  0.36994200  0.50624300  0.80725600  1
  H  H30  1  0.13005800  0.00624300  0.69274400  1
  H  H31  1  0.63005800  0.49375700  0.19274400  1
  H  H32  1  0.30971900  0.82363000  0.28765500  1
  H  H33  1  0.80971900  0.67637000  0.78765500  1
  H  H34  1  0.69028100  0.17637000  0.71234500  1
  H  H35  1  0.19028100  0.32363000  0.21234500  1
  H  H36  1  0.15193700  0.93018500  0.26476500  1
  H  H37  1  0.65193700  0.56981500  0.76476500  1
  H  H38  1  0.84806300  0.06981500  0.73523500  1
  H  H39  1  0.34806300  0.43018500  0.23523500  1
  H  H40  1  0.79434400  0.57707200  0.45818700  1
  H  H41  1  0.29434400  0.92292800  0.95818700  1
  H  H42  1  0.20565600  0.42292800  0.54181300  1
  H  H43  1  0.70565600  0.07707200  0.04181300  1
  H  H44  1  0.71637800  0.59789800  0.37427500  1
  H  H45  1  0.21637800  0.90210200  0.87427500  1
  H  H46  1  0.28362200  0.40210200  0.62572500  1
  H  H47  1  0.78362200  0.09789800  0.12572500  1
  H  H48  1  0.26342300  0.43224900  0.41840500  1
  H  H49  1  0.76342300  0.06775100  0.91840500  1
  H  H50  1  0.73657700  0.56775100  0.58159500  1
  H  H51  1  0.23657700  0.93224900  0.08159500  1
  H  H52  1  0.07513000  0.40217300  0.43307500  1
  H  H53  1  0.57513000  0.09782700  0.93307500  1
  H  H54  1  0.92487000  0.59782700  0.56692500  1
  H  H55  1  0.42487000  0.90217300  0.06692500  1
  H  H56  1  0.00737900  0.48639900  0.27967000  1
  H  H57  1  0.50737900  0.01360100  0.77967000  1
  H  H58  1  0.99262100  0.51360100  0.72033000  1
  H  H59  1  0.49262100  0.98639900  0.22033000  1
  H  H60  1  0.02484000  0.63943900  0.23680000  1
  H  H61  1  0.52484000  0.86056100  0.73680000  1
  H  H62  1  0.97516000  0.36056100  0.76320000  1
  H  H63  1  0.47516000  0.13943900  0.26320000  1
  H  H64  1  0.41937900  0.94581800  0.58307000  1
  H  H65  1  0.91937900  0.55418200  0.08307000  1
  H  H66  1  0.58062100  0.05418200  0.41693000  1
  H  H67  1  0.08062100  0.44581800  0.91693000  1
  H  H68  1  0.29475100  0.07072300  0.60370700  1
  H  H69  1  0.79475100  0.42927700  0.10370700  1
  H  H70  1  0.70524900  0.92927700  0.39629300  1
  H  H71  1  0.20524900  0.57072300  0.89629300  1
  Br  Br0  1  0.97322700  0.21629600  0.26649600  1
  Br  Br1  1  0.47322700  0.28370400  0.76649600  1
  Br  Br2  1  0.02677300  0.78370400  0.73350400  1
  Br  Br3  1  0.52677300  0.71629600  0.23350400  1
  Br  Br4  1  0.49600300  0.70245500  0.62232700  1
  Br  Br5  1  0.99600300  0.79754500  0.12232700  1
  Br  Br6  1  0.50399700  0.29754500  0.37767300  1
  Br  Br7  1  0.00399700  0.20245500  0.87767300  1
  O  O0  1  0.39147000  0.73176200  0.44048200  1
  O  O1  1  0.89147000  0.76823800  0.94048200  1
  O  O2  1  0.60853000  0.26823800  0.55951800  1
  O  O3  1  0.10853000  0.23176200  0.05951800  1
  O  O4  1  0.13437500  0.02186600  0.43966100  1
  O  O5  1  0.63437500  0.47813400  0.93966100  1
  O  O6  1  0.86562500  0.97813400  0.56033900  1
  O  O7  1  0.36562500  0.52186600  0.06033900  1
  O  O8  1  0.07613300  0.74258600  0.53368200  1
  O  O9  1  0.57613300  0.75741400  0.03368200  1
  O  O10  1  0.92386700  0.25741400  0.46631800  1
  O  O11  1  0.42386700  0.24258600  0.96631800  1
  O  O12  1  0.84285100  0.89828200  0.33104900  1
  O  O13  1  0.34285100  0.60171800  0.83104900  1
  O  O14  1  0.15714900  0.10171800  0.66895100  1
  O  O15  1  0.65714900  0.39828200  0.16895100  1
  O  O16  1  0.22262800  0.88235000  0.30762000  1
  O  O17  1  0.72262800  0.61765000  0.80762000  1
  O  O18  1  0.77737200  0.11765000  0.69238000  1
  O  O19  1  0.27737200  0.38235000  0.19238000  1
  O  O20  1  0.81549600  0.62249300  0.41217000  1
  O  O21  1  0.31549600  0.87750700  0.91217000  1
  O  O22  1  0.18450400  0.37750700  0.58783000  1
  O  O23  1  0.68450400  0.12249300  0.08783000  1
  O  O24  1  0.17068900  0.47567400  0.44093000  1
  O  O25  1  0.67068900  0.02432600  0.94093000  1
  O  O26  1  0.82931100  0.52432600  0.55907000  1
  O  O27  1  0.32931100  0.97567400  0.05907000  1
  O  O28  1  0.02649100  0.59589200  0.28571500  1
  O  O29  1  0.52649100  0.90410800  0.78571500  1
  O  O30  1  0.97350900  0.40410800  0.71428500  1
  O  O31  1  0.47350900  0.09589200  0.21428500  1
  O  O32  1  0.36766500  0.04513600  0.56694700  1
  O  O33  1  0.86766500  0.45486400  0.06694700  1
  O  O34  1  0.63233500  0.95486400  0.43305300  1
  O  O35  1  0.13233500  0.54513600  0.93305300  1
loop_
_geom_bond_atom_site_label_1
_geom_bond_atom_site_label_2
_geom_bond_distance
_geom_bond_site_symmetry_2
Ca0 O0 2.406334 1_555
Ca0 O28 2.408462 1_555
Ca0 O20 2.439420 1_455
Ca0 O16 2.498748 1_555
Ca0 O24 2.516638 1_555
Ca0 O12 2.521748 1_455
Ca0 O8 2.530928 1_555
Ca0 O4 2.624628 1_565
Ca1 O1 2.406334 1_555
Ca1 O29 2.408462 1_555
Ca1 O21 2.439420 1_555
Ca1 O17 2.498748 1_555
Ca1 O25 2.516638 1_565
Ca1 O13 2.521748 1_555
Ca1 O9 2.530928 1_556
Ca1 O5 2.624628 1_555
Ca2 O2 2.406334 1_555
Ca2 O30 2.408462 1_555
Ca2 O22 2.439420 1_655
Ca2 O18 2.498748 1_555
Ca2 O26 2.516638 1_555
Ca2 O14 2.521748 1_655
Ca2 O10 2.530928 1_555
Ca2 O6 2.624628 1_545
Ca3 O3 2.406334 1_555
Ca3 O31 2.408462 1_555
Ca3 O23 2.439420 1_555
Ca3 O19 2.498748 1_555
Ca3 O27 2.516638 1_545
Ca3 O15 2.521748 1_555
Ca3 O11 2.530928 1_554
Ca3 O7 2.624628 1_555
H0 O0 0.993778 1_555
H1 O1 0.993778 1_555
H2 O2 0.993778 1_555
H3 O3 0.993778 1_555
H4 O0 0.984874 1_555
H5 O1 0.984874 1_555
H6 O2 0.984874 1_555
H7 O3 0.984874 1_555
H8 O4 1.003833 1_555
H9 O5 1.003833 1_555
H10 O6 1.003833 1_555
H11 O7 1.003833 1_555
H12 O4 0.980447 1_555
H13 O5 0.980447 1_555
H14 O6 0.980447 1_555
H15 O7 0.980447 1_555
H16 O8 0.986932 1_555
H17 O9 0.986932 1_555
H18 O10 0.986932 1_555
H19 O11 0.986932 1_555
H20 O8 0.996524 1_555
H21 O9 0.996524 1_555
H22 O10 0.996524 1_555
H23 O11 0.996524 1_555
H24 O12 0.992329 1_555
H25 O13 0.992329 1_555
H26 O14 0.992329 1_555
H27 O15 0.992329 1_555
H28 O12 0.994699 1_555
H29 O13 0.994699 1_555
H30 O14 0.994699 1_555
H31 O15 0.994699 1_555
H32 O16 0.988874 1_555
H33 O17 0.988874 1_555
H34 O18 0.988874 1_555
H35 O19 0.988874 1_555
H36 O16 0.980174 1_555
H37 O17 0.980174 1_555
H38 O18 0.980174 1_555
H39 O19 0.980174 1_555
H40 O20 0.984622 1_555
H41 O21 0.984622 1_555
H42 O22 0.984622 1_555
H43 O23 0.984622 1_555
H44 O20 0.977610 1_555
H45 O21 0.977610 1_555
H46 O22 0.977610 1_555
H47 O23 0.977610 1_555
H48 O24 0.987702 1_555
H49 O25 0.987702 1_555
H50 O26 0.987702 1_555
H51 O27 0.987702 1_555
H52 O24 0.989040 1_555
H53 O25 0.989040 1_555
H54 O26 0.989040 1_555
H55 O27 0.989040 1_555
H56 O28 0.984092 1_555
H57 O29 0.984092 1_545
H58 O30 0.984092 1_555
H59 O31 0.984092 1_565
H60 O28 0.982874 1_555
H61 O29 0.982874 1_555
H62 O30 0.982874 1_555
H63 O31 0.982874 1_555
H64 O32 0.992565 1_565
H65 O33 0.992565 1_555
H66 O34 0.992565 1_545
H67 O35 0.992565 1_555
H68 O32 0.997179 1_555
H69 O33 0.997179 1_555
H70 O34 0.997179 1_555
H71 O35 0.997179 1_555
