# generated using pymatgen
data_SiH8C(N2F3)2
_symmetry_space_group_name_H-M   'P 1'
_cell_length_a   7.62011000
_cell_length_b   10.51848700
_cell_length_c   17.95200000
_cell_angle_alpha   90.00000000
_cell_angle_beta   90.00000000
_cell_angle_gamma   90.00000000
_symmetry_Int_Tables_number   1
_chemical_formula_structural   SiH8C(N2F3)2
_chemical_formula_sum   'Si8 H64 C8 N32 F48'
_cell_volume   1438.88920618
_cell_formula_units_Z   8
loop_
 _symmetry_equiv_pos_site_id
 _symmetry_equiv_pos_as_xyz
  1  'x, y, z'
loop_
 _atom_site_type_symbol
 _atom_site_label
 _atom_site_symmetry_multiplicity
 _atom_site_fract_x
 _atom_site_fract_y
 _atom_site_fract_z
 _atom_site_occupancy
  Si  Si0  1  0.11198000  0.45099700  0.13393700  1
  Si  Si1  1  0.11198000  0.04900300  0.36606300  1
  Si  Si2  1  0.38802000  0.95099700  0.86606300  1
  Si  Si3  1  0.38802000  0.54900300  0.63393700  1
  Si  Si4  1  0.88802000  0.54900300  0.86606300  1
  Si  Si5  1  0.88802000  0.95099700  0.63393700  1
  Si  Si6  1  0.61198000  0.04900300  0.13393700  1
  Si  Si7  1  0.61198000  0.45099700  0.36606300  1
  H  H0  1  0.52215200  0.75986500  0.16379900  1
  H  H1  1  0.52215200  0.74013500  0.33620100  1
  H  H2  1  0.97784800  0.25986500  0.83620100  1
  H  H3  1  0.97784800  0.24013500  0.66379900  1
  H  H4  1  0.47784800  0.24013500  0.83620100  1
  H  H5  1  0.47784800  0.25986500  0.66379900  1
  H  H6  1  0.02215200  0.74013500  0.16379900  1
  H  H7  1  0.02215200  0.75986500  0.33620100  1
  H  H8  1  0.47525500  0.60875700  0.19816100  1
  H  H9  1  0.47525500  0.89124300  0.30183900  1
  H  H10  1  0.02474500  0.10875700  0.80183900  1
  H  H11  1  0.02474500  0.39124300  0.69816100  1
  H  H12  1  0.52474500  0.39124300  0.80183900  1
  H  H13  1  0.52474500  0.10875700  0.69816100  1
  H  H14  1  0.97525500  0.89124300  0.19816100  1
  H  H15  1  0.97525500  0.60875700  0.30183900  1
  H  H16  1  0.63251100  0.78469500  0.04594800  1
  H  H17  1  0.63251100  0.71530500  0.45405200  1
  H  H18  1  0.86748900  0.28469500  0.95405200  1
  H  H19  1  0.86748900  0.21530500  0.54594800  1
  H  H20  1  0.36748900  0.21530500  0.95405200  1
  H  H21  1  0.36748900  0.28469500  0.54594800  1
  H  H22  1  0.13251100  0.71530500  0.04594800  1
  H  H23  1  0.13251100  0.78469500  0.45405200  1
  H  H24  1  0.69242300  0.65234300  0.99310300  1
  H  H25  1  0.69242300  0.84765700  0.50689700  1
  H  H26  1  0.80757700  0.15234300  0.00689700  1
  H  H27  1  0.80757700  0.34765700  0.49310300  1
  H  H28  1  0.30757700  0.34765700  0.00689700  1
  H  H29  1  0.30757700  0.15234300  0.49310300  1
  H  H30  1  0.19242300  0.84765700  0.99310300  1
  H  H31  1  0.19242300  0.65234300  0.50689700  1
  H  H32  1  0.73048500  0.46014500  0.05570900  1
  H  H33  1  0.73048500  0.03985500  0.44429100  1
  H  H34  1  0.76951500  0.96014500  0.94429100  1
  H  H35  1  0.76951500  0.53985500  0.55570900  1
  H  H36  1  0.26951500  0.53985500  0.94429100  1
  H  H37  1  0.26951500  0.96014500  0.55570900  1
  H  H38  1  0.23048500  0.03985500  0.05570900  1
  H  H39  1  0.23048500  0.46014500  0.44429100  1
  H  H40  1  0.49786700  0.39059000  0.17181800  1
  H  H41  1  0.49786700  0.10941000  0.32818200  1
  H  H42  1  0.00213300  0.89059000  0.82818200  1
  H  H43  1  0.00213300  0.60941000  0.67181800  1
  H  H44  1  0.50213300  0.60941000  0.82818200  1
  H  H45  1  0.50213300  0.89059000  0.67181800  1
  H  H46  1  0.99786700  0.10941000  0.17181800  1
  H  H47  1  0.99786700  0.39059000  0.32818200  1
  H  H48  1  0.68441800  0.32096200  0.14215800  1
  H  H49  1  0.68441800  0.17903800  0.35784200  1
  H  H50  1  0.81558200  0.82096200  0.85784200  1
  H  H51  1  0.81558200  0.67903800  0.64215800  1
  H  H52  1  0.31558200  0.67903800  0.85784200  1
  H  H53  1  0.31558200  0.82096200  0.64215800  1
  H  H54  1  0.18441800  0.17903800  0.14215800  1
  H  H55  1  0.18441800  0.32096200  0.35784200  1
  H  H56  1  0.69591600  0.44745900  0.20078900  1
  H  H57  1  0.69591600  0.05254100  0.29921100  1
  H  H58  1  0.80408400  0.94745900  0.79921100  1
  H  H59  1  0.80408400  0.55254100  0.70078900  1
  H  H60  1  0.30408400  0.55254100  0.79921100  1
  H  H61  1  0.30408400  0.94745900  0.70078900  1
  H  H62  1  0.19591600  0.05254100  0.20078900  1
  H  H63  1  0.19591600  0.44745900  0.29921100  1
  C  C0  1  0.60917300  0.61525100  0.09981000  1
  C  C1  1  0.60917300  0.88474900  0.40019000  1
  C  C2  1  0.89082700  0.11525100  0.90019000  1
  C  C3  1  0.89082700  0.38474900  0.59981000  1
  C  C4  1  0.39082700  0.38474900  0.90019000  1
  C  C5  1  0.39082700  0.11525100  0.59981000  1
  C  C6  1  0.10917300  0.88474900  0.09981000  1
  C  C7  1  0.10917300  0.61525100  0.40019000  1
  N  N0  1  0.54853600  0.66391200  0.16341600  1
  N  N1  1  0.54853600  0.83608800  0.33658400  1
  N  N2  1  0.95146400  0.16391200  0.83658400  1
  N  N3  1  0.95146400  0.33608800  0.66341600  1
  N  N4  1  0.45146400  0.33608800  0.83658400  1
  N  N5  1  0.45146400  0.16391200  0.66341600  1
  N  N6  1  0.04853600  0.83608800  0.16341600  1
  N  N7  1  0.04853600  0.66391200  0.33658400  1
  N  N8  1  0.65018600  0.68865000  0.04267600  1
  N  N9  1  0.65018600  0.81135000  0.45732400  1
  N  N10  1  0.84981400  0.18865000  0.95732400  1
  N  N11  1  0.84981400  0.31135000  0.54267600  1
  N  N12  1  0.34981400  0.31135000  0.95732400  1
  N  N13  1  0.34981400  0.18865000  0.54267600  1
  N  N14  1  0.15018600  0.81135000  0.04267600  1
  N  N15  1  0.15018600  0.68865000  0.45732400  1
  N  N16  1  0.63108600  0.48688700  0.09114000  1
  N  N17  1  0.63108600  0.01311300  0.40886000  1
  N  N18  1  0.86891400  0.98688700  0.90886000  1
  N  N19  1  0.86891400  0.51311300  0.59114000  1
  N  N20  1  0.36891400  0.51311300  0.90886000  1
  N  N21  1  0.36891400  0.98688700  0.59114000  1
  N  N22  1  0.13108600  0.01311300  0.09114000  1
  N  N23  1  0.13108600  0.48688700  0.40886000  1
  N  N24  1  0.62645500  0.40892100  0.15582300  1
  N  N25  1  0.62645500  0.09107900  0.34417700  1
  N  N26  1  0.87354500  0.90892100  0.84417700  1
  N  N27  1  0.87354500  0.59107900  0.65582300  1
  N  N28  1  0.37354500  0.59107900  0.84417700  1
  N  N29  1  0.37354500  0.90892100  0.65582300  1
  N  N30  1  0.12645500  0.09107900  0.15582300  1
  N  N31  1  0.12645500  0.40892100  0.34417700  1
  F  F0  1  0.22489700  0.54066700  0.07038700  1
  F  F1  1  0.22489700  0.95933300  0.42961300  1
  F  F2  1  0.27510300  0.04066700  0.92961300  1
  F  F3  1  0.27510300  0.45933300  0.57038700  1
  F  F4  1  0.77510300  0.45933300  0.92961300  1
  F  F5  1  0.77510300  0.04066700  0.57038700  1
  F  F6  1  0.72489700  0.95933300  0.07038700  1
  F  F7  1  0.72489700  0.54066700  0.42961300  1
  F  F8  1  0.97622700  0.39554800  0.06620500  1
  F  F9  1  0.97622700  0.10445200  0.43379500  1
  F  F10  1  0.52377300  0.89554800  0.93379500  1
  F  F11  1  0.52377300  0.60445200  0.56620500  1
  F  F12  1  0.02377300  0.60445200  0.93379500  1
  F  F13  1  0.02377300  0.89554800  0.56620500  1
  F  F14  1  0.47622700  0.10445200  0.06620500  1
  F  F15  1  0.47622700  0.39554800  0.43379500  1
  F  F16  1  0.25856300  0.32542600  0.11653000  1
  F  F17  1  0.25856300  0.17457400  0.38347000  1
  F  F18  1  0.24143700  0.82542600  0.88347000  1
  F  F19  1  0.24143700  0.67457400  0.61653000  1
  F  F20  1  0.74143700  0.67457400  0.88347000  1
  F  F21  1  0.74143700  0.82542600  0.61653000  1
  F  F22  1  0.75856300  0.17457400  0.11653000  1
  F  F23  1  0.75856300  0.32542600  0.38347000  1
  F  F24  1  0.25513400  0.50299200  0.20360700  1
  F  F25  1  0.25513400  0.99700800  0.29639300  1
  F  F26  1  0.24486600  0.00299200  0.79639300  1
  F  F27  1  0.24486600  0.49700800  0.70360700  1
  F  F28  1  0.74486600  0.49700800  0.79639300  1
  F  F29  1  0.74486600  0.00299200  0.70360700  1
  F  F30  1  0.75513400  0.99700800  0.20360700  1
  F  F31  1  0.75513400  0.50299200  0.29639300  1
  F  F32  1  0.00793100  0.36000200  0.19834400  1
  F  F33  1  0.00793100  0.13999800  0.30165600  1
  F  F34  1  0.49206900  0.86000200  0.80165600  1
  F  F35  1  0.49206900  0.63999800  0.69834400  1
  F  F36  1  0.99206900  0.63999800  0.80165600  1
  F  F37  1  0.99206900  0.86000200  0.69834400  1
  F  F38  1  0.50793100  0.13999800  0.19834400  1
  F  F39  1  0.50793100  0.36000200  0.30165600  1
  F  F40  1  0.97452800  0.57720100  0.15240100  1
  F  F41  1  0.97452800  0.92279900  0.34759900  1
  F  F42  1  0.52547200  0.07720100  0.84759900  1
  F  F43  1  0.52547200  0.42279900  0.65240100  1
  F  F44  1  0.02547200  0.42279900  0.84759900  1
  F  F45  1  0.02547200  0.07720100  0.65240100  1
  F  F46  1  0.47452800  0.92279900  0.15240100  1
  F  F47  1  0.47452800  0.57720100  0.34759900  1
loop_
_geom_bond_atom_site_label_1
_geom_bond_atom_site_label_2
_geom_bond_distance
_geom_bond_site_symmetry_2
H0 N0 1.029133 1_555
H1 N1 1.029133 1_555
H2 N2 1.029133 1_555
H3 N3 1.029133 1_555
H4 N4 1.029133 1_555
H5 N5 1.029133 1_555
H6 N6 1.029133 1_555
H7 N7 1.029133 1_555
H8 N0 1.018551 1_555
H9 N1 1.018551 1_555
H10 N2 1.018551 1_455
H11 N3 1.018551 1_455
H12 N4 1.018551 1_555
H13 N5 1.018551 1_555
H14 N6 1.018551 1_655
H15 N7 1.018551 1_655
H16 N8 1.020878 1_555
H17 N9 1.020878 1_555
H18 N10 1.020878 1_555
H19 N11 1.020878 1_555
H20 N12 1.020878 1_555
H21 N13 1.020878 1_555
H22 N14 1.020878 1_555
H23 N15 1.020878 1_555
H24 N8 1.020497 1_556
H25 N9 1.020497 1_555
H26 N10 1.020497 1_554
H27 N11 1.020497 1_555
H28 N12 1.020497 1_554
H29 N13 1.020497 1_555
H30 N14 1.020497 1_556
H31 N15 1.020497 1_555
H32 N16 1.028296 1_555
H33 N17 1.028296 1_555
H34 N18 1.028296 1_555
H35 N19 1.028296 1_555
H36 N20 1.028296 1_555
H37 N21 1.028296 1_555
H38 N22 1.028296 1_555
H39 N23 1.028296 1_555
H40 N24 1.039107 1_555
H41 N25 1.039107 1_555
H42 N26 1.039107 1_455
H43 N27 1.039107 1_455
H44 N28 1.039107 1_555
H45 N29 1.039107 1_555
H46 N30 1.039107 1_655
H47 N31 1.039107 1_655
H48 N24 1.054159 1_555
H49 N25 1.054159 1_555
H50 N26 1.054159 1_555
H51 N27 1.054159 1_555
H52 N28 1.054159 1_555
H53 N29 1.054159 1_555
H54 N30 1.054159 1_555
H55 N31 1.054159 1_555
H56 N24 1.046946 1_555
H57 N25 1.046946 1_555
H58 N26 1.046946 1_555
H59 N27 1.046946 1_555
H60 N28 1.046946 1_555
H61 N29 1.046946 1_555
H62 N30 1.046946 1_555
H63 N31 1.046946 1_555
C0 N8 1.321259 1_555
C0 N0 1.333909 1_555
C0 N16 1.369355 1_555
C1 N9 1.321259 1_555
C1 N1 1.333909 1_555
C1 N17 1.369355 1_565
C2 N10 1.321259 1_555
C2 N2 1.333909 1_555
C2 N18 1.369355 1_545
C3 N11 1.321259 1_555
C3 N3 1.333909 1_555
C3 N19 1.369355 1_555
C4 N12 1.321259 1_555
C4 N4 1.333909 1_555
C4 N20 1.369355 1_555
C5 N13 1.321259 1_555
C5 N5 1.333909 1_555
C5 N21 1.369355 1_545
C6 N14 1.321259 1_555
C6 N6 1.333909 1_555
C6 N22 1.369355 1_565
C7 N15 1.321259 1_555
C7 N7 1.333909 1_555
C7 N23 1.369355 1_555
N16 N24 1.422021 1_555
N17 N25 1.422021 1_555
N18 N26 1.422021 1_555
N19 N27 1.422021 1_555
N20 N28 1.422021 1_555
N21 N29 1.422021 1_555
N22 N30 1.422021 1_555
N23 N31 1.422021 1_555
F0 Si0 1.712164 1_555
F1 Si1 1.712164 1_565
F2 Si2 1.712164 1_545
F3 Si3 1.712164 1_555
F4 Si4 1.712164 1_555
F5 Si5 1.712164 1_545
F6 Si6 1.712164 1_565
F7 Si7 1.712164 1_555
F8 Si0 1.699628 1_655
F9 Si1 1.699628 1_655
F10 Si2 1.699628 1_555
F11 Si3 1.699628 1_555
F12 Si4 1.699628 1_455
F13 Si5 1.699628 1_455
F14 Si6 1.699628 1_555
F15 Si7 1.699628 1_555
F16 Si0 1.757797 1_555
F17 Si1 1.757797 1_555
F18 Si2 1.757797 1_555
F19 Si3 1.757797 1_555
F20 Si4 1.757797 1_555
F21 Si5 1.757797 1_555
F22 Si6 1.757797 1_555
F23 Si7 1.757797 1_555
F24 Si0 1.747384 1_555
F25 Si1 1.747384 1_565
F26 Si2 1.747384 1_545
F27 Si3 1.747384 1_555
F28 Si4 1.747384 1_555
F29 Si5 1.747384 1_545
F30 Si6 1.747384 1_565
F31 Si7 1.747384 1_555
F32 Si0 1.697531 1_555
F33 Si1 1.697531 1_555
F34 Si2 1.697531 1_555
F35 Si3 1.697531 1_555
F36 Si4 1.697531 1_555
F37 Si5 1.697531 1_555
F38 Si6 1.697531 1_555
F39 Si7 1.697531 1_555
F40 Si0 1.723109 1_655
F41 Si1 1.723109 1_665
F42 Si2 1.723109 1_545
F43 Si3 1.723109 1_555
F44 Si4 1.723109 1_455
F45 Si5 1.723109 1_445
F46 Si6 1.723109 1_565
F47 Si7 1.723109 1_555
