# generated using pymatgen
data_Th4Fe13Sn5
_symmetry_space_group_name_H-M   'P 1'
_cell_length_a   8.23521200
_cell_length_b   8.23521200
_cell_length_c   12.05894600
_cell_angle_alpha   90.00000000
_cell_angle_beta   90.00000000
_cell_angle_gamma   90.00000000
_symmetry_Int_Tables_number   1
_chemical_formula_structural   Th4Fe13Sn5
_chemical_formula_sum   'Th8 Fe26 Sn10'
_cell_volume   817.82224229
_cell_formula_units_Z   2
loop_
 _symmetry_equiv_pos_site_id
 _symmetry_equiv_pos_as_xyz
  1  'x, y, z'
loop_
 _atom_site_type_symbol
 _atom_site_label
 _atom_site_symmetry_multiplicity
 _atom_site_fract_x
 _atom_site_fract_y
 _atom_site_fract_z
 _atom_site_occupancy
  Th  Th0  1  0.65530700  0.15530700  0.50000000  1
  Th  Th1  1  0.34469300  0.84469300  0.50000000  1
  Th  Th2  1  0.84469300  0.65530700  0.50000000  1
  Th  Th3  1  0.15530700  0.34469300  0.50000000  1
  Th  Th4  1  0.50000000  0.50000000  0.78423100  1
  Th  Th5  1  0.00000000  0.00000000  0.78423100  1
  Th  Th6  1  0.50000000  0.50000000  0.21576900  1
  Th  Th7  1  0.00000000  0.00000000  0.21576900  1
  Fe  Fe0  1  0.17596300  0.67596300  0.89361000  1
  Fe  Fe1  1  0.82403700  0.32403700  0.89361000  1
  Fe  Fe2  1  0.32403700  0.17596300  0.89361000  1
  Fe  Fe3  1  0.67596300  0.82403700  0.89361000  1
  Fe  Fe4  1  0.82403700  0.32403700  0.10639000  1
  Fe  Fe5  1  0.17596300  0.67596300  0.10639000  1
  Fe  Fe6  1  0.67596300  0.82403700  0.10639000  1
  Fe  Fe7  1  0.32403700  0.17596300  0.10639000  1
  Fe  Fe8  1  0.62457300  0.12457300  0.82020600  1
  Fe  Fe9  1  0.37542700  0.87542700  0.82020600  1
  Fe  Fe10  1  0.87542700  0.62457300  0.82020600  1
  Fe  Fe11  1  0.12457300  0.37542700  0.82020600  1
  Fe  Fe12  1  0.37542700  0.87542700  0.17979400  1
  Fe  Fe13  1  0.62457300  0.12457300  0.17979400  1
  Fe  Fe14  1  0.12457300  0.37542700  0.17979400  1
  Fe  Fe15  1  0.87542700  0.62457300  0.17979400  1
  Fe  Fe16  1  0.70671300  0.56755300  0.00000000  1
  Fe  Fe17  1  0.29328700  0.43244700  0.00000000  1
  Fe  Fe18  1  0.79328700  0.06755300  0.00000000  1
  Fe  Fe19  1  0.20671300  0.93244700  0.00000000  1
  Fe  Fe20  1  0.56755300  0.29328700  0.00000000  1
  Fe  Fe21  1  0.43244700  0.70671300  0.00000000  1
  Fe  Fe22  1  0.06755300  0.20671300  0.00000000  1
  Fe  Fe23  1  0.93244700  0.79328700  0.00000000  1
  Fe  Fe24  1  0.00000000  0.50000000  0.00000000  1
  Fe  Fe25  1  0.50000000  0.00000000  0.00000000  1
  Sn  Sn0  1  0.14638900  0.64638900  0.68184100  1
  Sn  Sn1  1  0.85361100  0.35361100  0.68184100  1
  Sn  Sn2  1  0.35361100  0.14638900  0.68184100  1
  Sn  Sn3  1  0.64638900  0.85361100  0.68184100  1
  Sn  Sn4  1  0.85361100  0.35361100  0.31815900  1
  Sn  Sn5  1  0.14638900  0.64638900  0.31815900  1
  Sn  Sn6  1  0.64638900  0.85361100  0.31815900  1
  Sn  Sn7  1  0.35361100  0.14638900  0.31815900  1
  Sn  Sn8  1  0.50000000  0.50000000  0.50000000  1
  Sn  Sn9  1  0.00000000  0.00000000  0.50000000  1
loop_
_geom_bond_atom_site_label_1
_geom_bond_atom_site_label_2
_geom_bond_distance
_geom_bond_site_symmetry_2
Fe0 Fe24 2.417789 1_556
Fe0 Fe19 2.484246 1_556
Fe0 Fe21 2.484246 1_556
Fe0 Fe9 2.485959 1_555
Fe0 Fe5 2.565903 1_556
Fe0 Fe23 2.569268 1_456
Fe0 Fe17 2.569268 1_556
Fe0 Sn0 2.576834 1_555
Fe0 Fe10 2.662359 1_455
Fe0 Fe11 2.662359 1_555
Fe0 Th5 3.310677 1_565
Fe0 Th4 3.310677 1_555
Fe1 Fe24 2.417789 1_656
Fe1 Fe18 2.484246 1_556
Fe1 Fe20 2.484246 1_556
Fe1 Fe8 2.485959 1_555
Fe1 Fe4 2.565903 1_556
Fe1 Fe16 2.569268 1_556
Fe1 Fe22 2.569268 1_656
Fe1 Sn1 2.576834 1_555
Fe1 Fe11 2.662359 1_655
Fe1 Fe10 2.662359 1_555
Fe1 Th5 3.310677 1_655
Fe1 Th4 3.310677 1_555
Fe2 Fe25 2.417789 1_556
Fe2 Fe22 2.484246 1_556
Fe2 Fe7 2.565903 1_556
Fe2 Fe20 2.569268 1_556
Fe2 Sn2 2.576834 1_555
Fe2 Fe9 2.662359 1_545
Fe2 Fe8 2.662359 1_555
Fe2 Th5 3.310677 1_555
Fe2 Th4 3.310677 1_555
Fe3 Fe6 2.565903 1_556
Fe3 Sn3 2.576834 1_555
Fe3 Fe8 2.662359 1_565
Fe3 Fe9 2.662359 1_555
Fe3 Th4 3.310677 1_555
Fe3 Th5 3.310677 1_665
Fe4 Sn4 2.576834 1_555
Fe4 Th7 3.310677 1_655
Fe4 Th6 3.310677 1_555
Fe5 Sn5 2.576834 1_555
Fe5 Th7 3.310677 1_565
Fe5 Th6 3.310677 1_555
Fe6 Sn6 2.576834 1_555
Fe6 Th6 3.310677 1_555
Fe6 Th7 3.310677 1_665
Fe7 Sn7 2.576834 1_555
Fe7 Th7 3.310677 1_555
Fe7 Th6 3.310677 1_555
Fe8 Sn3 2.792054 1_545
Fe8 Sn2 2.792054 1_555
Fe8 Fe9 2.901641 1_545
Fe8 Sn1 3.146321 1_555
Fe8 Th5 3.286241 1_655
Fe8 Th4 3.286241 1_555
Fe8 Th0 3.877901 1_555
Fe9 Sn3 2.792054 1_555
Fe9 Sn2 2.792054 1_565
Fe9 Sn0 3.146321 1_555
Fe9 Th4 3.286241 1_555
Fe9 Th5 3.286241 1_565
Fe9 Th1 3.877901 1_555
Fe10 Fe3 2.485959 1_555
Fe10 Fe24 2.608764 1_656
Fe10 Fe23 2.617573 1_556
Fe10 Fe16 2.617573 1_556
Fe10 Sn1 2.792054 1_555
Fe10 Sn0 2.792054 1_655
Fe10 Fe11 2.901641 1_655
Fe10 Sn3 3.146321 1_555
Fe10 Th4 3.286241 1_555
Fe10 Th5 3.286241 1_665
Fe10 Th2 3.877901 1_555
Fe11 Fe2 2.485959 1_555
Fe11 Fe24 2.608764 1_556
Fe11 Fe17 2.617573 1_556
Fe11 Fe22 2.617573 1_556
Fe11 Sn1 2.792054 1_455
Fe11 Sn0 2.792054 1_555
Fe11 Sn2 3.146321 1_555
Fe11 Th5 3.286241 1_555
Fe11 Th4 3.286241 1_555
Fe11 Th3 3.877901 1_555
Fe12 Fe5 2.485959 1_555
Fe12 Fe25 2.608764 1_565
Fe12 Fe21 2.617573 1_555
Fe12 Fe19 2.617573 1_555
Fe12 Fe7 2.662359 1_565
Fe12 Fe6 2.662359 1_555
Fe12 Sn6 2.792054 1_555
Fe12 Sn7 2.792054 1_565
Fe12 Fe13 2.901641 1_565
Fe12 Sn5 3.146321 1_555
Fe12 Th6 3.286241 1_555
Fe12 Th7 3.286241 1_565
Fe12 Th1 3.877901 1_555
Fe13 Fe4 2.485959 1_555
Fe13 Fe25 2.608764 1_555
Fe13 Fe20 2.617573 1_555
Fe13 Fe18 2.617573 1_555
Fe13 Fe7 2.662359 1_555
Fe13 Fe6 2.662359 1_545
Fe13 Sn6 2.792054 1_545
Fe13 Sn7 2.792054 1_555
Fe13 Sn4 3.146321 1_555
Fe13 Th7 3.286241 1_655
Fe13 Th6 3.286241 1_555
Fe13 Th0 3.877901 1_555
Fe14 Fe7 2.485959 1_555
Fe14 Fe24 2.608764 1_555
Fe14 Fe17 2.617573 1_555
Fe14 Fe22 2.617573 1_555
Fe14 Fe5 2.662359 1_555
Fe14 Fe4 2.662359 1_455
Fe14 Sn4 2.792054 1_455
Fe14 Sn5 2.792054 1_555
Fe14 Fe15 2.901641 1_455
Fe14 Sn7 3.146321 1_555
Fe14 Th7 3.286241 1_555
Fe14 Th6 3.286241 1_555
Fe14 Th3 3.877901 1_555
Fe15 Fe6 2.485959 1_555
Fe15 Fe24 2.608764 1_655
Fe15 Fe16 2.617573 1_555
Fe15 Fe23 2.617573 1_555
Fe15 Fe5 2.662359 1_655
Fe15 Fe4 2.662359 1_555
Fe15 Sn4 2.792054 1_555
Fe15 Sn5 2.792054 1_655
Fe15 Sn6 3.146321 1_555
Fe15 Th6 3.286241 1_555
Fe15 Th7 3.286241 1_665
Fe15 Th2 3.877901 1_555
Fe16 Fe24 2.478521 1_655
Fe16 Fe3 2.484246 1_554
Fe16 Fe6 2.484246 1_555
Fe16 Fe21 2.532744 1_555
Fe16 Fe20 2.532744 1_555
Fe16 Fe4 2.569268 1_555
Fe16 Fe23 2.628977 1_555
Fe16 Th4 3.158722 1_554
Fe16 Th6 3.158722 1_555
Fe17 Fe24 2.478521 1_555
Fe17 Fe2 2.484246 1_554
Fe17 Fe7 2.484246 1_555
Fe17 Fe21 2.532744 1_555
Fe17 Fe20 2.532744 1_555
Fe17 Fe5 2.569268 1_555
Fe17 Fe22 2.628977 1_555
Fe17 Th4 3.158722 1_554
Fe17 Th6 3.158722 1_555
Fe18 Fe25 2.478521 1_555
Fe18 Fe4 2.484246 1_555
Fe18 Fe22 2.532744 1_655
Fe18 Fe23 2.532744 1_545
Fe18 Fe3 2.569268 1_544
Fe18 Fe6 2.569268 1_545
Fe18 Fe8 2.617573 1_554
Fe18 Fe20 2.628977 1_555
Fe18 Th5 3.158722 1_654
Fe18 Th7 3.158722 1_655
Fe19 Fe25 2.478521 1_565
Fe19 Fe5 2.484246 1_555
Fe19 Fe22 2.532744 1_565
Fe19 Fe23 2.532744 1_455
Fe19 Fe2 2.569268 1_564
Fe19 Fe7 2.569268 1_565
Fe19 Fe9 2.617573 1_554
Fe19 Fe21 2.628977 1_555
Fe19 Th5 3.158722 1_564
Fe19 Th7 3.158722 1_565
Fe20 Fe25 2.478521 1_555
Fe20 Fe4 2.484246 1_555
Fe20 Fe7 2.569268 1_555
Fe20 Fe8 2.617573 1_554
Fe20 Th4 3.158722 1_554
Fe20 Th6 3.158722 1_555
Fe21 Fe25 2.478521 1_565
Fe21 Fe5 2.484246 1_555
Fe21 Fe3 2.569268 1_554
Fe21 Fe6 2.569268 1_555
Fe21 Fe9 2.617573 1_554
Fe21 Th4 3.158722 1_554
Fe21 Th6 3.158722 1_555
Fe22 Fe24 2.478521 1_555
Fe22 Fe7 2.484246 1_555
Fe22 Fe4 2.569268 1_455
Fe22 Th7 3.158722 1_555
Fe22 Th5 3.158722 1_554
Fe23 Fe24 2.478521 1_655
Fe23 Fe3 2.484246 1_554
Fe23 Fe6 2.484246 1_555
Fe23 Fe5 2.569268 1_655
Fe23 Th5 3.158722 1_664
Fe23 Th7 3.158722 1_665
Fe24 Fe5 2.417789 1_555
Fe24 Fe4 2.417789 1_455
Fe25 Fe7 2.417789 1_555
Fe25 Fe3 2.417789 1_544
Fe25 Fe6 2.417789 1_545
Fe25 Fe8 2.608764 1_554
Fe25 Fe9 2.608764 1_544
Sn0 Th1 3.184696 1_555
Sn0 Th2 3.314620 1_455
Sn0 Th3 3.314620 1_555
Sn0 Th5 3.384961 1_565
Sn0 Th4 3.384961 1_555
Sn1 Th0 3.184696 1_555
Sn1 Th2 3.314620 1_555
Sn1 Th3 3.314620 1_655
Sn1 Th4 3.384961 1_555
Sn1 Th5 3.384961 1_655
Sn2 Th3 3.184696 1_555
Sn2 Th0 3.314620 1_555
Sn2 Th1 3.314620 1_545
Sn2 Th5 3.384961 1_555
Sn2 Th4 3.384961 1_555
Sn3 Th2 3.184696 1_555
Sn3 Th0 3.314620 1_565
Sn3 Th1 3.314620 1_555
Sn3 Th5 3.384961 1_665
Sn3 Th4 3.384961 1_555
Sn4 Th0 3.184696 1_555
Sn4 Th2 3.314620 1_555
Sn4 Th3 3.314620 1_655
Sn4 Th6 3.384961 1_555
Sn4 Th7 3.384961 1_655
Sn5 Th1 3.184696 1_555
Sn5 Th3 3.314620 1_555
Sn5 Th2 3.314620 1_455
Sn5 Th6 3.384961 1_555
Sn5 Th7 3.384961 1_565
Sn6 Th2 3.184696 1_555
Sn6 Th0 3.314620 1_565
Sn6 Th1 3.314620 1_555
Sn6 Th6 3.384961 1_555
Sn6 Th7 3.384961 1_665
Sn7 Th3 3.184696 1_555
Sn7 Th0 3.314620 1_555
Sn7 Th1 3.314620 1_545
Sn7 Th6 3.384961 1_555
Sn7 Th7 3.384961 1_555
Sn8 Th2 3.113450 1_555
Sn8 Th1 3.113450 1_555
Sn8 Th0 3.113450 1_555
Sn8 Th3 3.113450 1_555
Sn8 Th4 3.427526 1_555
Sn8 Th6 3.427526 1_555
Sn9 Th3 3.113450 1_555
Sn9 Th1 3.113450 1_545
Sn9 Th0 3.113450 1_455
Sn9 Th2 3.113450 1_445
Sn9 Th7 3.427526 1_555
Sn9 Th5 3.427526 1_555
