# generated using pymatgen
data_Ga6AgSb7(TeCl3)8
_symmetry_space_group_name_H-M   'P 1'
_cell_length_a   11.97625900
_cell_length_b   12.45333542
_cell_length_c   12.69789961
_cell_angle_alpha   112.29726656
_cell_angle_beta   111.56778140
_cell_angle_gamma   100.79561899
_symmetry_Int_Tables_number   1
_chemical_formula_structural   Ga6AgSb7(TeCl3)8
_chemical_formula_sum   'Ga6 Ag1 Sb7 Te8 Cl24'
_cell_volume   1507.44260489
_cell_formula_units_Z   1
loop_
 _symmetry_equiv_pos_site_id
 _symmetry_equiv_pos_as_xyz
  1  'x, y, z'
loop_
 _atom_site_type_symbol
 _atom_site_label
 _atom_site_symmetry_multiplicity
 _atom_site_fract_x
 _atom_site_fract_y
 _atom_site_fract_z
 _atom_site_occupancy
  Ga  Ga0  1  0.97079300  0.79172700  0.21088200  1
  Ga  Ga1  1  0.02981100  0.20779700  0.78676900  1
  Ga  Ga2  1  0.62170400  0.33593600  0.75939400  1
  Ga  Ga3  1  0.37997500  0.66619500  0.24044800  1
  Ga  Ga4  1  0.08062400  0.28577600  0.38756200  1
  Ga  Ga5  1  0.91954900  0.71408600  0.61265000  1
  Ag  Ag0  1  0.02043400  0.47558400  0.02629600  1
  Sb  Sb0  1  0.64710200  0.72904100  0.90831000  1
  Sb  Sb1  1  0.35433000  0.27040900  0.09243900  1
  Sb  Sb2  1  0.50002400  0.99977100  0.99992300  1
  Sb  Sb3  1  0.64522300  0.96024300  0.74503600  1
  Sb  Sb4  1  0.35443700  0.03948200  0.25515100  1
  Sb  Sb5  1  0.29389600  0.69864600  0.63666300  1
  Sb  Sb6  1  0.70615500  0.30173400  0.36396700  1
  Te  Te0  1  0.39809100  0.96620500  0.72477800  1
  Te  Te1  1  0.60177200  0.03389500  0.27516700  1
  Te  Te2  1  0.53640900  0.69041800  0.63890800  1
  Te  Te3  1  0.46377900  0.30959200  0.36151200  1
  Te  Te4  1  0.75703700  0.99586300  0.00719500  1
  Te  Te5  1  0.24270800  0.00383300  0.99286000  1
  Te  Te6  1  0.60772000  0.28513200  0.11158400  1
  Te  Te7  1  0.39263600  0.71502300  0.88872800  1
  Cl  Cl0  1  0.12192900  0.16309800  0.23911700  1
  Cl  Cl1  1  0.87805800  0.83717400  0.76085900  1
  Cl  Cl2  1  0.27136700  0.41470600  0.56336200  1
  Cl  Cl3  1  0.72862300  0.58530000  0.43666200  1
  Cl  Cl4  1  0.96737400  0.79364400  0.03697900  1
  Cl  Cl5  1  0.03216700  0.20933900  0.96339000  1
  Cl  Cl6  1  0.95578100  0.17653500  0.43018800  1
  Cl  Cl7  1  0.04410000  0.82351200  0.56990900  1
  Cl  Cl8  1  0.52314800  0.42589800  0.85990500  1
  Cl  Cl9  1  0.47711400  0.57365300  0.14039300  1
  Cl  Cl10  1  0.94252000  0.59746400  0.18113100  1
  Cl  Cl11  1  0.05626100  0.40398900  0.82713400  1
  Cl  Cl12  1  0.15006900  0.93004200  0.38592100  1
  Cl  Cl13  1  0.84974300  0.06935800  0.61400400  1
  Cl  Cl14  1  0.75154600  0.27642200  0.88440800  1
  Cl  Cl15  1  0.24780600  0.72288000  0.11588900  1
  Cl  Cl16  1  0.73054100  0.46544400  0.72164600  1
  Cl  Cl17  1  0.26628900  0.53408500  0.27460200  1
  Cl  Cl18  1  0.97883900  0.39290200  0.31467700  1
  Cl  Cl19  1  0.02136500  0.60697700  0.68517900  1
  Cl  Cl20  1  0.48512700  0.15911700  0.57609900  1
  Cl  Cl21  1  0.51537600  0.84093000  0.42501900  1
  Cl  Cl22  1  0.79152500  0.81898100  0.20947400  1
  Cl  Cl23  1  0.20862100  0.18006500  0.79033000  1
loop_
_geom_bond_atom_site_label_1
_geom_bond_atom_site_label_2
_geom_bond_distance
_geom_bond_site_symmetry_2
Ag0 Cl11 2.569956 1_554
Ag0 Cl10 2.579700 1_455
Ag0 Cl14 3.019813 1_454
Ag0 Cl17 3.125630 1_555
Ag0 Cl5 3.146203 1_554
Ag0 Cl15 3.180555 1_555
Sb0 Te4 2.886336 1_556
Sb0 Te7 2.930958 1_555
Sb0 Te2 2.978154 1_555
Sb1 Te5 2.883781 1_554
Sb1 Te6 2.918435 1_555
Sb1 Te3 2.971955 1_555
Sb2 Te4 3.055467 1_556
Sb2 Te5 3.060395 1_565
Sb2 Te7 3.062577 1_555
Sb2 Te6 3.068820 1_566
Sb2 Te1 3.070582 1_566
Sb2 Te0 3.071860 1_555
Sb3 Te0 2.892867 1_555
Sb3 Te2 2.904772 1_555
Sb3 Te4 2.907057 1_556
Sb4 Te1 2.894975 1_555
Sb4 Te3 2.907933 1_555
Sb4 Te5 2.908452 1_554
Sb5 Te7 2.883757 1_555
Sb5 Te0 2.915172 1_555
Sb5 Te2 2.915420 1_555
Sb6 Te6 2.886372 1_555
Sb6 Te3 2.911829 1_555
Sb6 Te1 2.916740 1_555
Cl0 Ga4 2.217019 1_555
Cl1 Ga5 2.218585 1_555
Cl2 Ga4 2.221855 1_555
Cl3 Ga5 2.223579 1_555
Cl4 Ga0 2.202793 1_555
Cl5 Ga1 2.225204 1_555
Cl6 Ga4 2.184245 1_655
Cl7 Ga5 2.184376 1_455
Cl8 Ga2 2.189773 1_555
Cl9 Ga3 2.184848 1_555
Cl10 Ga0 2.239550 1_555
Cl11 Ga1 2.230007 1_555
Cl12 Ga0 2.172067 1_455
Cl13 Ga1 2.166698 1_655
Cl14 Ga2 2.235388 1_555
Cl15 Ga3 2.220503 1_555
Cl16 Ga2 2.188224 1_555
Cl17 Ga3 2.210198 1_555
Cl18 Ga4 2.199756 1_655
Cl19 Ga5 2.197745 1_455
Cl20 Ga2 2.214521 1_555
Cl21 Ga3 2.207156 1_555
Cl22 Ga0 2.230316 1_555
Cl22 Sb0 3.167239 1_554
Cl23 Ga1 2.219221 1_555
Cl23 Sb1 3.177238 1_556
