# generated using pymatgen
data_MgV(GeO3)2
_symmetry_space_group_name_H-M   'P 1'
_cell_length_a   9.20109100
_cell_length_b   5.49099400
_cell_length_c   9.90024710
_cell_angle_alpha   75.80765742
_cell_angle_beta   90.00000000
_cell_angle_gamma   90.00000000
_symmetry_Int_Tables_number   1
_chemical_formula_structural   MgV(GeO3)2
_chemical_formula_sum   'Mg4 V4 Ge8 O24'
_cell_volume   484.92474247
_cell_formula_units_Z   4
loop_
 _symmetry_equiv_pos_site_id
 _symmetry_equiv_pos_as_xyz
  1  'x, y, z'
loop_
 _atom_site_type_symbol
 _atom_site_label
 _atom_site_symmetry_multiplicity
 _atom_site_fract_x
 _atom_site_fract_y
 _atom_site_fract_z
 _atom_site_occupancy
  Mg  Mg0  1  0.48679200  0.55511300  0.24403400  1
  Mg  Mg1  1  0.98679200  0.94488700  0.75596600  1
  Mg  Mg2  1  0.51320800  0.44488700  0.75596600  1
  Mg  Mg3  1  0.01320800  0.05511300  0.24403400  1
  V  V0  1  0.65729200  0.04349700  0.24494300  1
  V  V1  1  0.15729200  0.45650300  0.75505700  1
  V  V2  1  0.34270800  0.95650300  0.75505700  1
  V  V3  1  0.84270800  0.54349700  0.24494300  1
  Ge  Ge0  1  0.33791300  0.17383300  0.05802200  1
  Ge  Ge1  1  0.83791300  0.32616700  0.94197800  1
  Ge  Ge2  1  0.66208700  0.82616700  0.94197800  1
  Ge  Ge3  1  0.16208700  0.67383300  0.05802200  1
  Ge  Ge4  1  0.34296800  0.75383500  0.45761400  1
  Ge  Ge5  1  0.84296800  0.74616500  0.54238600  1
  Ge  Ge6  1  0.65703200  0.24616500  0.54238600  1
  Ge  Ge7  1  0.15703200  0.25383500  0.45761400  1
  O  O0  1  0.28789400  0.49362400  0.38534400  1
  O  O1  1  0.78789400  0.00637600  0.61465600  1
  O  O2  1  0.71210600  0.50637600  0.61465600  1
  O  O3  1  0.21210600  0.99362400  0.38534400  1
  O  O4  1  0.32343800  0.82854600  0.10970000  1
  O  O5  1  0.82343800  0.67145400  0.89030000  1
  O  O6  1  0.67656200  0.17145400  0.89030000  1
  O  O7  1  0.17656200  0.32854600  0.10970000  1
  O  O8  1  0.98979000  0.29726400  0.37442200  1
  O  O9  1  0.48979000  0.20273600  0.62557800  1
  O  O10  1  0.01021000  0.70273600  0.62557800  1
  O  O11  1  0.51021000  0.79726400  0.37442200  1
  O  O12  1  0.01848400  0.77644700  0.14228100  1
  O  O13  1  0.51848400  0.72355300  0.85771900  1
  O  O14  1  0.98151600  0.22355300  0.85771900  1
  O  O15  1  0.48151600  0.27644700  0.14228100  1
  O  O16  1  0.34159200  0.24722800  0.87367800  1
  O  O17  1  0.84159200  0.25277200  0.12632200  1
  O  O18  1  0.65840800  0.75277200  0.12632200  1
  O  O19  1  0.15840800  0.74722800  0.87367800  1
  O  O20  1  0.34328200  0.67055600  0.64081200  1
  O  O21  1  0.84328200  0.82944400  0.35918800  1
  O  O22  1  0.65671800  0.32944400  0.35918800  1
  O  O23  1  0.15671800  0.17055600  0.64081200  1
loop_
_geom_bond_atom_site_label_1
_geom_bond_atom_site_label_2
_geom_bond_distance
_geom_bond_site_symmetry_2
Mg0 O15 2.028398 1_555
Mg0 O11 2.079039 1_555
Mg0 O18 2.099826 1_555
Mg0 O22 2.141736 1_555
Mg0 O0 2.277889 1_555
Mg0 O4 2.302818 1_555
Mg1 O14 2.028398 1_565
Mg1 O10 2.079039 1_655
Mg1 O19 2.099826 1_655
Mg1 O23 2.141736 1_665
Mg1 O1 2.277889 1_565
Mg1 O5 2.302818 1_555
Mg2 O13 2.028398 1_555
Mg2 O9 2.079039 1_555
Mg2 O16 2.099826 1_555
Mg2 O20 2.141736 1_555
Mg2 O2 2.277889 1_555
Mg2 O6 2.302818 1_555
Mg3 O12 2.028398 1_545
Mg3 O8 2.079039 1_455
Mg3 O17 2.099826 1_455
Mg3 O21 2.141736 1_445
Mg3 O3 2.277889 1_545
Mg3 O7 2.302818 1_555
Ge0 O15 1.729065 1_555
Ge0 O16 1.770229 1_554
Ge0 O4 1.843513 1_545
Ge0 O7 1.844082 1_555
Ge1 O14 1.729065 1_555
Ge1 O17 1.770229 1_556
Ge1 O5 1.843513 1_555
Ge1 O6 1.844082 1_555
Ge2 O13 1.729065 1_555
Ge2 O18 1.770229 1_556
Ge2 O6 1.843513 1_565
Ge2 O5 1.844082 1_555
Ge3 O12 1.729065 1_555
Ge3 O19 1.770229 1_554
Ge3 O7 1.843513 1_555
Ge3 O4 1.844082 1_555
Ge4 O11 1.734025 1_555
Ge4 O20 1.758395 1_555
Ge4 O3 1.798170 1_555
Ge4 O0 1.819760 1_555
Ge5 O10 1.734025 1_655
Ge5 O21 1.758395 1_555
Ge5 O2 1.798170 1_555
Ge5 O1 1.819760 1_565
Ge6 O9 1.734025 1_555
Ge6 O22 1.758395 1_555
Ge6 O1 1.798170 1_555
Ge6 O2 1.819760 1_555
Ge7 O8 1.734025 1_455
Ge7 O23 1.758395 1_555
Ge7 O0 1.798170 1_555
Ge7 O3 1.819760 1_545
O8 V3 2.110182 1_555
O9 V2 2.110182 1_545
O10 V1 2.110182 1_555
O11 V0 2.110182 1_565
O12 V3 2.155795 1_455
O13 V2 2.155795 1_555
O14 V1 2.155795 1_655
O15 V0 2.155795 1_555
O16 V2 2.201579 1_545
O16 V1 2.216647 1_555
O17 V3 2.201579 1_555
O17 V0 2.216647 1_555
O18 V0 2.201579 1_565
O18 V3 2.216647 1_555
O19 V1 2.201579 1_555
O19 V2 2.216647 1_555
O20 V2 2.148361 1_555
O20 V1 2.222042 1_555
O21 V3 2.148361 1_555
O21 V0 2.222042 1_565
O22 V0 2.148361 1_555
O22 V3 2.222042 1_555
O23 V1 2.148361 1_555
O23 V2 2.222042 1_545
