# generated using pymatgen
data_KGd2Cl7
_symmetry_space_group_name_H-M   'P 1'
_cell_length_a   12.75745695
_cell_length_b   6.98446060
_cell_length_c   12.88930568
_cell_angle_alpha   91.27647944
_cell_angle_beta   90.00000000
_cell_angle_gamma   90.00000000
_symmetry_Int_Tables_number   1
_chemical_formula_structural   KGd2Cl7
_chemical_formula_sum   'K4 Gd8 Cl28'
_cell_volume   1148.20310817
_cell_formula_units_Z   4
loop_
 _symmetry_equiv_pos_site_id
 _symmetry_equiv_pos_as_xyz
  1  'x, y, z'
loop_
 _atom_site_type_symbol
 _atom_site_label
 _atom_site_symmetry_multiplicity
 _atom_site_fract_x
 _atom_site_fract_y
 _atom_site_fract_z
 _atom_site_occupancy
  K  K0  1  0.20887822  0.79368942  0.03424515  1
  K  K1  1  0.79112178  0.20631058  0.96575485  1
  K  K2  1  0.70887822  0.20631058  0.46575485  1
  K  K3  1  0.29112178  0.79368942  0.53424515  1
  Gd  Gd0  1  0.53559145  0.77704034  0.23730041  1
  Gd  Gd1  1  0.46440855  0.22295966  0.76269959  1
  Gd  Gd2  1  0.03559145  0.22295966  0.26269959  1
  Gd  Gd3  1  0.96440855  0.77704034  0.73730041  1
  Gd  Gd4  1  0.83862972  0.71957081  0.24600998  1
  Gd  Gd5  1  0.16137028  0.28042919  0.75399002  1
  Gd  Gd6  1  0.33862972  0.28042919  0.25399002  1
  Gd  Gd7  1  0.66137028  0.71957081  0.74600998  1
  Cl  Cl0  1  0.97432502  0.93252331  0.12943810  1
  Cl  Cl1  1  0.02567498  0.06747669  0.87056190  1
  Cl  Cl2  1  0.47432502  0.06747669  0.37056190  1
  Cl  Cl3  1  0.52567498  0.93252331  0.62943810  1
  Cl  Cl4  1  0.68432743  0.75030646  0.39575633  1
  Cl  Cl5  1  0.31567257  0.24969354  0.60424367  1
  Cl  Cl6  1  0.18432743  0.24969354  0.10424367  1
  Cl  Cl7  1  0.81567257  0.75030646  0.89575633  1
  Cl  Cl8  1  0.67448410  0.50796971  0.16835677  1
  Cl  Cl9  1  0.32551590  0.49203029  0.83164323  1
  Cl  Cl10  1  0.17448410  0.49203029  0.33164323  1
  Cl  Cl11  1  0.82551590  0.50796971  0.66835677  1
  Cl  Cl12  1  0.92468164  0.97781241  0.38294321  1
  Cl  Cl13  1  0.07531836  0.02218759  0.61705679  1
  Cl  Cl14  1  0.42468164  0.02218759  0.11705679  1
  Cl  Cl15  1  0.57531836  0.97781241  0.88294321  1
  Cl  Cl16  1  0.93777102  0.44831327  0.12366825  1
  Cl  Cl17  1  0.06222898  0.55168673  0.87633175  1
  Cl  Cl18  1  0.43777102  0.55168673  0.37633175  1
  Cl  Cl19  1  0.56222898  0.44831327  0.62366825  1
  Cl  Cl20  1  0.70332066  -0.00465674  0.17448513  1
  Cl  Cl21  1  0.29667934  0.00465674  0.82551487  1
  Cl  Cl22  1  0.20332066  0.00465674  0.32551487  1
  Cl  Cl23  1  0.79667934  -0.00465674  0.67448513  1
  Cl  Cl24  1  0.90688348  0.45625639  0.38147839  1
  Cl  Cl25  1  0.09311652  0.54374361  0.61852161  1
  Cl  Cl26  1  0.40688348  0.54374361  0.11852161  1
  Cl  Cl27  1  0.59311652  0.45625639  0.88147839  1
loop_
_geom_bond_atom_site_label_1
_geom_bond_atom_site_label_2
_geom_bond_distance
_geom_bond_site_symmetry_2
Cl0 Gd2 2.742437 1_665
Cl0 Gd4 2.750673 1_555
Cl0 K0 3.368472 1_655
Cl0 K1 3.708115 1_564
Cl1 Gd3 2.742437 1_445
Cl1 Gd5 2.750673 1_555
Cl1 K1 3.368472 1_455
Cl1 K0 3.708115 1_546
Cl2 Gd0 2.742437 1_545
Cl2 Gd6 2.750673 1_555
Cl2 K2 3.368472 1_555
Cl2 K3 3.708115 1_545
Cl3 Gd1 2.742437 1_565
Cl3 Gd7 2.750673 1_555
Cl3 K3 3.368472 1_555
Cl3 K2 3.708115 1_565
Cl4 Gd4 2.761888 1_555
Cl4 Gd0 2.797084 1_555
Cl4 K2 3.305746 1_565
Cl5 Gd5 2.761888 1_555
Cl5 Gd1 2.797084 1_555
Cl5 K3 3.305746 1_545
Cl6 Gd6 2.761888 1_555
Cl6 Gd2 2.797084 1_555
Cl6 K0 3.305746 1_545
Cl7 Gd7 2.761888 1_555
Cl7 Gd3 2.797084 1_555
Cl7 K1 3.305746 1_565
Cl8 Gd0 2.717862 1_555
Cl8 Gd4 2.739582 1_555
Cl8 K1 3.636969 1_554
Cl9 Gd1 2.717862 1_555
Cl9 Gd5 2.739582 1_555
Cl9 K0 3.636969 1_556
Cl10 Gd2 2.717862 1_555
Cl10 Gd6 2.739582 1_555
Cl10 K3 3.636969 1_555
Cl11 Gd3 2.717862 1_555
Cl11 Gd7 2.739582 1_555
Cl11 K2 3.636969 1_555
Cl12 Gd4 2.726120 1_555
Cl12 Gd2 2.730203 1_665
Cl12 K2 3.345146 1_565
Cl13 Gd5 2.726120 1_555
Cl13 Gd3 2.730203 1_445
Cl13 K3 3.345146 1_545
Cl14 Gd6 2.726120 1_555
Cl14 Gd0 2.730203 1_545
Cl14 K0 3.345146 1_545
Cl15 Gd7 2.726120 1_555
Cl15 Gd1 2.730203 1_565
Cl15 K1 3.345146 1_565
Cl16 Gd2 2.715095 1_655
Cl16 Gd4 2.746391 1_555
Cl16 K1 3.216626 1_554
Cl17 Gd3 2.715095 1_455
Cl17 Gd5 2.746391 1_555
Cl17 K0 3.216626 1_556
Cl18 Gd0 2.715095 1_555
Cl18 Gd6 2.746391 1_555
Cl18 K3 3.216626 1_555
Cl19 Gd1 2.715095 1_555
Cl19 Gd7 2.746391 1_555
Cl19 K2 3.216626 1_555
Cl20 Gd0 2.759358 1_545
Cl20 Gd4 2.760206 1_545
Cl20 K1 3.292516 1_554
Cl21 Gd1 2.759358 1_555
Cl21 Gd5 2.760206 1_555
Cl21 K0 3.292516 1_546
Cl22 Gd2 2.759358 1_555
Cl22 Gd6 2.760206 1_555
Cl22 K3 3.292516 1_545
Cl23 Gd3 2.759358 1_545
Cl23 Gd7 2.760206 1_545
Cl23 K2 3.292516 1_555
Cl24 Gd4 2.707847 1_555
Cl24 Gd2 2.753902 1_655
Cl24 K2 3.270008 1_555
Cl25 Gd5 2.707847 1_555
Cl25 Gd3 2.753902 1_455
Cl25 K3 3.270008 1_555
Cl26 Gd6 2.707847 1_555
Cl26 Gd0 2.753902 1_555
Cl26 K0 3.270008 1_555
Cl27 Gd7 2.707847 1_555
Cl27 Gd1 2.753902 1_555
Cl27 K1 3.270008 1_555
