# generated using pymatgen
data_KHfMg14O15
_symmetry_space_group_name_H-M   'P 1'
_cell_length_a   8.60185987
_cell_length_b   8.80822931
_cell_length_c   4.43683591
_cell_angle_alpha   90.00000000
_cell_angle_beta   90.00000000
_cell_angle_gamma   90.00000000
_symmetry_Int_Tables_number   1
_chemical_formula_structural   KHfMg14O15
_chemical_formula_sum   'K1 Hf1 Mg14 O15'
_cell_volume   336.16643067
_cell_formula_units_Z   1
loop_
 _symmetry_equiv_pos_site_id
 _symmetry_equiv_pos_as_xyz
  1  'x, y, z'
loop_
 _atom_site_type_symbol
 _atom_site_label
 _atom_site_symmetry_multiplicity
 _atom_site_fract_x
 _atom_site_fract_y
 _atom_site_fract_z
 _atom_site_occupancy
  K  K0  1  0.01773074  0.00000000  -0.00000000  1
  Hf  Hf0  1  0.50349411  0.50000000  -0.00000000  1
  Mg  Mg0  1  0.99724334  0.50000000  -0.00000000  1
  Mg  Mg1  1  0.49216416  0.00000000  -0.00000000  1
  Mg  Mg2  1  0.99921024  0.24951199  0.50000000  1
  Mg  Mg3  1  0.99921024  0.75048801  0.50000000  1
  Mg  Mg4  1  0.50073281  0.23911172  0.50000000  1
  Mg  Mg5  1  0.50073281  0.76088828  0.50000000  1
  Mg  Mg6  1  0.25172715  0.00000000  0.50000000  1
  Mg  Mg7  1  0.24003017  0.50000000  0.50000000  1
  Mg  Mg8  1  0.75259765  0.00000000  0.50000000  1
  Mg  Mg9  1  0.76012423  0.50000000  0.50000000  1
  Mg  Mg10  1  0.24413603  0.25422535  -0.00000000  1
  Mg  Mg11  1  0.24413603  0.74577465  0.00000000  1
  Mg  Mg12  1  0.75754620  0.23955378  0.00000000  1
  Mg  Mg13  1  0.75754620  0.76044622  0.00000000  1
  O  O0  1  0.25423676  0.50000000  -0.00000000  1
  O  O1  1  0.72593922  0.00000000  -0.00000000  1
  O  O2  1  0.74816839  0.50000000  -0.00000000  1
  O  O3  1  0.25126000  0.25579570  0.50000000  1
  O  O4  1  0.25126000  0.74420430  0.50000000  1
  O  O5  1  0.74876246  0.25129694  0.50000000  1
  O  O6  1  0.74876246  0.74870306  0.50000000  1
  O  O7  1  0.99591178  0.00000000  0.50000000  1
  O  O8  1  0.99961519  0.50000000  0.50000000  1
  O  O9  1  0.50149836  0.00000000  0.50000000  1
  O  O10  1  0.50199400  0.50000000  0.50000000  1
  O  O11  1  0.99937561  0.27557766  -0.00000000  1
  O  O12  1  0.99937561  0.72442234  -0.00000000  1
  O  O13  1  0.50273903  0.25750215  -0.00000000  1
  O  O14  1  0.50273903  0.74249785  -0.00000000  1
loop_
_geom_bond_atom_site_label_1
_geom_bond_atom_site_label_2
_geom_bond_distance
_geom_bond_site_symmetry_2
K0 O7 2.226343 1_454
K0 O7 2.226343 1_455
K0 O12 2.432481 1_445
K0 O11 2.432481 1_455
K0 O1 2.509950 1_455
Hf0 O2 2.104654 1_555
Hf0 O14 2.135987 1_555
Hf0 O13 2.135987 1_555
Hf0 O0 2.144077 1_555
Hf0 O10 2.218455 1_555
Hf0 O10 2.218455 1_554
Mg0 O11 1.976849 1_555
Mg0 O12 1.976849 1_555
Mg0 O2 2.142508 1_555
Mg0 O0 2.210621 1_655
Mg0 O8 2.218512 1_554
Mg0 O8 2.218512 1_555
Mg1 O1 2.010900 1_555
Mg1 O9 2.219870 1_554
Mg1 O9 2.219870 1_555
Mg1 O14 2.269961 1_545
Mg1 O13 2.269961 1_555
Mg2 O5 2.154374 1_555
Mg2 O3 2.168803 1_655
Mg2 O7 2.197942 1_555
Mg2 O8 2.206359 1_555
Mg2 O11 2.230267 1_556
Mg2 O11 2.230267 1_555
Mg3 O6 2.154374 1_555
Mg3 O4 2.168803 1_655
Mg3 O7 2.197942 1_565
Mg3 O8 2.206359 1_555
Mg3 O12 2.230267 1_556
Mg3 O12 2.230267 1_555
Mg4 O9 2.106161 1_555
Mg4 O5 2.136214 1_555
Mg4 O3 2.150956 1_555
Mg4 O13 2.224391 1_555
Mg4 O13 2.224391 1_556
Mg4 O10 2.297989 1_555
Mg5 O9 2.106161 1_565
Mg5 O6 2.136214 1_555
Mg5 O4 2.150956 1_555
Mg5 O14 2.224391 1_556
Mg5 O14 2.224391 1_555
Mg5 O10 2.297989 1_555
Mg6 O9 2.148497 1_555
Mg6 O7 2.200488 1_455
Mg6 O4 2.253111 1_545
Mg6 O3 2.253111 1_555
Mg7 O8 2.068016 1_455
Mg7 O3 2.153175 1_555
Mg7 O4 2.153175 1_555
Mg7 O0 2.221781 1_555
Mg7 O0 2.221781 1_556
Mg7 O10 2.253376 1_555
Mg8 O7 2.092954 1_555
Mg8 O9 2.159921 1_555
Mg8 O6 2.213727 1_545
Mg8 O5 2.213727 1_555
Mg8 O1 2.230238 1_556
Mg8 O1 2.230238 1_555
Mg9 O8 2.060068 1_555
Mg9 O6 2.192813 1_555
Mg9 O5 2.192813 1_555
Mg9 O10 2.220400 1_555
Mg9 O2 2.220800 1_556
Mg9 O2 2.220800 1_555
Mg10 O11 2.113779 1_455
Mg10 O0 2.166582 1_555
Mg10 O3 2.219307 1_555
Mg10 O3 2.219307 1_554
Mg10 O13 2.224654 1_555
Mg11 O12 2.113779 1_455
Mg11 O0 2.166582 1_555
Mg11 O4 2.219307 1_554
Mg11 O4 2.219307 1_555
Mg11 O14 2.224654 1_555
Mg12 O11 2.104244 1_555
Mg12 O1 2.127488 1_555
Mg12 O13 2.197510 1_555
Mg12 O5 2.222113 1_555
Mg12 O5 2.222113 1_554
Mg12 O2 2.295488 1_555
Mg13 O12 2.104244 1_555
Mg13 O1 2.127488 1_565
Mg13 O14 2.197510 1_555
Mg13 O6 2.222113 1_555
Mg13 O6 2.222113 1_554
Mg13 O2 2.295488 1_555
