# generated using pymatgen
data_Y5BiPt2
_symmetry_space_group_name_H-M   'P 1'
_cell_length_a   8.83833300
_cell_length_b   8.83833300
_cell_length_c   8.83833300
_cell_angle_alpha   127.57221782
_cell_angle_beta   127.57221782
_cell_angle_gamma   77.31905027
_symmetry_Int_Tables_number   1
_chemical_formula_structural   Y5BiPt2
_chemical_formula_sum   'Y10 Bi2 Pt4'
_cell_volume   420.77664880
_cell_formula_units_Z   2
loop_
 _symmetry_equiv_pos_site_id
 _symmetry_equiv_pos_as_xyz
  1  'x, y, z'
loop_
 _atom_site_type_symbol
 _atom_site_label
 _atom_site_symmetry_multiplicity
 _atom_site_fract_x
 _atom_site_fract_y
 _atom_site_fract_z
 _atom_site_occupancy
  Y  Y0  1  0.00000000  -0.00000000  0.00000000  1
  Y  Y1  1  0.50000000  0.50000000  0.00000000  1
  Y  Y2  1  0.79193334  0.29193334  0.81151424  1
  Y  Y3  1  0.20806666  0.70806666  0.18848576  1
  Y  Y4  1  0.48042010  0.98042010  0.18848576  1
  Y  Y5  1  0.29193334  0.48042010  0.50000000  1
  Y  Y6  1  0.01957990  0.20806666  0.50000000  1
  Y  Y7  1  0.51957990  0.01957990  0.81151424  1
  Y  Y8  1  0.70806666  0.51957990  0.50000000  1
  Y  Y9  1  0.98042010  0.79193334  0.50000000  1
  Bi  Bi0  1  0.25000000  0.25000000  0.00000000  1
  Bi  Bi1  1  0.75000000  0.75000000  0.00000000  1
  Pt  Pt0  1  0.13945537  0.63945537  0.77891274  1
  Pt  Pt1  1  0.86054463  0.36054463  0.22108726  1
  Pt  Pt2  1  0.63945537  0.86054463  0.50000000  1
  Pt  Pt3  1  0.36054463  0.13945537  0.50000000  1
loop_
_geom_bond_atom_site_label_1
_geom_bond_atom_site_label_2
_geom_bond_distance
_geom_bond_site_symmetry_2
Y0 Y2 3.498164 1_454
Y0 Y3 3.498164 1_545
Y0 Y5 3.498169 1_555
Y0 Y9 3.498169 1_444
Y0 Y6 3.498169 1_555
Y0 Y8 3.498169 1_444
Y0 Y4 3.498171 1_545
Y0 Y7 3.498171 1_454
Y1 Y3 3.498164 1_555
Y1 Y2 3.498164 1_554
Y1 Y5 3.498169 1_554
Y1 Y9 3.498169 1_555
Y1 Y6 3.498169 1_554
Y1 Y8 3.498169 1_555
Y1 Y4 3.498171 1_555
Y1 Y7 3.498171 1_554
Bi0 Y7 3.342515 1_554
Bi0 Y4 3.342515 1_545
Bi0 Y8 3.342520 1_555
Bi0 Y6 3.342520 1_554
Bi0 Y9 3.342520 1_444
Bi0 Y5 3.342520 1_555
Bi0 Y2 3.342522 1_454
Bi0 Y3 3.342522 1_555
Bi0 Y1 3.450803 1_555
Bi0 Y0 3.450803 1_555
Bi1 Y7 3.342515 1_564
Bi1 Y4 3.342515 1_555
Bi1 Y8 3.342520 1_554
Bi1 Y6 3.342520 1_665
Bi1 Y9 3.342520 1_555
Bi1 Y5 3.342520 1_554
Bi1 Y3 3.342522 1_655
Bi1 Y2 3.342522 1_554
Bi1 Y1 3.450803 1_555
Bi1 Y0 3.450803 1_665
Pt0 Y3 2.940543 1_556
Pt0 Y4 2.940569 1_556
Pt0 Y8 2.977033 1_455
Pt0 Y6 2.977033 1_555
Pt0 Y5 2.977051 1_555
Pt0 Y9 2.977051 1_455
Pt0 Y0 3.018449 1_566
Pt0 Y1 3.018449 1_556
Pt0 Pt1 3.079882 1_455
Pt1 Y2 2.940543 1_554
Pt1 Y7 2.940569 1_554
Pt1 Y5 2.977033 1_655
Pt1 Y9 2.977033 1_555
Pt1 Y6 2.977051 1_655
Pt1 Y8 2.977051 1_555
Pt1 Y0 3.018449 1_655
Pt1 Y1 3.018449 1_555
Pt2 Y9 2.940569 1_555
Pt2 Y8 2.940569 1_555
Pt2 Y2 2.977035 1_565
Pt2 Y3 2.977035 1_555
Pt2 Y4 2.977044 1_555
Pt2 Y7 2.977044 1_565
Pt2 Y0 3.018454 1_666
Pt2 Y1 3.018454 1_555
Pt2 Pt3 3.079860 1_565
Pt3 Y5 2.940569 1_555
Pt3 Y6 2.940569 1_555
Pt3 Y3 2.977035 1_545
Pt3 Y2 2.977035 1_555
Pt3 Y4 2.977044 1_545
Pt3 Y7 2.977044 1_555
Pt3 Y1 3.018454 1_556
Pt3 Y0 3.018454 1_555
