# generated using pymatgen
data_Na2Ho2B2TeO10
_symmetry_space_group_name_H-M   'P 1'
_cell_length_a   10.01171400
_cell_length_b   6.34935700
_cell_length_c   6.77806096
_cell_angle_alpha   75.93207505
_cell_angle_beta   90.00000000
_cell_angle_gamma   90.00000000
_symmetry_Int_Tables_number   1
_chemical_formula_structural   Na2Ho2B2TeO10
_chemical_formula_sum   'Na4 Ho4 B4 Te2 O20'
_cell_volume   417.94494458
_cell_formula_units_Z   2
loop_
 _symmetry_equiv_pos_site_id
 _symmetry_equiv_pos_as_xyz
  1  'x, y, z'
loop_
 _atom_site_type_symbol
 _atom_site_label
 _atom_site_symmetry_multiplicity
 _atom_site_fract_x
 _atom_site_fract_y
 _atom_site_fract_z
 _atom_site_occupancy
  Na  Na0  1  0.61111300  0.41531900  0.16643400  1
  Na  Na1  1  0.11111300  0.58468100  0.33356600  1
  Na  Na2  1  0.38888700  0.58468100  0.83356600  1
  Na  Na3  1  0.88888700  0.41531900  0.66643400  1
  Ho  Ho0  1  0.83403700  0.87246800  0.02308500  1
  Ho  Ho1  1  0.33403700  0.12753200  0.47691500  1
  Ho  Ho2  1  0.16596300  0.12753200  0.97691500  1
  Ho  Ho3  1  0.66596300  0.87246800  0.52308500  1
  B  B0  1  0.40009300  0.66395200  0.37266000  1
  B  B1  1  0.90009300  0.33604800  0.12734000  1
  B  B2  1  0.59990700  0.33604800  0.62734000  1
  B  B3  1  0.09990700  0.66395200  0.87266000  1
  Te  Te0  1  0.50000000  0.00000000  0.00000000  1
  Te  Te1  1  0.00000000  0.00000000  0.50000000  1
  O  O0  1  0.82737400  0.51871300  0.05599200  1
  O  O1  1  0.32737400  0.48128700  0.44400800  1
  O  O2  1  0.17262600  0.48128700  0.94400800  1
  O  O3  1  0.67262600  0.51871300  0.55599200  1
  O  O4  1  0.65123500  0.00414900  0.17772700  1
  O  O5  1  0.15123500  0.99585100  0.32227300  1
  O  O6  1  0.34876500  0.99585100  0.82227300  1
  O  O7  1  0.84876500  0.00414900  0.67772700  1
  O  O8  1  0.43830100  0.70891200  0.16403200  1
  O  O9  1  0.93830100  0.29108800  0.33596800  1
  O  O10  1  0.56169900  0.29108800  0.83596800  1
  O  O11  1  0.06169900  0.70891200  0.66403200  1
  O  O12  1  0.93861300  0.19843900  0.00887400  1
  O  O13  1  0.43861300  0.80156100  0.49112600  1
  O  O14  1  0.06138700  0.80156100  0.99112600  1
  O  O15  1  0.56138700  0.19843900  0.50887400  1
  O  O16  1  0.38369100  0.16170200  0.13637800  1
  O  O17  1  0.88369100  0.83829800  0.36362200  1
  O  O18  1  0.61630900  0.83829800  0.86362200  1
  O  O19  1  0.11630900  0.16170200  0.63637800  1
loop_
_geom_bond_atom_site_label_1
_geom_bond_atom_site_label_2
_geom_bond_distance
_geom_bond_site_symmetry_2
Na0 O0 2.332442 1_555
Na0 O15 2.444931 1_555
Na0 O8 2.540449 1_555
Na0 O10 2.596747 1_554
Na0 O4 2.624050 1_555
Na0 O16 2.824583 1_555
Na0 O3 2.936818 1_555
Na0 O18 2.957757 1_554
Na1 O1 2.332442 1_555
Na1 O14 2.444931 1_554
Na1 O9 2.540449 1_455
Na1 O11 2.596747 1_555
Na1 O5 2.624050 1_555
Na1 O17 2.824583 1_455
Na1 O2 2.936818 1_554
Na1 O19 2.957757 1_555
Na2 O2 2.332442 1_555
Na2 O13 2.444931 1_555
Na2 O10 2.540449 1_555
Na2 O8 2.596747 1_556
Na2 O6 2.624050 1_555
Na2 O18 2.824583 1_555
Na2 O1 2.936818 1_555
Na2 O16 2.957757 1_556
Na3 O3 2.332442 1_555
Na3 O12 2.444931 1_556
Na3 O11 2.540449 1_655
Na3 O9 2.596747 1_555
Na3 O7 2.624050 1_555
Na3 O19 2.824583 1_655
Na3 O0 2.936818 1_556
Na3 O17 2.957757 1_555
Ho0 O0 2.203563 1_555
Ho0 O7 2.291056 1_564
Ho0 O12 2.300483 1_565
Ho0 O17 2.319148 1_555
Ho0 O14 2.340501 1_654
Ho0 O4 2.360772 1_565
Ho0 O18 2.465962 1_554
Ho1 O1 2.203563 1_555
Ho1 O6 2.291056 1_545
Ho1 O13 2.300483 1_545
Ho1 O16 2.319148 1_555
Ho1 O15 2.340501 1_555
Ho1 O5 2.360772 1_545
Ho1 O19 2.465962 1_555
Ho2 O2 2.203563 1_555
Ho2 O5 2.291056 1_546
Ho2 O14 2.300483 1_545
Ho2 O19 2.319148 1_555
Ho2 O12 2.340501 1_456
Ho2 O6 2.360772 1_545
Ho2 O16 2.465962 1_556
Ho3 O3 2.203563 1_555
Ho3 O4 2.291056 1_565
Ho3 O15 2.300483 1_565
Ho3 O18 2.319148 1_555
Ho3 O13 2.340501 1_555
Ho3 O7 2.360772 1_565
Ho3 O17 2.465962 1_555
B0 O1 1.355136 1_555
B0 O13 1.377664 1_555
B0 O8 1.425213 1_555
B1 O0 1.355136 1_555
B1 O12 1.377664 1_555
B1 O9 1.425213 1_555
B2 O3 1.355136 1_555
B2 O15 1.377664 1_555
B2 O10 1.425213 1_555
B3 O2 1.355136 1_555
B3 O14 1.377664 1_555
B3 O11 1.425213 1_555
O4 Te0 1.939034 1_555
O5 Te1 1.939034 1_565
O6 Te0 1.939034 1_566
O7 Te1 1.939034 1_655
O8 Te0 2.008647 1_565
O9 Te1 2.008647 1_655
O10 Te0 2.008647 1_556
O11 Te1 2.008647 1_565
O16 Te0 1.930266 1_555
O17 Te1 1.930266 1_665
O18 Te0 1.930266 1_566
O19 Te1 1.930266 1_555
