# generated using pymatgen
data_TmB7Mo3
_symmetry_space_group_name_H-M   'P 1'
_cell_length_a   3.08813249
_cell_length_b   10.99675814
_cell_length_c   12.78059471
_cell_angle_alpha   90.00000000
_cell_angle_beta   90.00000000
_cell_angle_gamma   90.00000000
_symmetry_Int_Tables_number   1
_chemical_formula_structural   TmB7Mo3
_chemical_formula_sum   'Tm4 B28 Mo12'
_cell_volume   434.02191714
_cell_formula_units_Z   4
loop_
 _symmetry_equiv_pos_site_id
 _symmetry_equiv_pos_as_xyz
  1  'x, y, z'
loop_
 _atom_site_type_symbol
 _atom_site_label
 _atom_site_symmetry_multiplicity
 _atom_site_fract_x
 _atom_site_fract_y
 _atom_site_fract_z
 _atom_site_occupancy
  Tm  Tm0  1  0.75000000  0.55220318  0.30825381  1
  Tm  Tm1  1  0.25000000  0.44779682  0.69174619  1
  Tm  Tm2  1  0.25000000  0.94779682  0.80825381  1
  Tm  Tm3  1  0.75000000  0.05220318  0.19174619  1
  B  B0  1  0.75000000  0.75015604  0.17364077  1
  B  B1  1  0.25000000  0.24984396  0.82635923  1
  B  B2  1  0.25000000  0.74984396  0.67364077  1
  B  B3  1  0.75000000  0.25015604  0.32635923  1
  B  B4  1  0.75000000  0.93237101  0.38376626  1
  B  B5  1  0.25000000  0.06762899  0.61623374  1
  B  B6  1  0.25000000  0.56762899  0.88376626  1
  B  B7  1  0.75000000  0.43237101  0.11623374  1
  B  B8  1  0.75000000  0.98930371  0.63894014  1
  B  B9  1  0.25000000  0.01069629  0.36105986  1
  B  B10  1  0.25000000  0.51069629  0.13894014  1
  B  B11  1  0.75000000  0.48930371  0.86105986  1
  B  B12  1  0.75000000  0.76930191  0.41820048  1
  B  B13  1  0.25000000  0.23069809  0.58179952  1
  B  B14  1  0.25000000  0.73069809  0.91820048  1
  B  B15  1  0.75000000  0.26930191  0.08179952  1
  B  B16  1  0.75000000  0.96258187  0.98128932  1
  B  B17  1  0.25000000  0.03741813  0.01871068  1
  B  B18  1  0.25000000  0.53741813  0.48128932  1
  B  B19  1  0.75000000  0.46258187  0.51871068  1
  B  B20  1  0.75000000  0.81436780  0.93277307  1
  B  B21  1  0.25000000  0.18563220  0.06722693  1
  B  B22  1  0.25000000  0.68563220  0.43277307  1
  B  B23  1  0.75000000  0.31436780  0.56722693  1
  B  B24  1  0.75000000  0.83458158  0.66805484  1
  B  B25  1  0.25000000  0.16541842  0.33194516  1
  B  B26  1  0.25000000  0.66541842  0.16805484  1
  B  B27  1  0.75000000  0.33458158  0.83194516  1
  Mo  Mo0  1  0.75000000  0.11766121  0.47287385  1
  Mo  Mo1  1  0.25000000  0.88233879  0.52712615  1
  Mo  Mo2  1  0.25000000  0.38233879  0.97287385  1
  Mo  Mo3  1  0.75000000  0.61766121  0.02712615  1
  Mo  Mo4  1  0.75000000  0.65940335  0.56448288  1
  Mo  Mo5  1  0.25000000  0.34059665  0.43551712  1
  Mo  Mo6  1  0.25000000  0.84059665  0.06448288  1
  Mo  Mo7  1  0.75000000  0.15940335  0.93551712  1
  Mo  Mo8  1  0.75000000  0.68422171  0.79794928  1
  Mo  Mo9  1  0.25000000  0.31577829  0.20205072  1
  Mo  Mo10  1  0.25000000  0.81577829  0.29794928  1
  Mo  Mo11  1  0.75000000  0.18422171  0.70205072  1
loop_
_geom_bond_atom_site_label_1
_geom_bond_atom_site_label_2
_geom_bond_distance
_geom_bond_site_symmetry_2
B0 B26 1.804872 1_555
B0 B26 1.804872 1_655
B0 Mo6 2.306423 1_555
B0 Mo6 2.306423 1_655
B0 Mo10 2.330017 1_555
B0 Mo10 2.330017 1_655
B0 Mo3 2.372617 1_555
B0 Tm0 2.774622 1_555
B0 Tm3 3.329590 1_565
B1 B27 1.804872 1_455
B1 B27 1.804872 1_555
B1 Mo7 2.306423 1_555
B1 Mo7 2.306423 1_455
B1 Mo11 2.330017 1_555
B1 Mo11 2.330017 1_455
B1 Mo2 2.372617 1_555
B1 Tm1 2.774622 1_555
B1 Tm2 3.329590 1_545
B2 B24 1.804872 1_455
B2 B24 1.804872 1_555
B2 Mo4 2.306423 1_555
B2 Mo4 2.306423 1_455
B2 Mo8 2.330017 1_555
B2 Mo8 2.330017 1_455
B2 Mo1 2.372617 1_555
B2 Tm2 2.774622 1_555
B2 Tm1 3.329590 1_555
B3 Mo5 2.306423 1_555
B3 Mo5 2.306423 1_655
B3 Mo9 2.330017 1_555
B3 Mo9 2.330017 1_655
B3 Mo0 2.372617 1_555
B3 Tm3 2.774622 1_555
B3 Tm0 3.329590 1_555
B4 B9 1.791713 1_565
B4 B9 1.791713 1_665
B4 Mo10 2.287134 1_555
B4 Mo10 2.287134 1_655
B4 Mo0 2.334257 1_565
B4 Mo1 2.458434 1_555
B4 Mo1 2.458434 1_655
B4 Tm3 2.785545 1_565
B5 B8 1.791713 1_545
B5 B8 1.791713 1_445
B5 Mo11 2.287134 1_455
B5 Mo11 2.287134 1_555
B5 Mo1 2.334257 1_545
B5 Mo0 2.458434 1_455
B5 Mo0 2.458434 1_555
B5 Tm2 2.785545 1_545
B6 Mo8 2.287134 1_555
B6 Mo8 2.287134 1_455
B6 Mo2 2.334257 1_555
B6 Mo3 2.458434 1_456
B6 Mo3 2.458434 1_556
B6 Tm1 2.785545 1_555
B7 Mo9 2.287134 1_655
B7 Mo9 2.287134 1_555
B7 Mo3 2.334257 1_555
B7 Mo2 2.458434 1_654
B7 Mo2 2.458434 1_554
B7 Tm0 2.785545 1_555
B8 Mo11 2.290204 1_565
B8 Mo1 2.410379 1_555
B8 Mo1 2.410379 1_655
B8 Mo0 2.548935 1_565
B8 Tm2 2.697234 1_655
B8 Tm2 2.697234 1_555
B9 Mo10 2.290204 1_545
B9 Mo0 2.410379 1_555
B9 Mo0 2.410379 1_455
B9 Mo1 2.548935 1_545
B9 Tm3 2.697234 1_455
B9 Tm3 2.697234 1_555
B10 B26 1.741656 1_555
B10 B7 1.791713 1_455
B10 B7 1.791713 1_555
B10 Mo9 2.290204 1_555
B10 Mo3 2.410379 1_455
B10 Mo3 2.410379 1_555
B10 Mo2 2.548935 1_554
B10 Tm0 2.697234 1_455
B10 Tm0 2.697234 1_555
B11 B27 1.741656 1_555
B11 B6 1.791713 1_655
B11 B6 1.791713 1_555
B11 Mo8 2.290204 1_555
B11 Mo2 2.410379 1_655
B11 Mo2 2.410379 1_555
B11 Mo3 2.548935 1_556
B11 Tm1 2.697234 1_655
B11 Tm1 2.697234 1_555
B12 B22 1.807043 1_655
B12 B22 1.807043 1_555
B12 B4 1.846445 1_555
B12 Mo4 2.226175 1_555
B12 Mo10 2.237713 1_555
B12 Mo10 2.237713 1_655
B12 Mo1 2.422256 1_555
B12 Mo1 2.422256 1_655
B12 Tm0 2.770223 1_555
B13 B23 1.807043 1_455
B13 B23 1.807043 1_555
B13 B5 1.846445 1_555
B13 Mo5 2.226175 1_555
B13 Mo11 2.237713 1_555
B13 Mo11 2.237713 1_455
B13 Mo0 2.422256 1_555
B13 Mo0 2.422256 1_455
B13 Tm1 2.770223 1_555
B14 B20 1.807043 1_455
B14 B20 1.807043 1_555
B14 B6 1.846445 1_555
B14 Mo6 2.226175 1_556
B14 Mo8 2.237713 1_455
B14 Mo8 2.237713 1_555
B14 Mo3 2.422256 1_456
B14 Mo3 2.422256 1_556
B14 Tm2 2.770223 1_555
B15 B21 1.807043 1_555
B15 B21 1.807043 1_655
B15 B7 1.846445 1_555
B15 Mo7 2.226175 1_554
B15 Mo9 2.237713 1_555
B15 Mo9 2.237713 1_655
B15 Mo2 2.422256 1_654
B15 Mo2 2.422256 1_554
B15 Tm3 2.770223 1_555
B16 B20 1.743838 1_555
B16 B17 1.813874 1_566
B16 B17 1.813874 1_666
B16 Mo7 2.242062 1_565
B16 Mo6 2.305241 1_556
B16 Mo6 2.305241 1_656
B16 Tm2 2.702090 1_655
B16 Tm2 2.702090 1_555
B16 Tm3 2.864634 1_566
B17 B21 1.743838 1_555
B17 Mo6 2.242062 1_545
B17 Mo7 2.305241 1_554
B17 Mo7 2.305241 1_454
B17 Tm3 2.702090 1_555
B17 Tm3 2.702090 1_455
B17 Tm2 2.864634 1_544
B18 B22 1.743838 1_555
B18 B19 1.813874 1_455
B18 B19 1.813874 1_555
B18 Mo5 2.242062 1_555
B18 Mo4 2.305241 1_555
B18 Mo4 2.305241 1_455
B18 Tm0 2.702090 1_555
B18 Tm0 2.702090 1_455
B18 Tm1 2.864634 1_555
B19 B23 1.743838 1_555
B19 Mo4 2.242062 1_555
B19 Mo5 2.305241 1_555
B19 Mo5 2.305241 1_655
B19 Tm1 2.702090 1_555
B19 Tm1 2.702090 1_655
B19 Tm0 2.864634 1_555
B20 Mo8 2.239969 1_555
B20 Mo6 2.302375 1_556
B20 Mo6 2.302375 1_656
B20 Mo3 2.476554 1_556
B20 Tm2 2.658895 1_555
B20 Tm2 2.658895 1_655
B21 Mo9 2.239969 1_555
B21 Mo7 2.302375 1_454
B21 Mo7 2.302375 1_554
B21 Mo2 2.476554 1_554
B21 Tm3 2.658895 1_455
B21 Tm3 2.658895 1_555
B22 Mo10 2.239969 1_555
B22 Mo4 2.302375 1_555
B22 Mo4 2.302375 1_455
B22 Mo1 2.476554 1_555
B22 Tm0 2.658895 1_555
B22 Tm0 2.658895 1_455
B23 Mo11 2.239969 1_555
B23 Mo5 2.302375 1_555
B23 Mo5 2.302375 1_655
B23 Mo0 2.476554 1_555
B23 Tm1 2.658895 1_655
B23 Tm1 2.658895 1_555
B24 B8 1.741656 1_555
B24 Mo4 2.337349 1_555
B24 Mo8 2.343073 1_555
B24 Mo1 2.429835 1_555
B24 Mo1 2.429835 1_655
B24 Tm2 2.672977 1_555
B24 Tm2 2.672977 1_655
B25 B9 1.741656 1_555
B25 B3 1.804872 1_555
B25 B3 1.804872 1_455
B25 Mo5 2.337349 1_555
B25 Mo9 2.343073 1_555
B25 Mo0 2.429835 1_555
B25 Mo0 2.429835 1_455
B25 Tm3 2.672977 1_455
B25 Tm3 2.672977 1_555
B26 Mo6 2.337349 1_555
B26 Mo10 2.343073 1_555
B26 Mo3 2.429835 1_555
B26 Mo3 2.429835 1_455
B26 Tm0 2.672977 1_555
B26 Tm0 2.672977 1_455
B27 Mo7 2.337349 1_555
B27 Mo11 2.343073 1_555
B27 Mo2 2.429835 1_555
B27 Mo2 2.429835 1_655
B27 Tm1 2.672977 1_655
B27 Tm1 2.672977 1_555
