# generated using pymatgen
data_Pt(IN)2
_symmetry_space_group_name_H-M   'P 1'
_cell_length_a   4.95630100
_cell_length_b   10.24577200
_cell_length_c   10.24577200
_cell_angle_alpha   90.00000000
_cell_angle_beta   90.00000000
_cell_angle_gamma   90.00000000
_symmetry_Int_Tables_number   1
_chemical_formula_structural   Pt(IN)2
_chemical_formula_sum   'Pt4 I8 N8'
_cell_volume   520.29187998
_cell_formula_units_Z   4
loop_
 _symmetry_equiv_pos_site_id
 _symmetry_equiv_pos_as_xyz
  1  'x, y, z'
loop_
 _atom_site_type_symbol
 _atom_site_label
 _atom_site_symmetry_multiplicity
 _atom_site_fract_x
 _atom_site_fract_y
 _atom_site_fract_z
 _atom_site_occupancy
  Pt  Pt0  1  0.50000000  0.00000000  0.00000000  1
  Pt  Pt1  1  0.00000000  0.50000000  0.50000000  1
  Pt  Pt2  1  0.00000000  0.00000000  0.00000000  1
  Pt  Pt3  1  0.50000000  0.50000000  0.50000000  1
  I  I0  1  0.00000000  0.24205600  0.50375600  1
  I  I1  1  0.00000000  0.75794400  0.49624400  1
  I  I2  1  0.00000000  0.49624400  0.24205600  1
  I  I3  1  0.50000000  0.25794400  0.00375600  1
  I  I4  1  0.00000000  0.50375600  0.75794400  1
  I  I5  1  0.50000000  0.74205600  0.99624400  1
  I  I6  1  0.50000000  0.00375600  0.74205600  1
  I  I7  1  0.50000000  0.99624400  0.25794400  1
  N  N0  1  0.00000000  0.19935000  0.00435700  1
  N  N1  1  0.00000000  0.80065000  0.99564300  1
  N  N2  1  0.00000000  0.99564300  0.19935000  1
  N  N3  1  0.50000000  0.30065000  0.50435700  1
  N  N4  1  0.00000000  0.00435700  0.80065000  1
  N  N5  1  0.50000000  0.69935000  0.49564300  1
  N  N6  1  0.50000000  0.50435700  0.69935000  1
  N  N7  1  0.50000000  0.49564300  0.30065000  1
loop_
_geom_bond_atom_site_label_1
_geom_bond_atom_site_label_2
_geom_bond_distance
_geom_bond_site_symmetry_2
Pt0 Pt2 2.478150 1_555
Pt0 Pt2 2.478150 1_655
Pt1 Pt3 2.478150 1_455
Pt1 Pt3 2.478150 1_555
I0 N3 2.549839 1_455
I0 N3 2.549839 1_555
I0 Pt1 2.643116 1_555
I1 N5 2.549839 1_555
I1 N5 2.549839 1_455
I1 Pt1 2.643116 1_555
I2 N7 2.549839 1_455
I2 N7 2.549839 1_555
I2 Pt1 2.643116 1_555
I3 N0 2.549839 1_555
I3 N0 2.549839 1_655
I3 Pt0 2.643116 1_555
I4 N6 2.549839 1_555
I4 N6 2.549839 1_455
I4 Pt1 2.643116 1_555
I5 N1 2.549839 1_655
I5 N1 2.549839 1_555
I5 Pt0 2.643116 1_566
I6 N4 2.549839 1_655
I6 N4 2.549839 1_555
I6 Pt0 2.643116 1_556
I7 N2 2.549839 1_655
I7 N2 2.549839 1_555
I7 Pt0 2.643116 1_565
N0 Pt2 2.042982 1_555
N1 Pt2 2.042982 1_566
N2 Pt2 2.042982 1_565
N3 Pt3 2.042982 1_555
N4 Pt2 2.042982 1_556
N5 Pt3 2.042982 1_555
N6 Pt3 2.042982 1_555
N7 Pt3 2.042982 1_555
