# generated using pymatgen
data_ScNiC2
_symmetry_space_group_name_H-M   'P 1'
_cell_length_a   3.37339300
_cell_length_b   3.37339300
_cell_length_c   7.25255800
_cell_angle_alpha   90.00000000
_cell_angle_beta   90.00000000
_cell_angle_gamma   90.00000000
_symmetry_Int_Tables_number   1
_chemical_formula_structural   ScNiC2
_chemical_formula_sum   'Sc2 Ni2 C4'
_cell_volume   82.53251689
_cell_formula_units_Z   2
loop_
 _symmetry_equiv_pos_site_id
 _symmetry_equiv_pos_as_xyz
  1  'x, y, z'
loop_
 _atom_site_type_symbol
 _atom_site_label
 _atom_site_symmetry_multiplicity
 _atom_site_fract_x
 _atom_site_fract_y
 _atom_site_fract_z
 _atom_site_occupancy
  Sc  Sc0  1  0.00000000  0.50000000  0.65720200  1
  Sc  Sc1  1  0.50000000  0.00000000  0.34279800  1
  Ni  Ni0  1  0.00000000  0.00000000  0.00000000  1
  Ni  Ni1  1  0.50000000  0.50000000  0.00000000  1
  C  C0  1  0.00000000  0.50000000  0.16394900  1
  C  C1  1  0.50000000  0.00000000  0.83605100  1
  C  C2  1  0.00000000  0.50000000  0.35351200  1
  C  C3  1  0.50000000  0.00000000  0.64648800  1
loop_
_geom_bond_atom_site_label_1
_geom_bond_atom_site_label_2
_geom_bond_distance
_geom_bond_site_symmetry_2
C0 C2 1.374817 1_555
C0 Ni1 2.063682 1_555
C0 Ni0 2.063682 1_555
C0 Ni0 2.063682 1_565
C0 Ni1 2.063682 1_455
C1 C3 1.374817 1_555
C1 Ni1 2.063682 1_546
C1 Ni0 2.063682 1_556
C1 Ni0 2.063682 1_656
C1 Ni1 2.063682 1_556
C2 Sc0 2.202529 1_555
C2 Sc1 2.386614 1_455
C2 Sc1 2.386614 1_555
C2 Sc1 2.386614 1_565
C2 Sc1 2.386614 1_465
C3 Sc1 2.202529 1_555
C3 Sc0 2.386614 1_545
C3 Sc0 2.386614 1_645
C3 Sc0 2.386614 1_655
C3 Sc0 2.386614 1_555
