# generated using pymatgen
data_BaLaCoSbO6
_symmetry_space_group_name_H-M   'P 1'
_cell_length_a   5.77544807
_cell_length_b   5.77544807
_cell_length_c   5.77544807
_cell_angle_alpha   120.24398631
_cell_angle_beta   120.24398631
_cell_angle_gamma   89.57792027
_symmetry_Int_Tables_number   1
_chemical_formula_structural   BaLaCoSbO6
_chemical_formula_sum   'Ba1 La1 Co1 Sb1 O6'
_cell_volume   135.71401748
_cell_formula_units_Z   1
loop_
 _symmetry_equiv_pos_site_id
 _symmetry_equiv_pos_as_xyz
  1  'x, y, z'
loop_
 _atom_site_type_symbol
 _atom_site_label
 _atom_site_symmetry_multiplicity
 _atom_site_fract_x
 _atom_site_fract_y
 _atom_site_fract_z
 _atom_site_occupancy
  Ba  Ba0  1  0.75000000  0.25000000  0.50000000  1
  La  La0  1  0.25000000  0.75000000  0.50000000  1
  Co  Co0  1  0.00000000  0.00000000  0.00000000  1
  Sb  Sb0  1  0.50000000  0.50000000  0.00000000  1
  O  O0  1  0.81416100  0.33177400  0.10479700  1
  O  O1  1  0.22697700  0.70936400  0.89520300  1
  O  O2  1  0.29063600  0.18583900  0.51761300  1
  O  O3  1  0.66822600  0.77302300  0.48238700  1
  O  O4  1  0.25389000  0.25389000  0.00000000  1
  O  O5  1  0.74611000  0.74611000  0.00000000  1
loop_
_geom_bond_atom_site_label_1
_geom_bond_atom_site_label_2
_geom_bond_distance
_geom_bond_site_symmetry_2
Ba0 O0 2.740541 1_555
Ba0 O1 2.740541 1_655
Ba0 O3 2.740541 1_545
Ba0 O2 2.740541 1_555
Ba0 O5 2.877245 1_556
Ba0 O4 2.877245 1_555
Ba0 O5 2.877245 1_545
Ba0 O4 2.877245 1_656
Ba0 O2 3.098080 1_655
Ba0 O1 3.098080 1_544
Ba0 O3 3.098080 1_555
Ba0 O0 3.098080 1_556
La0 O2 2.475533 1_565
La0 O3 2.475533 1_555
La0 O1 2.475533 1_555
La0 O0 2.475533 1_455
La0 O5 2.877245 1_556
La0 O4 2.877245 1_566
La0 O4 2.877245 1_555
La0 O5 2.877245 1_455
Co0 O5 2.081326 1_445
Co0 O4 2.081326 1_555
Co0 O1 2.155395 1_544
Co0 O0 2.155395 1_455
Co0 O2 2.155395 1_555
Co0 O3 2.155395 1_444
O0 Sb0 2.015579 1_555
O1 Sb0 2.015579 1_556
O2 Sb0 2.015579 1_556
O3 Sb0 2.015579 1_555
O4 Sb0 2.017547 1_555
O5 Sb0 2.017547 1_555
