# generated using pymatgen
data_LiTmSn2
_symmetry_space_group_name_H-M   'P 1'
_cell_length_a   9.85019578
_cell_length_b   9.85019578
_cell_length_c   4.48389900
_cell_angle_alpha   90.00000000
_cell_angle_beta   90.00000000
_cell_angle_gamma   154.73075662
_symmetry_Int_Tables_number   1
_chemical_formula_structural   LiTmSn2
_chemical_formula_sum   'Li2 Tm2 Sn4'
_cell_volume   185.71360052
_cell_formula_units_Z   2
loop_
 _symmetry_equiv_pos_site_id
 _symmetry_equiv_pos_as_xyz
  1  'x, y, z'
loop_
 _atom_site_type_symbol
 _atom_site_label
 _atom_site_symmetry_multiplicity
 _atom_site_fract_x
 _atom_site_fract_y
 _atom_site_fract_z
 _atom_site_occupancy
  Li  Li0  1  0.67265900  0.32734100  0.75000000  1
  Li  Li1  1  0.32734100  0.67265900  0.25000000  1
  Tm  Tm0  1  0.89452700  0.10547300  0.75000000  1
  Tm  Tm1  1  0.10547300  0.89452700  0.25000000  1
  Sn  Sn0  1  0.54508400  0.45491600  0.75000000  1
  Sn  Sn1  1  0.45491600  0.54508400  0.25000000  1
  Sn  Sn2  1  0.25188300  0.74811700  0.75000000  1
  Sn  Sn3  1  0.74811700  0.25188300  0.25000000  1
loop_
_geom_bond_atom_site_label_1
_geom_bond_atom_site_label_2
_geom_bond_distance
_geom_bond_site_symmetry_2
Li0 Sn0 2.452418 1_555
Li0 Sn2 2.638468 1_655
Li0 Sn2 2.638468 1_545
Li0 Sn3 2.670290 1_556
Li0 Sn3 2.670290 1_555
Li0 Tm1 3.366979 1_655
Li0 Tm1 3.366979 1_656
Li0 Tm1 3.366979 1_545
Li0 Tm1 3.366979 1_546
Li1 Sn1 2.452418 1_555
Li1 Sn3 2.638468 1_565
Li1 Sn3 2.638468 1_455
Li1 Sn2 2.670290 1_555
Li1 Sn2 2.670290 1_554
Li1 Tm0 3.366979 1_455
Li1 Tm0 3.366979 1_565
Li1 Tm0 3.366979 1_454
Li1 Tm0 3.366979 1_564
Sn0 Tm1 3.319053 1_655
Sn0 Tm1 3.319053 1_656
Sn0 Tm1 3.319053 1_545
Sn0 Tm1 3.319053 1_546
Sn0 Tm0 3.608127 1_565
Sn0 Tm0 3.608127 1_455
Sn1 Tm0 3.319053 1_565
Sn1 Tm0 3.319053 1_564
Sn1 Tm0 3.319053 1_455
Sn1 Tm0 3.319053 1_454
Sn1 Tm1 3.608127 1_655
Sn1 Tm1 3.608127 1_545
Sn2 Tm0 3.487294 1_455
Sn2 Tm0 3.487294 1_565
Sn2 Tm1 3.598290 1_556
Sn2 Tm1 3.598290 1_555
Sn3 Tm1 3.487294 1_545
Sn3 Tm1 3.487294 1_655
Sn3 Tm0 3.598290 1_554
Sn3 Tm0 3.598290 1_555
