# generated using pymatgen
data_MnPHO5
_symmetry_space_group_name_H-M   'P 1'
_cell_length_a   5.09742800
_cell_length_b   5.19049230
_cell_length_c   7.19182568
_cell_angle_alpha   109.53371481
_cell_angle_beta   106.23518401
_cell_angle_gamma   97.73310358
_symmetry_Int_Tables_number   1
_chemical_formula_structural   MnPHO5
_chemical_formula_sum   'Mn2 P2 H2 O10'
_cell_volume   166.62201156
_cell_formula_units_Z   2
loop_
 _symmetry_equiv_pos_site_id
 _symmetry_equiv_pos_as_xyz
  1  'x, y, z'
loop_
 _atom_site_type_symbol
 _atom_site_label
 _atom_site_symmetry_multiplicity
 _atom_site_fract_x
 _atom_site_fract_y
 _atom_site_fract_z
 _atom_site_occupancy
  Mn  Mn0  1  0.00000000  0.00000000  0.50000000  1
  Mn  Mn1  1  0.00000000  0.00000000  0.00000000  1
  P  P0  1  0.32353900  0.64900000  0.23135500  1
  P  P1  1  0.67646100  0.35100000  0.76864500  1
  H  H0  1  0.64976000  0.96569200  0.33716700  1
  H  H1  1  0.35024000  0.03430800  0.66283300  1
  O  O0  1  0.13863700  0.95196000  0.72747400  1
  O  O1  1  0.27998100  0.80507000  0.39106600  1
  O  O2  1  0.70232300  0.66168600  0.65704200  1
  O  O3  1  0.63439200  0.77157600  0.06562000  1
  O  O4  1  0.10709000  0.67326300  0.12501800  1
  O  O5  1  0.89291000  0.32673700  0.87498200  1
  O  O6  1  0.36560800  0.22842400  0.93438000  1
  O  O7  1  0.29767700  0.33831400  0.34295800  1
  O  O8  1  0.72001900  0.19493000  0.60893400  1
  O  O9  1  0.86136300  0.04804000  0.27252600  1
loop_
_geom_bond_atom_site_label_1
_geom_bond_atom_site_label_2
_geom_bond_distance
_geom_bond_site_symmetry_2
Mn0 O0 1.706368 1_545
Mn0 O9 1.706368 1_455
Mn0 O8 2.039132 1_455
Mn0 O1 2.039132 1_545
Mn1 O9 2.213171 1_455
Mn1 O0 2.213171 1_544
Mn1 O5 2.230904 1_454
Mn1 O4 2.230904 1_545
Mn1 O6 2.317971 1_554
Mn1 O3 2.317971 1_445
Mn1 O2 2.400721 1_444
Mn1 O7 2.400721 1_555
H0 O9 1.360680 1_565
H0 Mn0 1.787853 1_665
H1 O0 1.360680 1_545
H1 Mn0 1.787853 1_555
O0 O6 1.665718 1_565
O1 P0 1.262388 1_555
O2 P1 2.032146 1_555
O3 O9 1.665718 1_565
O3 P0 2.372383 1_555
O4 P0 1.203348 1_555
O5 P1 1.203348 1_555
O6 P1 2.372383 1_555
O7 P0 2.032146 1_555
O8 P1 1.262388 1_555
