# generated using pymatgen
data_AlPO6
_symmetry_space_group_name_H-M   'P 1'
_cell_length_a   9.11937700
_cell_length_b   9.58382502
_cell_length_c   9.67700593
_cell_angle_alpha   94.90289663
_cell_angle_beta   101.61619165
_cell_angle_gamma   95.93188703
_symmetry_Int_Tables_number   1
_chemical_formula_structural   AlPO6
_chemical_formula_sum   'Al6 P6 O36'
_cell_volume   819.08053049
_cell_formula_units_Z   6
loop_
 _symmetry_equiv_pos_site_id
 _symmetry_equiv_pos_as_xyz
  1  'x, y, z'
loop_
 _atom_site_type_symbol
 _atom_site_label
 _atom_site_symmetry_multiplicity
 _atom_site_fract_x
 _atom_site_fract_y
 _atom_site_fract_z
 _atom_site_occupancy
  Al  Al0  1  0.30100100  0.09219100  0.88187400  1
  Al  Al1  1  0.90597900  0.32590300  0.10011200  1
  Al  Al2  1  0.16048400  0.85918100  0.35829800  1
  Al  Al3  1  0.70134400  0.88683300  0.10656400  1
  Al  Al4  1  0.10288500  0.65770500  0.89053500  1
  Al  Al5  1  0.85892600  0.11907700  0.64068200  1
  P  P0  1  0.35478500  0.87583800  0.11411800  1
  P  P1  1  0.10743800  0.33586300  0.86597400  1
  P  P2  1  0.94600900  0.10326000  0.32811500  1
  P  P3  1  0.66008400  0.11167700  0.88610500  1
  P  P4  1  0.90932900  0.64737600  0.11999300  1
  P  P5  1  0.05799400  0.87315900  0.66277700  1
  O  O0  1  0.20811300  0.96863300  0.73182100  1
  O  O1  1  0.25708700  0.75975300  0.00552100  1
  O  O2  1  0.98219700  0.26338100  0.74335600  1
  O  O3  1  0.73726600  0.24290400  0.98981000  1
  O  O4  1  0.80741600  0.99909200  0.25298400  1
  O  O5  1  0.03759200  0.73050900  0.23083500  1
  O  O6  1  0.34699500  0.02224500  0.05278200  1
  O  O7  1  0.25378300  0.26649300  0.87411600  1
  O  O8  1  0.05570500  0.33031100  0.00913200  1
  O  O9  1  0.95643100  0.23613600  0.25055600  1
  O  O10  1  0.08920200  0.02904900  0.32151700  1
  O  O11  1  0.30829600  0.88349000  0.25613700  1
  O  O12  1  0.70032700  0.97694400  0.95617900  1
  O  O13  1  0.76580400  0.72141000  0.10551300  1
  O  O14  1  0.95013300  0.63499300  0.97252200  1
  O  O15  1  0.04598700  0.74005700  0.73851500  1
  O  O16  1  0.92005600  0.95111700  0.67072200  1
  O  O17  1  0.71758400  0.11200500  0.74782400  1
  O  O18  1  0.48937200  0.11564500  0.85290800  1
  O  O19  1  0.51933600  0.84856400  0.13475300  1
  O  O20  1  0.87537000  0.49685700  0.16059600  1
  O  O21  1  0.14694300  0.49028400  0.84052200  1
  O  O22  1  0.05528400  0.82916500  0.50495300  1
  O  O23  1  0.93593100  0.14481500  0.48142800  1
  O  O24  1  0.27214300  0.74502900  0.47765800  1
  O  O25  1  0.30708600  0.00312600  0.49855700  1
  O  O26  1  0.65751200  0.12471600  0.48840700  1
  O  O27  1  0.63017000  0.26007400  0.48157400  1
  O  O28  1  0.11344200  0.04220800  0.95931600  1
  O  O29  1  0.56324000  0.71262400  0.80800300  1
  O  O30  1  0.63966500  0.72888900  0.71850900  1
  O  O31  1  0.21601300  0.44175000  0.48458300  1
  O  O32  1  0.47308300  0.49076100  0.09495700  1
  O  O33  1  0.45432300  0.49219400  0.21702800  1
  O  O34  1  0.51270900  0.27984800  0.39483900  1
  O  O35  1  0.30024700  0.35556600  0.52611600  1
loop_
_geom_bond_atom_site_label_1
_geom_bond_atom_site_label_2
_geom_bond_distance
_geom_bond_site_symmetry_2
Al0 O7 1.771623 1_555
Al0 O18 1.790221 1_555
Al0 O0 1.797688 1_545
Al0 O6 1.824521 1_556
Al0 O28 2.030966 1_555
Al1 O3 1.754932 1_554
Al1 O9 1.759964 1_555
Al1 O20 1.761031 1_555
Al1 O8 1.766294 1_655
Al2 O5 1.787670 1_555
Al2 O11 1.832955 1_555
Al2 O10 1.850457 1_565
Al2 O24 1.881612 1_555
Al2 O22 1.891621 1_555
Al2 O25 2.025018 1_565
Al3 O19 1.742835 1_555
Al3 O13 1.746819 1_555
Al3 O4 1.753050 1_555
Al3 O12 1.753506 1_554
Al4 O14 1.740466 1_455
Al4 O15 1.741260 1_555
Al4 O21 1.746140 1_555
Al4 O1 1.752628 1_556
Al5 O2 1.776947 1_555
Al5 O16 1.785107 1_545
Al5 O17 1.809173 1_555
Al5 O23 1.842274 1_555
Al5 O26 2.119481 1_555
O0 P5 1.557570 1_555
O1 P0 1.534316 1_555
O2 P1 1.531113 1_655
O3 P3 1.549538 1_555
O4 P2 1.538744 1_565
O5 P4 1.519702 1_455
O6 P0 1.572300 1_545
O7 P1 1.542497 1_555
O8 P1 1.554085 1_554
O9 P2 1.536597 1_555
O10 P2 1.559772 1_455
O11 P0 1.515816 1_555
O12 P3 1.552179 1_565
O13 P4 1.539891 1_555
O14 P4 1.543738 1_556
O15 P5 1.529588 1_555
O16 P5 1.539429 1_655
O17 P3 1.532499 1_555
O18 P3 1.530084 1_555
O19 P0 1.526215 1_555
O20 P4 1.544274 1_555
O21 P1 1.539001 1_555
O22 P5 1.543856 1_555
O23 P2 1.526313 1_555
O26 O27 1.350657 1_555
O27 O34 1.262889 1_555
O29 O30 1.226270 1_555
O31 O35 1.223681 1_555
O32 O33 1.226369 1_555
