# generated using pymatgen
data_Li4MnCo2O7
_symmetry_space_group_name_H-M   'P 1'
_cell_length_a   2.93584600
_cell_length_b   8.12132475
_cell_length_c   10.64617732
_cell_angle_alpha   101.68105652
_cell_angle_beta   94.90738014
_cell_angle_gamma   89.02753021
_symmetry_Int_Tables_number   1
_chemical_formula_structural   Li4MnCo2O7
_chemical_formula_sum   'Li8 Mn2 Co4 O14'
_cell_volume   247.66812948
_cell_formula_units_Z   2
loop_
 _symmetry_equiv_pos_site_id
 _symmetry_equiv_pos_as_xyz
  1  'x, y, z'
loop_
 _atom_site_type_symbol
 _atom_site_label
 _atom_site_symmetry_multiplicity
 _atom_site_fract_x
 _atom_site_fract_y
 _atom_site_fract_z
 _atom_site_occupancy
  Li  Li0  1  0.28186900  0.14387200  0.56747900  1
  Li  Li1  1  0.57691700  0.29832700  0.14362400  1
  Li  Li2  1  0.86619800  0.43405100  0.72061600  1
  Li  Li3  1  0.71813100  0.85612800  0.43252100  1
  Li  Li4  1  0.00000000  0.00000000  0.00000000  1
  Li  Li5  1  0.13380200  0.56594900  0.27938400  1
  Li  Li6  1  0.42308300  0.70167300  0.85637600  1
  Li  Li7  1  0.00000000  0.50000000  0.00000000  1
  Mn  Mn0  1  0.43651000  0.22191100  0.85953000  1
  Mn  Mn1  1  0.56349000  0.77808900  0.14047000  1
  Co  Co0  1  0.71412900  0.35758500  0.42821800  1
  Co  Co1  1  0.28587100  0.64241500  0.57178200  1
  Co  Co2  1  0.87043600  0.92664700  0.71588700  1
  Co  Co3  1  0.12956400  0.07335300  0.28411300  1
  O  O0  1  0.88899000  0.17012700  0.72855300  1
  O  O1  1  0.11809300  0.31143800  0.29239600  1
  O  O2  1  0.42018300  0.44496200  0.85217400  1
  O  O3  1  0.26285700  0.88430500  0.57755900  1
  O  O4  1  0.53794100  0.02903200  0.15176300  1
  O  O5  1  0.68605800  0.59848700  0.43741600  1
  O  O6  1  0.02566200  0.75587800  0.01850100  1
  O  O7  1  0.73714300  0.11569500  0.42244100  1
  O  O8  1  0.97433800  0.24412200  0.98149900  1
  O  O9  1  0.31394200  0.40151300  0.56258400  1
  O  O10  1  0.11101000  0.82987300  0.27144700  1
  O  O11  1  0.46205900  0.97096800  0.84823700  1
  O  O12  1  0.57981700  0.55503800  0.14782600  1
  O  O13  1  0.88190700  0.68856200  0.70760400  1
loop_
_geom_bond_atom_site_label_1
_geom_bond_atom_site_label_2
_geom_bond_distance
_geom_bond_site_symmetry_2
Li0 O7 2.103045 1_555
Li0 O7 2.107370 1_455
Li0 O9 2.107449 1_555
Li0 O0 2.120963 1_455
Li0 O3 2.134253 1_545
Li0 O0 2.346269 1_555
Li1 O12 2.076385 1_555
Li1 O1 2.133344 1_655
Li1 O8 2.133939 1_554
Li1 O1 2.150884 1_555
Li1 O4 2.211479 1_555
Li1 O8 2.344972 1_454
Li2 O2 1.985874 1_555
Li2 O2 2.044415 1_655
Li2 O13 2.100938 1_555
Li2 O0 2.161790 1_555
Li2 O9 2.194292 1_655
Li2 O9 2.212912 1_555
Li3 O3 2.103045 1_555
Li3 O3 2.107370 1_655
Li3 O5 2.107449 1_555
Li3 O10 2.120963 1_655
Li3 O7 2.134253 1_565
Li3 O10 2.346269 1_555
Li4 O6 2.031174 1_545
Li4 O8 2.031174 1_454
Li4 O11 2.140585 1_444
Li4 O4 2.140585 1_555
Li4 O4 2.171664 1_455
Li4 O11 2.171664 1_544
Li5 O12 1.985874 1_555
Li5 O12 2.044415 1_455
Li5 O1 2.100938 1_555
Li5 O10 2.161790 1_555
Li5 O5 2.194292 1_455
Li5 O5 2.212912 1_555
Li6 O2 2.076385 1_555
Li6 O13 2.133344 1_455
Li6 O6 2.133939 1_556
Li6 O13 2.150884 1_555
Li6 O11 2.211479 1_555
Li6 O6 2.344972 1_656
Li7 O8 2.049360 1_454
Li7 O6 2.049360 1_555
Li7 O12 2.055949 1_455
Li7 O2 2.055949 1_554
Li7 O12 2.203833 1_555
Li7 O2 2.203833 1_454
Mn0 O2 1.828581 1_555
Mn0 O8 1.938563 1_455
Mn0 O8 1.943158 1_555
Mn0 O0 1.986556 1_555
Mn0 O11 2.017578 1_545
Mn0 O0 2.026593 1_455
Mn1 O12 1.828581 1_555
Mn1 O6 1.938563 1_655
Mn1 O6 1.943158 1_555
Mn1 O10 1.986556 1_555
Mn1 O4 2.017578 1_565
Mn1 O10 2.026593 1_655
Co0 O9 1.902785 1_555
Co0 O1 1.922693 1_655
Co0 O5 1.939686 1_555
Co0 O7 1.953141 1_555
Co0 O9 2.158293 1_655
Co0 O1 2.159465 1_555
Co1 O5 1.902785 1_555
Co1 O13 1.922693 1_455
Co1 O9 1.939686 1_555
Co1 O3 1.953141 1_555
Co1 O5 2.158293 1_455
Co1 O13 2.159465 1_555
Co2 O11 1.902985 1_555
Co2 O13 1.917509 1_555
Co2 O3 1.919913 1_655
Co2 O0 1.955917 1_565
Co2 O11 2.128123 1_655
Co2 O3 2.198889 1_555
Co3 O4 1.902985 1_555
Co3 O1 1.917509 1_555
Co3 O7 1.919913 1_455
Co3 O10 1.955917 1_545
Co3 O4 2.128123 1_455
Co3 O7 2.198889 1_555
