# generated using pymatgen
data_Rb5Nd2N11O34
_symmetry_space_group_name_H-M   'P 1'
_cell_length_a   10.94382665
_cell_length_b   10.94382665
_cell_length_c   14.56616512
_cell_angle_alpha   76.79051940
_cell_angle_beta   76.79051940
_cell_angle_gamma   85.86153353
_symmetry_Int_Tables_number   1
_chemical_formula_structural   Rb5Nd2N11O34
_chemical_formula_sum   'Rb10 Nd4 N22 O68'
_cell_volume   1653.08810081
_cell_formula_units_Z   2
loop_
 _symmetry_equiv_pos_site_id
 _symmetry_equiv_pos_as_xyz
  1  'x, y, z'
loop_
 _atom_site_type_symbol
 _atom_site_label
 _atom_site_symmetry_multiplicity
 _atom_site_fract_x
 _atom_site_fract_y
 _atom_site_fract_z
 _atom_site_occupancy
  Rb  Rb0  1  0.36625600  0.63374400  0.75000000  1
  Rb  Rb1  1  0.63374400  0.36625600  0.25000000  1
  Rb  Rb2  1  0.89557200  0.73428400  0.76597400  1
  Rb  Rb3  1  0.26571600  0.10442800  0.73402600  1
  Rb  Rb4  1  0.10442800  0.26571600  0.23402600  1
  Rb  Rb5  1  0.73428400  0.89557200  0.26597400  1
  Rb  Rb6  1  0.78754800  0.55758300  0.52843000  1
  Rb  Rb7  1  0.44241700  0.21245200  0.97157000  1
  Rb  Rb8  1  0.21245200  0.44241700  0.47157000  1
  Rb  Rb9  1  0.55758300  0.78754800  0.02843000  1
  Nd  Nd0  1  0.70705600  0.11094500  0.61841000  1
  Nd  Nd1  1  0.88905500  0.29294400  0.88159000  1
  Nd  Nd2  1  0.29294400  0.88905500  0.38159000  1
  Nd  Nd3  1  0.11094500  0.70705600  0.11841000  1
  N  N0  1  0.11295400  0.42799600  0.73302200  1
  N  N1  1  0.57200400  0.88704600  0.76697800  1
  N  N2  1  0.88704600  0.57200400  0.26697800  1
  N  N3  1  0.42799600  0.11295400  0.23302200  1
  N  N4  1  0.07589500  0.73583400  0.52487800  1
  N  N5  1  0.26416600  0.92410500  0.97512200  1
  N  N6  1  0.92410500  0.26416600  0.47512200  1
  N  N7  1  0.73583400  0.07589500  0.02487800  1
  N  N8  1  0.90168500  0.09831500  0.75000000  1
  N  N9  1  0.09831500  0.90168500  0.25000000  1
  N  N10  1  0.25092900  0.53309800  0.99135300  1
  N  N11  1  0.46690200  0.74907100  0.50864700  1
  N  N12  1  0.74907100  0.46690200  0.00864700  1
  N  N13  1  0.53309800  0.25092900  0.49135300  1
  N  N14  1  0.22755900  0.09186300  0.49657700  1
  N  N15  1  0.90813700  0.77244100  0.00342300  1
  N  N16  1  0.77244100  0.90813700  0.50342300  1
  N  N17  1  0.09186300  0.22755900  0.99657700  1
  N  N18  1  0.70756100  0.47295900  0.77959400  1
  N  N19  1  0.52704100  0.29243900  0.72040600  1
  N  N20  1  0.29243900  0.52704100  0.22040600  1
  N  N21  1  0.47295900  0.70756100  0.27959400  1
  O  O0  1  0.06616000  0.33023400  0.72067900  1
  O  O1  1  0.66976600  0.93384000  0.77932100  1
  O  O2  1  0.93384000  0.66976600  0.27932100  1
  O  O3  1  0.33023400  0.06616000  0.22067900  1
  O  O4  1  0.06065800  0.46931900  0.80820600  1
  O  O5  1  0.53068100  0.93934200  0.69179400  1
  O  O6  1  0.93934200  0.53068100  0.19179400  1
  O  O7  1  0.46931900  0.06065800  0.30820600  1
  O  O8  1  0.20577600  0.47975900  0.67412100  1
  O  O9  1  0.52024100  0.79422400  0.82587900  1
  O  O10  1  0.79422400  0.52024100  0.32587900  1
  O  O11  1  0.47975900  0.20577600  0.17412100  1
  O  O12  1  0.86569800  0.28989100  0.55583800  1
  O  O13  1  0.71010900  0.13430200  0.94416200  1
  O  O14  1  0.13430200  0.71010900  0.44416200  1
  O  O15  1  0.28989100  0.86569800  0.05583800  1
  O  O16  1  0.09616000  0.84096800  0.54032200  1
  O  O17  1  0.15903200  0.90384000  0.95967800  1
  O  O18  1  0.90384000  0.15903200  0.45967800  1
  O  O19  1  0.84096800  0.09616000  0.04032200  1
  O  O20  1  0.00361900  0.65754800  0.58492900  1
  O  O21  1  0.34245200  0.99638100  0.91507100  1
  O  O22  1  0.99638100  0.34245200  0.41507100  1
  O  O23  1  0.65754800  0.00361900  0.08492900  1
  O  O24  1  0.91262700  0.02788100  0.69097400  1
  O  O25  1  0.97211900  0.08737300  0.80902600  1
  O  O26  1  0.08737300  0.97211900  0.30902600  1
  O  O27  1  0.02788100  0.91262700  0.19097400  1
  O  O28  1  0.81575500  0.18424500  0.75000000  1
  O  O29  1  0.18424500  0.81575500  0.25000000  1
  O  O30  1  0.49361400  0.17456600  0.57194200  1
  O  O31  1  0.82543400  0.50638600  0.92805800  1
  O  O32  1  0.50638600  0.82543400  0.42805800  1
  O  O33  1  0.17456600  0.49361400  0.07194200  1
  O  O34  1  0.34823800  0.73612900  0.53691800  1
  O  O35  1  0.26387100  0.65176200  0.96308200  1
  O  O36  1  0.65176200  0.26387100  0.46308200  1
  O  O37  1  0.73612900  0.34823800  0.03691800  1
  O  O38  1  0.30997300  0.45938800  0.94241500  1
  O  O39  1  0.54061200  0.69002700  0.55758500  1
  O  O40  1  0.69002700  0.54061200  0.05758500  1
  O  O41  1  0.45938800  0.30997300  0.44241500  1
  O  O42  1  0.00170400  0.70379600  0.97468900  1
  O  O43  1  0.29620400  0.99829600  0.52531100  1
  O  O44  1  0.99829600  0.29620400  0.02531100  1
  O  O45  1  0.70379600  0.00170400  0.47468900  1
  O  O46  1  0.79563200  0.89657400  0.58762400  1
  O  O47  1  0.10342600  0.20436800  0.91237600  1
  O  O48  1  0.20436800  0.10342600  0.41237600  1
  O  O49  1  0.89657400  0.79563200  0.08762400  1
  O  O50  1  0.18371000  0.16818400  0.54785500  1
  O  O51  1  0.83181600  0.81629000  0.95214500  1
  O  O52  1  0.81629000  0.83181600  0.45214500  1
  O  O53  1  0.16818400  0.18371000  0.04785500  1
  O  O54  1  0.61385800  0.33711500  0.64819000  1
  O  O55  1  0.66288500  0.38614200  0.85181000  1
  O  O56  1  0.38614200  0.66288500  0.35181000  1
  O  O57  1  0.33711500  0.61385800  0.14819000  1
  O  O58  1  0.53420700  0.17393000  0.75686300  1
  O  O59  1  0.82607000  0.46579300  0.74313700  1
  O  O60  1  0.46579300  0.82607000  0.24313700  1
  O  O61  1  0.17393000  0.53420700  0.25686300  1
  O  O62  1  0.64238700  0.56210200  0.74550500  1
  O  O63  1  0.43789800  0.35761300  0.75449500  1
  O  O64  1  0.35761300  0.43789800  0.25449500  1
  O  O65  1  0.56210200  0.64238700  0.24550500  1
  O  O66  1  0.15606200  0.84393800  0.75000000  1
  O  O67  1  0.84393800  0.15606200  0.25000000  1
loop_
_geom_bond_atom_site_label_1
_geom_bond_atom_site_label_2
_geom_bond_distance
_geom_bond_site_symmetry_2
Nd0 O46 2.568766 1_545
Nd0 O12 2.575244 1_555
Nd0 O30 2.582958 1_555
Nd0 O58 2.612319 1_555
Nd0 O45 2.645228 1_555
Nd0 O1 2.649086 1_545
Nd0 O36 2.652387 1_555
Nd0 O5 2.656689 1_545
Nd0 O54 2.697964 1_555
Nd0 O24 2.712438 1_555
Nd0 O18 2.755452 1_555
Nd0 O28 2.759549 1_555
Nd1 O47 2.568766 1_655
Nd1 O13 2.575244 1_555
Nd1 O31 2.582958 1_555
Nd1 O59 2.612319 1_555
Nd1 O44 2.645228 1_556
Nd1 O0 2.649086 1_655
Nd1 O37 2.652387 1_556
Nd1 O4 2.656689 1_655
Nd1 O55 2.697964 1_555
Nd1 O25 2.712438 1_555
Nd1 O19 2.755452 1_556
Nd1 O28 2.759549 1_555
Nd2 O48 2.568766 1_565
Nd2 O14 2.575244 1_555
Nd2 O32 2.582958 1_555
Nd2 O60 2.612319 1_555
Nd2 O43 2.645228 1_555
Nd2 O3 2.649086 1_565
Nd2 O34 2.652387 1_555
Nd2 O7 2.656689 1_565
Nd2 O56 2.697964 1_555
Nd2 O26 2.712438 1_555
Nd2 O16 2.755452 1_555
Nd2 O29 2.759549 1_555
Nd3 O49 2.568766 1_455
Nd3 O15 2.575244 1_555
Nd3 O33 2.582958 1_555
Nd3 O61 2.612319 1_555
Nd3 O42 2.645228 1_554
Nd3 O2 2.649086 1_455
Nd3 O35 2.652387 1_554
Nd3 O6 2.656689 1_455
Nd3 O57 2.697964 1_555
Nd3 O27 2.712438 1_555
Nd3 O17 2.755452 1_554
Nd3 O29 2.759549 1_555
N0 O8 1.245604 1_555
N0 O4 1.278256 1_555
N0 O0 1.283866 1_555
N1 O9 1.245604 1_555
N1 O5 1.278256 1_555
N1 O1 1.283866 1_555
N2 O10 1.245604 1_555
N2 O6 1.278256 1_555
N2 O2 1.283866 1_555
N3 O11 1.245604 1_555
N3 O7 1.278256 1_555
N3 O3 1.283866 1_555
N4 O20 1.250557 1_555
N4 O16 1.265513 1_555
N4 O14 1.285300 1_555
N5 O21 1.250557 1_555
N5 O17 1.265513 1_555
N5 O15 1.285300 1_556
N6 O22 1.250557 1_555
N6 O18 1.265513 1_555
N6 O12 1.285300 1_555
N7 O23 1.250557 1_555
N7 O19 1.265513 1_555
N7 O13 1.285300 1_554
N8 O24 1.261045 1_555
N8 O25 1.261045 1_555
N8 O28 1.281044 1_555
N9 O27 1.261045 1_555
N9 O26 1.261045 1_555
N9 O29 1.281044 1_555
N10 O38 1.246372 1_555
N10 O35 1.277335 1_555
N10 O33 1.278690 1_556
N11 O39 1.246372 1_555
N11 O34 1.277335 1_555
N11 O32 1.278690 1_555
N12 O40 1.246372 1_555
N12 O37 1.277335 1_555
N12 O31 1.278690 1_554
N13 O41 1.246372 1_555
N13 O36 1.277335 1_555
N13 O30 1.278690 1_555
N14 O50 1.244695 1_555
N14 O43 1.274706 1_545
N14 O48 1.285064 1_555
N15 O51 1.244695 1_554
N15 O42 1.274706 1_654
N15 O49 1.285064 1_555
N16 O52 1.244695 1_555
N16 O45 1.274706 1_565
N16 O46 1.285064 1_555
N17 O53 1.244695 1_556
N17 O44 1.274706 1_456
N17 O47 1.285064 1_555
N18 O62 1.243807 1_555
N18 O55 1.274169 1_555
N18 O59 1.288332 1_555
N19 O63 1.243807 1_555
N19 O54 1.274169 1_555
N19 O58 1.288332 1_555
N20 O64 1.243807 1_555
N20 O57 1.274169 1_555
N20 O61 1.288332 1_555
N21 O65 1.243807 1_555
N21 O56 1.274169 1_555
N21 O60 1.288332 1_555
O0 Rb3 3.179546 1_555
O1 Rb2 3.179546 1_555
O2 Rb5 3.179546 1_555
O3 Rb4 3.179546 1_555
O4 Rb2 3.314736 1_455
O5 Rb3 3.314736 1_565
O6 Rb4 3.314736 1_655
O7 Rb5 3.314736 1_545
O8 Rb0 3.051474 1_555
O8 Rb8 3.053747 1_555
O9 Rb0 3.051474 1_555
O9 Rb9 3.053747 1_556
O10 Rb1 3.051474 1_555
O10 Rb6 3.053747 1_555
O11 Rb1 3.051474 1_555
O11 Rb7 3.053747 1_554
O12 Rb6 2.955191 1_555
O13 Rb7 2.955191 1_555
O14 Rb8 2.955191 1_555
O15 Rb9 2.955191 1_555
O20 Rb2 2.915746 1_455
O20 Rb6 3.023227 1_455
O21 Rb3 2.915746 1_565
O21 Rb7 3.023227 1_565
O22 Rb4 2.915746 1_655
O22 Rb8 3.023227 1_655
O23 Rb5 2.915746 1_545
O23 Rb9 3.023227 1_545
O24 Rb2 3.152983 1_545
O25 Rb3 3.152983 1_655
O26 Rb4 3.152983 1_565
O27 Rb5 3.152983 1_455
O30 Rb3 3.023343 1_555
O31 Rb2 3.023343 1_555
O32 Rb5 3.023343 1_555
O33 Rb4 3.023343 1_555
O34 Rb0 3.096170 1_555
O35 Rb0 3.096170 1_555
O36 Rb1 3.096170 1_555
O37 Rb1 3.096170 1_555
O38 Rb7 2.962396 1_555
O38 Rb0 2.968538 1_555
O39 Rb6 2.962396 1_555
O39 Rb0 2.968538 1_555
O40 Rb9 2.962396 1_555
O40 Rb1 2.968538 1_555
O41 Rb8 2.962396 1_555
O41 Rb1 2.968538 1_555
O46 Rb2 3.163718 1_555
O47 Rb3 3.163718 1_555
O48 Rb4 3.163718 1_555
O49 Rb5 3.163718 1_555
O50 Rb8 2.965305 1_555
O50 Rb3 2.967029 1_555
O51 Rb9 2.965305 1_556
O51 Rb2 2.967029 1_555
O52 Rb6 2.965305 1_555
O52 Rb5 2.967029 1_555
O53 Rb7 2.965305 1_554
O53 Rb4 2.967029 1_555
O54 Rb6 3.114580 1_555
O55 Rb7 3.114580 1_555
O56 Rb8 3.114580 1_555
O57 Rb9 3.114580 1_555
O58 Rb7 3.173870 1_555
O58 Rb3 3.194970 1_555
O59 Rb6 3.173870 1_555
O59 Rb2 3.194970 1_555
O60 Rb9 3.173870 1_555
O60 Rb5 3.194970 1_555
O61 Rb8 3.173870 1_555
O61 Rb4 3.194970 1_555
O62 Rb0 3.056489 1_555
O62 Rb6 3.207572 1_555
O63 Rb0 3.056489 1_555
O63 Rb7 3.207572 1_555
O64 Rb1 3.056489 1_555
O64 Rb8 3.207572 1_555
O65 Rb1 3.056489 1_555
O65 Rb9 3.207572 1_555
O66 Rb2 3.111920 1_455
O66 Rb3 3.111920 1_565
O66 Rb0 3.133570 1_555
O67 Rb5 3.111920 1_545
O67 Rb4 3.111920 1_655
O67 Rb1 3.133570 1_555
