# generated using pymatgen
data_CaV4Co(CuO6)2
_symmetry_space_group_name_H-M   'P 1'
_cell_length_a   6.42315265
_cell_length_b   6.42315265
_cell_length_c   6.42315265
_cell_angle_alpha   109.99786582
_cell_angle_beta   109.29555929
_cell_angle_gamma   109.12156989
_symmetry_Int_Tables_number   1
_chemical_formula_structural   CaV4Co(CuO6)2
_chemical_formula_sum   'Ca1 V4 Co1 Cu2 O12'
_cell_volume   203.98315229
_cell_formula_units_Z   1
loop_
 _symmetry_equiv_pos_site_id
 _symmetry_equiv_pos_as_xyz
  1  'x, y, z'
loop_
 _atom_site_type_symbol
 _atom_site_label
 _atom_site_symmetry_multiplicity
 _atom_site_fract_x
 _atom_site_fract_y
 _atom_site_fract_z
 _atom_site_occupancy
  Ca  Ca0  1  0.00000000  0.00000000  0.00000000  1
  V  V0  1  0.00000000  0.50000000  0.00000000  1
  V  V1  1  0.50000000  0.00000000  0.00000000  1
  V  V2  1  0.00000000  0.00000000  0.50000000  1
  V  V3  1  0.50000000  0.50000000  0.50000000  1
  Co  Co0  1  0.50000000  0.00000000  0.50000000  1
  Cu  Cu0  1  0.50000000  0.50000000  0.00000000  1
  Cu  Cu1  1  0.00000000  0.50000000  0.50000000  1
  O  O0  1  0.17987700  0.30220600  0.48208300  1
  O  O1  1  0.82012300  0.69779400  0.51791700  1
  O  O2  1  0.82012300  0.30220600  0.12233000  1
  O  O3  1  0.17987700  0.69779400  0.87767000  1
  O  O4  1  0.47632300  0.18021000  0.29611300  1
  O  O5  1  0.52367700  0.81979000  0.70388700  1
  O  O6  1  0.11590300  0.81979000  0.29611300  1
  O  O7  1  0.88409700  0.18021000  0.70388700  1
  O  O8  1  0.30484100  0.48594300  0.18110200  1
  O  O9  1  0.69515900  0.51405700  0.81889800  1
  O  O10  1  0.30484100  0.12374000  0.81889800  1
  O  O11  1  0.69515900  0.87626000  0.18110200  1
loop_
_geom_bond_atom_site_label_1
_geom_bond_atom_site_label_2
_geom_bond_distance
_geom_bond_site_symmetry_2
Ca0 O6 2.578019 1_545
Ca0 O4 2.578019 1_555
Ca0 O5 2.578019 1_444
Ca0 O7 2.578019 1_454
Ca0 O1 2.597362 1_444
Ca0 O0 2.597362 1_555
Ca0 O3 2.597363 1_544
Ca0 O2 2.597363 1_455
Ca0 O8 2.633787 1_555
Ca0 O9 2.633787 1_444
Ca0 O11 2.633788 1_445
Ca0 O10 2.633788 1_554
Co0 O7 2.024485 1_555
Co0 O5 2.024485 1_545
Co0 O4 2.024485 1_555
Co0 O6 2.024485 1_545
Cu0 O10 1.973320 1_554
Cu0 O11 1.973320 1_555
Cu0 O8 1.973325 1_555
Cu0 O9 1.973325 1_554
Cu1 O2 1.977809 1_455
Cu1 O3 1.977809 1_555
Cu1 O0 1.977814 1_555
Cu1 O1 1.977814 1_455
O0 V2 1.971655 1_555
O0 V3 1.971655 1_555
O1 V3 1.971655 1_555
O1 V2 1.971655 1_665
O2 V1 1.971653 1_555
O2 V0 1.971660 1_655
O3 V1 1.971653 1_566
O3 V0 1.971660 1_556
O4 V1 1.944526 1_555
O4 V3 1.944526 1_555
O5 V3 1.944526 1_555
O5 V1 1.944526 1_566
O6 V0 1.944526 1_555
O6 V2 1.944526 1_565
O7 V2 1.944526 1_655
O7 V0 1.944526 1_656
O8 V0 1.969161 1_555
O8 V3 1.969161 1_555
O9 V0 1.969161 1_656
O9 V3 1.969161 1_555
O10 V2 1.969160 1_555
O10 V1 1.969167 1_556
O11 V2 1.969160 1_665
O11 V1 1.969167 1_565
