# generated using pymatgen
data_Si7SnN10
_symmetry_space_group_name_H-M   'P 1'
_cell_length_a   6.85196930
_cell_length_b   6.82991000
_cell_length_c   9.75062913
_cell_angle_alpha   90.00000000
_cell_angle_beta   106.10030583
_cell_angle_gamma   90.00000000
_symmetry_Int_Tables_number   1
_chemical_formula_structural   Si7SnN10
_chemical_formula_sum   'Si14 Sn2 N20'
_cell_volume   438.41553012
_cell_formula_units_Z   2
loop_
 _symmetry_equiv_pos_site_id
 _symmetry_equiv_pos_as_xyz
  1  'x, y, z'
loop_
 _atom_site_type_symbol
 _atom_site_label
 _atom_site_symmetry_multiplicity
 _atom_site_fract_x
 _atom_site_fract_y
 _atom_site_fract_z
 _atom_site_occupancy
  Si  Si0  1  0.53719100  0.97561700  0.82535600  1
  Si  Si1  1  0.53719100  0.02438300  0.32535600  1
  Si  Si2  1  0.35518500  0.02494100  0.01789400  1
  Si  Si3  1  0.35518500  0.97505900  0.51789400  1
  Si  Si4  1  0.11023200  0.40213400  0.07514600  1
  Si  Si5  1  0.11023200  0.59786600  0.57514600  1
  Si  Si6  1  0.66268800  0.36405700  0.99210100  1
  Si  Si7  1  0.66268800  0.63594300  0.49210100  1
  Si  Si8  1  0.84545100  0.62136400  0.80996200  1
  Si  Si9  1  0.84545100  0.37863600  0.30996200  1
  Si  Si10  1  0.29674700  0.61746800  0.88390800  1
  Si  Si11  1  0.29674700  0.38253200  0.38390800  1
  Si  Si12  1  0.48485100  0.36891100  0.68809100  1
  Si  Si13  1  0.48485100  0.63108900  0.18809100  1
  Sn  Sn0  1  0.98543400  0.00185900  0.66638100  1
  Sn  Sn1  1  0.98543400  0.99814100  0.16638100  1
  N  N0  1  0.73729000  0.83824400  0.82319700  1
  N  N1  1  0.73729000  0.16175600  0.32319700  1
  N  N2  1  0.55885100  0.13457000  0.97112000  1
  N  N3  1  0.55885100  0.86543000  0.47112000  1
  N  N4  1  0.31313300  0.87028800  0.86457100  1
  N  N5  1  0.31313300  0.12971200  0.36457100  1
  N  N6  1  0.16051300  0.16633100  0.03510300  1
  N  N7  1  0.16051300  0.83366900  0.53510300  1
  N  N8  1  0.28855000  0.50215900  0.72511000  1
  N  N9  1  0.28855000  0.49784100  0.22511000  1
  N  N10  1  0.44067000  0.11845100  0.67121100  1
  N  N11  1  0.44067000  0.88154900  0.17121100  1
  N  N12  1  0.88738500  0.37205800  0.13328400  1
  N  N13  1  0.88738500  0.62794200  0.63328400  1
  N  N14  1  0.07790600  0.57299400  0.93611100  1
  N  N15  1  0.07790600  0.42700600  0.43611100  1
  N  N16  1  0.70179300  0.41542900  0.82602700  1
  N  N17  1  0.70179300  0.58457100  0.32602700  1
  N  N18  1  0.49842900  0.53890500  0.02472900  1
  N  N19  1  0.49842900  0.46109500  0.52472900  1
loop_
_geom_bond_atom_site_label_1
_geom_bond_atom_site_label_2
_geom_bond_distance
_geom_bond_site_symmetry_2
N0 Si0 1.666312 1_555
N0 Si8 1.677235 1_555
N0 Sn0 2.814188 1_565
N1 Si1 1.666312 1_555
N1 Si9 1.677235 1_555
N1 Sn1 2.814188 1_545
N2 Si6 1.709972 1_555
N2 Si2 1.751886 1_556
N2 Si0 1.761733 1_545
N3 Si7 1.709972 1_555
N3 Si3 1.751886 1_555
N3 Si1 1.761733 1_565
N4 Si10 1.743996 1_555
N4 Si2 1.787404 1_566
N4 Si0 1.829282 1_555
N4 Sn0 2.679004 1_465
N5 Si11 1.743996 1_555
N5 Si3 1.787404 1_545
N5 Si1 1.829282 1_555
N5 Sn1 2.679004 1_445
N6 Si2 1.692363 1_555
N6 Si4 1.714499 1_555
N6 Sn1 2.291047 1_445
N7 Si3 1.692363 1_555
N7 Si5 1.714499 1_555
N7 Sn0 2.291047 1_465
N8 Si10 1.724134 1_555
N8 Si12 1.742687 1_555
N8 Si5 1.751394 1_555
N9 Si11 1.724134 1_555
N9 Si13 1.742687 1_555
N9 Si4 1.751394 1_555
N10 Si12 1.737042 1_555
N10 Si3 1.746825 1_545
N10 Si0 1.759771 1_545
N11 Si13 1.737042 1_555
N11 Si2 1.746825 1_565
N11 Si1 1.759771 1_565
N12 Si6 1.758680 1_554
N12 Si4 1.781907 1_655
N12 Si9 1.823976 1_555
N12 Sn1 2.637658 1_545
N13 Si7 1.758680 1_555
N13 Si5 1.781907 1_655
N13 Si8 1.823976 1_555
N13 Sn0 2.637658 1_565
N14 Si10 1.738726 1_555
N14 Si8 1.752832 1_455
N14 Si4 1.755611 1_556
N15 Si11 1.738726 1_555
N15 Si9 1.752832 1_455
N15 Si5 1.755611 1_555
N16 Si12 1.735114 1_555
N16 Si8 1.748506 1_555
N16 Si6 1.748649 1_555
N17 Si13 1.735114 1_555
N17 Si9 1.748506 1_555
N17 Si7 1.748649 1_555
N18 Si6 1.729932 1_554
N18 Si13 1.739118 1_555
N18 Si10 1.740853 1_554
N19 Si7 1.729932 1_555
N19 Si12 1.739118 1_555
N19 Si11 1.740853 1_555
