# generated using pymatgen
data_Rb7VSiO8
_symmetry_space_group_name_H-M   'P 1'
_cell_length_a   10.57819000
_cell_length_b   6.50984400
_cell_length_c   21.07590724
_cell_angle_alpha   86.75363491
_cell_angle_beta   90.00000000
_cell_angle_gamma   90.00000000
_symmetry_Int_Tables_number   1
_chemical_formula_structural   Rb7VSiO8
_chemical_formula_sum   'Rb28 V4 Si4 O32'
_cell_volume   1449.00784231
_cell_formula_units_Z   4
loop_
 _symmetry_equiv_pos_site_id
 _symmetry_equiv_pos_as_xyz
  1  'x, y, z'
loop_
 _atom_site_type_symbol
 _atom_site_label
 _atom_site_symmetry_multiplicity
 _atom_site_fract_x
 _atom_site_fract_y
 _atom_site_fract_z
 _atom_site_occupancy
  Rb  Rb0  1  0.59704700  0.39376800  0.88782500  1
  Rb  Rb1  1  0.09487000  0.61149100  0.61756500  1
  Rb  Rb2  1  0.90513000  0.61149100  0.11756500  1
  Rb  Rb3  1  0.40295300  0.39376800  0.38782500  1
  Rb  Rb4  1  0.58887500  0.88628900  0.81034100  1
  Rb  Rb5  1  0.07645600  0.10153500  0.69712500  1
  Rb  Rb6  1  0.92354400  0.10153500  0.19712500  1
  Rb  Rb7  1  0.41112500  0.88628900  0.31034100  1
  Rb  Rb8  1  0.95598700  0.28198800  0.86128200  1
  Rb  Rb9  1  0.46136400  0.72077400  0.62956000  1
  Rb  Rb10  1  0.53863600  0.72077400  0.12956000  1
  Rb  Rb11  1  0.04401300  0.28198800  0.36128200  1
  Rb  Rb12  1  0.80747600  0.78527000  0.94849700  1
  Rb  Rb13  1  0.31696000  0.21794800  0.54490700  1
  Rb  Rb14  1  0.68304000  0.21794800  0.04490700  1
  Rb  Rb15  1  0.19252400  0.78527000  0.44849700  1
  Rb  Rb16  1  0.14289000  0.71434700  0.96769900  1
  Rb  Rb17  1  0.63413900  0.29082100  0.52680700  1
  Rb  Rb18  1  0.36586100  0.29082100  0.02680700  1
  Rb  Rb19  1  0.85711000  0.71434700  0.46769900  1
  Rb  Rb20  1  0.30064800  0.07885100  0.87032200  1
  Rb  Rb21  1  0.79147200  0.90688000  0.63343700  1
  Rb  Rb22  1  0.20852800  0.90688000  0.13343700  1
  Rb  Rb23  1  0.69935200  0.07885100  0.37032200  1
  Rb  Rb24  1  0.24285000  0.62263500  0.79003900  1
  Rb  Rb25  1  0.75565500  0.38020000  0.71697800  1
  Rb  Rb26  1  0.24434500  0.38020000  0.21697800  1
  Rb  Rb27  1  0.75715000  0.62263500  0.29003900  1
  V  V0  1  0.97358300  0.22184200  0.52730400  1
  V  V1  1  0.02641700  0.22184200  0.02730400  1
  V  V2  1  0.41058100  0.21781800  0.70718200  1
  V  V3  1  0.58941900  0.21781800  0.20718200  1
  Si  Si0  1  0.47231400  0.77839900  0.97349200  1
  Si  Si1  1  0.52768600  0.77839900  0.47349200  1
  Si  Si2  1  0.91125900  0.78254100  0.79198100  1
  Si  Si3  1  0.08874100  0.78254100  0.29198100  1
  O  O0  1  0.36948400  0.81471600  0.03191600  1
  O  O1  1  0.86706500  0.18717100  0.46573600  1
  O  O2  1  0.13293500  0.18717100  0.96573600  1
  O  O3  1  0.63051600  0.81471600  0.53191600  1
  O  O4  1  0.97235700  0.67828400  0.72786300  1
  O  O5  1  0.47322600  0.32956000  0.77361800  1
  O  O6  1  0.52677400  0.32956000  0.27361800  1
  O  O7  1  0.02764300  0.67828400  0.22786300  1
  O  O8  1  0.79843900  0.62737500  0.82346300  1
  O  O9  1  0.29240300  0.37830300  0.67369500  1
  O  O10  1  0.70759700  0.37830300  0.17369500  1
  O  O11  1  0.20156100  0.62737500  0.32346300  1
  O  O12  1  0.02547300  0.81957600  0.84482500  1
  O  O13  1  0.53079600  0.17998800  0.65199700  1
  O  O14  1  0.46920400  0.17998800  0.15199700  1
  O  O15  1  0.97452700  0.81957600  0.34482500  1
  O  O16  1  0.84538500  0.00962200  0.76871700  1
  O  O17  1  0.34173000  0.98004100  0.73060900  1
  O  O18  1  0.65827000  0.98004100  0.23060900  1
  O  O19  1  0.15461500  0.00962200  0.26871700  1
  O  O20  1  0.58271300  0.61208400  0.00121500  1
  O  O21  1  0.08968200  0.39385700  0.49898000  1
  O  O22  1  0.91031800  0.39385700  0.99898000  1
  O  O23  1  0.41728700  0.61208400  0.50121500  1
  O  O24  1  0.39663400  0.68327600  0.91136100  1
  O  O25  1  0.89354700  0.32269400  0.59166100  1
  O  O26  1  0.10645300  0.32269400  0.09166100  1
  O  O27  1  0.60336600  0.68327600  0.41136100  1
  O  O28  1  0.53971700  0.00202700  0.94788100  1
  O  O29  1  0.04400500  0.98802600  0.55411900  1
  O  O30  1  0.95599500  0.98802600  0.05411900  1
  O  O31  1  0.46028300  0.00202700  0.44788100  1
loop_
_geom_bond_atom_site_label_1
_geom_bond_atom_site_label_2
_geom_bond_distance
_geom_bond_site_symmetry_2
O0 Si0 1.669812 1_554
O0 Rb10 2.769156 1_555
O0 Rb22 2.825310 1_555
O0 Rb16 2.846794 1_554
O0 Rb18 3.095376 1_565
O0 Rb18 3.418478 1_555
O1 V0 1.742839 1_555
O1 Rb23 2.801630 1_555
O1 Rb17 2.877728 1_555
O1 Rb11 2.928673 1_655
O1 Rb19 3.077747 1_545
O1 Rb19 3.436039 1_555
O2 V1 1.742839 1_556
O2 Rb20 2.801630 1_555
O2 Rb18 2.877728 1_556
O2 Rb8 2.928673 1_455
O2 Rb16 3.077747 1_545
O2 Rb16 3.436039 1_555
O3 Si1 1.669812 1_555
O3 Rb9 2.769156 1_555
O3 Rb21 2.825310 1_555
O3 Rb19 2.846794 1_555
O3 Rb17 3.095376 1_565
O3 Rb17 3.418478 1_555
O4 Si2 1.675813 1_555
O4 Rb1 2.717899 1_655
O4 Rb5 3.003628 1_665
O4 Rb25 3.020467 1_555
O4 Rb21 3.082350 1_555
O4 Rb24 3.159406 1_655
O5 V2 1.744761 1_555
O5 Rb0 2.792484 1_555
O5 Rb24 3.126231 1_555
O5 Rb20 3.126270 1_555
O5 Rb4 3.188968 1_545
O5 Rb25 3.227197 1_555
O6 V3 1.744761 1_555
O6 Rb3 2.792484 1_555
O6 Rb27 3.126231 1_555
O6 Rb23 3.126270 1_555
O6 Rb7 3.188968 1_545
O6 Rb26 3.227197 1_555
O7 Si3 1.675813 1_555
O7 Rb2 2.717899 1_455
O7 Rb6 3.003628 1_465
O7 Rb26 3.020467 1_555
O7 Rb22 3.082350 1_555
O7 Rb27 3.159406 1_455
O8 Si2 1.675987 1_555
O8 Rb4 2.789051 1_555
O8 Rb25 2.870483 1_555
O8 Rb8 2.874923 1_555
O8 Rb12 2.883876 1_555
O8 Rb0 2.908184 1_555
O9 V2 1.751810 1_555
O9 Rb1 2.804753 1_555
O9 Rb5 2.933840 1_555
O9 Rb9 2.965668 1_555
O9 Rb13 2.974163 1_555
O9 Rb24 3.042854 1_555
O10 V3 1.751810 1_555
O10 Rb2 2.804753 1_555
O10 Rb6 2.933840 1_555
O10 Rb10 2.965668 1_555
O10 Rb14 2.974163 1_555
O10 Rb27 3.042854 1_555
O11 Si3 1.675987 1_555
O11 Rb7 2.789051 1_555
O11 Rb26 2.870483 1_555
O11 Rb11 2.874923 1_555
O11 Rb15 2.883876 1_555
O11 Rb3 2.908184 1_555
O12 Si2 1.669921 1_455
O12 Rb24 2.903803 1_555
O12 Rb16 2.918475 1_555
O12 Rb8 3.136928 1_465
O12 Rb12 3.175917 1_455
O12 Rb20 3.422479 1_565
O13 V2 1.750126 1_555
O13 Rb17 2.908892 1_555
O13 Rb25 3.071522 1_555
O13 Rb9 3.140023 1_545
O13 Rb13 3.195100 1_555
O13 Rb21 3.316078 1_545
O14 V3 1.750126 1_555
O14 Rb18 2.908892 1_555
O14 Rb26 3.071522 1_555
O14 Rb10 3.140023 1_545
O14 Rb14 3.195100 1_555
O14 Rb22 3.316078 1_545
O15 Si3 1.669921 1_655
O15 Rb27 2.903803 1_555
O15 Rb19 2.918475 1_555
O15 Rb11 3.136928 1_665
O15 Rb15 3.175917 1_655
O15 Rb23 3.422479 1_565
O16 Si2 1.682005 1_545
O16 Rb25 2.758945 1_555
O16 Rb5 2.916694 1_655
O16 Rb4 2.949074 1_545
O16 Rb8 2.951324 1_555
O16 Rb21 3.019538 1_545
O17 V2 1.756030 1_565
O17 Rb24 2.783197 1_555
O17 Rb5 2.989087 1_565
O17 Rb9 3.064779 1_555
O17 Rb20 3.080206 1_565
O17 Rb4 3.148803 1_555
O18 V3 1.756030 1_565
O18 Rb27 2.783197 1_555
O18 Rb6 2.989087 1_565
O18 Rb10 3.064779 1_555
O18 Rb23 3.080206 1_565
O18 Rb7 3.148803 1_555
O19 Si3 1.682005 1_545
O19 Rb26 2.758945 1_555
O19 Rb6 2.916694 1_455
O19 Rb7 2.949074 1_545
O19 Rb11 2.951324 1_555
O19 Rb22 3.019538 1_545
O20 Si0 1.675040 1_554
O20 Rb12 2.831360 1_554
O20 Rb0 2.852825 1_554
O20 Rb10 2.872587 1_555
O20 Rb14 2.879205 1_555
O20 Rb18 3.130333 1_555
O21 V0 1.744376 1_455
O21 Rb13 2.811204 1_555
O21 Rb15 2.915643 1_555
O21 Rb1 2.942397 1_555
O21 Rb11 3.070072 1_555
O21 Rb19 3.268671 1_455
O22 V1 1.744376 1_656
O22 Rb14 2.811204 1_556
O22 Rb12 2.915643 1_555
O22 Rb2 2.942397 1_556
O22 Rb8 3.070072 1_555
O22 Rb16 3.268671 1_655
O23 Si1 1.675040 1_555
O23 Rb15 2.831360 1_555
O23 Rb3 2.852825 1_555
O23 Rb9 2.872587 1_555
O23 Rb13 2.879205 1_555
O23 Rb17 3.130333 1_555
O24 Si0 1.682524 1_555
O24 Rb20 2.856239 1_565
O24 Rb0 2.897979 1_555
O24 Rb16 2.946633 1_555
O24 Rb24 3.074833 1_555
O24 Rb4 3.177466 1_555
O24 Rb18 3.442260 1_556
O25 V0 1.757400 1_555
O25 Rb1 2.912754 1_655
O25 Rb21 2.999735 1_545
O25 Rb25 3.058685 1_555
O25 Rb17 3.077885 1_555
O25 Rb5 3.224061 1_655
O26 V1 1.757400 1_555
O26 Rb2 2.912754 1_455
O26 Rb22 2.999735 1_545
O26 Rb26 3.058685 1_555
O26 Rb18 3.077885 1_555
O26 Rb6 3.224061 1_455
O27 Si1 1.682524 1_555
O27 Rb23 2.856239 1_565
O27 Rb3 2.897979 1_555
O27 Rb19 2.946633 1_555
O27 Rb27 3.074833 1_555
O27 Rb7 3.177466 1_555
O27 Rb17 3.442260 1_555
O28 Si0 1.682271 1_545
O28 Rb0 2.847396 1_555
O28 Rb14 2.963360 1_556
O28 Rb20 3.037260 1_555
O28 Rb4 3.080318 1_545
O28 Rb12 3.164125 1_545
O28 Rb18 3.168257 1_556
O29 V0 1.758893 1_465
O29 Rb1 2.777524 1_555
O29 Rb15 3.081981 1_555
O29 Rb5 3.162305 1_565
O29 Rb21 3.179572 1_455
O29 Rb13 3.252993 1_565
O29 Rb19 3.281409 1_455
O30 V1 1.758893 1_665
O30 Rb2 2.777524 1_555
O30 Rb12 3.081981 1_554
O30 Rb6 3.162305 1_565
O30 Rb22 3.179572 1_655
O30 Rb14 3.252993 1_565
O30 Rb16 3.281409 1_654
O31 Si1 1.682271 1_545
O31 Rb3 2.847396 1_555
O31 Rb13 2.963360 1_555
O31 Rb23 3.037260 1_555
O31 Rb7 3.080318 1_545
O31 Rb15 3.164125 1_545
O31 Rb17 3.168257 1_555
