# generated using pymatgen
data_Li4MnCo2O7
_symmetry_space_group_name_H-M   'P 1'
_cell_length_a   6.52683021
_cell_length_b   6.52683021
_cell_length_c   14.39111269
_cell_angle_alpha   70.12456421
_cell_angle_beta   70.12456421
_cell_angle_gamma   25.77504372
_symmetry_Int_Tables_number   1
_chemical_formula_structural   Li4MnCo2O7
_chemical_formula_sum   'Li8 Mn2 Co4 O14'
_cell_volume   249.84172318
_cell_formula_units_Z   2
loop_
 _symmetry_equiv_pos_site_id
 _symmetry_equiv_pos_as_xyz
  1  'x, y, z'
loop_
 _atom_site_type_symbol
 _atom_site_label
 _atom_site_symmetry_multiplicity
 _atom_site_fract_x
 _atom_site_fract_y
 _atom_site_fract_z
 _atom_site_occupancy
  Li  Li0  1  0.27617100  0.27617100  0.07677700  1
  Li  Li1  1  0.85990500  0.85990500  0.21694800  1
  Li  Li2  1  0.43497700  0.43497700  0.34623100  1
  Li  Li3  1  0.71523500  0.71523500  0.93691900  1
  Li  Li4  1  0.14005600  0.14005600  0.79161000  1
  Li  Li5  1  0.00181000  0.00181000  0.49658400  1
  Li  Li6  1  0.56996200  0.56996200  0.64224100  1
  Li  Li7  1  0.57362600  0.57362600  0.13984600  1
  Mn  Mn0  1  0.00318400  0.00318400  0.00099400  1
  Mn  Mn1  1  0.28308600  0.28308600  0.57299400  1
  Co  Co0  1  0.13785200  0.13785200  0.27400000  1
  Co  Co1  1  0.70898500  0.70898500  0.42097200  1
  Co  Co2  1  0.85959900  0.85959900  0.71874400  1
  Co  Co3  1  0.42935000  0.42935000  0.85754600  1
  O  O0  1  0.43674800  0.43674800  0.08964000  1
  O  O1  1  0.00618300  0.00618300  0.25367600  1
  O  O2  1  0.57701300  0.57701300  0.39486300  1
  O  O3  1  0.87251200  0.87251200  0.95131700  1
  O  O4  1  0.29689600  0.29689600  0.81801500  1
  O  O5  1  0.15352600  0.15352600  0.53572400  1
  O  O6  1  0.72217800  0.72217800  0.66898300  1
  O  O7  1  0.13302600  0.13302600  0.02931700  1
  O  O8  1  0.71407400  0.71407400  0.18431900  1
  O  O9  1  0.28203300  0.28203300  0.32799000  1
  O  O10  1  0.55854000  0.55854000  0.89948900  1
  O  O11  1  0.99290500  0.99290500  0.76199900  1
  O  O12  1  0.84362500  0.84362500  0.48025200  1
  O  O13  1  0.41694200  0.41694200  0.61201100  1
loop_
_geom_bond_atom_site_label_1
_geom_bond_atom_site_label_2
_geom_bond_distance
_geom_bond_site_symmetry_2
Li0 O8 2.070201 1_545
Li0 O8 2.070201 1_455
Li0 O0 2.115004 1_555
Li0 O7 2.156878 1_555
Li0 O3 2.310409 1_454
Li0 O3 2.310409 1_544
Li1 O8 2.066839 1_555
Li1 O1 2.104827 1_665
Li1 O9 2.133117 1_655
Li1 O9 2.133117 1_565
Li1 O0 2.276465 1_565
Li1 O0 2.276465 1_655
Li2 O1 1.967856 1_565
Li2 O1 1.967856 1_655
Li2 O9 2.052538 1_555
Li2 O2 2.153782 1_555
Li2 O12 2.372022 1_455
Li2 O12 2.372022 1_545
Li3 O7 2.002832 1_656
Li3 O7 2.002832 1_566
Li3 O3 2.082662 1_555
Li3 O4 2.210594 1_565
Li3 O4 2.210594 1_655
Li3 O10 2.239427 1_555
Li4 O11 2.060174 1_445
Li4 O10 2.117091 1_545
Li4 O10 2.117091 1_455
Li4 O4 2.157883 1_555
Li4 O6 2.244801 1_545
Li4 O6 2.244801 1_455
Li5 O2 2.049563 1_545
Li5 O2 2.049563 1_455
Li5 O12 2.106399 1_445
Li5 O13 2.189394 1_545
Li5 O13 2.189394 1_455
Li5 O5 2.191539 1_555
Li6 O6 2.102315 1_555
Li6 O5 2.112501 1_565
Li6 O5 2.112501 1_655
Li6 O13 2.138117 1_555
Li6 O11 2.207292 1_545
Li6 O11 2.207292 1_455
Li7 O7 2.093314 1_655
Li7 O7 2.093314 1_565
Li7 O8 2.097968 1_555
Li7 O0 2.105594 1_555
Li7 O1 2.135075 1_655
Li7 O1 2.135075 1_565
Mn0 O7 1.834586 1_555
Mn0 O0 1.925881 1_455
Mn0 O0 1.925881 1_545
Mn0 O10 2.007847 1_544
Mn0 O10 2.007847 1_454
Mn0 O3 2.026104 1_444
Mn1 O5 1.903273 1_555
Mn1 O12 1.943385 1_545
Mn1 O12 1.943385 1_455
Mn1 O6 1.970097 1_455
Mn1 O6 1.970097 1_545
Mn1 O13 1.970687 1_555
Co0 O1 1.798487 1_555
Co0 O8 1.962755 1_545
Co0 O8 1.962755 1_455
Co0 O2 2.191936 1_455
Co0 O2 2.191936 1_545
Co0 O9 2.228018 1_555
Co1 O2 1.844296 1_555
Co1 O9 1.976393 1_565
Co1 O9 1.976393 1_655
Co1 O5 2.128714 1_655
Co1 O5 2.128714 1_565
Co1 O12 2.163929 1_555
Co2 O11 2.000361 1_555
Co2 O4 2.000409 1_565
Co2 O4 2.000409 1_655
Co2 O13 2.056482 1_655
Co2 O13 2.056482 1_565
Co2 O6 2.108104 1_555
Co3 O10 1.938803 1_555
Co3 O3 1.944871 1_455
Co3 O3 1.944871 1_545
Co3 O4 1.957861 1_555
Co3 O11 1.971859 1_545
Co3 O11 1.971859 1_455
