# generated using pymatgen
data_Mg3Si4
_symmetry_space_group_name_H-M   'P 1'
_cell_length_a   3.68245800
_cell_length_b   8.52137800
_cell_length_c   8.52985735
_cell_angle_alpha   72.11783031
_cell_angle_beta   90.00000000
_cell_angle_gamma   90.00000000
_symmetry_Int_Tables_number   1
_chemical_formula_structural   Mg3Si4
_chemical_formula_sum   'Mg6 Si8'
_cell_volume   254.73282394
_cell_formula_units_Z   2
loop_
 _symmetry_equiv_pos_site_id
 _symmetry_equiv_pos_as_xyz
  1  'x, y, z'
loop_
 _atom_site_type_symbol
 _atom_site_label
 _atom_site_symmetry_multiplicity
 _atom_site_fract_x
 _atom_site_fract_y
 _atom_site_fract_z
 _atom_site_occupancy
  Mg  Mg0  1  0.50000000  0.54272200  0.72772500  1
  Mg  Mg1  1  0.00000000  0.23124300  0.92387600  1
  Mg  Mg2  1  0.00000000  0.15190200  0.36907500  1
  Mg  Mg3  1  0.50000000  0.09164900  0.68964600  1
  Mg  Mg4  1  0.00000000  0.55444200  0.07119300  1
  Mg  Mg5  1  0.00000000  0.69315000  0.37486300  1
  Si  Si0  1  0.50000000  0.30622700  0.12607500  1
  Si  Si1  1  0.50000000  0.43113100  0.36687700  1
  Si  Si2  1  0.00000000  0.82375500  0.67605400  1
  Si  Si3  1  0.50000000  0.88772500  0.47465000  1
  Si  Si4  1  0.50000000  0.00296200  0.17758500  1
  Si  Si5  1  0.00000000  0.89493600  0.04541200  1
  Si  Si6  1  0.00000000  0.35633800  0.57651600  1
  Si  Si7  1  0.50000000  0.78508700  0.90060400  1
loop_
_geom_bond_atom_site_label_1
_geom_bond_atom_site_label_2
_geom_bond_distance
_geom_bond_site_symmetry_2
Mg0 Si7 2.882753 1_555
Mg0 Si2 2.944689 1_555
Mg0 Si2 2.944689 1_655
Mg0 Si6 2.972247 1_655
Mg0 Si6 2.972247 1_555
Mg0 Si3 3.066847 1_555
Mg1 Si0 2.729447 1_556
Mg1 Si0 2.729447 1_456
Mg1 Si5 2.731851 1_546
Mg1 Si6 2.824114 1_555
Mg1 Si4 3.045033 1_456
Mg1 Si4 3.045033 1_556
Mg2 Si0 2.782419 1_555
Mg2 Si0 2.782419 1_455
Mg2 Si3 2.832632 1_545
Mg2 Si3 2.832632 1_445
Mg2 Si6 2.838800 1_555
Mg2 Si4 2.990312 1_555
Mg2 Si4 2.990312 1_455
Mg2 Si1 3.004114 1_555
Mg2 Si1 3.004114 1_455
Mg2 Si2 3.190453 1_545
Mg3 Si7 2.678701 1_545
Mg3 Si6 2.841128 1_655
Mg3 Si6 2.841128 1_555
Mg3 Si3 2.887879 1_545
Mg3 Si2 2.962667 1_545
Mg3 Si2 2.962667 1_645
Mg4 Si0 2.734041 1_555
Mg4 Si0 2.734041 1_455
Mg4 Si7 2.759344 1_554
Mg4 Si7 2.759344 1_454
Mg4 Si5 2.841670 1_555
Mg4 Si1 3.037748 1_555
Mg4 Si1 3.037748 1_455
Mg5 Si3 2.780365 1_555
Mg5 Si3 2.780365 1_455
Mg5 Si5 2.808245 1_555
Mg5 Si6 2.857333 1_555
Mg5 Si1 2.910910 1_455
Mg5 Si1 2.910910 1_555
Mg5 Si2 3.097566 1_555
Si0 Si4 2.484758 1_555
Si0 Si1 2.587350 1_555
Si1 Si6 2.508794 1_555
Si1 Si6 2.508794 1_655
Si2 Si3 2.462419 1_555
Si2 Si3 2.462419 1_455
Si2 Si7 2.603803 1_455
Si2 Si7 2.603803 1_555
Si3 Si4 2.420114 1_565
Si4 Si5 2.479096 1_645
Si4 Si5 2.479096 1_545
Si5 Si7 2.549921 1_554
Si5 Si7 2.549921 1_454
