# generated using pymatgen
data_NaNdF4
_symmetry_space_group_name_H-M   'P 1'
_cell_length_a   6.06515988
_cell_length_b   7.08095918
_cell_length_c   7.08975757
_cell_angle_alpha   63.01142489
_cell_angle_beta   64.76515802
_cell_angle_gamma   64.77283061
_symmetry_Int_Tables_number   1
_chemical_formula_structural   NaNdF4
_chemical_formula_sum   'Na3 Nd3 F12'
_cell_volume   234.97945793
_cell_formula_units_Z   3
loop_
 _symmetry_equiv_pos_site_id
 _symmetry_equiv_pos_as_xyz
  1  'x, y, z'
loop_
 _atom_site_type_symbol
 _atom_site_label
 _atom_site_symmetry_multiplicity
 _atom_site_fract_x
 _atom_site_fract_y
 _atom_site_fract_z
 _atom_site_occupancy
  Na  Na0  1  0.66565550  0.48310455  0.16675780  1
  Na  Na1  1  0.66256264  0.00323383  0.68268633  1
  Na  Na2  1  0.33032250  0.42645679  0.90908604  1
  Nd  Nd0  1  0.00283420  0.99895935  0.99820220  1
  Nd  Nd1  1  0.99738700  0.49819864  0.50490983  1
  Nd  Nd2  1  0.33584293  0.92109106  0.40910882  1
  F  F0  1  0.36856179  0.54058367  0.50022377  1
  F  F1  1  0.37129889  0.00678531  0.03009667  1
  F  F2  1  0.58959017  0.70916519  0.66232795  1
  F  F3  1  0.59385703  0.16902887  0.19782269  1
  F  F4  1  0.03724634  0.27933443  0.31344709  1
  F  F5  1  0.04414049  0.81818810  0.77025777  1
  F  F6  1  0.25907344  0.62429059  0.12929607  1
  F  F7  1  0.27764614  0.12920894  0.62551557  1
  F  F8  1  0.98260451  0.38122205  0.88438153  1
  F  F9  1  0.97357424  0.88714640  0.38522842  1
  F  F10  1  0.75537802  0.73331328  0.23247152  1
  F  F11  1  0.75242517  0.24268795  0.74617995  1
loop_
_geom_bond_atom_site_label_1
_geom_bond_atom_site_label_2
_geom_bond_distance
_geom_bond_site_symmetry_2
F0 Na0 2.370185 1_555
F0 Nd1 2.379570 1_455
F0 Nd2 2.406250 1_555
F0 Na2 2.563180 1_555
F1 Na1 2.344424 1_554
F1 Nd0 2.365659 1_544
F1 Nd2 2.402829 1_545
F1 Na2 2.620485 1_554
F2 Nd1 2.367413 1_555
F2 Na1 2.380228 1_565
F2 Nd2 2.405298 1_555
F2 Na2 2.588388 1_555
F3 Na0 2.341649 1_555
F3 Nd0 2.369261 1_644
F3 Nd2 2.394007 1_545
F3 Na2 2.643403 1_554
F4 Nd1 2.369181 1_455
F4 Nd2 2.396756 1_545
F4 Na0 2.471337 1_455
F4 Na2 2.643176 1_554
F5 Na1 2.315244 1_465
F5 Nd0 2.360487 1_555
F5 Nd2 2.400003 1_555
F5 Na2 2.559364 1_555
F6 Na0 2.316691 1_555
F6 Na2 2.341013 1_554
F6 Nd0 2.407619 1_554
F6 Nd1 2.419495 1_455
F7 Na1 2.261368 1_555
F7 Nd2 2.407756 1_545
F7 Nd1 2.423423 1_455
F7 Nd0 2.440020 1_545
F8 Na0 2.251898 1_556
F8 Na2 2.350043 1_655
F8 Nd1 2.401503 1_555
F8 Nd0 2.410759 1_645
F9 Na1 2.353962 1_565
F9 Nd2 2.391341 1_655
F9 Nd0 2.433151 1_654
F9 Nd1 2.443443 1_555
F10 Na0 2.332248 1_555
F10 Nd2 2.391906 1_555
F10 Nd0 2.448441 1_654
F10 Nd1 2.464285 1_555
F11 Na1 2.250410 1_555
F11 Na2 2.363177 1_555
F11 Nd1 2.392124 1_555
F11 Nd0 2.399680 1_645
