# generated using pymatgen
data_Zr4N3OF5
_symmetry_space_group_name_H-M   'P 1'
_cell_length_a   5.36986549
_cell_length_b   5.15051942
_cell_length_c   21.54204488
_cell_angle_alpha   89.73781346
_cell_angle_beta   90.00000000
_cell_angle_gamma   90.00000000
_symmetry_Int_Tables_number   1
_chemical_formula_structural   Zr4N3OF5
_chemical_formula_sum   'Zr16 N12 O4 F20'
_cell_volume   595.79494676
_cell_formula_units_Z   4
loop_
 _symmetry_equiv_pos_site_id
 _symmetry_equiv_pos_as_xyz
  1  'x, y, z'
loop_
 _atom_site_type_symbol
 _atom_site_label
 _atom_site_symmetry_multiplicity
 _atom_site_fract_x
 _atom_site_fract_y
 _atom_site_fract_z
 _atom_site_occupancy
  Zr  Zr0  1  0.71267837  0.81320651  0.12788875  1
  Zr  Zr1  1  0.28732163  0.18679349  0.87211125  1
  Zr  Zr2  1  0.21267837  0.18679349  0.37211125  1
  Zr  Zr3  1  0.78732163  0.81320651  0.62788875  1
  Zr  Zr4  1  0.27023731  0.80936373  0.25003043  1
  Zr  Zr5  1  0.72976269  0.19063627  0.74996957  1
  Zr  Zr6  1  0.77023731  0.19063627  0.24996957  1
  Zr  Zr7  1  0.22976269  0.80936373  0.75003043  1
  Zr  Zr8  1  0.71955414  0.80075302  0.37157574  1
  Zr  Zr9  1  0.28044586  0.19924698  0.62842426  1
  Zr  Zr10  1  0.21955414  0.19924698  0.12842426  1
  Zr  Zr11  1  0.78044586  0.80075302  0.87157574  1
  Zr  Zr12  1  0.73315085  0.19763925  0.99922350  1
  Zr  Zr13  1  0.26684915  0.80236075  0.00077650  1
  Zr  Zr14  1  0.23315085  0.80236075  0.50077650  1
  Zr  Zr15  1  0.76684915  0.19763925  0.49922350  1
  N  N0  1  0.96429113  0.97075441  0.43789448  1
  N  N1  1  0.03570887  0.02924559  0.56210552  1
  N  N2  1  0.46429113  0.02924559  0.06210552  1
  N  N3  1  0.53570887  0.97075441  0.93789448  1
  N  N4  1  0.50140229  0.95851265  0.68558343  1
  N  N5  1  0.49859771  0.04148735  0.31441657  1
  N  N6  1  0.00140229  0.04148735  0.81441657  1
  N  N7  1  -0.00140229  0.95851265  0.18558343  1
  N  N8  1  -0.00212863  0.95588377  0.31224970  1
  N  N9  1  0.00212863  0.04411623  0.68775030  1
  N  N10  1  0.49787137  0.04411623  0.18775030  1
  N  N11  1  0.50212863  0.95588377  0.81224970  1
  O  O0  1  0.46459104  0.01441507  0.43983290  1
  O  O1  1  0.53540896  0.98558493  0.56016710  1
  O  O2  1  0.96459104  0.98558493  0.06016710  1
  O  O3  1  0.03540896  0.01441507  0.93983290  1
  F  F0  1  0.62619802  0.57691587  0.25155879  1
  F  F1  1  0.37380198  0.42308413  0.74844121  1
  F  F2  1  0.12619802  0.42308413  0.24844121  1
  F  F3  1  0.87380198  0.57691587  0.75155879  1
  F  F4  1  0.61998796  0.54773840  0.04774358  1
  F  F5  1  0.38001204  0.45226160  0.95225642  1
  F  F6  1  0.11998796  0.45226160  0.45225642  1
  F  F7  1  0.88001204  0.54773840  0.54774358  1
  F  F8  1  0.62294884  0.52336903  0.44841674  1
  F  F9  1  0.37705116  0.47663097  0.55158326  1
  F  F10  1  0.12294884  0.47663097  0.05158326  1
  F  F11  1  0.87705116  0.52336903  0.94841674  1
  F  F12  1  0.86463633  0.43523896  0.14977711  1
  F  F13  1  0.13536367  0.56476104  0.85022289  1
  F  F14  1  0.36463633  0.56476104  0.35022289  1
  F  F15  1  0.63536367  0.43523896  0.64977711  1
  F  F16  1  0.87649398  0.43122158  0.34830603  1
  F  F17  1  0.12350602  0.56877842  0.65169397  1
  F  F18  1  0.37649398  0.56877842  0.15169397  1
  F  F19  1  0.62350602  0.43122158  0.84830603  1
loop_
_geom_bond_atom_site_label_1
_geom_bond_atom_site_label_2
_geom_bond_distance
_geom_bond_site_symmetry_2
N0 Zr15 2.061369 1_565
N0 Zr8 2.132197 1_555
N0 Zr14 2.158896 1_655
N0 Zr2 2.238510 1_665
N1 Zr14 2.061369 1_545
N1 Zr9 2.132197 1_555
N1 Zr15 2.158896 1_455
N1 Zr3 2.238510 1_445
N2 Zr13 2.061369 1_545
N2 Zr10 2.132197 1_555
N2 Zr12 2.158896 1_554
N2 Zr0 2.238510 1_545
N3 Zr12 2.061369 1_565
N3 Zr11 2.132197 1_555
N3 Zr13 2.158896 1_556
N3 Zr1 2.238510 1_565
N4 Zr9 2.108875 1_565
N4 Zr3 2.114384 1_555
N4 Zr7 2.153023 1_555
N4 Zr5 2.207273 1_565
N5 Zr8 2.108875 1_545
N5 Zr2 2.114384 1_555
N5 Zr6 2.153023 1_555
N5 Zr4 2.207273 1_545
N6 Zr11 2.108875 1_445
N6 Zr1 2.114384 1_555
N6 Zr5 2.153023 1_455
N6 Zr7 2.207273 1_545
N7 Zr10 2.108875 1_565
N7 Zr0 2.114384 1_455
N7 Zr4 2.153023 1_555
N7 Zr6 2.207273 1_465
N8 Zr2 2.102837 1_565
N8 Zr8 2.120369 1_455
N8 Zr4 2.124700 1_555
N8 Zr6 2.177440 1_465
N9 Zr3 2.102837 1_445
N9 Zr9 2.120369 1_555
N9 Zr5 2.124700 1_455
N9 Zr7 2.177440 1_545
N10 Zr0 2.102837 1_545
N10 Zr10 2.120369 1_555
N10 Zr6 2.124700 1_555
N10 Zr4 2.177440 1_545
N11 Zr1 2.102837 1_565
N11 Zr11 2.120369 1_555
N11 Zr7 2.124700 1_555
N11 Zr5 2.177440 1_565
O0 Zr14 2.109002 1_545
O0 Zr2 2.175909 1_555
O0 Zr15 2.274396 1_555
O0 Zr8 2.293992 1_545
O1 Zr15 2.109002 1_565
O1 Zr3 2.175909 1_555
O1 Zr14 2.274396 1_555
O1 Zr9 2.293992 1_565
O2 Zr12 2.109002 1_564
O2 Zr0 2.175909 1_555
O2 Zr13 2.274396 1_655
O2 Zr10 2.293992 1_665
O3 Zr13 2.109002 1_546
O3 Zr1 2.175909 1_555
O3 Zr12 2.274396 1_455
O3 Zr11 2.293992 1_445
F0 Zr6 2.135024 1_555
F0 Zr4 2.255606 1_555
F1 Zr7 2.135024 1_555
F1 Zr5 2.255606 1_555
F2 Zr4 2.135024 1_555
F2 Zr6 2.255606 1_455
F3 Zr5 2.135024 1_555
F3 Zr7 2.255606 1_655
F4 Zr12 2.174972 1_554
F4 Zr0 2.262658 1_555
F4 Zr13 2.515428 1_555
F5 Zr13 2.174972 1_556
F5 Zr1 2.262658 1_555
F5 Zr12 2.515428 1_555
F6 Zr14 2.174972 1_555
F6 Zr2 2.262658 1_555
F6 Zr15 2.515428 1_455
F7 Zr15 2.174972 1_555
F7 Zr3 2.262658 1_555
F7 Zr14 2.515428 1_655
F8 Zr15 2.143080 1_555
F8 Zr8 2.242460 1_555
F8 Zr14 2.780870 1_555
F9 Zr14 2.143080 1_555
F9 Zr9 2.242460 1_555
F9 Zr15 2.780870 1_555
F10 Zr13 2.143080 1_555
F10 Zr10 2.242460 1_555
F10 Zr12 2.780870 1_454
F11 Zr12 2.143080 1_555
F11 Zr11 2.242460 1_555
F11 Zr13 2.780870 1_656
F12 Zr0 2.160910 1_555
F12 Zr10 2.307900 1_655
F12 Zr6 2.545137 1_555
F13 Zr1 2.160910 1_555
F13 Zr11 2.307900 1_455
F13 Zr7 2.545137 1_555
F14 Zr2 2.160910 1_555
F14 Zr8 2.307900 1_555
F14 Zr4 2.545137 1_555
F15 Zr3 2.160910 1_555
F15 Zr9 2.307900 1_555
F15 Zr5 2.545137 1_555
F16 Zr8 2.143059 1_555
F16 Zr2 2.258530 1_655
F16 Zr6 2.524389 1_555
F17 Zr9 2.143059 1_555
F17 Zr3 2.258530 1_455
F17 Zr7 2.524389 1_555
F18 Zr10 2.143059 1_555
F18 Zr0 2.258530 1_555
F18 Zr4 2.524389 1_555
F19 Zr11 2.143059 1_555
F19 Zr1 2.258530 1_555
F19 Zr5 2.524389 1_555
