# generated using pymatgen
data_VH11C3(ClO2)2
_symmetry_space_group_name_H-M   'P 1'
_cell_length_a   9.45943600
_cell_length_b   11.16074000
_cell_length_c   13.08144495
_cell_angle_alpha   90.00000000
_cell_angle_beta   127.44594840
_cell_angle_gamma   90.00000000
_symmetry_Int_Tables_number   1
_chemical_formula_structural   VH11C3(ClO2)2
_chemical_formula_sum   'V4 H44 C12 Cl8 O16'
_cell_volume   1096.46475634
_cell_formula_units_Z   4
loop_
 _symmetry_equiv_pos_site_id
 _symmetry_equiv_pos_as_xyz
  1  'x, y, z'
loop_
 _atom_site_type_symbol
 _atom_site_label
 _atom_site_symmetry_multiplicity
 _atom_site_fract_x
 _atom_site_fract_y
 _atom_site_fract_z
 _atom_site_occupancy
  V  V0  1  0.13282800  0.80659600  0.90664900  1
  V  V1  1  0.13282800  0.69340400  0.40664900  1
  V  V2  1  0.86717200  0.19340400  0.09335100  1
  V  V3  1  0.86717200  0.30659600  0.59335100  1
  H  H0  1  0.02182200  0.57386500  0.83307900  1
  H  H1  1  0.02182200  0.92613500  0.33307900  1
  H  H2  1  0.97817800  0.42613500  0.16692100  1
  H  H3  1  0.97817800  0.07386500  0.66692100  1
  H  H4  1  0.18987600  0.73823200  0.73277200  1
  H  H5  1  0.18987600  0.76176800  0.23277200  1
  H  H6  1  0.81012400  0.26176800  0.26722800  1
  H  H7  1  0.81012400  0.23823200  0.76722800  1
  H  H8  1  0.23736100  0.10418300  0.94865700  1
  H  H9  1  0.23736100  0.39581700  0.44865700  1
  H  H10  1  0.76263900  0.89581700  0.05134300  1
  H  H11  1  0.76263900  0.60418300  0.55134300  1
  H  H12  1  0.45286000  0.05734200  0.08649700  1
  H  H13  1  0.45286000  0.44265800  0.58649700  1
  H  H14  1  0.54714000  0.94265800  0.91350300  1
  H  H15  1  0.54714000  0.55734200  0.41350300  1
  H  H16  1  0.25618300  0.02768000  0.07638500  1
  H  H17  1  0.25618300  0.47232000  0.57638500  1
  H  H18  1  0.74381700  0.97232000  0.92361500  1
  H  H19  1  0.74381700  0.52768000  0.42361500  1
  H  H20  1  0.83789500  0.64550100  0.90749200  1
  H  H21  1  0.83789500  0.85449900  0.40749200  1
  H  H22  1  0.16210500  0.35449900  0.09250800  1
  H  H23  1  0.16210500  0.14550100  0.59250800  1
  H  H24  1  0.75490100  0.54351700  0.77580500  1
  H  H25  1  0.75490100  0.95648300  0.27580500  1
  H  H26  1  0.24509900  0.45648300  0.22419500  1
  H  H27  1  0.24509900  0.04351700  0.72419500  1
  H  H28  1  0.70729200  0.70119300  0.74532400  1
  H  H29  1  0.70729200  0.79880700  0.24532400  1
  H  H30  1  0.29270800  0.29880700  0.25467600  1
  H  H31  1  0.29270800  0.20119300  0.75467600  1
  H  H32  1  0.49397500  0.64316800  0.97148800  1
  H  H33  1  0.49397500  0.85683200  0.47148800  1
  H  H34  1  0.50602500  0.35683200  0.02851200  1
  H  H35  1  0.50602500  0.14316800  0.52851200  1
  H  H36  1  0.46351900  0.66153800  0.82332400  1
  H  H37  1  0.46351900  0.83846200  0.32332400  1
  H  H38  1  0.53648100  0.33846200  0.17667600  1
  H  H39  1  0.53648100  0.16153800  0.67667600  1
  H  H40  1  0.35036400  0.54278500  0.84025600  1
  H  H41  1  0.35036400  0.95721500  0.34025600  1
  H  H42  1  0.64963600  0.45721500  0.15974400  1
  H  H43  1  0.64963600  0.04278500  0.65974400  1
  C  C0  1  0.31062300  0.03399200  0.02250300  1
  C  C1  1  0.31062300  0.46600800  0.52250300  1
  C  C2  1  0.68937700  0.96600800  0.97749700  1
  C  C3  1  0.68937700  0.53399200  0.47749700  1
  C  C4  1  0.80587300  0.63409400  0.81208100  1
  C  C5  1  0.80587300  0.86590600  0.31208100  1
  C  C6  1  0.19412700  0.36590600  0.18791900  1
  C  C7  1  0.19412700  0.13409400  0.68791900  1
  C  C8  1  0.39881400  0.63549300  0.86650500  1
  C  C9  1  0.39881400  0.86450700  0.36650500  1
  C  C10  1  0.60118600  0.36450700  0.13349500  1
  C  C11  1  0.60118600  0.13549300  0.63349500  1
  Cl  Cl0  1  0.31599200  0.67708600  0.07802400  1
  Cl  Cl1  1  0.31599200  0.82291400  0.57802400  1
  Cl  Cl2  1  0.68400800  0.32291400  0.92197600  1
  Cl  Cl3  1  0.68400800  0.17708600  0.42197600  1
  Cl  Cl4  1  0.94736100  0.87992500  0.68850900  1
  Cl  Cl5  1  0.94736100  0.62007500  0.18850900  1
  Cl  Cl6  1  0.05263900  0.12007500  0.31149100  1
  Cl  Cl7  1  0.05263900  0.37992500  0.81149100  1
  O  O0  1  0.01572800  0.85747400  0.94904300  1
  O  O1  1  0.01572800  0.64252600  0.44904300  1
  O  O2  1  0.98427200  0.14252600  0.05095700  1
  O  O3  1  0.98427200  0.35747400  0.55095700  1
  O  O4  1  0.29213500  0.92365500  0.96159700  1
  O  O5  1  0.29213500  0.57634500  0.46159700  1
  O  O6  1  0.70786500  0.07634500  0.03840300  1
  O  O7  1  0.70786500  0.42365500  0.53840300  1
  O  O8  1  0.96236800  0.65188100  0.81811800  1
  O  O9  1  0.96236800  0.84811900  0.31811800  1
  O  O10  1  0.03763200  0.34811900  0.18188200  1
  O  O11  1  0.03763200  0.15188100  0.68188200  1
  O  O12  1  0.25310900  0.71649500  0.82325200  1
  O  O13  1  0.25310900  0.78350500  0.32325200  1
  O  O14  1  0.74689100  0.28350500  0.17674800  1
  O  O15  1  0.74689100  0.21649500  0.67674800  1
loop_
_geom_bond_atom_site_label_1
_geom_bond_atom_site_label_2
_geom_bond_distance
_geom_bond_site_symmetry_2
H0 O8 0.989393 1_455
H1 O9 0.989393 1_455
H2 O10 0.989393 1_655
H3 O11 0.989393 1_655
H4 O12 0.978086 1_555
H5 O13 0.978086 1_555
H6 O14 0.978086 1_555
H7 O15 0.978086 1_555
C0 H16 1.099259 1_555
C0 H12 1.099709 1_555
C0 H8 1.101389 1_554
C0 O4 1.418587 1_544
C1 H17 1.099259 1_555
C1 H13 1.099709 1_555
C1 H9 1.101389 1_555
C1 O5 1.418587 1_555
C2 H18 1.099259 1_555
C2 H14 1.099709 1_555
C2 H10 1.101389 1_556
C2 O6 1.418587 1_566
C3 H19 1.099259 1_555
C3 H15 1.099709 1_555
C3 H11 1.101389 1_555
C3 O7 1.418587 1_555
C4 H24 1.096070 1_555
C4 H28 1.096701 1_555
C4 H20 1.098186 1_555
C4 O8 1.447388 1_555
C5 H25 1.096070 1_555
C5 H29 1.096701 1_555
C5 H21 1.098186 1_555
C5 O9 1.447388 1_555
C6 H26 1.096070 1_555
C6 H30 1.096701 1_555
C6 H22 1.098186 1_555
C6 O10 1.447388 1_555
C7 H27 1.096070 1_555
C7 H31 1.096701 1_555
C7 H23 1.098186 1_555
C7 O11 1.447388 1_555
C8 H36 1.094823 1_555
C8 H32 1.095623 1_555
C8 H40 1.098712 1_555
C8 O12 1.445265 1_555
C9 H37 1.094823 1_555
C9 H33 1.095623 1_555
C9 H41 1.098712 1_555
C9 O13 1.445265 1_555
C10 H38 1.094823 1_555
C10 H34 1.095623 1_555
C10 H42 1.098712 1_555
C10 O14 1.445265 1_555
C11 H39 1.094823 1_555
C11 H35 1.095623 1_555
C11 H43 1.098712 1_555
C11 O15 1.445265 1_555
Cl0 V0 2.322437 1_554
Cl1 V1 2.322437 1_555
Cl2 V2 2.322437 1_556
Cl3 V3 2.322437 1_555
Cl4 V0 2.408908 1_655
Cl5 V1 2.408908 1_655
Cl6 V2 2.408908 1_455
Cl7 V3 2.408908 1_455
O0 V0 1.613691 1_555
O1 V1 1.613691 1_555
O2 V2 1.613691 1_555
O3 V3 1.613691 1_555
O4 V0 1.782481 1_555
O5 V1 1.782481 1_555
O6 V2 1.782481 1_555
O7 V3 1.782481 1_555
O8 V0 2.156858 1_655
O9 V1 2.156858 1_655
O10 V2 2.156858 1_455
O11 V3 2.156858 1_455
O12 V0 2.237273 1_555
O13 V1 2.237273 1_555
O14 V2 2.237273 1_555
O15 V3 2.237273 1_555
