# generated using pymatgen
data_Yb(ZnSi)2
_symmetry_space_group_name_H-M   'P 1'
_cell_length_a   6.11193680
_cell_length_b   6.11193680
_cell_length_c   6.11193680
_cell_angle_alpha   142.44705633
_cell_angle_beta   142.44705633
_cell_angle_gamma   54.15595709
_symmetry_Int_Tables_number   1
_chemical_formula_structural   Yb(ZnSi)2
_chemical_formula_sum   'Yb1 Zn2 Si2'
_cell_volume   84.24719994
_cell_formula_units_Z   1
loop_
 _symmetry_equiv_pos_site_id
 _symmetry_equiv_pos_as_xyz
  1  'x, y, z'
loop_
 _atom_site_type_symbol
 _atom_site_label
 _atom_site_symmetry_multiplicity
 _atom_site_fract_x
 _atom_site_fract_y
 _atom_site_fract_z
 _atom_site_occupancy
  Yb  Yb0  1  0.00000000  0.00000000  0.00000000  1
  Zn  Zn0  1  0.75000000  0.25000000  0.50000000  1
  Zn  Zn1  1  0.25000000  0.75000000  0.50000000  1
  Si  Si0  1  0.39284295  0.39284295  0.00000000  1
  Si  Si1  1  0.60715705  0.60715705  0.00000000  1
loop_
_geom_bond_atom_site_label_1
_geom_bond_atom_site_label_2
_geom_bond_distance
_geom_bond_site_symmetry_2
Si0 Si1 2.332592 1_555
Si0 Zn0 2.507455 1_555
Si0 Zn1 2.507455 1_555
Si0 Zn0 2.507455 1_454
Si0 Zn1 2.507455 1_544
Si0 Yb0 3.016740 1_666
Si0 Yb0 3.016740 1_554
Si0 Yb0 3.016740 1_565
Si0 Yb0 3.016740 1_655
Si1 Zn1 2.507455 1_655
Si1 Zn1 2.507455 1_554
Si1 Zn0 2.507455 1_554
Si1 Zn0 2.507455 1_565
Si1 Yb0 3.016740 1_554
Si1 Yb0 3.016740 1_655
Si1 Yb0 3.016740 1_565
Si1 Yb0 3.016740 1_666
