# generated using pymatgen
data_LiYSe2
_symmetry_space_group_name_H-M   'P 1'
_cell_length_a   6.86626817
_cell_length_b   6.86626817
_cell_length_c   6.86626883
_cell_angle_alpha   34.38684622
_cell_angle_beta   34.38684622
_cell_angle_gamma   34.38683926
_symmetry_Int_Tables_number   1
_chemical_formula_structural   LiYSe2
_chemical_formula_sum   'Li1 Y1 Se2'
_cell_volume   92.09990727
_cell_formula_units_Z   1
loop_
 _symmetry_equiv_pos_site_id
 _symmetry_equiv_pos_as_xyz
  1  'x, y, z'
loop_
 _atom_site_type_symbol
 _atom_site_label
 _atom_site_symmetry_multiplicity
 _atom_site_fract_x
 _atom_site_fract_y
 _atom_site_fract_z
 _atom_site_occupancy
  Li  Li0  1  0.50000000  0.50000000  0.50000000  1
  Y  Y0  1  0.00000000  0.00000000  -0.00000000  1
  Se  Se0  1  0.24891772  0.24891772  0.24891772  1
  Se  Se1  1  0.75108228  0.75108228  0.75108228  1
loop_
_geom_bond_atom_site_label_1
_geom_bond_atom_site_label_2
_geom_bond_distance
_geom_bond_site_symmetry_2
Li0 Se1 2.833515 1_545
Li0 Se1 2.833515 1_455
Li0 Se0 2.833515 1_655
Li0 Se0 2.833515 1_565
Li0 Se1 2.833516 1_554
Li0 Se0 2.833516 1_556
Se0 Y0 2.857280 1_565
Se0 Y0 2.857280 1_655
Se0 Y0 2.857281 1_556
Se1 Y0 2.857280 1_566
Se1 Y0 2.857280 1_656
Se1 Y0 2.857281 1_665
