# generated using pymatgen
data_FePH6NO5
_symmetry_space_group_name_H-M   'P 1'
_cell_length_a   4.83251401
_cell_length_b   11.43152137
_cell_length_c   9.01457331
_cell_angle_alpha   89.97048133
_cell_angle_beta   90.00417995
_cell_angle_gamma   90.00334813
_symmetry_Int_Tables_number   1
_chemical_formula_structural   FePH6NO5
_chemical_formula_sum   'Fe4 P4 H24 N4 O20'
_cell_volume   497.99188936
_cell_formula_units_Z   4
loop_
 _symmetry_equiv_pos_site_id
 _symmetry_equiv_pos_as_xyz
  1  'x, y, z'
loop_
 _atom_site_type_symbol
 _atom_site_label
 _atom_site_symmetry_multiplicity
 _atom_site_fract_x
 _atom_site_fract_y
 _atom_site_fract_z
 _atom_site_occupancy
  Fe  Fe0  1  0.50883000  0.74943400  0.02359600  1
  Fe  Fe1  1  0.00894200  0.50063200  0.97638600  1
  Fe  Fe2  1  0.50538300  0.24995100  0.02321200  1
  Fe  Fe3  1  0.00568300  0.00006800  0.97661600  1
  P  P0  1  0.07277400  0.25119000  0.80450800  1
  P  P1  1  0.07755600  0.75141600  0.80364400  1
  P  P2  1  0.57283200  0.99881200  0.19547700  1
  P  P3  1  0.57748100  0.49858200  0.19634100  1
  H  H0  1  0.80995200  0.25035300  0.54205700  1
  H  H1  1  0.81175000  0.74935600  0.54206800  1
  H  H2  1  0.30996200  0.99964800  0.45794500  1
  H  H3  1  0.31172400  0.50066700  0.45795700  1
  H  H4  1  0.45098800  0.25067800  0.54556600  1
  H  H5  1  0.45320300  0.74943100  0.54681000  1
  H  H6  1  0.95097400  0.99931500  0.45444900  1
  H  H7  1  0.95316300  0.50059300  0.45321300  1
  H  H8  1  0.62492900  0.32412800  0.41089500  1
  H  H9  1  0.62487600  0.82362500  0.41199300  1
  H  H10  1  0.62347600  0.17524900  0.41258200  1
  H  H11  1  0.62522300  0.67403700  0.41365500  1
  H  H12  1  0.12486100  0.42638200  0.58802400  1
  H  H13  1  0.12495000  0.92586000  0.58910400  1
  H  H14  1  0.12351600  0.07474900  0.58742300  1
  H  H15  1  0.12524400  0.57596200  0.58638600  1
  H  H16  1  0.06851900  0.31839400  0.19058700  1
  H  H17  1  0.06681700  0.81682300  0.19165000  1
  H  H18  1  0.07323000  0.18128700  0.19055800  1
  H  H19  1  0.07982500  0.67981000  0.19388800  1
  H  H20  1  0.56660900  0.43316200  0.80838600  1
  H  H21  1  0.56837700  0.93159400  0.80948200  1
  H  H22  1  0.57327400  0.06870700  0.80945600  1
  H  H23  1  0.57973800  0.57016400  0.80611500  1
  N  N0  1  0.62749800  0.25022900  0.47710200  1
  N  N1  1  0.62929600  0.74947400  0.47776900  1
  N  N2  1  0.12751500  0.99976800  0.52290500  1
  N  N3  1  0.12928000  0.50053600  0.52225100  1
  O  O0  1  0.76142200  0.24957300  0.83636600  1
  O  O1  1  0.76618800  0.75045900  0.83419100  1
  O  O2  1  0.26145300  0.00040300  0.16357600  1
  O  O3  1  0.26609900  0.49954400  0.16584100  1
  O  O4  1  0.12202900  0.24949800  0.63380500  1
  O  O5  1  0.12902700  0.74478400  0.63322100  1
  O  O6  1  0.62197300  0.00049900  0.36620600  1
  O  O7  1  0.62900500  0.50528900  0.36674700  1
  O  O8  1  0.19371500  0.25046000  0.20284000  1
  O  O9  1  0.19475800  0.75043800  0.20646600  1
  O  O10  1  0.69366500  0.99950900  0.79719400  1
  O  O11  1  0.69462500  0.49952600  0.79354100  1
  O  O12  1  0.21563500  0.36260600  0.87398900  1
  O  O13  1  0.21989300  0.86410400  0.86829900  1
  O  O14  1  0.22479600  0.14434700  0.87887100  1
  O  O15  1  0.22813500  0.64655100  0.88442300  1
  O  O16  1  0.71964200  0.38585000  0.13172500  1
  O  O17  1  0.71564700  0.88737800  0.12604300  1
  O  O18  1  0.72481300  0.10567400  0.12111300  1
  O  O19  1  0.72803800  0.60344300  0.11548500  1
loop_
_geom_bond_atom_site_label_1
_geom_bond_atom_site_label_2
_geom_bond_distance
_geom_bond_site_symmetry_2
Fe0 O17 2.083171 1_555
Fe0 O1 2.112442 1_554
Fe0 O19 2.142941 1_555
Fe0 O15 2.190501 1_554
Fe0 O9 2.240902 1_555
Fe0 O13 2.371882 1_554
Fe1 O12 2.083546 1_555
Fe1 O3 2.112093 1_556
Fe1 O15 2.142486 1_555
Fe1 O19 2.190501 1_456
Fe1 O11 2.241381 1_455
Fe1 O16 2.373876 1_456
Fe2 O0 2.090039 1_554
Fe2 O16 2.107994 1_555
Fe2 O18 2.149905 1_555
Fe2 O8 2.211536 1_555
Fe2 O14 2.233867 1_554
Fe2 O12 2.329535 1_554
Fe3 O2 2.089951 1_556
Fe3 O13 2.107765 1_545
Fe3 O14 2.148559 1_555
Fe3 O10 2.211170 1_445
Fe3 O18 2.235730 1_456
Fe3 O17 2.331681 1_446
H0 N0 1.058396 1_555
H1 N1 1.055135 1_555
H2 N2 1.058464 1_555
H3 N3 1.055141 1_555
H4 N0 1.052899 1_555
H5 N1 1.054315 1_555
H6 N2 1.052905 1_655
H7 N3 1.054320 1_655
H8 N0 1.034161 1_555
H9 N1 1.034430 1_555
H10 N0 1.036268 1_555
H11 N1 1.038557 1_555
H12 N3 1.034442 1_555
H13 N2 1.034203 1_555
H14 N2 1.036269 1_545
H15 N3 1.038558 1_555
H16 O8 0.990599 1_555
H17 O9 0.987899 1_555
H18 O8 0.988223 1_555
H19 O9 0.986533 1_555
H20 O11 0.987933 1_555
H21 O10 0.990690 1_555
H22 O10 0.988228 1_545
H23 O11 0.986559 1_555
O0 P0 1.531905 1_655
O1 P1 1.529737 1_655
O2 P2 1.532063 1_545
O3 P3 1.529690 1_555
O4 P0 1.557262 1_555
O5 P1 1.558199 1_555
O6 P2 1.557374 1_545
O7 P3 1.558094 1_555
O12 P0 1.578536 1_555
O13 P1 1.572542 1_555
O14 P0 1.574812 1_555
O15 P1 1.579853 1_555
O16 P3 1.572555 1_555
O17 P2 1.578542 1_555
O18 P2 1.574871 1_545
O19 P3 1.580074 1_555
