# generated using pymatgen
data_YbAgSe2
_symmetry_space_group_name_H-M   'P 1'
_cell_length_a   4.36511300
_cell_length_b   6.72033900
_cell_length_c   13.84484700
_cell_angle_alpha   90.00000000
_cell_angle_beta   90.00000000
_cell_angle_gamma   90.00000000
_symmetry_Int_Tables_number   1
_chemical_formula_structural   YbAgSe2
_chemical_formula_sum   'Yb4 Ag4 Se8'
_cell_volume   406.13912854
_cell_formula_units_Z   4
loop_
 _symmetry_equiv_pos_site_id
 _symmetry_equiv_pos_as_xyz
  1  'x, y, z'
loop_
 _atom_site_type_symbol
 _atom_site_label
 _atom_site_symmetry_multiplicity
 _atom_site_fract_x
 _atom_site_fract_y
 _atom_site_fract_z
 _atom_site_occupancy
  Yb  Yb0  1  0.24679300  0.69997300  0.62404000  1
  Yb  Yb1  1  0.74679300  0.80002700  0.37596000  1
  Yb  Yb2  1  0.75320700  0.19997300  0.87596000  1
  Yb  Yb3  1  0.25320700  0.30002700  0.12404000  1
  Ag  Ag0  1  0.50216800  0.70324100  0.87226800  1
  Ag  Ag1  1  0.00216800  0.79675900  0.12773200  1
  Ag  Ag2  1  0.49783200  0.20324100  0.62773200  1
  Ag  Ag3  1  0.99783200  0.29675900  0.37226800  1
  Se  Se0  1  0.74036900  0.90386500  0.72476700  1
  Se  Se1  1  0.24036900  0.59613500  0.27523300  1
  Se  Se2  1  0.25963100  0.40386500  0.77523300  1
  Se  Se3  1  0.75963100  0.09613500  0.22476700  1
  Se  Se4  1  0.76149400  0.48730300  0.52257600  1
  Se  Se5  1  0.26149400  0.01269700  0.47742400  1
  Se  Se6  1  0.23850600  0.98730300  0.97742400  1
  Se  Se7  1  0.73850600  0.51269700  0.02257600  1
loop_
_geom_bond_atom_site_label_1
_geom_bond_atom_site_label_2
_geom_bond_distance
_geom_bond_site_symmetry_2
Ag0 Se2 2.640727 1_555
Ag0 Se7 2.652271 1_556
Ag0 Se0 2.658802 1_555
Ag0 Se6 2.662407 1_555
Ag1 Se3 2.640727 1_465
Ag1 Se6 2.652271 1_554
Ag1 Se1 2.658802 1_555
Ag1 Se7 2.662407 1_455
Ag2 Se0 2.640727 1_545
Ag2 Se5 2.652271 1_555
Ag2 Se2 2.658802 1_555
Ag2 Se4 2.662407 1_555
Ag3 Se1 2.640727 1_655
Ag3 Se4 2.652271 1_555
Ag3 Se3 2.658802 1_555
Ag3 Se5 2.662407 1_655
Se0 Yb2 2.888719 1_565
Se0 Yb0 2.909333 1_555
Se0 Yb0 2.951106 1_655
Se1 Yb3 2.888719 1_555
Se1 Yb1 2.909333 1_455
Se1 Yb1 2.951106 1_555
Se2 Yb0 2.888719 1_555
Se2 Yb2 2.909333 1_555
Se2 Yb2 2.951106 1_455
Se3 Yb1 2.888719 1_545
Se3 Yb3 2.909333 1_655
Se3 Yb3 2.951106 1_555
Se4 Yb0 2.916083 1_655
Se4 Yb1 2.922548 1_555
Se4 Yb0 3.010610 1_555
Se5 Yb1 2.916083 1_545
Se5 Yb0 2.922548 1_545
Se5 Yb1 3.010610 1_445
Se6 Yb2 2.916083 1_465
Se6 Yb3 2.922548 1_566
Se6 Yb2 3.010610 1_565
Se7 Yb3 2.916083 1_555
Se7 Yb2 2.922548 1_554
Se7 Yb3 3.010610 1_655
