# generated using pymatgen
data_YB4W
_symmetry_space_group_name_H-M   'P 1'
_cell_length_a   6.04683500
_cell_length_b   11.68557300
_cell_length_c   3.63058700
_cell_angle_alpha   90.00000000
_cell_angle_beta   90.00000000
_cell_angle_gamma   90.00000000
_symmetry_Int_Tables_number   1
_chemical_formula_structural   YB4W
_chemical_formula_sum   'Y4 B16 W4'
_cell_volume   256.53993433
_cell_formula_units_Z   4
loop_
 _symmetry_equiv_pos_site_id
 _symmetry_equiv_pos_as_xyz
  1  'x, y, z'
loop_
 _atom_site_type_symbol
 _atom_site_label
 _atom_site_symmetry_multiplicity
 _atom_site_fract_x
 _atom_site_fract_y
 _atom_site_fract_z
 _atom_site_occupancy
  Y  Y0  1  0.62688600  0.35019800  0.00000000  1
  Y  Y1  1  0.37311400  0.64980200  0.00000000  1
  Y  Y2  1  0.12688600  0.14980200  0.00000000  1
  Y  Y3  1  0.87311400  0.85019800  0.00000000  1
  B  B0  1  0.78654200  0.18644400  0.50000000  1
  B  B1  1  0.21345800  0.81355600  0.50000000  1
  B  B2  1  0.28654200  0.31355600  0.50000000  1
  B  B3  1  0.71345800  0.68644400  0.50000000  1
  B  B4  1  0.86642900  0.03217500  0.50000000  1
  B  B5  1  0.13357100  0.96782500  0.50000000  1
  B  B6  1  0.36642900  0.46782500  0.50000000  1
  B  B7  1  0.63357100  0.53217500  0.50000000  1
  B  B8  1  0.88604400  0.45281900  0.50000000  1
  B  B9  1  0.11395600  0.54718100  0.50000000  1
  B  B10  1  0.38604400  0.04718100  0.50000000  1
  B  B11  1  0.61395600  0.95281900  0.50000000  1
  B  B12  1  0.97585600  0.30693100  0.50000000  1
  B  B13  1  0.02414400  0.69306900  0.50000000  1
  B  B14  1  0.47585600  0.19306900  0.50000000  1
  B  B15  1  0.52414400  0.80693100  0.50000000  1
  W  W0  1  0.63047700  0.08422600  0.00000000  1
  W  W1  1  0.36952300  0.91577400  0.00000000  1
  W  W2  1  0.13047700  0.41577400  0.00000000  1
  W  W3  1  0.86952300  0.58422600  0.00000000  1
loop_
_geom_bond_atom_site_label_1
_geom_bond_atom_site_label_2
_geom_bond_distance
_geom_bond_site_symmetry_2
B0 B12 1.814609 1_555
B0 B4 1.866321 1_555
B0 B14 1.880261 1_555
B0 W0 2.369099 1_556
B0 W0 2.369099 1_555
B0 Y2 2.777411 1_655
B0 Y2 2.777411 1_656
B0 Y0 2.808740 1_556
B0 Y0 2.808740 1_555
B1 B13 1.814609 1_555
B1 B5 1.866321 1_555
B1 B15 1.880261 1_555
B1 W1 2.369099 1_556
B1 W1 2.369099 1_555
B1 Y3 2.777411 1_456
B1 Y3 2.777411 1_455
B1 Y1 2.808740 1_555
B1 Y1 2.808740 1_556
B2 B6 1.866321 1_555
B2 W2 2.369099 1_555
B2 W2 2.369099 1_556
B2 Y0 2.777411 1_556
B2 Y0 2.777411 1_555
B2 Y2 2.808740 1_556
B2 Y2 2.808740 1_555
B3 B7 1.866321 1_555
B3 W3 2.369099 1_555
B3 W3 2.369099 1_556
B3 Y1 2.777411 1_556
B3 Y1 2.777411 1_555
B3 Y3 2.808740 1_555
B3 Y3 2.808740 1_556
B4 B5 1.781812 1_645
B4 W0 2.387657 1_555
B4 W0 2.387657 1_556
B4 Y2 2.768589 1_655
B4 Y2 2.768589 1_656
B4 Y3 2.796239 1_546
B4 Y3 2.796239 1_545
B5 W1 2.387657 1_556
B5 W1 2.387657 1_555
B5 Y3 2.768589 1_456
B5 Y3 2.768589 1_455
B5 Y2 2.796239 1_565
B5 Y2 2.796239 1_566
B6 B7 1.781812 1_555
B6 B9 1.786231 1_555
B6 W2 2.387657 1_555
B6 W2 2.387657 1_556
B6 Y0 2.768589 1_556
B6 Y0 2.768589 1_555
B6 Y1 2.796239 1_556
B6 Y1 2.796239 1_555
B7 B8 1.786231 1_555
B7 W3 2.387657 1_555
B7 W3 2.387657 1_556
B7 Y1 2.768589 1_556
B7 Y1 2.768589 1_555
B7 Y0 2.796239 1_556
B7 Y0 2.796239 1_555
B8 B9 1.764986 1_655
B8 W3 2.379755 1_555
B8 W3 2.379755 1_556
B8 W2 2.380610 1_655
B8 W2 2.380610 1_656
B8 Y0 2.681248 1_555
B8 Y0 2.681248 1_556
B9 W2 2.379755 1_555
B9 W2 2.379755 1_556
B9 W3 2.380610 1_455
B9 W3 2.380610 1_456
B9 Y1 2.681248 1_555
B9 Y1 2.681248 1_556
B10 B11 1.764986 1_545
B10 B5 1.786231 1_545
B10 B14 1.789197 1_555
B10 W1 2.379755 1_546
B10 W1 2.379755 1_545
B10 W0 2.380610 1_556
B10 W0 2.380610 1_555
B10 Y2 2.681248 1_555
B10 Y2 2.681248 1_556
B11 B4 1.786231 1_565
B11 B15 1.789197 1_555
B11 W0 2.379755 1_565
B11 W0 2.379755 1_566
B11 W1 2.380610 1_555
B11 W1 2.380610 1_556
B11 Y3 2.681248 1_556
B11 Y3 2.681248 1_555
B12 B8 1.789197 1_555
B12 B2 1.880261 1_655
B12 W2 2.405653 1_655
B12 W2 2.405653 1_656
B12 Y2 2.738748 1_655
B12 Y2 2.738748 1_656
B12 Y0 2.829084 1_556
B12 Y0 2.829084 1_555
B13 B9 1.789197 1_555
B13 B3 1.880261 1_455
B13 W3 2.405653 1_455
B13 W3 2.405653 1_456
B13 Y3 2.738748 1_456
B13 Y3 2.738748 1_455
B13 Y1 2.829084 1_555
B13 Y1 2.829084 1_556
B14 B2 1.814609 1_555
B14 W0 2.405653 1_556
B14 W0 2.405653 1_555
B14 Y0 2.738748 1_556
B14 Y0 2.738748 1_555
B14 Y2 2.829084 1_556
B14 Y2 2.829084 1_555
B15 B3 1.814609 1_555
B15 W1 2.405653 1_555
B15 W1 2.405653 1_556
B15 Y1 2.738748 1_555
B15 Y1 2.738748 1_556
B15 Y3 2.829084 1_555
B15 Y3 2.829084 1_556
W0 Y2 3.097972 1_655
W0 Y3 3.103466 1_545
W0 Y0 3.108111 1_555
W0 Y2 3.140069 1_555
W1 Y3 3.097972 1_455
W1 Y2 3.103466 1_565
W1 Y1 3.108111 1_555
W1 Y3 3.140069 1_555
W2 Y0 3.097972 1_555
W2 Y1 3.103466 1_555
W2 Y2 3.108111 1_555
W2 Y0 3.140069 1_455
W3 Y1 3.097972 1_555
W3 Y0 3.103466 1_555
W3 Y3 3.108111 1_555
W3 Y1 3.140069 1_655
