# generated using pymatgen
data_Sr5Ni2BiO10
_symmetry_space_group_name_H-M   'P 1'
_cell_length_a   9.81936711
_cell_length_b   9.81936711
_cell_length_c   9.81936711
_cell_angle_alpha   148.41507142
_cell_angle_beta   148.41507142
_cell_angle_gamma   45.27300862
_symmetry_Int_Tables_number   1
_chemical_formula_structural   Sr5Ni2BiO10
_chemical_formula_sum   'Sr5 Ni2 Bi1 O10'
_cell_volume   258.89535541
_cell_formula_units_Z   1
loop_
 _symmetry_equiv_pos_site_id
 _symmetry_equiv_pos_as_xyz
  1  'x, y, z'
loop_
 _atom_site_type_symbol
 _atom_site_label
 _atom_site_symmetry_multiplicity
 _atom_site_fract_x
 _atom_site_fract_y
 _atom_site_fract_z
 _atom_site_occupancy
  Sr  Sr0  1  0.00000000  0.00000000  0.00000000  1
  Sr  Sr1  1  0.34946500  0.84946500  0.50000000  1
  Sr  Sr2  1  0.84946500  0.34946500  0.50000000  1
  Sr  Sr3  1  0.65053500  0.15053500  0.50000000  1
  Sr  Sr4  1  0.15053500  0.65053500  0.50000000  1
  Ni  Ni0  1  0.24379200  0.24379200  0.00000000  1
  Ni  Ni1  1  0.75620800  0.75620800  0.00000000  1
  Bi  Bi0  1  0.50000000  0.50000000  0.00000000  1
  O  O0  1  0.00000000  0.00000000  0.50000000  1
  O  O1  1  0.50000000  0.50000000  0.50000000  1
  O  O2  1  0.00000000  0.50000000  0.00000000  1
  O  O3  1  0.50000000  0.00000000  0.00000000  1
  O  O4  1  0.86739700  0.86739700  0.00000000  1
  O  O5  1  0.13260300  0.13260300  0.00000000  1
  O  O6  1  0.37854100  0.37854100  0.00000000  1
  O  O7  1  0.62145900  0.62145900  0.00000000  1
  O  O8  1  0.00000000  0.50000000  0.50000000  1
  O  O9  1  0.50000000  0.00000000  0.50000000  1
loop_
_geom_bond_atom_site_label_1
_geom_bond_atom_site_label_2
_geom_bond_distance
_geom_bond_site_symmetry_2
Ni0 O3 1.893003 1_555
Ni0 O0 1.893003 1_554
Ni0 O1 1.893003 1_555
Ni0 O2 1.893003 1_555
Ni0 O5 2.015397 1_555
Ni0 O6 2.442443 1_555
Ni1 O2 1.893003 1_655
Ni1 O3 1.893003 1_565
Ni1 O1 1.893003 1_554
Ni1 O0 1.893003 1_665
Ni1 O4 2.015397 1_555
Ni1 O7 2.442443 1_555
Bi0 O6 2.201550 1_555
Bi0 O7 2.201550 1_555
Bi0 O8 2.672377 1_554
Bi0 O9 2.672377 1_554
Bi0 O8 2.672377 1_655
Bi0 O9 2.672377 1_565
O0 Sr3 2.611745 1_455
O0 Sr4 2.611745 1_545
O0 Sr1 2.611745 1_545
O0 Sr2 2.611745 1_455
O1 Sr3 2.611745 1_555
O1 Sr4 2.611745 1_555
O1 Sr1 2.611745 1_555
O1 Sr2 2.611745 1_555
O2 Sr3 2.611745 1_454
O2 Sr4 2.611745 1_555
O2 Sr1 2.611745 1_555
O2 Sr2 2.611745 1_454
O3 Sr1 2.611745 1_544
O3 Sr3 2.611745 1_555
O3 Sr2 2.611745 1_555
O3 Sr4 2.611745 1_544
O4 Sr0 2.403544 1_665
O4 Sr1 2.692071 1_655
O4 Sr1 2.692071 1_554
O4 Sr2 2.692071 1_554
O4 Sr2 2.692071 1_565
O5 Sr0 2.403544 1_555
O5 Sr3 2.692071 1_555
O5 Sr4 2.692071 1_555
O5 Sr4 2.692071 1_544
O5 Sr3 2.692071 1_454
O6 Sr1 2.723850 1_544
O6 Sr1 2.723850 1_555
O6 Sr2 2.723850 1_454
O6 Sr2 2.723850 1_555
O7 Sr4 2.723850 1_554
O7 Sr3 2.723850 1_554
O7 Sr4 2.723850 1_655
O7 Sr3 2.723850 1_565
O8 Sr0 2.672377 1_555
O8 Sr0 2.672377 1_566
O8 Sr4 2.728578 1_555
O8 Sr2 2.728578 1_455
O9 Sr0 2.672377 1_555
O9 Sr0 2.672377 1_656
O9 Sr1 2.728578 1_545
O9 Sr3 2.728578 1_555
