# generated using pymatgen
data_Rb2Pd3Se2
_symmetry_space_group_name_H-M   'P 1'
_cell_length_a   9.62234200
_cell_length_b   8.49601110
_cell_length_c   13.16790871
_cell_angle_alpha   78.05899693
_cell_angle_beta   68.56958809
_cell_angle_gamma   55.50836815
_symmetry_Int_Tables_number   1
_chemical_formula_structural   Rb2Pd3Se2
_chemical_formula_sum   'Rb8 Pd12 Se8'
_cell_volume   825.91485303
_cell_formula_units_Z   4
loop_
 _symmetry_equiv_pos_site_id
 _symmetry_equiv_pos_as_xyz
  1  'x, y, z'
loop_
 _atom_site_type_symbol
 _atom_site_label
 _atom_site_symmetry_multiplicity
 _atom_site_fract_x
 _atom_site_fract_y
 _atom_site_fract_z
 _atom_site_occupancy
  Rb  Rb0  1  0.60409100  0.24451300  0.03548600  1
  Rb  Rb1  1  0.36042300  0.75548700  0.03548600  1
  Rb  Rb2  1  0.15139600  0.24451300  0.96451400  1
  Rb  Rb3  1  0.14590900  0.25548700  0.46451400  1
  Rb  Rb4  1  0.88409000  0.75548700  0.96451400  1
  Rb  Rb5  1  0.38957700  0.74451300  0.46451400  1
  Rb  Rb6  1  0.59860400  0.25548700  0.53548600  1
  Rb  Rb7  1  0.86591000  0.74451300  0.53548600  1
  Pd  Pd0  1  0.87500000  0.25000000  0.25000000  1
  Pd  Pd1  1  0.87500000  0.75000000  0.25000000  1
  Pd  Pd2  1  0.87500000  0.25000000  0.75000000  1
  Pd  Pd3  1  0.37500000  0.75000000  0.75000000  1
  Pd  Pd4  1  0.65021700  0.14070500  0.77348800  1
  Pd  Pd5  1  0.57629500  0.85929500  0.77348800  1
  Pd  Pd6  1  0.20907800  0.14070500  0.22651200  1
  Pd  Pd7  1  0.09978300  0.35929500  0.72651200  1
  Pd  Pd8  1  0.56441000  0.85929500  0.22651200  1
  Pd  Pd9  1  0.17370500  0.64070500  0.72651200  1
  Pd  Pd10  1  0.54092200  0.35929500  0.27348800  1
  Pd  Pd11  1  0.18559000  0.64070500  0.27348800  1
  Se  Se0  1  0.66932300  0.54448800  0.17007400  1
  Se  Se1  1  0.16060200  0.45551200  0.17007400  1
  Se  Se2  1  0.78618800  0.54448800  0.82992600  1
  Se  Se3  1  0.08067700  0.95551200  0.32992600  1
  Se  Se4  1  0.38388600  0.45551200  0.82992600  1
  Se  Se5  1  0.58939800  0.04448800  0.32992600  1
  Se  Se6  1  0.96381200  0.95551200  0.67007400  1
  Se  Se7  1  0.36611400  0.04448800  0.67007400  1
loop_
_geom_bond_atom_site_label_1
_geom_bond_atom_site_label_2
_geom_bond_distance
_geom_bond_site_symmetry_2
Rb0 Se1 3.418948 1_555
Rb0 Se4 3.593214 1_554
Rb1 Se0 3.418940 1_555
Rb1 Se2 3.593214 1_554
Rb2 Se4 3.418948 1_555
Rb2 Se1 3.593214 1_556
Rb3 Se5 3.418948 1_555
Rb3 Se7 3.593214 1_555
Rb4 Se2 3.418948 1_555
Rb4 Se0 3.593220 1_556
Rb5 Se3 3.418940 1_555
Rb5 Se6 3.593214 1_455
Rb6 Se7 3.418948 1_555
Rb6 Se5 3.593214 1_555
Rb7 Se6 3.418948 1_555
Rb7 Se3 3.593220 1_655
Pd0 Se0 2.471576 1_555
Pd0 Se3 2.471576 1_645
Pd0 Pd10 2.702448 1_555
Pd0 Pd6 2.702448 1_655
Pd0 Rb6 3.719359 1_555
Pd0 Rb2 3.719359 1_654
Pd1 Se1 2.471572 1_655
Pd1 Se5 2.471572 1_565
Pd1 Pd11 2.702448 1_655
Pd1 Pd8 2.702448 1_555
Pd1 Rb7 3.719359 1_555
Pd1 Rb4 3.719359 1_554
Pd2 Se2 2.471572 1_555
Pd2 Se6 2.471572 1_545
Pd2 Pd4 2.702448 1_555
Pd2 Pd7 2.702448 1_655
Pd2 Rb0 3.719359 1_556
Pd2 Rb3 3.719359 1_655
Pd3 Se4 2.471572 1_555
Pd3 Se7 2.471572 1_565
Pd3 Pd9 2.702448 1_555
Pd3 Pd5 2.702448 1_555
Pd3 Rb1 3.719359 1_556
Pd3 Rb5 3.719359 1_555
Pd4 Se4 2.437459 1_555
Pd4 Se6 2.437643 1_545
Pd4 Rb6 3.216159 1_555
Pd5 Se2 2.437459 1_555
Pd5 Se7 2.437643 1_565
Pd5 Rb7 3.216159 1_555
Pd6 Se1 2.437459 1_555
Pd6 Se3 2.437636 1_545
Pd6 Rb3 3.216159 1_555
Pd7 Se7 2.437459 1_555
Pd7 Se2 2.437643 1_455
Pd7 Rb2 3.216159 1_555
Pd8 Se0 2.437463 1_555
Pd8 Se5 2.437643 1_565
Pd8 Rb5 3.216159 1_555
Pd9 Se6 2.437459 1_455
Pd9 Se4 2.437643 1_555
Pd9 Rb4 3.216159 1_455
Pd10 Se5 2.437459 1_555
Pd10 Se0 2.437636 1_555
Pd10 Rb0 3.216159 1_555
Pd11 Se3 2.437463 1_555
Pd11 Se1 2.437643 1_555
Pd11 Rb1 3.216159 1_555
