# generated using pymatgen
data_FePH5NO4F
_symmetry_space_group_name_H-M   'P 1'
_cell_length_a   5.10653169
_cell_length_b   5.64799864
_cell_length_c   8.75065400
_cell_angle_alpha   90.00000000
_cell_angle_beta   90.00000000
_cell_angle_gamma   91.72118294
_symmetry_Int_Tables_number   1
_chemical_formula_structural   FePH5NO4F
_chemical_formula_sum   'Fe2 P2 H10 N2 O8 F2'
_cell_volume   252.26972819
_cell_formula_units_Z   2
loop_
 _symmetry_equiv_pos_site_id
 _symmetry_equiv_pos_as_xyz
  1  'x, y, z'
loop_
 _atom_site_type_symbol
 _atom_site_label
 _atom_site_symmetry_multiplicity
 _atom_site_fract_x
 _atom_site_fract_y
 _atom_site_fract_z
 _atom_site_occupancy
  Fe  Fe0  1  0.51723300  0.50586400  0.48687000  1
  Fe  Fe1  1  0.01723300  0.00586400  0.51313000  1
  P  P0  1  0.44552700  0.01402900  0.30060300  1
  P  P1  1  0.94552700  0.51402900  0.69939700  1
  H  H0  1  0.20645700  0.49870400  0.94557600  1
  H  H1  1  0.70645700  0.99870400  0.05442400  1
  H  H2  1  0.25667200  0.49740000  0.13598300  1
  H  H3  1  0.75667200  0.99740000  0.86401700  1
  H  H4  1  0.46254100  0.35041100  0.02665100  1
  H  H5  1  0.46704900  0.65129900  0.02821600  1
  H  H6  1  0.96704900  0.15129900  0.97178400  1
  H  H7  1  0.96254100  0.85041100  0.97334900  1
  H  H8  1  0.79210500  0.27790800  0.29778700  1
  H  H9  1  0.29210500  0.77790800  0.70221300  1
  N  N0  1  0.35245700  0.49914400  0.03234000  1
  N  N1  1  0.85245700  0.99914400  0.96766000  1
  O  O0  1  0.90253000  0.50000100  0.87307800  1
  O  O1  1  0.40253000  0.00000100  0.12692200  1
  O  O2  1  0.25130000  0.55735600  0.67402300  1
  O  O3  1  0.75130000  0.05735600  0.32597700  1
  O  O4  1  0.83405600  0.29084800  0.61399200  1
  O  O5  1  0.80184700  0.72401700  0.62172500  1
  O  O6  1  0.30184700  0.22401700  0.37827500  1
  O  O7  1  0.33405600  0.79084800  0.38600800  1
  F  F0  1  0.79032700  0.47301800  0.28218800  1
  F  F1  1  0.29032700  0.97301800  0.71781200  1
loop_
_geom_bond_atom_site_label_1
_geom_bond_atom_site_label_2
_geom_bond_distance
_geom_bond_site_symmetry_2
Fe0 O7 2.082112 1_555
Fe0 O6 2.131110 1_555
Fe0 O2 2.152801 1_555
Fe0 O5 2.217087 1_555
Fe0 O4 2.334041 1_555
Fe1 O4 2.082112 1_455
Fe1 O5 2.131110 1_445
Fe1 O3 2.152801 1_455
Fe1 O6 2.217087 1_555
Fe1 O7 2.334041 1_545
H0 N0 1.064046 1_556
H0 O0 1.676887 1_455
H1 N1 1.064046 1_554
H1 O1 1.676887 1_565
H2 N0 1.030341 1_555
H3 N1 1.030341 1_555
H4 N0 1.025928 1_555
H5 N0 1.025687 1_555
H6 N1 1.025687 1_545
H7 N1 1.025928 1_555
H8 O3 1.280777 1_555
H9 O2 1.280777 1_555
O0 P1 1.537303 1_555
O1 P0 1.537303 1_555
O2 P1 1.588812 1_455
O3 P0 1.588812 1_555
O4 P1 1.558325 1_555
O5 P1 1.568180 1_555
O6 P0 1.568180 1_555
O7 P0 1.558325 1_565
F0 H8 1.110711 1_555
F0 Fe0 2.280966 1_555
F1 H9 1.110711 1_555
F1 Fe1 2.280966 1_565
