# generated using pymatgen
data_LiZnBO3
_symmetry_space_group_name_H-M   'P 1'
_cell_length_a   5.06329200
_cell_length_b   5.06613558
_cell_length_c   11.50326455
_cell_angle_alpha   89.44986140
_cell_angle_beta   89.42707572
_cell_angle_gamma   60.00574315
_symmetry_Int_Tables_number   1
_chemical_formula_structural   LiZnBO3
_chemical_formula_sum   'Li4 Zn4 B4 O12'
_cell_volume   255.53995031
_cell_formula_units_Z   4
loop_
 _symmetry_equiv_pos_site_id
 _symmetry_equiv_pos_as_xyz
  1  'x, y, z'
loop_
 _atom_site_type_symbol
 _atom_site_label
 _atom_site_symmetry_multiplicity
 _atom_site_fract_x
 _atom_site_fract_y
 _atom_site_fract_z
 _atom_site_occupancy
  Li  Li0  1  0.35532500  0.34812500  0.53237200  1
  Li  Li1  1  0.34950100  0.36895900  0.71694000  1
  Li  Li2  1  0.67141800  0.64047400  0.31384200  1
  Li  Li3  1  0.65658100  0.64911900  0.93565800  1
  Zn  Zn0  1  0.00194700  0.33087300  0.33967600  1
  Zn  Zn1  1  0.67990600  0.01900700  0.12291300  1
  Zn  Zn2  1  0.00473400  0.67722700  0.62547600  1
  Zn  Zn3  1  0.30438300  0.98467300  0.90917800  1
  B  B0  1  0.00824500  0.66963900  0.12580200  1
  B  B1  1  0.67233000  0.01100500  0.62522900  1
  B  B2  1  0.32848200  0.98038600  0.37051900  1
  B  B3  1  0.98516400  0.33270500  0.87938200  1
  O  O0  1  0.01678700  0.41327500  0.16517700  1
  O  O1  1  0.41365300  0.04435700  0.63436300  1
  O  O2  1  0.34312600  0.26327000  0.37455700  1
  O  O3  1  0.26683200  0.34484100  0.87479000  1
  O  O4  1  0.05347600  0.71871600  0.39896400  1
  O  O5  1  0.72670300  0.06123900  0.91062000  1
  O  O6  1  0.27132500  0.92122000  0.08346900  1
  O  O7  1  0.96351500  0.26907100  0.61711500  1
  O  O8  1  0.73459400  0.66764000  0.12705400  1
  O  O9  1  0.63923500  0.71986600  0.62452300  1
  O  O10  1  0.58844900  0.96665800  0.34149300  1
  O  O11  1  0.96929100  0.59265700  0.85088600  1
loop_
_geom_bond_atom_site_label_1
_geom_bond_atom_site_label_2
_geom_bond_distance
_geom_bond_site_symmetry_2
Li0 O1 1.830255 1_555
Li0 O2 1.878304 1_555
Li0 Zn2 2.028575 1_555
Li0 O4 2.310511 1_555
Li0 O7 2.407187 1_455
Li1 O1 1.789384 1_555
Li1 O3 1.875875 1_555
Li1 Zn2 1.967919 1_555
Li2 O10 1.523719 1_555
Li2 Zn0 1.650988 1_655
Li3 O11 1.749678 1_555
Li3 Zn3 1.769939 1_555
Li3 O8 2.251807 1_556
Li3 O5 2.301244 1_565
Li3 O6 2.426223 1_556
B0 O0 1.351582 1_555
B0 O8 1.390595 1_455
B1 O1 1.237488 1_555
B1 O9 1.565565 1_545
B1 Zn2 1.687175 1_645
B2 O10 1.322522 1_555
B2 O2 1.472788 1_565
B2 Zn0 1.754044 1_565
B3 O11 1.317075 1_555
B3 O3 1.458295 1_655
B3 Zn3 1.728827 1_645
B3 Li3 1.757422 1_555
O0 Zn0 2.054619 1_555
O2 Zn0 1.637742 1_555
O3 Zn3 1.778424 1_545
O4 Zn0 2.221654 1_555
O5 Zn3 2.356549 1_545
O5 Zn1 2.468739 1_556
O6 Zn3 2.045911 1_554
O7 Zn2 2.182703 1_655
O8 Zn1 1.659343 1_565
O9 Zn2 1.752790 1_655
