# generated using pymatgen
data_YCo(WO4)2
_symmetry_space_group_name_H-M   'P 1'
_cell_length_a   5.89878200
_cell_length_b   5.19026100
_cell_length_c   9.95496244
_cell_angle_alpha   86.55057399
_cell_angle_beta   90.00000000
_cell_angle_gamma   90.00000000
_symmetry_Int_Tables_number   1
_chemical_formula_structural   YCo(WO4)2
_chemical_formula_sum   'Y2 Co2 W4 O16'
_cell_volume   304.23112489
_cell_formula_units_Z   2
loop_
 _symmetry_equiv_pos_site_id
 _symmetry_equiv_pos_as_xyz
  1  'x, y, z'
loop_
 _atom_site_type_symbol
 _atom_site_label
 _atom_site_symmetry_multiplicity
 _atom_site_fract_x
 _atom_site_fract_y
 _atom_site_fract_z
 _atom_site_occupancy
  Y  Y0  1  0.32882200  0.00000000  0.00000000  1
  Y  Y1  1  0.65224600  0.50000000  0.50000000  1
  Co  Co0  1  0.67410600  0.50000000  0.00000000  1
  Co  Co1  1  0.26972100  0.00000000  0.50000000  1
  W  W0  1  0.83912500  0.00148800  0.24228000  1
  W  W1  1  0.83912500  0.99851200  0.75772000  1
  W  W2  1  0.16966600  0.50416800  0.25195300  1
  W  W3  1  0.16966600  0.49583200  0.74804700  1
  O  O0  1  0.65076200  0.84332900  0.88938700  1
  O  O1  1  0.65076200  0.15667100  0.11061300  1
  O  O2  1  0.35900600  0.67340200  0.60900000  1
  O  O3  1  0.35900600  0.32659800  0.39100000  1
  O  O4  1  0.08732700  0.80400700  0.36119300  1
  O  O5  1  0.08732700  0.19599300  0.63880700  1
  O  O6  1  0.90941200  0.70000700  0.13852600  1
  O  O7  1  0.90941200  0.29999300  0.86147400  1
  O  O8  1  0.39040100  0.37712500  0.87259300  1
  O  O9  1  0.39040100  0.62287500  0.12740700  1
  O  O10  1  0.62519000  0.14098100  0.64099600  1
  O  O11  1  0.62519000  0.85901900  0.35900400  1
  O  O12  1  0.11977400  0.82664700  0.84689600  1
  O  O13  1  0.88758600  0.69210300  0.65400100  1
  O  O14  1  0.11977400  0.17335300  0.15310400  1
  O  O15  1  0.88758600  0.30789700  0.34599900  1
loop_
_geom_bond_atom_site_label_1
_geom_bond_atom_site_label_2
_geom_bond_distance
_geom_bond_site_symmetry_2
Co0 O1 2.042247 1_555
Co0 O0 2.042247 1_554
Co0 O9 2.216615 1_555
Co0 O8 2.216615 1_554
Co0 O6 2.253484 1_555
Co0 O7 2.253484 1_554
Co1 O3 2.026556 1_555
Co1 O2 2.026556 1_545
Co1 O4 2.066627 1_545
Co1 O5 2.066627 1_555
O0 W1 1.863948 1_555
O0 Y0 2.363878 1_566
O1 W0 1.863948 1_555
O1 Y0 2.363878 1_555
O2 W3 1.964519 1_555
O2 Y1 2.257655 1_555
O3 W2 1.964519 1_555
O3 Y1 2.257655 1_555
O4 W2 2.010985 1_555
O4 W0 2.109372 1_465
O5 W3 2.010985 1_555
O5 W1 2.109372 1_445
O6 W0 1.970200 1_565
O6 W2 2.127641 1_655
O7 W1 1.970200 1_545
O7 W3 2.127641 1_655
O8 W3 1.876244 1_555
O8 Y0 2.296343 1_556
O9 W2 1.876244 1_555
O9 Y0 2.296343 1_565
O10 W1 1.840144 1_545
O10 Y1 2.270050 1_555
O11 W0 1.840144 1_565
O11 Y1 2.270050 1_555
O12 W3 2.050953 1_555
O12 W1 2.056488 1_455
O12 Y0 2.195037 1_566
O13 W1 1.968400 1_555
O13 W3 2.137324 1_655
O13 Y1 2.335712 1_555
O14 W2 2.050953 1_555
O14 W0 2.056488 1_455
O14 Y0 2.195037 1_555
O15 W0 1.968400 1_555
O15 W2 2.137324 1_655
O15 Y1 2.335712 1_555
