# generated using pymatgen
data_RbMg(ClO2)3
_symmetry_space_group_name_H-M   'P 1'
_cell_length_a   6.18138901
_cell_length_b   6.07902202
_cell_length_c   13.17756823
_cell_angle_alpha   90.71449872
_cell_angle_beta   89.85512134
_cell_angle_gamma   111.05902021
_symmetry_Int_Tables_number   1
_chemical_formula_structural   RbMg(ClO2)3
_chemical_formula_sum   'Rb2 Mg2 Cl6 O12'
_cell_volume   462.06182773
_cell_formula_units_Z   2
loop_
 _symmetry_equiv_pos_site_id
 _symmetry_equiv_pos_as_xyz
  1  'x, y, z'
loop_
 _atom_site_type_symbol
 _atom_site_label
 _atom_site_symmetry_multiplicity
 _atom_site_fract_x
 _atom_site_fract_y
 _atom_site_fract_z
 _atom_site_occupancy
  Rb  Rb0  1  0.43621700  0.27677200  0.40354500  1
  Rb  Rb1  1  0.45718900  0.22347800  0.89143100  1
  Mg  Mg0  1  0.06577700  0.91418900  0.65813400  1
  Mg  Mg1  1  0.10010100  0.88214300  0.13685700  1
  Cl  Cl0  1  0.10985200  0.55064800  0.82295000  1
  Cl  Cl1  1  0.08938800  0.60656200  0.34639200  1
  Cl  Cl2  1  0.59705800  0.41565300  0.15546500  1
  Cl  Cl3  1  0.77612800  0.91555800  0.45194100  1
  Cl  Cl4  1  0.60892200  0.43318100  0.64719300  1
  Cl  Cl5  1  0.86459300  0.96179000  0.88420400  1
  O  O0  1  0.24470200  0.79547700  0.75953600  1
  O  O1  1  0.76539900  0.70542300  0.17299700  1
  O  O2  1  0.83048200  0.96900300  0.75681100  1
  O  O3  1  0.20337100  0.85388200  0.28126700  1
  O  O4  1  0.14317300  0.54236400  0.09740600  1
  O  O5  1  0.99484400  0.05078400  0.51788800  1
  O  O6  1  0.00631700  0.34637400  0.12845000  1
  O  O7  1  0.54602900  0.89211000  0.50236500  1
  O  O8  1  0.97988600  0.94751500  0.99999800  1
  O  O9  1  0.33621500  0.22359700  0.67264800  1
  O  O10  1  0.40608700  0.13873200  0.11550700  1
  O  O11  1  0.86697000  0.59246500  0.59631400  1
loop_
_geom_bond_atom_site_label_1
_geom_bond_atom_site_label_2
_geom_bond_distance
_geom_bond_site_symmetry_2
Mg0 O9 2.025308 1_565
Mg0 O0 2.033388 1_555
Mg0 O11 2.058381 1_455
Mg0 O2 2.060393 1_455
Mg0 O5 2.145054 1_465
Mg1 O10 1.994405 1_565
Mg1 O1 2.017873 1_455
Mg1 O3 2.037504 1_555
Mg1 O8 2.049266 1_454
Mg1 O4 2.230532 1_555
Cl0 O0 1.656546 1_555
Cl0 Rb1 3.535963 1_555
Cl1 O3 1.661674 1_555
Cl2 O1 1.706720 1_555
Cl2 O10 1.748580 1_555
Cl3 O7 1.528640 1_555
Cl3 O5 1.564671 1_565
Cl4 O11 1.682925 1_555
Cl4 O9 1.744048 1_555
Cl5 O2 1.695519 1_555
Cl5 O8 1.702057 1_555
Cl5 Rb1 3.428667 1_565
O0 Rb1 2.993049 1_565
O3 Rb0 2.919945 1_565
O4 O6 1.260384 1_555
O5 Rb0 2.989727 1_655
O7 Rb0 2.974153 1_565
O8 Rb1 3.169757 1_665
O9 Rb1 2.980332 1_555
O10 Rb1 3.000058 1_554
