# generated using pymatgen
data_SrLa3MnCuO8
_symmetry_space_group_name_H-M   'P 1'
_cell_length_a   7.07822077
_cell_length_b   7.71568832
_cell_length_c   7.67102040
_cell_angle_alpha   90.13528481
_cell_angle_beta   105.68036712
_cell_angle_gamma   105.77500990
_symmetry_Int_Tables_number   1
_chemical_formula_structural   SrLa3MnCuO8
_chemical_formula_sum   'Sr2 La6 Mn2 Cu2 O16'
_cell_volume   386.85507417
_cell_formula_units_Z   2
loop_
 _symmetry_equiv_pos_site_id
 _symmetry_equiv_pos_as_xyz
  1  'x, y, z'
loop_
 _atom_site_type_symbol
 _atom_site_label
 _atom_site_symmetry_multiplicity
 _atom_site_fract_x
 _atom_site_fract_y
 _atom_site_fract_z
 _atom_site_occupancy
  Sr  Sr0  1  0.28635900  0.32160500  0.82157700  1
  Sr  Sr1  1  0.28627400  0.82157400  0.32159000  1
  La  La0  1  0.27916000  0.31978900  0.31979800  1
  La  La1  1  0.27920100  0.81977700  0.81978400  1
  La  La2  1  0.71670500  0.67917500  0.67915300  1
  La  La3  1  0.71668500  0.17916600  0.17919100  1
  La  La4  1  0.72020800  0.18005300  0.68002600  1
  La  La5  1  0.72013700  0.67998600  0.18003300  1
  Mn  Mn0  1  0.00042000  0.00009900  0.50009500  1
  Mn  Mn1  1  0.00042700  0.50009900  0.00009400  1
  Cu  Cu0  1  0.00723000  0.50185800  0.50188200  1
  Cu  Cu1  1  0.00721500  0.00184700  0.00186200  1
  O  O0  1  0.62528800  0.40629900  0.40627400  1
  O  O1  1  0.62530600  0.90625900  0.90627700  1
  O  O2  1  0.66714800  0.41679500  0.91678900  1
  O  O3  1  0.66709900  0.91675700  0.41677800  1
  O  O4  1  0.35291100  0.08822700  0.58819500  1
  O  O5  1  0.35286800  0.58818500  0.08817900  1
  O  O6  1  0.37113800  0.59278800  0.59279500  1
  O  O7  1  0.37114200  0.09281000  0.09279900  1
  O  O8  1  0.99424100  0.49953900  0.75077000  1
  O  O9  1  0.99424400  0.99954200  0.25079400  1
  O  O10  1  0.99425400  0.49761500  0.24635800  1
  O  O11  1  0.99424600  0.99761300  0.74632900  1
  O  O12  1  0.99251500  0.24617300  0.99926100  1
  O  O13  1  0.99252700  0.74617400  0.49926700  1
  O  O14  1  0.99252300  0.75009200  0.99702000  1
  O  O15  1  0.99252400  0.25010200  0.49702900  1
loop_
_geom_bond_atom_site_label_1
_geom_bond_atom_site_label_2
_geom_bond_distance
_geom_bond_site_symmetry_2
La0 O0 2.262343 1_555
La0 O15 2.674900 1_455
La0 O12 2.674931 1_454
La0 O9 2.675838 1_445
La0 O10 2.675941 1_455
La0 O4 2.765352 1_555
La0 O5 2.765593 1_555
La0 O7 2.782354 1_555
La0 O6 2.782585 1_555
La1 O1 2.262193 1_555
La1 O13 2.674914 1_455
La1 O14 2.675178 1_455
La1 O8 2.675928 1_455
La1 O11 2.676287 1_455
La1 O5 2.765406 1_556
La1 O4 2.765727 1_565
La1 O6 2.782171 1_555
La1 O7 2.782907 1_566
La2 O6 2.258676 1_555
La2 O13 2.625610 1_555
La2 O14 2.626055 1_555
La2 O8 2.642464 1_555
La2 O11 2.642711 1_555
La2 O3 2.742236 1_555
La2 O2 2.742512 1_555
La2 O1 2.781206 1_555
La2 O0 2.782004 1_555
La3 O7 2.258519 1_555
La3 O12 2.625902 1_554
La3 O15 2.625959 1_555
La3 O9 2.642531 1_545
La3 O10 2.642860 1_555
La3 O3 2.742428 1_545
La3 O2 2.742582 1_554
La3 O0 2.781243 1_555
La3 O1 2.782402 1_544
La4 O4 2.400707 1_555
La4 O15 2.622545 1_555
La4 O12 2.623033 1_555
La4 O11 2.637670 1_545
La4 O8 2.637851 1_555
La4 O3 2.738852 1_545
La4 O2 2.739034 1_555
La4 O0 2.793002 1_555
La4 O1 2.793222 1_545
La5 O5 2.400524 1_555
La5 O14 2.623046 1_554
La5 O13 2.623276 1_555
La5 O10 2.637741 1_555
La5 O9 2.638472 1_555
La5 O2 2.738485 1_554
La5 O3 2.739017 1_555
La5 O0 2.792521 1_555
La5 O1 2.793036 1_554
Mn0 O9 1.901012 1_445
Mn0 O11 1.901165 1_445
Mn0 O13 1.944707 1_445
Mn0 O15 1.944898 1_455
Mn0 O3 2.178634 1_445
Mn0 O4 2.303932 1_555
Mn1 O8 1.901170 1_454
Mn1 O10 1.901393 1_455
Mn1 O12 1.944681 1_454
Mn1 O14 1.944838 1_454
Mn1 O2 2.178360 1_454
Mn1 O5 2.303606 1_555
Cu0 O13 1.915835 1_455
Cu0 O15 1.916518 1_455
Cu0 O8 1.935991 1_455
Cu0 O10 1.937102 1_455
Cu0 O6 2.378556 1_555
Cu0 O0 2.496429 1_455
Cu1 O12 1.915906 1_454
Cu1 O14 1.916532 1_444
Cu1 O9 1.936289 1_445
Cu1 O11 1.937182 1_444
Cu1 O7 2.378680 1_555
Cu1 O1 2.496213 1_444
O2 Sr0 2.488892 1_555
O3 Sr1 2.489128 1_555
O4 Sr1 2.751191 1_545
O4 Sr0 2.751594 1_555
O5 Sr0 2.750992 1_554
O5 Sr1 2.751964 1_555
O6 Sr0 2.778848 1_555
O6 Sr1 2.779105 1_555
O7 Sr0 2.779136 1_554
O7 Sr1 2.779295 1_545
O8 Sr0 2.719377 1_655
O9 Sr1 2.719039 1_655
O10 Sr1 2.718920 1_655
O11 Sr0 2.719400 1_665
O12 Sr0 2.720379 1_655
O13 Sr1 2.719762 1_655
O14 Sr1 2.719949 1_656
O15 Sr0 2.720103 1_655
