# generated using pymatgen
data_Rb2Mg2(MoO4)3
_symmetry_space_group_name_H-M   'P 1'
_cell_length_a   10.98022957
_cell_length_b   10.98022957
_cell_length_c   10.98022957
_cell_angle_alpha   90.00000000
_cell_angle_beta   90.00000000
_cell_angle_gamma   90.00000000
_symmetry_Int_Tables_number   1
_chemical_formula_structural   Rb2Mg2(MoO4)3
_chemical_formula_sum   'Rb8 Mg8 Mo12 O48'
_cell_volume   1323.83622489
_cell_formula_units_Z   4
loop_
 _symmetry_equiv_pos_site_id
 _symmetry_equiv_pos_as_xyz
  1  'x, y, z'
loop_
 _atom_site_type_symbol
 _atom_site_label
 _atom_site_symmetry_multiplicity
 _atom_site_fract_x
 _atom_site_fract_y
 _atom_site_fract_z
 _atom_site_occupancy
  Rb  Rb0  1  0.05213859  0.05213859  0.05213859  1
  Rb  Rb1  1  0.44786141  0.94786141  0.55213859  1
  Rb  Rb2  1  0.94786141  0.55213859  0.44786141  1
  Rb  Rb3  1  0.55213859  0.44786141  0.94786141  1
  Rb  Rb4  1  0.81908056  0.81908056  0.81908056  1
  Rb  Rb5  1  0.68091944  0.18091944  0.31908056  1
  Rb  Rb6  1  0.18091944  0.31908056  0.68091944  1
  Rb  Rb7  1  0.31908056  0.68091944  0.18091944  1
  Mg  Mg0  1  0.33670789  0.33670789  0.33670789  1
  Mg  Mg1  1  0.16329211  0.66329211  0.83670789  1
  Mg  Mg2  1  0.66329211  0.83670789  0.16329211  1
  Mg  Mg3  1  0.83670789  0.16329211  0.66329211  1
  Mg  Mg4  1  0.60473884  0.60473884  0.60473884  1
  Mg  Mg5  1  0.89526116  0.39526116  0.10473884  1
  Mg  Mg6  1  0.39526116  0.10473884  0.89526116  1
  Mg  Mg7  1  0.10473884  0.89526116  0.39526116  1
  Mo  Mo0  1  0.02225919  0.21046295  0.37646377  1
  Mo  Mo1  1  0.47774081  0.78953705  0.87646377  1
  Mo  Mo2  1  0.97774081  0.71046295  0.12353623  1
  Mo  Mo3  1  0.37646377  0.02225919  0.21046295  1
  Mo  Mo4  1  0.52225919  0.28953705  0.62353623  1
  Mo  Mo5  1  0.87646377  0.47774081  0.78953705  1
  Mo  Mo6  1  0.12353623  0.97774081  0.71046295  1
  Mo  Mo7  1  0.62353623  0.52225919  0.28953705  1
  Mo  Mo8  1  0.21046295  0.37646377  0.02225919  1
  Mo  Mo9  1  0.71046295  0.12353623  0.97774081  1
  Mo  Mo10  1  0.28953705  0.62353623  0.52225919  1
  Mo  Mo11  1  0.78953705  0.87646377  0.47774081  1
  O  O0  1  0.01678110  0.05399179  0.32735034  1
  O  O1  1  0.48321890  0.94600821  0.82735034  1
  O  O2  1  0.98321890  0.55399179  0.17264966  1
  O  O3  1  0.32735034  0.01678110  0.05399179  1
  O  O4  1  0.51678110  0.44600821  0.67264966  1
  O  O5  1  0.82735034  0.48321890  0.94600821  1
  O  O6  1  0.17264966  0.98321890  0.55399179  1
  O  O7  1  0.67264966  0.51678110  0.44600821  1
  O  O8  1  0.05399179  0.32735034  0.01678110  1
  O  O9  1  0.55399179  0.17264966  0.98321890  1
  O  O10  1  0.44600821  0.67264966  0.51678110  1
  O  O11  1  0.94600821  0.82735034  0.48321890  1
  O  O12  1  0.27019466  0.48614986  0.43625672  1
  O  O13  1  0.22980534  0.51385014  0.93625672  1
  O  O14  1  0.72980534  0.98614986  0.06374328  1
  O  O15  1  0.43625672  0.27019466  0.48614986  1
  O  O16  1  0.77019466  0.01385014  0.56374328  1
  O  O17  1  0.93625672  0.22980534  0.51385014  1
  O  O18  1  0.06374328  0.72980534  0.98614986  1
  O  O19  1  0.56374328  0.77019466  0.01385014  1
  O  O20  1  0.48614986  0.43625672  0.27019466  1
  O  O21  1  0.98614986  0.06374328  0.72980534  1
  O  O22  1  0.01385014  0.56374328  0.77019466  1
  O  O23  1  0.51385014  0.93625672  0.22980534  1
  O  O24  1  0.05014226  0.80454727  0.23575134  1
  O  O25  1  0.44985774  0.19545273  0.73575134  1
  O  O26  1  0.94985774  0.30454727  0.26424866  1
  O  O27  1  0.23575134  0.05014226  0.80454727  1
  O  O28  1  0.55014226  0.69545273  0.76424866  1
  O  O29  1  0.73575134  0.44985774  0.19545273  1
  O  O30  1  0.26424866  0.94985774  0.30454727  1
  O  O31  1  0.76424866  0.55014226  0.69545273  1
  O  O32  1  0.80454727  0.23575134  0.05014226  1
  O  O33  1  0.30454727  0.26424866  0.94985774  1
  O  O34  1  0.69545273  0.76424866  0.55014226  1
  O  O35  1  0.19545273  0.73575134  0.44985774  1
  O  O36  1  0.17533899  0.25850999  0.40271060  1
  O  O37  1  0.32466101  0.74149001  0.90271060  1
  O  O38  1  0.82466101  0.75850999  0.09728940  1
  O  O39  1  0.40271060  0.17533899  0.25850999  1
  O  O40  1  0.67533899  0.24149001  0.59728940  1
  O  O41  1  0.90271060  0.32466101  0.74149001  1
  O  O42  1  0.09728940  0.82466101  0.75850999  1
  O  O43  1  0.59728940  0.67533899  0.24149001  1
  O  O44  1  0.25850999  0.40271060  0.17533899  1
  O  O45  1  0.75850999  0.09728940  0.82466101  1
  O  O46  1  0.24149001  0.59728940  0.67533899  1
  O  O47  1  0.74149001  0.90271060  0.32466101  1
loop_
_geom_bond_atom_site_label_1
_geom_bond_atom_site_label_2
_geom_bond_distance
_geom_bond_site_symmetry_2
Mg0 O44 2.098091 1_555
Mg0 O39 2.098091 1_555
Mg0 O36 2.098091 1_555
Mg0 O20 2.102560 1_555
Mg0 O15 2.102560 1_555
Mg0 O12 2.102560 1_555
Mg1 O46 2.098091 1_555
Mg1 O42 2.098091 1_555
Mg1 O37 2.098091 1_555
Mg1 O22 2.102560 1_555
Mg1 O18 2.102560 1_555
Mg1 O13 2.102560 1_555
Mg2 O43 2.098091 1_555
Mg2 O38 2.098091 1_555
Mg2 O47 2.098091 1_555
Mg2 O19 2.102560 1_555
Mg2 O23 2.102560 1_555
Mg2 O14 2.102560 1_555
Mg3 O40 2.098091 1_555
Mg3 O41 2.098091 1_555
Mg3 O45 2.098091 1_555
Mg3 O16 2.102560 1_555
Mg3 O21 2.102560 1_555
Mg3 O17 2.102560 1_555
Mg4 O28 2.102167 1_555
Mg4 O34 2.102167 1_555
Mg4 O31 2.102167 1_555
Mg4 O4 2.127555 1_555
Mg4 O10 2.127555 1_555
Mg4 O7 2.127555 1_555
Mg5 O32 2.102167 1_555
Mg5 O29 2.102167 1_555
Mg5 O26 2.102167 1_555
Mg5 O5 2.127555 1_554
Mg5 O2 2.127555 1_555
Mg5 O8 2.127555 1_655
Mg6 O27 2.102167 1_555
Mg6 O25 2.102167 1_555
Mg6 O33 2.102167 1_555
Mg6 O9 2.127555 1_555
Mg6 O3 2.127555 1_556
Mg6 O1 2.127555 1_545
Mg7 O24 2.102167 1_555
Mg7 O35 2.102167 1_555
Mg7 O30 2.102167 1_555
Mg7 O11 2.127555 1_455
Mg7 O0 2.127555 1_565
Mg7 O6 2.127555 1_555
Mo0 O36 1.785118 1_555
Mo0 O17 1.792354 1_455
Mo0 O26 1.793716 1_455
Mo0 O0 1.801740 1_555
Mo1 O37 1.785118 1_555
Mo1 O19 1.792354 1_556
Mo1 O28 1.793716 1_555
Mo1 O1 1.801740 1_555
Mo2 O38 1.785118 1_555
Mo2 O18 1.792354 1_654
Mo2 O24 1.793716 1_655
Mo2 O2 1.801740 1_555
Mo3 O39 1.785118 1_555
Mo3 O23 1.792354 1_545
Mo3 O30 1.793716 1_545
Mo3 O3 1.801740 1_555
Mo4 O40 1.785118 1_555
Mo4 O15 1.792354 1_555
Mo4 O25 1.793716 1_555
Mo4 O4 1.801740 1_555
Mo5 O41 1.785118 1_555
Mo5 O22 1.792354 1_655
Mo5 O31 1.793716 1_555
Mo5 O5 1.801740 1_555
Mo6 O42 1.785118 1_555
Mo6 O21 1.792354 1_465
Mo6 O27 1.793716 1_565
Mo6 O6 1.801740 1_555
Mo7 O43 1.785118 1_555
Mo7 O20 1.792354 1_555
Mo7 O29 1.793716 1_555
Mo7 O7 1.801740 1_555
Mo8 O44 1.785118 1_555
Mo8 O13 1.792354 1_554
Mo8 O33 1.793716 1_554
Mo8 O8 1.801740 1_555
Mo9 O45 1.785118 1_555
Mo9 O14 1.792354 1_546
Mo9 O32 1.793716 1_556
Mo9 O9 1.801740 1_555
Mo10 O46 1.785118 1_555
Mo10 O12 1.792354 1_555
Mo10 O35 1.793716 1_555
Mo10 O10 1.801740 1_555
Mo11 O47 1.785118 1_555
Mo11 O16 1.792354 1_565
Mo11 O34 1.793716 1_555
Mo11 O11 1.801740 1_555
O0 Rb0 3.046793 1_555
O1 Rb1 3.046793 1_555
O2 Rb2 3.046793 1_555
O3 Rb0 3.046793 1_555
O4 Rb3 3.046793 1_555
O5 Rb3 3.046793 1_555
O6 Rb1 3.046793 1_555
O7 Rb2 3.046793 1_555
O8 Rb0 3.046793 1_555
O9 Rb3 3.046793 1_555
O10 Rb1 3.046793 1_555
O11 Rb2 3.046793 1_555
O12 Rb6 3.397526 1_555
O13 Rb7 3.397526 1_556
O14 Rb4 3.397526 1_554
O15 Rb5 3.397526 1_555
O16 Rb5 3.397526 1_555
O17 Rb6 3.397526 1_655
O18 Rb4 3.397526 1_455
O19 Rb7 3.397526 1_555
O20 Rb7 3.397526 1_555
O21 Rb4 3.397526 1_545
O22 Rb6 3.397526 1_555
O23 Rb5 3.397526 1_565
O24 Rb7 3.305363 1_555
O24 Rb0 3.384674 1_565
O25 Rb6 3.305363 1_555
O25 Rb1 3.384674 1_545
O26 Rb5 3.305363 1_555
O26 Rb2 3.384674 1_555
O27 Rb6 3.305363 1_555
O27 Rb0 3.384674 1_556
O28 Rb4 3.305363 1_555
O28 Rb3 3.384674 1_555
O29 Rb5 3.305363 1_555
O29 Rb3 3.384674 1_554
O30 Rb7 3.305363 1_555
O30 Rb1 3.384674 1_555
O31 Rb4 3.305363 1_555
O31 Rb2 3.384674 1_555
O32 Rb5 3.305363 1_555
O32 Rb0 3.384674 1_655
O33 Rb6 3.305363 1_555
O33 Rb3 3.384674 1_555
O34 Rb4 3.305363 1_555
O34 Rb1 3.384674 1_555
O35 Rb7 3.305363 1_555
O35 Rb2 3.384674 1_455
O36 Rb6 3.126958 1_555
O37 Rb7 3.126958 1_556
O38 Rb4 3.126958 1_554
O39 Rb5 3.126958 1_555
O40 Rb5 3.126958 1_555
O41 Rb6 3.126958 1_655
O42 Rb4 3.126958 1_455
O43 Rb7 3.126958 1_555
O44 Rb7 3.126958 1_555
O45 Rb4 3.126958 1_545
O46 Rb6 3.126958 1_555
O47 Rb5 3.126958 1_565
