# generated using pymatgen
data_Sr2TaCoO6
_symmetry_space_group_name_H-M   'P 1'
_cell_length_a   5.60374089
_cell_length_b   5.60540373
_cell_length_c   18.51997828
_cell_angle_alpha   81.68893303
_cell_angle_beta   98.27997010
_cell_angle_gamma   120.04873276
_symmetry_Int_Tables_number   1
_chemical_formula_structural   Sr2TaCoO6
_chemical_formula_sum   'Sr8 Ta4 Co4 O24'
_cell_volume   496.51614303
_cell_formula_units_Z   4
loop_
 _symmetry_equiv_pos_site_id
 _symmetry_equiv_pos_as_xyz
  1  'x, y, z'
loop_
 _atom_site_type_symbol
 _atom_site_label
 _atom_site_symmetry_multiplicity
 _atom_site_fract_x
 _atom_site_fract_y
 _atom_site_fract_z
 _atom_site_occupancy
  Sr  Sr0  1  0.31125600  0.68874200  0.93539500  1
  Sr  Sr1  1  0.56109400  0.43879900  0.68533500  1
  Sr  Sr2  1  0.06290900  0.93715700  0.18888300  1
  Sr  Sr3  1  0.81363100  0.18641000  0.43969100  1
  Sr  Sr4  1  0.93629400  0.06356500  0.81030200  1
  Sr  Sr5  1  0.18891700  0.81111800  0.56469700  1
  Sr  Sr6  1  0.68716800  0.31283600  0.06108800  1
  Sr  Sr7  1  0.43876400  0.56129800  0.31457600  1
  Ta  Ta0  1  0.62341400  0.37674000  0.87124700  1
  Ta  Ta1  1  0.87501000  0.12497400  0.62502300  1
  Ta  Ta2  1  0.37488400  0.62497000  0.12495900  1
  Ta  Ta3  1  0.12671200  0.87327500  0.37875100  1
  Co  Co0  1  0.24901600  0.75087500  0.74886500  1
  Co  Co1  1  0.50097600  0.49905500  0.50115700  1
  Co  Co2  1  0.99940900  0.00060800  0.99843600  1
  Co  Co3  1  0.75058200  0.24939500  0.25153500  1
  O  O0  1  0.94096100  0.56837600  0.80943600  1
  O  O1  1  0.19100800  0.31418200  0.56224100  1
  O  O2  1  0.68777100  0.81322900  0.06126700  1
  O  O3  1  0.43818100  0.05813200  0.31439600  1
  O  O4  1  0.31153100  0.19152100  0.93566600  1
  O  O5  1  0.55903400  0.93586600  0.68778600  1
  O  O6  1  0.06253100  0.43747800  0.18865500  1
  O  O7  1  0.80901900  0.68138500  0.44057500  1
  O  O8  1  0.80788500  0.19151800  0.93417700  1
  O  O9  1  0.06389600  0.93605800  0.68737300  1
  O  O10  1  0.56159900  0.43885300  0.18759100  1
  O  O11  1  0.31738200  0.68277200  0.44046100  1
  O  O12  1  0.43253400  0.56701300  0.80952600  1
  O  O13  1  0.68604500  0.31394300  0.56266600  1
  O  O14  1  0.18871400  0.81168800  0.06241200  1
  O  O15  1  0.94202100  0.05825400  0.31580600  1
  O  O16  1  0.80761800  0.68737700  0.93554000  1
  O  O17  1  0.06406900  0.44090100  0.68775100  1
  O  O18  1  0.56274400  0.93755600  0.18861500  1
  O  O19  1  0.31873900  0.19105000  0.44056200  1
  O  O20  1  0.43125500  0.05876100  0.80945600  1
  O  O21  1  0.68582300  0.80901900  0.56225800  1
  O  O22  1  0.18745100  0.31311400  0.06140500  1
  O  O23  1  0.94215100  0.56213500  0.31444100  1
loop_
_geom_bond_atom_site_label_1
_geom_bond_atom_site_label_2
_geom_bond_distance
_geom_bond_site_symmetry_2
Co0 O0 1.934503 1_455
Co0 O20 1.935287 1_565
Co0 O12 1.943150 1_555
Co0 O5 1.948258 1_555
Co0 O17 1.949723 1_555
Co0 O9 1.961362 1_555
Co1 O7 1.934586 1_555
Co1 O19 1.935809 1_555
Co1 O11 1.943150 1_555
Co1 O1 1.948117 1_555
Co1 O21 1.949530 1_555
Co1 O13 1.961012 1_555
Co2 O2 1.975334 1_546
Co2 O4 1.976683 1_655
Co2 O22 1.981652 1_656
Co2 O16 1.983829 1_545
Co2 O14 2.012679 1_646
Co2 O8 2.031620 1_555
Co3 O6 1.977156 1_655
Co3 O18 1.978439 1_545
Co3 O3 1.978875 1_555
Co3 O23 1.982008 1_555
Co3 O10 2.013275 1_555
Co3 O15 2.032295 1_555
O0 Ta0 1.986878 1_555
O0 Sr4 2.791296 1_565
O0 Sr0 2.803836 1_655
O0 Sr1 2.804693 1_555
O0 Sr4 2.814402 1_555
O1 Ta1 1.992004 1_455
O1 Sr1 2.762926 1_555
O1 Sr3 2.776135 1_455
O1 Sr5 2.798363 1_555
O1 Sr5 2.807827 1_545
O2 Ta2 1.990487 1_555
O2 Sr6 2.801715 1_565
O2 Sr6 2.803695 1_555
O2 Sr0 2.819930 1_554
O2 Sr2 2.840556 1_655
O3 Ta3 1.992863 1_545
O3 Sr7 2.786112 1_545
O3 Sr3 2.808779 1_555
O3 Sr2 2.811598 1_545
O3 Sr7 2.819298 1_555
O4 Ta0 1.995249 1_555
O4 Sr0 2.787175 1_555
O4 Sr4 2.809145 1_455
O4 Sr6 2.811342 1_556
O4 Sr0 2.818238 1_545
O5 Ta1 1.991692 1_565
O5 Sr5 2.762942 1_555
O5 Sr4 2.775330 1_565
O5 Sr1 2.798995 1_555
O5 Sr1 2.807191 1_565
O6 Ta2 1.988426 1_555
O6 Sr2 2.800456 1_555
O6 Sr2 2.804955 1_545
O6 Sr7 2.819848 1_555
O6 Sr6 2.840473 1_455
O7 Ta3 1.987621 1_655
O7 Sr3 2.789990 1_555
O7 Sr7 2.804303 1_555
O7 Sr5 2.805070 1_655
O7 Sr3 2.815708 1_565
O8 Ta0 1.970501 1_555
O8 Sr4 2.786286 1_555
O8 Sr6 2.797338 1_556
O8 Sr0 2.798763 1_545
O8 Sr0 2.802101 1_655
O9 Ta1 1.998023 1_465
O9 Sr5 2.748251 1_555
O9 Sr4 2.767007 1_465
O9 Sr1 2.800362 1_565
O9 Sr1 2.800729 1_455
O10 Ta2 1.980502 1_555
O10 Sr2 2.799269 1_655
O10 Sr2 2.801413 1_545
O10 Sr7 2.807434 1_555
O10 Sr6 2.816733 1_555
O11 Ta3 2.006534 1_555
O11 Sr7 2.782296 1_555
O11 Sr5 2.793562 1_555
O11 Sr3 2.800145 1_565
O11 Sr3 2.800770 1_455
O12 Ta0 2.006539 1_555
O12 Sr0 2.782441 1_555
O12 Sr1 2.792708 1_555
O12 Sr4 2.799578 1_455
O12 Sr4 2.801317 1_565
O13 Ta1 1.998605 1_555
O13 Sr1 2.747701 1_555
O13 Sr3 2.767800 1_555
O13 Sr5 2.800405 1_545
O13 Sr5 2.800693 1_655
O14 Ta2 1.980042 1_555
O14 Sr6 2.799216 1_565
O14 Sr6 2.801465 1_455
O14 Sr0 2.808543 1_554
O14 Sr2 2.815330 1_555
O15 Ta3 1.970532 1_645
O15 Sr3 2.786974 1_555
O15 Sr2 2.797403 1_645
O15 Sr7 2.799841 1_655
O15 Sr7 2.801039 1_545
O16 Ta0 1.990121 1_555
O16 Sr0 2.784937 1_555
O16 Sr4 2.809120 1_565
O16 Sr6 2.809134 1_556
O16 Sr0 2.818821 1_655
O17 Ta1 1.992343 1_455
O17 Sr5 2.761817 1_555
O17 Sr4 2.775111 1_455
O17 Sr1 2.797926 1_555
O17 Sr1 2.806579 1_455
O18 Ta2 1.990126 1_555
O18 Sr2 2.800545 1_555
O18 Sr2 2.803205 1_655
O18 Sr7 2.819542 1_555
O18 Sr6 2.838744 1_565
O19 Ta3 1.989056 1_545
O19 Sr3 2.788741 1_555
O19 Sr7 2.803186 1_555
O19 Sr5 2.804412 1_545
O19 Sr3 2.815294 1_455
O20 Ta0 1.989641 1_555
O20 Sr4 2.789525 1_455
O20 Sr0 2.801884 1_545
O20 Sr1 2.804522 1_555
O20 Sr4 2.814517 1_555
O21 Ta1 1.992891 1_565
O21 Sr1 2.762149 1_555
O21 Sr3 2.775489 1_565
O21 Sr5 2.797318 1_555
O21 Sr5 2.807200 1_655
O22 Ta2 1.986034 1_555
O22 Sr6 2.801837 1_455
O22 Sr6 2.801917 1_555
O22 Sr0 2.818454 1_554
O22 Sr2 2.839942 1_545
O23 Ta3 1.992294 1_655
O23 Sr7 2.784884 1_655
O23 Sr3 2.807984 1_555
O23 Sr2 2.810617 1_655
O23 Sr7 2.818865 1_555
