# generated using pymatgen
data_NbVCr
_symmetry_space_group_name_H-M   'P 1'
_cell_length_a   4.97193015
_cell_length_b   4.97133508
_cell_length_c   4.97193015
_cell_angle_alpha   120.62179434
_cell_angle_beta   119.08506342
_cell_angle_gamma   90.26271030
_symmetry_Int_Tables_number   1
_chemical_formula_structural   NbVCr
_chemical_formula_sum   'Nb2 V2 Cr2'
_cell_volume   87.06704818
_cell_formula_units_Z   2
loop_
 _symmetry_equiv_pos_site_id
 _symmetry_equiv_pos_as_xyz
  1  'x, y, z'
loop_
 _atom_site_type_symbol
 _atom_site_label
 _atom_site_symmetry_multiplicity
 _atom_site_fract_x
 _atom_site_fract_y
 _atom_site_fract_z
 _atom_site_occupancy
  Nb  Nb0  1  0.12625558  0.87623193  0.24997535  1
  Nb  Nb1  1  0.87374442  0.12376807  0.75002465  1
  V  V0  1  0.50000000  0.50000000  -0.00000000  1
  V  V1  1  0.00000000  0.50000000  0.50000000  1
  Cr  Cr0  1  0.50000000  0.50000000  0.50000000  1
  Cr  Cr1  1  0.50000000  0.00000000  -0.00000000  1
loop_
_geom_bond_atom_site_label_1
_geom_bond_atom_site_label_2
_geom_bond_distance
_geom_bond_site_symmetry_2
Nb0 V1 2.899099 1_565
Nb0 V0 2.899101 1_566
Nb0 V1 2.899149 1_554
Nb0 V0 2.899151 1_555
Nb0 V0 2.924753 1_455
Nb0 V1 2.924755 1_555
Nb0 Nb1 3.032891 1_454
Nb0 Nb1 3.033770 1_465
Nb0 Nb1 3.060341 1_464
Nb0 Nb1 3.060349 1_565
Nb1 V1 2.899099 1_645
Nb1 V0 2.899101 1_545
Nb1 V1 2.899149 1_656
Nb1 V0 2.899151 1_556
Nb1 V0 2.924753 1_656
Nb1 V1 2.924755 1_655
V0 V1 2.520265 1_655
V0 V1 2.520265 1_554
Cr0 Cr1 2.462417 1_566
Cr0 Cr1 2.462417 1_555
Cr0 V1 2.485965 1_555
Cr0 V0 2.485965 1_555
Cr0 V0 2.485965 1_556
Cr0 V1 2.485965 1_655
Cr0 Nb0 2.896308 1_545
Cr0 Nb1 2.896308 1_565
Cr0 Nb1 2.941314 1_454
Cr0 Nb0 2.941314 1_656
Cr0 Nb1 2.941318 1_555
Cr0 Nb0 2.941318 1_555
Cr1 V1 2.485668 1_544
Cr1 V0 2.485668 1_545
Cr1 V0 2.485668 1_555
Cr1 V1 2.485668 1_655
Cr1 Nb1 2.896589 1_554
Cr1 Nb0 2.896589 1_545
Cr1 Nb1 2.941540 1_454
Cr1 Nb0 2.941540 1_645
Cr1 Nb0 2.941545 1_544
Cr1 Nb1 2.941545 1_555
