# generated using pymatgen
data_Ho2Cu(B2O5)2
_symmetry_space_group_name_H-M   'P 1'
_cell_length_a   7.29021900
_cell_length_b   4.60484300
_cell_length_c   9.35995876
_cell_angle_alpha   89.53537061
_cell_angle_beta   90.00000000
_cell_angle_gamma   90.00000000
_symmetry_Int_Tables_number   1
_chemical_formula_structural   Ho2Cu(B2O5)2
_chemical_formula_sum   'Ho4 Cu2 B8 O20'
_cell_volume   314.20642235
_cell_formula_units_Z   2
loop_
 _symmetry_equiv_pos_site_id
 _symmetry_equiv_pos_as_xyz
  1  'x, y, z'
loop_
 _atom_site_type_symbol
 _atom_site_label
 _atom_site_symmetry_multiplicity
 _atom_site_fract_x
 _atom_site_fract_y
 _atom_site_fract_z
 _atom_site_occupancy
  Ho  Ho0  1  0.39549600  0.00428100  0.83473000  1
  Ho  Ho1  1  0.89549600  0.99571900  0.66527000  1
  Ho  Ho2  1  0.10450400  0.00428100  0.33473000  1
  Ho  Ho3  1  0.60450400  0.99571900  0.16527000  1
  Cu  Cu0  1  0.00000000  0.00000000  0.00000000  1
  Cu  Cu1  1  0.50000000  0.00000000  0.50000000  1
  B  B0  1  0.26760700  0.53983400  0.08086700  1
  B  B1  1  0.76760700  0.46016600  0.41913300  1
  B  B2  1  0.73239300  0.46016600  0.91913300  1
  B  B3  1  0.23239300  0.53983400  0.58086700  1
  B  B4  1  0.59857000  0.52781400  0.66176500  1
  B  B5  1  0.09857000  0.47218600  0.83823500  1
  B  B6  1  0.40143000  0.47218600  0.33823500  1
  B  B7  1  0.90143000  0.52781400  0.16176500  1
  O  O0  1  0.41074600  0.78531800  0.33423100  1
  O  O1  1  0.58925400  0.21468200  0.66576900  1
  O  O2  1  0.08717700  0.67708900  0.13800600  1
  O  O3  1  0.58717700  0.32291100  0.36199400  1
  O  O4  1  0.91282300  0.32291100  0.86199400  1
  O  O5  1  0.08925400  0.78531800  0.83423100  1
  O  O6  1  0.77777200  0.64077100  0.04699800  1
  O  O7  1  0.27777200  0.35922900  0.45300200  1
  O  O8  1  0.22222800  0.35922900  0.95300200  1
  O  O9  1  0.72222800  0.64077100  0.54699800  1
  O  O10  1  0.83440000  0.65660300  0.29999600  1
  O  O11  1  0.33440000  0.34339700  0.20000400  1
  O  O12  1  0.16560000  0.34339700  0.70000400  1
  O  O13  1  0.66560000  0.65660300  0.79999600  1
  O  O14  1  0.11171200  0.77105600  0.54241700  1
  O  O15  1  0.61171200  0.22894400  0.95758300  1
  O  O16  1  0.88828800  0.22894400  0.45758300  1
  O  O17  1  0.38828800  0.77105600  0.04241700  1
  O  O18  1  0.41282300  0.67708900  0.63800600  1
  O  O19  1  0.91074600  0.21468200  0.16576900  1
loop_
_geom_bond_atom_site_label_1
_geom_bond_atom_site_label_2
_geom_bond_distance
_geom_bond_site_symmetry_2
Ho0 O15 2.212788 1_555
Ho0 O17 2.213868 1_546
Ho0 O1 2.325973 1_555
Ho0 O8 2.349881 1_555
Ho0 O18 2.391963 1_545
Ho0 O5 2.449719 1_545
Ho0 O13 2.560228 1_545
Ho0 O12 2.608779 1_555
Ho1 O14 2.212788 1_655
Ho1 O16 2.213868 1_565
Ho1 O5 2.325973 1_655
Ho1 O9 2.349881 1_555
Ho1 O4 2.391963 1_565
Ho1 O1 2.449719 1_565
Ho1 O12 2.560228 1_665
Ho1 O13 2.608779 1_555
Ho2 O16 2.212788 1_455
Ho2 O14 2.213868 1_545
Ho2 O19 2.325973 1_455
Ho2 O7 2.349881 1_555
Ho2 O2 2.391963 1_545
Ho2 O0 2.449719 1_545
Ho2 O10 2.560228 1_445
Ho2 O11 2.608779 1_555
Ho3 O17 2.212788 1_555
Ho3 O15 2.213868 1_564
Ho3 O0 2.325973 1_555
Ho3 O6 2.349881 1_555
Ho3 O3 2.391963 1_565
Ho3 O19 2.449719 1_565
Ho3 O11 2.560228 1_565
Ho3 O10 2.608779 1_555
Cu0 O19 1.957800 1_455
Cu0 O5 1.957800 1_544
Cu0 O2 2.062125 1_545
Cu0 O4 2.062125 1_454
Cu0 O8 2.354306 1_554
Cu0 O6 2.354306 1_445
Cu1 O1 1.957800 1_555
Cu1 O0 1.957800 1_545
Cu1 O3 2.062125 1_555
Cu1 O18 2.062125 1_545
Cu1 O9 2.354306 1_545
Cu1 O7 2.354306 1_555
B0 O17 1.425136 1_555
B0 O8 1.499866 1_554
B0 O11 1.510783 1_555
B0 O2 1.556019 1_555
B1 O16 1.425136 1_555
B1 O9 1.499866 1_555
B1 O10 1.510783 1_555
B1 O3 1.556019 1_555
B2 O15 1.425136 1_555
B2 O6 1.499866 1_556
B2 O13 1.510783 1_555
B2 O4 1.556019 1_555
B3 O14 1.425136 1_555
B3 O7 1.499866 1_555
B3 O12 1.510783 1_555
B3 O18 1.556019 1_555
B4 O1 1.443705 1_555
B4 O9 1.492689 1_555
B4 O13 1.508960 1_555
B4 O18 1.534002 1_555
B5 O5 1.443705 1_555
B5 O8 1.492689 1_555
B5 O12 1.508960 1_555
B5 O4 1.534002 1_455
B6 O0 1.443705 1_555
B6 O7 1.492689 1_555
B6 O11 1.508960 1_555
B6 O3 1.534002 1_555
B7 O19 1.443705 1_555
B7 O6 1.492689 1_555
B7 O10 1.508960 1_555
B7 O2 1.534002 1_655
