# generated using pymatgen
data_Dy(AlCu)6
_symmetry_space_group_name_H-M   'P 1'
_cell_length_a   4.97545368
_cell_length_b   6.57939429
_cell_length_c   6.57939429
_cell_angle_alpha   99.07641728
_cell_angle_beta   112.21658610
_cell_angle_gamma   67.78341390
_symmetry_Int_Tables_number   1
_chemical_formula_structural   Dy(AlCu)6
_chemical_formula_sum   'Dy1 Al6 Cu6'
_cell_volume   184.56009124
_cell_formula_units_Z   1
loop_
 _symmetry_equiv_pos_site_id
 _symmetry_equiv_pos_as_xyz
  1  'x, y, z'
loop_
 _atom_site_type_symbol
 _atom_site_label
 _atom_site_symmetry_multiplicity
 _atom_site_fract_x
 _atom_site_fract_y
 _atom_site_fract_z
 _atom_site_occupancy
  Dy  Dy0  1  -0.00000000  0.00000000  0.00000000  1
  Al  Al0  1  0.65084909  0.34915091  0.65084909  1
  Al  Al1  1  0.34915091  0.65084909  0.34915091  1
  Al  Al2  1  0.00000000  0.34626828  0.34626828  1
  Al  Al3  1  -0.00000000  0.65373172  0.65373172  1
  Al  Al4  1  0.70241645  0.79758355  0.20241645  1
  Al  Al5  1  0.29758355  0.20241645  0.79758355  1
  Cu  Cu0  1  0.50000000  0.00000000  0.50000000  1
  Cu  Cu1  1  -0.00000000  0.00000000  0.50000000  1
  Cu  Cu2  1  0.50000000  0.50000000  0.00000000  1
  Cu  Cu3  1  -0.00000000  0.50000000  0.00000000  1
  Cu  Cu4  1  0.50000000  0.76969964  0.76969964  1
  Cu  Cu5  1  0.50000000  0.23030036  0.23030036  1
loop_
_geom_bond_atom_site_label_1
_geom_bond_atom_site_label_2
_geom_bond_distance
_geom_bond_site_symmetry_2
Al0 Cu2 2.616616 1_556
Al0 Cu0 2.616616 1_555
Al0 Cu3 2.616616 1_656
Al0 Cu1 2.616616 1_655
Al0 Al1 2.621119 1_555
Al0 Cu4 2.649822 1_555
Al0 Cu5 2.649822 1_555
Al0 Al5 2.795341 1_555
Al0 Al5 2.795341 1_655
Al0 Dy0 3.033383 1_656
Al1 Cu2 2.616616 1_555
Al1 Cu0 2.616616 1_565
Al1 Cu3 2.616616 1_555
Al1 Cu1 2.616616 1_565
Al1 Cu4 2.649822 1_555
Al1 Cu5 2.649822 1_555
Al1 Al4 2.795341 1_555
Al1 Al4 2.795341 1_455
Al1 Dy0 3.033383 1_565
Al2 Al3 2.625515 1_555
Al2 Cu3 2.634472 1_555
Al2 Cu2 2.634472 1_455
Al2 Cu1 2.634472 1_555
Al2 Cu0 2.634472 1_555
Al2 Cu5 2.677582 1_555
Al2 Cu5 2.677582 1_455
Al2 Al4 2.899565 1_455
Al2 Al5 2.899565 1_555
Al2 Dy0 2.956880 1_555
Al3 Cu0 2.634472 1_465
Al3 Cu1 2.634472 1_565
Al3 Cu2 2.634472 1_556
Al3 Cu3 2.634472 1_556
Al3 Cu4 2.677582 1_455
Al3 Cu4 2.677582 1_555
Al3 Al4 2.899565 1_455
Al3 Al5 2.899565 1_555
Al3 Dy0 2.956880 1_566
Al4 Cu1 2.505104 1_665
Al4 Cu0 2.505104 1_565
Al4 Cu2 2.505104 1_555
Al4 Cu3 2.505104 1_655
Al4 Cu4 2.638196 1_554
Al4 Cu5 2.638196 1_565
Al4 Dy0 3.046532 1_665
Al4 Dy0 3.046532 1_565
Al5 Cu2 2.505104 1_556
Al5 Cu1 2.505104 1_555
Al5 Cu3 2.505104 1_556
Al5 Cu0 2.505104 1_555
Al5 Cu5 2.638196 1_556
Al5 Cu4 2.638196 1_545
Al5 Dy0 3.046532 1_656
Al5 Dy0 3.046532 1_556
Cu0 Cu1 2.487727 1_655
Cu0 Cu1 2.487727 1_555
Cu0 Cu5 2.508576 1_555
Cu0 Cu4 2.508576 1_545
Cu0 Dy0 3.289697 1_656
Cu0 Dy0 3.289697 1_555
Cu1 Cu4 2.508576 1_545
Cu1 Cu5 2.508576 1_455
Cu1 Dy0 3.289697 1_556
Cu1 Dy0 3.289697 1_555
Cu2 Cu3 2.487727 1_655
Cu2 Cu3 2.487727 1_555
Cu2 Cu4 2.508576 1_554
Cu2 Cu5 2.508576 1_555
Cu2 Dy0 3.289697 1_655
Cu2 Dy0 3.289697 1_565
Cu3 Cu4 2.508576 1_454
Cu3 Cu5 2.508576 1_555
Cu3 Dy0 3.289697 1_565
Cu3 Dy0 3.289697 1_555
Cu4 Dy0 3.171166 1_666
Cu4 Dy0 3.171166 1_566
Cu5 Dy0 3.171166 1_555
Cu5 Dy0 3.171166 1_655
