# generated using pymatgen
data_Ba21(Cd2Bi9)2
_symmetry_space_group_name_H-M   'P 1'
_cell_length_a   13.63230643
_cell_length_b   13.63230643
_cell_length_c   38.41398959
_cell_angle_alpha   90.00000000
_cell_angle_beta   90.00000000
_cell_angle_gamma   92.54424098
_symmetry_Int_Tables_number   1
_chemical_formula_structural   Ba21(Cd2Bi9)2
_chemical_formula_sum   'Ba84 Cd16 Bi72'
_cell_volume   7131.81014922
_cell_formula_units_Z   4
loop_
 _symmetry_equiv_pos_site_id
 _symmetry_equiv_pos_as_xyz
  1  'x, y, z'
loop_
 _atom_site_type_symbol
 _atom_site_label
 _atom_site_symmetry_multiplicity
 _atom_site_fract_x
 _atom_site_fract_y
 _atom_site_fract_z
 _atom_site_occupancy
  Ba  Ba0  1  0.73057368  0.26942632  0.79689582  1
  Ba  Ba1  1  0.26942632  0.73057368  0.20310418  1
  Ba  Ba2  1  0.76942632  0.23057368  0.29689582  1
  Ba  Ba3  1  0.23057368  0.76942632  0.70310418  1
  Ba  Ba4  1  0.41191846  0.94029982  0.87058528  1
  Ba  Ba5  1  0.58808154  0.05970018  0.12941472  1
  Ba  Ba6  1  0.08808154  0.55970018  0.37058528  1
  Ba  Ba7  1  0.55970018  0.08808154  0.62941472  1
  Ba  Ba8  1  0.91191846  0.44029982  0.62941472  1
  Ba  Ba9  1  0.44029982  0.91191846  0.37058528  1
  Ba  Ba10  1  0.94029982  0.41191846  0.12941472  1
  Ba  Ba11  1  0.05970018  0.58808154  0.87058528  1
  Ba  Ba12  1  0.39235326  0.26753974  0.82912765  1
  Ba  Ba13  1  0.60764674  0.73246026  0.17087235  1
  Ba  Ba14  1  0.10764674  0.23246026  0.32912765  1
  Ba  Ba15  1  0.23246026  0.10764674  0.67087235  1
  Ba  Ba16  1  0.89235326  0.76753974  0.67087235  1
  Ba  Ba17  1  0.76753974  0.89235326  0.32912765  1
  Ba  Ba18  1  0.26753974  0.39235326  0.17087235  1
  Ba  Ba19  1  0.73246026  0.60764674  0.82912765  1
  Ba  Ba20  1  0.42504423  0.32599162  0.94010768  1
  Ba  Ba21  1  0.57495577  0.67400838  0.05989232  1
  Ba  Ba22  1  0.07495577  0.17400838  0.44010768  1
  Ba  Ba23  1  0.17400838  0.07495577  0.55989232  1
  Ba  Ba24  1  0.92504423  0.82599162  0.55989232  1
  Ba  Ba25  1  0.82599162  0.92504423  0.44010768  1
  Ba  Ba26  1  0.32599162  0.42504423  0.05989232  1
  Ba  Ba27  1  0.67400838  0.57495577  0.94010768  1
  Ba  Ba28  1  0.74163715  0.93611748  0.82252098  1
  Ba  Ba29  1  0.25836285  0.06388252  0.17747902  1
  Ba  Ba30  1  0.75836285  0.56388252  0.32252098  1
  Ba  Ba31  1  0.56388252  0.75836285  0.67747902  1
  Ba  Ba32  1  0.24163715  0.43611748  0.67747902  1
  Ba  Ba33  1  0.43611748  0.24163715  0.32252098  1
  Ba  Ba34  1  0.93611748  0.74163715  0.17747902  1
  Ba  Ba35  1  0.06388252  0.25836285  0.82252098  1
  Ba  Ba36  1  0.50205523  0.82547845  0.96776328  1
  Ba  Ba37  1  0.49794477  0.17452155  0.03223672  1
  Ba  Ba38  1  0.99794477  0.67452155  0.46776328  1
  Ba  Ba39  1  0.67452155  0.99794477  0.53223672  1
  Ba  Ba40  1  0.00205523  0.32547845  0.53223672  1
  Ba  Ba41  1  0.32547845  0.00205523  0.46776328  1
  Ba  Ba42  1  0.82547845  0.50205523  0.03223672  1
  Ba  Ba43  1  0.17452155  0.49794477  0.96776328  1
  Ba  Ba44  1  0.75662510  0.93681934  0.92468619  1
  Ba  Ba45  1  0.24337490  0.06318066  0.07531381  1
  Ba  Ba46  1  0.74337490  0.56318066  0.42468619  1
  Ba  Ba47  1  0.56318066  0.74337490  0.57531381  1
  Ba  Ba48  1  0.25662510  0.43681934  0.57531381  1
  Ba  Ba49  1  0.43681934  0.25662510  0.42468619  1
  Ba  Ba50  1  0.93681934  0.75662510  0.07531381  1
  Ba  Ba51  1  0.06318066  0.24337490  0.92468619  1
  Ba  Ba52  1  0.22515286  0.01073861  0.96144027  1
  Ba  Ba53  1  0.77484714  0.98926139  0.03855973  1
  Ba  Ba54  1  0.27484714  0.48926139  0.46144027  1
  Ba  Ba55  1  0.48926139  0.27484714  0.53855973  1
  Ba  Ba56  1  0.72515286  0.51073861  0.53855973  1
  Ba  Ba57  1  0.51073861  0.72515286  0.46144027  1
  Ba  Ba58  1  0.01073861  0.22515286  0.03855973  1
  Ba  Ba59  1  0.98926139  0.77484714  0.96144027  1
  Ba  Ba60  1  0.72904249  0.00803646  0.71912974  1
  Ba  Ba61  1  0.27095751  0.99196354  0.28087026  1
  Ba  Ba62  1  0.77095751  0.49196354  0.21912974  1
  Ba  Ba63  1  0.49196354  0.77095751  0.78087026  1
  Ba  Ba64  1  0.22904249  0.50803646  0.78087026  1
  Ba  Ba65  1  0.50803646  0.22904249  0.21912974  1
  Ba  Ba66  1  0.00803646  0.72904249  0.28087026  1
  Ba  Ba67  1  0.99196354  0.27095751  0.71912974  1
  Ba  Ba68  1  0.89439961  0.10560039  0.62204377  1
  Ba  Ba69  1  0.10560039  0.89439961  0.37795623  1
  Ba  Ba70  1  0.60560039  0.39439961  0.12204377  1
  Ba  Ba71  1  0.39439961  0.60560039  0.87795623  1
  Ba  Ba72  1  0.74358733  0.25641267  0.95797445  1
  Ba  Ba73  1  0.25641267  0.74358733  0.04202555  1
  Ba  Ba74  1  0.75641267  0.24358733  0.45797445  1
  Ba  Ba75  1  0.24358733  0.75641267  0.54202555  1
  Ba  Ba76  1  0.48610030  0.27182292  0.72227298  1
  Ba  Ba77  1  0.51389970  0.72817708  0.27772702  1
  Ba  Ba78  1  0.01389970  0.22817708  0.22227298  1
  Ba  Ba79  1  0.22817708  0.01389970  0.77772702  1
  Ba  Ba80  1  0.98610030  0.77182292  0.77772702  1
  Ba  Ba81  1  0.77182292  0.98610030  0.22227298  1
  Ba  Ba82  1  0.27182292  0.48610030  0.27772702  1
  Ba  Ba83  1  0.72817708  0.51389970  0.72227298  1
  Cd  Cd0  1  0.99183699  0.00816301  0.85410886  1
  Cd  Cd1  1  0.00816301  0.99183699  0.14589114  1
  Cd  Cd2  1  0.50816301  0.49183699  0.35410886  1
  Cd  Cd3  1  0.49183699  0.50816301  0.64589114  1
  Cd  Cd4  1  0.60857066  0.15048885  0.87308681  1
  Cd  Cd5  1  0.39142934  0.84951115  0.12691319  1
  Cd  Cd6  1  0.89142934  0.34951115  0.37308681  1
  Cd  Cd7  1  0.34951115  0.89142934  0.62691319  1
  Cd  Cd8  1  0.10857066  0.65048885  0.62691319  1
  Cd  Cd9  1  0.65048885  0.10857066  0.37308681  1
  Cd  Cd10  1  0.15048885  0.60857066  0.12691319  1
  Cd  Cd11  1  0.84951115  0.39142934  0.87308681  1
  Cd  Cd12  1  0.64853304  0.35146696  0.62672055  1
  Cd  Cd13  1  0.35146696  0.64853304  0.37327945  1
  Cd  Cd14  1  0.85146696  0.14853304  0.12672055  1
  Cd  Cd15  1  0.14853304  0.85146696  0.87327945  1
  Bi  Bi0  1  0.59583256  0.77075703  0.87855273  1
  Bi  Bi1  1  0.40416744  0.22924297  0.12144727  1
  Bi  Bi2  1  0.90416744  0.72924297  0.37855273  1
  Bi  Bi3  1  0.72924297  0.90416744  0.62144727  1
  Bi  Bi4  1  0.09583256  0.27075703  0.62144727  1
  Bi  Bi5  1  0.27075703  0.09583256  0.37855273  1
  Bi  Bi6  1  0.77075703  0.59583256  0.12144727  1
  Bi  Bi7  1  0.22924297  0.40416744  0.87855273  1
  Bi  Bi8  1  0.53228704  0.07976589  0.94432567  1
  Bi  Bi9  1  0.46771296  0.92023411  0.05567433  1
  Bi  Bi10  1  0.96771296  0.42023411  0.44432567  1
  Bi  Bi11  1  0.42023411  0.96771296  0.55567433  1
  Bi  Bi12  1  0.03228704  0.57976589  0.55567433  1
  Bi  Bi13  1  0.57976589  0.03228704  0.44432567  1
  Bi  Bi14  1  0.07976589  0.53228704  0.05567433  1
  Bi  Bi15  1  0.92023411  0.46771296  0.94432567  1
  Bi  Bi16  1  0.74858488  0.25141512  0.56087419  1
  Bi  Bi17  1  0.25141512  0.74858488  0.43912581  1
  Bi  Bi18  1  0.75141512  0.24858488  0.06087419  1
  Bi  Bi19  1  0.24858488  0.75141512  0.93912581  1
  Bi  Bi20  1  0.53294622  0.06867757  0.79764880  1
  Bi  Bi21  1  0.46705378  0.93132243  0.20235120  1
  Bi  Bi22  1  0.96705378  0.43132243  0.29764880  1
  Bi  Bi23  1  0.43132243  0.96705378  0.70235120  1
  Bi  Bi24  1  0.03294622  0.56867757  0.70235120  1
  Bi  Bi25  1  0.56867757  0.03294622  0.29764880  1
  Bi  Bi26  1  0.06867757  0.53294622  0.20235120  1
  Bi  Bi27  1  0.93132243  0.46705378  0.79764880  1
  Bi  Bi28  1  0.92503527  0.07496473  0.51527971  1
  Bi  Bi29  1  0.07496473  0.92503527  0.48472029  1
  Bi  Bi30  1  0.57496473  0.42503527  0.01527971  1
  Bi  Bi31  1  0.42503527  0.57496473  0.98472029  1
  Bi  Bi32  1  0.74505677  0.25494323  0.69030463  1
  Bi  Bi33  1  0.25494323  0.74505677  0.30969537  1
  Bi  Bi34  1  0.75494323  0.24505677  0.19030463  1
  Bi  Bi35  1  0.24505677  0.75494323  0.80969537  1
  Bi  Bi36  1  0.20007980  0.07814285  0.87065750  1
  Bi  Bi37  1  0.79992020  0.92185715  0.12934250  1
  Bi  Bi38  1  0.29992020  0.42185715  0.37065750  1
  Bi  Bi39  1  0.42185715  0.29992020  0.62934250  1
  Bi  Bi40  1  0.70007980  0.57814285  0.62934250  1
  Bi  Bi41  1  0.57814285  0.70007980  0.37065750  1
  Bi  Bi42  1  0.07814285  0.20007980  0.12934250  1
  Bi  Bi43  1  0.92185715  0.79992020  0.87065750  1
  Bi  Bi44  1  0.84031996  0.15968004  0.87582028  1
  Bi  Bi45  1  0.15968004  0.84031996  0.12417972  1
  Bi  Bi46  1  0.65968004  0.34031996  0.37582028  1
  Bi  Bi47  1  0.34031996  0.65968004  0.62417972  1
  Bi  Bi48  1  0.52646859  0.47353141  0.79047714  1
  Bi  Bi49  1  0.47353141  0.52646859  0.20952286  1
  Bi  Bi50  1  0.97353141  0.02646859  0.29047714  1
  Bi  Bi51  1  0.02646859  0.97353141  0.70952286  1
  Bi  Bi52  1  0.93650052  0.06349948  0.77732837  1
  Bi  Bi53  1  0.06349948  0.93650052  0.22267163  1
  Bi  Bi54  1  0.56349948  0.43650052  0.27732837  1
  Bi  Bi55  1  0.43650052  0.56349948  0.72267163  1
  Bi  Bi56  1  0.73768428  0.76231572  0.75000000  1
  Bi  Bi57  1  0.26231572  0.23768428  0.25000000  1
  Bi  Bi58  1  0.76231572  0.73768428  0.25000000  1
  Bi  Bi59  1  0.23768428  0.26231572  0.75000000  1
  Bi  Bi60  1  0.95226299  0.04773701  0.96877289  1
  Bi  Bi61  1  0.04773701  0.95226299  0.03122711  1
  Bi  Bi62  1  0.54773701  0.45226299  0.46877289  1
  Bi  Bi63  1  0.45226299  0.54773701  0.53122711  1
  Bi  Bi64  1  0.75360794  0.75360794  -0.00000000  1
  Bi  Bi65  1  0.24639206  0.24639206  -0.00000000  1
  Bi  Bi66  1  0.74639206  0.74639206  0.50000000  1
  Bi  Bi67  1  0.25360794  0.25360794  0.50000000  1
  Bi  Bi68  1  0.61714248  0.38285752  0.87531055  1
  Bi  Bi69  1  0.38285752  0.61714248  0.12468945  1
  Bi  Bi70  1  0.88285752  0.11714248  0.37531055  1
  Bi  Bi71  1  0.11714248  0.88285752  0.62468945  1
loop_
_geom_bond_atom_site_label_1
_geom_bond_atom_site_label_2
_geom_bond_distance
_geom_bond_site_symmetry_2
Ba0 Cd4 3.704299 1_555
Ba0 Cd11 3.704299 1_555
Ba0 Bi44 3.723862 1_555
Ba0 Bi68 3.750739 1_555
Ba0 Bi20 3.754182 1_555
Ba0 Bi27 3.754182 1_555
Ba0 Bi48 4.028882 1_555
Ba0 Bi32 4.104524 1_555
Ba0 Bi52 4.126264 1_555
Ba0 Ba83 4.397162 1_555
Ba0 Ba76 4.397162 1_555
Ba1 Cd10 3.704299 1_555
Ba1 Cd5 3.704299 1_555
Ba1 Bi45 3.723862 1_555
Ba1 Bi69 3.750739 1_555
Ba1 Bi26 3.754182 1_555
Ba1 Bi21 3.754182 1_555
Ba1 Bi49 4.028882 1_555
Ba1 Bi33 4.104524 1_555
Ba1 Bi53 4.126264 1_555
Ba1 Ba77 4.397162 1_555
Ba1 Ba82 4.397162 1_555
Ba2 Cd9 3.704299 1_555
Ba2 Cd6 3.704299 1_555
Ba2 Bi46 3.723862 1_555
Ba2 Bi70 3.750739 1_555
Ba2 Bi22 3.754182 1_555
Ba2 Bi25 3.754182 1_555
Ba2 Bi50 4.028882 1_555
Ba2 Bi34 4.104524 1_555
Ba2 Bi54 4.126264 1_555
Ba2 Ba78 4.397162 1_655
Ba2 Ba81 4.397162 1_545
Ba3 Cd7 3.704299 1_555
Ba3 Cd8 3.704299 1_555
Ba3 Bi47 3.723862 1_555
Ba3 Bi71 3.750739 1_555
Ba3 Bi23 3.754182 1_555
Ba3 Bi24 3.754182 1_555
Ba3 Bi51 4.028882 1_555
Ba3 Bi35 4.104524 1_555
Ba3 Bi55 4.126264 1_555
Ba3 Ba79 4.397162 1_565
Ba3 Ba80 4.397162 1_455
Ba4 Bi0 3.497996 1_555
Ba4 Bi36 3.514620 1_565
Ba4 Bi20 3.657670 1_565
Ba4 Cd15 3.739418 1_555
Ba4 Bi8 3.748905 1_565
Ba4 Cd4 3.837234 1_565
Ba4 Bi35 4.064474 1_555
Ba4 Ba79 4.497534 1_565
Ba5 Bi1 3.497996 1_555
Ba5 Bi37 3.514620 1_545
Ba5 Bi21 3.657670 1_545
Ba5 Cd14 3.739418 1_555
Ba5 Bi9 3.748905 1_545
Ba5 Cd5 3.837234 1_545
Ba5 Bi34 4.064474 1_555
Ba5 Ba81 4.497534 1_545
Ba6 Bi2 3.497996 1_455
Ba6 Bi38 3.514620 1_555
Ba6 Bi22 3.657670 1_455
Ba6 Cd13 3.739418 1_555
Ba6 Bi10 3.748905 1_455
Ba6 Cd6 3.837234 1_455
Ba6 Bi33 4.064474 1_555
Ba6 Ba82 4.497534 1_555
Ba7 Bi3 3.497996 1_545
Ba7 Bi39 3.514620 1_555
Ba7 Bi23 3.657670 1_545
Ba7 Cd12 3.739418 1_555
Ba7 Bi11 3.748905 1_545
Ba7 Cd7 3.837234 1_545
Ba7 Bi32 4.064474 1_555
Ba7 Ba76 4.497534 1_555
Ba8 Bi4 3.497996 1_655
Ba8 Bi40 3.514620 1_555
Ba8 Bi24 3.657670 1_655
Ba8 Cd12 3.739418 1_555
Ba8 Bi12 3.748905 1_655
Ba8 Cd8 3.837234 1_655
Ba8 Bi32 4.064474 1_555
Ba8 Ba83 4.497534 1_555
Ba9 Bi5 3.497996 1_565
Ba9 Bi41 3.514620 1_555
Ba9 Bi25 3.657670 1_565
Ba9 Cd13 3.739418 1_555
Ba9 Bi13 3.748905 1_565
Ba9 Cd9 3.837234 1_565
Ba9 Bi33 4.064474 1_555
Ba10 Bi6 3.497996 1_555
Ba10 Bi42 3.514620 1_655
Ba10 Bi26 3.657670 1_655
Ba10 Cd14 3.739418 1_555
Ba10 Bi14 3.748905 1_655
Ba10 Cd10 3.837234 1_655
Ba10 Bi34 4.064474 1_555
Ba10 Ba78 4.497534 1_655
Ba11 Bi7 3.497996 1_555
Ba11 Bi43 3.514620 1_455
Ba11 Bi27 3.657670 1_455
Ba11 Cd15 3.739418 1_555
Ba11 Bi15 3.748905 1_455
Ba11 Cd11 3.837234 1_455
Ba11 Bi35 4.064474 1_555
Ba11 Ba80 4.497534 1_455
Ba12 Bi7 3.519344 1_555
Ba12 Bi20 3.598077 1_555
Ba12 Bi48 3.602350 1_555
Ba12 Bi59 3.698204 1_555
Ba12 Cd4 3.808316 1_555
Ba12 Bi68 3.818571 1_555
Ba12 Bi36 3.934572 1_555
Ba12 Ba76 4.298688 1_555
Ba12 Ba79 4.491813 1_555
Ba13 Bi6 3.519344 1_555
Ba13 Bi21 3.598077 1_555
Ba13 Bi49 3.602350 1_555
Ba13 Bi58 3.698204 1_555
Ba13 Cd5 3.808316 1_555
Ba13 Bi69 3.818571 1_555
Ba13 Bi37 3.934572 1_555
Ba13 Ba77 4.298688 1_555
Ba13 Ba81 4.491813 1_555
Ba14 Bi5 3.519344 1_555
Ba14 Bi22 3.598077 1_455
Ba14 Bi50 3.602350 1_455
Ba14 Bi57 3.698204 1_555
Ba14 Cd6 3.808316 1_455
Ba14 Bi70 3.818571 1_455
Ba14 Bi38 3.934572 1_555
Ba14 Ba78 4.298688 1_555
Ba14 Ba82 4.491813 1_555
Ba15 Bi4 3.519344 1_555
Ba15 Bi23 3.598077 1_545
Ba15 Bi51 3.602350 1_545
Ba15 Bi59 3.698204 1_555
Ba15 Cd7 3.808316 1_545
Ba15 Bi71 3.818571 1_545
Ba15 Bi39 3.934572 1_555
Ba15 Ba79 4.298688 1_555
Ba15 Ba76 4.491813 1_555
Ba16 Bi3 3.519344 1_555
Ba16 Bi24 3.598077 1_655
Ba16 Bi51 3.602350 1_655
Ba16 Bi56 3.698204 1_555
Ba16 Cd8 3.808316 1_655
Ba16 Bi71 3.818571 1_655
Ba16 Bi40 3.934572 1_555
Ba16 Ba80 4.298688 1_555
Ba16 Ba83 4.491813 1_555
Ba17 Bi2 3.519344 1_555
Ba17 Bi25 3.598077 1_565
Ba17 Bi50 3.602350 1_565
Ba17 Bi58 3.698204 1_555
Ba17 Cd9 3.808316 1_565
Ba17 Bi70 3.818571 1_565
Ba17 Bi41 3.934572 1_555
Ba17 Ba81 4.298688 1_555
Ba17 Ba77 4.491813 1_555
Ba18 Bi1 3.519344 1_555
Ba18 Bi26 3.598077 1_555
Ba18 Bi49 3.602350 1_555
Ba18 Bi57 3.698204 1_555
Ba18 Cd10 3.808316 1_555
Ba18 Bi69 3.818571 1_555
Ba18 Bi42 3.934572 1_555
Ba18 Ba82 4.298688 1_555
Ba18 Ba78 4.491813 1_555
Ba19 Bi0 3.519344 1_555
Ba19 Bi27 3.598077 1_555
Ba19 Bi48 3.602350 1_555
Ba19 Bi56 3.698204 1_555
Ba19 Cd11 3.808316 1_555
Ba19 Bi68 3.818571 1_555
Ba19 Bi43 3.934572 1_555
Ba19 Ba83 4.298688 1_555
Ba19 Ba80 4.491813 1_555
Ba20 Bi65 3.488191 1_556
Ba20 Bi68 3.670726 1_555
Ba20 Bi8 3.723735 1_555
Ba20 Bi30 3.754139 1_556
Ba20 Bi7 3.755563 1_555
Ba20 Bi31 3.802201 1_555
Ba20 Ba72 4.538011 1_555
Ba21 Bi64 3.488191 1_555
Ba21 Bi69 3.670726 1_555
Ba21 Bi9 3.723735 1_555
Ba21 Bi31 3.754139 1_554
Ba21 Bi6 3.755563 1_555
Ba21 Bi30 3.802201 1_555
Ba21 Ba73 4.538011 1_555
Ba22 Bi67 3.488191 1_555
Ba22 Bi70 3.670726 1_455
Ba22 Bi10 3.723735 1_455
Ba22 Bi28 3.754139 1_455
Ba22 Bi5 3.755563 1_555
Ba22 Bi29 3.802201 1_545
Ba22 Ba74 4.538011 1_455
Ba23 Bi67 3.488191 1_555
Ba23 Bi71 3.670726 1_545
Ba23 Bi11 3.723735 1_545
Ba23 Bi29 3.754139 1_545
Ba23 Bi4 3.755563 1_555
Ba23 Bi28 3.802201 1_455
Ba23 Ba75 4.538011 1_545
Ba24 Bi66 3.488191 1_555
Ba24 Bi71 3.670726 1_655
Ba24 Bi12 3.723735 1_655
Ba24 Bi29 3.754139 1_655
Ba24 Bi3 3.755563 1_555
Ba24 Bi28 3.802201 1_565
Ba24 Ba75 4.538011 1_655
Ba25 Bi66 3.488191 1_555
Ba25 Bi70 3.670726 1_565
Ba25 Bi13 3.723735 1_565
Ba25 Bi28 3.754139 1_565
Ba25 Bi2 3.755563 1_555
Ba25 Bi29 3.802201 1_655
Ba25 Ba74 4.538011 1_565
Ba26 Bi65 3.488191 1_555
Ba26 Bi69 3.670726 1_555
Ba26 Bi14 3.723735 1_555
Ba26 Bi31 3.754139 1_554
Ba26 Bi1 3.755563 1_555
Ba26 Bi30 3.802201 1_555
Ba26 Ba73 4.538011 1_555
Ba27 Bi64 3.488191 1_556
Ba27 Bi68 3.670726 1_555
Ba27 Bi15 3.723735 1_555
Ba27 Bi30 3.754139 1_556
Ba27 Bi0 3.755563 1_555
Ba27 Bi31 3.802201 1_555
Ba27 Ba72 4.538011 1_555
Ba28 Bi52 3.560390 1_565
Ba28 Bi20 3.567714 1_565
Ba28 Bi0 3.642447 1_555
Ba28 Bi43 3.647933 1_555
Ba28 Bi56 3.655959 1_555
Ba28 Cd0 3.711219 1_565
Ba28 Bi44 3.863429 1_565
Ba28 Ba80 4.443653 1_555
Ba29 Bi53 3.560390 1_545
Ba29 Bi21 3.567714 1_545
Ba29 Bi1 3.642447 1_555
Ba29 Bi42 3.647933 1_555
Ba29 Bi57 3.655959 1_555
Ba29 Cd1 3.711219 1_545
Ba29 Bi45 3.863429 1_545
Ba29 Ba78 4.443653 1_555
Ba30 Bi54 3.560390 1_555
Ba30 Bi22 3.567714 1_555
Ba30 Bi2 3.642447 1_555
Ba30 Bi41 3.647933 1_555
Ba30 Bi58 3.655959 1_555
Ba30 Cd2 3.711219 1_555
Ba30 Bi46 3.863429 1_555
Ba30 Ba77 4.443653 1_555
Ba31 Bi55 3.560390 1_555
Ba31 Bi23 3.567714 1_555
Ba31 Bi3 3.642447 1_555
Ba31 Bi40 3.647933 1_555
Ba31 Bi56 3.655959 1_555
Ba31 Cd3 3.711219 1_555
Ba31 Bi47 3.863429 1_555
Ba31 Ba83 4.443653 1_555
Ba32 Bi55 3.560390 1_555
Ba32 Bi24 3.567714 1_555
Ba32 Bi4 3.642447 1_555
Ba32 Bi39 3.647933 1_555
Ba32 Bi59 3.655959 1_555
Ba32 Cd3 3.711219 1_555
Ba32 Bi47 3.863429 1_555
Ba32 Ba76 4.443653 1_555
Ba33 Bi54 3.560390 1_555
Ba33 Bi25 3.567714 1_555
Ba33 Bi5 3.642447 1_555
Ba33 Bi38 3.647933 1_555
Ba33 Bi57 3.655959 1_555
Ba33 Cd2 3.711219 1_555
Ba33 Bi46 3.863429 1_555
Ba33 Ba82 4.443653 1_555
Ba34 Bi53 3.560390 1_655
Ba34 Bi26 3.567714 1_655
Ba34 Bi6 3.642447 1_555
Ba34 Bi37 3.647933 1_555
Ba34 Bi58 3.655959 1_555
Ba34 Cd1 3.711219 1_655
Ba34 Bi45 3.863429 1_655
Ba34 Ba81 4.443653 1_555
Ba35 Bi52 3.560390 1_455
Ba35 Bi27 3.567714 1_455
Ba35 Bi7 3.642447 1_555
Ba35 Bi36 3.647933 1_555
Ba35 Bi59 3.655959 1_555
Ba35 Cd0 3.711219 1_455
Ba35 Bi44 3.863429 1_455
Ba35 Ba79 4.443653 1_555
Ba36 Bi8 3.587534 1_565
Ba36 Bi31 3.587638 1_555
Ba36 Bi9 3.653174 1_556
Ba36 Bi19 3.722839 1_555
Ba36 Bi0 3.744240 1_555
Ba36 Bi64 3.814633 1_556
Ba36 Ba73 4.501772 1_556
Ba37 Bi9 3.587534 1_545
Ba37 Bi30 3.587638 1_555
Ba37 Bi8 3.653174 1_554
Ba37 Bi18 3.722839 1_555
Ba37 Bi1 3.744240 1_555
Ba37 Bi65 3.814633 1_555
Ba37 Ba72 4.501772 1_554
Ba38 Bi10 3.587534 1_555
Ba38 Bi29 3.587638 1_655
Ba38 Bi12 3.653174 1_655
Ba38 Bi17 3.722839 1_655
Ba38 Bi2 3.744240 1_555
Ba38 Bi66 3.814633 1_555
Ba38 Ba75 4.501772 1_655
Ba39 Bi11 3.587534 1_555
Ba39 Bi28 3.587638 1_565
Ba39 Bi13 3.653174 1_565
Ba39 Bi16 3.722839 1_565
Ba39 Bi3 3.744240 1_555
Ba39 Bi66 3.814633 1_555
Ba39 Ba74 4.501772 1_565
Ba40 Bi12 3.587534 1_555
Ba40 Bi28 3.587638 1_455
Ba40 Bi10 3.653174 1_455
Ba40 Bi16 3.722839 1_455
Ba40 Bi4 3.744240 1_555
Ba40 Bi67 3.814633 1_555
Ba40 Ba74 4.501772 1_455
Ba41 Bi13 3.587534 1_555
Ba41 Bi29 3.587638 1_545
Ba41 Bi11 3.653174 1_545
Ba41 Bi17 3.722839 1_545
Ba41 Bi5 3.744240 1_555
Ba41 Bi67 3.814633 1_555
Ba41 Ba75 4.501772 1_545
Ba42 Bi14 3.587534 1_655
Ba42 Bi30 3.587638 1_555
Ba42 Bi15 3.653174 1_554
Ba42 Bi18 3.722839 1_555
Ba42 Bi6 3.744240 1_555
Ba42 Bi64 3.814633 1_555
Ba42 Ba72 4.501772 1_554
Ba43 Bi15 3.587534 1_455
Ba43 Bi31 3.587638 1_555
Ba43 Bi14 3.653174 1_556
Ba43 Bi19 3.722839 1_555
Ba43 Bi7 3.744240 1_555
Ba43 Bi65 3.814633 1_556
Ba43 Ba73 4.501772 1_556
Ba44 Bi60 3.450982 1_565
Ba44 Bi0 3.553819 1_555
Ba44 Bi43 3.638318 1_555
Ba44 Bi44 3.707795 1_565
Ba44 Bi8 3.774722 1_565
Ba44 Bi64 3.821073 1_556
Ba44 Ba72 4.551610 1_565
Ba45 Bi61 3.450982 1_545
Ba45 Bi1 3.553819 1_555
Ba45 Bi42 3.638318 1_555
Ba45 Bi45 3.707795 1_545
Ba45 Bi9 3.774722 1_545
Ba45 Bi65 3.821073 1_555
Ba45 Ba73 4.551610 1_545
Ba46 Bi62 3.450982 1_555
Ba46 Bi2 3.553819 1_555
Ba46 Bi41 3.638318 1_555
Ba46 Bi46 3.707795 1_555
Ba46 Bi10 3.774722 1_555
Ba46 Bi66 3.821073 1_555
Ba46 Ba74 4.551610 1_555
Ba47 Bi63 3.450982 1_555
Ba47 Bi3 3.553819 1_555
Ba47 Bi40 3.638318 1_555
Ba47 Bi47 3.707795 1_555
Ba47 Bi11 3.774722 1_555
Ba47 Bi66 3.821073 1_555
Ba47 Ba75 4.551610 1_555
Ba48 Bi63 3.450982 1_555
Ba48 Bi4 3.553819 1_555
Ba48 Bi39 3.638318 1_555
Ba48 Bi47 3.707795 1_555
Ba48 Bi12 3.774722 1_555
Ba48 Bi67 3.821073 1_555
Ba48 Ba75 4.551610 1_555
Ba49 Bi62 3.450982 1_555
Ba49 Bi5 3.553819 1_555
Ba49 Bi38 3.638318 1_555
Ba49 Bi46 3.707795 1_555
Ba49 Bi13 3.774722 1_555
Ba49 Bi67 3.821073 1_555
Ba49 Ba74 4.551610 1_555
Ba50 Bi61 3.450982 1_655
Ba50 Bi6 3.553819 1_555
Ba50 Bi37 3.638318 1_555
Ba50 Bi45 3.707795 1_655
Ba50 Bi14 3.774722 1_655
Ba50 Bi64 3.821073 1_555
Ba50 Ba73 4.551610 1_655
Ba51 Bi60 3.450982 1_455
Ba51 Bi7 3.553819 1_555
Ba51 Bi36 3.638318 1_555
Ba51 Bi44 3.707795 1_455
Ba51 Bi15 3.774722 1_455
Ba51 Bi65 3.821073 1_556
Ba51 Ba72 4.551610 1_455
Ba52 Bi65 3.537720 1_556
Ba52 Bi36 3.626362 1_555
Ba52 Bi19 3.665316 1_545
Ba52 Bi61 3.674302 1_546
Ba52 Bi60 3.786766 1_455
Ba52 Bi8 4.300982 1_555
Ba52 Ba73 4.813054 1_546
Ba53 Bi64 3.537720 1_555
Ba53 Bi37 3.626362 1_555
Ba53 Bi18 3.665316 1_565
Ba53 Bi60 3.674302 1_564
Ba53 Bi61 3.786766 1_655
Ba53 Bi9 4.300982 1_555
Ba53 Ba72 4.813054 1_564
Ba54 Bi67 3.537720 1_555
Ba54 Bi38 3.626362 1_555
Ba54 Bi17 3.665316 1_555
Ba54 Bi63 3.674302 1_555
Ba54 Bi62 3.786766 1_555
Ba54 Bi10 4.300982 1_455
Ba54 Ba75 4.813054 1_555
Ba55 Bi67 3.537720 1_555
Ba55 Bi39 3.626362 1_555
Ba55 Bi16 3.665316 1_555
Ba55 Bi62 3.674302 1_555
Ba55 Bi63 3.786766 1_555
Ba55 Bi11 4.300982 1_545
Ba55 Ba74 4.813054 1_555
Ba56 Bi66 3.537720 1_555
Ba56 Bi40 3.626362 1_555
Ba56 Bi16 3.665316 1_555
Ba56 Bi62 3.674302 1_555
Ba56 Bi63 3.786766 1_555
Ba56 Bi12 4.300982 1_655
Ba56 Ba74 4.813054 1_555
Ba57 Bi66 3.537720 1_555
Ba57 Bi41 3.626362 1_555
Ba57 Bi17 3.665316 1_555
Ba57 Bi63 3.674302 1_555
Ba57 Bi62 3.786766 1_555
Ba57 Bi13 4.300982 1_565
Ba57 Ba75 4.813054 1_555
Ba58 Bi65 3.537720 1_555
Ba58 Bi42 3.626362 1_555
Ba58 Bi18 3.665316 1_455
Ba58 Bi60 3.674302 1_454
Ba58 Bi61 3.786766 1_545
Ba58 Bi14 4.300982 1_555
Ba58 Ba72 4.813054 1_454
Ba59 Bi64 3.537720 1_556
Ba59 Bi43 3.626362 1_555
Ba59 Bi19 3.665316 1_655
Ba59 Bi61 3.674302 1_656
Ba59 Bi60 3.786766 1_565
Ba59 Bi15 4.300982 1_555
Ba59 Ba73 4.813054 1_656
Ba60 Bi32 3.540883 1_555
Ba60 Bi56 3.560325 1_545
Ba60 Bi52 3.657629 1_555
Ba60 Bi3 4.010691 1_545
Ba60 Bi51 4.119052 1_645
Ba60 Bi23 4.122932 1_545
Ba60 Bi20 4.138052 1_555
Ba61 Bi33 3.540883 1_555
Ba61 Bi57 3.560325 1_565
Ba61 Bi53 3.657629 1_555
Ba61 Bi5 4.010691 1_565
Ba61 Bi50 4.119052 1_465
Ba61 Bi25 4.122932 1_565
Ba61 Bi21 4.138052 1_555
Ba62 Bi34 3.540883 1_555
Ba62 Bi58 3.560325 1_555
Ba62 Bi54 3.657629 1_555
Ba62 Bi6 4.010691 1_555
Ba62 Bi49 4.119052 1_555
Ba62 Bi26 4.122932 1_655
Ba62 Bi22 4.138052 1_555
Ba63 Bi35 3.540883 1_555
Ba63 Bi56 3.560325 1_555
Ba63 Bi55 3.657629 1_555
Ba63 Bi0 4.010691 1_555
Ba63 Bi48 4.119052 1_555
Ba63 Bi20 4.122932 1_565
Ba63 Bi23 4.138052 1_555
Ba64 Bi35 3.540883 1_555
Ba64 Bi59 3.560325 1_555
Ba64 Bi55 3.657629 1_555
Ba64 Bi7 4.010691 1_555
Ba64 Bi48 4.119052 1_555
Ba64 Bi27 4.122932 1_455
Ba64 Bi24 4.138052 1_555
Ba65 Bi34 3.540883 1_555
Ba65 Bi57 3.560325 1_555
Ba65 Bi54 3.657629 1_555
Ba65 Bi1 4.010691 1_555
Ba65 Bi49 4.119052 1_555
Ba65 Bi21 4.122932 1_545
Ba65 Bi25 4.138052 1_555
Ba66 Bi33 3.540883 1_555
Ba66 Bi58 3.560325 1_455
Ba66 Bi53 3.657629 1_555
Ba66 Bi2 4.010691 1_455
Ba66 Bi50 4.119052 1_465
Ba66 Bi22 4.122932 1_455
Ba66 Bi26 4.138052 1_555
Ba67 Bi32 3.540883 1_555
Ba67 Bi59 3.560325 1_655
Ba67 Bi52 3.657629 1_555
Ba67 Bi4 4.010691 1_655
Ba67 Bi51 4.119052 1_645
Ba67 Bi24 4.122932 1_655
Ba67 Bi27 4.138052 1_555
Ba68 Bi3 3.472927 1_545
Ba68 Bi4 3.472927 1_655
Ba68 Bi16 3.711447 1_555
Ba68 Bi32 3.941249 1_555
Ba68 Bi28 4.145412 1_555
Ba68 Bi51 4.250074 1_645
Ba69 Bi2 3.472927 1_455
Ba69 Bi5 3.472927 1_565
Ba69 Bi17 3.711447 1_555
Ba69 Bi33 3.941249 1_555
Ba69 Bi29 4.145412 1_555
Ba69 Bi50 4.250074 1_465
Ba70 Bi1 3.472927 1_555
Ba70 Bi6 3.472927 1_555
Ba70 Bi18 3.711447 1_555
Ba70 Bi34 3.941249 1_555
Ba70 Bi30 4.145412 1_555
Ba70 Bi49 4.250074 1_555
Ba71 Bi7 3.472927 1_555
Ba71 Bi0 3.472927 1_555
Ba71 Bi19 3.711447 1_555
Ba71 Bi35 3.941249 1_555
Ba71 Bi31 4.145412 1_555
Ba71 Bi48 4.250074 1_555
Ba72 Bi44 3.686703 1_555
Ba72 Bi8 3.708821 1_555
Ba72 Bi15 3.708821 1_555
Ba72 Bi18 3.955797 1_556
Ba72 Cd4 3.983741 1_555
Ba72 Cd11 3.983741 1_555
Ba72 Bi30 3.985365 1_556
Ba72 Bi68 4.036063 1_555
Ba72 Bi60 4.132253 1_555
Ba73 Bi45 3.686703 1_555
Ba73 Bi14 3.708821 1_555
Ba73 Bi9 3.708821 1_555
Ba73 Bi19 3.955797 1_554
Ba73 Cd10 3.983741 1_555
Ba73 Cd5 3.983741 1_555
Ba73 Bi31 3.985365 1_554
Ba73 Bi69 4.036063 1_555
Ba73 Bi61 4.132253 1_555
Ba74 Bi46 3.686703 1_555
Ba74 Bi13 3.708821 1_555
Ba74 Bi10 3.708821 1_555
Ba74 Bi16 3.955797 1_555
Ba74 Cd9 3.983741 1_555
Ba74 Cd6 3.983741 1_555
Ba74 Bi28 3.985365 1_555
Ba74 Bi70 4.036063 1_555
Ba74 Bi62 4.132253 1_555
Ba75 Bi47 3.686703 1_555
Ba75 Bi12 3.708821 1_555
Ba75 Bi11 3.708821 1_555
Ba75 Bi17 3.955797 1_555
Ba75 Cd7 3.983741 1_555
Ba75 Cd8 3.983741 1_555
Ba75 Bi29 3.985365 1_555
Ba75 Bi71 4.036063 1_555
Ba75 Bi63 4.132253 1_555
Ba76 Bi59 3.546907 1_555
Ba76 Bi39 3.699619 1_555
Ba76 Bi32 3.754365 1_555
Ba76 Bi48 3.820210 1_555
Ba76 Bi55 4.062817 1_555
Ba76 Bi20 4.076509 1_555
Ba76 Bi23 4.257865 1_545
Ba76 Ba83 4.562235 1_555
Ba77 Bi58 3.546907 1_555
Ba77 Bi41 3.699619 1_555
Ba77 Bi33 3.754365 1_555
Ba77 Bi49 3.820210 1_555
Ba77 Bi54 4.062817 1_555
Ba77 Bi21 4.076509 1_555
Ba77 Bi25 4.257865 1_565
Ba77 Ba9 4.497534 1_555
Ba77 Ba82 4.562235 1_555
Ba78 Bi57 3.546907 1_555
Ba78 Bi42 3.699619 1_555
Ba78 Bi34 3.754365 1_455
Ba78 Bi50 3.820210 1_455
Ba78 Bi53 4.062817 1_545
Ba78 Bi22 4.076509 1_455
Ba78 Bi26 4.257865 1_555
Ba78 Ba81 4.562235 1_445
Ba79 Bi59 3.546907 1_555
Ba79 Bi36 3.699619 1_555
Ba79 Bi35 3.754365 1_545
Ba79 Bi51 3.820210 1_545
Ba79 Bi52 4.062817 1_455
Ba79 Bi23 4.076509 1_545
Ba79 Bi20 4.257865 1_555
Ba79 Ba80 4.562235 1_445
Ba80 Bi56 3.546907 1_555
Ba80 Bi43 3.699619 1_555
Ba80 Bi35 3.754365 1_655
Ba80 Bi51 3.820210 1_655
Ba80 Bi52 4.062817 1_565
Ba80 Bi24 4.076509 1_655
Ba80 Bi27 4.257865 1_555
Ba81 Bi58 3.546907 1_555
Ba81 Bi37 3.699619 1_555
Ba81 Bi34 3.754365 1_565
Ba81 Bi50 3.820210 1_565
Ba81 Bi53 4.062817 1_655
Ba81 Bi25 4.076509 1_565
Ba81 Bi21 4.257865 1_555
Ba82 Bi57 3.546907 1_555
Ba82 Bi38 3.699619 1_555
Ba82 Bi33 3.754365 1_555
Ba82 Bi49 3.820210 1_555
Ba82 Bi54 4.062817 1_555
Ba82 Bi26 4.076509 1_555
Ba82 Bi22 4.257865 1_455
Ba83 Bi56 3.546907 1_555
Ba83 Bi40 3.699619 1_555
Ba83 Bi32 3.754365 1_555
Ba83 Bi48 3.820210 1_555
Ba83 Bi55 4.062817 1_555
Ba83 Bi27 4.076509 1_555
Ba83 Bi24 4.257865 1_655
Cd0 Cd15 3.173881 1_645
Cd1 Cd14 3.173881 1_465
Cd12 Cd3 3.173881 1_555
Cd13 Cd2 3.173881 1_555
Bi8 Cd4 3.067695 1_555
Bi9 Cd5 3.067695 1_555
Bi10 Cd6 3.067695 1_555
Bi11 Cd7 3.067695 1_555
Bi12 Cd8 3.067695 1_555
Bi13 Cd9 3.067695 1_555
Bi14 Cd10 3.067695 1_555
Bi15 Cd11 3.067695 1_555
Bi16 Cd12 3.206834 1_555
Bi17 Cd13 3.206834 1_555
Bi18 Cd14 3.206834 1_555
Bi19 Cd15 3.206834 1_555
Bi20 Cd4 3.256113 1_555
Bi21 Cd5 3.256113 1_555
Bi22 Cd6 3.256113 1_555
Bi23 Cd7 3.256113 1_555
Bi24 Cd8 3.256113 1_555
Bi25 Cd9 3.256113 1_555
Bi26 Cd10 3.256113 1_555
Bi27 Cd11 3.256113 1_555
Bi28 Bi29 3.178659 1_645
Bi30 Bi31 3.178659 1_554
Bi32 Cd12 3.095560 1_555
Bi33 Cd13 3.095560 1_555
Bi34 Cd14 3.095560 1_555
Bi35 Cd15 3.095560 1_555
Bi36 Cd0 3.022039 1_455
Bi36 Cd15 3.140058 1_545
Bi37 Cd1 3.022039 1_655
Bi37 Cd14 3.140058 1_565
Bi38 Cd2 3.022039 1_555
Bi38 Cd13 3.140058 1_555
Bi39 Cd3 3.022039 1_555
Bi39 Cd12 3.140058 1_555
Bi40 Cd3 3.022039 1_555
Bi40 Cd12 3.140058 1_555
Bi41 Cd2 3.022039 1_555
Bi41 Cd13 3.140058 1_555
Bi42 Cd1 3.022039 1_545
Bi42 Cd14 3.140058 1_455
Bi43 Cd0 3.022039 1_565
Bi43 Cd15 3.140058 1_655
Bi44 Cd0 3.099544 1_555
Bi44 Cd4 3.157945 1_555
Bi44 Cd11 3.157945 1_555
Bi45 Cd1 3.099544 1_555
Bi45 Cd10 3.157945 1_555
Bi45 Cd5 3.157945 1_555
Bi46 Cd2 3.099544 1_555
Bi46 Cd6 3.157945 1_555
Bi46 Cd9 3.157945 1_555
Bi47 Cd3 3.099544 1_555
Bi47 Cd7 3.157945 1_555
Bi47 Cd8 3.157945 1_555
Bi48 Bi55 3.150615 1_555
Bi48 Bi68 3.716345 1_555
Bi49 Bi54 3.150615 1_555
Bi49 Bi69 3.716345 1_555
Bi50 Bi53 3.150615 1_645
Bi50 Bi70 3.716345 1_555
Bi51 Bi52 3.150615 1_465
Bi51 Bi71 3.716345 1_555
Bi52 Cd0 3.144500 1_555
Bi53 Cd1 3.144500 1_555
Bi54 Cd2 3.144500 1_555
Bi55 Cd3 3.144500 1_555
Bi60 Bi61 3.048625 1_646
Bi62 Bi63 3.048625 1_555
Bi68 Cd11 3.165840 1_555
Bi68 Cd4 3.165840 1_555
Bi69 Cd5 3.165840 1_555
Bi69 Cd10 3.165840 1_555
Bi70 Cd6 3.165840 1_555
Bi70 Cd9 3.165840 1_555
Bi71 Cd7 3.165840 1_555
Bi71 Cd8 3.165840 1_555
