# generated using pymatgen
data_Dy5B2C5
_symmetry_space_group_name_H-M   'P 1'
_cell_length_a   8.14074578
_cell_length_b   8.14074077
_cell_length_c   10.71603408
_cell_angle_alpha   89.99999235
_cell_angle_beta   89.99997873
_cell_angle_gamma   90.00000816
_symmetry_Int_Tables_number   1
_chemical_formula_structural   Dy5B2C5
_chemical_formula_sum   'Dy20 B8 C20'
_cell_volume   710.16980720
_cell_formula_units_Z   4
loop_
 _symmetry_equiv_pos_site_id
 _symmetry_equiv_pos_as_xyz
  1  'x, y, z'
loop_
 _atom_site_type_symbol
 _atom_site_label
 _atom_site_symmetry_multiplicity
 _atom_site_fract_x
 _atom_site_fract_y
 _atom_site_fract_z
 _atom_site_occupancy
  Dy  Dy0  1  0.49999991  0.00000012  0.63996949  1
  Dy  Dy1  1  -0.00000009  0.50000001  0.86003651  1
  Dy  Dy2  1  -0.00000006  0.49999992  0.36003052  1
  Dy  Dy3  1  0.49999996  -0.00000000  0.13996342  1
  Dy  Dy4  1  0.28598636  0.40651632  0.60011925  1
  Dy  Dy5  1  0.71401329  0.59348351  0.60011932  1
  Dy  Dy6  1  0.40651122  0.28599091  0.89989735  1
  Dy  Dy7  1  0.90651590  0.21401393  0.60011951  1
  Dy  Dy8  1  0.09348382  0.78598602  0.60011962  1
  Dy  Dy9  1  0.21400958  0.90651159  0.89989709  1
  Dy  Dy10  1  0.78599002  0.09348855  0.89989716  1
  Dy  Dy11  1  0.59348881  0.71400922  0.89989739  1
  Dy  Dy12  1  0.21401418  0.09348459  0.39988604  1
  Dy  Dy13  1  0.78598534  0.90651539  0.39988593  1
  Dy  Dy14  1  0.09348721  0.21401159  0.10011176  1
  Dy  Dy15  1  0.59348532  0.28598579  0.39988603  1
  Dy  Dy16  1  0.40651495  0.71401402  0.39988594  1
  Dy  Dy17  1  0.28598935  0.59348670  0.10011162  1
  Dy  Dy18  1  0.71401046  0.40651338  0.10011151  1
  Dy  Dy19  1  0.90651273  0.78598848  0.10011179  1
  B  B0  1  0.34491103  0.34489709  0.24999331  1
  B  B1  1  0.84490775  0.84490094  0.74999186  1
  B  B2  1  0.65509853  0.34490805  0.74999225  1
  B  B3  1  0.34490132  0.65509220  0.74999225  1
  B  B4  1  0.15509239  0.15509888  0.74999188  1
  B  B5  1  0.15510370  0.84491119  0.24999218  1
  B  B6  1  0.84489629  0.15508875  0.24999222  1
  B  B7  1  0.65508862  0.65510285  0.24999341  1
  C  C0  1  0.00000230  0.50000007  0.59846228  1
  C  C1  1  0.00000035  0.50000010  0.09846055  1
  C  C2  1  0.50000028  -0.00000012  0.40154372  1
  C  C3  1  0.50000033  -0.00000003  0.90153436  1
  C  C4  1  0.30222441  0.39826306  0.37561067  1
  C  C5  1  0.69777526  0.60173701  0.37561084  1
  C  C6  1  0.39825764  0.30223107  0.12439710  1
  C  C7  1  0.89826316  0.19777600  0.37561163  1
  C  C8  1  0.10173692  0.80222412  0.37561170  1
  C  C9  1  0.19776908  0.89825758  0.12439770  1
  C  C10  1  0.80223071  0.10174255  0.12439787  1
  C  C11  1  0.60174232  0.69776874  0.12439698  1
  C  C12  1  0.89826313  0.80222856  0.87560540  1
  C  C13  1  0.69777067  0.39826316  0.87560539  1
  C  C14  1  0.30222904  0.60173678  0.87560542  1
  C  C15  1  0.39826373  0.69777382  0.62438724  1
  C  C16  1  0.60173622  0.30222641  0.62438721  1
  C  C17  1  0.10173687  0.19777122  0.87560544  1
  C  C18  1  0.80222564  0.89826398  0.62438698  1
  C  C19  1  0.19777405  0.10173593  0.62438692  1
loop_
_geom_bond_atom_site_label_1
_geom_bond_atom_site_label_2
_geom_bond_distance
_geom_bond_site_symmetry_2
B0 C6 1.456252 1_555
B0 C4 1.456548 1_555
B0 Dy15 2.627724 1_555
B0 Dy17 2.627762 1_555
B0 Dy14 2.811454 1_555
B0 Dy12 2.811489 1_555
B1 C18 1.456409 1_555
B1 C12 1.456457 1_555
B1 Dy8 2.627606 1_655
B1 Dy10 2.627898 1_565
B1 Dy5 2.811388 1_555
B1 Dy11 2.811590 1_555
B2 C16 1.456408 1_555
B2 C13 1.456452 1_555
B2 Dy5 2.627605 1_555
B2 Dy6 2.627895 1_555
B2 Dy7 2.811388 1_555
B2 Dy10 2.811589 1_555
B3 C15 1.456407 1_555
B3 C14 1.456453 1_555
B3 Dy4 2.627609 1_555
B3 Dy11 2.627897 1_555
B3 Dy8 2.811388 1_555
B3 Dy9 2.811588 1_555
B4 C19 1.456408 1_555
B4 C17 1.456457 1_555
B4 Dy7 2.627610 1_455
B4 Dy9 2.627895 1_545
B4 Dy4 2.811386 1_555
B4 Dy6 2.811591 1_555
B5 C9 1.456233 1_555
B5 C8 1.456572 1_555
B5 Dy12 2.627724 1_565
B5 Dy19 2.627765 1_455
B5 Dy17 2.811451 1_555
B5 Dy16 2.811490 1_555
B6 C10 1.456232 1_555
B6 C7 1.456572 1_555
B6 Dy13 2.627723 1_545
B6 Dy14 2.627764 1_655
B6 Dy18 2.811454 1_555
B6 Dy15 2.811488 1_555
B7 C11 1.456253 1_555
B7 C5 1.456549 1_555
B7 Dy16 2.627718 1_555
B7 Dy18 2.627763 1_555
B7 Dy19 2.811455 1_555
B7 Dy13 2.811488 1_555
C0 Dy4 2.449416 1_555
C0 Dy8 2.449423 1_555
C0 Dy7 2.449437 1_455
C0 Dy5 2.449453 1_455
C0 Dy2 2.555043 1_555
C0 Dy1 2.803038 1_555
C1 Dy14 2.449456 1_555
C1 Dy19 2.449457 1_455
C1 Dy17 2.449460 1_555
C1 Dy18 2.449468 1_455
C1 Dy1 2.554960 1_554
C1 Dy2 2.802993 1_555
C2 Dy13 2.449425 1_545
C2 Dy15 2.449432 1_555
C2 Dy16 2.449432 1_545
C2 Dy12 2.449434 1_555
C2 Dy0 2.554979 1_555
C2 Dy3 2.803103 1_555
C3 Dy10 2.449470 1_555
C3 Dy11 2.449477 1_545
C3 Dy9 2.449477 1_545
C3 Dy6 2.449480 1_555
C3 Dy3 2.555014 1_556
C3 Dy0 2.802938 1_555
C4 Dy4 2.410407 1_555
C4 Dy15 2.554433 1_555
C4 Dy12 2.596017 1_555
C4 Dy2 2.601355 1_555
C4 Dy16 2.719498 1_555
C5 Dy5 2.410406 1_555
C5 Dy16 2.554428 1_555
C5 Dy13 2.596015 1_555
C5 Dy2 2.601358 1_655
C5 Dy15 2.719499 1_555
C6 Dy6 2.410314 1_554
C6 Dy17 2.554377 1_555
C6 Dy14 2.595987 1_555
C6 Dy3 2.601409 1_555
C6 Dy18 2.719504 1_555
C7 Dy7 2.410399 1_555
C7 Dy13 2.554430 1_545
C7 Dy15 2.596011 1_555
C7 Dy2 2.601350 1_655
C7 Dy12 2.719502 1_655
C8 Dy8 2.410400 1_555
C8 Dy12 2.554427 1_565
C8 Dy16 2.596013 1_555
C8 Dy2 2.601353 1_555
C8 Dy13 2.719505 1_455
C9 Dy9 2.410323 1_554
C9 Dy19 2.554386 1_455
C9 Dy17 2.595992 1_555
C9 Dy3 2.601409 1_565
C9 Dy14 2.719511 1_565
C10 Dy10 2.410324 1_554
C10 Dy14 2.554387 1_655
C10 Dy18 2.595992 1_555
C10 Dy3 2.601408 1_555
C10 Dy19 2.719512 1_545
C11 Dy11 2.410312 1_554
C11 Dy18 2.554375 1_555
C11 Dy19 2.595987 1_555
C11 Dy3 2.601411 1_565
C11 Dy17 2.719504 1_555
C12 Dy19 2.410384 1_556
C12 Dy10 2.554431 1_565
C12 Dy11 2.596024 1_555
C12 Dy1 2.601377 1_655
C12 Dy9 2.719463 1_655
C13 Dy18 2.410381 1_556
C13 Dy6 2.554425 1_555
C13 Dy10 2.596025 1_555
C13 Dy1 2.601384 1_655
C13 Dy11 2.719456 1_555
C14 Dy17 2.410382 1_556
C14 Dy11 2.554429 1_555
C14 Dy9 2.596027 1_555
C14 Dy1 2.601383 1_555
C14 Dy6 2.719455 1_555
C15 Dy16 2.410330 1_555
C15 Dy4 2.554398 1_555
C15 Dy8 2.596026 1_555
C15 Dy0 2.601368 1_565
C15 Dy5 2.719481 1_555
C16 Dy15 2.410329 1_555
C16 Dy5 2.554394 1_555
C16 Dy7 2.596024 1_555
C16 Dy0 2.601368 1_555
C16 Dy4 2.719482 1_555
C17 Dy14 2.410383 1_556
C17 Dy9 2.554427 1_545
C17 Dy6 2.596025 1_555
C17 Dy1 2.601380 1_555
C17 Dy10 2.719465 1_455
C18 Dy13 2.410327 1_555
C18 Dy8 2.554406 1_655
C18 Dy5 2.596029 1_555
C18 Dy0 2.601365 1_565
C18 Dy7 2.719482 1_565
C19 Dy12 2.410325 1_555
C19 Dy7 2.554406 1_455
C19 Dy4 2.596028 1_555
C19 Dy0 2.601365 1_555
C19 Dy8 2.719481 1_545
