# generated using pymatgen
data_ScAl2Os
_symmetry_space_group_name_H-M   'P 1'
_cell_length_a   11.10376415
_cell_length_b   11.10376415
_cell_length_c   11.10376415
_cell_angle_alpha   123.99821767
_cell_angle_beta   119.45963276
_cell_angle_gamma   87.07794646
_symmetry_Int_Tables_number   1
_chemical_formula_structural   ScAl2Os
_chemical_formula_sum   'Sc1 Al2 Os1'
_cell_volume   939.44705973
_cell_formula_units_Z   1
loop_
 _symmetry_equiv_pos_site_id
 _symmetry_equiv_pos_as_xyz
  1  'x, y, z'
loop_
 _atom_site_type_symbol
 _atom_site_label
 _atom_site_symmetry_multiplicity
 _atom_site_fract_x
 _atom_site_fract_y
 _atom_site_fract_z
 _atom_site_occupancy
  Sc  Sc0  1  0.00000000  0.00000000  0.00000000  1
  Al  Al0  1  0.00000000  0.27244800  0.27244800  1
  Al  Al1  1  0.00000000  0.72755200  0.72755200  1
  Os  Os0  1  0.00000000  0.50000000  0.50000000  1
loop_
_geom_bond_atom_site_label_1
_geom_bond_atom_site_label_2
_geom_bond_distance
_geom_bond_site_symmetry_2
Al0 Os0 2.372482 1_555
Al0 Sc0 2.840572 1_555
Al1 Os0 2.372482 1_555
Al1 Sc0 2.840572 1_566
