# generated using pymatgen
data_Sn3Sb
_symmetry_space_group_name_H-M   'P 1'
_cell_length_a   8.97419600
_cell_length_b   8.97419600
_cell_length_c   16.79280558
_cell_angle_alpha   90.00000000
_cell_angle_beta   90.00000000
_cell_angle_gamma   138.56634232
_symmetry_Int_Tables_number   1
_chemical_formula_structural   Sn3Sb
_chemical_formula_sum   'Sn24 Sb8'
_cell_volume   894.97289505
_cell_formula_units_Z   8
loop_
 _symmetry_equiv_pos_site_id
 _symmetry_equiv_pos_as_xyz
  1  'x, y, z'
loop_
 _atom_site_type_symbol
 _atom_site_label
 _atom_site_symmetry_multiplicity
 _atom_site_fract_x
 _atom_site_fract_y
 _atom_site_fract_z
 _atom_site_occupancy
  Sn  Sn0_0  1  0.00000000  0.00000000  0.25000000  1
  Sn  Sn0_1  1  0.00000000  0.00000000  0.75000000  1
  Sn  Sn0_2  1  0.00000000  0.50000000  0.25000000  1
  Sn  Sn0_3  1  0.00000000  0.50000000  0.75000000  1
  Sn  Sn0_4  1  0.50000000  0.00000000  0.25000000  1
  Sn  Sn0_5  1  0.50000000  0.00000000  0.75000000  1
  Sn  Sn0_6  1  0.50000000  0.50000000  0.25000000  1
  Sn  Sn0_7  1  0.50000000  0.50000000  0.75000000  1
  Sn  Sn1_0  1  0.00000000  0.25000000  0.37395416  1
  Sn  Sn1_1  1  0.00000000  0.25000000  0.87395416  1
  Sn  Sn1_2  1  0.00000000  0.75000000  0.37395416  1
  Sn  Sn1_3  1  0.00000000  0.75000000  0.87395416  1
  Sn  Sn1_4  1  0.50000000  0.25000000  0.37395416  1
  Sn  Sn1_5  1  0.50000000  0.25000000  0.87395416  1
  Sn  Sn1_6  1  0.50000000  0.75000000  0.37395416  1
  Sn  Sn1_7  1  0.50000000  0.75000000  0.87395416  1
  Sn  Sn2_0  1  0.25000000  0.00000000  0.12604584  1
  Sn  Sn2_1  1  0.25000000  0.00000000  0.62604584  1
  Sn  Sn2_2  1  0.25000000  0.50000000  0.12604584  1
  Sn  Sn2_3  1  0.25000000  0.50000000  0.62604584  1
  Sn  Sn2_4  1  0.75000000  0.00000000  0.12604584  1
  Sn  Sn2_5  1  0.75000000  0.00000000  0.62604584  1
  Sn  Sn2_6  1  0.75000000  0.50000000  0.12604584  1
  Sn  Sn2_7  1  0.75000000  0.50000000  0.62604584  1
  Sb  Sb0_0  1  0.25000000  0.25000000  0.00000000  1
  Sb  Sb0_1  1  0.25000000  0.25000000  0.50000000  1
  Sb  Sb0_2  1  0.25000000  0.75000000  0.00000000  1
  Sb  Sb0_3  1  0.25000000  0.75000000  0.50000000  1
  Sb  Sb0_4  1  0.75000000  0.25000000  0.00000000  1
  Sb  Sb0_5  1  0.75000000  0.25000000  0.50000000  1
  Sb  Sb0_6  1  0.75000000  0.75000000  0.00000000  1
  Sb  Sb0_7  1  0.75000000  0.75000000  0.50000000  1
loop_
_geom_bond_atom_site_label_1
_geom_bond_atom_site_label_2
_geom_bond_distance
_geom_bond_site_symmetry_2
Sn0_0 Sn2_4 3.060443 1_455
Sn0_0 Sn2_0 3.060443 1_555
Sn0_0 Sn1_0 3.060443 1_555
Sn0_0 Sn1_2 3.060443 1_545
Sn0_0 Sn0_6 3.174618 1_445
Sn0_0 Sn0_6 3.174618 1_555
Sn0_1 Sn1_1 3.060443 1_555
Sn0_1 Sn2_1 3.060443 1_555
Sn0_1 Sn1_3 3.060443 1_545
Sn0_1 Sn2_5 3.060443 1_455
Sn0_1 Sn0_7 3.174618 1_555
Sn0_1 Sn0_7 3.174618 1_445
Sn0_2 Sn2_2 3.060443 1_555
Sn0_2 Sn2_6 3.060443 1_455
Sn0_2 Sn1_0 3.060443 1_555
Sn0_2 Sn1_2 3.060443 1_555
Sn0_2 Sn0_4 3.174618 1_565
Sn0_2 Sn0_4 3.174618 1_455
Sn0_3 Sn2_3 3.060443 1_555
Sn0_3 Sn2_7 3.060443 1_455
Sn0_3 Sn1_1 3.060443 1_555
Sn0_3 Sn1_3 3.060443 1_555
Sn0_3 Sn0_5 3.174618 1_565
Sn0_3 Sn0_5 3.174618 1_455
Sn0_4 Sn1_4 3.060443 1_555
Sn0_4 Sn1_6 3.060443 1_545
Sn0_4 Sn2_0 3.060443 1_555
Sn0_4 Sn2_4 3.060443 1_555
Sn0_5 Sn1_7 3.060443 1_545
Sn0_5 Sn1_5 3.060443 1_555
Sn0_5 Sn2_1 3.060443 1_555
Sn0_5 Sn2_5 3.060443 1_555
Sn0_6 Sn2_2 3.060443 1_555
Sn0_6 Sn1_4 3.060443 1_555
Sn0_6 Sn2_6 3.060443 1_555
Sn0_6 Sn1_6 3.060443 1_555
Sn0_7 Sn2_3 3.060443 1_555
Sn0_7 Sn2_7 3.060443 1_555
Sn0_7 Sn1_5 3.060443 1_555
Sn0_7 Sn1_7 3.060443 1_555
Sn1_0 Sn1_6 3.174618 1_555
Sn1_0 Sn1_6 3.174618 1_445
Sn1_1 Sn1_7 3.174618 1_445
Sn1_1 Sn1_7 3.174618 1_555
Sn1_2 Sn1_4 3.174618 1_565
Sn1_2 Sn1_4 3.174618 1_455
Sn1_3 Sn1_5 3.174618 1_565
Sn1_3 Sn1_5 3.174618 1_455
Sn2_0 Sn2_6 3.174618 1_445
Sn2_0 Sn2_6 3.174618 1_555
Sn2_1 Sn2_7 3.174618 1_555
Sn2_1 Sn2_7 3.174618 1_445
Sn2_2 Sn2_4 3.174618 1_455
Sn2_2 Sn2_4 3.174618 1_565
Sn2_3 Sn2_5 3.174618 1_565
Sn2_3 Sn2_5 3.174618 1_455
Sb0_0 Sn1_1 3.084441 1_554
Sb0_0 Sn1_5 3.084441 1_554
Sb0_0 Sn2_2 3.084441 1_555
Sb0_0 Sn2_0 3.084441 1_555
Sb0_0 Sb0_6 3.174618 1_445
Sb0_0 Sb0_6 3.174618 1_555
Sb0_1 Sn2_1 3.084441 1_555
Sb0_1 Sn2_3 3.084441 1_555
Sb0_1 Sn1_4 3.084441 1_555
Sb0_1 Sn1_0 3.084441 1_555
Sb0_1 Sb0_7 3.174618 1_555
Sb0_1 Sb0_7 3.174618 1_445
Sb0_2 Sn1_7 3.084441 1_554
Sb0_2 Sn1_3 3.084441 1_554
Sb0_2 Sn2_2 3.084441 1_555
Sb0_2 Sn2_0 3.084441 1_565
Sb0_2 Sb0_4 3.174618 1_565
Sb0_2 Sb0_4 3.174618 1_455
Sb0_3 Sn2_1 3.084441 1_565
Sb0_3 Sn2_3 3.084441 1_555
Sb0_3 Sn1_2 3.084441 1_555
Sb0_3 Sn1_6 3.084441 1_555
Sb0_3 Sb0_5 3.174618 1_455
Sb0_3 Sb0_5 3.174618 1_565
Sb0_4 Sn1_1 3.084441 1_654
Sb0_4 Sn1_5 3.084441 1_554
Sb0_4 Sn2_4 3.084441 1_555
Sb0_4 Sn2_6 3.084441 1_555
Sb0_5 Sn2_7 3.084441 1_555
Sb0_5 Sn2_5 3.084441 1_555
Sb0_5 Sn1_4 3.084441 1_555
Sb0_5 Sn1_0 3.084441 1_655
Sb0_6 Sn1_7 3.084441 1_554
Sb0_6 Sn1_3 3.084441 1_654
Sb0_6 Sn2_6 3.084441 1_555
Sb0_6 Sn2_4 3.084441 1_565
Sb0_7 Sn2_7 3.084441 1_555
Sb0_7 Sn2_5 3.084441 1_565
Sb0_7 Sn1_6 3.084441 1_555
Sb0_7 Sn1_2 3.084441 1_655
