# generated using pymatgen
data_Ta(Si5W2)2
_symmetry_space_group_name_H-M   'P 1'
_cell_length_a   20.00569779
_cell_length_b   20.00569779
_cell_length_c   20.00569779
_cell_angle_alpha   170.70878612
_cell_angle_beta   170.70878612
_cell_angle_gamma   13.15423880
_symmetry_Int_Tables_number   1
_chemical_formula_structural   Ta(Si5W2)2
_chemical_formula_sum   'Ta1 Si10 W4'
_cell_volume   208.70897664
_cell_formula_units_Z   1
loop_
 _symmetry_equiv_pos_site_id
 _symmetry_equiv_pos_as_xyz
  1  'x, y, z'
loop_
 _atom_site_type_symbol
 _atom_site_label
 _atom_site_symmetry_multiplicity
 _atom_site_fract_x
 _atom_site_fract_y
 _atom_site_fract_z
 _atom_site_occupancy
  Ta  Ta0  1  0.00000000  0.00000000  0.00000000  1
  Si  Si0  1  0.53440700  0.53440700  0.00000000  1
  Si  Si1  1  0.13342800  0.13342800  0.00000000  1
  Si  Si2  1  0.73306900  0.73306900  0.00000000  1
  Si  Si3  1  0.33284900  0.33284900  0.00000000  1
  Si  Si4  1  0.93241300  0.93241300  0.00000000  1
  Si  Si5  1  0.06758700  0.06758700  0.00000000  1
  Si  Si6  1  0.66715100  0.66715100  0.00000000  1
  Si  Si7  1  0.26693100  0.26693100  0.00000000  1
  Si  Si8  1  0.86657200  0.86657200  0.00000000  1
  Si  Si9  1  0.46559300  0.46559300  0.00000000  1
  W  W0  1  0.60106600  0.60106600  0.00000000  1
  W  W1  1  0.20020500  0.20020500  0.00000000  1
  W  W2  1  0.79979500  0.79979500  0.00000000  1
  W  W3  1  0.39893400  0.39893400  0.00000000  1
loop_
_geom_bond_atom_site_label_1
_geom_bond_atom_site_label_2
_geom_bond_distance
_geom_bond_site_symmetry_2
Si0 Si5 2.643887 1_554
Si0 Si5 2.643887 1_655
Si0 Si5 2.643887 1_565
Si0 Si5 2.643887 1_666
Si0 W0 2.649566 1_555
Si0 Ta0 2.668550 1_565
Si0 Ta0 2.668550 1_655
Si0 Ta0 2.668550 1_666
Si0 Ta0 2.668550 1_554
Si0 Si9 2.735223 1_555
Si1 Si5 2.617052 1_555
Si1 W0 2.627819 1_556
Si1 W0 2.627819 1_444
Si1 W0 2.627819 1_545
Si1 W0 2.627819 1_455
Si1 W1 2.654256 1_555
Si1 Si6 2.654719 1_444
Si1 Si6 2.654719 1_545
Si1 Si6 2.654719 1_455
Si1 Si6 2.654719 1_556
Si2 Si6 2.620113 1_555
Si2 W1 2.637644 1_554
Si2 W1 2.637644 1_666
Si2 W1 2.637644 1_565
Si2 W1 2.637644 1_655
Si2 W2 2.652229 1_555
Si2 Si7 2.657513 1_554
Si2 Si7 2.657513 1_565
Si2 Si7 2.657513 1_655
Si2 Si7 2.657513 1_666
Si3 Si7 2.620113 1_555
Si3 W3 2.626751 1_555
Si3 W2 2.641392 1_556
Si3 W2 2.641392 1_545
Si3 W2 2.641392 1_455
Si3 W2 2.641392 1_444
Si3 Si8 2.654719 1_455
Si3 Si8 2.654719 1_556
Si3 Si8 2.654719 1_444
Si3 Si8 2.654719 1_545
Si4 Si8 2.617052 1_555
Si4 Si9 2.643887 1_565
Si4 Si9 2.643887 1_554
Si4 Si9 2.643887 1_655
Si4 Si9 2.643887 1_666
Si4 W3 2.649835 1_655
Si4 W3 2.649835 1_565
Si4 W3 2.649835 1_666
Si4 W3 2.649835 1_554
Si4 Ta0 2.686452 1_665
Si5 W0 2.649835 1_444
Si5 W0 2.649835 1_455
Si5 W0 2.649835 1_545
Si5 W0 2.649835 1_556
Si5 Ta0 2.686452 1_555
Si6 W0 2.626751 1_555
Si6 W1 2.641392 1_565
Si6 W1 2.641392 1_655
Si6 W1 2.641392 1_554
Si6 W1 2.641392 1_666
Si7 W2 2.637644 1_444
Si7 W2 2.637644 1_455
Si7 W2 2.637644 1_545
Si7 W2 2.637644 1_556
Si7 W1 2.652229 1_555
Si8 W3 2.627819 1_554
Si8 W3 2.627819 1_666
Si8 W3 2.627819 1_655
Si8 W3 2.627819 1_565
Si8 W2 2.654256 1_555
Si9 W3 2.649566 1_555
Si9 Ta0 2.668550 1_554
Si9 Ta0 2.668550 1_565
Si9 Ta0 2.668550 1_655
Si9 Ta0 2.668550 1_666
