# generated using pymatgen
data_Tm6Mn(GeS7)2
_symmetry_space_group_name_H-M   'P 1'
_cell_length_a   9.74005829
_cell_length_b   9.74005829
_cell_length_c   5.74053100
_cell_angle_alpha   90.00000000
_cell_angle_beta   90.00000000
_cell_angle_gamma   120.00000199
_symmetry_Int_Tables_number   1
_chemical_formula_structural   Tm6Mn(GeS7)2
_chemical_formula_sum   'Tm6 Mn1 Ge2 S14'
_cell_volume   471.63475576
_cell_formula_units_Z   1
loop_
 _symmetry_equiv_pos_site_id
 _symmetry_equiv_pos_as_xyz
  1  'x, y, z'
loop_
 _atom_site_type_symbol
 _atom_site_label
 _atom_site_symmetry_multiplicity
 _atom_site_fract_x
 _atom_site_fract_y
 _atom_site_fract_z
 _atom_site_occupancy
  Tm  Tm0  1  0.97608500  0.44026000  0.74663600  1
  Tm  Tm1  1  0.46417400  0.02391500  0.74663600  1
  Tm  Tm2  1  0.55974000  0.53582600  0.74663600  1
  Tm  Tm3  1  0.68980700  0.89216300  0.23994800  1
  Tm  Tm4  1  0.20235600  0.31019300  0.23994800  1
  Tm  Tm5  1  0.10783700  0.79764400  0.23994800  1
  Mn  Mn0  1  0.33333300  0.66666700  0.52668700  1
  Ge  Ge0  1  0.66666700  0.33333300  0.16867200  1
  Ge  Ge1  1  0.00000000  0.00000000  0.66064200  1
  S  S0  1  0.81779500  0.57030300  0.00063700  1
  S  S1  1  0.75250800  0.18220500  0.00063700  1
  S  S2  1  0.42969700  0.24749200  0.00063700  1
  S  S3  1  0.84935600  0.76296500  0.49486300  1
  S  S4  1  0.91361000  0.15064400  0.49486300  1
  S  S5  1  0.23703500  0.08639000  0.49486300  1
  S  S6  1  0.66666700  0.33333300  0.54953100  1
  S  S7  1  0.00000000  0.00000000  0.04269200  1
  S  S8  1  0.08281300  0.51284900  0.29740900  1
  S  S9  1  0.43003600  0.91718700  0.29740900  1
  S  S10  1  0.48715100  0.56996400  0.29740900  1
  S  S11  1  0.58353600  0.82286700  0.77840800  1
  S  S12  1  0.23933100  0.41646400  0.77840800  1
  S  S13  1  0.17713300  0.76066900  0.77840800  1
loop_
_geom_bond_atom_site_label_1
_geom_bond_atom_site_label_2
_geom_bond_distance
_geom_bond_site_symmetry_2
Mn0 S9 2.505031 1_555
Mn0 S8 2.505032 1_555
Mn0 S10 2.505038 1_555
Mn0 S13 2.575650 1_555
Mn0 S11 2.575656 1_555
Mn0 S12 2.575658 1_555
Ge0 S6 2.186333 1_555
Ge0 S1 2.242104 1_555
Ge0 S0 2.242111 1_555
Ge0 S2 2.242112 1_555
Ge1 S7 2.193170 1_556
Ge1 S4 2.236344 1_455
Ge1 S3 2.236350 1_445
Ge1 S5 2.236352 1_555
S0 Tm2 2.777106 1_554
S0 Tm0 2.839055 1_554
S0 Tm5 2.918170 1_655
S1 Tm0 2.777102 1_554
S1 Tm1 2.839062 1_554
S1 Tm3 2.918170 1_545
S2 Tm1 2.777097 1_554
S2 Tm2 2.839062 1_554
S2 Tm4 2.918170 1_555
S3 Tm5 2.782714 1_655
S3 Tm3 2.845256 1_555
S3 Tm2 2.949574 1_555
S4 Tm3 2.782717 1_545
S4 Tm4 2.845249 1_655
S4 Tm0 2.949580 1_555
S5 Tm4 2.782722 1_555
S5 Tm5 2.845249 1_545
S5 Tm1 2.949563 1_555
S6 Tm0 2.882512 1_555
S6 Tm1 2.882515 1_555
S6 Tm2 2.882529 1_555
S7 Tm4 2.887956 1_555
S7 Tm3 2.887956 1_445
S7 Tm5 2.887956 1_545
S8 Tm5 2.680810 1_555
S8 Tm0 2.737838 1_455
S8 Tm4 2.767497 1_555
S8 Tm0 3.292731 1_454
S9 Tm3 2.680810 1_555
S9 Tm1 2.737839 1_565
S9 Tm5 2.767496 1_555
S9 Tm1 3.292731 1_564
S10 Tm4 2.680810 1_555
S10 Tm2 2.737836 1_555
S10 Tm3 2.767496 1_555
S10 Tm2 3.292729 1_554
S11 Tm2 2.693597 1_555
S11 Tm1 2.737905 1_565
S11 Tm3 2.801446 1_556
S11 Tm3 3.222250 1_555
S12 Tm0 2.693607 1_455
S12 Tm2 2.737896 1_555
S12 Tm4 2.801446 1_556
S12 Tm4 3.222250 1_555
S13 Tm1 2.693601 1_565
S13 Tm0 2.737897 1_455
S13 Tm5 2.801446 1_556
S13 Tm5 3.222250 1_555
