# generated using pymatgen
data_NaDyH2S2O9
_symmetry_space_group_name_H-M   'P 1'
_cell_length_a   6.90980417
_cell_length_b   6.90980417
_cell_length_c   12.89626500
_cell_angle_alpha   90.00000000
_cell_angle_beta   90.00000000
_cell_angle_gamma   120.00000167
_symmetry_Int_Tables_number   1
_chemical_formula_structural   NaDyH2S2O9
_chemical_formula_sum   'Na3 Dy3 H6 S6 O27'
_cell_volume   533.24409158
_cell_formula_units_Z   3
loop_
 _symmetry_equiv_pos_site_id
 _symmetry_equiv_pos_as_xyz
  1  'x, y, z'
loop_
 _atom_site_type_symbol
 _atom_site_label
 _atom_site_symmetry_multiplicity
 _atom_site_fract_x
 _atom_site_fract_y
 _atom_site_fract_z
 _atom_site_occupancy
  Na  Na0  1  0.51183200  0.51183200  0.50000000  1
  Na  Na1  1  0.00000000  0.48816800  0.16666700  1
  Na  Na2  1  0.48816800  0.00000000  0.83333300  1
  Dy  Dy0  1  0.55693400  0.55693400  0.00000000  1
  Dy  Dy1  1  0.00000000  0.44306600  0.66666700  1
  Dy  Dy2  1  0.44306600  0.00000000  0.33333300  1
  H  H0  1  0.96436800  0.01111500  0.94341300  1
  H  H1  1  0.04674800  0.03563200  0.61008000  1
  H  H2  1  0.98888500  0.95325200  0.27674600  1
  H  H3  1  0.03563200  0.04674800  0.38992000  1
  H  H4  1  0.01111500  0.96436800  0.05658700  1
  H  H5  1  0.95325200  0.98888500  0.72325400  1
  S  S0  1  0.55851200  0.54335200  0.76186200  1
  S  S1  1  0.98484100  0.44148800  0.42852800  1
  S  S2  1  0.45664800  0.01515900  0.09519500  1
  S  S3  1  0.44148800  0.98484100  0.57147200  1
  S  S4  1  0.54335200  0.55851200  0.23813800  1
  S  S5  1  0.01515900  0.45664800  0.90480500  1
  O  O0  1  0.62357500  0.73824800  0.83398700  1
  O  O1  1  0.11467300  0.37642500  0.50065300  1
  O  O2  1  0.26175200  0.88532700  0.16732000  1
  O  O3  1  0.37642500  0.11467300  0.49934700  1
  O  O4  1  0.73824800  0.62357500  0.16601300  1
  O  O5  1  0.88532700  0.26175200  0.83268000  1
  O  O6  1  0.38503800  0.52168500  0.68795700  1
  O  O7  1  0.13664700  0.61496200  0.35462400  1
  O  O8  1  0.47831500  0.86335300  0.02129100  1
  O  O9  1  0.61496200  0.13664700  0.64537600  1
  O  O10  1  0.52168500  0.38503800  0.31204300  1
  O  O11  1  0.86335300  0.47831500  0.97870900  1
  O  O12  1  0.75841300  0.58464600  0.70112300  1
  O  O13  1  0.82623300  0.24158700  0.36779000  1
  O  O14  1  0.41535400  0.17376700  0.03445600  1
  O  O15  1  0.24158700  0.82623300  0.63221000  1
  O  O16  1  0.58464600  0.75841300  0.29887700  1
  O  O17  1  0.17376700  0.41535400  0.96554400  1
  O  O18  1  0.47818800  0.34538200  0.83168400  1
  O  O19  1  0.86719500  0.52181200  0.49835100  1
  O  O20  1  0.65461800  0.13280500  0.16501700  1
  O  O21  1  0.52181200  0.86719500  0.50164900  1
  O  O22  1  0.34538200  0.47818800  0.16831600  1
  O  O23  1  0.13280500  0.65461800  0.83498300  1
  O  O24  1  0.90387500  0.90387500  0.00000000  1
  O  O25  1  0.00000000  0.09612500  0.66666700  1
  O  O26  1  0.09612500  0.00000000  0.33333300  1
loop_
_geom_bond_atom_site_label_1
_geom_bond_atom_site_label_2
_geom_bond_distance
_geom_bond_site_symmetry_2
Na0 O1 2.416394 1_555
Na0 O3 2.416394 1_555
Na0 O21 2.421839 1_555
Na0 O19 2.421839 1_555
Na0 O10 2.589860 1_555
Na0 O6 2.589860 1_555
Na1 O2 2.416394 1_555
Na1 O4 2.416394 1_455
Na1 O22 2.421832 1_555
Na1 O20 2.421835 1_455
Na1 O7 2.589860 1_555
Na1 O11 2.589872 1_454
Na2 O5 2.416394 1_555
Na2 O0 2.416394 1_545
Na2 O18 2.421832 1_555
Na2 O23 2.421835 1_545
Na2 O9 2.589860 1_555
Na2 O8 2.589872 1_546
Dy0 O17 2.360975 1_554
Dy0 O14 2.360975 1_555
Dy0 O24 2.397294 1_555
Dy0 O0 2.405911 1_554
Dy0 O4 2.405911 1_555
Dy0 O11 2.450234 1_554
Dy0 O8 2.450234 1_555
Dy0 O22 2.519762 1_555
Dy0 O18 2.519762 1_554
Dy1 O12 2.360975 1_455
Dy1 O15 2.360978 1_555
Dy1 O25 2.397294 1_555
Dy1 O5 2.405911 1_455
Dy1 O1 2.405923 1_555
Dy1 O6 2.450232 1_555
Dy1 O9 2.450234 1_455
Dy1 O19 2.519759 1_455
Dy1 O23 2.519762 1_555
Dy2 O16 2.360975 1_545
Dy2 O13 2.360978 1_555
Dy2 O26 2.397294 1_555
Dy2 O2 2.405911 1_545
Dy2 O3 2.405923 1_555
Dy2 O10 2.450232 1_555
Dy2 O7 2.450234 1_545
Dy2 O21 2.519759 1_545
Dy2 O20 2.519762 1_555
H0 O24 0.972947 1_546
H1 O25 0.972951 1_555
H2 O26 0.972946 1_665
H3 O26 0.972951 1_555
H4 O24 0.972947 1_455
H5 O25 0.972946 1_665
O0 S0 1.508452 1_555
O1 S1 1.508447 1_455
O2 S2 1.508451 1_565
O3 S3 1.508447 1_545
O4 S4 1.508452 1_555
O5 S5 1.508451 1_655
O6 S0 1.479245 1_555
O7 S1 1.479234 1_455
O8 S2 1.479231 1_565
O9 S3 1.479234 1_545
O10 S4 1.479245 1_555
O11 S5 1.479231 1_655
O12 S0 1.486198 1_555
O13 S1 1.486193 1_555
O14 S2 1.486204 1_555
O15 S3 1.486193 1_555
O16 S4 1.486198 1_555
O17 S5 1.486204 1_555
O18 S0 1.493605 1_555
O19 S1 1.493613 1_555
O20 S2 1.493605 1_555
O21 S3 1.493613 1_555
O22 S4 1.493605 1_555
O23 S5 1.493605 1_555
