# generated using pymatgen
data_NaYTi2(SiO5)2
_symmetry_space_group_name_H-M   'P 1'
_cell_length_a   5.48671717
_cell_length_b   5.48671717
_cell_length_c   7.10512297
_cell_angle_alpha   75.75534246
_cell_angle_beta   75.75534246
_cell_angle_gamma   105.44753958
_symmetry_Int_Tables_number   1
_chemical_formula_structural   NaYTi2(SiO5)2
_chemical_formula_sum   'Na1 Y1 Ti2 Si2 O10'
_cell_volume   188.38462787
_cell_formula_units_Z   1
loop_
 _symmetry_equiv_pos_site_id
 _symmetry_equiv_pos_as_xyz
  1  'x, y, z'
loop_
 _atom_site_type_symbol
 _atom_site_label
 _atom_site_symmetry_multiplicity
 _atom_site_fract_x
 _atom_site_fract_y
 _atom_site_fract_z
 _atom_site_occupancy
  Na  Na0  1  0.16991100  0.83008900  0.50000000  1
  Y  Y0  1  0.82960600  0.17039400  0.00000000  1
  Ti  Ti0  1  0.50908900  0.51281300  0.74444600  1
  Ti  Ti1  1  0.48718700  0.49091100  0.25555400  1
  Si  Si0  1  0.17970400  0.82029600  0.00000000  1
  Si  Si1  1  0.81958200  0.18041800  0.50000000  1
  O  O0  1  0.57612400  0.42387600  0.00000000  1
  O  O1  1  0.43440700  0.56559300  0.50000000  1
  O  O2  1  0.17597200  0.59297700  0.88354800  1
  O  O3  1  0.40702300  0.82402800  0.11645200  1
  O  O4  1  0.80573100  0.37165000  0.64728700  1
  O  O5  1  0.62835000  0.19426900  0.35271300  1
  O  O6  1  0.87728300  0.76206000  0.15637100  1
  O  O7  1  0.23794000  0.12271700  0.84362900  1
  O  O8  1  0.12065000  0.25856100  0.33588900  1
  O  O9  1  0.74143900  0.87935000  0.66411100  1
loop_
_geom_bond_atom_site_label_1
_geom_bond_atom_site_label_2
_geom_bond_distance
_geom_bond_site_symmetry_2
Na0 O1 2.309535 1_555
Na0 O9 2.470625 1_455
Na0 O8 2.470625 1_565
Na0 O5 2.532339 1_565
Na0 O4 2.532339 1_455
Na0 O2 2.728184 1_555
Na0 O3 2.728184 1_555
O0 Ti0 1.912732 1_554
O0 Ti1 1.912732 1_555
O0 Y0 2.213363 1_555
O1 Ti1 1.853168 1_555
O1 Ti0 1.853168 1_555
O2 Si0 1.656263 1_556
O2 Ti0 2.064951 1_555
O2 Y0 2.367876 1_456
O3 Si0 1.656263 1_555
O3 Ti1 2.064951 1_555
O3 Y0 2.367876 1_565
O4 Si1 1.656961 1_555
O4 Ti0 2.026626 1_555
O4 Y0 2.528564 1_556
O5 Si1 1.656961 1_555
O5 Ti1 2.026626 1_555
O5 Y0 2.528564 1_555
O6 Si0 1.650870 1_655
O6 Ti1 2.082425 1_555
O6 Y0 2.356380 1_565
O7 Si0 1.650870 1_546
O7 Ti0 2.082425 1_555
O7 Y0 2.356380 1_456
O8 Si1 1.643448 1_455
O8 Ti1 1.925276 1_555
O9 Si1 1.643448 1_565
O9 Ti0 1.925276 1_555
