# generated using pymatgen
data_Ca7SnN6
_symmetry_space_group_name_H-M   'P 1'
_cell_length_a   6.38072196
_cell_length_b   9.27812454
_cell_length_c   9.27812454
_cell_angle_alpha   79.36305082
_cell_angle_beta   69.88787339
_cell_angle_gamma   69.88787339
_symmetry_Int_Tables_number   1
_chemical_formula_structural   Ca7SnN6
_chemical_formula_sum   'Ca14 Sn2 N12'
_cell_volume   482.95693035
_cell_formula_units_Z   2
loop_
 _symmetry_equiv_pos_site_id
 _symmetry_equiv_pos_as_xyz
  1  'x, y, z'
loop_
 _atom_site_type_symbol
 _atom_site_label
 _atom_site_symmetry_multiplicity
 _atom_site_fract_x
 _atom_site_fract_y
 _atom_site_fract_z
 _atom_site_occupancy
  Ca  Ca0  1  0.28430471  0.95239129  0.04760871  1
  Ca  Ca1  1  0.71569529  0.04760871  0.95239129  1
  Ca  Ca2  1  0.21569529  0.45239129  0.54760871  1
  Ca  Ca3  1  0.78430471  0.54760871  0.45239129  1
  Ca  Ca4  1  0.74960662  0.15087648  0.59573543  1
  Ca  Ca5  1  0.50378148  0.59573543  0.15087648  1
  Ca  Ca6  1  0.75039338  0.90426457  0.34912352  1
  Ca  Ca7  1  0.99621852  0.34912352  0.90426457  1
  Ca  Ca8  1  0.25039338  0.84912352  0.40426457  1
  Ca  Ca9  1  0.49621852  0.40426457  0.84912352  1
  Ca  Ca10  1  0.24960662  0.09573543  0.65087648  1
  Ca  Ca11  1  0.00378148  0.65087648  0.09573543  1
  Ca  Ca12  1  0.25000000  0.25000000  0.25000000  1
  Ca  Ca13  1  0.75000000  0.75000000  0.75000000  1
  Sn  Sn0  1  0.75000000  0.25000000  0.25000000  1
  Sn  Sn1  1  0.25000000  0.75000000  0.75000000  1
  N  N0  1  0.02634291  0.06189797  0.29089984  1
  N  N1  1  0.62085828  0.29089984  0.06189797  1
  N  N2  1  0.47365709  0.20910016  0.43810203  1
  N  N3  1  0.87914172  0.43810203  0.20910016  1
  N  N4  1  0.97365709  0.93810203  0.70910016  1
  N  N5  1  0.37914172  0.70910016  0.93810203  1
  N  N6  1  0.52634291  0.79089984  0.56189797  1
  N  N7  1  0.12085828  0.56189797  0.79089984  1
  N  N8  1  0.87915410  0.34832980  0.65167020  1
  N  N9  1  0.12084590  0.65167020  0.34832980  1
  N  N10  1  0.62084590  0.84832980  0.15167020  1
  N  N11  1  0.37915410  0.15167020  0.84832980  1
loop_
_geom_bond_atom_site_label_1
_geom_bond_atom_site_label_2
_geom_bond_distance
_geom_bond_site_symmetry_2
Ca0 N11 2.437491 1_564
Ca0 N5 2.445050 1_554
Ca0 N0 2.445051 1_565
Ca0 N10 2.476177 1_555
Ca1 N10 2.437491 1_546
Ca1 N1 2.445050 1_556
Ca1 N4 2.445051 1_545
Ca1 N11 2.476177 1_555
Ca2 N9 2.437491 1_555
Ca2 N7 2.445050 1_555
Ca2 N2 2.445051 1_555
Ca2 N8 2.476177 1_455
Ca3 N8 2.437491 1_555
Ca3 N3 2.445050 1_555
Ca3 N6 2.445051 1_555
Ca3 N9 2.476177 1_655
Ca4 N4 2.318183 1_545
Ca4 N8 2.448727 1_555
Ca4 N2 2.521171 1_555
Ca4 N11 2.695276 1_555
Ca4 N0 2.867701 1_655
Ca5 N5 2.318180 1_554
Ca5 N9 2.448727 1_555
Ca5 N3 2.521177 1_555
Ca5 N10 2.695277 1_555
Ca5 N1 2.867702 1_555
Ca6 N6 2.318183 1_555
Ca6 N10 2.448727 1_555
Ca6 N0 2.521171 1_665
Ca6 N9 2.695276 1_655
Ca6 N2 2.867701 1_565
Ca7 N7 2.318180 1_655
Ca7 N11 2.448727 1_655
Ca7 N1 2.521177 1_556
Ca7 N8 2.695277 1_555
Ca7 N3 2.867702 1_556
Ca8 N0 2.318183 1_565
Ca8 N9 2.448727 1_555
Ca8 N6 2.521171 1_555
Ca8 N10 2.695276 1_555
Ca8 N4 2.867701 1_455
Ca9 N1 2.318180 1_556
Ca9 N8 2.448727 1_555
Ca9 N7 2.521177 1_555
Ca9 N11 2.695277 1_555
Ca9 N5 2.867702 1_555
Ca10 N2 2.318183 1_555
Ca10 N11 2.448727 1_555
Ca10 N4 2.521171 1_445
Ca10 N8 2.695276 1_455
Ca10 N6 2.867701 1_545
Ca11 N3 2.318180 1_455
Ca11 N10 2.448727 1_455
Ca11 N5 2.521177 1_554
Ca11 N9 2.695277 1_555
Ca11 N7 2.867702 1_554
Ca12 N1 2.514424 1_555
Ca12 N3 2.514424 1_455
Ca12 N2 2.514429 1_555
Ca12 N0 2.514429 1_555
Ca13 N5 2.514424 1_555
Ca13 N7 2.514424 1_655
Ca13 N6 2.514429 1_555
Ca13 N4 2.514429 1_555
N0 Sn0 2.097213 1_455
N1 Sn0 2.097217 1_555
N2 Sn0 2.097213 1_555
N3 Sn0 2.097217 1_555
N4 Sn1 2.097213 1_655
N5 Sn1 2.097217 1_555
N6 Sn1 2.097213 1_555
N7 Sn1 2.097217 1_555
