# generated using pymatgen
data_Nd(CrB3)2
_symmetry_space_group_name_H-M   'P 1'
_cell_length_a   5.53266265
_cell_length_b   5.53266265
_cell_length_c   5.53266265
_cell_angle_alpha   147.39413511
_cell_angle_beta   107.19355415
_cell_angle_gamma   82.06799469
_symmetry_Int_Tables_number   1
_chemical_formula_structural   Nd(CrB3)2
_chemical_formula_sum   'Nd1 Cr2 B6'
_cell_volume   85.12942192
_cell_formula_units_Z   1
loop_
 _symmetry_equiv_pos_site_id
 _symmetry_equiv_pos_as_xyz
  1  'x, y, z'
loop_
 _atom_site_type_symbol
 _atom_site_label
 _atom_site_symmetry_multiplicity
 _atom_site_fract_x
 _atom_site_fract_y
 _atom_site_fract_z
 _atom_site_occupancy
  Nd  Nd0  1  0.50000000  0.00000000  0.50000000  1
  Cr  Cr0  1  0.84618000  0.84618000  0.00000000  1
  Cr  Cr1  1  0.15382000  0.15382000  0.00000000  1
  B  B0  1  0.13936600  0.50000000  0.63936600  1
  B  B1  1  0.86063400  0.50000000  0.36063400  1
  B  B2  1  0.43308200  0.69753400  0.73554800  1
  B  B3  1  0.03801300  0.30246600  0.73554800  1
  B  B4  1  0.96198700  0.69753400  0.26445200  1
  B  B5  1  0.56691800  0.30246600  0.26445200  1
loop_
_geom_bond_atom_site_label_1
_geom_bond_atom_site_label_2
_geom_bond_distance
_geom_bond_site_symmetry_2
B0 B2 1.765616 1_555
B0 B3 1.765619 1_555
B0 B1 1.830398 1_455
B0 Cr0 2.213174 1_456
B0 Cr0 2.213174 1_445
B0 Cr1 2.213174 1_555
B0 Cr1 2.213174 1_566
B0 Nd0 2.832082 1_555
B0 Nd0 2.832082 1_566
B1 B5 1.765616 1_555
B1 B4 1.765619 1_555
B1 Cr0 2.213174 1_556
B1 Cr1 2.213174 1_666
B1 Cr0 2.213174 1_545
B1 Cr1 2.213174 1_655
B1 Nd0 2.832082 1_565
B1 Nd0 2.832082 1_554
B2 B5 1.793118 1_566
B2 B5 1.793118 1_555
B2 Cr0 2.134301 1_556
B2 Cr1 2.222139 1_566
B2 Cr1 2.222139 1_555
B2 Nd0 2.854201 1_566
B2 Nd0 2.854201 1_555
B2 Nd0 2.960803 1_565
B3 B4 1.793112 1_456
B3 B4 1.793117 1_445
B3 Cr1 2.134301 1_556
B3 Cr0 2.222137 1_456
B3 Cr0 2.222139 1_445
B3 Nd0 2.854204 1_566
B3 Nd0 2.854206 1_555
B3 Nd0 2.960797 1_455
B4 Cr0 2.134301 1_555
B4 Cr1 2.222137 1_655
B4 Cr1 2.222139 1_666
B4 Nd0 2.854204 1_554
B4 Nd0 2.854206 1_565
B4 Nd0 2.960797 1_665
B5 Cr1 2.134301 1_555
B5 Cr0 2.222139 1_556
B5 Cr0 2.222139 1_545
B5 Nd0 2.854201 1_565
B5 Nd0 2.854201 1_554
B5 Nd0 2.960803 1_555
