# generated using pymatgen
data_AlTl(MoO4)2
_symmetry_space_group_name_H-M   'P 1'
_cell_length_a   5.64307002
_cell_length_b   5.64307002
_cell_length_c   7.64753400
_cell_angle_alpha   90.00000000
_cell_angle_beta   90.00000000
_cell_angle_gamma   120.00000025
_symmetry_Int_Tables_number   1
_chemical_formula_structural   AlTl(MoO4)2
_chemical_formula_sum   'Al1 Tl1 Mo2 O8'
_cell_volume   210.90308161
_cell_formula_units_Z   1
loop_
 _symmetry_equiv_pos_site_id
 _symmetry_equiv_pos_as_xyz
  1  'x, y, z'
loop_
 _atom_site_type_symbol
 _atom_site_label
 _atom_site_symmetry_multiplicity
 _atom_site_fract_x
 _atom_site_fract_y
 _atom_site_fract_z
 _atom_site_occupancy
  Al  Al0  1  0.00000000  0.00000000  0.00000000  1
  Tl  Tl0  1  0.00000000  0.00000000  0.50000000  1
  Mo  Mo0  1  0.66666700  0.33333300  0.21960400  1
  Mo  Mo1  1  0.33333300  0.66666700  0.78039600  1
  O  O0  1  0.84262300  0.15737700  0.14704500  1
  O  O1  1  0.84262300  0.68524600  0.14704500  1
  O  O2  1  0.31475400  0.15737700  0.14704500  1
  O  O3  1  0.68524600  0.84262300  0.85295500  1
  O  O4  1  0.33333300  0.66666700  0.55103200  1
  O  O5  1  0.66666700  0.33333300  0.44896800  1
  O  O6  1  0.15737700  0.84262300  0.85295500  1
  O  O7  1  0.15737700  0.31475400  0.85295500  1
loop_
_geom_bond_atom_site_label_1
_geom_bond_atom_site_label_2
_geom_bond_distance
_geom_bond_site_symmetry_2
Al0 O7 1.905434 1_554
Al0 O3 1.905434 1_444
Al0 O1 1.905434 1_445
Al0 O2 1.905434 1_555
Al0 O6 1.905434 1_544
Al0 O0 1.905434 1_455
Mo0 O5 1.754069 1_555
Mo0 O0 1.807112 1_555
Mo0 O2 1.807116 1_555
Mo0 O1 1.807116 1_555
Mo1 O4 1.754069 1_555
Mo1 O6 1.807112 1_555
Mo1 O3 1.807116 1_555
Mo1 O7 1.807116 1_555
