# generated using pymatgen
data_Mg(FeO2)2
_symmetry_space_group_name_H-M   'P 1'
_cell_length_a   5.12987400
_cell_length_b   5.89594900
_cell_length_c   10.32905900
_cell_angle_alpha   90.00000000
_cell_angle_beta   90.00000000
_cell_angle_gamma   90.00000000
_symmetry_Int_Tables_number   1
_chemical_formula_structural   Mg(FeO2)2
_chemical_formula_sum   'Mg4 Fe8 O16'
_cell_volume   312.40730072
_cell_formula_units_Z   4
loop_
 _symmetry_equiv_pos_site_id
 _symmetry_equiv_pos_as_xyz
  1  'x, y, z'
loop_
 _atom_site_type_symbol
 _atom_site_label
 _atom_site_symmetry_multiplicity
 _atom_site_fract_x
 _atom_site_fract_y
 _atom_site_fract_z
 _atom_site_occupancy
  Mg  Mg0  1  0.85341200  0.00000000  0.50000000  1
  Mg  Mg1  1  0.14658800  0.50000000  0.00000000  1
  Mg  Mg2  1  0.51595700  0.00000000  0.00000000  1
  Mg  Mg3  1  0.48404300  0.50000000  0.50000000  1
  Fe  Fe0  1  0.50946100  0.50000000  0.23026500  1
  Fe  Fe1  1  0.50946100  0.50000000  0.76973500  1
  Fe  Fe2  1  0.49053900  0.00000000  0.26973500  1
  Fe  Fe3  1  0.49053900  0.00000000  0.73026500  1
  Fe  Fe4  1  0.00000000  0.25000000  0.25000000  1
  Fe  Fe5  1  0.00000000  0.75000000  0.75000000  1
  Fe  Fe6  1  0.00000000  0.75000000  0.25000000  1
  Fe  Fe7  1  0.00000000  0.25000000  0.75000000  1
  O  O0  1  0.85521900  0.50000000  0.14138000  1
  O  O1  1  0.85521900  0.50000000  0.85862000  1
  O  O2  1  0.14478100  0.00000000  0.35862000  1
  O  O3  1  0.14478100  0.00000000  0.64138000  1
  O  O4  1  0.19768700  0.50000000  0.34896900  1
  O  O5  1  0.19768700  0.50000000  0.65103100  1
  O  O6  1  0.80231300  0.00000000  0.15103100  1
  O  O7  1  0.80231300  0.00000000  0.84896900  1
  O  O8  1  0.66783300  0.25386700  0.36548600  1
  O  O9  1  0.66783300  0.74613300  0.63451400  1
  O  O10  1  0.33216700  0.75386700  0.13451400  1
  O  O11  1  0.33216700  0.24613300  0.86548600  1
  O  O12  1  0.33216700  0.24613300  0.13451400  1
  O  O13  1  0.33216700  0.75386700  0.86548600  1
  O  O14  1  0.66783300  0.74613300  0.36548600  1
  O  O15  1  0.66783300  0.25386700  0.63451400  1
loop_
_geom_bond_atom_site_label_1
_geom_bond_atom_site_label_2
_geom_bond_distance
_geom_bond_site_symmetry_2
Mg0 O2 2.089648 1_655
Mg0 O3 2.089648 1_655
Mg0 O15 2.253244 1_555
Mg0 O8 2.253244 1_555
Mg0 O9 2.253244 1_545
Mg0 O14 2.253244 1_545
Mg1 O1 2.089648 1_454
Mg1 O0 2.089648 1_455
Mg1 O13 2.253244 1_554
Mg1 O10 2.253244 1_555
Mg1 O12 2.253244 1_555
Mg1 O11 2.253244 1_554
Mg2 O6 2.142778 1_555
Mg2 O7 2.142778 1_554
Mg2 O11 2.219301 1_554
Mg2 O10 2.219301 1_545
Mg2 O12 2.219301 1_555
Mg2 O13 2.219301 1_544
Mg3 O5 2.142778 1_555
Mg3 O4 2.142778 1_555
Mg3 O9 2.219301 1_555
Mg3 O14 2.219301 1_555
Mg3 O15 2.219301 1_555
Mg3 O8 2.219301 1_555
Fe0 O0 1.997223 1_555
Fe0 O10 2.011395 1_555
Fe0 O12 2.011395 1_555
Fe0 O4 2.015262 1_555
Fe0 O14 2.171813 1_555
Fe0 O8 2.171813 1_555
Fe1 O1 1.997223 1_555
Fe1 O11 2.011395 1_555
Fe1 O13 2.011395 1_555
Fe1 O5 2.015262 1_555
Fe1 O9 2.171813 1_555
Fe1 O15 2.171813 1_555
Fe2 O2 1.997223 1_555
Fe2 O8 2.011395 1_555
Fe2 O14 2.011395 1_545
Fe2 O6 2.015262 1_555
Fe2 O10 2.171813 1_545
Fe2 O12 2.171813 1_555
Fe3 O3 1.997223 1_555
Fe3 O15 2.011395 1_555
Fe3 O9 2.011395 1_545
Fe3 O7 2.015262 1_555
Fe3 O13 2.171813 1_545
Fe3 O11 2.171813 1_555
Fe4 O0 1.995748 1_455
Fe4 O2 1.995748 1_555
Fe4 O4 2.060598 1_555
Fe4 O6 2.060598 1_455
Fe4 O8 2.080137 1_455
Fe4 O12 2.080137 1_555
Fe5 O3 1.995748 1_565
Fe5 O1 1.995748 1_455
Fe5 O7 2.060598 1_465
Fe5 O5 2.060598 1_555
Fe5 O13 2.080137 1_555
Fe5 O9 2.080137 1_455
Fe6 O0 1.995748 1_455
Fe6 O2 1.995748 1_565
Fe6 O4 2.060598 1_555
Fe6 O6 2.060598 1_465
Fe6 O14 2.080137 1_455
Fe6 O10 2.080137 1_555
Fe7 O3 1.995748 1_555
Fe7 O1 1.995748 1_455
Fe7 O7 2.060598 1_455
Fe7 O5 2.060598 1_555
Fe7 O15 2.080137 1_455
Fe7 O11 2.080137 1_555
