# generated using pymatgen
data_Ca(NiO2)2
_symmetry_space_group_name_H-M   'P 1'
_cell_length_a   4.95341487
_cell_length_b   5.82302330
_cell_length_c   10.85513397
_cell_angle_alpha   94.38458176
_cell_angle_beta   90.01604898
_cell_angle_gamma   89.99700022
_symmetry_Int_Tables_number   1
_chemical_formula_structural   Ca(NiO2)2
_chemical_formula_sum   'Ca4 Ni8 O16'
_cell_volume   312.18750350
_cell_formula_units_Z   4
loop_
 _symmetry_equiv_pos_site_id
 _symmetry_equiv_pos_as_xyz
  1  'x, y, z'
loop_
 _atom_site_type_symbol
 _atom_site_label
 _atom_site_symmetry_multiplicity
 _atom_site_fract_x
 _atom_site_fract_y
 _atom_site_fract_z
 _atom_site_occupancy
  Ca  Ca0  1  0.86149337  0.25005757  0.74996454  1
  Ca  Ca1  1  0.13848476  0.74994539  0.25003605  1
  Ca  Ca2  1  0.53134566  0.24990116  0.25000232  1
  Ca  Ca3  1  0.46867493  0.75010652  0.74999521  1
  Ni  Ni0  1  0.50433266  0.74910911  0.49144272  1
  Ni  Ni1  1  0.50427445  0.75082291  0.00854720  1
  Ni  Ni2  1  0.49563867  0.25089263  0.50858652  1
  Ni  Ni3  1  0.49580784  0.24917157  0.99142758  1
  Ni  Ni4  1  -0.00002815  0.50003800  0.50001692  1
  Ni  Ni5  1  0.00001245  -0.00003245  -0.00002079  1
  Ni  Ni6  1  -0.00003810  -0.00002813  0.50002574  1
  Ni  Ni7  1  0.00000464  0.50001766  -0.00001938  1
  O  O0  1  0.82663391  0.70832241  0.40438987  1
  O  O1  1  0.82660824  0.79199940  0.09566361  1
  O  O2  1  0.17329870  0.29169891  0.59565641  1
  O  O3  1  0.17343502  0.20798637  0.90428225  1
  O  O4  1  0.18160474  0.77961324  0.58402731  1
  O  O5  1  0.18173707  0.71981561  0.91575562  1
  O  O6  1  0.81836812  0.22036106  0.41603121  1
  O  O7  1  0.81831662  0.28019406  0.08419503  1
  O  O8  1  0.66866619  0.48931698  0.60369564  1
  O  O9  1  0.66924590  0.01074935  0.89653892  1
  O  O10  1  0.32374024  0.01801197  0.40193541  1
  O  O11  1  0.32359728  0.48196486  0.09794518  1
  O  O12  1  0.33129863  0.51070581  0.39633362  1
  O  O13  1  0.33081283  0.98923074  0.10342579  1
  O  O14  1  0.67619243  0.98196645  0.59810409  1
  O  O15  1  0.67643990  0.51806082  0.90201241  1
loop_
_geom_bond_atom_site_label_1
_geom_bond_atom_site_label_2
_geom_bond_distance
_geom_bond_site_symmetry_2
Ca0 O2 2.305128 1_655
Ca0 O3 2.305414 1_655
Ca0 O14 2.367021 1_545
Ca0 O15 2.367845 1_555
Ca0 O8 2.389898 1_555
Ca0 O9 2.391698 1_555
Ca1 O1 2.305619 1_455
Ca1 O0 2.305626 1_455
Ca1 O10 2.367120 1_565
Ca1 O11 2.368180 1_555
Ca1 O12 2.390019 1_555
Ca1 O13 2.392050 1_555
Ca2 O7 2.311112 1_555
Ca2 O6 2.311934 1_555
Ca2 O12 2.333091 1_555
Ca2 O13 2.335016 1_545
Ca2 O10 2.437716 1_555
Ca2 O11 2.439149 1_555
Ca3 O5 2.310610 1_555
Ca3 O4 2.311534 1_555
Ca3 O8 2.332704 1_555
Ca3 O9 2.334775 1_565
Ca3 O14 2.437101 1_555
Ca3 O15 2.438808 1_555
Ni0 O0 1.861357 1_555
Ni0 O12 1.873017 1_555
Ni0 O4 1.889636 1_555
Ni0 O14 1.913984 1_555
Ni0 O10 2.104295 1_565
Ni0 O8 2.171880 1_555
Ni1 O1 1.861609 1_555
Ni1 O13 1.872968 1_555
Ni1 O5 1.889716 1_554
Ni1 O15 1.913760 1_554
Ni1 O11 2.103956 1_555
Ni1 O9 2.172331 1_564
Ni2 O2 1.861624 1_555
Ni2 O8 1.873088 1_555
Ni2 O6 1.889485 1_555
Ni2 O10 1.914098 1_555
Ni2 O14 2.104377 1_545
Ni2 O12 2.171983 1_555
Ni3 O3 1.861936 1_555
Ni3 O9 1.873027 1_555
Ni3 O7 1.889463 1_556
Ni3 O11 1.913877 1_556
Ni3 O15 2.104099 1_555
Ni3 O13 2.172370 1_546
Ni4 O0 1.864843 1_455
Ni4 O2 1.865121 1_555
Ni4 O8 1.993867 1_455
Ni4 O12 1.993958 1_555
Ni4 O4 2.015961 1_555
Ni4 O6 2.016249 1_455
Ni5 O1 1.864423 1_445
Ni5 O3 1.864752 1_554
Ni5 O9 1.989704 1_454
Ni5 O13 1.989861 1_545
Ni5 O5 2.019815 1_544
Ni5 O7 2.020055 1_455
Ni6 O6 1.861643 1_455
Ni6 O4 1.861673 1_545
Ni6 O14 1.932507 1_445
Ni6 O10 1.932635 1_555
Ni6 O0 2.104545 1_445
Ni6 O2 2.104886 1_555
Ni7 O7 1.861086 1_455
Ni7 O5 1.861147 1_554
Ni7 O15 1.930519 1_454
Ni7 O11 1.930617 1_555
Ni7 O1 2.106557 1_455
Ni7 O3 2.106920 1_554
