# generated using pymatgen
data_Ca3Ni2(GeO4)3
_symmetry_space_group_name_H-M   'P 1'
_cell_length_a   10.73261992
_cell_length_b   10.73261992
_cell_length_c   10.73261992
_cell_angle_alpha   109.47122063
_cell_angle_beta   109.47122063
_cell_angle_gamma   109.47122063
_symmetry_Int_Tables_number   1
_chemical_formula_structural   Ca3Ni2(GeO4)3
_chemical_formula_sum   'Ca12 Ni8 Ge12 O48'
_cell_volume   951.68967683
_cell_formula_units_Z   4
loop_
 _symmetry_equiv_pos_site_id
 _symmetry_equiv_pos_as_xyz
  1  'x, y, z'
loop_
 _atom_site_type_symbol
 _atom_site_label
 _atom_site_symmetry_multiplicity
 _atom_site_fract_x
 _atom_site_fract_y
 _atom_site_fract_z
 _atom_site_occupancy
  Ca  Ca0  1  0.25000000  0.87500000  0.62500000  1
  Ca  Ca1  1  0.75000000  0.62500000  0.87500000  1
  Ca  Ca2  1  0.62500000  0.87500000  0.75000000  1
  Ca  Ca3  1  0.87500000  0.62500000  0.25000000  1
  Ca  Ca4  1  0.62500000  0.25000000  0.87500000  1
  Ca  Ca5  1  0.87500000  0.75000000  0.62500000  1
  Ca  Ca6  1  0.75000000  0.12500000  0.37500000  1
  Ca  Ca7  1  0.25000000  0.37500000  0.12500000  1
  Ca  Ca8  1  0.37500000  0.12500000  0.25000000  1
  Ca  Ca9  1  0.12500000  0.37500000  0.75000000  1
  Ca  Ca10  1  0.37500000  0.75000000  0.12500000  1
  Ca  Ca11  1  0.12500000  0.25000000  0.37500000  1
  Ni  Ni0  1  0.50000000  0.50000000  0.50000000  1
  Ni  Ni1  1  0.50000000  0.00000000  0.50000000  1
  Ni  Ni2  1  0.00000000  0.50000000  0.50000000  1
  Ni  Ni3  1  0.50000000  0.50000000  0.00000000  1
  Ni  Ni4  1  0.00000000  0.00000000  0.50000000  1
  Ni  Ni5  1  0.00000000  0.50000000  0.00000000  1
  Ni  Ni6  1  0.50000000  0.00000000  0.00000000  1
  Ni  Ni7  1  0.00000000  0.00000000  0.00000000  1
  Ge  Ge0  1  0.12500000  0.75000000  0.87500000  1
  Ge  Ge1  1  0.87500000  0.25000000  0.12500000  1
  Ge  Ge2  1  0.62500000  0.37500000  0.25000000  1
  Ge  Ge3  1  0.75000000  0.87500000  0.12500000  1
  Ge  Ge4  1  0.87500000  0.12500000  0.75000000  1
  Ge  Ge5  1  0.25000000  0.62500000  0.37500000  1
  Ge  Ge6  1  0.75000000  0.37500000  0.62500000  1
  Ge  Ge7  1  0.25000000  0.12500000  0.87500000  1
  Ge  Ge8  1  0.12500000  0.87500000  0.25000000  1
  Ge  Ge9  1  0.37500000  0.62500000  0.75000000  1
  Ge  Ge10  1  0.62500000  0.75000000  0.37500000  1
  Ge  Ge11  1  0.37500000  0.25000000  0.62500000  1
  O  O0  1  0.41597100  0.81514000  0.79657400  1
  O  O1  1  0.88060400  0.39917000  0.08402900  1
  O  O2  1  0.10083000  0.98143400  0.68486000  1
  O  O3  1  0.51856600  0.61939600  0.70342600  1
  O  O4  1  0.68486000  0.08402900  0.70342600  1
  O  O5  1  0.61939600  0.70342600  0.51856600  1
  O  O6  1  0.61939600  0.41597100  0.10083000  1
  O  O7  1  0.70342600  0.51856600  0.61939600  1
  O  O8  1  0.81514000  0.51856600  0.39917000  1
  O  O9  1  0.98143400  0.79657400  0.88060400  1
  O  O10  1  0.79657400  0.88060400  0.98143400  1
  O  O11  1  0.70342600  0.68486000  0.08402900  1
  O  O12  1  0.41597100  0.10083000  0.61939600  1
  O  O13  1  0.39917000  0.81514000  0.51856600  1
  O  O14  1  0.08402900  0.70342600  0.68486000  1
  O  O15  1  0.10083000  0.61939600  0.41597100  1
  O  O16  1  0.51856600  0.39917000  0.81514000  1
  O  O17  1  0.08402900  0.88060400  0.39917000  1
  O  O18  1  0.98143400  0.68486000  0.10083000  1
  O  O19  1  0.18486000  0.48143400  0.60083000  1
  O  O20  1  0.68486000  0.10083000  0.98143400  1
  O  O21  1  0.79657400  0.41597100  0.81514000  1
  O  O22  1  0.39917000  0.08402900  0.88060400  1
  O  O23  1  0.88060400  0.98143400  0.79657400  1
  O  O24  1  0.58402900  0.18486000  0.20342600  1
  O  O25  1  0.11939600  0.60083000  0.91597100  1
  O  O26  1  0.89917000  0.01856600  0.31514000  1
  O  O27  1  0.48143400  0.38060400  0.29657400  1
  O  O28  1  0.31514000  0.91597100  0.29657400  1
  O  O29  1  0.38060400  0.29657400  0.48143400  1
  O  O30  1  0.38060400  0.58402900  0.89917000  1
  O  O31  1  0.29657400  0.48143400  0.38060400  1
  O  O32  1  0.11939600  0.01856600  0.20342600  1
  O  O33  1  0.60083000  0.91597100  0.11939600  1
  O  O34  1  0.20342600  0.58402900  0.18486000  1
  O  O35  1  0.18486000  0.20342600  0.58402900  1
  O  O36  1  0.31514000  0.89917000  0.01856600  1
  O  O37  1  0.01856600  0.31514000  0.89917000  1
  O  O38  1  0.91597100  0.11939600  0.60083000  1
  O  O39  1  0.48143400  0.60083000  0.18486000  1
  O  O40  1  0.89917000  0.38060400  0.58402900  1
  O  O41  1  0.91597100  0.29657400  0.31514000  1
  O  O42  1  0.60083000  0.18486000  0.48143400  1
  O  O43  1  0.58402900  0.89917000  0.38060400  1
  O  O44  1  0.29657400  0.31514000  0.91597100  1
  O  O45  1  0.20342600  0.11939600  0.01856600  1
  O  O46  1  0.01856600  0.20342600  0.11939600  1
  O  O47  1  0.81514000  0.79657400  0.41597100  1
loop_
_geom_bond_atom_site_label_1
_geom_bond_atom_site_label_2
_geom_bond_distance
_geom_bond_site_symmetry_2
Ca0 O22 2.386721 1_565
Ca0 O15 2.386721 1_555
Ca0 O2 2.386725 1_555
Ca0 O13 2.386725 1_555
Ca0 O17 2.518241 1_555
Ca0 O12 2.518241 1_565
Ca0 O14 2.518242 1_555
Ca0 O0 2.518242 1_555
Ca1 O11 2.386715 1_556
Ca1 O21 2.386715 1_555
Ca1 O10 2.386725 1_555
Ca1 O7 2.386725 1_555
Ca1 O18 2.518236 1_556
Ca1 O9 2.518236 1_555
Ca1 O16 2.518236 1_555
Ca1 O3 2.518236 1_555
Ca2 O4 2.386715 1_565
Ca2 O0 2.386715 1_555
Ca2 O3 2.386725 1_555
Ca2 O23 2.386725 1_555
Ca2 O13 2.518236 1_555
Ca2 O10 2.518236 1_555
Ca2 O5 2.518236 1_555
Ca2 O20 2.518236 1_565
Ca3 O17 2.386721 1_655
Ca3 O6 2.386721 1_555
Ca3 O18 2.386725 1_555
Ca3 O8 2.386725 1_555
Ca3 O1 2.518241 1_555
Ca3 O15 2.518241 1_655
Ca3 O47 2.518242 1_555
Ca3 O11 2.518242 1_555
Ca4 O1 2.386721 1_556
Ca4 O12 2.386721 1_555
Ca4 O20 2.386725 1_555
Ca4 O16 2.386725 1_555
Ca4 O22 2.518241 1_555
Ca4 O6 2.518241 1_556
Ca4 O4 2.518242 1_555
Ca4 O21 2.518242 1_555
Ca5 O14 2.386715 1_655
Ca5 O47 2.386715 1_555
Ca5 O9 2.386725 1_555
Ca5 O5 2.386725 1_555
Ca5 O2 2.518236 1_655
Ca5 O7 2.518236 1_555
Ca5 O8 2.518236 1_555
Ca5 O23 2.518236 1_555
Ca6 O33 2.386721 1_545
Ca6 O40 2.386721 1_555
Ca6 O42 2.386725 1_555
Ca6 O26 2.386725 1_555
Ca6 O38 2.518241 1_555
Ca6 O43 2.518241 1_545
Ca6 O24 2.518242 1_555
Ca6 O41 2.518242 1_555
Ca7 O44 2.386715 1_554
Ca7 O34 2.386715 1_555
Ca7 O45 2.386725 1_555
Ca7 O31 2.386725 1_555
Ca7 O37 2.518236 1_554
Ca7 O27 2.518236 1_555
Ca7 O39 2.518236 1_555
Ca7 O46 2.518236 1_555
Ca8 O24 2.386715 1_555
Ca8 O28 2.386715 1_545
Ca8 O27 2.386725 1_555
Ca8 O32 2.386725 1_555
Ca8 O29 2.518236 1_555
Ca8 O42 2.518236 1_555
Ca8 O36 2.518236 1_545
Ca8 O45 2.518236 1_555
Ca9 O30 2.386721 1_555
Ca9 O38 2.386721 1_455
Ca9 O19 2.386725 1_555
Ca9 O37 2.386725 1_555
Ca9 O40 2.518241 1_455
Ca9 O25 2.518241 1_555
Ca9 O35 2.518242 1_555
Ca9 O44 2.518242 1_555
Ca10 O25 2.386721 1_554
Ca10 O43 2.386721 1_555
Ca10 O39 2.386725 1_555
Ca10 O36 2.386725 1_555
Ca10 O30 2.518241 1_554
Ca10 O33 2.518241 1_555
Ca10 O34 2.518242 1_555
Ca10 O28 2.518242 1_555
Ca11 O41 2.386715 1_455
Ca11 O35 2.386715 1_555
Ca11 O46 2.386725 1_555
Ca11 O29 2.386725 1_555
Ca11 O26 2.518236 1_455
Ca11 O32 2.518236 1_555
Ca11 O31 2.518236 1_555
Ca11 O19 2.518236 1_555
Ni0 O7 2.030548 1_555
Ni0 O27 2.030548 1_555
Ni0 O5 2.030548 1_555
Ni0 O29 2.030548 1_555
Ni0 O31 2.030548 1_555
Ni0 O3 2.030548 1_555
Ni1 O43 2.030539 1_545
Ni1 O12 2.030539 1_555
Ni1 O13 2.030548 1_545
Ni1 O42 2.030548 1_555
Ni1 O28 2.030551 1_545
Ni1 O4 2.030551 1_555
Ni2 O15 2.030539 1_555
Ni2 O40 2.030539 1_455
Ni2 O8 2.030548 1_455
Ni2 O19 2.030548 1_555
Ni2 O14 2.030551 1_555
Ni2 O41 2.030551 1_455
Ni3 O6 2.030539 1_555
Ni3 O30 2.030539 1_554
Ni3 O16 2.030548 1_554
Ni3 O39 2.030548 1_555
Ni3 O44 2.030551 1_554
Ni3 O11 2.030551 1_555
Ni4 O17 2.030539 1_545
Ni4 O38 2.030539 1_455
Ni4 O26 2.030548 1_455
Ni4 O2 2.030548 1_545
Ni4 O35 2.030551 1_555
Ni4 O47 2.030551 1_445
Ni5 O25 2.030539 1_554
Ni5 O1 2.030539 1_455
Ni5 O18 2.030548 1_455
Ni5 O37 2.030548 1_554
Ni5 O34 2.030551 1_555
Ni5 O21 2.030551 1_454
Ni6 O22 2.030539 1_554
Ni6 O33 2.030539 1_545
Ni6 O20 2.030548 1_554
Ni6 O36 2.030548 1_545
Ni6 O24 2.030551 1_555
Ni6 O0 2.030551 1_544
Ni7 O9 2.030548 1_444
Ni7 O45 2.030548 1_555
Ni7 O46 2.030548 1_555
Ni7 O10 2.030548 1_444
Ni7 O23 2.030548 1_444
Ni7 O32 2.030548 1_555
Ge0 O14 1.784059 1_555
Ge0 O9 1.784061 1_455
Ge0 O36 1.784061 1_556
Ge0 O25 1.784067 1_555
Ge1 O41 1.784059 1_555
Ge1 O20 1.784061 1_554
Ge1 O46 1.784061 1_655
Ge1 O1 1.784067 1_555
Ge2 O24 1.784059 1_555
Ge2 O8 1.784061 1_555
Ge2 O27 1.784061 1_555
Ge2 O6 1.784067 1_555
Ge3 O11 1.784059 1_555
Ge3 O10 1.784061 1_554
Ge3 O26 1.784061 1_565
Ge3 O33 1.784067 1_555
Ge4 O4 1.784059 1_555
Ge4 O37 1.784061 1_655
Ge4 O23 1.784061 1_545
Ge4 O38 1.784067 1_555
Ge5 O34 1.784059 1_555
Ge5 O13 1.784061 1_555
Ge5 O31 1.784061 1_555
Ge5 O15 1.784067 1_555
Ge6 O21 1.784059 1_555
Ge6 O7 1.784061 1_555
Ge6 O42 1.784061 1_555
Ge6 O40 1.784067 1_555
Ge7 O44 1.784059 1_555
Ge7 O2 1.784061 1_545
Ge7 O45 1.784061 1_556
Ge7 O22 1.784067 1_555
Ge8 O28 1.784059 1_555
Ge8 O18 1.784061 1_455
Ge8 O32 1.784061 1_565
Ge8 O17 1.784067 1_555
Ge9 O0 1.784059 1_555
Ge9 O3 1.784061 1_555
Ge9 O19 1.784061 1_555
Ge9 O30 1.784067 1_555
Ge10 O47 1.784059 1_555
Ge10 O5 1.784061 1_555
Ge10 O39 1.784061 1_555
Ge10 O43 1.784067 1_555
Ge11 O35 1.784059 1_555
Ge11 O16 1.784061 1_555
Ge11 O29 1.784061 1_555
Ge11 O12 1.784067 1_555
