# generated using pymatgen
data_K3HoSi2O7
_symmetry_space_group_name_H-M   'P 1'
_cell_length_a   9.93255392
_cell_length_b   9.93255392
_cell_length_c   14.46513200
_cell_angle_alpha   90.00000000
_cell_angle_beta   90.00000000
_cell_angle_gamma   119.99999949
_symmetry_Int_Tables_number   1
_chemical_formula_structural   K3HoSi2O7
_chemical_formula_sum   'K18 Ho6 Si12 O42'
_cell_volume   1235.87599848
_cell_formula_units_Z   6
loop_
 _symmetry_equiv_pos_site_id
 _symmetry_equiv_pos_as_xyz
  1  'x, y, z'
loop_
 _atom_site_type_symbol
 _atom_site_label
 _atom_site_symmetry_multiplicity
 _atom_site_fract_x
 _atom_site_fract_y
 _atom_site_fract_z
 _atom_site_occupancy
  K  K0  1  0.00000000  0.00000000  0.50000000  1
  K  K1  1  0.33187800  0.00000000  0.09183400  1
  K  K2  1  0.33187800  0.33187800  0.59183400  1
  K  K3  1  0.00000000  0.66812200  0.59183400  1
  K  K4  1  0.00000000  0.33187800  0.09183400  1
  K  K5  1  0.66812200  0.66812200  0.09183400  1
  K  K6  1  0.33187800  0.00000000  0.40816600  1
  K  K7  1  0.00000000  0.00000000  0.00000000  1
  K  K8  1  0.33333300  0.66666700  0.75000000  1
  K  K9  1  0.66666700  0.33333300  0.25000000  1
  K  K10  1  0.66666700  0.33333300  0.75000000  1
  K  K11  1  0.33333300  0.66666700  0.25000000  1
  K  K12  1  0.66812200  0.66812200  0.40816600  1
  K  K13  1  0.66812200  0.00000000  0.90816600  1
  K  K14  1  0.00000000  0.66812200  0.90816600  1
  K  K15  1  0.00000000  0.33187800  0.40816600  1
  K  K16  1  0.66812200  0.00000000  0.59183400  1
  K  K17  1  0.33187800  0.33187800  0.90816600  1
  Ho  Ho0  1  0.00000000  0.00000000  0.75000000  1
  Ho  Ho1  1  0.33333300  0.66666700  0.00000000  1
  Ho  Ho2  1  0.66666700  0.33333300  0.50000000  1
  Ho  Ho3  1  0.66666700  0.33333300  0.00000000  1
  Ho  Ho4  1  0.33333300  0.66666700  0.50000000  1
  Ho  Ho5  1  0.00000000  0.00000000  0.25000000  1
  Si  Si0  1  0.65824800  0.65824800  0.85733400  1
  Si  Si1  1  0.34175200  0.00000000  0.85733400  1
  Si  Si2  1  0.00000000  0.34175200  0.85733400  1
  Si  Si3  1  0.00000000  0.65824800  0.35733400  1
  Si  Si4  1  0.34175200  0.00000000  0.64266600  1
  Si  Si5  1  0.34175200  0.34175200  0.35733400  1
  Si  Si6  1  0.65824800  0.00000000  0.35733400  1
  Si  Si7  1  0.34175200  0.34175200  0.14266600  1
  Si  Si8  1  0.00000000  0.65824800  0.14266600  1
  Si  Si9  1  0.00000000  0.34175200  0.64266600  1
  Si  Si10  1  0.65824800  0.65824800  0.64266600  1
  Si  Si11  1  0.65824800  0.00000000  0.14266600  1
  O  O0  1  0.40863900  0.00000000  0.75000000  1
  O  O1  1  0.40863900  0.40863900  0.25000000  1
  O  O2  1  0.00000000  0.59136100  0.25000000  1
  O  O3  1  0.00000000  0.40863900  0.75000000  1
  O  O4  1  0.59136100  0.59136100  0.75000000  1
  O  O5  1  0.59136100  0.00000000  0.25000000  1
  O  O6  1  0.82302600  0.82302600  0.85172000  1
  O  O7  1  0.17697400  0.00000000  0.85172000  1
  O  O8  1  0.00000000  0.17697400  0.85172000  1
  O  O9  1  0.00000000  0.82302600  0.35172000  1
  O  O10  1  0.17697400  0.00000000  0.64828000  1
  O  O11  1  0.17697400  0.17697400  0.35172000  1
  O  O12  1  0.82302600  0.00000000  0.35172000  1
  O  O13  1  0.17697400  0.17697400  0.14828000  1
  O  O14  1  0.00000000  0.82302600  0.14828000  1
  O  O15  1  0.00000000  0.17697400  0.64828000  1
  O  O16  1  0.82302600  0.82302600  0.64828000  1
  O  O17  1  0.82302600  0.00000000  0.14828000  1
  O  O18  1  0.32193900  0.84419300  0.90863900  1
  O  O19  1  0.15580700  0.47774600  0.90863900  1
  O  O20  1  0.52225400  0.67806100  0.90863900  1
  O  O21  1  0.47774600  0.32193900  0.40863900  1
  O  O22  1  0.67806100  0.52225400  0.59136100  1
  O  O23  1  0.67806100  0.15580700  0.40863900  1
  O  O24  1  0.84419300  0.52225400  0.40863900  1
  O  O25  1  0.15580700  0.67806100  0.09136100  1
  O  O26  1  0.52225400  0.84419300  0.09136100  1
  O  O27  1  0.47774600  0.15580700  0.59136100  1
  O  O28  1  0.84419300  0.32193900  0.59136100  1
  O  O29  1  0.32193900  0.47774600  0.09136100  1
  O  O30  1  0.67806100  0.15580700  0.09136100  1
  O  O31  1  0.84419300  0.52225400  0.09136100  1
  O  O32  1  0.47774600  0.32193900  0.09136100  1
  O  O33  1  0.52225400  0.67806100  0.59136100  1
  O  O34  1  0.32193900  0.47774600  0.40863900  1
  O  O35  1  0.32193900  0.84419300  0.59136100  1
  O  O36  1  0.67806100  0.52225400  0.90863900  1
  O  O37  1  0.15580700  0.67806100  0.40863900  1
  O  O38  1  0.52225400  0.84419300  0.40863900  1
  O  O39  1  0.47774600  0.15580700  0.90863900  1
  O  O40  1  0.84419300  0.32193900  0.90863900  1
  O  O41  1  0.15580700  0.47774600  0.59136100  1
loop_
_geom_bond_atom_site_label_1
_geom_bond_atom_site_label_2
_geom_bond_distance
_geom_bond_site_symmetry_2
K0 O10 2.773162 1_555
K0 O15 2.773162 1_555
K0 O12 2.773162 1_455
K0 O9 2.773162 1_545
K0 O11 2.773162 1_555
K0 O16 2.773162 1_445
K1 O32 2.773337 1_555
K1 O25 2.773337 1_545
K1 O13 2.971255 1_555
K1 O14 2.971255 1_545
K1 O26 2.982765 1_545
K1 O30 2.982765 1_555
K1 O18 3.045340 1_544
K1 O39 3.045340 1_554
K2 O41 2.773337 1_555
K2 O27 2.773337 1_555
K2 O15 2.971255 1_555
K2 O10 2.971255 1_555
K2 O33 2.982765 1_555
K2 O22 2.982765 1_555
K2 O34 3.045340 1_555
K2 O21 3.045340 1_555
K3 O22 2.773337 1_455
K3 O35 2.773337 1_555
K3 O16 2.971255 1_455
K3 O10 2.971255 1_565
K3 O41 2.982765 1_555
K3 O28 2.982765 1_455
K3 O37 3.045340 1_555
K3 O24 3.045340 1_455
K4 O29 2.773337 1_555
K4 O30 2.773337 1_455
K4 O13 2.971255 1_555
K4 O17 2.971255 1_455
K4 O31 2.982765 1_455
K4 O25 2.982765 1_555
K4 O40 3.045340 1_454
K4 O19 3.045340 1_554
K5 O31 2.773337 1_555
K5 O26 2.773337 1_555
K5 O17 2.971255 1_565
K5 O14 2.971255 1_655
K5 O29 2.982765 1_555
K5 O32 2.982765 1_555
K5 O36 3.045340 1_554
K5 O20 3.045340 1_554
K6 O21 2.773337 1_555
K6 O37 2.773337 1_545
K6 O11 2.971255 1_555
K6 O9 2.971255 1_545
K6 O38 2.982765 1_545
K6 O23 2.982765 1_555
K6 O35 3.045340 1_545
K6 O27 3.045340 1_555
K7 O8 2.773162 1_554
K7 O7 2.773162 1_554
K7 O17 2.773162 1_455
K7 O14 2.773162 1_545
K7 O13 2.773162 1_555
K7 O6 2.773162 1_444
K8 O35 2.930417 1_555
K8 O18 2.930417 1_555
K8 O41 2.930421 1_555
K8 O19 2.930421 1_555
K8 O33 2.930423 1_555
K8 O20 2.930423 1_555
K8 O0 3.007447 1_565
K8 O3 3.007450 1_555
K8 O4 3.007457 1_555
K9 O23 2.930417 1_555
K9 O30 2.930417 1_555
K9 O24 2.930421 1_555
K9 O31 2.930421 1_555
K9 O21 2.930423 1_555
K9 O32 2.930423 1_555
K9 O5 3.007447 1_555
K9 O2 3.007450 1_655
K9 O1 3.007457 1_555
K10 O40 2.930417 1_555
K10 O28 2.930417 1_555
K10 O39 2.930421 1_555
K10 O27 2.930421 1_555
K10 O22 2.930423 1_555
K10 O36 2.930423 1_555
K10 O3 3.007447 1_655
K10 O0 3.007450 1_555
K10 O4 3.007457 1_555
K11 O37 2.930417 1_555
K11 O25 2.930417 1_555
K11 O38 2.930421 1_555
K11 O26 2.930421 1_555
K11 O34 2.930423 1_555
K11 O29 2.930423 1_555
K11 O2 3.007447 1_555
K11 O5 3.007450 1_565
K11 O1 3.007457 1_555
K12 O24 2.773337 1_555
K12 O38 2.773337 1_555
K12 O12 2.971255 1_565
K12 O9 2.971255 1_655
K12 O21 2.982765 1_555
K12 O34 2.982765 1_555
K12 O22 3.045340 1_555
K12 O33 3.045340 1_555
K13 O20 2.773337 1_545
K13 O40 2.773337 1_555
K13 O6 2.971255 1_545
K13 O8 2.971255 1_655
K13 O39 2.982765 1_555
K13 O18 2.982765 1_545
K13 O30 3.045340 1_556
K13 O26 3.045340 1_546
K14 O36 2.773337 1_455
K14 O18 2.773337 1_555
K14 O6 2.971255 1_455
K14 O7 2.971255 1_565
K14 O19 2.982765 1_555
K14 O40 2.982765 1_455
K14 O25 3.045340 1_556
K14 O31 3.045340 1_456
K15 O34 2.773337 1_555
K15 O23 2.773337 1_455
K15 O11 2.971255 1_555
K15 O12 2.971255 1_455
K15 O24 2.982765 1_455
K15 O37 2.982765 1_555
K15 O28 3.045340 1_455
K15 O41 3.045340 1_555
K16 O33 2.773337 1_545
K16 O28 2.773337 1_555
K16 O16 2.971255 1_545
K16 O15 2.971255 1_655
K16 O27 2.982765 1_555
K16 O35 2.982765 1_545
K16 O23 3.045340 1_555
K16 O38 3.045340 1_545
K17 O19 2.773337 1_555
K17 O39 2.773337 1_555
K17 O8 2.971255 1_555
K17 O7 2.971255 1_555
K17 O20 2.982765 1_555
K17 O36 2.982765 1_555
K17 O32 3.045340 1_556
K17 O29 3.045340 1_556
Ho0 O10 2.292351 1_555
Ho0 O15 2.292351 1_555
Ho0 O8 2.292351 1_555
Ho0 O7 2.292351 1_555
Ho0 O16 2.292351 1_445
Ho0 O6 2.292351 1_445
Ho1 O18 2.251229 1_554
Ho1 O25 2.251229 1_555
Ho1 O26 2.251234 1_555
Ho1 O19 2.251234 1_554
Ho1 O29 2.251237 1_555
Ho1 O20 2.251237 1_554
Ho2 O23 2.251229 1_555
Ho2 O28 2.251229 1_555
Ho2 O27 2.251234 1_555
Ho2 O24 2.251234 1_555
Ho2 O21 2.251237 1_555
Ho2 O22 2.251237 1_555
Ho3 O40 2.251229 1_554
Ho3 O30 2.251229 1_555
Ho3 O31 2.251234 1_555
Ho3 O39 2.251234 1_554
Ho3 O32 2.251237 1_555
Ho3 O36 2.251237 1_554
Ho4 O35 2.251229 1_555
Ho4 O37 2.251229 1_555
Ho4 O41 2.251234 1_555
Ho4 O38 2.251234 1_555
Ho4 O33 2.251237 1_555
Ho4 O34 2.251237 1_555
Ho5 O14 2.292351 1_545
Ho5 O17 2.292351 1_455
Ho5 O9 2.292351 1_545
Ho5 O12 2.292351 1_455
Ho5 O13 2.292351 1_555
Ho5 O11 2.292351 1_555
O0 Si1 1.688769 1_555
O0 Si4 1.688769 1_555
O1 Si5 1.688769 1_555
O1 Si7 1.688769 1_555
O2 Si3 1.688769 1_555
O2 Si8 1.688769 1_555
O3 Si2 1.688769 1_555
O3 Si9 1.688769 1_555
O4 Si0 1.688769 1_555
O4 Si10 1.688769 1_555
O5 Si6 1.688769 1_555
O5 Si11 1.688769 1_555
O6 Si0 1.638680 1_555
O7 Si1 1.638680 1_555
O8 Si2 1.638680 1_555
O9 Si3 1.638680 1_555
O10 Si4 1.638680 1_555
O11 Si5 1.638680 1_555
O12 Si6 1.638680 1_555
O13 Si7 1.638680 1_555
O14 Si8 1.638680 1_555
O15 Si9 1.638680 1_555
O16 Si10 1.638680 1_555
O17 Si11 1.638680 1_555
O18 Si1 1.637036 1_565
O19 Si2 1.637036 1_555
O20 Si0 1.637036 1_555
O21 Si5 1.637036 1_555
O22 Si10 1.637036 1_555
O23 Si6 1.637036 1_555
O24 Si3 1.637036 1_655
O25 Si8 1.637036 1_555
O26 Si11 1.637036 1_565
O27 Si4 1.637036 1_555
O28 Si9 1.637036 1_655
O29 Si7 1.637036 1_555
O30 Si11 1.637036 1_555
O31 Si8 1.637036 1_655
O32 Si7 1.637036 1_555
O33 Si10 1.637036 1_555
O34 Si5 1.637036 1_555
O35 Si4 1.637036 1_565
O36 Si0 1.637036 1_555
O37 Si3 1.637036 1_555
O38 Si6 1.637036 1_565
O39 Si1 1.637036 1_555
O40 Si2 1.637036 1_655
O41 Si9 1.637036 1_555
