# generated using pymatgen
data_Mn2Sb2PtAu
_symmetry_space_group_name_H-M   'P 1'
_cell_length_a   7.78930194
_cell_length_b   7.78930194
_cell_length_c   7.78930146
_cell_angle_alpha   33.46520293
_cell_angle_beta   33.46520293
_cell_angle_gamma   33.46519230
_symmetry_Int_Tables_number   1
_chemical_formula_structural   Mn2Sb2PtAu
_chemical_formula_sum   'Mn2 Sb2 Pt1 Au1'
_cell_volume   127.98356958
_cell_formula_units_Z   1
loop_
 _symmetry_equiv_pos_site_id
 _symmetry_equiv_pos_as_xyz
  1  'x, y, z'
loop_
 _atom_site_type_symbol
 _atom_site_label
 _atom_site_symmetry_multiplicity
 _atom_site_fract_x
 _atom_site_fract_y
 _atom_site_fract_z
 _atom_site_occupancy
  Mn  Mn0  1  0.74733900  0.74733900  0.74733900  1
  Mn  Mn1  1  0.25211700  0.25211700  0.25211700  1
  Sb  Sb0  1  0.99701500  0.99701500  0.99701500  1
  Sb  Sb1  1  0.50359000  0.50359000  0.50359000  1
  Pt  Pt0  1  0.62576600  0.62576600  0.62576600  1
  Au  Au0  1  0.12417200  0.12417200  0.12417200  1
loop_
_geom_bond_atom_site_label_1
_geom_bond_atom_site_label_2
_geom_bond_distance
_geom_bond_site_symmetry_2
Mn0 Pt0 2.679324 1_555
Mn0 Sb0 3.178809 1_455
Mn0 Sb0 3.178809 1_545
Mn0 Sb0 3.178809 1_554
Mn0 Sb1 3.256310 1_565
Mn0 Sb1 3.256310 1_655
Mn0 Sb1 3.256310 1_556
Mn1 Pt0 2.737702 1_545
Mn1 Pt0 2.737702 1_455
Mn1 Pt0 2.737703 1_554
Mn1 Sb0 3.110976 1_544
Mn1 Sb0 3.110976 1_454
Mn1 Sb0 3.110977 1_445
Mn1 Sb1 3.156004 1_545
Mn1 Sb1 3.156004 1_455
Mn1 Sb1 3.156004 1_554
Pt0 Sb1 2.692613 1_555
Pt0 Sb0 2.720996 1_455
Pt0 Sb0 2.720996 1_545
Pt0 Sb0 2.720997 1_554
Au0 Mn0 2.761274 1_544
Au0 Mn0 2.761274 1_454
Au0 Mn0 2.761275 1_445
Au0 Sb1 2.781567 1_455
Au0 Sb1 2.781567 1_545
Au0 Sb1 2.781568 1_554
Au0 Sb0 2.802388 1_444
Au0 Mn1 2.819755 1_555
