# generated using pymatgen
data_BaSi
_symmetry_space_group_name_H-M   'P 1'
_cell_length_a   6.76089793
_cell_length_b   6.76089793
_cell_length_c   5.83473100
_cell_angle_alpha   90.00000000
_cell_angle_beta   90.00000000
_cell_angle_gamma   150.20144815
_symmetry_Int_Tables_number   1
_chemical_formula_structural   BaSi
_chemical_formula_sum   'Ba2 Si2'
_cell_volume   132.53911432
_cell_formula_units_Z   2
loop_
 _symmetry_equiv_pos_site_id
 _symmetry_equiv_pos_as_xyz
  1  'x, y, z'
loop_
 _atom_site_type_symbol
 _atom_site_label
 _atom_site_symmetry_multiplicity
 _atom_site_fract_x
 _atom_site_fract_y
 _atom_site_fract_z
 _atom_site_occupancy
  Ba  Ba0  1  0.37743200  0.62256800  0.25000000  1
  Ba  Ba1  1  0.62256800  0.37743200  0.75000000  1
  Si  Si0  1  0.11270100  0.88729900  0.25000000  1
  Si  Si1  1  0.88729900  0.11270100  0.75000000  1
loop_
_geom_bond_atom_site_label_1
_geom_bond_atom_site_label_2
_geom_bond_distance
_geom_bond_site_symmetry_2
Ba0 Si1 3.398465 1_565
Ba0 Si1 3.398465 1_564
Ba0 Si1 3.398465 1_455
Ba0 Si1 3.398465 1_454
Ba0 Si0 3.459289 1_555
Ba0 Si0 3.531750 1_655
Ba0 Si0 3.531750 1_545
Ba1 Si0 3.398465 1_655
Ba1 Si0 3.398465 1_656
Ba1 Si0 3.398465 1_545
Ba1 Si0 3.398465 1_546
Ba1 Si1 3.459289 1_555
Ba1 Si1 3.531750 1_565
Ba1 Si1 3.531750 1_455
