# generated using pymatgen
data_Li9Mn2Co5O16
_symmetry_space_group_name_H-M   'P 1'
_cell_length_a   5.11030600
_cell_length_b   7.67986025
_cell_length_c   7.75382416
_cell_angle_alpha   82.65485286
_cell_angle_beta   83.54105010
_cell_angle_gamma   71.88067930
_symmetry_Int_Tables_number   1
_chemical_formula_structural   Li9Mn2Co5O16
_chemical_formula_sum   'Li9 Mn2 Co5 O16'
_cell_volume   285.99101905
_cell_formula_units_Z   1
loop_
 _symmetry_equiv_pos_site_id
 _symmetry_equiv_pos_as_xyz
  1  'x, y, z'
loop_
 _atom_site_type_symbol
 _atom_site_label
 _atom_site_symmetry_multiplicity
 _atom_site_fract_x
 _atom_site_fract_y
 _atom_site_fract_z
 _atom_site_occupancy
  Li  Li0  1  0.50130500  0.93813100  0.18420900  1
  Li  Li1  1  0.50516700  0.56241300  0.30406300  1
  Li  Li2  1  0.50021600  0.81241900  0.56575400  1
  Li  Li3  1  0.49791700  0.44109600  0.68482100  1
  Li  Li4  1  0.49715800  0.68019100  0.94535400  1
  Li  Li5  1  0.49118200  0.31955000  0.06243600  1
  Li  Li6  1  0.49722400  0.18847500  0.43637600  1
  Li  Li7  1  0.50696000  0.05732000  0.81490700  1
  Li  Li8  1  0.00005900  0.62418000  0.12424600  1
  Mn  Mn0  1  0.01090000  0.99593400  0.99983400  1
  Mn  Mn1  1  0.99403600  0.50104400  0.49808300  1
  Co  Co0  1  0.99226400  0.26215100  0.24669300  1
  Co  Co1  1  0.00020100  0.87342400  0.37101400  1
  Co  Co2  1  0.00071600  0.12366900  0.62370800  1
  Co  Co3  1  0.99710300  0.74931200  0.75777800  1
  Co  Co4  1  0.00070100  0.38375000  0.88005500  1
  O  O0  1  0.22813000  0.15771900  0.03017500  1
  O  O1  1  0.23170600  0.80204200  0.15220100  1
  O  O2  1  0.21916600  0.03317700  0.41583800  1
  O  O3  1  0.21953700  0.65429900  0.53609000  1
  O  O4  1  0.24123200  0.90392400  0.79646400  1
  O  O5  1  0.23916700  0.52199000  0.89661100  1
  O  O6  1  0.22337600  0.40330800  0.29504400  1
  O  O7  1  0.21148600  0.28927200  0.64537300  1
  O  O8  1  0.77510300  0.71464700  0.36025300  1
  O  O9  1  0.76073800  0.35504000  0.46436700  1
  O  O10  1  0.77053400  0.58595400  0.71137600  1
  O  O11  1  0.79417900  0.20277300  0.84185800  1
  O  O12  1  0.75736800  0.45575400  0.09058500  1
  O  O13  1  0.77616800  0.08728300  0.20780600  1
  O  O14  1  0.77765900  0.97167000  0.59684200  1
  O  O15  1  0.78134300  0.84809100  0.95978700  1
loop_
_geom_bond_atom_site_label_1
_geom_bond_atom_site_label_2
_geom_bond_distance
_geom_bond_site_symmetry_2
Li0 O1 2.022610 1_555
Li0 O13 2.104933 1_565
Li0 O0 2.148272 1_565
Li0 O15 2.164739 1_554
Li0 O2 2.221554 1_565
Li0 O8 2.259145 1_555
Li1 O12 2.069307 1_555
Li1 O9 2.086245 1_555
Li1 O6 2.170394 1_555
Li1 O8 2.174441 1_555
Li1 O1 2.223223 1_555
Li1 O3 2.226756 1_555
Li2 O8 2.054846 1_555
Li2 O10 2.136004 1_555
Li2 O2 2.155352 1_565
Li2 O4 2.157743 1_555
Li2 O14 2.189734 1_555
Li2 O3 2.194067 1_555
Li3 O5 2.023004 1_555
Li3 O10 2.075580 1_555
Li3 O9 2.093522 1_555
Li3 O3 2.114757 1_555
Li3 O7 2.202075 1_555
Li3 O11 2.290437 1_555
Li4 O1 2.095938 1_556
Li4 O12 2.102917 1_556
Li4 O4 2.104845 1_555
Li4 O5 2.140800 1_555
Li4 O10 2.214388 1_555
Li4 O15 2.241099 1_555
Li5 O12 2.000604 1_555
Li5 O5 2.084464 1_554
Li5 O0 2.146771 1_555
Li5 O6 2.175656 1_555
Li5 O13 2.193803 1_555
Li5 O11 2.249382 1_554
Li6 O6 2.080405 1_555
Li6 O7 2.107809 1_555
Li6 O2 2.149543 1_555
Li6 O9 2.169119 1_555
Li6 O14 2.182087 1_545
Li6 O13 2.207196 1_555
Li7 O15 2.074000 1_545
Li7 O4 2.081852 1_545
Li7 O14 2.097007 1_545
Li7 O0 2.126394 1_556
Li7 O11 2.143449 1_555
Li7 O7 2.314309 1_555
Li8 O15 2.096880 1_454
Li8 O12 2.106265 1_455
Li8 O1 2.110301 1_555
Li8 O6 2.120175 1_555
Li8 O5 2.120580 1_554
Li8 O8 2.123210 1_455
Mn0 O1 1.921287 1_556
Mn0 O4 1.929088 1_555
Mn0 O15 1.939675 1_455
Mn0 O0 1.955219 1_566
Mn0 O13 1.965231 1_466
Mn0 O11 1.990918 1_465
Mn1 O9 1.929666 1_555
Mn1 O6 1.937873 1_655
Mn1 O8 1.940128 1_555
Mn1 O3 1.951620 1_655
Mn1 O10 1.962767 1_555
Mn1 O7 1.967417 1_655
Co0 O6 1.926276 1_655
Co0 O12 1.968092 1_555
Co0 O9 2.022640 1_555
Co0 O0 2.049959 1_655
Co0 O13 2.053018 1_555
Co0 O2 2.154315 1_655
Co1 O8 1.933175 1_455
Co1 O2 1.982064 1_565
Co1 O1 1.990369 1_555
Co1 O13 2.057827 1_465
Co1 O14 2.069983 1_455
Co1 O3 2.079769 1_555
Co2 O14 1.910143 1_445
Co2 O2 1.930312 1_555
Co2 O7 1.937328 1_555
Co2 O11 1.951024 1_455
Co2 O9 2.147543 1_455
Co2 O4 2.157610 1_545
Co3 O15 1.907786 1_555
Co3 O3 2.035797 1_655
Co3 O4 2.037892 1_655
Co3 O10 2.038777 1_555
Co3 O5 2.052481 1_655
Co3 O14 2.075998 1_555
Co4 O5 1.871749 1_555
Co4 O12 1.965522 1_456
Co4 O10 2.048487 1_455
Co4 O11 2.054577 1_455
Co4 O0 2.061998 1_556
Co4 O7 2.099639 1_555
