# generated using pymatgen
data_MnAl2(SiO5)2
_symmetry_space_group_name_H-M   'P 1'
_cell_length_a   11.88416868
_cell_length_b   11.88416868
_cell_length_c   5.19608000
_cell_angle_alpha   90.00000000
_cell_angle_beta   90.00000000
_cell_angle_gamma   110.72103762
_symmetry_Int_Tables_number   1
_chemical_formula_structural   MnAl2(SiO5)2
_chemical_formula_sum   'Mn4 Al8 Si8 O40'
_cell_volume   686.39002406
_cell_formula_units_Z   4
loop_
 _symmetry_equiv_pos_site_id
 _symmetry_equiv_pos_as_xyz
  1  'x, y, z'
loop_
 _atom_site_type_symbol
 _atom_site_label
 _atom_site_symmetry_multiplicity
 _atom_site_fract_x
 _atom_site_fract_y
 _atom_site_fract_z
 _atom_site_occupancy
  Mn  Mn0  1  0.86528500  0.13471500  0.00000000  1
  Mn  Mn1  1  0.36528500  0.63471500  0.50000000  1
  Mn  Mn2  1  0.63471500  0.36528500  0.50000000  1
  Mn  Mn3  1  0.13471500  0.86528500  0.00000000  1
  Al  Al0  1  0.18998300  0.18998300  0.00000000  1
  Al  Al1  1  0.31001700  0.31001700  0.50000000  1
  Al  Al2  1  0.68998300  0.68998300  0.50000000  1
  Al  Al3  1  0.81001700  0.81001700  0.00000000  1
  Al  Al4  1  0.78581000  0.21419000  0.50000000  1
  Al  Al5  1  0.28581000  0.71419000  0.00000000  1
  Al  Al6  1  0.71419000  0.28581000  0.00000000  1
  Al  Al7  1  0.21419000  0.78581000  0.50000000  1
  Si  Si0  1  0.06360300  0.33183800  0.32341600  1
  Si  Si1  1  0.16816200  0.43639700  0.82341600  1
  Si  Si2  1  0.83183800  0.56360300  0.82341600  1
  Si  Si3  1  0.93639700  0.66816200  0.32341600  1
  Si  Si4  1  0.43639700  0.16816200  0.17658400  1
  Si  Si5  1  0.33183800  0.06360300  0.67658400  1
  Si  Si6  1  0.66816200  0.93639700  0.67658400  1
  Si  Si7  1  0.56360300  0.83183800  0.17658400  1
  O  O0  1  0.02402700  0.14794700  0.89654200  1
  O  O1  1  0.35205300  0.47597300  0.39654200  1
  O  O2  1  0.64794700  0.52402700  0.39654200  1
  O  O3  1  0.97597300  0.85205300  0.89654200  1
  O  O4  1  0.47597300  0.35205300  0.60345800  1
  O  O5  1  0.14794700  0.02402700  0.10345800  1
  O  O6  1  0.85205300  0.97597300  0.10345800  1
  O  O7  1  0.52402700  0.64794700  0.60345800  1
  O  O8  1  0.16212700  0.26562400  0.31403700  1
  O  O9  1  0.23437600  0.33787300  0.81403700  1
  O  O10  1  0.76562400  0.66212700  0.81403700  1
  O  O11  1  0.83787300  0.73437600  0.31403700  1
  O  O12  1  0.33787300  0.23437600  0.18596300  1
  O  O13  1  0.26562400  0.16212700  0.68596300  1
  O  O14  1  0.73437600  0.83787300  0.68596300  1
  O  O15  1  0.66212700  0.76562400  0.18596300  1
  O  O16  1  0.08463400  0.42093700  0.07630800  1
  O  O17  1  0.07906300  0.41536600  0.57630800  1
  O  O18  1  0.92093700  0.58463400  0.57630800  1
  O  O19  1  0.91536600  0.57906300  0.07630800  1
  O  O20  1  0.41536600  0.07906300  0.42369200  1
  O  O21  1  0.42093700  0.08463400  0.92369200  1
  O  O22  1  0.57906300  0.91536600  0.92369200  1
  O  O23  1  0.58463400  0.92093700  0.42369200  1
  O  O24  1  0.92897000  0.22674600  0.32280200  1
  O  O25  1  0.27325400  0.57103000  0.82280200  1
  O  O26  1  0.72674600  0.42897000  0.82280200  1
  O  O27  1  0.07103000  0.77325400  0.32280200  1
  O  O28  1  0.57103000  0.27325400  0.17719800  1
  O  O29  1  0.22674600  0.92897000  0.67719800  1
  O  O30  1  0.77325400  0.07103000  0.67719800  1
  O  O31  1  0.42897000  0.72674600  0.17719800  1
  O  O32  1  0.85523900  0.27610900  0.83295900  1
  O  O33  1  0.22389100  0.64476100  0.33295900  1
  O  O34  1  0.77610900  0.35523900  0.33295900  1
  O  O35  1  0.14476100  0.72389100  0.83295900  1
  O  O36  1  0.64476100  0.22389100  0.66704100  1
  O  O37  1  0.27610900  0.85523900  0.16704100  1
  O  O38  1  0.72389100  0.14476100  0.16704100  1
  O  O39  1  0.35523900  0.77610900  0.66704100  1
loop_
_geom_bond_atom_site_label_1
_geom_bond_atom_site_label_2
_geom_bond_distance
_geom_bond_site_symmetry_2
Mn0 O6 1.913828 1_545
Mn0 O0 1.913828 1_654
Mn0 O32 1.932135 1_554
Mn0 O38 1.932135 1_555
Mn0 O30 1.999152 1_554
Mn0 O24 1.999152 1_555
Mn1 O1 1.913828 1_555
Mn1 O7 1.913828 1_555
Mn1 O39 1.932135 1_555
Mn1 O33 1.932135 1_555
Mn1 O25 1.999152 1_555
Mn1 O31 1.999152 1_555
Mn2 O4 1.913828 1_555
Mn2 O2 1.913828 1_555
Mn2 O36 1.932135 1_555
Mn2 O34 1.932135 1_555
Mn2 O28 1.999152 1_555
Mn2 O26 1.999152 1_555
Mn3 O3 1.913828 1_454
Mn3 O5 1.913828 1_565
Mn3 O37 1.932135 1_555
Mn3 O35 1.932135 1_554
Mn3 O27 1.999152 1_555
Mn3 O29 1.999152 1_554
Al0 O12 1.909152 1_555
Al0 O9 1.909152 1_554
Al0 O5 1.931608 1_555
Al0 O0 1.931608 1_554
Al0 O8 1.947022 1_555
Al0 O13 1.947022 1_554
Al1 O8 1.909152 1_555
Al1 O13 1.909152 1_555
Al1 O4 1.931608 1_555
Al1 O1 1.931608 1_555
Al1 O12 1.947022 1_555
Al1 O9 1.947022 1_555
Al2 O14 1.909152 1_555
Al2 O11 1.909152 1_555
Al2 O7 1.931608 1_555
Al2 O2 1.931608 1_555
Al2 O10 1.947022 1_555
Al2 O15 1.947022 1_555
Al3 O10 1.909152 1_554
Al3 O15 1.909152 1_555
Al3 O6 1.931608 1_555
Al3 O3 1.931608 1_554
Al3 O14 1.947022 1_554
Al3 O11 1.947022 1_555
Al4 O24 1.893389 1_555
Al4 O30 1.893389 1_555
Al4 O34 1.926969 1_555
Al4 O36 1.926969 1_555
Al4 O32 1.945718 1_555
Al4 O38 1.945718 1_555
Al5 O31 1.893389 1_555
Al5 O25 1.893389 1_554
Al5 O37 1.926969 1_555
Al5 O35 1.926969 1_554
Al5 O39 1.945718 1_554
Al5 O33 1.945718 1_555
Al6 O28 1.893389 1_555
Al6 O26 1.893389 1_554
Al6 O32 1.926969 1_554
Al6 O38 1.926969 1_555
Al6 O34 1.945718 1_555
Al6 O36 1.945718 1_554
Al7 O29 1.893389 1_555
Al7 O27 1.893389 1_555
Al7 O39 1.926969 1_555
Al7 O33 1.926969 1_555
Al7 O37 1.945718 1_555
Al7 O35 1.945718 1_555
O8 Si0 1.626199 1_555
O9 Si1 1.626199 1_555
O10 Si2 1.626199 1_555
O11 Si3 1.626199 1_555
O12 Si4 1.626199 1_555
O13 Si5 1.626199 1_555
O14 Si6 1.626199 1_555
O15 Si7 1.626199 1_555
O16 Si1 1.617650 1_554
O16 Si0 1.626355 1_555
O17 Si0 1.617650 1_555
O17 Si1 1.626355 1_555
O18 Si3 1.617650 1_555
O18 Si2 1.626355 1_555
O19 Si2 1.617650 1_554
O19 Si3 1.626355 1_555
O20 Si5 1.617650 1_555
O20 Si4 1.626355 1_555
O21 Si4 1.617650 1_556
O21 Si5 1.626355 1_555
O22 Si7 1.617650 1_556
O22 Si6 1.626355 1_555
O23 Si6 1.617650 1_555
O23 Si7 1.626355 1_555
O24 Si0 1.644925 1_655
O25 Si1 1.644925 1_555
O26 Si2 1.644925 1_555
O27 Si3 1.644925 1_455
O28 Si4 1.644925 1_555
O29 Si5 1.644925 1_565
O30 Si6 1.644925 1_545
O31 Si7 1.644925 1_555
