# generated using pymatgen
data_RbMg6V
_symmetry_space_group_name_H-M   'P 1'
_cell_length_a   16.02906274
_cell_length_b   16.02906274
_cell_length_c   6.58009600
_cell_angle_alpha   90.00000000
_cell_angle_beta   90.00000000
_cell_angle_gamma   90.09579410
_symmetry_Int_Tables_number   1
_chemical_formula_structural   RbMg6V
_chemical_formula_sum   'Rb8 Mg48 V8'
_cell_volume   1690.62731097
_cell_formula_units_Z   8
loop_
 _symmetry_equiv_pos_site_id
 _symmetry_equiv_pos_as_xyz
  1  'x, y, z'
loop_
 _atom_site_type_symbol
 _atom_site_label
 _atom_site_symmetry_multiplicity
 _atom_site_fract_x
 _atom_site_fract_y
 _atom_site_fract_z
 _atom_site_occupancy
  Rb  Rb0_0  1  0.31084500  0.31084500  0.25000000  1
  Rb  Rb0_1  1  0.31084500  0.31084500  0.75000000  1
  Rb  Rb0_2  1  0.31084500  0.81084500  0.25000000  1
  Rb  Rb0_3  1  0.31084500  0.81084500  0.75000000  1
  Rb  Rb0_4  1  0.81084500  0.31084500  0.25000000  1
  Rb  Rb0_5  1  0.81084500  0.31084500  0.75000000  1
  Rb  Rb0_6  1  0.81084500  0.81084500  0.25000000  1
  Rb  Rb0_7  1  0.81084500  0.81084500  0.75000000  1
  Mg  Mg0_0  1  0.31692450  0.06247400  0.25000000  1
  Mg  Mg0_1  1  0.31692450  0.06247400  0.75000000  1
  Mg  Mg0_2  1  0.31692450  0.56247400  0.25000000  1
  Mg  Mg0_3  1  0.31692450  0.56247400  0.75000000  1
  Mg  Mg0_4  1  0.81692450  0.06247400  0.25000000  1
  Mg  Mg0_5  1  0.81692450  0.06247400  0.75000000  1
  Mg  Mg0_6  1  0.81692450  0.56247400  0.25000000  1
  Mg  Mg0_7  1  0.81692450  0.56247400  0.75000000  1
  Mg  Mg1_0  1  0.06247400  0.31692450  0.25000000  1
  Mg  Mg1_1  1  0.06247400  0.31692450  0.75000000  1
  Mg  Mg1_2  1  0.06247400  0.81692450  0.25000000  1
  Mg  Mg1_3  1  0.06247400  0.81692450  0.75000000  1
  Mg  Mg1_4  1  0.56247400  0.31692450  0.25000000  1
  Mg  Mg1_5  1  0.56247400  0.31692450  0.75000000  1
  Mg  Mg1_6  1  0.56247400  0.81692450  0.25000000  1
  Mg  Mg1_7  1  0.56247400  0.81692450  0.75000000  1
  Mg  Mg2_0  1  0.46302450  0.16663900  0.00000000  1
  Mg  Mg2_1  1  0.46302450  0.16663900  0.50000000  1
  Mg  Mg2_2  1  0.46302450  0.66663900  0.00000000  1
  Mg  Mg2_3  1  0.46302450  0.66663900  0.50000000  1
  Mg  Mg2_4  1  0.96302450  0.16663900  0.00000000  1
  Mg  Mg2_5  1  0.96302450  0.16663900  0.50000000  1
  Mg  Mg2_6  1  0.96302450  0.66663900  0.00000000  1
  Mg  Mg2_7  1  0.96302450  0.66663900  0.50000000  1
  Mg  Mg3_0  1  0.16663900  0.46302450  0.00000000  1
  Mg  Mg3_1  1  0.16663900  0.46302450  0.50000000  1
  Mg  Mg3_2  1  0.16663900  0.96302450  0.00000000  1
  Mg  Mg3_3  1  0.16663900  0.96302450  0.50000000  1
  Mg  Mg3_4  1  0.66663900  0.46302450  0.00000000  1
  Mg  Mg3_5  1  0.66663900  0.46302450  0.50000000  1
  Mg  Mg3_6  1  0.66663900  0.96302450  0.00000000  1
  Mg  Mg3_7  1  0.66663900  0.96302450  0.50000000  1
  Mg  Mg4_0  1  0.16172300  0.16172300  0.00000000  1
  Mg  Mg4_1  1  0.16172300  0.16172300  0.50000000  1
  Mg  Mg4_2  1  0.16172300  0.66172300  0.00000000  1
  Mg  Mg4_3  1  0.16172300  0.66172300  0.50000000  1
  Mg  Mg4_4  1  0.66172300  0.16172300  0.00000000  1
  Mg  Mg4_5  1  0.66172300  0.16172300  0.50000000  1
  Mg  Mg4_6  1  0.66172300  0.66172300  0.00000000  1
  Mg  Mg4_7  1  0.66172300  0.66172300  0.50000000  1
  Mg  Mg5_0  1  0.45899200  0.45899200  0.00000000  1
  Mg  Mg5_1  1  0.45899200  0.45899200  0.50000000  1
  Mg  Mg5_2  1  0.45899200  0.95899200  0.00000000  1
  Mg  Mg5_3  1  0.45899200  0.95899200  0.50000000  1
  Mg  Mg5_4  1  0.95899200  0.45899200  0.00000000  1
  Mg  Mg5_5  1  0.95899200  0.45899200  0.50000000  1
  Mg  Mg5_6  1  0.95899200  0.95899200  0.00000000  1
  Mg  Mg5_7  1  0.95899200  0.95899200  0.50000000  1
  V  V0_0  1  0.05937550  0.05937550  0.25000000  1
  V  V0_1  1  0.05937550  0.05937550  0.75000000  1
  V  V0_2  1  0.05937550  0.55937550  0.25000000  1
  V  V0_3  1  0.05937550  0.55937550  0.75000000  1
  V  V0_4  1  0.55937550  0.05937550  0.25000000  1
  V  V0_5  1  0.55937550  0.05937550  0.75000000  1
  V  V0_6  1  0.55937550  0.55937550  0.25000000  1
  V  V0_7  1  0.55937550  0.55937550  0.75000000  1
loop_
_geom_bond_atom_site_label_1
_geom_bond_atom_site_label_2
_geom_bond_distance
_geom_bond_site_symmetry_2
Rb0_0 Rb0_1 3.290048 1_555
Rb0_0 Rb0_1 3.290048 1_554
Rb0_2 Rb0_3 3.290048 1_554
Rb0_2 Rb0_3 3.290048 1_555
Rb0_4 Rb0_5 3.290048 1_555
Rb0_4 Rb0_5 3.290048 1_554
Rb0_6 Rb0_7 3.290048 1_554
Rb0_6 Rb0_7 3.290048 1_555
Mg0_0 Mg5_2 3.264317 1_545
Mg0_0 Mg5_3 3.264317 1_545
Mg0_0 Mg0_1 3.290048 1_554
Mg0_0 Mg0_1 3.290048 1_555
Mg0_0 Mg2_0 3.311353 1_555
Mg0_0 Mg2_1 3.311353 1_555
Mg0_0 Mg3_3 3.322248 1_545
Mg0_0 Mg3_2 3.322248 1_545
Mg0_0 Mg4_0 3.382163 1_555
Mg0_0 Mg4_1 3.382163 1_555
Mg0_0 Rb0_0 3.982510 1_555
Mg0_0 Rb0_2 4.034391 1_545
Mg0_1 Mg5_2 3.264317 1_546
Mg0_1 Mg5_3 3.264317 1_545
Mg0_1 Mg2_1 3.311353 1_555
Mg0_1 Mg2_0 3.311353 1_556
Mg0_1 Mg3_3 3.322248 1_545
Mg0_1 Mg3_2 3.322248 1_546
Mg0_1 Mg4_0 3.382163 1_556
Mg0_1 Mg4_1 3.382163 1_555
Mg0_1 Rb0_1 3.982510 1_555
Mg0_1 Rb0_3 4.034391 1_545
Mg0_2 Mg5_0 3.264317 1_555
Mg0_2 Mg5_1 3.264317 1_555
Mg0_2 Mg0_3 3.290048 1_554
Mg0_2 Mg0_3 3.290048 1_555
Mg0_2 Mg2_3 3.311353 1_555
Mg0_2 Mg2_2 3.311353 1_555
Mg0_2 Mg3_0 3.322248 1_555
Mg0_2 Mg3_1 3.322248 1_555
Mg0_2 Mg4_2 3.382163 1_555
Mg0_2 Mg4_3 3.382163 1_555
Mg0_2 Rb0_2 3.982510 1_555
Mg0_2 Rb0_0 4.034391 1_555
Mg0_3 Mg5_0 3.264317 1_556
Mg0_3 Mg5_1 3.264317 1_555
Mg0_3 Mg2_2 3.311353 1_556
Mg0_3 Mg2_3 3.311353 1_555
Mg0_3 Mg3_0 3.322248 1_556
Mg0_3 Mg3_1 3.322248 1_555
Mg0_3 Mg4_2 3.382163 1_556
Mg0_3 Mg4_3 3.382163 1_555
Mg0_3 Rb0_3 3.982510 1_555
Mg0_3 Rb0_1 4.034391 1_555
Mg0_4 Mg5_6 3.264317 1_545
Mg0_4 Mg5_7 3.264317 1_545
Mg0_4 Mg0_5 3.290048 1_555
Mg0_4 Mg0_5 3.290048 1_554
Mg0_4 Mg2_4 3.311353 1_555
Mg0_4 Mg2_5 3.311353 1_555
Mg0_4 Mg3_6 3.322248 1_545
Mg0_4 Mg3_7 3.322248 1_545
Mg0_4 Mg4_5 3.382163 1_555
Mg0_4 Mg4_4 3.382163 1_555
Mg0_4 Rb0_4 3.982510 1_555
Mg0_4 Rb0_6 4.034391 1_545
Mg0_5 Mg5_6 3.264317 1_546
Mg0_5 Mg5_7 3.264317 1_545
Mg0_5 Mg2_4 3.311353 1_556
Mg0_5 Mg2_5 3.311353 1_555
Mg0_5 Mg3_7 3.322248 1_545
Mg0_5 Mg3_6 3.322248 1_546
Mg0_5 Mg4_5 3.382163 1_555
Mg0_5 Mg4_4 3.382163 1_556
Mg0_5 Rb0_5 3.982510 1_555
Mg0_5 Rb0_7 4.034391 1_545
Mg0_6 Mg5_5 3.264317 1_555
Mg0_6 Mg5_4 3.264317 1_555
Mg0_6 Mg0_7 3.290048 1_555
Mg0_6 Mg0_7 3.290048 1_554
Mg0_6 Mg2_7 3.311353 1_555
Mg0_6 Mg2_6 3.311353 1_555
Mg0_6 Mg3_5 3.322248 1_555
Mg0_6 Mg3_4 3.322248 1_555
Mg0_6 Mg4_6 3.382163 1_555
Mg0_6 Mg4_7 3.382163 1_555
Mg0_6 Rb0_6 3.982510 1_555
Mg0_6 Rb0_4 4.034391 1_555
Mg0_7 Mg5_5 3.264317 1_555
Mg0_7 Mg5_4 3.264317 1_556
Mg0_7 Mg2_7 3.311353 1_555
Mg0_7 Mg2_6 3.311353 1_556
Mg0_7 Mg3_5 3.322248 1_555
Mg0_7 Mg3_4 3.322248 1_556
Mg0_7 Mg4_7 3.382163 1_555
Mg0_7 Mg4_6 3.382163 1_556
Mg0_7 Rb0_7 3.982510 1_555
Mg0_7 Rb0_5 4.034391 1_555
Mg1_0 Mg5_5 3.264317 1_455
Mg1_0 Mg5_4 3.264317 1_455
Mg1_0 Mg1_1 3.290048 1_554
Mg1_0 Mg1_1 3.290048 1_555
Mg1_0 Mg3_1 3.311353 1_555
Mg1_0 Mg3_0 3.311353 1_555
Mg1_0 Mg2_4 3.322248 1_455
Mg1_0 Mg2_5 3.322248 1_455
Mg1_0 Mg4_0 3.382163 1_555
Mg1_0 Mg4_1 3.382163 1_555
Mg1_0 Rb0_0 3.982510 1_555
Mg1_0 Rb0_4 4.034391 1_455
Mg1_1 Mg5_4 3.264317 1_456
Mg1_1 Mg5_5 3.264317 1_455
Mg1_1 Mg3_1 3.311353 1_555
Mg1_1 Mg3_0 3.311353 1_556
Mg1_1 Mg2_4 3.322248 1_456
Mg1_1 Mg2_5 3.322248 1_455
Mg1_1 Mg4_1 3.382163 1_555
Mg1_1 Mg4_0 3.382163 1_556
Mg1_1 Rb0_1 3.982510 1_555
Mg1_1 Rb0_5 4.034391 1_455
Mg1_2 Mg5_7 3.264317 1_455
Mg1_2 Mg5_6 3.264317 1_455
Mg1_2 Mg1_3 3.290048 1_554
Mg1_2 Mg1_3 3.290048 1_555
Mg1_2 Mg3_3 3.311353 1_555
Mg1_2 Mg3_2 3.311353 1_555
Mg1_2 Mg2_6 3.322248 1_455
Mg1_2 Mg2_7 3.322248 1_455
Mg1_2 Mg4_3 3.382163 1_555
Mg1_2 Mg4_2 3.382163 1_555
Mg1_2 Rb0_2 3.982510 1_555
Mg1_2 Rb0_6 4.034391 1_455
Mg1_3 Mg5_7 3.264317 1_455
Mg1_3 Mg5_6 3.264317 1_456
Mg1_3 Mg3_3 3.311353 1_555
Mg1_3 Mg3_2 3.311353 1_556
Mg1_3 Mg2_6 3.322248 1_456
Mg1_3 Mg2_7 3.322248 1_455
Mg1_3 Mg4_3 3.382163 1_555
Mg1_3 Mg4_2 3.382163 1_556
Mg1_3 Rb0_3 3.982510 1_555
Mg1_3 Rb0_7 4.034391 1_455
Mg1_4 Mg5_1 3.264317 1_555
Mg1_4 Mg5_0 3.264317 1_555
Mg1_4 Mg1_5 3.290048 1_554
Mg1_4 Mg1_5 3.290048 1_555
Mg1_4 Mg3_4 3.311353 1_555
Mg1_4 Mg3_5 3.311353 1_555
Mg1_4 Mg2_0 3.322248 1_555
Mg1_4 Mg2_1 3.322248 1_555
Mg1_4 Mg4_5 3.382163 1_555
Mg1_4 Mg4_4 3.382163 1_555
Mg1_4 Rb0_4 3.982510 1_555
Mg1_4 Rb0_0 4.034391 1_555
Mg1_5 Mg5_1 3.264317 1_555
Mg1_5 Mg5_0 3.264317 1_556
Mg1_5 Mg3_5 3.311353 1_555
Mg1_5 Mg3_4 3.311353 1_556
Mg1_5 Mg2_0 3.322248 1_556
Mg1_5 Mg2_1 3.322248 1_555
Mg1_5 Mg4_5 3.382163 1_555
Mg1_5 Mg4_4 3.382163 1_556
Mg1_5 Rb0_5 3.982510 1_555
Mg1_5 Rb0_1 4.034391 1_555
Mg1_6 Mg5_2 3.264317 1_555
Mg1_6 Mg5_3 3.264317 1_555
Mg1_6 Mg1_7 3.290048 1_555
Mg1_6 Mg1_7 3.290048 1_554
Mg1_6 Mg3_6 3.311353 1_555
Mg1_6 Mg3_7 3.311353 1_555
Mg1_6 Mg2_3 3.322248 1_555
Mg1_6 Mg2_2 3.322248 1_555
Mg1_6 Mg4_7 3.382163 1_555
Mg1_6 Mg4_6 3.382163 1_555
Mg1_6 Rb0_6 3.982510 1_555
Mg1_6 Rb0_2 4.034391 1_555
Mg1_7 Mg5_2 3.264317 1_556
Mg1_7 Mg5_3 3.264317 1_555
Mg1_7 Mg3_6 3.311353 1_556
Mg1_7 Mg3_7 3.311353 1_555
Mg1_7 Mg2_2 3.322248 1_556
Mg1_7 Mg2_3 3.322248 1_555
Mg1_7 Mg4_7 3.382163 1_555
Mg1_7 Mg4_6 3.382163 1_556
Mg1_7 Rb0_7 3.982510 1_555
Mg1_7 Rb0_3 4.034391 1_555
Mg2_0 V0_4 2.838364 1_555
Mg2_0 V0_5 2.838364 1_554
Mg2_0 Rb0_0 3.744074 1_555
Mg2_0 Rb0_1 3.744074 1_554
Mg2_1 V0_4 2.838364 1_555
Mg2_1 V0_5 2.838364 1_555
Mg2_1 Rb0_1 3.744074 1_555
Mg2_1 Rb0_0 3.744074 1_555
Mg2_2 V0_6 2.838364 1_555
Mg2_2 V0_7 2.838364 1_554
Mg2_2 Rb0_3 3.744074 1_554
Mg2_2 Rb0_2 3.744074 1_555
Mg2_3 V0_7 2.838364 1_555
Mg2_3 V0_6 2.838364 1_555
Mg2_3 Rb0_3 3.744074 1_555
Mg2_3 Rb0_2 3.744074 1_555
Mg2_4 V0_1 2.838364 1_654
Mg2_4 V0_0 2.838364 1_655
Mg2_4 Rb0_4 3.744074 1_555
Mg2_4 Rb0_5 3.744074 1_554
Mg2_5 V0_0 2.838364 1_655
Mg2_5 V0_1 2.838364 1_655
Mg2_5 Rb0_4 3.744074 1_555
Mg2_5 Rb0_5 3.744074 1_555
Mg2_6 V0_2 2.838364 1_655
Mg2_6 V0_3 2.838364 1_654
Mg2_6 Rb0_6 3.744074 1_555
Mg2_6 Rb0_7 3.744074 1_554
Mg2_7 V0_2 2.838364 1_655
Mg2_7 V0_3 2.838364 1_655
Mg2_7 Rb0_6 3.744074 1_555
Mg2_7 Rb0_7 3.744074 1_555
Mg3_0 V0_3 2.838364 1_554
Mg3_0 V0_2 2.838364 1_555
Mg3_0 Rb0_0 3.744074 1_555
Mg3_0 Rb0_1 3.744074 1_554
Mg3_1 V0_2 2.838364 1_555
Mg3_1 V0_3 2.838364 1_555
Mg3_1 Rb0_1 3.744074 1_555
Mg3_1 Rb0_0 3.744074 1_555
Mg3_2 V0_1 2.838364 1_564
Mg3_2 V0_0 2.838364 1_565
Mg3_2 Rb0_2 3.744074 1_555
Mg3_2 Rb0_3 3.744074 1_554
Mg3_3 V0_1 2.838364 1_565
Mg3_3 V0_0 2.838364 1_565
Mg3_3 Rb0_2 3.744074 1_555
Mg3_3 Rb0_3 3.744074 1_555
Mg3_4 V0_6 2.838364 1_555
Mg3_4 V0_7 2.838364 1_554
Mg3_4 Rb0_4 3.744074 1_555
Mg3_4 Rb0_5 3.744074 1_554
Mg3_5 V0_7 2.838364 1_555
Mg3_5 V0_6 2.838364 1_555
Mg3_5 Rb0_4 3.744074 1_555
Mg3_5 Rb0_5 3.744074 1_555
Mg3_6 V0_5 2.838364 1_564
Mg3_6 V0_4 2.838364 1_565
Mg3_6 Rb0_7 3.744074 1_554
Mg3_6 Rb0_6 3.744074 1_555
Mg3_7 V0_5 2.838364 1_565
Mg3_7 V0_4 2.838364 1_565
Mg3_7 Rb0_6 3.744074 1_555
Mg3_7 Rb0_7 3.744074 1_555
Mg4_0 V0_1 2.842501 1_554
Mg4_0 V0_0 2.842501 1_555
Mg4_0 Rb0_0 3.756851 1_555
Mg4_0 Rb0_1 3.756851 1_554
Mg4_1 V0_1 2.842501 1_555
Mg4_1 V0_0 2.842501 1_555
Mg4_1 Rb0_0 3.756851 1_555
Mg4_1 Rb0_1 3.756851 1_555
Mg4_2 V0_2 2.842501 1_555
Mg4_2 V0_3 2.842501 1_554
Mg4_2 Rb0_3 3.756851 1_554
Mg4_2 Rb0_2 3.756851 1_555
Mg4_3 V0_3 2.842501 1_555
Mg4_3 V0_2 2.842501 1_555
Mg4_3 Rb0_2 3.756851 1_555
Mg4_3 Rb0_3 3.756851 1_555
Mg4_4 V0_4 2.842501 1_555
Mg4_4 V0_5 2.842501 1_554
Mg4_4 Rb0_5 3.756851 1_554
Mg4_4 Rb0_4 3.756851 1_555
Mg4_5 V0_4 2.842501 1_555
Mg4_5 V0_5 2.842501 1_555
Mg4_5 Rb0_4 3.756851 1_555
Mg4_5 Rb0_5 3.756851 1_555
Mg4_6 V0_7 2.842501 1_554
Mg4_6 V0_6 2.842501 1_555
Mg4_6 Rb0_6 3.756851 1_555
Mg4_6 Rb0_7 3.756851 1_554
Mg4_7 V0_7 2.842501 1_555
Mg4_7 V0_6 2.842501 1_555
Mg4_7 Rb0_6 3.756851 1_555
Mg4_7 Rb0_7 3.756851 1_555
Mg5_0 V0_7 2.806341 1_554
Mg5_0 V0_6 2.806341 1_555
Mg5_0 Rb0_0 3.737010 1_555
Mg5_0 Rb0_1 3.737010 1_554
Mg5_1 V0_7 2.806341 1_555
Mg5_1 V0_6 2.806341 1_555
Mg5_1 Rb0_0 3.737010 1_555
Mg5_1 Rb0_1 3.737010 1_555
Mg5_2 V0_5 2.806341 1_564
Mg5_2 V0_4 2.806341 1_565
Mg5_2 Rb0_3 3.737010 1_554
Mg5_2 Rb0_2 3.737010 1_555
Mg5_3 V0_4 2.806341 1_565
Mg5_3 V0_5 2.806341 1_565
Mg5_3 Rb0_2 3.737010 1_555
Mg5_3 Rb0_3 3.737010 1_555
Mg5_4 V0_3 2.806341 1_654
Mg5_4 V0_2 2.806341 1_655
Mg5_4 Rb0_5 3.737010 1_554
Mg5_4 Rb0_4 3.737010 1_555
Mg5_5 V0_2 2.806341 1_655
Mg5_5 V0_3 2.806341 1_655
Mg5_5 Rb0_5 3.737010 1_555
Mg5_5 Rb0_4 3.737010 1_555
Mg5_6 V0_0 2.806341 1_665
Mg5_6 V0_1 2.806341 1_664
Mg5_6 Rb0_7 3.737010 1_554
Mg5_6 Rb0_6 3.737010 1_555
Mg5_7 V0_0 2.806341 1_665
Mg5_7 V0_1 2.806341 1_665
Mg5_7 Rb0_6 3.737010 1_555
Mg5_7 Rb0_7 3.737010 1_555
