# generated using pymatgen
data_NaLa
_symmetry_space_group_name_H-M   'P 1'
_cell_length_a   7.21250154
_cell_length_b   7.21250154
_cell_length_c   12.96756400
_cell_angle_alpha   90.00000000
_cell_angle_beta   90.00000000
_cell_angle_gamma   120.00001410
_symmetry_Int_Tables_number   1
_chemical_formula_structural   NaLa
_chemical_formula_sum   'Na8 La8'
_cell_volume   584.19899771
_cell_formula_units_Z   8
loop_
 _symmetry_equiv_pos_site_id
 _symmetry_equiv_pos_as_xyz
  1  'x, y, z'
loop_
 _atom_site_type_symbol
 _atom_site_label
 _atom_site_symmetry_multiplicity
 _atom_site_fract_x
 _atom_site_fract_y
 _atom_site_fract_z
 _atom_site_occupancy
  Na  Na0_0  1  0.16666650  0.33333350  0.00000000  1
  Na  Na0_1  1  0.16666650  0.33333350  0.50000000  1
  Na  Na0_2  1  0.16666650  0.83333350  0.00000000  1
  Na  Na0_3  1  0.16666650  0.83333350  0.50000000  1
  Na  Na0_4  1  0.66666650  0.33333350  0.00000000  1
  Na  Na0_5  1  0.66666650  0.33333350  0.50000000  1
  Na  Na0_6  1  0.66666650  0.83333350  0.00000000  1
  Na  Na0_7  1  0.66666650  0.83333350  0.50000000  1
  La  La0_0  1  0.33333350  0.16666650  0.25000000  1
  La  La0_1  1  0.33333350  0.16666650  0.75000000  1
  La  La0_2  1  0.33333350  0.66666650  0.25000000  1
  La  La0_3  1  0.33333350  0.66666650  0.75000000  1
  La  La0_4  1  0.83333350  0.16666650  0.25000000  1
  La  La0_5  1  0.83333350  0.16666650  0.75000000  1
  La  La0_6  1  0.83333350  0.66666650  0.25000000  1
  La  La0_7  1  0.83333350  0.66666650  0.75000000  1
loop_
_geom_bond_atom_site_label_1
_geom_bond_atom_site_label_2
_geom_bond_distance
_geom_bond_site_symmetry_2
Na0_0 Na0_6 3.606250 1_445
Na0_0 Na0_6 3.606250 1_555
Na0_0 Na0_4 3.606251 1_555
Na0_0 Na0_2 3.606251 1_555
Na0_0 Na0_4 3.606251 1_455
Na0_0 Na0_2 3.606251 1_545
Na0_1 Na0_7 3.606250 1_445
Na0_1 Na0_7 3.606250 1_555
Na0_1 Na0_5 3.606251 1_555
Na0_1 Na0_3 3.606251 1_555
Na0_1 Na0_3 3.606251 1_545
Na0_1 Na0_5 3.606251 1_455
Na0_2 Na0_4 3.606250 1_565
Na0_2 Na0_4 3.606250 1_455
Na0_2 Na0_6 3.606251 1_455
Na0_2 Na0_6 3.606251 1_555
Na0_3 Na0_5 3.606250 1_565
Na0_3 Na0_5 3.606250 1_455
Na0_3 Na0_7 3.606251 1_455
Na0_3 Na0_7 3.606251 1_555
Na0_4 Na0_6 3.606251 1_555
Na0_4 Na0_6 3.606251 1_545
Na0_5 Na0_7 3.606251 1_555
Na0_5 Na0_7 3.606251 1_545
La0_0 La0_6 3.606250 1_445
La0_0 La0_6 3.606250 1_555
La0_0 La0_2 3.606251 1_555
La0_0 La0_4 3.606251 1_555
La0_0 La0_2 3.606251 1_545
La0_0 La0_4 3.606251 1_455
La0_0 Na0_5 3.852903 1_555
La0_0 Na0_4 3.852903 1_555
La0_0 Na0_2 3.852903 1_545
La0_0 Na0_3 3.852903 1_545
La0_0 Na0_1 3.852907 1_555
La0_0 Na0_0 3.852907 1_555
La0_1 La0_7 3.606250 1_445
La0_1 La0_7 3.606250 1_555
La0_1 La0_5 3.606251 1_555
La0_1 La0_3 3.606251 1_555
La0_1 La0_5 3.606251 1_455
La0_1 La0_3 3.606251 1_545
La0_1 Na0_4 3.852903 1_556
La0_1 Na0_2 3.852903 1_546
La0_1 Na0_5 3.852903 1_555
La0_1 Na0_3 3.852903 1_545
La0_1 Na0_0 3.852907 1_556
La0_1 Na0_1 3.852907 1_555
La0_2 La0_4 3.606250 1_455
La0_2 La0_4 3.606250 1_565
La0_2 La0_6 3.606251 1_555
La0_2 La0_6 3.606251 1_455
La0_2 Na0_0 3.852903 1_555
La0_2 Na0_1 3.852903 1_555
La0_2 Na0_7 3.852903 1_555
La0_2 Na0_6 3.852903 1_555
La0_2 Na0_2 3.852907 1_555
La0_2 Na0_3 3.852907 1_555
La0_3 La0_5 3.606250 1_455
La0_3 La0_5 3.606250 1_565
La0_3 La0_7 3.606251 1_555
La0_3 La0_7 3.606251 1_455
La0_3 Na0_0 3.852903 1_556
La0_3 Na0_6 3.852903 1_556
La0_3 Na0_1 3.852903 1_555
La0_3 Na0_7 3.852903 1_555
La0_3 Na0_2 3.852907 1_556
La0_3 Na0_3 3.852907 1_555
La0_4 La0_6 3.606251 1_545
La0_4 La0_6 3.606251 1_555
La0_4 Na0_7 3.852903 1_545
La0_4 Na0_6 3.852903 1_545
La0_4 Na0_0 3.852903 1_655
La0_4 Na0_1 3.852903 1_655
La0_4 Na0_4 3.852907 1_555
La0_4 Na0_5 3.852907 1_555
La0_5 La0_7 3.606251 1_545
La0_5 La0_7 3.606251 1_555
La0_5 Na0_0 3.852903 1_656
La0_5 Na0_6 3.852903 1_546
La0_5 Na0_7 3.852903 1_545
La0_5 Na0_1 3.852903 1_655
La0_5 Na0_4 3.852907 1_556
La0_5 Na0_5 3.852907 1_555
La0_6 Na0_2 3.852903 1_655
La0_6 Na0_3 3.852903 1_655
La0_6 Na0_4 3.852903 1_555
La0_6 Na0_5 3.852903 1_555
La0_6 Na0_6 3.852907 1_555
La0_6 Na0_7 3.852907 1_555
La0_7 Na0_2 3.852903 1_656
La0_7 Na0_4 3.852903 1_556
La0_7 Na0_3 3.852903 1_655
La0_7 Na0_5 3.852903 1_555
La0_7 Na0_6 3.852907 1_556
La0_7 Na0_7 3.852907 1_555
