# generated using pymatgen
data_V6SiC
_symmetry_space_group_name_H-M   'P 1'
_cell_length_a   4.57452200
_cell_length_b   4.57452200
_cell_length_c   4.57452200
_cell_angle_alpha   90.00000000
_cell_angle_beta   90.00000000
_cell_angle_gamma   90.00000000
_symmetry_Int_Tables_number   1
_chemical_formula_structural   V6SiC
_chemical_formula_sum   'V6 Si1 C1'
_cell_volume   95.72759799
_cell_formula_units_Z   1
loop_
 _symmetry_equiv_pos_site_id
 _symmetry_equiv_pos_as_xyz
  1  'x, y, z'
loop_
 _atom_site_type_symbol
 _atom_site_label
 _atom_site_symmetry_multiplicity
 _atom_site_fract_x
 _atom_site_fract_y
 _atom_site_fract_z
 _atom_site_occupancy
  V  V0  1  0.00000000  0.50000000  0.74277300  1
  V  V1  1  0.50000000  0.25722700  0.00000000  1
  V  V2  1  0.74277300  0.00000000  0.50000000  1
  V  V3  1  0.00000000  0.50000000  0.25722700  1
  V  V4  1  0.50000000  0.74277300  0.00000000  1
  V  V5  1  0.25722700  0.00000000  0.50000000  1
  Si  Si0  1  0.00000000  0.00000000  0.00000000  1
  C  C0  1  0.50000000  0.50000000  0.50000000  1
loop_
_geom_bond_atom_site_label_1
_geom_bond_atom_site_label_2
_geom_bond_distance
_geom_bond_site_symmetry_2
V0 V3 2.221141 1_555
V0 V3 2.353381 1_556
V1 V4 2.221141 1_555
V1 V4 2.353381 1_545
V2 V5 2.221141 1_555
V2 V5 2.353381 1_655
Si0 V5 2.572190 1_554
Si0 V3 2.572190 1_545
Si0 V0 2.572190 1_544
Si0 V2 2.572190 1_455
Si0 V4 2.572190 1_545
Si0 V3 2.572190 1_555
Si0 V0 2.572190 1_554
Si0 V4 2.572190 1_445
Si0 V1 2.572190 1_555
Si0 V5 2.572190 1_555
Si0 V1 2.572190 1_455
Si0 V2 2.572190 1_454
C0 V2 2.542623 1_555
C0 V3 2.542623 1_655
C0 V0 2.542623 1_555
C0 V4 2.542623 1_556
C0 V3 2.542623 1_555
C0 V2 2.542623 1_565
C0 V4 2.542623 1_555
C0 V1 2.542623 1_555
C0 V5 2.542623 1_555
C0 V5 2.542623 1_565
C0 V1 2.542623 1_556
C0 V0 2.542623 1_655
