# generated using pymatgen
data_BaSr7(FeO3)8
_symmetry_space_group_name_H-M   'P 1'
_cell_length_a   7.86423400
_cell_length_b   7.86423400
_cell_length_c   7.86423400
_cell_angle_alpha   90.00000000
_cell_angle_beta   90.00000000
_cell_angle_gamma   90.00000000
_symmetry_Int_Tables_number   1
_chemical_formula_structural   BaSr7(FeO3)8
_chemical_formula_sum   'Ba1 Sr7 Fe8 O24'
_cell_volume   486.37280327
_cell_formula_units_Z   1
loop_
 _symmetry_equiv_pos_site_id
 _symmetry_equiv_pos_as_xyz
  1  'x, y, z'
loop_
 _atom_site_type_symbol
 _atom_site_label
 _atom_site_symmetry_multiplicity
 _atom_site_fract_x
 _atom_site_fract_y
 _atom_site_fract_z
 _atom_site_occupancy
  Ba  Ba0  1  0.50000000  0.50000000  0.50000000  1
  Sr  Sr0  1  0.50000000  0.00000000  0.50000000  1
  Sr  Sr1  1  0.50000000  0.00000000  0.00000000  1
  Sr  Sr2  1  0.50000000  0.50000000  0.00000000  1
  Sr  Sr3  1  0.00000000  0.00000000  0.50000000  1
  Sr  Sr4  1  0.00000000  0.00000000  0.00000000  1
  Sr  Sr5  1  0.00000000  0.50000000  0.50000000  1
  Sr  Sr6  1  0.00000000  0.50000000  0.00000000  1
  Fe  Fe0  1  0.24887100  0.75112900  0.24887100  1
  Fe  Fe1  1  0.24887100  0.75112900  0.75112900  1
  Fe  Fe2  1  0.24887100  0.24887100  0.24887100  1
  Fe  Fe3  1  0.24887100  0.24887100  0.75112900  1
  Fe  Fe4  1  0.75112900  0.75112900  0.24887100  1
  Fe  Fe5  1  0.75112900  0.75112900  0.75112900  1
  Fe  Fe6  1  0.75112900  0.24887100  0.24887100  1
  Fe  Fe7  1  0.75112900  0.24887100  0.75112900  1
  O  O0  1  0.50000000  0.75452000  0.24548000  1
  O  O1  1  0.50000000  0.75452000  0.75452000  1
  O  O2  1  0.50000000  0.24548000  0.24548000  1
  O  O3  1  0.50000000  0.24548000  0.75452000  1
  O  O4  1  0.00000000  0.75098600  0.24901400  1
  O  O5  1  0.00000000  0.75098600  0.75098600  1
  O  O6  1  0.00000000  0.24901400  0.24901400  1
  O  O7  1  0.00000000  0.24901400  0.75098600  1
  O  O8  1  0.24901400  0.00000000  0.24901400  1
  O  O9  1  0.24901400  0.00000000  0.75098600  1
  O  O10  1  0.24548000  0.50000000  0.24548000  1
  O  O11  1  0.24548000  0.50000000  0.75452000  1
  O  O12  1  0.75098600  0.00000000  0.24901400  1
  O  O13  1  0.75098600  0.00000000  0.75098600  1
  O  O14  1  0.75452000  0.50000000  0.24548000  1
  O  O15  1  0.75452000  0.50000000  0.75452000  1
  O  O16  1  0.24548000  0.75452000  0.50000000  1
  O  O17  1  0.24901400  0.75098600  0.00000000  1
  O  O18  1  0.24548000  0.24548000  0.50000000  1
  O  O19  1  0.24901400  0.24901400  0.00000000  1
  O  O20  1  0.75452000  0.75452000  0.50000000  1
  O  O21  1  0.75098600  0.75098600  0.00000000  1
  O  O22  1  0.75452000  0.24548000  0.50000000  1
  O  O23  1  0.75098600  0.24901400  0.00000000  1
loop_
_geom_bond_atom_site_label_1
_geom_bond_atom_site_label_2
_geom_bond_distance
_geom_bond_site_symmetry_2
Ba0 O11 2.830697 1_555
Ba0 O1 2.830697 1_555
Ba0 O14 2.830697 1_555
Ba0 O18 2.830697 1_555
Ba0 O15 2.830697 1_555
Ba0 O22 2.830697 1_555
Ba0 O0 2.830697 1_555
Ba0 O16 2.830697 1_555
Ba0 O10 2.830697 1_555
Ba0 O20 2.830697 1_555
Ba0 O2 2.830697 1_555
Ba0 O3 2.830697 1_555
Fe0 O8 1.957180 1_565
Fe0 O4 1.957180 1_555
Fe0 O17 1.957180 1_555
Fe0 O0 1.975297 1_555
Fe0 O16 1.975297 1_555
Fe0 O10 1.975297 1_555
Fe1 O9 1.957180 1_565
Fe1 O17 1.957180 1_556
Fe1 O5 1.957180 1_555
Fe1 O1 1.975297 1_555
Fe1 O11 1.975297 1_555
Fe1 O16 1.975297 1_555
Fe2 O8 1.957180 1_555
Fe2 O6 1.957180 1_555
Fe2 O19 1.957180 1_555
Fe2 O10 1.975297 1_555
Fe2 O2 1.975297 1_555
Fe2 O18 1.975297 1_555
Fe3 O19 1.957180 1_556
Fe3 O7 1.957180 1_555
Fe3 O9 1.957180 1_555
Fe3 O3 1.975297 1_555
Fe3 O11 1.975297 1_555
Fe3 O18 1.975297 1_555
Fe4 O12 1.957180 1_565
Fe4 O4 1.957180 1_655
Fe4 O21 1.957180 1_555
Fe4 O20 1.975297 1_555
Fe4 O14 1.975297 1_555
Fe4 O0 1.975297 1_555
Fe5 O5 1.957180 1_655
Fe5 O13 1.957180 1_565
Fe5 O21 1.957180 1_556
Fe5 O15 1.975297 1_555
Fe5 O20 1.975297 1_555
Fe5 O1 1.975297 1_555
Fe6 O6 1.957180 1_655
Fe6 O23 1.957180 1_555
Fe6 O12 1.957180 1_555
Fe6 O22 1.975297 1_555
Fe6 O14 1.975297 1_555
Fe6 O2 1.975297 1_555
Fe7 O7 1.957180 1_655
Fe7 O23 1.957180 1_556
Fe7 O13 1.957180 1_555
Fe7 O15 1.975297 1_555
Fe7 O22 1.975297 1_555
Fe7 O3 1.975297 1_555
O0 Sr1 2.730156 1_565
O0 Sr2 2.780881 1_555
O0 Sr0 2.780881 1_565
O1 Sr1 2.730156 1_566
O1 Sr2 2.780881 1_556
O1 Sr0 2.780881 1_565
O2 Sr1 2.730156 1_555
O2 Sr2 2.780881 1_555
O2 Sr0 2.780881 1_555
O3 Sr1 2.730156 1_556
O3 Sr2 2.780881 1_556
O3 Sr0 2.780881 1_555
O4 Sr4 2.769461 1_565
O4 Sr3 2.780448 1_565
O4 Sr6 2.780448 1_555
O4 Sr5 2.791393 1_555
O5 Sr4 2.769461 1_566
O5 Sr6 2.780448 1_556
O5 Sr3 2.780448 1_565
O5 Sr5 2.791393 1_555
O6 Sr4 2.769461 1_555
O6 Sr3 2.780448 1_555
O6 Sr6 2.780448 1_555
O6 Sr5 2.791393 1_555
O7 Sr4 2.769461 1_556
O7 Sr6 2.780448 1_556
O7 Sr3 2.780448 1_555
O7 Sr5 2.791393 1_555
O8 Sr4 2.769461 1_555
O8 Sr3 2.780448 1_555
O8 Sr1 2.780448 1_555
O8 Sr0 2.791393 1_555
O9 Sr4 2.769461 1_556
O9 Sr1 2.780448 1_556
O9 Sr3 2.780448 1_555
O9 Sr0 2.791393 1_555
O10 Sr6 2.730156 1_555
O10 Sr2 2.780881 1_555
O10 Sr5 2.780881 1_555
O11 Sr6 2.730156 1_556
O11 Sr5 2.780881 1_555
O11 Sr2 2.780881 1_556
O12 Sr4 2.769461 1_655
O12 Sr3 2.780448 1_655
O12 Sr1 2.780448 1_555
O12 Sr0 2.791393 1_555
O13 Sr4 2.769461 1_656
O13 Sr3 2.780448 1_655
O13 Sr1 2.780448 1_556
O13 Sr0 2.791393 1_555
O14 Sr6 2.730156 1_655
O14 Sr2 2.780881 1_555
O14 Sr5 2.780881 1_655
O15 Sr6 2.730156 1_656
O15 Sr2 2.780881 1_556
O15 Sr5 2.780881 1_655
O16 Sr3 2.730156 1_565
O16 Sr5 2.780881 1_555
O16 Sr0 2.780881 1_565
O17 Sr4 2.769461 1_565
O17 Sr1 2.780448 1_565
O17 Sr6 2.780448 1_555
O17 Sr2 2.791393 1_555
O18 Sr3 2.730156 1_555
O18 Sr0 2.780881 1_555
O18 Sr5 2.780881 1_555
O19 Sr4 2.769461 1_555
O19 Sr6 2.780448 1_555
O19 Sr1 2.780448 1_555
O19 Sr2 2.791393 1_555
O20 Sr3 2.730156 1_665
O20 Sr5 2.780881 1_655
O20 Sr0 2.780881 1_565
O21 Sr4 2.769461 1_665
O21 Sr1 2.780448 1_565
O21 Sr6 2.780448 1_655
O21 Sr2 2.791393 1_555
O22 Sr3 2.730156 1_655
O22 Sr0 2.780881 1_555
O22 Sr5 2.780881 1_655
O23 Sr4 2.769461 1_655
O23 Sr6 2.780448 1_655
O23 Sr1 2.780448 1_555
O23 Sr2 2.791393 1_555
