# generated using pymatgen
data_MgMn12Zn6O24
_symmetry_space_group_name_H-M   'P 1'
_cell_length_a   6.18604234
_cell_length_b   6.31583482
_cell_length_c   17.74720725
_cell_angle_alpha   62.49292695
_cell_angle_beta   60.84191241
_cell_angle_gamma   57.27141602
_symmetry_Int_Tables_number   1
_chemical_formula_structural   MgMn12Zn6O24
_chemical_formula_sum   'Mg1 Mn12 Zn6 O24'
_cell_volume   490.45111679
_cell_formula_units_Z   1
loop_
 _symmetry_equiv_pos_site_id
 _symmetry_equiv_pos_as_xyz
  1  'x, y, z'
loop_
 _atom_site_type_symbol
 _atom_site_label
 _atom_site_symmetry_multiplicity
 _atom_site_fract_x
 _atom_site_fract_y
 _atom_site_fract_z
 _atom_site_occupancy
  Mg  Mg0  1  0.01113600  0.48493400  0.99885400  1
  Mn  Mn0  1  0.51238600  0.45064200  0.17354500  1
  Mn  Mn1  1  0.50519700  0.95851700  0.16759300  1
  Mn  Mn2  1  0.50657100  0.50457900  0.49936600  1
  Mn  Mn3  1  0.00949600  0.45443400  0.17391900  1
  Mn  Mn4  1  0.50855600  0.00809000  0.50040300  1
  Mn  Mn5  1  0.49199500  0.51421400  0.66375000  1
  Mn  Mn6  1  0.87457000  0.85946200  0.29290900  1
  Mn  Mn7  1  0.48022200  0.54978900  0.82423000  1
  Mn  Mn8  1  0.00796000  0.50610900  0.50090800  1
  Mn  Mn9  1  0.47965900  0.03050900  0.83428900  1
  Mn  Mn10  1  0.98308400  0.53695300  0.82513000  1
  Mn  Mn11  1  0.80612300  0.98766000  0.95119700  1
  Zn  Zn0  1  0.13607900  0.00853200  0.07230500  1
  Zn  Zn1  1  0.13724000  0.10620100  0.38156700  1
  Zn  Zn2  1  0.50118600  0.49212700  0.33698000  1
  Zn  Zn3  1  0.11001100  0.14417600  0.70756700  1
  Zn  Zn4  1  0.49772900  0.52206900  0.99487600  1
  Zn  Zn5  1  0.86529800  0.90149700  0.62079600  1
  O  O0  1  0.25873400  0.22308000  0.08876400  1
  O  O1  1  0.30084500  0.19090000  0.24445000  1
  O  O2  1  0.25646600  0.64438800  0.10348400  1
  O  O3  1  0.76469100  0.27000800  0.07581300  1
  O  O4  1  0.26719500  0.25260400  0.42523100  1
  O  O5  1  0.29153200  0.70189300  0.24317100  1
  O  O6  1  0.25247500  0.25805100  0.57560700  1
  O  O7  1  0.77061300  0.26587200  0.23892600  1
  O  O8  1  0.74575500  0.74092100  0.08057800  1
  O  O9  1  0.27161600  0.71858300  0.42586500  1
  O  O10  1  0.73425500  0.26503800  0.42345800  1
  O  O11  1  0.75448500  0.72153000  0.23858000  1
  O  O12  1  0.23623500  0.27300900  0.75950900  1
  O  O13  1  0.27514300  0.73216100  0.58391700  1
  O  O14  1  0.72803500  0.29418200  0.58136600  1
  O  O15  1  0.25499900  0.24012800  0.91947000  1
  O  O16  1  0.75383300  0.74657700  0.43004200  1
  O  O17  1  0.23122600  0.73090400  0.75393400  1
  O  O18  1  0.70094500  0.30074300  0.74985700  1
  O  O19  1  0.73810700  0.75244000  0.57919600  1
  O  O20  1  0.22205900  0.72736200  0.92010400  1
  O  O21  1  0.73299400  0.35906400  0.89221100  1
  O  O22  1  0.69196400  0.80646600  0.75498000  1
  O  O23  1  0.73713300  0.76360000  0.90916000  1
loop_
_geom_bond_atom_site_label_1
_geom_bond_atom_site_label_2
_geom_bond_distance
_geom_bond_site_symmetry_2
Mg0 O15 2.017464 1_555
Mg0 O8 2.094857 1_456
Mg0 O20 2.099222 1_555
Mg0 O3 2.128004 1_456
Mg0 O0 2.198186 1_556
Mg0 O23 2.306510 1_455
Mn0 O5 1.932216 1_555
Mn0 O7 1.949239 1_555
Mn0 O2 1.991890 1_555
Mn0 O3 2.002607 1_555
Mn0 O1 2.190198 1_555
Mn0 O8 2.431927 1_555
Mn1 O1 1.943043 1_565
Mn1 O11 1.964940 1_555
Mn1 O8 1.999404 1_555
Mn1 O0 2.058668 1_565
Mn1 O5 2.180336 1_555
Mn1 O3 2.647124 1_565
Mn2 O9 1.932753 1_555
Mn2 O10 1.953722 1_555
Mn2 O14 1.987058 1_555
Mn2 O13 2.010248 1_555
Mn2 O16 2.268596 1_555
Mn2 O6 2.313821 1_555
Mn3 O11 1.948785 1_455
Mn3 O7 1.976255 1_455
Mn3 O2 2.017841 1_555
Mn3 O0 2.032083 1_555
Mn3 O1 2.148379 1_555
Mn3 O8 2.313584 1_455
Mn4 O16 1.984568 1_545
Mn4 O4 1.984586 1_555
Mn4 O19 1.987200 1_545
Mn4 O6 1.991214 1_555
Mn4 O10 2.234470 1_555
Mn4 O13 2.359731 1_545
Mn5 O13 1.937908 1_555
Mn5 O14 1.950216 1_555
Mn5 O18 1.990218 1_555
Mn5 O17 2.038897 1_555
Mn5 O19 2.235773 1_555
Mn5 O12 2.303655 1_555
Mn6 O16 2.047178 1_555
Mn6 O5 2.059064 1_655
Mn6 O11 2.100949 1_555
Mn6 O7 2.112788 1_565
Mn7 O21 1.952116 1_555
Mn7 O20 1.970138 1_555
Mn7 O17 1.971417 1_555
Mn7 O18 1.979870 1_555
Mn7 O22 2.177445 1_555
Mn7 O15 2.494239 1_555
Mn8 O16 1.984985 1_455
Mn8 O6 1.993213 1_555
Mn8 O4 2.012506 1_555
Mn8 O19 2.016396 1_455
Mn8 O9 2.198596 1_555
Mn8 O14 2.271657 1_455
Mn9 O22 1.933168 1_545
Mn9 O15 1.944593 1_555
Mn9 O12 1.987590 1_555
Mn9 O23 2.057683 1_545
Mn9 O18 2.279775 1_555
Mn9 O20 2.601022 1_545
Mn10 O12 1.944458 1_655
Mn10 O21 1.980474 1_555
Mn10 O23 1.998452 1_555
Mn10 O17 2.041296 1_655
Mn10 O22 2.145476 1_555
Mn10 O15 2.362668 1_655
Mn11 O21 1.961807 1_565
Mn11 O8 2.080555 1_556
Mn11 O20 2.123207 1_655
Mn11 O23 2.163285 1_555
O0 Zn0 2.047076 1_555
O0 Zn4 2.497997 1_554
O1 Zn1 2.053096 1_555
O2 Zn0 1.877282 1_565
O2 Zn4 1.965967 1_554
O3 Zn0 1.965270 1_655
O3 Zn4 2.163626 1_554
O4 Zn1 2.043146 1_555
O4 Zn2 2.192445 1_555
O5 Zn2 2.101807 1_555
O6 Zn3 1.974057 1_555
O7 Zn2 2.177966 1_555
O9 Zn1 1.990191 1_565
O9 Zn2 2.062907 1_555
O10 Zn1 1.988047 1_655
O10 Zn2 2.092393 1_555
O11 Zn2 2.248420 1_555
O12 Zn3 2.050075 1_555
O13 Zn5 2.024265 1_455
O14 Zn5 2.015052 1_545
O15 Zn0 2.364778 1_556
O17 Zn3 2.133825 1_565
O18 Zn3 2.018328 1_655
O19 Zn5 2.014798 1_555
O20 Zn4 2.138929 1_555
O21 Zn4 2.006574 1_555
O22 Zn5 2.017033 1_555
O23 Zn4 2.222264 1_555
