# generated using pymatgen
data_CeHfO4
_symmetry_space_group_name_H-M   'P 1'
_cell_length_a   10.55553525
_cell_length_b   10.55553525
_cell_length_c   10.55553525
_cell_angle_alpha   90.00000000
_cell_angle_beta   90.00000000
_cell_angle_gamma   90.00000000
_symmetry_Int_Tables_number   1
_chemical_formula_structural   CeHfO4
_chemical_formula_sum   'Ce16 Hf16 O64'
_cell_volume   1176.09060638
_cell_formula_units_Z   16
loop_
 _symmetry_equiv_pos_site_id
 _symmetry_equiv_pos_as_xyz
  1  'x, y, z'
loop_
 _atom_site_type_symbol
 _atom_site_label
 _atom_site_symmetry_multiplicity
 _atom_site_fract_x
 _atom_site_fract_y
 _atom_site_fract_z
 _atom_site_occupancy
  Ce  Ce0  1  0.12401032  0.37513055  0.37412260  1
  Ce  Ce1  1  0.12587740  0.87598968  0.87513055  1
  Ce  Ce2  1  0.12486945  0.62587740  0.62401032  1
  Ce  Ce3  1  0.12518340  0.12518340  0.12518340  1
  Ce  Ce4  1  0.37481660  0.87481660  0.62518340  1
  Ce  Ce5  1  0.37513055  0.37412260  0.12401032  1
  Ce  Ce6  1  0.37412260  0.12401032  0.37513055  1
  Ce  Ce7  1  0.37598968  0.62486945  0.87412260  1
  Ce  Ce8  1  0.62401032  0.12486945  0.62587740  1
  Ce  Ce9  1  0.62587740  0.62401032  0.12486945  1
  Ce  Ce10  1  0.62486945  0.87412260  0.37598968  1
  Ce  Ce11  1  0.62518340  0.37481660  0.87481660  1
  Ce  Ce12  1  0.87481660  0.62518340  0.37481660  1
  Ce  Ce13  1  0.87513055  0.12587740  0.87598968  1
  Ce  Ce14  1  0.87412260  0.37598968  0.62486945  1
  Ce  Ce15  1  0.87598968  0.87513055  0.12587740  1
  Hf  Hf0  1  0.12445442  0.62317510  0.12225381  1
  Hf  Hf1  1  0.12225381  0.12445442  0.62317510  1
  Hf  Hf2  1  0.13068421  0.86931579  0.36931579  1
  Hf  Hf3  1  0.12317510  0.37774619  0.87554558  1
  Hf  Hf4  1  0.37682490  0.62225381  0.37554558  1
  Hf  Hf5  1  0.36931579  0.13068421  0.86931579  1
  Hf  Hf6  1  0.37774619  0.87554558  0.12317510  1
  Hf  Hf7  1  0.37554558  0.37682490  0.62225381  1
  Hf  Hf8  1  0.62445442  0.87682490  0.87774619  1
  Hf  Hf9  1  0.62225381  0.37554558  0.37682490  1
  Hf  Hf10  1  0.63068421  0.63068421  0.63068421  1
  Hf  Hf11  1  0.62317510  0.12225381  0.12445442  1
  Hf  Hf12  1  0.87682490  0.87774619  0.62445442  1
  Hf  Hf13  1  0.86931579  0.36931579  0.13068421  1
  Hf  Hf14  1  0.87774619  0.62445442  0.87682490  1
  Hf  Hf15  1  0.87554558  0.12317510  0.37774619  1
  O  O0  1  0.01092905  0.74623025  0.24862168  1
  O  O1  1  0.00139668  0.99655409  0.26408340  1
  O  O2  1  0.00096038  0.74131630  0.99998602  1
  O  O3  1  0.99490597  0.00509403  0.50509403  1
  O  O4  1  0.00122375  0.00122375  0.00122375  1
  O  O5  1  0.99998602  0.00096038  0.74131630  1
  O  O6  1  0.00344591  0.76408340  0.49860332  1
  O  O7  1  0.01237813  0.25108501  0.75006019  1
  O  O8  1  0.24891499  0.24993981  0.51237813  1
  O  O9  1  0.24993981  0.51237813  0.24891499  1
  O  O10  1  0.25184954  0.24815046  0.75184954  1
  O  O11  1  0.24862168  0.01092905  0.74623025  1
  O  O12  1  0.23591660  0.99860332  0.49655409  1
  O  O13  1  0.24131630  0.50001398  0.99903962  1
  O  O14  1  0.25376975  0.74862168  0.48907095  1
  O  O15  1  0.24989984  0.74989984  0.75010016  1
  O  O16  1  0.25010016  0.25010016  0.25010016  1
  O  O17  1  0.24623025  0.25137832  0.98907095  1
  O  O18  1  0.25868370  0.49998602  0.49903962  1
  O  O19  1  0.26408340  0.00139668  0.99655409  1
  O  O20  1  0.25137832  0.98907095  0.24623025  1
  O  O21  1  0.24815046  0.75184954  0.25184954  1
  O  O22  1  0.25006019  0.48762187  0.74891499  1
  O  O23  1  0.25108501  0.75006019  0.01237813  1
  O  O24  1  0.48762187  0.74891499  0.25006019  1
  O  O25  1  0.49877625  0.99877625  0.50122375  1
  O  O26  1  0.50509403  0.99490597  0.00509403  1
  O  O27  1  0.50001398  0.99903962  0.24131630  1
  O  O28  1  0.49655409  0.23591660  0.99860332  1
  O  O29  1  0.49903962  0.25868370  0.49998602  1
  O  O30  1  0.48907095  0.25376975  0.74862168  1
  O  O31  1  0.49860332  0.00344591  0.76408340  1
  O  O32  1  0.50139668  0.50344591  0.73591660  1
  O  O33  1  0.51092905  0.75376975  0.75137832  1
  O  O34  1  0.50096038  0.75868370  0.00001398  1
  O  O35  1  0.49998602  0.49903962  0.25868370  1
  O  O36  1  0.49490597  0.49490597  0.49490597  1
  O  O37  1  0.50122375  0.49877625  0.99877625  1
  O  O38  1  0.50344591  0.73591660  0.50139668  1
  O  O39  1  0.51237813  0.24891499  0.24993981  1
  O  O40  1  0.74891499  0.25006019  0.48762187  1
  O  O41  1  0.74993981  0.98762187  0.75108501  1
  O  O42  1  0.75184954  0.25184954  0.24815046  1
  O  O43  1  0.74862168  0.48907095  0.25376975  1
  O  O44  1  0.73591660  0.50139668  0.50344591  1
  O  O45  1  0.74131630  0.99998602  0.00096038  1
  O  O46  1  0.75376975  0.75137832  0.51092905  1
  O  O47  1  0.74989984  0.75010016  0.24989984  1
  O  O48  1  0.75010016  0.24989984  0.74989984  1
  O  O49  1  0.74623025  0.24862168  0.01092905  1
  O  O50  1  0.75868370  0.00001398  0.50096038  1
  O  O51  1  0.76408340  0.49860332  0.00344591  1
  O  O52  1  0.75137832  0.51092905  0.75376975  1
  O  O53  1  0.74815046  0.74815046  0.74815046  1
  O  O54  1  0.75006019  0.01237813  0.25108501  1
  O  O55  1  0.75108501  0.74993981  0.98762187  1
  O  O56  1  0.98762187  0.75108501  0.74993981  1
  O  O57  1  0.99655409  0.26408340  0.00139668  1
  O  O58  1  0.00509403  0.50509403  0.99490597  1
  O  O59  1  0.00001398  0.50096038  0.75868370  1
  O  O60  1  0.99877625  0.50122375  0.49877625  1
  O  O61  1  0.99903962  0.24131630  0.50001398  1
  O  O62  1  0.98907095  0.24623025  0.25137832  1
  O  O63  1  0.99860332  0.49655409  0.23591660  1
loop_
_geom_bond_atom_site_label_1
_geom_bond_atom_site_label_2
_geom_bond_distance
_geom_bond_site_symmetry_2
Ce0 O16 2.286262 1_555
Ce0 O60 2.291344 1_455
Ce0 O18 2.344424 1_555
Ce0 O61 2.345433 1_455
Ce0 O63 2.350154 1_455
Ce0 O62 2.357694 1_455
Ce0 O9 2.369055 1_555
Ce0 O8 2.369441 1_555
Ce1 O15 2.286262 1_555
Ce1 O4 2.291344 1_566
Ce1 O2 2.344424 1_555
Ce1 O5 2.345433 1_465
Ce1 O19 2.350154 1_565
Ce1 O11 2.357694 1_565
Ce1 O23 2.369055 1_556
Ce1 O56 2.369441 1_455
Ce2 O15 2.286262 1_555
Ce2 O60 2.291344 1_455
Ce2 O59 2.344424 1_555
Ce2 O18 2.345433 1_555
Ce2 O6 2.350154 1_555
Ce2 O14 2.357694 1_555
Ce2 O56 2.369055 1_455
Ce2 O22 2.369441 1_555
Ce3 O4 2.266320 1_555
Ce3 O16 2.283819 1_555
Ce3 O62 2.339048 1_455
Ce3 O20 2.339048 1_545
Ce3 O17 2.339048 1_554
Ce3 O1 2.387555 1_545
Ce3 O57 2.387555 1_455
Ce3 O19 2.387555 1_554
Ce4 O25 2.266320 1_555
Ce4 O15 2.283819 1_555
Ce4 O14 2.339048 1_555
Ce4 O33 2.339048 1_555
Ce4 O11 2.339048 1_565
Ce4 O38 2.387555 1_555
Ce4 O31 2.387555 1_565
Ce4 O12 2.387555 1_555
Ce5 O16 2.286262 1_555
Ce5 O37 2.291344 1_554
Ce5 O35 2.344424 1_555
Ce5 O13 2.345433 1_554
Ce5 O28 2.350154 1_554
Ce5 O17 2.357694 1_554
Ce5 O39 2.369055 1_555
Ce5 O9 2.369441 1_555
Ce6 O16 2.286262 1_555
Ce6 O25 2.291344 1_545
Ce6 O29 2.344424 1_555
Ce6 O27 2.345433 1_545
Ce6 O12 2.350154 1_545
Ce6 O20 2.357694 1_545
Ce6 O8 2.369055 1_555
Ce6 O39 2.369441 1_555
Ce7 O15 2.286262 1_555
Ce7 O37 2.291344 1_555
Ce7 O13 2.344424 1_555
Ce7 O34 2.345433 1_556
Ce7 O32 2.350154 1_555
Ce7 O33 2.357694 1_555
Ce7 O22 2.369055 1_555
Ce7 O23 2.369441 1_556
Ce8 O48 2.286262 1_555
Ce8 O25 2.291344 1_545
Ce8 O50 2.344424 1_555
Ce8 O29 2.345433 1_555
Ce8 O31 2.350154 1_555
Ce8 O30 2.357694 1_555
Ce8 O41 2.369055 1_545
Ce8 O40 2.369441 1_555
Ce9 O47 2.286262 1_555
Ce9 O37 2.291344 1_554
Ce9 O34 2.344424 1_555
Ce9 O35 2.345433 1_555
Ce9 O51 2.350154 1_555
Ce9 O43 2.357694 1_555
Ce9 O55 2.369055 1_554
Ce9 O24 2.369441 1_555
Ce10 O47 2.286262 1_555
Ce10 O25 2.291344 1_555
Ce10 O27 2.344424 1_555
Ce10 O50 2.345433 1_565
Ce10 O38 2.350154 1_555
Ce10 O46 2.357694 1_555
Ce10 O24 2.369055 1_555
Ce10 O54 2.369441 1_565
Ce11 O37 2.266320 1_555
Ce11 O48 2.283819 1_555
Ce11 O30 2.339048 1_555
Ce11 O52 2.339048 1_555
Ce11 O49 2.339048 1_556
Ce11 O32 2.387555 1_555
Ce11 O51 2.387555 1_556
Ce11 O28 2.387555 1_555
Ce12 O60 2.266320 1_555
Ce12 O47 2.283819 1_555
Ce12 O43 2.339048 1_555
Ce12 O46 2.339048 1_555
Ce12 O0 2.339048 1_655
Ce12 O44 2.387555 1_555
Ce12 O6 2.387555 1_655
Ce12 O63 2.387555 1_555
Ce13 O48 2.286262 1_555
Ce13 O4 2.291344 1_656
Ce13 O5 2.344424 1_555
Ce13 O45 2.345433 1_546
Ce13 O57 2.350154 1_556
Ce13 O49 2.357694 1_556
Ce13 O7 2.369055 1_655
Ce13 O41 2.369441 1_545
Ce14 O48 2.286262 1_555
Ce14 O60 2.291344 1_555
Ce14 O61 2.344424 1_555
Ce14 O59 2.345433 1_655
Ce14 O44 2.350154 1_555
Ce14 O52 2.357694 1_555
Ce14 O40 2.369055 1_555
Ce14 O7 2.369441 1_655
Ce15 O47 2.286262 1_555
Ce15 O4 2.291344 1_665
Ce15 O45 2.344424 1_555
Ce15 O2 2.345433 1_654
Ce15 O1 2.350154 1_655
Ce15 O0 2.357694 1_655
Ce15 O54 2.369055 1_565
Ce15 O55 2.369441 1_554
Hf0 O0 2.214133 1_555
Hf0 O13 2.214326 1_554
Hf0 O9 2.215798 1_555
Hf0 O2 2.218108 1_554
Hf0 O23 2.219370 1_555
Hf0 O58 2.224377 1_554
Hf0 O63 2.233952 1_455
Hf0 O21 2.328276 1_555
Hf1 O11 2.214133 1_555
Hf1 O61 2.214326 1_455
Hf1 O8 2.215798 1_555
Hf1 O5 2.218108 1_455
Hf1 O7 2.219370 1_555
Hf1 O3 2.224377 1_455
Hf1 O12 2.233952 1_545
Hf1 O10 2.328276 1_555
Hf2 O21 2.147603 1_555
Hf2 O12 2.213612 1_555
Hf2 O6 2.213612 1_555
Hf2 O1 2.213612 1_555
Hf2 O14 2.215617 1_555
Hf2 O20 2.215617 1_555
Hf2 O0 2.215617 1_555
Hf2 O3 2.482396 1_465
Hf3 O17 2.214133 1_555
Hf3 O59 2.214326 1_555
Hf3 O7 2.215798 1_555
Hf3 O13 2.218108 1_555
Hf3 O22 2.219370 1_555
Hf3 O58 2.224377 1_555
Hf3 O57 2.233952 1_456
Hf3 O10 2.328276 1_555
Hf4 O14 2.214133 1_555
Hf4 O35 2.214326 1_555
Hf4 O24 2.215798 1_555
Hf4 O18 2.218108 1_555
Hf4 O9 2.219370 1_555
Hf4 O36 2.224377 1_555
Hf4 O38 2.233952 1_555
Hf4 O21 2.328276 1_555
Hf5 O10 2.147603 1_555
Hf5 O28 2.213612 1_555
Hf5 O31 2.213612 1_555
Hf5 O19 2.213612 1_555
Hf5 O30 2.215617 1_555
Hf5 O17 2.215617 1_555
Hf5 O11 2.215617 1_555
Hf5 O26 2.482396 1_546
Hf6 O20 2.214133 1_555
Hf6 O34 2.214326 1_555
Hf6 O23 2.215798 1_555
Hf6 O27 2.218108 1_555
Hf6 O24 2.219370 1_555
Hf6 O26 2.224377 1_555
Hf6 O19 2.233952 1_564
Hf6 O21 2.328276 1_555
Hf7 O30 2.214133 1_555
Hf7 O18 2.214326 1_555
Hf7 O22 2.215798 1_555
Hf7 O29 2.218108 1_555
Hf7 O8 2.219370 1_555
Hf7 O36 2.224377 1_555
Hf7 O32 2.233952 1_555
Hf7 O10 2.328276 1_555
Hf8 O33 2.214133 1_555
Hf8 O45 2.214326 1_556
Hf8 O41 2.215798 1_555
Hf8 O34 2.218108 1_556
Hf8 O55 2.219370 1_555
Hf8 O26 2.224377 1_556
Hf8 O31 2.233952 1_565
Hf8 O53 2.328276 1_555
Hf9 O43 2.214133 1_555
Hf9 O29 2.214326 1_555
Hf9 O40 2.215798 1_555
Hf9 O35 2.218108 1_555
Hf9 O39 2.219370 1_555
Hf9 O36 2.224377 1_555
Hf9 O44 2.233952 1_555
Hf9 O42 2.328276 1_555
Hf10 O53 2.147603 1_555
Hf10 O44 2.213612 1_555
Hf10 O32 2.213612 1_555
Hf10 O38 2.213612 1_555
Hf10 O52 2.215617 1_555
Hf10 O33 2.215617 1_555
Hf10 O46 2.215617 1_555
Hf10 O36 2.482396 1_555
Hf11 O49 2.214133 1_555
Hf11 O27 2.214326 1_545
Hf11 O39 2.215798 1_555
Hf11 O45 2.218108 1_545
Hf11 O54 2.219370 1_555
Hf11 O26 2.224377 1_545
Hf11 O28 2.233952 1_554
Hf11 O42 2.328276 1_555
Hf12 O46 2.214133 1_555
Hf12 O5 2.214326 1_565
Hf12 O56 2.215798 1_555
Hf12 O50 2.218108 1_565
Hf12 O41 2.219370 1_555
Hf12 O3 2.224377 1_565
Hf12 O6 2.233952 1_655
Hf12 O53 2.328276 1_555
Hf13 O42 2.147603 1_555
Hf13 O63 2.213612 1_555
Hf13 O51 2.213612 1_555
Hf13 O57 2.213612 1_555
Hf13 O43 2.215617 1_555
Hf13 O62 2.215617 1_555
Hf13 O49 2.215617 1_555
Hf13 O58 2.482396 1_654
Hf14 O52 2.214133 1_555
Hf14 O2 2.214326 1_655
Hf14 O55 2.215798 1_555
Hf14 O59 2.218108 1_655
Hf14 O56 2.219370 1_555
Hf14 O58 2.224377 1_655
Hf14 O51 2.233952 1_556
Hf14 O53 2.328276 1_555
Hf15 O62 2.214133 1_555
Hf15 O50 2.214326 1_555
Hf15 O54 2.215798 1_555
Hf15 O61 2.218108 1_555
Hf15 O40 2.219370 1_555
Hf15 O3 2.224377 1_555
Hf15 O1 2.233952 1_645
Hf15 O42 2.328276 1_555
