# generated using pymatgen
data_Mg3ZnO4
_symmetry_space_group_name_H-M   'P 1'
_cell_length_a   10.00975456
_cell_length_b   10.00975456
_cell_length_c   10.00975488
_cell_angle_alpha   17.38510170
_cell_angle_beta   17.38510170
_cell_angle_gamma   17.38509873
_symmetry_Int_Tables_number   1
_chemical_formula_structural   Mg3ZnO4
_chemical_formula_sum   'Mg3 Zn1 O4'
_cell_volume   78.13750540
_cell_formula_units_Z   1
loop_
 _symmetry_equiv_pos_site_id
 _symmetry_equiv_pos_as_xyz
  1  'x, y, z'
loop_
 _atom_site_type_symbol
 _atom_site_label
 _atom_site_symmetry_multiplicity
 _atom_site_fract_x
 _atom_site_fract_y
 _atom_site_fract_z
 _atom_site_occupancy
  Mg  Mg0  1  0.24977800  0.24977800  0.24977800  1
  Mg  Mg1  1  0.50000000  0.50000000  0.50000000  1
  Mg  Mg2  1  0.75022200  0.75022200  0.75022200  1
  Zn  Zn0  1  0.00000000  0.00000000  0.00000000  1
  O  O0  1  0.12507100  0.12507100  0.12507100  1
  O  O1  1  0.37651700  0.37651700  0.37651700  1
  O  O2  1  0.62348300  0.62348300  0.62348300  1
  O  O3  1  0.87492900  0.87492900  0.87492900  1
loop_
_geom_bond_atom_site_label_1
_geom_bond_atom_site_label_2
_geom_bond_distance
_geom_bond_site_symmetry_2
Mg0 O2 2.115749 1_545
Mg0 O2 2.115749 1_455
Mg0 O2 2.115749 1_554
Mg0 O3 2.135017 1_544
Mg0 O3 2.135017 1_454
Mg0 O3 2.135017 1_445
Mg1 O3 2.136378 1_455
Mg1 O3 2.136378 1_545
Mg1 O0 2.136378 1_565
Mg1 O0 2.136378 1_655
Mg1 O3 2.136378 1_554
Mg1 O0 2.136378 1_556
Mg2 O1 2.115749 1_655
Mg2 O1 2.115749 1_565
Mg2 O1 2.115749 1_556
Mg2 O0 2.135017 1_566
Mg2 O0 2.135017 1_656
Mg2 O0 2.135017 1_665
O1 Zn0 2.163750 1_655
O1 Zn0 2.163750 1_565
O1 Zn0 2.163751 1_556
O2 Zn0 2.163750 1_656
O2 Zn0 2.163750 1_566
O2 Zn0 2.163751 1_665
