# generated using pymatgen
data_ZnAgAu2
_symmetry_space_group_name_H-M   'P 1'
_cell_length_a   10.92027692
_cell_length_b   10.92027692
_cell_length_c   10.92027692
_cell_angle_alpha   124.47643256
_cell_angle_beta   118.54940914
_cell_angle_gamma   87.47911015
_symmetry_Int_Tables_number   1
_chemical_formula_structural   ZnAgAu2
_chemical_formula_sum   'Zn1 Ag1 Au2'
_cell_volume   895.66179213
_cell_formula_units_Z   1
loop_
 _symmetry_equiv_pos_site_id
 _symmetry_equiv_pos_as_xyz
  1  'x, y, z'
loop_
 _atom_site_type_symbol
 _atom_site_label
 _atom_site_symmetry_multiplicity
 _atom_site_fract_x
 _atom_site_fract_y
 _atom_site_fract_z
 _atom_site_occupancy
  Zn  Zn0  1  0.00000000  0.00000000  0.00000000  1
  Ag  Ag0  1  0.00000000  0.50000000  0.50000000  1
  Au  Au0  1  0.00000000  0.23790500  0.23790500  1
  Au  Au1  1  0.00000000  0.76209500  0.76209500  1
loop_
_geom_bond_atom_site_label_1
_geom_bond_atom_site_label_2
_geom_bond_distance
_geom_bond_site_symmetry_2
Ag0 Au0 2.666359 1_555
Ag0 Au1 2.666359 1_555
Au0 Zn0 2.420268 1_555
Au1 Zn0 2.420268 1_566
