# generated using pymatgen
data_La3Tb(PO4)4
_symmetry_space_group_name_H-M   'P 1'
_cell_length_a   6.49038400
_cell_length_b   6.88267189
_cell_length_c   7.06558439
_cell_angle_alpha   90.05195955
_cell_angle_beta   90.53883565
_cell_angle_gamma   103.74200400
_symmetry_Int_Tables_number   1
_chemical_formula_structural   La3Tb(PO4)4
_chemical_formula_sum   'La3 Tb1 P4 O16'
_cell_volume   306.57807707
_cell_formula_units_Z   1
loop_
 _symmetry_equiv_pos_site_id
 _symmetry_equiv_pos_as_xyz
  1  'x, y, z'
loop_
 _atom_site_type_symbol
 _atom_site_label
 _atom_site_symmetry_multiplicity
 _atom_site_fract_x
 _atom_site_fract_y
 _atom_site_fract_z
 _atom_site_occupancy
  La  La0  1  0.89964200  0.71697100  0.84073700  1
  La  La1  1  0.59966900  0.78180400  0.34041200  1
  La  La2  1  0.10069200  0.28327200  0.15962300  1
  Tb  Tb0  1  0.40708000  0.20657600  0.65627700  1
  P  P0  1  0.88944600  0.19686900  0.66449300  1
  P  P1  1  0.38768500  0.69672000  0.83356500  1
  P  P2  1  0.11278300  0.80702900  0.33888800  1
  P  P3  1  0.60979500  0.30241500  0.16205700  1
  O  O0  1  0.78134300  0.36922800  0.71178100  1
  O  O1  1  0.29558400  0.87823500  0.78119500  1
  O  O2  1  0.21236100  0.63134900  0.28665700  1
  O  O3  1  0.71018700  0.12670200  0.21308800  1
  O  O4  1  0.69132400  0.02907500  0.60558200  1
  O  O5  1  0.19134100  0.53255900  0.89346200  1
  O  O6  1  0.30471200  0.97743800  0.40077800  1
  O  O7  1  0.80256800  0.47414600  0.10888100  1
  O  O8  1  0.00319500  0.11935300  0.83395300  1
  O  O9  1  0.49803700  0.61172900  0.66745400  1
  O  O10  1  0.99941000  0.88313100  0.16845900  1
  O  O11  1  0.49457000  0.37268900  0.33424100  1
  O  O12  1  0.06553900  0.25154900  0.51362000  1
  O  O13  1  0.55843400  0.75245200  0.99201900  1
  O  O14  1  0.94204100  0.74871700  0.49327300  1
  O  O15  1  0.44256100  0.24999400  0.99950500  1
loop_
_geom_bond_atom_site_label_1
_geom_bond_atom_site_label_2
_geom_bond_distance
_geom_bond_site_symmetry_2
La0 O14 2.477052 1_555
La0 O0 2.501579 1_555
La0 O7 2.511485 1_556
La0 O13 2.531301 1_555
La0 O5 2.542317 1_655
La0 O1 2.584362 1_655
La0 O10 2.589228 1_556
La0 O8 2.690810 1_665
La0 O9 2.803437 1_555
La1 O13 2.476476 1_554
La1 O3 2.483121 1_565
La1 O4 2.500571 1_565
La1 O2 2.506044 1_555
La1 O14 2.520305 1_555
La1 O9 2.609906 1_555
La1 O6 2.626554 1_555
La1 O11 2.735439 1_555
La1 O10 2.809793 1_555
La2 O2 2.495843 1_555
La2 O12 2.518683 1_555
La2 O5 2.524608 1_554
La2 O3 2.539473 1_455
La2 O15 2.558105 1_554
La2 O8 2.568426 1_554
La2 O7 2.606510 1_455
La2 O10 2.676138 1_445
La2 O11 2.761896 1_555
O0 P0 1.552526 1_555
O0 Tb0 2.448864 1_555
O1 P1 1.551291 1_555
O1 Tb0 2.376624 1_565
O2 P2 1.546250 1_555
O3 P3 1.545286 1_555
O4 P0 1.563333 1_555
O4 Tb0 2.471177 1_555
O5 P1 1.551324 1_555
O6 P2 1.553474 1_555
O6 Tb0 2.379497 1_565
O7 P3 1.552640 1_555
O8 P0 1.560437 1_455
O8 Tb0 2.850187 1_555
O9 P1 1.564061 1_555
O9 Tb0 2.710588 1_555
O10 P2 1.559950 1_655
O11 P3 1.568818 1_555
O11 Tb0 2.554894 1_555
O12 P0 1.550335 1_455
O12 Tb0 2.512015 1_555
O13 P1 1.550052 1_555
O14 P2 1.546368 1_655
O15 P3 1.554719 1_556
O15 Tb0 2.445191 1_555
