# generated using pymatgen
data_PrN(ClO)4
_symmetry_space_group_name_H-M   'P 1'
_cell_length_a   7.31747700
_cell_length_b   7.39279100
_cell_length_c   8.96201500
_cell_angle_alpha   90.00000000
_cell_angle_beta   90.00000000
_cell_angle_gamma   90.00000000
_symmetry_Int_Tables_number   1
_chemical_formula_structural   PrN(ClO)4
_chemical_formula_sum   'Pr2 N2 Cl8 O8'
_cell_volume   484.81434446
_cell_formula_units_Z   2
loop_
 _symmetry_equiv_pos_site_id
 _symmetry_equiv_pos_as_xyz
  1  'x, y, z'
loop_
 _atom_site_type_symbol
 _atom_site_label
 _atom_site_symmetry_multiplicity
 _atom_site_fract_x
 _atom_site_fract_y
 _atom_site_fract_z
 _atom_site_occupancy
  Pr  Pr0  1  0.00000000  0.67026600  0.50000000  1
  Pr  Pr1  1  0.50000000  0.32973400  0.00000000  1
  N  N0  1  0.00000000  0.17692100  0.00000000  1
  N  N1  1  0.50000000  0.82307900  0.50000000  1
  Cl  Cl0  1  0.27225100  0.52610100  0.16934100  1
  Cl  Cl1  1  0.72774900  0.52610100  0.83065900  1
  Cl  Cl2  1  0.22774900  0.47389900  0.66934100  1
  Cl  Cl3  1  0.77225100  0.47389900  0.33065900  1
  Cl  Cl4  1  0.13420300  0.09190500  0.32024600  1
  Cl  Cl5  1  0.86579700  0.09190500  0.67975400  1
  Cl  Cl6  1  0.36579700  0.90809500  0.82024600  1
  Cl  Cl7  1  0.63420300  0.90809500  0.17975400  1
  O  O0  1  0.51968300  0.09456100  0.17652200  1
  O  O1  1  0.48031700  0.09456100  0.82347800  1
  O  O2  1  0.98031700  0.90543900  0.67652200  1
  O  O3  1  0.01968300  0.90543900  0.32347800  1
  O  O4  1  0.36191200  0.75305700  0.45124800  1
  O  O5  1  0.63808800  0.75305700  0.54875200  1
  O  O6  1  0.13808800  0.24694300  0.95124800  1
  O  O7  1  0.86191200  0.24694300  0.04875200  1
loop_
_geom_bond_atom_site_label_1
_geom_bond_atom_site_label_2
_geom_bond_distance
_geom_bond_site_symmetry_2
N0 O7 1.216506 1_455
N0 O6 1.216506 1_554
N1 O5 1.216506 1_555
N1 O4 1.216506 1_555
Cl0 Pr1 2.681051 1_555
Cl1 Pr1 2.681051 1_556
Cl2 Pr0 2.681051 1_555
Cl3 Pr0 2.681051 1_655
Cl4 O3 1.613491 1_545
Cl5 O2 1.613491 1_545
Cl6 O1 1.613491 1_565
Cl7 O0 1.613491 1_565
O0 Pr1 2.355021 1_555
O1 Pr1 2.355021 1_556
O2 Pr0 2.355021 1_655
O3 Pr0 2.355021 1_555
O4 Pr0 2.752982 1_555
O5 Pr0 2.752982 1_655
O6 Pr1 2.752982 1_556
O7 Pr1 2.752982 1_555
