# generated using pymatgen
data_RbFeAgF6
_symmetry_space_group_name_H-M   'P 1'
_cell_length_a   7.46822100
_cell_length_b   7.72248700
_cell_length_c   10.64789400
_cell_angle_alpha   90.00000000
_cell_angle_beta   90.00000000
_cell_angle_gamma   90.00000000
_symmetry_Int_Tables_number   1
_chemical_formula_structural   RbFeAgF6
_chemical_formula_sum   'Rb4 Fe4 Ag4 F24'
_cell_volume   614.09854174
_cell_formula_units_Z   4
loop_
 _symmetry_equiv_pos_site_id
 _symmetry_equiv_pos_as_xyz
  1  'x, y, z'
loop_
 _atom_site_type_symbol
 _atom_site_label
 _atom_site_symmetry_multiplicity
 _atom_site_fract_x
 _atom_site_fract_y
 _atom_site_fract_z
 _atom_site_occupancy
  Rb  Rb0  1  0.01666000  0.25000000  0.63422500  1
  Rb  Rb1  1  0.98334000  0.75000000  0.36577500  1
  Rb  Rb2  1  0.48334000  0.75000000  0.13422500  1
  Rb  Rb3  1  0.51666000  0.25000000  0.86577500  1
  Fe  Fe0  1  0.00000000  0.00000000  0.00000000  1
  Fe  Fe1  1  0.50000000  0.00000000  0.50000000  1
  Fe  Fe2  1  0.00000000  0.50000000  0.00000000  1
  Fe  Fe3  1  0.50000000  0.50000000  0.50000000  1
  Ag  Ag0  1  0.21085300  0.25000000  0.25235900  1
  Ag  Ag1  1  0.78914700  0.75000000  0.74764100  1
  Ag  Ag2  1  0.28914700  0.75000000  0.75235900  1
  Ag  Ag3  1  0.71085300  0.25000000  0.24764100  1
  F  F0  1  0.28332900  0.03753300  0.40389000  1
  F  F1  1  0.71667100  0.96246700  0.59611000  1
  F  F2  1  0.21667100  0.96246700  0.90389000  1
  F  F3  1  0.71667100  0.53753300  0.59611000  1
  F  F4  1  0.78332900  0.03753300  0.09611000  1
  F  F5  1  0.28332900  0.46246700  0.40389000  1
  F  F6  1  0.78332900  0.46246700  0.09611000  1
  F  F7  1  0.21667100  0.53753300  0.90389000  1
  F  F8  1  0.55242800  0.25000000  0.50811300  1
  F  F9  1  0.44757200  0.75000000  0.49188700  1
  F  F10  1  0.94757200  0.75000000  0.00811300  1
  F  F11  1  0.05242800  0.25000000  0.99188700  1
  F  F12  1  0.14194700  0.51621300  0.15566100  1
  F  F13  1  0.85805300  0.48378700  0.84433900  1
  F  F14  1  0.35805300  0.48378700  0.65566100  1
  F  F15  1  0.85805300  0.01621300  0.84433900  1
  F  F16  1  0.64194700  0.51621300  0.34433900  1
  F  F17  1  0.14194700  0.98378700  0.15566100  1
  F  F18  1  0.64194700  0.98378700  0.34433900  1
  F  F19  1  0.35805300  0.01621300  0.65566100  1
  F  F20  1  0.45970300  0.25000000  0.16806000  1
  F  F21  1  0.54029700  0.75000000  0.83194000  1
  F  F22  1  0.04029700  0.75000000  0.66806000  1
  F  F23  1  0.95970300  0.25000000  0.33194000  1
loop_
_geom_bond_atom_site_label_1
_geom_bond_atom_site_label_2
_geom_bond_distance
_geom_bond_site_symmetry_2
Ag0 F23 2.058173 1_455
Ag0 F20 2.063879 1_555
Ag0 F12 2.356136 1_555
Ag0 F17 2.356136 1_545
Ag0 F5 2.363989 1_555
Ag0 F0 2.363989 1_555
Ag1 F22 2.058173 1_655
Ag1 F21 2.063879 1_555
Ag1 F15 2.356136 1_565
Ag1 F13 2.356136 1_555
Ag1 F1 2.363989 1_555
Ag1 F3 2.363989 1_555
Ag2 F21 2.058173 1_555
Ag2 F22 2.063879 1_555
Ag2 F19 2.356136 1_565
Ag2 F14 2.356136 1_555
Ag2 F2 2.363989 1_555
Ag2 F7 2.363989 1_555
Ag3 F20 2.058173 1_555
Ag3 F23 2.063879 1_555
Ag3 F16 2.356136 1_555
Ag3 F18 2.356136 1_545
Ag3 F6 2.363989 1_555
Ag3 F4 2.363989 1_555
F0 Fe1 1.936413 1_555
F0 Rb1 3.180333 1_445
F1 Fe1 1.936413 1_565
F1 Rb0 3.180333 1_665
F2 Fe0 1.936413 1_566
F2 Rb3 3.180333 1_565
F3 Fe3 1.936413 1_555
F3 Rb0 3.180333 1_655
F4 Fe0 1.936413 1_655
F4 Rb2 3.180333 1_545
F5 Fe3 1.936413 1_555
F5 Rb1 3.180333 1_455
F6 Fe2 1.936413 1_655
F6 Rb2 3.180333 1_555
F7 Fe2 1.936413 1_556
F7 Rb3 3.180333 1_555
F8 Fe3 1.971819 1_555
F8 Fe1 1.971819 1_555
F9 Fe3 1.971819 1_555
F9 Fe1 1.971819 1_565
F10 Fe0 1.971819 1_665
F10 Fe2 1.971819 1_655
F11 Fe2 1.971819 1_556
F11 Fe0 1.971819 1_556
F12 Fe2 1.971459 1_555
F12 Rb1 3.109338 1_455
F12 Rb2 3.132424 1_555
F13 Fe2 1.971459 1_656
F13 Rb0 3.109338 1_655
F13 Rb3 3.132424 1_555
F14 Fe3 1.971459 1_555
F14 Rb3 3.109338 1_555
F14 Rb0 3.132424 1_555
F15 Fe0 1.971459 1_656
F15 Rb0 3.109338 1_655
F15 Rb3 3.132424 1_555
F16 Fe3 1.971459 1_555
F16 Rb2 3.109338 1_555
F16 Rb1 3.132424 1_555
F17 Fe0 1.971459 1_565
F17 Rb1 3.109338 1_455
F17 Rb2 3.132424 1_555
F18 Fe1 1.971459 1_565
F18 Rb2 3.109338 1_555
F18 Rb1 3.132424 1_555
F19 Fe1 1.971459 1_555
F19 Rb3 3.109338 1_555
F19 Rb0 3.132424 1_555
F20 Rb3 3.246684 1_554
F21 Rb2 3.246684 1_556
F22 Rb1 3.246684 1_455
F23 Rb0 3.246684 1_655
