# generated using pymatgen
data_SrMgSnWO6
_symmetry_space_group_name_H-M   'P 1'
_cell_length_a   5.67482197
_cell_length_b   5.67482197
_cell_length_c   5.67482197
_cell_angle_alpha   60.00000000
_cell_angle_beta   60.00000000
_cell_angle_gamma   60.00000000
_symmetry_Int_Tables_number   1
_chemical_formula_structural   SrMgSnWO6
_chemical_formula_sum   'Sr1 Mg1 Sn1 W1 O6'
_cell_volume   129.22356777
_cell_formula_units_Z   1
loop_
 _symmetry_equiv_pos_site_id
 _symmetry_equiv_pos_as_xyz
  1  'x, y, z'
loop_
 _atom_site_type_symbol
 _atom_site_label
 _atom_site_symmetry_multiplicity
 _atom_site_fract_x
 _atom_site_fract_y
 _atom_site_fract_z
 _atom_site_occupancy
  Sr  Sr0  1  0.75000000  0.75000000  0.75000000  1
  Mg  Mg0  1  0.00000000  0.00000000  -0.00000000  1
  Sn  Sn0  1  0.25000000  0.25000000  0.25000000  1
  W  W0  1  0.50000000  0.50000000  0.50000000  1
  O  O0  1  0.74264879  0.25735121  0.25735121  1
  O  O1  1  0.25735121  0.74264879  0.74264879  1
  O  O2  1  0.74264879  0.25735121  0.74264879  1
  O  O3  1  0.25735121  0.74264879  0.25735121  1
  O  O4  1  0.74264879  0.74264879  0.25735121  1
  O  O5  1  0.25735121  0.25735121  0.74264879  1
loop_
_geom_bond_atom_site_label_1
_geom_bond_atom_site_label_2
_geom_bond_distance
_geom_bond_site_symmetry_2
Mg0 O3 2.065349 1_545
Mg0 O5 2.065349 1_554
Mg0 O0 2.065349 1_455
Mg0 O1 2.065349 1_544
Mg0 O2 2.065349 1_454
Mg0 O4 2.065349 1_445
O0 W0 1.947356 1_555
O0 Sr0 2.838024 1_554
O0 Sr0 2.838024 1_545
O1 W0 1.947356 1_555
O1 Sr0 2.838024 1_455
O1 Sr0 2.838024 1_555
O2 W0 1.947356 1_555
O2 Sr0 2.838024 1_545
O2 Sr0 2.838024 1_555
O3 W0 1.947356 1_555
O3 Sr0 2.838024 1_455
O3 Sr0 2.838024 1_554
O4 W0 1.947356 1_555
O4 Sr0 2.838024 1_554
O4 Sr0 2.838024 1_555
O5 W0 1.947356 1_555
O5 Sr0 2.838024 1_455
O5 Sr0 2.838024 1_545
