# generated using pymatgen
data_Tm2Si2O7
_symmetry_space_group_name_H-M   'P 1'
_cell_length_a   4.71753817
_cell_length_b   5.56751518
_cell_length_c   5.56751518
_cell_angle_alpha   105.11495631
_cell_angle_beta   97.26676245
_cell_angle_gamma   97.26676245
_symmetry_Int_Tables_number   1
_chemical_formula_structural   Tm2Si2O7
_chemical_formula_sum   'Tm2 Si2 O7'
_cell_volume   138.08249570
_cell_formula_units_Z   1
loop_
 _symmetry_equiv_pos_site_id
 _symmetry_equiv_pos_as_xyz
  1  'x, y, z'
loop_
 _atom_site_type_symbol
 _atom_site_label
 _atom_site_symmetry_multiplicity
 _atom_site_fract_x
 _atom_site_fract_y
 _atom_site_fract_z
 _atom_site_occupancy
  Tm  Tm0  1  0.50000000  0.30725725  0.69274275  1
  Tm  Tm1  1  0.50000000  0.69274275  0.30725725  1
  Si  Si0  1  0.91145691  0.21994810  0.21994810  1
  Si  Si1  1  0.08854309  0.78005190  0.78005190  1
  O  O0  1  0.21587057  0.38428577  0.38428577  1
  O  O1  1  0.78412943  0.61571423  0.61571423  1
  O  O2  1  0.00000000  0.00000000  0.00000000  1
  O  O3  1  0.71959850  0.08488705  0.38794026  1
  O  O4  1  0.71959850  0.38794026  0.08488705  1
  O  O5  1  0.28040150  0.91511295  0.61205974  1
  O  O6  1  0.28040150  0.61205974  0.91511295  1
loop_
_geom_bond_atom_site_label_1
_geom_bond_atom_site_label_2
_geom_bond_distance
_geom_bond_site_symmetry_2
O0 Si0 1.623340 1_455
O0 Tm0 2.208393 1_555
O0 Tm1 2.208393 1_555
O1 Si1 1.623340 1_655
O1 Tm1 2.208393 1_555
O1 Tm0 2.208393 1_555
O2 Si1 1.627991 1_544
O2 Si0 1.627991 1_455
O3 Si0 1.633458 1_555
O3 Tm1 2.200067 1_545
O3 Tm0 2.271409 1_555
O4 Si0 1.633458 1_555
O4 Tm0 2.200067 1_554
O4 Tm1 2.271409 1_555
O5 Si1 1.633458 1_555
O5 Tm0 2.200067 1_565
O5 Tm1 2.271409 1_555
O6 Si1 1.633458 1_555
O6 Tm1 2.200067 1_556
O6 Tm0 2.271409 1_555
