# generated using pymatgen
data_Mg(Mo3O8)2
_symmetry_space_group_name_H-M   'P 1'
_cell_length_a   6.29583689
_cell_length_b   6.31871816
_cell_length_c   10.22565575
_cell_angle_alpha   89.68731828
_cell_angle_beta   89.86084678
_cell_angle_gamma   120.46849961
_symmetry_Int_Tables_number   1
_chemical_formula_structural   Mg(Mo3O8)2
_chemical_formula_sum   'Mg1 Mo6 O16'
_cell_volume   350.60669706
_cell_formula_units_Z   1
loop_
 _symmetry_equiv_pos_site_id
 _symmetry_equiv_pos_as_xyz
  1  'x, y, z'
loop_
 _atom_site_type_symbol
 _atom_site_label
 _atom_site_symmetry_multiplicity
 _atom_site_fract_x
 _atom_site_fract_y
 _atom_site_fract_z
 _atom_site_occupancy
  Mg  Mg0  1  0.33404513  0.67087363  0.74393059  1
  Mo  Mo0  1  0.66004232  0.77921424  0.22446490  1
  Mo  Mo1  1  0.83527990  0.16581681  0.75074429  1
  Mo  Mo2  1  0.13503932  0.31147113  0.26205831  1
  Mo  Mo3  1  0.81991597  0.65537451  0.75978291  1
  Mo  Mo4  1  0.32499113  0.15328650  0.74672106  1
  Mo  Mo5  1  0.21033468  0.87343800  0.26107262  1
  O  O0  1  0.81822009  0.11684341  0.17202686  1
  O  O1  1  0.68401508  0.84410035  0.66007452  1
  O  O2  1  0.18067041  0.32165965  0.65860273  1
  O  O3  1  0.85002925  0.69109146  0.14174115  1
  O  O4  1  0.29551604  0.18166785  0.15742494  1
  O  O5  1  0.14802589  0.83843744  0.65420930  1
  O  O6  1  0.51708210  0.50553750  0.84829252  1
  O  O7  1  0.04315158  0.52252916  0.33229839  1
  O  O8  1  0.46751389  0.97224468  0.35853972  1
  O  O9  1  0.49826573  0.02451611  0.84486341  1
  O  O10  1  0.99187051  0.98097008  0.35373394  1
  O  O11  1  0.00590264  0.98878157  0.85412124  1
  O  O12  1  0.35443988  0.68418336  0.14160324  1
  O  O13  1  0.99733555  0.50104891  0.83877468  1
  O  O14  1  0.49820354  0.54448628  0.35110525  1
  O  O15  1  0.66344739  0.33909836  0.65034543  1
loop_
_geom_bond_atom_site_label_1
_geom_bond_atom_site_label_2
_geom_bond_distance
_geom_bond_site_symmetry_2
Mg0 O13 2.063411 1_455
Mg0 O1 2.079160 1_555
Mg0 O2 2.104051 1_555
Mg0 O5 2.141607 1_555
Mg0 O6 2.184707 1_555
Mg0 O9 2.194282 1_565
Mo0 O3 1.769744 1_555
Mo0 O14 1.831672 1_555
Mo0 O12 1.903208 1_555
Mo0 O0 1.913358 1_565
Mo0 O10 2.251196 1_555
Mo0 O8 2.519145 1_555
Mo1 O1 1.990113 1_545
Mo1 O13 2.042485 1_555
Mo1 O9 2.070008 1_555
Mo1 O2 2.096269 1_655
Mo1 O15 2.148854 1_555
Mo1 O11 2.175770 1_645
Mo2 O7 1.849308 1_555
Mo2 O4 1.919108 1_555
Mo2 O0 1.967784 1_455
Mo2 O10 2.029287 1_445
Mo2 O14 2.198963 1_555
Mo2 O12 2.373298 1_555
Mo3 O6 1.871436 1_555
Mo3 O13 1.987827 1_555
Mo3 O1 2.054116 1_555
Mo3 O15 2.061516 1_555
Mo3 O11 2.065402 1_655
Mo3 O5 2.079179 1_655
Mo4 O2 1.934750 1_555
Mo4 O9 1.938005 1_555
Mo4 O5 1.967719 1_545
Mo4 O11 2.044876 1_545
Mo4 O15 2.080934 1_555
Mo4 O6 2.190189 1_555
Mo5 O8 1.730393 1_555
Mo5 O4 2.029680 1_565
Mo5 O7 2.041220 1_555
Mo5 O10 2.049313 1_455
Mo5 O12 2.203735 1_555
Mo5 O3 2.310950 1_455
