# generated using pymatgen
data_Cu3Ge
_symmetry_space_group_name_H-M   'P 1'
_cell_length_a   5.23465777
_cell_length_b   5.23465777
_cell_length_c   4.16549206
_cell_angle_alpha   90.00000000
_cell_angle_beta   90.00000000
_cell_angle_gamma   119.99998971
_symmetry_Int_Tables_number   1
_chemical_formula_structural   Cu3Ge
_chemical_formula_sum   'Cu6 Ge2'
_cell_volume   98.84929461
_cell_formula_units_Z   2
loop_
 _symmetry_equiv_pos_site_id
 _symmetry_equiv_pos_as_xyz
  1  'x, y, z'
loop_
 _atom_site_type_symbol
 _atom_site_label
 _atom_site_symmetry_multiplicity
 _atom_site_fract_x
 _atom_site_fract_y
 _atom_site_fract_z
 _atom_site_occupancy
  Cu  Cu0  1  0.16460829  0.32921759  0.25000000  1
  Cu  Cu1  1  0.67078241  0.83539171  0.25000000  1
  Cu  Cu2  1  0.16460829  0.83539171  0.25000000  1
  Cu  Cu3  1  0.83539171  0.67078241  0.75000000  1
  Cu  Cu4  1  0.32921759  0.16460829  0.75000000  1
  Cu  Cu5  1  0.83539171  0.16460829  0.75000000  1
  Ge  Ge0  1  0.33333300  0.66666700  0.75000000  1
  Ge  Ge1  1  0.66666700  0.33333300  0.25000000  1
loop_
_geom_bond_atom_site_label_1
_geom_bond_atom_site_label_2
_geom_bond_distance
_geom_bond_site_symmetry_2
Cu0 Cu5 2.562274 1_455
Cu0 Cu5 2.562274 1_454
Cu0 Cu4 2.562279 1_554
Cu0 Cu4 2.562279 1_555
Cu0 Ge0 2.584191 1_555
Cu0 Ge0 2.584191 1_554
Cu0 Cu2 2.585009 1_545
Cu0 Cu1 2.585010 1_445
Cu0 Ge1 2.617390 1_455
Cu0 Ge1 2.617401 1_555
Cu0 Cu2 2.649648 1_555
Cu0 Cu1 2.649649 1_555
Cu1 Cu5 2.562274 1_565
Cu1 Cu5 2.562274 1_564
Cu1 Cu3 2.562279 1_554
Cu1 Cu3 2.562279 1_555
Cu1 Ge0 2.584191 1_555
Cu1 Ge0 2.584191 1_554
Cu1 Cu2 2.585009 1_655
Cu1 Ge1 2.617390 1_565
Cu1 Ge1 2.617401 1_555
Cu1 Cu2 2.649648 1_555
Cu2 Cu4 2.562274 1_565
Cu2 Cu4 2.562274 1_564
Cu2 Cu3 2.562274 1_455
Cu2 Cu3 2.562274 1_454
Cu2 Ge0 2.584191 1_555
Cu2 Ge0 2.584191 1_554
Cu2 Ge1 2.617396 1_565
Cu2 Ge1 2.617396 1_455
Cu3 Ge1 2.584191 1_555
Cu3 Ge1 2.584191 1_556
Cu3 Cu5 2.585009 1_565
Cu3 Cu4 2.585010 1_665
Cu3 Ge0 2.617390 1_655
Cu3 Ge0 2.617401 1_555
Cu3 Cu5 2.649648 1_555
Cu3 Cu4 2.649649 1_555
Cu4 Ge1 2.584191 1_555
Cu4 Ge1 2.584191 1_556
Cu4 Cu5 2.585009 1_455
Cu4 Ge0 2.617390 1_545
Cu4 Ge0 2.617401 1_555
Cu4 Cu5 2.649648 1_555
Cu5 Ge1 2.584191 1_555
Cu5 Ge1 2.584191 1_556
Cu5 Ge0 2.617396 1_545
Cu5 Ge0 2.617396 1_655
