# generated using pymatgen
data_Ba4Mn3O10
_symmetry_space_group_name_H-M   'P 1'
_cell_length_a   7.19418239
_cell_length_b   7.19418239
_cell_length_c   12.80133668
_cell_angle_alpha   90.00000000
_cell_angle_beta   90.00000000
_cell_angle_gamma   133.22912894
_symmetry_Int_Tables_number   1
_chemical_formula_structural   Ba4Mn3O10
_chemical_formula_sum   'Ba8 Mn6 O20'
_cell_volume   482.74702037
_cell_formula_units_Z   2
loop_
 _symmetry_equiv_pos_site_id
 _symmetry_equiv_pos_as_xyz
  1  'x, y, z'
loop_
 _atom_site_type_symbol
 _atom_site_label
 _atom_site_symmetry_multiplicity
 _atom_site_fract_x
 _atom_site_fract_y
 _atom_site_fract_z
 _atom_site_occupancy
  Ba  Ba0  1  0.24391341  0.75608659  0.88909247  1
  Ba  Ba1  1  0.75608659  0.24391341  0.11090753  1
  Ba  Ba2  1  0.25608659  0.74391341  0.38909247  1
  Ba  Ba3  1  0.74391341  0.25608659  0.61090753  1
  Ba  Ba4  1  0.03786322  0.96213678  0.64137533  1
  Ba  Ba5  1  0.96213678  0.03786322  0.35862467  1
  Ba  Ba6  1  0.46213678  0.53786322  0.14137533  1
  Ba  Ba7  1  0.53786322  0.46213678  0.85862467  1
  Mn  Mn0  1  0.37520019  0.62479981  0.65290777  1
  Mn  Mn1  1  0.62479981  0.37520019  0.34709223  1
  Mn  Mn2  1  0.12479981  0.87520019  0.15290777  1
  Mn  Mn3  1  0.87520019  0.12479981  0.84709223  1
  Mn  Mn4  1  0.50000000  0.50000000  0.50000000  1
  Mn  Mn5  1  -0.00000000  0.00000000  -0.00000000  1
  O  O0  1  0.13525292  0.36474708  0.75000000  1
  O  O1  1  0.36474708  0.13525292  0.25000000  1
  O  O2  1  0.86474708  0.63525292  0.25000000  1
  O  O3  1  0.63525292  0.86474708  0.75000000  1
  O  O4  1  0.38411460  0.17907064  0.46182994  1
  O  O5  1  0.17907064  0.38411460  0.53817006  1
  O  O6  1  0.11588540  0.32092936  0.96182994  1
  O  O7  1  0.32092936  0.11588540  0.03817006  1
  O  O8  1  0.61588540  0.82092936  0.53817006  1
  O  O9  1  0.82092936  0.61588540  0.46182994  1
  O  O10  1  0.88411460  0.67907064  0.03817006  1
  O  O11  1  0.67907064  0.88411460  0.96182994  1
  O  O12  1  0.23917131  0.76082869  0.64777334  1
  O  O13  1  0.76082869  0.23917131  0.35222666  1
  O  O14  1  0.96660088  0.03339912  0.14404046  1
  O  O15  1  0.03339912  0.96660088  0.85595954  1
  O  O16  1  0.53339912  0.46660088  0.64404046  1
  O  O17  1  0.46660088  0.53339912  0.35595954  1
  O  O18  1  0.73917131  0.26082869  0.85222666  1
  O  O19  1  0.26082869  0.73917131  0.14777334  1
loop_
_geom_bond_atom_site_label_1
_geom_bond_atom_site_label_2
_geom_bond_distance
_geom_bond_site_symmetry_2
Ba0 O6 2.750664 1_555
Ba0 O11 2.750664 1_555
Ba0 O15 2.812313 1_555
Ba0 O18 2.894889 1_455
Ba0 O18 2.894889 1_565
Ba0 O10 2.946944 1_456
Ba0 O7 2.946944 1_566
Ba0 O0 2.948394 1_555
Ba0 O3 2.948394 1_555
Ba0 O12 3.089842 1_555
Ba0 O19 3.318987 1_556
Ba1 O7 2.750664 1_555
Ba1 O10 2.750664 1_555
Ba1 O14 2.812313 1_555
Ba1 O19 2.894889 1_545
Ba1 O19 2.894889 1_655
Ba1 O6 2.946944 1_654
Ba1 O11 2.946944 1_544
Ba1 O1 2.948394 1_555
Ba1 O2 2.948394 1_555
Ba1 O13 3.089842 1_555
Ba1 O18 3.318987 1_554
Ba2 O9 2.750664 1_455
Ba2 O4 2.750664 1_565
Ba2 O17 2.812313 1_555
Ba2 O13 2.894889 1_455
Ba2 O13 2.894889 1_565
Ba2 O8 2.946944 1_555
Ba2 O5 2.946944 1_555
Ba2 O2 2.948394 1_455
Ba2 O1 2.948394 1_565
Ba2 O19 3.089842 1_555
Ba2 O12 3.318987 1_555
Ba3 O5 2.750664 1_655
Ba3 O8 2.750664 1_545
Ba3 O16 2.812313 1_555
Ba3 O12 2.894889 1_545
Ba3 O12 2.894889 1_655
Ba3 O9 2.946944 1_555
Ba3 O4 2.946944 1_555
Ba3 O3 2.948394 1_545
Ba3 O0 2.948394 1_655
Ba3 O18 3.089842 1_555
Ba3 O13 3.318987 1_555
Ba4 O12 2.659825 1_555
Ba4 O15 2.747597 1_555
Ba4 O8 2.787281 1_455
Ba4 O5 2.787281 1_565
Ba4 O0 2.834437 1_565
Ba4 O3 2.834437 1_455
Ba4 O16 2.856288 1_455
Ba4 O16 2.856288 1_565
Ba4 O4 2.932250 1_565
Ba4 O9 2.932250 1_455
Ba5 O13 2.659825 1_555
Ba5 O14 2.747597 1_555
Ba5 O4 2.787281 1_655
Ba5 O9 2.787281 1_545
Ba5 O1 2.834437 1_655
Ba5 O2 2.834437 1_545
Ba5 O17 2.856288 1_545
Ba5 O17 2.856288 1_655
Ba5 O5 2.932250 1_655
Ba5 O8 2.932250 1_545
Ba6 O19 2.659825 1_555
Ba6 O17 2.747597 1_555
Ba6 O10 2.787281 1_555
Ba6 O7 2.787281 1_555
Ba6 O2 2.834437 1_555
Ba6 O1 2.834437 1_555
Ba6 O14 2.856288 1_565
Ba6 O14 2.856288 1_455
Ba6 O6 2.932250 1_554
Ba6 O11 2.932250 1_554
Ba7 O18 2.659825 1_555
Ba7 O16 2.747597 1_555
Ba7 O11 2.787281 1_555
Ba7 O6 2.787281 1_555
Ba7 O0 2.834437 1_555
Ba7 O3 2.834437 1_555
Ba7 O15 2.856288 1_655
Ba7 O15 2.856288 1_545
Ba7 O10 2.932250 1_556
Ba7 O7 2.932250 1_556
Mn0 O12 1.797659 1_555
Mn0 O3 1.897600 1_555
Mn0 O0 1.897600 1_555
Mn0 O8 1.949286 1_555
Mn0 O5 1.949286 1_555
Mn0 O16 2.092326 1_555
Mn1 O13 1.797659 1_555
Mn1 O2 1.897600 1_555
Mn1 O1 1.897600 1_555
Mn1 O9 1.949286 1_555
Mn1 O4 1.949286 1_555
Mn1 O17 2.092326 1_555
Mn2 O19 1.797659 1_555
Mn2 O2 1.897600 1_455
Mn2 O1 1.897600 1_565
Mn2 O7 1.949286 1_565
Mn2 O10 1.949286 1_455
Mn2 O14 2.092326 1_465
Mn3 O18 1.797659 1_555
Mn3 O3 1.897600 1_545
Mn3 O0 1.897600 1_655
Mn3 O6 1.949286 1_655
Mn3 O11 1.949286 1_545
Mn3 O15 2.092326 1_645
Mn4 O17 1.895933 1_555
Mn4 O16 1.895933 1_555
Mn4 O4 1.904660 1_555
Mn4 O5 1.904660 1_555
Mn4 O8 1.904660 1_555
Mn4 O9 1.904660 1_555
Mn5 O14 1.895933 1_455
Mn5 O15 1.895933 1_544
Mn5 O10 1.904660 1_445
Mn5 O7 1.904660 1_555
Mn5 O11 1.904660 1_444
Mn5 O6 1.904660 1_554
