# generated using pymatgen
data_AlI3N7
_symmetry_space_group_name_H-M   'P 1'
_cell_length_a   12.90826000
_cell_length_b   5.62084000
_cell_length_c   10.62861600
_cell_angle_alpha   90.00000000
_cell_angle_beta   90.00000000
_cell_angle_gamma   90.00000000
_symmetry_Int_Tables_number   1
_chemical_formula_structural   AlI3N7
_chemical_formula_sum   'Al4 I12 N28'
_cell_volume   771.16204131
_cell_formula_units_Z   4
loop_
 _symmetry_equiv_pos_site_id
 _symmetry_equiv_pos_as_xyz
  1  'x, y, z'
loop_
 _atom_site_type_symbol
 _atom_site_label
 _atom_site_symmetry_multiplicity
 _atom_site_fract_x
 _atom_site_fract_y
 _atom_site_fract_z
 _atom_site_occupancy
  Al  Al0  1  0.78812500  0.25000000  0.48394700  1
  Al  Al1  1  0.28812500  0.25000000  0.01605300  1
  Al  Al2  1  0.21187500  0.75000000  0.51605300  1
  Al  Al3  1  0.71187500  0.75000000  0.98394700  1
  I  I0  1  0.48576500  0.25000000  0.11674000  1
  I  I1  1  0.98576500  0.25000000  0.38326000  1
  I  I2  1  0.51423500  0.75000000  0.88326000  1
  I  I3  1  0.01423500  0.75000000  0.61674000  1
  I  I4  1  0.88166600  0.25000000  0.04482500  1
  I  I5  1  0.38166600  0.25000000  0.45517500  1
  I  I6  1  0.11833400  0.75000000  0.95517500  1
  I  I7  1  0.61833400  0.75000000  0.54482500  1
  I  I8  1  0.64452100  0.25000000  0.75535400  1
  I  I9  1  0.14452100  0.25000000  0.74464600  1
  I  I10  1  0.35547900  0.75000000  0.24464600  1
  I  I11  1  0.85547900  0.75000000  0.25535400  1
  N  N0  1  0.86785400  0.25000000  0.22997100  1
  N  N1  1  0.36785400  0.25000000  0.27002900  1
  N  N2  1  0.13214600  0.75000000  0.77002900  1
  N  N3  1  0.63214600  0.75000000  0.72997100  1
  N  N4  1  0.66084900  0.25000000  0.56093100  1
  N  N5  1  0.16084900  0.25000000  0.93906900  1
  N  N6  1  0.33915100  0.75000000  0.43906900  1
  N  N7  1  0.83915100  0.75000000  0.06093100  1
  N  N8  1  0.88846800  0.46110200  0.76665800  1
  N  N9  1  0.38846800  0.03889800  0.73334200  1
  N  N10  1  0.11153200  0.96110200  0.23334200  1
  N  N11  1  0.61153200  0.53889800  0.26665800  1
  N  N12  1  0.11153200  0.53889800  0.23334200  1
  N  N13  1  0.61153200  0.96110200  0.26665800  1
  N  N14  1  0.88846800  0.03889800  0.76665800  1
  N  N15  1  0.38846800  0.46110200  0.73334200  1
  N  N16  1  0.88804500  0.01117800  0.45358400  1
  N  N17  1  0.38804500  0.48882200  0.04641600  1
  N  N18  1  0.11195500  0.51117800  0.54641600  1
  N  N19  1  0.61195500  0.98882200  0.95358400  1
  N  N20  1  0.11195500  0.98882200  0.54641600  1
  N  N21  1  0.61195500  0.51117800  0.95358400  1
  N  N22  1  0.88804500  0.48882200  0.45358400  1
  N  N23  1  0.38804500  0.01117800  0.04641600  1
  N  N24  1  0.89061900  0.25000000  0.76352700  1
  N  N25  1  0.39061900  0.25000000  0.73647300  1
  N  N26  1  0.10938100  0.75000000  0.23647300  1
  N  N27  1  0.60938100  0.75000000  0.26352700  1
loop_
_geom_bond_atom_site_label_1
_geom_bond_atom_site_label_2
_geom_bond_distance
_geom_bond_site_symmetry_2
Al0 N4 1.835392 1_555
Al0 N22 1.889364 1_555
Al0 N16 1.889364 1_555
Al1 N5 1.835392 1_554
Al1 N23 1.889364 1_555
Al1 N17 1.889364 1_555
Al2 N6 1.835392 1_555
Al2 N20 1.889364 1_555
Al2 N18 1.889364 1_555
Al3 N7 1.835392 1_556
Al3 N21 1.889364 1_555
Al3 N19 1.889364 1_555
I0 N17 1.987908 1_555
I0 N23 1.987908 1_555
I0 N1 2.229578 1_555
I1 N22 1.987908 1_555
I1 N16 1.987908 1_555
I1 N0 2.229578 1_555
I2 N19 1.987908 1_555
I2 N21 1.987908 1_555
I2 N3 2.229578 1_555
I3 N18 1.987908 1_555
I3 N20 1.987908 1_555
I3 N2 2.229578 1_555
I4 N0 1.975906 1_555
I5 N1 1.975906 1_555
I6 N2 1.975906 1_555
I7 N3 1.975906 1_555
I8 N4 2.077168 1_555
I8 N21 2.602100 1_555
I8 N19 2.602100 1_545
I9 N5 2.077168 1_555
I9 N20 2.602100 1_545
I9 N18 2.602100 1_555
I10 N6 2.077168 1_555
I10 N23 2.602100 1_565
I10 N17 2.602100 1_555
I11 N7 2.077168 1_555
I11 N16 2.602100 1_565
I11 N22 2.602100 1_555
N10 N26 1.187362 1_555
N11 N27 1.187362 1_555
N12 N26 1.187362 1_555
N13 N27 1.187362 1_555
N14 N24 1.187362 1_555
N15 N25 1.187362 1_555
N24 N8 1.187362 1_555
N25 N9 1.187362 1_555
