# generated using pymatgen
data_BaPr2O4
_symmetry_space_group_name_H-M   'P 1'
_cell_length_a   3.65483884
_cell_length_b   10.69223598
_cell_length_c   12.61643535
_cell_angle_alpha   90.00000000
_cell_angle_beta   90.00000000
_cell_angle_gamma   90.00000000
_symmetry_Int_Tables_number   1
_chemical_formula_structural   BaPr2O4
_chemical_formula_sum   'Ba4 Pr8 O16'
_cell_volume   493.03009893
_cell_formula_units_Z   4
loop_
 _symmetry_equiv_pos_site_id
 _symmetry_equiv_pos_as_xyz
  1  'x, y, z'
loop_
 _atom_site_type_symbol
 _atom_site_label
 _atom_site_symmetry_multiplicity
 _atom_site_fract_x
 _atom_site_fract_y
 _atom_site_fract_z
 _atom_site_occupancy
  Ba  Ba0  1  0.75000000  0.74996790  0.85237870  1
  Ba  Ba1  1  0.25000000  0.25003210  0.14762130  1
  Ba  Ba2  1  0.75000000  0.24996790  0.64762130  1
  Ba  Ba3  1  0.25000000  0.75003210  0.35237870  1
  Pr  Pr0  1  0.25000000  0.41814248  0.38913056  1
  Pr  Pr1  1  0.75000000  0.58185752  0.61086944  1
  Pr  Pr2  1  0.25000000  0.91814248  0.11086944  1
  Pr  Pr3  1  0.75000000  0.08185752  0.88913056  1
  Pr  Pr4  1  0.75000000  0.07478541  0.38689047  1
  Pr  Pr5  1  0.25000000  0.92521459  0.61310953  1
  Pr  Pr6  1  0.75000000  0.57478541  0.11310953  1
  Pr  Pr7  1  0.25000000  0.42521459  0.88689047  1
  O  O0  1  0.25000000  0.43046704  0.57723369  1
  O  O1  1  0.75000000  0.56953296  0.42276631  1
  O  O2  1  0.25000000  0.93046704  0.92276631  1
  O  O3  1  0.75000000  0.06953296  0.07723369  1
  O  O4  1  0.25000000  0.51365150  0.21777841  1
  O  O5  1  0.75000000  0.48634850  0.78222159  1
  O  O6  1  0.25000000  0.01365150  0.28222159  1
  O  O7  1  0.75000000  0.98634850  0.71777841  1
  O  O8  1  0.25000000  0.12474523  0.51723186  1
  O  O9  1  0.75000000  0.87525477  0.48276814  1
  O  O10  1  0.25000000  0.62474523  0.98276814  1
  O  O11  1  0.75000000  0.37525477  0.01723186  1
  O  O12  1  0.75000000  0.28701623  0.32654648  1
  O  O13  1  0.25000000  0.71298377  0.67345352  1
  O  O14  1  0.75000000  0.78701623  0.17345352  1
  O  O15  1  0.25000000  0.21298377  0.82654648  1
loop_
_geom_bond_atom_site_label_1
_geom_bond_atom_site_label_2
_geom_bond_distance
_geom_bond_site_symmetry_2
Ba0 O10 2.799702 1_555
Ba0 O10 2.799702 1_655
Ba0 O2 2.802275 1_655
Ba0 O2 2.802275 1_555
Ba0 O13 2.931157 1_555
Ba0 O13 2.931157 1_655
Ba0 O5 2.954390 1_555
Ba0 O7 3.044953 1_555
Ba1 O11 2.799702 1_555
Ba1 O11 2.799702 1_455
Ba1 O3 2.802275 1_455
Ba1 O3 2.802275 1_555
Ba1 O12 2.931157 1_455
Ba1 O12 2.931157 1_555
Ba1 O4 2.954390 1_555
Ba1 O6 3.044953 1_555
Ba2 O8 2.799702 1_655
Ba2 O8 2.799702 1_555
Ba2 O0 2.802275 1_555
Ba2 O0 2.802275 1_655
Ba2 O15 2.931157 1_655
Ba2 O15 2.931157 1_555
Ba2 O7 2.954390 1_545
Ba2 O5 3.044953 1_555
Ba3 O9 2.799702 1_455
Ba3 O9 2.799702 1_555
Ba3 O1 2.802275 1_455
Ba3 O1 2.802275 1_555
Ba3 O14 2.931157 1_455
Ba3 O14 2.931157 1_555
Ba3 O6 2.954390 1_565
Ba3 O4 3.044953 1_555
O0 Pr0 2.376847 1_555
O0 Pr1 2.477851 1_555
O0 Pr1 2.477851 1_455
O1 Pr1 2.376847 1_555
O1 Pr0 2.477851 1_555
O1 Pr0 2.477851 1_655
O2 Pr2 2.376847 1_556
O2 Pr3 2.477851 1_565
O2 Pr3 2.477851 1_465
O3 Pr3 2.376847 1_554
O3 Pr2 2.477851 1_645
O3 Pr2 2.477851 1_545
O4 Pr6 2.347462 1_455
O4 Pr6 2.347462 1_555
O4 Pr0 2.390914 1_555
O5 Pr7 2.347462 1_555
O5 Pr7 2.347462 1_655
O5 Pr1 2.390914 1_555
O6 Pr4 2.347462 1_455
O6 Pr4 2.347462 1_555
O6 Pr2 2.390914 1_545
O7 Pr5 2.347462 1_555
O7 Pr5 2.347462 1_655
O7 Pr3 2.390914 1_565
O8 Pr5 2.452495 1_545
O8 Pr4 2.515752 1_455
O8 Pr4 2.515752 1_555
O9 Pr4 2.452495 1_565
O9 Pr5 2.515752 1_555
O9 Pr5 2.515752 1_655
O10 Pr7 2.452495 1_555
O10 Pr6 2.515752 1_456
O10 Pr6 2.515752 1_556
O11 Pr6 2.452495 1_555
O11 Pr7 2.515752 1_654
O11 Pr7 2.515752 1_554
O12 Pr4 2.393530 1_555
O12 Pr0 2.434873 1_555
O12 Pr0 2.434873 1_655
O13 Pr5 2.393530 1_555
O13 Pr1 2.434873 1_555
O13 Pr1 2.434873 1_455
O14 Pr6 2.393530 1_555
O14 Pr2 2.434873 1_655
O14 Pr2 2.434873 1_555
O15 Pr7 2.393530 1_555
O15 Pr3 2.434873 1_555
O15 Pr3 2.434873 1_455
