# generated using pymatgen
data_UGe2
_symmetry_space_group_name_H-M   'P 1'
_cell_length_a   7.76892239
_cell_length_b   7.76892239
_cell_length_c   3.97815900
_cell_angle_alpha   90.00000000
_cell_angle_beta   90.00000000
_cell_angle_gamma   148.77049194
_symmetry_Int_Tables_number   1
_chemical_formula_structural   UGe2
_chemical_formula_sum   'U2 Ge4'
_cell_volume   124.48734699
_cell_formula_units_Z   2
loop_
 _symmetry_equiv_pos_site_id
 _symmetry_equiv_pos_as_xyz
  1  'x, y, z'
loop_
 _atom_site_type_symbol
 _atom_site_label
 _atom_site_symmetry_multiplicity
 _atom_site_fract_x
 _atom_site_fract_y
 _atom_site_fract_z
 _atom_site_occupancy
  U  U0  1  0.10008600  0.89991400  0.25000000  1
  U  U1  1  0.89991400  0.10008600  0.75000000  1
  Ge  Ge0  1  0.43918700  0.56081300  0.25000000  1
  Ge  Ge1  1  0.56081300  0.43918700  0.75000000  1
  Ge  Ge2  1  0.25245400  0.74754600  0.75000000  1
  Ge  Ge3  1  0.74754600  0.25245400  0.25000000  1
loop_
_geom_bond_atom_site_label_1
_geom_bond_atom_site_label_2
_geom_bond_distance
_geom_bond_site_symmetry_2
Ge0 Ge1 2.696118 1_554
Ge0 Ge1 2.696118 1_555
Ge0 U1 2.945286 1_565
Ge0 U1 2.945286 1_564
Ge0 U1 2.945286 1_454
Ge0 U1 2.945286 1_455
Ge0 U0 3.189071 1_655
Ge0 U0 3.189071 1_545
Ge1 U0 2.945286 1_655
Ge1 U0 2.945286 1_656
Ge1 U0 2.945286 1_546
Ge1 U0 2.945286 1_545
Ge1 U1 3.189071 1_565
Ge1 U1 3.189071 1_455
Ge2 Ge3 2.886991 1_456
Ge2 Ge3 2.886991 1_565
Ge2 Ge3 2.886991 1_566
Ge2 Ge3 2.886991 1_455
Ge2 U0 3.025768 1_555
Ge2 U0 3.025768 1_556
Ge2 U1 3.040096 1_565
Ge2 U1 3.040096 1_455
Ge3 U1 3.025768 1_555
Ge3 U1 3.025768 1_554
Ge3 U0 3.040096 1_655
Ge3 U0 3.040096 1_545
