# generated using pymatgen
data_CsS3
_symmetry_space_group_name_H-M   'P 1'
_cell_length_a   4.74673294
_cell_length_b   9.31531015
_cell_length_c   11.65160329
_cell_angle_alpha   84.93463838
_cell_angle_beta   84.69250747
_cell_angle_gamma   89.59981206
_symmetry_Int_Tables_number   1
_chemical_formula_structural   CsS3
_chemical_formula_sum   'Cs4 S12'
_cell_volume   510.98964782
_cell_formula_units_Z   4
loop_
 _symmetry_equiv_pos_site_id
 _symmetry_equiv_pos_as_xyz
  1  'x, y, z'
loop_
 _atom_site_type_symbol
 _atom_site_label
 _atom_site_symmetry_multiplicity
 _atom_site_fract_x
 _atom_site_fract_y
 _atom_site_fract_z
 _atom_site_occupancy
  Cs  Cs0  1  0.95561435  0.67327254  0.09602159  1
  Cs  Cs1  1  0.04438565  0.32672746  0.90397841  1
  Cs  Cs2  1  0.89306652  0.30799885  0.38756873  1
  Cs  Cs3  1  0.10693348  0.69200115  0.61243127  1
  S  S0  1  0.46429191  0.34752615  0.14821587  1
  S  S1  1  0.53570809  0.65247385  0.85178413  1
  S  S2  1  0.42274139  0.61185274  0.32956360  1
  S  S3  1  0.57725861  0.38814726  0.67043640  1
  S  S4  1  0.48575151  0.14014446  0.10331446  1
  S  S5  1  0.51424849  0.85985554  0.89668554  1
  S  S6  1  0.20240542  0.01361657  0.21004452  1
  S  S7  1  0.79759458  0.98638343  0.78995548  1
  S  S8  1  0.35724328  0.96438050  0.37083767  1
  S  S9  1  0.64275672  0.03561950  0.62916233  1
  S  S10  1  0.63119591  0.79059507  0.36372300  1
  S  S11  1  0.36880409  0.20940493  0.63627700  1
loop_
_geom_bond_atom_site_label_1
_geom_bond_atom_site_label_2
_geom_bond_distance
_geom_bond_site_symmetry_2
Cs0 S2 3.549900 1_555
Cs0 S5 3.597364 1_554
Cs0 S10 3.603434 1_555
Cs0 S1 3.641533 1_554
Cs0 S2 3.670433 1_655
Cs0 S5 3.695797 1_654
Cs0 S6 3.777887 1_665
Cs0 S1 3.789216 1_654
Cs0 S0 3.811463 1_555
Cs0 S0 3.905269 1_655
Cs1 S3 3.549900 1_555
Cs1 S4 3.597364 1_556
Cs1 S11 3.603434 1_555
Cs1 S0 3.641533 1_556
Cs1 S3 3.670433 1_455
Cs1 S4 3.695797 1_456
Cs1 S7 3.777887 1_445
Cs1 S0 3.789216 1_456
Cs1 S1 3.811463 1_555
Cs1 S1 3.905269 1_455
Cs2 S0 3.593588 1_555
Cs2 S3 3.629346 1_555
Cs2 S2 3.647687 1_555
Cs2 S11 3.696172 1_555
Cs2 S0 3.701200 1_655
Cs2 S9 3.733052 1_555
Cs2 S2 3.773200 1_655
Cs2 S6 3.786554 1_655
Cs2 S11 3.879717 1_655
Cs2 S8 3.882097 1_645
Cs2 S8 4.131394 1_545
Cs3 S1 3.593588 1_555
Cs3 S2 3.629346 1_555
Cs3 S3 3.647687 1_555
Cs3 S10 3.696172 1_555
Cs3 S1 3.701200 1_455
Cs3 S8 3.733052 1_555
Cs3 S3 3.773200 1_455
Cs3 S7 3.786554 1_455
Cs3 S10 3.879717 1_455
Cs3 S9 3.882097 1_465
Cs3 S9 4.131394 1_565
S0 S4 2.044968 1_555
S1 S5 2.044968 1_555
S4 S6 2.049029 1_555
S5 S7 2.049029 1_555
S6 S8 2.087783 1_545
S7 S9 2.087783 1_565
S10 S2 2.030452 1_555
S10 S8 2.071939 1_555
S11 S3 2.030452 1_555
S11 S9 2.071939 1_555
