# generated using pymatgen
data_Sc(GaCo)6
_symmetry_space_group_name_H-M   'P 1'
_cell_length_a   4.88939200
_cell_length_b   6.61844074
_cell_length_c   6.53282138
_cell_angle_alpha   97.94527022
_cell_angle_beta   111.97595703
_cell_angle_gamma   68.32283486
_symmetry_Int_Tables_number   1
_chemical_formula_structural   Sc(GaCo)6
_chemical_formula_sum   'Sc1 Ga6 Co6'
_cell_volume   182.17857329
_cell_formula_units_Z   1
loop_
 _symmetry_equiv_pos_site_id
 _symmetry_equiv_pos_as_xyz
  1  'x, y, z'
loop_
 _atom_site_type_symbol
 _atom_site_label
 _atom_site_symmetry_multiplicity
 _atom_site_fract_x
 _atom_site_fract_y
 _atom_site_fract_z
 _atom_site_occupancy
  Sc  Sc0  1  0.00000000  0.00000000  0.00000000  1
  Ga  Ga0  1  0.50000000  0.50000000  0.00000000  1
  Ga  Ga1  1  0.00000000  0.50000000  0.00000000  1
  Ga  Ga2  1  0.75948600  0.75626600  0.27523800  1
  Ga  Ga3  1  0.24051400  0.24373400  0.72476200  1
  Ga  Ga4  1  0.48424800  0.75626600  0.72476200  1
  Ga  Ga5  1  0.51575200  0.24373400  0.27523800  1
  Co  Co0  1  0.66071000  0.34855700  0.66997800  1
  Co  Co1  1  0.33929000  0.65144300  0.33002200  1
  Co  Co2  1  0.99073200  0.34855700  0.33002200  1
  Co  Co3  1  0.00926800  0.65144300  0.66997800  1
  Co  Co4  1  0.50000000  0.00000000  0.50000000  1
  Co  Co5  1  0.00000000  0.00000000  0.50000000  1
loop_
_geom_bond_atom_site_label_1
_geom_bond_atom_site_label_2
_geom_bond_distance
_geom_bond_site_symmetry_2
Ga0 Ga1 2.444696 1_655
Ga0 Ga1 2.444696 1_555
Ga0 Ga4 2.599744 1_554
Ga0 Ga2 2.599744 1_555
Ga0 Ga3 2.599744 1_554
Ga0 Ga5 2.599744 1_555
Ga0 Sc0 3.309220 1_565
Ga0 Sc0 3.309220 1_655
Ga1 Ga2 2.599744 1_455
Ga1 Ga4 2.599744 1_454
Ga1 Ga3 2.599744 1_554
Ga1 Ga5 2.599744 1_555
Ga1 Sc0 3.309220 1_555
Ga1 Sc0 3.309220 1_565
Ga2 Sc0 3.317235 1_565
Ga2 Sc0 3.317235 1_665
Ga3 Sc0 3.317235 1_556
Ga3 Sc0 3.317235 1_656
Ga4 Sc0 3.317235 1_566
Ga4 Sc0 3.317235 1_666
Ga5 Sc0 3.317235 1_655
Ga5 Sc0 3.317235 1_555
Co0 Ga5 2.476774 1_555
Co0 Ga0 2.521704 1_556
Co0 Ga1 2.521706 1_656
Co0 Ga4 2.529435 1_555
Co0 Ga3 2.549964 1_555
Co0 Ga3 2.549969 1_655
Co0 Co4 2.673990 1_555
Co0 Co5 2.673992 1_655
Co0 Sc0 2.931382 1_656
Co1 Ga4 2.476774 1_555
Co1 Ga0 2.521704 1_555
Co1 Ga1 2.521706 1_555
Co1 Ga5 2.529435 1_555
Co1 Ga2 2.549964 1_555
Co1 Ga2 2.549969 1_455
Co1 Co4 2.673990 1_565
Co1 Co5 2.673992 1_565
Co1 Sc0 2.931382 1_565
Co2 Ga3 2.476774 1_655
Co2 Ga0 2.521704 1_555
Co2 Ga1 2.521706 1_655
Co2 Ga2 2.529435 1_555
Co2 Ga5 2.549964 1_555
Co2 Ga5 2.549969 1_655
Co2 Co5 2.673990 1_655
Co2 Co4 2.673992 1_655
Co2 Sc0 2.931382 1_655
Co3 Ga2 2.476774 1_455
Co3 Ga0 2.521704 1_556
Co3 Ga1 2.521706 1_556
Co3 Ga3 2.529435 1_555
Co3 Ga4 2.549964 1_555
Co3 Ga4 2.549969 1_455
Co3 Co5 2.673990 1_565
Co3 Co4 2.673992 1_465
Co3 Sc0 2.931382 1_566
Co4 Ga2 2.365455 1_545
Co4 Ga3 2.365455 1_555
Co4 Ga4 2.365455 1_545
Co4 Ga5 2.365455 1_555
Co4 Co5 2.444696 1_655
Co4 Co5 2.444696 1_555
Co4 Sc0 3.266411 1_555
Co4 Sc0 3.266411 1_656
Co5 Ga2 2.365455 1_445
Co5 Ga3 2.365455 1_555
Co5 Ga4 2.365455 1_545
Co5 Ga5 2.365455 1_455
Co5 Sc0 3.266411 1_555
Co5 Sc0 3.266411 1_556
