# generated using pymatgen
data_MgTi4(CuO4)3
_symmetry_space_group_name_H-M   'P 1'
_cell_length_a   6.42328018
_cell_length_b   6.48315926
_cell_length_c   6.42328171
_cell_angle_alpha   109.20571077
_cell_angle_beta   109.44609832
_cell_angle_gamma   109.38766706
_symmetry_Int_Tables_number   1
_chemical_formula_structural   MgTi4(CuO4)3
_chemical_formula_sum   'Mg1 Ti4 Cu3 O12'
_cell_volume   206.85524510
_cell_formula_units_Z   1
loop_
 _symmetry_equiv_pos_site_id
 _symmetry_equiv_pos_as_xyz
  1  'x, y, z'
loop_
 _atom_site_type_symbol
 _atom_site_label
 _atom_site_symmetry_multiplicity
 _atom_site_fract_x
 _atom_site_fract_y
 _atom_site_fract_z
 _atom_site_occupancy
  Mg  Mg0  1  0.94544000  0.87380200  0.92836000  1
  Ti  Ti0  1  0.99978700  0.97614400  0.48375800  1
  Ti  Ti1  1  0.98780300  0.45557600  0.98425900  1
  Ti  Ti2  1  0.47131700  0.45557600  0.46777300  1
  Ti  Ti3  1  0.49238700  0.97614400  0.97635700  1
  Cu  Cu0  1  0.50001800  0.48724800  0.98723000  1
  Cu  Cu1  1  0.99405900  0.49032800  0.49626900  1
  Cu  Cu2  1  0.49435600  0.97952100  0.48516500  1
  O  O0  1  0.81787900  0.29695300  0.12316700  1
  O  O1  1  0.17075500  0.69258300  0.86994600  1
  O  O2  1  0.82263700  0.69258300  0.52182900  1
  O  O3  1  0.30643500  0.47289700  0.16646300  1
  O  O4  1  0.47778200  0.16296500  0.29451700  1
  O  O5  1  0.11921000  0.80947800  0.28734400  1
  O  O6  1  0.69937000  0.86144300  0.16207200  1
  O  O7  1  0.52213600  0.80947800  0.69026800  1
  O  O8  1  0.17378600  0.29695300  0.47907100  1
  O  O9  1  0.69625200  0.50656300  0.81031000  1
  O  O10  1  0.86844800  0.16296500  0.68518200  1
  O  O11  1  0.30472600  0.11371600  0.80898900  1
loop_
_geom_bond_atom_site_label_1
_geom_bond_atom_site_label_2
_geom_bond_distance
_geom_bond_site_symmetry_2
Mg0 O9 2.068690 1_555
Mg0 O2 2.194548 1_555
Mg0 O1 2.194561 1_655
Mg0 O7 2.442251 1_555
Mg0 O5 2.442276 1_656
Mg0 O6 2.516579 1_556
Cu0 O3 1.956281 1_556
Cu0 O9 1.959199 1_555
Cu0 O11 1.987864 1_555
Cu0 O6 1.993437 1_556
Cu1 O0 1.967568 1_555
Cu1 O8 1.967568 1_655
Cu1 O2 1.973838 1_555
Cu1 O1 1.973838 1_655
Cu2 O10 1.969979 1_565
Cu2 O4 1.969980 1_565
Cu2 O5 1.977980 1_555
Cu2 O7 1.977981 1_555
O0 Ti1 1.884643 1_554
O0 Ti3 2.023878 1_544
O1 Ti3 1.956124 1_555
O1 Ti1 2.097410 1_455
O2 Ti0 1.956124 1_555
O2 Ti2 2.097407 1_555
O3 Ti2 1.933179 1_555
O3 Ti1 1.933186 1_454
O4 Ti2 1.879647 1_555
O4 Ti3 2.055917 1_544
O5 Ti0 1.909301 1_455
O5 Ti1 2.109055 1_454
O6 Ti3 1.981814 1_554
O6 Ti0 1.981825 1_555
O7 Ti3 1.909305 1_555
O7 Ti2 2.109050 1_555
O8 Ti2 1.884632 1_555
O8 Ti0 2.023891 1_445
O9 Ti2 2.031126 1_555
O9 Ti1 2.031133 1_555
O10 Ti1 1.879651 1_555
O10 Ti0 2.055910 1_545
O11 Ti0 1.971280 1_445
O11 Ti3 1.971291 1_545
