# generated using pymatgen
data_LaTeAs
_symmetry_space_group_name_H-M   'P 1'
_cell_length_a   4.20031510
_cell_length_b   7.93278870
_cell_length_c   10.40206809
_cell_angle_alpha   90.00000000
_cell_angle_beta   90.00000000
_cell_angle_gamma   90.00000000
_symmetry_Int_Tables_number   1
_chemical_formula_structural   LaTeAs
_chemical_formula_sum   'La4 Te4 As4'
_cell_volume   346.59911568
_cell_formula_units_Z   4
loop_
 _symmetry_equiv_pos_site_id
 _symmetry_equiv_pos_as_xyz
  1  'x, y, z'
loop_
 _atom_site_type_symbol
 _atom_site_label
 _atom_site_symmetry_multiplicity
 _atom_site_fract_x
 _atom_site_fract_y
 _atom_site_fract_z
 _atom_site_occupancy
  La  La0  1  0.25000000  0.72335487  0.15566337  1
  La  La1  1  0.75000000  0.27664513  0.84433663  1
  La  La2  1  0.25000000  0.22335487  0.34433663  1
  La  La3  1  0.75000000  0.77664513  0.65566337  1
  Te  Te0  1  0.25000000  0.09250341  0.65155984  1
  Te  Te1  1  0.75000000  0.40749659  0.15155984  1
  Te  Te2  1  0.25000000  0.59250341  0.84844016  1
  Te  Te3  1  0.75000000  0.90749659  0.34844016  1
  As  As0  1  0.75000000  0.41288929  0.53843395  1
  As  As1  1  0.25000000  0.08711071  0.03843395  1
  As  As2  1  0.75000000  0.91288929  0.96156605  1
  As  As3  1  0.25000000  0.58711071  0.46156605  1
loop_
_geom_bond_atom_site_label_1
_geom_bond_atom_site_label_2
_geom_bond_distance
_geom_bond_site_symmetry_2
La0 Te3 3.250479 1_455
La0 Te3 3.250479 1_555
La0 Te1 3.269664 1_555
La0 Te1 3.269664 1_455
La0 Te2 3.360110 1_554
La1 Te0 3.250479 1_555
La1 Te0 3.250479 1_655
La1 Te2 3.269664 1_655
La1 Te2 3.269664 1_555
La1 Te1 3.360110 1_556
La2 Te1 3.250479 1_455
La2 Te1 3.250479 1_555
La2 Te3 3.269664 1_445
La2 Te3 3.269664 1_545
La2 Te0 3.360110 1_555
La3 Te2 3.250479 1_655
La3 Te2 3.250479 1_555
La3 Te0 3.269664 1_565
La3 Te0 3.269664 1_665
La3 Te3 3.360110 1_555
As0 As3 2.638199 1_555
As0 As3 2.638199 1_655
As0 La3 3.132680 1_555
As0 La2 3.278368 1_655
As0 La2 3.278368 1_555
As0 La1 3.360562 1_555
As1 As2 2.638199 1_444
As1 As2 2.638199 1_544
As1 La0 3.132680 1_545
As1 La1 3.278368 1_454
As1 La1 3.278368 1_554
As1 La2 3.360562 1_555
As2 La1 3.132680 1_565
As2 La0 3.278368 1_556
As2 La0 3.278368 1_656
As2 La3 3.360562 1_555
As3 La2 3.132680 1_555
As3 La3 3.278368 1_555
As3 La3 3.278368 1_455
As3 La0 3.360562 1_555
