# generated using pymatgen
data_Ba2SrMnO6
_symmetry_space_group_name_H-M   'P 1'
_cell_length_a   8.59920566
_cell_length_b   8.59920566
_cell_length_c   8.59920566
_cell_angle_alpha   90.00000000
_cell_angle_beta   90.00000000
_cell_angle_gamma   90.00000000
_symmetry_Int_Tables_number   1
_chemical_formula_structural   Ba2SrMnO6
_chemical_formula_sum   'Ba8 Sr4 Mn4 O24'
_cell_volume   635.87976812
_cell_formula_units_Z   4
loop_
 _symmetry_equiv_pos_site_id
 _symmetry_equiv_pos_as_xyz
  1  'x, y, z'
loop_
 _atom_site_type_symbol
 _atom_site_label
 _atom_site_symmetry_multiplicity
 _atom_site_fract_x
 _atom_site_fract_y
 _atom_site_fract_z
 _atom_site_occupancy
  Ba  Ba0  1  0.50000000  0.50000000  0.50000000  1
  Ba  Ba1  1  -0.00000000  -0.00000000  0.00000000  1
  Ba  Ba2  1  -0.00000000  -0.00000000  0.50000000  1
  Ba  Ba3  1  -0.00000000  0.50000000  -0.00000000  1
  Ba  Ba4  1  0.50000000  -0.00000000  -0.00000000  1
  Ba  Ba5  1  0.50000000  0.50000000  0.00000000  1
  Ba  Ba6  1  0.50000000  -0.00000000  0.50000000  1
  Ba  Ba7  1  -0.00000000  0.50000000  0.50000000  1
  Sr  Sr0  1  0.25000000  0.25000000  0.25000000  1
  Sr  Sr1  1  0.25000000  0.75000000  0.75000000  1
  Sr  Sr2  1  0.75000000  0.25000000  0.75000000  1
  Sr  Sr3  1  0.75000000  0.75000000  0.25000000  1
  Mn  Mn0  1  0.75000000  0.75000000  0.75000000  1
  Mn  Mn1  1  0.75000000  0.25000000  0.25000000  1
  Mn  Mn2  1  0.25000000  0.75000000  0.25000000  1
  Mn  Mn3  1  0.25000000  0.25000000  0.75000000  1
  O  O0  1  0.23157353  0.27019025  0.52922102  1
  O  O1  1  0.23157353  0.72980975  0.47077898  1
  O  O2  1  0.76842647  0.27019025  0.47077898  1
  O  O3  1  0.76842647  0.72980975  0.52922102  1
  O  O4  1  0.27019025  0.52922102  0.23157353  1
  O  O5  1  0.72980975  0.47077898  0.23157353  1
  O  O6  1  0.27019025  0.47077898  0.76842647  1
  O  O7  1  0.72980975  0.52922102  0.76842647  1
  O  O8  1  0.52922102  0.23157353  0.27019025  1
  O  O9  1  0.47077898  0.23157353  0.72980975  1
  O  O10  1  0.47077898  0.76842647  0.27019025  1
  O  O11  1  0.52922102  0.76842647  0.72980975  1
  O  O12  1  0.26842647  0.22980975  0.97077898  1
  O  O13  1  0.26842647  0.77019025  0.02922102  1
  O  O14  1  0.73157353  0.22980975  0.02922102  1
  O  O15  1  0.73157353  0.77019025  0.97077898  1
  O  O16  1  0.22980975  0.97077898  0.26842647  1
  O  O17  1  0.77019025  0.02922102  0.26842647  1
  O  O18  1  0.22980975  0.02922102  0.73157353  1
  O  O19  1  0.77019025  0.97077898  0.73157353  1
  O  O20  1  0.97077898  0.26842647  0.22980975  1
  O  O21  1  0.02922102  0.26842647  0.77019025  1
  O  O22  1  0.02922102  0.73157353  0.22980975  1
  O  O23  1  0.97077898  0.73157353  0.77019025  1
loop_
_geom_bond_atom_site_label_1
_geom_bond_atom_site_label_2
_geom_bond_distance
_geom_bond_site_symmetry_2
Ba0 O6 3.049012 1_555
Ba0 O4 3.049012 1_555
Ba0 O3 3.049012 1_555
Ba0 O11 3.049012 1_555
Ba0 O1 3.049012 1_555
Ba0 O8 3.049012 1_555
Ba0 O2 3.049012 1_555
Ba0 O5 3.049012 1_555
Ba0 O7 3.049012 1_555
Ba0 O9 3.049012 1_555
Ba0 O10 3.049012 1_555
Ba0 O0 3.049012 1_555
Ba1 O14 3.049012 1_455
Ba1 O16 3.049012 1_545
Ba1 O22 3.049012 1_545
Ba1 O21 3.049012 1_554
Ba1 O23 3.049012 1_444
Ba1 O18 3.049012 1_554
Ba1 O12 3.049012 1_554
Ba1 O13 3.049012 1_545
Ba1 O15 3.049012 1_444
Ba1 O19 3.049012 1_444
Ba1 O20 3.049012 1_455
Ba1 O17 3.049012 1_455
Ba2 O17 2.816718 1_455
Ba2 O19 2.816718 1_445
Ba2 O16 2.816718 1_545
Ba2 O18 2.816718 1_555
Ba2 O1 3.070325 1_545
Ba2 O3 3.070325 1_445
Ba2 O0 3.070325 1_555
Ba2 O2 3.070325 1_455
Ba2 O20 3.284732 1_455
Ba2 O22 3.284732 1_545
Ba2 O21 3.284732 1_555
Ba2 O23 3.284732 1_445
Ba3 O23 2.816718 1_454
Ba3 O22 2.816718 1_555
Ba3 O20 2.816718 1_455
Ba3 O21 2.816718 1_554
Ba3 O5 3.070325 1_455
Ba3 O7 3.070325 1_454
Ba3 O4 3.070325 1_555
Ba3 O6 3.070325 1_554
Ba3 O14 3.284732 1_455
Ba3 O15 3.284732 1_454
Ba3 O12 3.284732 1_554
Ba3 O13 3.284732 1_555
Ba4 O15 2.816718 1_544
Ba4 O14 2.816718 1_555
Ba4 O12 2.816718 1_554
Ba4 O13 2.816718 1_545
Ba4 O9 3.070325 1_554
Ba4 O11 3.070325 1_544
Ba4 O8 3.070325 1_555
Ba4 O10 3.070325 1_545
Ba4 O17 3.284732 1_555
Ba4 O19 3.284732 1_544
Ba4 O16 3.284732 1_545
Ba4 O18 3.284732 1_554
Ba5 O4 2.816718 1_555
Ba5 O6 2.816718 1_554
Ba5 O7 2.816718 1_554
Ba5 O5 2.816718 1_555
Ba5 O13 3.070325 1_555
Ba5 O15 3.070325 1_554
Ba5 O12 3.070325 1_554
Ba5 O14 3.070325 1_555
Ba5 O11 3.284732 1_554
Ba5 O8 3.284732 1_555
Ba5 O9 3.284732 1_554
Ba5 O10 3.284732 1_555
Ba6 O8 2.816718 1_555
Ba6 O10 2.816718 1_545
Ba6 O9 2.816718 1_555
Ba6 O11 2.816718 1_545
Ba6 O19 3.070325 1_545
Ba6 O17 3.070325 1_555
Ba6 O16 3.070325 1_545
Ba6 O18 3.070325 1_555
Ba6 O3 3.284732 1_545
Ba6 O2 3.284732 1_555
Ba6 O1 3.284732 1_545
Ba6 O0 3.284732 1_555
Ba7 O0 2.816718 1_555
Ba7 O2 2.816718 1_455
Ba7 O3 2.816718 1_455
Ba7 O1 2.816718 1_555
Ba7 O22 3.070325 1_555
Ba7 O23 3.070325 1_455
Ba7 O20 3.070325 1_455
Ba7 O21 3.070325 1_555
Ba7 O5 3.284732 1_455
Ba7 O7 3.284732 1_455
Ba7 O4 3.284732 1_555
Ba7 O6 3.284732 1_555
Mn0 O11 1.913020 1_555
Mn0 O15 1.913020 1_555
Mn0 O7 1.913020 1_555
Mn0 O19 1.913020 1_555
Mn0 O3 1.913020 1_555
Mn0 O23 1.913020 1_555
Mn1 O8 1.913020 1_555
Mn1 O20 1.913020 1_555
Mn1 O2 1.913020 1_555
Mn1 O17 1.913020 1_555
Mn1 O5 1.913020 1_555
Mn1 O14 1.913020 1_555
Mn2 O16 1.913020 1_555
Mn2 O4 1.913020 1_555
Mn2 O1 1.913020 1_555
Mn2 O22 1.913020 1_555
Mn2 O13 1.913020 1_555
Mn2 O10 1.913020 1_555
Mn3 O0 1.913020 1_555
Mn3 O12 1.913020 1_555
Mn3 O21 1.913020 1_555
Mn3 O6 1.913020 1_555
Mn3 O18 1.913020 1_555
Mn3 O9 1.913020 1_555
O0 Sr0 2.412557 1_555
O1 Sr1 2.412557 1_555
O2 Sr2 2.412557 1_555
O3 Sr3 2.412557 1_555
O4 Sr0 2.412557 1_555
O5 Sr3 2.412557 1_555
O6 Sr1 2.412557 1_555
O7 Sr2 2.412557 1_555
O8 Sr0 2.412557 1_555
O9 Sr2 2.412557 1_555
O10 Sr3 2.412557 1_555
O11 Sr1 2.412557 1_555
O12 Sr0 2.412557 1_556
O13 Sr1 2.412557 1_554
O14 Sr2 2.412557 1_554
O15 Sr3 2.412557 1_556
O16 Sr0 2.412557 1_565
O17 Sr3 2.412557 1_545
O18 Sr1 2.412557 1_545
O19 Sr2 2.412557 1_565
O20 Sr0 2.412557 1_655
O21 Sr2 2.412557 1_455
O22 Sr3 2.412557 1_455
O23 Sr1 2.412557 1_655
