# generated using pymatgen
data_Eu2As2O5
_symmetry_space_group_name_H-M   'P 1'
_cell_length_a   4.18174300
_cell_length_b   4.18174300
_cell_length_c   7.26419000
_cell_angle_alpha   90.00000000
_cell_angle_beta   90.00000000
_cell_angle_gamma   90.00000000
_symmetry_Int_Tables_number   1
_chemical_formula_structural   Eu2As2O5
_chemical_formula_sum   'Eu2 As2 O5'
_cell_volume   127.02870542
_cell_formula_units_Z   1
loop_
 _symmetry_equiv_pos_site_id
 _symmetry_equiv_pos_as_xyz
  1  'x, y, z'
loop_
 _atom_site_type_symbol
 _atom_site_label
 _atom_site_symmetry_multiplicity
 _atom_site_fract_x
 _atom_site_fract_y
 _atom_site_fract_z
 _atom_site_occupancy
  Eu  Eu0  1  0.00000000  0.00000000  0.00000000  1
  Eu  Eu1  1  0.00000000  0.00000000  0.50000000  1
  As  As0  1  0.50000000  0.50000000  0.23420900  1
  As  As1  1  0.50000000  0.50000000  0.76579100  1
  O  O0  1  0.50000000  0.00000000  0.23281700  1
  O  O1  1  0.50000000  0.00000000  0.76718300  1
  O  O2  1  0.50000000  0.50000000  0.50000000  1
  O  O3  1  0.00000000  0.50000000  0.23281700  1
  O  O4  1  0.00000000  0.50000000  0.76718300  1
loop_
_geom_bond_atom_site_label_1
_geom_bond_atom_site_label_2
_geom_bond_distance
_geom_bond_site_symmetry_2
Eu0 O4 2.689236 1_554
Eu0 O1 2.689236 1_554
Eu0 O3 2.689236 1_545
Eu0 O0 2.689236 1_455
Eu0 O1 2.689236 1_454
Eu0 O4 2.689236 1_544
Eu0 O0 2.689236 1_555
Eu0 O3 2.689236 1_555
Eu1 O4 2.852843 1_545
Eu1 O1 2.852843 1_455
Eu1 O4 2.852843 1_555
Eu1 O1 2.852843 1_555
Eu1 O3 2.852843 1_545
Eu1 O0 2.852843 1_455
Eu1 O3 2.852843 1_555
Eu1 O0 2.852843 1_555
Eu1 O2 2.956939 1_545
Eu1 O2 2.956939 1_555
Eu1 O2 2.956939 1_445
Eu1 O2 2.956939 1_455
As0 O2 1.930756 1_555
As0 O3 2.090896 1_555
As0 O0 2.090896 1_555
As0 O0 2.090896 1_565
As0 O3 2.090896 1_655
As1 O2 1.930756 1_555
As1 O1 2.090896 1_565
As1 O1 2.090896 1_555
As1 O4 2.090896 1_555
As1 O4 2.090896 1_655
