# generated using pymatgen
data_NaAlSiO4
_symmetry_space_group_name_H-M   'P 1'
_cell_length_a   2.76638300
_cell_length_b   8.77476300
_cell_length_c   10.22237500
_cell_angle_alpha   90.00000000
_cell_angle_beta   90.00000000
_cell_angle_gamma   90.00000000
_symmetry_Int_Tables_number   1
_chemical_formula_structural   NaAlSiO4
_chemical_formula_sum   'Na4 Al4 Si4 O16'
_cell_volume   248.14156166
_cell_formula_units_Z   4
loop_
 _symmetry_equiv_pos_site_id
 _symmetry_equiv_pos_as_xyz
  1  'x, y, z'
loop_
 _atom_site_type_symbol
 _atom_site_label
 _atom_site_symmetry_multiplicity
 _atom_site_fract_x
 _atom_site_fract_y
 _atom_site_fract_z
 _atom_site_occupancy
  Na  Na0  1  0.25000000  0.73880000  0.16220400  1
  Na  Na1  1  0.25000000  0.23880000  0.33779600  1
  Na  Na2  1  0.75000000  0.25671800  0.84639800  1
  Na  Na3  1  0.75000000  0.75671800  0.65360200  1
  Al  Al0  1  0.75000000  0.93399200  0.88869800  1
  Al  Al1  1  0.75000000  0.43399200  0.61130200  1
  Al  Al2  1  0.75000000  0.92183300  0.39743500  1
  Al  Al3  1  0.75000000  0.42183300  0.10256500  1
  Si  Si0  1  0.25000000  0.05283100  0.11120000  1
  Si  Si1  1  0.25000000  0.55283100  0.38880000  1
  Si  Si2  1  0.25000000  0.08631900  0.59989900  1
  Si  Si3  1  0.25000000  0.58631900  0.90010100  1
  O  O0  1  0.25000000  0.78932000  0.85108200  1
  O  O1  1  0.25000000  0.28932000  0.64891800  1
  O  O2  1  0.75000000  0.19101500  0.14277300  1
  O  O3  1  0.75000000  0.69101500  0.35722700  1
  O  O4  1  0.25000000  0.07129900  0.93606600  1
  O  O5  1  0.25000000  0.57129900  0.56393400  1
  O  O6  1  0.75000000  0.92410700  0.08029200  1
  O  O7  1  0.75000000  0.42410700  0.41970800  1
  O  O8  1  0.25000000  0.89832100  0.52023900  1
  O  O9  1  0.25000000  0.39832100  0.97976100  1
  O  O10  1  0.75000000  0.12279400  0.48860200  1
  O  O11  1  0.75000000  0.62279400  0.01139800  1
  O  O12  1  0.75000000  0.03284900  0.70904400  1
  O  O13  1  0.75000000  0.53284900  0.79095600  1
  O  O14  1  0.25000000  0.97980300  0.28099000  1
  O  O15  1  0.25000000  0.47980300  0.21901000  1
loop_
_geom_bond_atom_site_label_1
_geom_bond_atom_site_label_2
_geom_bond_distance
_geom_bond_site_symmetry_2
Na0 O6 2.293100 1_555
Na0 O6 2.293100 1_455
Na0 O11 2.307793 1_455
Na0 O11 2.307793 1_555
Na0 O15 2.345652 1_555
Na0 O14 2.438567 1_555
Na0 O3 2.462411 1_455
Na0 O3 2.462411 1_555
Na1 O7 2.293100 1_555
Na1 O7 2.293100 1_455
Na1 O10 2.307793 1_455
Na1 O10 2.307793 1_555
Na1 O14 2.345652 1_545
Na1 O15 2.438567 1_555
Na1 O2 2.462411 1_555
Na1 O2 2.462411 1_455
Na2 O9 2.305571 1_655
Na2 O9 2.305571 1_555
Na2 O4 2.323912 1_555
Na2 O4 2.323912 1_655
Na2 O12 2.414603 1_555
Na2 O1 2.463791 1_655
Na2 O1 2.463791 1_555
Na2 O13 2.488384 1_555
Na3 O8 2.305571 1_555
Na3 O8 2.305571 1_655
Na3 O5 2.323912 1_555
Na3 O5 2.323912 1_655
Na3 O13 2.414603 1_555
Na3 O0 2.463791 1_655
Na3 O0 2.463791 1_555
Na3 O12 2.488384 1_565
Al0 O4 1.897185 1_565
Al0 O4 1.897185 1_665
Al0 O0 1.916406 1_655
Al0 O0 1.916406 1_555
Al0 O6 1.960465 1_556
Al0 O12 2.031049 1_565
Al1 O5 1.897185 1_655
Al1 O5 1.897185 1_555
Al1 O1 1.916406 1_655
Al1 O1 1.916406 1_555
Al1 O7 1.960465 1_555
Al1 O13 2.031049 1_555
Al2 O8 1.879277 1_555
Al2 O8 1.879277 1_655
Al2 O14 1.894436 1_655
Al2 O14 1.894436 1_555
Al2 O10 1.994504 1_565
Al2 O3 2.066658 1_555
Al3 O9 1.879277 1_654
Al3 O9 1.879277 1_554
Al3 O15 1.894436 1_655
Al3 O15 1.894436 1_555
Al3 O11 1.994504 1_555
Al3 O2 2.066658 1_555
O0 Si3 1.850424 1_555
O1 Si2 1.850424 1_555
O2 Si0 1.867517 1_555
O2 Si0 1.867517 1_655
O3 Si1 1.867517 1_555
O3 Si1 1.867517 1_655
O4 Si0 1.797605 1_556
O5 Si1 1.797605 1_555
O6 Si0 1.813523 1_565
O6 Si0 1.813523 1_665
O7 Si1 1.813523 1_555
O7 Si1 1.813523 1_655
O8 Si2 1.839677 1_565
O9 Si3 1.839677 1_555
O10 Si2 1.819358 1_655
O10 Si2 1.819358 1_555
O11 Si3 1.819358 1_554
O11 Si3 1.819358 1_654
O12 Si2 1.837985 1_555
O12 Si2 1.837985 1_655
O13 Si3 1.837985 1_555
O13 Si3 1.837985 1_655
O14 Si0 1.850171 1_565
O15 Si1 1.850171 1_555
