# generated using pymatgen
data_Li2Mn3F8
_symmetry_space_group_name_H-M   'P 1'
_cell_length_a   5.38303100
_cell_length_b   5.80088178
_cell_length_c   6.12272542
_cell_angle_alpha   108.31619177
_cell_angle_beta   89.79731708
_cell_angle_gamma   116.77367434
_symmetry_Int_Tables_number   1
_chemical_formula_structural   Li2Mn3F8
_chemical_formula_sum   'Li2 Mn3 F8'
_cell_volume   159.88217295
_cell_formula_units_Z   1
loop_
 _symmetry_equiv_pos_site_id
 _symmetry_equiv_pos_as_xyz
  1  'x, y, z'
loop_
 _atom_site_type_symbol
 _atom_site_label
 _atom_site_symmetry_multiplicity
 _atom_site_fract_x
 _atom_site_fract_y
 _atom_site_fract_z
 _atom_site_occupancy
  Li  Li0  1  0.43902900  0.90471900  0.25233900  1
  Li  Li1  1  0.56097100  0.09528100  0.74766100  1
  Mn  Mn0  1  0.00000000  0.00000000  0.00000000  1
  Mn  Mn1  1  0.23013000  0.46253000  0.64560800  1
  Mn  Mn2  1  0.76987000  0.53747000  0.35439200  1
  F  F0  1  0.21228000  0.75676500  0.94783000  1
  F  F1  1  0.21567000  0.72866400  0.45734500  1
  F  F2  1  0.31893200  0.23659300  0.31936600  1
  F  F3  1  0.28482800  0.22279500  0.81215100  1
  F  F4  1  0.71517200  0.77720500  0.18784900  1
  F  F5  1  0.68106800  0.76340700  0.68063400  1
  F  F6  1  0.78433000  0.27133600  0.54265500  1
  F  F7  1  0.78772000  0.24323500  0.05217000  1
loop_
_geom_bond_atom_site_label_1
_geom_bond_atom_site_label_2
_geom_bond_distance
_geom_bond_site_symmetry_2
F0 Li0 1.941417 1_556
F0 Mn1 2.123194 1_555
F0 Mn0 2.136687 1_566
F1 Li0 1.937240 1_555
F1 Mn2 2.135337 1_455
F1 Mn1 2.223839 1_555
F1 Li1 2.285483 1_565
F2 Mn1 2.201925 1_555
F2 Mn0 2.206540 1_555
F2 Li0 2.217083 1_545
F2 Mn2 2.221717 1_555
F3 Li1 1.927587 1_555
F3 Mn1 2.079127 1_555
F3 Mn0 2.116721 1_556
F4 Li0 1.927587 1_555
F4 Mn2 2.079127 1_555
F4 Mn0 2.116721 1_665
F5 Mn2 2.201925 1_555
F5 Mn0 2.206540 1_666
F5 Li1 2.217083 1_565
F5 Mn1 2.221717 1_555
F6 Li1 1.937240 1_555
F6 Mn1 2.135337 1_655
F6 Mn2 2.223839 1_555
F6 Li0 2.285483 1_545
F7 Li1 1.941417 1_554
F7 Mn2 2.123194 1_555
F7 Mn0 2.136687 1_655
