# generated using pymatgen
data_Ba2ZnO6
_symmetry_space_group_name_H-M   'P 1'
_cell_length_a   6.64382800
_cell_length_b   5.52237900
_cell_length_c   8.65331747
_cell_angle_alpha   87.79031852
_cell_angle_beta   90.00000000
_cell_angle_gamma   90.00000000
_symmetry_Int_Tables_number   1
_chemical_formula_structural   Ba2ZnO6
_chemical_formula_sum   'Ba4 Zn2 O12'
_cell_volume   317.25185645
_cell_formula_units_Z   2
loop_
 _symmetry_equiv_pos_site_id
 _symmetry_equiv_pos_as_xyz
  1  'x, y, z'
loop_
 _atom_site_type_symbol
 _atom_site_label
 _atom_site_symmetry_multiplicity
 _atom_site_fract_x
 _atom_site_fract_y
 _atom_site_fract_z
 _atom_site_occupancy
  Ba  Ba0  1  0.40042500  0.77809200  0.49270000  1
  Ba  Ba1  1  0.90042500  0.22190800  0.50730000  1
  Ba  Ba2  1  0.56424200  0.71912100  0.01055900  1
  Ba  Ba3  1  0.06424200  0.28087900  0.98944100  1
  Zn  Zn0  1  0.98754500  0.74848400  0.24930100  1
  Zn  Zn1  1  0.48754500  0.25151600  0.75069900  1
  O  O0  1  0.68021400  0.98119300  0.73966700  1
  O  O1  1  0.18021400  0.01880700  0.26033300  1
  O  O2  1  0.79462000  0.47431700  0.23301600  1
  O  O3  1  0.29462000  0.52568300  0.76698400  1
  O  O4  1  0.97004600  0.72499600  0.48063500  1
  O  O5  1  0.47004600  0.27500400  0.51936500  1
  O  O6  1  0.72458600  0.87765700  0.30226600  1
  O  O7  1  0.22458600  0.12234300  0.69773400  1
  O  O8  1  0.24713700  0.60231200  0.20596700  1
  O  O9  1  0.74713700  0.39768800  0.79403300  1
  O  O10  1  0.00378500  0.78088700  0.01768500  1
  O  O11  1  0.50378500  0.21911300  0.98231500  1
loop_
_geom_bond_atom_site_label_1
_geom_bond_atom_site_label_2
_geom_bond_distance
_geom_bond_site_symmetry_2
Ba0 O6 2.754319 1_555
Ba0 O1 2.782906 1_565
Ba0 O3 2.795588 1_555
Ba0 O5 2.801126 1_565
Ba0 O5 2.817160 1_555
Ba0 O4 2.876665 1_455
Ba0 O8 2.884705 1_555
Ba0 O7 2.896012 1_565
Ba0 O0 3.076581 1_555
Ba1 O7 2.754319 1_655
Ba1 O0 2.782906 1_545
Ba1 O2 2.795588 1_555
Ba1 O4 2.801126 1_545
Ba1 O4 2.817160 1_555
Ba1 O5 2.876665 1_555
Ba1 O9 2.884705 1_555
Ba1 O6 2.896012 1_545
Ba1 O1 3.076581 1_655
Ba2 O8 2.762209 1_555
Ba2 O2 2.770425 1_555
Ba2 O11 2.791586 1_564
Ba2 O11 2.810253 1_554
Ba2 O0 2.814515 1_554
Ba2 O9 2.897330 1_554
Ba2 O6 2.905774 1_555
Ba2 O10 2.941023 1_655
Ba2 O3 2.994349 1_554
Ba3 O9 2.762209 1_455
Ba3 O3 2.770425 1_555
Ba3 O10 2.791586 1_546
Ba3 O10 2.810253 1_556
Ba3 O1 2.814515 1_556
Ba3 O8 2.897330 1_556
Ba3 O7 2.905774 1_555
Ba3 O11 2.941023 1_555
Ba3 O2 2.994349 1_456
O0 Zn1 1.971595 1_565
O1 Zn0 1.971595 1_445
O2 Zn0 1.992883 1_555
O3 Zn1 1.992883 1_555
O4 Zn0 2.004382 1_555
O5 Zn1 2.004382 1_555
O6 Zn0 1.948417 1_555
O7 Zn1 1.948417 1_555
O8 Zn0 1.946815 1_455
O9 Zn1 1.946815 1_555
O10 Zn0 2.008236 1_455
O11 Zn1 2.008236 1_555
