# generated using pymatgen
data_Tb6Cu23
_symmetry_space_group_name_H-M   'P 1'
_cell_length_a   8.52524766
_cell_length_b   8.52524766
_cell_length_c   8.52524766
_cell_angle_alpha   60.00000000
_cell_angle_beta   60.00000000
_cell_angle_gamma   60.00000000
_symmetry_Int_Tables_number   1
_chemical_formula_structural   Tb6Cu23
_chemical_formula_sum   'Tb6 Cu23'
_cell_volume   438.13304949
_cell_formula_units_Z   1
loop_
 _symmetry_equiv_pos_site_id
 _symmetry_equiv_pos_as_xyz
  1  'x, y, z'
loop_
 _atom_site_type_symbol
 _atom_site_label
 _atom_site_symmetry_multiplicity
 _atom_site_fract_x
 _atom_site_fract_y
 _atom_site_fract_z
 _atom_site_occupancy
  Tb  Tb0  1  0.71489252  0.28510748  0.28510748  1
  Tb  Tb1  1  0.71489252  0.28510748  0.71489252  1
  Tb  Tb2  1  0.71489252  0.71489252  0.28510748  1
  Tb  Tb3  1  0.28510748  0.71489252  0.71489252  1
  Tb  Tb4  1  0.28510748  0.71489252  0.28510748  1
  Tb  Tb5  1  0.28510748  0.28510748  0.71489252  1
  Cu  Cu0  1  -0.00000000  0.00000000  0.00000000  1
  Cu  Cu1  1  0.50000000  0.00000000  0.00000000  1
  Cu  Cu2  1  0.50000000  0.00000000  0.50000000  1
  Cu  Cu3  1  0.50000000  0.50000000  0.00000000  1
  Cu  Cu4  1  -0.00000000  0.50000000  0.50000000  1
  Cu  Cu5  1  -0.00000000  0.50000000  0.00000000  1
  Cu  Cu6  1  -0.00000000  0.00000000  0.50000000  1
  Cu  Cu7  1  0.63079442  0.12306819  0.12306819  1
  Cu  Cu8  1  0.12306819  0.63079442  0.12306819  1
  Cu  Cu9  1  0.12306819  0.12306819  0.63079442  1
  Cu  Cu10  1  0.12306819  0.12306819  0.12306819  1
  Cu  Cu11  1  0.36920558  0.87693181  0.87693181  1
  Cu  Cu12  1  0.87693181  0.36920558  0.87693181  1
  Cu  Cu13  1  0.87693181  0.87693181  0.36920558  1
  Cu  Cu14  1  0.87693181  0.87693181  0.87693181  1
  Cu  Cu15  1  0.02436306  0.32521198  0.32521198  1
  Cu  Cu16  1  0.32521198  0.02436306  0.32521198  1
  Cu  Cu17  1  0.32521198  0.32521198  0.02436306  1
  Cu  Cu18  1  0.32521198  0.32521198  0.32521198  1
  Cu  Cu19  1  0.97563694  0.67478802  0.67478802  1
  Cu  Cu20  1  0.67478802  0.97563694  0.67478802  1
  Cu  Cu21  1  0.67478802  0.67478802  0.97563694  1
  Cu  Cu22  1  0.67478802  0.67478802  0.67478802  1
loop_
_geom_bond_atom_site_label_1
_geom_bond_atom_site_label_2
_geom_bond_distance
_geom_bond_site_symmetry_2
Cu0 Cu10 2.569972 1_555
Cu0 Cu14 2.569972 1_444
Cu0 Cu9 2.569979 1_554
Cu0 Cu7 2.569979 1_455
Cu0 Cu11 2.569979 1_544
Cu0 Cu8 2.569979 1_545
Cu0 Cu12 2.569979 1_454
Cu0 Cu13 2.569979 1_445
Cu1 Cu20 2.466861 1_544
Cu1 Cu21 2.466861 1_544
Cu1 Cu16 2.466861 1_555
Cu1 Cu17 2.466861 1_555
Cu1 Cu7 2.624029 1_555
Cu1 Cu11 2.624029 1_544
Cu1 Cu14 2.624036 1_544
Cu1 Cu10 2.624036 1_555
Cu1 Tb4 3.043705 1_545
Cu1 Tb5 3.043705 1_554
Cu1 Tb1 3.043705 1_554
Cu1 Tb2 3.043705 1_545
Cu2 Cu22 2.466864 1_545
Cu2 Cu20 2.466868 1_545
Cu2 Cu9 2.624036 1_555
Cu2 Cu7 2.624036 1_555
Cu2 Tb3 3.043705 1_545
Cu2 Tb2 3.043705 1_545
Cu2 Tb0 3.043705 1_555
Cu2 Tb5 3.043705 1_555
Cu3 Cu7 2.624036 1_555
Cu3 Cu8 2.624036 1_555
Cu3 Tb1 3.043705 1_554
Cu3 Tb3 3.043705 1_554
Cu3 Tb0 3.043705 1_555
Cu3 Tb4 3.043705 1_555
Cu4 Cu9 2.624036 1_555
Cu4 Cu8 2.624036 1_555
Cu4 Tb1 3.043705 1_455
Cu4 Tb2 3.043705 1_455
Cu4 Tb4 3.043705 1_555
Cu4 Tb5 3.043705 1_555
Cu5 Cu8 2.624029 1_555
Cu5 Tb0 3.043705 1_455
Cu5 Tb5 3.043705 1_554
Cu5 Tb2 3.043705 1_455
Cu5 Tb3 3.043705 1_554
Cu6 Cu9 2.624029 1_555
Cu6 Tb0 3.043705 1_455
Cu6 Tb4 3.043705 1_545
Cu6 Tb1 3.043705 1_455
Cu6 Tb3 3.043705 1_545
Cu7 Tb1 2.867026 1_554
Cu7 Tb2 2.867026 1_545
Cu7 Tb0 2.867033 1_555
Cu8 Tb3 2.867026 1_554
Cu8 Tb2 2.867026 1_455
Cu8 Tb4 2.867033 1_555
Cu9 Tb3 2.867026 1_545
Cu9 Tb1 2.867026 1_455
Cu9 Tb5 2.867033 1_555
Cu10 Cu16 2.591784 1_555
Cu10 Cu17 2.591784 1_555
Cu10 Cu15 2.591784 1_555
Cu10 Cu6 2.624036 1_555
Cu10 Cu5 2.624036 1_555
Cu10 Tb0 2.867027 1_455
Cu10 Tb5 2.867027 1_554
Cu10 Tb4 2.867027 1_545
Cu10 Cu12 2.967548 1_454
Cu10 Cu11 2.967548 1_544
Cu10 Cu13 2.967548 1_445
Cu11 Cu20 2.591784 1_555
Cu11 Cu21 2.591784 1_555
Cu11 Cu22 2.591784 1_555
Cu11 Cu2 2.624036 1_565
Cu11 Cu3 2.624036 1_556
Cu11 Tb5 2.867026 1_565
Cu11 Tb4 2.867026 1_556
Cu11 Tb3 2.867033 1_555
Cu11 Cu9 2.967561 1_565
Cu11 Cu8 2.967561 1_556
Cu12 Cu21 2.591784 1_555
Cu12 Cu19 2.591784 1_555
Cu12 Cu22 2.591784 1_555
Cu12 Cu5 2.624029 1_656
Cu12 Cu3 2.624036 1_556
Cu12 Cu4 2.624036 1_655
Cu12 Tb0 2.867026 1_556
Cu12 Tb5 2.867026 1_655
Cu12 Tb1 2.867033 1_555
Cu12 Cu9 2.967561 1_655
Cu12 Cu7 2.967561 1_556
Cu13 Cu20 2.591784 1_555
Cu13 Cu19 2.591784 1_555
Cu13 Cu22 2.591784 1_555
Cu13 Cu6 2.624029 1_665
Cu13 Cu2 2.624036 1_565
Cu13 Cu4 2.624036 1_655
Cu13 Tb0 2.867026 1_565
Cu13 Tb4 2.867026 1_655
Cu13 Tb2 2.867033 1_555
Cu13 Cu8 2.967561 1_655
Cu13 Cu7 2.967561 1_565
Cu14 Cu19 2.591784 1_555
Cu14 Cu20 2.591784 1_555
Cu14 Cu21 2.591784 1_555
Cu14 Cu5 2.624036 1_656
Cu14 Cu6 2.624036 1_665
Cu14 Tb1 2.867027 1_565
Cu14 Tb3 2.867027 1_655
Cu14 Tb2 2.867027 1_556
Cu14 Cu8 2.967548 1_656
Cu14 Cu9 2.967548 1_665
Cu14 Cu7 2.967548 1_566
Cu15 Cu6 2.466861 1_555
Cu15 Cu5 2.466861 1_555
Cu15 Cu4 2.466868 1_555
Cu15 Cu18 2.564812 1_555
Cu15 Cu16 2.564812 1_555
Cu15 Cu17 2.564812 1_555
Cu15 Cu9 2.591784 1_555
Cu15 Cu8 2.591784 1_555
Cu15 Tb0 3.019183 1_455
Cu15 Tb1 3.019188 1_455
Cu15 Tb2 3.019188 1_455
Cu16 Cu6 2.466861 1_555
Cu16 Cu2 2.466868 1_555
Cu16 Cu18 2.564812 1_555
Cu16 Cu17 2.564812 1_555
Cu16 Cu9 2.591784 1_555
Cu16 Cu7 2.591784 1_555
Cu16 Tb4 3.019183 1_545
Cu16 Tb2 3.019188 1_545
Cu16 Tb3 3.019188 1_545
Cu17 Cu5 2.466861 1_555
Cu17 Cu3 2.466868 1_555
Cu17 Cu18 2.564812 1_555
Cu17 Cu7 2.591784 1_555
Cu17 Cu8 2.591784 1_555
Cu17 Tb5 3.019183 1_554
Cu17 Tb1 3.019188 1_554
Cu17 Tb3 3.019188 1_554
Cu18 Cu3 2.466864 1_555
Cu18 Cu2 2.466864 1_555
Cu18 Cu4 2.466864 1_555
Cu18 Cu8 2.591784 1_555
Cu18 Cu9 2.591784 1_555
Cu18 Cu7 2.591784 1_555
Cu18 Tb0 3.019192 1_555
Cu18 Tb5 3.019192 1_555
Cu18 Tb4 3.019192 1_555
Cu19 Cu6 2.466861 1_665
Cu19 Cu5 2.466861 1_656
Cu19 Cu4 2.466868 1_655
Cu19 Cu20 2.564812 1_555
Cu19 Cu22 2.564812 1_555
Cu19 Cu21 2.564812 1_555
Cu19 Tb3 3.019183 1_655
Cu19 Tb4 3.019188 1_655
Cu19 Tb5 3.019188 1_655
Cu20 Cu6 2.466861 1_665
Cu20 Cu22 2.564812 1_555
Cu20 Cu21 2.564812 1_555
Cu20 Tb1 3.019183 1_565
Cu20 Tb0 3.019188 1_565
Cu20 Tb5 3.019188 1_565
Cu21 Cu5 2.466861 1_656
Cu21 Cu3 2.466868 1_556
Cu21 Cu22 2.564812 1_555
Cu21 Tb2 3.019183 1_556
Cu21 Tb4 3.019188 1_556
Cu21 Tb0 3.019188 1_556
Cu22 Cu3 2.466864 1_556
Cu22 Cu4 2.466864 1_655
Cu22 Tb3 3.019192 1_555
Cu22 Tb1 3.019192 1_555
Cu22 Tb2 3.019192 1_555
