# generated using pymatgen
data_LiCrPO5
_symmetry_space_group_name_H-M   'P 1'
_cell_length_a   7.13038078
_cell_length_b   6.39915724
_cell_length_c   7.44474002
_cell_angle_alpha   90.01407154
_cell_angle_beta   90.14416617
_cell_angle_gamma   89.97223220
_symmetry_Int_Tables_number   1
_chemical_formula_structural   LiCrPO5
_chemical_formula_sum   'Li4 Cr4 P4 O20'
_cell_volume   339.69065701
_cell_formula_units_Z   4
loop_
 _symmetry_equiv_pos_site_id
 _symmetry_equiv_pos_as_xyz
  1  'x, y, z'
loop_
 _atom_site_type_symbol
 _atom_site_label
 _atom_site_symmetry_multiplicity
 _atom_site_fract_x
 _atom_site_fract_y
 _atom_site_fract_z
 _atom_site_occupancy
  Li  Li0  1  0.99893700  0.00228100  0.99954400  1
  Li  Li1  1  0.49895800  0.50031100  0.50010400  1
  Li  Li2  1  0.49943000  0.99914900  0.49947000  1
  Li  Li3  1  0.99809300  0.49684900  0.99864400  1
  Cr  Cr0  1  0.86167100  0.75002300  0.26942500  1
  Cr  Cr1  1  0.63755600  0.24880000  0.77102700  1
  Cr  Cr2  1  0.36591900  0.74996300  0.22725100  1
  Cr  Cr3  1  0.13966800  0.24909800  0.73048800  1
  P  P0  1  0.12469200  0.74976600  0.62653900  1
  P  P1  1  0.37223900  0.24977100  0.12521800  1
  P  P2  1  0.62967800  0.74968100  0.87323500  1
  P  P3  1  0.87437600  0.24982800  0.37381300  1
  O  O0  1  0.13077700  0.94188400  0.75560000  1
  O  O1  1  0.87076900  0.05870100  0.24575800  1
  O  O2  1  0.87079900  0.44123600  0.24621100  1
  O  O3  1  0.88792400  0.25365200  0.81794500  1
  O  O4  1  0.05642100  0.24930900  0.48580600  1
  O  O5  1  0.13020900  0.75005000  0.17936700  1
  O  O6  1  0.13103800  0.55833100  0.75543100  1
  O  O7  1  0.39049800  0.25270300  0.67608400  1
  O  O8  1  0.19454300  0.24955600  0.00347500  1
  O  O9  1  0.80628300  0.75024000  0.99617300  1
  O  O10  1  0.37100100  0.05871300  0.25255700  1
  O  O11  1  0.37106600  0.44120500  0.25219200  1
  O  O12  1  0.94256200  0.75019800  0.51747400  1
  O  O13  1  0.44880100  0.75010500  0.99051100  1
  O  O14  1  0.55303900  0.24907700  0.01104700  1
  O  O15  1  0.59076000  0.74994500  0.32334500  1
  O  O16  1  0.62722800  0.55842100  0.74773700  1
  O  O17  1  0.62686300  0.94143100  0.74763200  1
  O  O18  1  0.69529100  0.24947500  0.49575300  1
  O  O19  1  0.30291000  0.75023900  0.50514500  1
loop_
_geom_bond_atom_site_label_1
_geom_bond_atom_site_label_2
_geom_bond_distance
_geom_bond_site_symmetry_2
Li0 O1 2.081636 1_556
Li0 O0 2.083079 1_645
Li0 O8 2.109957 1_656
Li0 O9 2.119177 1_545
Li0 O3 2.244167 1_555
Li0 O5 2.294961 1_646
Li1 O16 2.089265 1_555
Li1 O11 2.091067 1_555
Li1 O19 2.124016 1_555
Li1 O18 2.129635 1_555
Li1 O15 2.172178 1_555
Li1 O7 2.198274 1_555
Li2 O10 2.086720 1_565
Li2 O17 2.089708 1_555
Li2 O19 2.122469 1_555
Li2 O18 2.125922 1_565
Li2 O15 2.165331 1_555
Li2 O7 2.228812 1_565
Li3 O6 2.083561 1_655
Li3 O2 2.087212 1_556
Li3 O8 2.113116 1_656
Li3 O9 2.120813 1_555
Li3 O3 2.200812 1_555
Li3 O5 2.305851 1_656
Cr0 O12 1.933255 1_555
Cr0 O15 1.973956 1_555
Cr0 O1 1.984271 1_565
Cr0 O2 1.984528 1_555
Cr0 O5 2.030357 1_655
Cr0 O9 2.071297 1_554
Cr1 O3 1.818485 1_555
Cr1 O14 1.887209 1_556
Cr1 O7 1.896635 1_555
Cr1 O17 1.976048 1_545
Cr1 O16 1.990239 1_555
Cr1 O18 2.091304 1_555
Cr2 O5 1.717214 1_555
Cr2 O15 1.753931 1_555
Cr2 O13 1.860321 1_554
Cr2 O11 1.984855 1_555
Cr2 O10 1.984995 1_565
Cr2 O19 2.118175 1_555
Cr3 O7 1.834951 1_555
Cr3 O3 1.911212 1_455
Cr3 O4 1.914447 1_555
Cr3 O0 1.975889 1_545
Cr3 O6 1.988416 1_555
Cr3 O8 2.068675 1_556
O0 P0 1.560685 1_555
O1 P3 1.550710 1_555
O2 P3 1.550406 1_555
O4 P3 1.540990 1_455
O6 P0 1.556857 1_555
O8 P1 1.555981 1_555
O9 P2 1.554870 1_555
O10 P1 1.547317 1_555
O11 P1 1.547180 1_555
O12 P0 1.529865 1_655
O13 P2 1.559274 1_555
O14 P1 1.545946 1_555
O16 P2 1.539655 1_555
O17 P2 1.543000 1_555
O18 P3 1.568614 1_555
O19 P0 1.561214 1_555
