# generated using pymatgen
data_Sr(ErS2)2
_symmetry_space_group_name_H-M   'P 1'
_cell_length_a   3.95153793
_cell_length_b   11.96759851
_cell_length_c   14.21407658
_cell_angle_alpha   90.00000000
_cell_angle_beta   90.00000000
_cell_angle_gamma   90.00000000
_symmetry_Int_Tables_number   1
_chemical_formula_structural   Sr(ErS2)2
_chemical_formula_sum   'Sr4 Er8 S16'
_cell_volume   672.18964347
_cell_formula_units_Z   4
loop_
 _symmetry_equiv_pos_site_id
 _symmetry_equiv_pos_as_xyz
  1  'x, y, z'
loop_
 _atom_site_type_symbol
 _atom_site_label
 _atom_site_symmetry_multiplicity
 _atom_site_fract_x
 _atom_site_fract_y
 _atom_site_fract_z
 _atom_site_occupancy
  Sr  Sr0  1  0.25000000  0.75847143  0.33735711  1
  Sr  Sr1  1  0.25000000  0.25847143  0.16264289  1
  Sr  Sr2  1  0.75000000  0.24152857  0.66264289  1
  Sr  Sr3  1  0.75000000  0.74152857  0.83735711  1
  Er  Er0  1  0.25000000  0.43441590  0.38964107  1
  Er  Er1  1  0.25000000  0.93441590  0.11035893  1
  Er  Er2  1  0.75000000  0.56558410  0.61035893  1
  Er  Er3  1  0.75000000  0.06558410  0.88964107  1
  Er  Er4  1  0.25000000  0.41849951  0.89968368  1
  Er  Er5  1  0.25000000  0.91849951  0.60031632  1
  Er  Er6  1  0.75000000  0.58150049  0.10031632  1
  Er  Er7  1  0.75000000  0.08150049  0.39968368  1
  S  S0  1  0.25000000  0.20636227  0.82875128  1
  S  S1  1  0.25000000  0.70636227  0.67124872  1
  S  S2  1  0.75000000  0.79363773  0.17124872  1
  S  S3  1  0.75000000  0.29363773  0.32875128  1
  S  S4  1  0.25000000  0.12806235  0.52728026  1
  S  S5  1  0.25000000  0.62806235  0.97271974  1
  S  S6  1  0.75000000  0.87193765  0.47271974  1
  S  S7  1  0.75000000  0.37193765  0.02728026  1
  S  S8  1  0.25000000  0.02453053  0.28402275  1
  S  S9  1  0.25000000  0.52453053  0.21597725  1
  S  S10  1  0.75000000  0.97546947  0.71597725  1
  S  S11  1  0.75000000  0.47546947  0.78402275  1
  S  S12  1  0.25000000  0.41391004  0.57746614  1
  S  S13  1  0.25000000  0.91391004  0.92253386  1
  S  S14  1  0.75000000  0.58608996  0.42253386  1
  S  S15  1  0.75000000  0.08608996  0.07746614  1
loop_
_geom_bond_atom_site_label_1
_geom_bond_atom_site_label_2
_geom_bond_distance
_geom_bond_site_symmetry_2
Er0 S12 2.681015 1_555
Er0 S9 2.693773 1_555
Er0 S14 2.723438 1_555
Er0 S14 2.723438 1_455
Er0 S3 2.737008 1_555
Er0 S3 2.737008 1_455
Er1 S13 2.681015 1_554
Er1 S8 2.693773 1_565
Er1 S15 2.723438 1_465
Er1 S15 2.723438 1_565
Er1 S2 2.737008 1_455
Er1 S2 2.737008 1_555
Er2 S14 2.681015 1_555
Er2 S11 2.693773 1_555
Er2 S12 2.723438 1_655
Er2 S12 2.723438 1_555
Er2 S1 2.737008 1_655
Er2 S1 2.737008 1_555
Er3 S15 2.681015 1_556
Er3 S10 2.693773 1_545
Er3 S13 2.723438 1_545
Er3 S13 2.723438 1_645
Er3 S0 2.737008 1_655
Er3 S0 2.737008 1_555
Er4 S11 2.659189 1_555
Er4 S11 2.659189 1_455
Er4 S5 2.714336 1_555
Er4 S0 2.731651 1_555
Er4 S7 2.739263 1_456
Er4 S7 2.739263 1_556
Er5 S10 2.659189 1_555
Er5 S10 2.659189 1_455
Er5 S4 2.714336 1_565
Er5 S1 2.731651 1_555
Er5 S6 2.739263 1_455
Er5 S6 2.739263 1_555
Er6 S9 2.659189 1_655
Er6 S9 2.659189 1_555
Er6 S7 2.714336 1_555
Er6 S2 2.731651 1_555
Er6 S5 2.739263 1_554
Er6 S5 2.739263 1_654
Er7 S8 2.659189 1_655
Er7 S8 2.659189 1_555
Er7 S6 2.714336 1_545
Er7 S3 2.731651 1_555
Er7 S4 2.739263 1_555
Er7 S4 2.739263 1_655
S0 Sr2 3.107325 1_555
S0 Sr2 3.107325 1_455
S1 Sr3 3.107325 1_455
S1 Sr3 3.107325 1_555
S2 Sr0 3.107325 1_655
S2 Sr0 3.107325 1_555
S3 Sr1 3.107325 1_655
S3 Sr1 3.107325 1_555
S4 Sr2 3.074019 1_455
S4 Sr2 3.074019 1_555
S5 Sr3 3.074019 1_455
S5 Sr3 3.074019 1_555
S6 Sr0 3.074019 1_655
S6 Sr0 3.074019 1_555
S7 Sr1 3.074019 1_655
S7 Sr1 3.074019 1_555
S8 Sr0 3.273092 1_545
S8 Sr1 3.288624 1_555
S9 Sr1 3.273092 1_555
S9 Sr0 3.288624 1_555
S10 Sr2 3.273092 1_565
S10 Sr3 3.288624 1_555
S11 Sr3 3.273092 1_555
S11 Sr2 3.288624 1_555
S12 Sr2 3.102485 1_455
S12 Sr2 3.102485 1_555
S13 Sr3 3.102485 1_455
S13 Sr3 3.102485 1_555
S14 Sr0 3.102485 1_655
S14 Sr0 3.102485 1_555
S15 Sr1 3.102485 1_655
S15 Sr1 3.102485 1_555
