# generated using pymatgen
data_MgBi3O7
_symmetry_space_group_name_H-M   'P 1'
_cell_length_a   5.60390200
_cell_length_b   10.80786000
_cell_length_c   10.82931100
_cell_angle_alpha   90.00000000
_cell_angle_beta   90.00000000
_cell_angle_gamma   90.00000000
_symmetry_Int_Tables_number   1
_chemical_formula_structural   MgBi3O7
_chemical_formula_sum   'Mg4 Bi12 O28'
_cell_volume   655.89008886
_cell_formula_units_Z   4
loop_
 _symmetry_equiv_pos_site_id
 _symmetry_equiv_pos_as_xyz
  1  'x, y, z'
loop_
 _atom_site_type_symbol
 _atom_site_label
 _atom_site_symmetry_multiplicity
 _atom_site_fract_x
 _atom_site_fract_y
 _atom_site_fract_z
 _atom_site_occupancy
  Mg  Mg0  1  0.30955600  0.13810300  0.25000000  1
  Mg  Mg1  1  0.80955600  0.36189700  0.75000000  1
  Mg  Mg2  1  0.69044400  0.86189700  0.75000000  1
  Mg  Mg3  1  0.19044400  0.63810300  0.25000000  1
  Bi  Bi0  1  0.68366500  0.62793200  0.01652900  1
  Bi  Bi1  1  0.18366500  0.87206800  0.98347100  1
  Bi  Bi2  1  0.31633500  0.37206800  0.51652900  1
  Bi  Bi3  1  0.81633500  0.12793200  0.48347100  1
  Bi  Bi4  1  0.73192400  0.85958900  0.25000000  1
  Bi  Bi5  1  0.23192400  0.64041100  0.75000000  1
  Bi  Bi6  1  0.26807600  0.14041100  0.75000000  1
  Bi  Bi7  1  0.76807600  0.35958900  0.25000000  1
  Bi  Bi8  1  0.18366500  0.87206800  0.51652900  1
  Bi  Bi9  1  0.68366500  0.62793200  0.48347100  1
  Bi  Bi10  1  0.81633500  0.12793200  0.01652900  1
  Bi  Bi11  1  0.31633500  0.37206800  0.98347100  1
  O  O0  1  0.01402100  0.22991200  0.87101800  1
  O  O1  1  0.51402100  0.27008800  0.12898200  1
  O  O2  1  0.98597900  0.77008800  0.37101800  1
  O  O3  1  0.48597900  0.72991200  0.62898200  1
  O  O4  1  0.98597900  0.77008800  0.12898200  1
  O  O5  1  0.48597900  0.72991200  0.87101800  1
  O  O6  1  0.01402100  0.22991200  0.62898200  1
  O  O7  1  0.51402100  0.27008800  0.37101800  1
  O  O8  1  0.50999600  0.20911200  0.88105300  1
  O  O9  1  0.00999600  0.29088800  0.11894700  1
  O  O10  1  0.49000400  0.79088800  0.38105300  1
  O  O11  1  0.99000400  0.70911200  0.61894700  1
  O  O12  1  0.49000400  0.79088800  0.11894700  1
  O  O13  1  0.99000400  0.70911200  0.88105300  1
  O  O14  1  0.50999600  0.20911200  0.61894700  1
  O  O15  1  0.00999600  0.29088800  0.38105300  1
  O  O16  1  0.84265300  0.54754400  0.25000000  1
  O  O17  1  0.34265300  0.95245600  0.75000000  1
  O  O18  1  0.15734700  0.45245600  0.75000000  1
  O  O19  1  0.65734700  0.04754400  0.25000000  1
  O  O20  1  0.85404100  0.95609700  0.60001100  1
  O  O21  1  0.35404100  0.54390300  0.39998900  1
  O  O22  1  0.14595900  0.04390300  0.10001100  1
  O  O23  1  0.64595900  0.45609700  0.89998900  1
  O  O24  1  0.14595900  0.04390300  0.39998900  1
  O  O25  1  0.64595900  0.45609700  0.60001100  1
  O  O26  1  0.85404100  0.95609700  0.89998900  1
  O  O27  1  0.35404100  0.54390300  0.10001100  1
loop_
_geom_bond_atom_site_label_1
_geom_bond_atom_site_label_2
_geom_bond_distance
_geom_bond_site_symmetry_2
Mg0 O22 2.124922 1_555
Mg0 O24 2.124922 1_555
Mg0 O19 2.180940 1_555
Mg0 O1 2.250603 1_555
Mg0 O7 2.250603 1_555
Mg0 O15 2.749353 1_555
Mg0 O9 2.749353 1_555
Mg1 O23 2.124922 1_555
Mg1 O25 2.124922 1_555
Mg1 O18 2.180940 1_655
Mg1 O0 2.250603 1_655
Mg1 O6 2.250603 1_655
Mg1 O14 2.749353 1_555
Mg1 O8 2.749353 1_555
Mg2 O26 2.124922 1_555
Mg2 O20 2.124922 1_555
Mg2 O17 2.180940 1_555
Mg2 O5 2.250603 1_555
Mg2 O3 2.250603 1_555
Mg2 O11 2.749353 1_555
Mg2 O13 2.749353 1_555
Mg3 O27 2.124922 1_555
Mg3 O21 2.124922 1_555
Mg3 O16 2.180940 1_455
Mg3 O4 2.250603 1_455
Mg3 O2 2.250603 1_455
Mg3 O12 2.749353 1_555
Mg3 O10 2.749353 1_555
Bi0 O5 2.219270 1_554
Bi0 O27 2.248147 1_555
Bi0 O23 2.255324 1_554
Bi0 O12 2.347289 1_555
Bi0 O13 2.422654 1_554
Bi0 O4 2.591070 1_555
Bi0 O16 2.817996 1_555
Bi1 O4 2.219270 1_456
Bi1 O26 2.248147 1_455
Bi1 O22 2.255324 1_566
Bi1 O13 2.347289 1_455
Bi1 O12 2.422654 1_556
Bi1 O5 2.591070 1_555
Bi1 O17 2.817996 1_555
Bi2 O7 2.219270 1_555
Bi2 O25 2.248147 1_555
Bi2 O21 2.255324 1_555
Bi2 O14 2.347289 1_555
Bi2 O15 2.422654 1_555
Bi2 O6 2.591070 1_555
Bi2 O18 2.817996 1_555
Bi3 O6 2.219270 1_655
Bi3 O24 2.248147 1_655
Bi3 O20 2.255324 1_545
Bi3 O15 2.347289 1_655
Bi3 O14 2.422654 1_555
Bi3 O7 2.591070 1_555
Bi3 O19 2.817996 1_555
Bi4 O19 2.073936 1_565
Bi4 O10 2.098428 1_555
Bi4 O12 2.098428 1_555
Bi4 O2 2.163362 1_555
Bi4 O4 2.163362 1_555
Bi5 O18 2.073936 1_555
Bi5 O13 2.098428 1_455
Bi5 O11 2.098428 1_455
Bi5 O5 2.163362 1_555
Bi5 O3 2.163362 1_555
Bi6 O17 2.073936 1_545
Bi6 O14 2.098428 1_555
Bi6 O8 2.098428 1_555
Bi6 O0 2.163362 1_555
Bi6 O6 2.163362 1_555
Bi7 O16 2.073936 1_555
Bi7 O15 2.098428 1_655
Bi7 O9 2.098428 1_655
Bi7 O1 2.163362 1_555
Bi7 O7 2.163362 1_555
Bi8 O2 2.219270 1_455
Bi8 O20 2.248147 1_455
Bi8 O24 2.255324 1_565
Bi8 O11 2.347289 1_455
Bi8 O10 2.422654 1_555
Bi8 O3 2.591070 1_555
Bi8 O17 2.817996 1_555
Bi9 O3 2.219270 1_555
Bi9 O21 2.248147 1_555
Bi9 O25 2.255324 1_555
Bi9 O10 2.347289 1_555
Bi9 O11 2.422654 1_555
Bi9 O2 2.591070 1_555
Bi9 O16 2.817996 1_555
Bi10 O0 2.219270 1_654
Bi10 O22 2.248147 1_655
Bi10 O26 2.255324 1_544
Bi10 O9 2.347289 1_655
Bi10 O8 2.422654 1_554
Bi10 O1 2.591070 1_555
Bi10 O19 2.817996 1_555
Bi11 O1 2.219270 1_556
Bi11 O23 2.248147 1_555
Bi11 O27 2.255324 1_556
Bi11 O8 2.347289 1_555
Bi11 O9 2.422654 1_556
Bi11 O0 2.591070 1_555
Bi11 O18 2.817996 1_555
