# generated using pymatgen
data_CaMg6Al
_symmetry_space_group_name_H-M   'P 1'
_cell_length_a   5.13720100
_cell_length_b   6.59225300
_cell_length_c   11.34728000
_cell_angle_alpha   90.00000000
_cell_angle_beta   90.00000000
_cell_angle_gamma   90.00000000
_symmetry_Int_Tables_number   1
_chemical_formula_structural   CaMg6Al
_chemical_formula_sum   'Ca2 Mg12 Al2'
_cell_volume   384.28390601
_cell_formula_units_Z   2
loop_
 _symmetry_equiv_pos_site_id
 _symmetry_equiv_pos_as_xyz
  1  'x, y, z'
loop_
 _atom_site_type_symbol
 _atom_site_label
 _atom_site_symmetry_multiplicity
 _atom_site_fract_x
 _atom_site_fract_y
 _atom_site_fract_z
 _atom_site_occupancy
  Ca  Ca0  1  0.50000000  0.50000000  0.17114700  1
  Ca  Ca1  1  0.50000000  0.00000000  0.67114700  1
  Mg  Mg0  1  0.00000000  0.24092900  0.07997600  1
  Mg  Mg1  1  0.00000000  0.75907100  0.07997600  1
  Mg  Mg2  1  0.00000000  0.50000000  0.83312200  1
  Mg  Mg3  1  0.50000000  0.24240100  0.91737300  1
  Mg  Mg4  1  0.50000000  0.75759900  0.91737300  1
  Mg  Mg5  1  0.50000000  0.50000000  0.66438900  1
  Mg  Mg6  1  0.00000000  0.74092900  0.57997600  1
  Mg  Mg7  1  0.00000000  0.25907100  0.57997600  1
  Mg  Mg8  1  0.00000000  0.00000000  0.33312200  1
  Mg  Mg9  1  0.50000000  0.74240100  0.41737300  1
  Mg  Mg10  1  0.50000000  0.25759900  0.41737300  1
  Mg  Mg11  1  0.50000000  0.00000000  0.16438900  1
  Al  Al0  1  0.00000000  0.50000000  0.33664400  1
  Al  Al1  1  0.00000000  0.00000000  0.83664400  1
loop_
_geom_bond_atom_site_label_1
_geom_bond_atom_site_label_2
_geom_bond_distance
_geom_bond_site_symmetry_2
Ca0 Mg9 3.218682 1_555
Ca0 Mg10 3.218682 1_555
Ca0 Mg0 3.253426 1_655
Ca0 Mg1 3.253426 1_655
Ca0 Mg0 3.253426 1_555
Ca0 Mg1 3.253426 1_555
Ca0 Mg11 3.297018 1_555
Ca0 Mg11 3.297018 1_565
Ca0 Mg4 3.343066 1_554
Ca0 Mg3 3.343066 1_554
Ca1 Mg3 3.218682 1_555
Ca1 Mg4 3.218682 1_545
Ca1 Mg7 3.253426 1_655
Ca1 Mg6 3.253426 1_645
Ca1 Mg6 3.253426 1_545
Ca1 Mg7 3.253426 1_555
Ca1 Mg5 3.297018 1_555
Ca1 Mg5 3.297018 1_545
Ca1 Mg10 3.343066 1_555
Ca1 Mg9 3.343066 1_545
Mg0 Mg3 3.162626 1_454
Mg0 Mg3 3.162626 1_554
Mg0 Mg11 3.168246 1_455
Mg0 Mg11 3.168246 1_555
Mg0 Mg1 3.176530 1_545
Mg0 Mg2 3.280712 1_554
Mg0 Mg8 3.282369 1_555
Mg0 Mg1 3.415723 1_555
Mg1 Mg4 3.162626 1_554
Mg1 Mg4 3.162626 1_454
Mg1 Mg11 3.168246 1_465
Mg1 Mg11 3.168246 1_565
Mg1 Mg2 3.280712 1_554
Mg1 Mg8 3.282369 1_565
Mg2 Mg5 3.203691 1_455
Mg2 Mg5 3.203691 1_555
Mg2 Mg3 3.224193 1_455
Mg2 Mg4 3.224193 1_455
Mg2 Mg3 3.224193 1_555
Mg2 Mg4 3.224193 1_555
Mg2 Mg7 3.282369 1_555
Mg2 Mg6 3.282369 1_555
Mg3 Mg4 3.195937 1_545
Mg3 Mg5 3.335348 1_555
Mg3 Mg4 3.396316 1_555
Mg4 Mg5 3.335348 1_555
Mg5 Mg6 3.168246 1_555
Mg5 Mg7 3.168246 1_555
Mg5 Mg6 3.168246 1_655
Mg5 Mg7 3.168246 1_655
Mg5 Mg9 3.226467 1_555
Mg6 Mg9 3.162626 1_455
Mg6 Mg9 3.162626 1_555
Mg6 Mg7 3.176530 1_555
Mg6 Mg8 3.280712 1_565
Mg6 Mg7 3.415723 1_565
Mg7 Mg8 3.280712 1_555
Mg8 Mg9 3.224193 1_445
Mg8 Mg9 3.224193 1_545
Mg10 Mg7 3.162626 1_555
Mg10 Mg7 3.162626 1_655
Mg10 Mg9 3.195937 1_555
Mg10 Mg8 3.224193 1_555
Mg10 Mg8 3.224193 1_655
Mg10 Mg5 3.226467 1_555
Mg10 Mg11 3.335348 1_555
Mg10 Mg9 3.396316 1_545
Mg11 Mg8 3.203691 1_655
Mg11 Mg8 3.203691 1_555
Mg11 Mg4 3.226467 1_544
Mg11 Mg3 3.226467 1_554
Mg11 Mg9 3.335348 1_545
Al0 Mg9 3.160754 1_455
Al0 Mg9 3.160754 1_555
Al0 Mg10 3.160754 1_455
Al0 Mg10 3.160754 1_555
Al0 Ca0 3.181882 1_555
Al0 Ca0 3.181882 1_455
Al0 Mg6 3.185368 1_555
Al0 Mg7 3.185368 1_555
Al0 Mg8 3.296369 1_555
Al0 Mg8 3.296369 1_565
Al0 Mg1 3.376293 1_555
Al0 Mg0 3.376293 1_555
Al1 Mg3 3.160754 1_455
Al1 Mg4 3.160754 1_445
Al1 Mg3 3.160754 1_555
Al1 Mg4 3.160754 1_545
Al1 Ca1 3.181882 1_455
Al1 Ca1 3.181882 1_555
Al1 Mg1 3.185368 1_546
Al1 Mg0 3.185368 1_556
Al1 Mg2 3.296369 1_555
Al1 Mg2 3.296369 1_545
Al1 Mg6 3.376293 1_545
Al1 Mg7 3.376293 1_555
