# generated using pymatgen
data_BaReH9
_symmetry_space_group_name_H-M   'P 1'
_cell_length_a   10.46477200
_cell_length_b   3.68575100
_cell_length_c   5.06204146
_cell_angle_alpha   89.60309494
_cell_angle_beta   90.00000000
_cell_angle_gamma   90.00000000
_symmetry_Int_Tables_number   1
_chemical_formula_structural   BaReH9
_chemical_formula_sum   'Ba2 Re2 H18'
_cell_volume   195.24100739
_cell_formula_units_Z   2
loop_
 _symmetry_equiv_pos_site_id
 _symmetry_equiv_pos_as_xyz
  1  'x, y, z'
loop_
 _atom_site_type_symbol
 _atom_site_label
 _atom_site_symmetry_multiplicity
 _atom_site_fract_x
 _atom_site_fract_y
 _atom_site_fract_z
 _atom_site_occupancy
  Ba  Ba0  1  0.00000000  0.00000000  0.00000000  1
  Ba  Ba1  1  0.50000000  0.00000000  0.00000000  1
  Re  Re0  1  0.75000000  0.54976100  0.53283900  1
  Re  Re1  1  0.25000000  0.45023900  0.46716100  1
  H  H0  1  0.75000000  0.49386500  0.86372300  1
  H  H1  1  0.25000000  0.50613500  0.13627700  1
  H  H2  1  0.59732500  0.50383600  0.64978200  1
  H  H3  1  0.09732500  0.49616400  0.35021800  1
  H  H4  1  0.40267500  0.49616400  0.35021800  1
  H  H5  1  0.90267500  0.50383600  0.64978200  1
  H  H6  1  0.53215100  0.94643300  0.50291100  1
  H  H7  1  0.03215100  0.05356700  0.49708900  1
  H  H8  1  0.46784900  0.05356700  0.49708900  1
  H  H9  1  0.96784900  0.94643300  0.50291100  1
  H  H10  1  0.64679200  0.49756600  0.26395500  1
  H  H11  1  0.14679200  0.50243400  0.73604500  1
  H  H12  1  0.35320800  0.50243400  0.73604500  1
  H  H13  1  0.85320800  0.49756600  0.26395500  1
  H  H14  1  0.75000000  0.94304900  0.70860100  1
  H  H15  1  0.25000000  0.05695100  0.29139900  1
  H  H16  1  0.75000000  0.94876700  0.35862600  1
  H  H17  1  0.25000000  0.05123300  0.64137400  1
loop_
_geom_bond_atom_site_label_1
_geom_bond_atom_site_label_2
_geom_bond_distance
_geom_bond_site_symmetry_2
Ba0 H7 2.547696 1_555
Ba0 H9 2.547696 1_444
Ba0 H9 2.574120 1_445
Ba0 H7 2.574120 1_554
Ba0 H13 2.745923 1_445
Ba0 H11 2.745923 1_554
Ba0 H11 2.746306 1_544
Ba0 H13 2.746306 1_455
Ba0 H3 2.751252 1_555
Ba0 H5 2.751252 1_444
Ba0 H3 2.753740 1_545
Ba0 H5 2.753740 1_454
Ba0 H14 3.011421 1_444
Ba0 H15 3.011421 1_555
Ba1 H8 2.547696 1_555
Ba1 H6 2.547696 1_544
Ba1 H8 2.574120 1_554
Ba1 H6 2.574120 1_545
Ba1 H12 2.745923 1_554
Ba1 H10 2.745923 1_545
Ba1 H12 2.746306 1_544
Ba1 H10 2.746306 1_555
Ba1 H4 2.751252 1_555
Ba1 H2 2.751252 1_544
Ba1 H4 2.753740 1_545
Ba1 H2 2.753740 1_554
Ba1 H14 3.011421 1_544
Ba1 H15 3.011421 1_555
H0 Re0 1.686154 1_555
H1 Re1 1.686154 1_555
H2 Re0 1.711831 1_555
H3 Re1 1.711831 1_555
H4 Re1 1.711831 1_555
H5 Re0 1.711831 1_555
H6 H8 0.780661 1_565
H7 H9 0.780661 1_445
H10 Re0 1.749211 1_555
H11 Re1 1.749211 1_555
H12 Re1 1.749211 1_555
H13 Re0 1.749211 1_555
H14 Re0 1.706074 1_555
H15 Re1 1.706074 1_555
H16 Re0 1.709534 1_555
H17 Re1 1.709534 1_555
