# generated using pymatgen
data_SrCaYBiO6
_symmetry_space_group_name_H-M   'P 1'
_cell_length_a   5.92319351
_cell_length_b   5.92319351
_cell_length_c   8.59899169
_cell_angle_alpha   90.00000000
_cell_angle_beta   90.00000000
_cell_angle_gamma   90.00000000
_symmetry_Int_Tables_number   1
_chemical_formula_structural   SrCaYBiO6
_chemical_formula_sum   'Sr2 Ca2 Y2 Bi2 O12'
_cell_volume   301.68892790
_cell_formula_units_Z   2
loop_
 _symmetry_equiv_pos_site_id
 _symmetry_equiv_pos_as_xyz
  1  'x, y, z'
loop_
 _atom_site_type_symbol
 _atom_site_label
 _atom_site_symmetry_multiplicity
 _atom_site_fract_x
 _atom_site_fract_y
 _atom_site_fract_z
 _atom_site_occupancy
  Sr  Sr0  1  0.50000000  0.00000000  0.25000000  1
  Sr  Sr1  1  -0.00000000  0.50000000  0.75000000  1
  Ca  Ca0  1  -0.00000000  0.50000000  0.25000000  1
  Ca  Ca1  1  0.50000000  0.00000000  0.75000000  1
  Y  Y0  1  -0.00000000  0.00000000  0.50000000  1
  Y  Y1  1  0.50000000  0.50000000  0.00000000  1
  Bi  Bi0  1  -0.00000000  0.00000000  -0.00000000  1
  Bi  Bi1  1  0.50000000  0.50000000  0.50000000  1
  O  O0  1  -0.00000000  0.00000000  0.24503988  1
  O  O1  1  0.50000000  0.50000000  0.25496012  1
  O  O2  1  -0.00000000  0.00000000  0.75496012  1
  O  O3  1  0.50000000  0.50000000  0.74503988  1
  O  O4  1  0.31936198  0.16485242  0.98949952  1
  O  O5  1  0.68063802  0.83514758  0.98949952  1
  O  O6  1  0.83514758  0.31936198  0.01050048  1
  O  O7  1  0.16485242  0.68063802  0.01050048  1
  O  O8  1  0.81936198  0.33514758  0.48949952  1
  O  O9  1  0.18063802  0.66485242  0.48949952  1
  O  O10  1  0.33514758  0.18063802  0.51050048  1
  O  O11  1  0.66485242  0.81936198  0.51050048  1
loop_
_geom_bond_atom_site_label_1
_geom_bond_atom_site_label_2
_geom_bond_distance
_geom_bond_site_symmetry_2
Ca0 O6 2.517859 1_455
Ca0 O7 2.517859 1_555
Ca0 O8 2.517859 1_455
Ca0 O9 2.517859 1_555
Ca0 O0 2.961904 1_555
Ca0 O1 2.961904 1_455
Ca0 O1 2.961904 1_555
Ca0 O0 2.961904 1_565
Ca1 O10 2.517859 1_555
Ca1 O11 2.517859 1_545
Ca1 O5 2.517859 1_545
Ca1 O4 2.517859 1_555
Ca1 O2 2.961904 1_655
Ca1 O3 2.961904 1_545
Ca1 O2 2.961904 1_555
Ca1 O3 2.961904 1_555
Bi0 O0 2.107096 1_555
Bi0 O2 2.107096 1_554
Bi0 O4 2.130710 1_554
Bi0 O5 2.130710 1_444
Bi0 O7 2.130710 1_545
Bi0 O6 2.130710 1_455
Bi1 O1 2.107096 1_555
Bi1 O3 2.107096 1_555
Bi1 O8 2.130710 1_555
Bi1 O10 2.130710 1_555
Bi1 O11 2.130710 1_555
Bi1 O9 2.130710 1_555
O0 Y0 2.192400 1_555
O0 Sr0 2.961904 1_555
O0 Sr0 2.961904 1_455
O1 Y1 2.192400 1_555
O1 Sr0 2.961904 1_565
O1 Sr0 2.961904 1_555
O2 Y0 2.192400 1_555
O2 Sr1 2.961904 1_555
O2 Sr1 2.961904 1_545
O3 Y1 2.192400 1_556
O3 Sr1 2.961904 1_655
O3 Sr1 2.961904 1_555
O4 Y1 2.256934 1_556
O4 Sr0 2.667592 1_556
O5 Y1 2.256934 1_556
O5 Sr0 2.667592 1_566
O6 Y1 2.256934 1_555
O6 Sr1 2.667592 1_654
O7 Y1 2.256934 1_555
O7 Sr1 2.667592 1_554
O8 Y0 2.256934 1_655
O8 Sr1 2.667592 1_655
O9 Y0 2.256934 1_565
O9 Sr1 2.667592 1_555
O10 Y0 2.256934 1_555
O10 Sr0 2.667592 1_555
O11 Y0 2.256934 1_665
O11 Sr0 2.667592 1_565
