# generated using pymatgen
data_BC2N
_symmetry_space_group_name_H-M   'P 1'
_cell_length_a   3.72935873
_cell_length_b   3.72935873
_cell_length_c   3.72895638
_cell_angle_alpha   85.92959548
_cell_angle_beta   85.92959548
_cell_angle_gamma   85.74370869
_symmetry_Int_Tables_number   1
_chemical_formula_structural   BC2N
_chemical_formula_sum   'B2 C4 N2'
_cell_volume   51.47656862
_cell_formula_units_Z   2
loop_
 _symmetry_equiv_pos_site_id
 _symmetry_equiv_pos_as_xyz
  1  'x, y, z'
loop_
 _atom_site_type_symbol
 _atom_site_label
 _atom_site_symmetry_multiplicity
 _atom_site_fract_x
 _atom_site_fract_y
 _atom_site_fract_z
 _atom_site_occupancy
  B  B0  1  0.75638600  0.49748300  0.86171700  1
  B  B1  1  0.50251700  0.24361400  0.13828300  1
  C  C0  1  0.50612300  0.75973700  0.61626300  1
  C  C1  1  0.00030100  0.76104400  0.14270600  1
  C  C2  1  0.23895600  0.99969900  0.85729400  1
  C  C3  1  0.24026300  0.49387700  0.38373700  1
  N  N0  1  0.05059100  0.29419100  0.66793500  1
  N  N1  1  0.70580900  0.94940900  0.33206500  1
loop_
_geom_bond_atom_site_label_1
_geom_bond_atom_site_label_2
_geom_bond_distance
_geom_bond_site_symmetry_2
B0 N0 1.463739 1_655
B0 C0 1.588739 1_555
B0 B1 1.646861 1_556
B0 C1 1.818155 1_656
B1 N1 1.463739 1_545
B1 C3 1.588739 1_555
B1 C2 1.818155 1_544
C0 N1 1.427500 1_555
C0 C2 1.567202 1_555
C1 N1 1.429709 1_455
C1 C3 1.567202 1_555
C1 C2 1.601765 1_554
C2 N0 1.429709 1_565
C3 N0 1.427500 1_555
