# generated using pymatgen
data_Sr2CrOsO6
_symmetry_space_group_name_H-M   'P 1'
_cell_length_a   5.63020280
_cell_length_b   5.58134644
_cell_length_c   7.93027807
_cell_angle_alpha   90.74536528
_cell_angle_beta   89.97717246
_cell_angle_gamma   89.99410261
_symmetry_Int_Tables_number   1
_chemical_formula_structural   Sr2CrOsO6
_chemical_formula_sum   'Sr4 Cr2 Os2 O12'
_cell_volume   249.18084143
_cell_formula_units_Z   2
loop_
 _symmetry_equiv_pos_site_id
 _symmetry_equiv_pos_as_xyz
  1  'x, y, z'
loop_
 _atom_site_type_symbol
 _atom_site_label
 _atom_site_symmetry_multiplicity
 _atom_site_fract_x
 _atom_site_fract_y
 _atom_site_fract_z
 _atom_site_occupancy
  Sr  Sr0  1  0.00104700  0.50450500  0.74907000  1
  Sr  Sr1  1  0.49908300  0.99545700  0.25104700  1
  Sr  Sr2  1  0.99895600  0.49559800  0.25097700  1
  Sr  Sr3  1  0.50100400  0.00451100  0.74900500  1
  Cr  Cr0  1  0.99985400  0.00001200  0.49999600  1
  Cr  Cr1  1  0.49982100  0.50002400  0.99991700  1
  Os  Os0  1  0.49992300  0.49996700  0.49991000  1
  Os  Os1  1  0.99998200  0.00004800  0.99997800  1
  O  O0  1  0.73156300  0.23519100  0.52192600  1
  O  O1  1  0.21634800  0.72165800  0.02470300  1
  O  O2  1  0.23508600  0.26831400  0.47763500  1
  O  O3  1  0.72288600  0.78263500  0.97447000  1
  O  O4  1  0.05229700  0.99786500  0.75267200  1
  O  O5  1  0.54352400  0.50051100  0.25183400  1
  O  O6  1  0.26858400  0.76487200  0.47819400  1
  O  O7  1  0.78364400  0.27829200  0.97534000  1
  O  O8  1  0.76491700  0.73162600  0.52245500  1
  O  O9  1  0.27718600  0.21729300  0.02553800  1
  O  O10  1  0.94783100  0.00212200  0.24739900  1
  O  O11  1  0.45646600  0.49950000  0.74793500  1
loop_
_geom_bond_atom_site_label_1
_geom_bond_atom_site_label_2
_geom_bond_distance
_geom_bond_site_symmetry_2
Cr0 O0 2.007077 1_555
Cr0 O8 2.008084 1_545
Cr0 O6 2.008717 1_645
Cr0 O2 2.008753 1_655
Cr0 O10 2.024766 1_555
Cr0 O4 2.025734 1_645
Cr1 O5 2.012932 1_556
Cr1 O11 2.013202 1_555
Cr1 O1 2.027094 1_556
Cr1 O9 2.027606 1_556
Cr1 O3 2.028431 1_555
Cr1 O7 2.028833 1_555
O0 Os0 1.980348 1_555
O0 Sr3 2.577673 1_555
O0 Sr0 2.781798 1_655
O0 Sr1 2.836537 1_545
O0 Sr2 3.012463 1_555
O1 Os1 1.986055 1_464
O1 Sr2 2.523374 1_455
O1 Sr0 2.765822 1_554
O1 Sr1 2.832425 1_555
O1 Sr3 3.150962 1_564
O2 Os0 1.980123 1_555
O2 Sr2 2.582331 1_455
O2 Sr1 2.771929 1_545
O2 Sr0 2.833931 1_555
O2 Sr3 3.020802 1_555
O3 Os1 1.985343 1_565
O3 Sr3 2.519954 1_565
O3 Sr1 2.781924 1_556
O3 Sr0 2.825352 1_655
O3 Sr2 3.143945 1_556
O4 Os1 1.982965 1_465
O4 Sr3 2.526749 1_565
O4 Sr0 2.768499 1_555
O4 Sr0 2.842902 1_565
O4 Sr3 3.104262 1_465
O5 Os0 1.982513 1_555
O5 Sr2 2.564324 1_555
O5 Sr1 2.773836 1_555
O5 Sr1 2.829916 1_545
O5 Sr2 3.066163 1_455
O6 Os0 1.979539 1_555
O6 Sr1 2.577614 1_555
O6 Sr2 2.782492 1_455
O6 Sr3 2.835731 1_565
O6 Sr0 3.012342 1_555
O7 Os1 1.985244 1_555
O7 Sr0 2.523816 1_655
O7 Sr2 2.766239 1_556
O7 Sr3 2.832026 1_555
O7 Sr1 3.150688 1_546
O8 Os0 1.980986 1_555
O8 Sr0 2.581636 1_655
O8 Sr3 2.771567 1_565
O8 Sr2 2.833774 1_555
O8 Sr1 3.020861 1_555
O9 Os1 1.985288 1_454
O9 Sr1 2.520134 1_545
O9 Sr3 2.781597 1_554
O9 Sr2 2.826289 1_455
O9 Sr0 3.144426 1_554
O10 Os1 1.983734 1_554
O10 Sr1 2.526980 1_545
O10 Sr2 2.769070 1_555
O10 Sr2 2.842182 1_545
O10 Sr1 3.104031 1_645
O11 Os0 1.982005 1_555
O11 Sr0 2.564262 1_555
O11 Sr3 2.774159 1_555
O11 Sr3 2.829702 1_565
O11 Sr0 3.066247 1_655
