# generated using pymatgen
data_KLiMg14O15
_symmetry_space_group_name_H-M   'P 1'
_cell_length_a   8.47059630
_cell_length_b   8.73301048
_cell_length_c   4.36980174
_cell_angle_alpha   90.00000000
_cell_angle_beta   90.00000000
_cell_angle_gamma   90.00000000
_symmetry_Int_Tables_number   1
_chemical_formula_structural   KLiMg14O15
_chemical_formula_sum   'K1 Li1 Mg14 O15'
_cell_volume   323.25086731
_cell_formula_units_Z   1
loop_
 _symmetry_equiv_pos_site_id
 _symmetry_equiv_pos_as_xyz
  1  'x, y, z'
loop_
 _atom_site_type_symbol
 _atom_site_label
 _atom_site_symmetry_multiplicity
 _atom_site_fract_x
 _atom_site_fract_y
 _atom_site_fract_z
 _atom_site_occupancy
  K  K0  1  0.06209372  0.00000000  0.00000000  1
  Li  Li0  1  0.98526947  0.50000000  0.00000000  1
  Mg  Mg0  1  0.52195653  0.00000000  0.00000000  1
  Mg  Mg1  1  0.50295390  0.50000000  0.00000000  1
  Mg  Mg2  1  0.99534395  0.26206156  0.50000000  1
  Mg  Mg3  1  0.99534395  0.73793844  0.50000000  1
  Mg  Mg4  1  0.49739094  0.24764504  0.50000000  1
  Mg  Mg5  1  0.49739094  0.75235496  0.50000000  1
  Mg  Mg6  1  0.24586242  0.00000000  0.50000000  1
  Mg  Mg7  1  0.24189710  0.50000000  0.50000000  1
  Mg  Mg8  1  0.76741342  0.00000000  0.50000000  1
  Mg  Mg9  1  0.75337633  0.50000000  0.50000000  1
  Mg  Mg10  1  0.23906477  0.28318085  0.00000000  1
  Mg  Mg11  1  0.23906477  0.71681915  -0.00000000  1
  Mg  Mg12  1  0.76257997  0.25124125  -0.00000000  1
  Mg  Mg13  1  0.76257997  0.74875875  0.00000000  1
  O  O0  1  0.26625542  0.50000000  0.00000000  1
  O  O1  1  0.74834174  0.00000000  0.00000000  1
  O  O2  1  0.73562540  0.50000000  0.00000000  1
  O  O3  1  0.24574598  0.23908728  0.50000000  1
  O  O4  1  0.24574598  0.76091272  0.50000000  1
  O  O5  1  0.74498455  0.24817398  0.50000000  1
  O  O6  1  0.74498455  0.75182602  0.50000000  1
  O  O7  1  0.00274241  0.00000000  0.50000000  1
  O  O8  1  0.00121907  0.50000000  0.50000000  1
  O  O9  1  0.48342723  0.00000000  0.50000000  1
  O  O10  1  0.49345609  0.50000000  0.50000000  1
  O  O11  1  0.00257965  0.27024709  0.00000000  1
  O  O12  1  0.00257965  0.72975291  0.00000000  1
  O  O13  1  0.48136506  0.23460901  0.00000000  1
  O  O14  1  0.48136506  0.76539099  0.00000000  1
loop_
_geom_bond_atom_site_label_1
_geom_bond_atom_site_label_2
_geom_bond_distance
_geom_bond_site_symmetry_2
K0 O7 2.241995 1_555
K0 O7 2.241995 1_554
K0 O11 2.413311 1_555
K0 O12 2.413311 1_545
K0 O1 2.657666 1_455
Li0 O12 2.011785 1_655
Li0 O11 2.011785 1_655
Li0 O2 2.114634 1_555
Li0 O8 2.189074 1_654
Li0 O8 2.189074 1_655
Li0 O0 2.380119 1_655
Mg0 O1 1.917618 1_555
Mg0 O13 2.077493 1_555
Mg0 O14 2.077493 1_545
Mg0 O9 2.209142 1_554
Mg0 O9 2.209142 1_555
Mg1 O2 1.970866 1_555
Mg1 O0 2.004977 1_555
Mg1 O10 2.186382 1_555
Mg1 O10 2.186382 1_554
Mg1 O14 2.324866 1_555
Mg1 O13 2.324866 1_555
Mg2 O8 2.078515 1_655
Mg2 O5 2.124159 1_555
Mg2 O3 2.130523 1_655
Mg2 O11 2.186929 1_655
Mg2 O11 2.186929 1_656
Mg2 O7 2.289444 1_655
Mg3 O8 2.078515 1_655
Mg3 O6 2.124159 1_555
Mg3 O4 2.130523 1_655
Mg3 O12 2.186929 1_656
Mg3 O12 2.186929 1_655
Mg3 O7 2.289444 1_665
Mg4 O5 2.097271 1_555
Mg4 O3 2.132893 1_555
Mg4 O9 2.165919 1_555
Mg4 O13 2.192072 1_555
Mg4 O13 2.192072 1_556
Mg4 O10 2.204071 1_555
Mg5 O6 2.097271 1_555
Mg5 O4 2.132893 1_555
Mg5 O9 2.165919 1_565
Mg5 O14 2.192072 1_555
Mg5 O14 2.192072 1_556
Mg5 O10 2.204071 1_555
Mg6 O9 2.012316 1_555
Mg6 O7 2.059371 1_555
Mg6 O4 2.087952 1_545
Mg6 O3 2.087952 1_555
Mg7 O8 2.038686 1_555
Mg7 O10 2.130855 1_555
Mg7 O0 2.194622 1_555
Mg7 O0 2.194622 1_556
Mg7 O3 2.278787 1_555
Mg7 O4 2.278787 1_555
Mg8 O7 1.993377 1_655
Mg8 O6 2.175617 1_545
Mg8 O5 2.175617 1_555
Mg8 O1 2.190865 1_556
Mg8 O1 2.190865 1_555
Mg8 O9 2.405532 1_555
Mg9 O8 2.099376 1_655
Mg9 O2 2.190069 1_555
Mg9 O2 2.190069 1_556
Mg9 O6 2.200348 1_555
Mg9 O5 2.200348 1_555
Mg9 O10 2.201679 1_555
Mg10 O0 1.907440 1_555
Mg10 O11 2.006352 1_555
Mg10 O13 2.095802 1_555
Mg10 O3 2.219296 1_554
Mg10 O3 2.219296 1_555
Mg11 O0 1.907440 1_555
Mg11 O12 2.006352 1_555
Mg11 O14 2.095802 1_555
Mg11 O4 2.219296 1_554
Mg11 O4 2.219296 1_555
Mg12 O11 2.039705 1_655
Mg12 O2 2.184378 1_555
Mg12 O5 2.190142 1_554
Mg12 O5 2.190142 1_555
Mg12 O1 2.197405 1_555
Mg12 O13 2.386482 1_555
Mg13 O12 2.039705 1_655
Mg13 O2 2.184378 1_555
Mg13 O6 2.190142 1_554
Mg13 O6 2.190142 1_555
Mg13 O1 2.197405 1_565
Mg13 O14 2.386482 1_555
