# generated using pymatgen
data_Ir2(Se3Cl2)3
_symmetry_space_group_name_H-M   'P 1'
_cell_length_a   14.95504493
_cell_length_b   14.95504493
_cell_length_c   14.95504493
_cell_angle_alpha   130.56412197
_cell_angle_beta   130.56412197
_cell_angle_gamma   72.50651912
_symmetry_Int_Tables_number   1
_chemical_formula_structural   Ir2(Se3Cl2)3
_chemical_formula_sum   'Ir8 Se36 Cl24'
_cell_volume   1886.45697632
_cell_formula_units_Z   4
loop_
 _symmetry_equiv_pos_site_id
 _symmetry_equiv_pos_as_xyz
  1  'x, y, z'
loop_
 _atom_site_type_symbol
 _atom_site_label
 _atom_site_symmetry_multiplicity
 _atom_site_fract_x
 _atom_site_fract_y
 _atom_site_fract_z
 _atom_site_occupancy
  Ir  Ir0  1  0.62535138  0.15438386  0.74770095  1
  Ir  Ir1  1  0.40668292  0.87765143  0.25229905  1
  Ir  Ir2  1  0.62765143  0.87535138  0.97096752  1
  Ir  Ir3  1  0.90438386  0.65668292  0.02903248  1
  Ir  Ir4  1  0.12464862  0.09561614  0.75229905  1
  Ir  Ir5  1  0.34331708  0.37234857  0.24770095  1
  Ir  Ir6  1  0.12234857  0.37464862  0.52903248  1
  Ir  Ir7  1  0.84561614  0.59331708  0.47096752  1
  Se  Se0  1  0.69215802  0.13005394  0.62539984  1
  Se  Se1  1  0.50465410  0.06675818  0.37460016  1
  Se  Se2  1  0.81675818  0.94215802  0.06210509  1
  Se  Se3  1  0.88005394  0.75465410  0.93789491  1
  Se  Se4  1  0.05784198  0.11994606  0.87460016  1
  Se  Se5  1  0.24534590  0.18324182  0.12539984  1
  Se  Se6  1  0.93324182  0.30784198  0.43789491  1
  Se  Se7  1  0.86994606  0.49534590  0.56210509  1
  Se  Se8  1  0.74819697  0.93988362  0.52405607  1
  Se  Se9  1  0.41582655  0.22414091  0.47594393  1
  Se  Se10  1  0.97414091  -0.00180303  0.30831435  1
  Se  Se11  1  0.68988362  0.66582655  0.69168565  1
  Se  Se12  1  0.00180303  0.31011638  0.97594393  1
  Se  Se13  1  0.33417345  0.02585909  0.02405607  1
  Se  Se14  1  0.77585909  0.25180303  0.19168565  1
  Se  Se15  1  0.06011638  0.58417345  0.80831435  1
  Se  Se16  1  0.57355024  0.82753762  0.40631233  1
  Se  Se17  1  0.42122529  0.16723791  0.59368767  1
  Se  Se18  1  0.91723791  0.82355024  0.24601262  1
  Se  Se19  1  0.57753762  0.67122529  0.75398738  1
  Se  Se20  1  0.17644976  0.42246238  0.09368767  1
  Se  Se21  1  0.32877471  0.08276209  0.90631233  1
  Se  Se22  1  0.83276209  0.42644976  0.25398738  1
  Se  Se23  1  0.17246238  0.57877471  0.74601262  1
  Se  Se24  1  0.59210763  0.94895515  0.63963378  1
  Se  Se25  1  0.30932137  0.95247485  0.36036622  1
  Se  Se26  1  0.70247485  0.84210763  0.14315247  1
  Se  Se27  1  0.69895515  0.55932137  0.85684753  1
  Se  Se28  1  0.15789237  0.30104485  0.86036622  1
  Se  Se29  1  0.44067863  0.29752515  0.13963378  1
  Se  Se30  1  0.04752515  0.40789237  0.35684753  1
  Se  Se31  1  0.05104485  0.69067863  0.64315247  1
  Se  Se32  1  0.38594946  0.88594946  0.50000000  1
  Se  Se33  1  0.63594946  0.63594946  0.00000000  1
  Se  Se34  1  0.36405054  0.36405054  0.00000000  1
  Se  Se35  1  0.11405054  0.61405054  0.50000000  1
  Cl  Cl0  1  0.57545920  0.20839794  0.89852818  1
  Cl  Cl1  1  0.30987076  0.67693202  0.10147182  1
  Cl  Cl2  1  0.42693202  0.82545920  0.86706127  1
  Cl  Cl3  1  0.95839794  0.55987076  0.13293873  1
  Cl  Cl4  1  0.17454080  0.04160206  0.60147182  1
  Cl  Cl5  1  0.44012924  0.57306798  0.39852818  1
  Cl  Cl6  1  0.32306798  0.42454080  0.63293873  1
  Cl  Cl7  1  0.79160206  0.69012924  0.36706127  1
  Cl  Cl8  1  0.68310044  0.36440275  0.88996290  1
  Cl  Cl9  1  0.47443985  0.79313754  0.11003710  1
  Cl  Cl10  1  0.54313754  0.93310044  0.81869769  1
  Cl  Cl11  1  0.11440275  0.72443985  0.18130231  1
  Cl  Cl12  1  0.06689956  0.88559725  0.61003710  1
  Cl  Cl13  1  0.27556015  0.45686246  0.38996290  1
  Cl  Cl14  1  0.20686246  0.31689956  0.68130231  1
  Cl  Cl15  1  0.63559725  0.52556015  0.31869769  1
  Cl  Cl16  1  0.83032142  0.16124791  0.92975376  1
  Cl  Cl17  1  0.23149414  0.90056766  0.07024624  1
  Cl  Cl18  1  0.65056766  0.08032142  0.16907351  1
  Cl  Cl19  1  0.91124791  0.48149414  0.83092649  1
  Cl  Cl20  1  0.91967858  0.08875209  0.57024624  1
  Cl  Cl21  1  0.51850586  0.34943234  0.42975376  1
  Cl  Cl22  1  0.09943234  0.16967858  0.33092649  1
  Cl  Cl23  1  0.83875209  0.76850586  0.66907351  1
loop_
_geom_bond_atom_site_label_1
_geom_bond_atom_site_label_2
_geom_bond_distance
_geom_bond_site_symmetry_2
Ir0 Se24 2.390209 1_545
Ir0 Se17 2.395692 1_555
Ir0 Se0 2.401763 1_555
Ir1 Se25 2.390210 1_555
Ir1 Se16 2.395702 1_555
Ir1 Se1 2.401750 1_565
Ir2 Se26 2.390209 1_556
Ir2 Se19 2.395690 1_555
Ir2 Se2 2.401742 1_556
Ir3 Se27 2.390210 1_554
Ir3 Se18 2.395692 1_555
Ir3 Se3 2.401776 1_554
Ir4 Se28 2.390209 1_555
Ir4 Se21 2.395692 1_555
Ir4 Se4 2.401763 1_555
Ir5 Se29 2.390210 1_555
Ir5 Se20 2.395702 1_555
Ir5 Se5 2.401750 1_555
Ir6 Se30 2.390209 1_555
Ir6 Se23 2.395690 1_555
Ir6 Se6 2.401742 1_455
Ir7 Se31 2.390210 1_655
Ir7 Se22 2.395692 1_555
Ir7 Se7 2.401776 1_555
Se0 Se8 2.387626 1_545
Se0 Se1 2.475115 1_555
Se1 Se9 2.387637 1_555
Se2 Se3 2.475122 1_554
Se4 Se5 2.475115 1_556
Se6 Se7 2.475122 1_555
Se10 Se18 2.356699 1_545
Se10 Se2 2.387626 1_545
Se11 Se19 2.356714 1_555
Se11 Se3 2.387625 1_555
Se12 Se20 2.356708 1_556
Se12 Se4 2.387626 1_555
Se13 Se21 2.356699 1_554
Se13 Se5 2.387637 1_555
Se14 Se22 2.356699 1_555
Se14 Se6 2.387626 1_555
Se15 Se23 2.356714 1_555
Se15 Se7 2.387625 1_455
Se16 Se8 2.356708 1_555
Se16 Se24 2.520433 1_555
Se17 Se9 2.356699 1_555
Se17 Se25 2.520424 1_545
Se18 Se26 2.520420 1_555
Se19 Se27 2.520433 1_555
Se20 Se28 2.520433 1_554
Se21 Se29 2.520424 1_556
Se22 Se30 2.520420 1_655
Se23 Se31 2.520433 1_555
Se24 Se32 2.359647 1_555
Se25 Se32 2.359660 1_555
Se26 Se33 2.359650 1_555
Se27 Se33 2.359647 1_556
Se28 Se34 2.359647 1_556
Se29 Se34 2.359660 1_555
Se30 Se35 2.359650 1_555
Se31 Se35 2.359647 1_555
Cl0 Ir0 2.398730 1_555
Cl0 Se14 3.000599 1_556
Cl1 Ir1 2.398724 1_555
Cl1 Se15 3.000611 1_554
Cl2 Ir2 2.398730 1_555
Cl2 Se13 3.000609 1_566
Cl3 Ir3 2.398716 1_555
Cl3 Se12 3.000619 1_654
Cl4 Ir4 2.398730 1_555
Cl4 Se10 3.000599 1_455
Cl5 Ir5 2.398724 1_555
Cl5 Se11 3.000611 1_555
Cl6 Ir6 2.398730 1_555
Cl6 Se9 3.000609 1_555
Cl7 Ir7 2.398716 1_555
Cl7 Se8 3.000619 1_555
Cl8 Ir0 2.384801 1_555
Cl9 Ir1 2.384798 1_555
Cl10 Ir2 2.384798 1_555
Cl11 Ir3 2.384801 1_455
Cl12 Ir4 2.384801 1_565
Cl13 Ir5 2.384798 1_555
Cl14 Ir6 2.384798 1_555
Cl15 Ir7 2.384801 1_555
Cl16 Ir0 2.406386 1_555
Cl17 Ir1 2.406378 1_555
Cl18 Ir2 2.406390 1_544
Cl19 Ir3 2.406386 1_556
Cl20 Ir4 2.406386 1_655
Cl21 Ir5 2.406378 1_555
Cl22 Ir6 2.406390 1_555
Cl23 Ir7 2.406386 1_555
