# generated using pymatgen
data_In(BiSe2)3
_symmetry_space_group_name_H-M   'P 1'
_cell_length_a   19.67582854
_cell_length_b   19.67582854
_cell_length_c   19.67582765
_cell_angle_alpha   12.12649531
_cell_angle_beta   12.12649531
_cell_angle_gamma   12.12649747
_symmetry_Int_Tables_number   1
_chemical_formula_structural   In(BiSe2)3
_chemical_formula_sum   'In1 Bi3 Se6'
_cell_volume   292.19904791
_cell_formula_units_Z   1
loop_
 _symmetry_equiv_pos_site_id
 _symmetry_equiv_pos_as_xyz
  1  'x, y, z'
loop_
 _atom_site_type_symbol
 _atom_site_label
 _atom_site_symmetry_multiplicity
 _atom_site_fract_x
 _atom_site_fract_y
 _atom_site_fract_z
 _atom_site_occupancy
  In  In0  1  0.19997100  0.19997100  0.19997100  1
  Bi  Bi0  1  0.69999200  0.69999200  0.69999200  1
  Bi  Bi1  1  0.29955700  0.29955700  0.29955700  1
  Bi  Bi2  1  0.80173200  0.80173200  0.80173200  1
  Se  Se0  1  0.60578600  0.60578600  0.60578600  1
  Se  Se1  1  0.10797900  0.10797900  0.10797900  1
  Se  Se2  1  0.88875200  0.88875200  0.88875200  1
  Se  Se3  1  0.39394800  0.39394800  0.39394800  1
  Se  Se4  1  0.99997800  0.99997800  0.99997800  1
  Se  Se5  1  0.50230400  0.50230400  0.50230400  1
loop_
_geom_bond_atom_site_label_1
_geom_bond_atom_site_label_2
_geom_bond_distance
_geom_bond_site_symmetry_2
In0 Se2 2.727199 1_445
In0 Se2 2.727200 1_454
In0 Se2 2.727200 1_544
In0 Se5 3.009590 1_554
In0 Se5 3.009591 1_545
In0 Se5 3.009591 1_455
Bi0 Se3 2.883602 1_556
Bi0 Se3 2.883603 1_565
Bi0 Se3 2.883603 1_655
Bi0 Se4 3.094513 1_554
Bi0 Se4 3.094514 1_455
Bi0 Se4 3.094514 1_545
Bi1 Se0 2.877606 1_554
Bi1 Se0 2.877607 1_455
Bi1 Se0 2.877607 1_545
Bi1 Se4 3.109622 1_445
Bi1 Se4 3.109623 1_544
Bi1 Se4 3.109623 1_454
Bi2 Se1 2.877025 1_665
Bi2 Se1 2.877025 1_566
Bi2 Se1 2.877025 1_656
Bi2 Se5 3.115256 1_556
Bi2 Se5 3.115257 1_655
Bi2 Se5 3.115257 1_565
