# generated using pymatgen
data_Gd5(AlCo)2
_symmetry_space_group_name_H-M   'P 1'
_cell_length_a   7.10530200
_cell_length_b   14.18934900
_cell_length_c   4.16086100
_cell_angle_alpha   90.00000000
_cell_angle_beta   90.00000000
_cell_angle_gamma   90.00000000
_symmetry_Int_Tables_number   1
_chemical_formula_structural   Gd5(AlCo)2
_chemical_formula_sum   'Gd10 Al4 Co4'
_cell_volume   419.49638257
_cell_formula_units_Z   2
loop_
 _symmetry_equiv_pos_site_id
 _symmetry_equiv_pos_as_xyz
  1  'x, y, z'
loop_
 _atom_site_type_symbol
 _atom_site_label
 _atom_site_symmetry_multiplicity
 _atom_site_fract_x
 _atom_site_fract_y
 _atom_site_fract_z
 _atom_site_occupancy
  Gd  Gd0  1  0.84751900  0.08942300  0.50000000  1
  Gd  Gd1  1  0.15248100  0.91057700  0.50000000  1
  Gd  Gd2  1  0.34751900  0.41057700  0.50000000  1
  Gd  Gd3  1  0.65248100  0.58942300  0.50000000  1
  Gd  Gd4  1  0.50000000  0.00000000  0.00000000  1
  Gd  Gd5  1  0.00000000  0.50000000  0.00000000  1
  Gd  Gd6  1  0.44213900  0.75690200  0.00000000  1
  Gd  Gd7  1  0.55786100  0.24309800  0.00000000  1
  Gd  Gd8  1  0.94213900  0.74309800  0.00000000  1
  Gd  Gd9  1  0.05786100  0.25690200  0.00000000  1
  Al  Al0  1  0.70907300  0.86721300  0.50000000  1
  Al  Al1  1  0.29092700  0.13278700  0.50000000  1
  Al  Al2  1  0.20907300  0.63278700  0.50000000  1
  Al  Al3  1  0.79092700  0.36721300  0.50000000  1
  Co  Co0  1  0.88029600  0.94118900  0.00000000  1
  Co  Co1  1  0.11970400  0.05881100  0.00000000  1
  Co  Co2  1  0.38029600  0.55881100  0.00000000  1
  Co  Co3  1  0.61970400  0.44118900  0.00000000  1
loop_
_geom_bond_atom_site_label_1
_geom_bond_atom_site_label_2
_geom_bond_distance
_geom_bond_site_symmetry_2
Gd0 Gd1 3.336943 1_645
Gd0 Gd4 3.469188 1_556
Gd0 Gd4 3.469188 1_555
Gd0 Gd9 3.494169 1_655
Gd0 Gd9 3.494169 1_656
Gd0 Gd7 3.649492 1_556
Gd0 Gd7 3.649492 1_555
Gd1 Gd4 3.469188 1_565
Gd1 Gd4 3.469188 1_566
Gd1 Gd8 3.494169 1_455
Gd1 Gd8 3.494169 1_456
Gd1 Gd6 3.649492 1_555
Gd1 Gd6 3.649492 1_556
Gd2 Gd3 3.336943 1_555
Gd2 Gd5 3.469188 1_555
Gd2 Gd5 3.469188 1_556
Gd2 Gd7 3.494169 1_556
Gd2 Gd7 3.494169 1_555
Gd2 Gd9 3.649492 1_555
Gd2 Gd9 3.649492 1_556
Gd3 Gd5 3.469188 1_656
Gd3 Gd5 3.469188 1_655
Gd3 Gd6 3.494169 1_555
Gd3 Gd6 3.494169 1_556
Gd3 Gd8 3.649492 1_555
Gd3 Gd8 3.649492 1_556
Gd4 Gd7 3.473816 1_555
Gd4 Gd6 3.473816 1_545
Gd5 Gd8 3.473816 1_455
Gd5 Gd9 3.473816 1_555
Gd6 Gd8 3.558046 1_555
Gd6 Gd8 3.558046 1_455
Gd7 Gd9 3.558046 1_655
Gd7 Gd9 3.558046 1_555
Al0 Co0 2.628706 1_555
Al0 Co0 2.628706 1_556
Al0 Gd4 3.175696 1_565
Al0 Gd4 3.175696 1_566
Al0 Gd8 3.189366 1_556
Al0 Gd8 3.189366 1_555
Al0 Gd1 3.210071 1_655
Al0 Gd6 3.221093 1_555
Al0 Gd6 3.221093 1_556
Al0 Gd0 3.302904 1_565
Al1 Co1 2.628706 1_555
Al1 Co1 2.628706 1_556
Al1 Gd4 3.175696 1_556
Al1 Gd4 3.175696 1_555
Al1 Gd9 3.189366 1_555
Al1 Gd9 3.189366 1_556
Al1 Gd0 3.210071 1_455
Al1 Gd7 3.221093 1_556
Al1 Gd7 3.221093 1_555
Al1 Gd1 3.302904 1_545
Al2 Co2 2.628706 1_555
Al2 Co2 2.628706 1_556
Al2 Gd5 3.175696 1_555
Al2 Gd5 3.175696 1_556
Al2 Gd6 3.189366 1_555
Al2 Gd6 3.189366 1_556
Al2 Gd3 3.210071 1_555
Al2 Gd8 3.221093 1_456
Al2 Gd8 3.221093 1_455
Al2 Gd2 3.302904 1_555
Al3 Co3 2.628706 1_556
Al3 Co3 2.628706 1_555
Al3 Gd5 3.175696 1_656
Al3 Gd5 3.175696 1_655
Al3 Gd7 3.189366 1_556
Al3 Gd7 3.189366 1_555
Al3 Gd2 3.210071 1_555
Al3 Gd9 3.221093 1_656
Al3 Gd9 3.221093 1_655
Al3 Gd3 3.302904 1_555
Co0 Co1 2.383090 1_665
Co0 Gd4 2.828041 1_565
Co0 Gd8 2.844922 1_555
Co0 Gd1 2.873509 1_654
Co0 Gd1 2.873509 1_655
Co0 Gd0 2.967572 1_564
Co0 Gd0 2.967572 1_565
Co1 Gd4 2.828041 1_555
Co1 Gd9 2.844922 1_555
Co1 Gd0 2.873509 1_455
Co1 Gd0 2.873509 1_454
Co1 Gd1 2.967572 1_544
Co1 Gd1 2.967572 1_545
Co2 Co3 2.383090 1_555
Co2 Gd5 2.828041 1_555
Co2 Gd6 2.844922 1_555
Co2 Gd3 2.873509 1_555
Co2 Gd3 2.873509 1_554
Co2 Gd2 2.967572 1_554
Co2 Gd2 2.967572 1_555
Co3 Gd5 2.828041 1_655
Co3 Gd7 2.844922 1_555
Co3 Gd2 2.873509 1_554
Co3 Gd2 2.873509 1_555
Co3 Gd3 2.967572 1_555
Co3 Gd3 2.967572 1_554
