# generated using pymatgen
data_Co2H36Pt3(NCl)12
_symmetry_space_group_name_H-M   'P 1'
_cell_length_a   7.88440800
_cell_length_b   7.95918274
_cell_length_c   13.16750127
_cell_angle_alpha   89.09959000
_cell_angle_beta   84.21249953
_cell_angle_gamma   88.01964611
_symmetry_Int_Tables_number   1
_chemical_formula_structural   Co2H36Pt3(NCl)12
_chemical_formula_sum   'Co2 H36 Pt3 N12 Cl12'
_cell_volume   821.54099242
_cell_formula_units_Z   1
loop_
 _symmetry_equiv_pos_site_id
 _symmetry_equiv_pos_as_xyz
  1  'x, y, z'
loop_
 _atom_site_type_symbol
 _atom_site_label
 _atom_site_symmetry_multiplicity
 _atom_site_fract_x
 _atom_site_fract_y
 _atom_site_fract_z
 _atom_site_occupancy
  Co  Co0  1  0.50000000  0.50000000  0.00000000  1
  Co  Co1  1  0.00000000  0.00000000  0.50000000  1
  H  H0  1  0.67466700  0.56037300  0.82910600  1
  H  H1  1  0.32533300  0.43962700  0.17089400  1
  H  H2  1  0.74025000  0.67826700  0.91878400  1
  H  H3  1  0.25975000  0.32173300  0.08121600  1
  H  H4  1  0.80217800  0.47738500  0.90940300  1
  H  H5  1  0.19782200  0.52261500  0.09059700  1
  H  H6  1  0.73519800  0.28106400  0.03321500  1
  H  H7  1  0.26480200  0.71893600  0.96678500  1
  H  H8  1  0.71906700  0.41882000  0.12566500  1
  H  H9  1  0.28093300  0.58118000  0.87433500  1
  H  H10  1  0.58098800  0.27119400  0.12819000  1
  H  H11  1  0.41901200  0.72880600  0.87181000  1
  H  H12  1  0.65229900  0.74094900  0.07424300  1
  H  H13  1  0.34770100  0.25905100  0.92575700  1
  H  H14  1  0.44499700  0.78582800  0.08809700  1
  H  H15  1  0.55500300  0.21417200  0.91190300  1
  H  H16  1  0.53078900  0.65284600  0.16799200  1
  H  H17  1  0.46921100  0.34715400  0.83200800  1
  H  H18  1  0.72832700  0.17424300  0.55459500  1
  H  H19  1  0.27167300  0.82575700  0.44540500  1
  H  H20  1  0.72973100  0.13099500  0.43322900  1
  H  H21  1  0.27026900  0.86900500  0.56677100  1
  H  H22  1  0.67473600  0.98523000  0.51991000  1
  H  H23  1  0.32526400  0.01477000  0.48009000  1
  H  H24  1  0.05864600  0.09671100  0.67463600  1
  H  H25  1  0.94135400  0.90328900  0.32536400  1
  H  H26  1  0.86131600  0.03029300  0.68225100  1
  H  H27  1  0.13868400  0.96970700  0.31774900  1
  H  H28  1  0.02475000  0.89299900  0.67826600  1
  H  H29  1  0.97525000  0.10700100  0.32173400  1
  H  H30  1  0.02377700  0.68126600  0.52340300  1
  H  H31  1  0.97622300  0.31873400  0.47659700  1
  H  H32  1  0.83056000  0.74534900  0.56958000  1
  H  H33  1  0.16944000  0.25465100  0.43042000  1
  H  H34  1  0.87220300  0.72587900  0.44635300  1
  H  H35  1  0.12779700  0.27412100  0.55364700  1
  Pt  Pt0  1  0.46208700  0.50370600  0.66188100  1
  Pt  Pt1  1  0.53791300  0.49629400  0.33811900  1
  Pt  Pt2  1  0.00000000  0.00000000  0.00000000  1
  N  N0  1  0.69955900  0.55997000  0.90446200  1
  N  N1  1  0.30044100  0.44003000  0.09553800  1
  N  N2  1  0.64841100  0.35281000  0.07937000  1
  N  N3  1  0.35158900  0.64719000  0.92063000  1
  N  N4  1  0.53484900  0.68905200  0.09171300  1
  N  N5  1  0.46515100  0.31094800  0.90828700  1
  N  N6  1  0.75870400  0.07976300  0.50187000  1
  N  N7  1  0.24129600  0.92023700  0.49813000  1
  N  N8  1  0.98346100  0.00656100  0.64947200  1
  N  N9  1  0.01653900  0.99343900  0.35052800  1
  N  N10  1  0.92479100  0.76409500  0.51043000  1
  N  N11  1  0.07520900  0.23590500  0.48957000  1
  Cl  Cl0  1  0.55038600  0.77735400  0.67954500  1
  Cl  Cl1  1  0.44961400  0.22264600  0.32045500  1
  Cl  Cl2  1  0.74394700  0.40652000  0.65434000  1
  Cl  Cl3  1  0.25605300  0.59348000  0.34566000  1
  Cl  Cl4  1  0.37488900  0.22964300  0.64957500  1
  Cl  Cl5  1  0.62511100  0.77035700  0.35042500  1
  Cl  Cl6  1  0.17935700  0.60079300  0.67524300  1
  Cl  Cl7  1  0.82064300  0.39920700  0.32475700  1
  Cl  Cl8  1  0.74715500  0.97973500  0.92492000  1
  Cl  Cl9  1  0.25284500  0.02026500  0.07508000  1
  Cl  Cl10  1  0.97365600  0.72910500  0.06664000  1
  Cl  Cl11  1  0.02634400  0.27089500  0.93336000  1
loop_
_geom_bond_atom_site_label_1
_geom_bond_atom_site_label_2
_geom_bond_distance
_geom_bond_site_symmetry_2
Co0 N0 1.979855 1_554
Co0 N1 1.979855 1_555
Co0 N3 1.986783 1_554
Co0 N2 1.986783 1_555
Co0 N4 1.987610 1_555
Co0 N5 1.987610 1_554
Co1 N8 1.960723 1_455
Co1 N9 1.960723 1_545
Co1 N7 1.982580 1_545
Co1 N6 1.982580 1_455
Co1 N11 1.987040 1_555
Co1 N10 1.987040 1_445
H0 N0 1.030640 1_555
H1 N1 1.030640 1_555
H2 N0 1.031341 1_555
H3 N1 1.031341 1_555
H4 N0 1.031228 1_555
H5 N1 1.031228 1_555
H6 N2 1.031354 1_555
H7 N3 1.031354 1_555
H8 N2 1.027984 1_555
H9 N3 1.027984 1_555
H10 N2 1.029382 1_555
H11 N3 1.029382 1_555
H12 N4 1.030311 1_555
H13 N5 1.030311 1_555
H14 N4 1.032169 1_555
H15 N5 1.032169 1_555
H16 N4 1.038244 1_555
H17 N5 1.038244 1_555
H18 N6 1.036947 1_555
H19 N7 1.036947 1_555
H20 N6 1.029069 1_555
H21 N7 1.029069 1_555
H22 N6 1.028556 1_565
H23 N7 1.028556 1_545
H24 N8 1.025918 1_455
H25 N9 1.025918 1_655
H26 N8 1.027414 1_555
H27 N9 1.027414 1_555
H28 N8 1.029795 1_465
H29 N9 1.029795 1_645
H30 N10 1.029891 1_455
H31 N11 1.029891 1_655
H32 N10 1.033523 1_555
H33 N11 1.033523 1_555
H34 N10 1.031337 1_555
H35 N11 1.031337 1_555
Cl0 Pt0 2.331501 1_555
Cl1 Pt1 2.331501 1_555
Cl2 Pt0 2.320757 1_555
Cl3 Pt1 2.320757 1_555
Cl4 Pt0 2.322561 1_555
Cl5 Pt1 2.322561 1_555
Cl6 Pt0 2.324509 1_555
Cl7 Pt1 2.324509 1_555
Cl8 Pt2 2.324277 1_666
Cl9 Pt2 2.324277 1_555
Cl10 Pt2 2.323065 1_665
Cl11 Pt2 2.323065 1_556
