# generated using pymatgen
data_SrYb3
_symmetry_space_group_name_H-M   'P 1'
_cell_length_a   7.35344433
_cell_length_b   7.35344433
_cell_length_c   5.88405100
_cell_angle_alpha   90.00000000
_cell_angle_beta   90.00000000
_cell_angle_gamma   120.00000348
_symmetry_Int_Tables_number   1
_chemical_formula_structural   SrYb3
_chemical_formula_sum   'Sr2 Yb6'
_cell_volume   275.54254344
_cell_formula_units_Z   2
loop_
 _symmetry_equiv_pos_site_id
 _symmetry_equiv_pos_as_xyz
  1  'x, y, z'
loop_
 _atom_site_type_symbol
 _atom_site_label
 _atom_site_symmetry_multiplicity
 _atom_site_fract_x
 _atom_site_fract_y
 _atom_site_fract_z
 _atom_site_occupancy
  Sr  Sr0  1  0.33333300  0.66666700  0.75000000  1
  Sr  Sr1  1  0.66666700  0.33333300  0.25000000  1
  Yb  Yb0  1  0.15881785  0.31763470  0.25000000  1
  Yb  Yb1  1  0.68236530  0.84118215  0.25000000  1
  Yb  Yb2  1  0.15881785  0.84118215  0.25000000  1
  Yb  Yb3  1  0.84118215  0.68236530  0.75000000  1
  Yb  Yb4  1  0.31763470  0.15881785  0.75000000  1
  Yb  Yb5  1  0.84118215  0.15881785  0.75000000  1
loop_
_geom_bond_atom_site_label_1
_geom_bond_atom_site_label_2
_geom_bond_distance
_geom_bond_site_symmetry_2
Sr0 Yb5 3.678081 1_455
Sr0 Yb5 3.678081 1_565
Sr0 Yb4 3.678081 1_555
Sr0 Yb3 3.678081 1_555
Sr0 Yb4 3.678081 1_565
Sr0 Yb3 3.678081 1_455
Sr0 Yb2 3.687275 1_555
Sr0 Yb2 3.687275 1_556
Sr0 Yb0 3.687282 1_556
Sr0 Yb0 3.687282 1_555
Sr0 Yb1 3.687282 1_555
Sr0 Yb1 3.687282 1_556
Sr1 Yb2 3.678081 1_545
Sr1 Yb2 3.678081 1_655
Sr1 Yb1 3.678081 1_555
Sr1 Yb0 3.678081 1_555
Sr1 Yb0 3.678081 1_655
Sr1 Yb1 3.678081 1_545
Sr1 Yb5 3.687275 1_554
Sr1 Yb5 3.687275 1_555
Sr1 Yb3 3.687282 1_555
Sr1 Yb4 3.687282 1_555
Sr1 Yb4 3.687282 1_554
Sr1 Yb3 3.687282 1_554
Yb0 Yb1 3.503567 1_445
Yb0 Yb2 3.503567 1_545
Yb0 Yb4 3.570314 1_555
Yb0 Yb4 3.570314 1_554
Yb0 Yb5 3.570321 1_455
Yb0 Yb5 3.570321 1_454
Yb0 Yb1 3.849877 1_555
Yb0 Yb2 3.849877 1_555
Yb1 Yb2 3.503567 1_655
Yb1 Yb3 3.570314 1_555
Yb1 Yb3 3.570314 1_554
Yb1 Yb5 3.570321 1_565
Yb1 Yb5 3.570321 1_564
Yb1 Yb2 3.849877 1_555
Yb2 Yb4 3.570321 1_565
Yb2 Yb4 3.570321 1_564
Yb2 Yb3 3.570321 1_455
Yb2 Yb3 3.570321 1_454
Yb3 Yb4 3.503567 1_665
Yb3 Yb5 3.503567 1_565
Yb3 Yb4 3.849877 1_555
Yb3 Yb5 3.849877 1_555
Yb4 Yb5 3.503567 1_455
Yb4 Yb5 3.849877 1_555
