# generated using pymatgen
data_Mg(SbO2)2
_symmetry_space_group_name_H-M   'P 1'
_cell_length_a   6.51289900
_cell_length_b   7.12708706
_cell_length_c   16.95169635
_cell_angle_alpha   89.14899707
_cell_angle_beta   89.25355550
_cell_angle_gamma   63.03454942
_symmetry_Int_Tables_number   1
_chemical_formula_structural   Mg(SbO2)2
_chemical_formula_sum   'Mg6 Sb12 O24'
_cell_volume   701.22123245
_cell_formula_units_Z   6
loop_
 _symmetry_equiv_pos_site_id
 _symmetry_equiv_pos_as_xyz
  1  'x, y, z'
loop_
 _atom_site_type_symbol
 _atom_site_label
 _atom_site_symmetry_multiplicity
 _atom_site_fract_x
 _atom_site_fract_y
 _atom_site_fract_z
 _atom_site_occupancy
  Mg  Mg0  1  0.67010900  0.15952500  0.02893300  1
  Mg  Mg1  1  0.44006800  0.73518200  0.35530200  1
  Mg  Mg2  1  0.08001800  0.18107600  0.16695000  1
  Mg  Mg3  1  0.70684600  0.22826800  0.66383100  1
  Mg  Mg4  1  0.56357200  0.49097200  0.50929400  1
  Mg  Mg5  1  0.80087600  0.89202800  0.82932600  1
  Sb  Sb0  1  0.06231100  0.75213200  0.14954200  1
  Sb  Sb1  1  0.03723100  0.41397500  0.36185800  1
  Sb  Sb2  1  0.08784300  0.35296600  0.00247000  1
  Sb  Sb3  1  0.60157700  0.67577300  0.18563800  1
  Sb  Sb4  1  0.51345500  0.00472300  0.53875300  1
  Sb  Sb5  1  0.29899400  0.89807400  0.72731000  1
  Sb  Sb6  1  0.01915500  0.99488500  0.46811900  1
  Sb  Sb7  1  0.79845600  0.42918600  0.82829100  1
  Sb  Sb8  1  0.64907100  0.11685300  0.29742200  1
  Sb  Sb9  1  0.35572500  0.32011500  0.83414400  1
  Sb  Sb10  1  0.97507500  0.56758900  0.63796200  1
  Sb  Sb11  1  0.31018100  0.78130000  0.95162600  1
  O  O0  1  0.34187800  0.25789500  0.07863700  1
  O  O1  1  0.96425200  0.39372900  0.25162100  1
  O  O2  1  0.87182600  0.29773000  0.07059600  1
  O  O3  1  0.90662200  0.87068600  0.05031600  1
  O  O4  1  0.72882900  0.48862400  0.40809600  1
  O  O5  1  0.42715700  0.58558300  0.25656200  1
  O  O6  1  0.27705100  0.01072300  0.61474100  1
  O  O7  1  0.56563000  0.88238100  0.27546000  1
  O  O8  1  0.28607300  0.71666200  0.45905000  1
  O  O9  1  0.28801200  0.87794400  0.13386000  1
  O  O10  1  0.17269300  0.09325100  0.38437500  1
  O  O11  1  0.89217600  0.02521100  0.21388200  1
  O  O12  1  0.96572900  0.09037100  0.74136000  1
  O  O13  1  0.79515500  0.87585200  0.60923500  1
  O  O14  1  0.75122400  0.47318200  0.60395100  1
  O  O15  1  0.48152900  0.06439200  0.76225500  1
  O  O16  1  0.63171000  0.18470700  0.90364400  1
  O  O17  1  0.83340700  0.93568200  0.38754700  1
  O  O18  1  0.54115300  0.42213900  0.76159700  1
  O  O19  1  0.50293300  0.27518400  0.56579200  1
  O  O20  1  0.21362200  0.08627000  0.93603500  1
  O  O21  1  0.12945100  0.75505800  0.86556600  1
  O  O22  1  0.86051700  0.62604600  0.74973400  1
  O  O23  1  0.60080600  0.71607500  0.87931800  1
loop_
_geom_bond_atom_site_label_1
_geom_bond_atom_site_label_2
_geom_bond_distance
_geom_bond_site_symmetry_2
Mg0 O3 1.964309 1_545
Mg0 O0 2.093503 1_555
Mg0 O2 2.100815 1_555
Mg0 O16 2.137136 1_554
Mg1 O5 2.020765 1_555
Mg1 O8 2.045382 1_555
Mg1 O7 2.075633 1_555
Mg1 O4 2.103747 1_555
Mg1 O10 2.402638 1_565
Mg2 O1 1.981344 1_455
Mg2 O9 2.044322 1_545
Mg2 O2 2.047596 1_455
Mg2 O11 2.131796 1_455
Mg2 O0 2.491082 1_555
Mg3 O12 2.013097 1_555
Mg3 O19 2.067809 1_555
Mg3 O18 2.118851 1_555
Mg3 O14 2.134952 1_555
Mg3 O13 2.498207 1_545
Mg4 O19 1.983867 1_555
Mg4 O8 1.985472 1_555
Mg4 O14 1.997248 1_555
Mg4 O4 2.009473 1_555
Mg5 O21 2.007918 1_655
Mg5 O15 2.197868 1_565
Mg5 O22 2.226968 1_555
Mg5 O16 2.260492 1_565
Mg5 O23 2.325996 1_555
Mg5 O12 2.578135 1_565
O0 Sb2 1.968901 1_555
O1 Sb1 1.957586 1_655
O1 Sb3 2.562639 1_555
O2 Sb2 1.978503 1_655
O3 Sb0 1.948489 1_655
O4 Sb1 1.983450 1_655
O5 Sb3 1.937213 1_555
O6 Sb4 1.980390 1_555
O6 Sb5 2.040566 1_545
O7 Sb8 2.018384 1_565
O7 Sb3 2.070311 1_555
O8 Sb6 1.963045 1_555
O9 Sb0 2.052708 1_555
O9 Sb3 2.087506 1_555
O10 Sb6 2.018898 1_545
O10 Sb1 2.074366 1_555
O11 Sb8 1.992524 1_555
O11 Sb0 2.069069 1_645
O12 Sb5 1.986108 1_645
O12 Sb7 2.620607 1_555
O13 Sb10 2.021245 1_555
O13 Sb4 2.033092 1_565
O14 Sb10 1.957987 1_555
O15 Sb9 2.040541 1_555
O15 Sb5 2.118144 1_545
O16 Sb9 1.999616 1_555
O17 Sb8 2.006490 1_565
O17 Sb6 2.007524 1_655
O18 Sb7 2.053381 1_555
O18 Sb9 2.056873 1_555
O19 Sb4 1.958585 1_555
O20 Sb11 1.984255 1_545
O20 Sb2 2.044430 1_556
O21 Sb11 1.949684 1_555
O22 Sb10 2.006225 1_555
O22 Sb7 2.085674 1_555
O23 Sb7 2.054873 1_555
O23 Sb11 2.111816 1_555
