# generated using pymatgen
data_SrLaVFeO6
_symmetry_space_group_name_H-M   'P 1'
_cell_length_a   12.52289458
_cell_length_b   12.52289458
_cell_length_c   12.52289458
_cell_angle_alpha   154.45075869
_cell_angle_beta   154.45075869
_cell_angle_gamma   36.44476459
_symmetry_Int_Tables_number   1
_chemical_formula_structural   SrLaVFeO6
_chemical_formula_sum   'Sr3 La3 V3 Fe3 O18'
_cell_volume   364.81408645
_cell_formula_units_Z   3
loop_
 _symmetry_equiv_pos_site_id
 _symmetry_equiv_pos_as_xyz
  1  'x, y, z'
loop_
 _atom_site_type_symbol
 _atom_site_label
 _atom_site_symmetry_multiplicity
 _atom_site_fract_x
 _atom_site_fract_y
 _atom_site_fract_z
 _atom_site_occupancy
  Sr  Sr0  1  0.75000000  0.25000000  0.50000000  1
  Sr  Sr1  1  0.41669200  0.91669200  0.50000000  1
  Sr  Sr2  1  0.08330800  0.58330800  0.50000000  1
  La  La0  1  0.91685400  0.41685400  0.50000000  1
  La  La1  1  0.58314600  0.08314600  0.50000000  1
  La  La2  1  0.25000000  0.75000000  0.50000000  1
  V  V0  1  0.00000000  0.00000000  0.00000000  1
  V  V1  1  0.83294300  0.83294300  0.00000000  1
  V  V2  1  0.16705700  0.16705700  0.00000000  1
  Fe  Fe0  1  0.66655800  0.66655800  0.00000000  1
  Fe  Fe1  1  0.33344200  0.33344200  0.00000000  1
  Fe  Fe2  1  0.50000000  0.50000000  0.00000000  1
  O  O0  1  0.41114200  0.92071000  0.99759900  1
  O  O1  1  0.41114200  0.41354400  0.49043200  1
  O  O2  1  0.07929000  0.58885800  0.00240100  1
  O  O3  1  0.91662200  0.91662200  0.00000000  1
  O  O4  1  0.75071800  0.75071800  0.00000000  1
  O  O5  1  0.07929000  0.07688800  0.49043200  1
  O  O6  1  0.24514700  0.24514700  0.49029400  1
  O  O7  1  0.75485300  0.24514700  0.00000000  1
  O  O8  1  0.58340900  0.58340900  0.00000000  1
  O  O9  1  0.41659100  0.41659100  0.00000000  1
  O  O10  1  0.24514700  0.75485300  0.00000000  1
  O  O11  1  0.75485300  0.75485300  0.50970600  1
  O  O12  1  0.92311200  0.92071000  0.50956800  1
  O  O13  1  0.08337800  0.08337800  0.00000000  1
  O  O14  1  0.24928200  0.24928200  0.00000000  1
  O  O15  1  0.92311200  0.41354400  0.00240100  1
  O  O16  1  0.58645600  0.58885800  0.50956800  1
  O  O17  1  0.58645600  0.07688800  0.99759900  1
loop_
_geom_bond_atom_site_label_1
_geom_bond_atom_site_label_2
_geom_bond_distance
_geom_bond_site_symmetry_2
La0 O3 2.769025 1_556
La0 O3 2.769025 1_545
La0 O9 2.769026 1_656
La0 O9 2.769026 1_555
La0 O7 2.783478 1_555
La0 O6 2.783478 1_655
La0 O10 2.783478 1_656
La0 O11 2.783478 1_555
La0 O2 2.804202 1_656
La0 O5 2.804213 1_655
La0 O16 2.804213 1_555
La0 O17 2.804219 1_554
La1 O13 2.769025 1_555
La1 O13 2.769025 1_656
La1 O8 2.769026 1_556
La1 O8 2.769026 1_545
La1 O11 2.783478 1_545
La1 O6 2.783478 1_555
La1 O7 2.783478 1_556
La1 O10 2.783478 1_545
La1 O0 2.804202 1_544
La1 O1 2.804213 1_555
La1 O12 2.804213 1_545
La1 O15 2.804219 1_556
La2 O4 2.769072 1_455
La2 O14 2.769072 1_555
La2 O4 2.769072 1_556
La2 O14 2.769072 1_566
La2 O17 2.772234 1_565
La2 O15 2.772234 1_455
La2 O16 2.772239 1_555
La2 O5 2.772239 1_565
La2 O12 2.772239 1_455
La2 O1 2.772239 1_555
La2 O0 2.772251 1_555
La2 O2 2.772251 1_555
Fe0 O8 1.978093 1_555
Fe0 O0 1.995528 1_554
Fe0 O12 1.995528 1_555
Fe0 O1 1.995528 1_554
Fe0 O15 1.995528 1_555
Fe0 O4 2.002145 1_555
Fe1 O9 1.978093 1_555
Fe1 O2 1.995528 1_555
Fe1 O5 1.995528 1_554
Fe1 O16 1.995528 1_555
Fe1 O17 1.995528 1_554
Fe1 O14 2.002145 1_555
Fe2 O8 1.984279 1_555
Fe2 O9 1.984279 1_555
Fe2 O11 1.996001 1_555
Fe2 O6 1.996001 1_554
Fe2 O7 1.996001 1_555
Fe2 O10 1.996001 1_555
O0 V2 1.920548 1_566
O0 Sr0 2.785500 1_566
O0 Sr2 2.788283 1_555
O1 V2 1.920548 1_555
O1 Sr0 2.785495 1_555
O1 Sr2 2.788289 1_555
O2 V1 1.920548 1_455
O2 Sr0 2.785500 1_454
O2 Sr1 2.788283 1_555
O3 V0 1.983541 1_665
O3 V1 1.990702 1_555
O3 Sr1 2.769020 1_554
O3 Sr1 2.769020 1_655
O4 V1 1.956112 1_555
O4 Sr0 2.769072 1_565
O4 Sr0 2.769072 1_554
O5 V1 1.920548 1_445
O5 Sr0 2.785495 1_455
O5 Sr1 2.788289 1_545
O6 V0 1.919984 1_555
O6 Sr1 2.786218 1_545
O6 Sr2 2.786218 1_555
O7 V0 1.919984 1_655
O7 Sr1 2.786218 1_544
O7 Sr2 2.786218 1_655
O8 Sr2 2.769020 1_554
O8 Sr2 2.769020 1_655
O9 Sr1 2.769020 1_555
O9 Sr1 2.769020 1_544
O10 V0 1.919984 1_565
O10 Sr1 2.786218 1_555
O10 Sr2 2.786218 1_554
O11 V0 1.919984 1_666
O11 Sr2 2.786218 1_655
O11 Sr1 2.786218 1_555
O12 V2 1.920548 1_666
O12 Sr0 2.785495 1_565
O12 Sr2 2.788289 1_655
O13 V0 1.983541 1_555
O13 V2 1.990702 1_555
O13 Sr2 2.769020 1_555
O13 Sr2 2.769020 1_544
O14 V2 1.956112 1_555
O14 Sr0 2.769072 1_555
O14 Sr0 2.769072 1_454
O15 V2 1.920548 1_655
O15 Sr0 2.785483 1_554
O15 Sr2 2.788300 1_655
O16 V1 1.920548 1_556
O16 Sr0 2.785495 1_555
O16 Sr1 2.788289 1_555
O17 V1 1.920548 1_546
O17 Sr0 2.785483 1_556
O17 Sr1 2.788300 1_545
