# generated using pymatgen
data_Li5Mn2Fe3O10
_symmetry_space_group_name_H-M   'P 1'
_cell_length_a   6.62126470
_cell_length_b   7.96585050
_cell_length_c   7.89587405
_cell_angle_alpha   92.99795945
_cell_angle_beta   64.89889239
_cell_angle_gamma   89.24606141
_symmetry_Int_Tables_number   1
_chemical_formula_structural   Li5Mn2Fe3O10
_chemical_formula_sum   'Li10 Mn4 Fe6 O20'
_cell_volume   376.32587418
_cell_formula_units_Z   2
loop_
 _symmetry_equiv_pos_site_id
 _symmetry_equiv_pos_as_xyz
  1  'x, y, z'
loop_
 _atom_site_type_symbol
 _atom_site_label
 _atom_site_symmetry_multiplicity
 _atom_site_fract_x
 _atom_site_fract_y
 _atom_site_fract_z
 _atom_site_occupancy
  Li  Li0  1  0.99645500  0.99760400  0.50093400  1
  Li  Li1  1  0.49855200  0.49889200  0.49416100  1
  Li  Li2  1  0.14636400  0.34743400  0.41252200  1
  Li  Li3  1  0.64525500  0.84316200  0.41146700  1
  Li  Li4  1  0.85128200  0.65739400  0.59480000  1
  Li  Li5  1  0.35483200  0.16150300  0.59180300  1
  Li  Li6  1  0.56259600  0.95508900  0.77160200  1
  Li  Li7  1  0.05455800  0.45629500  0.77397800  1
  Li  Li8  1  0.44262400  0.04390100  0.22612700  1
  Li  Li9  1  0.93790400  0.54499600  0.22470900  1
  Mn  Mn0  1  0.70605300  0.29879800  0.69193100  1
  Mn  Mn1  1  0.20763700  0.80010700  0.69274000  1
  Mn  Mn2  1  0.28999200  0.69410200  0.30957600  1
  Mn  Mn3  1  0.79079400  0.19468000  0.30855100  1
  Fe  Fe0  1  0.74868700  0.75181900  0.00473500  1
  Fe  Fe1  1  0.25426000  0.25257900  0.00338400  1
  Fe  Fe2  1  0.90322700  0.10542100  0.89101600  1
  Fe  Fe3  1  0.40873200  0.60424300  0.89072600  1
  Fe  Fe4  1  0.09873300  0.90004900  0.11149300  1
  Fe  Fe5  1  0.60252600  0.40159400  0.10659400  1
  O  O0  1  0.21981500  0.03790500  0.86344500  1
  O  O1  1  0.71542700  0.53102400  0.85281400  1
  O  O2  1  0.78883600  0.98966600  0.15029400  1
  O  O3  1  0.27362400  0.48613400  0.14642400  1
  O  O4  1  0.58450600  0.17858100  0.92928800  1
  O  O5  1  0.09602300  0.69423400  0.93658300  1
  O  O6  1  0.40387300  0.81471800  0.06990200  1
  O  O7  1  0.92904400  0.30887400  0.06340100  1
  O  O8  1  0.68225100  0.07659700  0.52651200  1
  O  O9  1  0.17862400  0.57743400  0.52862200  1
  O  O10  1  0.31108800  0.89381400  0.44898600  1
  O  O11  1  0.81416700  0.39397300  0.44852600  1
  O  O12  1  0.11486000  0.12544400  0.24149300  1
  O  O13  1  0.60165000  0.63434000  0.25064300  1
  O  O14  1  0.89284000  0.88168800  0.76345700  1
  O  O15  1  0.38451600  0.37653000  0.76537700  1
  O  O16  1  0.00625700  0.22897300  0.66220500  1
  O  O17  1  0.50612700  0.72961200  0.66161900  1
  O  O18  1  0.99471600  0.76766600  0.33813100  1
  O  O19  1  0.50069400  0.26312900  0.33943000  1
loop_
_geom_bond_atom_site_label_1
_geom_bond_atom_site_label_2
_geom_bond_distance
_geom_bond_site_symmetry_2
Li0 O8 2.088227 1_565
Li0 O10 2.094282 1_655
Li0 O14 2.151816 1_555
Li0 O12 2.173641 1_665
Li0 O18 2.185028 1_555
Li0 O16 2.202343 1_665
Li1 O9 2.100256 1_555
Li1 O13 2.109507 1_555
Li1 O11 2.116400 1_555
Li1 O19 2.182777 1_555
Li1 O17 2.221060 1_555
Li1 O15 2.229795 1_555
Li2 O9 2.059974 1_555
Li2 O16 2.074529 1_555
Li2 O11 2.119747 1_455
Li2 O12 2.234524 1_555
Li2 O19 2.248895 1_555
Li2 O3 2.260641 1_555
Li3 O17 2.057455 1_555
Li3 O8 2.089743 1_565
Li3 O10 2.134027 1_555
Li3 O13 2.136742 1_555
Li3 O18 2.200264 1_555
Li3 O2 2.266268 1_555
Li4 O9 2.084325 1_655
Li4 O18 2.087091 1_555
Li4 O1 2.157868 1_555
Li4 O17 2.177807 1_555
Li4 O14 2.261936 1_555
Li4 O11 2.407981 1_555
Li5 O19 2.028657 1_555
Li5 O8 2.097578 1_555
Li5 O16 2.184569 1_555
Li5 O15 2.200621 1_555
Li5 O0 2.232974 1_555
Li5 O10 2.438108 1_545
Li6 O8 2.055441 1_565
Li6 O17 2.061546 1_555
Li6 O0 2.150928 1_565
Li6 O4 2.160766 1_565
Li6 O14 2.229458 1_555
Li6 O6 2.471574 1_556
Li7 O9 2.055554 1_555
Li7 O16 2.061009 1_555
Li7 O1 2.127006 1_455
Li7 O15 2.239307 1_555
Li7 O5 2.318299 1_555
Li7 O7 2.446864 1_456
Li8 O19 2.035678 1_555
Li8 O10 2.057069 1_545
Li8 O2 2.140658 1_545
Li8 O12 2.208558 1_555
Li8 O6 2.228382 1_545
Li8 O4 2.438926 1_554
Li9 O18 2.055960 1_555
Li9 O11 2.064343 1_555
Li9 O3 2.078379 1_655
Li9 O7 2.231415 1_555
Li9 O13 2.249816 1_555
Li9 O5 2.445375 1_654
Mn0 O11 1.944310 1_555
Mn0 O16 1.968998 1_655
Mn0 O4 2.001369 1_555
Mn0 O15 2.032859 1_555
Mn0 O8 2.191789 1_555
Mn0 O1 2.205381 1_555
Mn1 O10 1.943162 1_555
Mn1 O17 1.956048 1_555
Mn1 O5 1.985810 1_555
Mn1 O14 2.004391 1_455
Mn1 O9 2.200496 1_555
Mn1 O0 2.289244 1_565
Mn2 O9 1.871614 1_555
Mn2 O10 1.927487 1_555
Mn2 O18 1.949020 1_455
Mn2 O13 1.959020 1_555
Mn2 O6 2.017823 1_555
Mn2 O3 2.077423 1_555
Mn3 O8 1.871055 1_555
Mn3 O19 1.899347 1_555
Mn3 O11 1.932305 1_555
Mn3 O2 2.007363 1_545
Mn3 O7 2.028545 1_555
Mn3 O12 2.040357 1_655
Fe0 O13 2.050329 1_555
Fe0 O14 2.073651 1_554
Fe0 O1 2.143479 1_554
Fe0 O6 2.162079 1_555
Fe0 O5 2.164604 1_654
Fe0 O2 2.241877 1_555
Fe1 O15 2.022814 1_554
Fe1 O7 2.036941 1_455
Fe1 O12 2.040522 1_555
Fe1 O0 2.055151 1_554
Fe1 O4 2.077443 1_554
Fe1 O3 2.159332 1_555
Fe2 O16 1.963679 1_655
Fe2 O14 2.017354 1_545
Fe2 O4 2.071863 1_555
Fe2 O0 2.074045 1_655
Fe2 O7 2.117178 1_556
Fe2 O2 2.124927 1_546
Fe3 O17 1.975308 1_555
Fe3 O1 1.997094 1_555
Fe3 O5 2.056646 1_555
Fe3 O15 2.061585 1_555
Fe3 O3 2.109529 1_556
Fe3 O6 2.127307 1_556
Fe4 O18 1.989865 1_455
Fe4 O6 2.007368 1_555
Fe4 O12 2.047921 1_565
Fe4 O2 2.054028 1_455
Fe4 O5 2.092978 1_554
Fe4 O0 2.144884 1_564
Fe5 O19 2.056955 1_555
Fe5 O13 2.122411 1_555
Fe5 O1 2.145363 1_554
Fe5 O7 2.154522 1_555
Fe5 O3 2.157121 1_555
Fe5 O4 2.239924 1_554
