# generated using pymatgen
data_Ba4Li(BN2)3
_symmetry_space_group_name_H-M   'P 1'
_cell_length_a   6.87450619
_cell_length_b   6.87450619
_cell_length_c   6.87450619
_cell_angle_alpha   109.47122063
_cell_angle_beta   109.47122063
_cell_angle_gamma   109.47122063
_symmetry_Int_Tables_number   1
_chemical_formula_structural   Ba4Li(BN2)3
_chemical_formula_sum   'Ba4 Li1 B3 N6'
_cell_volume   250.09363077
_cell_formula_units_Z   1
loop_
 _symmetry_equiv_pos_site_id
 _symmetry_equiv_pos_as_xyz
  1  'x, y, z'
loop_
 _atom_site_type_symbol
 _atom_site_label
 _atom_site_symmetry_multiplicity
 _atom_site_fract_x
 _atom_site_fract_y
 _atom_site_fract_z
 _atom_site_occupancy
  Ba  Ba0  1  0.50000000  0.50000000  0.50000000  1
  Ba  Ba1  1  0.00000000  0.00000000  0.50000000  1
  Ba  Ba2  1  0.00000000  0.50000000  0.00000000  1
  Ba  Ba3  1  0.50000000  0.00000000  0.00000000  1
  Li  Li0  1  0.00000000  0.00000000  0.00000000  1
  B  B0  1  0.00000000  0.50000000  0.50000000  1
  B  B1  1  0.50000000  0.00000000  0.50000000  1
  B  B2  1  0.50000000  0.50000000  0.00000000  1
  N  N0  1  0.00000000  0.32897800  0.32897800  1
  N  N1  1  0.00000000  0.67102200  0.67102200  1
  N  N2  1  0.32897800  0.00000000  0.32897800  1
  N  N3  1  0.67102200  0.00000000  0.67102200  1
  N  N4  1  0.32897800  0.32897800  0.00000000  1
  N  N5  1  0.67102200  0.67102200  0.00000000  1
loop_
_geom_bond_atom_site_label_1
_geom_bond_atom_site_label_2
_geom_bond_distance
_geom_bond_site_symmetry_2
Ba0 N0 2.875676 1_555
Ba0 N5 2.875676 1_556
Ba0 N4 2.875676 1_555
Ba0 N1 2.875676 1_655
Ba0 N3 2.875676 1_565
Ba0 N2 2.875676 1_555
Ba1 N0 2.875676 1_555
Ba1 N3 2.875676 1_455
Ba1 N1 2.875676 1_545
Ba1 N5 2.875676 1_445
Ba1 N4 2.875676 1_556
Ba1 N2 2.875676 1_555
Ba2 N0 2.875676 1_555
Ba2 N4 2.875676 1_555
Ba2 N2 2.875676 1_565
Ba2 N3 2.875676 1_454
Ba2 N1 2.875676 1_554
Ba2 N5 2.875676 1_455
Ba3 N1 2.875676 1_544
Ba3 N3 2.875676 1_554
Ba3 N0 2.875676 1_655
Ba3 N5 2.875676 1_545
Ba3 N4 2.875676 1_555
Ba3 N2 2.875676 1_555
Li0 N0 2.611426 1_555
Li0 N1 2.611426 1_544
Li0 N5 2.611426 1_445
Li0 N4 2.611426 1_555
Li0 N3 2.611426 1_454
Li0 N2 2.611426 1_555
B0 N1 1.357572 1_555
B0 N0 1.357572 1_555
B1 N3 1.357572 1_555
B1 N2 1.357572 1_555
B2 N4 1.357572 1_555
B2 N5 1.357572 1_555
