# generated using pymatgen
data_Sr12Zn2Co6O25
_symmetry_space_group_name_H-M   'P 1'
_cell_length_a   7.85382936
_cell_length_b   7.85382936
_cell_length_c   10.40878477
_cell_angle_alpha   79.09610465
_cell_angle_beta   79.09610465
_cell_angle_gamma   90.00160946
_symmetry_Int_Tables_number   1
_chemical_formula_structural   Sr12Zn2Co6O25
_chemical_formula_sum   'Sr12 Zn2 Co6 O25'
_cell_volume   618.64044263
_cell_formula_units_Z   1
loop_
 _symmetry_equiv_pos_site_id
 _symmetry_equiv_pos_as_xyz
  1  'x, y, z'
loop_
 _atom_site_type_symbol
 _atom_site_label
 _atom_site_symmetry_multiplicity
 _atom_site_fract_x
 _atom_site_fract_y
 _atom_site_fract_z
 _atom_site_occupancy
  Sr  Sr0  1  0.65684600  0.65684600  0.35783300  1
  Sr  Sr1  1  0.65708100  0.16514200  0.35487700  1
  Sr  Sr2  1  0.16514200  0.65708100  0.35487700  1
  Sr  Sr3  1  0.16488500  0.16488500  0.35708200  1
  Sr  Sr4  1  0.34291900  0.83485800  0.64512300  1
  Sr  Sr5  1  0.34315400  0.34315400  0.64216700  1
  Sr  Sr6  1  0.83511500  0.83511500  0.64291800  1
  Sr  Sr7  1  0.83485800  0.34291900  0.64512300  1
  Sr  Sr8  1  0.75682300  0.75682300  0.00064600  1
  Sr  Sr9  1  0.75701000  0.24299000  0.00000000  1
  Sr  Sr10  1  0.24299000  0.75701000  0.00000000  1
  Sr  Sr11  1  0.24317700  0.24317700  0.99935400  1
  Zn  Zn0  1  0.55046000  0.55046000  0.79734000  1
  Zn  Zn1  1  0.44954000  0.44954000  0.20266000  1
  Co  Co0  1  0.05214100  0.55281800  0.79026400  1
  Co  Co1  1  0.04812300  0.04812300  0.80709600  1
  Co  Co2  1  0.55281800  0.05214100  0.79026400  1
  Co  Co3  1  0.95187700  0.95187700  0.19290400  1
  Co  Co4  1  0.44718200  0.94785900  0.20973600  1
  Co  Co5  1  0.94785900  0.44718200  0.20973600  1
  O  O0  1  0.60336400  0.60336400  0.60089900  1
  O  O1  1  0.60133100  0.09629200  0.60512100  1
  O  O2  1  0.09629200  0.60133100  0.60512100  1
  O  O3  1  0.09186500  0.09186500  0.62427300  1
  O  O4  1  0.39866900  0.90370800  0.39487900  1
  O  O5  1  0.39663600  0.39663600  0.39910100  1
  O  O6  1  0.90813500  0.90813500  0.37572700  1
  O  O7  1  0.90370800  0.39866900  0.39487900  1
  O  O8  1  0.27930000  0.54230100  0.83324600  1
  O  O9  1  0.30906700  0.04476600  0.81767000  1
  O  O10  1  0.80378800  0.54219500  0.83355400  1
  O  O11  1  0.78200600  0.04468800  0.81833300  1
  O  O12  1  0.54219500  0.80378800  0.83355400  1
  O  O13  1  0.54230100  0.27930000  0.83324600  1
  O  O14  1  0.04468800  0.78200600  0.81833300  1
  O  O15  1  0.04476600  0.30906700  0.81767000  1
  O  O16  1  0.69093300  0.95523400  0.18233000  1
  O  O17  1  0.72070000  0.45769900  0.16675400  1
  O  O18  1  0.21799400  0.95531200  0.18166700  1
  O  O19  1  0.19621200  0.45780500  0.16644600  1
  O  O20  1  0.45769900  0.72070000  0.16675400  1
  O  O21  1  0.45780500  0.19621200  0.16644600  1
  O  O22  1  0.95523400  0.69093300  0.18233000  1
  O  O23  1  0.95531200  0.21799400  0.18166700  1
  O  O24  1  0.00000000  0.00000000  0.00000000  1
loop_
_geom_bond_atom_site_label_1
_geom_bond_atom_site_label_2
_geom_bond_distance
_geom_bond_site_symmetry_2
Co0 O2 1.857033 1_555
Co0 O14 1.876511 1_555
Co0 O15 1.880616 1_555
Co0 O10 1.915149 1_455
Co0 O8 1.917779 1_555
Co1 O3 1.833754 1_555
Co1 O24 1.934715 1_556
Co1 O14 2.070986 1_545
Co1 O11 2.070986 1_455
Co1 O9 2.072952 1_555
Co1 O15 2.072952 1_555
Co2 O1 1.857033 1_555
Co2 O11 1.876511 1_555
Co2 O9 1.880616 1_555
Co2 O12 1.915149 1_545
Co2 O13 1.917779 1_555
Co3 O6 1.833754 1_555
Co3 O24 1.934715 1_665
Co3 O23 2.070986 1_565
Co3 O18 2.070986 1_655
Co3 O16 2.072952 1_555
Co3 O22 2.072952 1_555
Co4 O4 1.857033 1_555
Co4 O18 1.876511 1_555
Co4 O16 1.880616 1_555
Co4 O21 1.915149 1_565
Co4 O20 1.917779 1_555
Co5 O7 1.857033 1_555
Co5 O23 1.876511 1_555
Co5 O22 1.880616 1_555
Co5 O19 1.915149 1_655
Co5 O17 1.917779 1_555
O0 Zn0 1.970606 1_555
O0 Sr0 2.439215 1_555
O0 Sr6 2.723823 1_555
O0 Sr4 2.768045 1_555
O0 Sr7 2.768045 1_555
O0 Sr5 2.805891 1_555
O1 Sr1 2.510859 1_555
O1 Sr6 2.775215 1_545
O1 Sr4 2.804431 1_545
O1 Sr7 2.807648 1_555
O1 Sr5 2.829561 1_555
O2 Sr2 2.510859 1_555
O2 Sr6 2.775215 1_455
O2 Sr7 2.804431 1_455
O2 Sr4 2.807648 1_555
O2 Sr5 2.829561 1_555
O3 Sr3 2.680606 1_555
O3 Sr6 2.806000 1_445
O3 Sr4 2.829403 1_545
O3 Sr7 2.829403 1_455
O3 Sr5 2.846516 1_555
O4 Sr4 2.510859 1_555
O4 Sr3 2.775215 1_565
O4 Sr1 2.804431 1_565
O4 Sr2 2.807648 1_555
O4 Sr0 2.829561 1_555
O5 Zn1 1.970606 1_555
O5 Sr5 2.439215 1_555
O5 Sr3 2.723823 1_555
O5 Sr1 2.768045 1_555
O5 Sr2 2.768045 1_555
O5 Sr0 2.805891 1_555
O6 Sr6 2.680606 1_555
O6 Sr3 2.806000 1_665
O6 Sr1 2.829403 1_565
O6 Sr2 2.829403 1_655
O6 Sr0 2.846516 1_555
O7 Sr7 2.510859 1_555
O7 Sr3 2.775215 1_655
O7 Sr2 2.804431 1_655
O7 Sr1 2.807648 1_555
O7 Sr0 2.829561 1_555
O8 Zn0 2.090211 1_555
O8 Sr10 2.618712 1_556
O8 Sr11 2.620425 1_555
O8 Sr4 2.700178 1_555
O8 Sr5 2.730037 1_555
O9 Sr4 2.636983 1_545
O9 Sr10 2.642592 1_546
O9 Sr11 2.648968 1_555
O9 Sr5 2.663839 1_555
O10 Zn0 2.092670 1_555
O10 Sr8 2.620850 1_556
O10 Sr9 2.622498 1_556
O10 Sr7 2.708532 1_555
O10 Sr6 2.716372 1_555
O11 Sr8 2.643196 1_546
O11 Sr9 2.648300 1_556
O11 Sr7 2.651063 1_555
O11 Sr6 2.658151 1_545
O12 Zn0 2.092670 1_555
O12 Sr8 2.620850 1_556
O12 Sr10 2.622498 1_556
O12 Sr4 2.708532 1_555
O12 Sr6 2.716372 1_555
O13 Zn0 2.090211 1_555
O13 Sr9 2.618712 1_556
O13 Sr11 2.620425 1_555
O13 Sr7 2.700178 1_555
O13 Sr5 2.730037 1_555
O14 Sr8 2.643196 1_456
O14 Sr10 2.648300 1_556
O14 Sr4 2.651063 1_555
O14 Sr6 2.658151 1_455
O15 Sr7 2.636983 1_455
O15 Sr9 2.642592 1_456
O15 Sr11 2.648968 1_555
O15 Sr5 2.663839 1_555
O16 Sr1 2.636983 1_565
O16 Sr9 2.642592 1_565
O16 Sr8 2.648968 1_555
O16 Sr0 2.663839 1_555
O17 Zn1 2.090211 1_555
O17 Sr9 2.618712 1_555
O17 Sr8 2.620425 1_555
O17 Sr1 2.700178 1_555
O17 Sr0 2.730037 1_555
O18 Sr11 2.643196 1_564
O18 Sr10 2.648300 1_555
O18 Sr2 2.651063 1_555
O18 Sr3 2.658151 1_565
O19 Zn1 2.092670 1_555
O19 Sr11 2.620850 1_554
O19 Sr10 2.622498 1_555
O19 Sr2 2.708532 1_555
O19 Sr3 2.716372 1_555
O20 Zn1 2.090211 1_555
O20 Sr10 2.618712 1_555
O20 Sr8 2.620425 1_555
O20 Sr2 2.700178 1_555
O20 Sr0 2.730037 1_555
O21 Zn1 2.092670 1_555
O21 Sr11 2.620850 1_554
O21 Sr9 2.622498 1_555
O21 Sr1 2.708532 1_555
O21 Sr3 2.716372 1_555
O22 Sr2 2.636983 1_655
O22 Sr10 2.642592 1_655
O22 Sr8 2.648968 1_555
O22 Sr0 2.663839 1_555
O23 Sr11 2.643196 1_654
O23 Sr9 2.648300 1_555
O23 Sr1 2.651063 1_555
O23 Sr3 2.658151 1_655
O24 Sr10 2.698926 1_545
O24 Sr9 2.698926 1_455
O24 Sr11 2.699136 1_554
O24 Sr8 2.699136 1_445
