# generated using pymatgen
data_Bi2(S2O7)3
_symmetry_space_group_name_H-M   'P 1'
_cell_length_a   6.58517504
_cell_length_b   10.21493283
_cell_length_c   11.52680344
_cell_angle_alpha   90.96829078
_cell_angle_beta   96.77862806
_cell_angle_gamma   94.70841570
_symmetry_Int_Tables_number   1
_chemical_formula_structural   Bi2(S2O7)3
_chemical_formula_sum   'Bi4 S12 O42'
_cell_volume   767.07939201
_cell_formula_units_Z   2
loop_
 _symmetry_equiv_pos_site_id
 _symmetry_equiv_pos_as_xyz
  1  'x, y, z'
loop_
 _atom_site_type_symbol
 _atom_site_label
 _atom_site_symmetry_multiplicity
 _atom_site_fract_x
 _atom_site_fract_y
 _atom_site_fract_z
 _atom_site_occupancy
  Bi  Bi0  1  0.83352840  0.41343130  0.72132945  1
  Bi  Bi1  1  0.16647130  0.58656945  0.27867350  1
  Bi  Bi2  1  0.41248182  0.90580902  0.73667653  1
  Bi  Bi3  1  0.58752491  0.09419621  0.26332094  1
  S  S0  1  0.36110566  0.55402557  0.76318304  1
  S  S1  1  0.63888813  0.44597947  0.23681151  1
  S  S2  1  0.41800176  0.18787443  0.54918353  1
  S  S3  1  0.58199813  0.81212372  0.45081688  1
  S  S4  1  0.70784903  0.67076688  0.90849096  1
  S  S5  1  0.29214734  0.32923999  0.09151236  1
  S  S6  1  0.92685177  0.07035900  0.77412673  1
  S  S7  1  0.07315312  0.92963945  0.22587185  1
  S  S8  1  0.67285148  0.16824573  0.93216419  1
  S  S9  1  0.32715723  0.83175261  0.06783769  1
  S  S10  1  0.03864403  0.29780482  0.45893418  1
  S  S11  1  0.96135528  0.70219503  0.54106759  1
  O  O0  1  0.67911126  0.77706466  0.82693270  1
  O  O1  1  0.32089141  0.22293844  0.17306845  1
  O  O2  1  0.28703646  0.67805855  0.72665702  1
  O  O3  1  0.71295820  0.32194663  0.27333749  1
  O  O4  1  0.33862247  0.05811387  0.57963406  1
  O  O5  1  0.66137503  0.94188326  0.42036548  1
  O  O6  1  0.87151397  0.08968903  0.90754594  1
  O  O7  1  0.12848363  0.91030392  0.09245356  1
  O  O8  1  0.48073537  0.57824881  0.89098535  1
  O  O9  1  0.51925638  0.42175547  0.10900830  1
  O  O10  1  0.74209963  0.00869877  0.70758505  1
  O  O11  1  0.25790610  0.99129448  0.29240873  1
  O  O12  1  0.85112889  0.58121173  0.87333534  1
  O  O13  1  0.14886350  0.41878746  0.12666580  1
  O  O14  1  0.98476038  0.20010122  0.73481524  1
  O  O15  1  0.01524589  0.79989695  0.26518576  1
  O  O16  1  0.23647039  0.28201766  0.55781425  1
  O  O17  1  0.76352613  0.71798047  0.44218714  1
  O  O18  1  0.70720165  0.29799694  0.88539492  1
  O  O19  1  0.29280957  0.70200126  0.11460953  1
  O  O20  1  0.46884517  0.19625905  0.43107366  1
  O  O21  1  0.53116102  0.80374146  0.56893132  1
  O  O22  1  0.19623619  0.45670739  0.77907466  1
  O  O23  1  0.80375922  0.54329644  0.22091939  1
  O  O24  1  0.57308103  0.24736577  0.63663330  1
  O  O25  1  0.42691518  0.75263054  0.36337467  1
  O  O26  1  0.50719057  0.50798768  0.69045791  1
  O  O27  1  0.49280046  0.49201624  0.30953750  1
  O  O28  1  0.09184969  0.98761389  0.79187861  1
  O  O29  1  0.90815433  0.01238315  0.20812331  1
  O  O30  1  0.68448149  0.16823576  0.05649269  1
  O  O31  1  0.31552695  0.83176042  0.94350850  1
  O  O32  1  0.73113885  0.70618775  0.02836887  1
  O  O33  1  0.26884783  0.29381491  0.97163025  1
  O  O34  1  0.91605127  0.37269313  0.52802526  1
  O  O35  1  0.08394680  0.62730413  0.47197605  1
  O  O36  1  0.95226194  0.16865629  0.42287823  1
  O  O37  1  0.04774027  0.83134453  0.57711851  1
  O  O38  1  0.12468855  0.37451849  0.36969223  1
  O  O39  1  0.87531506  0.62548254  0.63031106  1
  O  O40  1  0.49749723  0.08998100  0.87121838  1
  O  O41  1  0.50250417  0.91001914  0.12878561  1
loop_
_geom_bond_atom_site_label_1
_geom_bond_atom_site_label_2
_geom_bond_distance
_geom_bond_site_symmetry_2
Bi0 O34 2.392676 1_555
Bi0 O22 2.405157 1_655
Bi0 O12 2.416346 1_555
Bi0 O24 2.417307 1_555
Bi0 O26 2.418592 1_555
Bi0 O39 2.432177 1_555
Bi0 O18 2.438155 1_555
Bi0 O14 2.468977 1_555
Bi1 O35 2.392655 1_555
Bi1 O23 2.405197 1_455
Bi1 O13 2.416367 1_555
Bi1 O25 2.417282 1_555
Bi1 O27 2.418521 1_555
Bi1 O38 2.432174 1_555
Bi1 O19 2.438159 1_555
Bi1 O15 2.468933 1_555
Bi2 O10 2.395361 1_565
Bi2 O2 2.400215 1_555
Bi2 O40 2.404443 1_565
Bi2 O21 2.420508 1_555
Bi2 O0 2.426692 1_555
Bi2 O4 2.438321 1_565
Bi2 O28 2.479938 1_555
Bi2 O31 2.646652 1_555
Bi3 O11 2.395401 1_545
Bi3 O3 2.400194 1_555
Bi3 O41 2.404440 1_545
Bi3 O20 2.420560 1_555
Bi3 O1 2.426683 1_555
Bi3 O5 2.438384 1_545
Bi3 O29 2.479937 1_555
Bi3 O30 2.646590 1_555
O0 S4 1.457691 1_555
O1 S5 1.457710 1_555
O2 S0 1.446181 1_555
O3 S1 1.446181 1_555
O4 S2 1.448678 1_555
O5 S3 1.448667 1_555
O6 S6 1.634245 1_555
O6 S8 1.639572 1_555
O7 S7 1.634225 1_555
O7 S9 1.639597 1_555
O8 S0 1.591767 1_555
O8 S4 1.691422 1_555
O9 S1 1.591782 1_555
O9 S5 1.691383 1_555
O10 S6 1.450097 1_555
O11 S7 1.450059 1_555
O12 S4 1.452838 1_555
O13 S5 1.452795 1_555
O14 S6 1.444061 1_555
O15 S7 1.444071 1_555
O16 S2 1.605394 1_555
O16 S10 1.646923 1_555
O17 S3 1.605374 1_555
O17 S11 1.646936 1_555
O18 S8 1.449896 1_555
O19 S9 1.449907 1_555
O20 S2 1.442138 1_555
O21 S3 1.442174 1_555
O22 S0 1.440984 1_555
O23 S1 1.440985 1_555
O24 S2 1.436210 1_555
O25 S3 1.436177 1_555
O26 S0 1.449357 1_555
O27 S1 1.449373 1_555
O28 S6 1.428634 1_465
O29 S7 1.428626 1_645
O30 S8 1.426102 1_554
O31 S9 1.426109 1_556
O32 S4 1.409892 1_554
O33 S5 1.409947 1_556
O34 S10 1.450427 1_655
O35 S11 1.450440 1_455
O36 S10 1.427997 1_655
O37 S11 1.427998 1_455
O38 S10 1.444036 1_555
O39 S11 1.444031 1_555
O40 S8 1.450535 1_555
O41 S9 1.450519 1_555
