# generated using pymatgen
data_CaLa3Mn4O12
_symmetry_space_group_name_H-M   'P 1'
_cell_length_a   7.85192300
_cell_length_b   5.54385300
_cell_length_c   5.54622220
_cell_angle_alpha   89.44820336
_cell_angle_beta   90.00000000
_cell_angle_gamma   90.00000000
_symmetry_Int_Tables_number   1
_chemical_formula_structural   CaLa3Mn4O12
_chemical_formula_sum   'Ca1 La3 Mn4 O12'
_cell_volume   241.41534001
_cell_formula_units_Z   1
loop_
 _symmetry_equiv_pos_site_id
 _symmetry_equiv_pos_as_xyz
  1  'x, y, z'
loop_
 _atom_site_type_symbol
 _atom_site_label
 _atom_site_symmetry_multiplicity
 _atom_site_fract_x
 _atom_site_fract_y
 _atom_site_fract_z
 _atom_site_occupancy
  Ca  Ca0  1  0.00000000  0.49235400  0.47022000  1
  La  La0  1  0.00000000  0.00647200  0.97228900  1
  La  La1  1  0.50000000  0.50604400  0.52629700  1
  La  La2  1  0.50000000  0.99491900  0.02809400  1
  Mn  Mn0  1  0.24673100  0.50018000  0.00034400  1
  Mn  Mn1  1  0.75372800  0.00021600  0.50005300  1
  Mn  Mn2  1  0.75326900  0.50018000  0.00034400  1
  Mn  Mn3  1  0.24627200  0.00021600  0.50005300  1
  O  O0  1  0.21439900  0.21821700  0.21697100  1
  O  O1  1  0.78966000  0.27823100  0.71880800  1
  O  O2  1  0.71056100  0.77973700  0.78152000  1
  O  O3  1  0.29154300  0.72564500  0.27832300  1
  O  O4  1  0.28943900  0.77973700  0.78152000  1
  O  O5  1  0.70845700  0.72564500  0.27832300  1
  O  O6  1  0.78560100  0.21821700  0.21697100  1
  O  O7  1  0.21034000  0.27823100  0.71880800  1
  O  O8  1  0.00000000  0.57301300  0.01756700  1
  O  O9  1  0.00000000  0.92055800  0.51320700  1
  O  O10  1  0.50000000  0.43096000  0.98928000  1
  O  O11  1  0.50000000  0.07122600  0.49100600  1
loop_
_geom_bond_atom_site_label_1
_geom_bond_atom_site_label_2
_geom_bond_distance
_geom_bond_site_symmetry_2
Ca0 O9 2.388126 1_555
Ca0 O1 2.450751 1_455
Ca0 O7 2.450751 1_555
Ca0 O8 2.545783 1_555
Ca0 O0 2.675378 1_555
Ca0 O6 2.675378 1_455
Ca0 O3 2.831828 1_555
Ca0 O5 2.831828 1_455
La0 O8 2.413712 1_546
La0 O0 2.466634 1_556
La0 O6 2.466634 1_456
La0 O9 2.594841 1_545
La0 O1 2.633091 1_455
La0 O7 2.633091 1_555
La0 O2 2.808922 1_445
La0 O4 2.808922 1_545
La0 O9 3.033091 1_546
La0 O8 3.153253 1_556
La0 O5 3.239472 1_446
La0 O3 3.239472 1_546
La1 O11 2.420379 1_555
La1 O5 2.453666 1_555
La1 O3 2.453666 1_555
La1 O10 2.597366 1_555
La1 O4 2.660967 1_555
La1 O2 2.660967 1_555
La1 O7 2.807480 1_555
La1 O1 2.807480 1_555
La1 O10 3.011330 1_554
La1 O11 3.137512 1_565
La1 O6 3.251311 1_555
La1 O0 3.251311 1_555
La2 O10 2.424848 1_564
La2 O2 2.461332 1_554
La2 O4 2.461332 1_554
La2 O11 2.606048 1_565
La2 O5 2.606478 1_555
La2 O3 2.606478 1_555
La2 O6 2.771949 1_565
La2 O0 2.771949 1_565
La2 O11 3.004662 1_564
La2 O10 3.135976 1_554
La2 O7 3.245050 1_564
La2 O1 3.245050 1_564
Mn0 O0 1.978701 1_555
Mn0 O8 1.981435 1_555
Mn0 O4 1.987741 1_554
Mn0 O7 2.017629 1_554
Mn0 O3 2.024902 1_555
Mn0 O10 2.026377 1_554
Mn1 O9 1.984680 1_645
Mn1 O6 1.987895 1_555
Mn1 O1 1.990767 1_555
Mn1 O5 1.997940 1_545
Mn1 O2 2.002279 1_545
Mn1 O11 2.031301 1_555
Mn2 O6 1.978701 1_555
Mn2 O8 1.981435 1_655
Mn2 O2 1.987741 1_554
Mn2 O1 2.017629 1_554
Mn2 O5 2.024902 1_555
Mn2 O10 2.026377 1_554
Mn3 O9 1.984680 1_545
Mn3 O0 1.987895 1_555
Mn3 O7 1.990767 1_555
Mn3 O3 1.997940 1_545
Mn3 O4 2.002279 1_545
Mn3 O11 2.031301 1_555
