# generated using pymatgen
data_CeSn3
_symmetry_space_group_name_H-M   'P 1'
_cell_length_a   4.72154731
_cell_length_b   4.72155889
_cell_length_c   4.72152732
_cell_angle_alpha   90.00000000
_cell_angle_beta   90.00000000
_cell_angle_gamma   90.00000000
_symmetry_Int_Tables_number   1
_chemical_formula_structural   CeSn3
_chemical_formula_sum   'Ce1 Sn3'
_cell_volume   105.25730919
_cell_formula_units_Z   1
loop_
 _symmetry_equiv_pos_site_id
 _symmetry_equiv_pos_as_xyz
  1  'x, y, z'
loop_
 _atom_site_type_symbol
 _atom_site_label
 _atom_site_symmetry_multiplicity
 _atom_site_fract_x
 _atom_site_fract_y
 _atom_site_fract_z
 _atom_site_occupancy
  Ce  Ce0  1  -0.00000000  0.00000000  -0.00000000  1
  Sn  Sn0  1  0.50000000  0.00000000  0.50000000  1
  Sn  Sn1  1  0.00000000  0.50000000  0.50000000  1
  Sn  Sn2  1  0.50000000  0.50000000  -0.00000000  1
loop_
_geom_bond_atom_site_label_1
_geom_bond_atom_site_label_2
_geom_bond_distance
_geom_bond_site_symmetry_2
Ce0 Sn0 3.338631 1_554
Ce0 Sn0 3.338631 1_555
Ce0 Sn0 3.338631 1_455
Ce0 Sn0 3.338631 1_454
Ce0 Sn1 3.338635 1_545
Ce0 Sn1 3.338635 1_554
Ce0 Sn1 3.338635 1_544
Ce0 Sn1 3.338635 1_555
Ce0 Sn2 3.338642 1_445
Ce0 Sn2 3.338642 1_455
Ce0 Sn2 3.338642 1_555
Ce0 Sn2 3.338642 1_545
Sn0 Sn2 3.338635 1_545
Sn0 Sn2 3.338635 1_555
Sn0 Sn2 3.338635 1_556
Sn0 Sn2 3.338635 1_546
Sn0 Sn1 3.338642 1_555
Sn0 Sn1 3.338642 1_655
Sn0 Sn1 3.338642 1_545
Sn0 Sn1 3.338642 1_645
Sn1 Sn2 3.338631 1_456
Sn1 Sn2 3.338631 1_556
Sn1 Sn2 3.338631 1_455
Sn1 Sn2 3.338631 1_555
