# generated using pymatgen
data_AuNCl4
_symmetry_space_group_name_H-M   'P 1'
_cell_length_a   6.97273908
_cell_length_b   6.97273908
_cell_length_c   9.93231600
_cell_angle_alpha   79.00572739
_cell_angle_beta   79.00572739
_cell_angle_gamma   50.26547043
_symmetry_Int_Tables_number   1
_chemical_formula_structural   AuNCl4
_chemical_formula_sum   'Au2 N2 Cl8'
_cell_volume   363.02418604
_cell_formula_units_Z   2
loop_
 _symmetry_equiv_pos_site_id
 _symmetry_equiv_pos_as_xyz
  1  'x, y, z'
loop_
 _atom_site_type_symbol
 _atom_site_label
 _atom_site_symmetry_multiplicity
 _atom_site_fract_x
 _atom_site_fract_y
 _atom_site_fract_z
 _atom_site_occupancy
  Au  Au0  1  0.50000000  0.00000000  0.50000000  1
  Au  Au1  1  0.00000000  0.50000000  0.00000000  1
  N  N0  1  0.72956500  0.27043500  0.75000000  1
  N  N1  1  0.27043500  0.72956500  0.25000000  1
  Cl  Cl0  1  0.68715500  0.77413400  0.85479500  1
  Cl  Cl1  1  0.31284500  0.22586600  0.14520500  1
  Cl  Cl2  1  0.22586600  0.31284500  0.64520500  1
  Cl  Cl3  1  0.77413400  0.68715500  0.35479500  1
  Cl  Cl4  1  0.29384500  0.83617600  0.56961400  1
  Cl  Cl5  1  0.70615500  0.16382400  0.43038600  1
  Cl  Cl6  1  0.16382400  0.70615500  0.93038600  1
  Cl  Cl7  1  0.83617600  0.29384500  0.06961400  1
loop_
_geom_bond_atom_site_label_1
_geom_bond_atom_site_label_2
_geom_bond_distance
_geom_bond_site_symmetry_2
Au0 Cl5 2.295243 1_555
Au0 Cl4 2.295243 1_545
Au0 Cl2 2.304322 1_555
Au0 Cl3 2.304322 1_545
Au1 Cl6 2.295243 1_554
Au1 Cl7 2.295243 1_455
Au1 Cl0 2.304322 1_454
Au1 Cl1 2.304322 1_555
