# generated using pymatgen
data_KBOF2
_symmetry_space_group_name_H-M   'P 1'
_cell_length_a   7.01340500
_cell_length_b   9.88129400
_cell_length_c   15.29465026
_cell_angle_alpha   51.58593587
_cell_angle_beta   90.00000000
_cell_angle_gamma   90.00000000
_symmetry_Int_Tables_number   1
_chemical_formula_structural   KBOF2
_chemical_formula_sum   'K12 B12 O12 F24'
_cell_volume   830.50833716
_cell_formula_units_Z   12
loop_
 _symmetry_equiv_pos_site_id
 _symmetry_equiv_pos_as_xyz
  1  'x, y, z'
loop_
 _atom_site_type_symbol
 _atom_site_label
 _atom_site_symmetry_multiplicity
 _atom_site_fract_x
 _atom_site_fract_y
 _atom_site_fract_z
 _atom_site_occupancy
  K  K0  1  0.57096400  0.28086700  0.92075800  1
  K  K1  1  0.92903600  0.28086700  0.42075800  1
  K  K2  1  0.42903600  0.71913300  0.07924200  1
  K  K3  1  0.07096400  0.71913300  0.57924200  1
  K  K4  1  0.72373600  0.34852700  0.64715800  1
  K  K5  1  0.77626400  0.34852700  0.14715800  1
  K  K6  1  0.27626400  0.65147300  0.35284200  1
  K  K7  1  0.22373600  0.65147300  0.85284200  1
  K  K8  1  0.09449300  0.10306600  0.07256100  1
  K  K9  1  0.40550700  0.10306600  0.57256100  1
  K  K10  1  0.90550700  0.89693400  0.92743900  1
  K  K11  1  0.59449300  0.89693400  0.42743900  1
  B  B0  1  0.23422400  0.34970600  0.63557400  1
  B  B1  1  0.26577600  0.34970600  0.13557400  1
  B  B2  1  0.76577600  0.65029400  0.36442600  1
  B  B3  1  0.73422400  0.65029400  0.86442600  1
  B  B4  1  0.88844100  0.71570400  0.18907100  1
  B  B5  1  0.61155900  0.71570400  0.68907100  1
  B  B6  1  0.11155900  0.28429600  0.81092900  1
  B  B7  1  0.38844100  0.28429600  0.31092900  1
  B  B8  1  0.64602700  0.91118900  0.17880300  1
  B  B9  1  0.85397300  0.91118900  0.67880300  1
  B  B10  1  0.35397300  0.08881100  0.82119700  1
  B  B11  1  0.14602700  0.08881100  0.32119700  1
  O  O0  1  0.08855000  0.36258300  0.69543400  1
  O  O1  1  0.41145000  0.36258300  0.19543400  1
  O  O2  1  0.91145000  0.63741700  0.30456600  1
  O  O3  1  0.58855000  0.63741700  0.80456600  1
  O  O4  1  0.36503500  0.20847100  0.70187400  1
  O  O5  1  0.13496500  0.20847100  0.20187400  1
  O  O6  1  0.63496500  0.79152900  0.29812600  1
  O  O7  1  0.86503500  0.79152900  0.79812600  1
  O  O8  1  0.76111100  0.86060500  0.12591600  1
  O  O9  1  0.73888900  0.86060500  0.62591600  1
  O  O10  1  0.23888900  0.13939500  0.87408400  1
  O  O11  1  0.26111100  0.13939500  0.37408400  1
  F  F0  1  0.45017800  0.94701200  0.13266800  1
  F  F1  1  0.04982200  0.94701200  0.63266800  1
  F  F2  1  0.54982200  0.05298800  0.86733200  1
  F  F3  1  0.95017800  0.05298800  0.36733200  1
  F  F4  1  0.65752600  0.48583400  0.43355000  1
  F  F5  1  0.84247400  0.48583400  0.93355000  1
  F  F6  1  0.34247400  0.51416600  0.56645000  1
  F  F7  1  0.15752600  0.51416600  0.06645000  1
  F  F8  1  0.07937500  0.77244200  0.13531300  1
  F  F9  1  0.42062500  0.77244200  0.63531300  1
  F  F10  1  0.92062500  0.22755800  0.86468700  1
  F  F11  1  0.57937500  0.22755800  0.36468700  1
  F  F12  1  0.67079800  0.58702100  0.67497000  1
  F  F13  1  0.82920200  0.58702100  0.17497000  1
  F  F14  1  0.32920200  0.41297900  0.32503000  1
  F  F15  1  0.17079800  0.41297900  0.82503000  1
  F  F16  1  0.78792400  0.08235800  0.64148800  1
  F  F17  1  0.71207600  0.08235800  0.14148800  1
  F  F18  1  0.21207600  0.91764200  0.35851200  1
  F  F19  1  0.28792400  0.91764200  0.85851200  1
  F  F20  1  0.85345200  0.65879600  0.44868000  1
  F  F21  1  0.64654800  0.65879600  0.94868000  1
  F  F22  1  0.14654800  0.34120400  0.55132000  1
  F  F23  1  0.35345200  0.34120400  0.05132000  1
loop_
_geom_bond_atom_site_label_1
_geom_bond_atom_site_label_2
_geom_bond_distance
_geom_bond_site_symmetry_2
K0 O3 2.793847 1_555
K0 O10 3.021264 1_555
K1 O2 2.793847 1_555
K1 O11 3.021264 1_655
K2 O1 2.793847 1_555
K2 O8 3.021264 1_555
K3 O0 2.793847 1_555
K3 O9 3.021264 1_455
K4 O0 2.690407 1_655
K4 O4 2.739564 1_555
K5 O1 2.690407 1_555
K5 O5 2.739564 1_655
K6 O2 2.690407 1_455
K6 O6 2.739564 1_555
K7 O3 2.690407 1_555
K7 O7 2.739564 1_455
K8 O5 2.763496 1_555
K8 O10 3.002557 1_554
K8 O8 3.072990 1_445
K9 O4 2.763496 1_555
K9 O11 3.002557 1_555
K9 O9 3.072990 1_545
K10 O7 2.763496 1_555
K10 O8 3.002557 1_556
K10 O10 3.072990 1_665
K11 O6 2.763496 1_555
K11 O9 3.002557 1_555
K11 O11 3.072990 1_565
B0 O0 1.429327 1_555
B0 O4 1.434920 1_555
B0 F22 1.476578 1_555
B0 F6 1.483231 1_555
B1 O1 1.429327 1_555
B1 O5 1.434920 1_555
B1 F23 1.476578 1_555
B1 F7 1.483231 1_555
B2 O2 1.429327 1_555
B2 O6 1.434920 1_555
B2 F20 1.476578 1_555
B2 F4 1.483231 1_555
B3 O3 1.429327 1_555
B3 O7 1.434920 1_555
B3 F21 1.476578 1_555
B3 F5 1.483231 1_555
B4 O2 1.430636 1_555
B4 O8 1.435938 1_555
B4 F13 1.475386 1_555
B4 F8 1.486842 1_655
B5 O3 1.430636 1_555
B5 O9 1.435938 1_555
B5 F12 1.475386 1_555
B5 F9 1.486842 1_555
B6 O0 1.430636 1_555
B6 O10 1.435938 1_555
B6 F15 1.475386 1_555
B6 F10 1.486842 1_455
B7 O1 1.430636 1_555
B7 O11 1.435938 1_555
B7 F14 1.475386 1_555
B7 F11 1.486842 1_555
B8 O6 1.432887 1_555
B8 O8 1.434582 1_555
B8 F0 1.483071 1_555
B8 F17 1.483739 1_565
B9 O7 1.432887 1_555
B9 O9 1.434582 1_555
B9 F1 1.483071 1_655
B9 F16 1.483739 1_565
B10 O4 1.432887 1_555
B10 O10 1.434582 1_555
B10 F2 1.483071 1_555
B10 F19 1.483739 1_545
B11 O5 1.432887 1_555
B11 O11 1.434582 1_555
B11 F3 1.483071 1_455
B11 F18 1.483739 1_545
F0 K8 2.772034 1_565
F0 K2 2.836638 1_555
F0 K0 2.969561 1_564
F0 K6 3.022459 1_555
F1 K9 2.772034 1_565
F1 K3 2.836638 1_555
F1 K1 2.969561 1_465
F1 K7 3.022459 1_555
F2 K10 2.772034 1_545
F2 K0 2.836638 1_555
F2 K2 2.969561 1_546
F2 K4 3.022459 1_555
F3 K11 2.772034 1_545
F3 K1 2.836638 1_555
F3 K3 2.969561 1_645
F3 K5 3.022459 1_555
F4 K4 2.687334 1_555
F4 K1 2.873797 1_555
F4 K6 2.973537 1_555
F5 K5 2.687334 1_556
F5 K0 2.873797 1_555
F5 K7 2.973537 1_655
F6 K6 2.687334 1_555
F6 K3 2.873797 1_555
F6 K4 2.973537 1_555
F7 K7 2.687334 1_554
F7 K2 2.873797 1_555
F7 K5 2.973537 1_455
F8 K2 2.754660 1_555
F8 K8 2.776534 1_565
F8 K10 2.871991 1_454
F8 K6 3.076152 1_555
F9 K3 2.754660 1_555
F9 K9 2.776534 1_565
F9 K11 2.871991 1_555
F9 K7 3.076152 1_555
F10 K0 2.754660 1_555
F10 K10 2.776534 1_545
F10 K8 2.871991 1_656
F10 K4 3.076152 1_555
F11 K1 2.754660 1_555
F11 K11 2.776534 1_545
F11 K9 2.871991 1_555
F11 K5 3.076152 1_555
F12 K4 2.667999 1_555
F12 K3 3.057655 1_655
F12 K11 3.096786 1_555
F12 K0 3.105100 1_555
F13 K5 2.667999 1_555
F13 K2 3.057655 1_555
F13 K10 3.096786 1_554
F13 K1 3.105100 1_555
F14 K6 2.667999 1_555
F14 K1 3.057655 1_455
F14 K9 3.096786 1_555
F14 K2 3.105100 1_555
F15 K7 2.667999 1_555
F15 K0 3.057655 1_555
F15 K8 3.096786 1_556
F15 K3 3.105100 1_555
F16 K4 2.722317 1_555
F16 K1 2.827578 1_555
F16 K9 2.842277 1_555
F17 K5 2.722317 1_555
F17 K0 2.827578 1_554
F17 K8 2.842277 1_655
F18 K6 2.722317 1_555
F18 K3 2.827578 1_555
F18 K11 2.842277 1_555
F19 K7 2.722317 1_555
F19 K2 2.827578 1_556
F19 K10 2.842277 1_455
F20 K4 2.806571 1_555
F20 K11 2.826874 1_555
F20 K3 2.854771 1_655
F21 K5 2.806571 1_556
F21 K10 2.826874 1_555
F21 K2 2.854771 1_556
F22 K6 2.806571 1_555
F22 K9 2.826874 1_555
F22 K1 2.854771 1_455
F23 K7 2.806571 1_554
F23 K8 2.826874 1_555
F23 K0 2.854771 1_554
