# generated using pymatgen
data_Nd2Ho2O5
_symmetry_space_group_name_H-M   'P 1'
_cell_length_a   3.85604000
_cell_length_b   3.85604000
_cell_length_c   11.06819500
_cell_angle_alpha   90.00000000
_cell_angle_beta   90.00000000
_cell_angle_gamma   90.00000000
_symmetry_Int_Tables_number   1
_chemical_formula_structural   Nd2Ho2O5
_chemical_formula_sum   'Nd2 Ho2 O5'
_cell_volume   164.57348379
_cell_formula_units_Z   1
loop_
 _symmetry_equiv_pos_site_id
 _symmetry_equiv_pos_as_xyz
  1  'x, y, z'
loop_
 _atom_site_type_symbol
 _atom_site_label
 _atom_site_symmetry_multiplicity
 _atom_site_fract_x
 _atom_site_fract_y
 _atom_site_fract_z
 _atom_site_occupancy
  Nd  Nd0  1  0.50000000  0.50000000  0.22543100  1
  Nd  Nd1  1  0.50000000  0.50000000  0.77456900  1
  Ho  Ho0  1  0.00000000  0.00000000  0.00000000  1
  Ho  Ho1  1  0.00000000  0.00000000  0.50000000  1
  O  O0  1  0.50000000  0.00000000  0.12501100  1
  O  O1  1  0.50000000  0.00000000  0.87498900  1
  O  O2  1  0.50000000  0.50000000  0.50000000  1
  O  O3  1  0.00000000  0.50000000  0.12501100  1
  O  O4  1  0.00000000  0.50000000  0.87498900  1
loop_
_geom_bond_atom_site_label_1
_geom_bond_atom_site_label_2
_geom_bond_distance
_geom_bond_site_symmetry_2
Nd0 O0 2.225449 1_565
Nd0 O3 2.225449 1_655
Nd0 O0 2.225449 1_555
Nd0 O3 2.225449 1_555
Nd0 O2 3.038983 1_555
Nd1 O4 2.225449 1_655
Nd1 O1 2.225449 1_565
Nd1 O4 2.225449 1_555
Nd1 O1 2.225449 1_555
Nd1 O2 3.038983 1_555
Ho0 O3 2.373128 1_545
Ho0 O0 2.373128 1_455
Ho0 O3 2.373128 1_555
Ho0 O0 2.373128 1_555
Ho0 O4 2.373128 1_554
Ho0 O1 2.373128 1_554
Ho0 O4 2.373128 1_544
Ho0 O1 2.373128 1_454
Ho1 O2 2.726632 1_545
Ho1 O2 2.726632 1_555
Ho1 O2 2.726632 1_455
Ho1 O2 2.726632 1_445
