# generated using pymatgen
data_Ba2PrGaS5
_symmetry_space_group_name_H-M   'P 1'
_cell_length_a   8.24296263
_cell_length_b   8.24296263
_cell_length_c   8.94962035
_cell_angle_alpha   63.22406245
_cell_angle_beta   63.22406245
_cell_angle_gamma   91.24644107
_symmetry_Int_Tables_number   1
_chemical_formula_structural   Ba2PrGaS5
_chemical_formula_sum   'Ba4 Pr2 Ga2 S10'
_cell_volume   465.02037261
_cell_formula_units_Z   2
loop_
 _symmetry_equiv_pos_site_id
 _symmetry_equiv_pos_as_xyz
  1  'x, y, z'
loop_
 _atom_site_type_symbol
 _atom_site_label
 _atom_site_symmetry_multiplicity
 _atom_site_fract_x
 _atom_site_fract_y
 _atom_site_fract_z
 _atom_site_occupancy
  Ba  Ba0  1  0.25000000  0.25000000  0.50000000  1
  Ba  Ba1  1  0.75000000  0.75000000  0.50000000  1
  Ba  Ba2  1  0.84147700  0.65852300  0.00000000  1
  Ba  Ba3  1  0.15852300  0.34147700  0.00000000  1
  Pr  Pr0  1  0.66645000  0.16645000  0.00000000  1
  Pr  Pr1  1  0.33355000  0.83355000  0.00000000  1
  Ga  Ga0  1  0.75222900  0.25222900  0.49554100  1
  Ga  Ga1  1  0.24777100  0.74777100  0.50445900  1
  S  S0  1  0.50000000  0.50000000  0.00000000  1
  S  S1  1  0.00000000  0.00000000  0.00000000  1
  S  S2  1  0.22159600  0.00069500  0.27770900  1
  S  S3  1  0.50069500  0.72159600  0.27770900  1
  S  S4  1  0.01073700  0.51073700  0.29255000  1
  S  S5  1  0.69671300  0.19671300  0.29255000  1
  S  S6  1  0.77840400  0.99930500  0.72229100  1
  S  S7  1  0.49930500  0.27840400  0.72229100  1
  S  S8  1  0.98926300  0.48926300  0.70745000  1
  S  S9  1  0.30328700  0.80328700  0.70745000  1
loop_
_geom_bond_atom_site_label_1
_geom_bond_atom_site_label_2
_geom_bond_distance
_geom_bond_site_symmetry_2
Ba0 S0 3.422773 1_555
Ba0 S1 3.422773 1_556
Ba0 S4 3.441546 1_555
Ba0 S8 3.441546 1_455
Ba0 S9 3.441546 1_545
Ba0 S5 3.441546 1_555
Ba0 S2 3.509700 1_555
Ba0 S3 3.509700 1_555
Ba0 S6 3.509700 1_445
Ba0 S7 3.509700 1_555
Ba1 S1 3.422773 1_665
Ba1 S0 3.422773 1_556
Ba1 S5 3.441546 1_565
Ba1 S8 3.441546 1_555
Ba1 S9 3.441546 1_555
Ba1 S4 3.441546 1_655
Ba1 S2 3.509700 1_665
Ba1 S6 3.509700 1_555
Ba1 S7 3.509700 1_555
Ba1 S3 3.509700 1_555
Ba2 S3 3.045586 1_555
Ba2 S6 3.045586 1_554
Ba2 S1 3.077409 1_665
Ba2 S0 3.077409 1_555
Ba2 S8 3.282855 1_554
Ba2 S4 3.282855 1_655
Ba2 S5 3.282855 1_555
Ba2 S9 3.282855 1_654
Ba3 S7 3.045586 1_554
Ba3 S2 3.045586 1_555
Ba3 S1 3.077409 1_555
Ba3 S0 3.077409 1_555
Ba3 S8 3.282855 1_454
Ba3 S4 3.282855 1_555
Ba3 S5 3.282855 1_455
Ba3 S9 3.282855 1_554
Pr0 S5 2.855474 1_555
Pr0 S8 2.855474 1_554
Pr0 S1 3.099361 1_655
Pr0 S0 3.099361 1_555
Pr0 S6 3.162454 1_544
Pr0 S3 3.162454 1_545
Pr0 S2 3.162454 1_555
Pr0 S7 3.162454 1_554
Pr1 S4 2.855474 1_555
Pr1 S9 2.855474 1_554
Pr1 S1 3.099361 1_565
Pr1 S0 3.099361 1_555
Pr1 S2 3.162454 1_565
Pr1 S6 3.162454 1_554
Pr1 S3 3.162454 1_555
Pr1 S7 3.162454 1_564
Ga0 S6 2.261275 1_545
Ga0 S7 2.261275 1_555
Ga0 S5 2.282145 1_555
Ga0 S4 2.282154 1_655
Ga1 S2 2.261275 1_565
Ga1 S3 2.261275 1_555
Ga1 S9 2.282145 1_555
Ga1 S8 2.282154 1_455
