# generated using pymatgen
data_Eu5Pt4
_symmetry_space_group_name_H-M   'P 1'
_cell_length_a   7.75558200
_cell_length_b   7.93654900
_cell_length_c   15.28540400
_cell_angle_alpha   90.00000000
_cell_angle_beta   90.00000000
_cell_angle_gamma   90.00000000
_symmetry_Int_Tables_number   1
_chemical_formula_structural   Eu5Pt4
_chemical_formula_sum   'Eu20 Pt16'
_cell_volume   940.85569435
_cell_formula_units_Z   4
loop_
 _symmetry_equiv_pos_site_id
 _symmetry_equiv_pos_as_xyz
  1  'x, y, z'
loop_
 _atom_site_type_symbol
 _atom_site_label
 _atom_site_symmetry_multiplicity
 _atom_site_fract_x
 _atom_site_fract_y
 _atom_site_fract_z
 _atom_site_occupancy
  Eu  Eu0  1  0.65703100  0.16699000  0.62233700  1
  Eu  Eu1  1  0.15703100  0.33301000  0.87766300  1
  Eu  Eu2  1  0.34296900  0.83301000  0.12233700  1
  Eu  Eu3  1  0.84296900  0.66699000  0.37766300  1
  Eu  Eu4  1  0.34296900  0.83301000  0.37766300  1
  Eu  Eu5  1  0.84296900  0.66699000  0.12233700  1
  Eu  Eu6  1  0.65703100  0.16699000  0.87766300  1
  Eu  Eu7  1  0.15703100  0.33301000  0.62233700  1
  Eu  Eu8  1  0.49935300  0.68020500  0.59396500  1
  Eu  Eu9  1  0.99935300  0.81979500  0.90603500  1
  Eu  Eu10  1  0.50064700  0.31979500  0.09396500  1
  Eu  Eu11  1  0.00064700  0.18020500  0.40603500  1
  Eu  Eu12  1  0.50064700  0.31979500  0.40603500  1
  Eu  Eu13  1  0.00064700  0.18020500  0.09396500  1
  Eu  Eu14  1  0.49935300  0.68020500  0.90603500  1
  Eu  Eu15  1  0.99935300  0.81979500  0.59396500  1
  Eu  Eu16  1  0.81734500  0.51077600  0.75000000  1
  Eu  Eu17  1  0.31734500  0.98922400  0.75000000  1
  Eu  Eu18  1  0.18265500  0.48922400  0.25000000  1
  Eu  Eu19  1  0.68265500  0.01077600  0.25000000  1
  Pt  Pt0  1  0.67743300  0.96750400  0.45927000  1
  Pt  Pt1  1  0.17743300  0.53249600  0.04073000  1
  Pt  Pt2  1  0.32256700  0.03249600  0.95927000  1
  Pt  Pt3  1  0.82256700  0.46750400  0.54073000  1
  Pt  Pt4  1  0.32256700  0.03249600  0.54073000  1
  Pt  Pt5  1  0.82256700  0.46750400  0.95927000  1
  Pt  Pt6  1  0.67743300  0.96750400  0.04073000  1
  Pt  Pt7  1  0.17743300  0.53249600  0.45927000  1
  Pt  Pt8  1  0.45023200  0.39137100  0.75000000  1
  Pt  Pt9  1  0.95023200  0.10862900  0.75000000  1
  Pt  Pt10  1  0.54976800  0.60862900  0.25000000  1
  Pt  Pt11  1  0.04976800  0.89137100  0.25000000  1
  Pt  Pt12  1  0.69322100  0.86409400  0.75000000  1
  Pt  Pt13  1  0.19322100  0.63590600  0.75000000  1
  Pt  Pt14  1  0.30677900  0.13590600  0.25000000  1
  Pt  Pt15  1  0.80677900  0.36409400  0.25000000  1
loop_
_geom_bond_atom_site_label_1
_geom_bond_atom_site_label_2
_geom_bond_distance
_geom_bond_site_symmetry_2
Eu0 Pt0 2.957099 1_545
Eu0 Pt3 2.982054 1_555
Eu0 Pt9 3.032037 1_555
Eu0 Pt4 3.069857 1_555
Eu0 Pt8 3.090550 1_555
Eu0 Pt12 3.108960 1_545
Eu1 Pt1 2.957099 1_556
Eu1 Pt2 2.982054 1_555
Eu1 Pt8 3.032037 1_555
Eu1 Pt5 3.069857 1_455
Eu1 Pt9 3.090550 1_455
Eu1 Pt13 3.108960 1_555
Eu2 Pt2 2.957099 1_564
Eu2 Pt1 2.982054 1_555
Eu2 Pt11 3.032037 1_555
Eu2 Pt6 3.069857 1_555
Eu2 Pt10 3.090550 1_555
Eu2 Pt14 3.108960 1_565
Eu3 Pt3 2.957099 1_555
Eu3 Pt0 2.982054 1_555
Eu3 Pt10 3.032037 1_555
Eu3 Pt7 3.069857 1_655
Eu3 Pt11 3.090550 1_655
Eu3 Pt15 3.108960 1_555
Eu4 Pt4 2.957099 1_565
Eu4 Pt7 2.982054 1_555
Eu4 Pt11 3.032037 1_555
Eu4 Pt0 3.069857 1_555
Eu4 Pt10 3.090550 1_555
Eu4 Pt14 3.108960 1_565
Eu5 Pt5 2.957099 1_554
Eu5 Pt6 2.982054 1_555
Eu5 Pt10 3.032037 1_555
Eu5 Pt1 3.069857 1_655
Eu5 Pt11 3.090550 1_655
Eu5 Pt15 3.108960 1_555
Eu6 Pt6 2.957099 1_546
Eu6 Pt5 2.982054 1_555
Eu6 Pt9 3.032037 1_555
Eu6 Pt2 3.069857 1_555
Eu6 Pt8 3.090550 1_555
Eu6 Pt12 3.108960 1_545
Eu7 Pt7 2.957099 1_555
Eu7 Pt4 2.982054 1_555
Eu7 Pt8 3.032037 1_555
Eu7 Pt3 3.069857 1_455
Eu7 Pt9 3.090550 1_455
Eu7 Pt13 3.108960 1_555
Eu8 Pt3 3.129771 1_555
Eu8 Pt12 3.174771 1_555
Eu8 Pt4 3.218613 1_565
Eu8 Pt8 3.329937 1_555
Eu8 Pt0 3.368316 1_555
Eu8 Pt13 3.383650 1_555
Eu8 Pt7 3.441892 1_555
Eu9 Pt2 3.129771 1_665
Eu9 Pt13 3.174771 1_655
Eu9 Pt5 3.218613 1_555
Eu9 Pt9 3.329937 1_565
Eu9 Pt1 3.368316 1_656
Eu9 Pt12 3.383650 1_555
Eu9 Pt6 3.441892 1_556
Eu10 Pt1 3.129771 1_555
Eu10 Pt14 3.174771 1_555
Eu10 Pt6 3.218613 1_545
Eu10 Pt10 3.329937 1_555
Eu10 Pt2 3.368316 1_554
Eu10 Pt15 3.383650 1_555
Eu10 Pt5 3.441892 1_554
Eu11 Pt0 3.129771 1_445
Eu11 Pt15 3.174771 1_455
Eu11 Pt7 3.218613 1_555
Eu11 Pt11 3.329937 1_545
Eu11 Pt3 3.368316 1_455
Eu11 Pt14 3.383650 1_555
Eu11 Pt4 3.441892 1_555
Eu12 Pt7 3.129771 1_555
Eu12 Pt14 3.174771 1_555
Eu12 Pt0 3.218613 1_545
Eu12 Pt10 3.329937 1_555
Eu12 Pt4 3.368316 1_555
Eu12 Pt15 3.383650 1_555
Eu12 Pt3 3.441892 1_555
Eu13 Pt6 3.129771 1_445
Eu13 Pt15 3.174771 1_455
Eu13 Pt1 3.218613 1_555
Eu13 Pt11 3.329937 1_545
Eu13 Pt5 3.368316 1_454
Eu13 Pt14 3.383650 1_555
Eu13 Pt2 3.441892 1_554
Eu14 Pt5 3.129771 1_555
Eu14 Pt12 3.174771 1_555
Eu14 Pt2 3.218613 1_565
Eu14 Pt8 3.329937 1_555
Eu14 Pt6 3.368316 1_556
Eu14 Pt13 3.383650 1_555
Eu14 Pt1 3.441892 1_556
Eu15 Pt4 3.129771 1_665
Eu15 Pt13 3.174771 1_655
Eu15 Pt3 3.218613 1_555
Eu15 Pt9 3.329937 1_565
Eu15 Pt7 3.368316 1_655
Eu15 Pt12 3.383650 1_555
Eu15 Pt0 3.441892 1_555
Eu16 Pt12 2.964764 1_555
Eu16 Pt8 3.000745 1_555
Eu16 Pt13 3.079655 1_655
Eu16 Pt3 3.217414 1_555
Eu16 Pt5 3.217414 1_555
Eu16 Pt9 3.353932 1_555
Eu17 Pt13 2.964764 1_555
Eu17 Pt9 3.000745 1_465
Eu17 Pt12 3.079655 1_555
Eu17 Pt4 3.217414 1_565
Eu17 Pt2 3.217414 1_565
Eu17 Pt8 3.353932 1_565
Eu18 Pt14 2.964764 1_555
Eu18 Pt10 3.000745 1_555
Eu18 Pt15 3.079655 1_455
Eu18 Pt7 3.217414 1_555
Eu18 Pt1 3.217414 1_555
Eu18 Pt11 3.353932 1_555
Eu19 Pt15 2.964764 1_555
Eu19 Pt11 3.000745 1_645
Eu19 Pt14 3.079655 1_555
Eu19 Pt0 3.217414 1_545
Eu19 Pt6 3.217414 1_545
Eu19 Pt10 3.353932 1_545
Pt10 Pt15 2.782030 1_555
Pt11 Pt14 2.782030 1_565
Pt12 Pt9 2.782030 1_565
Pt13 Pt8 2.782030 1_555
