# generated using pymatgen
data_Mn2OsN3
_symmetry_space_group_name_H-M   'P 1'
_cell_length_a   5.17948329
_cell_length_b   5.49404410
_cell_length_c   4.94425300
_cell_angle_alpha   90.00000000
_cell_angle_beta   90.00000000
_cell_angle_gamma   122.03019644
_symmetry_Int_Tables_number   1
_chemical_formula_structural   Mn2OsN3
_chemical_formula_sum   'Mn4 Os2 N6'
_cell_volume   119.27698146
_cell_formula_units_Z   2
loop_
 _symmetry_equiv_pos_site_id
 _symmetry_equiv_pos_as_xyz
  1  'x, y, z'
loop_
 _atom_site_type_symbol
 _atom_site_label
 _atom_site_symmetry_multiplicity
 _atom_site_fract_x
 _atom_site_fract_y
 _atom_site_fract_z
 _atom_site_occupancy
  Mn  Mn0  1  0.35907900  0.39014600  0.52363400  1
  Mn  Mn1  1  0.64092100  0.03106700  0.52363400  1
  Mn  Mn2  1  0.64092100  0.60985400  0.02363400  1
  Mn  Mn3  1  0.35907900  0.96893300  0.02363400  1
  Os  Os0  1  0.00000000  0.64048900  0.43753500  1
  Os  Os1  1  0.00000000  0.35951100  0.93753500  1
  N  N0  1  0.32406100  0.26932700  0.88460500  1
  N  N1  1  0.67593900  0.94526700  0.88460500  1
  N  N2  1  0.67593900  0.73067300  0.38460500  1
  N  N3  1  0.32406100  0.05473300  0.38460500  1
  N  N4  1  0.00000000  0.71205800  0.83398700  1
  N  N5  1  0.00000000  0.28794200  0.33398700  1
loop_
_geom_bond_atom_site_label_1
_geom_bond_atom_site_label_2
_geom_bond_distance
_geom_bond_site_symmetry_2
Mn0 N2 1.846407 1_555
Mn0 N0 1.879114 1_555
Mn0 N5 1.883023 1_555
Mn0 N3 1.883266 1_555
Mn1 N3 1.846404 1_555
Mn1 N1 1.879112 1_545
Mn1 N5 1.883023 1_655
Mn1 N2 1.883261 1_545
Mn2 N0 1.846407 1_554
Mn2 N2 1.879114 1_555
Mn2 N4 1.883023 1_654
Mn2 N1 1.883266 1_554
Mn3 N1 1.846404 1_554
Mn3 N3 1.879112 1_565
Mn3 N4 1.883023 1_554
Mn3 N0 1.883261 1_564
N0 Os1 2.003343 1_555
N1 Os1 2.003339 1_665
N2 Os0 2.003343 1_655
N3 Os0 2.003339 1_545
N4 Os0 1.999208 1_555
N4 Os1 2.003429 1_555
N5 Os1 1.999208 1_554
N5 Os0 2.003429 1_555
