# generated using pymatgen
data_NiBi
_symmetry_space_group_name_H-M   'P 1'
_cell_length_a   8.19019256
_cell_length_b   8.19448927
_cell_length_c   11.45924686
_cell_angle_alpha   79.76002458
_cell_angle_beta   79.59229435
_cell_angle_gamma   119.94532659
_symmetry_Int_Tables_number   1
_chemical_formula_structural   NiBi
_chemical_formula_sum   'Ni16 Bi16'
_cell_volume   622.20828255
_cell_formula_units_Z   16
loop_
 _symmetry_equiv_pos_site_id
 _symmetry_equiv_pos_as_xyz
  1  'x, y, z'
loop_
 _atom_site_type_symbol
 _atom_site_label
 _atom_site_symmetry_multiplicity
 _atom_site_fract_x
 _atom_site_fract_y
 _atom_site_fract_z
 _atom_site_occupancy
  Ni  Ni0  1  0.24378556  0.25163462  0.50486327  1
  Ni  Ni1  1  0.76052773  0.75481812  0.48469746  1
  Ni  Ni2  1  0.22774060  0.89526175  0.87780868  1
  Ni  Ni3  1  0.77134615  0.10571866  0.12182580  1
  Ni  Ni4  1  0.12780842  0.12311133  0.75020362  1
  Ni  Ni5  1  0.87283522  0.88143157  0.24535754  1
  Ni  Ni6  1  0.76024230  0.26092523  0.50159422  1
  Ni  Ni7  1  0.23747057  0.73782476  0.50168454  1
  Ni  Ni8  1  -0.00010481  0.00006583  0.99896003  1
  Ni  Ni9  1  0.62027327  0.12029540  0.74840308  1
  Ni  Ni10  1  0.86865300  0.36654943  0.24958398  1
  Ni  Ni11  1  0.13093429  0.63138421  0.74855958  1
  Ni  Ni12  1  0.38421792  0.88223951  0.24973604  1
  Ni  Ni13  1  0.49893796  0.99889287  -0.00003015  1
  Ni  Ni14  1  0.00113779  0.50083950  0.00025804  1
  Ni  Ni15  1  0.02308727  0.35374992  0.62267448  1
  Bi  Bi0  1  0.84049546  0.53294913  0.62645966  1
  Bi  Bi1  1  0.14972326  0.47814382  0.37207247  1
  Bi  Bi2  1  0.35557810  0.02204096  0.62221687  1
  Bi  Bi3  1  0.64262940  0.97951100  0.37827944  1
  Bi  Bi4  1  0.89473851  0.23017505  0.87524916  1
  Bi  Bi5  1  0.10212437  0.76865247  0.12945701  1
  Bi  Bi6  1  0.40848678  0.25528528  0.87695355  1
  Bi  Bi7  1  0.13026675  0.28181674  0.12586104  1
  Bi  Bi8  1  0.86800697  0.71482075  0.87719680  1
  Bi  Bi9  1  0.59147283  0.74323084  0.12611630  1
  Bi  Bi10  1  0.40798456  0.71416696  0.87778693  1
  Bi  Bi11  1  0.58894921  0.28467074  0.12625788  1
  Bi  Bi12  1  0.83867946  0.99039009  0.63022813  1
  Bi  Bi13  1  0.63952864  0.47388030  0.37404375  1
  Bi  Bi14  1  0.37914092  0.53101765  0.63014013  1
  Bi  Bi15  1  0.15240254  0.98680650  0.37409865  1
loop_
_geom_bond_atom_site_label_1
_geom_bond_atom_site_label_2
_geom_bond_distance
_geom_bond_site_symmetry_2
Ni0 Ni15 2.611527 1_555
Ni0 Ni4 2.626629 1_555
Ni1 Ni5 2.562953 1_555
Ni2 Ni8 2.689821 1_565
Ni2 Ni4 2.698431 1_565
Ni2 Ni9 2.705884 1_565
Ni3 Ni5 2.664210 1_545
Ni3 Ni8 2.708293 1_654
Ni4 Ni8 2.661661 1_555
Ni5 Ni8 2.636818 1_664
Ni6 Ni9 2.644244 1_555
Ni10 Ni14 2.668572 1_655
Ni10 Ni3 2.679620 1_555
Ni10 Ni6 2.700894 1_555
Ni11 Ni7 2.645071 1_555
Ni11 Ni14 2.693205 1_556
Ni11 Ni2 2.710969 1_555
Ni11 Ni15 2.767326 1_555
Ni12 Ni3 2.669241 1_565
Ni12 Ni13 2.673452 1_555
Ni12 Ni7 2.700388 1_555
Ni13 Ni9 2.691820 1_564
Ni13 Ni2 2.697651 1_554
Ni13 Ni3 2.702640 1_565
Ni14 Ni2 2.705145 1_554
Ni14 Ni3 2.707692 1_455
Ni15 Ni6 2.637743 1_455
Ni15 Ni7 2.638693 1_555
Ni15 Ni4 2.744527 1_555
Ni15 Ni9 2.760704 1_455
Bi0 Ni15 2.566361 1_655
Bi0 Ni1 2.626127 1_555
Bi0 Ni7 2.729724 1_655
Bi0 Ni6 2.731182 1_555
Bi0 Ni11 2.820457 1_655
Bi0 Ni9 2.821471 1_555
Bi0 Bi6 3.450625 1_555
Bi0 Bi8 3.456683 1_555
Bi1 Ni15 2.681255 1_555
Bi1 Ni0 2.683494 1_555
Bi1 Ni6 2.688556 1_455
Bi1 Ni7 2.689472 1_555
Bi1 Ni10 2.761859 1_455
Bi1 Ni12 2.765234 1_555
Bi2 Ni11 2.690490 1_545
Bi2 Ni9 2.691270 1_555
Bi2 Ni4 2.702369 1_555
Bi2 Ni0 2.729750 1_555
Bi2 Ni2 2.734626 1_545
Bi2 Ni6 2.762732 1_555
Bi2 Ni7 2.764960 1_545
Bi3 Ni12 2.672836 1_555
Bi3 Ni10 2.673927 1_565
Bi3 Ni1 2.685480 1_555
Bi3 Ni5 2.726054 1_555
Bi3 Ni3 2.743880 1_565
Bi3 Ni6 2.770433 1_565
Bi3 Ni7 2.771492 1_555
Bi4 Ni3 2.638200 1_556
Bi4 Ni15 2.702494 1_655
Bi4 Ni13 2.715231 1_546
Bi4 Ni14 2.716960 1_656
Bi4 Ni8 2.723797 1_655
Bi4 Ni4 2.756358 1_655
Bi4 Ni11 2.756387 1_655
Bi4 Ni9 2.757157 1_555
Bi5 Ni2 2.692457 1_554
Bi5 Ni5 2.722595 1_455
Bi5 Ni13 2.732113 1_555
Bi5 Ni14 2.734550 1_555
Bi5 Ni10 2.748562 1_455
Bi5 Ni8 2.750002 1_564
Bi5 Ni12 2.750234 1_555
Bi6 Ni2 2.553355 1_545
Bi6 Ni8 2.794660 1_555
Bi6 Ni13 2.797923 1_546
Bi6 Ni4 2.801291 1_555
Bi6 Ni9 2.823842 1_555
Bi6 Bi7 3.426661 1_556
Bi7 Ni3 2.561985 1_455
Bi7 Ni5 2.745631 1_445
Bi7 Ni10 2.796591 1_455
Bi7 Ni8 2.806939 1_554
Bi7 Ni14 2.817426 1_555
Bi8 Ni2 2.555169 1_655
Bi8 Ni8 2.785816 1_665
Bi8 Ni14 2.799524 1_656
Bi8 Ni4 2.807504 1_665
Bi8 Ni11 2.821168 1_655
Bi8 Bi9 3.427614 1_556
Bi9 Ni3 2.559135 1_565
Bi9 Ni5 2.746339 1_555
Bi9 Ni12 2.796599 1_555
Bi9 Ni8 2.803964 1_664
Bi9 Ni13 2.820871 1_555
Bi10 Ni2 2.562915 1_555
Bi10 Ni14 2.784156 1_556
Bi10 Ni13 2.786061 1_556
Bi10 Ni9 2.799002 1_565
Bi10 Ni11 2.799350 1_555
Bi11 Ni3 2.563335 1_555
Bi11 Ni12 2.766228 1_545
Bi11 Ni10 2.769044 1_555
Bi11 Ni14 2.824653 1_655
Bi11 Ni13 2.826421 1_545
Bi11 Bi8 3.437652 1_554
Bi11 Bi6 3.437867 1_554
Bi12 Ni15 2.554578 1_665
Bi12 Ni1 2.685877 1_555
Bi12 Ni9 2.775814 1_565
Bi12 Ni0 2.783601 1_665
Bi12 Ni4 2.795933 1_665
Bi12 Ni6 2.846445 1_565
Bi12 Bi8 3.417776 1_555
Bi13 Ni1 2.665337 1_555
Bi13 Ni0 2.729498 1_555
Bi13 Ni10 2.730555 1_555
Bi13 Ni6 2.738018 1_555
Bi13 Ni5 2.799859 1_555
Bi14 Ni15 2.554724 1_555
Bi14 Ni1 2.685405 1_555
Bi14 Ni11 2.778432 1_555
Bi14 Ni0 2.782254 1_555
Bi14 Ni4 2.788461 1_555
Bi14 Ni7 2.842237 1_555
Bi14 Bi6 3.417306 1_555
Bi15 Ni1 2.665265 1_455
Bi15 Ni12 2.729586 1_555
Bi15 Ni0 2.730363 1_565
Bi15 Ni7 2.740865 1_555
Bi15 Ni5 2.804343 1_455
