# generated using pymatgen
data_Ba6Na2Nb2V2O17
_symmetry_space_group_name_H-M   'P 1'
_cell_length_a   6.00663432
_cell_length_b   6.00663432
_cell_length_c   30.48695400
_cell_angle_alpha   90.00000000
_cell_angle_beta   90.00000000
_cell_angle_gamma   120.00000348
_symmetry_Int_Tables_number   1
_chemical_formula_structural   Ba6Na2Nb2V2O17
_chemical_formula_sum   'Ba12 Na4 Nb4 V4 O34'
_cell_volume   952.59223646
_cell_formula_units_Z   2
loop_
 _symmetry_equiv_pos_site_id
 _symmetry_equiv_pos_as_xyz
  1  'x, y, z'
loop_
 _atom_site_type_symbol
 _atom_site_label
 _atom_site_symmetry_multiplicity
 _atom_site_fract_x
 _atom_site_fract_y
 _atom_site_fract_z
 _atom_site_occupancy
  Ba  Ba0  1  0.33333300  0.66666700  0.18103800  1
  Ba  Ba1  1  0.66666700  0.33333300  0.81896200  1
  Ba  Ba2  1  0.66666700  0.33333300  0.68103800  1
  Ba  Ba3  1  0.33333300  0.66666700  0.31896200  1
  Ba  Ba4  1  0.00000000  0.00000000  0.00000000  1
  Ba  Ba5  1  0.00000000  0.00000000  0.50000000  1
  Ba  Ba6  1  0.33333300  0.66666700  0.59039000  1
  Ba  Ba7  1  0.66666700  0.33333300  0.40961000  1
  Ba  Ba8  1  0.66666700  0.33333300  0.09039000  1
  Ba  Ba9  1  0.33333300  0.66666700  0.90961000  1
  Ba  Ba10  1  0.00000000  0.00000000  0.25000000  1
  Ba  Ba11  1  0.00000000  0.00000000  0.75000000  1
  Na  Na0  1  0.00000000  0.00000000  0.12422800  1
  Na  Na1  1  0.00000000  0.00000000  0.87577200  1
  Na  Na2  1  0.00000000  0.00000000  0.62422800  1
  Na  Na3  1  0.00000000  0.00000000  0.37577200  1
  Nb  Nb0  1  0.33333300  0.66666700  0.70134800  1
  Nb  Nb1  1  0.66666700  0.33333300  0.29865200  1
  Nb  Nb2  1  0.66666700  0.33333300  0.20134800  1
  Nb  Nb3  1  0.33333300  0.66666700  0.79865200  1
  V  V0  1  0.33333300  0.66666700  0.05212300  1
  V  V1  1  0.66666700  0.33333300  0.94787700  1
  V  V2  1  0.66666700  0.33333300  0.55212300  1
  V  V3  1  0.33333300  0.66666700  0.44787700  1
  O  O0  1  0.33333300  0.66666700  0.50437300  1
  O  O1  1  0.66666700  0.33333300  0.49562700  1
  O  O2  1  0.66666700  0.33333300  0.00437300  1
  O  O3  1  0.33333300  0.66666700  0.99562700  1
  O  O4  1  0.17491300  0.34982500  0.66953800  1
  O  O5  1  0.82508700  0.65017500  0.33046200  1
  O  O6  1  0.65017500  0.82508700  0.66953800  1
  O  O7  1  0.82508700  0.65017500  0.16953800  1
  O  O8  1  0.34982500  0.17491300  0.33046200  1
  O  O9  1  0.17491300  0.34982500  0.83046200  1
  O  O10  1  0.17491300  0.82508700  0.66953800  1
  O  O11  1  0.34982500  0.17491300  0.16953800  1
  O  O12  1  0.82508700  0.17491300  0.33046200  1
  O  O13  1  0.65017500  0.82508700  0.83046200  1
  O  O14  1  0.82508700  0.17491300  0.16953800  1
  O  O15  1  0.17491300  0.82508700  0.83046200  1
  O  O16  1  0.51440600  0.02881200  0.25000000  1
  O  O17  1  0.48559400  0.97118800  0.75000000  1
  O  O18  1  0.97118800  0.48559400  0.25000000  1
  O  O19  1  0.02881200  0.51440600  0.75000000  1
  O  O20  1  0.51440600  0.48559400  0.25000000  1
  O  O21  1  0.48559400  0.51440600  0.75000000  1
  O  O22  1  0.17578700  0.35157400  0.07230300  1
  O  O23  1  0.82421300  0.64842600  0.92769700  1
  O  O24  1  0.64842600  0.82421300  0.07230300  1
  O  O25  1  0.82421300  0.64842600  0.57230300  1
  O  O26  1  0.35157400  0.17578700  0.92769700  1
  O  O27  1  0.17578700  0.35157400  0.42769700  1
  O  O28  1  0.17578700  0.82421300  0.07230300  1
  O  O29  1  0.35157400  0.17578700  0.57230300  1
  O  O30  1  0.82421300  0.17578700  0.92769700  1
  O  O31  1  0.64842600  0.82421300  0.42769700  1
  O  O32  1  0.82421300  0.17578700  0.57230300  1
  O  O33  1  0.17578700  0.82421300  0.42769700  1
loop_
_geom_bond_atom_site_label_1
_geom_bond_atom_site_label_2
_geom_bond_distance
_geom_bond_site_symmetry_2
Ba0 O18 2.822963 1_455
Ba0 O16 2.822963 1_565
Ba0 O20 2.822966 1_555
Ba0 O14 3.024929 1_455
Ba0 O14 3.024929 1_565
Ba0 O7 3.024929 1_455
Ba0 O11 3.024929 1_565
Ba0 O11 3.024929 1_555
Ba0 O7 3.024929 1_555
Ba1 O17 2.822963 1_545
Ba1 O19 2.822963 1_655
Ba1 O21 2.822966 1_555
Ba1 O15 3.024929 1_545
Ba1 O15 3.024929 1_655
Ba1 O13 3.024929 1_545
Ba1 O9 3.024929 1_655
Ba1 O9 3.024929 1_555
Ba1 O13 3.024929 1_555
Ba2 O17 2.822963 1_545
Ba2 O19 2.822963 1_655
Ba2 O21 2.822966 1_555
Ba2 O10 3.024929 1_545
Ba2 O10 3.024929 1_655
Ba2 O6 3.024929 1_545
Ba2 O4 3.024929 1_655
Ba2 O4 3.024929 1_555
Ba2 O6 3.024929 1_555
Ba3 O18 2.822963 1_455
Ba3 O16 2.822963 1_565
Ba3 O20 2.822966 1_555
Ba3 O12 3.024929 1_455
Ba3 O12 3.024929 1_565
Ba3 O5 3.024929 1_455
Ba3 O8 3.024929 1_565
Ba3 O8 3.024929 1_555
Ba3 O5 3.024929 1_555
Ba4 O26 2.864198 1_554
Ba4 O24 2.864198 1_445
Ba4 O22 2.864198 1_555
Ba4 O23 2.864198 1_444
Ba4 O30 2.864198 1_454
Ba4 O28 2.864198 1_545
Ba5 O27 2.864198 1_555
Ba5 O29 2.864198 1_555
Ba5 O31 2.864198 1_445
Ba5 O25 2.864198 1_445
Ba5 O33 2.864198 1_545
Ba5 O32 2.864198 1_455
Ba6 O0 2.622396 1_555
Ba6 O10 2.922147 1_555
Ba6 O6 2.922153 1_555
Ba6 O4 2.922153 1_555
Ba6 O29 3.054990 1_565
Ba6 O25 3.054990 1_455
Ba6 O32 3.054992 1_455
Ba6 O32 3.054992 1_565
Ba6 O29 3.054995 1_555
Ba6 O25 3.054995 1_555
Ba7 O1 2.622396 1_555
Ba7 O12 2.922147 1_555
Ba7 O5 2.922153 1_555
Ba7 O8 2.922153 1_555
Ba7 O27 3.054990 1_655
Ba7 O31 3.054990 1_545
Ba7 O33 3.054992 1_655
Ba7 O33 3.054992 1_545
Ba7 O31 3.054995 1_555
Ba7 O27 3.054995 1_555
Ba8 O2 2.622396 1_555
Ba8 O14 2.922147 1_555
Ba8 O7 2.922153 1_555
Ba8 O11 2.922153 1_555
Ba8 O22 3.054990 1_655
Ba8 O24 3.054990 1_545
Ba8 O28 3.054992 1_655
Ba8 O28 3.054992 1_545
Ba8 O24 3.054995 1_555
Ba8 O22 3.054995 1_555
Ba9 O3 2.622396 1_555
Ba9 O15 2.922147 1_555
Ba9 O13 2.922153 1_555
Ba9 O9 2.922153 1_555
Ba9 O26 3.054990 1_565
Ba9 O23 3.054990 1_455
Ba9 O30 3.054992 1_565
Ba9 O30 3.054992 1_455
Ba9 O26 3.054995 1_555
Ba9 O23 3.054995 1_555
Ba10 O20 3.007054 1_445
Ba10 O20 3.007054 1_555
Ba10 O18 3.007055 1_445
Ba10 O16 3.007055 1_555
Ba10 O16 3.007055 1_455
Ba10 O18 3.007055 1_455
Ba10 O5 3.054327 1_445
Ba10 O8 3.054327 1_555
Ba10 O11 3.054327 1_555
Ba10 O7 3.054327 1_445
Ba10 O12 3.054331 1_455
Ba10 O14 3.054331 1_455
Ba11 O21 3.007054 1_445
Ba11 O21 3.007054 1_555
Ba11 O17 3.007055 1_445
Ba11 O19 3.007055 1_555
Ba11 O19 3.007055 1_545
Ba11 O17 3.007055 1_545
Ba11 O4 3.054327 1_555
Ba11 O9 3.054327 1_555
Ba11 O6 3.054327 1_445
Ba11 O13 3.054327 1_445
Ba11 O10 3.054331 1_545
Ba11 O15 3.054331 1_545
Na0 O7 2.284660 1_445
Na0 O11 2.284660 1_555
Na0 O14 2.284664 1_455
Na0 O22 2.418822 1_555
Na0 O24 2.418822 1_445
Na0 O28 2.418822 1_545
Na1 O13 2.284660 1_445
Na1 O9 2.284660 1_555
Na1 O15 2.284664 1_545
Na1 O26 2.418822 1_555
Na1 O23 2.418822 1_445
Na1 O30 2.418822 1_455
Na2 O4 2.284660 1_555
Na2 O6 2.284660 1_445
Na2 O10 2.284664 1_545
Na2 O29 2.418822 1_555
Na2 O25 2.418822 1_445
Na2 O32 2.418822 1_455
Na3 O5 2.284660 1_445
Na3 O8 2.284660 1_555
Na3 O12 2.284664 1_455
Na3 O27 2.418822 1_555
Na3 O31 2.418822 1_445
Na3 O33 2.418822 1_545
Nb0 O10 1.912317 1_555
Nb0 O6 1.912326 1_555
Nb0 O4 1.912326 1_555
Nb0 O19 2.170107 1_555
Nb0 O17 2.170107 1_555
Nb0 O21 2.170111 1_555
Nb1 O12 1.912317 1_555
Nb1 O5 1.912326 1_555
Nb1 O8 1.912326 1_555
Nb1 O18 2.170107 1_555
Nb1 O16 2.170107 1_555
Nb1 O20 2.170111 1_555
Nb2 O14 1.912317 1_555
Nb2 O7 1.912326 1_555
Nb2 O11 1.912326 1_555
Nb2 O16 2.170107 1_555
Nb2 O18 2.170107 1_555
Nb2 O20 2.170111 1_555
Nb3 O15 1.912317 1_555
Nb3 O13 1.912326 1_555
Nb3 O9 1.912326 1_555
Nb3 O19 2.170107 1_555
Nb3 O17 2.170107 1_555
Nb3 O21 2.170111 1_555
O0 V3 1.722391 1_555
O1 V2 1.722391 1_555
O2 V1 1.722391 1_554
O3 V0 1.722391 1_556
O22 V0 1.750740 1_555
O23 V1 1.750740 1_555
O24 V0 1.750740 1_555
O25 V2 1.750740 1_555
O26 V1 1.750740 1_555
O27 V3 1.750740 1_555
O28 V0 1.750736 1_555
O29 V2 1.750740 1_555
O30 V1 1.750736 1_555
O31 V3 1.750740 1_555
O32 V2 1.750736 1_555
O33 V3 1.750736 1_555
