# generated using pymatgen
data_Li6MnV3(PO4)6
_symmetry_space_group_name_H-M   'P 1'
_cell_length_a   9.88077100
_cell_length_b   9.89559910
_cell_length_c   9.90185602
_cell_angle_alpha   86.95809771
_cell_angle_beta   87.68374003
_cell_angle_gamma   87.11349321
_symmetry_Int_Tables_number   1
_chemical_formula_structural   Li6MnV3(PO4)6
_chemical_formula_sum   'Li12 Mn2 V6 P12 O48'
_cell_volume   964.88286649
_cell_formula_units_Z   2
loop_
 _symmetry_equiv_pos_site_id
 _symmetry_equiv_pos_as_xyz
  1  'x, y, z'
loop_
 _atom_site_type_symbol
 _atom_site_label
 _atom_site_symmetry_multiplicity
 _atom_site_fract_x
 _atom_site_fract_y
 _atom_site_fract_z
 _atom_site_occupancy
  Li  Li0  1  0.94808000  0.99844000  0.02429300  1
  Li  Li1  1  0.26365700  0.93271600  0.86249100  1
  Li  Li2  1  0.90192900  0.87187100  0.26312800  1
  Li  Li3  1  0.43120400  0.76876300  0.36275400  1
  Li  Li4  1  0.13469300  0.73845100  0.07079600  1
  Li  Li5  1  0.22907400  0.63142600  0.58151800  1
  Li  Li6  1  0.63686400  0.57168800  0.24088100  1
  Li  Li7  1  0.47974200  0.50944600  0.55166400  1
  Li  Li8  1  0.77229000  0.35079300  0.43584500  1
  Li  Li9  1  0.55630400  0.23566800  0.62845200  1
  Li  Li10  1  0.86687700  0.26615000  0.94395100  1
  Li  Li11  1  0.06569100  0.14101000  0.73241800  1
  Mn  Mn0  1  0.74354500  0.97435400  0.51933500  1
  Mn  Mn1  1  0.24280300  0.02583600  0.46992000  1
  V  V0  1  0.75035000  0.75172700  0.74524700  1
  V  V1  1  0.53516600  0.75055400  0.96316900  1
  V  V2  1  0.97345700  0.53190600  0.75465000  1
  V  V3  1  0.04069100  0.46601000  0.25267300  1
  V  V4  1  0.46918300  0.24984900  0.03064300  1
  V  V5  1  0.25328200  0.24927600  0.25208800  1
  P  P0  1  0.33032000  0.94926900  0.14274600  1
  P  P1  1  0.04636600  0.85353900  0.67011500  1
  P  P2  1  0.44804200  0.82424900  0.64609700  1
  P  P3  1  0.85430400  0.67426500  0.04762400  1
  P  P4  1  0.83282600  0.63771300  0.45208100  1
  P  P5  1  0.35501100  0.55181500  0.16956400  1
  P  P6  1  0.65132600  0.45249800  0.82000200  1
  P  P7  1  0.18080400  0.35538100  0.55160500  1
  P  P8  1  0.15382400  0.32998100  0.95342000  1
  P  P9  1  0.54634000  0.16586800  0.34319100  1
  P  P10  1  0.95518800  0.14987300  0.32691000  1
  P  P11  1  0.67521000  0.04921900  0.85234800  1
  O  O0  1  0.38249900  0.96265900  0.59416500  1
  O  O1  1  0.09856400  0.94496300  0.77468600  1
  O  O2  1  0.67000300  0.88820500  0.87802800  1
  O  O3  1  0.88808600  0.87882500  0.67059600  1
  O  O4  1  0.30832300  0.91107700  0.29474300  1
  O  O5  1  0.10943400  0.88851400  0.52710600  1
  O  O6  1  0.21588800  0.90957100  0.05442100  1
  O  O7  1  0.46732700  0.88373900  0.09441600  1
  O  O8  1  0.60553600  0.82473600  0.62072800  1
  O  O9  1  0.41074000  0.80983900  0.80043100  1
  O  O10  1  0.80684900  0.78830800  0.41157800  1
  O  O11  1  0.93417600  0.79454100  0.08970400  1
  O  O12  1  0.87815500  0.66999300  0.88801600  1
  O  O13  1  0.40085000  0.70964300  0.56225600  1
  O  O14  1  0.08252900  0.69930900  0.70083600  1
  O  O15  1  0.69953500  0.68696000  0.08454300  1
  O  O16  1  0.83511800  0.61878900  0.61377400  1
  O  O17  1  0.62168100  0.61169600  0.82798400  1
  O  O18  1  0.97351200  0.58934300  0.39334600  1
  O  O19  1  0.40088400  0.61817500  0.03252800  1
  O  O20  1  0.44040700  0.59567800  0.28395100  1
  O  O21  1  0.72259300  0.54655700  0.40868300  1
  O  O22  1  0.19945800  0.58756600  0.19057700  1
  O  O23  1  0.91086900  0.54021300  0.11282900  1
  O  O24  1  0.11489000  0.47013100  0.89045800  1
  O  O25  1  0.80805600  0.42125500  0.82442300  1
  O  O26  1  0.58983800  0.40879100  0.69232600  1
  O  O27  1  0.29638300  0.44080300  0.58813800  1
  O  O28  1  0.58831300  0.38430500  0.95150700  1
  O  O29  1  0.04349500  0.40778700  0.61692900  1
  O  O30  1  0.37680500  0.39196600  0.16412400  1
  O  O31  1  0.17251100  0.37684700  0.38977600  1
  O  O32  1  0.92244600  0.30590000  0.29923300  1
  O  O33  1  0.31066500  0.29726900  0.92835700  1
  O  O34  1  0.60223100  0.27098500  0.43108300  1
  O  O35  1  0.12555800  0.33039500  0.11309100  1
  O  O36  1  0.06666600  0.22022900  0.90448800  1
  O  O37  1  0.56912500  0.20825100  0.18661100  1
  O  O38  1  0.19566900  0.20217900  0.58976100  1
  O  O39  1  0.38760900  0.17028900  0.37827400  1
  O  O40  1  0.54194900  0.11001500  0.92160900  1
  O  O41  1  0.80182800  0.09264700  0.91759400  1
  O  O42  1  0.88979500  0.11440400  0.46590400  1
  O  O43  1  0.66818300  0.08654000  0.70030200  1
  O  O44  1  0.11747600  0.12204700  0.33561200  1
  O  O45  1  0.91506600  0.06413900  0.21316600  1
  O  O46  1  0.33591300  0.11115300  0.12337100  1
  O  O47  1  0.60532500  0.02317300  0.36905000  1
loop_
_geom_bond_atom_site_label_1
_geom_bond_atom_site_label_2
_geom_bond_distance
_geom_bond_site_symmetry_2
Li0 O41 1.989159 1_564
Li0 O45 2.021157 1_565
Li0 O11 2.095597 1_555
Li1 O1 1.874862 1_555
Li1 O6 1.944012 1_556
Li1 O9 1.948676 1_555
Li2 O10 1.888035 1_555
Li2 O11 1.925258 1_555
Li2 O45 1.949690 1_565
Li3 O20 1.916029 1_555
Li3 O4 1.924625 1_555
Li3 O13 2.044920 1_555
Li4 O6 1.906431 1_555
Li4 O22 1.955183 1_555
Li4 O11 2.034409 1_455
Li5 O13 1.899129 1_555
Li5 O14 1.947238 1_555
Li5 O27 1.966950 1_555
Li6 O21 1.894417 1_555
Li6 O15 1.971619 1_555
Li6 O20 1.975779 1_555
Li7 O27 1.979700 1_555
Li7 O26 1.995374 1_555
Li7 O13 2.098378 1_555
Li8 O34 1.895624 1_555
Li8 O21 1.981359 1_555
Li8 O32 2.015836 1_555
Li9 O26 1.906257 1_555
Li9 O43 1.921912 1_555
Li9 O34 2.004802 1_555
Li10 O41 1.897703 1_555
Li10 O25 1.966551 1_555
Li10 O36 2.030340 1_655
Li11 O36 1.913490 1_555
Li11 O38 1.962660 1_555
Li11 O1 1.976267 1_545
Mn0 O47 2.081956 1_565
Mn0 O42 2.085872 1_565
Mn0 O10 2.226588 1_555
Mn0 O8 2.234826 1_555
Mn0 O43 2.240059 1_565
Mn0 O3 2.250171 1_555
Mn1 O0 1.943794 1_545
Mn1 O5 1.985482 1_545
Mn1 O44 2.022006 1_555
Mn1 O4 2.182138 1_545
Mn1 O38 2.182515 1_555
Mn1 O39 2.208474 1_555
O0 P2 1.556472 1_555
O1 P1 1.531735 1_555
O2 P11 1.603186 1_565
O2 V0 2.044245 1_555
O2 V1 2.076362 1_555
O3 P1 1.571183 1_655
O3 V0 1.993186 1_555
O4 P0 1.541661 1_555
O5 P1 1.552966 1_555
O6 P0 1.535829 1_555
O7 P0 1.540867 1_555
O7 V1 1.974237 1_554
O8 P2 1.566459 1_555
O8 V0 2.008363 1_555
O9 P2 1.558265 1_555
O9 V1 2.107001 1_555
O10 P4 1.534233 1_555
O11 P3 1.544942 1_555
O12 P3 1.590918 1_556
O12 V0 2.041428 1_555
O12 V2 2.111689 1_555
O13 P2 1.541842 1_555
O14 P1 1.566551 1_555
O14 V2 2.056521 1_455
O15 P3 1.558308 1_555
O15 V1 2.110131 1_554
O16 P4 1.603016 1_555
O16 V0 2.027184 1_555
O16 V2 2.112323 1_555
O17 P6 1.593321 1_555
O17 V0 2.044601 1_555
O17 V1 2.096442 1_555
O18 P4 1.548183 1_555
O18 V3 1.973435 1_655
O19 P5 1.537389 1_555
O19 V1 1.988474 1_554
O20 P5 1.532826 1_555
O21 P4 1.537074 1_555
O22 P5 1.567791 1_555
O22 V3 2.078338 1_555
O23 P3 1.533788 1_555
O23 V3 2.010679 1_655
O24 P8 1.527731 1_555
O24 V2 2.028195 1_455
O25 P6 1.565735 1_555
O25 V2 2.087062 1_555
O26 P6 1.516916 1_555
O27 P7 1.520740 1_555
O28 P6 1.556317 1_555
O28 V4 1.934526 1_556
O29 P7 1.556218 1_555
O29 V2 1.965451 1_455
O30 P5 1.589078 1_555
O30 V5 2.049181 1_555
O30 V4 2.127982 1_555
O31 P7 1.610056 1_555
O31 V5 2.020539 1_555
O31 V3 2.053781 1_555
O32 P10 1.573402 1_555
O32 V3 2.037950 1_655
O33 P8 1.579522 1_555
O33 V4 1.924317 1_556
O34 P9 1.528783 1_555
O35 P8 1.594548 1_554
O35 V5 2.013064 1_555
O35 V3 2.098619 1_555
O36 P8 1.529611 1_555
O37 P9 1.594587 1_555
O37 V4 1.882700 1_555
O38 P7 1.543995 1_555
O39 P9 1.591567 1_555
O39 V5 1.964597 1_555
O40 P11 1.567497 1_555
O40 V4 1.895497 1_556
O41 P11 1.521916 1_555
O42 P10 1.527930 1_555
O43 P11 1.534507 1_555
O44 P10 1.618251 1_455
O44 V5 2.009887 1_555
O45 P10 1.522104 1_555
O46 P0 1.606708 1_545
O46 V5 2.036566 1_555
O46 V4 2.100307 1_555
O47 P9 1.513253 1_555
