# generated using pymatgen
data_Li7Mn5O12
_symmetry_space_group_name_H-M   'P 1'
_cell_length_a   2.99061300
_cell_length_b   5.10318658
_cell_length_c   15.11529325
_cell_angle_alpha   96.21632444
_cell_angle_beta   93.49681157
_cell_angle_gamma   103.20293960
_symmetry_Int_Tables_number   1
_chemical_formula_structural   Li7Mn5O12
_chemical_formula_sum   'Li7 Mn5 O12'
_cell_volume   222.38872616
_cell_formula_units_Z   1
loop_
 _symmetry_equiv_pos_site_id
 _symmetry_equiv_pos_as_xyz
  1  'x, y, z'
loop_
 _atom_site_type_symbol
 _atom_site_label
 _atom_site_symmetry_multiplicity
 _atom_site_fract_x
 _atom_site_fract_y
 _atom_site_fract_z
 _atom_site_occupancy
  Li  Li0  1  0.01823800  0.26417200  0.74975600  1
  Li  Li1  1  0.66425900  0.41458100  0.91642000  1
  Li  Li2  1  0.33574100  0.58541900  0.08358000  1
  Li  Li3  1  0.98176200  0.73582800  0.25024400  1
  Li  Li4  1  0.70608100  0.92968500  0.42770100  1
  Li  Li5  1  0.29391900  0.07031500  0.57229900  1
  Li  Li6  1  0.00000000  0.50000000  0.50000000  1
  Mn  Mn0  1  0.65569300  0.66531300  0.65959500  1
  Mn  Mn1  1  0.34430700  0.33468700  0.34040500  1
  Mn  Mn2  1  0.31795200  0.82549200  0.83176500  1
  Mn  Mn3  1  0.00000000  0.00000000  0.00000000  1
  Mn  Mn4  1  0.68204800  0.17450800  0.16823500  1
  O  O0  1  0.28283900  0.91955000  0.70781300  1
  O  O1  1  0.01922100  0.10910100  0.87781200  1
  O  O2  1  0.69624800  0.28049800  0.04588100  1
  O  O3  1  0.36690100  0.44644400  0.21403200  1
  O  O4  1  0.95188800  0.58105700  0.36999600  1
  O  O5  1  0.67669300  0.79571100  0.55203400  1
  O  O6  1  0.63309900  0.55355600  0.78596800  1
  O  O7  1  0.30375200  0.71950200  0.95411900  1
  O  O8  1  0.98077900  0.89089900  0.12218800  1
  O  O9  1  0.71716100  0.08045000  0.29218700  1
  O  O10  1  0.32330700  0.20428900  0.44796600  1
  O  O11  1  0.04811200  0.41894300  0.63000400  1
loop_
_geom_bond_atom_site_label_1
_geom_bond_atom_site_label_2
_geom_bond_distance
_geom_bond_site_symmetry_2
Li0 O11 2.050689 1_555
Li0 O6 2.079283 1_555
Li0 O6 2.118012 1_455
Li0 O0 2.139274 1_545
Li0 O1 2.169080 1_555
Li0 O0 2.480598 1_445
Li1 O1 2.128894 1_655
Li1 O7 2.134879 1_555
Li1 O2 2.145604 1_556
Li1 O6 2.170340 1_555
Li1 O7 2.172381 1_655
Li1 O1 2.187236 1_555
Li2 O8 2.128894 1_455
Li2 O2 2.134879 1_555
Li2 O7 2.145604 1_554
Li2 O3 2.170340 1_555
Li2 O2 2.172381 1_455
Li2 O8 2.187236 1_555
Li3 O4 2.050689 1_555
Li3 O3 2.079283 1_555
Li3 O3 2.118012 1_655
Li3 O9 2.139274 1_565
Li3 O8 2.169080 1_555
Li3 O9 2.480598 1_665
Li4 O10 2.012618 1_565
Li4 O10 2.030111 1_665
Li4 O5 2.068334 1_555
Li4 O4 2.192259 1_555
Li4 O9 2.264210 1_565
Li4 O4 2.569865 1_455
Li5 O5 2.012618 1_545
Li5 O5 2.030111 1_445
Li5 O10 2.068334 1_555
Li5 O11 2.192259 1_555
Li5 O0 2.264210 1_545
Li5 O11 2.569865 1_655
Li6 O11 2.054740 1_555
Li6 O4 2.054740 1_455
Li6 O5 2.081585 1_455
Li6 O10 2.081585 1_555
Li6 O5 2.268283 1_555
Li6 O10 2.268283 1_455
Mn0 O5 1.821457 1_555
Mn0 O11 1.942761 1_655
Mn0 O11 1.953952 1_555
Mn0 O0 2.003262 1_555
Mn0 O6 2.052468 1_555
Mn0 O0 2.061329 1_655
Mn1 O10 1.821457 1_555
Mn1 O4 1.942761 1_455
Mn1 O4 1.953952 1_555
Mn1 O9 2.003262 1_555
Mn1 O3 2.052468 1_555
Mn1 O9 2.061329 1_455
Mn2 O6 1.939663 1_555
Mn2 O1 1.955922 1_565
Mn2 O7 1.982531 1_555
Mn2 O0 1.986322 1_555
Mn2 O6 2.218221 1_455
Mn2 O1 2.279194 1_665
Mn3 O2 1.952179 1_455
Mn3 O7 1.952179 1_544
Mn3 O1 1.986298 1_554
Mn3 O8 1.986298 1_445
Mn3 O2 2.261170 1_555
Mn3 O7 2.261170 1_444
Mn4 O3 1.939663 1_555
Mn4 O8 1.955922 1_545
Mn4 O2 1.982531 1_555
Mn4 O9 1.986322 1_555
Mn4 O3 2.218221 1_655
Mn4 O8 2.279194 1_445
