# generated using pymatgen
data_Sr2ScNiPO3
_symmetry_space_group_name_H-M   'P 1'
_cell_length_a   4.08100100
_cell_length_b   4.08100100
_cell_length_c   15.21065100
_cell_angle_alpha   90.00000000
_cell_angle_beta   90.00000000
_cell_angle_gamma   90.00000000
_symmetry_Int_Tables_number   1
_chemical_formula_structural   Sr2ScNiPO3
_chemical_formula_sum   'Sr4 Sc2 Ni2 P2 O6'
_cell_volume   253.32683908
_cell_formula_units_Z   2
loop_
 _symmetry_equiv_pos_site_id
 _symmetry_equiv_pos_as_xyz
  1  'x, y, z'
loop_
 _atom_site_type_symbol
 _atom_site_label
 _atom_site_symmetry_multiplicity
 _atom_site_fract_x
 _atom_site_fract_y
 _atom_site_fract_z
 _atom_site_occupancy
  Sr  Sr0  1  0.25000000  0.25000000  0.82455000  1
  Sr  Sr1  1  0.75000000  0.75000000  0.17545000  1
  Sr  Sr2  1  0.25000000  0.25000000  0.58907800  1
  Sr  Sr3  1  0.75000000  0.75000000  0.41092200  1
  Sc  Sc0  1  0.75000000  0.75000000  0.69878200  1
  Sc  Sc1  1  0.25000000  0.25000000  0.30121800  1
  Ni  Ni0  1  0.25000000  0.75000000  0.00000000  1
  Ni  Ni1  1  0.75000000  0.25000000  0.00000000  1
  P  P0  1  0.75000000  0.75000000  0.93804300  1
  P  P1  1  0.25000000  0.25000000  0.06195700  1
  O  O0  1  0.75000000  0.25000000  0.72073000  1
  O  O1  1  0.25000000  0.75000000  0.72073000  1
  O  O2  1  0.25000000  0.75000000  0.27927000  1
  O  O3  1  0.75000000  0.25000000  0.27927000  1
  O  O4  1  0.75000000  0.75000000  0.56844600  1
  O  O5  1  0.25000000  0.25000000  0.43155400  1
loop_
_geom_bond_atom_site_label_1
_geom_bond_atom_site_label_2
_geom_bond_distance
_geom_bond_site_symmetry_2
Ni0 P1 2.247615 1_565
Ni0 P0 2.247615 1_454
Ni0 P1 2.247615 1_555
Ni0 P0 2.247615 1_554
Ni1 P1 2.247615 1_655
Ni1 P0 2.247615 1_544
Ni1 P1 2.247615 1_555
Ni1 P0 2.247615 1_554
O0 Sc0 2.067630 1_545
O0 Sc0 2.067630 1_555
O0 Sr0 2.580198 1_655
O0 Sr0 2.580198 1_555
O0 Sr2 2.858968 1_555
O0 Sr2 2.858968 1_655
O1 Sc0 2.067630 1_555
O1 Sc0 2.067630 1_455
O1 Sr0 2.580198 1_565
O1 Sr0 2.580198 1_555
O1 Sr2 2.858968 1_565
O1 Sr2 2.858968 1_555
O2 Sc1 2.067630 1_565
O2 Sc1 2.067630 1_555
O2 Sr1 2.580198 1_555
O2 Sr1 2.580198 1_455
O2 Sr3 2.858968 1_455
O2 Sr3 2.858968 1_555
O3 Sc1 2.067630 1_655
O3 Sc1 2.067630 1_555
O3 Sr1 2.580198 1_545
O3 Sr1 2.580198 1_555
O3 Sr3 2.858968 1_555
O3 Sr3 2.858968 1_545
O4 Sc0 1.982495 1_555
O4 Sr3 2.396043 1_555
O4 Sr2 2.902718 1_555
O4 Sr2 2.902718 1_565
O4 Sr2 2.902718 1_655
O4 Sr2 2.902718 1_665
O5 Sc1 1.982495 1_555
O5 Sr2 2.396043 1_555
O5 Sr3 2.902718 1_555
O5 Sr3 2.902718 1_455
O5 Sr3 2.902718 1_545
O5 Sr3 2.902718 1_445
