# generated using pymatgen
data_Sb2Te3
_symmetry_space_group_name_H-M   'P 1'
_cell_length_a   6.63992840
_cell_length_b   6.63992840
_cell_length_c   7.65214711
_cell_angle_alpha   78.24395209
_cell_angle_beta   78.24395209
_cell_angle_gamma   79.59311362
_symmetry_Int_Tables_number   1
_chemical_formula_structural   Sb2Te3
_chemical_formula_sum   'Sb4 Te6'
_cell_volume   319.94317455
_cell_formula_units_Z   2
loop_
 _symmetry_equiv_pos_site_id
 _symmetry_equiv_pos_as_xyz
  1  'x, y, z'
loop_
 _atom_site_type_symbol
 _atom_site_label
 _atom_site_symmetry_multiplicity
 _atom_site_fract_x
 _atom_site_fract_y
 _atom_site_fract_z
 _atom_site_occupancy
  Sb  Sb0  1  0.82854000  0.57545000  0.83753700  1
  Sb  Sb1  1  0.42455000  0.17146000  0.66246300  1
  Sb  Sb2  1  0.17146000  0.42455000  0.16246300  1
  Sb  Sb3  1  0.57545000  0.82854000  0.33753700  1
  Te  Te0  1  0.77081100  0.98090600  0.95805700  1
  Te  Te1  1  0.01909400  0.22918900  0.54194300  1
  Te  Te2  1  0.22918900  0.01909400  0.04194300  1
  Te  Te3  1  0.98090600  0.77081100  0.45805700  1
  Te  Te4  1  0.60165200  0.39834800  0.25000000  1
  Te  Te5  1  0.39834800  0.60165200  0.75000000  1
loop_
_geom_bond_atom_site_label_1
_geom_bond_atom_site_label_2
_geom_bond_distance
_geom_bond_site_symmetry_2
Sb0 Te0 2.956391 1_555
Sb0 Te3 2.980024 1_555
Sb0 Te5 3.031648 1_555
Sb0 Te4 3.286981 1_556
Sb0 Te1 3.450404 1_655
Sb1 Te1 2.956391 1_555
Sb1 Te2 2.980024 1_556
Sb1 Te5 3.031648 1_555
Sb1 Te4 3.286981 1_555
Sb1 Te0 3.450404 1_545
Sb2 Te2 2.956391 1_555
Sb2 Te1 2.980024 1_555
Sb2 Te4 3.031648 1_555
Sb2 Te5 3.286981 1_554
Sb2 Te3 3.450404 1_455
Sb3 Te3 2.956391 1_555
Sb3 Te0 2.980024 1_554
Sb3 Te4 3.031648 1_555
Sb3 Te5 3.286981 1_555
Sb3 Te2 3.450404 1_565
