# generated using pymatgen
data_K3SbI6
_symmetry_space_group_name_H-M   'P 1'
_cell_length_a   9.00712901
_cell_length_b   9.00712901
_cell_length_c   9.00712901
_cell_angle_alpha   60.00000000
_cell_angle_beta   60.00000000
_cell_angle_gamma   60.00000000
_symmetry_Int_Tables_number   1
_chemical_formula_structural   K3SbI6
_chemical_formula_sum   'K3 Sb1 I6'
_cell_volume   516.70676959
_cell_formula_units_Z   1
loop_
 _symmetry_equiv_pos_site_id
 _symmetry_equiv_pos_as_xyz
  1  'x, y, z'
loop_
 _atom_site_type_symbol
 _atom_site_label
 _atom_site_symmetry_multiplicity
 _atom_site_fract_x
 _atom_site_fract_y
 _atom_site_fract_z
 _atom_site_occupancy
  K  K0  1  0.75000000  0.75000000  0.75000000  1
  K  K1  1  0.25000000  0.25000000  0.25000000  1
  K  K2  1  0.50000000  0.50000000  0.50000000  1
  Sb  Sb0  1  0.00000000  0.00000000  0.00000000  1
  I  I0  1  0.76293000  0.23707000  0.23707000  1
  I  I1  1  0.23707000  0.23707000  0.76293000  1
  I  I2  1  0.23707000  0.76293000  0.76293000  1
  I  I3  1  0.23707000  0.76293000  0.23707000  1
  I  I4  1  0.76293000  0.23707000  0.76293000  1
  I  I5  1  0.76293000  0.76293000  0.23707000  1
loop_
_geom_bond_atom_site_label_1
_geom_bond_atom_site_label_2
_geom_bond_distance
_geom_bond_site_symmetry_2
I0 Sb0 3.019799 1_655
I0 K2 3.349203 1_555
I1 Sb0 3.019799 1_556
I1 K2 3.349203 1_555
I2 Sb0 3.019799 1_566
I2 K2 3.349203 1_555
I3 Sb0 3.019799 1_565
I3 K2 3.349203 1_555
I4 Sb0 3.019799 1_656
I4 K2 3.349203 1_555
I5 Sb0 3.019799 1_665
I5 K2 3.349203 1_555
