# generated using pymatgen
data_AgPO4
_symmetry_space_group_name_H-M   'P 1'
_cell_length_a   5.10791600
_cell_length_b   9.74100290
_cell_length_c   15.41864578
_cell_angle_alpha   95.45159183
_cell_angle_beta   99.50621834
_cell_angle_gamma   105.15687788
_symmetry_Int_Tables_number   1
_chemical_formula_structural   AgPO4
_chemical_formula_sum   'Ag8 P8 O32'
_cell_volume   722.58236065
_cell_formula_units_Z   8
loop_
 _symmetry_equiv_pos_site_id
 _symmetry_equiv_pos_as_xyz
  1  'x, y, z'
loop_
 _atom_site_type_symbol
 _atom_site_label
 _atom_site_symmetry_multiplicity
 _atom_site_fract_x
 _atom_site_fract_y
 _atom_site_fract_z
 _atom_site_occupancy
  Ag  Ag0  1  0.61650000  0.77027400  0.97262600  1
  Ag  Ag1  1  0.38466600  0.73192300  0.52768700  1
  Ag  Ag2  1  0.38350000  0.22972600  0.02737400  1
  Ag  Ag3  1  0.00000000  0.50000000  0.00000000  1
  Ag  Ag4  1  0.61533400  0.26807700  0.47231300  1
  Ag  Ag5  1  0.58123400  0.25120200  0.25011700  1
  Ag  Ag6  1  0.41876600  0.74879800  0.74988300  1
  Ag  Ag7  1  0.00000000  0.00000000  0.50000000  1
  P  P0  1  0.38283300  0.43277400  0.86730200  1
  P  P1  1  0.80992400  0.58739100  0.61683300  1
  P  P2  1  0.61716700  0.56722600  0.13269800  1
  P  P3  1  0.89630500  0.08774300  0.11743600  1
  P  P4  1  0.41923200  0.93300900  0.36658900  1
  P  P5  1  0.58076800  0.06699100  0.63341100  1
  P  P6  1  0.19007600  0.41260900  0.38316700  1
  P  P7  1  0.10369500  0.91225700  0.88256400  1
  O  O0  1  0.90781400  0.60784900  0.10428400  1
  O  O1  1  0.21600400  0.07263200  0.91743100  1
  O  O2  1  0.30775900  0.10742800  0.60587800  1
  O  O3  1  0.91805800  0.68815600  0.55215600  1
  O  O4  1  0.41927800  0.61212700  0.05638800  1
  O  O5  1  0.01319000  0.60201700  0.70580200  1
  O  O6  1  0.16989600  0.80711400  0.94627300  1
  O  O7  1  0.22535700  0.12275800  0.13557500  1
  O  O8  1  0.08194200  0.31184400  0.44784400  1
  O  O9  1  0.72637500  0.42429000  0.58370200  1
  O  O10  1  0.50525200  0.39939300  0.13131700  1
  O  O11  1  0.27532200  0.86524500  0.27391500  1
  O  O12  1  0.78399600  0.92736800  0.08256900  1
  O  O13  1  0.53928200  0.62715000  0.63625300  1
  O  O14  1  0.09218600  0.39215100  0.89571600  1
  O  O15  1  0.49474800  0.60060700  0.86868300  1
  O  O16  1  0.37548600  0.36501600  0.77515800  1
  O  O17  1  0.83010400  0.19288600  0.05372700  1
  O  O18  1  0.52972400  0.89922100  0.63300600  1
  O  O19  1  0.72467800  0.13475500  0.72608500  1
  O  O20  1  0.46071800  0.37285000  0.36374700  1
  O  O21  1  0.74366300  0.10810600  0.55461700  1
  O  O22  1  0.77464300  0.87724200  0.86442500  1
  O  O23  1  0.80068200  0.10681500  0.20659600  1
  O  O24  1  0.27362500  0.57571000  0.41629800  1
  O  O25  1  0.69224100  0.89257200  0.39412200  1
  O  O26  1  0.62451400  0.63498400  0.22484200  1
  O  O27  1  0.25633700  0.89189400  0.44538300  1
  O  O28  1  0.58072200  0.38787300  0.94361200  1
  O  O29  1  0.19931800  0.89318500  0.79340400  1
  O  O30  1  0.98681000  0.39798300  0.29419800  1
  O  O31  1  0.47027600  0.10077900  0.36699400  1
loop_
_geom_bond_atom_site_label_1
_geom_bond_atom_site_label_2
_geom_bond_distance
_geom_bond_site_symmetry_2
Ag0 O12 2.071398 1_556
Ag0 O15 2.077691 1_555
Ag0 O22 2.203812 1_555
Ag0 O4 2.247717 1_556
Ag0 O6 2.376436 1_555
Ag1 O18 2.076066 1_555
Ag1 O24 2.077792 1_555
Ag1 O13 2.185601 1_555
Ag1 O27 2.259075 1_555
Ag1 O3 2.408504 1_455
Ag2 O1 2.071398 1_554
Ag2 O10 2.077691 1_555
Ag2 O7 2.203812 1_555
Ag2 O28 2.247717 1_554
Ag2 O17 2.376436 1_555
Ag3 O0 2.024501 1_455
Ag3 O14 2.024501 1_554
Ag3 O4 2.125276 1_555
Ag3 O28 2.125276 1_454
Ag4 O31 2.076066 1_555
Ag4 O9 2.077792 1_555
Ag4 O20 2.185601 1_555
Ag4 O21 2.259075 1_555
Ag4 O8 2.408504 1_655
Ag5 O23 2.139734 1_555
Ag5 O30 2.144605 1_555
Ag5 O20 2.279452 1_555
Ag5 O7 2.306348 1_555
Ag5 O31 2.473979 1_555
Ag5 O10 2.479964 1_555
Ag6 O29 2.139734 1_555
Ag6 O5 2.144605 1_555
Ag6 O13 2.279452 1_555
Ag6 O22 2.306348 1_555
Ag6 O18 2.473979 1_555
Ag6 O15 2.479964 1_555
Ag7 O2 2.049101 1_555
Ag7 O25 2.049101 1_445
Ag7 O27 2.109318 1_545
Ag7 O21 2.109318 1_455
O0 P2 1.578966 1_555
O1 P7 1.525952 1_545
O2 P5 1.550320 1_555
O3 P1 1.532128 1_555
O4 P2 1.591707 1_555
O5 P1 1.547624 1_455
O6 P7 1.546223 1_555
O7 P3 1.595734 1_455
O8 P6 1.532128 1_555
O9 P1 1.544824 1_555
O10 P2 1.581349 1_555
O11 P4 1.495975 1_555
O12 P3 1.525952 1_565
O13 P1 1.595430 1_555
O14 P0 1.578966 1_555
O15 P0 1.581349 1_555
O16 P0 1.498932 1_555
O17 P3 1.546223 1_555
O18 P5 1.585400 1_565
O19 P5 1.495975 1_555
O20 P6 1.595430 1_555
O21 P5 1.606480 1_555
O22 P7 1.595734 1_655
O23 P3 1.543914 1_555
O24 P6 1.544824 1_555
O25 P4 1.550320 1_555
O26 P2 1.498932 1_555
O27 P4 1.606480 1_555
O28 P0 1.591707 1_555
O29 P7 1.543914 1_555
O30 P6 1.547624 1_655
O31 P4 1.585400 1_545
