# generated using pymatgen
data_La3SnN
_symmetry_space_group_name_H-M   'P 1'
_cell_length_a   5.10650318
_cell_length_b   5.10651462
_cell_length_c   5.10650942
_cell_angle_alpha   90.00000000
_cell_angle_beta   90.00000000
_cell_angle_gamma   90.00000000
_symmetry_Int_Tables_number   1
_chemical_formula_structural   La3SnN
_chemical_formula_sum   'La3 Sn1 N1'
_cell_volume   133.15955150
_cell_formula_units_Z   1
loop_
 _symmetry_equiv_pos_site_id
 _symmetry_equiv_pos_as_xyz
  1  'x, y, z'
loop_
 _atom_site_type_symbol
 _atom_site_label
 _atom_site_symmetry_multiplicity
 _atom_site_fract_x
 _atom_site_fract_y
 _atom_site_fract_z
 _atom_site_occupancy
  La  La0  1  0.50000000  -0.00000000  -0.00000000  1
  La  La1  1  -0.00000000  0.50000000  -0.00000000  1
  La  La2  1  0.00000000  -0.00000000  0.50000000  1
  Sn  Sn0  1  0.50000000  0.50000000  0.50000000  1
  N  N0  1  -0.00000000  -0.00000000  -0.00000000  1
loop_
_geom_bond_atom_site_label_1
_geom_bond_atom_site_label_2
_geom_bond_distance
_geom_bond_site_symmetry_2
La0 N0 2.553252 1_655
La0 N0 2.553252 1_555
La0 Sn0 3.610849 1_544
La0 Sn0 3.610849 1_545
La0 Sn0 3.610849 1_555
La0 Sn0 3.610849 1_554
La1 N0 2.553257 1_565
La1 N0 2.553257 1_555
La1 Sn0 3.610845 1_554
La1 Sn0 3.610845 1_455
La1 Sn0 3.610845 1_454
La1 Sn0 3.610845 1_555
La2 N0 2.553255 1_556
La2 N0 2.553255 1_555
La2 Sn0 3.610847 1_455
La2 Sn0 3.610847 1_555
La2 Sn0 3.610847 1_545
La2 Sn0 3.610847 1_445
