# generated using pymatgen
data_Ag3PS4
_symmetry_space_group_name_H-M   'P 1'
_cell_length_a   6.57031988
_cell_length_b   6.83933977
_cell_length_c   7.65066102
_cell_angle_alpha   90.00000000
_cell_angle_beta   90.00000000
_cell_angle_gamma   90.00000000
_symmetry_Int_Tables_number   1
_chemical_formula_structural   Ag3PS4
_chemical_formula_sum   'Ag6 P2 S8'
_cell_volume   343.79507696
_cell_formula_units_Z   2
loop_
 _symmetry_equiv_pos_site_id
 _symmetry_equiv_pos_as_xyz
  1  'x, y, z'
loop_
 _atom_site_type_symbol
 _atom_site_label
 _atom_site_symmetry_multiplicity
 _atom_site_fract_x
 _atom_site_fract_y
 _atom_site_fract_z
 _atom_site_occupancy
  Ag  Ag0  1  0.92706194  0.80788331  0.73409926  1
  Ag  Ag1  1  0.42706194  0.19211669  0.76590074  1
  Ag  Ag2  1  0.42706194  0.19211669  0.23409926  1
  Ag  Ag3  1  0.92706194  0.80788331  0.26590074  1
  Ag  Ag4  1  0.39270373  0.63884489  0.50000000  1
  Ag  Ag5  1  0.89270373  0.36115511  0.00000000  1
  P  P0  1  0.40325667  0.68905237  0.00000000  1
  P  P1  1  0.90325667  0.31094763  0.50000000  1
  S  S0  1  0.30328406  0.83453622  0.22062519  1
  S  S1  1  0.80328406  0.16546378  0.27937481  1
  S  S2  1  0.78223337  0.58802204  0.50000000  1
  S  S3  1  0.28223337  0.41197796  0.00000000  1
  S  S4  1  0.80328406  0.16546378  0.72062519  1
  S  S5  1  0.30328406  0.83453622  0.77937481  1
  S  S6  1  0.71401524  0.69168360  0.00000000  1
  S  S7  1  0.21401524  0.30831640  0.50000000  1
loop_
_geom_bond_atom_site_label_1
_geom_bond_atom_site_label_2
_geom_bond_distance
_geom_bond_site_symmetry_2
Ag0 S5 2.502699 1_655
Ag0 S2 2.524747 1_555
Ag0 S4 2.579350 1_565
Ag0 S6 2.594116 1_556
Ag1 S4 2.502699 1_555
Ag1 S3 2.524747 1_556
Ag1 S5 2.579350 1_545
Ag1 S7 2.594116 1_555
Ag2 S1 2.502699 1_555
Ag2 S3 2.524747 1_555
Ag2 S0 2.579350 1_545
Ag2 S7 2.594116 1_555
Ag3 S0 2.502699 1_655
Ag3 S2 2.524747 1_555
Ag3 S1 2.579350 1_565
Ag3 S6 2.594116 1_555
Ag4 S7 2.547286 1_555
Ag4 S2 2.582831 1_555
Ag4 S5 2.589397 1_555
Ag4 S0 2.589397 1_555
Ag5 S6 2.547286 1_555
Ag5 S3 2.582831 1_655
Ag5 S1 2.589397 1_555
Ag5 S4 2.589397 1_554
P0 S6 2.041863 1_555
P0 S3 2.055074 1_555
P0 S0 2.066545 1_555
P0 S5 2.066545 1_554
P1 S7 2.041863 1_655
P1 S2 2.055074 1_555
P1 S4 2.066545 1_555
P1 S1 2.066545 1_555
