# generated using pymatgen
data_BaZnRu5O11
_symmetry_space_group_name_H-M   'P 1'
_cell_length_a   11.86931944
_cell_length_b   11.86931944
_cell_length_c   13.94522300
_cell_angle_alpha   90.00000000
_cell_angle_beta   90.00000000
_cell_angle_gamma   119.99999688
_symmetry_Int_Tables_number   1
_chemical_formula_structural   BaZnRu5O11
_chemical_formula_sum   'Ba8 Zn8 Ru40 O88'
_cell_volume   1701.40515894
_cell_formula_units_Z   8
loop_
 _symmetry_equiv_pos_site_id
 _symmetry_equiv_pos_as_xyz
  1  'x, y, z'
loop_
 _atom_site_type_symbol
 _atom_site_label
 _atom_site_symmetry_multiplicity
 _atom_site_fract_x
 _atom_site_fract_y
 _atom_site_fract_z
 _atom_site_occupancy
  Ba  Ba0  1  0.33333300  0.66666700  0.75000000  1
  Ba  Ba1  1  0.66666700  0.33333300  0.25000000  1
  Ba  Ba2  1  0.82911900  0.66956500  0.75000000  1
  Ba  Ba3  1  0.33043500  0.15955400  0.75000000  1
  Ba  Ba4  1  0.84044600  0.17088100  0.75000000  1
  Ba  Ba5  1  0.17088100  0.33043500  0.25000000  1
  Ba  Ba6  1  0.66956500  0.84044600  0.25000000  1
  Ba  Ba7  1  0.15955400  0.82911900  0.25000000  1
  Zn  Zn0  1  0.66666700  0.33333300  0.75000000  1
  Zn  Zn1  1  0.33333300  0.66666700  0.25000000  1
  Zn  Zn2  1  0.15820400  0.82719200  0.75000000  1
  Zn  Zn3  1  0.17280800  0.33101200  0.75000000  1
  Zn  Zn4  1  0.66898800  0.84179600  0.75000000  1
  Zn  Zn5  1  0.84179600  0.17280800  0.25000000  1
  Zn  Zn6  1  0.82719200  0.66898800  0.25000000  1
  Zn  Zn7  1  0.33101200  0.15820400  0.25000000  1
  Ru  Ru0  1  0.00000000  0.00000000  0.64870700  1
  Ru  Ru1  1  0.00000000  0.00000000  0.14870700  1
  Ru  Ru2  1  0.00000000  0.00000000  0.35129300  1
  Ru  Ru3  1  0.00000000  0.00000000  0.85129300  1
  Ru  Ru4  1  0.97233300  0.73253300  0.50122100  1
  Ru  Ru5  1  0.26746700  0.23979900  0.50122100  1
  Ru  Ru6  1  0.76020100  0.02766700  0.50122100  1
  Ru  Ru7  1  0.02766700  0.26746700  0.00122100  1
  Ru  Ru8  1  0.73253300  0.76020100  0.00122100  1
  Ru  Ru9  1  0.23979900  0.97233300  0.00122100  1
  Ru  Ru10  1  0.02766700  0.26746700  0.49877900  1
  Ru  Ru11  1  0.73253300  0.76020100  0.49877900  1
  Ru  Ru12  1  0.23979900  0.97233300  0.49877900  1
  Ru  Ru13  1  0.97233300  0.73253300  0.99877900  1
  Ru  Ru14  1  0.26746700  0.23979900  0.99877900  1
  Ru  Ru15  1  0.76020100  0.02766700  0.99877900  1
  Ru  Ru16  1  0.50443300  0.50544900  0.65124700  1
  Ru  Ru17  1  0.49455100  0.99898400  0.65124700  1
  Ru  Ru18  1  0.00101600  0.49556700  0.65124700  1
  Ru  Ru19  1  0.49556700  0.49455100  0.15124700  1
  Ru  Ru20  1  0.50544900  0.00101600  0.15124700  1
  Ru  Ru21  1  0.99898400  0.50443300  0.15124700  1
  Ru  Ru22  1  0.49556700  0.49455100  0.34875300  1
  Ru  Ru23  1  0.50544900  0.00101600  0.34875300  1
  Ru  Ru24  1  0.99898400  0.50443300  0.34875300  1
  Ru  Ru25  1  0.50443300  0.50544900  0.84875300  1
  Ru  Ru26  1  0.49455100  0.99898400  0.84875300  1
  Ru  Ru27  1  0.00101600  0.49556700  0.84875300  1
  Ru  Ru28  1  0.75452800  0.50979900  0.49920400  1
  Ru  Ru29  1  0.49020100  0.24472800  0.49920400  1
  Ru  Ru30  1  0.75527200  0.24547200  0.49920400  1
  Ru  Ru31  1  0.24547200  0.49020100  0.99920400  1
  Ru  Ru32  1  0.50979900  0.75527200  0.99920400  1
  Ru  Ru33  1  0.24472800  0.75452800  0.99920400  1
  Ru  Ru34  1  0.24547200  0.49020100  0.50079600  1
  Ru  Ru35  1  0.50979900  0.75527200  0.50079600  1
  Ru  Ru36  1  0.24472800  0.75452800  0.50079600  1
  Ru  Ru37  1  0.75452800  0.50979900  0.00079600  1
  Ru  Ru38  1  0.49020100  0.24472800  0.00079600  1
  Ru  Ru39  1  0.75527200  0.24547200  0.00079600  1
  O  O0  1  0.89724500  0.82874400  0.57711000  1
  O  O1  1  0.17125600  0.06850100  0.57711000  1
  O  O2  1  0.93149900  0.10275500  0.57711000  1
  O  O3  1  0.10275500  0.17125600  0.07711000  1
  O  O4  1  0.82874400  0.93149900  0.07711000  1
  O  O5  1  0.06850100  0.89724500  0.07711000  1
  O  O6  1  0.10275500  0.17125600  0.42289000  1
  O  O7  1  0.82874400  0.93149900  0.42289000  1
  O  O8  1  0.06850100  0.89724500  0.42289000  1
  O  O9  1  0.89724500  0.82874400  0.92289000  1
  O  O10  1  0.17125600  0.06850100  0.92289000  1
  O  O11  1  0.93149900  0.10275500  0.92289000  1
  O  O12  1  0.41627800  0.83011100  0.57648200  1
  O  O13  1  0.16988900  0.58616700  0.57648200  1
  O  O14  1  0.41383300  0.58372200  0.57648200  1
  O  O15  1  0.58372200  0.16988900  0.07648200  1
  O  O16  1  0.83011100  0.41383300  0.07648200  1
  O  O17  1  0.58616700  0.41627800  0.07648200  1
  O  O18  1  0.58372200  0.16988900  0.42351800  1
  O  O19  1  0.83011100  0.41383300  0.42351800  1
  O  O20  1  0.58616700  0.41627800  0.42351800  1
  O  O21  1  0.41627800  0.83011100  0.92351800  1
  O  O22  1  0.16988900  0.58616700  0.92351800  1
  O  O23  1  0.41383300  0.58372200  0.92351800  1
  O  O24  1  0.42349300  0.33149800  0.58906300  1
  O  O25  1  0.66850200  0.09199500  0.58906300  1
  O  O26  1  0.90800500  0.57650700  0.58906300  1
  O  O27  1  0.57650700  0.66850200  0.08906300  1
  O  O28  1  0.33149800  0.90800500  0.08906300  1
  O  O29  1  0.09199500  0.42349300  0.08906300  1
  O  O30  1  0.57650700  0.66850200  0.41093700  1
  O  O31  1  0.33149800  0.90800500  0.41093700  1
  O  O32  1  0.09199500  0.42349300  0.41093700  1
  O  O33  1  0.42349300  0.33149800  0.91093700  1
  O  O34  1  0.66850200  0.09199500  0.91093700  1
  O  O35  1  0.90800500  0.57650700  0.91093700  1
  O  O36  1  0.92641000  0.33497600  0.57239400  1
  O  O37  1  0.66502400  0.59143300  0.57239400  1
  O  O38  1  0.40856700  0.07359000  0.57239400  1
  O  O39  1  0.07359000  0.66502400  0.07239400  1
  O  O40  1  0.33497600  0.40856700  0.07239400  1
  O  O41  1  0.59143300  0.92641000  0.07239400  1
  O  O42  1  0.07359000  0.66502400  0.42760600  1
  O  O43  1  0.33497600  0.40856700  0.42760600  1
  O  O44  1  0.59143300  0.92641000  0.42760600  1
  O  O45  1  0.92641000  0.33497600  0.92760600  1
  O  O46  1  0.66502400  0.59143300  0.92760600  1
  O  O47  1  0.40856700  0.07359000  0.92760600  1
  O  O48  1  0.06045000  0.91623400  0.75000000  1
  O  O49  1  0.08376600  0.14421600  0.75000000  1
  O  O50  1  0.85578400  0.93955000  0.75000000  1
  O  O51  1  0.93955000  0.08376600  0.25000000  1
  O  O52  1  0.91623400  0.85578400  0.25000000  1
  O  O53  1  0.14421600  0.06045000  0.25000000  1
  O  O54  1  0.58677800  0.43992800  0.75000000  1
  O  O55  1  0.56007200  0.14685000  0.75000000  1
  O  O56  1  0.85315000  0.41322200  0.75000000  1
  O  O57  1  0.41322200  0.56007200  0.25000000  1
  O  O58  1  0.43992800  0.85315000  0.25000000  1
  O  O59  1  0.14685000  0.58677800  0.25000000  1
  O  O60  1  0.57017800  0.92938700  0.75000000  1
  O  O61  1  0.07061300  0.64079000  0.75000000  1
  O  O62  1  0.35921000  0.42982200  0.75000000  1
  O  O63  1  0.42982200  0.07061300  0.25000000  1
  O  O64  1  0.92938700  0.35921000  0.25000000  1
  O  O65  1  0.64079000  0.57017800  0.25000000  1
  O  O66  1  0.34437500  0.91960900  0.75000000  1
  O  O67  1  0.08039100  0.42476600  0.75000000  1
  O  O68  1  0.57523400  0.65562500  0.75000000  1
  O  O69  1  0.65562500  0.08039100  0.25000000  1
  O  O70  1  0.91960900  0.57523400  0.25000000  1
  O  O71  1  0.42476600  0.34437500  0.25000000  1
  O  O72  1  0.66666700  0.33333300  0.92833600  1
  O  O73  1  0.33333300  0.66666700  0.42833600  1
  O  O74  1  0.33333300  0.66666700  0.07166400  1
  O  O75  1  0.66666700  0.33333300  0.57166400  1
  O  O76  1  0.14050400  0.81248100  0.91726500  1
  O  O77  1  0.18751900  0.32802300  0.91726500  1
  O  O78  1  0.67197700  0.85949600  0.91726500  1
  O  O79  1  0.85949600  0.18751900  0.41726500  1
  O  O80  1  0.81248100  0.67197700  0.41726500  1
  O  O81  1  0.32802300  0.14050400  0.41726500  1
  O  O82  1  0.85949600  0.18751900  0.08273500  1
  O  O83  1  0.81248100  0.67197700  0.08273500  1
  O  O84  1  0.32802300  0.14050400  0.08273500  1
  O  O85  1  0.14050400  0.81248100  0.58273500  1
  O  O86  1  0.18751900  0.32802300  0.58273500  1
  O  O87  1  0.67197700  0.85949600  0.58273500  1
loop_
_geom_bond_atom_site_label_1
_geom_bond_atom_site_label_2
_geom_bond_distance
_geom_bond_site_symmetry_2
Ba0 O66 2.938911 1_555
Ba0 O67 2.938917 1_555
Ba0 O68 2.938923 1_555
Ba0 O22 2.945844 1_555
Ba0 O13 2.945844 1_555
Ba0 O21 2.945844 1_555
Ba0 O12 2.945844 1_555
Ba0 O14 2.945850 1_555
Ba0 O23 2.945850 1_555
Ba0 O61 2.976645 1_555
Ba0 O60 2.976655 1_555
Ba0 O62 2.976668 1_555
Ba1 O69 2.938911 1_555
Ba1 O70 2.938917 1_555
Ba1 O71 2.938923 1_555
Ba1 O16 2.945844 1_555
Ba1 O19 2.945844 1_555
Ba1 O15 2.945844 1_555
Ba1 O18 2.945844 1_555
Ba1 O20 2.945850 1_555
Ba1 O17 2.945850 1_555
Ba1 O64 2.976645 1_555
Ba1 O63 2.976655 1_555
Ba1 O65 2.976668 1_555
Ba2 O54 2.804071 1_555
Ba2 O48 2.841145 1_655
Ba2 O35 2.857935 1_555
Ba2 O26 2.857935 1_555
Ba2 O0 2.916952 1_555
Ba2 O9 2.916952 1_555
Ba2 O68 2.934214 1_555
Ba2 O37 2.996935 1_555
Ba2 O46 2.996935 1_555
Ba2 O61 3.051508 1_655
Ba2 O50 3.058597 1_555
Ba2 O56 3.194797 1_555
Ba3 O55 2.804071 1_555
Ba3 O49 2.841145 1_555
Ba3 O24 2.857935 1_555
Ba3 O33 2.857935 1_555
Ba3 O10 2.916952 1_555
Ba3 O1 2.916952 1_555
Ba3 O66 2.934214 1_545
Ba3 O38 2.996940 1_555
Ba3 O47 2.996940 1_555
Ba3 O62 3.051496 1_555
Ba3 O48 3.058597 1_545
Ba3 O54 3.194797 1_555
Ba4 O56 2.804071 1_555
Ba4 O50 2.841145 1_545
Ba4 O34 2.857935 1_555
Ba4 O25 2.857935 1_555
Ba4 O2 2.916952 1_555
Ba4 O11 2.916952 1_555
Ba4 O67 2.934214 1_655
Ba4 O45 2.996935 1_555
Ba4 O36 2.996935 1_555
Ba4 O60 3.051501 1_545
Ba4 O49 3.058597 1_655
Ba4 O55 3.194797 1_555
Ba5 O57 2.804071 1_555
Ba5 O51 2.841145 1_455
Ba5 O32 2.857935 1_555
Ba5 O29 2.857935 1_555
Ba5 O6 2.916952 1_555
Ba5 O3 2.916952 1_555
Ba5 O71 2.934214 1_555
Ba5 O43 2.996935 1_555
Ba5 O40 2.996935 1_555
Ba5 O64 3.051508 1_455
Ba5 O53 3.058597 1_555
Ba5 O59 3.194797 1_555
Ba6 O58 2.804071 1_555
Ba6 O52 2.841145 1_555
Ba6 O27 2.857935 1_555
Ba6 O30 2.857935 1_555
Ba6 O7 2.916952 1_555
Ba6 O4 2.916952 1_555
Ba6 O69 2.934214 1_565
Ba6 O41 2.996940 1_555
Ba6 O44 2.996940 1_555
Ba6 O65 3.051496 1_555
Ba6 O51 3.058597 1_565
Ba6 O57 3.194797 1_555
Ba7 O59 2.804071 1_555
Ba7 O53 2.841145 1_565
Ba7 O28 2.857935 1_555
Ba7 O31 2.857935 1_555
Ba7 O5 2.916952 1_555
Ba7 O8 2.916952 1_555
Ba7 O70 2.934214 1_455
Ba7 O39 2.996935 1_555
Ba7 O42 2.996935 1_555
Ba7 O63 3.051501 1_565
Ba7 O52 3.058597 1_455
Ba7 O58 3.194797 1_555
O0 Ru11 2.021551 1_555
O0 Ru0 2.033981 1_665
O0 Ru4 2.058185 1_555
O1 Ru12 2.021542 1_545
O1 Ru0 2.033981 1_555
O1 Ru5 2.058176 1_555
O2 Ru10 2.021550 1_655
O2 Ru0 2.033981 1_655
O2 Ru6 2.058176 1_555
O3 Ru14 2.021551 1_554
O3 Ru1 2.033981 1_555
O3 Ru7 2.058185 1_555
O4 Ru15 2.021542 1_564
O4 Ru1 2.033981 1_665
O4 Ru8 2.058176 1_555
O5 Ru13 2.021550 1_454
O5 Ru1 2.033981 1_565
O5 Ru9 2.058176 1_555
O6 Ru5 2.021551 1_555
O6 Ru2 2.033981 1_555
O6 Ru10 2.058185 1_555
O7 Ru6 2.021542 1_565
O7 Ru2 2.033981 1_665
O7 Ru11 2.058176 1_555
O8 Ru4 2.021550 1_455
O8 Ru2 2.033981 1_565
O8 Ru12 2.058176 1_555
O9 Ru8 2.021551 1_556
O9 Ru3 2.033981 1_665
O9 Ru13 2.058185 1_555
O10 Ru9 2.021542 1_546
O10 Ru3 2.033981 1_555
O10 Ru14 2.058176 1_555
O11 Ru7 2.021550 1_656
O11 Ru3 2.033981 1_655
O11 Ru15 2.058176 1_555
O12 Ru17 2.026237 1_555
O12 Ru35 2.030084 1_555
O12 Ru36 2.058678 1_555
O13 Ru18 2.026237 1_555
O13 Ru36 2.030093 1_555
O13 Ru34 2.058668 1_555
O14 Ru16 2.026236 1_555
O14 Ru34 2.030093 1_555
O14 Ru35 2.058677 1_555
O15 Ru20 2.026237 1_555
O15 Ru38 2.030084 1_555
O15 Ru39 2.058678 1_555
O16 Ru21 2.026237 1_555
O16 Ru39 2.030093 1_555
O16 Ru37 2.058668 1_555
O17 Ru19 2.026236 1_555
O17 Ru37 2.030093 1_555
O17 Ru38 2.058677 1_555
O18 Ru23 2.026237 1_555
O18 Ru29 2.030084 1_555
O18 Ru30 2.058678 1_555
O19 Ru24 2.026237 1_555
O19 Ru30 2.030093 1_555
O19 Ru28 2.058668 1_555
O20 Ru22 2.026236 1_555
O20 Ru28 2.030093 1_555
O20 Ru29 2.058677 1_555
O21 Ru26 2.026237 1_555
O21 Ru32 2.030084 1_555
O21 Ru33 2.058678 1_555
O22 Ru27 2.026237 1_555
O22 Ru33 2.030093 1_555
O22 Ru31 2.058668 1_555
O23 Ru25 2.026236 1_555
O23 Ru31 2.030093 1_555
O23 Ru32 2.058677 1_555
O24 Ru16 1.988540 1_555
O24 Ru29 2.018250 1_555
O24 Ru5 2.024640 1_555
O25 Ru17 1.988540 1_545
O25 Ru30 2.018242 1_555
O25 Ru6 2.024648 1_555
O26 Ru18 1.988540 1_655
O26 Ru28 2.018241 1_555
O26 Ru4 2.024639 1_555
O27 Ru19 1.988540 1_555
O27 Ru32 2.018250 1_554
O27 Ru8 2.024640 1_555
O28 Ru20 1.988540 1_565
O28 Ru33 2.018242 1_554
O28 Ru9 2.024648 1_555
O29 Ru21 1.988540 1_455
O29 Ru31 2.018241 1_554
O29 Ru7 2.024639 1_555
O30 Ru22 1.988540 1_555
O30 Ru35 2.018250 1_555
O30 Ru11 2.024640 1_555
O31 Ru23 1.988540 1_565
O31 Ru36 2.018242 1_555
O31 Ru12 2.024648 1_555
O32 Ru24 1.988540 1_455
O32 Ru34 2.018241 1_555
O32 Ru10 2.024639 1_555
O33 Ru25 1.988540 1_555
O33 Ru38 2.018250 1_556
O33 Ru14 2.024640 1_555
O34 Ru26 1.988540 1_545
O34 Ru39 2.018242 1_556
O34 Ru15 2.024648 1_555
O35 Ru27 1.988540 1_655
O35 Ru37 2.018241 1_556
O35 Ru13 2.024639 1_555
O36 Ru18 1.984606 1_655
O36 Ru10 2.025684 1_655
O36 Ru30 2.034335 1_555
O37 Ru16 1.984605 1_555
O37 Ru11 2.025703 1_555
O37 Ru28 2.034335 1_555
O38 Ru17 1.984597 1_545
O38 Ru12 2.025700 1_545
O38 Ru29 2.034335 1_555
O39 Ru21 1.984606 1_455
O39 Ru13 2.025684 1_454
O39 Ru33 2.034335 1_554
O40 Ru19 1.984605 1_555
O40 Ru14 2.025703 1_554
O40 Ru31 2.034335 1_554
O41 Ru20 1.984597 1_565
O41 Ru15 2.025700 1_564
O41 Ru32 2.034335 1_554
O42 Ru24 1.984606 1_455
O42 Ru4 2.025684 1_455
O42 Ru36 2.034335 1_555
O43 Ru22 1.984605 1_555
O43 Ru5 2.025703 1_555
O43 Ru34 2.034335 1_555
O44 Ru23 1.984597 1_565
O44 Ru6 2.025700 1_565
O44 Ru35 2.034335 1_555
O45 Ru27 1.984606 1_655
O45 Ru7 2.025684 1_656
O45 Ru39 2.034335 1_556
O46 Ru25 1.984605 1_555
O46 Ru8 2.025703 1_556
O46 Ru37 2.034335 1_556
O47 Ru26 1.984597 1_545
O47 Ru9 2.025700 1_546
O47 Ru38 2.034335 1_556
O48 Zn2 1.920797 1_555
O48 Ru3 2.052318 1_565
O48 Ru0 2.052318 1_565
O49 Zn3 1.920797 1_555
O49 Ru3 2.052318 1_555
O49 Ru0 2.052318 1_555
O50 Zn4 1.920797 1_555
O50 Ru3 2.052318 1_665
O50 Ru0 2.052318 1_665
O51 Zn5 1.920797 1_555
O51 Ru2 2.052318 1_655
O51 Ru1 2.052318 1_655
O52 Zn6 1.920797 1_555
O52 Ru2 2.052318 1_665
O52 Ru1 2.052318 1_665
O53 Zn7 1.920797 1_555
O53 Ru1 2.052318 1_555
O53 Ru2 2.052318 1_555
O54 Zn0 1.923435 1_555
O54 Ru16 2.053451 1_555
O54 Ru25 2.053451 1_555
O55 Zn0 1.923425 1_555
O55 Ru26 2.053452 1_545
O55 Ru17 2.053452 1_545
O56 Zn0 1.923424 1_555
O56 Ru27 2.053452 1_655
O56 Ru18 2.053452 1_655
O57 Zn1 1.923435 1_555
O57 Ru22 2.053451 1_555
O57 Ru19 2.053451 1_555
O58 Zn1 1.923425 1_555
O58 Ru23 2.053452 1_565
O58 Ru20 2.053452 1_565
O59 Zn1 1.923424 1_555
O59 Ru24 2.053452 1_455
O59 Ru21 2.053452 1_455
O60 Zn4 1.917197 1_555
O60 Ru26 2.031294 1_555
O60 Ru17 2.031294 1_555
O61 Zn2 1.917208 1_555
O61 Ru18 2.031287 1_555
O61 Ru27 2.031287 1_555
O62 Zn3 1.917207 1_555
O62 Ru16 2.031287 1_555
O62 Ru25 2.031287 1_555
O63 Zn7 1.917197 1_555
O63 Ru23 2.031294 1_555
O63 Ru20 2.031294 1_555
O64 Zn5 1.917208 1_555
O64 Ru21 2.031287 1_555
O64 Ru24 2.031287 1_555
O65 Zn6 1.917207 1_555
O65 Ru22 2.031287 1_555
O65 Ru19 2.031287 1_555
O66 Zn2 1.913693 1_555
O66 Ru26 2.069306 1_555
O66 Ru17 2.069306 1_555
O67 Zn3 1.913693 1_555
O67 Ru18 2.069306 1_555
O67 Ru27 2.069306 1_555
O68 Zn4 1.913693 1_555
O68 Ru25 2.069306 1_555
O68 Ru16 2.069306 1_555
O69 Zn5 1.913693 1_555
O69 Ru23 2.069306 1_555
O69 Ru20 2.069306 1_555
O70 Zn6 1.913693 1_555
O70 Ru24 2.069306 1_555
O70 Ru21 2.069306 1_555
O71 Zn7 1.913693 1_555
O71 Ru22 2.069306 1_555
O71 Ru19 2.069306 1_555
O72 Ru39 2.076383 1_556
O72 Ru37 2.076383 1_556
O72 Ru38 2.076383 1_556
O72 Zn0 2.486935 1_555
O73 Ru36 2.076383 1_555
O73 Ru34 2.076383 1_555
O73 Ru35 2.076383 1_555
O73 Zn1 2.486935 1_555
O74 Ru33 2.076383 1_554
O74 Ru31 2.076383 1_554
O74 Ru32 2.076383 1_554
O74 Zn1 2.486935 1_555
O75 Ru30 2.076383 1_555
O75 Ru28 2.076383 1_555
O75 Ru29 2.076383 1_555
O75 Zn0 2.486935 1_555
O76 Ru9 2.030640 1_556
O76 Ru33 2.039630 1_555
O76 Ru13 2.069494 1_455
O76 Zn2 2.340667 1_555
O77 Ru7 2.030641 1_556
O77 Ru31 2.039639 1_555
O77 Ru14 2.069503 1_555
O77 Zn3 2.340667 1_555
O78 Ru8 2.030632 1_556
O78 Ru32 2.039638 1_555
O78 Ru15 2.069495 1_565
O78 Zn4 2.340667 1_555
O79 Ru6 2.030640 1_555
O79 Ru30 2.039630 1_555
O79 Ru10 2.069494 1_655
O79 Zn5 2.340667 1_555
O80 Ru4 2.030641 1_555
O80 Ru28 2.039639 1_555
O80 Ru11 2.069503 1_555
O80 Zn6 2.340667 1_555
O81 Ru5 2.030632 1_555
O81 Ru29 2.039638 1_555
O81 Ru12 2.069495 1_545
O81 Zn7 2.340667 1_555
O82 Ru15 2.030640 1_554
O82 Ru39 2.039630 1_555
O82 Ru7 2.069494 1_655
O82 Zn5 2.340667 1_555
O83 Ru13 2.030641 1_554
O83 Ru37 2.039639 1_555
O83 Ru8 2.069503 1_555
O83 Zn6 2.340667 1_555
O84 Ru14 2.030632 1_554
O84 Ru38 2.039638 1_555
O84 Ru9 2.069495 1_545
O84 Zn7 2.340667 1_555
O85 Ru12 2.030640 1_555
O85 Ru36 2.039630 1_555
O85 Ru4 2.069494 1_455
O85 Zn2 2.340667 1_555
O86 Ru10 2.030641 1_555
O86 Ru34 2.039639 1_555
O86 Ru5 2.069503 1_555
O86 Zn3 2.340667 1_555
O87 Ru11 2.030632 1_555
O87 Ru35 2.039638 1_555
O87 Ru6 2.069495 1_565
O87 Zn4 2.340667 1_555
