# generated using pymatgen
data_Sr4La2Mg(RuO6)2
_symmetry_space_group_name_H-M   'P 1'
_cell_length_a   19.37335353
_cell_length_b   19.37335353
_cell_length_c   19.37335353
_cell_angle_alpha   168.42994256
_cell_angle_beta   168.42994256
_cell_angle_gamma   16.39057687
_symmetry_Int_Tables_number   1
_chemical_formula_structural   Sr4La2Mg(RuO6)2
_chemical_formula_sum   'Sr4 La2 Mg1 Ru2 O12'
_cell_volume   292.48664134
_cell_formula_units_Z   1
loop_
 _symmetry_equiv_pos_site_id
 _symmetry_equiv_pos_as_xyz
  1  'x, y, z'
loop_
 _atom_site_type_symbol
 _atom_site_label
 _atom_site_symmetry_multiplicity
 _atom_site_fract_x
 _atom_site_fract_y
 _atom_site_fract_z
 _atom_site_occupancy
  Sr  Sr0  1  0.21559900  0.21559900  0.00000000  1
  Sr  Sr1  1  0.88192700  0.88192700  0.00000000  1
  Sr  Sr2  1  0.11807300  0.11807300  0.00000000  1
  Sr  Sr3  1  0.78440100  0.78440100  0.00000000  1
  La  La0  1  0.54553300  0.54553300  0.00000000  1
  La  La1  1  0.45446700  0.45446700  0.00000000  1
  Mg  Mg0  1  0.00000000  0.00000000  0.00000000  1
  Ru  Ru0  1  0.66629100  0.66629100  0.00000000  1
  Ru  Ru1  1  0.33370900  0.33370900  0.00000000  1
  O  O0  1  0.00000000  0.50000000  0.50000000  1
  O  O1  1  0.66686300  0.16686300  0.50000000  1
  O  O2  1  0.33313700  0.83313700  0.50000000  1
  O  O3  1  0.50000000  0.00000000  0.50000000  1
  O  O4  1  0.16686300  0.66686300  0.50000000  1
  O  O5  1  0.83313700  0.33313700  0.50000000  1
  O  O6  1  0.61087000  0.61087000  0.00000000  1
  O  O7  1  0.27913600  0.27913600  0.00000000  1
  O  O8  1  0.94322900  0.94322900  0.00000000  1
  O  O9  1  0.05677100  0.05677100  0.00000000  1
  O  O10  1  0.72086400  0.72086400  0.00000000  1
  O  O11  1  0.38913000  0.38913000  0.00000000  1
loop_
_geom_bond_atom_site_label_1
_geom_bond_atom_site_label_2
_geom_bond_distance
_geom_bond_site_symmetry_2
La0 O6 2.505741 1_555
La0 O0 2.619662 1_554
La0 O0 2.619662 1_655
La0 O3 2.619662 1_554
La0 O3 2.619662 1_565
La0 O9 2.795052 1_666
La0 O9 2.795052 1_655
La0 O9 2.795052 1_565
La0 O9 2.795052 1_554
La1 O11 2.505741 1_555
La1 O3 2.619662 1_554
La1 O0 2.619662 1_655
La1 O0 2.619662 1_554
La1 O3 2.619662 1_565
La1 O8 2.795052 1_444
La1 O8 2.795052 1_455
La1 O8 2.795052 1_556
La1 O8 2.795052 1_545
Mg0 O0 1.952763 1_555
Mg0 O3 1.952763 1_555
Mg0 O0 1.952763 1_544
Mg0 O3 1.952763 1_454
Mg0 O9 2.177226 1_555
Mg0 O8 2.177226 1_445
O1 Ru0 1.952886 1_556
O1 Ru0 1.952886 1_545
O1 Sr0 2.703096 1_555
O1 Sr0 2.703096 1_656
O1 Sr2 2.704528 1_656
O1 Sr2 2.704528 1_555
O2 Ru1 1.952886 1_555
O2 Ru1 1.952886 1_566
O2 Sr3 2.703096 1_556
O2 Sr3 2.703096 1_455
O2 Sr1 2.704528 1_556
O2 Sr1 2.704528 1_455
O4 Ru0 1.952886 1_455
O4 Ru0 1.952886 1_556
O4 Sr0 2.703096 1_555
O4 Sr0 2.703096 1_566
O4 Sr2 2.704528 1_566
O4 Sr2 2.704528 1_555
O5 Ru1 1.952886 1_555
O5 Ru1 1.952886 1_656
O5 Sr3 2.703096 1_556
O5 Sr3 2.703096 1_545
O5 Sr1 2.704528 1_556
O5 Sr1 2.704528 1_545
O6 Ru0 2.125452 1_555
O6 Sr2 2.775406 1_554
O6 Sr2 2.775406 1_666
O6 Sr2 2.775406 1_565
O6 Sr2 2.775406 1_655
O7 Ru1 2.092930 1_555
O7 Sr0 2.436709 1_555
O7 Sr3 2.768996 1_444
O7 Sr3 2.768996 1_455
O7 Sr3 2.768996 1_556
O7 Sr3 2.768996 1_545
O8 Sr1 2.350994 1_555
O9 Sr2 2.350994 1_555
O10 Ru0 2.092930 1_555
O10 Sr3 2.436709 1_555
O10 Sr0 2.768996 1_666
O10 Sr0 2.768996 1_565
O10 Sr0 2.768996 1_655
O10 Sr0 2.768996 1_554
O11 Ru1 2.125452 1_555
O11 Sr1 2.775406 1_556
O11 Sr1 2.775406 1_444
O11 Sr1 2.775406 1_545
O11 Sr1 2.775406 1_455
