# generated using pymatgen
data_CeH14Cl3O7
_symmetry_space_group_name_H-M   'P 1'
_cell_length_a   8.01654439
_cell_length_b   8.23852586
_cell_length_c   9.54150141
_cell_angle_alpha   110.07549504
_cell_angle_beta   105.80587892
_cell_angle_gamma   82.37297497
_symmetry_Int_Tables_number   1
_chemical_formula_structural   CeH14Cl3O7
_chemical_formula_sum   'Ce2 H28 Cl6 O14'
_cell_volume   568.96019584
_cell_formula_units_Z   2
loop_
 _symmetry_equiv_pos_site_id
 _symmetry_equiv_pos_as_xyz
  1  'x, y, z'
loop_
 _atom_site_type_symbol
 _atom_site_label
 _atom_site_symmetry_multiplicity
 _atom_site_fract_x
 _atom_site_fract_y
 _atom_site_fract_z
 _atom_site_occupancy
  Ce  Ce0  1  0.78289700  0.30934500  0.81695000  1
  Ce  Ce1  1  0.21247200  0.68226800  0.16628600  1
  H  H0  1  0.48065200  0.19551700  0.51690400  1
  H  H1  1  0.64426100  0.13739500  0.44670700  1
  H  H2  1  0.34542900  0.85047600  0.54033000  1
  H  H3  1  0.46415700  0.92569600  0.47132000  1
  H  H4  1  0.52869900  0.64061600  0.74396100  1
  H  H5  1  0.44858200  0.46888300  0.62342600  1
  H  H6  1  0.49233600  0.37492400  0.25116500  1
  H  H7  1  0.55448000  0.56115800  0.36289400  1
  H  H8  1  0.88371500  0.51215800  0.61619300  1
  H  H9  1  0.01013400  0.34330600  0.59128700  1
  H  H10  1  0.99654600  0.63279900  0.39392500  1
  H  H11  1  0.13120300  0.47030000  0.36458700  1
  H  H12  1  0.07588800  0.02527200  0.71176100  1
  H  H13  1  0.89830400  0.95109000  0.60210700  1
  H  H14  1  0.90329200  0.96106200  0.26082900  1
  H  H15  1  0.07779900  0.00960200  0.38837500  1
  H  H16  1  0.38928200  0.37514000  0.84736500  1
  H  H17  1  0.43178900  0.17669500  0.83768600  1
  H  H18  1  0.60960600  0.66268400  0.14432000  1
  H  H19  1  0.54207400  0.85417500  0.14772200  1
  H  H20  1  0.74294700  0.31107100  0.14239100  1
  H  H21  1  0.88652700  0.44629100  0.17847500  1
  H  H22  1  0.12214600  0.53996800  0.80392800  1
  H  H23  1  0.26031000  0.68259100  0.84248300  1
  H  H24  1  0.78425700  0.91472700  0.80915600  1
  H  H25  1  0.72923400  0.02297700  0.96295300  1
  H  H26  1  0.20148100  0.08032100  0.20436000  1
  H  H27  1  0.22572000  0.00281200  0.03481800  1
  Cl  Cl0  1  0.85558500  0.67409600  0.97923400  1
  Cl  Cl1  1  0.14424100  0.31270100  0.99697600  1
  Cl  Cl2  1  0.33012000  0.88473500  0.77279300  1
  Cl  Cl3  1  0.65798300  0.11406300  0.20767400  1
  Cl  Cl4  1  0.21949500  0.27471600  0.45870600  1
  Cl  Cl5  1  0.79423500  0.70229400  0.51859600  1
  O  O0  1  0.60220800  0.14560000  0.53788200  1
  O  O1  1  0.36260600  0.85551700  0.44241800  1
  O  O2  1  0.55587200  0.51591000  0.69923600  1
  O  O3  1  0.45293300  0.49726100  0.28850200  1
  O  O4  1  0.94211100  0.42055600  0.66313500  1
  O  O5  1  0.06825300  0.56256100  0.32135000  1
  O  O6  1  0.95688700  0.06201700  0.66413400  1
  O  O7  1  0.01361700  0.91102200  0.31012400  1
  O  O8  1  0.47862200  0.27966800  0.83440200  1
  O  O9  1  0.50820900  0.74382700  0.14918600  1
  O  O10  1  0.77665700  0.39719600  0.10440000  1
  O  O11  1  0.23130600  0.59138100  0.87786200  1
  O  O12  1  0.76521200  0.03303800  0.87533000  1
  O  O13  1  0.20902900  0.97122400  0.12032500  1
loop_
_geom_bond_atom_site_label_1
_geom_bond_atom_site_label_2
_geom_bond_distance
_geom_bond_site_symmetry_2
Ce0 O8 2.538680 1_555
Ce0 O12 2.551746 1_555
Ce0 O6 2.556795 1_555
Ce0 O10 2.598290 1_556
Ce0 O2 2.616554 1_555
Ce0 O4 2.622293 1_555
Ce0 O0 2.638124 1_555
Ce0 Cl0 2.923383 1_555
Ce0 Cl1 2.936058 1_655
Ce1 O9 2.547775 1_555
Ce1 O13 2.559856 1_555
Ce1 O1 2.564052 1_555
Ce1 O7 2.568115 1_555
Ce1 O3 2.571889 1_555
Ce1 O5 2.595098 1_555
Ce1 O11 2.634130 1_554
Ce1 Cl0 2.926126 1_454
Ce1 Cl1 2.960246 1_554
H0 O0 1.001317 1_555
H1 O0 0.994168 1_555
H2 O1 0.995842 1_555
H3 O1 0.982982 1_555
H4 O2 0.987593 1_555
H5 O2 0.985005 1_555
H6 O3 0.986307 1_555
H7 O3 0.993021 1_555
H8 O4 1.006643 1_555
H9 O4 0.992151 1_455
H10 O5 0.999134 1_655
H11 O5 1.001321 1_555
H12 O6 0.994909 1_455
H13 O6 0.998595 1_565
H14 O7 0.991520 1_655
H15 O7 0.983434 1_545
H16 O8 0.989359 1_555
H17 O8 0.985307 1_555
H18 O9 0.982235 1_555
H19 O9 0.988264 1_555
H20 O10 0.994342 1_555
H21 O10 0.999048 1_555
H22 O11 0.999900 1_555
H23 O11 0.997972 1_555
H24 O12 0.981091 1_565
H25 O12 0.987079 1_555
H26 O13 0.985725 1_545
H27 O13 0.982719 1_545
Cl4 H11 2.061120 1_555
Cl4 H0 2.090448 1_555
Cl5 H8 2.043214 1_555
