# generated using pymatgen
data_Mg30TiCO32
_symmetry_space_group_name_H-M   'P 1'
_cell_length_a   8.48066766
_cell_length_b   8.57761351
_cell_length_c   8.57761351
_cell_angle_alpha   90.00000000
_cell_angle_beta   90.00000000
_cell_angle_gamma   90.00000000
_symmetry_Int_Tables_number   1
_chemical_formula_structural   Mg30TiCO32
_chemical_formula_sum   'Mg30 Ti1 C1 O32'
_cell_volume   623.96896930
_cell_formula_units_Z   1
loop_
 _symmetry_equiv_pos_site_id
 _symmetry_equiv_pos_as_xyz
  1  'x, y, z'
loop_
 _atom_site_type_symbol
 _atom_site_label
 _atom_site_symmetry_multiplicity
 _atom_site_fract_x
 _atom_site_fract_y
 _atom_site_fract_z
 _atom_site_occupancy
  Mg  Mg0  1  -0.00000000  -0.00000000  0.50000000  1
  Mg  Mg1  1  -0.00000000  0.50000000  -0.00000000  1
  Mg  Mg2  1  0.50000000  -0.00000000  -0.00000000  1
  Mg  Mg3  1  0.50000000  -0.00000000  0.50000000  1
  Mg  Mg4  1  0.50000000  0.50000000  -0.00000000  1
  Mg  Mg5  1  0.50000000  0.50000000  0.50000000  1
  Mg  Mg6  1  -0.00000000  0.25855276  0.25855276  1
  Mg  Mg7  1  -0.00000000  0.25855276  0.74144724  1
  Mg  Mg8  1  -0.00000000  0.74144724  0.25855276  1
  Mg  Mg9  1  -0.00000000  0.74144724  0.74144724  1
  Mg  Mg10  1  0.50000000  0.25191228  0.25191228  1
  Mg  Mg11  1  0.50000000  0.25191228  0.74808772  1
  Mg  Mg12  1  0.50000000  0.74808772  0.25191228  1
  Mg  Mg13  1  0.50000000  0.74808772  0.74808772  1
  Mg  Mg14  1  0.25188799  -0.00000000  0.25354880  1
  Mg  Mg15  1  0.25188799  -0.00000000  0.74645120  1
  Mg  Mg16  1  0.24615613  0.50000000  0.25286133  1
  Mg  Mg17  1  0.24615613  0.50000000  0.74713867  1
  Mg  Mg18  1  0.74811201  -0.00000000  0.25354880  1
  Mg  Mg19  1  0.74811201  -0.00000000  0.74645120  1
  Mg  Mg20  1  0.75384387  0.50000000  0.25286133  1
  Mg  Mg21  1  0.75384387  0.50000000  0.74713867  1
  Mg  Mg22  1  0.25188799  0.25354880  -0.00000000  1
  Mg  Mg23  1  0.24615613  0.25286133  0.50000000  1
  Mg  Mg24  1  0.25188799  0.74645120  -0.00000000  1
  Mg  Mg25  1  0.24615613  0.74713867  0.50000000  1
  Mg  Mg26  1  0.74811201  0.25354880  -0.00000000  1
  Mg  Mg27  1  0.75384387  0.25286133  0.50000000  1
  Mg  Mg28  1  0.74811201  0.74645120  -0.00000000  1
  Mg  Mg29  1  0.75384387  0.74713867  0.50000000  1
  Ti  Ti0  1  -0.00000000  -0.00000000  -0.00000000  1
  C  C0  1  -0.00000000  0.50000000  0.50000000  1
  O  O0  1  0.24680259  -0.00000000  -0.00000000  1
  O  O1  1  0.25273242  -0.00000000  0.50000000  1
  O  O2  1  0.25273242  0.50000000  -0.00000000  1
  O  O3  1  0.25659738  0.50000000  0.50000000  1
  O  O4  1  0.75319741  -0.00000000  -0.00000000  1
  O  O5  1  0.74726758  -0.00000000  0.50000000  1
  O  O6  1  0.74726758  0.50000000  -0.00000000  1
  O  O7  1  0.74340262  0.50000000  0.50000000  1
  O  O8  1  0.24892794  0.24973455  0.24973455  1
  O  O9  1  0.24892794  0.24973455  0.75026545  1
  O  O10  1  0.24892794  0.75026545  0.24973455  1
  O  O11  1  0.24892794  0.75026545  0.75026545  1
  O  O12  1  0.75107206  0.24973455  0.24973455  1
  O  O13  1  0.75107206  0.24973455  0.75026545  1
  O  O14  1  0.75107206  0.75026545  0.24973455  1
  O  O15  1  0.75107206  0.75026545  0.75026545  1
  O  O16  1  -0.00000000  -0.00000000  0.23880274  1
  O  O17  1  -0.00000000  -0.00000000  0.76119726  1
  O  O18  1  -0.00000000  0.50000000  0.22610328  1
  O  O19  1  -0.00000000  0.50000000  0.77389672  1
  O  O20  1  0.50000000  -0.00000000  0.24800935  1
  O  O21  1  0.50000000  -0.00000000  0.75199065  1
  O  O22  1  0.50000000  0.50000000  0.24945109  1
  O  O23  1  0.50000000  0.50000000  0.75054891  1
  O  O24  1  -0.00000000  0.23880274  -0.00000000  1
  O  O25  1  -0.00000000  0.22610328  0.50000000  1
  O  O26  1  -0.00000000  0.76119726  -0.00000000  1
  O  O27  1  -0.00000000  0.77389672  0.50000000  1
  O  O28  1  0.50000000  0.24800935  -0.00000000  1
  O  O29  1  0.50000000  0.24945109  0.50000000  1
  O  O30  1  0.50000000  0.75199065  -0.00000000  1
  O  O31  1  0.50000000  0.75054891  0.50000000  1
loop_
_geom_bond_atom_site_label_1
_geom_bond_atom_site_label_2
_geom_bond_distance
_geom_bond_site_symmetry_2
Mg0 O25 1.939427 1_555
Mg0 O27 1.939427 1_545
Mg0 O5 2.143340 1_455
Mg0 O1 2.143340 1_555
Mg0 O17 2.240449 1_555
Mg0 O16 2.240449 1_555
Mg1 O18 1.939427 1_555
Mg1 O19 1.939427 1_554
Mg1 O6 2.143340 1_455
Mg1 O2 2.143340 1_555
Mg1 O24 2.240449 1_555
Mg1 O26 2.240449 1_555
Mg2 O20 2.127328 1_555
Mg2 O28 2.127328 1_555
Mg2 O30 2.127328 1_545
Mg2 O21 2.127328 1_554
Mg2 O4 2.147283 1_555
Mg2 O0 2.147283 1_555
Mg3 O1 2.096994 1_555
Mg3 O5 2.096994 1_555
Mg3 O31 2.139695 1_545
Mg3 O29 2.139695 1_555
Mg3 O20 2.161478 1_555
Mg3 O21 2.161478 1_555
Mg4 O2 2.096994 1_555
Mg4 O6 2.096994 1_555
Mg4 O22 2.139695 1_555
Mg4 O23 2.139695 1_554
Mg4 O28 2.161478 1_555
Mg4 O30 2.161478 1_555
Mg5 O3 2.064217 1_555
Mg5 O7 2.064217 1_555
Mg5 O22 2.149112 1_555
Mg5 O23 2.149112 1_555
Mg5 O29 2.149112 1_555
Mg5 O31 2.149112 1_555
Mg6 O25 2.089661 1_555
Mg6 O18 2.089661 1_555
Mg6 O12 2.113784 1_455
Mg6 O8 2.113784 1_555
Mg6 O24 2.224227 1_555
Mg6 O16 2.224227 1_555
Mg7 O25 2.089661 1_555
Mg7 O19 2.089661 1_555
Mg7 O9 2.113784 1_555
Mg7 O13 2.113784 1_455
Mg7 O17 2.224227 1_555
Mg7 O24 2.224227 1_556
Mg8 O18 2.089661 1_555
Mg8 O27 2.089661 1_555
Mg8 O14 2.113784 1_455
Mg8 O10 2.113784 1_555
Mg8 O26 2.224227 1_555
Mg8 O16 2.224227 1_565
Mg9 O19 2.089661 1_555
Mg9 O27 2.089661 1_555
Mg9 O15 2.113784 1_455
Mg9 O11 2.113784 1_555
Mg9 O26 2.224227 1_556
Mg9 O17 2.224227 1_565
Mg10 O22 2.128105 1_555
Mg10 O29 2.128105 1_555
Mg10 O12 2.129423 1_555
Mg10 O8 2.129423 1_555
Mg10 O20 2.161066 1_555
Mg10 O28 2.161066 1_555
Mg11 O23 2.128105 1_555
Mg11 O29 2.128105 1_555
Mg11 O9 2.129423 1_555
Mg11 O13 2.129423 1_555
Mg11 O21 2.161066 1_555
Mg11 O28 2.161066 1_556
Mg12 O22 2.128105 1_555
Mg12 O31 2.128105 1_555
Mg12 O10 2.129423 1_555
Mg12 O14 2.129423 1_555
Mg12 O30 2.161066 1_555
Mg12 O20 2.161066 1_565
Mg13 O23 2.128105 1_555
Mg13 O31 2.128105 1_555
Mg13 O15 2.129423 1_555
Mg13 O11 2.129423 1_555
Mg13 O30 2.161066 1_556
Mg13 O21 2.161066 1_565
Mg14 O20 2.104692 1_555
Mg14 O1 2.113975 1_555
Mg14 O16 2.139920 1_555
Mg14 O8 2.142523 1_555
Mg14 O10 2.142523 1_545
Mg14 O0 2.175271 1_555
Mg15 O21 2.104692 1_555
Mg15 O1 2.113975 1_555
Mg15 O17 2.139920 1_555
Mg15 O9 2.142523 1_555
Mg15 O11 2.142523 1_545
Mg15 O0 2.175271 1_556
Mg16 O18 2.100148 1_555
Mg16 O3 2.121709 1_555
Mg16 O10 2.146977 1_555
Mg16 O8 2.146977 1_555
Mg16 O22 2.152964 1_555
Mg16 O2 2.169664 1_555
Mg17 O19 2.100148 1_555
Mg17 O3 2.121709 1_555
Mg17 O11 2.146977 1_555
Mg17 O9 2.146977 1_555
Mg17 O23 2.152964 1_555
Mg17 O2 2.169664 1_556
Mg18 O20 2.104692 1_555
Mg18 O5 2.113975 1_555
Mg18 O16 2.139920 1_655
Mg18 O14 2.142523 1_545
Mg18 O12 2.142523 1_555
Mg18 O4 2.175271 1_555
Mg19 O21 2.104692 1_555
Mg19 O5 2.113975 1_555
Mg19 O17 2.139920 1_655
Mg19 O15 2.142523 1_545
Mg19 O13 2.142523 1_555
Mg19 O4 2.175271 1_556
Mg20 O18 2.100148 1_655
Mg20 O7 2.121709 1_555
Mg20 O12 2.146977 1_555
Mg20 O14 2.146977 1_555
Mg20 O22 2.152964 1_555
Mg20 O6 2.169664 1_555
Mg21 O19 2.100148 1_655
Mg21 O7 2.121709 1_555
Mg21 O13 2.146977 1_555
Mg21 O15 2.146977 1_555
Mg21 O23 2.152964 1_555
Mg21 O6 2.169664 1_556
Mg22 O28 2.104692 1_555
Mg22 O2 2.113975 1_555
Mg22 O24 2.139920 1_555
Mg22 O9 2.142523 1_554
Mg22 O8 2.142523 1_555
Mg22 O0 2.175271 1_555
Mg23 O25 2.100148 1_555
Mg23 O3 2.121709 1_555
Mg23 O8 2.146977 1_555
Mg23 O9 2.146977 1_555
Mg23 O29 2.152964 1_555
Mg23 O1 2.169664 1_555
Mg24 O30 2.104692 1_555
Mg24 O2 2.113975 1_555
Mg24 O26 2.139920 1_555
Mg24 O10 2.142523 1_555
Mg24 O11 2.142523 1_554
Mg24 O0 2.175271 1_565
Mg25 O27 2.100148 1_555
Mg25 O3 2.121709 1_555
Mg25 O10 2.146977 1_555
Mg25 O11 2.146977 1_555
Mg25 O31 2.152964 1_555
Mg25 O1 2.169664 1_565
Mg26 O28 2.104692 1_555
Mg26 O6 2.113975 1_555
Mg26 O24 2.139920 1_655
Mg26 O13 2.142523 1_554
Mg26 O12 2.142523 1_555
Mg26 O4 2.175271 1_555
Mg27 O25 2.100148 1_655
Mg27 O7 2.121709 1_555
Mg27 O13 2.146977 1_555
Mg27 O12 2.146977 1_555
Mg27 O29 2.152964 1_555
Mg27 O5 2.169664 1_555
Mg28 O30 2.104692 1_555
Mg28 O6 2.113975 1_555
Mg28 O26 2.139920 1_655
Mg28 O15 2.142523 1_554
Mg28 O14 2.142523 1_555
Mg28 O4 2.175271 1_565
Mg29 O27 2.100148 1_655
Mg29 O7 2.121709 1_555
Mg29 O14 2.146977 1_555
Mg29 O15 2.146977 1_555
Mg29 O31 2.152964 1_555
Mg29 O5 2.169664 1_565
O0 Ti0 2.093051 1_555
O4 Ti0 2.093051 1_655
O16 Ti0 2.048358 1_555
O17 Ti0 2.048358 1_556
O24 Ti0 2.048358 1_555
O26 Ti0 2.048358 1_565
