# generated using pymatgen
data_YBr3O10
_symmetry_space_group_name_H-M   'P 1'
_cell_length_a   6.88990096
_cell_length_b   10.26863289
_cell_length_c   8.43800518
_cell_angle_alpha   74.13926983
_cell_angle_beta   89.63695283
_cell_angle_gamma   107.19547162
_symmetry_Int_Tables_number   1
_chemical_formula_structural   YBr3O10
_chemical_formula_sum   'Y2 Br6 O20'
_cell_volume   546.11960507
_cell_formula_units_Z   2
loop_
 _symmetry_equiv_pos_site_id
 _symmetry_equiv_pos_as_xyz
  1  'x, y, z'
loop_
 _atom_site_type_symbol
 _atom_site_label
 _atom_site_symmetry_multiplicity
 _atom_site_fract_x
 _atom_site_fract_y
 _atom_site_fract_z
 _atom_site_occupancy
  Y  Y0  1  0.19015800  0.23178400  0.24335800  1
  Y  Y1  1  0.80984200  0.76821600  0.75664200  1
  Br  Br0  1  0.13909900  0.71154300  0.44808400  1
  Br  Br1  1  0.86090100  0.28845700  0.55191600  1
  Br  Br2  1  0.73841700  0.41904100  0.11349800  1
  Br  Br3  1  0.26158300  0.58095900  0.88650200  1
  Br  Br4  1  0.25627100  0.03947500  0.66857700  1
  Br  Br5  1  0.74372900  0.96052500  0.33142300  1
  O  O0  1  0.96349800  0.15522500  0.05201200  1
  O  O1  1  0.03650200  0.84477500  0.94798800  1
  O  O2  1  0.34892300  0.14540700  0.46842000  1
  O  O3  1  0.65107700  0.85459300  0.53158000  1
  O  O4  1  0.52329800  0.27281300  0.14326800  1
  O  O5  1  0.47670200  0.72718700  0.85673200  1
  O  O6  1  0.96661300  0.31196900  0.34388700  1
  O  O7  1  0.03338700  0.68803100  0.65611300  1
  O  O8  1  0.00738200  0.99369200  0.32687400  1
  O  O9  1  0.99261800  0.00630700  0.67312600  1
  O  O10  1  0.26934800  0.45702600  0.07156800  1
  O  O11  1  0.73065200  0.54297400  0.92843200  1
  O  O12  1  0.32618400  0.38582100  0.56430500  1
  O  O13  1  0.67381600  0.61417900  0.43569500  1
  O  O14  1  0.24157100  0.81094500  0.15211900  1
  O  O15  1  0.75842900  0.18905500  0.84788100  1
  O  O16  1  0.90876600  0.25132400  0.92282400  1
  O  O17  1  0.09123400  0.74867600  0.07717600  1
  O  O18  1  0.61061200  0.65110100  0.29923800  1
  O  O19  1  0.38938800  0.34889900  0.70076200  1
loop_
_geom_bond_atom_site_label_1
_geom_bond_atom_site_label_2
_geom_bond_distance
_geom_bond_site_symmetry_2
Br0 O7 1.821594 1_555
Br0 O14 2.436255 1_555
Br1 O6 1.821594 1_555
Br1 O15 2.436255 1_555
Br2 O4 1.728519 1_555
Br2 O11 1.736674 1_554
Br3 O5 1.728519 1_555
Br3 O10 1.736674 1_556
Br4 O2 1.736318 1_555
Br4 O9 1.744552 1_455
Br5 O3 1.736318 1_555
Br5 O8 1.744553 1_655
O0 O16 1.393389 1_554
O0 Y0 2.379823 1_655
O1 O17 1.393389 1_556
O1 Y1 2.379823 1_455
O2 Y0 2.295442 1_555
O3 Y1 2.295442 1_555
O4 Y0 2.316972 1_555
O5 Y1 2.316972 1_555
O6 Y0 2.210159 1_655
O7 Y1 2.210159 1_455
O8 Y0 2.299236 1_565
O9 Y1 2.299228 1_545
O10 Y0 2.271515 1_555
O11 Y1 2.271515 1_555
O12 O19 1.234712 1_555
O13 O18 1.234712 1_555
O14 O17 1.311242 1_555
O15 O16 1.311242 1_555
