# generated using pymatgen
data_RbZr6BCl15
_symmetry_space_group_name_H-M   'P 1'
_cell_length_a   9.97208000
_cell_length_b   14.27661300
_cell_length_c   18.97663800
_cell_angle_alpha   90.00000000
_cell_angle_beta   90.00000000
_cell_angle_gamma   90.00000000
_symmetry_Int_Tables_number   1
_chemical_formula_structural   RbZr6BCl15
_chemical_formula_sum   'Rb4 Zr24 B4 Cl60'
_cell_volume   2701.65702217
_cell_formula_units_Z   4
loop_
 _symmetry_equiv_pos_site_id
 _symmetry_equiv_pos_as_xyz
  1  'x, y, z'
loop_
 _atom_site_type_symbol
 _atom_site_label
 _atom_site_symmetry_multiplicity
 _atom_site_fract_x
 _atom_site_fract_y
 _atom_site_fract_z
 _atom_site_occupancy
  Rb  Rb0  1  0.83090100  0.24696900  0.75000000  1
  Rb  Rb1  1  0.16909900  0.75303100  0.25000000  1
  Rb  Rb2  1  0.83090100  0.75303100  0.75000000  1
  Rb  Rb3  1  0.16909900  0.24696900  0.25000000  1
  Zr  Zr0  1  0.11098000  0.50000000  0.75000000  1
  Zr  Zr1  1  0.88902000  0.50000000  0.25000000  1
  Zr  Zr2  1  0.08317500  0.00000000  0.11440000  1
  Zr  Zr3  1  0.91682500  0.00000000  0.88560000  1
  Zr  Zr4  1  0.08317500  0.00000000  0.38560000  1
  Zr  Zr5  1  0.91682500  0.00000000  0.61440000  1
  Zr  Zr6  1  0.34221100  0.38251700  0.66187400  1
  Zr  Zr7  1  0.65778900  0.61748300  0.33812600  1
  Zr  Zr8  1  0.34221100  0.61748300  0.83812600  1
  Zr  Zr9  1  0.65778900  0.38251700  0.33812600  1
  Zr  Zr10  1  0.65778900  0.38251700  0.16187400  1
  Zr  Zr11  1  0.34221100  0.61748300  0.66187400  1
  Zr  Zr12  1  0.65778900  0.61748300  0.16187400  1
  Zr  Zr13  1  0.34221100  0.38251700  0.83812600  1
  Zr  Zr14  1  0.57558300  0.50000000  0.75000000  1
  Zr  Zr15  1  0.42441700  0.50000000  0.25000000  1
  Zr  Zr16  1  0.15873800  0.11709800  0.52942100  1
  Zr  Zr17  1  0.84126200  0.88290200  0.47057900  1
  Zr  Zr18  1  0.15873800  0.88290200  0.97057900  1
  Zr  Zr19  1  0.84126200  0.11709800  0.47057900  1
  Zr  Zr20  1  0.84126200  0.11709800  0.02942100  1
  Zr  Zr21  1  0.15873800  0.88290200  0.52942100  1
  Zr  Zr22  1  0.84126200  0.88290200  0.02942100  1
  Zr  Zr23  1  0.15873800  0.11709800  0.97057900  1
  B  B0  1  0.00000000  0.00000000  0.50000000  1
  B  B1  1  0.00000000  0.00000000  0.00000000  1
  B  B2  1  0.34351600  0.50000000  0.75000000  1
  B  B3  1  0.65648400  0.50000000  0.25000000  1
  Cl  Cl0  1  0.81653700  0.00000000  0.75000000  1
  Cl  Cl1  1  0.18346300  0.00000000  0.25000000  1
  Cl  Cl2  1  0.84279900  0.50000000  0.75000000  1
  Cl  Cl3  1  0.15720100  0.50000000  0.25000000  1
  Cl  Cl4  1  0.34230300  0.50000000  0.56041300  1
  Cl  Cl5  1  0.65769700  0.50000000  0.43958700  1
  Cl  Cl6  1  0.34230300  0.50000000  0.93958700  1
  Cl  Cl7  1  0.65769700  0.50000000  0.06041300  1
  Cl  Cl8  1  0.00000000  0.25146900  0.50000000  1
  Cl  Cl9  1  0.00000000  0.74853100  0.50000000  1
  Cl  Cl10  1  0.00000000  0.74853100  0.00000000  1
  Cl  Cl11  1  0.00000000  0.25146900  0.00000000  1
  Cl  Cl12  1  0.34984200  0.24745200  0.75000000  1
  Cl  Cl13  1  0.65015800  0.75254800  0.25000000  1
  Cl  Cl14  1  0.34984200  0.75254800  0.75000000  1
  Cl  Cl15  1  0.65015800  0.24745200  0.25000000  1
  Cl  Cl16  1  0.33883400  0.24917300  0.56277300  1
  Cl  Cl17  1  0.66116600  0.75082700  0.43722700  1
  Cl  Cl18  1  0.33883400  0.75082700  0.93722700  1
  Cl  Cl19  1  0.66116600  0.24917300  0.43722700  1
  Cl  Cl20  1  0.66116600  0.24917300  0.06277300  1
  Cl  Cl21  1  0.33883400  0.75082700  0.56277300  1
  Cl  Cl22  1  0.66116600  0.75082700  0.06277300  1
  Cl  Cl23  1  0.33883400  0.24917300  0.93722700  1
  Cl  Cl24  1  0.08143300  0.12419200  0.65809600  1
  Cl  Cl25  1  0.91856700  0.87580800  0.34190400  1
  Cl  Cl26  1  0.08143300  0.87580800  0.84190400  1
  Cl  Cl27  1  0.91856700  0.12419200  0.34190400  1
  Cl  Cl28  1  0.91856700  0.12419200  0.15809600  1
  Cl  Cl29  1  0.08143300  0.87580800  0.65809600  1
  Cl  Cl30  1  0.91856700  0.87580800  0.15809600  1
  Cl  Cl31  1  0.08143300  0.12419200  0.84190400  1
  Cl  Cl32  1  0.08549700  0.37452300  0.65513100  1
  Cl  Cl33  1  0.91450300  0.62547700  0.34486900  1
  Cl  Cl34  1  0.08549700  0.62547700  0.84486900  1
  Cl  Cl35  1  0.91450300  0.37452300  0.34486900  1
  Cl  Cl36  1  0.91450300  0.37452300  0.15513100  1
  Cl  Cl37  1  0.08549700  0.62547700  0.65513100  1
  Cl  Cl38  1  0.91450300  0.62547700  0.15513100  1
  Cl  Cl39  1  0.08549700  0.37452300  0.84486900  1
  Cl  Cl40  1  0.33952500  0.00000000  0.56559100  1
  Cl  Cl41  1  0.66047500  0.00000000  0.43440900  1
  Cl  Cl42  1  0.33952500  0.00000000  0.93440900  1
  Cl  Cl43  1  0.66047500  0.00000000  0.06559100  1
  Cl  Cl44  1  0.60006400  0.37427600  0.65371900  1
  Cl  Cl45  1  0.39993600  0.62572400  0.34628100  1
  Cl  Cl46  1  0.60006400  0.62572400  0.84628100  1
  Cl  Cl47  1  0.39993600  0.37427600  0.34628100  1
  Cl  Cl48  1  0.39993600  0.37427600  0.15371900  1
  Cl  Cl49  1  0.60006400  0.62572400  0.65371900  1
  Cl  Cl50  1  0.39993600  0.62572400  0.15371900  1
  Cl  Cl51  1  0.60006400  0.37427600  0.84628100  1
  Cl  Cl52  1  0.26137000  0.12724900  0.09492800  1
  Cl  Cl53  1  0.73863000  0.87275100  0.90507200  1
  Cl  Cl54  1  0.26137000  0.87275100  0.40507200  1
  Cl  Cl55  1  0.73863000  0.12724900  0.90507200  1
  Cl  Cl56  1  0.73863000  0.12724900  0.59492800  1
  Cl  Cl57  1  0.26137000  0.87275100  0.09492800  1
  Cl  Cl58  1  0.73863000  0.87275100  0.59492800  1
  Cl  Cl59  1  0.26137000  0.12724900  0.40507200  1
loop_
_geom_bond_atom_site_label_1
_geom_bond_atom_site_label_2
_geom_bond_distance
_geom_bond_site_symmetry_2
B0 Zr5 2.323979 1_455
B0 Zr4 2.323979 1_555
B0 Zr16 2.369014 1_555
B0 Zr19 2.369014 1_455
B0 Zr21 2.369014 1_545
B0 Zr17 2.369014 1_445
B1 Zr3 2.323979 1_454
B1 Zr2 2.323979 1_555
B1 Zr23 2.369014 1_554
B1 Zr20 2.369014 1_455
B1 Zr18 2.369014 1_544
B1 Zr22 2.369014 1_445
B2 Zr14 2.314191 1_555
B2 Zr0 2.318868 1_555
B2 Zr6 2.368559 1_555
B2 Zr13 2.368559 1_555
B2 Zr11 2.368559 1_555
B2 Zr8 2.368559 1_555
B3 Zr15 2.314191 1_555
B3 Zr1 2.318868 1_555
B3 Zr9 2.368559 1_555
B3 Zr7 2.368559 1_555
B3 Zr10 2.368559 1_555
B3 Zr12 2.368559 1_555
Cl0 Zr3 2.760740 1_555
Cl0 Zr5 2.760740 1_555
Cl0 Rb2 3.528789 1_545
Cl0 Rb0 3.528789 1_555
Cl1 Zr4 2.760740 1_555
Cl1 Zr2 2.760740 1_555
Cl1 Rb3 3.528789 1_555
Cl1 Rb1 3.528789 1_545
Cl2 Zr14 2.664699 1_555
Cl2 Zr0 2.674322 1_655
Cl2 Rb2 3.614374 1_555
Cl2 Rb0 3.614374 1_555
Cl3 Zr15 2.664699 1_555
Cl3 Zr1 2.674322 1_455
Cl3 Rb1 3.614374 1_555
Cl3 Rb3 3.614374 1_555
Cl4 Zr6 2.553492 1_555
Cl4 Zr11 2.553492 1_555
Cl5 Zr9 2.553492 1_555
Cl5 Zr7 2.553492 1_555
Cl6 Zr8 2.553492 1_555
Cl6 Zr13 2.553492 1_555
Cl7 Zr10 2.553492 1_555
Cl7 Zr12 2.553492 1_555
Cl8 Zr16 2.549030 1_555
Cl8 Zr19 2.549030 1_455
Cl9 Zr21 2.549030 1_555
Cl9 Zr17 2.549030 1_455
Cl10 Zr18 2.549030 1_554
Cl10 Zr22 2.549030 1_455
Cl11 Zr23 2.549030 1_554
Cl11 Zr20 2.549030 1_455
Cl12 Zr13 2.553571 1_555
Cl12 Zr6 2.553571 1_555
Cl13 Zr7 2.553571 1_555
Cl13 Zr12 2.553571 1_555
Cl14 Zr11 2.553571 1_555
Cl14 Zr8 2.553571 1_555
Cl15 Zr9 2.553571 1_555
Cl15 Zr10 2.553571 1_555
Cl16 Zr6 2.676169 1_555
Cl16 Zr16 2.679808 1_555
Cl17 Zr7 2.676169 1_555
Cl17 Zr17 2.679808 1_555
Cl18 Zr8 2.676169 1_555
Cl18 Zr18 2.679808 1_555
Cl19 Zr9 2.676169 1_555
Cl19 Zr19 2.679808 1_555
Cl20 Zr10 2.676169 1_555
Cl20 Zr20 2.679808 1_555
Cl21 Zr11 2.676169 1_555
Cl21 Zr21 2.679808 1_555
Cl22 Zr12 2.676169 1_555
Cl22 Zr22 2.679808 1_555
Cl23 Zr13 2.676169 1_555
Cl23 Zr23 2.679808 1_555
Cl24 Zr5 2.554549 1_455
Cl24 Zr16 2.562618 1_555
Cl24 Rb0 3.515069 1_455
Cl25 Zr4 2.554549 1_665
Cl25 Zr17 2.562618 1_555
Cl25 Rb1 3.515069 1_655
Cl26 Zr3 2.554549 1_465
Cl26 Zr18 2.562618 1_555
Cl26 Rb2 3.515069 1_455
Cl27 Zr4 2.554549 1_655
Cl27 Zr19 2.562618 1_555
Cl27 Rb3 3.515069 1_655
Cl28 Zr2 2.554549 1_655
Cl28 Zr20 2.562618 1_555
Cl28 Rb3 3.515069 1_655
Cl29 Zr5 2.554549 1_465
Cl29 Zr21 2.562618 1_555
Cl29 Rb2 3.515069 1_455
Cl30 Zr2 2.554549 1_665
Cl30 Zr22 2.562618 1_555
Cl30 Rb1 3.515069 1_655
Cl31 Zr3 2.554549 1_455
Cl31 Zr23 2.562618 1_555
Cl31 Rb0 3.515069 1_455
Cl32 Zr0 2.552392 1_555
Cl32 Zr6 2.565708 1_555
Cl32 Rb0 3.605969 1_455
Cl33 Zr1 2.552392 1_555
Cl33 Zr7 2.565708 1_555
Cl33 Rb1 3.605969 1_655
Cl34 Zr0 2.552392 1_555
Cl34 Zr8 2.565708 1_555
Cl34 Rb2 3.605969 1_455
Cl35 Zr1 2.552392 1_555
Cl35 Zr9 2.565708 1_555
Cl35 Rb3 3.605969 1_655
Cl36 Zr1 2.552392 1_555
Cl36 Zr10 2.565708 1_555
Cl36 Rb3 3.605969 1_655
Cl37 Zr0 2.552392 1_555
Cl37 Zr11 2.565708 1_555
Cl37 Rb2 3.605969 1_455
Cl38 Zr1 2.552392 1_555
Cl38 Zr12 2.565708 1_555
Cl38 Rb1 3.605969 1_655
Cl39 Zr0 2.552392 1_555
Cl39 Zr13 2.565708 1_555
Cl39 Rb0 3.605969 1_455
Cl40 Zr16 2.552662 1_555
Cl40 Zr21 2.552662 1_545
Cl41 Zr19 2.552662 1_555
Cl41 Zr17 2.552662 1_545
Cl42 Zr23 2.552662 1_555
Cl42 Zr18 2.552662 1_545
Cl43 Zr20 2.552662 1_555
Cl43 Zr22 2.552662 1_545
Cl44 Zr14 2.572852 1_555
Cl44 Zr6 2.578669 1_555
Cl44 Rb0 3.455498 1_555
Cl45 Zr15 2.572852 1_555
Cl45 Zr7 2.578669 1_555
Cl45 Rb1 3.455498 1_555
Cl46 Zr14 2.572852 1_555
Cl46 Zr8 2.578669 1_555
Cl46 Rb2 3.455498 1_555
Cl47 Zr15 2.572852 1_555
Cl47 Zr9 2.578669 1_555
Cl47 Rb3 3.455498 1_555
Cl48 Zr15 2.572852 1_555
Cl48 Zr10 2.578669 1_555
Cl48 Rb3 3.455498 1_555
Cl49 Zr14 2.572852 1_555
Cl49 Zr11 2.578669 1_555
Cl49 Rb2 3.455498 1_555
Cl50 Zr15 2.572852 1_555
Cl50 Zr12 2.578669 1_555
Cl50 Rb1 3.455498 1_555
Cl51 Zr14 2.572852 1_555
Cl51 Zr13 2.578669 1_555
Cl51 Rb0 3.455498 1_555
Cl52 Zr2 2.567980 1_555
Cl52 Zr23 2.576193 1_554
Cl52 Rb3 3.525301 1_555
Cl53 Zr3 2.567980 1_565
Cl53 Zr22 2.576193 1_556
Cl53 Rb2 3.525301 1_555
Cl54 Zr4 2.567980 1_565
Cl54 Zr21 2.576193 1_555
Cl54 Rb1 3.525301 1_555
Cl55 Zr3 2.567980 1_555
Cl55 Zr20 2.576193 1_556
Cl55 Rb0 3.525301 1_555
Cl56 Zr5 2.567980 1_555
Cl56 Zr19 2.576193 1_555
Cl56 Rb0 3.525301 1_555
Cl57 Zr2 2.567980 1_565
Cl57 Zr18 2.576193 1_554
Cl57 Rb1 3.525301 1_555
Cl58 Zr5 2.567980 1_565
Cl58 Zr17 2.576193 1_555
Cl58 Rb2 3.525301 1_555
Cl59 Zr4 2.567980 1_555
Cl59 Zr16 2.576193 1_555
Cl59 Rb3 3.525301 1_555
