# generated using pymatgen
data_Li7Mn2(CoO4)3
_symmetry_space_group_name_H-M   'P 1'
_cell_length_a   6.55075022
_cell_length_b   6.55075022
_cell_length_c   12.09349432
_cell_angle_alpha   75.99977417
_cell_angle_beta   75.99977417
_cell_angle_gamma   26.02742994
_symmetry_Int_Tables_number   1
_chemical_formula_structural   Li7Mn2(CoO4)3
_chemical_formula_sum   'Li7 Mn2 Co3 O12'
_cell_volume   220.58871119
_cell_formula_units_Z   1
loop_
 _symmetry_equiv_pos_site_id
 _symmetry_equiv_pos_as_xyz
  1  'x, y, z'
loop_
 _atom_site_type_symbol
 _atom_site_label
 _atom_site_symmetry_multiplicity
 _atom_site_fract_x
 _atom_site_fract_y
 _atom_site_fract_z
 _atom_site_occupancy
  Li  Li0  1  0.66566100  0.66566100  0.56394700  1
  Li  Li1  1  0.33502300  0.33502300  0.42474300  1
  Li  Li2  1  0.99819800  0.99819800  0.26636500  1
  Li  Li3  1  0.66553800  0.66553800  0.10021300  1
  Li  Li4  1  0.33385600  0.33385600  0.91394900  1
  Li  Li5  1  0.00125700  0.00125700  0.73477900  1
  Li  Li6  1  0.00021200  0.00021200  0.49703500  1
  Mn  Mn0  1  0.99975600  0.99975600  0.00114400  1
  Mn  Mn1  1  0.67032900  0.67032900  0.83097600  1
  Co  Co0  1  0.34831700  0.34831700  0.65265000  1
  Co  Co1  1  0.65172000  0.65172000  0.34427000  1
  Co  Co2  1  0.32652900  0.32652900  0.17507100  1
  O  O0  1  0.50541900  0.50541900  0.37084500  1
  O  O1  1  0.17114500  0.17114500  0.20921700  1
  O  O2  1  0.84602200  0.84602200  0.04376300  1
  O  O3  1  0.50666600  0.50666600  0.88921100  1
  O  O4  1  0.16589600  0.16589600  0.73060100  1
  O  O5  1  0.82825400  0.82825400  0.55409700  1
  O  O6  1  0.82016100  0.82016100  0.79369800  1
  O  O7  1  0.49322700  0.49322700  0.63293300  1
  O  O8  1  0.16979200  0.16979200  0.44642400  1
  O  O9  1  0.83362100  0.83362100  0.27393100  1
  O  O10  1  0.50298900  0.50298900  0.10440400  1
  O  O11  1  0.16041300  0.16041300  0.94573200  1
loop_
_geom_bond_atom_site_label_1
_geom_bond_atom_site_label_2
_geom_bond_distance
_geom_bond_site_symmetry_2
Li0 O8 2.039988 1_655
Li0 O8 2.039988 1_565
Li0 O5 2.049174 1_555
Li0 O7 2.151514 1_555
Li0 O4 2.498192 1_565
Li0 O4 2.498192 1_655
Li1 O8 2.059789 1_555
Li1 O0 2.109947 1_555
Li1 O5 2.136236 1_545
Li1 O5 2.136236 1_455
Li1 O9 2.349241 1_455
Li1 O9 2.349241 1_545
Li2 O0 1.959295 1_655
Li2 O0 1.959295 1_565
Li2 O9 2.079996 1_555
Li2 O1 2.143303 1_665
Li2 O10 2.440626 1_565
Li2 O10 2.440626 1_655
Li3 O1 1.991414 1_565
Li3 O1 1.991414 1_655
Li3 O10 2.062938 1_555
Li3 O2 2.234467 1_555
Li3 O11 2.393992 1_564
Li3 O11 2.393992 1_654
Li4 O6 2.108949 1_545
Li4 O6 2.108949 1_455
Li4 O11 2.151030 1_555
Li4 O3 2.151245 1_555
Li4 O2 2.187645 1_546
Li4 O2 2.187645 1_456
Li5 O7 1.940675 1_545
Li5 O7 1.940675 1_455
Li5 O4 2.089645 1_555
Li5 O6 2.243576 1_445
Li5 O3 2.394330 1_545
Li5 O3 2.394330 1_455
Li6 O8 2.098222 1_555
Li6 O0 2.111624 1_545
Li6 O0 2.111624 1_455
Li6 O5 2.131242 1_445
Li6 O7 2.193674 1_455
Li6 O7 2.193674 1_545
Mn0 O2 1.901165 1_555
Mn0 O10 1.939776 1_655
Mn0 O10 1.939776 1_565
Mn0 O3 1.989191 1_564
Mn0 O3 1.989191 1_654
Mn0 O11 1.993067 1_664
Mn1 O6 1.852864 1_555
Mn1 O4 1.920111 1_655
Mn1 O4 1.920111 1_565
Mn1 O11 2.007679 1_655
Mn1 O11 2.007679 1_565
Mn1 O3 2.032217 1_555
Co0 O7 1.805406 1_555
Co0 O5 1.952864 1_545
Co0 O5 1.952864 1_455
Co0 O6 2.215930 1_455
Co0 O6 2.215930 1_545
Co0 O4 2.284939 1_555
Co1 O0 1.814637 1_555
Co1 O8 1.974070 1_655
Co1 O8 1.974070 1_565
Co1 O1 2.168850 1_565
Co1 O1 2.168850 1_655
Co1 O9 2.265887 1_555
Co2 O9 1.915023 1_545
Co2 O9 1.915023 1_455
Co2 O1 1.923006 1_555
Co2 O2 2.136198 1_455
Co2 O2 2.136198 1_545
Co2 O10 2.201862 1_555
