# generated using pymatgen
data_Sc(MnGe)6
_symmetry_space_group_name_H-M   'P 1'
_cell_length_a   5.10110698
_cell_length_b   5.10112118
_cell_length_c   8.12008235
_cell_angle_alpha   90.00000000
_cell_angle_beta   90.00000000
_cell_angle_gamma   120.00053677
_symmetry_Int_Tables_number   1
_chemical_formula_structural   Sc(MnGe)6
_chemical_formula_sum   'Sc1 Mn6 Ge6'
_cell_volume   182.98638963
_cell_formula_units_Z   1
loop_
 _symmetry_equiv_pos_site_id
 _symmetry_equiv_pos_as_xyz
  1  'x, y, z'
loop_
 _atom_site_type_symbol
 _atom_site_label
 _atom_site_symmetry_multiplicity
 _atom_site_fract_x
 _atom_site_fract_y
 _atom_site_fract_z
 _atom_site_occupancy
  Sc  Sc0  1  -0.00000000  0.00000000  0.50000000  1
  Mn  Mn0  1  0.50000000  0.50000000  0.24955522  1
  Mn  Mn1  1  -0.00000000  0.50000000  0.24955559  1
  Mn  Mn2  1  0.50000000  0.00000000  0.75044378  1
  Mn  Mn3  1  0.50000000  0.50000000  0.75044478  1
  Mn  Mn4  1  -0.00000000  0.50000000  0.75044441  1
  Mn  Mn5  1  0.50000000  0.00000000  0.24955622  1
  Ge  Ge0  1  -0.00000000  0.00000000  0.83834837  1
  Ge  Ge1  1  0.33332711  0.66666306  0.50000000  1
  Ge  Ge2  1  0.66667289  0.33333694  0.50000000  1
  Ge  Ge3  1  0.33332544  0.66666272  -0.00000000  1
  Ge  Ge4  1  0.66667456  0.33333728  -0.00000000  1
  Ge  Ge5  1  -0.00000000  0.00000000  0.16165163  1
loop_
_geom_bond_atom_site_label_1
_geom_bond_atom_site_label_2
_geom_bond_distance
_geom_bond_site_symmetry_2
Ge0 Ge5 2.625249 1_556
Ge0 Mn3 2.648532 1_445
Ge0 Mn3 2.648532 1_555
Ge0 Mn2 2.648551 1_455
Ge0 Mn2 2.648551 1_555
Ge0 Mn4 2.648557 1_545
Ge0 Mn4 2.648557 1_555
Ge0 Sc0 2.747417 1_555
Ge1 Mn4 2.510774 1_555
Ge1 Mn1 2.510774 1_555
Ge1 Mn5 2.510797 1_565
Ge1 Mn2 2.510797 1_565
Ge1 Mn0 2.510807 1_555
Ge1 Mn3 2.510807 1_555
Ge1 Sc0 2.945102 1_555
Ge1 Sc0 2.945126 1_565
Ge1 Sc0 2.945137 1_665
Ge2 Mn4 2.510774 1_655
Ge2 Mn1 2.510774 1_655
Ge2 Mn2 2.510797 1_555
Ge2 Mn5 2.510797 1_555
Ge2 Mn0 2.510807 1_555
Ge2 Mn3 2.510807 1_555
Ge2 Sc0 2.945102 1_665
Ge2 Sc0 2.945126 1_655
Ge2 Sc0 2.945137 1_555
Ge3 Mn4 2.504927 1_554
Ge3 Mn1 2.504927 1_555
Ge3 Mn3 2.504964 1_554
Ge3 Mn0 2.504964 1_555
Ge3 Mn2 2.504964 1_564
Ge3 Mn5 2.504964 1_565
Ge4 Mn1 2.504927 1_655
Ge4 Mn4 2.504927 1_654
Ge4 Mn3 2.504964 1_554
Ge4 Mn0 2.504964 1_555
Ge4 Mn2 2.504964 1_554
Ge4 Mn5 2.504964 1_555
Ge5 Mn0 2.648532 1_555
Ge5 Mn0 2.648532 1_445
Ge5 Mn5 2.648551 1_455
Ge5 Mn5 2.648551 1_555
Ge5 Mn1 2.648557 1_545
Ge5 Mn1 2.648557 1_555
Ge5 Sc0 2.747417 1_555
