# generated using pymatgen
data_Zr6Be15Ni8
_symmetry_space_group_name_H-M   'P 1'
_cell_length_a   7.79114216
_cell_length_b   7.79113543
_cell_length_c   7.79113052
_cell_angle_alpha   60.00058400
_cell_angle_beta   60.00063029
_cell_angle_gamma   60.00065539
_symmetry_Int_Tables_number   1
_chemical_formula_structural   Zr6Be15Ni8
_chemical_formula_sum   'Zr6 Be15 Ni8'
_cell_volume   334.42096904
_cell_formula_units_Z   1
loop_
 _symmetry_equiv_pos_site_id
 _symmetry_equiv_pos_as_xyz
  1  'x, y, z'
loop_
 _atom_site_type_symbol
 _atom_site_label
 _atom_site_symmetry_multiplicity
 _atom_site_fract_x
 _atom_site_fract_y
 _atom_site_fract_z
 _atom_site_occupancy
  Zr  Zr0  1  0.71252142  0.28747814  0.28747522  1
  Zr  Zr1  1  0.28749220  0.71251212  0.71251141  1
  Zr  Zr2  1  0.28748525  0.71251631  0.28747840  1
  Zr  Zr3  1  0.71251693  0.28748522  0.71251642  1
  Zr  Zr4  1  0.28748758  0.28748371  0.71251209  1
  Zr  Zr5  1  0.71252044  0.71252023  0.28748028  1
  Be  Be0  1  0.32248670  0.32249541  0.32250244  1
  Be  Be1  1  0.67750130  0.67750658  0.67750892  1
  Be  Be2  1  0.32248504  0.32249520  0.03252539  1
  Be  Be3  1  0.32248390  0.03252352  0.32249992  1
  Be  Be4  1  0.67750617  0.67751126  0.96747884  1
  Be  Be5  1  0.67750607  0.96747745  0.67751423  1
  Be  Be6  1  0.03252004  0.32249130  0.32249789  1
  Be  Be7  1  0.96747639  0.67750892  0.67751320  1
  Be  Be8  1  0.49999888  -0.00000143  0.00000027  1
  Be  Be9  1  0.00000010  0.49999725  0.50000130  1
  Be  Be10  1  -0.00000205  0.50000022  0.00000211  1
  Be  Be11  1  0.49999559  0.00000035  0.50000441  1
  Be  Be12  1  -0.00000046  0.00000176  0.50000143  1
  Be  Be13  1  0.49999835  0.50000324  0.00000034  1
  Be  Be14  1  -0.00000014  0.99999943  -0.00000050  1
  Ni  Ni0  1  0.12429312  0.12429384  0.12429032  1
  Ni  Ni1  1  0.87572047  0.87570825  0.87570214  1
  Ni  Ni2  1  0.12429404  0.12429162  0.62711804  1
  Ni  Ni3  1  0.12429399  0.62711567  0.12429306  1
  Ni  Ni4  1  0.87571447  0.87569766  0.37288334  1
  Ni  Ni5  1  0.87571544  0.37288085  0.87569684  1
  Ni  Ni6  1  0.62711625  0.12429418  0.12429165  1
  Ni  Ni7  1  0.37287256  0.87570975  0.87570160  1
loop_
_geom_bond_atom_site_label_1
_geom_bond_atom_site_label_2
_geom_bond_distance
_geom_bond_site_symmetry_2
Zr0 Zr4 3.311540 1_555
Zr0 Zr2 3.311556 1_555
Zr0 Zr3 3.311562 1_555
Zr0 Zr5 3.311576 1_555
Zr1 Zr3 3.311468 1_555
Zr1 Zr4 3.311469 1_555
Zr1 Zr5 3.311496 1_555
Zr1 Zr2 3.311498 1_555
Zr2 Zr4 3.311519 1_555
Zr2 Zr5 3.311532 1_555
Zr3 Zr4 3.311487 1_555
Zr3 Zr5 3.311538 1_555
Be0 Be9 2.258563 1_555
Be0 Be11 2.258622 1_555
Be0 Be13 2.258672 1_555
Be0 Be6 2.259205 1_555
Be0 Be3 2.259231 1_555
Be0 Be2 2.259256 1_555
Be0 Ni2 2.335927 1_555
Be0 Ni3 2.335962 1_555
Be0 Ni6 2.336027 1_555
Be0 Zr4 2.792653 1_555
Be0 Zr2 2.792696 1_555
Be0 Zr0 2.792747 1_555
Be1 Be13 2.258593 1_556
Be1 Be11 2.258615 1_565
Be1 Be9 2.258656 1_655
Be1 Be4 2.259231 1_555
Be1 Be5 2.259242 1_555
Be1 Be7 2.259263 1_555
Be1 Ni7 2.335964 1_555
Be1 Ni5 2.335977 1_555
Be1 Ni4 2.335984 1_555
Be1 Zr1 2.792662 1_555
Be1 Zr3 2.792707 1_555
Be1 Zr5 2.792731 1_555
Be2 Be8 2.258652 1_555
Be2 Be6 2.259208 1_555
Be2 Be3 2.259239 1_555
Be2 Ni3 2.335904 1_555
Be2 Ni0 2.335931 1_555
Be2 Ni6 2.335970 1_555
Be2 Zr4 2.792746 1_554
Be2 Zr1 2.792754 1_554
Be2 Zr3 2.792811 1_554
Be3 Be8 2.258670 1_555
Be3 Be6 2.259186 1_555
Be3 Ni2 2.335889 1_555
Be3 Ni0 2.335963 1_555
Be3 Ni6 2.335993 1_555
Be3 Zr1 2.792720 1_545
Be3 Zr2 2.792753 1_545
Be3 Zr5 2.792817 1_545
Be4 Be8 2.258579 1_566
Be4 Be5 2.259179 1_555
Be4 Be7 2.259201 1_555
Be4 Ni1 2.336017 1_555
Be4 Ni5 2.336023 1_555
Be4 Ni7 2.336027 1_555
Be4 Zr5 2.792721 1_556
Be4 Zr2 2.792731 1_556
Be4 Zr0 2.792774 1_556
Be5 Be8 2.258568 1_566
Be5 Be7 2.259214 1_555
Be5 Ni1 2.335978 1_555
Be5 Ni7 2.335989 1_555
Be5 Ni4 2.336016 1_555
Be5 Zr3 2.792724 1_565
Be5 Zr4 2.792742 1_565
Be5 Zr0 2.792814 1_565
Be6 Be9 2.258569 1_555
Be6 Ni2 2.335923 1_555
Be6 Ni3 2.335951 1_555
Be6 Ni0 2.335985 1_555
Be6 Zr3 2.792730 1_455
Be6 Zr0 2.792760 1_455
Be6 Zr5 2.792769 1_455
Be7 Be9 2.258650 1_655
Be7 Ni1 2.335923 1_555
Be7 Ni5 2.335926 1_555
Be7 Ni4 2.335941 1_555
Be7 Zr1 2.792734 1_655
Be7 Zr4 2.792788 1_655
Be7 Zr2 2.792823 1_655
Be8 Ni6 2.390042 1_555
Be8 Ni0 2.390083 1_555
Be8 Ni7 2.390102 1_544
Be8 Ni1 2.390184 1_544
Be8 Zr2 2.785364 1_545
Be8 Zr5 2.785389 1_545
Be8 Zr4 2.785391 1_554
Be8 Zr3 2.785413 1_554
Be9 Ni5 2.390013 1_455
Be9 Ni4 2.390046 1_455
Be9 Ni2 2.390079 1_555
Be9 Ni3 2.390094 1_555
Be9 Zr3 2.785357 1_455
Be9 Zr5 2.785377 1_455
Be9 Zr4 2.785378 1_555
Be9 Zr2 2.785401 1_555
Be10 Be2 2.258584 1_555
Be10 Be7 2.258587 1_454
Be10 Be4 2.258616 1_454
Be10 Be6 2.258635 1_555
Be10 Ni3 2.390029 1_555
Be10 Ni5 2.390060 1_454
Be10 Ni0 2.390084 1_555
Be10 Ni1 2.390095 1_454
Be10 Zr0 2.785368 1_455
Be10 Zr5 2.785372 1_455
Be10 Zr4 2.785430 1_554
Be10 Zr1 2.785432 1_554
Be11 Be3 2.258603 1_555
Be11 Be5 2.258632 1_545
Be11 Ni7 2.390024 1_545
Be11 Ni2 2.390057 1_555
Be11 Ni6 2.390123 1_555
Be11 Ni4 2.390167 1_545
Be11 Zr4 2.785340 1_555
Be11 Zr1 2.785347 1_545
Be11 Zr0 2.785386 1_555
Be11 Zr5 2.785396 1_545
Be12 Be3 2.258561 1_555
Be12 Be6 2.258589 1_555
Be12 Be7 2.258619 1_445
Be12 Be5 2.258629 1_445
Be12 Ni2 2.390020 1_555
Be12 Ni1 2.390046 1_445
Be12 Ni4 2.390060 1_445
Be12 Ni0 2.390112 1_555
Be12 Zr3 2.785382 1_455
Be12 Zr0 2.785400 1_455
Be12 Zr1 2.785414 1_545
Be12 Zr2 2.785433 1_545
Be13 Be4 2.258608 1_554
Be13 Be2 2.258631 1_555
Be13 Ni3 2.390074 1_555
Be13 Ni7 2.390085 1_554
Be13 Ni6 2.390101 1_555
Be13 Ni5 2.390156 1_554
Be13 Zr2 2.785331 1_555
Be13 Zr0 2.785356 1_555
Be13 Zr1 2.785365 1_554
Be13 Zr3 2.785391 1_554
Be14 Ni1 2.371964 1_454
Be14 Ni7 2.372027 1_554
Be14 Ni0 2.372031 1_565
Be14 Ni2 2.372078 1_564
Be14 Ni5 2.372080 1_464
Be14 Ni4 2.372093 1_455
Be14 Ni3 2.372094 1_555
Be14 Ni6 2.372097 1_465
Ni0 Zr0 2.642749 1_455
Ni0 Zr2 2.642789 1_545
Ni0 Zr4 2.642794 1_554
Ni0 Ni5 2.739011 1_454
Ni0 Ni7 2.739021 1_544
Ni0 Ni4 2.739031 1_445
Ni1 Zr1 2.642765 1_655
Ni1 Zr3 2.642794 1_565
Ni1 Zr5 2.642797 1_556
Ni1 Ni2 2.738932 1_665
Ni1 Ni3 2.738974 1_656
Ni1 Ni6 2.739035 1_566
Ni2 Zr4 2.642771 1_555
Ni2 Zr3 2.642784 1_455
Ni2 Zr1 2.642802 1_545
Ni2 Ni7 2.738961 1_545
Ni2 Ni5 2.738994 1_455
Ni3 Zr2 2.642749 1_555
Ni3 Zr5 2.642755 1_455
Ni3 Zr1 2.642811 1_554
Ni3 Ni4 2.739018 1_455
Ni3 Ni7 2.739019 1_554
Ni4 Zr5 2.642729 1_555
Ni4 Zr2 2.642737 1_655
Ni4 Zr0 2.642795 1_565
Ni4 Ni6 2.739114 1_565
Ni5 Zr3 2.642736 1_555
Ni5 Zr4 2.642752 1_655
Ni5 Zr0 2.642783 1_556
Ni5 Ni6 2.739092 1_556
Ni6 Zr0 2.642715 1_555
Ni6 Zr5 2.642754 1_545
Ni6 Zr3 2.642764 1_554
Ni7 Zr1 2.642707 1_555
Ni7 Zr4 2.642772 1_565
Ni7 Zr2 2.642786 1_556
