# generated using pymatgen
data_Ca3CoO6
_symmetry_space_group_name_H-M   'P 1'
_cell_length_a   6.37093660
_cell_length_b   9.19692817
_cell_length_c   8.83188890
_cell_angle_alpha   89.99140391
_cell_angle_beta   90.00034434
_cell_angle_gamma   87.47768479
_symmetry_Int_Tables_number   1
_chemical_formula_structural   Ca3CoO6
_chemical_formula_sum   'Ca12 Co4 O24'
_cell_volume   516.98590531
_cell_formula_units_Z   4
loop_
 _symmetry_equiv_pos_site_id
 _symmetry_equiv_pos_as_xyz
  1  'x, y, z'
loop_
 _atom_site_type_symbol
 _atom_site_label
 _atom_site_symmetry_multiplicity
 _atom_site_fract_x
 _atom_site_fract_y
 _atom_site_fract_z
 _atom_site_occupancy
  Ca  Ca0  1  0.10151700  0.57630000  0.82364600  1
  Ca  Ca1  1  0.10560900  0.07345800  0.32302500  1
  Ca  Ca2  1  0.74937400  0.25013300  0.85380200  1
  Ca  Ca3  1  0.75053000  0.74983100  0.35375000  1
  Ca  Ca4  1  0.60161600  0.57617700  0.67642200  1
  Ca  Ca5  1  0.60564600  0.07340600  0.17697600  1
  Ca  Ca6  1  0.89844500  0.42366700  0.17637400  1
  Ca  Ca7  1  0.89442100  0.92657600  0.67696500  1
  Ca  Ca8  1  0.25072800  0.74987100  0.14621400  1
  Ca  Ca9  1  0.24937600  0.25012000  0.64623000  1
  Ca  Ca10  1  0.39838000  0.42380000  0.32357000  1
  Ca  Ca11  1  0.39439100  0.92660900  0.82300100  1
  Co  Co0  1  0.99989800  0.49994000  0.49999600  1
  Co  Co1  1  0.50012500  0.50005300  0.00001200  1
  Co  Co2  1  0.00001500  0.00011400  0.00000500  1
  Co  Co3  1  0.49986000  0.99991700  0.50000800  1
  O  O0  1  0.77626600  0.50103200  0.92794500  1
  O  O1  1  0.77706100  0.00387300  0.42766000  1
  O  O2  1  0.72364600  0.49882000  0.42784300  1
  O  O3  1  0.72317800  0.99630300  0.92780900  1
  O  O4  1  0.57774300  0.60272800  0.17139200  1
  O  O5  1  0.57576700  0.10479500  0.67287500  1
  O  O6  1  0.56774300  0.32535500  0.10091100  1
  O  O7  1  0.56667100  0.82830000  0.60055000  1
  O  O8  1  0.93329500  0.17174200  0.10081300  1
  O  O9  1  0.93196500  0.67463000  0.60086300  1
  O  O10  1  0.42194800  0.39723000  0.82867900  1
  O  O11  1  0.42430200  0.89518800  0.32696400  1
  O  O12  1  0.43218100  0.67464000  0.89900400  1
  O  O13  1  0.43336400  0.17168800  0.39939700  1
  O  O14  1  0.92227900  0.39727900  0.67132100  1
  O  O15  1  0.92410600  0.89505800  0.17284000  1
  O  O16  1  0.07796000  0.60276700  0.32874700  1
  O  O17  1  0.07588400  0.10488700  0.82723900  1
  O  O18  1  0.27648300  0.50123100  0.57220800  1
  O  O19  1  0.27688600  0.00375200  0.07216300  1
  O  O20  1  0.06661900  0.82818600  0.89934200  1
  O  O21  1  0.06814500  0.32540800  0.39907400  1
  O  O22  1  0.22358300  0.49891300  0.07211600  1
  O  O23  1  0.22299100  0.99622300  0.57224800  1
loop_
_geom_bond_atom_site_label_1
_geom_bond_atom_site_label_2
_geom_bond_distance
_geom_bond_site_symmetry_2
Ca0 O0 2.397420 1_455
Ca0 O9 2.401989 1_455
Ca0 O20 2.412061 1_555
Ca0 O12 2.422135 1_555
Ca0 O22 2.424412 1_556
Ca0 O14 2.447601 1_455
Ca0 O18 2.565803 1_555
Ca0 O10 2.566280 1_555
Ca1 O1 2.400547 1_455
Ca1 O8 2.405397 1_455
Ca1 O13 2.407802 1_555
Ca1 O21 2.414361 1_555
Ca1 O23 2.421045 1_545
Ca1 O15 2.440521 1_445
Ca1 O19 2.539566 1_555
Ca1 O11 2.553172 1_545
Ca2 O5 2.386233 1_555
Ca2 O14 2.402675 1_555
Ca2 O0 2.412043 1_555
Ca2 O17 2.433536 1_655
Ca2 O3 2.436923 1_545
Ca2 O10 2.445888 1_555
Ca2 O6 2.551604 1_556
Ca2 O8 2.564601 1_556
Ca3 O15 2.385183 1_555
Ca3 O4 2.401616 1_555
Ca3 O2 2.412719 1_555
Ca3 O11 2.432715 1_555
Ca3 O1 2.438992 1_565
Ca3 O16 2.445695 1_655
Ca3 O9 2.550845 1_555
Ca3 O7 2.563224 1_555
Ca4 O18 2.395576 1_555
Ca4 O12 2.400882 1_555
Ca4 O7 2.414398 1_555
Ca4 O9 2.421206 1_555
Ca4 O2 2.425338 1_555
Ca4 O10 2.447896 1_555
Ca4 O0 2.565587 1_555
Ca4 O14 2.566475 1_555
Ca5 O19 2.402604 1_555
Ca5 O8 2.407023 1_555
Ca5 O13 2.407039 1_555
Ca5 O6 2.414357 1_555
Ca5 O3 2.420740 1_544
Ca5 O11 2.437645 1_545
Ca5 O1 2.538012 1_555
Ca5 O15 2.552501 1_545
Ca6 O22 2.396584 1_655
Ca6 O21 2.401565 1_655
Ca6 O8 2.412059 1_555
Ca6 O6 2.422499 1_555
Ca6 O0 2.424250 1_554
Ca6 O16 2.449213 1_655
Ca6 O2 2.565784 1_555
Ca6 O4 2.567547 1_555
Ca7 O23 2.401124 1_655
Ca7 O20 2.406608 1_655
Ca7 O7 2.408055 1_555
Ca7 O9 2.414485 1_555
Ca7 O1 2.421821 1_565
Ca7 O17 2.440252 1_665
Ca7 O3 2.539381 1_555
Ca7 O5 2.552715 1_565
Ca8 O11 2.384971 1_555
Ca8 O16 2.402336 1_555
Ca8 O22 2.412639 1_555
Ca8 O15 2.433905 1_455
Ca8 O19 2.437452 1_565
Ca8 O4 2.443981 1_555
Ca8 O12 2.551888 1_554
Ca8 O20 2.563908 1_554
Ca9 O17 2.385540 1_555
Ca9 O10 2.401531 1_555
Ca9 O18 2.413593 1_555
Ca9 O5 2.433306 1_555
Ca9 O23 2.437777 1_545
Ca9 O14 2.444459 1_455
Ca9 O21 2.550798 1_555
Ca9 O13 2.563749 1_555
Ca10 O2 2.396742 1_555
Ca10 O6 2.401181 1_555
Ca10 O13 2.414204 1_555
Ca10 O21 2.420198 1_555
Ca10 O18 2.425739 1_555
Ca10 O4 2.446426 1_555
Ca10 O22 2.565381 1_555
Ca10 O16 2.565684 1_555
Ca11 O3 2.402851 1_555
Ca11 O7 2.407338 1_555
Ca11 O20 2.408486 1_555
Ca11 O12 2.414339 1_555
Ca11 O19 2.420752 1_566
Ca11 O5 2.438206 1_565
Ca11 O23 2.538677 1_555
Ca11 O17 2.552353 1_565
Co0 O14 1.861774 1_555
Co0 O16 1.862836 1_655
Co0 O21 1.870577 1_655
Co0 O9 1.871190 1_555
Co0 O2 1.872249 1_555
Co0 O18 1.874496 1_655
Co1 O4 1.862459 1_555
Co1 O10 1.863857 1_554
Co1 O12 1.870761 1_554
Co1 O6 1.870768 1_555
Co1 O0 1.871272 1_554
Co1 O22 1.873854 1_555
Co2 O8 1.845600 1_455
Co2 O20 1.847174 1_544
Co2 O19 1.877202 1_555
Co2 O3 1.877207 1_444
Co2 O17 1.879074 1_554
Co2 O15 1.881005 1_445
Co3 O7 1.844263 1_555
Co3 O13 1.845368 1_565
Co3 O23 1.877470 1_555
Co3 O1 1.879928 1_565
Co3 O11 1.880534 1_555
Co3 O5 1.880602 1_565
