# generated using pymatgen
data_CeSe2
_symmetry_space_group_name_H-M   'P 1'
_cell_length_a   5.23364900
_cell_length_b   5.60768000
_cell_length_c   10.62026240
_cell_angle_alpha   89.92795583
_cell_angle_beta   90.00000000
_cell_angle_gamma   90.00000000
_symmetry_Int_Tables_number   1
_chemical_formula_structural   CeSe2
_chemical_formula_sum   'Ce4 Se8'
_cell_volume   311.68989267
_cell_formula_units_Z   4
loop_
 _symmetry_equiv_pos_site_id
 _symmetry_equiv_pos_as_xyz
  1  'x, y, z'
loop_
 _atom_site_type_symbol
 _atom_site_label
 _atom_site_symmetry_multiplicity
 _atom_site_fract_x
 _atom_site_fract_y
 _atom_site_fract_z
 _atom_site_occupancy
  Ce  Ce0  1  0.25000000  0.75867600  0.86440000  1
  Ce  Ce1  1  0.75000000  0.24132400  0.13560000  1
  Ce  Ce2  1  0.75000000  0.25636600  0.63188100  1
  Ce  Ce3  1  0.25000000  0.74363400  0.36811900  1
  Se  Se0  1  0.25000000  0.25795200  0.93198600  1
  Se  Se1  1  0.75000000  0.74204800  0.06801400  1
  Se  Se2  1  0.75000000  0.76354200  0.74687900  1
  Se  Se3  1  0.25000000  0.23645800  0.25312100  1
  Se  Se4  1  0.25000000  0.50717200  0.61357800  1
  Se  Se5  1  0.75000000  0.49282800  0.38642200  1
  Se  Se6  1  0.25000000  0.01495800  0.61032600  1
  Se  Se7  1  0.75000000  0.98504200  0.38967400  1
loop_
_geom_bond_atom_site_label_1
_geom_bond_atom_site_label_2
_geom_bond_distance
_geom_bond_site_symmetry_2
Ce0 Se0 2.891199 1_565
Ce0 Se0 2.897317 1_555
Ce0 Se2 2.899343 1_555
Ce0 Se2 2.899343 1_455
Ce0 Se4 3.015684 1_555
Ce0 Se6 3.055591 1_565
Ce0 Se1 3.395892 1_556
Ce0 Se1 3.395892 1_456
Ce1 Se1 2.891199 1_545
Ce1 Se1 2.897317 1_555
Ce1 Se3 2.899343 1_655
Ce1 Se3 2.899343 1_555
Ce1 Se5 3.015684 1_555
Ce1 Se7 3.055591 1_545
Ce1 Se0 3.395892 1_654
Ce1 Se0 3.395892 1_554
Ce2 Se5 2.923218 1_555
Ce2 Se6 2.955260 1_555
Ce2 Se6 2.955260 1_655
Ce2 Se4 2.977069 1_555
Ce2 Se4 2.977069 1_655
Ce2 Se7 2.990240 1_545
Ce2 Se2 3.020031 1_545
Ce2 Se2 3.096631 1_555
Ce3 Se4 2.923218 1_555
Ce3 Se7 2.955260 1_455
Ce3 Se7 2.955260 1_555
Ce3 Se5 2.977069 1_455
Ce3 Se5 2.977069 1_555
Ce3 Se6 2.990240 1_565
Ce3 Se3 3.020031 1_565
Ce3 Se3 3.096631 1_555
Se4 Se6 2.760438 1_555
Se4 Se6 2.847667 1_565
Se5 Se7 2.760438 1_555
Se5 Se7 2.847667 1_545
