# generated using pymatgen
data_La3Se4Cl
_symmetry_space_group_name_H-M   'P 1'
_cell_length_a   8.01133979
_cell_length_b   8.58512553
_cell_length_c   12.83273789
_cell_angle_alpha   90.00000000
_cell_angle_beta   90.00000000
_cell_angle_gamma   90.00000000
_symmetry_Int_Tables_number   1
_chemical_formula_structural   La3Se4Cl
_chemical_formula_sum   'La12 Se16 Cl4'
_cell_volume   882.61463765
_cell_formula_units_Z   4
loop_
 _symmetry_equiv_pos_site_id
 _symmetry_equiv_pos_as_xyz
  1  'x, y, z'
loop_
 _atom_site_type_symbol
 _atom_site_label
 _atom_site_symmetry_multiplicity
 _atom_site_fract_x
 _atom_site_fract_y
 _atom_site_fract_z
 _atom_site_occupancy
  La  La0  1  0.41936337  0.25194564  0.50957095  1
  La  La1  1  0.08063663  0.25194564  0.00957095  1
  La  La2  1  0.58063663  0.75194564  0.49042905  1
  La  La3  1  0.91936337  0.75194564  0.99042905  1
  La  La4  1  0.47366887  0.99906734  0.81695634  1
  La  La5  1  0.01180517  0.49810804  0.32639090  1
  La  La6  1  0.52633113  0.49906734  0.18304366  1
  La  La7  1  0.98819483  0.99810804  0.67360910  1
  La  La8  1  0.51180517  0.99810804  0.17360910  1
  La  La9  1  0.97366887  0.49906734  0.68304366  1
  La  La10  1  0.48819483  0.49810804  0.82639090  1
  La  La11  1  0.02633113  0.99906734  0.31695634  1
  Se  Se0  1  0.20020866  0.25195054  0.78137679  1
  Se  Se1  1  0.29979134  0.25195054  0.28137679  1
  Se  Se2  1  0.79979134  0.75195054  0.21862321  1
  Se  Se3  1  0.70020866  0.75195054  0.71862321  1
  Se  Se4  1  0.03614442  0.25424254  0.50158673  1
  Se  Se5  1  0.46385558  0.25424254  0.00158673  1
  Se  Se6  1  0.96385558  0.75424254  0.49841327  1
  Se  Se7  1  0.53614442  0.75424254  0.99841327  1
  Se  Se8  1  0.67318166  0.24880328  0.68835160  1
  Se  Se9  1  0.82681834  0.24880328  0.18835160  1
  Se  Se10  1  0.32681834  0.74880328  0.31164840  1
  Se  Se11  1  0.17318166  0.74880328  0.81164840  1
  Se  Se12  1  0.83836831  0.45381774  0.90194356  1
  Se  Se13  1  0.16163169  0.95381774  0.09805644  1
  Se  Se14  1  0.33836831  0.95381774  0.59805644  1
  Se  Se15  1  0.66163169  0.45381774  0.40194356  1
  Cl  Cl0  1  0.65853967  0.04206487  0.39584249  1
  Cl  Cl1  1  0.34146033  0.54206487  0.60415751  1
  Cl  Cl2  1  0.15853967  0.54206487  0.10415751  1
  Cl  Cl3  1  0.84146033  0.04206487  0.89584249  1
loop_
_geom_bond_atom_site_label_1
_geom_bond_atom_site_label_2
_geom_bond_distance
_geom_bond_site_symmetry_2
La0 Se14 2.874246 1_545
La0 Se15 2.945892 1_555
La0 Se8 3.065796 1_555
La0 Se4 3.071870 1_555
La0 Se1 3.081055 1_555
La1 Se13 2.874246 1_545
La1 Se12 2.945892 1_454
La1 Se9 3.065796 1_455
La1 Se5 3.071870 1_555
La1 Se0 3.081055 1_554
La2 Se15 2.874246 1_555
La2 Se14 2.945892 1_555
La2 Se10 3.065796 1_555
La2 Se6 3.071870 1_555
La2 Se3 3.081055 1_555
La3 Se12 2.874246 1_555
La3 Se13 2.945892 1_656
La3 Se11 3.065796 1_655
La3 Se7 3.071870 1_555
La3 Se2 3.081055 1_556
La4 Se14 3.035917 1_555
La4 Se3 3.063829 1_555
La4 Se0 3.117914 1_565
La4 Se8 3.142487 1_565
La4 Se7 3.176574 1_555
La4 Se11 3.227386 1_555
La4 Se5 3.227854 1_566
La5 Se15 2.992431 1_455
La5 Se4 3.078285 1_555
La5 Se2 3.089779 1_455
La5 Se6 3.139437 1_455
La5 Se9 3.148837 1_455
La5 Se1 3.181612 1_555
La5 Se10 3.322186 1_555
La6 Se15 3.035917 1_555
La6 Se1 3.063829 1_555
La6 Se2 3.117914 1_555
La6 Se10 3.142487 1_555
La6 Se5 3.176574 1_555
La6 Se9 3.227386 1_555
La6 Se7 3.227854 1_554
La7 Se14 2.992431 1_655
La7 Se6 3.078285 1_555
La7 Se0 3.089779 1_665
La7 Se4 3.139437 1_665
La7 Se11 3.148837 1_655
La7 Se3 3.181612 1_555
La7 Se8 3.322186 1_565
La8 Se13 2.992431 1_555
La8 Se7 3.078285 1_554
La8 Se1 3.089779 1_565
La8 Se5 3.139437 1_565
La8 Se10 3.148837 1_555
La8 Se2 3.181612 1_555
La8 Se9 3.322186 1_565
La9 Se12 3.035917 1_555
La9 Se0 3.063829 1_655
La9 Se3 3.117914 1_555
La9 Se11 3.142487 1_655
La9 Se4 3.176574 1_655
La9 Se8 3.227386 1_555
La9 Se6 3.227854 1_555
La10 Se12 2.992431 1_555
La10 Se5 3.078285 1_556
La10 Se3 3.089779 1_555
La10 Se7 3.139437 1_555
La10 Se8 3.148837 1_555
La10 Se0 3.181612 1_555
La10 Se11 3.322186 1_555
La11 Se13 3.035917 1_555
La11 Se2 3.063829 1_455
La11 Se1 3.117914 1_565
La11 Se9 3.142487 1_465
La11 Se6 3.176574 1_455
La11 Se10 3.227386 1_555
La11 Se4 3.227854 1_565
Cl0 La2 2.840153 1_545
Cl0 La0 3.008020 1_555
Cl0 La8 3.107640 1_545
Cl0 La11 3.137346 1_645
Cl1 La0 2.840153 1_555
Cl1 La2 3.008020 1_555
Cl1 La10 3.107640 1_555
Cl1 La9 3.137346 1_455
Cl2 La1 2.840153 1_555
Cl2 La3 3.008020 1_454
Cl2 La5 3.107640 1_555
Cl2 La6 3.137346 1_555
Cl3 La3 2.840153 1_545
Cl3 La1 3.008020 1_656
Cl3 La7 3.107640 1_545
Cl3 La4 3.137346 1_545
