# generated using pymatgen
data_CeSe2
_symmetry_space_group_name_H-M   'P 1'
_cell_length_a   7.60948566
_cell_length_b   13.57575099
_cell_length_c   15.53265654
_cell_angle_alpha   90.00000000
_cell_angle_beta   90.00000000
_cell_angle_gamma   90.00000000
_symmetry_Int_Tables_number   1
_chemical_formula_structural   CeSe2
_chemical_formula_sum   'Ce8 Se16'
_cell_volume   1604.59304544
_cell_formula_units_Z   8
loop_
 _symmetry_equiv_pos_site_id
 _symmetry_equiv_pos_as_xyz
  1  'x, y, z'
loop_
 _atom_site_type_symbol
 _atom_site_label
 _atom_site_symmetry_multiplicity
 _atom_site_fract_x
 _atom_site_fract_y
 _atom_site_fract_z
 _atom_site_occupancy
  Ce  Ce0  1  0.70555266  0.66025430  0.40395733  1
  Ce  Ce1  1  0.29444734  0.66025430  0.59604267  1
  Ce  Ce2  1  0.70555266  0.33974570  0.59604267  1
  Ce  Ce3  1  0.29444734  0.33974570  0.40395733  1
  Ce  Ce4  1  0.79444734  0.83974570  0.09604267  1
  Ce  Ce5  1  0.20555266  0.83974570  0.90395733  1
  Ce  Ce6  1  0.79444734  0.16025430  0.90395733  1
  Ce  Ce7  1  0.20555266  0.16025430  0.09604267  1
  Se  Se0  1  0.50000000  0.77966427  0.50000000  1
  Se  Se1  1  0.50000000  0.22033573  0.50000000  1
  Se  Se2  1  0.00000000  0.72033573  0.00000000  1
  Se  Se3  1  0.00000000  0.27966427  0.00000000  1
  Se  Se4  1  0.50000000  0.50000000  0.37393977  1
  Se  Se5  1  0.50000000  0.50000000  0.62606023  1
  Se  Se6  1  0.00000000  -0.00000000  0.12606023  1
  Se  Se7  1  0.00000000  0.00000000  0.87393977  1
  Se  Se8  1  0.00000000  0.63164060  0.50000000  1
  Se  Se9  1  0.00000000  0.36835940  0.50000000  1
  Se  Se10  1  0.50000000  0.86835940  0.00000000  1
  Se  Se11  1  0.50000000  0.13164060  0.00000000  1
  Se  Se12  1  0.75000000  0.75000000  0.25000000  1
  Se  Se13  1  0.25000000  0.75000000  0.75000000  1
  Se  Se14  1  0.75000000  0.25000000  0.75000000  1
  Se  Se15  1  0.25000000  0.25000000  0.25000000  1
loop_
_geom_bond_atom_site_label_1
_geom_bond_atom_site_label_2
_geom_bond_distance
_geom_bond_site_symmetry_2
Ce0 Se0 2.701838 1_555
Ce0 Se12 2.705077 1_555
Ce0 Se8 2.719671 1_655
Ce0 Se4 2.719756 1_555
Ce1 Se0 2.701838 1_555
Ce1 Se13 2.705077 1_555
Ce1 Se8 2.719671 1_555
Ce1 Se5 2.719756 1_555
Ce2 Se1 2.701838 1_555
Ce2 Se14 2.705077 1_555
Ce2 Se9 2.719671 1_655
Ce2 Se5 2.719756 1_555
Ce3 Se1 2.701838 1_555
Ce3 Se15 2.705077 1_555
Ce3 Se9 2.719671 1_555
Ce3 Se4 2.719756 1_555
Ce4 Se2 2.701838 1_655
Ce4 Se12 2.705077 1_555
Ce4 Se10 2.719671 1_555
Ce4 Se6 2.719756 1_665
Ce5 Se2 2.701838 1_556
Ce5 Se13 2.705077 1_555
Ce5 Se10 2.719671 1_556
Ce5 Se7 2.719756 1_565
Ce6 Se3 2.701838 1_656
Ce6 Se14 2.705077 1_555
Ce6 Se11 2.719671 1_556
Ce6 Se7 2.719756 1_655
Ce7 Se3 2.701838 1_555
Ce7 Se15 2.705077 1_555
Ce7 Se11 2.719671 1_555
Ce7 Se6 2.719756 1_555
