# generated using pymatgen
data_Li9Mn2Co5O16
_symmetry_space_group_name_H-M   'P 1'
_cell_length_a   2.95467200
_cell_length_b   8.11241497
_cell_length_c   11.91430217
_cell_angle_alpha   90.85445972
_cell_angle_beta   92.26109665
_cell_angle_gamma   90.57882865
_symmetry_Int_Tables_number   1
_chemical_formula_structural   Li9Mn2Co5O16
_chemical_formula_sum   'Li9 Mn2 Co5 O16'
_cell_volume   285.30975340
_cell_formula_units_Z   1
loop_
 _symmetry_equiv_pos_site_id
 _symmetry_equiv_pos_as_xyz
  1  'x, y, z'
loop_
 _atom_site_type_symbol
 _atom_site_label
 _atom_site_symmetry_multiplicity
 _atom_site_fract_x
 _atom_site_fract_y
 _atom_site_fract_z
 _atom_site_occupancy
  Li  Li0  1  0.99287400  0.74901600  0.87893200  1
  Li  Li1  1  0.49775400  0.50283700  0.25761500  1
  Li  Li2  1  0.99251300  0.26362300  0.62549600  1
  Li  Li3  1  0.50000000  0.00000000  0.00000000  1
  Li  Li4  1  0.00748700  0.73637700  0.37450400  1
  Li  Li5  1  0.50224600  0.49716300  0.74238500  1
  Li  Li6  1  0.00712600  0.25098400  0.12106800  1
  Li  Li7  1  0.50000000  0.00000000  0.50000000  1
  Li  Li8  1  0.50000000  0.50000000  0.50000000  1
  Mn  Mn0  1  0.00596600  0.74295800  0.62262600  1
  Mn  Mn1  1  0.99403400  0.25704200  0.37737400  1
  Co  Co0  1  0.50000000  0.50000000  0.00000000  1
  Co  Co1  1  0.50370800  0.00383900  0.74781400  1
  Co  Co2  1  0.00002700  0.74913200  0.12517700  1
  Co  Co3  1  0.99997300  0.25086800  0.87482300  1
  Co  Co4  1  0.49629200  0.99616100  0.25218600  1
  O  O0  1  0.51995300  0.76369800  0.73646200  1
  O  O1  1  0.95915100  0.50995700  0.11874900  1
  O  O2  1  0.51027700  0.24872900  0.48349700  1
  O  O3  1  0.95949600  0.00926600  0.86908700  1
  O  O4  1  0.51097700  0.76079200  0.24544400  1
  O  O5  1  0.99449700  0.51887700  0.62889600  1
  O  O6  1  0.50904800  0.26189900  0.99609800  1
  O  O7  1  0.96453500  0.00864600  0.36727900  1
  O  O8  1  0.49095200  0.73810100  0.00390200  1
  O  O9  1  0.00550300  0.48112300  0.37110400  1
  O  O10  1  0.48902300  0.23920800  0.75455600  1
  O  O11  1  0.04050400  0.99073400  0.13091300  1
  O  O12  1  0.48972300  0.75127100  0.51650300  1
  O  O13  1  0.04084900  0.49004300  0.88125100  1
  O  O14  1  0.48004700  0.23630200  0.26353800  1
  O  O15  1  0.03546500  0.99135400  0.63272100  1
loop_
_geom_bond_atom_site_label_1
_geom_bond_atom_site_label_2
_geom_bond_distance
_geom_bond_site_symmetry_2
Li0 O8 2.055284 1_656
Li0 O13 2.107620 1_655
Li0 O3 2.119332 1_565
Li0 O8 2.144668 1_556
Li0 O0 2.161068 1_555
Li0 O0 2.351947 1_655
Li1 O9 1.990576 1_655
Li1 O9 2.032688 1_555
Li1 O4 2.099889 1_555
Li1 O14 2.164617 1_555
Li1 O1 2.185964 1_555
Li1 O1 2.251703 1_455
Li2 O5 2.070463 1_555
Li2 O10 2.095888 1_655
Li2 O2 2.169622 1_555
Li2 O10 2.190971 1_555
Li2 O15 2.216440 1_645
Li2 O2 2.327890 1_655
Li3 O11 2.109549 1_545
Li3 O3 2.109549 1_554
Li3 O8 2.125756 1_545
Li3 O6 2.125756 1_554
Li3 O11 2.190491 1_645
Li3 O3 2.190491 1_454
Li4 O9 2.070463 1_555
Li4 O4 2.095888 1_455
Li4 O12 2.169622 1_555
Li4 O4 2.190971 1_555
Li4 O7 2.216440 1_465
Li4 O12 2.327890 1_455
Li5 O5 1.990576 1_455
Li5 O5 2.032688 1_555
Li5 O10 2.099889 1_555
Li5 O0 2.164617 1_555
Li5 O13 2.185964 1_555
Li5 O13 2.251703 1_655
Li6 O6 2.055284 1_454
Li6 O1 2.107620 1_455
Li6 O11 2.119332 1_545
Li6 O6 2.144668 1_554
Li6 O14 2.161068 1_555
Li6 O14 2.351947 1_455
Li7 O2 2.030304 1_555
Li7 O12 2.030304 1_545
Li7 O15 2.135853 1_545
Li7 O7 2.135853 1_555
Li7 O15 2.194679 1_645
Li7 O7 2.194679 1_455
Li8 O12 2.045601 1_555
Li8 O2 2.045601 1_555
Li8 O5 2.080386 1_555
Li8 O9 2.080386 1_555
Li8 O5 2.188897 1_455
Li8 O9 2.188897 1_655
Mn0 O5 1.820513 1_455
Mn0 O12 1.944808 1_455
Mn0 O12 1.946646 1_555
Mn0 O0 1.999909 1_555
Mn0 O15 2.017685 1_555
Mn0 O0 2.020315 1_455
Mn1 O9 1.820513 1_655
Mn1 O2 1.944808 1_655
Mn1 O2 1.946646 1_555
Mn1 O14 1.999909 1_555
Mn1 O7 2.017685 1_555
Mn1 O14 2.020315 1_655
Co0 O1 1.921357 1_555
Co0 O13 1.921357 1_554
Co0 O8 1.931921 1_555
Co0 O6 1.931921 1_554
Co0 O13 2.177044 1_654
Co0 O1 2.177044 1_455
Co1 O15 1.909976 1_545
Co1 O10 1.910905 1_555
Co1 O3 1.935614 1_555
Co1 O0 1.952005 1_545
Co1 O15 2.127965 1_645
Co1 O3 2.204097 1_455
Co2 O1 1.943005 1_455
Co2 O11 1.962423 1_555
Co2 O4 2.040511 1_555
Co2 O8 2.044544 1_455
Co2 O4 2.076587 1_455
Co2 O8 2.089001 1_555
Co3 O13 1.943005 1_655
Co3 O3 1.962423 1_555
Co3 O10 2.040511 1_555
Co3 O6 2.044544 1_655
Co3 O10 2.076587 1_655
Co3 O6 2.089001 1_555
Co4 O7 1.909976 1_565
Co4 O4 1.910905 1_555
Co4 O11 1.935614 1_555
Co4 O14 1.952005 1_565
Co4 O7 2.127965 1_465
Co4 O11 2.204097 1_655
