# generated using pymatgen
data_Sr2TaCu2O7
_symmetry_space_group_name_H-M   'P 1'
_cell_length_a   13.52319519
_cell_length_b   13.52319519
_cell_length_c   13.52319519
_cell_angle_alpha   156.78936836
_cell_angle_beta   156.70087485
_cell_angle_gamma   33.12140454
_symmetry_Int_Tables_number   1
_chemical_formula_structural   Sr2TaCu2O7
_chemical_formula_sum   'Sr4 Ta2 Cu4 O14'
_cell_volume   385.16739815
_cell_formula_units_Z   2
loop_
 _symmetry_equiv_pos_site_id
 _symmetry_equiv_pos_as_xyz
  1  'x, y, z'
loop_
 _atom_site_type_symbol
 _atom_site_label
 _atom_site_symmetry_multiplicity
 _atom_site_fract_x
 _atom_site_fract_y
 _atom_site_fract_z
 _atom_site_occupancy
  Sr  Sr0  1  0.64451300  0.14200300  0.53036900  1
  Sr  Sr1  1  0.38836600  0.85799700  0.50251000  1
  Sr  Sr2  1  0.14451300  0.61414400  0.50251000  1
  Sr  Sr3  1  0.88836600  0.38585600  0.53036900  1
  Ta  Ta0  1  0.68732800  0.83215600  0.01948400  1
  Ta  Ta1  1  0.18732800  0.16784400  0.85517200  1
  Cu  Cu0  1  0.08203100  0.05681500  0.01765300  1
  Cu  Cu1  1  0.96083800  0.94318500  0.02521600  1
  Cu  Cu2  1  0.58203100  0.56437800  0.02521600  1
  Cu  Cu3  1  0.46083800  0.43562200  0.01765300  1
  O  O0  1  0.82768600  0.16005700  0.48774300  1
  O  O1  1  0.32768600  0.83994300  0.66762900  1
  O  O2  1  0.84391600  0.32230900  0.02044600  1
  O  O3  1  0.69813700  0.67769100  0.52160700  1
  O  O4  1  0.34391600  0.32347000  0.52160700  1
  O  O5  1  0.19813700  0.67653000  0.02044600  1
  O  O6  1  0.34810000  0.82612000  0.01981000  1
  O  O7  1  0.19369000  0.17388000  0.52198000  1
  O  O8  1  0.84810000  0.82829000  0.52198000  1
  O  O9  1  0.69369000  0.17171000  0.01981000  1
  O  O10  1  0.75453300  0.64223000  0.01402000  1
  O  O11  1  0.37179100  0.35777000  0.11230300  1
  O  O12  1  0.25453300  0.24051300  0.11230300  1
  O  O13  1  0.87179100  0.75948700  0.01402000  1
loop_
_geom_bond_atom_site_label_1
_geom_bond_atom_site_label_2
_geom_bond_distance
_geom_bond_site_symmetry_2
Cu0 O8 1.958689 1_444
Cu0 O6 1.962652 1_545
Cu0 O2 1.967152 1_455
Cu0 O4 1.968492 1_555
Cu1 O9 1.958689 1_565
Cu1 O7 1.962652 1_665
Cu1 O3 1.967152 1_554
Cu1 O5 1.968492 1_655
Cu2 O6 1.958689 1_555
Cu2 O8 1.962652 1_555
Cu2 O4 1.967152 1_554
Cu2 O2 1.968492 1_555
Cu3 O7 1.958689 1_554
Cu3 O9 1.962652 1_555
Cu3 O5 1.967152 1_555
Cu3 O3 1.968492 1_555
O0 Ta0 1.941779 1_545
O0 Ta1 1.964587 1_655
O0 Sr0 3.228381 1_555
O0 Sr3 3.228381 1_555
O1 Ta1 1.941779 1_565
O1 Ta0 1.964587 1_556
O1 Sr1 3.228381 1_555
O1 Sr2 3.228381 1_555
O2 Sr2 2.345404 1_655
O2 Sr0 2.370972 1_554
O3 Sr3 2.345404 1_555
O3 Sr1 2.370972 1_555
O4 Sr0 2.345404 1_555
O4 Sr2 2.370972 1_555
O5 Sr1 2.345404 1_555
O5 Sr3 2.370972 1_454
O6 Sr0 2.369912 1_565
O6 Sr2 2.390703 1_554
O7 Sr1 2.369912 1_545
O7 Sr3 2.390703 1_455
O8 Sr2 2.369912 1_655
O8 Sr0 2.390703 1_565
O9 Sr3 2.369912 1_555
O9 Sr1 2.390703 1_544
O10 Ta0 1.814590 1_555
O10 Sr0 2.899888 1_554
O10 Sr2 2.976175 1_655
O11 Ta1 1.814601 1_554
O11 Sr1 2.899884 1_555
O11 Sr3 2.976166 1_555
O12 Ta1 1.814590 1_554
O12 Sr2 2.899888 1_555
O12 Sr0 2.976175 1_555
O13 Ta0 1.814603 1_555
O13 Sr3 2.899879 1_554
O13 Sr1 2.976166 1_655
