# generated using pymatgen
data_RhPb2F7
_symmetry_space_group_name_H-M   'P 1'
_cell_length_a   11.84330728
_cell_length_b   5.57488708
_cell_length_c   8.81216704
_cell_angle_alpha   89.33325684
_cell_angle_beta   90.00000000
_cell_angle_gamma   90.00000000
_symmetry_Int_Tables_number   1
_chemical_formula_structural   RhPb2F7
_chemical_formula_sum   'Rh4 Pb8 F28'
_cell_volume   581.78482254
_cell_formula_units_Z   4
loop_
 _symmetry_equiv_pos_site_id
 _symmetry_equiv_pos_as_xyz
  1  'x, y, z'
loop_
 _atom_site_type_symbol
 _atom_site_label
 _atom_site_symmetry_multiplicity
 _atom_site_fract_x
 _atom_site_fract_y
 _atom_site_fract_z
 _atom_site_occupancy
  Rh  Rh0  1  0.63219420  0.30422690  0.31559803  1
  Rh  Rh1  1  0.13219420  0.69577310  0.18440197  1
  Rh  Rh2  1  0.36780580  0.69577310  0.68440197  1
  Rh  Rh3  1  0.86780580  0.30422690  0.81559803  1
  Pb  Pb0  1  0.94408530  0.23317452  0.34847320  1
  Pb  Pb1  1  0.44408530  0.76682548  0.15152680  1
  Pb  Pb2  1  0.05591470  0.76682548  0.65152680  1
  Pb  Pb3  1  0.55591470  0.23317452  0.84847320  1
  Pb  Pb4  1  0.79389053  0.78045823  0.04975186  1
  Pb  Pb5  1  0.29389053  0.21954177  0.45024814  1
  Pb  Pb6  1  0.20610947  0.21954177  0.95024814  1
  Pb  Pb7  1  0.70610947  0.78045823  0.54975186  1
  F  F0  1  0.77605272  0.00658191  0.77727035  1
  F  F1  1  0.27605272  0.99341809  0.72272965  1
  F  F2  1  0.22394728  0.99341809  0.22272965  1
  F  F3  1  0.72394728  0.00658191  0.27727035  1
  F  F4  1  0.76945715  0.51251469  0.31135128  1
  F  F5  1  0.26945715  0.48748531  0.18864872  1
  F  F6  1  0.23054285  0.48748531  0.68864872  1
  F  F7  1  0.73054285  0.51251469  0.81135128  1
  F  F8  1  0.33385832  0.78701606  0.47097964  1
  F  F9  1  0.83385832  0.21298394  0.02902036  1
  F  F10  1  0.66614168  0.21298394  0.52902036  1
  F  F11  1  0.16614168  0.78701606  0.97097964  1
  F  F12  1  0.39528708  0.10795156  0.99266965  1
  F  F13  1  0.89528708  0.89204844  0.50733035  1
  F  F14  1  0.60471292  0.89204844  0.00733035  1
  F  F15  1  0.10471292  0.10795156  0.49266965  1
  F  F16  1  0.49000364  0.11416702  0.31736639  1
  F  F17  1  0.99000364  0.88583298  0.18263361  1
  F  F18  1  0.50999636  0.88583298  0.68263361  1
  F  F19  1  0.00999636  0.11416702  0.81736639  1
  F  F20  1  0.44872457  0.40142900  0.62848824  1
  F  F21  1  0.94872457  0.59857100  0.87151176  1
  F  F22  1  0.55127543  0.59857100  0.37151176  1
  F  F23  1  0.05127543  0.40142900  0.12848824  1
  F  F24  1  0.40109627  0.58530770  0.89613564  1
  F  F25  1  0.90109627  0.41469230  0.60386436  1
  F  F26  1  0.59890373  0.41469230  0.10386436  1
  F  F27  1  0.09890373  0.58530770  0.39613564  1
loop_
_geom_bond_atom_site_label_1
_geom_bond_atom_site_label_2
_geom_bond_distance
_geom_bond_site_symmetry_2
F0 Rh3 2.015279 1_555
F0 Pb7 2.520694 1_545
F0 Pb4 2.707188 1_546
F1 Rh2 2.015279 1_555
F1 Pb6 2.520694 1_565
F1 Pb5 2.707188 1_565
F2 Rh1 2.015279 1_555
F2 Pb5 2.520694 1_565
F2 Pb6 2.707188 1_564
F3 Rh0 2.015279 1_555
F3 Pb4 2.520694 1_545
F3 Pb7 2.707188 1_545
F4 Rh0 1.997864 1_555
F4 Pb0 2.607231 1_555
F4 Pb7 2.698273 1_555
F4 Pb4 2.747565 1_555
F5 Rh1 1.997864 1_555
F5 Pb1 2.607231 1_555
F5 Pb6 2.698273 1_554
F5 Pb5 2.747565 1_555
F6 Rh2 1.997864 1_555
F6 Pb2 2.607231 1_555
F6 Pb5 2.698273 1_555
F6 Pb6 2.747565 1_555
F7 Rh3 1.997864 1_555
F7 Pb3 2.607231 1_555
F7 Pb4 2.698273 1_556
F7 Pb7 2.747565 1_555
F8 Rh2 1.983736 1_555
F8 Pb5 2.462004 1_565
F9 Rh3 1.983736 1_554
F9 Pb4 2.462004 1_545
F10 Rh0 1.983736 1_555
F10 Pb7 2.462004 1_545
F11 Rh1 1.983736 1_556
F11 Pb6 2.462004 1_565
F12 Pb6 2.353961 1_555
F12 Pb3 2.387535 1_555
F12 Pb1 2.418328 1_546
F13 Pb7 2.353961 1_555
F13 Pb2 2.387535 1_655
F13 Pb0 2.418328 1_565
F14 Pb4 2.353961 1_555
F14 Pb1 2.387535 1_555
F14 Pb3 2.418328 1_564
F15 Pb5 2.353961 1_555
F15 Pb0 2.387535 1_455
F15 Pb2 2.418328 1_545
F16 Rh0 1.989575 1_555
F16 Pb1 2.499384 1_545
F16 Pb5 2.669624 1_555
F17 Rh1 1.989575 1_655
F17 Pb0 2.499384 1_565
F17 Pb4 2.669624 1_555
F18 Rh2 1.989575 1_555
F18 Pb3 2.499384 1_565
F18 Pb7 2.669624 1_555
F19 Rh3 1.989575 1_455
F19 Pb2 2.499384 1_545
F19 Pb6 2.669624 1_555
F20 Rh2 1.967914 1_555
F20 Pb3 2.491400 1_555
F20 Pb5 2.625820 1_555
F21 Rh3 1.967914 1_555
F21 Pb2 2.491400 1_655
F21 Pb4 2.625820 1_556
F22 Rh0 1.967914 1_555
F22 Pb1 2.491400 1_555
F22 Pb7 2.625820 1_555
F23 Rh1 1.967914 1_555
F23 Pb0 2.491400 1_455
F23 Pb6 2.625820 1_554
F24 Rh2 1.997320 1_555
F24 Pb1 2.530063 1_556
F24 Pb3 2.722374 1_555
F25 Rh3 1.997320 1_555
F25 Pb0 2.530063 1_555
F25 Pb2 2.722374 1_655
F26 Rh0 1.997320 1_555
F26 Pb3 2.530063 1_554
F26 Pb1 2.722374 1_555
F27 Rh1 1.997320 1_555
F27 Pb2 2.530063 1_555
F27 Pb0 2.722374 1_455
