# generated using pymatgen
data_BNF8
_symmetry_space_group_name_H-M   'P 1'
_cell_length_a   5.05219763
_cell_length_b   9.55045961
_cell_length_c   9.81547250
_cell_angle_alpha   90.00000000
_cell_angle_beta   90.00000000
_cell_angle_gamma   90.00000000
_symmetry_Int_Tables_number   1
_chemical_formula_structural   BNF8
_chemical_formula_sum   'B4 N4 F32'
_cell_volume   473.60449284
_cell_formula_units_Z   4
loop_
 _symmetry_equiv_pos_site_id
 _symmetry_equiv_pos_as_xyz
  1  'x, y, z'
loop_
 _atom_site_type_symbol
 _atom_site_label
 _atom_site_symmetry_multiplicity
 _atom_site_fract_x
 _atom_site_fract_y
 _atom_site_fract_z
 _atom_site_occupancy
  B  B0  1  0.89980152  0.25000000  0.01137792  1
  B  B1  1  0.10019848  0.75000000  0.98862208  1
  B  B2  1  0.89980152  0.75000000  0.48862208  1
  B  B3  1  0.10019848  0.25000000  0.51137792  1
  N  N0  1  0.47392323  -0.00000000  0.75000000  1
  N  N1  1  0.52607677  0.50000000  0.25000000  1
  N  N2  1  0.52607677  -0.00000000  0.25000000  1
  N  N3  1  0.47392323  0.50000000  0.75000000  1
  F  F0  1  0.32185935  0.06250335  0.84196829  1
  F  F1  1  0.67814065  0.56250335  0.15803171  1
  F  F2  1  0.32185935  0.93749665  0.65803171  1
  F  F3  1  0.67814065  0.43749665  0.34196829  1
  F  F4  1  0.67814065  0.93749665  0.15803171  1
  F  F5  1  0.32185935  0.43749665  0.84196829  1
  F  F6  1  0.67814065  0.06250335  0.34196829  1
  F  F7  1  0.32185935  0.56250335  0.65803171  1
  F  F8  1  0.62569506  0.90587009  0.81199890  1
  F  F9  1  0.37430494  0.40587009  0.18800110  1
  F  F10  1  0.62569506  0.09412991  0.68800110  1
  F  F11  1  0.37430494  0.59412991  0.31199890  1
  F  F12  1  0.37430494  0.09412991  0.18800110  1
  F  F13  1  0.62569506  0.59412991  0.81199890  1
  F  F14  1  0.37430494  0.90587009  0.31199890  1
  F  F15  1  0.62569506  0.40587009  0.68800110  1
  F  F16  1  0.80252206  0.37048478  0.94649962  1
  F  F17  1  0.19747794  0.87048478  0.05350038  1
  F  F18  1  0.80252206  0.62951522  0.55350038  1
  F  F19  1  0.19747794  0.12951522  0.44649962  1
  F  F20  1  0.19747794  0.62951522  0.05350038  1
  F  F21  1  0.80252206  0.12951522  0.94649962  1
  F  F22  1  0.19747794  0.37048478  0.44649962  1
  F  F23  1  0.80252206  0.87048478  0.55350038  1
  F  F24  1  0.81919428  0.25000000  0.14913709  1
  F  F25  1  0.18080572  0.75000000  0.85086291  1
  F  F26  1  0.81919428  0.75000000  0.35086291  1
  F  F27  1  0.18080572  0.25000000  0.64913709  1
  F  F28  1  0.17825952  0.25000000  0.00705506  1
  F  F29  1  0.82174048  0.75000000  0.99294494  1
  F  F30  1  0.17825952  0.75000000  0.49294494  1
  F  F31  1  0.82174048  0.25000000  0.50705506  1
loop_
_geom_bond_atom_site_label_1
_geom_bond_atom_site_label_2
_geom_bond_distance
_geom_bond_site_symmetry_2
B0 F21 1.403977 1_554
B0 F16 1.403977 1_554
B0 F28 1.407465 1_655
B0 F24 1.412167 1_555
B1 F20 1.403977 1_556
B1 F17 1.403977 1_556
B1 F29 1.407465 1_455
B1 F25 1.412167 1_555
B2 F18 1.403977 1_555
B2 F23 1.403977 1_555
B2 F30 1.407465 1_655
B2 F26 1.412167 1_555
B3 F19 1.403977 1_555
B3 F22 1.403977 1_555
B3 F31 1.407465 1_455
B3 F27 1.412167 1_555
F0 N0 1.327193 1_555
F1 N1 1.327193 1_555
F2 N0 1.327193 1_565
F3 N1 1.327193 1_555
F4 N2 1.327193 1_565
F5 N3 1.327193 1_555
F6 N2 1.327193 1_555
F7 N3 1.327193 1_555
F8 N0 1.329081 1_565
F9 N1 1.329081 1_555
F10 N0 1.329081 1_555
F11 N1 1.329081 1_555
F12 N2 1.329081 1_555
F13 N3 1.329081 1_555
F14 N2 1.329081 1_565
F15 N3 1.329081 1_555
