# generated using pymatgen
data_CaFeAsF
_symmetry_space_group_name_H-M   'P 1'
_cell_length_a   3.93333600
_cell_length_b   3.98127600
_cell_length_c   9.01891800
_cell_angle_alpha   90.00000000
_cell_angle_beta   90.00000000
_cell_angle_gamma   90.00000000
_symmetry_Int_Tables_number   1
_chemical_formula_structural   CaFeAsF
_chemical_formula_sum   'Ca2 Fe2 As2 F2'
_cell_volume   141.23351608
_cell_formula_units_Z   2
loop_
 _symmetry_equiv_pos_site_id
 _symmetry_equiv_pos_as_xyz
  1  'x, y, z'
loop_
 _atom_site_type_symbol
 _atom_site_label
 _atom_site_symmetry_multiplicity
 _atom_site_fract_x
 _atom_site_fract_y
 _atom_site_fract_z
 _atom_site_occupancy
  Ca  Ca0  1  0.50000000  0.00000000  0.14409500  1
  Ca  Ca1  1  0.00000000  0.50000000  0.85590500  1
  Fe  Fe0  1  0.50000000  0.50000000  0.49185700  1
  Fe  Fe1  1  0.00000000  0.00000000  0.50814300  1
  As  As0  1  0.50000000  0.00000000  0.68090000  1
  As  As1  1  0.00000000  0.50000000  0.31910000  1
  F  F0  1  0.50000000  0.50000000  0.00054900  1
  F  F1  1  0.00000000  0.00000000  0.99945100  1
loop_
_geom_bond_atom_site_label_1
_geom_bond_atom_site_label_2
_geom_bond_distance
_geom_bond_site_symmetry_2
Ca0 F1 2.359997 1_654
Ca0 F1 2.359997 1_554
Ca0 F0 2.374596 1_545
Ca0 F0 2.374596 1_555
Ca1 F0 2.359997 1_556
Ca1 F0 2.359997 1_456
Ca1 F1 2.374596 1_555
Ca1 F1 2.374596 1_565
As0 Fe1 2.509064 1_555
As0 Fe1 2.509064 1_655
As0 Fe0 2.620981 1_545
As0 Fe0 2.620981 1_555
As0 Ca1 3.212729 1_555
As0 Ca1 3.212729 1_655
As0 Ca1 3.212729 1_645
As0 Ca1 3.212729 1_545
As1 Fe0 2.509064 1_455
As1 Fe0 2.509064 1_555
As1 Fe1 2.620981 1_555
As1 Fe1 2.620981 1_565
As1 Ca0 3.212729 1_565
As1 Ca0 3.212729 1_455
As1 Ca0 3.212729 1_555
As1 Ca0 3.212729 1_465
