# generated using pymatgen
data_K3(FeO2)4
_symmetry_space_group_name_H-M   'P 1'
_cell_length_a   6.21647100
_cell_length_b   6.21647100
_cell_length_c   7.97628400
_cell_angle_alpha   90.00000000
_cell_angle_beta   90.00000000
_cell_angle_gamma   90.00000000
_symmetry_Int_Tables_number   1
_chemical_formula_structural   K3(FeO2)4
_chemical_formula_sum   'K3 Fe4 O8'
_cell_volume   308.23960031
_cell_formula_units_Z   1
loop_
 _symmetry_equiv_pos_site_id
 _symmetry_equiv_pos_as_xyz
  1  'x, y, z'
loop_
 _atom_site_type_symbol
 _atom_site_label
 _atom_site_symmetry_multiplicity
 _atom_site_fract_x
 _atom_site_fract_y
 _atom_site_fract_z
 _atom_site_occupancy
  K  K0  1  0.00000000  0.00000000  0.50000000  1
  K  K1  1  0.50000000  0.00000000  0.20719300  1
  K  K2  1  0.00000000  0.50000000  0.79280700  1
  Fe  Fe0  1  0.50000000  0.50000000  0.50000000  1
  Fe  Fe1  1  0.00000000  0.00000000  0.00000000  1
  Fe  Fe2  1  0.50000000  0.00000000  0.74309800  1
  Fe  Fe3  1  0.00000000  0.50000000  0.25690200  1
  O  O0  1  0.76693600  0.50000000  0.40375300  1
  O  O1  1  0.24266800  0.00000000  0.86155100  1
  O  O2  1  0.75733200  0.00000000  0.86155100  1
  O  O3  1  0.23306400  0.50000000  0.40375300  1
  O  O4  1  0.50000000  0.23306400  0.59624700  1
  O  O5  1  0.00000000  0.75733200  0.13844900  1
  O  O6  1  0.50000000  0.76693600  0.59624700  1
  O  O7  1  0.00000000  0.24266800  0.13844900  1
loop_
_geom_bond_atom_site_label_1
_geom_bond_atom_site_label_2
_geom_bond_distance
_geom_bond_site_symmetry_2
K0 O2 3.254564 1_455
K0 O1 3.254564 1_555
K0 O7 3.254564 1_555
K0 O5 3.254564 1_545
K1 O2 3.187435 1_554
K1 O1 3.187435 1_554
K2 O7 3.187435 1_556
K2 O5 3.187435 1_556
Fe0 O6 1.828377 1_555
Fe0 O4 1.828377 1_555
Fe0 O0 1.828377 1_555
Fe0 O3 1.828377 1_555
Fe1 O5 1.869542 1_545
Fe1 O7 1.869542 1_555
Fe1 O1 1.869542 1_554
Fe1 O2 1.869542 1_454
Fe2 O2 1.857877 1_555
Fe2 O1 1.857877 1_555
Fe2 O4 1.863096 1_555
Fe2 O6 1.863096 1_545
Fe3 O5 1.857877 1_555
Fe3 O7 1.857877 1_555
Fe3 O0 1.863096 1_455
Fe3 O3 1.863096 1_555
