# generated using pymatgen
data_K4NaNb5O15
_symmetry_space_group_name_H-M   'P 1'
_cell_length_a   4.01148100
_cell_length_b   5.78992600
_cell_length_c   29.13265568
_cell_angle_alpha   89.24957649
_cell_angle_beta   90.00000000
_cell_angle_gamma   90.00000000
_symmetry_Int_Tables_number   1
_chemical_formula_structural   K4NaNb5O15
_chemical_formula_sum   'K8 Na2 Nb10 O30'
_cell_volume   676.58221574
_cell_formula_units_Z   2
loop_
 _symmetry_equiv_pos_site_id
 _symmetry_equiv_pos_as_xyz
  1  'x, y, z'
loop_
 _atom_site_type_symbol
 _atom_site_label
 _atom_site_symmetry_multiplicity
 _atom_site_fract_x
 _atom_site_fract_y
 _atom_site_fract_z
 _atom_site_occupancy
  K  K0  1  0.00000000  0.50668200  0.40413600  1
  K  K1  1  0.00000000  0.50646500  0.60460300  1
  K  K2  1  0.00000000  0.50646800  0.80501400  1
  K  K3  1  0.00000000  0.99518500  0.10425700  1
  K  K4  1  0.00000000  0.99707900  0.30392500  1
  K  K5  1  0.00000000  0.99664200  0.50443000  1
  K  K6  1  0.00000000  0.99663000  0.70474300  1
  K  K7  1  0.00000000  0.99494200  0.90486800  1
  Na  Na0  1  0.00000000  0.51617700  0.00887100  1
  Na  Na1  1  0.00000000  0.51661000  0.20850500  1
  Nb  Nb0  1  0.50000000  0.00791000  0.00728700  1
  Nb  Nb1  1  0.50000000  0.00892500  0.20619900  1
  Nb  Nb2  1  0.50000000  0.00674100  0.40681700  1
  Nb  Nb3  1  0.50000000  0.00642900  0.60740400  1
  Nb  Nb4  1  0.50000000  0.00580900  0.80791100  1
  Nb  Nb5  1  0.50000000  0.49945500  0.10715000  1
  Nb  Nb6  1  0.50000000  0.50205600  0.30581500  1
  Nb  Nb7  1  0.50000000  0.50088600  0.50723900  1
  Nb  Nb8  1  0.50000000  0.50044900  0.70759000  1
  Nb  Nb9  1  0.50000000  0.49809400  0.90878300  1
  O  O0  1  0.00000000  0.49888800  0.09773600  1
  O  O1  1  0.00000000  0.49872300  0.29660200  1
  O  O2  1  0.00000000  0.49890600  0.49918600  1
  O  O3  1  0.00000000  0.49880200  0.69938200  1
  O  O4  1  0.00000000  0.49910500  0.90048000  1
  O  O5  1  0.00000000  0.99720700  0.99985200  1
  O  O6  1  0.00000000  0.99794600  0.19912900  1
  O  O7  1  0.00000000  0.00260400  0.39887800  1
  O  O8  1  0.00000000  0.00240900  0.59928100  1
  O  O9  1  0.00000000  0.00191000  0.79963800  1
  O  O10  1  0.50000000  0.26958300  0.04532900  1
  O  O11  1  0.50000000  0.26960000  0.24462700  1
  O  O12  1  0.50000000  0.25626300  0.44747500  1
  O  O13  1  0.50000000  0.25643700  0.64790500  1
  O  O14  1  0.50000000  0.25636800  0.84821400  1
  O  O15  1  0.50000000  0.23237300  0.14608200  1
  O  O16  1  0.50000000  0.24227600  0.34675500  1
  O  O17  1  0.50000000  0.24164000  0.54782900  1
  O  O18  1  0.50000000  0.24135900  0.74818600  1
  O  O19  1  0.50000000  0.23178200  0.94737500  1
  O  O20  1  0.50000000  0.76940100  0.05328500  1
  O  O21  1  0.50000000  0.76946600  0.25188300  1
  O  O22  1  0.50000000  0.76438100  0.45146200  1
  O  O23  1  0.50000000  0.76388400  0.65189500  1
  O  O24  1  0.50000000  0.76418200  0.85291500  1
  O  O25  1  0.50000000  0.72194000  0.15372000  1
  O  O26  1  0.50000000  0.73273400  0.35092000  1
  O  O27  1  0.50000000  0.73387900  0.55164300  1
  O  O28  1  0.50000000  0.73365900  0.75201300  1
  O  O29  1  0.50000000  0.72266100  0.95477300  1
loop_
_geom_bond_atom_site_label_1
_geom_bond_atom_site_label_2
_geom_bond_distance
_geom_bond_site_symmetry_2
K0 O2 2.768835 1_555
K0 O12 2.769726 1_555
K0 O12 2.769726 1_455
K0 O26 2.843654 1_455
K0 O26 2.843654 1_555
K0 O22 2.864266 1_455
K0 O22 2.864266 1_555
K0 O7 2.873431 1_565
K0 O7 2.924594 1_555
K0 O16 3.037780 1_555
K0 O16 3.037780 1_455
K0 O1 3.133693 1_555
K1 O3 2.760939 1_555
K1 O13 2.768071 1_455
K1 O13 2.768071 1_555
K1 O27 2.843227 1_455
K1 O27 2.843227 1_555
K1 O23 2.862928 1_455
K1 O23 2.862928 1_555
K1 O8 2.873633 1_565
K1 O8 2.924589 1_555
K1 O17 3.029212 1_555
K1 O17 3.029212 1_455
K1 O2 3.071962 1_555
K2 O14 2.766954 1_455
K2 O14 2.766954 1_555
K2 O4 2.780946 1_555
K2 O28 2.843280 1_455
K2 O28 2.843280 1_555
K2 O9 2.870796 1_565
K2 O24 2.872526 1_555
K2 O24 2.872526 1_455
K2 O9 2.927596 1_555
K2 O18 3.030926 1_455
K2 O18 3.030926 1_555
K2 O3 3.078242 1_555
K3 O15 2.727170 1_465
K3 O15 2.727170 1_565
K3 O6 2.764129 1_555
K3 O20 2.826284 1_555
K3 O20 2.826284 1_455
K3 O0 2.882277 1_555
K3 O0 2.920100 1_565
K3 O25 2.922784 1_455
K3 O25 2.922784 1_555
K3 O5 3.041464 1_554
K3 O10 3.069661 1_565
K3 O10 3.069661 1_465
K4 O16 2.764371 1_465
K4 O16 2.764371 1_565
K4 O7 2.766837 1_565
K4 O21 2.847932 1_455
K4 O21 2.847932 1_555
K4 O26 2.860954 1_455
K4 O26 2.860954 1_555
K4 O1 2.896105 1_555
K4 O1 2.909518 1_565
K4 O6 3.052924 1_555
K4 O11 3.070110 1_465
K4 O11 3.070110 1_565
K5 O8 2.763901 1_565
K5 O17 2.771407 1_565
K5 O17 2.771407 1_465
K5 O27 2.859127 1_455
K5 O27 2.859127 1_555
K5 O22 2.875225 1_555
K5 O22 2.875225 1_455
K5 O2 2.887898 1_555
K5 O2 2.910083 1_565
K5 O12 2.995053 1_565
K5 O12 2.995053 1_465
K5 O7 3.074752 1_565
K6 O9 2.765113 1_565
K6 O18 2.771195 1_465
K6 O18 2.771195 1_565
K6 O28 2.860548 1_455
K6 O28 2.860548 1_555
K6 O23 2.874664 1_455
K6 O23 2.874664 1_555
K6 O3 2.888657 1_555
K6 O3 2.909687 1_565
K6 O13 2.993722 1_465
K6 O13 2.993722 1_565
K6 O8 3.072132 1_565
K7 O19 2.735213 1_465
K7 O19 2.735213 1_565
K7 O5 2.767339 1_555
K7 O24 2.855145 1_555
K7 O24 2.855145 1_455
K7 O4 2.875376 1_555
K7 O4 2.920191 1_565
K7 O29 2.926088 1_455
K7 O29 2.926088 1_555
K7 O14 2.995454 1_465
K7 O14 2.995454 1_565
K7 O9 3.065366 1_565
Na0 O0 2.589498 1_555
Na0 O10 2.673924 1_455
Na0 O10 2.673924 1_555
Na0 O5 2.794066 1_554
Na0 O29 2.808338 1_454
Na0 O29 2.808338 1_554
Na0 O20 2.810062 1_455
Na0 O20 2.810062 1_555
Na1 O1 2.567233 1_555
Na1 O11 2.671396 1_455
Na1 O11 2.671396 1_555
Na1 O21 2.794957 1_555
Na1 O21 2.794957 1_455
Na1 O6 2.796691 1_555
Na1 O25 2.816730 1_455
Na1 O25 2.816730 1_555
Nb0 O10 1.888825 1_555
Nb0 O20 1.911614 1_545
Nb0 O5 2.018441 1_644
Nb0 O5 2.018441 1_544
Nb0 O19 2.160390 1_554
Nb0 O29 2.265917 1_544
Nb1 O11 1.890903 1_555
Nb1 O21 1.909239 1_545
Nb1 O6 2.017375 1_645
Nb1 O6 2.017375 1_545
Nb1 O15 2.163728 1_555
Nb1 O25 2.272646 1_545
Nb2 O12 1.880161 1_555
Nb2 O22 1.900770 1_545
Nb2 O7 2.019209 1_655
Nb2 O7 2.019209 1_555
Nb2 O16 2.204299 1_555
Nb2 O26 2.288311 1_545
Nb3 O13 1.879426 1_555
Nb3 O23 1.898529 1_545
Nb3 O8 2.019822 1_655
Nb3 O8 2.019822 1_555
Nb3 O17 2.192023 1_555
Nb3 O27 2.279531 1_545
Nb4 O14 1.878241 1_555
Nb4 O24 1.904760 1_545
Nb4 O9 2.020330 1_555
Nb4 O9 2.020330 1_655
Nb4 O18 2.196647 1_555
Nb4 O28 2.280791 1_545
Nb5 O25 1.883035 1_555
Nb5 O15 1.905717 1_555
Nb5 O0 2.024412 1_555
Nb5 O0 2.024412 1_655
Nb5 O20 2.200251 1_555
Nb5 O10 2.253404 1_555
Nb6 O26 1.885866 1_555
Nb6 O16 1.907317 1_555
Nb6 O1 2.023744 1_555
Nb6 O1 2.023744 1_655
Nb6 O21 2.191364 1_555
Nb6 O11 2.247632 1_555
Nb7 O27 1.881213 1_555
Nb7 O17 1.898643 1_555
Nb7 O2 2.019464 1_555
Nb7 O2 2.019464 1_655
Nb7 O22 2.214266 1_555
Nb7 O12 2.258763 1_555
Nb8 O28 1.882511 1_555
Nb8 O18 1.898044 1_555
Nb8 O3 2.019981 1_555
Nb8 O3 2.019981 1_655
Nb8 O23 2.212299 1_555
Nb8 O13 2.254717 1_555
Nb9 O29 1.879179 1_555
Nb9 O19 1.896352 1_555
Nb9 O4 2.020273 1_555
Nb9 O4 2.020273 1_655
Nb9 O24 2.226406 1_555
Nb9 O14 2.266514 1_555
