# generated using pymatgen
data_LiBi3PbWClO8
_symmetry_space_group_name_H-M   'P 1'
_cell_length_a   3.98170800
_cell_length_b   3.98170800
_cell_length_c   14.99345900
_cell_angle_alpha   90.00000000
_cell_angle_beta   90.00000000
_cell_angle_gamma   90.00000000
_symmetry_Int_Tables_number   1
_chemical_formula_structural   LiBi3PbWClO8
_chemical_formula_sum   'Li1 Bi3 Pb1 W1 Cl1 O8'
_cell_volume   237.70627795
_cell_formula_units_Z   1
loop_
 _symmetry_equiv_pos_site_id
 _symmetry_equiv_pos_as_xyz
  1  'x, y, z'
loop_
 _atom_site_type_symbol
 _atom_site_label
 _atom_site_symmetry_multiplicity
 _atom_site_fract_x
 _atom_site_fract_y
 _atom_site_fract_z
 _atom_site_occupancy
  Li  Li0  1  0.50000000  0.50000000  0.32549300  1
  Bi  Bi0  1  0.50000000  0.50000000  0.14156200  1
  Bi  Bi1  1  0.00000000  0.00000000  0.36442100  1
  Bi  Bi2  1  0.00000000  0.00000000  0.63391900  1
  Pb  Pb0  1  0.50000000  0.50000000  0.80018500  1
  W  W0  1  0.00000000  0.00000000  0.00514000  1
  Cl  Cl0  1  0.50000000  0.50000000  0.49539900  1
  O  O0  1  0.00000000  0.00000000  0.14293300  1
  O  O1  1  0.50000000  0.00000000  0.02975900  1
  O  O2  1  0.00000000  0.50000000  0.02975900  1
  O  O3  1  0.00000000  0.00000000  0.88335600  1
  O  O4  1  0.50000000  0.00000000  0.70527300  1
  O  O5  1  0.00000000  0.50000000  0.70527300  1
  O  O6  1  0.50000000  0.00000000  0.29689800  1
  O  O7  1  0.00000000  0.50000000  0.29689800  1
loop_
_geom_bond_atom_site_label_1
_geom_bond_atom_site_label_2
_geom_bond_distance
_geom_bond_site_symmetry_2
Li0 O7 2.036496 1_555
Li0 O7 2.036496 1_655
Li0 O6 2.036496 1_555
Li0 O6 2.036496 1_565
Bi0 O1 2.602600 1_555
Bi0 O2 2.602600 1_555
Bi0 O2 2.602600 1_655
Bi0 O1 2.602600 1_565
Bi0 Li0 2.757762 1_555
Bi0 O0 2.815568 1_565
Bi0 O0 2.815568 1_665
Bi0 O0 2.815568 1_655
Bi0 O0 2.815568 1_555
Bi1 O7 2.233486 1_555
Bi1 O6 2.233486 1_555
Bi1 O6 2.233486 1_455
Bi1 O7 2.233486 1_545
Bi2 O4 2.260103 1_555
Bi2 O5 2.260103 1_555
Bi2 O4 2.260103 1_455
Bi2 O5 2.260103 1_545
Cl0 Li0 2.547479 1_555
O0 W0 2.065994 1_555
O1 W0 2.024784 1_555
O1 W0 2.024784 1_655
O2 W0 2.024784 1_555
O2 W0 2.024784 1_565
O3 W0 1.825963 1_556
O4 Pb0 2.447161 1_555
O4 Pb0 2.447161 1_545
O5 Pb0 2.447161 1_555
O5 Pb0 2.447161 1_455
