# generated using pymatgen
data_V2Fe(PO4)3
_symmetry_space_group_name_H-M   'P 1'
_cell_length_a   8.55074883
_cell_length_b   8.55074883
_cell_length_c   8.55074875
_cell_angle_alpha   60.76830636
_cell_angle_beta   60.76830636
_cell_angle_gamma   60.76831196
_symmetry_Int_Tables_number   1
_chemical_formula_structural   V2Fe(PO4)3
_chemical_formula_sum   'V4 Fe2 P6 O24'
_cell_volume   449.73902355
_cell_formula_units_Z   2
loop_
 _symmetry_equiv_pos_site_id
 _symmetry_equiv_pos_as_xyz
  1  'x, y, z'
loop_
 _atom_site_type_symbol
 _atom_site_label
 _atom_site_symmetry_multiplicity
 _atom_site_fract_x
 _atom_site_fract_y
 _atom_site_fract_z
 _atom_site_occupancy
  V  V0  1  0.64272500  0.64272500  0.64272500  1
  V  V1  1  0.14272500  0.14272500  0.14272500  1
  V  V2  1  0.85727500  0.85727500  0.85727500  1
  V  V3  1  0.35727500  0.35727500  0.35727500  1
  Fe  Fe0  1  0.00000000  0.00000000  0.00000000  1
  Fe  Fe1  1  0.50000000  0.50000000  0.50000000  1
  P  P0  1  0.95844800  0.25000000  0.54155200  1
  P  P1  1  0.54155200  0.95844800  0.25000000  1
  P  P2  1  0.25000000  0.54155200  0.95844800  1
  P  P3  1  0.75000000  0.45844800  0.04155200  1
  P  P4  1  0.45844800  0.04155200  0.75000000  1
  P  P5  1  0.04155200  0.75000000  0.45844800  1
  O  O0  1  0.50537200  0.11864900  0.30920000  1
  O  O1  1  0.30920000  0.50537200  0.11864900  1
  O  O2  1  0.11864900  0.30920000  0.50537200  1
  O  O3  1  0.94193400  0.08736300  0.73726200  1
  O  O4  1  0.99462800  0.19080000  0.38135100  1
  O  O5  1  0.76273800  0.41263700  0.55806600  1
  O  O6  1  0.73726200  0.94193400  0.08736300  1
  O  O7  1  0.55806600  0.76273800  0.41263700  1
  O  O8  1  0.80920000  0.61864900  0.00537200  1
  O  O9  1  0.41263700  0.55806600  0.76273800  1
  O  O10  1  0.91263700  0.26273800  0.05806600  1
  O  O11  1  0.61864900  0.00537200  0.80920000  1
  O  O12  1  0.38135100  0.99462800  0.19080000  1
  O  O13  1  0.08736300  0.73726200  0.94193400  1
  O  O14  1  0.58736300  0.44193400  0.23726200  1
  O  O15  1  0.19080000  0.38135100  0.99462800  1
  O  O16  1  0.44193400  0.23726200  0.58736300  1
  O  O17  1  0.26273800  0.05806600  0.91263700  1
  O  O18  1  0.23726200  0.58736300  0.44193400  1
  O  O19  1  0.00537200  0.80920000  0.61864900  1
  O  O20  1  0.05806600  0.91263700  0.26273800  1
  O  O21  1  0.88135100  0.69080000  0.49462800  1
  O  O22  1  0.69080000  0.49462800  0.88135100  1
  O  O23  1  0.49462800  0.88135100  0.69080000  1
loop_
_geom_bond_atom_site_label_1
_geom_bond_atom_site_label_2
_geom_bond_distance
_geom_bond_site_symmetry_2
Fe0 O17 2.222581 1_554
Fe0 O6 2.222581 1_445
Fe0 O20 2.222581 1_545
Fe0 O3 2.222581 1_454
Fe0 O10 2.222581 1_455
Fe0 O13 2.222581 1_544
Fe1 O7 2.222581 1_555
Fe1 O16 2.222581 1_555
Fe1 O9 2.222581 1_555
Fe1 O14 2.222581 1_555
Fe1 O5 2.222581 1_555
Fe1 O18 2.222581 1_555
O0 P1 1.529316 1_545
O0 V3 1.929538 1_555
O1 P2 1.529316 1_554
O1 V3 1.929538 1_555
O2 P0 1.529316 1_455
O2 V3 1.929538 1_555
O3 P0 1.562821 1_555
O3 V2 2.035053 1_545
O4 P0 1.529316 1_555
O4 V1 1.929538 1_655
O5 P0 1.562821 1_555
O5 V0 2.035053 1_555
O6 P1 1.562821 1_555
O6 V2 2.035053 1_554
O7 P1 1.562821 1_555
O7 V0 2.035053 1_555
O8 P3 1.529316 1_555
O8 V2 1.929538 1_554
O9 P2 1.562821 1_555
O9 V0 2.035053 1_555
O10 P3 1.562821 1_555
O10 V1 2.035053 1_655
O11 P4 1.529316 1_555
O11 V2 1.929538 1_545
O12 P1 1.529316 1_555
O12 V1 1.929538 1_565
O13 P2 1.562821 1_555
O13 V2 2.035053 1_455
O14 P3 1.562821 1_555
O14 V3 2.035053 1_555
O15 P2 1.529316 1_555
O15 V1 1.929538 1_556
O16 P4 1.562821 1_555
O16 V3 2.035053 1_555
O17 P4 1.562821 1_555
O17 V1 2.035053 1_556
O18 P5 1.562821 1_555
O18 V3 2.035053 1_555
O19 P5 1.529316 1_555
O19 V2 1.929538 1_455
O20 P5 1.562821 1_555
O20 V1 2.035053 1_565
O21 P5 1.529316 1_655
O21 V0 1.929538 1_555
O22 P3 1.529316 1_556
O22 V0 1.929538 1_555
O23 P4 1.529316 1_565
O23 V0 1.929538 1_555
