# generated using pymatgen
data_TbScS3
_symmetry_space_group_name_H-M   'P 1'
_cell_length_a   6.38954675
_cell_length_b   7.02160892
_cell_length_c   9.52792106
_cell_angle_alpha   90.00000000
_cell_angle_beta   90.00000000
_cell_angle_gamma   90.00000000
_symmetry_Int_Tables_number   1
_chemical_formula_structural   TbScS3
_chemical_formula_sum   'Tb4 Sc4 S12'
_cell_volume   427.46921084
_cell_formula_units_Z   4
loop_
 _symmetry_equiv_pos_site_id
 _symmetry_equiv_pos_as_xyz
  1  'x, y, z'
loop_
 _atom_site_type_symbol
 _atom_site_label
 _atom_site_symmetry_multiplicity
 _atom_site_fract_x
 _atom_site_fract_y
 _atom_site_fract_z
 _atom_site_occupancy
  Tb  Tb0  1  0.54021721  0.39977701  0.75000000  1
  Tb  Tb1  1  0.45978279  0.60022299  0.25000000  1
  Tb  Tb2  1  0.04021721  0.10022299  0.25000000  1
  Tb  Tb3  1  0.95978279  0.89977701  0.75000000  1
  Sc  Sc0  1  0.00000000  0.50000000  -0.00000000  1
  Sc  Sc1  1  0.00000000  0.50000000  0.50000000  1
  Sc  Sc2  1  0.50000000  -0.00000000  0.50000000  1
  Sc  Sc3  1  0.50000000  -0.00000000  -0.00000000  1
  S  S0  1  0.82391752  0.18459815  0.57038833  1
  S  S1  1  0.17608248  0.81540185  0.07038833  1
  S  S2  1  0.32391752  0.31540185  0.07038833  1
  S  S3  1  0.67608248  0.68459815  0.57038833  1
  S  S4  1  0.82391752  0.18459815  0.92961167  1
  S  S5  1  0.17608248  0.81540185  0.42961167  1
  S  S6  1  0.32391752  0.31540185  0.42961167  1
  S  S7  1  0.67608248  0.68459815  0.92961167  1
  S  S8  1  0.85685109  0.45296690  0.25000000  1
  S  S9  1  0.14314891  0.54703310  0.75000000  1
  S  S10  1  0.35685109  0.04703310  0.75000000  1
  S  S11  1  0.64314891  0.95296690  0.25000000  1
loop_
_geom_bond_atom_site_label_1
_geom_bond_atom_site_label_2
_geom_bond_distance
_geom_bond_site_symmetry_2
S0 Sc2 2.532479 1_555
S0 Sc1 2.572971 1_655
S0 Tb3 2.771620 1_545
S0 Tb0 2.915030 1_555
S0 Tb2 3.402889 1_655
S1 Sc3 2.532479 1_565
S1 Sc0 2.572971 1_555
S1 Tb2 2.771620 1_565
S1 Tb1 2.915030 1_555
S1 Tb3 3.402889 1_454
S2 Sc0 2.532479 1_555
S2 Sc3 2.572971 1_555
S2 Tb1 2.771620 1_555
S2 Tb2 2.915030 1_555
S2 Tb0 3.402889 1_554
S3 Sc1 2.532479 1_655
S3 Sc2 2.572971 1_565
S3 Tb0 2.771620 1_555
S3 Tb3 2.915030 1_555
S3 Tb1 3.402889 1_555
S4 Sc3 2.532479 1_556
S4 Sc0 2.572971 1_656
S4 Tb3 2.771620 1_545
S4 Tb0 2.915030 1_555
S4 Tb2 3.402889 1_656
S5 Sc2 2.532479 1_565
S5 Sc1 2.572971 1_555
S5 Tb2 2.771620 1_565
S5 Tb1 2.915030 1_555
S5 Tb3 3.402889 1_455
S6 Sc1 2.532479 1_555
S6 Sc2 2.572971 1_555
S6 Tb1 2.771620 1_555
S6 Tb2 2.915030 1_555
S6 Tb0 3.402889 1_555
S7 Sc0 2.532479 1_656
S7 Sc3 2.572971 1_566
S7 Tb0 2.771620 1_555
S7 Tb3 2.915030 1_555
S7 Tb1 3.402889 1_556
S8 Sc0 2.572837 1_655
S8 Sc1 2.572837 1_655
S8 Tb1 2.739692 1_555
S8 Tb2 2.739962 1_655
S9 Sc0 2.572837 1_556
S9 Sc1 2.572837 1_555
S9 Tb0 2.739692 1_555
S9 Tb3 2.739962 1_455
S10 Sc3 2.572837 1_556
S10 Sc2 2.572837 1_555
S10 Tb3 2.739692 1_445
S10 Tb0 2.739962 1_555
S11 Sc2 2.572837 1_565
S11 Sc3 2.572837 1_565
S11 Tb2 2.739692 1_665
S11 Tb1 2.739962 1_555
