# generated using pymatgen
data_SmYFe4
_symmetry_space_group_name_H-M   'P 1'
_cell_length_a   5.22104030
_cell_length_b   5.22104030
_cell_length_c   5.22104030
_cell_angle_alpha   60.00000000
_cell_angle_beta   60.00000000
_cell_angle_gamma   60.00000000
_symmetry_Int_Tables_number   1
_chemical_formula_structural   SmYFe4
_chemical_formula_sum   'Sm1 Y1 Fe4'
_cell_volume   100.63664227
_cell_formula_units_Z   1
loop_
 _symmetry_equiv_pos_site_id
 _symmetry_equiv_pos_as_xyz
  1  'x, y, z'
loop_
 _atom_site_type_symbol
 _atom_site_label
 _atom_site_symmetry_multiplicity
 _atom_site_fract_x
 _atom_site_fract_y
 _atom_site_fract_z
 _atom_site_occupancy
  Sm  Sm0  1  0.25000000  0.25000000  0.25000000  1
  Y  Y0  1  0.00000000  0.00000000  0.00000000  1
  Fe  Fe0  1  0.62498700  0.62498700  0.12503800  1
  Fe  Fe1  1  0.62498700  0.12503800  0.62498700  1
  Fe  Fe2  1  0.12503800  0.62498700  0.62498700  1
  Fe  Fe3  1  0.62498700  0.62498700  0.62498700  1
loop_
_geom_bond_atom_site_label_1
_geom_bond_atom_site_label_2
_geom_bond_distance
_geom_bond_site_symmetry_2
Sm0 Y0 3.197221 1_555
Sm0 Y0 3.197221 1_565
Sm0 Y0 3.197221 1_655
Sm0 Y0 3.197221 1_556
Fe0 Fe3 2.610254 1_555
Fe0 Fe2 2.610254 1_555
Fe0 Fe1 2.610254 1_555
Fe0 Fe1 2.610786 1_564
Fe0 Fe2 2.610786 1_654
Fe0 Fe3 2.610786 1_554
Fe0 Sm0 3.061075 1_555
Fe0 Sm0 3.061080 1_655
Fe0 Sm0 3.061080 1_565
Fe0 Y0 3.061133 1_565
Fe0 Y0 3.061133 1_655
Fe0 Y0 3.061137 1_665
Fe1 Fe3 2.610254 1_555
Fe1 Fe2 2.610254 1_555
Fe1 Fe2 2.610786 1_645
Fe1 Fe3 2.610786 1_545
Fe1 Sm0 3.061075 1_555
Fe1 Sm0 3.061080 1_655
Fe1 Sm0 3.061080 1_556
Fe1 Y0 3.061133 1_556
Fe1 Y0 3.061133 1_655
Fe1 Y0 3.061137 1_656
Fe2 Fe3 2.610254 1_555
Fe2 Fe3 2.610786 1_455
Fe2 Sm0 3.061075 1_555
Fe2 Sm0 3.061080 1_556
Fe2 Sm0 3.061080 1_565
Fe2 Y0 3.061133 1_556
Fe2 Y0 3.061133 1_565
Fe2 Y0 3.061137 1_566
Fe3 Sm0 3.061077 1_565
Fe3 Sm0 3.061077 1_556
Fe3 Sm0 3.061077 1_655
Fe3 Y0 3.061135 1_656
Fe3 Y0 3.061135 1_566
Fe3 Y0 3.061135 1_665
