# generated using pymatgen
data_Y2Fe17C3
_symmetry_space_group_name_H-M   'P 1'
_cell_length_a   6.49531243
_cell_length_b   6.49531243
_cell_length_c   6.49531208
_cell_angle_alpha   83.43189116
_cell_angle_beta   83.43189116
_cell_angle_gamma   83.43187954
_symmetry_Int_Tables_number   1
_chemical_formula_structural   Y2Fe17C3
_chemical_formula_sum   'Y2 Fe17 C3'
_cell_volume   269.01746454
_cell_formula_units_Z   1
loop_
 _symmetry_equiv_pos_site_id
 _symmetry_equiv_pos_as_xyz
  1  'x, y, z'
loop_
 _atom_site_type_symbol
 _atom_site_label
 _atom_site_symmetry_multiplicity
 _atom_site_fract_x
 _atom_site_fract_y
 _atom_site_fract_z
 _atom_site_occupancy
  Y  Y0  1  0.65794500  0.65794500  0.65794500  1
  Y  Y1  1  0.34205500  0.34205500  0.34205500  1
  Fe  Fe0  1  0.00000000  0.00000000  0.50000000  1
  Fe  Fe1  1  0.50000000  0.00000000  0.00000000  1
  Fe  Fe2  1  0.00000000  0.50000000  0.00000000  1
  Fe  Fe3  1  0.71591200  0.28408800  0.00000000  1
  Fe  Fe4  1  0.00000000  0.71591200  0.28408800  1
  Fe  Fe5  1  0.28408800  0.00000000  0.71591200  1
  Fe  Fe6  1  0.00000000  0.28408800  0.71591200  1
  Fe  Fe7  1  0.71591200  0.00000000  0.28408800  1
  Fe  Fe8  1  0.28408800  0.71591200  0.00000000  1
  Fe  Fe9  1  0.34317400  0.34317400  0.85403300  1
  Fe  Fe10  1  0.85403300  0.34317400  0.34317400  1
  Fe  Fe11  1  0.34317400  0.85403300  0.34317400  1
  Fe  Fe12  1  0.65682600  0.65682600  0.14596700  1
  Fe  Fe13  1  0.14596700  0.65682600  0.65682600  1
  Fe  Fe14  1  0.65682600  0.14596700  0.65682600  1
  Fe  Fe15  1  0.90482700  0.90482700  0.90482700  1
  Fe  Fe16  1  0.09517300  0.09517300  0.09517300  1
  C  C0  1  0.50000000  0.50000000  0.00000000  1
  C  C1  1  0.00000000  0.50000000  0.50000000  1
  C  C2  1  0.50000000  0.00000000  0.50000000  1
loop_
_geom_bond_atom_site_label_1
_geom_bond_atom_site_label_2
_geom_bond_distance
_geom_bond_site_symmetry_2
Fe0 Fe5 2.442066 1_555
Fe0 Fe4 2.442066 1_545
Fe0 Fe7 2.442066 1_455
Fe0 Fe6 2.442066 1_555
Fe0 Fe14 2.474488 1_455
Fe0 Fe13 2.474488 1_545
Fe0 Fe10 2.474488 1_455
Fe0 Fe11 2.474488 1_545
Fe0 Fe15 2.649933 1_445
Fe0 Fe16 2.649933 1_555
Fe0 Y0 3.318319 1_445
Fe0 Y1 3.318319 1_555
Fe1 Fe5 2.442066 1_554
Fe1 Fe7 2.442066 1_555
Fe1 Fe3 2.442067 1_555
Fe1 Fe8 2.442067 1_545
Fe1 Fe12 2.474488 1_545
Fe1 Fe9 2.474488 1_554
Fe1 Fe14 2.474488 1_554
Fe1 Fe11 2.474488 1_545
Fe1 Fe15 2.649933 1_544
Fe1 Fe16 2.649933 1_555
Fe1 Y1 3.318318 1_555
Fe1 Y0 3.318318 1_544
Fe2 Fe6 2.442066 1_554
Fe2 Fe4 2.442066 1_555
Fe2 Fe3 2.442067 1_455
Fe2 Fe8 2.442067 1_555
Fe2 Fe9 2.474488 1_554
Fe2 Y1 3.318318 1_555
Fe2 Y0 3.318318 1_454
Fe10 Fe2 2.474488 1_655
Fe10 Fe16 2.661221 1_655
Fe11 Fe16 2.661221 1_565
Fe12 Fe2 2.474488 1_655
Fe12 Fe15 2.661222 1_554
Fe13 Fe2 2.474488 1_556
Fe13 Fe15 2.661221 1_455
Fe14 Fe15 2.661221 1_545
Fe15 Fe16 2.373775 1_666
Fe15 Fe2 2.649933 1_656
Fe15 Fe8 2.727561 1_656
Fe15 Fe3 2.727561 1_566
Fe15 Fe4 2.727561 1_656
Fe15 Fe7 2.727561 1_566
Fe15 Fe5 2.727561 1_665
Fe15 Fe6 2.727561 1_665
Fe15 Y0 3.078826 1_555
Fe16 Fe2 2.649933 1_555
Fe16 Fe9 2.661222 1_554
Fe16 Fe3 2.727561 1_455
Fe16 Fe8 2.727561 1_545
Fe16 Fe6 2.727561 1_554
Fe16 Fe5 2.727561 1_554
Fe16 Fe7 2.727561 1_455
Fe16 Fe4 2.727561 1_545
Fe16 Y1 3.078826 1_555
C0 Fe8 1.866442 1_555
C0 Fe3 1.866442 1_555
C0 Fe12 1.911380 1_555
C0 Fe9 1.911380 1_554
C0 Y0 2.497809 1_554
C0 Y1 2.497809 1_555
C1 Fe6 1.866442 1_555
C1 Fe4 1.866442 1_555
C1 Fe13 1.911380 1_555
C1 Fe10 1.911380 1_455
C1 Y1 2.497809 1_555
C1 Y0 2.497809 1_455
C2 Fe5 1.866442 1_555
C2 Fe7 1.866442 1_555
C2 Fe14 1.911380 1_555
C2 Fe11 1.911380 1_545
C2 Y1 2.497809 1_555
C2 Y0 2.497809 1_545
