# generated using pymatgen
data_TbMg2Cu
_symmetry_space_group_name_H-M   'P 1'
_cell_length_a   4.92427890
_cell_length_b   4.92427890
_cell_length_c   4.92427890
_cell_angle_alpha   60.00000000
_cell_angle_beta   60.00000000
_cell_angle_gamma   60.00000000
_symmetry_Int_Tables_number   1
_chemical_formula_structural   TbMg2Cu
_chemical_formula_sum   'Tb1 Mg2 Cu1'
_cell_volume   84.43313762
_cell_formula_units_Z   1
loop_
 _symmetry_equiv_pos_site_id
 _symmetry_equiv_pos_as_xyz
  1  'x, y, z'
loop_
 _atom_site_type_symbol
 _atom_site_label
 _atom_site_symmetry_multiplicity
 _atom_site_fract_x
 _atom_site_fract_y
 _atom_site_fract_z
 _atom_site_occupancy
  Tb  Tb0  1  0.00000000  0.00000000  0.00000000  1
  Mg  Mg0  1  0.25000000  0.25000000  0.25000000  1
  Mg  Mg1  1  0.75000000  0.75000000  0.75000000  1
  Cu  Cu0  1  0.50000000  0.50000000  0.50000000  1
loop_
_geom_bond_atom_site_label_1
_geom_bond_atom_site_label_2
_geom_bond_distance
_geom_bond_site_symmetry_2
Mg0 Tb0 3.015493 1_555
Mg0 Tb0 3.015493 1_556
Mg0 Tb0 3.015493 1_565
Mg0 Tb0 3.015493 1_655
Mg1 Tb0 3.015493 1_665
Mg1 Tb0 3.015493 1_666
Mg1 Tb0 3.015493 1_656
Mg1 Tb0 3.015493 1_566
Cu0 Mg1 3.015493 1_554
Cu0 Mg0 3.015493 1_556
Cu0 Mg1 3.015493 1_455
Cu0 Mg0 3.015493 1_655
Cu0 Mg0 3.015493 1_555
Cu0 Mg1 3.015493 1_555
Cu0 Mg0 3.015493 1_565
Cu0 Mg1 3.015493 1_545
Cu0 Tb0 3.481991 1_566
Cu0 Tb0 3.481991 1_556
Cu0 Tb0 3.481991 1_565
Cu0 Tb0 3.481991 1_665
Cu0 Tb0 3.481991 1_656
Cu0 Tb0 3.481991 1_655
