# generated using pymatgen
data_Lu6Ta4Al43
_symmetry_space_group_name_H-M   'P 1'
_cell_length_a   10.97634776
_cell_length_b   10.97634806
_cell_length_c   17.61430691
_cell_angle_alpha   90.00002272
_cell_angle_beta   89.99998865
_cell_angle_gamma   119.99999904
_symmetry_Int_Tables_number   1
_chemical_formula_structural   Lu6Ta4Al43
_chemical_formula_sum   'Lu12 Ta8 Al86'
_cell_volume   1837.85787423
_cell_formula_units_Z   2
loop_
 _symmetry_equiv_pos_site_id
 _symmetry_equiv_pos_as_xyz
  1  'x, y, z'
loop_
 _atom_site_type_symbol
 _atom_site_label
 _atom_site_symmetry_multiplicity
 _atom_site_fract_x
 _atom_site_fract_y
 _atom_site_fract_z
 _atom_site_occupancy
  Lu  Lu0  1  0.53177302  0.00000024  0.59662714  1
  Lu  Lu1  1  0.46822173  0.00000029  0.40335363  1
  Lu  Lu2  1  0.00000000  0.53177266  0.59662704  1
  Lu  Lu3  1  0.46822229  0.00000016  0.09664567  1
  Lu  Lu4  1  0.00000000  0.53177316  0.90337394  1
  Lu  Lu5  1  1.00000000  0.46822147  0.40335372  1
  Lu  Lu6  1  0.53177257  0.99999993  0.90337360  1
  Lu  Lu7  1  1.00000000  0.46822083  0.09664611  1
  Lu  Lu8  1  0.46822698  0.46822722  0.59662714  1
  Lu  Lu9  1  0.53177827  0.53177856  0.40335363  1
  Lu  Lu10  1  0.53177771  0.53177788  0.09664567  1
  Lu  Lu11  1  0.46822743  0.46822735  0.90337360  1
  Ta  Ta0  1  0.00000000  0.99999996  0.49999869  1
  Ta  Ta1  1  0.00000000  0.99999994  0.00000120  1
  Ta  Ta2  1  0.72555838  0.99999988  0.75000245  1
  Ta  Ta3  1  0.27445616  0.00000009  0.24999779  1
  Ta  Ta4  1  1.00000000  0.72555796  0.75000231  1
  Ta  Ta5  1  0.00000000  0.27445648  0.24999796  1
  Ta  Ta6  1  0.27444162  0.27444150  0.75000245  1
  Ta  Ta7  1  0.72554384  0.72554394  0.24999779  1
  Al  Al0  1  0.15240701  0.59593439  0.74999787  1
  Al  Al1  1  0.84759113  0.40406696  0.25000201  1
  Al  Al2  1  0.40406516  0.55647229  0.74999794  1
  Al  Al3  1  0.59593484  0.15240713  0.74999794  1
  Al  Al4  1  0.59593311  0.44352425  0.25000201  1
  Al  Al5  1  0.40406689  0.84759113  0.25000201  1
  Al  Al6  1  0.44352768  0.84759261  0.74999793  1
  Al  Al7  1  0.55647232  0.40406493  0.74999793  1
  Al  Al8  1  0.55647600  0.15240904  0.25000202  1
  Al  Al9  1  0.44352400  0.59593304  0.25000202  1
  Al  Al10  1  0.84759299  0.44352738  0.74999787  1
  Al  Al11  1  0.15240887  0.55647584  0.25000201  1
  Al  Al12  1  0.16000856  0.00000023  0.11499845  1
  Al  Al13  1  0.83998969  0.99999996  0.88501274  1
  Al  Al14  1  1.00000000  0.16000899  0.11499878  1
  Al  Al15  1  0.83998979  0.00000007  0.61498466  1
  Al  Al16  1  1.00000000  0.16000875  0.38500412  1
  Al  Al17  1  0.00000000  0.83999006  0.88501282  1
  Al  Al18  1  0.16000851  0.00000000  0.38500414  1
  Al  Al19  1  0.00000000  0.83998977  0.61498478  1
  Al  Al20  1  0.83999144  0.83999167  0.11499845  1
  Al  Al21  1  0.16001031  0.16001026  0.88501274  1
  Al  Al22  1  0.16001021  0.16001028  0.61498466  1
  Al  Al23  1  0.83999149  0.83999149  0.38500414  1
  Al  Al24  1  0.24738644  0.49477339  0.49998083  1
  Al  Al25  1  0.75261238  0.50522656  0.49998088  1
  Al  Al26  1  0.50522631  0.75261216  0.49998073  1
  Al  Al27  1  0.75261148  0.50522508  0.00001910  1
  Al  Al28  1  0.49477486  0.24738735  0.00001914  1
  Al  Al29  1  0.49477369  0.24738685  0.49998073  1
  Al  Al30  1  0.24738735  0.49477470  0.00001912  1
  Al  Al31  1  0.50522514  0.75261150  0.00001914  1
  Al  Al32  1  0.24738762  0.75261318  0.49998088  1
  Al  Al33  1  0.75261356  0.24738795  0.49998083  1
  Al  Al34  1  0.75261265  0.24738835  0.00001912  1
  Al  Al35  1  0.24738852  0.75261260  0.00001910  1
  Al  Al36  1  0.14943230  0.99999986  0.74999784  1
  Al  Al37  1  0.85056973  0.00000020  0.25000211  1
  Al  Al38  1  -0.00000000  0.14943210  0.74999767  1
  Al  Al39  1  0.00000000  0.85056971  0.25000206  1
  Al  Al40  1  0.85056770  0.85056756  0.74999784  1
  Al  Al41  1  0.14943027  0.14943047  0.25000211  1
  Al  Al42  1  0.33333306  0.66666696  0.62457652  1
  Al  Al43  1  0.66666687  0.33333295  0.37541214  1
  Al  Al44  1  0.66666678  0.33333290  0.12458994  1
  Al  Al45  1  0.66666673  0.33333283  0.87542124  1
  Al  Al46  1  0.33333327  0.66666710  0.87542124  1
  Al  Al47  1  0.33333322  0.66666712  0.12458994  1
  Al  Al48  1  0.33333313  0.66666708  0.37541214  1
  Al  Al49  1  0.66666694  0.33333290  0.62457652  1
  Al  Al50  1  0.25650380  0.99999989  0.52984166  1
  Al  Al51  1  0.74350556  0.00000019  0.47013954  1
  Al  Al52  1  0.00000000  0.25650416  0.52984163  1
  Al  Al53  1  0.74350571  0.00000015  0.02986105  1
  Al  Al54  1  0.00000000  0.25650381  0.97015790  1
  Al  Al55  1  1.00000000  0.74350547  0.47013945  1
  Al  Al56  1  0.25650375  0.99999995  0.97015772  1
  Al  Al57  1  1.00000000  0.74350566  0.02986083  1
  Al  Al58  1  0.74349620  0.74349609  0.52984166  1
  Al  Al59  1  0.25649444  0.25649463  0.47013954  1
  Al  Al60  1  0.25649429  0.25649445  0.02986105  1
  Al  Al61  1  0.74349625  0.74349620  0.97015772  1
  Al  Al62  1  0.15831449  0.39578624  0.66168243  1
  Al  Al63  1  0.84168846  0.60421752  0.33831592  1
  Al  Al64  1  0.60421363  0.76252833  0.66168250  1
  Al  Al65  1  0.84168510  0.60421617  0.16168649  1
  Al  Al66  1  0.39578751  0.15831790  0.83831486  1
  Al  Al67  1  0.39578278  0.23747109  0.33831612  1
  Al  Al68  1  0.15831801  0.39578766  0.83831499  1
  Al  Al69  1  0.60421598  0.84168486  0.16168628  1
  Al  Al70  1  0.23747153  0.84168508  0.66168259  1
  Al  Al71  1  0.39578402  0.23746888  0.16168628  1
  Al  Al72  1  0.76253028  0.60421239  0.83831505  1
  Al  Al73  1  0.76252897  0.15831169  0.33831609  1
  Al  Al74  1  0.60421249  0.76253039  0.83831486  1
  Al  Al75  1  0.23746875  0.39578377  0.16168652  1
  Al  Al76  1  0.60421722  0.84168831  0.33831612  1
  Al  Al77  1  0.39578637  0.15831470  0.66168250  1
  Al  Al78  1  0.76253125  0.15831502  0.16168652  1
  Al  Al79  1  0.23747103  0.39578271  0.33831609  1
  Al  Al80  1  0.23746972  0.84168210  0.83831505  1
  Al  Al81  1  0.76252847  0.60421356  0.66168259  1
  Al  Al82  1  0.84168199  0.23746965  0.83831499  1
  Al  Al83  1  0.15831490  0.76253107  0.16168649  1
  Al  Al84  1  0.15831154  0.76252906  0.33831592  1
  Al  Al85  1  0.84168551  0.23747175  0.66168243  1
loop_
_geom_bond_atom_site_label_1
_geom_bond_atom_site_label_2
_geom_bond_distance
_geom_bond_site_symmetry_2
Lu0 Ta2 3.438461 1_545
Lu0 Lu1 3.475110 1_555
Lu1 Ta3 3.438056 1_555
Lu2 Ta4 3.438458 1_455
Lu2 Lu5 3.475106 1_455
Lu3 Ta3 3.438008 1_555
Lu3 Lu6 3.475083 1_544
Lu4 Ta4 3.438406 1_455
Lu4 Lu7 3.475089 1_456
Lu5 Ta5 3.438050 1_655
Lu6 Ta2 3.438405 1_555
Lu7 Ta5 3.437993 1_655
Lu8 Ta6 3.438461 1_555
Lu8 Lu9 3.475110 1_555
Lu9 Ta7 3.438056 1_555
Lu10 Ta7 3.438008 1_555
Lu10 Lu11 3.475083 1_554
Lu11 Ta6 3.438405 1_555
Al0 Ta4 2.683840 1_455
Al0 Al62 2.718997 1_555
Al0 Al68 2.719019 1_555
Al0 Al42 2.808092 1_555
Al0 Al46 2.808121 1_555
Al0 Al80 2.837130 1_555
Al0 Al70 2.837135 1_555
Al0 Al10 2.897500 1_455
Al0 Al2 3.002388 1_555
Al0 Al6 3.002391 1_555
Al0 Lu2 3.068316 1_555
Al0 Lu4 3.068397 1_555
Al1 Ta5 2.683737 1_655
Al1 Al63 2.718981 1_555
Al1 Al65 2.719001 1_555
Al1 Al43 2.807924 1_555
Al1 Al44 2.807952 1_555
Al1 Al78 2.837154 1_555
Al1 Al73 2.837167 1_555
Al1 Al11 2.897535 1_655
Al1 Al8 3.002353 1_555
Al1 Al4 3.002355 1_555
Al1 Lu5 3.068031 1_555
Al1 Lu7 3.068097 1_555
Al2 Ta6 2.683842 1_555
Al2 Al64 2.719001 1_555
Al2 Al74 2.719020 1_555
Al2 Al42 2.808099 1_555
Al2 Al46 2.808123 1_555
Al2 Al68 2.837125 1_555
Al2 Al62 2.837136 1_555
Al2 Al7 2.897505 1_555
Al2 Al6 3.002387 1_555
Al2 Lu8 3.068314 1_555
Al2 Lu11 3.068392 1_555
Al3 Ta2 2.683842 1_545
Al3 Al77 2.719001 1_555
Al3 Al66 2.719020 1_555
Al3 Al49 2.808092 1_555
Al3 Al45 2.808117 1_555
Al3 Al82 2.837124 1_555
Al3 Al85 2.837136 1_555
Al3 Al6 2.897505 1_545
Al3 Al7 3.002387 1_555
Al3 Lu0 3.068314 1_555
Al3 Lu6 3.068392 1_545
Al4 Ta7 2.683740 1_555
Al4 Al67 2.718982 1_555
Al4 Al71 2.719003 1_555
Al4 Al43 2.807930 1_555
Al4 Al44 2.807956 1_555
Al4 Al65 2.837155 1_555
Al4 Al63 2.837165 1_555
Al4 Al9 2.897537 1_555
Al4 Al8 3.002355 1_555
Al4 Lu9 3.068031 1_555
Al4 Lu10 3.068104 1_555
Al5 Ta3 2.683740 1_565
Al5 Al76 2.718982 1_555
Al5 Al69 2.719003 1_555
Al5 Al83 2.837155 1_555
Al5 Al84 2.837165 1_555
Al5 Al8 2.897537 1_565
Al5 Al9 3.002354 1_555
Al5 Lu1 3.068031 1_565
Al5 Lu3 3.068104 1_565
Al6 Ta2 2.683841 1_555
Al6 Al70 2.719001 1_555
Al6 Al80 2.719022 1_555
Al6 Al74 2.837123 1_555
Al6 Al64 2.837132 1_555
Al6 Lu0 3.068318 1_565
Al6 Lu6 3.068392 1_555
Al7 Ta6 2.683841 1_555
Al7 Al81 2.719001 1_555
Al7 Al72 2.719022 1_555
Al7 Al77 2.837132 1_555
Al7 Lu8 3.068318 1_555
Al7 Lu11 3.068391 1_555
Al8 Ta3 2.683741 1_555
Al8 Lu1 3.068030 1_555
Al8 Lu3 3.068103 1_555
Al9 Ta7 2.683741 1_555
Al9 Lu9 3.068030 1_555
Al9 Lu10 3.068103 1_555
Al10 Ta4 2.683840 1_555
Al10 Al85 2.718997 1_555
Al10 Al82 2.719019 1_555
Al10 Al49 2.808093 1_555
Al10 Al45 2.808122 1_555
Al10 Al72 2.837130 1_555
Al10 Al81 2.837135 1_555
Al10 Al3 3.002388 1_555
Al10 Al7 3.002391 1_555
Al10 Lu2 3.068316 1_655
Al10 Lu4 3.068397 1_655
Al11 Ta5 2.683737 1_555
Al11 Al84 2.718980 1_555
Al11 Al83 2.719001 1_555
Al11 Al48 2.807925 1_555
Al11 Al47 2.807953 1_555
Al11 Al75 2.837155 1_555
Al11 Al79 2.837167 1_555
Al11 Al9 3.002353 1_555
Al11 Al5 3.002355 1_555
Al11 Lu5 3.068031 1_455
Al11 Lu7 3.068097 1_455
Al12 Ta1 2.680982 1_545
Al12 Ta3 2.689347 1_555
Al12 Al71 2.724380 1_555
Al12 Al83 2.724384 1_545
Al12 Al56 2.762391 1_544
Al12 Al60 2.883606 1_555
Al12 Al57 2.883609 1_445
Al12 Al41 2.923874 1_555
Al12 Al39 2.923875 1_545
Al12 Al20 3.042017 1_445
Al12 Al14 3.042019 1_455
Al12 Lu3 3.398472 1_555
Al13 Ta1 2.680878 1_656
Al13 Ta2 2.689433 1_555
Al13 Al74 2.724447 1_555
Al13 Al82 2.724448 1_565
Al13 Al53 2.762467 1_566
Al13 Al61 2.883748 1_555
Al13 Al54 2.883749 1_665
Al13 Al40 2.924048 1_555
Al13 Al38 2.924050 1_665
Al13 Al17 3.042047 1_655
Al13 Al21 3.042051 1_665
Al13 Lu6 3.398522 1_555
Al14 Ta1 2.680990 1_645
Al14 Ta5 2.689343 1_655
Al14 Al78 2.724376 1_555
Al14 Al75 2.724376 1_655
Al14 Al54 2.762392 1_654
Al14 Al60 2.883609 1_655
Al14 Al53 2.883609 1_555
Al14 Al41 2.923871 1_655
Al14 Al37 2.923871 1_555
Al14 Al20 3.042019 1_545
Al14 Lu7 3.398451 1_555
Al15 Ta0 2.680844 1_645
Al15 Ta2 2.689550 1_545
Al15 Al85 2.724451 1_555
Al15 Al64 2.724453 1_545
Al15 Al51 2.762417 1_555
Al15 Al58 2.883730 1_545
Al15 Al52 2.883732 1_655
Al15 Al38 2.924019 1_655
Al15 Al40 2.924025 1_545
Al15 Al22 3.042049 1_655
Al15 Al19 3.042050 1_645
Al15 Lu0 3.398513 1_555
Al16 Ta0 2.680949 1_645
Al16 Ta5 2.689454 1_655
Al16 Al73 2.724386 1_555
Al16 Al79 2.724386 1_655
Al16 Al52 2.762339 1_655
Al16 Al59 2.883589 1_655
Al16 Al51 2.883589 1_555
Al16 Al41 2.923851 1_655
Al16 Al37 2.923851 1_555
Al16 Al18 3.042019 1_655
Al16 Al23 3.042019 1_545
Al16 Lu5 3.398455 1_555
Al17 Ta1 2.680873 1_556
Al17 Ta4 2.689440 1_455
Al17 Al80 2.724449 1_555
Al17 Al72 2.724449 1_455
Al17 Al57 2.762464 1_456
Al17 Al61 2.883746 1_455
Al17 Al56 2.883746 1_555
Al17 Al40 2.924047 1_455
Al17 Al36 2.924047 1_555
Al17 Al21 3.042047 1_565
Al17 Lu4 3.398520 1_555
Al18 Ta0 2.680946 1_545
Al18 Ta3 2.689455 1_555
Al18 Al84 2.724386 1_545
Al18 Al67 2.724388 1_555
Al18 Al50 2.762340 1_545
Al18 Al55 2.883589 1_445
Al18 Al59 2.883590 1_555
Al18 Al39 2.923852 1_545
Al18 Al41 2.923853 1_555
Al18 Al23 3.042017 1_445
Al18 Lu1 3.398459 1_555
Al19 Ta0 2.680846 1_555
Al19 Ta4 2.689549 1_455
Al19 Al70 2.724452 1_555
Al19 Al81 2.724452 1_455
Al19 Al55 2.762420 1_455
Al19 Al58 2.883730 1_455
Al19 Al50 2.883730 1_555
Al19 Al40 2.924020 1_455
Al19 Al36 2.924020 1_555
Al19 Al22 3.042050 1_565
Al19 Lu2 3.398516 1_555
Al20 Ta1 2.680982 1_655
Al20 Ta7 2.689347 1_555
Al20 Al69 2.724379 1_555
Al20 Al65 2.724384 1_555
Al20 Al61 2.762391 1_554
Al20 Al53 2.883605 1_565
Al20 Al57 2.883609 1_555
Al20 Al37 2.923874 1_565
Al20 Al39 2.923875 1_655
Al20 Lu10 3.398472 1_555
Al21 Ta1 2.680878 1_546
Al21 Ta6 2.689433 1_555
Al21 Al66 2.724447 1_555
Al21 Al68 2.724448 1_555
Al21 Al60 2.762467 1_556
Al21 Al56 2.883748 1_545
Al21 Al54 2.883749 1_555
Al21 Al36 2.924048 1_545
Al21 Al38 2.924050 1_555
Al21 Lu11 3.398522 1_555
Al22 Ta0 2.680844 1_545
Al22 Ta6 2.689550 1_555
Al22 Al62 2.724451 1_555
Al22 Al77 2.724453 1_555
Al22 Al59 2.762417 1_555
Al22 Al50 2.883730 1_545
Al22 Al52 2.883732 1_555
Al22 Al38 2.924019 1_555
Al22 Al36 2.924025 1_545
Al22 Lu8 3.398513 1_555
Al23 Ta0 2.680946 1_655
Al23 Ta7 2.689455 1_555
Al23 Al63 2.724386 1_555
Al23 Al76 2.724388 1_555
Al23 Al58 2.762340 1_555
Al23 Al55 2.883589 1_555
Al23 Al51 2.883590 1_565
Al23 Al39 2.923852 1_655
Al23 Al37 2.923853 1_565
Al23 Lu9 3.398459 1_555
Al24 Al59 2.718130 1_555
Al24 Al52 2.718147 1_555
Al24 Al48 2.735761 1_555
Al24 Al42 2.736141 1_555
Al24 Al32 2.830133 1_555
Al24 Al26 2.830134 1_555
Al24 Al79 3.030361 1_555
Al24 Al62 3.030959 1_555
Al24 Lu5 3.092543 1_455
Al24 Lu8 3.092753 1_555
Al24 Lu9 3.396794 1_555
Al24 Lu2 3.396926 1_555
Al25 Al55 2.718137 1_555
Al25 Al58 2.718144 1_555
Al25 Al43 2.735760 1_555
Al25 Al49 2.736142 1_555
Al25 Al33 2.830133 1_555
Al25 Al29 2.830133 1_555
Al25 Al63 3.030367 1_555
Al25 Al81 3.030958 1_555
Al25 Lu9 3.092541 1_555
Al25 Lu2 3.092760 1_655
Al25 Lu5 3.396803 1_555
Al25 Lu8 3.396924 1_555
Al26 Al51 2.718140 1_565
Al26 Al58 2.718148 1_555
Al26 Al48 2.735756 1_555
Al26 Al42 2.736141 1_555
Al26 Al32 2.830133 1_555
Al26 Al76 3.030361 1_555
Al26 Al64 3.030961 1_555
Al26 Lu9 3.092534 1_555
Al26 Lu0 3.092764 1_565
Al26 Lu1 3.396805 1_565
Al26 Lu8 3.396922 1_555
Al27 Al57 2.718151 1_555
Al27 Al61 2.718158 1_554
Al27 Al44 2.735783 1_555
Al27 Al45 2.736164 1_554
Al27 Al28 2.830111 1_555
Al27 Al34 2.830112 1_555
Al27 Al65 3.030403 1_555
Al27 Al72 3.030995 1_554
Al27 Lu10 3.092535 1_555
Al27 Lu4 3.092751 1_654
Al27 Lu7 3.396806 1_555
Al27 Lu11 3.396911 1_554
Al28 Al60 2.718147 1_555
Al28 Al56 2.718164 1_544
Al28 Al44 2.735780 1_555
Al28 Al45 2.736163 1_554
Al28 Al34 2.830112 1_555
Al28 Al71 3.030397 1_555
Al28 Al66 3.030999 1_554
Al28 Lu3 3.092542 1_555
Al28 Lu11 3.092748 1_554
Al28 Lu10 3.396785 1_555
Al28 Lu6 3.396921 1_544
Al29 Al59 2.718134 1_555
Al29 Al50 2.718154 1_545
Al29 Al43 2.735756 1_555
Al29 Al49 2.736141 1_555
Al29 Al33 2.830134 1_555
Al29 Al67 3.030360 1_555
Al29 Al77 3.030962 1_555
Al29 Lu1 3.092543 1_555
Al29 Lu8 3.092755 1_555
Al29 Lu9 3.396796 1_555
Al29 Lu0 3.396931 1_555
Al30 Al60 2.718143 1_555
Al30 Al54 2.718162 1_554
Al30 Al47 2.735783 1_555
Al30 Al46 2.736166 1_554
Al30 Al31 2.830112 1_555
Al30 Al35 2.830112 1_555
Al30 Al75 3.030402 1_555
Al30 Al68 3.030996 1_554
Al30 Lu7 3.092542 1_455
Al30 Lu11 3.092747 1_554
Al30 Lu10 3.396783 1_555
Al30 Lu4 3.396922 1_554
Al31 Al53 2.718153 1_565
Al31 Al61 2.718158 1_554
Al31 Al47 2.735780 1_555
Al31 Al46 2.736163 1_554
Al31 Al35 2.830110 1_555
Al31 Al69 3.030398 1_555
Al31 Al74 3.030998 1_554
Al31 Lu10 3.092533 1_555
Al31 Lu6 3.092757 1_554
Al31 Lu3 3.396794 1_565
Al31 Lu11 3.396911 1_554
Al32 Al55 2.718142 1_455
Al32 Al50 2.718155 1_555
Al32 Al48 2.735749 1_555
Al32 Al42 2.736130 1_555
Al32 Al84 3.030369 1_555
Al32 Al70 3.030962 1_555
Al32 Lu1 3.092546 1_565
Al32 Lu2 3.092757 1_555
Al32 Lu5 3.396797 1_455
Al32 Lu0 3.396928 1_565
Al33 Al51 2.718141 1_555
Al33 Al52 2.718152 1_655
Al33 Al43 2.735750 1_555
Al33 Al49 2.736130 1_555
Al33 Al73 3.030365 1_555
Al33 Al85 3.030961 1_555
Al33 Lu5 3.092539 1_555
Al33 Lu0 3.092759 1_555
Al33 Lu1 3.396798 1_555
Al33 Lu2 3.396921 1_655
Al34 Al53 2.718154 1_555
Al34 Al54 2.718167 1_654
Al34 Al44 2.735772 1_555
Al34 Al45 2.736155 1_554
Al34 Al78 3.030405 1_555
Al34 Al82 3.030998 1_554
Al34 Lu7 3.092538 1_555
Al34 Lu6 3.092752 1_544
Al34 Lu3 3.396787 1_555
Al34 Lu4 3.396916 1_654
Al35 Al57 2.718156 1_455
Al35 Al56 2.718169 1_554
Al35 Al47 2.735772 1_555
Al35 Al46 2.736153 1_554
Al35 Al83 3.030405 1_555
Al35 Al80 3.030998 1_554
Al35 Lu3 3.092540 1_565
Al35 Lu4 3.092747 1_554
Al35 Lu7 3.396800 1_455
Al35 Lu6 3.396915 1_554
Al36 Ta6 2.612227 1_565
Al36 Ta4 2.612230 1_455
Al36 Al70 2.837721 1_555
Al36 Al77 2.837723 1_565
Al36 Al66 2.837752 1_565
Al36 Al80 2.837754 1_555
Al36 Al38 2.840945 1_565
Al36 Al40 2.840946 1_455
Al37 Ta7 2.612361 1_545
Al37 Ta5 2.612361 1_655
Al37 Al73 2.837692 1_555
Al37 Al76 2.837695 1_545
Al37 Al78 2.837721 1_555
Al37 Al69 2.837726 1_545
Al37 Al41 2.840907 1_655
Al37 Al39 2.840909 1_645
Al38 Ta6 2.612227 1_555
Al38 Ta2 2.612227 1_445
Al38 Al85 2.837723 1_455
Al38 Al62 2.837723 1_555
Al38 Al82 2.837757 1_455
Al38 Al68 2.837757 1_555
Al38 Al40 2.840945 1_445
Al39 Ta7 2.612360 1_455
Al39 Ta3 2.612360 1_565
Al39 Al84 2.837691 1_555
Al39 Al63 2.837691 1_455
Al39 Al83 2.837721 1_555
Al39 Al65 2.837722 1_455
Al39 Al41 2.840910 1_565
Al40 Ta2 2.612227 1_555
Al40 Ta4 2.612230 1_555
Al40 Al81 2.837721 1_555
Al40 Al64 2.837723 1_555
Al40 Al74 2.837752 1_555
Al40 Al72 2.837754 1_555
Al41 Ta3 2.612361 1_555
Al41 Ta5 2.612361 1_555
Al41 Al79 2.837692 1_555
Al41 Al67 2.837695 1_555
Al41 Al75 2.837721 1_555
Al41 Al71 2.837726 1_555
Al42 Al70 2.691870 1_555
Al42 Al64 2.691879 1_555
Al42 Al62 2.691879 1_555
Al42 Al6 2.808091 1_555
Al42 Lu2 3.225522 1_555
Al42 Lu0 3.225525 1_565
Al42 Lu8 3.225528 1_555
Al43 Al73 2.691863 1_555
Al43 Al67 2.691871 1_555
Al43 Al63 2.691874 1_555
Al43 Al8 2.807922 1_555
Al43 Lu1 3.225505 1_555
Al43 Lu5 3.225508 1_555
Al43 Lu9 3.225519 1_555
Al44 Al78 2.691851 1_555
Al44 Al71 2.691855 1_555
Al44 Al65 2.691859 1_555
Al44 Al8 2.807950 1_555
Al44 Lu3 3.225512 1_555
Al44 Lu7 3.225516 1_555
Al44 Lu10 3.225524 1_555
Al45 Al82 2.691855 1_555
Al45 Al66 2.691862 1_555
Al45 Al72 2.691866 1_555
Al45 Al7 2.808123 1_555
Al45 Lu6 3.225529 1_545
Al45 Lu4 3.225534 1_655
Al45 Lu11 3.225537 1_555
Al46 Al80 2.691856 1_555
Al46 Al68 2.691864 1_555
Al46 Al74 2.691864 1_555
Al46 Al6 2.808118 1_555
Al46 Lu6 3.225528 1_555
Al46 Lu4 3.225533 1_555
Al46 Lu11 3.225539 1_555
Al47 Al83 2.691851 1_555
Al47 Al69 2.691853 1_555
Al47 Al75 2.691861 1_555
Al47 Al5 2.807950 1_555
Al47 Al9 2.807956 1_555
Al47 Lu3 3.225514 1_565
Al47 Lu7 3.225517 1_455
Al47 Lu10 3.225521 1_555
Al48 Al84 2.691866 1_555
Al48 Al76 2.691869 1_555
Al48 Al79 2.691873 1_555
Al48 Al5 2.807924 1_555
Al48 Al9 2.807928 1_555
Al48 Lu1 3.225509 1_565
Al48 Lu5 3.225510 1_455
Al48 Lu9 3.225514 1_555
Al49 Al85 2.691871 1_555
Al49 Al77 2.691877 1_555
Al49 Al81 2.691880 1_555
Al49 Al7 2.808097 1_555
Al49 Lu0 3.225518 1_555
Al49 Lu2 3.225523 1_655
Al49 Lu8 3.225534 1_555
Al50 Al77 2.844872 1_565
Al50 Al70 2.844874 1_555
Al50 Ta0 2.864127 1_555
Al50 Al55 3.005412 1_455
Al50 Al59 3.005415 1_565
Al50 Lu1 3.219384 1_565
Al50 Lu0 3.242379 1_565
Al51 Al73 2.844624 1_555
Al51 Al76 2.844625 1_545
Al51 Ta0 2.864079 1_645
Al51 Al52 3.005412 1_655
Al51 Al58 3.005415 1_545
Al51 Lu0 3.219496 1_555
Al51 Lu1 3.242534 1_555
Al52 Al85 2.844869 1_455
Al52 Al62 2.844869 1_555
Al52 Ta0 2.864131 1_545
Al52 Al59 3.005412 1_555
Al52 Lu5 3.219380 1_455
Al52 Lu2 3.242373 1_555
Al53 Al69 2.844668 1_545
Al53 Al78 2.844668 1_555
Al53 Ta1 2.864080 1_645
Al53 Al54 3.005416 1_654
Al53 Al61 3.005419 1_544
Al53 Lu6 3.219498 1_544
Al53 Lu3 3.242521 1_555
Al54 Al82 2.844917 1_455
Al54 Al68 2.844917 1_555
Al54 Ta1 2.864129 1_546
Al54 Al60 3.005416 1_556
Al54 Lu7 3.219380 1_456
Al54 Lu4 3.242373 1_555
Al55 Al84 2.844624 1_655
Al55 Al63 2.844624 1_555
Al55 Ta0 2.864079 1_655
Al55 Al58 3.005411 1_555
Al55 Lu2 3.219499 1_655
Al55 Lu5 3.242533 1_555
Al56 Al80 2.844912 1_555
Al56 Al66 2.844916 1_565
Al56 Ta1 2.864127 1_556
Al56 Al57 3.005417 1_456
Al56 Al60 3.005419 1_566
Al56 Lu3 3.219389 1_566
Al56 Lu6 3.242368 1_555
Al57 Al83 2.844672 1_655
Al57 Al65 2.844672 1_555
Al57 Ta1 2.864078 1_655
Al57 Al61 3.005416 1_554
Al57 Lu4 3.219486 1_654
Al57 Lu7 3.242540 1_555
Al58 Al64 2.844872 1_555
Al58 Al81 2.844874 1_555
Al58 Ta0 2.864127 1_655
Al58 Lu9 3.219384 1_555
Al58 Lu8 3.242379 1_555
Al59 Al79 2.844624 1_555
Al59 Al67 2.844625 1_555
Al59 Ta0 2.864079 1_545
Al59 Lu8 3.219496 1_555
Al59 Lu9 3.242534 1_555
Al60 Al75 2.844668 1_555
Al60 Al71 2.844668 1_555
Al60 Ta1 2.864080 1_545
Al60 Lu11 3.219498 1_554
Al60 Lu10 3.242521 1_555
Al61 Al72 2.844912 1_555
Al61 Al74 2.844916 1_555
Al61 Ta1 2.864128 1_656
Al61 Lu10 3.219389 1_556
Al61 Lu11 3.242368 1_555
Al62 Ta6 2.741657 1_555
Al62 Al85 3.009811 1_455
Al62 Lu2 3.025638 1_555
Al62 Al68 3.111260 1_555
Al62 Lu8 3.288180 1_555
Al63 Ta7 2.741629 1_555
Al63 Al84 3.009754 1_655
Al63 Lu5 3.025576 1_555
Al63 Al65 3.111205 1_555
Al63 Lu9 3.288055 1_555
Al64 Ta2 2.741653 1_555
Al64 Al81 3.009817 1_555
Al64 Lu8 3.025639 1_555
Al64 Al74 3.111257 1_555
Al64 Lu0 3.288182 1_565
Al65 Ta7 2.741545 1_555
Al65 Al83 3.009818 1_655
Al65 Lu7 3.025617 1_555
Al65 Lu10 3.288048 1_555
Al66 Ta6 2.741562 1_555
Al66 Al7 2.837123 1_555
Al66 Al80 3.009875 1_545
Al66 Lu6 3.025680 1_545
Al66 Al77 3.111257 1_555
Al66 Lu11 3.288173 1_555
Al67 Ta3 2.741630 1_555
Al67 Al8 2.837166 1_555
Al67 Al79 3.009757 1_555
Al67 Lu9 3.025573 1_555
Al67 Al71 3.111212 1_555
Al67 Lu1 3.288050 1_555
Al68 Ta6 2.741565 1_555
Al68 Al82 3.009877 1_455
Al68 Lu4 3.025685 1_555
Al68 Lu11 3.288173 1_555
Al69 Ta7 2.741546 1_555
Al69 Al9 2.837157 1_555
Al69 Al78 3.009822 1_565
Al69 Lu3 3.025609 1_565
Al69 Al76 3.111212 1_555
Al69 Lu10 3.288042 1_555
Al70 Ta4 2.741651 1_455
Al70 Al77 3.009817 1_565
Al70 Lu0 3.025643 1_565
Al70 Al80 3.111258 1_555
Al70 Lu2 3.288181 1_555
Al71 Ta3 2.741546 1_555
Al71 Al8 2.837157 1_555
Al71 Al75 3.009822 1_555
Al71 Lu10 3.025609 1_555
Al71 Lu3 3.288042 1_555
Al72 Ta4 2.741567 1_555
Al72 Al74 3.009875 1_555
Al72 Lu11 3.025677 1_555
Al72 Al81 3.111258 1_555
Al72 Lu4 3.288172 1_655
Al73 Al8 2.718981 1_555
Al73 Ta5 2.741629 1_655
Al73 Al76 3.009757 1_545
Al73 Lu1 3.025571 1_555
Al73 Al78 3.111207 1_555
Al73 Lu5 3.288051 1_555
Al74 Ta2 2.741563 1_555
Al74 Lu11 3.025680 1_555
Al74 Lu6 3.288173 1_555
Al75 Al9 2.719001 1_555
Al75 Ta5 2.741545 1_555
Al75 Lu10 3.025610 1_555
Al75 Al79 3.111207 1_555
Al75 Lu7 3.288034 1_455
Al76 Ta7 2.741630 1_555
Al76 Al9 2.837166 1_555
Al76 Lu1 3.025573 1_565
Al76 Lu9 3.288050 1_555
Al77 Ta6 2.741653 1_555
Al77 Lu0 3.025639 1_555
Al77 Lu8 3.288182 1_555
Al78 Al8 2.719001 1_555
Al78 Ta5 2.741544 1_655
Al78 Lu3 3.025610 1_555
Al78 Lu7 3.288034 1_555
Al79 Al9 2.718981 1_555
Al79 Ta5 2.741629 1_555
Al79 Lu9 3.025571 1_555
Al79 Lu5 3.288051 1_455
Al80 Ta4 2.741567 1_455
Al80 Lu6 3.025677 1_555
Al80 Lu4 3.288172 1_555
Al81 Ta4 2.741651 1_555
Al81 Lu8 3.025643 1_555
Al81 Lu2 3.288181 1_655
Al82 Ta2 2.741565 1_545
Al82 Lu4 3.025685 1_655
Al82 Al85 3.111260 1_555
Al82 Lu6 3.288174 1_545
Al83 Ta3 2.741545 1_565
Al83 Lu7 3.025617 1_455
Al83 Al84 3.111205 1_555
Al83 Lu3 3.288048 1_565
Al84 Ta3 2.741629 1_565
Al84 Lu5 3.025577 1_455
Al84 Lu1 3.288055 1_565
Al85 Ta2 2.741657 1_545
Al85 Lu2 3.025638 1_655
Al85 Lu0 3.288180 1_555
