# generated using pymatgen
data_MgTi5
_symmetry_space_group_name_H-M   'P 1'
_cell_length_a   5.91749165
_cell_length_b   5.91749165
_cell_length_c   28.64679000
_cell_angle_alpha   90.00000000
_cell_angle_beta   90.00000000
_cell_angle_gamma   119.99999614
_symmetry_Int_Tables_number   1
_chemical_formula_structural   MgTi5
_chemical_formula_sum   'Mg8 Ti40'
_cell_volume   868.72420291
_cell_formula_units_Z   8
loop_
 _symmetry_equiv_pos_site_id
 _symmetry_equiv_pos_as_xyz
  1  'x, y, z'
loop_
 _atom_site_type_symbol
 _atom_site_label
 _atom_site_symmetry_multiplicity
 _atom_site_fract_x
 _atom_site_fract_y
 _atom_site_fract_z
 _atom_site_occupancy
  Mg  Mg0_0  1  0.00000000  0.00000000  0.00000000  1
  Mg  Mg0_1  1  0.00000000  0.00000000  0.50000000  1
  Mg  Mg0_2  1  0.00000000  0.50000000  0.00000000  1
  Mg  Mg0_3  1  0.00000000  0.50000000  0.50000000  1
  Mg  Mg0_4  1  0.50000000  0.00000000  0.00000000  1
  Mg  Mg0_5  1  0.50000000  0.00000000  0.50000000  1
  Mg  Mg0_6  1  0.50000000  0.50000000  0.00000000  1
  Mg  Mg0_7  1  0.50000000  0.50000000  0.50000000  1
  Ti  Ti0_0  1  0.16666650  0.33333350  0.41029900  1
  Ti  Ti0_1  1  0.16666650  0.33333350  0.91029900  1
  Ti  Ti0_2  1  0.16666650  0.83333350  0.41029900  1
  Ti  Ti0_3  1  0.16666650  0.83333350  0.91029900  1
  Ti  Ti0_4  1  0.66666650  0.33333350  0.41029900  1
  Ti  Ti0_5  1  0.66666650  0.33333350  0.91029900  1
  Ti  Ti0_6  1  0.66666650  0.83333350  0.41029900  1
  Ti  Ti0_7  1  0.66666650  0.83333350  0.91029900  1
  Ti  Ti1_0  1  0.00000000  0.00000000  0.33187400  1
  Ti  Ti1_1  1  0.00000000  0.00000000  0.83187400  1
  Ti  Ti1_2  1  0.00000000  0.50000000  0.33187400  1
  Ti  Ti1_3  1  0.00000000  0.50000000  0.83187400  1
  Ti  Ti1_4  1  0.50000000  0.00000000  0.33187400  1
  Ti  Ti1_5  1  0.50000000  0.00000000  0.83187400  1
  Ti  Ti1_6  1  0.50000000  0.50000000  0.33187400  1
  Ti  Ti1_7  1  0.50000000  0.50000000  0.83187400  1
  Ti  Ti2_0  1  0.16666650  0.33333350  0.25000000  1
  Ti  Ti2_1  1  0.16666650  0.33333350  0.75000000  1
  Ti  Ti2_2  1  0.16666650  0.83333350  0.25000000  1
  Ti  Ti2_3  1  0.16666650  0.83333350  0.75000000  1
  Ti  Ti2_4  1  0.66666650  0.33333350  0.25000000  1
  Ti  Ti2_5  1  0.66666650  0.33333350  0.75000000  1
  Ti  Ti2_6  1  0.66666650  0.83333350  0.25000000  1
  Ti  Ti2_7  1  0.66666650  0.83333350  0.75000000  1
  Ti  Ti3_0  1  0.00000000  0.00000000  0.16812600  1
  Ti  Ti3_1  1  0.00000000  0.00000000  0.66812600  1
  Ti  Ti3_2  1  0.00000000  0.50000000  0.16812600  1
  Ti  Ti3_3  1  0.00000000  0.50000000  0.66812600  1
  Ti  Ti3_4  1  0.50000000  0.00000000  0.16812600  1
  Ti  Ti3_5  1  0.50000000  0.00000000  0.66812600  1
  Ti  Ti3_6  1  0.50000000  0.50000000  0.16812600  1
  Ti  Ti3_7  1  0.50000000  0.50000000  0.66812600  1
  Ti  Ti4_0  1  0.16666650  0.33333350  0.08970100  1
  Ti  Ti4_1  1  0.16666650  0.33333350  0.58970100  1
  Ti  Ti4_2  1  0.16666650  0.83333350  0.08970100  1
  Ti  Ti4_3  1  0.16666650  0.83333350  0.58970100  1
  Ti  Ti4_4  1  0.66666650  0.33333350  0.08970100  1
  Ti  Ti4_5  1  0.66666650  0.33333350  0.58970100  1
  Ti  Ti4_6  1  0.66666650  0.83333350  0.08970100  1
  Ti  Ti4_7  1  0.66666650  0.83333350  0.58970100  1
loop_
_geom_bond_atom_site_label_1
_geom_bond_atom_site_label_2
_geom_bond_distance
_geom_bond_site_symmetry_2
Mg0_0 Mg0_2 2.958746 1_555
Mg0_0 Mg0_4 2.958746 1_555
Mg0_0 Mg0_2 2.958746 1_545
Mg0_0 Mg0_4 2.958746 1_455
Mg0_0 Mg0_6 2.958746 1_445
Mg0_0 Mg0_6 2.958746 1_555
Mg0_0 Ti0_3 3.085633 1_544
Mg0_0 Ti4_2 3.085633 1_545
Mg0_0 Ti0_7 3.085635 1_444
Mg0_0 Ti0_1 3.085635 1_554
Mg0_0 Ti4_6 3.085635 1_445
Mg0_0 Ti4_0 3.085635 1_555
Mg0_1 Mg0_3 2.958746 1_555
Mg0_1 Mg0_5 2.958746 1_455
Mg0_1 Mg0_5 2.958746 1_555
Mg0_1 Mg0_3 2.958746 1_545
Mg0_1 Mg0_7 2.958746 1_555
Mg0_1 Mg0_7 2.958746 1_445
Mg0_1 Ti0_2 3.085633 1_545
Mg0_1 Ti4_3 3.085633 1_545
Mg0_1 Ti0_6 3.085635 1_445
Mg0_1 Ti0_0 3.085635 1_555
Mg0_1 Ti4_7 3.085635 1_445
Mg0_1 Ti4_1 3.085635 1_555
Mg0_2 Mg0_6 2.958746 1_455
Mg0_2 Mg0_6 2.958746 1_555
Mg0_2 Mg0_4 2.958746 1_565
Mg0_2 Mg0_4 2.958746 1_455
Mg0_2 Ti0_1 3.085633 1_554
Mg0_2 Ti4_0 3.085633 1_555
Mg0_2 Ti0_3 3.085635 1_554
Mg0_2 Ti0_5 3.085635 1_454
Mg0_2 Ti4_2 3.085635 1_555
Mg0_2 Ti4_4 3.085635 1_455
Mg0_3 Mg0_7 2.958746 1_555
Mg0_3 Mg0_7 2.958746 1_455
Mg0_3 Mg0_5 2.958746 1_565
Mg0_3 Mg0_5 2.958746 1_455
Mg0_3 Ti0_0 3.085633 1_555
Mg0_3 Ti4_1 3.085633 1_555
Mg0_3 Ti0_2 3.085635 1_555
Mg0_3 Ti0_4 3.085635 1_455
Mg0_3 Ti4_3 3.085635 1_555
Mg0_3 Ti4_5 3.085635 1_455
Mg0_4 Mg0_6 2.958746 1_555
Mg0_4 Mg0_6 2.958746 1_545
Mg0_4 Ti0_7 3.085633 1_544
Mg0_4 Ti4_6 3.085633 1_545
Mg0_4 Ti0_3 3.085635 1_544
Mg0_4 Ti0_5 3.085635 1_554
Mg0_4 Ti4_2 3.085635 1_545
Mg0_4 Ti4_4 3.085635 1_555
Mg0_5 Mg0_7 2.958746 1_555
Mg0_5 Mg0_7 2.958746 1_545
Mg0_5 Ti0_6 3.085633 1_545
Mg0_5 Ti4_7 3.085633 1_545
Mg0_5 Ti0_4 3.085635 1_555
Mg0_5 Ti0_2 3.085635 1_545
Mg0_5 Ti4_5 3.085635 1_555
Mg0_5 Ti4_3 3.085635 1_545
Mg0_6 Ti0_5 3.085633 1_554
Mg0_6 Ti4_4 3.085633 1_555
Mg0_6 Ti0_1 3.085635 1_554
Mg0_6 Ti0_7 3.085635 1_554
Mg0_6 Ti4_0 3.085635 1_555
Mg0_6 Ti4_6 3.085635 1_555
Mg0_7 Ti0_4 3.085633 1_555
Mg0_7 Ti4_5 3.085633 1_555
Mg0_7 Ti0_6 3.085635 1_555
Mg0_7 Ti0_0 3.085635 1_555
Mg0_7 Ti4_7 3.085635 1_555
Mg0_7 Ti4_1 3.085635 1_555
Ti0_0 Ti1_2 2.822300 1_555
Ti0_0 Ti1_6 2.822301 1_555
Ti0_0 Ti1_0 2.822301 1_555
Ti0_0 Ti0_4 2.958746 1_555
Ti0_0 Ti0_2 2.958746 1_545
Ti0_0 Ti0_2 2.958746 1_555
Ti0_0 Ti0_4 2.958746 1_455
Ti0_0 Ti0_6 2.958746 1_445
Ti0_0 Ti0_6 2.958746 1_555
Ti0_1 Ti1_3 2.822300 1_555
Ti0_1 Ti1_7 2.822301 1_555
Ti0_1 Ti1_1 2.822301 1_555
Ti0_1 Ti0_5 2.958746 1_555
Ti0_1 Ti0_3 2.958746 1_545
Ti0_1 Ti0_3 2.958746 1_555
Ti0_1 Ti0_5 2.958746 1_455
Ti0_1 Ti0_7 2.958746 1_445
Ti0_1 Ti0_7 2.958746 1_555
Ti0_2 Ti1_0 2.822300 1_565
Ti0_2 Ti1_4 2.822301 1_565
Ti0_2 Ti1_2 2.822301 1_555
Ti0_2 Ti0_6 2.958746 1_455
Ti0_2 Ti0_6 2.958746 1_555
Ti0_2 Ti0_4 2.958746 1_565
Ti0_2 Ti0_4 2.958746 1_455
Ti0_3 Ti1_1 2.822300 1_565
Ti0_3 Ti1_3 2.822301 1_555
Ti0_3 Ti1_5 2.822301 1_565
Ti0_3 Ti0_7 2.958746 1_455
Ti0_3 Ti0_7 2.958746 1_555
Ti0_3 Ti0_5 2.958746 1_565
Ti0_3 Ti0_5 2.958746 1_455
Ti0_4 Ti1_6 2.822300 1_555
Ti0_4 Ti1_4 2.822301 1_555
Ti0_4 Ti1_2 2.822301 1_655
Ti0_4 Ti0_6 2.958746 1_555
Ti0_4 Ti0_6 2.958746 1_545
Ti0_5 Ti1_7 2.822300 1_555
Ti0_5 Ti1_5 2.822301 1_555
Ti0_5 Ti1_3 2.822301 1_655
Ti0_5 Ti0_7 2.958746 1_555
Ti0_5 Ti0_7 2.958746 1_545
Ti0_6 Ti1_4 2.822300 1_565
Ti0_6 Ti1_0 2.822301 1_665
Ti0_6 Ti1_6 2.822301 1_555
Ti0_7 Ti1_5 2.822300 1_565
Ti0_7 Ti1_1 2.822301 1_665
Ti0_7 Ti1_7 2.822301 1_555
Ti1_0 Ti2_2 2.901565 1_545
Ti1_0 Ti2_6 2.901567 1_445
Ti1_0 Ti2_0 2.901567 1_555
Ti1_0 Ti1_2 2.958746 1_555
Ti1_0 Ti1_4 2.958746 1_455
Ti1_0 Ti1_4 2.958746 1_555
Ti1_0 Ti1_2 2.958746 1_545
Ti1_0 Ti1_6 2.958746 1_445
Ti1_0 Ti1_6 2.958746 1_555
Ti1_1 Ti2_3 2.901565 1_545
Ti1_1 Ti2_7 2.901567 1_445
Ti1_1 Ti2_1 2.901567 1_555
Ti1_1 Ti1_3 2.958746 1_555
Ti1_1 Ti1_3 2.958746 1_545
Ti1_1 Ti1_5 2.958746 1_455
Ti1_1 Ti1_5 2.958746 1_555
Ti1_1 Ti1_7 2.958746 1_445
Ti1_1 Ti1_7 2.958746 1_555
Ti1_2 Ti2_0 2.901565 1_555
Ti1_2 Ti2_4 2.901567 1_455
Ti1_2 Ti2_2 2.901567 1_555
Ti1_2 Ti1_6 2.958746 1_555
Ti1_2 Ti1_6 2.958746 1_455
Ti1_2 Ti1_4 2.958746 1_565
Ti1_2 Ti1_4 2.958746 1_455
Ti1_3 Ti2_1 2.901565 1_555
Ti1_3 Ti2_3 2.901567 1_555
Ti1_3 Ti2_5 2.901567 1_455
Ti1_3 Ti1_7 2.958746 1_455
Ti1_3 Ti1_7 2.958746 1_555
Ti1_3 Ti1_5 2.958746 1_455
Ti1_3 Ti1_5 2.958746 1_565
Ti1_4 Ti2_6 2.901565 1_545
Ti1_4 Ti2_4 2.901567 1_555
Ti1_4 Ti2_2 2.901567 1_545
Ti1_4 Ti1_6 2.958746 1_555
Ti1_4 Ti1_6 2.958746 1_545
Ti1_5 Ti2_7 2.901565 1_545
Ti1_5 Ti2_5 2.901567 1_555
Ti1_5 Ti2_3 2.901567 1_545
Ti1_5 Ti1_7 2.958746 1_555
Ti1_5 Ti1_7 2.958746 1_545
Ti1_6 Ti2_4 2.901565 1_555
Ti1_6 Ti2_6 2.901567 1_555
Ti1_6 Ti2_0 2.901567 1_555
Ti1_7 Ti2_5 2.901565 1_555
Ti1_7 Ti2_7 2.901567 1_555
Ti1_7 Ti2_1 2.901567 1_555
Ti2_0 Ti3_2 2.901565 1_555
Ti2_0 Ti3_0 2.901567 1_555
Ti2_0 Ti3_6 2.901567 1_555
Ti2_0 Ti2_4 2.958746 1_555
Ti2_0 Ti2_4 2.958746 1_455
Ti2_0 Ti2_2 2.958746 1_545
Ti2_0 Ti2_2 2.958746 1_555
Ti2_0 Ti2_6 2.958746 1_445
Ti2_0 Ti2_6 2.958746 1_555
Ti2_1 Ti3_3 2.901565 1_555
Ti2_1 Ti3_1 2.901567 1_555
Ti2_1 Ti3_7 2.901567 1_555
Ti2_1 Ti2_5 2.958746 1_555
Ti2_1 Ti2_3 2.958746 1_555
Ti2_1 Ti2_5 2.958746 1_455
Ti2_1 Ti2_3 2.958746 1_545
Ti2_1 Ti2_7 2.958746 1_445
Ti2_1 Ti2_7 2.958746 1_555
Ti2_2 Ti3_0 2.901565 1_565
Ti2_2 Ti3_2 2.901567 1_555
Ti2_2 Ti3_4 2.901567 1_565
Ti2_2 Ti2_6 2.958746 1_455
Ti2_2 Ti2_6 2.958746 1_555
Ti2_2 Ti2_4 2.958746 1_565
Ti2_2 Ti2_4 2.958746 1_455
Ti2_3 Ti3_1 2.901565 1_565
Ti2_3 Ti3_5 2.901567 1_565
Ti2_3 Ti3_3 2.901567 1_555
Ti2_3 Ti2_7 2.958746 1_455
Ti2_3 Ti2_7 2.958746 1_555
Ti2_3 Ti2_5 2.958746 1_565
Ti2_3 Ti2_5 2.958746 1_455
Ti2_4 Ti3_6 2.901565 1_555
Ti2_4 Ti3_4 2.901567 1_555
Ti2_4 Ti3_2 2.901567 1_655
Ti2_4 Ti2_6 2.958746 1_555
Ti2_4 Ti2_6 2.958746 1_545
Ti2_5 Ti3_7 2.901565 1_555
Ti2_5 Ti3_3 2.901567 1_655
Ti2_5 Ti3_5 2.901567 1_555
Ti2_5 Ti2_7 2.958746 1_555
Ti2_5 Ti2_7 2.958746 1_545
Ti2_6 Ti3_4 2.901565 1_565
Ti2_6 Ti3_0 2.901567 1_665
Ti2_6 Ti3_6 2.901567 1_555
Ti2_7 Ti3_5 2.901565 1_565
Ti2_7 Ti3_1 2.901567 1_665
Ti2_7 Ti3_7 2.901567 1_555
Ti3_0 Ti4_2 2.822300 1_545
Ti3_0 Ti4_6 2.822301 1_445
Ti3_0 Ti4_0 2.822301 1_555
Ti3_0 Ti3_2 2.958746 1_555
Ti3_0 Ti3_4 2.958746 1_555
Ti3_0 Ti3_2 2.958746 1_545
Ti3_0 Ti3_4 2.958746 1_455
Ti3_0 Ti3_6 2.958746 1_445
Ti3_0 Ti3_6 2.958746 1_555
Ti3_1 Ti4_3 2.822300 1_545
Ti3_1 Ti4_7 2.822301 1_445
Ti3_1 Ti4_1 2.822301 1_555
Ti3_1 Ti3_3 2.958746 1_555
Ti3_1 Ti3_3 2.958746 1_545
Ti3_1 Ti3_5 2.958746 1_455
Ti3_1 Ti3_5 2.958746 1_555
Ti3_1 Ti3_7 2.958746 1_555
Ti3_1 Ti3_7 2.958746 1_445
Ti3_2 Ti4_0 2.822300 1_555
Ti3_2 Ti4_2 2.822301 1_555
Ti3_2 Ti4_4 2.822301 1_455
Ti3_2 Ti3_6 2.958746 1_455
Ti3_2 Ti3_6 2.958746 1_555
Ti3_2 Ti3_4 2.958746 1_565
Ti3_2 Ti3_4 2.958746 1_455
Ti3_3 Ti4_1 2.822300 1_555
Ti3_3 Ti4_3 2.822301 1_555
Ti3_3 Ti4_5 2.822301 1_455
Ti3_3 Ti3_7 2.958746 1_555
Ti3_3 Ti3_7 2.958746 1_455
Ti3_3 Ti3_5 2.958746 1_565
Ti3_3 Ti3_5 2.958746 1_455
Ti3_4 Ti4_6 2.822300 1_545
Ti3_4 Ti4_2 2.822301 1_545
Ti3_4 Ti4_4 2.822301 1_555
Ti3_4 Ti3_6 2.958746 1_555
Ti3_4 Ti3_6 2.958746 1_545
Ti3_5 Ti4_7 2.822300 1_545
Ti3_5 Ti4_3 2.822301 1_545
Ti3_5 Ti4_5 2.822301 1_555
Ti3_5 Ti3_7 2.958746 1_555
Ti3_5 Ti3_7 2.958746 1_545
Ti3_6 Ti4_4 2.822300 1_555
Ti3_6 Ti4_6 2.822301 1_555
Ti3_6 Ti4_0 2.822301 1_555
Ti3_7 Ti4_5 2.822300 1_555
Ti3_7 Ti4_7 2.822301 1_555
Ti3_7 Ti4_1 2.822301 1_555
Ti4_0 Ti4_4 2.958746 1_555
Ti4_0 Ti4_2 2.958746 1_555
Ti4_0 Ti4_2 2.958746 1_545
Ti4_0 Ti4_4 2.958746 1_455
Ti4_0 Ti4_6 2.958746 1_445
Ti4_0 Ti4_6 2.958746 1_555
Ti4_1 Ti4_5 2.958746 1_555
Ti4_1 Ti4_5 2.958746 1_455
Ti4_1 Ti4_3 2.958746 1_545
Ti4_1 Ti4_3 2.958746 1_555
Ti4_1 Ti4_7 2.958746 1_445
Ti4_1 Ti4_7 2.958746 1_555
Ti4_2 Ti4_6 2.958746 1_455
Ti4_2 Ti4_6 2.958746 1_555
Ti4_2 Ti4_4 2.958746 1_565
Ti4_2 Ti4_4 2.958746 1_455
Ti4_3 Ti4_7 2.958746 1_455
Ti4_3 Ti4_7 2.958746 1_555
Ti4_3 Ti4_5 2.958746 1_565
Ti4_3 Ti4_5 2.958746 1_455
Ti4_4 Ti4_6 2.958746 1_555
Ti4_4 Ti4_6 2.958746 1_545
Ti4_5 Ti4_7 2.958746 1_555
Ti4_5 Ti4_7 2.958746 1_545
