# generated using pymatgen
data_Li4Ti2Mn3Sb3O16
_symmetry_space_group_name_H-M   'P 1'
_cell_length_a   6.22252316
_cell_length_b   6.22252316
_cell_length_c   9.76739114
_cell_angle_alpha   89.00879507
_cell_angle_beta   89.00879507
_cell_angle_gamma   59.81296926
_symmetry_Int_Tables_number   1
_chemical_formula_structural   Li4Ti2Mn3Sb3O16
_chemical_formula_sum   'Li4 Ti2 Mn3 Sb3 O16'
_cell_volume   326.83922909
_cell_formula_units_Z   1
loop_
 _symmetry_equiv_pos_site_id
 _symmetry_equiv_pos_as_xyz
  1  'x, y, z'
loop_
 _atom_site_type_symbol
 _atom_site_label
 _atom_site_symmetry_multiplicity
 _atom_site_fract_x
 _atom_site_fract_y
 _atom_site_fract_z
 _atom_site_occupancy
  Li  Li0  1  0.66959100  0.66959100  0.10560900  1
  Li  Li1  1  0.98797100  0.98797100  0.01346200  1
  Li  Li2  1  0.99655900  0.99655900  0.49951200  1
  Li  Li3  1  0.32377100  0.32377100  0.60001000  1
  Ti  Ti0  1  0.67997700  0.67997700  0.49971500  1
  Ti  Ti1  1  0.35676000  0.35676000  0.02244000  1
  Mn  Mn0  1  0.82623100  0.82623100  0.78680400  1
  Mn  Mn1  1  0.17644100  0.66452600  0.28967100  1
  Mn  Mn2  1  0.66452600  0.17644100  0.28967100  1
  Sb  Sb0  1  0.33440300  0.82633900  0.78395000  1
  Sb  Sb1  1  0.82633900  0.33440300  0.78395000  1
  Sb  Sb2  1  0.17665800  0.17665800  0.28398400  1
  O  O0  1  0.34545700  0.85172900  0.40806900  1
  O  O1  1  0.51024900  0.51024900  0.66060300  1
  O  O2  1  0.65969300  0.65969300  0.89590900  1
  O  O3  1  0.99632800  0.99632800  0.68560300  1
  O  O4  1  0.01335000  0.01335000  0.19723300  1
  O  O5  1  0.85172900  0.34545700  0.40806900  1
  O  O6  1  0.51559000  0.94883100  0.65829900  1
  O  O7  1  0.94883100  0.51559000  0.65829900  1
  O  O8  1  0.15240000  0.15240000  0.89571600  1
  O  O9  1  0.82855000  0.82855000  0.41817800  1
  O  O10  1  0.04522300  0.46850700  0.14993200  1
  O  O11  1  0.46850700  0.04522300  0.14993200  1
  O  O12  1  0.32655000  0.32655000  0.39885500  1
  O  O13  1  0.16684800  0.66666300  0.90549600  1
  O  O14  1  0.48336800  0.48336800  0.13769400  1
  O  O15  1  0.66666300  0.16684800  0.90549600  1
loop_
_geom_bond_atom_site_label_1
_geom_bond_atom_site_label_2
_geom_bond_distance
_geom_bond_site_symmetry_2
Li0 O14 2.027057 1_555
Li0 O2 2.053130 1_554
Li0 O10 2.071591 1_655
Li0 O11 2.071591 1_565
Li1 O4 1.821117 1_665
Li1 O15 2.035370 1_564
Li1 O13 2.035370 1_654
Li1 O8 2.094694 1_664
Li2 O3 1.817576 1_555
Li2 O9 1.993384 1_555
Li2 O5 2.077601 1_565
Li2 O0 2.077601 1_655
Li3 O12 1.964390 1_555
Li3 O6 2.090243 1_545
Li3 O7 2.090243 1_455
Li3 O1 2.108252 1_555
Mn0 O3 2.066844 1_555
Mn0 O2 2.070501 1_555
Mn0 O7 2.112260 1_555
Mn0 O6 2.112260 1_555
Mn0 O15 2.179672 1_565
Mn0 O13 2.179672 1_655
Mn1 O4 2.074879 1_565
Mn1 O12 2.100959 1_555
Mn1 O14 2.217322 1_555
Mn1 O9 2.243158 1_455
Mn1 O10 2.261647 1_555
Mn1 O0 2.262981 1_555
Mn2 O4 2.074879 1_655
Mn2 O12 2.100959 1_555
Mn2 O14 2.217322 1_555
Mn2 O9 2.243158 1_545
Mn2 O11 2.261647 1_555
Mn2 O5 2.262981 1_555
O0 Ti0 2.017555 1_555
O0 Sb2 2.117481 1_565
O1 Sb1 2.095098 1_555
O1 Sb0 2.095098 1_555
O1 Ti0 2.388976 1_555
O2 Sb1 2.072382 1_555
O2 Sb0 2.072382 1_555
O3 Sb1 2.064962 1_565
O3 Sb0 2.064962 1_655
O4 Sb2 1.970101 1_555
O5 Ti0 2.017555 1_555
O5 Sb2 2.117481 1_655
O6 Sb0 2.035257 1_555
O6 Ti0 2.135006 1_555
O7 Sb1 2.035257 1_555
O7 Ti0 2.135006 1_555
O8 Sb0 2.077001 1_545
O8 Sb1 2.077001 1_455
O8 Ti1 2.549759 1_556
O9 Ti0 1.775453 1_555
O10 Sb2 2.035284 1_555
O10 Ti1 2.093565 1_555
O11 Sb2 2.035284 1_555
O11 Ti1 2.093565 1_555
O12 Sb2 1.986457 1_555
O13 Ti1 2.024509 1_556
O13 Sb0 2.107563 1_555
O14 Ti1 1.787213 1_555
O15 Ti1 2.024509 1_556
O15 Sb1 2.107563 1_555
