# generated using pymatgen
data_LiVGaO4
_symmetry_space_group_name_H-M   'P 1'
_cell_length_a   5.88362439
_cell_length_b   10.28913408
_cell_length_c   6.00272493
_cell_angle_alpha   74.34268189
_cell_angle_beta   119.73598693
_cell_angle_gamma   107.29324864
_symmetry_Int_Tables_number   1
_chemical_formula_structural   LiVGaO4
_chemical_formula_sum   'Li4 V4 Ga4 O16'
_cell_volume   297.97107699
_cell_formula_units_Z   4
loop_
 _symmetry_equiv_pos_site_id
 _symmetry_equiv_pos_as_xyz
  1  'x, y, z'
loop_
 _atom_site_type_symbol
 _atom_site_label
 _atom_site_symmetry_multiplicity
 _atom_site_fract_x
 _atom_site_fract_y
 _atom_site_fract_z
 _atom_site_occupancy
  Li  Li0  1  0.68266800  0.56724300  0.29882300  1
  Li  Li1  1  0.18300500  0.06728900  0.79867800  1
  Li  Li2  1  0.81732200  0.93275200  0.20115700  1
  Li  Li3  1  0.31700900  0.43271800  0.70133500  1
  V  V0  1  0.25013900  0.75001700  0.74995300  1
  V  V1  1  0.25014700  0.24998100  0.25004800  1
  V  V2  1  0.74987700  0.24998300  0.25004000  1
  V  V3  1  0.74980600  0.75002000  0.74994500  1
  Ga  Ga0  1  0.99942400  0.50004000  0.99910800  1
  Ga  Ga1  1  0.50059200  0.99996000  0.50093900  1
  Ga  Ga2  1  0.25002700  0.74999800  0.25006000  1
  Ga  Ga3  1  0.74997300  0.24999300  0.74995400  1
  O  O0  1  0.15514500  0.86230500  0.39761500  1
  O  O1  1  0.65453300  0.36226900  0.89704500  1
  O  O2  1  0.88700200  0.63002800  0.09427600  1
  O  O3  1  0.38714600  0.12986700  0.59492100  1
  O  O4  1  0.61301800  0.86996500  0.40571000  1
  O  O5  1  0.11284600  0.37014500  0.90507600  1
  O  O6  1  0.34483900  0.63769000  0.10238800  1
  O  O7  1  0.84548500  0.13773900  0.60295000  1
  O  O8  1  0.10521300  0.85745000  0.86981500  1
  O  O9  1  0.60535300  0.35748200  0.37019500  1
  O  O10  1  0.90077500  0.63611900  0.64906800  1
  O  O11  1  0.40153600  0.13619400  0.14949600  1
  O  O12  1  0.59917300  0.86385100  0.85089300  1
  O  O13  1  0.09849600  0.36382300  0.35051900  1
  O  O14  1  0.39481500  0.64256300  0.63019300  1
  O  O15  1  0.89463700  0.14251500  0.12980000  1
loop_
_geom_bond_atom_site_label_1
_geom_bond_atom_site_label_2
_geom_bond_distance
_geom_bond_site_symmetry_2
Li0 O6 1.984130 1_555
Li0 O2 1.986134 1_555
Li0 O10 2.038704 1_555
Li0 O9 2.039387 1_555
Li1 O3 1.981315 1_555
Li1 O7 1.982671 1_455
Li1 O8 2.040125 1_545
Li1 O11 2.041668 1_556
Li2 O0 1.984101 1_655
Li2 O4 1.986019 1_555
Li2 O12 2.038914 1_554
Li2 O15 2.039404 1_565
Li3 O5 1.981342 1_555
Li3 O1 1.982685 1_555
Li3 O14 2.040185 1_555
Li3 O13 2.041612 1_555
Ga0 O5 1.965018 1_655
Ga0 O2 1.966184 1_556
Ga0 O1 2.006943 1_555
Ga0 O6 2.008307 1_656
Ga0 O10 2.097054 1_555
Ga0 O13 2.103317 1_656
Ga1 O3 1.965029 1_565
Ga1 O4 1.966496 1_555
Ga1 O7 2.006992 1_565
Ga1 O0 2.008453 1_555
Ga1 O12 2.096857 1_555
Ga1 O11 2.103534 1_565
Ga2 O0 1.964158 1_555
Ga2 O6 1.964413 1_555
Ga2 O4 2.008368 1_555
Ga2 O2 2.008594 1_455
Ga2 O14 2.103438 1_555
Ga2 O8 2.104002 1_554
Ga3 O7 1.963776 1_555
Ga3 O1 1.964058 1_555
Ga3 O3 2.008053 1_555
Ga3 O5 2.008398 1_655
Ga3 O9 2.101946 1_555
Ga3 O15 2.102299 1_556
O0 V0 2.003173 1_555
O1 V2 2.006020 1_556
O2 V3 2.002004 1_554
O3 V1 2.004661 1_555
O4 V3 2.001222 1_555
O5 V1 2.005424 1_556
O6 V0 2.003894 1_554
O7 V2 2.005356 1_555
O8 V3 1.916953 1_455
O8 V0 2.016165 1_555
O9 V1 1.916330 1_555
O9 V2 2.016142 1_555
O10 V0 1.918690 1_655
O10 V3 2.016086 1_555
O11 V2 1.913959 1_555
O11 V1 2.015722 1_555
O12 V0 1.917001 1_555
O12 V3 2.014296 1_555
O13 V2 1.915376 1_455
O13 V1 2.017019 1_555
O14 V3 1.915265 1_555
O14 V0 2.014772 1_555
O15 V1 1.917507 1_655
O15 V2 2.017320 1_555
