# generated using pymatgen
data_Tb2BiO2
_symmetry_space_group_name_H-M   'P 1'
_cell_length_a   3.87915316
_cell_length_b   3.87915316
_cell_length_c   7.29880710
_cell_angle_alpha   105.41086824
_cell_angle_beta   105.41086824
_cell_angle_gamma   90.00000000
_symmetry_Int_Tables_number   1
_chemical_formula_structural   Tb2BiO2
_chemical_formula_sum   'Tb2 Bi1 O2'
_cell_volume   101.78014250
_cell_formula_units_Z   1
loop_
 _symmetry_equiv_pos_site_id
 _symmetry_equiv_pos_as_xyz
  1  'x, y, z'
loop_
 _atom_site_type_symbol
 _atom_site_label
 _atom_site_symmetry_multiplicity
 _atom_site_fract_x
 _atom_site_fract_y
 _atom_site_fract_z
 _atom_site_occupancy
  Tb  Tb0  1  0.66784875  0.66784875  0.33569650  1
  Tb  Tb1  1  0.33215125  0.33215125  0.66430350  1
  Bi  Bi0  1  -0.00000000  -0.00000000  -0.00000000  1
  O  O0  1  0.25000000  0.75000000  0.50000000  1
  O  O1  1  0.75000000  0.25000000  0.50000000  1
loop_
_geom_bond_atom_site_label_1
_geom_bond_atom_site_label_2
_geom_bond_distance
_geom_bond_site_symmetry_2
Bi0 Tb0 3.560817 1_445
Bi0 Tb1 3.560817 1_554
Bi0 Tb0 3.560819 1_545
Bi0 Tb0 3.560819 1_455
Bi0 Tb1 3.560819 1_454
Bi0 Tb1 3.560819 1_544
Bi0 Tb0 3.560820 1_555
Bi0 Tb1 3.560820 1_444
O0 Tb1 2.235389 1_565
O0 Tb0 2.235389 1_455
O0 Tb1 2.235393 1_555
O0 Tb0 2.235393 1_555
O1 Tb1 2.235389 1_655
O1 Tb0 2.235389 1_545
O1 Tb1 2.235393 1_555
O1 Tb0 2.235393 1_555
