# generated using pymatgen
data_SrCaMg30O32
_symmetry_space_group_name_H-M   'P 1'
_cell_length_a   8.62474900
_cell_length_b   8.62474900
_cell_length_c   8.70528100
_cell_angle_alpha   90.00000000
_cell_angle_beta   90.00000000
_cell_angle_gamma   90.00000000
_symmetry_Int_Tables_number   1
_chemical_formula_structural   SrCaMg30O32
_chemical_formula_sum   'Sr1 Ca1 Mg30 O32'
_cell_volume   647.55360325
_cell_formula_units_Z   1
loop_
 _symmetry_equiv_pos_site_id
 _symmetry_equiv_pos_as_xyz
  1  'x, y, z'
loop_
 _atom_site_type_symbol
 _atom_site_label
 _atom_site_symmetry_multiplicity
 _atom_site_fract_x
 _atom_site_fract_y
 _atom_site_fract_z
 _atom_site_occupancy
  Sr  Sr0  1  0.00000000  0.00000000  0.50000000  1
  Ca  Ca0  1  0.00000000  0.00000000  0.00000000  1
  Mg  Mg0  1  0.00000000  0.50000000  0.00000000  1
  Mg  Mg1  1  0.00000000  0.50000000  0.50000000  1
  Mg  Mg2  1  0.50000000  0.00000000  0.00000000  1
  Mg  Mg3  1  0.50000000  0.00000000  0.50000000  1
  Mg  Mg4  1  0.50000000  0.50000000  0.00000000  1
  Mg  Mg5  1  0.50000000  0.50000000  0.50000000  1
  Mg  Mg6  1  0.00000000  0.25739200  0.24791400  1
  Mg  Mg7  1  0.00000000  0.25739200  0.75208600  1
  Mg  Mg8  1  0.00000000  0.74260800  0.24791400  1
  Mg  Mg9  1  0.00000000  0.74260800  0.75208600  1
  Mg  Mg10  1  0.50000000  0.25056400  0.24988100  1
  Mg  Mg11  1  0.50000000  0.25056400  0.75011900  1
  Mg  Mg12  1  0.50000000  0.74943600  0.24988100  1
  Mg  Mg13  1  0.50000000  0.74943600  0.75011900  1
  Mg  Mg14  1  0.25739200  0.00000000  0.24791400  1
  Mg  Mg15  1  0.25739200  0.00000000  0.75208600  1
  Mg  Mg16  1  0.25056400  0.50000000  0.24988100  1
  Mg  Mg17  1  0.25056400  0.50000000  0.75011900  1
  Mg  Mg18  1  0.74260800  0.00000000  0.24791400  1
  Mg  Mg19  1  0.74260800  0.00000000  0.75208600  1
  Mg  Mg20  1  0.74943600  0.50000000  0.24988100  1
  Mg  Mg21  1  0.74943600  0.50000000  0.75011900  1
  Mg  Mg22  1  0.25317900  0.25317900  0.00000000  1
  Mg  Mg23  1  0.25509500  0.25509500  0.50000000  1
  Mg  Mg24  1  0.25317900  0.74682100  0.00000000  1
  Mg  Mg25  1  0.25509500  0.74490500  0.50000000  1
  Mg  Mg26  1  0.74682100  0.25317900  0.00000000  1
  Mg  Mg27  1  0.74490500  0.25509500  0.50000000  1
  Mg  Mg28  1  0.74682100  0.74682100  0.00000000  1
  Mg  Mg29  1  0.74490500  0.74490500  0.50000000  1
  O  O0  1  0.26425900  0.00000000  0.00000000  1
  O  O1  1  0.27098000  0.00000000  0.50000000  1
  O  O2  1  0.25278000  0.50000000  0.00000000  1
  O  O3  1  0.25401300  0.50000000  0.50000000  1
  O  O4  1  0.73574200  0.00000000  0.00000000  1
  O  O5  1  0.72902000  0.00000000  0.50000000  1
  O  O6  1  0.74722000  0.50000000  0.00000000  1
  O  O7  1  0.74598700  0.50000000  0.50000000  1
  O  O8  1  0.24972300  0.24972300  0.25018400  1
  O  O9  1  0.24972300  0.24972300  0.74981600  1
  O  O10  1  0.24972300  0.75027700  0.25018400  1
  O  O11  1  0.24972300  0.75027700  0.74981600  1
  O  O12  1  0.75027700  0.24972300  0.25018400  1
  O  O13  1  0.75027700  0.24972300  0.74981600  1
  O  O14  1  0.75027700  0.75027700  0.25018400  1
  O  O15  1  0.75027700  0.75027700  0.74981600  1
  O  O16  1  0.00000000  0.00000000  0.24265700  1
  O  O17  1  0.00000000  0.00000000  0.75734300  1
  O  O18  1  0.00000000  0.50000000  0.24828800  1
  O  O19  1  0.00000000  0.50000000  0.75171200  1
  O  O20  1  0.50000000  0.00000000  0.24828800  1
  O  O21  1  0.50000000  0.00000000  0.75171200  1
  O  O22  1  0.50000000  0.50000000  0.24959300  1
  O  O23  1  0.50000000  0.50000000  0.75040700  1
  O  O24  1  0.00000000  0.26425900  0.00000000  1
  O  O25  1  0.00000000  0.27098000  0.50000000  1
  O  O26  1  0.00000000  0.73574200  0.00000000  1
  O  O27  1  0.00000000  0.72902000  0.50000000  1
  O  O28  1  0.50000000  0.25278000  0.00000000  1
  O  O29  1  0.50000000  0.25401300  0.50000000  1
  O  O30  1  0.50000000  0.74722000  0.00000000  1
  O  O31  1  0.50000000  0.74598700  0.50000000  1
loop_
_geom_bond_atom_site_label_1
_geom_bond_atom_site_label_2
_geom_bond_distance
_geom_bond_site_symmetry_2
Ca0 O16 2.112397 1_555
Ca0 O17 2.112397 1_554
Ca0 O26 2.279159 1_545
Ca0 O4 2.279159 1_455
Ca0 O0 2.279168 1_555
Ca0 O24 2.279168 1_555
Mg0 O24 2.033207 1_555
Mg0 O26 2.033216 1_555
Mg0 O18 2.161417 1_555
Mg0 O19 2.161417 1_554
Mg0 O6 2.180164 1_455
Mg0 O2 2.180164 1_555
Mg1 O27 1.975240 1_555
Mg1 O25 1.975240 1_555
Mg1 O3 2.190798 1_555
Mg1 O7 2.190798 1_455
Mg1 O19 2.191224 1_555
Mg1 O18 2.191224 1_555
Mg2 O0 2.033207 1_555
Mg2 O4 2.033216 1_555
Mg2 O20 2.161417 1_555
Mg2 O21 2.161417 1_554
Mg2 O30 2.180164 1_545
Mg2 O28 2.180164 1_555
Mg3 O1 1.975240 1_555
Mg3 O5 1.975240 1_555
Mg3 O29 2.190798 1_555
Mg3 O31 2.190798 1_545
Mg3 O21 2.191224 1_555
Mg3 O20 2.191224 1_555
Mg4 O2 2.132210 1_555
Mg4 O28 2.132210 1_555
Mg4 O30 2.132210 1_555
Mg4 O6 2.132210 1_555
Mg4 O22 2.172777 1_555
Mg4 O23 2.172777 1_554
Mg5 O31 2.121576 1_555
Mg5 O7 2.121576 1_555
Mg5 O29 2.121576 1_555
Mg5 O3 2.121576 1_555
Mg5 O23 2.179863 1_555
Mg5 O22 2.179863 1_555
Mg6 O18 2.092436 1_555
Mg6 O12 2.154904 1_455
Mg6 O8 2.154904 1_555
Mg6 O24 2.158974 1_555
Mg6 O25 2.197607 1_555
Mg6 O16 2.220413 1_555
Mg7 O19 2.092436 1_555
Mg7 O9 2.154904 1_555
Mg7 O13 2.154904 1_455
Mg7 O24 2.158974 1_556
Mg7 O25 2.197607 1_555
Mg7 O17 2.220413 1_555
Mg8 O18 2.092436 1_555
Mg8 O14 2.154904 1_455
Mg8 O10 2.154904 1_555
Mg8 O26 2.158973 1_555
Mg8 O27 2.197607 1_555
Mg8 O16 2.220413 1_565
Mg9 O19 2.092436 1_555
Mg9 O15 2.154904 1_455
Mg9 O11 2.154904 1_555
Mg9 O26 2.158973 1_556
Mg9 O27 2.197607 1_555
Mg9 O17 2.220413 1_565
Mg10 O22 2.151324 1_555
Mg10 O8 2.158590 1_555
Mg10 O12 2.158590 1_555
Mg10 O20 2.161096 1_555
Mg10 O28 2.175368 1_555
Mg10 O29 2.177559 1_555
Mg11 O23 2.151324 1_555
Mg11 O9 2.158590 1_555
Mg11 O13 2.158590 1_555
Mg11 O21 2.161096 1_555
Mg11 O28 2.175368 1_556
Mg11 O29 2.177559 1_555
Mg12 O22 2.151324 1_555
Mg12 O14 2.158590 1_555
Mg12 O10 2.158590 1_555
Mg12 O20 2.161096 1_565
Mg12 O30 2.175368 1_555
Mg12 O31 2.177559 1_555
Mg13 O23 2.151324 1_555
Mg13 O11 2.158590 1_555
Mg13 O15 2.158590 1_555
Mg13 O21 2.161096 1_565
Mg13 O30 2.175368 1_556
Mg13 O31 2.177559 1_555
Mg14 O20 2.092436 1_555
Mg14 O8 2.154904 1_555
Mg14 O10 2.154904 1_545
Mg14 O0 2.158974 1_555
Mg14 O1 2.197607 1_555
Mg14 O16 2.220413 1_555
Mg15 O21 2.092436 1_555
Mg15 O9 2.154904 1_555
Mg15 O11 2.154904 1_545
Mg15 O0 2.158974 1_556
Mg15 O1 2.197607 1_555
Mg15 O17 2.220413 1_555
Mg16 O22 2.151324 1_555
Mg16 O8 2.158590 1_555
Mg16 O10 2.158590 1_555
Mg16 O18 2.161096 1_555
Mg16 O2 2.175368 1_555
Mg16 O3 2.177559 1_555
Mg17 O23 2.151324 1_555
Mg17 O11 2.158590 1_555
Mg17 O9 2.158590 1_555
Mg17 O19 2.161096 1_555
Mg17 O2 2.175368 1_556
Mg17 O3 2.177559 1_555
Mg18 O20 2.092436 1_555
Mg18 O14 2.154904 1_545
Mg18 O12 2.154904 1_555
Mg18 O4 2.158973 1_555
Mg18 O5 2.197607 1_555
Mg18 O16 2.220413 1_655
Mg19 O21 2.092436 1_555
Mg19 O15 2.154904 1_545
Mg19 O13 2.154904 1_555
Mg19 O4 2.158973 1_556
Mg19 O5 2.197607 1_555
Mg19 O17 2.220413 1_655
Mg20 O22 2.151324 1_555
Mg20 O14 2.158590 1_555
Mg20 O12 2.158590 1_555
Mg20 O18 2.161096 1_655
Mg20 O6 2.175368 1_555
Mg20 O7 2.177559 1_555
Mg21 O23 2.151324 1_555
Mg21 O15 2.158590 1_555
Mg21 O13 2.158590 1_555
Mg21 O19 2.161096 1_655
Mg21 O6 2.175368 1_556
Mg21 O7 2.177559 1_555
Mg22 O2 2.128772 1_555
Mg22 O28 2.128772 1_555
Mg22 O8 2.178330 1_555
Mg22 O9 2.178330 1_554
Mg22 O0 2.185695 1_555
Mg22 O24 2.185695 1_555
Mg23 O29 2.112265 1_555
Mg23 O3 2.112265 1_555
Mg23 O9 2.175705 1_555
Mg23 O8 2.175705 1_555
Mg23 O1 2.204392 1_555
Mg23 O25 2.204392 1_555
Mg24 O2 2.128772 1_555
Mg24 O30 2.128772 1_555
Mg24 O10 2.178330 1_555
Mg24 O11 2.178330 1_554
Mg24 O26 2.185695 1_555
Mg24 O0 2.185695 1_565
Mg25 O3 2.112265 1_555
Mg25 O31 2.112265 1_555
Mg25 O11 2.175705 1_555
Mg25 O10 2.175705 1_555
Mg25 O27 2.204392 1_555
Mg25 O1 2.204392 1_565
Mg26 O28 2.128772 1_555
Mg26 O6 2.128772 1_555
Mg26 O12 2.178330 1_555
Mg26 O13 2.178330 1_554
Mg26 O4 2.185695 1_555
Mg26 O24 2.185695 1_655
Mg27 O29 2.112265 1_555
Mg27 O7 2.112265 1_555
Mg27 O13 2.175705 1_555
Mg27 O12 2.175705 1_555
Mg27 O5 2.204392 1_555
Mg27 O25 2.204392 1_655
Mg28 O30 2.128772 1_555
Mg28 O6 2.128772 1_555
Mg28 O14 2.178330 1_555
Mg28 O15 2.178330 1_554
Mg28 O4 2.185695 1_565
Mg28 O26 2.185695 1_655
Mg29 O7 2.112265 1_555
Mg29 O31 2.112265 1_555
Mg29 O15 2.175705 1_555
Mg29 O14 2.175705 1_555
Mg29 O5 2.204392 1_565
Mg29 O27 2.204392 1_655
O1 Sr0 2.337134 1_555
O5 Sr0 2.337134 1_655
O16 Sr0 2.240243 1_555
O17 Sr0 2.240243 1_555
O25 Sr0 2.337134 1_555
O27 Sr0 2.337134 1_565
