# generated using pymatgen
data_Tb3Se2NO
_symmetry_space_group_name_H-M   'P 1'
_cell_length_a   8.04700209
_cell_length_b   8.04700209
_cell_length_c   9.76545942
_cell_angle_alpha   82.85025727
_cell_angle_beta   82.85025727
_cell_angle_gamma   28.33431440
_symmetry_Int_Tables_number   1
_chemical_formula_structural   Tb3Se2NO
_chemical_formula_sum   'Tb6 Se4 N2 O2'
_cell_volume   297.64239107
_cell_formula_units_Z   2
loop_
 _symmetry_equiv_pos_site_id
 _symmetry_equiv_pos_as_xyz
  1  'x, y, z'
loop_
 _atom_site_type_symbol
 _atom_site_label
 _atom_site_symmetry_multiplicity
 _atom_site_fract_x
 _atom_site_fract_y
 _atom_site_fract_z
 _atom_site_occupancy
  Tb  Tb0  1  0.39143800  0.39143800  0.94582300  1
  Tb  Tb1  1  0.60856200  0.60856200  0.05417700  1
  Tb  Tb2  1  0.04389100  0.04389100  0.73943100  1
  Tb  Tb3  1  0.95610900  0.95610900  0.26056900  1
  Tb  Tb4  1  0.19765300  0.19765300  0.32512500  1
  Tb  Tb5  1  0.80234700  0.80234700  0.67487500  1
  Se  Se0  1  0.21207400  0.21207400  0.84990100  1
  Se  Se1  1  0.78792600  0.78792600  0.15009900  1
  Se  Se2  1  0.37103500  0.37103500  0.47365300  1
  Se  Se3  1  0.62896500  0.62896500  0.52634700  1
  N  N0  1  0.09810200  0.09810200  0.18712200  1
  N  N1  1  0.90189800  0.90189800  0.81287800  1
  O  O0  1  0.53580700  0.53580700  0.86022400  1
  O  O1  1  0.46419300  0.46419300  0.13977600  1
loop_
_geom_bond_atom_site_label_1
_geom_bond_atom_site_label_2
_geom_bond_distance
_geom_bond_site_symmetry_2
Se0 Tb5 2.857725 1_455
Se0 Tb5 2.857725 1_545
Se0 Tb2 2.962804 1_555
Se0 Tb0 3.063385 1_555
Se0 Tb1 3.104871 1_546
Se0 Tb1 3.104871 1_456
Se1 Tb4 2.857725 1_565
Se1 Tb4 2.857725 1_655
Se1 Tb3 2.962804 1_555
Se1 Tb1 3.063385 1_555
Se1 Tb0 3.104871 1_654
Se1 Tb0 3.104871 1_564
Se2 Tb5 2.889366 1_455
Se2 Tb5 2.889366 1_545
Se2 Tb3 3.043376 1_455
Se2 Tb3 3.043376 1_545
Se2 Tb4 3.229742 1_555
Se3 Tb4 2.889366 1_565
Se3 Tb4 2.889366 1_655
Se3 Tb2 3.043376 1_655
Se3 Tb2 3.043376 1_565
Se3 Tb5 3.229742 1_555
N0 Tb4 2.183315 1_555
N0 Tb3 2.239621 1_445
N0 Tb1 2.353027 1_545
N0 Tb1 2.353027 1_455
N1 Tb5 2.183315 1_555
N1 Tb2 2.239621 1_665
N1 Tb0 2.353027 1_565
N1 Tb0 2.353027 1_655
O0 Tb2 2.290887 1_565
O0 Tb2 2.290887 1_655
O0 Tb0 2.300093 1_555
O0 Tb1 2.329886 1_556
O1 Tb3 2.290887 1_545
O1 Tb3 2.290887 1_455
O1 Tb1 2.300093 1_555
O1 Tb0 2.329886 1_554
