# generated using pymatgen
data_U2In8Rh
_symmetry_space_group_name_H-M   'P 1'
_cell_length_a   4.64612860
_cell_length_b   4.64612964
_cell_length_c   12.17377567
_cell_angle_alpha   90.00000000
_cell_angle_beta   90.00000000
_cell_angle_gamma   90.00000000
_symmetry_Int_Tables_number   1
_chemical_formula_structural   U2In8Rh
_chemical_formula_sum   'U2 In8 Rh1'
_cell_volume   262.78940084
_cell_formula_units_Z   1
loop_
 _symmetry_equiv_pos_site_id
 _symmetry_equiv_pos_as_xyz
  1  'x, y, z'
loop_
 _atom_site_type_symbol
 _atom_site_label
 _atom_site_symmetry_multiplicity
 _atom_site_fract_x
 _atom_site_fract_y
 _atom_site_fract_z
 _atom_site_occupancy
  U  U0  1  0.50000000  0.50000000  0.69147003  1
  U  U1  1  0.50000000  0.50000000  0.30852997  1
  In  In0  1  0.00000000  0.50000000  0.50000000  1
  In  In1  1  0.50000000  -0.00000000  0.50000000  1
  In  In2  1  0.00000000  0.50000000  0.87833124  1
  In  In3  1  0.50000000  0.00000000  0.87833124  1
  In  In4  1  -0.00000000  0.50000000  0.12166876  1
  In  In5  1  0.50000000  -0.00000000  0.12166876  1
  In  In6  1  0.00000000  -0.00000000  0.69147881  1
  In  In7  1  -0.00000000  0.00000000  0.30852119  1
  Rh  Rh0  1  0.50000000  0.50000000  -0.00000000  1
loop_
_geom_bond_atom_site_label_1
_geom_bond_atom_site_label_2
_geom_bond_distance
_geom_bond_site_symmetry_2
In0 In1 3.285309 1_455
In0 In1 3.285309 1_555
In0 In1 3.285309 1_465
In0 In1 3.285309 1_565
In0 U0 3.290864 1_555
In0 U0 3.290864 1_455
In0 U1 3.290864 1_555
In0 U1 3.290864 1_455
In0 In7 3.290940 1_555
In0 In7 3.290940 1_565
In0 In6 3.290940 1_555
In0 In6 3.290940 1_565
In1 U0 3.290864 1_555
In1 U0 3.290864 1_545
In1 U1 3.290864 1_545
In1 U1 3.290864 1_555
In1 In7 3.290939 1_655
In1 In6 3.290939 1_655
In1 In7 3.290939 1_555
In1 In6 3.290939 1_555
In2 Rh0 2.755084 1_456
In2 Rh0 2.755084 1_556
In2 In6 3.251290 1_565
In2 In6 3.251290 1_555
In2 U0 3.251365 1_555
In2 U0 3.251365 1_455
In3 Rh0 2.755084 1_556
In3 Rh0 2.755084 1_546
In3 In6 3.251290 1_555
In3 In6 3.251290 1_655
In3 U0 3.251365 1_545
In3 U0 3.251365 1_555
In4 Rh0 2.755084 1_455
In4 Rh0 2.755084 1_555
In4 In7 3.251290 1_555
In4 In7 3.251290 1_565
In4 U1 3.251365 1_555
In4 U1 3.251365 1_455
In5 Rh0 2.755084 1_545
In5 Rh0 2.755084 1_555
In5 In7 3.251290 1_555
In5 In7 3.251290 1_655
In5 U1 3.251365 1_545
In5 U1 3.251365 1_555
In6 U0 3.285309 1_445
In6 U0 3.285309 1_455
In6 U0 3.285309 1_545
In6 U0 3.285309 1_555
In7 U1 3.285309 1_445
In7 U1 3.285309 1_545
In7 U1 3.285309 1_555
In7 U1 3.285309 1_455
