# generated using pymatgen
data_Mg23Al30
_symmetry_space_group_name_H-M   'P 1'
_cell_length_a   10.32930570
_cell_length_b   10.32930570
_cell_length_c   10.32930586
_cell_angle_alpha   76.52536109
_cell_angle_beta   76.52536109
_cell_angle_gamma   76.52536418
_symmetry_Int_Tables_number   1
_chemical_formula_structural   Mg23Al30
_chemical_formula_sum   'Mg23 Al30'
_cell_volume   1023.46199466
_cell_formula_units_Z   1
loop_
 _symmetry_equiv_pos_site_id
 _symmetry_equiv_pos_as_xyz
  1  'x, y, z'
loop_
 _atom_site_type_symbol
 _atom_site_label
 _atom_site_symmetry_multiplicity
 _atom_site_fract_x
 _atom_site_fract_y
 _atom_site_fract_z
 _atom_site_occupancy
  Mg  Mg0  1  0.43044700  0.80867100  0.38170600  1
  Mg  Mg1  1  0.80867100  0.38170600  0.43044700  1
  Mg  Mg2  1  0.38170600  0.43044700  0.80867100  1
  Mg  Mg3  1  0.56955300  0.19132900  0.61829400  1
  Mg  Mg4  1  0.19132900  0.61829400  0.56955300  1
  Mg  Mg5  1  0.61829400  0.56955300  0.19132900  1
  Mg  Mg6  1  0.65167100  0.94303400  0.45123400  1
  Mg  Mg7  1  0.94303400  0.45123400  0.65167100  1
  Mg  Mg8  1  0.45123400  0.65167100  0.94303400  1
  Mg  Mg9  1  0.34832900  0.05696600  0.54876600  1
  Mg  Mg10  1  0.05696600  0.54876600  0.34832900  1
  Mg  Mg11  1  0.54876600  0.34832900  0.05696600  1
  Mg  Mg12  1  0.90526700  0.08117700  0.38752800  1
  Mg  Mg13  1  0.08117700  0.38752800  0.90526700  1
  Mg  Mg14  1  0.38752800  0.90526700  0.08117700  1
  Mg  Mg15  1  0.09473300  0.91882300  0.61247200  1
  Mg  Mg16  1  0.91882300  0.61247200  0.09473300  1
  Mg  Mg17  1  0.61247200  0.09473300  0.91882300  1
  Mg  Mg18  1  0.07717800  0.07717800  0.07717800  1
  Mg  Mg19  1  0.92282200  0.92282200  0.92282200  1
  Mg  Mg20  1  0.33811600  0.33811600  0.33811600  1
  Mg  Mg21  1  0.66188400  0.66188400  0.66188400  1
  Mg  Mg22  1  0.50000000  0.50000000  0.50000000  1
  Al  Al0  1  0.08484600  0.24012700  0.49120600  1
  Al  Al1  1  0.74350200  0.66901200  0.37400100  1
  Al  Al2  1  0.37400100  0.74350200  0.66901200  1
  Al  Al3  1  0.66901200  0.37400100  0.74350200  1
  Al  Al4  1  0.25649800  0.33098800  0.62599900  1
  Al  Al5  1  0.62599900  0.25649800  0.33098800  1
  Al  Al6  1  0.33098800  0.62599900  0.25649800  1
  Al  Al7  1  0.24012700  0.49120600  0.08484600  1
  Al  Al8  1  0.49120600  0.08484600  0.24012700  1
  Al  Al9  1  0.91515400  0.75987300  0.50879400  1
  Al  Al10  1  0.75987300  0.50879400  0.91515400  1
  Al  Al11  1  0.50879400  0.91515400  0.75987300  1
  Al  Al12  1  0.21830400  0.06964600  0.31776200  1
  Al  Al13  1  0.06964600  0.31776200  0.21830400  1
  Al  Al14  1  0.31776200  0.21830400  0.06964600  1
  Al  Al15  1  0.78169600  0.93035400  0.68223800  1
  Al  Al16  1  0.93035400  0.68223800  0.78169600  1
  Al  Al17  1  0.68223800  0.78169600  0.93035400  1
  Al  Al18  1  0.14007900  0.83875100  0.33464800  1
  Al  Al19  1  0.83875100  0.33464900  0.14007900  1
  Al  Al20  1  0.33464900  0.14007900  0.83875100  1
  Al  Al21  1  0.85992100  0.16124900  0.66535200  1
  Al  Al22  1  0.16124900  0.66535200  0.85992100  1
  Al  Al23  1  0.66535100  0.85992100  0.16124900  1
  Al  Al24  1  0.14913900  0.76498500  0.09114000  1
  Al  Al25  1  0.76498500  0.09114000  0.14913900  1
  Al  Al26  1  0.09114000  0.14913900  0.76498500  1
  Al  Al27  1  0.85086100  0.23501500  0.90886000  1
  Al  Al28  1  0.23501500  0.90886000  0.85086100  1
  Al  Al29  1  0.90886000  0.85086100  0.23501500  1
loop_
_geom_bond_atom_site_label_1
_geom_bond_atom_site_label_2
_geom_bond_distance
_geom_bond_site_symmetry_2
Mg0 Mg22 3.114615 1_555
Mg0 Mg14 3.133726 1_555
Mg0 Mg6 3.220389 1_555
Mg0 Mg9 3.262138 1_565
Mg0 Mg4 3.461831 1_555
Mg0 Mg5 3.461831 1_555
Mg1 Mg22 3.114615 1_555
Mg1 Mg12 3.133726 1_555
Mg1 Mg7 3.220389 1_555
Mg1 Mg10 3.262138 1_655
Mg1 Mg3 3.461831 1_555
Mg1 Mg5 3.461831 1_555
Mg2 Mg22 3.114615 1_555
Mg2 Mg8 3.220389 1_555
Mg2 Mg4 3.461831 1_555
Mg2 Mg3 3.461831 1_555
Mg3 Mg9 3.220389 1_555
Mg3 Mg6 3.262138 1_545
Mg4 Mg7 3.262138 1_455
Mg5 Mg8 3.262138 1_554
Mg6 Mg9 3.095243 1_565
Mg10 Mg7 3.095243 1_455
Mg10 Mg16 3.135566 1_455
Mg10 Mg20 3.193531 1_555
Mg10 Mg4 3.220389 1_555
Mg11 Mg8 3.095243 1_554
Mg11 Mg17 3.135566 1_554
Mg11 Mg20 3.193531 1_555
Mg11 Mg5 3.220389 1_555
Mg11 Mg2 3.262138 1_554
Mg12 Mg6 3.135566 1_545
Mg12 Mg18 3.287262 1_655
Mg12 Mg15 3.288596 1_645
Mg13 Mg2 3.133726 1_555
Mg13 Mg7 3.135566 1_455
Mg13 Mg18 3.287262 1_556
Mg13 Mg16 3.288596 1_456
Mg14 Mg8 3.135566 1_554
Mg14 Mg18 3.287262 1_565
Mg14 Mg17 3.288595 1_564
Mg15 Mg4 3.133726 1_555
Mg15 Mg9 3.135566 1_565
Mg15 Mg19 3.287262 1_455
Mg16 Mg5 3.133726 1_555
Mg16 Mg19 3.287262 1_554
Mg17 Mg3 3.133726 1_555
Mg17 Mg19 3.287262 1_545
Mg18 Mg19 3.343695 1_444
Mg20 Mg9 3.193531 1_555
Mg20 Mg22 3.506768 1_555
Mg21 Mg6 3.193531 1_555
Mg21 Mg8 3.193531 1_555
Mg21 Mg7 3.193531 1_555
Mg21 Mg22 3.506768 1_555
Mg22 Mg5 3.114615 1_555
Mg22 Mg3 3.114615 1_555
Mg22 Mg4 3.114615 1_555
Al0 Al12 2.720102 1_555
Al0 Al21 2.747520 1_455
Al0 Al26 2.775499 1_555
Al0 Al13 2.776322 1_555
Al0 Al4 2.915137 1_555
Al0 Mg7 2.951653 1_455
Al0 Mg20 2.988178 1_555
Al0 Mg1 3.022059 1_455
Al0 Mg9 3.028240 1_555
Al0 Mg10 3.162602 1_555
Al0 Mg12 3.232296 1_455
Al0 Mg15 3.249379 1_545
Al1 Al23 2.726709 1_555
Al1 Al29 2.757245 1_555
Al1 Mg1 2.836495 1_555
Al1 Mg21 2.883962 1_555
Al1 Al9 2.915137 1_555
Al1 Mg5 2.991359 1_555
Al1 Mg6 2.999351 1_555
Al1 Mg16 3.130414 1_555
Al1 Mg10 3.158475 1_655
Al1 Mg0 3.209898 1_555
Al1 Mg22 3.244962 1_555
Al2 Al22 2.726706 1_555
Al2 Al28 2.757245 1_555
Al2 Mg0 2.836495 1_555
Al2 Mg21 2.883962 1_555
Al2 Mg4 2.991359 1_555
Al2 Mg8 2.999351 1_555
Al2 Mg15 3.130414 1_555
Al2 Mg9 3.158475 1_565
Al2 Mg2 3.209898 1_555
Al2 Mg22 3.244962 1_555
Al3 Mg2 2.836495 1_555
Al3 Mg21 2.883962 1_555
Al3 Mg3 2.991359 1_555
Al3 Mg7 2.999351 1_555
Al3 Mg17 3.130414 1_555
Al3 Mg11 3.158475 1_556
Al3 Mg1 3.209898 1_555
Al3 Mg22 3.244962 1_555
Al4 Mg4 2.836495 1_555
Al4 Mg20 2.883962 1_555
Al4 Mg2 2.991359 1_555
Al4 Mg9 2.999351 1_555
Al4 Mg13 3.130414 1_555
Al4 Mg7 3.158475 1_455
Al4 Mg3 3.209898 1_555
Al4 Mg22 3.244962 1_555
Al5 Mg3 2.836495 1_555
Al5 Mg20 2.883962 1_555
Al5 Al8 2.915137 1_555
Al5 Mg1 2.991359 1_555
Al5 Mg11 2.999351 1_555
Al5 Mg12 3.130414 1_555
Al5 Mg6 3.158475 1_545
Al5 Mg5 3.209898 1_555
Al5 Mg22 3.244962 1_555
Al6 Mg5 2.836495 1_555
Al6 Mg20 2.883962 1_555
Al6 Al7 2.915137 1_555
Al6 Mg0 2.991359 1_555
Al6 Mg10 2.999351 1_555
Al6 Mg14 3.130414 1_555
Al6 Mg8 3.158475 1_554
Al6 Mg4 3.209898 1_555
Al6 Mg22 3.244962 1_555
Al7 Mg8 2.951653 1_554
Al7 Mg20 2.988178 1_555
Al7 Mg2 3.022059 1_554
Al7 Mg10 3.028240 1_555
Al7 Mg11 3.162602 1_555
Al7 Mg13 3.232296 1_554
Al7 Mg16 3.249379 1_455
Al8 Mg6 2.951653 1_545
Al8 Mg20 2.988178 1_555
Al8 Mg0 3.022059 1_545
Al8 Mg11 3.028240 1_555
Al8 Mg9 3.162602 1_555
Al8 Mg14 3.232296 1_545
Al8 Mg17 3.249379 1_554
Al9 Mg10 2.951653 1_655
Al9 Mg21 2.988178 1_555
Al9 Mg4 3.022059 1_655
Al9 Mg6 3.028240 1_555
Al9 Mg7 3.162602 1_555
Al9 Mg15 3.232296 1_655
Al9 Mg12 3.249379 1_565
Al10 Al16 2.720102 1_555
Al10 Al19 2.747516 1_556
Al10 Al27 2.775499 1_555
Al10 Al17 2.776322 1_555
Al10 Al3 2.915137 1_555
Al10 Mg11 2.951653 1_556
Al10 Mg21 2.988178 1_555
Al10 Mg5 3.022059 1_556
Al10 Mg7 3.028240 1_555
Al10 Mg8 3.162602 1_555
Al10 Mg16 3.232296 1_556
Al10 Mg13 3.249379 1_655
Al11 Al17 2.720102 1_555
Al11 Al20 2.747516 1_565
Al11 Al28 2.775499 1_555
Al11 Al15 2.776322 1_555
Al11 Al2 2.915137 1_555
Al11 Mg9 2.951653 1_565
Al11 Mg21 2.988178 1_555
Al11 Mg3 3.022059 1_565
Al11 Mg8 3.028240 1_555
Al11 Mg6 3.162602 1_555
Al11 Mg17 3.232296 1_565
Al11 Mg14 3.249379 1_556
Al12 Al18 2.647640 1_545
Al12 Al14 2.766895 1_555
Al12 Al13 2.766895 1_555
Al12 Al8 2.776322 1_555
Al12 Mg9 2.963170 1_555
Al12 Mg0 3.097844 1_545
Al12 Mg12 3.124634 1_455
Al12 Mg18 3.138767 1_555
Al12 Mg15 3.198261 1_545
Al12 Mg14 3.235761 1_545
Al13 Al19 2.647637 1_455
Al13 Al7 2.720102 1_555
Al13 Al14 2.766895 1_555
Al13 Mg10 2.963170 1_555
Al13 Mg1 3.097844 1_455
Al13 Mg13 3.124634 1_554
Al13 Mg18 3.138767 1_555
Al13 Mg16 3.198261 1_455
Al13 Mg12 3.235761 1_455
Al14 Al20 2.647637 1_554
Al14 Al8 2.720102 1_555
Al14 Al7 2.776322 1_555
Al14 Mg11 2.963170 1_555
Al14 Mg2 3.097844 1_554
Al14 Mg14 3.124634 1_545
Al14 Mg18 3.138767 1_555
Al14 Mg17 3.198261 1_554
Al14 Mg13 3.235761 1_554
Al15 Al21 2.647640 1_565
Al15 Al9 2.720102 1_555
Al15 Al17 2.766895 1_555
Al15 Al16 2.766895 1_555
Al15 Mg6 2.963170 1_555
Al15 Mg3 3.097844 1_565
Al15 Mg15 3.124634 1_655
Al15 Mg19 3.138767 1_555
Al15 Mg12 3.198261 1_565
Al15 Mg17 3.235761 1_565
Al16 Al22 2.647640 1_655
Al16 Al17 2.766895 1_555
Al16 Al9 2.776322 1_555
Al16 Mg7 2.963170 1_555
Al16 Mg4 3.097844 1_655
Al16 Mg16 3.124634 1_556
Al16 Mg19 3.138767 1_555
Al16 Mg13 3.198261 1_655
Al16 Mg15 3.235761 1_655
Al17 Al23 2.647637 1_556
Al17 Mg8 2.963170 1_555
Al17 Mg5 3.097844 1_556
Al17 Mg17 3.124634 1_565
Al17 Mg19 3.138767 1_555
Al17 Mg14 3.198261 1_556
Al17 Mg16 3.235761 1_556
Al18 Al6 2.726706 1_555
Al18 Al9 2.747520 1_455
Al18 Al24 2.768777 1_555
Al18 Al29 2.779416 1_455
Al18 Mg4 2.969011 1_555
Al18 Mg15 3.072130 1_555
Al18 Mg0 3.082751 1_555
Al18 Mg12 3.105025 1_465
Al18 Mg18 3.250770 1_565
Al18 Mg10 3.267058 1_555
Al18 Mg14 3.274346 1_555
Al19 Al5 2.726709 1_555
Al19 Al25 2.768787 1_555
Al19 Al27 2.779421 1_554
Al19 Mg5 2.969004 1_555
Al19 Mg16 3.072120 1_555
Al19 Mg1 3.082747 1_555
Al19 Mg13 3.105023 1_654
Al19 Mg18 3.250777 1_655
Al19 Mg11 3.267061 1_555
Al19 Mg12 3.274352 1_555
Al20 Al4 2.726709 1_555
Al20 Al26 2.768787 1_555
Al20 Al28 2.779421 1_545
Al20 Mg3 2.969004 1_555
Al20 Mg17 3.072120 1_555
Al20 Mg2 3.082747 1_555
Al20 Mg14 3.105023 1_546
Al20 Mg18 3.250777 1_556
Al20 Mg9 3.267061 1_555
Al20 Mg13 3.274352 1_555
Al21 Al3 2.726706 1_555
Al21 Al27 2.768777 1_555
Al21 Al26 2.779416 1_655
Al21 Mg1 2.969011 1_555
Al21 Mg12 3.072130 1_555
Al21 Mg3 3.082751 1_555
Al21 Mg15 3.105025 1_645
Al21 Mg19 3.250770 1_545
Al21 Mg7 3.267058 1_555
Al21 Mg17 3.274346 1_555
Al22 Al7 2.747520 1_556
Al22 Al28 2.768777 1_555
Al22 Al24 2.779416 1_556
Al22 Mg2 2.969011 1_555
Al22 Mg13 3.072130 1_555
Al22 Mg4 3.082751 1_555
Al22 Mg16 3.105025 1_456
Al22 Mg19 3.250770 1_455
Al22 Mg8 3.267058 1_555
Al22 Mg15 3.274347 1_555
Al23 Al8 2.747516 1_565
Al23 Al29 2.768787 1_555
Al23 Al25 2.779421 1_565
Al23 Mg0 2.969004 1_555
Al23 Mg14 3.072120 1_555
Al23 Mg5 3.082747 1_555
Al23 Mg17 3.105023 1_564
Al23 Mg19 3.250777 1_554
Al23 Mg6 3.267061 1_555
Al23 Mg16 3.274352 1_555
Al24 Al28 2.650425 1_554
Al24 Al29 2.650425 1_455
Al24 Al6 2.757245 1_555
Al24 Al7 2.775499 1_555
Al24 Mg14 3.106258 1_555
Al24 Mg18 3.112619 1_565
Al24 Mg16 3.133841 1_455
Al24 Mg19 3.153186 1_454
Al24 Mg10 3.162139 1_555
Al24 Mg8 3.217937 1_554
Al25 Al27 2.650425 1_554
Al25 Al29 2.650425 1_545
Al25 Al5 2.757245 1_555
Al25 Al8 2.775499 1_555
Al25 Mg12 3.106259 1_555
Al25 Mg18 3.112619 1_655
Al25 Mg17 3.133841 1_554
Al25 Mg19 3.153186 1_544
Al25 Mg11 3.162139 1_555
Al25 Mg6 3.217937 1_545
Al26 Al27 2.650425 1_455
Al26 Al28 2.650425 1_545
Al26 Al4 2.757245 1_555
Al26 Mg13 3.106259 1_555
Al26 Mg18 3.112619 1_556
Al26 Mg15 3.133841 1_545
Al26 Mg19 3.153186 1_445
Al26 Mg9 3.162139 1_555
Al26 Mg7 3.217938 1_455
Al27 Al3 2.757245 1_555
Al27 Mg17 3.106258 1_555
Al27 Mg19 3.112619 1_545
Al27 Mg13 3.133841 1_655
Al27 Mg18 3.153186 1_656
Al27 Mg7 3.162139 1_555
Al27 Mg11 3.217937 1_556
Al28 Mg15 3.106259 1_555
Al28 Mg19 3.112619 1_455
Al28 Mg14 3.133841 1_556
Al28 Mg18 3.153186 1_566
Al28 Mg8 3.162139 1_555
Al28 Mg9 3.217937 1_565
Al29 Al9 2.775499 1_555
Al29 Mg16 3.106259 1_555
Al29 Mg19 3.112619 1_554
Al29 Mg12 3.133841 1_565
Al29 Mg18 3.153186 1_665
Al29 Mg6 3.162139 1_555
Al29 Mg10 3.217938 1_655
