# generated using pymatgen
data_Sr3CoRuO6
_symmetry_space_group_name_H-M   'P 1'
_cell_length_a   6.74523080
_cell_length_b   6.74523080
_cell_length_c   6.74523102
_cell_angle_alpha   92.48201994
_cell_angle_beta   92.48201994
_cell_angle_gamma   92.48202699
_symmetry_Int_Tables_number   1
_chemical_formula_structural   Sr3CoRuO6
_chemical_formula_sum   'Sr6 Co2 Ru2 O12'
_cell_volume   306.00591267
_cell_formula_units_Z   2
loop_
 _symmetry_equiv_pos_site_id
 _symmetry_equiv_pos_as_xyz
  1  'x, y, z'
loop_
 _atom_site_type_symbol
 _atom_site_label
 _atom_site_symmetry_multiplicity
 _atom_site_fract_x
 _atom_site_fract_y
 _atom_site_fract_z
 _atom_site_occupancy
  Sr  Sr0  1  0.61271900  0.88728100  0.25000000  1
  Sr  Sr1  1  0.88728100  0.25000000  0.61271900  1
  Sr  Sr2  1  0.25000000  0.61271900  0.88728100  1
  Sr  Sr3  1  0.11271900  0.75000000  0.38728100  1
  Sr  Sr4  1  0.75000000  0.38728100  0.11271900  1
  Sr  Sr5  1  0.38728100  0.11271900  0.75000000  1
  Co  Co0  1  0.25000000  0.25000000  0.25000000  1
  Co  Co1  1  0.75000000  0.75000000  0.75000000  1
  Ru  Ru0  1  0.50000000  0.50000000  0.50000000  1
  Ru  Ru1  1  0.00000000  0.00000000  0.00000000  1
  O  O0  1  0.53695100  0.21207700  0.41636500  1
  O  O1  1  0.21207700  0.41636500  0.53695100  1
  O  O2  1  0.41636500  0.53695100  0.21207700  1
  O  O3  1  0.03695100  0.91636500  0.71207700  1
  O  O4  1  0.91636500  0.71207700  0.03695100  1
  O  O5  1  0.71207700  0.03695100  0.91636500  1
  O  O6  1  0.46304900  0.78792300  0.58363500  1
  O  O7  1  0.78792300  0.58363500  0.46304900  1
  O  O8  1  0.58363500  0.46304900  0.78792300  1
  O  O9  1  0.96304900  0.08363500  0.28792300  1
  O  O10  1  0.08363500  0.28792300  0.96304900  1
  O  O11  1  0.28792300  0.96304900  0.08363500  1
loop_
_geom_bond_atom_site_label_1
_geom_bond_atom_site_label_2
_geom_bond_distance
_geom_bond_site_symmetry_2
Co0 O9 2.225012 1_455
Co0 O2 2.225012 1_555
Co0 O0 2.225012 1_555
Co0 O11 2.225012 1_545
Co0 O10 2.225012 1_554
Co0 O1 2.225012 1_555
Co1 O3 2.225012 1_655
Co1 O8 2.225012 1_555
Co1 O5 2.225012 1_565
Co1 O6 2.225012 1_555
Co1 O7 2.225012 1_555
Co1 O4 2.225012 1_556
O0 Ru0 2.027650 1_555
O0 Sr0 2.500777 1_545
O0 Sr5 2.608003 1_555
O0 Sr1 2.655348 1_555
O0 Sr4 2.823868 1_555
O1 Ru0 2.027650 1_555
O1 Sr1 2.500777 1_455
O1 Sr3 2.608003 1_555
O1 Sr2 2.655348 1_555
O1 Sr5 2.823869 1_555
O2 Ru0 2.027650 1_555
O2 Sr2 2.500777 1_554
O2 Sr4 2.608003 1_555
O2 Sr0 2.655348 1_555
O2 Sr3 2.823869 1_555
O3 Ru1 2.027650 1_566
O3 Sr3 2.500777 1_555
O3 Sr1 2.608003 1_465
O3 Sr5 2.655348 1_565
O3 Sr2 2.823869 1_555
O4 Ru1 2.027650 1_665
O4 Sr4 2.500777 1_555
O4 Sr2 2.608003 1_654
O4 Sr3 2.655348 1_655
O4 Sr0 2.823869 1_555
O5 Ru1 2.027650 1_656
O5 Sr5 2.500777 1_555
O5 Sr0 2.608003 1_546
O5 Sr4 2.655348 1_556
O5 Sr1 2.823868 1_555
O6 Ru0 2.027650 1_555
O6 Sr5 2.500777 1_565
O6 Sr0 2.608003 1_555
O6 Sr3 2.655348 1_555
O6 Sr2 2.823868 1_555
O7 Ru0 2.027650 1_555
O7 Sr3 2.500777 1_655
O7 Sr1 2.608003 1_555
O7 Sr4 2.655348 1_555
O7 Sr0 2.823869 1_555
O8 Ru0 2.027650 1_555
O8 Sr4 2.500777 1_556
O8 Sr2 2.608003 1_555
O8 Sr5 2.655348 1_555
O8 Sr1 2.823869 1_555
O9 Ru1 2.027650 1_655
O9 Sr1 2.500777 1_555
O9 Sr3 2.608003 1_645
O9 Sr0 2.655348 1_545
O9 Sr4 2.823869 1_555
O10 Ru1 2.027650 1_556
O10 Sr2 2.500777 1_555
O10 Sr4 2.608003 1_456
O10 Sr1 2.655348 1_455
O10 Sr5 2.823869 1_555
O11 Ru1 2.027650 1_565
O11 Sr0 2.500777 1_555
O11 Sr5 2.608003 1_564
O11 Sr2 2.655348 1_554
O11 Sr3 2.823868 1_555
