# generated using pymatgen
data_BaErMn2O5
_symmetry_space_group_name_H-M   'P 1'
_cell_length_a   3.97254300
_cell_length_b   3.97254300
_cell_length_c   7.76654000
_cell_angle_alpha   90.00000000
_cell_angle_beta   90.00000000
_cell_angle_gamma   90.00000000
_symmetry_Int_Tables_number   1
_chemical_formula_structural   BaErMn2O5
_chemical_formula_sum   'Ba1 Er1 Mn2 O5'
_cell_volume   122.56452798
_cell_formula_units_Z   1
loop_
 _symmetry_equiv_pos_site_id
 _symmetry_equiv_pos_as_xyz
  1  'x, y, z'
loop_
 _atom_site_type_symbol
 _atom_site_label
 _atom_site_symmetry_multiplicity
 _atom_site_fract_x
 _atom_site_fract_y
 _atom_site_fract_z
 _atom_site_occupancy
  Ba  Ba0  1  0.50000000  0.50000000  0.00000000  1
  Er  Er0  1  0.50000000  0.50000000  0.50000000  1
  Mn  Mn0  1  0.00000000  0.00000000  0.74711000  1
  Mn  Mn1  1  0.00000000  0.00000000  0.25289000  1
  O  O0  1  0.00000000  0.50000000  0.74530700  1
  O  O1  1  0.50000000  0.00000000  0.74530700  1
  O  O2  1  0.00000000  0.50000000  0.25469300  1
  O  O3  1  0.50000000  0.00000000  0.25469300  1
  O  O4  1  0.00000000  0.00000000  0.50000000  1
loop_
_geom_bond_atom_site_label_1
_geom_bond_atom_site_label_2
_geom_bond_distance
_geom_bond_site_symmetry_2
Ba0 O3 2.803228 1_565
Ba0 O2 2.803228 1_655
Ba0 O3 2.803228 1_555
Ba0 O2 2.803228 1_555
Ba0 O1 2.803228 1_554
Ba0 O0 2.803228 1_654
Ba0 O0 2.803228 1_554
Ba0 O1 2.803228 1_564
Er0 O0 2.752274 1_555
Er0 O1 2.752274 1_565
Er0 O0 2.752274 1_655
Er0 O1 2.752274 1_555
Er0 O3 2.752274 1_555
Er0 O2 2.752274 1_655
Er0 O2 2.752274 1_555
Er0 O3 2.752274 1_565
Er0 O4 2.809012 1_555
Er0 O4 2.809012 1_655
Er0 O4 2.809012 1_565
Er0 O4 2.809012 1_665
Mn0 O4 1.919190 1_555
Mn0 O0 1.986321 1_555
Mn0 O1 1.986321 1_455
Mn0 O0 1.986321 1_545
Mn0 O1 1.986321 1_555
Mn1 O4 1.919190 1_555
Mn1 O3 1.986321 1_555
Mn1 O3 1.986321 1_455
Mn1 O2 1.986321 1_545
Mn1 O2 1.986321 1_555
