# generated using pymatgen
data_Ca2TiMnO6
_symmetry_space_group_name_H-M   'P 1'
_cell_length_a   5.35782900
_cell_length_b   9.41236482
_cell_length_c   9.31309171
_cell_angle_alpha   98.60448481
_cell_angle_beta   106.71580726
_cell_angle_gamma   90.00157389
_symmetry_Int_Tables_number   1
_chemical_formula_structural   Ca2TiMnO6
_chemical_formula_sum   'Ca8 Ti4 Mn4 O24'
_cell_volume   444.28868691
_cell_formula_units_Z   4
loop_
 _symmetry_equiv_pos_site_id
 _symmetry_equiv_pos_as_xyz
  1  'x, y, z'
loop_
 _atom_site_type_symbol
 _atom_site_label
 _atom_site_symmetry_multiplicity
 _atom_site_fract_x
 _atom_site_fract_y
 _atom_site_fract_z
 _atom_site_occupancy
  Ca  Ca0  1  0.56250000  0.18750500  0.12500100  1
  Ca  Ca1  1  0.31249900  0.43749700  0.62499700  1
  Ca  Ca2  1  0.06250400  0.68750000  0.12500200  1
  Ca  Ca3  1  0.81250200  0.93750600  0.62500300  1
  Ca  Ca4  1  0.93750000  0.31249500  0.87499900  1
  Ca  Ca5  1  0.68749700  0.56249400  0.37499700  1
  Ca  Ca6  1  0.43749600  0.81250100  0.87499900  1
  Ca  Ca7  1  0.18750100  0.06250200  0.37500200  1
  Ti  Ti0  1  0.00000200  0.00001000  0.99999600  1
  Ti  Ti1  1  0.75000000  0.24999900  0.50000000  1
  Ti  Ti2  1  0.49999800  0.49999100  0.00000400  1
  Ti  Ti3  1  0.25000000  0.75000100  0.49999900  1
  Mn  Mn0  1  0.87499700  0.62496300  0.74995700  1
  Mn  Mn1  1  0.62500000  0.87503600  0.25004400  1
  Mn  Mn2  1  0.37500100  0.12496000  0.74995700  1
  Mn  Mn3  1  0.12500500  0.37504100  0.25004700  1
  O  O0  1  0.06318200  0.18955500  0.12636700  1
  O  O1  1  0.81319600  0.43957800  0.62638900  1
  O  O2  1  0.56318300  0.68955600  0.12636900  1
  O  O3  1  0.31319600  0.93957800  0.62639000  1
  O  O4  1  0.43681800  0.31044600  0.87363300  1
  O  O5  1  0.18680300  0.56042100  0.37360900  1
  O  O6  1  0.93681600  0.81044300  0.87363100  1
  O  O7  1  0.68680400  0.06042300  0.37361100  1
  O  O8  1  0.25882500  0.04934300  0.90132100  1
  O  O9  1  0.00886900  0.29933600  0.40131600  1
  O  O10  1  0.75882800  0.54934200  0.90132100  1
  O  O11  1  0.50887400  0.79933600  0.40131700  1
  O  O12  1  0.49113100  0.20066400  0.59868300  1
  O  O13  1  0.24117500  0.45065700  0.09867900  1
  O  O14  1  0.99112500  0.70066400  0.59868300  1
  O  O15  1  0.74117200  0.95065800  0.09867900  1
  O  O16  1  0.72561700  0.07704500  0.84591100  1
  O  O17  1  0.47561000  0.32703900  0.34591000  1
  O  O18  1  0.22561600  0.57704700  0.84590700  1
  O  O19  1  0.97561100  0.82703900  0.34590900  1
  O  O20  1  0.02438900  0.17296100  0.65409000  1
  O  O21  1  0.77438300  0.42295400  0.15408800  1
  O  O22  1  0.52438900  0.67296000  0.65409200  1
  O  O23  1  0.27438300  0.92295300  0.15409200  1
loop_
_geom_bond_atom_site_label_1
_geom_bond_atom_site_label_2
_geom_bond_distance
_geom_bond_site_symmetry_2
Ca0 O21 2.432427 1_555
Ca0 O17 2.432440 1_555
Ca0 O8 2.432581 1_554
Ca0 O15 2.432659 1_545
Ca0 O4 2.678922 1_554
Ca0 O7 2.678946 1_555
Ca0 O0 2.678992 1_655
Ca0 O0 2.679004 1_555
Ca1 O12 2.432444 1_555
Ca1 O9 2.432481 1_555
Ca1 O18 2.432493 1_555
Ca1 O22 2.432549 1_555
Ca1 O4 2.678986 1_555
Ca1 O5 2.678993 1_555
Ca1 O1 2.678996 1_455
Ca1 O1 2.679006 1_555
Ca2 O23 2.432447 1_555
Ca2 O19 2.432451 1_455
Ca2 O10 2.432573 1_454
Ca2 O13 2.432623 1_555
Ca2 O5 2.678906 1_555
Ca2 O6 2.678957 1_454
Ca2 O2 2.678974 1_555
Ca2 O2 2.679023 1_455
Ca3 O16 2.432440 1_565
Ca3 O20 2.432487 1_665
Ca3 O14 2.432504 1_555
Ca3 O11 2.432538 1_555
Ca3 O6 2.678987 1_555
Ca3 O7 2.678989 1_565
Ca3 O3 2.678998 1_555
Ca3 O3 2.679002 1_655
Ca4 O16 2.432434 1_555
Ca4 O20 2.432437 1_655
Ca4 O13 2.432581 1_656
Ca4 O10 2.432659 1_555
Ca4 O0 2.678917 1_656
Ca4 O1 2.678951 1_555
Ca4 O4 2.678992 1_555
Ca4 O4 2.679003 1_655
Ca5 O21 2.432454 1_555
Ca5 O17 2.432487 1_555
Ca5 O11 2.432504 1_555
Ca5 O14 2.432538 1_555
Ca5 O2 2.678982 1_555
Ca5 O1 2.678983 1_555
Ca5 O5 2.679000 1_555
Ca5 O5 2.679000 1_655
Ca6 O18 2.432455 1_555
Ca6 O22 2.432459 1_555
Ca6 O15 2.432564 1_556
Ca6 O8 2.432614 1_565
Ca6 O3 2.678911 1_555
Ca6 O2 2.678959 1_556
Ca6 O6 2.678977 1_455
Ca6 O6 2.679020 1_555
Ca7 O9 2.432452 1_555
Ca7 O12 2.432484 1_555
Ca7 O23 2.432487 1_545
Ca7 O19 2.432552 1_445
Ca7 O0 2.678989 1_555
Ca7 O7 2.678993 1_555
Ca7 O3 2.678993 1_545
Ca7 O7 2.679008 1_455
Mn0 O1 1.912748 1_555
Mn0 O6 1.913894 1_555
Mn0 O14 1.919428 1_555
Mn0 O18 1.919863 1_655
Mn0 O22 1.919872 1_555
Mn0 O10 1.919924 1_555
Mn1 O7 1.912760 1_565
Mn1 O2 1.913898 1_555
Mn1 O11 1.919410 1_555
Mn1 O23 1.919861 1_555
Mn1 O19 1.919885 1_555
Mn1 O15 1.919945 1_555
Mn2 O3 1.912721 1_545
Mn2 O4 1.913948 1_555
Mn2 O12 1.919448 1_555
Mn2 O16 1.919854 1_555
Mn2 O20 1.919906 1_555
Mn2 O8 1.919926 1_555
Mn3 O5 1.912686 1_555
Mn3 O0 1.913963 1_555
Mn3 O9 1.919428 1_555
Mn3 O17 1.919869 1_555
Mn3 O21 1.919886 1_455
Mn3 O13 1.919937 1_555
O0 Ti0 1.955787 1_554
O1 Ti1 1.956120 1_555
O2 Ti2 1.955918 1_555
O3 Ti3 1.956112 1_555
O4 Ti2 1.955787 1_556
O5 Ti3 1.956131 1_555
O6 Ti0 1.955934 1_665
O7 Ti1 1.956096 1_555
O8 Ti0 1.960576 1_555
O9 Ti1 1.960855 1_455
O10 Ti2 1.960713 1_556
O11 Ti3 1.960858 1_555
O12 Ti1 1.960842 1_555
O13 Ti2 1.960579 1_555
O14 Ti3 1.960882 1_655
O15 Ti0 1.960715 1_664
O16 Ti0 1.960626 1_655
O17 Ti1 1.960690 1_555
O18 Ti2 1.960776 1_556
O19 Ti3 1.960678 1_655
O20 Ti1 1.960678 1_455
O21 Ti2 1.960630 1_555
O22 Ti3 1.960707 1_555
O23 Ti0 1.960772 1_564
