# generated using pymatgen
data_Nd2MnGaO6
_symmetry_space_group_name_H-M   'P 1'
_cell_length_a   5.80981500
_cell_length_b   5.47325700
_cell_length_c   9.44071101
_cell_angle_alpha   55.01548592
_cell_angle_beta   90.00000000
_cell_angle_gamma   90.00000000
_symmetry_Int_Tables_number   1
_chemical_formula_structural   Nd2MnGaO6
_chemical_formula_sum   'Nd4 Mn2 Ga2 O12'
_cell_volume   245.95719715
_cell_formula_units_Z   2
loop_
 _symmetry_equiv_pos_site_id
 _symmetry_equiv_pos_as_xyz
  1  'x, y, z'
loop_
 _atom_site_type_symbol
 _atom_site_label
 _atom_site_symmetry_multiplicity
 _atom_site_fract_x
 _atom_site_fract_y
 _atom_site_fract_z
 _atom_site_occupancy
  Nd  Nd0  1  0.93362600  0.73396600  0.75042900  1
  Nd  Nd1  1  0.43362600  0.26603400  0.74957100  1
  Nd  Nd2  1  0.06637400  0.26603400  0.24957100  1
  Nd  Nd3  1  0.56637400  0.73396600  0.25042900  1
  Mn  Mn0  1  0.50000000  0.00000000  0.50000000  1
  Mn  Mn1  1  0.00000000  0.00000000  0.00000000  1
  Ga  Ga0  1  0.50000000  0.50000000  0.00000000  1
  Ga  Ga1  1  0.00000000  0.50000000  0.50000000  1
  O  O0  1  0.19403300  0.33867100  0.95333500  1
  O  O1  1  0.69403300  0.66132900  0.54666500  1
  O  O2  1  0.81595800  0.26576100  0.45092100  1
  O  O3  1  0.31595800  0.73423900  0.04907900  1
  O  O4  1  0.80596700  0.66132900  0.04666500  1
  O  O5  1  0.30596700  0.33867100  0.45333500  1
  O  O6  1  0.18404200  0.73423900  0.54907900  1
  O  O7  1  0.68404200  0.26576100  0.95092100  1
  O  O8  1  0.52372300  0.84762100  0.74570900  1
  O  O9  1  0.02372300  0.15237900  0.75429100  1
  O  O10  1  0.47627700  0.15237900  0.25429100  1
  O  O11  1  0.97627700  0.84762100  0.24570900  1
loop_
_geom_bond_atom_site_label_1
_geom_bond_atom_site_label_2
_geom_bond_distance
_geom_bond_site_symmetry_2
Nd0 O9 2.369715 1_665
Nd0 O6 2.393066 1_655
Nd0 O0 2.426278 1_655
Nd0 O8 2.455304 1_555
Nd0 O1 2.583255 1_555
Nd0 O7 2.586527 1_555
Nd0 O4 2.693432 1_556
Nd0 O2 2.738044 1_565
Nd1 O8 2.369715 1_545
Nd1 O7 2.393066 1_555
Nd1 O1 2.426278 1_555
Nd1 O9 2.455304 1_555
Nd1 O0 2.583255 1_555
Nd1 O6 2.586527 1_555
Nd1 O5 2.693432 1_555
Nd1 O3 2.738044 1_546
Nd2 O11 2.369715 1_445
Nd2 O2 2.393066 1_455
Nd2 O4 2.426278 1_455
Nd2 O10 2.455304 1_555
Nd2 O5 2.583255 1_555
Nd2 O3 2.586527 1_555
Nd2 O0 2.693432 1_554
Nd2 O6 2.738044 1_545
Nd3 O10 2.369715 1_565
Nd3 O3 2.393066 1_555
Nd3 O5 2.426278 1_555
Nd3 O11 2.455304 1_555
Nd3 O4 2.583255 1_555
Nd3 O2 2.586527 1_555
Nd3 O1 2.693432 1_555
Nd3 O7 2.738044 1_564
Mn0 O8 1.969003 1_545
Mn0 O10 1.969003 1_555
Mn0 O5 1.991083 1_555
Mn0 O1 1.991083 1_545
Mn0 O6 2.219747 1_545
Mn0 O2 2.219747 1_555
Mn1 O9 1.969003 1_554
Mn1 O11 1.969003 1_445
Mn1 O0 1.991083 1_554
Mn1 O4 1.991083 1_445
Mn1 O7 2.219747 1_454
Mn1 O3 2.219747 1_545
Ga0 O3 1.919064 1_555
Ga0 O7 1.919064 1_554
Ga0 O10 2.040723 1_555
Ga0 O8 2.040723 1_554
Ga0 O0 2.140034 1_554
Ga0 O4 2.140034 1_555
Ga1 O6 1.919064 1_555
Ga1 O2 1.919064 1_455
Ga1 O11 2.040723 1_455
Ga1 O9 2.040723 1_555
Ga1 O5 2.140034 1_555
Ga1 O1 2.140034 1_455
