# generated using pymatgen
data_NaSiSbO5
_symmetry_space_group_name_H-M   'P 1'
_cell_length_a   6.41377900
_cell_length_b   10.74717900
_cell_length_c   12.98715200
_cell_angle_alpha   90.00000000
_cell_angle_beta   90.00000000
_cell_angle_gamma   90.00000000
_symmetry_Int_Tables_number   1
_chemical_formula_structural   NaSiSbO5
_chemical_formula_sum   'Na8 Si8 Sb8 O40'
_cell_volume   895.20478969
_cell_formula_units_Z   8
loop_
 _symmetry_equiv_pos_site_id
 _symmetry_equiv_pos_as_xyz
  1  'x, y, z'
loop_
 _atom_site_type_symbol
 _atom_site_label
 _atom_site_symmetry_multiplicity
 _atom_site_fract_x
 _atom_site_fract_y
 _atom_site_fract_z
 _atom_site_occupancy
  Na  Na0  1  0.24600400  0.57387200  0.39406500  1
  Na  Na1  1  0.75399600  0.07387200  0.60593500  1
  Na  Na2  1  0.25399600  0.57387200  0.89406500  1
  Na  Na3  1  0.74600400  0.07387200  0.10593500  1
  Na  Na4  1  0.28983100  0.77603200  0.15494900  1
  Na  Na5  1  0.71016900  0.27603200  0.84505100  1
  Na  Na6  1  0.21016900  0.77603200  0.65494900  1
  Na  Na7  1  0.78983100  0.27603200  0.34505100  1
  Si  Si0  1  0.02470500  0.99559900  0.31561700  1
  Si  Si1  1  0.97529500  0.49559900  0.68438300  1
  Si  Si2  1  0.47529500  0.99559900  0.81561700  1
  Si  Si3  1  0.52470500  0.49559900  0.18438300  1
  Si  Si4  1  0.82592700  0.75787300  0.01424200  1
  Si  Si5  1  0.17407300  0.25787300  0.98575800  1
  Si  Si6  1  0.67407300  0.75787300  0.51424200  1
  Si  Si7  1  0.32592700  0.25787300  0.48575800  1
  Sb  Sb0  1  0.76865500  0.73729100  0.26723000  1
  Sb  Sb1  1  0.23134500  0.23729100  0.73277000  1
  Sb  Sb2  1  0.73134500  0.73729100  0.76723000  1
  Sb  Sb3  1  0.26865500  0.23729100  0.23277000  1
  Sb  Sb4  1  0.02009400  0.50283700  0.11796600  1
  Sb  Sb5  1  0.97990600  0.00283700  0.88203400  1
  Sb  Sb6  1  0.47990600  0.50283700  0.61796600  1
  Sb  Sb7  1  0.52009400  0.00283700  0.38203400  1
  O  O0  1  0.53571100  0.85757700  0.28834800  1
  O  O1  1  0.46428900  0.35757700  0.71165200  1
  O  O2  1  0.96428900  0.85757700  0.78834800  1
  O  O3  1  0.03571100  0.35757700  0.21165200  1
  O  O4  1  0.50105700  0.11670600  0.25886600  1
  O  O5  1  0.49894300  0.61670600  0.74113400  1
  O  O6  1  0.99894300  0.11670600  0.75886600  1
  O  O7  1  0.00105700  0.61670600  0.24113400  1
  O  O8  1  0.98561900  0.86819400  0.24847000  1
  O  O9  1  0.01438100  0.36819400  0.75153000  1
  O  O10  1  0.51438100  0.86819400  0.74847000  1
  O  O11  1  0.48561900  0.36819400  0.25153000  1
  O  O12  1  0.05739000  0.10126800  0.22455300  1
  O  O13  1  0.94261000  0.60126800  0.77544700  1
  O  O14  1  0.44261000  0.10126800  0.72455300  1
  O  O15  1  0.66954600  0.72673400  0.91730900  1
  O  O16  1  0.55739000  0.60126800  0.27544700  1
  O  O17  1  0.78246700  0.47940300  0.60375100  1
  O  O18  1  0.28246700  0.97940300  0.89624900  1
  O  O19  1  0.71753300  0.47940300  0.10375100  1
  O  O20  1  0.82556900  0.03818200  0.38591900  1
  O  O21  1  0.17443100  0.53818200  0.61408100  1
  O  O22  1  0.67443100  0.03818200  0.88591900  1
  O  O23  1  0.32556900  0.53818200  0.11408100  1
  O  O24  1  0.51744600  0.15517700  0.47508400  1
  O  O25  1  0.48255400  0.65517700  0.52491600  1
  O  O26  1  0.98255400  0.15517700  0.97508400  1
  O  O27  1  0.01744600  0.65517700  0.02491600  1
  O  O28  1  0.43378800  0.39756100  0.49314200  1
  O  O29  1  0.56621200  0.89756100  0.50685800  1
  O  O30  1  0.06621200  0.39756100  0.99314200  1
  O  O31  1  0.93378800  0.89756100  0.00685800  1
  O  O32  1  0.18090500  0.25659500  0.38168600  1
  O  O33  1  0.81909500  0.75659500  0.61831400  1
  O  O34  1  0.31909500  0.25659500  0.88168600  1
  O  O35  1  0.68090500  0.75659500  0.11831400  1
  O  O36  1  0.16954600  0.22673400  0.58269100  1
  O  O37  1  0.83045400  0.72673400  0.41730900  1
  O  O38  1  0.33045400  0.22673400  0.08269100  1
  O  O39  1  0.21753300  0.97940300  0.39624900  1
loop_
_geom_bond_atom_site_label_1
_geom_bond_atom_site_label_2
_geom_bond_distance
_geom_bond_site_symmetry_2
Na0 O25 2.439930 1_555
Na0 O16 2.539392 1_555
Na0 O7 2.573872 1_555
Na0 O28 2.587799 1_555
Na0 O21 2.919329 1_555
Na1 O24 2.439930 1_555
Na1 O14 2.539392 1_555
Na1 O6 2.573872 1_555
Na1 O29 2.587799 1_545
Na1 O20 2.919329 1_555
Na2 O27 2.439930 1_556
Na2 O13 2.539392 1_455
Na2 O5 2.573872 1_555
Na2 O30 2.587799 1_555
Na2 O23 2.919329 1_556
Na3 O26 2.439930 1_554
Na3 O12 2.539392 1_655
Na3 O4 2.573872 1_555
Na3 O31 2.587799 1_545
Na3 O22 2.919329 1_554
Na4 O0 2.501299 1_555
Na4 O8 2.502642 1_455
Na4 O35 2.561520 1_555
Na4 O23 2.620780 1_555
Na4 O27 2.755174 1_555
Na4 O7 2.759567 1_555
Na5 O1 2.501299 1_555
Na5 O9 2.502642 1_655
Na5 O34 2.561520 1_555
Na5 O22 2.620780 1_555
Na5 O26 2.755174 1_555
Na5 O6 2.759567 1_555
Na6 O2 2.501299 1_455
Na6 O10 2.502642 1_555
Na6 O33 2.561520 1_455
Na6 O21 2.620780 1_555
Na6 O25 2.755174 1_555
Na6 O5 2.759567 1_555
Na7 O3 2.501299 1_655
Na7 O11 2.502642 1_555
Na7 O32 2.561520 1_655
Na7 O20 2.620780 1_555
Na7 O24 2.755174 1_555
Na7 O4 2.759567 1_555
O0 Sb7 1.981810 1_565
O0 Sb0 1.994636 1_555
O1 Sb6 1.981810 1_555
O1 Sb1 1.994636 1_555
O2 Sb5 1.981810 1_565
O2 Sb2 1.994636 1_555
O3 Sb4 1.981810 1_555
O3 Sb3 1.994636 1_555
O4 Sb3 2.004036 1_555
O4 Sb7 2.017733 1_555
O5 Sb2 2.004036 1_555
O5 Sb6 2.017733 1_555
O6 Sb1 2.004036 1_655
O6 Sb5 2.017733 1_555
O7 Sb0 2.004036 1_455
O7 Sb4 2.017733 1_555
O8 Si0 1.642603 1_655
O8 Sb0 1.993738 1_555
O9 Si1 1.642603 1_455
O9 Sb1 1.993738 1_555
O10 Si2 1.642603 1_555
O10 Sb2 1.993738 1_555
O11 Si3 1.642603 1_555
O11 Sb3 1.993738 1_555
O12 Si0 1.652974 1_545
O12 Sb3 1.996116 1_555
O13 Si1 1.652974 1_555
O13 Sb2 1.996116 1_555
O14 Si2 1.652974 1_545
O14 Sb1 1.996116 1_555
O15 Si4 1.644013 1_556
O15 Sb2 1.992226 1_555
O16 Si3 1.652974 1_555
O16 Sb0 1.996116 1_555
O17 Si1 1.629862 1_555
O17 Sb6 1.965523 1_555
O18 Si2 1.629862 1_555
O18 Sb5 1.965523 1_465
O19 Si3 1.629862 1_555
O19 Sb4 1.965523 1_655
O20 Si0 1.635337 1_645
O20 Sb7 1.996371 1_555
O21 Si1 1.635337 1_455
O21 Sb6 1.996371 1_555
O22 Si2 1.635337 1_545
O22 Sb5 1.996371 1_555
O23 Si3 1.635337 1_555
O23 Sb4 1.996371 1_555
O24 Si7 1.657173 1_555
O24 Sb7 2.034983 1_555
O25 Si6 1.657173 1_555
O25 Sb6 2.034983 1_555
O26 Si5 1.657173 1_655
O26 Sb5 2.034983 1_555
O27 Si4 1.657173 1_455
O27 Sb4 2.034983 1_555
O28 Si7 1.655758 1_555
O28 Sb6 1.998899 1_555
O29 Si6 1.655758 1_555
O29 Sb7 1.998899 1_565
O30 Si5 1.655758 1_555
O30 Sb4 1.998899 1_556
O31 Si4 1.655758 1_555
O31 Sb5 1.998899 1_564
O32 Si7 1.640782 1_555
O32 Sb3 2.024878 1_555
O33 Si6 1.640782 1_555
O33 Sb2 2.024878 1_555
O34 Si5 1.640782 1_555
O34 Sb1 2.024878 1_555
O35 Si4 1.640782 1_555
O35 Sb0 2.024878 1_555
O36 Si7 1.644013 1_555
O36 Sb1 1.992226 1_555
O37 Si6 1.644013 1_555
O37 Sb0 1.992226 1_555
O38 Si5 1.644013 1_554
O38 Sb3 1.992226 1_555
O39 Si0 1.629862 1_555
O39 Sb7 1.965523 1_565
