# generated using pymatgen
data_NaEuZr4O12
_symmetry_space_group_name_H-M   'P 1'
_cell_length_a   5.73251711
_cell_length_b   5.73251711
_cell_length_c   8.28844347
_cell_angle_alpha   90.00000000
_cell_angle_beta   90.00000000
_cell_angle_gamma   89.39908923
_symmetry_Int_Tables_number   1
_chemical_formula_structural   NaEuZr4O12
_chemical_formula_sum   'Na1 Eu1 Zr4 O12'
_cell_volume   272.35779701
_cell_formula_units_Z   1
loop_
 _symmetry_equiv_pos_site_id
 _symmetry_equiv_pos_as_xyz
  1  'x, y, z'
loop_
 _atom_site_type_symbol
 _atom_site_label
 _atom_site_symmetry_multiplicity
 _atom_site_fract_x
 _atom_site_fract_y
 _atom_site_fract_z
 _atom_site_occupancy
  Na  Na0  1  0.02006817  0.97993183  0.50000000  1
  Eu  Eu0  1  0.47678283  0.52321717  -0.00000000  1
  Zr  Zr0  1  0.50934352  0.01364998  0.26244990  1
  Zr  Zr1  1  0.50934352  0.01364998  0.73755010  1
  Zr  Zr2  1  -0.01364998  0.49065648  0.73755010  1
  Zr  Zr3  1  -0.01364998  0.49065648  0.26244990  1
  O  O0  1  0.29895390  0.30533538  0.21127431  1
  O  O1  1  0.69466462  0.70104610  0.21127431  1
  O  O2  1  0.69466462  0.70104610  0.78872569  1
  O  O3  1  0.29895390  0.30533538  0.78872569  1
  O  O4  1  0.23255671  0.76744329  0.18867192  1
  O  O5  1  0.81289195  0.18710805  0.29982763  1
  O  O6  1  0.81289195  0.18710805  0.70017237  1
  O  O7  1  0.23255671  0.76744329  0.81132808  1
  O  O8  1  0.55024552  0.08344041  -0.00000000  1
  O  O9  1  0.42328252  -0.01253993  0.50000000  1
  O  O10  1  0.91655959  0.44975448  -0.00000000  1
  O  O11  1  0.01253993  0.57671748  0.50000000  1
loop_
_geom_bond_atom_site_label_1
_geom_bond_atom_site_label_2
_geom_bond_distance
_geom_bond_site_symmetry_2
Na0 O11 2.312288 1_555
Na0 O9 2.312288 1_565
Na0 O5 2.354585 1_465
Na0 O6 2.354585 1_465
Eu0 O1 2.385875 1_555
Eu0 O2 2.385875 1_554
Eu0 O3 2.385875 1_554
Eu0 O0 2.385875 1_555
Eu0 O7 2.514859 1_554
Eu0 O4 2.514859 1_555
Eu0 O10 2.551599 1_555
Eu0 O8 2.551599 1_555
O0 Zr0 2.094778 1_555
O0 Zr3 2.116572 1_555
O1 Zr3 2.094778 1_655
O1 Zr0 2.116572 1_565
O2 Zr2 2.094778 1_655
O2 Zr1 2.116572 1_565
O3 Zr1 2.094778 1_555
O3 Zr2 2.116572 1_555
O4 Zr3 2.220470 1_555
O4 Zr0 2.220470 1_565
O5 Zr3 2.036895 1_655
O5 Zr0 2.036895 1_555
O6 Zr1 2.036895 1_555
O6 Zr2 2.036895 1_655
O7 Zr2 2.220470 1_555
O7 Zr1 2.220470 1_565
O8 Zr1 2.224621 1_554
O8 Zr0 2.224621 1_555
O9 Zr1 2.035714 1_555
O9 Zr0 2.035714 1_555
O10 Zr3 2.224621 1_655
O10 Zr2 2.224621 1_654
O11 Zr3 2.035714 1_555
O11 Zr2 2.035714 1_555
