# generated using pymatgen
data_LaZnCo2
_symmetry_space_group_name_H-M   'P 1'
_cell_length_a   5.20049630
_cell_length_b   5.20049630
_cell_length_c   16.67100800
_cell_angle_alpha   90.00000000
_cell_angle_beta   90.00000000
_cell_angle_gamma   120.00000388
_symmetry_Int_Tables_number   1
_chemical_formula_structural   LaZnCo2
_chemical_formula_sum   'La6 Zn6 Co12'
_cell_volume   390.46495292
_cell_formula_units_Z   6
loop_
 _symmetry_equiv_pos_site_id
 _symmetry_equiv_pos_as_xyz
  1  'x, y, z'
loop_
 _atom_site_type_symbol
 _atom_site_label
 _atom_site_symmetry_multiplicity
 _atom_site_fract_x
 _atom_site_fract_y
 _atom_site_fract_z
 _atom_site_occupancy
  La  La0  1  0.66666700  0.33333300  0.45335000  1
  La  La1  1  0.33333300  0.66666700  0.54665000  1
  La  La2  1  0.33333300  0.66666700  0.95335000  1
  La  La3  1  0.66666700  0.33333300  0.04665000  1
  La  La4  1  0.66666700  0.33333300  0.25000000  1
  La  La5  1  0.33333300  0.66666700  0.75000000  1
  Zn  Zn0  1  0.00000000  0.00000000  0.75000000  1
  Zn  Zn1  1  0.00000000  0.00000000  0.25000000  1
  Zn  Zn2  1  0.66666700  0.33333300  0.75000000  1
  Zn  Zn3  1  0.33333300  0.66666700  0.25000000  1
  Zn  Zn4  1  0.00000000  0.00000000  0.00000000  1
  Zn  Zn5  1  0.00000000  0.00000000  0.50000000  1
  Co  Co0  1  0.83346900  0.16653100  0.87212800  1
  Co  Co1  1  0.16653100  0.83346900  0.12787200  1
  Co  Co2  1  0.33306300  0.16653100  0.87212800  1
  Co  Co3  1  0.16653100  0.83346900  0.37212800  1
  Co  Co4  1  0.66693700  0.83346900  0.12787200  1
  Co  Co5  1  0.83346900  0.16653100  0.62787200  1
  Co  Co6  1  0.83346900  0.66693700  0.87212800  1
  Co  Co7  1  0.66693700  0.83346900  0.37212800  1
  Co  Co8  1  0.16653100  0.33306300  0.12787200  1
  Co  Co9  1  0.33306300  0.16653100  0.62787200  1
  Co  Co10  1  0.16653100  0.33306300  0.37212800  1
  Co  Co11  1  0.83346900  0.66693700  0.62787200  1
loop_
_geom_bond_atom_site_label_1
_geom_bond_atom_site_label_2
_geom_bond_distance
_geom_bond_site_symmetry_2
La0 Zn5 3.101590 1_655
La0 Zn5 3.101594 1_555
La0 Zn5 3.101594 1_665
La0 La1 3.381467 1_545
La0 La1 3.381467 1_655
La0 La1 3.381475 1_555
La0 La4 3.390049 1_555
La1 Zn5 3.101590 1_565
La1 Zn5 3.101594 1_665
La1 Zn5 3.101594 1_555
La1 La5 3.390049 1_555
La2 Zn4 3.101590 1_566
La2 Zn4 3.101594 1_666
La2 Zn4 3.101594 1_556
La2 La3 3.381467 1_456
La2 La3 3.381467 1_566
La2 La3 3.381475 1_556
La2 La5 3.390049 1_555
La3 Zn4 3.101590 1_655
La3 Zn4 3.101594 1_555
La3 Zn4 3.101594 1_665
La3 La4 3.390049 1_555
La4 Zn3 3.002505 1_545
La4 Zn3 3.002505 1_655
La4 Zn1 3.002505 1_655
La4 Zn1 3.002509 1_555
La4 Zn1 3.002509 1_665
La4 Zn3 3.002514 1_555
La5 Zn2 3.002505 1_455
La5 Zn2 3.002505 1_565
La5 Zn0 3.002505 1_565
La5 Zn0 3.002509 1_665
La5 Zn0 3.002509 1_555
La5 Zn2 3.002514 1_555
Zn0 Zn2 3.002505 1_455
Zn0 Zn2 3.002509 1_555
Zn0 Zn2 3.002509 1_445
Zn1 Zn3 3.002505 1_545
Zn1 Zn3 3.002509 1_445
Zn1 Zn3 3.002509 1_555
Co0 Zn0 2.528909 1_655
Co0 Zn2 2.530357 1_555
Co0 Co6 2.598137 1_545
Co0 Co2 2.598137 1_655
Co0 Co2 2.602360 1_555
Co0 Co6 2.602360 1_555
Co0 Zn4 2.606622 1_656
Co0 La2 2.931680 1_545
Co0 La2 2.931680 1_655
Co0 La3 3.274503 1_556
Co0 La5 3.302510 1_545
Co0 La5 3.302510 1_655
Co1 Zn1 2.528909 1_565
Co1 Zn3 2.530357 1_555
Co1 Co4 2.598137 1_455
Co1 Co8 2.598137 1_565
Co1 Co8 2.602360 1_555
Co1 Co4 2.602360 1_555
Co1 Zn4 2.606622 1_565
Co1 La3 2.931680 1_455
Co1 La3 2.931680 1_565
Co1 La2 3.274503 1_554
Co1 La4 3.302510 1_455
Co1 La4 3.302510 1_565
Co2 Zn0 2.528911 1_555
Co2 Zn2 2.530357 1_555
Co2 Co6 2.598137 1_445
Co2 Co6 2.602359 1_555
Co2 Zn4 2.606624 1_556
Co2 La2 2.931676 1_545
Co2 La2 2.931685 1_555
Co2 La3 3.274503 1_556
Co2 La5 3.302506 1_545
Co2 La5 3.302515 1_555
Co3 Zn1 2.528909 1_565
Co3 Zn3 2.530357 1_555
Co3 Co7 2.598137 1_455
Co3 Co7 2.602360 1_555
Co3 Zn5 2.606622 1_565
Co3 La0 2.931680 1_455
Co3 La0 2.931680 1_565
Co3 La1 3.274503 1_555
Co3 La4 3.302510 1_455
Co3 La4 3.302510 1_565
Co4 Zn1 2.528911 1_665
Co4 Zn3 2.530357 1_555
Co4 Co8 2.598137 1_665
Co4 Co8 2.602359 1_555
Co4 Zn4 2.606624 1_665
Co4 La3 2.931676 1_565
Co4 La3 2.931685 1_555
Co4 La2 3.274503 1_554
Co4 La4 3.302506 1_565
Co4 La4 3.302515 1_555
Co5 Zn0 2.528909 1_655
Co5 Zn2 2.530357 1_555
Co5 Co9 2.598137 1_655
Co5 Co9 2.602360 1_555
Co5 Zn5 2.606622 1_655
Co5 La1 2.931680 1_545
Co5 La1 2.931680 1_655
Co5 La0 3.274503 1_555
Co5 La5 3.302510 1_545
Co5 La5 3.302510 1_655
Co6 Zn0 2.528911 1_665
Co6 Zn2 2.530357 1_555
Co6 Zn4 2.606624 1_666
Co6 La2 2.931676 1_655
Co6 La2 2.931685 1_555
Co6 La3 3.274503 1_556
Co6 La5 3.302506 1_655
Co6 La5 3.302515 1_555
Co7 Zn1 2.528911 1_665
Co7 Zn3 2.530357 1_555
Co7 Zn5 2.606624 1_665
Co7 La0 2.931676 1_565
Co7 La0 2.931685 1_555
Co7 La1 3.274503 1_555
Co7 La4 3.302506 1_565
Co7 La4 3.302515 1_555
Co8 Zn1 2.528911 1_555
Co8 Zn3 2.530357 1_555
Co8 Zn4 2.606624 1_555
Co8 La3 2.931676 1_455
Co8 La3 2.931685 1_555
Co8 La2 3.274503 1_554
Co8 La4 3.302506 1_455
Co8 La4 3.302515 1_555
Co9 Zn0 2.528911 1_555
Co9 Zn2 2.530357 1_555
Co9 Zn5 2.606624 1_555
Co9 La1 2.931676 1_545
Co9 La1 2.931685 1_555
Co9 La0 3.274503 1_555
Co9 La5 3.302506 1_545
Co9 La5 3.302515 1_555
Co10 Zn1 2.528911 1_555
Co10 Zn3 2.530357 1_555
Co10 Co7 2.598137 1_445
Co10 Co3 2.598137 1_545
Co10 Co7 2.602359 1_555
Co10 Co3 2.602360 1_555
Co10 Zn5 2.606624 1_555
Co10 La0 2.931676 1_455
Co10 La0 2.931685 1_555
Co10 La1 3.274503 1_555
Co10 La4 3.302506 1_455
Co10 La4 3.302515 1_555
Co11 Zn0 2.528911 1_665
Co11 Zn2 2.530357 1_555
Co11 Co9 2.598137 1_665
Co11 Co5 2.598137 1_565
Co11 Co9 2.602359 1_555
Co11 Co5 2.602360 1_555
Co11 Zn5 2.606624 1_665
Co11 La1 2.931676 1_655
Co11 La1 2.931685 1_555
Co11 La0 3.274503 1_555
Co11 La5 3.302506 1_655
Co11 La5 3.302515 1_555
