# generated using pymatgen
data_Tl3Co3O8
_symmetry_space_group_name_H-M   'P 1'
_cell_length_a   5.55733206
_cell_length_b   11.39733878
_cell_length_c   5.59875144
_cell_angle_alpha   90.04776136
_cell_angle_beta   87.36585679
_cell_angle_gamma   89.97228951
_symmetry_Int_Tables_number   1
_chemical_formula_structural   Tl3Co3O8
_chemical_formula_sum   'Tl6 Co6 O16'
_cell_volume   354.24330149
_cell_formula_units_Z   2
loop_
 _symmetry_equiv_pos_site_id
 _symmetry_equiv_pos_as_xyz
  1  'x, y, z'
loop_
 _atom_site_type_symbol
 _atom_site_label
 _atom_site_symmetry_multiplicity
 _atom_site_fract_x
 _atom_site_fract_y
 _atom_site_fract_z
 _atom_site_occupancy
  Tl  Tl0  1  0.79059500  0.50040700  0.25342100  1
  Tl  Tl1  1  0.29262200  0.50043400  0.73533300  1
  Tl  Tl2  1  0.70279900  0.17838200  0.26831000  1
  Tl  Tl3  1  0.19661600  0.82212700  0.73903700  1
  Tl  Tl4  1  0.70021200  0.82212000  0.26819400  1
  Tl  Tl5  1  0.19915200  0.17802300  0.73885500  1
  Co  Co0  1  0.69546100  0.00032300  0.80254700  1
  Co  Co1  1  0.74496500  0.67021900  0.75454300  1
  Co  Co2  1  0.74654600  0.32972700  0.75491700  1
  Co  Co3  1  0.19364100  0.00012000  0.20233700  1
  Co  Co4  1  0.25036900  0.32917700  0.24343100  1
  Co  Co5  1  0.24838500  0.67098300  0.24292900  1
  O  O0  1  0.96191700  0.27791800  0.04573400  1
  O  O1  1  0.46462700  0.71909600  0.93666900  1
  O  O2  1  0.46698600  0.28074400  0.93830000  1
  O  O3  1  0.95728300  0.72063700  0.04580800  1
  O  O4  1  0.84377400  0.99994100  0.12407400  1
  O  O5  1  0.33999400  0.99968200  0.86950600  1
  O  O6  1  0.17856000  0.49997400  0.13817400  1
  O  O7  1  0.67888300  0.50000100  0.86389600  1
  O  O8  1  0.30677100  0.14585800  0.35145200  1
  O  O9  1  0.80447100  0.85353400  0.64576900  1
  O  O10  1  0.30531900  0.85389400  0.35083400  1
  O  O11  1  0.80556100  0.14666500  0.64570700  1
  O  O12  1  0.55922900  0.36542700  0.44410900  1
  O  O13  1  0.04697400  0.63740300  0.57528000  1
  O  O14  1  0.04948900  0.36347200  0.57651900  1
  O  O15  1  0.55520000  0.63371200  0.44431300  1
loop_
_geom_bond_atom_site_label_1
_geom_bond_atom_site_label_2
_geom_bond_distance
_geom_bond_site_symmetry_2
Co0 O11 1.970131 1_555
Co0 O9 1.970812 1_545
Co0 O5 1.993724 1_545
Co0 O4 2.014024 1_546
Co1 O1 1.905102 1_555
Co1 O13 1.951420 1_655
Co1 O7 2.062870 1_555
Co1 O15 2.114163 1_555
Co1 O3 2.134858 1_556
Co1 O9 2.197659 1_555
Co2 O2 1.906487 1_555
Co2 O14 1.956168 1_655
Co2 O7 2.063034 1_555
Co2 O12 2.108210 1_555
Co2 O0 2.147634 1_556
Co2 O11 2.193934 1_555
Co3 O8 1.974386 1_555
Co3 O10 1.975514 1_545
Co3 O5 1.998652 1_544
Co3 O4 2.012640 1_445
Co4 O0 2.073413 1_455
Co4 O6 2.078145 1_555
Co4 O2 2.116861 1_554
Co4 O12 2.134569 1_555
Co4 O14 2.164210 1_555
Co4 O8 2.201882 1_555
Co5 O6 2.076797 1_555
Co5 O3 2.078377 1_455
Co5 O1 2.120792 1_554
Co5 O15 2.129737 1_555
Co5 O13 2.161454 1_555
Co5 O10 2.197081 1_555
O0 Tl2 2.180014 1_555
O0 Tl5 2.402813 1_654
O1 Tl3 2.230158 1_555
O1 Tl4 2.599853 1_556
O2 Tl5 2.232773 1_555
O2 Tl2 2.591704 1_556
O3 Tl4 2.182092 1_555
O3 Tl3 2.419046 1_654
O4 Tl2 2.310763 1_565
O4 Tl4 2.310881 1_555
O5 Tl3 2.305697 1_555
O5 Tl5 2.309280 1_565
O6 Tl0 2.221942 1_455
O6 Tl1 2.314585 1_554
O7 Tl0 2.294776 1_556
O7 Tl1 2.295201 1_555
O8 Tl5 2.252944 1_555
O8 Tl2 2.259376 1_555
O9 Tl4 2.245929 1_555
O9 Tl3 2.292210 1_655
O10 Tl4 2.250977 1_555
O10 Tl3 2.258485 1_555
O11 Tl2 2.243516 1_555
O11 Tl5 2.299860 1_655
O12 Tl0 2.244597 1_555
O12 Tl2 2.464276 1_555
O12 Tl1 2.644415 1_555
O13 Tl1 2.283924 1_555
O13 Tl3 2.456271 1_555
O14 Tl1 2.272257 1_555
O14 Tl5 2.460940 1_555
O15 Tl0 2.242487 1_555
O15 Tl4 2.482943 1_555
O15 Tl1 2.622837 1_555
