# generated using pymatgen
data_MgO2
_symmetry_space_group_name_H-M   'P 1'
_cell_length_a   3.24416542
_cell_length_b   7.18930094
_cell_length_c   6.90608226
_cell_angle_alpha   84.30556989
_cell_angle_beta   75.14511304
_cell_angle_gamma   62.08644731
_symmetry_Int_Tables_number   1
_chemical_formula_structural   MgO2
_chemical_formula_sum   'Mg4 O8'
_cell_volume   137.53472560
_cell_formula_units_Z   4
loop_
 _symmetry_equiv_pos_site_id
 _symmetry_equiv_pos_as_xyz
  1  'x, y, z'
loop_
 _atom_site_type_symbol
 _atom_site_label
 _atom_site_symmetry_multiplicity
 _atom_site_fract_x
 _atom_site_fract_y
 _atom_site_fract_z
 _atom_site_occupancy
  Mg  Mg0  1  0.14734600  0.16580700  0.26288600  1
  Mg  Mg1  1  0.84975900  0.81434100  0.76534100  1
  Mg  Mg2  1  0.07962500  0.62373400  0.14857400  1
  Mg  Mg3  1  0.91442400  0.35615800  0.87947600  1
  O  O0  1  0.46866900  0.81216400  0.56299700  1
  O  O1  1  0.26283600  0.52613400  0.84036600  1
  O  O2  1  0.73127500  0.45356100  0.18789100  1
  O  O3  1  0.52761100  0.16824100  0.46532600  1
  O  O4  1  0.42732800  0.11985000  0.65922700  1
  O  O5  1  0.85924200  0.10240200  0.05524300  1
  O  O6  1  0.56830400  0.86016800  0.36889500  1
  O  O7  1  0.13981000  0.87700700  0.97294600  1
loop_
_geom_bond_atom_site_label_1
_geom_bond_atom_site_label_2
_geom_bond_distance
_geom_bond_site_symmetry_2
Mg0 O2 1.975171 1_455
Mg0 O5 2.086523 1_455
Mg0 O3 2.094320 1_555
Mg0 O3 2.127856 1_455
Mg0 O6 2.147810 1_545
Mg0 O5 2.245861 1_555
Mg1 O1 1.975030 1_655
Mg1 O7 2.088266 1_655
Mg1 O0 2.095176 1_555
Mg1 O0 2.126195 1_655
Mg1 O4 2.148630 1_565
Mg1 O7 2.242044 1_555
Mg2 O2 1.961267 1_555
Mg2 O2 1.979613 1_455
Mg2 O6 2.129605 1_455
Mg2 O7 2.144280 1_554
Mg2 O1 2.152534 1_554
Mg3 O1 1.960449 1_555
Mg3 O1 1.978646 1_655
Mg3 O4 2.130001 1_655
Mg3 O5 2.142098 1_556
Mg3 O2 2.153502 1_556
O0 O6 1.345717 1_555
O3 O4 1.345435 1_555
O5 O7 1.521141 1_644
