# generated using pymatgen
data_Li5Co3O8
_symmetry_space_group_name_H-M   'P 1'
_cell_length_a   5.77828496
_cell_length_b   5.77828496
_cell_length_c   5.03907682
_cell_angle_alpha   73.27354437
_cell_angle_beta   73.27354437
_cell_angle_gamma   59.79070769
_symmetry_Int_Tables_number   1
_chemical_formula_structural   Li5Co3O8
_chemical_formula_sum   'Li5 Co3 O8'
_cell_volume   137.15255237
_cell_formula_units_Z   1
loop_
 _symmetry_equiv_pos_site_id
 _symmetry_equiv_pos_as_xyz
  1  'x, y, z'
loop_
 _atom_site_type_symbol
 _atom_site_label
 _atom_site_symmetry_multiplicity
 _atom_site_fract_x
 _atom_site_fract_y
 _atom_site_fract_z
 _atom_site_occupancy
  Li  Li0  1  0.24487200  0.75512800  0.50000000  1
  Li  Li1  1  0.24926900  0.24926900  0.49950900  1
  Li  Li2  1  0.75073100  0.75073100  0.50049100  1
  Li  Li3  1  0.75512800  0.24487200  0.50000000  1
  Li  Li4  1  0.00000000  0.00000000  0.00000000  1
  Co  Co0  1  0.00000000  0.50000000  0.00000000  1
  Co  Co1  1  0.50000000  0.00000000  0.00000000  1
  Co  Co2  1  0.50000000  0.50000000  0.00000000  1
  O  O0  1  0.38975500  0.85217700  0.77915100  1
  O  O1  1  0.38017200  0.38017200  0.76792900  1
  O  O2  1  0.86164700  0.86164700  0.77227000  1
  O  O3  1  0.85217700  0.38975500  0.77915100  1
  O  O4  1  0.14782300  0.61024500  0.22084900  1
  O  O5  1  0.13835300  0.13835300  0.22773000  1
  O  O6  1  0.61982800  0.61982800  0.23207100  1
  O  O7  1  0.61024500  0.14782300  0.22084900  1
loop_
_geom_bond_atom_site_label_1
_geom_bond_atom_site_label_2
_geom_bond_distance
_geom_bond_site_symmetry_2
Li0 O6 2.085056 1_555
Li0 O1 2.085056 1_555
Li0 O2 2.128484 1_455
Li0 O5 2.128484 1_565
Li0 O0 2.144381 1_555
Li0 O4 2.144381 1_555
Li1 O5 2.029998 1_555
Li1 O4 2.055119 1_555
Li1 O7 2.055119 1_555
Li1 O1 2.174237 1_555
Li1 O3 2.198265 1_455
Li1 O0 2.198265 1_545
Li2 O2 2.029998 1_555
Li2 O3 2.055119 1_555
Li2 O0 2.055119 1_555
Li2 O6 2.174237 1_555
Li2 O4 2.198265 1_655
Li2 O7 2.198265 1_565
Li3 O6 2.085056 1_555
Li3 O1 2.085056 1_555
Li3 O5 2.128484 1_655
Li3 O2 2.128484 1_545
Li3 O7 2.144381 1_555
Li3 O3 2.144381 1_555
Li4 O7 2.051531 1_455
Li4 O3 2.051531 1_454
Li4 O0 2.051531 1_544
Li4 O4 2.051531 1_545
Li4 O2 2.072283 1_444
Li4 O5 2.072283 1_555
Co0 O5 1.946640 1_555
Co0 O2 1.946640 1_454
Co0 O3 1.968928 1_454
Co0 O4 1.968928 1_555
Co0 O6 2.032091 1_455
Co0 O1 2.032091 1_554
Co1 O5 1.946640 1_555
Co1 O2 1.946640 1_544
Co1 O0 1.968928 1_544
Co1 O7 1.968928 1_555
Co1 O1 2.032091 1_554
Co1 O6 2.032091 1_545
Co2 O4 1.893517 1_555
Co2 O0 1.893517 1_554
Co2 O3 1.893517 1_554
Co2 O7 1.893517 1_555
Co2 O1 1.934162 1_554
Co2 O6 1.934162 1_555
