# generated using pymatgen
data_Mg14FeNi
_symmetry_space_group_name_H-M   'P 1'
_cell_length_a   6.14585449
_cell_length_b   6.14585403
_cell_length_c   9.69337038
_cell_angle_alpha   90.00000000
_cell_angle_beta   90.00000000
_cell_angle_gamma   120.00000254
_symmetry_Int_Tables_number   1
_chemical_formula_structural   Mg14FeNi
_chemical_formula_sum   'Mg14 Fe1 Ni1'
_cell_volume   317.08079798
_cell_formula_units_Z   1
loop_
 _symmetry_equiv_pos_site_id
 _symmetry_equiv_pos_as_xyz
  1  'x, y, z'
loop_
 _atom_site_type_symbol
 _atom_site_label
 _atom_site_symmetry_multiplicity
 _atom_site_fract_x
 _atom_site_fract_y
 _atom_site_fract_z
 _atom_site_occupancy
  Mg  Mg0  1  0.16777129  0.83388514  0.12500000  1
  Mg  Mg1  1  0.16653627  0.83326764  0.62500000  1
  Mg  Mg2  1  0.66611486  0.33222871  0.12500000  1
  Mg  Mg3  1  0.66673236  0.33346373  0.62500000  1
  Mg  Mg4  1  0.66611486  0.83388514  0.12500000  1
  Mg  Mg5  1  0.66673236  0.83326764  0.62500000  1
  Mg  Mg6  1  0.32383592  0.17616408  0.37408698  1
  Mg  Mg7  1  0.32383592  0.17616408  0.87591302  1
  Mg  Mg8  1  0.32383592  0.64767284  0.37408698  1
  Mg  Mg9  1  0.32383592  0.64767284  0.87591302  1
  Mg  Mg10  1  0.85232716  0.17616408  0.37408698  1
  Mg  Mg11  1  0.85232716  0.17616408  0.87591302  1
  Mg  Mg12  1  0.83333300  0.66666700  0.37414145  1
  Mg  Mg13  1  0.83333300  0.66666700  0.87585855  1
  Fe  Fe0  1  0.16666700  0.33333300  0.12500000  1
  Ni  Ni0  1  0.16666700  0.33333300  0.62500000  1
loop_
_geom_bond_atom_site_label_1
_geom_bond_atom_site_label_2
_geom_bond_distance
_geom_bond_site_symmetry_2
Mg0 Mg12 3.000142 1_455
Mg0 Mg13 3.000142 1_454
Mg0 Mg9 3.026079 1_554
Mg0 Mg8 3.026079 1_555
Mg0 Mg7 3.026086 1_564
Mg0 Mg6 3.026086 1_565
Mg0 Mg2 3.062747 1_565
Mg0 Mg4 3.062747 1_555
Mg0 Mg2 3.083107 1_455
Mg0 Mg4 3.083107 1_455
Mg1 Mg13 3.009679 1_455
Mg1 Mg12 3.009679 1_455
Mg1 Mg8 3.042024 1_555
Mg1 Mg9 3.042024 1_555
Mg1 Mg6 3.042030 1_565
Mg1 Mg7 3.042030 1_565
Mg1 Mg3 3.071722 1_455
Mg1 Mg5 3.071722 1_455
Mg1 Ni0 3.072927 1_565
Mg1 Ni0 3.072927 1_555
Mg1 Mg3 3.074132 1_565
Mg1 Mg5 3.074132 1_555
Mg2 Mg7 3.026086 1_554
Mg2 Mg6 3.026086 1_555
Mg2 Mg4 3.062747 1_545
Mg2 Mg4 3.083107 1_555
Mg3 Mg7 3.042030 1_555
Mg3 Mg6 3.042030 1_555
Mg3 Mg5 3.071722 1_555
Mg3 Ni0 3.072927 1_555
Mg3 Ni0 3.072927 1_655
Mg3 Mg5 3.074132 1_545
Mg4 Mg9 3.026085 1_554
Mg4 Mg8 3.026085 1_555
Mg5 Mg8 3.042030 1_555
Mg5 Mg9 3.042030 1_555
Mg5 Ni0 3.072927 1_665
Mg5 Ni0 3.072927 1_555
Mg6 Mg8 2.897824 1_555
Mg6 Ni0 2.952061 1_555
Mg6 Mg8 3.248030 1_545
Mg7 Mg9 2.897824 1_555
Mg7 Ni0 2.952061 1_555
Mg7 Mg9 3.248030 1_545
Mg8 Ni0 2.952067 1_555
Mg9 Ni0 2.952067 1_555
Mg10 Mg8 2.897824 1_655
Mg10 Mg6 2.897824 1_655
Mg10 Ni0 2.952067 1_655
Mg10 Mg2 3.026079 1_555
Mg10 Mg4 3.026085 1_545
Mg10 Mg3 3.042024 1_555
Mg10 Mg5 3.042030 1_545
Mg10 Mg12 3.074590 1_545
Mg10 Mg12 3.074590 1_555
Mg10 Mg8 3.248030 1_545
Mg10 Mg6 3.248030 1_555
Mg11 Mg9 2.897824 1_655
Mg11 Mg7 2.897824 1_655
Mg11 Ni0 2.952067 1_655
Mg11 Mg2 3.026079 1_556
Mg11 Mg4 3.026085 1_546
Mg11 Mg3 3.042024 1_555
Mg11 Mg5 3.042030 1_545
Mg11 Mg13 3.074590 1_545
Mg11 Mg13 3.074590 1_555
Mg11 Mg9 3.248030 1_545
Mg11 Mg7 3.248030 1_555
Mg12 Mg4 3.000136 1_555
Mg12 Mg2 3.000142 1_555
Mg12 Mg5 3.009672 1_555
Mg12 Mg3 3.009678 1_555
Mg12 Mg6 3.074590 1_665
Mg12 Mg6 3.074590 1_555
Mg12 Mg8 3.074590 1_555
Mg12 Mg8 3.074590 1_655
Mg13 Mg4 3.000136 1_556
Mg13 Mg2 3.000142 1_556
Mg13 Mg5 3.009672 1_555
Mg13 Mg3 3.009678 1_555
Mg13 Mg7 3.074590 1_665
Mg13 Mg7 3.074590 1_555
Mg13 Mg9 3.074590 1_555
Mg13 Mg9 3.074590 1_655
Fe0 Mg7 2.937495 1_554
Fe0 Mg6 2.937495 1_555
Fe0 Mg9 2.937501 1_554
Fe0 Mg8 2.937501 1_555
Fe0 Mg11 2.937501 1_454
Fe0 Mg10 2.937501 1_455
Fe0 Mg0 3.072933 1_555
Fe0 Mg4 3.072933 1_555
Fe0 Mg4 3.072933 1_445
Fe0 Mg0 3.072933 1_545
Fe0 Mg2 3.072933 1_455
Fe0 Mg2 3.072933 1_555
