# generated using pymatgen
data_MgMn2CoO7
_symmetry_space_group_name_H-M   'P 1'
_cell_length_a   14.20868500
_cell_length_b   6.90110900
_cell_length_c   10.78629347
_cell_angle_alpha   71.90344326
_cell_angle_beta   90.00000000
_cell_angle_gamma   90.00000000
_symmetry_Int_Tables_number   1
_chemical_formula_structural   MgMn2CoO7
_chemical_formula_sum   'Mg8 Mn16 Co8 O56'
_cell_volume   1005.33972704
_cell_formula_units_Z   8
loop_
 _symmetry_equiv_pos_site_id
 _symmetry_equiv_pos_as_xyz
  1  'x, y, z'
loop_
 _atom_site_type_symbol
 _atom_site_label
 _atom_site_symmetry_multiplicity
 _atom_site_fract_x
 _atom_site_fract_y
 _atom_site_fract_z
 _atom_site_occupancy
  Mg  Mg0  1  0.49691900  0.97572700  0.74286200  1
  Mg  Mg1  1  0.87818900  0.66931500  0.95755600  1
  Mg  Mg2  1  0.37818900  0.33068500  0.54244400  1
  Mg  Mg3  1  0.12181100  0.33068500  0.04244400  1
  Mg  Mg4  1  0.62181100  0.66931500  0.45755600  1
  Mg  Mg5  1  0.00308100  0.97572700  0.24286200  1
  Mg  Mg6  1  0.50308100  0.02427300  0.25713800  1
  Mg  Mg7  1  0.99691900  0.02427300  0.75713800  1
  Mn  Mn0  1  0.88536800  0.16631500  0.97437400  1
  Mn  Mn1  1  0.02828900  0.56279700  0.71290900  1
  Mn  Mn2  1  0.47171100  0.56279700  0.21290900  1
  Mn  Mn3  1  0.97171100  0.43720300  0.28709100  1
  Mn  Mn4  1  0.73304700  0.51479800  0.76869800  1
  Mn  Mn5  1  0.23304700  0.48520200  0.73130200  1
  Mn  Mn6  1  0.26695300  0.48520200  0.23130200  1
  Mn  Mn7  1  0.76695300  0.51479800  0.26869800  1
  Mn  Mn8  1  0.52828900  0.43720300  0.78709100  1
  Mn  Mn9  1  0.12484900  0.13148300  0.46092700  1
  Mn  Mn10  1  0.62484900  0.86851700  0.03907300  1
  Mn  Mn11  1  0.87515100  0.86851700  0.53907300  1
  Mn  Mn12  1  0.38536800  0.83368500  0.52562600  1
  Mn  Mn13  1  0.61463200  0.16631500  0.47437400  1
  Mn  Mn14  1  0.11463200  0.83368500  0.02562600  1
  Mn  Mn15  1  0.37515100  0.13148300  0.96092700  1
  Co  Co0  1  0.64607300  0.36692400  0.08033100  1
  Co  Co1  1  0.14607300  0.63307600  0.41966900  1
  Co  Co2  1  0.35392700  0.63307600  0.91966900  1
  Co  Co3  1  0.85392700  0.36692400  0.58033100  1
  Co  Co4  1  0.76115200  0.00716300  0.25704800  1
  Co  Co5  1  0.26115200  0.99283700  0.24295200  1
  Co  Co6  1  0.23884800  0.99283700  0.74295200  1
  Co  Co7  1  0.73884800  0.00716300  0.75704800  1
  O  O0  1  0.99705900  0.23265900  0.95934300  1
  O  O1  1  0.49705900  0.76734100  0.54065700  1
  O  O2  1  0.00294100  0.76734100  0.04065700  1
  O  O3  1  0.50294100  0.23265900  0.45934300  1
  O  O4  1  0.86593000  0.99846200  0.88340000  1
  O  O5  1  0.36593000  0.00153800  0.61660000  1
  O  O6  1  0.13407000  0.00153800  0.11660000  1
  O  O7  1  0.63407000  0.99846200  0.38340000  1
  O  O8  1  0.87074500  0.02353300  0.13813600  1
  O  O9  1  0.37074500  0.97646700  0.36186400  1
  O  O10  1  0.12925500  0.97646700  0.86186400  1
  O  O11  1  0.62925500  0.02353300  0.63813600  1
  O  O12  1  0.30582100  0.35811000  0.90240600  1
  O  O13  1  0.80582100  0.64189000  0.59759400  1
  O  O14  1  0.69417900  0.64189000  0.09759400  1
  O  O15  1  0.19417900  0.35811000  0.40240600  1
  O  O16  1  0.37298200  0.01203400  0.12714200  1
  O  O17  1  0.87298200  0.98796600  0.37285800  1
  O  O18  1  0.62701800  0.98796600  0.87285800  1
  O  O19  1  0.12701800  0.01203400  0.62714200  1
  O  O20  1  0.35822900  0.95225100  0.87827700  1
  O  O21  1  0.46478100  0.65906900  0.81948700  1
  O  O22  1  0.85822900  0.04774900  0.62172300  1
  O  O23  1  0.14177100  0.95225100  0.37827700  1
  O  O24  1  0.47200200  0.29613500  0.69397900  1
  O  O25  1  0.97200200  0.70386500  0.80602100  1
  O  O26  1  0.52799800  0.70386500  0.30602100  1
  O  O27  1  0.02799800  0.29613500  0.19397900  1
  O  O28  1  0.48553300  0.23418200  0.94421000  1
  O  O29  1  0.98553300  0.76581800  0.55579000  1
  O  O30  1  0.51446700  0.76581800  0.05579000  1
  O  O31  1  0.01446700  0.23418200  0.44421000  1
  O  O32  1  0.87483600  0.56394200  0.16349200  1
  O  O33  1  0.37483600  0.43605800  0.33650800  1
  O  O34  1  0.12516400  0.43605800  0.83650800  1
  O  O35  1  0.62516400  0.56394200  0.66349200  1
  O  O36  1  0.74339400  0.28608200  0.20693800  1
  O  O37  1  0.24339400  0.71391800  0.29306200  1
  O  O38  1  0.25660600  0.71391800  0.79306200  1
  O  O39  1  0.75660600  0.28608200  0.70693800  1
  O  O40  1  0.68085300  0.39043400  0.42639000  1
  O  O41  1  0.18085300  0.60956600  0.07361000  1
  O  O42  1  0.31914700  0.60956600  0.57361000  1
  O  O43  1  0.81914700  0.39043400  0.92639000  1
  O  O44  1  0.73740800  0.74314500  0.32018100  1
  O  O45  1  0.23740800  0.25685500  0.17981900  1
  O  O46  1  0.26259200  0.25685500  0.67981900  1
  O  O47  1  0.76259200  0.74314500  0.82018100  1
  O  O48  1  0.86355500  0.44220400  0.40349500  1
  O  O49  1  0.36355500  0.55779600  0.09650500  1
  O  O50  1  0.13644500  0.55779600  0.59650500  1
  O  O51  1  0.63644500  0.44220400  0.90349500  1
  O  O52  1  0.03521900  0.65906900  0.31948700  1
  O  O53  1  0.53521900  0.34093100  0.18051300  1
  O  O54  1  0.96478100  0.34093100  0.68051300  1
  O  O55  1  0.64177100  0.04774900  0.12172300  1
loop_
_geom_bond_atom_site_label_1
_geom_bond_atom_site_label_2
_geom_bond_distance
_geom_bond_site_symmetry_2
Mg0 O21 2.131918 1_555
Mg0 O24 2.137368 1_565
Mg0 O11 2.165396 1_565
Mg0 O5 2.280305 1_565
Mg0 O18 2.337496 1_555
Mg0 O20 2.428156 1_555
Mg1 O25 2.064731 1_555
Mg1 O32 2.112274 1_556
Mg1 O47 2.164246 1_555
Mg1 O4 2.168186 1_555
Mg1 O2 2.186266 1_656
Mg1 O43 2.218726 1_555
Mg2 O24 2.064731 1_555
Mg2 O33 2.112274 1_555
Mg2 O46 2.164246 1_555
Mg2 O5 2.168186 1_555
Mg2 O3 2.186266 1_555
Mg2 O42 2.218726 1_555
Mg3 O27 2.064731 1_555
Mg3 O34 2.112274 1_554
Mg3 O45 2.164246 1_555
Mg3 O6 2.168186 1_555
Mg3 O0 2.186266 1_454
Mg3 O41 2.218726 1_555
Mg4 O26 2.064731 1_555
Mg4 O35 2.112274 1_555
Mg4 O44 2.164246 1_555
Mg4 O7 2.168186 1_555
Mg4 O1 2.186266 1_555
Mg4 O40 2.218726 1_555
Mg5 O52 2.131918 1_555
Mg5 O27 2.137368 1_565
Mg5 O8 2.165396 1_465
Mg5 O6 2.280305 1_565
Mg5 O17 2.337496 1_455
Mg5 O23 2.428156 1_555
Mg6 O53 2.131918 1_555
Mg6 O26 2.137368 1_545
Mg6 O9 2.165396 1_545
Mg6 O7 2.280305 1_545
Mg6 O16 2.337496 1_555
Mg6 O55 2.428156 1_555
Mg7 O54 2.131918 1_555
Mg7 O25 2.137368 1_545
Mg7 O10 2.165396 1_645
Mg7 O4 2.280305 1_545
Mg7 O19 2.337496 1_655
Mg7 O22 2.428156 1_555
Mn0 O0 1.645694 1_555
Mn0 O43 1.745874 1_555
Mn0 O8 1.747265 1_556
Mn0 O4 1.757028 1_545
Mn1 O25 1.789825 1_455
Mn1 O54 1.900809 1_455
Mn1 O34 1.926815 1_555
Mn1 O29 1.931084 1_455
Mn1 O50 1.991526 1_555
Mn2 O26 1.789825 1_555
Mn2 O53 1.900809 1_555
Mn2 O33 1.926815 1_555
Mn2 O30 1.931084 1_555
Mn2 O49 1.991526 1_555
Mn3 O27 1.789825 1_655
Mn3 O52 1.900809 1_655
Mn3 O32 1.926815 1_555
Mn3 O31 1.931084 1_655
Mn3 O48 1.991526 1_555
Mn4 O47 1.873908 1_555
Mn4 O35 1.874399 1_555
Mn4 O39 1.923633 1_555
Mn4 O51 1.948452 1_555
Mn4 O43 2.054126 1_555
Mn4 O13 2.058887 1_555
Mn5 O46 1.873908 1_555
Mn5 O34 1.874399 1_555
Mn5 O38 1.923633 1_555
Mn5 O50 1.948452 1_555
Mn5 O42 2.054126 1_555
Mn5 O12 2.058887 1_555
Mn6 O45 1.873908 1_555
Mn6 O33 1.874399 1_555
Mn6 O37 1.923633 1_555
Mn6 O49 1.948452 1_555
Mn6 O41 2.054126 1_555
Mn6 O15 2.058887 1_555
Mn7 O44 1.873908 1_555
Mn7 O32 1.874399 1_555
Mn7 O36 1.923633 1_555
Mn7 O48 1.948452 1_555
Mn7 O40 2.054126 1_555
Mn7 O14 2.058887 1_555
Mn8 O24 1.789825 1_555
Mn8 O21 1.900809 1_555
Mn8 O35 1.926815 1_555
Mn8 O28 1.931084 1_555
Mn8 O51 1.991526 1_555
Mn9 O31 1.707412 1_555
Mn9 O19 1.725292 1_555
Mn9 O23 1.751430 1_545
Mn9 O15 1.789293 1_555
Mn10 O30 1.707412 1_555
Mn10 O18 1.725292 1_554
Mn10 O55 1.751430 1_565
Mn10 O14 1.789293 1_555
Mn11 O29 1.707412 1_555
Mn11 O17 1.725292 1_555
Mn11 O22 1.751430 1_565
Mn11 O13 1.789293 1_555
Mn12 O1 1.645694 1_555
Mn12 O42 1.745874 1_555
Mn12 O9 1.747265 1_555
Mn12 O5 1.757028 1_565
Mn13 O3 1.645694 1_555
Mn13 O40 1.745874 1_555
Mn13 O11 1.747265 1_555
Mn13 O7 1.757028 1_545
Mn14 O2 1.645694 1_555
Mn14 O41 1.745874 1_555
Mn14 O10 1.747265 1_554
Mn14 O6 1.757028 1_565
Mn15 O28 1.707412 1_555
Mn15 O16 1.725292 1_556
Mn15 O20 1.751430 1_545
Mn15 O12 1.789293 1_555
Co0 O51 1.819671 1_554
Co0 O53 1.886888 1_555
Co0 O36 1.901317 1_555
Co0 O14 2.078979 1_555
Co0 O55 2.108044 1_555
Co1 O50 1.819671 1_555
Co1 O52 1.886888 1_555
Co1 O37 1.901317 1_555
Co1 O15 2.078979 1_555
Co1 O23 2.108044 1_555
Co2 O49 1.819671 1_556
Co2 O21 1.886888 1_555
Co2 O38 1.901317 1_555
Co2 O12 2.078979 1_555
Co2 O20 2.108044 1_555
Co3 O48 1.819671 1_555
Co3 O54 1.886888 1_555
Co3 O39 1.901317 1_555
Co3 O13 2.078979 1_555
Co3 O22 2.108044 1_555
Co4 O44 1.768189 1_545
Co4 O36 1.847844 1_555
Co4 O8 1.998160 1_555
Co4 O17 1.999983 1_545
Co4 O55 2.198253 1_555
Co4 O7 2.251803 1_545
Co5 O45 1.768189 1_565
Co5 O37 1.847844 1_555
Co5 O9 1.998160 1_555
Co5 O16 1.999983 1_565
Co5 O23 2.198253 1_555
Co5 O6 2.251803 1_565
Co6 O46 1.768189 1_565
Co6 O38 1.847844 1_555
Co6 O10 1.998160 1_555
Co6 O19 1.999983 1_565
Co6 O20 2.198253 1_555
Co6 O5 2.251803 1_565
Co7 O47 1.768189 1_545
Co7 O39 1.847844 1_555
Co7 O11 1.998160 1_555
Co7 O18 1.999983 1_545
Co7 O22 2.198253 1_555
Co7 O4 2.251803 1_545
