# generated using pymatgen
data_RbMg6V
_symmetry_space_group_name_H-M   'P 1'
_cell_length_a   5.33258000
_cell_length_b   6.70340400
_cell_length_c   11.75005400
_cell_angle_alpha   90.00000000
_cell_angle_beta   90.00000000
_cell_angle_gamma   90.00000000
_symmetry_Int_Tables_number   1
_chemical_formula_structural   RbMg6V
_chemical_formula_sum   'Rb2 Mg12 V2'
_cell_volume   420.02257801
_cell_formula_units_Z   2
loop_
 _symmetry_equiv_pos_site_id
 _symmetry_equiv_pos_as_xyz
  1  'x, y, z'
loop_
 _atom_site_type_symbol
 _atom_site_label
 _atom_site_symmetry_multiplicity
 _atom_site_fract_x
 _atom_site_fract_y
 _atom_site_fract_z
 _atom_site_occupancy
  Rb  Rb0  1  0.50000000  0.50000000  0.16244100  1
  Rb  Rb1  1  0.50000000  0.00000000  0.66244100  1
  Mg  Mg0  1  0.00000000  0.77318400  0.07653200  1
  Mg  Mg1  1  0.00000000  0.22681600  0.07653200  1
  Mg  Mg2  1  0.00000000  0.00000000  0.33414000  1
  Mg  Mg3  1  0.50000000  0.26532900  0.41128000  1
  Mg  Mg4  1  0.50000000  0.73467100  0.41128000  1
  Mg  Mg5  1  0.50000000  0.00000000  0.17059400  1
  Mg  Mg6  1  0.00000000  0.27318400  0.57653200  1
  Mg  Mg7  1  0.00000000  0.72681600  0.57653200  1
  Mg  Mg8  1  0.00000000  0.50000000  0.83414000  1
  Mg  Mg9  1  0.50000000  0.76532900  0.91128000  1
  Mg  Mg10  1  0.50000000  0.23467100  0.91128000  1
  Mg  Mg11  1  0.50000000  0.50000000  0.67059400  1
  V  V0  1  0.00000000  0.50000000  0.35720000  1
  V  V1  1  0.00000000  0.00000000  0.85720000  1
loop_
_geom_bond_atom_site_label_1
_geom_bond_atom_site_label_2
_geom_bond_distance
_geom_bond_site_symmetry_2
Rb0 V0 3.513689 1_655
Rb0 V0 3.513689 1_555
Rb1 V1 3.513689 1_555
Rb1 V1 3.513689 1_655
Mg0 V1 2.992241 1_564
Mg0 Mg1 3.040879 1_565
Mg0 Mg5 3.262266 1_465
Mg0 Mg5 3.262266 1_565
Mg0 Mg9 3.298811 1_554
Mg0 Mg9 3.298811 1_454
Mg0 Mg8 3.386046 1_554
Mg0 Mg2 3.387316 1_565
Mg0 Rb0 3.388449 1_455
Mg0 Rb0 3.388449 1_555
Mg1 V1 2.992241 1_554
Mg1 Mg5 3.262266 1_455
Mg1 Mg5 3.262266 1_555
Mg1 Mg10 3.298811 1_554
Mg1 Mg10 3.298811 1_454
Mg1 Mg8 3.386046 1_554
Mg1 Mg2 3.387316 1_555
Mg1 Rb0 3.388449 1_555
Mg1 Rb0 3.388449 1_455
Mg2 Mg5 3.286630 1_455
Mg2 Mg5 3.286630 1_555
Mg2 Mg3 3.330782 1_555
Mg2 Mg3 3.330782 1_455
Mg2 Mg4 3.330782 1_545
Mg2 Mg4 3.330782 1_445
Mg2 V0 3.362636 1_555
Mg2 V0 3.362636 1_545
Mg2 Mg6 3.386046 1_555
Mg2 Mg7 3.386046 1_545
Mg3 Mg4 3.146189 1_555
Mg3 V0 3.160303 1_655
Mg3 V0 3.160303 1_555
Mg3 Mg6 3.298811 1_655
Mg3 Mg6 3.298811 1_555
Mg3 Rb0 3.320189 1_555
Mg3 Mg5 3.340875 1_555
Mg3 Rb1 3.445687 1_555
Mg3 Mg4 3.557215 1_545
Mg4 V0 3.160303 1_655
Mg4 V0 3.160303 1_555
Mg4 Mg7 3.298811 1_555
Mg4 Mg7 3.298811 1_655
Mg4 Rb0 3.320189 1_555
Mg4 Mg5 3.340875 1_565
Mg4 Rb1 3.445687 1_565
Mg5 Rb0 3.353071 1_555
Mg5 Rb0 3.353071 1_545
Mg5 Mg9 3.429075 1_544
Mg6 V0 2.992241 1_555
Mg6 Mg7 3.040879 1_555
Mg6 Mg8 3.387316 1_555
Mg6 Rb1 3.388449 1_555
Mg6 Rb1 3.388449 1_455
Mg7 V0 2.992241 1_555
Mg7 Mg8 3.387316 1_555
Mg7 Rb1 3.388449 1_565
Mg7 Rb1 3.388449 1_465
Mg8 Mg9 3.330782 1_455
Mg8 Mg9 3.330782 1_555
Mg8 V1 3.362636 1_555
Mg8 V1 3.362636 1_565
Mg9 V1 3.160303 1_565
Mg9 V1 3.160303 1_665
Mg9 Rb1 3.320189 1_565
Mg9 Rb0 3.445687 1_556
Mg10 Mg9 3.146189 1_545
Mg10 V1 3.160303 1_555
Mg10 V1 3.160303 1_655
Mg10 Rb1 3.320189 1_555
Mg10 Mg8 3.330782 1_555
Mg10 Mg8 3.330782 1_655
Mg10 Mg11 3.340875 1_555
Mg10 Mg5 3.429075 1_556
Mg10 Rb0 3.445687 1_556
Mg10 Mg9 3.557215 1_555
Mg11 Mg6 3.262266 1_655
Mg11 Mg7 3.262266 1_555
Mg11 Mg7 3.262266 1_655
Mg11 Mg6 3.262266 1_555
Mg11 Mg8 3.286630 1_555
Mg11 Mg8 3.286630 1_655
Mg11 Mg9 3.340875 1_555
Mg11 Rb1 3.353071 1_555
Mg11 Rb1 3.353071 1_565
Mg11 Mg3 3.429075 1_555
Mg11 Mg4 3.429075 1_555
