# generated using pymatgen
data_Er7(AgTe)2
_symmetry_space_group_name_H-M   'P 1'
_cell_length_a   9.28220358
_cell_length_b   9.28220358
_cell_length_c   9.28220358
_cell_angle_alpha   154.74170746
_cell_angle_beta   117.59852472
_cell_angle_gamma   68.42821687
_symmetry_Int_Tables_number   1
_chemical_formula_structural   Er7(AgTe)2
_chemical_formula_sum   'Er7 Ag2 Te2'
_cell_volume   299.62563331
_cell_formula_units_Z   1
loop_
 _symmetry_equiv_pos_site_id
 _symmetry_equiv_pos_as_xyz
  1  'x, y, z'
loop_
 _atom_site_type_symbol
 _atom_site_label
 _atom_site_symmetry_multiplicity
 _atom_site_fract_x
 _atom_site_fract_y
 _atom_site_fract_z
 _atom_site_occupancy
  Er  Er0  1  0.12072387  0.86020483  0.26051903  1
  Er  Er1  1  0.40031320  0.13979517  0.26051903  1
  Er  Er2  1  0.50512793  0.50000000  0.00512793  1
  Er  Er3  1  0.04052606  0.62600925  0.41451681  1
  Er  Er4  1  0.78850656  0.37399075  0.41451681  1
  Er  Er5  1  0.43996544  0.81577681  0.62418862  1
  Er  Er6  1  0.80841181  0.18422319  0.62418862  1
  Ag  Ag0  1  0.66506103  0.73587944  0.92918259  1
  Ag  Ag1  1  0.19330215  0.26412056  0.92918259  1
  Te  Te0  1  0.76513713  0.00000000  0.76513713  1
  Te  Te1  1  0.16378381  0.50000000  0.66378381  1
loop_
_geom_bond_atom_site_label_1
_geom_bond_atom_site_label_2
_geom_bond_distance
_geom_bond_site_symmetry_2
Er0 Te1 3.096754 1_554
Er0 Te1 3.096754 1_565
Er1 Te1 3.096746 1_555
Er1 Te1 3.096749 1_544
Er2 Te0 3.220455 1_565
Er2 Te0 3.220455 1_554
Er2 Te1 3.282730 1_554
Er3 Te1 3.080385 1_555
Er3 Te0 3.150336 1_454
Er3 Te0 3.150336 1_465
Er4 Te1 3.080393 1_655
Er4 Te0 3.150338 1_565
Er4 Te0 3.150340 1_554
Er5 Te0 3.136203 1_565
Er6 Te0 3.136204 1_555
Ag0 Er6 2.874828 1_566
Ag0 Er6 2.874831 1_555
Ag0 Er4 2.938370 1_566
Ag0 Er4 2.938370 1_555
Ag0 Er1 2.987563 1_555
Ag0 Er1 2.987563 1_566
Ag0 Er5 3.179276 1_555
Ag0 Er2 3.694064 1_556
Ag0 Er0 3.714367 1_656
Ag1 Er5 2.874832 1_556
Ag1 Er5 2.874835 1_545
Ag1 Er3 2.938363 1_556
Ag1 Er3 2.938366 1_545
Ag1 Er0 2.987563 1_556
Ag1 Er0 2.987566 1_545
Ag1 Er6 3.179270 1_455
Ag1 Er2 3.694079 1_556
Ag1 Er1 3.714359 1_556
