# generated using pymatgen
data_MnZnO2
_symmetry_space_group_name_H-M   'P 1'
_cell_length_a   8.33289216
_cell_length_b   8.33289216
_cell_length_c   11.54767478
_cell_angle_alpha   47.40021537
_cell_angle_beta   47.40021537
_cell_angle_gamma   21.08533420
_symmetry_Int_Tables_number   1
_chemical_formula_structural   MnZnO2
_chemical_formula_sum   'Mn4 Zn4 O8'
_cell_volume   209.20809800
_cell_formula_units_Z   4
loop_
 _symmetry_equiv_pos_site_id
 _symmetry_equiv_pos_as_xyz
  1  'x, y, z'
loop_
 _atom_site_type_symbol
 _atom_site_label
 _atom_site_symmetry_multiplicity
 _atom_site_fract_x
 _atom_site_fract_y
 _atom_site_fract_z
 _atom_site_occupancy
  Mn  Mn0  1  0.17386200  0.17386200  0.92704800  1
  Mn  Mn1  1  0.40622700  0.40622700  0.28209100  1
  Mn  Mn2  1  0.59377300  0.59377300  0.71790900  1
  Mn  Mn3  1  0.82613800  0.82613800  0.07295200  1
  Zn  Zn0  1  0.57702000  0.57702000  0.26611500  1
  Zn  Zn1  1  0.42298000  0.42298000  0.73388500  1
  Zn  Zn2  1  0.18874900  0.18874900  0.38608400  1
  Zn  Zn3  1  0.81125100  0.81125100  0.61391600  1
  O  O0  1  0.42141500  0.42141500  0.91387600  1
  O  O1  1  0.19347200  0.19347200  0.71355800  1
  O  O2  1  0.80652800  0.80652800  0.28644200  1
  O  O3  1  0.57858500  0.57858500  0.08612400  1
  O  O4  1  0.82045800  0.82045800  0.77809200  1
  O  O5  1  0.94102600  0.94102600  0.38655400  1
  O  O6  1  0.17954200  0.17954200  0.22190800  1
  O  O7  1  0.05897400  0.05897400  0.61344600  1
loop_
_geom_bond_atom_site_label_1
_geom_bond_atom_site_label_2
_geom_bond_distance
_geom_bond_site_symmetry_2
Mn0 O3 2.046269 1_456
Mn0 O3 2.046269 1_546
Mn0 O1 2.256166 1_555
Mn0 O4 2.315893 1_545
Mn0 O4 2.315893 1_455
Mn1 O3 2.072714 1_555
Mn1 O2 2.209623 1_455
Mn1 O2 2.209623 1_545
Mn1 O5 2.247642 1_455
Mn1 O5 2.247642 1_545
Mn2 O0 2.072714 1_555
Mn2 O1 2.209623 1_565
Mn2 O1 2.209623 1_655
Mn2 O7 2.247642 1_655
Mn2 O7 2.247642 1_565
Mn3 O0 2.046269 1_654
Mn3 O0 2.046269 1_564
Mn3 O2 2.256166 1_555
Mn3 O6 2.315893 1_565
Mn3 O6 2.315893 1_655
O0 Zn1 2.060907 1_555
O1 Zn3 2.077238 1_455
O1 Zn3 2.077238 1_545
O2 Zn2 2.077238 1_655
O2 Zn2 2.077238 1_565
O3 Zn0 2.060907 1_555
O4 Zn3 2.002702 1_555
O4 Zn1 2.055724 1_655
O4 Zn1 2.055724 1_565
O5 Zn3 1.930598 1_555
O5 Zn0 2.226310 1_655
O5 Zn0 2.226310 1_565
O6 Zn2 2.002702 1_555
O6 Zn0 2.055724 1_455
O6 Zn0 2.055724 1_545
O7 Zn2 1.930598 1_555
O7 Zn1 2.226310 1_545
O7 Zn1 2.226310 1_455
