# generated using pymatgen
data_CoBP2HPbO9
_symmetry_space_group_name_H-M   'P 1'
_cell_length_a   5.27448921
_cell_length_b   8.07730659
_cell_length_c   8.44845322
_cell_angle_alpha   89.86242926
_cell_angle_beta   79.55296729
_cell_angle_gamma   87.87480647
_symmetry_Int_Tables_number   1
_chemical_formula_structural   CoBP2HPbO9
_chemical_formula_sum   'Co2 B2 P4 H2 Pb2 O18'
_cell_volume   353.72153577
_cell_formula_units_Z   2
loop_
 _symmetry_equiv_pos_site_id
 _symmetry_equiv_pos_as_xyz
  1  'x, y, z'
loop_
 _atom_site_type_symbol
 _atom_site_label
 _atom_site_symmetry_multiplicity
 _atom_site_fract_x
 _atom_site_fract_y
 _atom_site_fract_z
 _atom_site_occupancy
  Co  Co0  1  0.73743300  0.80536200  0.19228100  1
  Co  Co1  1  0.26256700  0.19463800  0.80771900  1
  B  B0  1  0.86929600  0.73832000  0.54436500  1
  B  B1  1  0.13070400  0.26168000  0.45563500  1
  P  P0  1  0.80451300  0.42795000  0.70736500  1
  P  P1  1  0.19548700  0.57205000  0.29263500  1
  P  P2  1  0.76857700  0.93503700  0.81471000  1
  P  P3  1  0.23142300  0.06496300  0.18529000  1
  H  H0  1  0.51373500  0.75887700  0.47766700  1
  H  H1  1  0.48626500  0.24112300  0.52233300  1
  Pb  Pb0  1  0.26707600  0.69811500  0.92165800  1
  Pb  Pb1  1  0.73292400  0.30188500  0.07834200  1
  O  O0  1  0.97915700  0.57282200  0.19223900  1
  O  O1  1  0.02084300  0.42717800  0.80776100  1
  O  O2  1  0.92812000  0.87175800  0.64817400  1
  O  O3  1  0.07188000  0.12824200  0.35182600  1
  O  O4  1  0.90054900  0.09013100  0.85806300  1
  O  O5  1  0.09945100  0.90986900  0.14193700  1
  O  O6  1  0.87690300  0.31702300  0.55130500  1
  O  O7  1  0.12309700  0.68297700  0.44869500  1
  O  O8  1  0.78608000  0.79175200  0.93772900  1
  O  O9  1  0.21392000  0.20824800  0.06227100  1
  O  O10  1  0.73675400  0.60536600  0.64901300  1
  O  O11  1  0.26324600  0.39463400  0.35098700  1
  O  O12  1  0.69126000  0.79022100  0.43745500  1
  O  O13  1  0.30874000  0.20977900  0.56254500  1
  O  O14  1  0.55466200  0.36976400  0.81145800  1
  O  O15  1  0.44533800  0.63023600  0.18854200  1
  O  O16  1  0.48102700  0.96942300  0.80628200  1
  O  O17  1  0.51897300  0.03057700  0.19371800  1
loop_
_geom_bond_atom_site_label_1
_geom_bond_atom_site_label_2
_geom_bond_distance
_geom_bond_site_symmetry_2
Co0 O12 2.045183 1_555
Co0 O5 2.088731 1_655
Co0 O17 2.115814 1_565
Co0 O8 2.121746 1_554
Co0 O15 2.134255 1_555
Co0 O0 2.230645 1_555
Co1 O13 2.045183 1_555
Co1 O4 2.088731 1_455
Co1 O16 2.115814 1_545
Co1 O9 2.121746 1_556
Co1 O14 2.134255 1_555
Co1 O1 2.230645 1_555
B0 O12 1.466270 1_555
B0 O2 1.468046 1_555
B0 O7 1.486648 1_655
B0 O10 1.500214 1_555
B1 O13 1.466270 1_555
B1 O3 1.468046 1_555
B1 O6 1.486648 1_455
B1 O11 1.500214 1_555
H0 O12 0.978815 1_555
H1 O13 0.978815 1_555
O0 P1 1.540079 1_655
O0 Pb0 2.720310 1_654
O0 Pb1 2.841847 1_555
O1 P0 1.540079 1_455
O1 Pb1 2.720310 1_456
O1 Pb0 2.841847 1_555
O2 P2 1.578332 1_555
O3 P3 1.578332 1_555
O4 P2 1.532117 1_545
O4 Pb1 2.544991 1_556
O5 P3 1.532117 1_565
O5 Pb0 2.544991 1_554
O6 P0 1.576285 1_555
O7 P1 1.576285 1_555
O8 P2 1.565018 1_555
O8 Pb0 2.600029 1_655
O8 Pb0 2.893635 1_555
O9 P3 1.565018 1_555
O9 Pb1 2.600029 1_455
O9 Pb1 2.893635 1_555
O10 P0 1.564256 1_555
O11 P1 1.564256 1_555
O14 P0 1.534479 1_555
O14 Pb1 2.644476 1_556
O15 P1 1.534479 1_555
O15 Pb0 2.644476 1_554
O16 P2 1.546077 1_555
O16 Pb0 2.607729 1_555
O17 P3 1.546077 1_555
O17 Pb1 2.607729 1_555
