# generated using pymatgen
data_Pu6Co
_symmetry_space_group_name_H-M   'P 1'
_cell_length_a   5.18809700
_cell_length_b   7.90278722
_cell_length_c   7.90278722
_cell_angle_alpha   83.81467838
_cell_angle_beta   70.83772196
_cell_angle_gamma   70.83772196
_symmetry_Int_Tables_number   1
_chemical_formula_structural   Pu6Co
_chemical_formula_sum   'Pu12 Co2'
_cell_volume   289.10647491
_cell_formula_units_Z   2
loop_
 _symmetry_equiv_pos_site_id
 _symmetry_equiv_pos_as_xyz
  1  'x, y, z'
loop_
 _atom_site_type_symbol
 _atom_site_label
 _atom_site_symmetry_multiplicity
 _atom_site_fract_x
 _atom_site_fract_y
 _atom_site_fract_z
 _atom_site_occupancy
  Pu  Pu0  1  0.09721300  0.50000000  0.30557300  1
  Pu  Pu1  1  0.90278700  0.50000000  0.69442700  1
  Pu  Pu2  1  0.40278700  0.69442700  0.50000000  1
  Pu  Pu3  1  0.59721300  0.30557300  0.50000000  1
  Pu  Pu4  1  0.09762800  0.11657100  0.68817400  1
  Pu  Pu5  1  0.90237200  0.88342900  0.31182600  1
  Pu  Pu6  1  0.78580200  0.31182600  0.11657100  1
  Pu  Pu7  1  0.40237200  0.31182600  0.88342900  1
  Pu  Pu8  1  0.21419800  0.68817400  0.88342900  1
  Pu  Pu9  1  0.59762800  0.68817400  0.11657100  1
  Pu  Pu10  1  0.71419800  0.88342900  0.68817400  1
  Pu  Pu11  1  0.28580200  0.11657100  0.31182600  1
  Co  Co0  1  0.25000000  0.00000000  0.00000000  1
  Co  Co1  1  0.75000000  0.00000000  0.00000000  1
loop_
_geom_bond_atom_site_label_1
_geom_bond_atom_site_label_2
_geom_bond_distance
_geom_bond_site_symmetry_2
Pu0 Pu5 2.862645 1_455
Pu0 Pu11 2.862645 1_555
Pu0 Pu1 2.902762 1_455
Pu0 Pu9 3.269991 1_455
Pu0 Pu6 3.269992 1_455
Pu0 Pu6 3.270000 1_555
Pu0 Pu9 3.270000 1_555
Pu0 Pu2 3.307881 1_455
Pu0 Pu3 3.307885 1_455
Pu0 Pu3 3.307885 1_555
Pu0 Pu2 3.307889 1_555
Pu0 Pu8 3.450172 1_554
Pu0 Pu7 3.450172 1_554
Pu1 Pu4 2.862645 1_655
Pu1 Pu10 2.862645 1_555
Pu1 Pu7 3.269991 1_655
Pu1 Pu8 3.269992 1_655
Pu1 Pu8 3.270000 1_555
Pu1 Pu7 3.270000 1_555
Pu1 Pu3 3.307881 1_655
Pu1 Pu2 3.307885 1_555
Pu1 Pu2 3.307885 1_655
Pu1 Pu3 3.307889 1_555
Pu1 Pu6 3.450172 1_556
Pu1 Pu9 3.450172 1_556
Pu2 Pu9 2.862645 1_555
Pu2 Pu8 2.862645 1_555
Pu2 Pu3 2.902762 1_555
Pu2 Pu5 3.269991 1_555
Pu2 Pu5 3.270000 1_455
Pu2 Pu4 3.450172 1_565
Pu3 Pu7 2.862645 1_555
Pu3 Pu6 2.862645 1_555
Pu3 Pu4 3.269991 1_555
Pu3 Pu4 3.270000 1_655
Pu3 Pu5 3.450172 1_545
Pu4 Pu7 3.313312 1_555
Pu4 Pu7 3.313320 1_455
Pu4 Pu6 3.514449 1_456
Pu4 Pu8 3.514449 1_545
Pu5 Pu9 3.313312 1_555
Pu5 Pu9 3.313320 1_655
Pu5 Pu8 3.514449 1_654
Pu5 Pu6 3.514449 1_565
Pu6 Pu9 2.809406 1_555
Pu6 Pu7 3.123780 1_654
Pu6 Pu7 3.123789 1_554
Pu7 Pu8 2.809406 1_555
Pu8 Pu9 3.123780 1_456
Pu8 Pu9 3.123789 1_556
Pu10 Pu5 2.809406 1_555
Pu10 Pu4 3.123780 1_565
Pu10 Pu4 3.123789 1_665
Pu10 Pu2 3.269992 1_555
Pu10 Pu2 3.270000 1_655
Pu10 Pu8 3.313316 1_555
Pu10 Pu8 3.313316 1_655
Pu10 Pu3 3.450172 1_565
Pu10 Pu7 3.514449 1_565
Pu10 Pu9 3.514449 1_556
Pu11 Pu4 2.809406 1_555
Pu11 Pu5 3.123780 1_545
Pu11 Pu5 3.123789 1_445
Pu11 Pu3 3.269992 1_555
Pu11 Pu3 3.270000 1_455
Pu11 Pu6 3.313316 1_555
Pu11 Pu6 3.313316 1_455
Pu11 Pu2 3.450172 1_545
Pu11 Pu9 3.514449 1_545
Pu11 Pu7 3.514449 1_554
Co0 Co1 2.594048 1_455
Co0 Co1 2.594048 1_555
Co0 Pu6 2.803202 1_455
Co0 Pu10 2.803202 1_544
Co0 Pu7 2.803202 1_554
Co0 Pu4 2.803202 1_554
Co0 Pu9 2.803204 1_545
Co0 Pu5 2.803204 1_445
Co0 Pu11 2.803205 1_555
Co0 Pu8 2.803205 1_544
Co1 Pu11 2.803202 1_555
Co1 Pu8 2.803202 1_644
Co1 Pu5 2.803202 1_545
Co1 Pu9 2.803202 1_545
Co1 Pu4 2.803204 1_654
Co1 Pu7 2.803204 1_554
Co1 Pu6 2.803205 1_555
Co1 Pu10 2.803205 1_544
