# generated using pymatgen
data_Ca3Ge3Au8
_symmetry_space_group_name_H-M   'P 1'
_cell_length_a   4.54015100
_cell_length_b   9.61007500
_cell_length_c   13.53914747
_cell_angle_alpha   89.04327583
_cell_angle_beta   90.00000000
_cell_angle_gamma   90.00000000
_symmetry_Int_Tables_number   1
_chemical_formula_structural   Ca3Ge3Au8
_chemical_formula_sum   'Ca6 Ge6 Au16'
_cell_volume   590.64678509
_cell_formula_units_Z   2
loop_
 _symmetry_equiv_pos_site_id
 _symmetry_equiv_pos_as_xyz
  1  'x, y, z'
loop_
 _atom_site_type_symbol
 _atom_site_label
 _atom_site_symmetry_multiplicity
 _atom_site_fract_x
 _atom_site_fract_y
 _atom_site_fract_z
 _atom_site_occupancy
  Ca  Ca0  1  0.50000000  0.99852100  0.18904400  1
  Ca  Ca1  1  0.50000000  0.00147900  0.81095600  1
  Ca  Ca2  1  0.00000000  0.49476500  0.31213200  1
  Ca  Ca3  1  0.00000000  0.50523500  0.68786800  1
  Ca  Ca4  1  0.00000000  0.50000000  0.00000000  1
  Ca  Ca5  1  0.50000000  0.00000000  0.50000000  1
  Ge  Ge0  1  0.50000000  0.34874800  0.18040500  1
  Ge  Ge1  1  0.50000000  0.65125200  0.81959500  1
  Ge  Ge2  1  0.00000000  0.85022600  0.31487200  1
  Ge  Ge3  1  0.00000000  0.14977400  0.68512800  1
  Ge  Ge4  1  0.00000000  0.77929200  0.12588300  1
  Ge  Ge5  1  0.00000000  0.22070800  0.87411700  1
  Au  Au0  1  0.50000000  0.73599800  0.36229100  1
  Au  Au1  1  0.50000000  0.26400200  0.63770900  1
  Au  Au2  1  0.00000000  0.23870200  0.13661300  1
  Au  Au3  1  0.00000000  0.76129800  0.86338700  1
  Au  Au4  1  0.50000000  0.38675100  0.83953000  1
  Au  Au5  1  0.50000000  0.61324900  0.16047000  1
  Au  Au6  1  0.00000000  0.88966100  0.65919900  1
  Au  Au7  1  0.00000000  0.11033900  0.34080100  1
  Au  Au8  1  0.50000000  0.20563400  0.00357800  1
  Au  Au9  1  0.50000000  0.79436600  0.99642200  1
  Au  Au10  1  0.00000000  0.70354900  0.49599800  1
  Au  Au11  1  0.00000000  0.29645100  0.50400200  1
  Au  Au12  1  0.50000000  0.50000000  0.50000000  1
  Au  Au13  1  0.00000000  0.00000000  0.00000000  1
  Au  Au14  1  0.50000000  0.27988700  0.36824300  1
  Au  Au15  1  0.50000000  0.72011300  0.63175700  1
loop_
_geom_bond_atom_site_label_1
_geom_bond_atom_site_label_2
_geom_bond_distance
_geom_bond_site_symmetry_2
Ca0 Ge2 3.163134 1_655
Ca0 Ge2 3.163134 1_555
Ca0 Ge4 3.222316 1_555
Ca0 Ge4 3.222316 1_655
Ca0 Ge0 3.365787 1_565
Ca1 Ge3 3.163134 1_655
Ca1 Ge3 3.163134 1_555
Ca1 Ge5 3.222316 1_555
Ca1 Ge5 3.222316 1_655
Ca1 Ge1 3.365787 1_545
Ca2 Ge0 3.222833 1_455
Ca2 Ge0 3.222833 1_555
Ca2 Ge2 3.416828 1_555
Ca3 Ge1 3.222833 1_455
Ca3 Ge1 3.222833 1_555
Ca3 Ge3 3.416828 1_555
Ca4 Ge5 3.203360 1_554
Ca4 Ge4 3.203360 1_555
Ge2 Ge4 2.658973 1_555
Ge3 Ge5 2.658973 1_555
Au0 Ge2 2.597483 1_655
Au0 Ge2 2.597483 1_555
Au0 Au12 2.911812 1_555
Au0 Au10 2.916975 1_555
Au0 Au10 2.916975 1_655
Au0 Au5 2.994266 1_555
Au0 Ca5 3.173477 1_565
Au0 Ca2 3.322856 1_655
Au0 Ca2 3.322856 1_555
Au0 Ca0 3.416014 1_555
Au1 Ge3 2.597483 1_555
Au1 Ge3 2.597483 1_655
Au1 Au12 2.911812 1_555
Au1 Au11 2.916975 1_655
Au1 Au11 2.916975 1_555
Au1 Au4 2.994266 1_555
Au1 Ca5 3.173477 1_555
Au1 Ca3 3.322856 1_555
Au1 Ca3 3.322856 1_655
Au1 Ca1 3.416014 1_555
Au2 Ge0 2.577622 1_455
Au2 Ge0 2.577622 1_555
Au2 Au8 2.918492 1_455
Au2 Au8 2.918492 1_555
Au2 Au7 3.008399 1_555
Au2 Ca4 3.093799 1_555
Au2 Ca0 3.306060 1_545
Au2 Ca0 3.306060 1_445
Au2 Ca2 3.449335 1_555
Au3 Ge1 2.577622 1_555
Au3 Ge1 2.577622 1_455
Au3 Au9 2.918492 1_555
Au3 Au9 2.918492 1_455
Au3 Au6 3.008399 1_555
Au3 Ca4 3.093799 1_556
Au3 Ca1 3.306060 1_565
Au3 Ca1 3.306060 1_465
Au3 Ca3 3.449335 1_555
Au4 Ge1 2.551678 1_555
Au4 Au8 2.798850 1_556
Au4 Ge5 2.809588 1_655
Au4 Ge5 2.809588 1_555
Au4 Ca3 3.253923 1_555
Au4 Ca3 3.253923 1_655
Au4 Ca4 3.337211 1_656
Au4 Ca4 3.337211 1_556
Au4 Ca1 3.729069 1_555
Au5 Ge0 2.551678 1_555
Au5 Au9 2.798850 1_554
Au5 Ge4 2.809588 1_555
Au5 Ge4 2.809588 1_655
Au5 Ca2 3.253923 1_655
Au5 Ca2 3.253923 1_555
Au5 Ca4 3.337211 1_555
Au5 Ca4 3.337211 1_655
Au5 Ca0 3.729069 1_555
Au6 Ge3 2.530034 1_565
Au6 Ca1 3.256275 1_465
Au6 Ca1 3.256275 1_565
Au6 Ca5 3.293497 1_465
Au6 Ca5 3.293497 1_565
Au7 Ge2 2.530034 1_545
Au7 Ca0 3.256275 1_445
Au7 Ca0 3.256275 1_545
Au7 Ca5 3.293497 1_555
Au7 Ca5 3.293497 1_455
Au8 Ge0 2.780856 1_555
Au8 Ge5 2.870196 1_654
Au8 Ge5 2.870196 1_554
Au8 Ca0 3.178058 1_545
Au8 Ca1 3.289595 1_554
Au8 Ca4 3.626785 1_555
Au8 Ca4 3.626785 1_655
Au9 Ge1 2.780856 1_555
Au9 Ge4 2.870196 1_656
Au9 Ge4 2.870196 1_556
Au9 Ca1 3.178058 1_565
Au9 Ca0 3.289595 1_556
Au9 Ca4 3.626785 1_556
Au9 Ca4 3.626785 1_656
Au10 Ge2 2.808061 1_555
Au10 Au6 2.865873 1_555
Au10 Au15 2.926913 1_455
Au10 Au15 2.926913 1_555
Au10 Au12 2.996506 1_555
Au10 Au12 2.996506 1_455
Au10 Ca3 3.196111 1_555
Au10 Ca2 3.223293 1_555
Au10 Ca5 3.643852 1_565
Au10 Ca5 3.643852 1_465
Au11 Ge3 2.808061 1_555
Au11 Au7 2.865873 1_555
Au11 Au14 2.926913 1_455
Au11 Au14 2.926913 1_555
Au11 Au12 2.996506 1_555
Au11 Au12 2.996506 1_455
Au11 Ca2 3.196111 1_555
Au11 Ca3 3.223293 1_555
Au11 Ca5 3.643852 1_455
Au11 Ca5 3.643852 1_555
Au12 Au14 2.789755 1_555
Au12 Au15 2.789755 1_555
Au12 Ca2 3.410250 1_555
Au12 Ca2 3.410250 1_655
Au12 Ca3 3.410250 1_655
Au12 Ca3 3.410250 1_555
Au13 Ge5 2.698669 1_554
Au13 Ge4 2.698669 1_545
Au13 Au3 2.970686 1_544
Au13 Au2 2.970686 1_555
Au13 Au9 3.010646 1_544
Au13 Au8 3.010646 1_455
Au13 Au9 3.010646 1_444
Au13 Au8 3.010646 1_555
Au13 Ca0 3.421000 1_445
Au13 Ca1 3.421000 1_554
Au13 Ca1 3.421000 1_454
Au13 Ca0 3.421000 1_545
Au14 Ge0 2.617139 1_555
Au14 Ca2 3.153124 1_555
Au14 Ca2 3.153124 1_655
Au14 Ca5 3.202602 1_555
Au14 Ca0 3.662905 1_545
Au15 Ge1 2.617139 1_555
Au15 Ca3 3.153124 1_555
Au15 Ca3 3.153124 1_655
Au15 Ca5 3.202602 1_565
Au15 Ca1 3.662905 1_565
