# generated using pymatgen
data_SrHfMg30O32
_symmetry_space_group_name_H-M   'P 1'
_cell_length_a   8.68100300
_cell_length_b   8.68100300
_cell_length_c   8.66923800
_cell_angle_alpha   90.00000000
_cell_angle_beta   90.00000000
_cell_angle_gamma   90.00000000
_symmetry_Int_Tables_number   1
_chemical_formula_structural   SrHfMg30O32
_chemical_formula_sum   'Sr1 Hf1 Mg30 O32'
_cell_volume   653.31215528
_cell_formula_units_Z   1
loop_
 _symmetry_equiv_pos_site_id
 _symmetry_equiv_pos_as_xyz
  1  'x, y, z'
loop_
 _atom_site_type_symbol
 _atom_site_label
 _atom_site_symmetry_multiplicity
 _atom_site_fract_x
 _atom_site_fract_y
 _atom_site_fract_z
 _atom_site_occupancy
  Sr  Sr0  1  0.00000000  0.00000000  0.00000000  1
  Hf  Hf0  1  0.00000000  0.00000000  0.50000000  1
  Mg  Mg0  1  0.50000000  0.00000000  0.00000000  1
  Mg  Mg1  1  0.50000000  0.00000000  0.50000000  1
  Mg  Mg2  1  0.00000000  0.50000000  0.00000000  1
  Mg  Mg3  1  0.00000000  0.50000000  0.50000000  1
  Mg  Mg4  1  0.50000000  0.50000000  0.00000000  1
  Mg  Mg5  1  0.50000000  0.50000000  0.50000000  1
  Mg  Mg6  1  0.26247500  0.00000000  0.25014900  1
  Mg  Mg7  1  0.26247500  0.00000000  0.74985100  1
  Mg  Mg8  1  0.73752500  0.00000000  0.25014900  1
  Mg  Mg9  1  0.73752500  0.00000000  0.74985100  1
  Mg  Mg10  1  0.25218300  0.50000000  0.25021900  1
  Mg  Mg11  1  0.25218300  0.50000000  0.74978100  1
  Mg  Mg12  1  0.74781700  0.50000000  0.25021900  1
  Mg  Mg13  1  0.74781700  0.50000000  0.74978100  1
  Mg  Mg14  1  0.00000000  0.26247500  0.25014900  1
  Mg  Mg15  1  0.00000000  0.26247500  0.74985100  1
  Mg  Mg16  1  0.50000000  0.25218300  0.25021900  1
  Mg  Mg17  1  0.50000000  0.25218300  0.74978100  1
  Mg  Mg18  1  0.00000000  0.73752500  0.25014900  1
  Mg  Mg19  1  0.00000000  0.73752500  0.74985100  1
  Mg  Mg20  1  0.50000000  0.74781700  0.25021900  1
  Mg  Mg21  1  0.50000000  0.74781700  0.74978100  1
  Mg  Mg22  1  0.25646800  0.25646800  0.00000000  1
  Mg  Mg23  1  0.25362300  0.25362300  0.50000000  1
  Mg  Mg24  1  0.74353200  0.25646800  0.00000000  1
  Mg  Mg25  1  0.74637700  0.25362300  0.50000000  1
  Mg  Mg26  1  0.25646800  0.74353200  0.00000000  1
  Mg  Mg27  1  0.25362300  0.74637700  0.50000000  1
  Mg  Mg28  1  0.74353200  0.74353200  0.00000000  1
  Mg  Mg29  1  0.74637700  0.74637700  0.50000000  1
  O  O0  1  0.00000000  0.27038200  0.00000000  1
  O  O1  1  0.00000000  0.25853600  0.50000000  1
  O  O2  1  0.50000000  0.25387700  0.00000000  1
  O  O3  1  0.50000000  0.25160600  0.50000000  1
  O  O4  1  0.00000000  0.72961800  0.00000000  1
  O  O5  1  0.00000000  0.74146400  0.50000000  1
  O  O6  1  0.50000000  0.74612300  0.00000000  1
  O  O7  1  0.50000000  0.74839400  0.50000000  1
  O  O8  1  0.24932200  0.24932200  0.24909300  1
  O  O9  1  0.24932200  0.24932200  0.75090700  1
  O  O10  1  0.75067800  0.24932200  0.24909300  1
  O  O11  1  0.75067800  0.24932200  0.75090700  1
  O  O12  1  0.24932200  0.75067800  0.24909300  1
  O  O13  1  0.24932200  0.75067800  0.75090700  1
  O  O14  1  0.75067800  0.75067800  0.24909300  1
  O  O15  1  0.75067800  0.75067800  0.75090700  1
  O  O16  1  0.00000000  0.00000000  0.26690900  1
  O  O17  1  0.00000000  0.00000000  0.73309100  1
  O  O18  1  0.50000000  0.00000000  0.25342600  1
  O  O19  1  0.50000000  0.00000000  0.74657400  1
  O  O20  1  0.00000000  0.50000000  0.25342600  1
  O  O21  1  0.00000000  0.50000000  0.74657400  1
  O  O22  1  0.50000000  0.50000000  0.25075100  1
  O  O23  1  0.50000000  0.50000000  0.74924900  1
  O  O24  1  0.27038200  0.00000000  0.00000000  1
  O  O25  1  0.25853600  0.00000000  0.50000000  1
  O  O26  1  0.72961800  0.00000000  0.00000000  1
  O  O27  1  0.74146400  0.00000000  0.50000000  1
  O  O28  1  0.25387700  0.50000000  0.00000000  1
  O  O29  1  0.25160600  0.50000000  0.50000000  1
  O  O30  1  0.74612300  0.50000000  0.00000000  1
  O  O31  1  0.74839400  0.50000000  0.50000000  1
loop_
_geom_bond_atom_site_label_1
_geom_bond_atom_site_label_2
_geom_bond_distance
_geom_bond_site_symmetry_2
Hf0 O17 2.020721 1_555
Hf0 O16 2.020721 1_555
Hf0 O25 2.244352 1_555
Hf0 O5 2.244352 1_545
Hf0 O1 2.244352 1_555
Hf0 O27 2.244352 1_455
Mg0 O26 1.993315 1_555
Mg0 O24 1.993315 1_555
Mg0 O18 2.197010 1_555
Mg0 O19 2.197010 1_554
Mg0 O2 2.203907 1_555
Mg0 O6 2.203907 1_545
Mg1 O25 2.096150 1_555
Mg1 O27 2.096150 1_555
Mg1 O19 2.137609 1_555
Mg1 O18 2.137609 1_555
Mg1 O7 2.184192 1_545
Mg1 O3 2.184192 1_555
Mg2 O0 1.993315 1_555
Mg2 O4 1.993315 1_555
Mg2 O20 2.197010 1_555
Mg2 O21 2.197010 1_554
Mg2 O28 2.203907 1_555
Mg2 O30 2.203907 1_455
Mg3 O1 2.096150 1_555
Mg3 O5 2.096150 1_555
Mg3 O21 2.137609 1_555
Mg3 O20 2.137609 1_555
Mg3 O29 2.184192 1_555
Mg3 O31 2.184192 1_455
Mg4 O6 2.136595 1_555
Mg4 O30 2.136595 1_555
Mg4 O2 2.136595 1_555
Mg4 O28 2.136595 1_555
Mg4 O22 2.173820 1_555
Mg4 O23 2.173820 1_554
Mg5 O3 2.156309 1_555
Mg5 O29 2.156309 1_555
Mg5 O7 2.156309 1_555
Mg5 O31 2.156309 1_555
Mg5 O23 2.160799 1_555
Mg5 O22 2.160799 1_555
Mg6 O18 2.062151 1_555
Mg6 O25 2.166288 1_555
Mg6 O8 2.167394 1_555
Mg6 O12 2.167394 1_545
Mg6 O24 2.169687 1_555
Mg6 O16 2.283174 1_555
Mg7 O19 2.062151 1_555
Mg7 O25 2.166288 1_555
Mg7 O9 2.167394 1_555
Mg7 O13 2.167394 1_545
Mg7 O24 2.169687 1_556
Mg7 O17 2.283174 1_555
Mg8 O18 2.062151 1_555
Mg8 O27 2.166288 1_555
Mg8 O10 2.167394 1_555
Mg8 O14 2.167394 1_545
Mg8 O26 2.169687 1_555
Mg8 O16 2.283174 1_655
Mg9 O19 2.062151 1_555
Mg9 O27 2.166288 1_555
Mg9 O11 2.167394 1_555
Mg9 O15 2.167394 1_545
Mg9 O26 2.169687 1_556
Mg9 O17 2.283174 1_655
Mg10 O22 2.151305 1_555
Mg10 O29 2.165417 1_555
Mg10 O28 2.169258 1_555
Mg10 O12 2.176300 1_555
Mg10 O8 2.176300 1_555
Mg10 O20 2.189378 1_555
Mg11 O23 2.151305 1_555
Mg11 O29 2.165417 1_555
Mg11 O28 2.169258 1_556
Mg11 O13 2.176300 1_555
Mg11 O9 2.176300 1_555
Mg11 O21 2.189378 1_555
Mg12 O22 2.151305 1_555
Mg12 O31 2.165417 1_555
Mg12 O30 2.169258 1_555
Mg12 O14 2.176300 1_555
Mg12 O10 2.176300 1_555
Mg12 O20 2.189378 1_655
Mg13 O23 2.151305 1_555
Mg13 O31 2.165417 1_555
Mg13 O30 2.169258 1_556
Mg13 O15 2.176300 1_555
Mg13 O11 2.176300 1_555
Mg13 O21 2.189378 1_655
Mg14 O20 2.062151 1_555
Mg14 O1 2.166288 1_555
Mg14 O8 2.167394 1_555
Mg14 O10 2.167394 1_455
Mg14 O0 2.169687 1_555
Mg14 O16 2.283174 1_555
Mg15 O21 2.062151 1_555
Mg15 O1 2.166288 1_555
Mg15 O9 2.167394 1_555
Mg15 O11 2.167394 1_455
Mg15 O0 2.169687 1_556
Mg15 O17 2.283174 1_555
Mg16 O22 2.151305 1_555
Mg16 O3 2.165417 1_555
Mg16 O2 2.169258 1_555
Mg16 O10 2.176300 1_555
Mg16 O8 2.176300 1_555
Mg16 O18 2.189378 1_555
Mg17 O23 2.151305 1_555
Mg17 O3 2.165417 1_555
Mg17 O2 2.169258 1_556
Mg17 O11 2.176300 1_555
Mg17 O9 2.176300 1_555
Mg17 O19 2.189378 1_555
Mg18 O20 2.062151 1_555
Mg18 O5 2.166288 1_555
Mg18 O12 2.167394 1_555
Mg18 O14 2.167394 1_455
Mg18 O4 2.169687 1_555
Mg18 O16 2.283174 1_565
Mg19 O21 2.062151 1_555
Mg19 O5 2.166288 1_555
Mg19 O13 2.167394 1_555
Mg19 O15 2.167394 1_455
Mg19 O4 2.169687 1_556
Mg19 O17 2.283174 1_565
Mg20 O22 2.151305 1_555
Mg20 O7 2.165417 1_555
Mg20 O6 2.169258 1_555
Mg20 O14 2.176300 1_555
Mg20 O12 2.176300 1_555
Mg20 O18 2.189378 1_565
Mg21 O23 2.151305 1_555
Mg21 O7 2.165417 1_555
Mg21 O6 2.169258 1_556
Mg21 O15 2.176300 1_555
Mg21 O13 2.176300 1_555
Mg21 O19 2.189378 1_565
Mg22 O2 2.114222 1_555
Mg22 O28 2.114222 1_555
Mg22 O8 2.161228 1_555
Mg22 O9 2.161228 1_554
Mg22 O24 2.229674 1_555
Mg22 O0 2.229674 1_555
Mg23 O3 2.138871 1_555
Mg23 O29 2.138871 1_555
Mg23 O9 2.175813 1_555
Mg23 O8 2.175813 1_555
Mg23 O1 2.202115 1_555
Mg23 O25 2.202115 1_555
Mg24 O2 2.114222 1_555
Mg24 O30 2.114222 1_555
Mg24 O10 2.161228 1_555
Mg24 O11 2.161228 1_554
Mg24 O26 2.229674 1_555
Mg24 O0 2.229674 1_655
Mg25 O3 2.138871 1_555
Mg25 O31 2.138871 1_555
Mg25 O11 2.175813 1_555
Mg25 O10 2.175813 1_555
Mg25 O27 2.202115 1_555
Mg25 O1 2.202115 1_655
Mg26 O28 2.114222 1_555
Mg26 O6 2.114222 1_555
Mg26 O12 2.161228 1_555
Mg26 O13 2.161228 1_554
Mg26 O4 2.229674 1_555
Mg26 O24 2.229674 1_565
Mg27 O29 2.138871 1_555
Mg27 O7 2.138871 1_555
Mg27 O13 2.175813 1_555
Mg27 O12 2.175813 1_555
Mg27 O5 2.202115 1_555
Mg27 O25 2.202115 1_565
Mg28 O30 2.114222 1_555
Mg28 O6 2.114222 1_555
Mg28 O14 2.161228 1_555
Mg28 O15 2.161228 1_554
Mg28 O26 2.229674 1_565
Mg28 O4 2.229674 1_655
Mg29 O7 2.138871 1_555
Mg29 O31 2.138871 1_555
Mg29 O15 2.175813 1_555
Mg29 O14 2.175813 1_555
Mg29 O27 2.202115 1_565
Mg29 O5 2.202115 1_655
O0 Sr0 2.347187 1_555
O4 Sr0 2.347187 1_565
O16 Sr0 2.313898 1_555
O17 Sr0 2.313898 1_556
O24 Sr0 2.347187 1_555
O26 Sr0 2.347187 1_655
