# generated using pymatgen
data_Al4V13Si2(SbO14)2
_symmetry_space_group_name_H-M   'P 1'
_cell_length_a   5.62935911
_cell_length_b   8.91840159
_cell_length_c   12.14865316
_cell_angle_alpha   88.17712887
_cell_angle_beta   76.10481988
_cell_angle_gamma   80.02997710
_symmetry_Int_Tables_number   1
_chemical_formula_structural   Al4V13Si2(SbO14)2
_chemical_formula_sum   'Al4 V13 Si2 Sb2 O28'
_cell_volume   583.10176103
_cell_formula_units_Z   1
loop_
 _symmetry_equiv_pos_site_id
 _symmetry_equiv_pos_as_xyz
  1  'x, y, z'
loop_
 _atom_site_type_symbol
 _atom_site_label
 _atom_site_symmetry_multiplicity
 _atom_site_fract_x
 _atom_site_fract_y
 _atom_site_fract_z
 _atom_site_occupancy
  Al  Al0  1  0.06187100  0.67139300  0.43756200  1
  Al  Al1  1  0.50299000  0.32797400  0.43463500  1
  Al  Al2  1  0.93855600  0.32763500  0.56264700  1
  Al  Al3  1  0.49655100  0.67170200  0.56627700  1
  V  V0  1  0.91751600  0.63719300  0.71180100  1
  V  V1  1  0.65188900  0.35333500  0.14083400  1
  V  V2  1  0.37084300  0.35658000  0.70666700  1
  V  V3  1  0.08378700  0.36193700  0.28853900  1
  V  V4  1  0.34773900  0.64680800  0.85926400  1
  V  V5  1  0.28836700  0.99863000  0.42606600  1
  V  V6  1  0.21131700  0.64822300  0.13642600  1
  V  V7  1  0.99970800  0.99956500  0.00006900  1
  V  V8  1  0.42409000  0.00185600  0.14808300  1
  V  V9  1  0.78806900  0.35177100  0.86412000  1
  V  V10  1  0.63081000  0.64223100  0.29374100  1
  V  V11  1  0.57568100  0.99888800  0.85203400  1
  V  V12  1  0.71217900  0.00083100  0.57416000  1
  Si  Si0  1  0.23759300  0.31436000  0.99745800  1
  Si  Si1  1  0.76153700  0.68582000  0.00282500  1
  Sb  Sb0  1  0.86530100  0.99718400  0.27787300  1
  Sb  Sb1  1  0.13212000  0.00534800  0.72247100  1
  O  O0  1  0.68191400  0.39092700  0.30463300  1
  O  O1  1  0.17500200  0.37329700  0.44741200  1
  O  O2  1  0.94419900  0.34594600  0.99999500  1
  O  O3  1  0.32587500  0.12690300  0.99706200  1
  O  O4  1  0.82465400  0.62784400  0.55327600  1
  O  O5  1  0.31841000  0.60744600  0.69588600  1
  O  O6  1  0.00116400  0.12210900  0.55364000  1
  O  O7  1  0.99902100  0.87718400  0.44466200  1
  O  O8  1  0.67095000  0.87310900  0.00307100  1
  O  O9  1  0.15351300  0.88746400  0.13601800  1
  O  O10  1  0.28088200  0.39123800  0.11277700  1
  O  O11  1  0.02020200  0.61122700  0.30486700  1
  O  O12  1  0.44351700  0.87868100  0.56319100  1
  O  O13  1  0.71458700  0.11347300  0.14472700  1
  O  O14  1  0.60894000  0.60979500  0.11986500  1
  O  O15  1  0.05493400  0.65602600  0.00033900  1
  O  O16  1  0.28598200  0.88662100  0.85381600  1
  O  O17  1  0.84327000  0.11281700  0.86617300  1
  O  O18  1  0.55254100  0.12121800  0.43981600  1
  O  O19  1  0.17824200  0.12141100  0.27983300  1
  O  O20  1  0.83120100  0.87870300  0.72020800  1
  O  O21  1  0.39067800  0.39035100  0.88058100  1
  O  O22  1  0.49636500  0.12092600  0.71075700  1
  O  O23  1  0.62406200  0.37125600  0.54927800  1
  O  O24  1  0.71883100  0.60879500  0.88745300  1
  O  O25  1  0.51384600  0.87938500  0.28945100  1
  O  O26  1  0.98030400  0.38755300  0.69542200  1
  O  O27  1  0.37651500  0.62926500  0.45104200  1
loop_
_geom_bond_atom_site_label_1
_geom_bond_atom_site_label_2
_geom_bond_distance
_geom_bond_site_symmetry_2
Al0 O4 1.775810 1_455
Al0 O27 1.791718 1_555
Al0 O11 1.794975 1_555
Al0 O7 1.808759 1_455
Al1 O23 1.770455 1_555
Al1 O0 1.788696 1_555
Al1 O1 1.790098 1_555
Al1 O18 1.817913 1_555
Al2 O1 1.775898 1_655
Al2 O23 1.790987 1_555
Al2 O26 1.795292 1_555
Al2 O6 1.807343 1_655
Al3 O27 1.770965 1_555
Al3 O5 1.787884 1_555
Al3 O4 1.789705 1_555
Al3 O12 1.818821 1_555
O0 V1 2.079525 1_555
O0 V3 2.193458 1_655
O0 V10 2.213490 1_555
O1 V3 2.122650 1_555
O2 Si0 1.619615 1_655
O2 V9 2.043414 1_555
O2 V1 2.063244 1_556
O3 Si0 1.659411 1_555
O3 V11 2.183415 1_545
O3 V8 2.249234 1_556
O3 V7 2.312902 1_446
O4 V0 2.120855 1_555
O5 V4 2.076488 1_555
O5 V0 2.187963 1_455
O5 V2 2.209333 1_555
O6 V12 2.067810 1_455
O6 V5 2.125390 1_545
O6 Sb1 2.481779 1_555
O7 V5 2.072637 1_655
O7 V12 2.138253 1_565
O7 Sb0 2.476569 1_555
O8 Si1 1.659718 1_555
O8 V8 2.180251 1_565
O8 V11 2.246366 1_554
O8 V7 2.320775 1_555
O9 V8 2.009268 1_565
O9 V6 2.101917 1_555
O9 V7 2.181509 1_455
O9 Sb0 2.185043 1_455
O10 Si0 1.665871 1_554
O10 V1 2.163917 1_555
O10 V3 2.187630 1_555
O10 V6 2.272830 1_555
O11 V6 2.115743 1_555
O11 V3 2.197451 1_555
O11 V10 2.197672 1_455
O12 V12 2.041662 1_565
O12 V5 2.223573 1_555
O12 Sb1 2.432611 1_565
O13 V8 2.048387 1_555
O13 V1 2.107858 1_555
O13 Sb0 2.158611 1_545
O13 V7 2.211528 1_545
O14 Si1 1.665255 1_555
O14 V6 2.165794 1_555
O14 V10 2.176468 1_555
O14 V1 2.270622 1_555
O15 Si1 1.619880 1_455
O15 V6 2.045398 1_555
O15 V4 2.065489 1_554
O16 V11 2.051729 1_555
O16 V4 2.108097 1_555
O16 Sb1 2.157839 1_565
O16 V7 2.223767 1_456
O17 V11 1.999088 1_545
O17 V9 2.099942 1_555
O17 V7 2.171913 1_546
O17 Sb1 2.194035 1_655
O18 V5 2.031909 1_545
O18 V12 2.209739 1_555
O18 Sb0 2.448370 1_545
O19 V8 2.036612 1_555
O19 V3 2.118460 1_555
O19 V5 2.215758 1_545
O19 Sb0 2.242568 1_445
O20 V11 2.061958 1_555
O20 V0 2.124502 1_555
O20 Sb1 2.198383 1_665
O20 V12 2.231294 1_565
O21 Si0 1.664744 1_555
O21 V9 2.164668 1_555
O21 V2 2.175460 1_555
O21 V4 2.271049 1_555
O22 V12 2.017713 1_555
O22 V11 2.100158 1_545
O22 V2 2.101125 1_555
O22 Sb1 2.422710 1_555
O23 V2 2.108238 1_555
O24 Si1 1.665678 1_556
O24 V4 2.164985 1_555
O24 V0 2.187731 1_555
O24 V9 2.272786 1_555
O25 V5 2.032177 1_555
O25 V10 2.106390 1_555
O25 V8 2.122312 1_565
O25 Sb0 2.369493 1_555
O26 V9 2.118000 1_555
O26 V0 2.200739 1_555
O26 V2 2.204510 1_655
O27 V10 2.108051 1_555
