# generated using pymatgen
data_Zr(GaCo)6
_symmetry_space_group_name_H-M   'P 1'
_cell_length_a   5.09072000
_cell_length_b   6.38650956
_cell_length_c   6.38650956
_cell_angle_alpha   102.77779740
_cell_angle_beta   113.48772573
_cell_angle_gamma   66.51227427
_symmetry_Int_Tables_number   1
_chemical_formula_structural   Zr(GaCo)6
_chemical_formula_sum   'Zr1 Ga6 Co6'
_cell_volume   174.17560383
_cell_formula_units_Z   1
loop_
 _symmetry_equiv_pos_site_id
 _symmetry_equiv_pos_as_xyz
  1  'x, y, z'
loop_
 _atom_site_type_symbol
 _atom_site_label
 _atom_site_symmetry_multiplicity
 _atom_site_fract_x
 _atom_site_fract_y
 _atom_site_fract_z
 _atom_site_occupancy
  Zr  Zr0  1  0.00000000  0.00000000  0.00000000  1
  Ga  Ga0  1  0.50000000  0.00000000  0.50000000  1
  Ga  Ga1  1  0.00000000  0.00000000  0.50000000  1
  Ga  Ga2  1  0.50000000  0.50000000  0.00000000  1
  Ga  Ga3  1  0.00000000  0.50000000  0.00000000  1
  Ga  Ga4  1  0.50000000  0.79001500  0.79001500  1
  Ga  Ga5  1  0.50000000  0.20998500  0.20998500  1
  Co  Co0  1  0.64381400  0.35618600  0.64381400  1
  Co  Co1  1  0.35618600  0.64381400  0.35618600  1
  Co  Co2  1  0.00000000  0.34690200  0.34690200  1
  Co  Co3  1  0.00000000  0.65309800  0.65309800  1
  Co  Co4  1  0.71925700  0.78074300  0.21925700  1
  Co  Co5  1  0.28074300  0.21925700  0.78074300  1
loop_
_geom_bond_atom_site_label_1
_geom_bond_atom_site_label_2
_geom_bond_distance
_geom_bond_site_symmetry_2
Ga0 Ga4 2.515510 1_545
Ga0 Ga5 2.515510 1_555
Ga0 Ga1 2.545360 1_655
Ga0 Ga1 2.545360 1_555
Ga0 Zr0 3.193255 1_555
Ga0 Zr0 3.193255 1_656
Ga1 Ga4 2.515510 1_545
Ga1 Ga5 2.515510 1_455
Ga1 Zr0 3.193255 1_555
Ga1 Zr0 3.193255 1_556
Ga2 Ga4 2.515510 1_554
Ga2 Ga5 2.515510 1_555
Ga2 Ga3 2.545360 1_655
Ga2 Ga3 2.545360 1_555
Ga2 Zr0 3.193255 1_655
Ga2 Zr0 3.193255 1_565
Ga3 Ga4 2.515510 1_454
Ga3 Ga5 2.515510 1_555
Ga3 Zr0 3.193255 1_555
Ga3 Zr0 3.193255 1_565
Ga4 Zr0 3.046352 1_566
Ga4 Zr0 3.046352 1_666
Ga5 Zr0 3.046352 1_655
Ga5 Zr0 3.046352 1_555
Co0 Co1 2.469275 1_555
Co0 Ga2 2.534077 1_556
Co0 Ga1 2.534077 1_655
Co0 Ga3 2.534077 1_656
Co0 Ga0 2.534077 1_555
Co0 Ga4 2.620689 1_555
Co0 Ga5 2.620689 1_555
Co0 Co5 2.803699 1_655
Co0 Co5 2.803699 1_555
Co0 Zr0 3.057843 1_656
Co0 Co2 3.080964 1_555
Co0 Co3 3.080964 1_555
Co0 Co2 3.080964 1_655
Co0 Co3 3.080964 1_655
Co1 Ga1 2.534077 1_565
Co1 Ga0 2.534077 1_565
Co1 Ga2 2.534077 1_555
Co1 Ga3 2.534077 1_555
Co1 Ga4 2.620689 1_555
Co1 Ga5 2.620689 1_555
Co1 Co4 2.803699 1_555
Co1 Co4 2.803699 1_455
Co1 Zr0 3.057843 1_565
Co1 Co2 3.080964 1_555
Co1 Co3 3.080964 1_555
Co1 Co2 3.080964 1_655
Co1 Co3 3.080964 1_655
Co2 Co3 2.440615 1_555
Co2 Ga3 2.612018 1_555
Co2 Ga0 2.612018 1_555
Co2 Ga2 2.612018 1_455
Co2 Ga1 2.612018 1_555
Co2 Co5 2.701492 1_555
Co2 Co4 2.701492 1_455
Co2 Zr0 2.765073 1_555
Co2 Ga5 2.769452 1_455
Co2 Ga5 2.769452 1_555
Co3 Ga0 2.612018 1_465
Co3 Ga1 2.612018 1_565
Co3 Ga3 2.612018 1_556
Co3 Ga2 2.612018 1_556
Co3 Co5 2.701492 1_555
Co3 Co4 2.701492 1_455
Co3 Zr0 2.765073 1_566
Co3 Ga4 2.769452 1_455
Co3 Ga4 2.769452 1_555
Co4 Ga2 2.379114 1_555
Co4 Ga3 2.379114 1_655
Co4 Ga0 2.379114 1_565
Co4 Ga1 2.379114 1_665
Co4 Ga5 2.518831 1_565
Co4 Ga4 2.518831 1_554
Co4 Zr0 3.165748 1_565
Co4 Zr0 3.165748 1_665
Co5 Ga1 2.379114 1_555
Co5 Ga3 2.379114 1_556
Co5 Ga0 2.379114 1_555
Co5 Ga2 2.379114 1_556
Co5 Ga5 2.518831 1_556
Co5 Ga4 2.518831 1_545
Co5 Zr0 3.165748 1_556
Co5 Zr0 3.165748 1_656
