# generated using pymatgen
data_Mn3B4W
_symmetry_space_group_name_H-M   'P 1'
_cell_length_a   2.99771369
_cell_length_b   4.28575319
_cell_length_c   5.65131558
_cell_angle_alpha   89.66410421
_cell_angle_beta   90.00000000
_cell_angle_gamma   90.00000000
_symmetry_Int_Tables_number   1
_chemical_formula_structural   Mn3B4W
_chemical_formula_sum   'Mn3 B4 W1'
_cell_volume   72.60380889
_cell_formula_units_Z   1
loop_
 _symmetry_equiv_pos_site_id
 _symmetry_equiv_pos_as_xyz
  1  'x, y, z'
loop_
 _atom_site_type_symbol
 _atom_site_label
 _atom_site_symmetry_multiplicity
 _atom_site_fract_x
 _atom_site_fract_y
 _atom_site_fract_z
 _atom_site_occupancy
  Mn  Mn0  1  -0.00000000  0.87657011  0.82653320  1
  Mn  Mn1  1  0.50000000  0.37524023  0.67788612  1
  Mn  Mn2  1  0.50000000  0.11857748  0.17311390  1
  B  B0  1  -0.00000000  0.11844215  0.47317508  1
  B  B1  1  -0.00000000  0.38150437  0.95960170  1
  B  B2  1  0.50000000  0.90300833  0.54235525  1
  B  B3  1  0.50000000  0.60257877  0.02257691  1
  W  W0  1  -0.00000000  0.62407856  0.32475883  1
loop_
_geom_bond_atom_site_label_1
_geom_bond_atom_site_label_2
_geom_bond_distance
_geom_bond_site_symmetry_2
Mn1 W0 2.709522 1_555
Mn1 W0 2.709522 1_655
Mn2 W0 2.729679 1_545
Mn2 W0 2.729679 1_645
Mn2 W0 2.774220 1_655
Mn2 W0 2.774220 1_555
B0 B2 1.802128 1_545
B0 B2 1.802128 1_445
B0 Mn1 2.193433 1_555
B0 Mn1 2.193433 1_455
B0 Mn0 2.244558 1_545
B0 Mn2 2.263205 1_455
B0 Mn2 2.263205 1_555
B0 W0 2.283267 1_545
B0 W0 2.319098 1_555
B1 B3 1.809664 1_556
B1 B3 1.809664 1_456
B1 Mn1 2.186884 1_455
B1 Mn1 2.186884 1_555
B1 Mn2 2.226284 1_556
B1 Mn2 2.226284 1_456
B1 Mn0 2.246898 1_555
B1 Mn0 2.295126 1_545
B1 W0 2.316132 1_556
B2 Mn1 2.168148 1_565
B2 Mn0 2.199192 1_555
B2 Mn0 2.199192 1_655
B2 Mn2 2.277116 1_565
B2 W0 2.281452 1_655
B2 W0 2.281452 1_555
B2 Mn1 2.383789 1_555
B3 Mn1 2.183136 1_554
B3 Mn0 2.199467 1_554
B3 Mn0 2.199467 1_654
B3 Mn2 2.237368 1_555
B3 W0 2.274474 1_655
B3 W0 2.274474 1_555
B3 Mn2 2.374086 1_565
