# generated using pymatgen
data_Ba2ErV3O11
_symmetry_space_group_name_H-M   'P 1'
_cell_length_a   7.75131900
_cell_length_b   12.47171977
_cell_length_c   11.30769869
_cell_angle_alpha   103.72197672
_cell_angle_beta   89.99833551
_cell_angle_gamma   90.00185545
_symmetry_Int_Tables_number   1
_chemical_formula_structural   Ba2ErV3O11
_chemical_formula_sum   'Ba8 Er4 V12 O44'
_cell_volume   1061.94079008
_cell_formula_units_Z   4
loop_
 _symmetry_equiv_pos_site_id
 _symmetry_equiv_pos_as_xyz
  1  'x, y, z'
loop_
 _atom_site_type_symbol
 _atom_site_label
 _atom_site_symmetry_multiplicity
 _atom_site_fract_x
 _atom_site_fract_y
 _atom_site_fract_z
 _atom_site_occupancy
  Ba  Ba0  1  0.27666500  0.77360600  0.94364500  1
  Ba  Ba1  1  0.72333500  0.22639400  0.05635500  1
  Ba  Ba2  1  0.77667400  0.22638800  0.55635600  1
  Ba  Ba3  1  0.22332600  0.77361200  0.44364400  1
  Ba  Ba4  1  0.74642000  0.55348100  0.88877000  1
  Ba  Ba5  1  0.25358000  0.44651900  0.11123000  1
  Ba  Ba6  1  0.24641500  0.44652700  0.61122100  1
  Ba  Ba7  1  0.75358500  0.55347300  0.38877900  1
  Er  Er0  1  0.50236700  0.99567400  0.71661100  1
  Er  Er1  1  0.49763300  0.00432600  0.28338900  1
  Er  Er2  1  0.00236800  0.00434800  0.78338200  1
  Er  Er3  1  0.99763200  0.99565200  0.21661800  1
  V  V0  1  0.75683700  0.90854200  0.97811800  1
  V  V1  1  0.24316300  0.09145800  0.02188200  1
  V  V2  1  0.25686600  0.09148500  0.52190400  1
  V  V3  1  0.74313400  0.90851500  0.47809600  1
  V  V4  1  0.51906100  0.68536800  0.67211500  1
  V  V5  1  0.48093900  0.31463200  0.32788500  1
  V  V6  1  0.01910100  0.31467800  0.82780200  1
  V  V7  1  0.98089900  0.68532200  0.17219800  1
  V  V8  1  0.98101800  0.68988700  0.67298100  1
  V  V9  1  0.01898200  0.31011300  0.32701900  1
  V  V10  1  0.48105600  0.31012000  0.82702300  1
  V  V11  1  0.51894400  0.68988000  0.17297700  1
  O  O0  1  0.44954000  0.82131600  0.71664200  1
  O  O1  1  0.55046000  0.17868400  0.28335800  1
  O  O2  1  0.94956800  0.17870900  0.78333800  1
  O  O3  1  0.05043200  0.82129100  0.21666200  1
  O  O4  1  0.54519500  0.17315400  0.80056800  1
  O  O5  1  0.45480500  0.82684600  0.19943200  1
  O  O6  1  0.04518200  0.82685400  0.69942400  1
  O  O7  1  0.95481800  0.17314700  0.30057600  1
  O  O8  1  0.75041700  0.66232900  0.66524400  1
  O  O9  1  0.24958300  0.33767100  0.33475600  1
  O  O10  1  0.25044300  0.33769400  0.83473000  1
  O  O11  1  0.74955700  0.66230600  0.16527000  1
  O  O12  1  0.94345300  0.37516600  0.96840000  1
  O  O13  1  0.05654700  0.62483400  0.03160000  1
  O  O14  1  0.44342700  0.62484400  0.53155400  1
  O  O15  1  0.55657300  0.37515600  0.46844600  1
  O  O16  1  0.93894000  0.38882300  0.73089100  1
  O  O17  1  0.06106000  0.61117700  0.26910900  1
  O  O18  1  0.43891600  0.61120600  0.76908200  1
  O  O19  1  0.56108400  0.38879400  0.23091800  1
  O  O20  1  0.78576100  0.98917700  0.62789100  1
  O  O21  1  0.21423900  0.01082300  0.37210900  1
  O  O22  1  0.28577500  0.01080900  0.87211300  1
  O  O23  1  0.71422500  0.98919100  0.12788700  1
  O  O24  1  0.97624500  0.88739600  0.98234300  1
  O  O25  1  0.02375500  0.11260400  0.01765700  1
  O  O26  1  0.47625900  0.11260600  0.51762200  1
  O  O27  1  0.52374100  0.88739400  0.48237800  1
  O  O28  1  0.64661100  0.78738300  0.94685600  1
  O  O29  1  0.35338900  0.21261700  0.05314400  1
  O  O30  1  0.14661300  0.21264400  0.55312500  1
  O  O31  1  0.85338700  0.78735600  0.44687500  1
  O  O32  1  0.72272600  0.98510300  0.86418100  1
  O  O33  1  0.27727400  0.01489700  0.13581900  1
  O  O34  1  0.22272200  0.01491000  0.63579100  1
  O  O35  1  0.77727800  0.98509000  0.36420900  1
  O  O36  1  0.55823500  0.36910700  0.71715700  1
  O  O37  1  0.44176500  0.63089300  0.28284300  1
  O  O38  1  0.05819200  0.63089600  0.78283800  1
  O  O39  1  0.94180800  0.36910400  0.21716200  1
  O  O40  1  0.56476800  0.38400400  0.96122600  1
  O  O41  1  0.43523200  0.61599600  0.03877400  1
  O  O42  1  0.06477700  0.61599400  0.53875900  1
  O  O43  1  0.93522300  0.38400600  0.46124100  1
loop_
_geom_bond_atom_site_label_1
_geom_bond_atom_site_label_2
_geom_bond_distance
_geom_bond_site_symmetry_2
Ba0 O24 2.708070 1_455
Ba0 O41 2.745000 1_556
Ba0 O18 2.771928 1_555
Ba0 O38 2.794031 1_555
Ba0 O13 2.866731 1_556
Ba0 O28 2.872422 1_555
Ba0 O0 3.076186 1_555
Ba0 O5 3.130871 1_556
Ba0 O22 3.247487 1_565
Ba0 O33 3.267369 1_566
Ba1 O25 2.708070 1_655
Ba1 O40 2.745000 1_554
Ba1 O19 2.771928 1_555
Ba1 O39 2.794031 1_555
Ba1 O12 2.866731 1_554
Ba1 O29 2.872422 1_555
Ba1 O1 3.076186 1_555
Ba1 O4 3.130871 1_554
Ba1 O23 3.247487 1_545
Ba1 O32 3.267369 1_544
Ba2 O26 2.707946 1_555
Ba2 O43 2.744845 1_555
Ba2 O16 2.772048 1_555
Ba2 O36 2.793897 1_555
Ba2 O15 2.866467 1_555
Ba2 O30 2.872354 1_655
Ba2 O2 3.075972 1_555
Ba2 O7 3.130760 1_555
Ba2 O20 3.247601 1_545
Ba2 O35 3.267299 1_545
Ba3 O27 2.707946 1_555
Ba3 O42 2.744845 1_555
Ba3 O17 2.772048 1_555
Ba3 O37 2.793897 1_555
Ba3 O14 2.866467 1_555
Ba3 O31 2.872354 1_455
Ba3 O3 3.075972 1_555
Ba3 O6 3.130760 1_555
Ba3 O21 3.247601 1_565
Ba3 O34 3.267299 1_565
Ba4 O16 2.809256 1_555
Ba4 O40 2.818293 1_555
Ba4 O18 2.914429 1_555
Ba4 O13 2.915016 1_656
Ba4 O28 2.937835 1_555
Ba4 O41 2.945465 1_556
Ba4 O38 2.958978 1_655
Ba4 O12 3.006549 1_555
Ba4 O36 3.010644 1_555
Ba4 O11 3.099188 1_556
Ba4 O8 3.140103 1_555
Ba5 O17 2.809256 1_555
Ba5 O41 2.818293 1_555
Ba5 O19 2.914429 1_555
Ba5 O12 2.915016 1_454
Ba5 O29 2.937835 1_555
Ba5 O40 2.945465 1_554
Ba5 O39 2.958978 1_455
Ba5 O13 3.006549 1_555
Ba5 O37 3.010644 1_555
Ba5 O10 3.099188 1_554
Ba5 O9 3.140103 1_555
Ba6 O18 2.809220 1_555
Ba6 O42 2.818260 1_555
Ba6 O16 2.913943 1_455
Ba6 O15 2.914924 1_555
Ba6 O30 2.937557 1_555
Ba6 O43 2.945400 1_455
Ba6 O36 2.959438 1_555
Ba6 O14 3.006586 1_555
Ba6 O38 3.010787 1_555
Ba6 O9 3.098908 1_555
Ba6 O10 3.139817 1_555
Ba7 O19 2.809220 1_555
Ba7 O43 2.818260 1_555
Ba7 O17 2.913943 1_655
Ba7 O14 2.914924 1_555
Ba7 O31 2.937557 1_555
Ba7 O42 2.945400 1_655
Ba7 O37 2.959438 1_555
Ba7 O15 3.006586 1_555
Ba7 O39 3.010787 1_555
Ba7 O8 3.098908 1_555
Ba7 O11 3.139817 1_555
Er0 O0 2.212831 1_555
Er0 O4 2.216758 1_565
Er0 O34 2.386520 1_565
Er0 O22 2.405929 1_565
Er0 O20 2.408261 1_555
Er0 O32 2.413282 1_555
Er0 O27 2.677587 1_555
Er0 O26 2.964377 1_565
Er1 O1 2.212831 1_555
Er1 O5 2.216758 1_545
Er1 O35 2.386520 1_545
Er1 O23 2.405929 1_545
Er1 O21 2.408261 1_555
Er1 O33 2.413282 1_555
Er1 O26 2.677587 1_555
Er1 O27 2.964377 1_545
Er2 O2 2.212889 1_455
Er2 O6 2.216913 1_545
Er2 O32 2.386361 1_445
Er2 O20 2.405942 1_445
Er2 O22 2.408482 1_555
Er2 O34 2.413322 1_555
Er2 O25 2.677930 1_556
Er2 O24 2.964260 1_445
Er3 O3 2.212889 1_655
Er3 O7 2.216925 1_565
Er3 O33 2.386361 1_665
Er3 O21 2.405942 1_665
Er3 O23 2.408482 1_555
Er3 O35 2.413322 1_555
Er3 O24 2.677930 1_554
Er3 O25 2.964260 1_665
O0 V4 1.735995 1_555
O1 V5 1.735995 1_555
O2 V6 1.736195 1_655
O3 V7 1.736195 1_455
O4 V10 1.735577 1_555
O5 V11 1.735577 1_555
O6 V8 1.735626 1_455
O7 V9 1.735614 1_655
O8 V4 1.814940 1_555
O8 V8 1.818380 1_555
O9 V5 1.814940 1_555
O9 V9 1.818380 1_555
O10 V6 1.814780 1_555
O10 V10 1.818522 1_555
O11 V7 1.814780 1_555
O11 V11 1.818522 1_555
O12 V6 1.694550 1_655
O13 V7 1.694550 1_455
O14 V4 1.694279 1_555
O15 V5 1.694279 1_555
O16 V6 1.709641 1_655
O17 V7 1.709641 1_455
O18 V4 1.710185 1_555
O19 V5 1.710185 1_555
O20 V3 1.783783 1_555
O21 V2 1.783783 1_555
O22 V1 1.783461 1_556
O23 V0 1.783461 1_554
O24 V0 1.723436 1_555
O25 V1 1.723436 1_555
O26 V2 1.723293 1_555
O27 V3 1.723293 1_555
O28 V0 1.698464 1_555
O29 V1 1.698464 1_555
O30 V2 1.698609 1_555
O31 V3 1.698609 1_555
O32 V0 1.795883 1_555
O33 V1 1.795883 1_555
O34 V2 1.795546 1_555
O35 V3 1.795546 1_555
O36 V10 1.695881 1_555
O37 V11 1.695881 1_555
O38 V8 1.695854 1_455
O39 V9 1.695854 1_655
O40 V10 1.705766 1_555
O41 V11 1.705766 1_555
O42 V8 1.706094 1_455
O43 V9 1.706094 1_655
