# generated using pymatgen
data_Na5(AsO9)2
_symmetry_space_group_name_H-M   'P 1'
_cell_length_a   7.64509000
_cell_length_b   8.03526100
_cell_length_c   15.85080845
_cell_angle_alpha   71.91171084
_cell_angle_beta   90.00000000
_cell_angle_gamma   90.00000000
_symmetry_Int_Tables_number   1
_chemical_formula_structural   Na5(AsO9)2
_chemical_formula_sum   'Na10 As4 O36'
_cell_volume   925.59781464
_cell_formula_units_Z   2
loop_
 _symmetry_equiv_pos_site_id
 _symmetry_equiv_pos_as_xyz
  1  'x, y, z'
loop_
 _atom_site_type_symbol
 _atom_site_label
 _atom_site_symmetry_multiplicity
 _atom_site_fract_x
 _atom_site_fract_y
 _atom_site_fract_z
 _atom_site_occupancy
  Na  Na0  1  0.00000000  0.50000000  0.00000000  1
  Na  Na1  1  0.00000000  0.50000000  0.50000000  1
  Na  Na2  1  0.01829600  0.77184900  0.26467500  1
  Na  Na3  1  0.98170400  0.22815100  0.73532500  1
  Na  Na4  1  0.01829600  0.22815100  0.23532500  1
  Na  Na5  1  0.98170400  0.77184900  0.76467500  1
  Na  Na6  1  0.62044600  0.87355900  0.06953200  1
  Na  Na7  1  0.37955400  0.12644100  0.93046800  1
  Na  Na8  1  0.62044600  0.12644100  0.43046800  1
  Na  Na9  1  0.37955400  0.87355900  0.56953200  1
  As  As0  1  0.33131200  0.13521500  0.14462000  1
  As  As1  1  0.66868800  0.86478500  0.85538000  1
  As  As2  1  0.33131200  0.86478500  0.35538000  1
  As  As3  1  0.66868800  0.13521500  0.64462000  1
  O  O0  1  0.55443200  0.52004600  0.02381900  1
  O  O1  1  0.44556800  0.47995400  0.97618100  1
  O  O2  1  0.55443200  0.47995400  0.47618100  1
  O  O3  1  0.44556800  0.52004600  0.52381900  1
  O  O4  1  0.99976700  0.92994200  0.03043000  1
  O  O5  1  0.00023300  0.07005800  0.96957000  1
  O  O6  1  0.99976700  0.07005800  0.46957000  1
  O  O7  1  0.00023300  0.92994200  0.53043000  1
  O  O8  1  0.89797200  0.57051200  0.14146200  1
  O  O9  1  0.10202800  0.42948800  0.85853800  1
  O  O10  1  0.89797200  0.42948800  0.35853800  1
  O  O11  1  0.10202800  0.57051200  0.64146200  1
  O  O12  1  0.22306100  0.00000000  0.25000000  1
  O  O13  1  0.77693900  0.00000000  0.75000000  1
  O  O14  1  0.77769800  0.99202600  0.29097600  1
  O  O15  1  0.22230200  0.00797400  0.70902400  1
  O  O16  1  0.77769800  0.00797400  0.20902400  1
  O  O17  1  0.22230200  0.99202600  0.79097600  1
  O  O18  1  0.01447300  0.50000000  0.25000000  1
  O  O19  1  0.98552700  0.50000000  0.75000000  1
  O  O20  1  0.74112000  0.60455300  0.15536400  1
  O  O21  1  0.25888000  0.39544700  0.84463600  1
  O  O22  1  0.74112000  0.39544700  0.34463600  1
  O  O23  1  0.25888000  0.60455300  0.65536400  1
  O  O24  1  0.15928800  0.27488000  0.10356700  1
  O  O25  1  0.84071200  0.72512000  0.89643300  1
  O  O26  1  0.15928800  0.72512000  0.39643300  1
  O  O27  1  0.84071200  0.27488000  0.60356700  1
  O  O28  1  0.51394400  0.22222300  0.17322100  1
  O  O29  1  0.48605600  0.77777700  0.82677900  1
  O  O30  1  0.51394400  0.77777700  0.32677900  1
  O  O31  1  0.48605600  0.22222300  0.67322100  1
  O  O32  1  0.36662700  0.00124000  0.08111100  1
  O  O33  1  0.63337300  0.99876000  0.91888900  1
  O  O34  1  0.36662700  0.99876000  0.41888900  1
  O  O35  1  0.63337300  0.00124000  0.58111100  1
loop_
_geom_bond_atom_site_label_1
_geom_bond_atom_site_label_2
_geom_bond_distance
_geom_bond_site_symmetry_2
Na0 O24 2.367705 1_555
Na0 O25 2.367705 1_454
Na0 O8 2.597342 1_455
Na0 O9 2.597342 1_554
Na1 O26 2.367705 1_555
Na1 O27 2.367705 1_455
Na1 O11 2.597342 1_555
Na1 O10 2.597342 1_455
Na2 O18 2.267595 1_555
Na2 O26 2.275436 1_555
Na2 O12 2.366590 1_565
Na2 O16 2.592693 1_465
Na2 O14 2.673043 1_455
Na2 O10 2.843589 1_455
Na3 O19 2.267595 1_555
Na3 O27 2.275436 1_555
Na3 O13 2.366590 1_555
Na3 O17 2.592693 1_645
Na3 O15 2.673043 1_655
Na3 O11 2.843589 1_655
Na4 O18 2.267595 1_555
Na4 O24 2.275436 1_555
Na4 O12 2.366590 1_555
Na4 O14 2.592693 1_445
Na4 O16 2.673043 1_455
Na4 O8 2.843589 1_455
Na5 O19 2.267595 1_555
Na5 O25 2.275436 1_555
Na5 O13 2.366590 1_565
Na5 O15 2.592693 1_665
Na5 O17 2.673043 1_655
Na5 O9 2.843589 1_655
Na6 O32 2.229037 1_565
Na6 O33 2.287318 1_554
Na6 O20 2.355464 1_555
Na6 O4 2.970641 1_555
Na6 O16 2.997254 1_565
Na7 O33 2.229037 1_545
Na7 O32 2.287318 1_556
Na7 O21 2.355464 1_555
Na7 O5 2.970641 1_555
Na7 O17 2.997254 1_545
Na8 O34 2.229037 1_545
Na8 O35 2.287318 1_555
Na8 O22 2.355464 1_555
Na8 O6 2.970641 1_555
Na8 O14 2.997254 1_545
Na9 O35 2.229037 1_565
Na9 O34 2.287318 1_555
Na9 O23 2.355464 1_555
Na9 O7 2.970641 1_555
Na9 O15 2.997254 1_565
As0 O28 1.685410 1_555
As0 O32 1.708251 1_555
As0 O24 1.720172 1_555
As0 O12 1.878434 1_555
As1 O29 1.685410 1_555
As1 O33 1.708251 1_555
As1 O25 1.720172 1_555
As1 O13 1.878434 1_565
As2 O30 1.685410 1_555
As2 O34 1.708251 1_555
As2 O26 1.720172 1_555
As2 O12 1.878434 1_565
As3 O31 1.685410 1_555
As3 O35 1.708251 1_555
As3 O27 1.720172 1_555
As3 O13 1.878434 1_555
O0 O1 1.231947 1_554
O2 O3 1.231947 1_555
O4 O5 1.234411 1_664
O6 O7 1.234411 1_645
O10 O22 1.264420 1_555
O10 O18 1.862480 1_655
O11 O23 1.264420 1_555
O11 O19 1.862480 1_455
O14 O16 1.265097 1_565
O15 O17 1.265097 1_545
O18 O8 1.862480 1_455
O19 O9 1.862480 1_655
O20 O8 1.264420 1_555
O21 O9 1.264420 1_555
