# generated using pymatgen
data_Na2CoSiCO7
_symmetry_space_group_name_H-M   'P 1'
_cell_length_a   5.13344815
_cell_length_b   11.62042296
_cell_length_c   11.61336131
_cell_angle_alpha   114.70041180
_cell_angle_beta   88.91872286
_cell_angle_gamma   91.11915105
_symmetry_Int_Tables_number   1
_chemical_formula_structural   Na2CoSiCO7
_chemical_formula_sum   'Na8 Co4 Si4 C4 O28'
_cell_volume   629.22130510
_cell_formula_units_Z   4
loop_
 _symmetry_equiv_pos_site_id
 _symmetry_equiv_pos_as_xyz
  1  'x, y, z'
loop_
 _atom_site_type_symbol
 _atom_site_label
 _atom_site_symmetry_multiplicity
 _atom_site_fract_x
 _atom_site_fract_y
 _atom_site_fract_z
 _atom_site_occupancy
  Na  Na0  1  0.24808300  0.12154600  0.87915600  1
  Na  Na1  1  0.24806400  0.62070700  0.37793600  1
  Na  Na2  1  0.24410800  0.37183900  0.12933200  1
  Na  Na3  1  0.24584200  0.87102100  0.62788500  1
  Na  Na4  1  0.75619300  0.62933900  0.87023600  1
  Na  Na5  1  0.75295100  0.12829000  0.37211400  1
  Na  Na6  1  0.75356600  0.87930200  0.12029300  1
  Na  Na7  1  0.75076900  0.37870100  0.62199300  1
  Co  Co0  1  0.81160200  0.06964200  0.68074800  1
  Co  Co1  1  0.18711900  0.92722000  0.32262700  1
  Co  Co2  1  0.81332300  0.57470700  0.17583800  1
  Co  Co3  1  0.18747500  0.42532000  0.82404500  1
  Si  Si0  1  0.67937000  0.33789800  0.91331800  1
  Si  Si1  1  0.67796900  0.83759400  0.41179300  1
  Si  Si2  1  0.32057400  0.66255900  0.08696400  1
  Si  Si3  1  0.32283800  0.16086200  0.58913400  1
  C  C0  1  0.73807600  0.40504800  0.34510000  1
  C  C1  1  0.73428000  0.90761700  0.84221700  1
  C  C2  1  0.26179200  0.59484600  0.65449200  1
  C  C3  1  0.26420000  0.09472700  0.15590200  1
  O  O0  1  0.24916700  0.15986200  0.09073700  1
  O  O1  1  0.25667000  0.66045600  0.58943700  1
  O  O2  1  0.76476300  0.84293700  0.90694900  1
  O  O3  1  0.75054100  0.33952100  0.41003700  1
  O  O4  1  0.94682800  0.44267900  0.30879900  1
  O  O5  1  0.93494700  0.94823600  0.80177300  1
  O  O6  1  0.04966100  0.55840500  0.68912600  1
  O  O7  1  0.05640000  0.05753700  0.19380600  1
  O  O8  1  0.51618200  0.43304400  0.31630500  1
  O  O9  1  0.50633100  0.93217700  0.81747200  1
  O  O10  1  0.48057800  0.56547800  0.68515600  1
  O  O11  1  0.48651200  0.06633400  0.18355100  1
  O  O12  1  0.18580900  0.58606700  0.16481500  1
  O  O13  1  0.18388000  0.08444100  0.66580400  1
  O  O14  1  0.81502800  0.41379500  0.83509100  1
  O  O15  1  0.81491500  0.91481300  0.33523300  1
  O  O16  1  0.35705000  0.34081100  0.91067100  1
  O  O17  1  0.35553000  0.84073500  0.40791500  1
  O  O18  1  0.64303400  0.65982100  0.08966400  1
  O  O19  1  0.64528600  0.15647500  0.59403500  1
  O  O20  1  0.75565200  0.18626300  0.84831200  1
  O  O21  1  0.75494200  0.68591300  0.34529900  1
  O  O22  1  0.76059100  0.40442800  0.06433200  1
  O  O23  1  0.75608200  0.90191000  0.56319100  1
  O  O24  1  0.23915700  0.59600200  0.93586700  1
  O  O25  1  0.24578700  0.09591300  0.43730100  1
  O  O26  1  0.24268000  0.81412300  0.15334200  1
  O  O27  1  0.24780600  0.31303700  0.65485400  1
loop_
_geom_bond_atom_site_label_1
_geom_bond_atom_site_label_2
_geom_bond_distance
_geom_bond_site_symmetry_2
Na0 O0 2.306949 1_556
Na0 O13 2.359261 1_555
Na0 O5 2.421357 1_445
Na0 O9 2.423577 1_545
Na0 O16 2.472165 1_555
Na0 O20 2.723521 1_455
Na0 O20 2.756135 1_555
Na1 O1 2.302937 1_555
Na1 O12 2.362674 1_555
Na1 O4 2.418557 1_455
Na1 O8 2.436768 1_555
Na1 O17 2.484163 1_555
Na1 O21 2.734416 1_455
Na1 O21 2.759376 1_555
Na2 O0 2.312696 1_555
Na2 O12 2.371433 1_555
Na2 O4 2.417772 1_455
Na2 O8 2.440581 1_555
Na2 O16 2.470230 1_554
Na2 O22 2.687090 1_455
Na2 O22 2.804816 1_555
Na3 O1 2.298008 1_555
Na3 O13 2.357634 1_565
Na3 O5 2.418723 1_455
Na3 O9 2.430461 1_555
Na3 O17 2.483732 1_555
Na3 O23 2.710393 1_455
Na3 O23 2.769185 1_555
Na4 O2 2.335922 1_555
Na4 O14 2.387866 1_555
Na4 O6 2.419261 1_655
Na4 O10 2.431695 1_555
Na4 O18 2.480829 1_556
Na4 O24 2.689499 1_655
Na4 O24 2.811748 1_555
Na5 O3 2.305787 1_555
Na5 O15 2.361390 1_545
Na5 O7 2.428160 1_655
Na5 O11 2.437512 1_555
Na5 O19 2.510539 1_555
Na5 O25 2.731814 1_655
Na5 O25 2.760121 1_555
Na6 O2 2.332623 1_554
Na6 O15 2.379934 1_555
Na6 O7 2.425251 1_665
Na6 O11 2.426250 1_565
Na6 O18 2.479158 1_555
Na6 O26 2.716415 1_655
Na6 O26 2.779642 1_555
Na7 O3 2.308645 1_555
Na7 O14 2.362577 1_555
Na7 O6 2.425308 1_655
Na7 O10 2.433361 1_555
Na7 O19 2.513661 1_555
Na7 O27 2.742896 1_555
Na7 O27 2.755770 1_655
Co0 O20 1.869751 1_555
Co0 O23 1.874356 1_545
Co0 O19 1.917426 1_555
Co0 O13 1.926517 1_655
Co0 O5 2.468271 1_545
Co1 O26 1.872890 1_555
Co1 O25 1.875431 1_565
Co1 O17 1.907001 1_555
Co1 O15 1.920749 1_455
Co2 O21 1.870892 1_555
Co2 O22 1.875188 1_555
Co2 O18 1.907351 1_555
Co2 O12 1.919664 1_655
Co3 O27 1.873310 1_555
Co3 O24 1.878964 1_555
Co3 O16 1.904298 1_555
Co3 O14 1.919634 1_455
C0 O8 1.278650 1_555
C0 O4 1.279073 1_555
C0 O3 1.279167 1_555
C1 O9 1.275775 1_555
C1 O2 1.278982 1_555
C1 O5 1.285522 1_555
C2 O6 1.278570 1_555
C2 O1 1.278942 1_555
C2 O10 1.279191 1_555
C3 O11 1.277279 1_555
C3 O0 1.278585 1_555
C3 O7 1.281291 1_555
O12 Si2 1.646243 1_555
O13 Si3 1.643895 1_555
O14 Si0 1.646179 1_555
O15 Si1 1.645744 1_555
O16 Si0 1.656747 1_555
O17 Si1 1.658214 1_555
O18 Si2 1.657398 1_555
O19 Si3 1.659830 1_555
O20 Si0 1.652932 1_555
O21 Si1 1.654494 1_555
O22 Si0 1.652008 1_554
O23 Si1 1.651498 1_555
O24 Si2 1.653119 1_556
O25 Si3 1.654601 1_555
O26 Si2 1.654475 1_555
O27 Si3 1.656938 1_555
