# generated using pymatgen
data_Ba2Cu(C2O3)6
_symmetry_space_group_name_H-M   'P 1'
_cell_length_a   7.77206838
_cell_length_b   8.24357821
_cell_length_c   10.24519135
_cell_angle_alpha   97.39164450
_cell_angle_beta   111.94847715
_cell_angle_gamma   114.27395679
_symmetry_Int_Tables_number   1
_chemical_formula_structural   Ba2Cu(C2O3)6
_chemical_formula_sum   'Ba2 Cu1 C12 O18'
_cell_volume   523.15306819
_cell_formula_units_Z   1
loop_
 _symmetry_equiv_pos_site_id
 _symmetry_equiv_pos_as_xyz
  1  'x, y, z'
loop_
 _atom_site_type_symbol
 _atom_site_label
 _atom_site_symmetry_multiplicity
 _atom_site_fract_x
 _atom_site_fract_y
 _atom_site_fract_z
 _atom_site_occupancy
  Ba  Ba0  1  0.64702000  0.27647600  0.44685700  1
  Ba  Ba1  1  0.35298000  0.72352400  0.55314300  1
  Cu  Cu0  1  0.00000000  0.00000000  0.00000000  1
  C  C0  1  0.18389800  0.43456800  0.00166500  1
  C  C1  1  0.81610200  0.56543200  0.99833500  1
  C  C2  1  0.06577600  0.43104000  0.84665400  1
  C  C3  1  0.93422400  0.56896000  0.15334600  1
  C  C4  1  0.25070400  0.61349700  0.87481300  1
  C  C5  1  0.74929600  0.38650300  0.12518700  1
  C  C6  1  0.37195800  0.62293600  0.03292600  1
  C  C7  1  0.62804200  0.37706400  0.96707400  1
  C  C8  1  0.84737000  0.96737500  0.48669400  1
  C  C9  1  0.15263000  0.03262500  0.51330600  1
  C  C10  1  0.03465500  0.13907600  0.50268300  1
  C  C11  1  0.96534500  0.86092400  0.49731700  1
  O  O0  1  0.98925800  0.98664700  0.81299900  1
  O  O1  1  0.01074200  0.01335300  0.18700100  1
  O  O2  1  0.19932800  0.04166500  0.19365300  1
  O  O3  1  0.80067200  0.95833500  0.80634700  1
  O  O4  1  0.46495400  0.49653500  0.42907800  1
  O  O5  1  0.53504600  0.50346500  0.57092200  1
  O  O6  1  0.14969000  0.33094300  0.07572400  1
  O  O7  1  0.85031000  0.66905700  0.92427600  1
  O  O8  1  0.88764200  0.32168300  0.73847000  1
  O  O9  1  0.11235800  0.67831700  0.26153000  1
  O  O10  1  0.29154600  0.71427500  0.79929700  1
  O  O11  1  0.70845400  0.28572500  0.20070300  1
  O  O12  1  0.54726600  0.73230000  0.13899300  1
  O  O13  1  0.45273400  0.26770000  0.86100700  1
  O  O14  1  0.66861700  0.93806000  0.47129100  1
  O  O15  1  0.33138300  0.06194000  0.52870900  1
  O  O16  1  0.06480900  0.30029900  0.50488400  1
  O  O17  1  0.93519100  0.69970100  0.49511600  1
loop_
_geom_bond_atom_site_label_1
_geom_bond_atom_site_label_2
_geom_bond_distance
_geom_bond_site_symmetry_2
Ba0 O4 2.707259 1_555
Ba0 O5 2.725479 1_555
Ba0 O11 2.741063 1_555
Ba0 O8 2.743352 1_555
Ba0 O15 2.863784 1_555
Ba0 O14 2.899463 1_545
Ba0 O16 2.989676 1_655
Ba0 O2 3.001000 1_555
Ba0 O17 3.120363 1_555
Ba1 O5 2.707259 1_555
Ba1 O4 2.725479 1_555
Ba1 O10 2.741063 1_555
Ba1 O9 2.743352 1_555
Ba1 O14 2.863784 1_555
Ba1 O15 2.899463 1_565
Ba1 O17 2.989676 1_455
Ba1 O3 3.001000 1_555
Ba1 O16 3.120363 1_555
Cu0 O0 1.873025 1_444
Cu0 O1 1.873025 1_555
Cu0 O3 1.882491 1_444
Cu0 O2 1.882491 1_555
Cu0 O6 2.359935 1_555
Cu0 O7 2.359935 1_444
C0 O6 1.227579 1_555
C1 O7 1.227579 1_555
C2 O8 1.235938 1_455
C3 O9 1.235938 1_655
C4 O10 1.233556 1_555
C5 O11 1.233556 1_555
C6 O12 1.217055 1_555
C7 O13 1.217055 1_555
C8 O14 1.250464 1_555
C9 O15 1.250464 1_555
C10 O16 1.246620 1_555
C11 O17 1.246620 1_555
O0 O3 1.359182 1_555
O1 O2 1.359182 1_555
O4 O5 1.331587 1_555
