# generated using pymatgen
data_LaMg3
_symmetry_space_group_name_H-M   'P 1'
_cell_length_a   5.25970134
_cell_length_b   5.25970134
_cell_length_c   5.25970134
_cell_angle_alpha   118.53224179
_cell_angle_beta   118.53224179
_cell_angle_gamma   92.56160595
_symmetry_Int_Tables_number   1
_chemical_formula_structural   LaMg3
_chemical_formula_sum   'La1 Mg3'
_cell_volume   105.05785412
_cell_formula_units_Z   1
loop_
 _symmetry_equiv_pos_site_id
 _symmetry_equiv_pos_as_xyz
  1  'x, y, z'
loop_
 _atom_site_type_symbol
 _atom_site_label
 _atom_site_symmetry_multiplicity
 _atom_site_fract_x
 _atom_site_fract_y
 _atom_site_fract_z
 _atom_site_occupancy
  La  La0  1  0.00000000  0.00000000  0.00000000  1
  Mg  Mg0  1  0.50000000  0.50000000  0.00000000  1
  Mg  Mg1  1  0.25000000  0.75000000  0.50000000  1
  Mg  Mg2  1  0.75000000  0.25000000  0.50000000  1
loop_
_geom_bond_atom_site_label_1
_geom_bond_atom_site_label_2
_geom_bond_distance
_geom_bond_site_symmetry_2
La0 Mg1 3.244800 1_545
La0 Mg2 3.244800 1_444
La0 Mg2 3.244800 1_555
La0 Mg1 3.244800 1_544
La0 Mg1 3.244800 1_444
La0 Mg1 3.244800 1_555
La0 Mg2 3.244800 1_455
La0 Mg2 3.244800 1_454
La0 Mg0 3.635109 1_445
La0 Mg0 3.635109 1_555
La0 Mg0 3.801374 1_455
La0 Mg0 3.801374 1_545
La0 Mg0 3.801374 1_444
La0 Mg0 3.801374 1_556
Mg0 Mg1 3.244800 1_655
Mg0 Mg1 3.244800 1_554
Mg0 Mg2 3.244800 1_555
Mg0 Mg2 3.244800 1_565
Mg0 Mg1 3.244800 1_544
Mg0 Mg2 3.244800 1_554
Mg0 Mg1 3.244800 1_555
Mg0 Mg2 3.244800 1_454
