# generated using pymatgen
data_LiHo2In
_symmetry_space_group_name_H-M   'P 1'
_cell_length_a   5.22966416
_cell_length_b   5.22966416
_cell_length_c   5.22966416
_cell_angle_alpha   60.00000000
_cell_angle_beta   60.00000000
_cell_angle_gamma   60.00000000
_symmetry_Int_Tables_number   1
_chemical_formula_structural   LiHo2In
_chemical_formula_sum   'Li1 Ho2 In1'
_cell_volume   101.13614653
_cell_formula_units_Z   1
loop_
 _symmetry_equiv_pos_site_id
 _symmetry_equiv_pos_as_xyz
  1  'x, y, z'
loop_
 _atom_site_type_symbol
 _atom_site_label
 _atom_site_symmetry_multiplicity
 _atom_site_fract_x
 _atom_site_fract_y
 _atom_site_fract_z
 _atom_site_occupancy
  Li  Li0  1  0.00000000  -0.00000000  -0.00000000  1
  Ho  Ho0  1  0.25000000  0.25000000  0.25000000  1
  Ho  Ho1  1  0.75000000  0.75000000  0.75000000  1
  In  In0  1  0.50000000  0.50000000  0.50000000  1
loop_
_geom_bond_atom_site_label_1
_geom_bond_atom_site_label_2
_geom_bond_distance
_geom_bond_site_symmetry_2
Ho0 In0 3.202502 1_554
Ho0 Li0 3.202502 1_555
Ho0 Li0 3.202502 1_565
Ho0 In0 3.202502 1_455
Ho0 Li0 3.202502 1_655
Ho0 In0 3.202502 1_555
Ho0 In0 3.202502 1_545
Ho0 Li0 3.202502 1_556
Ho1 Li0 3.202502 1_566
Ho1 Li0 3.202502 1_666
Ho1 Li0 3.202502 1_656
Ho1 Li0 3.202502 1_665
Ho1 In0 3.202502 1_555
Ho1 In0 3.202502 1_556
Ho1 In0 3.202502 1_565
Ho1 In0 3.202502 1_655
