# generated using pymatgen
data_Li2MnCoO4
_symmetry_space_group_name_H-M   'P 1'
_cell_length_a   2.99382251
_cell_length_b   3.06291798
_cell_length_c   19.75064113
_cell_angle_alpha   96.84388841
_cell_angle_beta   82.05068835
_cell_angle_gamma   123.04815921
_symmetry_Int_Tables_number   1
_chemical_formula_structural   Li2MnCoO4
_chemical_formula_sum   'Li4 Mn2 Co2 O8'
_cell_volume   150.14107969
_cell_formula_units_Z   2
loop_
 _symmetry_equiv_pos_site_id
 _symmetry_equiv_pos_as_xyz
  1  'x, y, z'
loop_
 _atom_site_type_symbol
 _atom_site_label
 _atom_site_symmetry_multiplicity
 _atom_site_fract_x
 _atom_site_fract_y
 _atom_site_fract_z
 _atom_site_occupancy
  Li  Li0  1  0.12459500  0.87304400  0.62464600  1
  Li  Li1  1  0.63251100  0.37885300  0.12547800  1
  Li  Li2  1  0.87331200  0.13123800  0.37248000  1
  Li  Li3  1  0.37236100  0.61545700  0.87768200  1
  Mn  Mn0  1  0.74929800  0.24472600  0.75123800  1
  Mn  Mn1  1  0.49852600  0.49984600  0.49826900  1
  Co  Co0  1  0.00054700  0.00031100  0.00160800  1
  Co  Co1  1  0.25144300  0.75497800  0.24894300  1
  O  O0  1  0.82785300  0.15227300  0.55676900  1
  O  O1  1  0.42060600  0.59283700  0.69264600  1
  O  O2  1  0.07781200  0.89597600  0.80966300  1
  O  O3  1  0.16948400  0.84914600  0.43980900  1
  O  O4  1  0.32970700  0.70680100  0.05810400  1
  O  O5  1  0.92204600  0.05085100  0.19224900  1
  O  O6  1  0.58060700  0.46077300  0.30558400  1
  O  O7  1  0.66929200  0.29289100  0.94483300  1
loop_
_geom_bond_atom_site_label_1
_geom_bond_atom_site_label_2
_geom_bond_distance
_geom_bond_site_symmetry_2
Li0 O0 2.118990 1_565
Li0 O1 2.121624 1_455
Li0 O0 2.179298 1_465
Li0 O1 2.181559 1_555
Li0 O1 2.223113 1_565
Li0 O0 2.223777 1_455
Li1 O4 2.097613 1_655
Li1 O5 2.109583 1_565
Li1 O4 2.115481 1_545
Li1 O5 2.117039 1_455
Li1 O5 2.254239 1_555
Li1 O4 2.290612 1_555
Li2 O6 2.107511 1_545
Li2 O6 2.112152 1_655
Li2 O3 2.113760 1_545
Li2 O3 2.176387 1_645
Li2 O3 2.211874 1_655
Li2 O6 2.266082 1_555
Li3 O7 2.106550 1_455
Li3 O7 2.124385 1_565
Li3 O2 2.124770 1_655
Li3 O2 2.179399 1_555
Li3 O2 2.222905 1_545
Li3 O7 2.263122 1_555
Mn0 O2 1.955489 1_545
Mn0 O1 1.956729 1_655
Mn0 O2 1.975692 1_655
Mn0 O1 1.978773 1_545
Mn0 O2 2.278908 1_645
Mn0 O1 2.279869 1_555
Mn1 O0 1.954471 1_455
Mn1 O3 1.954915 1_655
Mn1 O3 1.974981 1_545
Mn1 O0 1.978960 1_565
Mn1 O0 2.278919 1_555
Mn1 O3 2.281823 1_555
Co0 O7 1.931463 1_554
Co0 O4 1.933084 1_445
Co0 O4 2.074031 1_555
Co0 O7 2.078612 1_444
Co0 O4 2.129285 1_545
Co0 O7 2.135510 1_454
Co1 O5 1.934279 1_565
Co1 O6 1.934409 1_455
Co1 O5 2.070697 1_455
Co1 O6 2.073874 1_565
Co1 O6 2.132692 1_555
Co1 O5 2.137661 1_465
