# generated using pymatgen
data_MgTi(BiO3)2
_symmetry_space_group_name_H-M   'P 1'
_cell_length_a   5.72743882
_cell_length_b   5.72743882
_cell_length_c   5.72743911
_cell_angle_alpha   58.88222053
_cell_angle_beta   58.88222053
_cell_angle_gamma   58.88222662
_symmetry_Int_Tables_number   1
_chemical_formula_structural   MgTi(BiO3)2
_chemical_formula_sum   'Mg1 Ti1 Bi2 O6'
_cell_volume   129.46184373
_cell_formula_units_Z   1
loop_
 _symmetry_equiv_pos_site_id
 _symmetry_equiv_pos_as_xyz
  1  'x, y, z'
loop_
 _atom_site_type_symbol
 _atom_site_label
 _atom_site_symmetry_multiplicity
 _atom_site_fract_x
 _atom_site_fract_y
 _atom_site_fract_z
 _atom_site_occupancy
  Mg  Mg0  1  0.78619500  0.78619500  0.78619500  1
  Ti  Ti0  1  0.28499400  0.28499400  0.28499400  1
  Bi  Bi0  1  0.50333000  0.50333000  0.50333000  1
  Bi  Bi1  1  0.01050600  0.01050600  0.01050600  1
  O  O0  1  0.12142600  0.98728500  0.55907100  1
  O  O1  1  0.55907100  0.12142600  0.98728500  1
  O  O2  1  0.98728500  0.55907100  0.12142600  1
  O  O3  1  0.08223900  0.45481300  0.62334200  1
  O  O4  1  0.62334200  0.08223900  0.45481300  1
  O  O5  1  0.45481300  0.62334200  0.08223900  1
loop_
_geom_bond_atom_site_label_1
_geom_bond_atom_site_label_2
_geom_bond_distance
_geom_bond_site_symmetry_2
Mg0 O5 2.053314 1_556
Mg0 O4 2.053314 1_565
Mg0 O3 2.053314 1_655
Mg0 O0 2.204691 1_655
Mg0 O1 2.204691 1_565
Mg0 O2 2.204691 1_556
Bi0 O3 2.268953 1_555
Bi0 O4 2.268953 1_555
Bi0 O5 2.268953 1_555
Bi0 O2 2.548650 1_555
Bi0 O1 2.548650 1_555
Bi0 O0 2.548650 1_555
Bi1 O2 2.382596 1_445
Bi1 O1 2.382596 1_454
Bi1 O0 2.382596 1_544
Bi1 O3 2.422428 1_554
Bi1 O4 2.422428 1_455
Bi1 O5 2.422428 1_545
O0 Ti0 1.900975 1_565
O1 Ti0 1.900975 1_556
O2 Ti0 1.900975 1_655
O3 Ti0 2.122406 1_555
O4 Ti0 2.122406 1_555
O5 Ti0 2.122406 1_555
