# generated using pymatgen
data_Er2AlSi
_symmetry_space_group_name_H-M   'P 1'
_cell_length_a   3.96508400
_cell_length_b   5.77893900
_cell_length_c   7.92956400
_cell_angle_alpha   90.00000000
_cell_angle_beta   90.00000000
_cell_angle_gamma   90.00000000
_symmetry_Int_Tables_number   1
_chemical_formula_structural   Er2AlSi
_chemical_formula_sum   'Er4 Al2 Si2'
_cell_volume   181.69785953
_cell_formula_units_Z   2
loop_
 _symmetry_equiv_pos_site_id
 _symmetry_equiv_pos_as_xyz
  1  'x, y, z'
loop_
 _atom_site_type_symbol
 _atom_site_label
 _atom_site_symmetry_multiplicity
 _atom_site_fract_x
 _atom_site_fract_y
 _atom_site_fract_z
 _atom_site_occupancy
  Er  Er0  1  0.25000000  0.37977800  0.67906100  1
  Er  Er1  1  0.25000000  0.12022200  0.17906100  1
  Er  Er2  1  0.75000000  0.60836100  0.32231300  1
  Er  Er3  1  0.75000000  0.89163900  0.82231300  1
  Al  Al0  1  0.25000000  0.87260600  0.53670600  1
  Al  Al1  1  0.25000000  0.62739400  0.03670600  1
  Si  Si0  1  0.75000000  0.12671400  0.46191900  1
  Si  Si1  1  0.75000000  0.37328600  0.96191900  1
loop_
_geom_bond_atom_site_label_1
_geom_bond_atom_site_label_2
_geom_bond_distance
_geom_bond_site_symmetry_2
Er0 Si1 2.993771 1_455
Er0 Si1 2.993771 1_555
Er0 Si0 3.005652 1_555
Er0 Si0 3.005652 1_455
Er1 Si0 2.993771 1_455
Er1 Si0 2.993771 1_555
Er1 Si1 3.005652 1_554
Er1 Si1 3.005652 1_454
Er2 Si0 2.995471 1_555
Er2 Si1 3.164224 1_554
Er2 Si0 3.193538 1_565
Er3 Si1 2.995471 1_565
Er3 Si0 3.164224 1_565
Er3 Si1 3.193538 1_555
Al0 Si0 2.537434 1_565
Al0 Si0 2.537434 1_465
Al0 Er3 3.011912 1_555
Al0 Er3 3.011912 1_455
Al0 Er2 3.025313 1_455
Al0 Er2 3.025313 1_555
Al0 Er0 3.063569 1_555
Al0 Er0 3.140778 1_565
Al0 Er1 3.176533 1_565
Al1 Si1 2.537434 1_454
Al1 Si1 2.537434 1_554
Al1 Er2 3.011912 1_555
Al1 Er2 3.011912 1_455
Al1 Er3 3.025313 1_554
Al1 Er3 3.025313 1_454
Al1 Er1 3.063569 1_565
Al1 Er1 3.140778 1_555
Al1 Er0 3.176533 1_554
