# generated using pymatgen
data_BaSr2(SnO3)3
_symmetry_space_group_name_H-M   'P 1'
_cell_length_a   5.84010082
_cell_length_b   5.84010082
_cell_length_c   14.28502372
_cell_angle_alpha   89.80154170
_cell_angle_beta   89.80154170
_cell_angle_gamma   60.39683968
_symmetry_Int_Tables_number   1
_chemical_formula_structural   BaSr2(SnO3)3
_chemical_formula_sum   'Ba2 Sr4 Sn6 O18'
_cell_volume   423.61527572
_cell_formula_units_Z   2
loop_
 _symmetry_equiv_pos_site_id
 _symmetry_equiv_pos_as_xyz
  1  'x, y, z'
loop_
 _atom_site_type_symbol
 _atom_site_label
 _atom_site_symmetry_multiplicity
 _atom_site_fract_x
 _atom_site_fract_y
 _atom_site_fract_z
 _atom_site_occupancy
  Ba  Ba0  1  0.66563200  0.66819900  0.66703900  1
  Ba  Ba1  1  0.33180100  0.33436800  0.33296100  1
  Sr  Sr0  1  0.99330500  0.00669500  0.00000000  1
  Sr  Sr1  1  0.00975000  0.99025000  0.50000000  1
  Sr  Sr2  1  0.67729100  0.65556700  0.16475500  1
  Sr  Sr3  1  0.34443300  0.32270900  0.83524500  1
  Sn  Sn0  1  0.33366100  0.33314200  0.58425400  1
  Sn  Sn1  1  0.00164300  0.99919300  0.24744000  1
  Sn  Sn2  1  0.66700800  0.66578400  0.91831900  1
  Sn  Sn3  1  0.00080700  0.99835700  0.75256000  1
  Sn  Sn4  1  0.66685800  0.66633900  0.41574600  1
  Sn  Sn5  1  0.33421600  0.33299200  0.08168100  1
  O  O0  1  0.46812000  0.98494200  0.50806600  1
  O  O1  1  0.13074200  0.64868200  0.17333500  1
  O  O2  1  0.80168600  0.30796000  0.84773400  1
  O  O3  1  0.01505800  0.53188000  0.49193400  1
  O  O4  1  0.69204000  0.19831400  0.15226600  1
  O  O5  1  0.35131800  0.86925800  0.82666500  1
  O  O6  1  0.63825400  0.16149600  0.68239800  1
  O  O7  1  0.30445500  0.82735500  0.34613500  1
  O  O8  1  0.97277700  0.46416500  0.01362500  1
  O  O9  1  0.17264500  0.69554500  0.65386500  1
  O  O10  1  0.83850400  0.36174600  0.31760200  1
  O  O11  1  0.53583500  0.02722300  0.98637500  1
  O  O12  1  0.56892800  0.43107200  0.50000000  1
  O  O13  1  0.24280500  0.08951500  0.16366000  1
  O  O14  1  0.91048500  0.75719500  0.83634000  1
  O  O15  1  0.11937200  0.21319400  0.66827700  1
  O  O16  1  0.78680600  0.88062800  0.33172300  1
  O  O17  1  0.42376400  0.57623600  0.00000000  1
loop_
_geom_bond_atom_site_label_1
_geom_bond_atom_site_label_2
_geom_bond_distance
_geom_bond_site_symmetry_2
Ba0 O15 2.669548 1_655
Ba0 O0 2.791135 1_555
Ba0 O5 2.794267 1_555
Ba0 O9 2.810582 1_555
Ba0 O6 2.814668 1_565
Ba0 O12 2.955575 1_555
Ba0 O14 2.988458 1_555
Ba0 O9 3.048215 1_655
Ba0 O6 3.048486 1_555
Ba0 O3 3.070574 1_655
Ba0 O2 3.169425 1_555
Ba0 O15 3.205669 1_565
Ba1 O16 2.669548 1_545
Ba1 O3 2.791135 1_555
Ba1 O1 2.794267 1_555
Ba1 O7 2.810582 1_555
Ba1 O10 2.814668 1_455
Ba1 O12 2.955575 1_555
Ba1 O13 2.988458 1_555
Ba1 O7 3.048215 1_545
Ba1 O10 3.048486 1_555
Ba1 O0 3.070574 1_545
Ba1 O4 3.169425 1_555
Ba1 O16 3.205669 1_455
O0 Sn0 2.090003 1_565
O0 Sn4 2.102664 1_555
O0 Sr1 2.664639 1_555
O0 Sr1 3.180288 1_655
O1 Sn1 2.089026 1_555
O1 Sn5 2.089693 1_555
O1 Sr2 2.631846 1_455
O2 Sn2 2.094637 1_555
O2 Sn3 2.097310 1_645
O2 Sr3 2.635573 1_555
O2 Sr0 2.669108 1_556
O3 Sn4 2.090003 1_455
O3 Sn0 2.102664 1_555
O3 Sr1 2.664639 1_555
O3 Sr1 3.180288 1_545
O4 Sn5 2.094637 1_555
O4 Sn1 2.097310 1_645
O4 Sr2 2.635573 1_555
O4 Sr0 2.669108 1_555
O5 Sn3 2.089026 1_555
O5 Sn2 2.089693 1_555
O5 Sr3 2.631846 1_565
O6 Sn0 2.092979 1_555
O6 Sn3 2.100109 1_645
O6 Sr3 2.643930 1_555
O6 Sr1 3.214246 1_645
O7 Sn1 2.091965 1_555
O7 Sn4 2.096265 1_555
O7 Sr1 2.658742 1_555
O7 Sr2 3.206503 1_555
O8 Sn2 2.087381 1_554
O8 Sn5 2.097402 1_655
O8 Sr0 2.622418 1_555
O8 Sr2 2.640717 1_555
O9 Sn3 2.091965 1_555
O9 Sn0 2.096265 1_555
O9 Sr1 2.658742 1_555
O9 Sr3 3.206503 1_555
O10 Sn4 2.092979 1_555
O10 Sn1 2.100109 1_645
O10 Sr2 2.643930 1_555
O10 Sr1 3.214246 1_645
O11 Sn5 2.087381 1_556
O11 Sn2 2.097402 1_545
O11 Sr0 2.622418 1_556
O11 Sr3 2.640717 1_555
O12 Sn0 2.103246 1_555
O12 Sn4 2.103246 1_555
O12 Sr1 2.589872 1_645
O13 Sn1 2.100508 1_545
O13 Sn5 2.100570 1_555
O13 Sr2 2.551116 1_545
O13 Sr0 2.924131 1_455
O14 Sn3 2.100508 1_655
O14 Sn2 2.100570 1_555
O14 Sr3 2.551116 1_655
O14 Sr0 2.924131 1_566
O15 Sn3 2.084545 1_545
O15 Sn0 2.085050 1_555
O16 Sn1 2.084545 1_655
O16 Sn4 2.085050 1_555
O17 Sn2 2.090753 1_554
O17 Sn5 2.090753 1_555
O17 Sr0 2.528988 1_465
O17 Sr2 2.942009 1_555
O17 Sr3 2.942009 1_554
