# generated using pymatgen
data_ZrNb2VC4
_symmetry_space_group_name_H-M   'P 1'
_cell_length_a   10.47576035
_cell_length_b   10.47576035
_cell_length_c   10.47575991
_cell_angle_alpha   17.41568615
_cell_angle_beta   17.41568615
_cell_angle_gamma   17.41569069
_symmetry_Int_Tables_number   1
_chemical_formula_structural   ZrNb2VC4
_chemical_formula_sum   'Zr1 Nb2 V1 C4'
_cell_volume   89.87463297
_cell_formula_units_Z   1
loop_
 _symmetry_equiv_pos_site_id
 _symmetry_equiv_pos_as_xyz
  1  'x, y, z'
loop_
 _atom_site_type_symbol
 _atom_site_label
 _atom_site_symmetry_multiplicity
 _atom_site_fract_x
 _atom_site_fract_y
 _atom_site_fract_z
 _atom_site_occupancy
  Zr  Zr0  1  0.12197900  0.12197900  0.12197900  1
  Nb  Nb0  1  0.87680600  0.87680600  0.87680600  1
  Nb  Nb1  1  0.62804500  0.62804500  0.62804500  1
  V  V0  1  0.37287600  0.37287600  0.37287600  1
  C  C0  1  0.50154900  0.50154900  0.50154900  1
  C  C1  1  0.25224300  0.25224300  0.25224300  1
  C  C2  1  0.00325200  0.00325200  0.00325200  1
  C  C3  1  0.74324900  0.74324900  0.74324900  1
loop_
_geom_bond_atom_site_label_1
_geom_bond_atom_site_label_2
_geom_bond_distance
_geom_bond_site_symmetry_2
C0 Nb0 2.244258 1_554
C0 Nb0 2.244258 1_545
C0 Nb0 2.244258 1_455
C0 Zr0 2.323955 1_556
C0 Zr0 2.323955 1_655
C0 Zr0 2.323955 1_565
C1 Nb0 2.247482 1_445
C1 Nb0 2.247483 1_544
C1 Nb0 2.247483 1_454
C1 Nb1 2.254048 1_554
C1 Nb1 2.254048 1_545
C1 Nb1 2.254048 1_455
C2 V0 2.148219 1_554
C2 V0 2.148219 1_455
C2 V0 2.148219 1_545
C2 Nb1 2.243364 1_445
C2 Nb1 2.243364 1_454
C2 Nb1 2.243364 1_544
C3 V0 2.160424 1_556
C3 V0 2.160424 1_655
C3 V0 2.160424 1_565
C3 Zr0 2.308044 1_665
C3 Zr0 2.308044 1_566
C3 Zr0 2.308044 1_656
