# generated using pymatgen
data_Lu6Pb5
_symmetry_space_group_name_H-M   'P 1'
_cell_length_a   6.46891426
_cell_length_b   9.19640748
_cell_length_c   11.48330356
_cell_angle_alpha   113.60812520
_cell_angle_beta   106.36652548
_cell_angle_gamma   89.99509821
_symmetry_Int_Tables_number   1
_chemical_formula_structural   Lu6Pb5
_chemical_formula_sum   'Lu12 Pb10'
_cell_volume   595.64909786
_cell_formula_units_Z   2
loop_
 _symmetry_equiv_pos_site_id
 _symmetry_equiv_pos_as_xyz
  1  'x, y, z'
loop_
 _atom_site_type_symbol
 _atom_site_label
 _atom_site_symmetry_multiplicity
 _atom_site_fract_x
 _atom_site_fract_y
 _atom_site_fract_z
 _atom_site_occupancy
  Lu  Lu0  1  0.55410628  0.30450022  0.60835025  1
  Lu  Lu1  1  0.44587568  0.69548523  0.39162564  1
  Lu  Lu2  1  0.94600298  0.69635328  0.39186852  1
  Lu  Lu3  1  0.05402133  0.30368428  0.60820604  1
  Lu  Lu4  1  0.44169023  0.67301115  0.88355816  1
  Lu  Lu5  1  0.55832689  0.32698679  0.11642258  1
  Lu  Lu6  1  0.94166476  0.21052684  0.88362524  1
  Lu  Lu7  1  0.05833256  0.78945012  0.11635889  1
  Lu  Lu8  1  0.14083362  0.25324388  0.28236774  1
  Lu  Lu9  1  0.85915982  0.74674172  0.71762516  1
  Lu  Lu10  1  0.64110784  0.02924441  0.28239576  1
  Lu  Lu11  1  0.35890564  0.97075532  0.71760130  1
  Pb  Pb0  1  0.29440733  0.59909868  0.58932269  1
  Pb  Pb1  1  0.70559819  0.40090576  0.41069363  1
  Pb  Pb2  1  0.79414574  0.99028674  0.58942076  1
  Pb  Pb3  1  0.20581750  0.00972948  0.41057057  1
  Pb  Pb4  1  0.25001519  -0.00000059  0.00000166  1
  Pb  Pb5  1  0.75001406  0.00000902  0.00001315  1
  Pb  Pb6  1  0.07673844  0.47697614  0.15418167  1
  Pb  Pb7  1  0.92317047  0.52303592  0.84580654  1
  Pb  Pb8  1  0.57729175  0.67731127  0.15421023  1
  Pb  Pb9  1  0.42277369  0.32266534  0.84577379  1
loop_
_geom_bond_atom_site_label_1
_geom_bond_atom_site_label_2
_geom_bond_distance
_geom_bond_site_symmetry_2
Lu0 Pb7 3.019430 1_555
Lu0 Pb9 3.020519 1_555
Lu0 Pb1 3.124686 1_555
Lu0 Pb3 3.125542 1_555
Lu0 Lu3 3.234381 1_655
Lu0 Lu3 3.234548 1_555
Lu0 Pb0 3.236751 1_555
Lu0 Pb2 3.239562 1_545
Lu1 Pb6 3.019550 1_555
Lu1 Pb8 3.020694 1_555
Lu1 Pb0 3.124938 1_555
Lu1 Pb2 3.125673 1_555
Lu1 Lu2 3.234427 1_455
Lu1 Lu2 3.234504 1_555
Lu1 Pb1 3.236796 1_555
Lu1 Pb3 3.239840 1_565
Lu2 Pb8 3.019358 1_555
Lu2 Pb6 3.020813 1_655
Lu2 Pb2 3.124434 1_555
Lu2 Pb0 3.124861 1_655
Lu2 Pb3 3.236999 1_665
Lu2 Pb1 3.241647 1_555
Lu3 Pb9 3.018986 1_555
Lu3 Pb7 3.020432 1_455
Lu3 Pb3 3.124789 1_555
Lu3 Pb1 3.125174 1_455
Lu3 Pb2 3.236949 1_445
Lu3 Pb0 3.241682 1_555
Lu4 Pb8 2.965754 1_556
Lu4 Pb0 3.021988 1_555
Lu4 Pb9 3.071557 1_555
Lu4 Pb4 3.175100 1_566
Lu4 Pb5 3.175933 1_566
Lu4 Pb7 3.470400 1_455
Lu4 Pb7 3.474564 1_555
Lu5 Pb9 2.965638 1_554
Lu5 Pb1 3.022358 1_555
Lu5 Pb8 3.071351 1_555
Lu5 Pb5 3.175006 1_555
Lu5 Pb4 3.175871 1_555
Lu5 Pb6 3.469767 1_655
Lu5 Pb6 3.475280 1_555
Lu6 Pb6 2.965347 1_656
Lu6 Pb2 3.021504 1_545
Lu6 Pb7 3.071305 1_555
Lu6 Pb5 3.174609 1_556
Lu6 Pb4 3.175316 1_656
Lu6 Pb9 3.472150 1_555
Lu6 Pb9 3.472825 1_655
Lu7 Pb7 2.965185 1_454
Lu7 Pb3 3.021647 1_565
Lu7 Pb6 3.071009 1_555
Lu7 Pb4 3.174667 1_565
Lu7 Pb5 3.175264 1_465
Lu7 Pb8 3.472415 1_455
Lu7 Pb8 3.472562 1_555
Lu8 Pb6 2.941749 1_555
Lu8 Pb3 3.106604 1_555
Lu8 Pb5 3.414890 1_455
Lu8 Pb4 3.417372 1_555
Lu8 Pb0 3.546161 1_555
Lu8 Pb1 3.560526 1_455
Lu8 Pb1 3.567493 1_555
Lu9 Pb7 2.941490 1_555
Lu9 Pb2 3.106874 1_555
Lu9 Pb4 3.415180 1_666
Lu9 Pb5 3.417510 1_566
Lu9 Pb1 3.545926 1_555
Lu9 Pb0 3.560429 1_655
Lu9 Pb0 3.567393 1_555
Lu10 Pb8 2.941793 1_545
Lu10 Pb1 3.106048 1_555
Lu10 Pb4 3.415674 1_555
Lu10 Pb5 3.416539 1_555
Lu10 Pb2 3.547302 1_545
Lu10 Pb3 3.560202 1_555
Lu10 Pb3 3.567174 1_655
Lu11 Pb9 2.941599 1_565
Lu11 Pb0 3.106010 1_555
Lu11 Pb5 3.415843 1_566
Lu11 Pb4 3.416666 1_566
Lu11 Pb3 3.547440 1_565
Lu11 Pb2 3.559983 1_555
Lu11 Pb2 3.567512 1_455
Pb4 Pb5 3.234413 1_555
Pb4 Pb5 3.234502 1_455
