# generated using pymatgen
data_Dy4C5
_symmetry_space_group_name_H-M   'P 1'
_cell_length_a   3.65183590
_cell_length_b   6.56592551
_cell_length_c   11.93767043
_cell_angle_alpha   90.00000000
_cell_angle_beta   90.00000000
_cell_angle_gamma   90.00000000
_symmetry_Int_Tables_number   1
_chemical_formula_structural   Dy4C5
_chemical_formula_sum   'Dy8 C10'
_cell_volume   286.23767129
_cell_formula_units_Z   2
loop_
 _symmetry_equiv_pos_site_id
 _symmetry_equiv_pos_as_xyz
  1  'x, y, z'
loop_
 _atom_site_type_symbol
 _atom_site_label
 _atom_site_symmetry_multiplicity
 _atom_site_fract_x
 _atom_site_fract_y
 _atom_site_fract_z
 _atom_site_occupancy
  Dy  Dy0  1  0.50000000  0.39231662  0.30426387  1
  Dy  Dy1  1  0.50000000  0.60768238  0.69573613  1
  Dy  Dy2  1  0.50000000  0.10768338  0.80426387  1
  Dy  Dy3  1  0.50000000  0.89231762  0.19573613  1
  Dy  Dy4  1  0.00000000  0.24364628  0.04239053  1
  Dy  Dy5  1  -0.00000000  0.75635372  0.95760947  1
  Dy  Dy6  1  0.00000000  0.25635372  0.54239053  1
  Dy  Dy7  1  -0.00000000  0.74364628  0.45760947  1
  C  C0  1  0.50000000  -0.00000000  -0.00000000  1
  C  C1  1  0.50000000  0.50000000  0.50000000  1
  C  C2  1  0.00000000  0.13783162  0.23481430  1
  C  C3  1  -0.00000000  0.86216838  0.76518570  1
  C  C4  1  -0.00000000  0.36216938  0.73481430  1
  C  C5  1  0.00000000  0.63783162  0.26518570  1
  C  C6  1  -0.00000000  0.09767764  0.34380283  1
  C  C7  1  0.00000000  0.90232236  0.65619717  1
  C  C8  1  0.00000000  0.40232236  0.84380283  1
  C  C9  1  0.00000000  0.59767764  0.15619717  1
loop_
_geom_bond_atom_site_label_1
_geom_bond_atom_site_label_2
_geom_bond_distance
_geom_bond_site_symmetry_2
C0 Dy3 2.441261 1_545
C0 Dy2 2.441263 1_554
C0 Dy5 2.479778 1_644
C0 Dy5 2.479778 1_544
C0 Dy4 2.479778 1_555
C0 Dy4 2.479778 1_655
C1 Dy1 2.441261 1_555
C1 Dy0 2.441263 1_555
C1 Dy6 2.479778 1_655
C1 Dy7 2.479778 1_555
C1 Dy7 2.479778 1_655
C1 Dy6 2.479778 1_555
C2 C6 1.327513 1_555
C2 Dy4 2.399862 1_555
C2 Dy3 2.479966 1_445
C2 Dy3 2.479966 1_545
C2 Dy0 2.610236 1_555
C2 Dy0 2.610236 1_455
C3 C7 1.327513 1_555
C3 Dy5 2.399862 1_555
C3 Dy2 2.479970 1_465
C3 Dy2 2.479970 1_565
C3 Dy1 2.610240 1_555
C3 Dy1 2.610240 1_455
C4 C8 1.327512 1_555
C4 Dy6 2.399864 1_555
C4 Dy1 2.479962 1_455
C4 Dy1 2.479962 1_555
C4 Dy2 2.610240 1_455
C4 Dy2 2.610240 1_555
C5 C9 1.327513 1_555
C5 Dy7 2.399862 1_555
C5 Dy0 2.479970 1_555
C5 Dy0 2.479970 1_455
C5 Dy3 2.610240 1_455
C5 Dy3 2.610240 1_555
C6 Dy6 2.589510 1_555
C6 Dy7 2.692445 1_545
C6 Dy0 2.701732 1_455
C6 Dy0 2.701732 1_555
C6 Dy3 2.876875 1_445
C6 Dy3 2.876875 1_545
C7 Dy7 2.589510 1_555
C7 Dy6 2.692445 1_565
C7 Dy1 2.701736 1_555
C7 Dy1 2.701736 1_455
C7 Dy2 2.876878 1_565
C7 Dy2 2.876878 1_465
C8 Dy4 2.589510 1_556
C8 Dy5 2.692445 1_555
C8 Dy2 2.701732 1_555
C8 Dy2 2.701732 1_455
C8 Dy1 2.876875 1_455
C8 Dy1 2.876875 1_555
C9 Dy5 2.589510 1_554
C9 Dy4 2.692445 1_555
C9 Dy3 2.701736 1_555
C9 Dy3 2.701736 1_455
C9 Dy0 2.876878 1_455
C9 Dy0 2.876878 1_555
