# generated using pymatgen
data_Eu8Mn3Nb5O28
_symmetry_space_group_name_H-M   'P 1'
_cell_length_a   7.68759407
_cell_length_b   7.68759407
_cell_length_c   11.98158101
_cell_angle_alpha   80.42818618
_cell_angle_beta   80.42818618
_cell_angle_gamma   60.51774235
_symmetry_Int_Tables_number   1
_chemical_formula_structural   Eu8Mn3Nb5O28
_chemical_formula_sum   'Eu8 Mn3 Nb5 O28'
_cell_volume   604.87727663
_cell_formula_units_Z   1
loop_
 _symmetry_equiv_pos_site_id
 _symmetry_equiv_pos_as_xyz
  1  'x, y, z'
loop_
 _atom_site_type_symbol
 _atom_site_label
 _atom_site_symmetry_multiplicity
 _atom_site_fract_x
 _atom_site_fract_y
 _atom_site_fract_z
 _atom_site_occupancy
  Eu  Eu0  1  0.74602900  0.50737700  0.74510300  1
  Eu  Eu1  1  0.49262300  0.25397100  0.25489700  1
  Eu  Eu2  1  0.24937400  0.50251800  0.75121500  1
  Eu  Eu3  1  0.49748200  0.75062600  0.24878500  1
  Eu  Eu4  1  0.01162100  0.75173000  0.22845600  1
  Eu  Eu5  1  0.24827000  0.98837900  0.77154400  1
  Eu  Eu6  1  0.99168100  0.23818200  0.28397800  1
  Eu  Eu7  1  0.76181800  0.00831900  0.71602200  1
  Mn  Mn0  1  0.54793500  0.45206500  0.50000000  1
  Mn  Mn1  1  0.43874000  0.56126000  0.00000000  1
  Mn  Mn2  1  0.14967200  0.85032800  0.50000000  1
  Nb  Nb0  1  0.88252500  0.61882500  0.99492200  1
  Nb  Nb1  1  0.38117500  0.11747500  0.00507800  1
  Nb  Nb2  1  0.11818600  0.36402800  0.50680800  1
  Nb  Nb3  1  0.63597200  0.88181400  0.49319200  1
  Nb  Nb4  1  0.86489700  0.13510300  0.00000000  1
  O  O0  1  0.12575400  0.84768900  0.66401400  1
  O  O1  1  0.15231100  0.87424600  0.33598600  1
  O  O2  1  0.87511200  0.14684200  0.83192900  1
  O  O3  1  0.85315800  0.12488800  0.16807100  1
  O  O4  1  0.75916000  0.44839300  0.96875400  1
  O  O5  1  0.55160700  0.24084000  0.03124600  1
  O  O6  1  0.23707200  0.55830700  0.52869800  1
  O  O7  1  0.44169300  0.76292800  0.47130200  1
  O  O8  1  0.83527200  0.56378300  0.52104300  1
  O  O9  1  0.43621700  0.16472800  0.47895700  1
  O  O10  1  0.16431100  0.43658200  0.97468300  1
  O  O11  1  0.56341800  0.83568900  0.02531700  1
  O  O12  1  0.44288100  0.13828300  0.83852100  1
  O  O13  1  0.86171700  0.55711900  0.16147900  1
  O  O14  1  0.56560600  0.85888800  0.66057600  1
  O  O15  1  0.14111200  0.43439400  0.33942400  1
  O  O16  1  0.63321100  0.41064300  0.34512700  1
  O  O17  1  0.58935700  0.36678900  0.65487300  1
  O  O18  1  0.35684700  0.59546900  0.15836300  1
  O  O19  1  0.40453100  0.64315300  0.84163700  1
  O  O20  1  0.88535000  0.68737900  0.82230300  1
  O  O21  1  0.31262100  0.11465000  0.17769700  1
  O  O22  1  0.11171100  0.31887500  0.67929300  1
  O  O23  1  0.68112500  0.88828900  0.32070700  1
  O  O24  1  0.91981500  0.85403700  0.01790500  1
  O  O25  1  0.14596300  0.08018500  0.98209500  1
  O  O26  1  0.07614300  0.14107400  0.48761700  1
  O  O27  1  0.85892600  0.92385700  0.51238300  1
loop_
_geom_bond_atom_site_label_1
_geom_bond_atom_site_label_2
_geom_bond_distance
_geom_bond_site_symmetry_2
Eu0 O17 2.427023 1_555
Eu0 O19 2.452322 1_555
Eu0 O14 2.473766 1_555
Eu0 O20 2.476197 1_555
Eu0 O22 2.501515 1_655
Eu0 O2 2.534988 1_555
Eu0 O4 2.652802 1_555
Eu0 O8 2.675615 1_555
Eu1 O16 2.427023 1_555
Eu1 O18 2.452322 1_555
Eu1 O15 2.473766 1_555
Eu1 O21 2.476197 1_555
Eu1 O23 2.501515 1_545
Eu1 O3 2.534988 1_555
Eu1 O5 2.652802 1_555
Eu1 O9 2.675615 1_555
Eu2 O19 2.419504 1_555
Eu2 O0 2.441724 1_555
Eu2 O17 2.442383 1_555
Eu2 O22 2.456463 1_555
Eu2 O20 2.504353 1_455
Eu2 O12 2.567307 1_555
Eu2 O6 2.639064 1_555
Eu2 O10 2.673235 1_555
Eu3 O18 2.419504 1_555
Eu3 O1 2.441724 1_555
Eu3 O16 2.442383 1_555
Eu3 O23 2.456463 1_555
Eu3 O21 2.504353 1_565
Eu3 O13 2.567307 1_555
Eu3 O7 2.639064 1_555
Eu3 O11 2.673235 1_555
Eu4 O1 2.363572 1_555
Eu4 O23 2.367617 1_455
Eu4 O18 2.376556 1_555
Eu4 O15 2.383528 1_555
Eu4 O3 2.529805 1_465
Eu4 O13 2.571805 1_455
Eu4 O24 2.620452 1_455
Eu5 O0 2.363572 1_555
Eu5 O22 2.367617 1_565
Eu5 O19 2.376556 1_555
Eu5 O14 2.383528 1_555
Eu5 O2 2.529805 1_465
Eu5 O12 2.571805 1_565
Eu5 O25 2.620452 1_565
Eu6 O3 2.372392 1_555
Eu6 O21 2.379456 1_655
Eu6 O16 2.438057 1_555
Eu6 O1 2.452806 1_645
Eu6 O13 2.458397 1_555
Eu6 O15 2.515735 1_655
Eu6 O26 2.525093 1_655
Eu7 O2 2.372392 1_555
Eu7 O20 2.379456 1_545
Eu7 O17 2.438057 1_555
Eu7 O0 2.452806 1_645
Eu7 O12 2.458397 1_555
Eu7 O14 2.515735 1_545
Eu7 O27 2.525093 1_545
Mn0 O16 1.887055 1_555
Mn0 O17 1.887055 1_555
Mn0 O6 2.096495 1_555
Mn0 O7 2.096495 1_555
Mn1 O18 1.916115 1_555
Mn1 O19 1.916115 1_554
Mn1 O4 2.158294 1_554
Mn1 O5 2.158294 1_555
Mn1 O10 2.785928 1_554
Mn1 O11 2.785928 1_555
Mn2 O1 1.940687 1_555
Mn2 O0 1.940687 1_555
Mn2 O7 1.986164 1_555
Mn2 O6 1.986164 1_555
Mn2 O26 2.002839 1_565
Mn2 O27 2.002839 1_455
Nb0 O10 1.914488 1_655
Nb0 O13 1.971496 1_556
Nb0 O24 2.032173 1_556
Nb0 O4 2.042785 1_555
Nb0 O20 2.046875 1_555
Nb0 O11 2.192996 1_556
Nb1 O11 1.914488 1_545
Nb1 O12 1.971496 1_554
Nb1 O25 2.032173 1_554
Nb1 O5 2.042785 1_555
Nb1 O21 2.046875 1_555
Nb1 O10 2.192996 1_554
Nb2 O8 1.947775 1_455
Nb2 O26 1.948366 1_555
Nb2 O15 1.990304 1_555
Nb2 O22 2.034258 1_555
Nb2 O9 2.155893 1_555
Nb2 O6 2.165256 1_555
Nb3 O9 1.947775 1_565
Nb3 O27 1.948366 1_555
Nb3 O14 1.990304 1_555
Nb3 O23 2.034258 1_555
Nb3 O8 2.155893 1_555
Nb3 O7 2.165256 1_555
Nb4 O24 1.967493 1_545
Nb4 O25 1.967493 1_654
Nb4 O2 1.990847 1_554
Nb4 O3 1.990847 1_555
Nb4 O4 2.115619 1_554
Nb4 O5 2.115619 1_555
