# generated using pymatgen
data_SrCaGe
_symmetry_space_group_name_H-M   'P 1'
_cell_length_a   4.96051765
_cell_length_b   8.11107846
_cell_length_c   9.12426437
_cell_angle_alpha   90.00000000
_cell_angle_beta   90.00000000
_cell_angle_gamma   90.00000000
_symmetry_Int_Tables_number   1
_chemical_formula_structural   SrCaGe
_chemical_formula_sum   'Sr4 Ca4 Ge4'
_cell_volume   367.11612605
_cell_formula_units_Z   4
loop_
 _symmetry_equiv_pos_site_id
 _symmetry_equiv_pos_as_xyz
  1  'x, y, z'
loop_
 _atom_site_type_symbol
 _atom_site_label
 _atom_site_symmetry_multiplicity
 _atom_site_fract_x
 _atom_site_fract_y
 _atom_site_fract_z
 _atom_site_occupancy
  Sr  Sr0  1  0.25000000  0.52056731  0.82045676  1
  Sr  Sr1  1  0.25000000  0.02056731  0.67954324  1
  Sr  Sr2  1  0.75000000  0.97943269  0.32045676  1
  Sr  Sr3  1  0.75000000  0.47943269  0.17954324  1
  Ca  Ca0  1  0.75000000  0.85165635  0.92504974  1
  Ca  Ca1  1  0.25000000  0.14834365  0.07495026  1
  Ca  Ca2  1  0.75000000  0.35165635  0.57495026  1
  Ca  Ca3  1  0.25000000  0.64834365  0.42504974  1
  Ge  Ge0  1  0.75000000  0.23255786  0.89593838  1
  Ge  Ge1  1  0.25000000  0.26744214  0.39593838  1
  Ge  Ge2  1  0.25000000  0.76744214  0.10406162  1
  Ge  Ge3  1  0.75000000  0.73255786  0.60406162  1
loop_
_geom_bond_atom_site_label_1
_geom_bond_atom_site_label_2
_geom_bond_distance
_geom_bond_site_symmetry_2
Ca0 Ge2 3.047311 1_556
Ca0 Ge2 3.047311 1_656
Ca0 Ge3 3.083982 1_555
Ca0 Ge0 3.100919 1_565
Ca1 Ge0 3.047311 1_554
Ca1 Ge0 3.047311 1_454
Ca1 Ge1 3.083982 1_555
Ca1 Ge2 3.100919 1_545
Ca2 Ge1 3.047311 1_555
Ca2 Ge1 3.047311 1_655
Ca2 Ge0 3.083982 1_555
Ca2 Ge3 3.100919 1_555
Ca3 Ge3 3.047311 1_555
Ca3 Ge3 3.047311 1_455
Ca3 Ge2 3.083982 1_555
Ca3 Ge1 3.100919 1_555
Ge0 Sr3 3.271973 1_556
Ge0 Sr0 3.476093 1_555
Ge0 Sr0 3.476093 1_655
Ge0 Sr1 3.606481 1_555
Ge0 Sr1 3.606481 1_655
Ge1 Sr1 3.271973 1_555
Ge1 Sr2 3.476093 1_545
Ge1 Sr2 3.476093 1_445
Ge1 Sr3 3.606481 1_455
Ge1 Sr3 3.606481 1_555
Ge2 Sr0 3.271973 1_554
Ge2 Sr3 3.476093 1_455
Ge2 Sr3 3.476093 1_555
Ge2 Sr2 3.606481 1_455
Ge2 Sr2 3.606481 1_555
Ge3 Sr2 3.271973 1_555
Ge3 Sr1 3.476093 1_565
Ge3 Sr1 3.476093 1_665
Ge3 Sr0 3.606481 1_655
Ge3 Sr0 3.606481 1_555
