# generated using pymatgen
data_Na6B18Se17
_symmetry_space_group_name_H-M   'P 1'
_cell_length_a   12.26004336
_cell_length_b   12.26031294
_cell_length_c   11.34860056
_cell_angle_alpha   88.95028794
_cell_angle_beta   88.95807678
_cell_angle_gamma   84.91469171
_symmetry_Int_Tables_number   1
_chemical_formula_structural   Na6B18Se17
_chemical_formula_sum   'Na12 B36 Se34'
_cell_volume   1698.59601096
_cell_formula_units_Z   2
loop_
 _symmetry_equiv_pos_site_id
 _symmetry_equiv_pos_as_xyz
  1  'x, y, z'
loop_
 _atom_site_type_symbol
 _atom_site_label
 _atom_site_symmetry_multiplicity
 _atom_site_fract_x
 _atom_site_fract_y
 _atom_site_fract_z
 _atom_site_occupancy
  Na  Na0  1  0.85654479  0.63123617  0.95663404  1
  Na  Na1  1  0.36836817  0.14711242  0.54121918  1
  Na  Na2  1  0.14711252  0.36841682  0.04125827  1
  Na  Na3  1  0.63125890  0.85656483  0.45663759  1
  Na  Na4  1  0.00296358  0.00022929  0.00052767  1
  Na  Na5  1  0.00025760  0.00297387  0.50054263  1
  Na  Na6  1  0.73957991  0.30384629  0.92845061  1
  Na  Na7  1  0.68576462  0.25929788  0.57610384  1
  Na  Na8  1  0.25929171  0.68577187  0.07608078  1
  Na  Na9  1  0.30387793  0.73950575  0.42839507  1
  Na  Na10  1  0.59008412  0.47483239  0.28314405  1
  Na  Na11  1  0.47483981  0.59010444  0.78317998  1
  B  B0  1  0.49285030  0.87985319  0.07275916  1
  B  B1  1  0.12127389  0.50618827  0.42738416  1
  B  B2  1  0.50618370  0.12128757  0.92739273  1
  B  B3  1  0.87985130  0.49282959  0.57273573  1
  B  B4  1  0.49476125  0.00521517  0.14816808  1
  B  B5  1  0.99581947  0.50388082  0.35194676  1
  B  B6  1  0.50388516  0.99584584  0.85196286  1
  B  B7  1  0.00522290  0.49474234  0.64815514  1
  B  B8  1  0.56928182  0.88950470  0.94031512  1
  B  B9  1  0.11210068  0.42902962  0.55952315  1
  B  B10  1  0.42903868  0.11210736  0.05952593  1
  B  B11  1  0.88947677  0.56926479  0.44028361  1
  B  B12  1  0.31420417  0.97712932  0.32211359  1
  B  B13  1  0.02262378  0.68519378  0.17835645  1
  B  B14  1  0.68518863  0.02266259  0.67839518  1
  B  B15  1  0.97713638  0.31414832  0.82209443  1
  B  B16  1  0.37837547  0.97990128  0.06813998  1
  B  B17  1  0.02107495  0.62036714  0.43219528  1
  B  B18  1  0.62037827  0.02110714  0.93222038  1
  B  B19  1  0.97990596  0.37835688  0.56813018  1
  B  B20  1  0.61346682  0.95002970  0.07000611  1
  B  B21  1  0.05066052  0.38532921  0.43010753  1
  B  B22  1  0.38532931  0.05066504  0.93010864  1
  B  B23  1  0.95003301  0.61343873  0.56995300  1
  B  B24  1  0.77768107  0.06068818  0.18839032  1
  B  B25  1  0.93927251  0.22099944  0.31048874  1
  B  B26  1  0.22101682  0.93926788  0.81048074  1
  B  B27  1  0.06067971  0.77770265  0.68831030  1
  B  B28  1  0.57419592  0.09118935  0.06245249  1
  B  B29  1  0.90965983  0.42446904  0.43813198  1
  B  B30  1  0.42448119  0.90966442  0.93814622  1
  B  B31  1  0.09120107  0.57419856  0.56243139  1
  B  B32  1  0.60099017  0.65737421  0.02450536  1
  B  B33  1  0.34377162  0.39904491  0.47404817  1
  B  B34  1  0.39905856  0.34379161  0.97400048  1
  B  B35  1  0.65735842  0.60102039  0.52450841  1
  Se  Se0  1  0.49793053  0.72824629  0.14324880  1
  Se  Se1  1  0.27153746  0.50129178  0.35460502  1
  Se  Se2  1  0.50130099  0.27154024  0.85457768  1
  Se  Se3  1  0.72827495  0.49795091  0.64326810  1
  Se  Se4  1  0.66454338  0.51129141  0.04509574  1
  Se  Se5  1  0.48837472  0.33243608  0.44683685  1
  Se  Se6  1  0.33243216  0.48838195  0.94679212  1
  Se  Se7  1  0.51133176  0.66466304  0.54519242  1
  Se  Se8  1  0.23933234  0.96947181  0.47101235  1
  Se  Se9  1  0.03061495  0.76066889  0.02988835  1
  Se  Se10  1  0.76071892  0.03057114  0.52995081  1
  Se  Se11  1  0.96956696  0.23925379  0.97102307  1
  Se  Se12  1  0.75137129  0.90963981  0.15876972  1
  Se  Se13  1  0.09003262  0.24761014  0.34026231  1
  Se  Se14  1  0.24762113  0.09002646  0.84024026  1
  Se  Se15  1  0.90962144  0.75139124  0.65862006  1
  Se  Se16  1  0.67382301  0.18382404  0.14726585  1
  Se  Se17  1  0.81617569  0.32387486  0.35665673  1
  Se  Se18  1  0.32388492  0.81618118  0.85667337  1
  Se  Se19  1  0.18384797  0.67388044  0.64715103  1
  Se  Se20  1  0.92546879  0.07360241  0.24930352  1
  Se  Se21  1  0.07361372  0.92546919  0.74928420  1
  Se  Se22  1  0.24635561  0.95386663  0.16857678  1
  Se  Se23  1  0.04548142  0.75299843  0.33198860  1
  Se  Se24  1  0.75298487  0.04562847  0.83201130  1
  Se  Se25  1  0.95386231  0.24634016  0.66856516  1
  Se  Se26  1  0.47012314  0.00691999  0.32232563  1
  Se  Se27  1  0.99365344  0.52890936  0.17774033  1
  Se  Se28  1  0.52888777  0.99371546  0.67775883  1
  Se  Se29  1  0.00690865  0.47008178  0.82231229  1
  Se  Se30  1  0.64076942  0.74601287  0.88468543  1
  Se  Se31  1  0.25671920  0.35959349  0.61420530  1
  Se  Se32  1  0.35962938  0.25672484  0.11420491  1
  Se  Se33  1  0.74597035  0.64075937  0.38466660  1
loop_
_geom_bond_atom_site_label_1
_geom_bond_atom_site_label_2
_geom_bond_distance
_geom_bond_site_symmetry_2
Na0 Se9 2.911522 1_656
Na0 Se29 2.998051 1_655
Na0 Se30 3.003606 1_555
Na0 Se4 3.030691 1_556
Na0 Se27 3.218705 1_556
Na1 Se8 2.932760 1_545
Na1 Se31 2.958357 1_555
Na1 Se5 2.986747 1_555
Na1 Se28 3.026383 1_545
Na1 Se26 3.216385 1_555
Na2 Se11 2.932842 1_454
Na2 Se32 2.958610 1_555
Na2 Se6 2.986763 1_554
Na2 Se27 3.026541 1_455
Na2 Se29 3.216236 1_554
Na3 Se10 2.911356 1_565
Na3 Se26 2.997527 1_565
Na3 Se33 3.003867 1_555
Na3 Se7 3.029890 1_555
Na3 Se28 3.219595 1_555
Na4 Se11 2.936665 1_454
Na4 Se9 2.940095 1_545
Na4 Se20 3.086532 1_455
Na4 Se21 3.096008 1_544
Na5 Se8 2.937357 1_545
Na5 Se10 2.939852 1_455
Na5 Se21 3.085920 1_545
Na5 Se20 3.095777 1_455
Na6 Se11 2.907004 1_555
Na6 Se4 2.954915 1_556
Na6 Se16 2.997566 1_556
Na6 Se2 3.114503 1_555
Na6 Se24 3.357900 1_555
Na7 Se5 2.916987 1_555
Na7 Se10 2.926115 1_555
Na7 Se17 3.064749 1_555
Na7 Se3 3.127356 1_555
Na7 Se25 3.457843 1_555
Na8 Se6 2.917385 1_554
Na8 Se9 2.925326 1_555
Na8 Se18 3.064360 1_554
Na8 Se0 3.126951 1_555
Na8 Se22 3.458157 1_555
Na9 Se8 2.906883 1_555
Na9 Se7 2.955005 1_555
Na9 Se19 2.996650 1_555
Na9 Se1 3.113715 1_555
Na9 Se23 3.359585 1_555
Na10 Se5 2.869958 1_555
Na10 Se4 2.875715 1_555
Na10 Se33 3.158108 1_555
Na10 Se17 3.304975 1_555
Na11 Se6 2.869580 1_555
Na11 Se7 2.875468 1_555
Na11 Se30 3.158228 1_555
Na11 Se18 3.304946 1_555
B0 B8 1.764416 1_554
B0 B30 1.772499 1_554
B0 B4 1.774971 1_565
B0 B20 1.775069 1_555
B0 B16 1.781066 1_555
B0 Se0 2.006381 1_555
B1 B9 1.765523 1_555
B1 B31 1.775339 1_555
B1 B5 1.776483 1_455
B1 B17 1.779660 1_555
B1 B21 1.780684 1_555
B1 Se1 2.001624 1_555
B2 B28 1.775372 1_556
B2 B6 1.776421 1_545
B2 B22 1.780681 1_555
B2 Se2 2.001601 1_555
B3 B7 1.775007 1_655
B3 Se3 2.006268 1_555
B4 Se26 1.994165 1_555
B5 Se27 1.995402 1_555
B6 B8 1.773145 1_555
B6 Se28 1.995369 1_555
B7 B9 1.781119 1_555
B7 Se29 1.994151 1_555
B8 Se30 2.002229 1_555
B9 Se31 2.001634 1_555
B10 B2 1.765474 1_554
B10 B22 1.775514 1_554
B10 B28 1.776204 1_555
B10 B4 1.781203 1_555
B10 B16 1.786927 1_545
B10 Se32 2.001637 1_555
B11 B3 1.764401 1_555
B11 B29 1.771102 1_555
B11 B5 1.773147 1_555
B11 B23 1.774888 1_555
B11 B17 1.782058 1_655
B11 Se33 2.002225 1_555
B12 Se8 1.913078 1_555
B12 Se26 1.977750 1_565
B12 Se22 1.980483 1_555
B12 Na9 3.144749 1_555
B13 Se9 1.912516 1_555
B13 Se27 1.979609 1_455
B13 Se23 1.980304 1_555
B13 Na8 3.105986 1_555
B14 Se10 1.912612 1_555
B14 Se28 1.979697 1_545
B14 Se24 1.980281 1_555
B14 Na7 3.105589 1_555
B15 Se11 1.913333 1_555
B15 Se29 1.977904 1_655
B15 Se25 1.980284 1_555
B15 Na6 3.144352 1_555
B16 B4 1.758736 1_565
B16 B30 1.779701 1_554
B16 B22 1.781078 1_564
B16 Se22 2.007983 1_555
B17 B5 1.761023 1_455
B17 B23 1.780065 1_455
B17 B31 1.781386 1_555
B17 Se23 2.008259 1_555
B18 B6 1.761063 1_545
B18 B2 1.779649 1_555
B18 B20 1.780449 1_546
B18 B28 1.781306 1_556
B18 B8 1.782098 1_545
B18 Se24 2.008399 1_555
B19 B7 1.758826 1_655
B19 B29 1.779651 1_555
B19 B21 1.781040 1_655
B19 B3 1.781109 1_555
B19 B9 1.786824 1_655
B19 Se25 2.007892 1_555
B20 B28 1.755760 1_565
B20 B8 1.774993 1_554
B20 B4 1.778505 1_565
B20 Se12 2.003425 1_555
B21 B29 1.753767 1_455
B21 B9 1.775418 1_555
B21 B5 1.775575 1_455
B21 Se13 2.006060 1_555
B22 B30 1.753819 1_545
B22 B6 1.775571 1_545
B22 Se14 2.005886 1_555
B23 B31 1.755755 1_655
B23 B3 1.775039 1_555
B23 B7 1.778534 1_655
B23 Se15 2.003574 1_555
B24 Se16 1.942494 1_555
B24 Se12 1.944023 1_545
B24 Se20 1.971365 1_555
B25 Se13 1.941796 1_655
B25 Se17 1.949606 1_555
B25 Se20 1.970021 1_555
B26 Se14 1.941801 1_565
B26 Se18 1.949446 1_555
B26 Se21 1.970013 1_555
B27 Se19 1.942696 1_555
B27 Se15 1.944225 1_455
B27 Se21 1.971533 1_555
B28 B4 1.765134 1_555
B28 Se16 2.009215 1_555
B29 B5 1.769247 1_555
B29 B3 1.772502 1_555
B29 Se17 2.005121 1_555
B30 B6 1.769345 1_555
B30 B8 1.771110 1_555
B30 Se18 2.005110 1_555
B31 B7 1.765375 1_555
B31 B9 1.776370 1_555
B31 Se19 2.009232 1_555
B32 Se4 1.900882 1_555
B32 Se30 1.984764 1_554
B32 Se0 1.988412 1_555
B33 Se5 1.907330 1_555
B33 Se31 1.975998 1_555
B33 Se1 1.994427 1_555
B34 Se6 1.907232 1_555
B34 Se32 1.976389 1_556
B34 Se2 1.994514 1_555
B35 Se7 1.900755 1_555
B35 Se33 1.984694 1_555
B35 Se3 1.988633 1_555
