# generated using pymatgen
data_Li7Mn5O12
_symmetry_space_group_name_H-M   'P 1'
_cell_length_a   5.24024400
_cell_length_b   6.02052605
_cell_length_c   7.67780813
_cell_angle_alpha   98.60086357
_cell_angle_beta   97.14445077
_cell_angle_gamma   109.89533477
_symmetry_Int_Tables_number   1
_chemical_formula_structural   Li7Mn5O12
_chemical_formula_sum   'Li7 Mn5 O12'
_cell_volume   221.17112972
_cell_formula_units_Z   1
loop_
 _symmetry_equiv_pos_site_id
 _symmetry_equiv_pos_as_xyz
  1  'x, y, z'
loop_
 _atom_site_type_symbol
 _atom_site_label
 _atom_site_symmetry_multiplicity
 _atom_site_fract_x
 _atom_site_fract_y
 _atom_site_fract_z
 _atom_site_occupancy
  Li  Li0  1  0.49970200  0.75219700  0.00414800  1
  Li  Li1  1  0.50314000  0.07675600  0.33855800  1
  Li  Li2  1  0.49298000  0.40597000  0.65880700  1
  Li  Li3  1  0.50029800  0.24780300  0.99585200  1
  Li  Li4  1  0.50702000  0.59403000  0.34119300  1
  Li  Li5  1  0.49686000  0.92324400  0.66144200  1
  Li  Li6  1  0.00000000  0.00000000  0.50000000  1
  Mn  Mn0  1  0.00395500  0.83180300  0.83044700  1
  Mn  Mn1  1  0.00000000  0.50000000  0.50000000  1
  Mn  Mn2  1  0.99604500  0.16819700  0.16955300  1
  Mn  Mn3  1  0.00169500  0.32388400  0.82695900  1
  Mn  Mn4  1  0.99830500  0.67611600  0.17304100  1
  O  O0  1  0.78460300  0.55169700  0.92461100  1
  O  O1  1  0.77172000  0.88026900  0.23892700  1
  O  O2  1  0.76539200  0.22775400  0.58821400  1
  O  O3  1  0.76442700  0.06248800  0.92006500  1
  O  O4  1  0.76386200  0.40452000  0.26404900  1
  O  O5  1  0.79010600  0.69297300  0.58937400  1
  O  O6  1  0.23557300  0.93751200  0.07993500  1
  O  O7  1  0.20989400  0.30702700  0.41062600  1
  O  O8  1  0.23613800  0.59548000  0.73595100  1
  O  O9  1  0.21539700  0.44830300  0.07538900  1
  O  O10  1  0.23460800  0.77224600  0.41178600  1
  O  O11  1  0.22828000  0.11973100  0.76107300  1
loop_
_geom_bond_atom_site_label_1
_geom_bond_atom_site_label_2
_geom_bond_distance
_geom_bond_site_symmetry_2
Li0 O1 2.018124 1_555
Li0 O9 2.124393 1_555
Li0 O6 2.134539 1_555
Li0 O3 2.156548 1_564
Li0 O8 2.205104 1_554
Li0 O0 2.300393 1_554
Li1 O2 2.088653 1_555
Li1 O10 2.099176 1_545
Li1 O6 2.149682 1_545
Li1 O4 2.187458 1_555
Li1 O1 2.257359 1_545
Li1 O7 2.453882 1_555
Li2 O5 2.084475 1_555
Li2 O8 2.122590 1_555
Li2 O7 2.131260 1_555
Li2 O2 2.131602 1_555
Li2 O11 2.135190 1_555
Li2 O0 2.246351 1_555
Li3 O11 2.018124 1_555
Li3 O0 2.124393 1_555
Li3 O3 2.134539 1_555
Li3 O6 2.156548 1_546
Li3 O4 2.205104 1_556
Li3 O9 2.300393 1_556
Li4 O7 2.084475 1_555
Li4 O4 2.122590 1_555
Li4 O5 2.131260 1_555
Li4 O10 2.131602 1_555
Li4 O1 2.135190 1_555
Li4 O9 2.246351 1_555
Li5 O10 2.088653 1_555
Li5 O2 2.099176 1_565
Li5 O3 2.149682 1_565
Li5 O8 2.187458 1_555
Li5 O11 2.257359 1_565
Li5 O5 2.453882 1_555
Li6 O7 2.069015 1_555
Li6 O5 2.069015 1_445
Li6 O11 2.086385 1_555
Li6 O1 2.086385 1_445
Li6 O2 2.219689 1_455
Li6 O10 2.219689 1_545
Mn0 O11 1.927566 1_565
Mn0 O5 1.940137 1_455
Mn0 O0 1.984921 1_455
Mn0 O6 2.019588 1_556
Mn0 O3 2.256832 1_465
Mn0 O8 2.262759 1_555
Mn1 O4 1.946866 1_455
Mn1 O8 1.946866 1_555
Mn1 O10 1.955600 1_555
Mn1 O2 1.955600 1_455
Mn1 O5 1.961993 1_455
Mn1 O7 1.961993 1_555
Mn2 O1 1.927566 1_545
Mn2 O7 1.940137 1_655
Mn2 O9 1.984921 1_655
Mn2 O3 2.019588 1_554
Mn2 O6 2.256832 1_645
Mn2 O4 2.262759 1_555
Mn3 O3 1.938917 1_455
Mn3 O2 1.964347 1_455
Mn3 O8 1.964510 1_555
Mn3 O9 1.980846 1_556
Mn3 O11 2.033012 1_555
Mn3 O0 2.168870 1_455
Mn4 O6 1.938917 1_655
Mn4 O10 1.964347 1_655
Mn4 O4 1.964510 1_555
Mn4 O0 1.980846 1_554
Mn4 O1 2.033012 1_555
Mn4 O9 2.168870 1_655
