# generated using pymatgen
data_AsS2
_symmetry_space_group_name_H-M   'P 1'
_cell_length_a   7.33760572
_cell_length_b   8.09183793
_cell_length_c   10.25965739
_cell_angle_alpha   90.00000000
_cell_angle_beta   90.00000000
_cell_angle_gamma   106.51019098
_symmetry_Int_Tables_number   1
_chemical_formula_structural   AsS2
_chemical_formula_sum   'As8 S16'
_cell_volume   584.04791890
_cell_formula_units_Z   8
loop_
 _symmetry_equiv_pos_site_id
 _symmetry_equiv_pos_as_xyz
  1  'x, y, z'
loop_
 _atom_site_type_symbol
 _atom_site_label
 _atom_site_symmetry_multiplicity
 _atom_site_fract_x
 _atom_site_fract_y
 _atom_site_fract_z
 _atom_site_occupancy
  As  As0  1  0.59160625  0.03075845  0.53082369  1
  As  As1  1  0.40839375  0.96924155  0.03082369  1
  As  As2  1  0.73916136  0.56267656  0.53786740  1
  As  As3  1  0.26083864  0.43732344  0.03786740  1
  As  As4  1  0.88692556  0.34261176  0.32116652  1
  As  As5  1  0.11307444  0.65738824  0.82116652  1
  As  As6  1  0.95852182  0.12418566  0.83048939  1
  As  As7  1  0.04147818  0.87581434  0.33048939  1
  S  S0  1  0.63580357  0.82109310  0.03589511  1
  S  S1  1  0.36419643  0.17890690  0.53589511  1
  S  S2  1  0.73079441  0.27445620  0.82671367  1
  S  S3  1  0.26920559  0.72554380  0.32671267  1
  S  S4  1  0.76453434  0.84661505  0.85799112  1
  S  S5  1  0.23546566  0.15338495  0.35799112  1
  S  S6  1  0.60104934  0.24888649  0.00429733  1
  S  S7  1  0.39895066  0.75111351  0.50429733  1
  S  S8  1  0.94273542  0.38967677  0.53696045  1
  S  S9  1  0.05726458  0.61032323  0.03696045  1
  S  S10  1  0.68258762  0.06866012  0.32186741  1
  S  S11  1  0.31741238  0.93133988  0.82186741  1
  S  S12  1  0.94929124  0.83566797  0.53861972  1
  S  S13  1  0.05070876  0.16433203  0.03861972  1
  S  S14  1  0.68868470  0.51908893  0.32220119  1
  S  S15  1  0.31131530  0.48091107  0.82220119  1
loop_
_geom_bond_atom_site_label_1
_geom_bond_atom_site_label_2
_geom_bond_distance
_geom_bond_site_symmetry_2
As0 S10 2.240385 1_555
As0 S1 2.315412 1_555
As0 S7 2.318351 1_545
As1 S11 2.240385 1_554
As1 S0 2.315412 1_555
As1 S6 2.318351 1_565
As2 S14 2.254596 1_555
As2 S12 2.306774 1_555
As2 S8 2.319386 1_555
As3 S15 2.254596 1_554
As3 S13 2.306774 1_555
As3 S9 2.319386 1_555
As4 S8 2.264016 1_555
As4 S10 2.296318 1_555
As4 S14 2.309957 1_555
As5 S9 2.264016 1_556
As5 S11 2.296318 1_555
As5 S15 2.309957 1_555
As6 S13 2.235598 1_656
As6 S4 2.309405 1_545
As6 S2 2.329607 1_555
As7 S12 2.235598 1_455
As7 S5 2.309405 1_565
As7 S3 2.329607 1_555
S0 S4 2.038499 1_554
S1 S5 2.038499 1_555
S2 S6 2.038795 1_556
S3 S7 2.038804 1_555
