# generated using pymatgen
data_CaMg2
_symmetry_space_group_name_H-M   'P 1'
_cell_length_a   10.81108208
_cell_length_b   7.35338170
_cell_length_c   35.57553196
_cell_angle_alpha   90.00000000
_cell_angle_beta   90.00000000
_cell_angle_gamma   90.00000000
_symmetry_Int_Tables_number   1
_chemical_formula_structural   CaMg2
_chemical_formula_sum   'Ca32 Mg64'
_cell_volume   2828.18410666
_cell_formula_units_Z   32
loop_
 _symmetry_equiv_pos_site_id
 _symmetry_equiv_pos_as_xyz
  1  'x, y, z'
loop_
 _atom_site_type_symbol
 _atom_site_label
 _atom_site_symmetry_multiplicity
 _atom_site_fract_x
 _atom_site_fract_y
 _atom_site_fract_z
 _atom_site_occupancy
  Ca  Ca0_0  1  0.25000000  0.25000000  0.19685253  1
  Ca  Ca0_1  1  0.25000000  0.25000000  0.69685252  1
  Ca  Ca0_2  1  0.25000000  0.75000000  0.19685253  1
  Ca  Ca0_3  1  0.25000000  0.75000000  0.69685252  1
  Ca  Ca0_4  1  0.75000000  0.25000000  0.19685253  1
  Ca  Ca0_5  1  0.75000000  0.25000000  0.69685252  1
  Ca  Ca0_6  1  0.75000000  0.75000000  0.19685253  1
  Ca  Ca0_7  1  0.75000000  0.75000000  0.69685252  1
  Ca  Ca1_0  1  0.25000000  0.00000000  0.10564766  1
  Ca  Ca1_1  1  0.25000000  0.00000000  0.60564766  1
  Ca  Ca1_2  1  0.25000000  0.50000000  0.10564766  1
  Ca  Ca1_3  1  0.25000000  0.50000000  0.60564766  1
  Ca  Ca1_4  1  0.75000000  0.00000000  0.10564766  1
  Ca  Ca1_5  1  0.75000000  0.00000000  0.60564766  1
  Ca  Ca1_6  1  0.75000000  0.50000000  0.10564766  1
  Ca  Ca1_7  1  0.75000000  0.50000000  0.60564766  1
  Ca  Ca2_0  1  0.25000000  0.00000000  0.44685253  1
  Ca  Ca2_1  1  0.25000000  0.00000000  0.94685252  1
  Ca  Ca2_2  1  0.25000000  0.50000000  0.44685253  1
  Ca  Ca2_3  1  0.25000000  0.50000000  0.94685252  1
  Ca  Ca2_4  1  0.75000000  0.00000000  0.44685253  1
  Ca  Ca2_5  1  0.75000000  0.00000000  0.94685252  1
  Ca  Ca2_6  1  0.75000000  0.50000000  0.44685253  1
  Ca  Ca2_7  1  0.75000000  0.50000000  0.94685252  1
  Ca  Ca3_0  1  0.25000000  0.25000000  0.35564766  1
  Ca  Ca3_1  1  0.25000000  0.25000000  0.85564766  1
  Ca  Ca3_2  1  0.25000000  0.75000000  0.35564766  1
  Ca  Ca3_3  1  0.25000000  0.75000000  0.85564766  1
  Ca  Ca3_4  1  0.75000000  0.25000000  0.35564766  1
  Ca  Ca3_5  1  0.75000000  0.25000000  0.85564766  1
  Ca  Ca3_6  1  0.75000000  0.75000000  0.35564766  1
  Ca  Ca3_7  1  0.75000000  0.75000000  0.85564766  1
  Mg  Mg0_0  1  0.00000000  0.00000000  0.00597633  1
  Mg  Mg0_1  1  0.00000000  0.00000000  0.50597633  1
  Mg  Mg0_2  1  0.00000000  0.50000000  0.00597633  1
  Mg  Mg0_3  1  0.00000000  0.50000000  0.50597633  1
  Mg  Mg0_4  1  0.50000000  0.00000000  0.00597633  1
  Mg  Mg0_5  1  0.50000000  0.00000000  0.50597633  1
  Mg  Mg0_6  1  0.50000000  0.50000000  0.00597633  1
  Mg  Mg0_7  1  0.50000000  0.50000000  0.50597633  1
  Mg  Mg1_0  1  0.00000000  0.25000000  0.08101232  1
  Mg  Mg1_1  1  0.00000000  0.25000000  0.58101232  1
  Mg  Mg1_2  1  0.00000000  0.75000000  0.08101232  1
  Mg  Mg1_3  1  0.00000000  0.75000000  0.58101232  1
  Mg  Mg1_4  1  0.50000000  0.25000000  0.08101232  1
  Mg  Mg1_5  1  0.50000000  0.25000000  0.58101232  1
  Mg  Mg1_6  1  0.50000000  0.75000000  0.08101232  1
  Mg  Mg1_7  1  0.50000000  0.75000000  0.58101232  1
  Mg  Mg2_0  1  0.00000000  0.00000000  0.16575825  1
  Mg  Mg2_1  1  0.00000000  0.00000000  0.66575825  1
  Mg  Mg2_2  1  0.00000000  0.50000000  0.16575825  1
  Mg  Mg2_3  1  0.00000000  0.50000000  0.66575825  1
  Mg  Mg2_4  1  0.50000000  0.00000000  0.16575825  1
  Mg  Mg2_5  1  0.50000000  0.00000000  0.66575825  1
  Mg  Mg2_6  1  0.50000000  0.50000000  0.16575825  1
  Mg  Mg2_7  1  0.50000000  0.50000000  0.66575825  1
  Mg  Mg3_0  1  0.25000000  0.25000000  0.02808641  1
  Mg  Mg3_1  1  0.25000000  0.25000000  0.52808641  1
  Mg  Mg3_2  1  0.25000000  0.75000000  0.02808641  1
  Mg  Mg3_3  1  0.25000000  0.75000000  0.52808641  1
  Mg  Mg3_4  1  0.75000000  0.25000000  0.02808641  1
  Mg  Mg3_5  1  0.75000000  0.25000000  0.52808641  1
  Mg  Mg3_6  1  0.75000000  0.75000000  0.02808641  1
  Mg  Mg3_7  1  0.75000000  0.75000000  0.52808641  1
  Mg  Mg4_0  1  0.00000000  0.25000000  0.25597633  1
  Mg  Mg4_1  1  0.00000000  0.25000000  0.75597633  1
  Mg  Mg4_2  1  0.00000000  0.75000000  0.25597633  1
  Mg  Mg4_3  1  0.00000000  0.75000000  0.75597633  1
  Mg  Mg4_4  1  0.50000000  0.25000000  0.25597633  1
  Mg  Mg4_5  1  0.50000000  0.25000000  0.75597633  1
  Mg  Mg4_6  1  0.50000000  0.75000000  0.25597633  1
  Mg  Mg4_7  1  0.50000000  0.75000000  0.75597633  1
  Mg  Mg5_0  1  0.00000000  0.00000000  0.33101232  1
  Mg  Mg5_1  1  0.00000000  0.00000000  0.83101232  1
  Mg  Mg5_2  1  0.00000000  0.50000000  0.33101232  1
  Mg  Mg5_3  1  0.00000000  0.50000000  0.83101232  1
  Mg  Mg5_4  1  0.50000000  0.00000000  0.33101232  1
  Mg  Mg5_5  1  0.50000000  0.00000000  0.83101232  1
  Mg  Mg5_6  1  0.50000000  0.50000000  0.33101232  1
  Mg  Mg5_7  1  0.50000000  0.50000000  0.83101232  1
  Mg  Mg6_0  1  0.00000000  0.25000000  0.41575826  1
  Mg  Mg6_1  1  0.00000000  0.25000000  0.91575825  1
  Mg  Mg6_2  1  0.00000000  0.75000000  0.41575826  1
  Mg  Mg6_3  1  0.00000000  0.75000000  0.91575825  1
  Mg  Mg6_4  1  0.50000000  0.25000000  0.41575826  1
  Mg  Mg6_5  1  0.50000000  0.25000000  0.91575825  1
  Mg  Mg6_6  1  0.50000000  0.75000000  0.41575826  1
  Mg  Mg6_7  1  0.50000000  0.75000000  0.91575825  1
  Mg  Mg7_0  1  0.25000000  0.00000000  0.27808642  1
  Mg  Mg7_1  1  0.25000000  0.00000000  0.77808641  1
  Mg  Mg7_2  1  0.25000000  0.50000000  0.27808642  1
  Mg  Mg7_3  1  0.25000000  0.50000000  0.77808641  1
  Mg  Mg7_4  1  0.75000000  0.00000000  0.27808642  1
  Mg  Mg7_5  1  0.75000000  0.00000000  0.77808641  1
  Mg  Mg7_6  1  0.75000000  0.50000000  0.27808642  1
  Mg  Mg7_7  1  0.75000000  0.50000000  0.77808641  1
loop_
_geom_bond_atom_site_label_1
_geom_bond_atom_site_label_2
_geom_bond_distance
_geom_bond_site_symmetry_2
Ca0_0 Mg4_0 3.424777 1_555
Ca0_0 Mg4_4 3.424777 1_555
Ca0_0 Mg7_0 3.425093 1_555
Ca0_0 Mg7_2 3.425093 1_555
Ca0_0 Mg2_4 3.450819 1_555
Ca0_0 Mg2_6 3.450819 1_555
Ca0_0 Mg2_0 3.450819 1_555
Ca0_0 Mg2_2 3.450819 1_555
Ca0_0 Ca0_2 3.676691 1_555
Ca0_0 Ca0_2 3.676691 1_545
Ca0_0 Ca1_0 3.729255 1_555
Ca0_0 Ca1_2 3.729255 1_555
Ca0_1 Mg4_5 3.424777 1_555
Ca0_1 Mg4_1 3.424777 1_555
Ca0_1 Mg7_3 3.425093 1_555
Ca0_1 Mg7_1 3.425093 1_555
Ca0_1 Mg2_7 3.450819 1_555
Ca0_1 Mg2_5 3.450819 1_555
Ca0_1 Mg2_3 3.450819 1_555
Ca0_1 Mg2_1 3.450819 1_555
Ca0_1 Ca0_3 3.676691 1_555
Ca0_1 Ca0_3 3.676691 1_545
Ca0_1 Ca1_1 3.729255 1_555
Ca0_1 Ca1_3 3.729255 1_555
Ca0_2 Mg4_6 3.424777 1_555
Ca0_2 Mg4_2 3.424777 1_555
Ca0_2 Mg7_0 3.425093 1_565
Ca0_2 Mg7_2 3.425093 1_555
Ca0_2 Mg2_2 3.450819 1_555
Ca0_2 Mg2_0 3.450819 1_565
Ca0_2 Mg2_4 3.450819 1_565
Ca0_2 Mg2_6 3.450819 1_555
Ca0_2 Ca1_0 3.729255 1_565
Ca0_2 Ca1_2 3.729255 1_555
Ca0_3 Mg4_7 3.424777 1_555
Ca0_3 Mg4_3 3.424777 1_555
Ca0_3 Mg7_1 3.425093 1_565
Ca0_3 Mg7_3 3.425093 1_555
Ca0_3 Mg2_1 3.450819 1_565
Ca0_3 Mg2_5 3.450819 1_565
Ca0_3 Mg2_3 3.450819 1_555
Ca0_3 Mg2_7 3.450819 1_555
Ca0_3 Ca1_1 3.729255 1_565
Ca0_3 Ca1_3 3.729255 1_555
Ca0_4 Mg4_0 3.424777 1_655
Ca0_4 Mg4_4 3.424777 1_555
Ca0_4 Mg7_4 3.425093 1_555
Ca0_4 Mg7_6 3.425093 1_555
Ca0_4 Mg2_2 3.450819 1_655
Ca0_4 Mg2_4 3.450819 1_555
Ca0_4 Mg2_6 3.450819 1_555
Ca0_4 Mg2_0 3.450819 1_655
Ca0_4 Ca0_6 3.676691 1_555
Ca0_4 Ca0_6 3.676691 1_545
Ca0_4 Ca1_6 3.729255 1_555
Ca0_4 Ca1_4 3.729255 1_555
Ca0_5 Mg4_1 3.424777 1_655
Ca0_5 Mg4_5 3.424777 1_555
Ca0_5 Mg7_5 3.425093 1_555
Ca0_5 Mg7_7 3.425093 1_555
Ca0_5 Mg2_7 3.450819 1_555
Ca0_5 Mg2_1 3.450819 1_655
Ca0_5 Mg2_3 3.450819 1_655
Ca0_5 Mg2_5 3.450819 1_555
Ca0_5 Ca0_7 3.676691 1_555
Ca0_5 Ca0_7 3.676691 1_545
Ca0_5 Ca1_7 3.729255 1_555
Ca0_5 Ca1_5 3.729255 1_555
Ca0_6 Mg4_2 3.424777 1_655
Ca0_6 Mg4_6 3.424777 1_555
Ca0_6 Mg7_4 3.425093 1_565
Ca0_6 Mg7_6 3.425093 1_555
Ca0_6 Mg2_0 3.450819 1_665
Ca0_6 Mg2_2 3.450819 1_655
Ca0_6 Mg2_4 3.450819 1_565
Ca0_6 Mg2_6 3.450819 1_555
Ca0_6 Ca1_4 3.729255 1_565
Ca0_6 Ca1_6 3.729255 1_555
Ca0_7 Mg4_3 3.424777 1_655
Ca0_7 Mg4_7 3.424777 1_555
Ca0_7 Mg7_5 3.425093 1_565
Ca0_7 Mg7_7 3.425093 1_555
Ca0_7 Mg2_5 3.450819 1_565
Ca0_7 Mg2_1 3.450819 1_665
Ca0_7 Mg2_3 3.450819 1_655
Ca0_7 Mg2_7 3.450819 1_555
Ca0_7 Ca1_5 3.729255 1_565
Ca0_7 Ca1_7 3.729255 1_555
Ca1_0 Mg3_2 3.315593 1_545
Ca1_0 Mg3_0 3.315593 1_555
Ca1_0 Mg1_4 3.384167 1_555
Ca1_0 Mg1_2 3.384167 1_545
Ca1_0 Mg1_0 3.384167 1_555
Ca1_0 Mg1_6 3.384167 1_545
Ca1_0 Mg2_0 3.446448 1_555
Ca1_0 Mg2_4 3.446448 1_555
Ca1_0 Ca1_2 3.676691 1_555
Ca1_0 Ca1_2 3.676691 1_545
Ca1_1 Mg3_1 3.315593 1_555
Ca1_1 Mg3_3 3.315593 1_545
Ca1_1 Mg1_7 3.384167 1_545
Ca1_1 Mg1_1 3.384167 1_555
Ca1_1 Mg1_5 3.384167 1_555
Ca1_1 Mg1_3 3.384167 1_545
Ca1_1 Mg2_5 3.446448 1_555
Ca1_1 Mg2_1 3.446448 1_555
Ca1_1 Ca1_3 3.676691 1_555
Ca1_1 Ca1_3 3.676691 1_545
Ca1_2 Mg3_0 3.315593 1_555
Ca1_2 Mg3_2 3.315593 1_555
Ca1_2 Mg1_4 3.384167 1_555
Ca1_2 Mg1_0 3.384167 1_555
Ca1_2 Mg1_6 3.384167 1_555
Ca1_2 Mg1_2 3.384167 1_555
Ca1_2 Mg2_2 3.446448 1_555
Ca1_2 Mg2_6 3.446448 1_555
Ca1_3 Mg3_1 3.315593 1_555
Ca1_3 Mg3_3 3.315593 1_555
Ca1_3 Mg1_1 3.384167 1_555
Ca1_3 Mg1_5 3.384167 1_555
Ca1_3 Mg1_3 3.384167 1_555
Ca1_3 Mg1_7 3.384167 1_555
Ca1_3 Mg2_3 3.446448 1_555
Ca1_3 Mg2_7 3.446448 1_555
Ca1_4 Mg3_4 3.315593 1_555
Ca1_4 Mg3_6 3.315593 1_545
Ca1_4 Mg1_4 3.384167 1_555
Ca1_4 Mg1_6 3.384167 1_545
Ca1_4 Mg1_2 3.384167 1_645
Ca1_4 Mg1_0 3.384167 1_655
Ca1_4 Mg2_0 3.446448 1_655
Ca1_4 Mg2_4 3.446448 1_555
Ca1_4 Ca1_6 3.676691 1_555
Ca1_4 Ca1_6 3.676691 1_545
Ca1_5 Mg3_5 3.315593 1_555
Ca1_5 Mg3_7 3.315593 1_545
Ca1_5 Mg1_7 3.384167 1_545
Ca1_5 Mg1_5 3.384167 1_555
Ca1_5 Mg1_3 3.384167 1_645
Ca1_5 Mg1_1 3.384167 1_655
Ca1_5 Mg2_1 3.446448 1_655
Ca1_5 Mg2_5 3.446448 1_555
Ca1_5 Ca1_7 3.676691 1_555
Ca1_5 Ca1_7 3.676691 1_545
Ca1_6 Mg3_4 3.315593 1_555
Ca1_6 Mg3_6 3.315593 1_555
Ca1_6 Mg1_4 3.384167 1_555
Ca1_6 Mg1_0 3.384167 1_655
Ca1_6 Mg1_6 3.384167 1_555
Ca1_6 Mg1_2 3.384167 1_655
Ca1_6 Mg2_2 3.446448 1_655
Ca1_6 Mg2_6 3.446448 1_555
Ca1_7 Mg3_5 3.315593 1_555
Ca1_7 Mg3_7 3.315593 1_555
Ca1_7 Mg1_5 3.384167 1_555
Ca1_7 Mg1_1 3.384167 1_655
Ca1_7 Mg1_7 3.384167 1_555
Ca1_7 Mg1_3 3.384167 1_655
Ca1_7 Mg2_3 3.446448 1_655
Ca1_7 Mg2_7 3.446448 1_555
Ca2_0 Mg0_1 3.424777 1_555
Ca2_0 Mg0_5 3.424777 1_555
Ca2_0 Mg3_1 3.425093 1_555
Ca2_0 Mg3_3 3.425093 1_545
Ca2_0 Mg6_4 3.450819 1_555
Ca2_0 Mg6_0 3.450819 1_555
Ca2_0 Mg6_2 3.450819 1_545
Ca2_0 Mg6_6 3.450819 1_545
Ca2_0 Ca2_2 3.676691 1_555
Ca2_0 Ca2_2 3.676691 1_545
Ca2_0 Ca3_2 3.729255 1_545
Ca2_0 Ca3_0 3.729255 1_555
Ca2_1 Mg0_0 3.424777 1_556
Ca2_1 Mg0_4 3.424777 1_556
Ca2_1 Mg3_2 3.425093 1_546
Ca2_1 Mg3_0 3.425093 1_556
Ca2_1 Mg6_1 3.450819 1_555
Ca2_1 Mg6_5 3.450819 1_555
Ca2_1 Mg6_3 3.450819 1_545
Ca2_1 Mg6_7 3.450819 1_545
Ca2_1 Ca2_3 3.676691 1_555
Ca2_1 Ca2_3 3.676691 1_545
Ca2_1 Ca3_1 3.729255 1_555
Ca2_1 Ca3_3 3.729255 1_545
Ca2_2 Mg0_3 3.424777 1_555
Ca2_2 Mg0_7 3.424777 1_555
Ca2_2 Mg3_1 3.425093 1_555
Ca2_2 Mg3_3 3.425093 1_555
Ca2_2 Mg6_4 3.450819 1_555
Ca2_2 Mg6_0 3.450819 1_555
Ca2_2 Mg6_2 3.450819 1_555
Ca2_2 Mg6_6 3.450819 1_555
Ca2_2 Ca3_0 3.729255 1_555
Ca2_2 Ca3_2 3.729255 1_555
Ca2_3 Mg0_2 3.424777 1_556
Ca2_3 Mg0_6 3.424777 1_556
Ca2_3 Mg3_0 3.425093 1_556
Ca2_3 Mg3_2 3.425093 1_556
Ca2_3 Mg6_1 3.450819 1_555
Ca2_3 Mg6_5 3.450819 1_555
Ca2_3 Mg6_7 3.450819 1_555
Ca2_3 Mg6_3 3.450819 1_555
Ca2_3 Ca3_1 3.729255 1_555
Ca2_3 Ca3_3 3.729255 1_555
Ca2_4 Mg0_1 3.424777 1_655
Ca2_4 Mg0_5 3.424777 1_555
Ca2_4 Mg3_5 3.425093 1_555
Ca2_4 Mg3_7 3.425093 1_545
Ca2_4 Mg6_4 3.450819 1_555
Ca2_4 Mg6_0 3.450819 1_655
Ca2_4 Mg6_6 3.450819 1_545
Ca2_4 Mg6_2 3.450819 1_645
Ca2_4 Ca2_6 3.676691 1_555
Ca2_4 Ca2_6 3.676691 1_545
Ca2_4 Ca3_6 3.729255 1_545
Ca2_4 Ca3_4 3.729255 1_555
Ca2_5 Mg0_0 3.424777 1_656
Ca2_5 Mg0_4 3.424777 1_556
Ca2_5 Mg3_6 3.425093 1_546
Ca2_5 Mg3_4 3.425093 1_556
Ca2_5 Mg6_5 3.450819 1_555
Ca2_5 Mg6_1 3.450819 1_655
Ca2_5 Mg6_3 3.450819 1_645
Ca2_5 Mg6_7 3.450819 1_545
Ca2_5 Ca2_7 3.676691 1_555
Ca2_5 Ca2_7 3.676691 1_545
Ca2_5 Ca3_5 3.729255 1_555
Ca2_5 Ca3_7 3.729255 1_545
Ca2_6 Mg0_7 3.424777 1_555
Ca2_6 Mg0_3 3.424777 1_655
Ca2_6 Mg3_7 3.425093 1_555
Ca2_6 Mg3_5 3.425093 1_555
Ca2_6 Mg6_4 3.450819 1_555
Ca2_6 Mg6_0 3.450819 1_655
Ca2_6 Mg6_2 3.450819 1_655
Ca2_6 Mg6_6 3.450819 1_555
Ca2_6 Ca3_4 3.729255 1_555
Ca2_6 Ca3_6 3.729255 1_555
Ca2_7 Mg0_2 3.424777 1_656
Ca2_7 Mg0_6 3.424777 1_556
Ca2_7 Mg3_4 3.425093 1_556
Ca2_7 Mg3_6 3.425093 1_556
Ca2_7 Mg6_5 3.450819 1_555
Ca2_7 Mg6_1 3.450819 1_655
Ca2_7 Mg6_7 3.450819 1_555
Ca2_7 Mg6_3 3.450819 1_655
Ca2_7 Ca3_5 3.729255 1_555
Ca2_7 Ca3_7 3.729255 1_555
Ca3_0 Mg7_2 3.315593 1_555
Ca3_0 Mg7_0 3.315593 1_555
Ca3_0 Mg5_4 3.384167 1_555
Ca3_0 Mg5_2 3.384167 1_555
Ca3_0 Mg5_6 3.384167 1_555
Ca3_0 Mg5_0 3.384167 1_555
Ca3_0 Mg6_0 3.446448 1_555
Ca3_0 Mg6_4 3.446448 1_555
Ca3_0 Ca3_2 3.676691 1_545
Ca3_0 Ca3_2 3.676691 1_555
Ca3_1 Mg7_1 3.315593 1_555
Ca3_1 Mg7_3 3.315593 1_555
Ca3_1 Mg5_7 3.384167 1_555
Ca3_1 Mg5_1 3.384167 1_555
Ca3_1 Mg5_3 3.384167 1_555
Ca3_1 Mg5_5 3.384167 1_555
Ca3_1 Mg6_1 3.446448 1_555
Ca3_1 Mg6_5 3.446448 1_555
Ca3_1 Ca3_3 3.676691 1_545
Ca3_1 Ca3_3 3.676691 1_555
Ca3_2 Mg7_2 3.315593 1_555
Ca3_2 Mg7_0 3.315593 1_565
Ca3_2 Mg5_4 3.384167 1_565
Ca3_2 Mg5_0 3.384167 1_565
Ca3_2 Mg5_6 3.384167 1_555
Ca3_2 Mg5_2 3.384167 1_555
Ca3_2 Mg6_2 3.446448 1_555
Ca3_2 Mg6_6 3.446448 1_555
Ca3_3 Mg7_1 3.315593 1_565
Ca3_3 Mg7_3 3.315593 1_555
Ca3_3 Mg5_5 3.384167 1_565
Ca3_3 Mg5_1 3.384167 1_565
Ca3_3 Mg5_3 3.384167 1_555
Ca3_3 Mg5_7 3.384167 1_555
Ca3_3 Mg6_3 3.446448 1_555
Ca3_3 Mg6_7 3.446448 1_555
Ca3_4 Mg7_4 3.315593 1_555
Ca3_4 Mg7_6 3.315593 1_555
Ca3_4 Mg5_4 3.384167 1_555
Ca3_4 Mg5_2 3.384167 1_655
Ca3_4 Mg5_6 3.384167 1_555
Ca3_4 Mg5_0 3.384167 1_655
Ca3_4 Mg6_0 3.446448 1_655
Ca3_4 Mg6_4 3.446448 1_555
Ca3_4 Ca3_6 3.676691 1_545
Ca3_4 Ca3_6 3.676691 1_555
Ca3_5 Mg7_7 3.315593 1_555
Ca3_5 Mg7_5 3.315593 1_555
Ca3_5 Mg5_3 3.384167 1_655
Ca3_5 Mg5_7 3.384167 1_555
Ca3_5 Mg5_5 3.384167 1_555
Ca3_5 Mg5_1 3.384167 1_655
Ca3_5 Mg6_1 3.446448 1_655
Ca3_5 Mg6_5 3.446448 1_555
Ca3_5 Ca3_7 3.676691 1_545
Ca3_5 Ca3_7 3.676691 1_555
Ca3_6 Mg7_6 3.315593 1_555
Ca3_6 Mg7_4 3.315593 1_565
Ca3_6 Mg5_4 3.384167 1_565
Ca3_6 Mg5_0 3.384167 1_665
Ca3_6 Mg5_6 3.384167 1_555
Ca3_6 Mg5_2 3.384167 1_655
Ca3_6 Mg6_6 3.446448 1_555
Ca3_6 Mg6_2 3.446448 1_655
Ca3_7 Mg7_5 3.315593 1_565
Ca3_7 Mg7_7 3.315593 1_555
Ca3_7 Mg5_5 3.384167 1_565
Ca3_7 Mg5_1 3.384167 1_665
Ca3_7 Mg5_3 3.384167 1_655
Ca3_7 Mg5_7 3.384167 1_555
Ca3_7 Mg6_7 3.446448 1_555
Ca3_7 Mg6_3 3.446448 1_655
Mg0_0 Mg1_0 3.241212 1_555
Mg0_0 Mg1_2 3.241212 1_545
Mg0_0 Mg3_2 3.362021 1_545
Mg0_0 Mg3_0 3.362021 1_555
Mg0_0 Mg3_4 3.362021 1_455
Mg0_0 Mg3_6 3.362021 1_445
Mg0_1 Mg1_1 3.241212 1_555
Mg0_1 Mg1_3 3.241212 1_545
Mg0_1 Mg3_1 3.362021 1_555
Mg0_1 Mg3_5 3.362021 1_455
Mg0_1 Mg3_3 3.362021 1_545
Mg0_1 Mg3_7 3.362021 1_445
Mg0_2 Mg1_0 3.241212 1_555
Mg0_2 Mg1_2 3.241212 1_555
Mg0_2 Mg3_0 3.362021 1_555
Mg0_2 Mg3_4 3.362021 1_455
Mg0_2 Mg3_6 3.362021 1_455
Mg0_2 Mg3_2 3.362021 1_555
Mg0_3 Mg1_1 3.241212 1_555
Mg0_3 Mg1_3 3.241212 1_555
Mg0_3 Mg3_1 3.362021 1_555
Mg0_3 Mg3_5 3.362021 1_455
Mg0_3 Mg3_7 3.362021 1_455
Mg0_3 Mg3_3 3.362021 1_555
Mg0_4 Mg1_4 3.241212 1_555
Mg0_4 Mg1_6 3.241212 1_545
Mg0_4 Mg3_4 3.362021 1_555
Mg0_4 Mg3_2 3.362021 1_545
Mg0_4 Mg3_0 3.362021 1_555
Mg0_4 Mg3_6 3.362021 1_545
Mg0_5 Mg1_7 3.241212 1_545
Mg0_5 Mg1_5 3.241212 1_555
Mg0_5 Mg3_1 3.362021 1_555
Mg0_5 Mg3_5 3.362021 1_555
Mg0_5 Mg3_7 3.362021 1_545
Mg0_5 Mg3_3 3.362021 1_545
Mg0_6 Mg1_4 3.241212 1_555
Mg0_6 Mg1_6 3.241212 1_555
Mg0_6 Mg3_4 3.362021 1_555
Mg0_6 Mg3_0 3.362021 1_555
Mg0_6 Mg3_6 3.362021 1_555
Mg0_6 Mg3_2 3.362021 1_555
Mg0_7 Mg1_5 3.241212 1_555
Mg0_7 Mg1_7 3.241212 1_555
Mg0_7 Mg3_1 3.362021 1_555
Mg0_7 Mg3_5 3.362021 1_555
Mg0_7 Mg3_7 3.362021 1_555
Mg0_7 Mg3_3 3.362021 1_555
Mg1_0 Mg3_0 3.293958 1_555
Mg1_0 Mg3_4 3.293958 1_455
Mg1_0 Mg2_2 3.531151 1_555
Mg1_0 Mg2_0 3.531151 1_555
Mg1_1 Mg3_5 3.293958 1_455
Mg1_1 Mg3_1 3.293958 1_555
Mg1_1 Mg2_1 3.531151 1_555
Mg1_1 Mg2_3 3.531151 1_555
Mg1_2 Mg3_6 3.293958 1_455
Mg1_2 Mg3_2 3.293958 1_555
Mg1_2 Mg2_2 3.531151 1_555
Mg1_2 Mg2_0 3.531151 1_565
Mg1_3 Mg3_7 3.293958 1_455
Mg1_3 Mg3_3 3.293958 1_555
Mg1_3 Mg2_1 3.531151 1_565
Mg1_3 Mg2_3 3.531151 1_555
Mg1_4 Mg3_4 3.293958 1_555
Mg1_4 Mg3_0 3.293958 1_555
Mg1_4 Mg2_6 3.531151 1_555
Mg1_4 Mg2_4 3.531151 1_555
Mg1_5 Mg3_1 3.293958 1_555
Mg1_5 Mg3_5 3.293958 1_555
Mg1_5 Mg2_5 3.531151 1_555
Mg1_5 Mg2_7 3.531151 1_555
Mg1_6 Mg3_2 3.293958 1_555
Mg1_6 Mg3_6 3.293958 1_555
Mg1_6 Mg2_4 3.531151 1_565
Mg1_6 Mg2_6 3.531151 1_555
Mg1_7 Mg3_7 3.293958 1_555
Mg1_7 Mg3_3 3.293958 1_555
Mg1_7 Mg2_5 3.531151 1_565
Mg1_7 Mg2_7 3.531151 1_555
Mg4_0 Mg5_0 3.241212 1_555
Mg4_0 Mg5_2 3.241212 1_555
Mg4_0 Mg7_2 3.362021 1_555
Mg4_0 Mg7_4 3.362021 1_455
Mg4_0 Mg7_6 3.362021 1_455
Mg4_0 Mg7_0 3.362021 1_555
Mg4_1 Mg5_3 3.241212 1_555
Mg4_1 Mg5_1 3.241212 1_555
Mg4_1 Mg7_1 3.362021 1_555
Mg4_1 Mg7_5 3.362021 1_455
Mg4_1 Mg7_3 3.362021 1_555
Mg4_1 Mg7_7 3.362021 1_455
Mg4_2 Mg5_0 3.241212 1_565
Mg4_2 Mg5_2 3.241212 1_555
Mg4_2 Mg7_0 3.362021 1_565
Mg4_2 Mg7_4 3.362021 1_465
Mg4_2 Mg7_2 3.362021 1_555
Mg4_2 Mg7_6 3.362021 1_455
Mg4_3 Mg5_1 3.241212 1_565
Mg4_3 Mg5_3 3.241212 1_555
Mg4_3 Mg7_5 3.362021 1_465
Mg4_3 Mg7_1 3.362021 1_565
Mg4_3 Mg7_7 3.362021 1_455
Mg4_3 Mg7_3 3.362021 1_555
Mg4_4 Mg5_4 3.241212 1_555
Mg4_4 Mg5_6 3.241212 1_555
Mg4_4 Mg7_2 3.362021 1_555
Mg4_4 Mg7_4 3.362021 1_555
Mg4_4 Mg7_6 3.362021 1_555
Mg4_4 Mg7_0 3.362021 1_555
Mg4_5 Mg5_7 3.241212 1_555
Mg4_5 Mg5_5 3.241212 1_555
Mg4_5 Mg7_1 3.362021 1_555
Mg4_5 Mg7_5 3.362021 1_555
Mg4_5 Mg7_7 3.362021 1_555
Mg4_5 Mg7_3 3.362021 1_555
Mg4_6 Mg5_4 3.241212 1_565
Mg4_6 Mg5_6 3.241212 1_555
Mg4_6 Mg7_0 3.362021 1_565
Mg4_6 Mg7_4 3.362021 1_565
Mg4_6 Mg7_2 3.362021 1_555
Mg4_6 Mg7_6 3.362021 1_555
Mg4_7 Mg5_5 3.241212 1_565
Mg4_7 Mg5_7 3.241212 1_555
Mg4_7 Mg7_5 3.362021 1_565
Mg4_7 Mg7_1 3.362021 1_565
Mg4_7 Mg7_7 3.362021 1_555
Mg4_7 Mg7_3 3.362021 1_555
Mg5_0 Mg7_0 3.293958 1_555
Mg5_0 Mg7_4 3.293958 1_455
Mg5_0 Mg6_2 3.531151 1_545
Mg5_0 Mg6_0 3.531151 1_555
Mg5_1 Mg7_1 3.293958 1_555
Mg5_1 Mg7_5 3.293958 1_455
Mg5_1 Mg6_1 3.531151 1_555
Mg5_1 Mg6_3 3.531151 1_545
Mg5_2 Mg7_6 3.293958 1_455
Mg5_2 Mg7_2 3.293958 1_555
Mg5_2 Mg6_2 3.531151 1_555
Mg5_2 Mg6_0 3.531151 1_555
Mg5_3 Mg7_3 3.293958 1_555
Mg5_3 Mg7_7 3.293958 1_455
Mg5_3 Mg6_1 3.531151 1_555
Mg5_3 Mg6_3 3.531151 1_555
Mg5_4 Mg7_0 3.293958 1_555
Mg5_4 Mg7_4 3.293958 1_555
Mg5_4 Mg6_6 3.531151 1_545
Mg5_4 Mg6_4 3.531151 1_555
Mg5_5 Mg7_1 3.293958 1_555
Mg5_5 Mg7_5 3.293958 1_555
Mg5_5 Mg6_5 3.531151 1_555
Mg5_5 Mg6_7 3.531151 1_545
Mg5_6 Mg7_2 3.293958 1_555
Mg5_6 Mg7_6 3.293958 1_555
Mg5_6 Mg6_6 3.531151 1_555
Mg5_6 Mg6_4 3.531151 1_555
Mg5_7 Mg7_3 3.293958 1_555
Mg5_7 Mg7_7 3.293958 1_555
Mg5_7 Mg6_5 3.531151 1_555
Mg5_7 Mg6_7 3.531151 1_555
