# generated using pymatgen
data_Co3H
_symmetry_space_group_name_H-M   'P 1'
_cell_length_a   5.03338583
_cell_length_b   5.03338583
_cell_length_c   24.21832664
_cell_angle_alpha   90.00000000
_cell_angle_beta   90.00000000
_cell_angle_gamma   119.99999464
_symmetry_Int_Tables_number   1
_chemical_formula_structural   Co3H
_chemical_formula_sum   'Co48 H16'
_cell_volume   531.36779859
_cell_formula_units_Z   16
loop_
 _symmetry_equiv_pos_site_id
 _symmetry_equiv_pos_as_xyz
  1  'x, y, z'
loop_
 _atom_site_type_symbol
 _atom_site_label
 _atom_site_symmetry_multiplicity
 _atom_site_fract_x
 _atom_site_fract_y
 _atom_site_fract_z
 _atom_site_occupancy
  Co  Co0_0  1  0.33333350  0.16666650  0.45555637  1
  Co  Co0_1  1  0.33333350  0.16666650  0.95555637  1
  Co  Co0_2  1  0.33333350  0.66666650  0.45555637  1
  Co  Co0_3  1  0.33333350  0.66666650  0.95555637  1
  Co  Co0_4  1  0.83333350  0.16666650  0.45555637  1
  Co  Co0_5  1  0.83333350  0.16666650  0.95555637  1
  Co  Co0_6  1  0.83333350  0.66666650  0.45555637  1
  Co  Co0_7  1  0.83333350  0.66666650  0.95555637  1
  Co  Co1_0  1  0.16666650  0.33333350  0.20545412  1
  Co  Co1_1  1  0.16666650  0.33333350  0.70545412  1
  Co  Co1_2  1  0.16666650  0.83333350  0.20545412  1
  Co  Co1_3  1  0.16666650  0.83333350  0.70545412  1
  Co  Co1_4  1  0.66666650  0.33333350  0.20545412  1
  Co  Co1_5  1  0.66666650  0.33333350  0.70545412  1
  Co  Co1_6  1  0.66666650  0.83333350  0.20545412  1
  Co  Co1_7  1  0.66666650  0.83333350  0.70545412  1
  Co  Co2_0  1  0.33333350  0.16666650  0.29466740  1
  Co  Co2_1  1  0.33333350  0.16666650  0.79466741  1
  Co  Co2_2  1  0.33333350  0.66666650  0.29466740  1
  Co  Co2_3  1  0.33333350  0.66666650  0.79466741  1
  Co  Co2_4  1  0.83333350  0.16666650  0.29466740  1
  Co  Co2_5  1  0.83333350  0.16666650  0.79466741  1
  Co  Co2_6  1  0.83333350  0.66666650  0.29466740  1
  Co  Co2_7  1  0.83333350  0.66666650  0.79466741  1
  Co  Co3_0  1  0.16666650  0.33333350  0.04470221  1
  Co  Co3_1  1  0.16666650  0.33333350  0.54470221  1
  Co  Co3_2  1  0.16666650  0.83333350  0.04470221  1
  Co  Co3_3  1  0.16666650  0.83333350  0.54470221  1
  Co  Co3_4  1  0.66666650  0.33333350  0.04470221  1
  Co  Co3_5  1  0.66666650  0.33333350  0.54470221  1
  Co  Co3_6  1  0.66666650  0.83333350  0.04470221  1
  Co  Co3_7  1  0.66666650  0.83333350  0.54470221  1
  Co  Co4_0  1  0.33333350  0.16666650  0.12506152  1
  Co  Co4_1  1  0.33333350  0.16666650  0.62506152  1
  Co  Co4_2  1  0.33333350  0.66666650  0.12506152  1
  Co  Co4_3  1  0.33333350  0.66666650  0.62506152  1
  Co  Co4_4  1  0.83333350  0.16666650  0.12506152  1
  Co  Co4_5  1  0.83333350  0.16666650  0.62506152  1
  Co  Co4_6  1  0.83333350  0.66666650  0.12506152  1
  Co  Co4_7  1  0.83333350  0.66666650  0.62506152  1
  Co  Co5_0  1  0.16666650  0.33333350  0.37511252  1
  Co  Co5_1  1  0.16666650  0.33333350  0.87511251  1
  Co  Co5_2  1  0.16666650  0.83333350  0.37511252  1
  Co  Co5_3  1  0.16666650  0.83333350  0.87511251  1
  Co  Co5_4  1  0.66666650  0.33333350  0.37511252  1
  Co  Co5_5  1  0.66666650  0.33333350  0.87511251  1
  Co  Co5_6  1  0.66666650  0.83333350  0.37511252  1
  Co  Co5_7  1  0.66666650  0.83333350  0.87511251  1
  H  H0_0  1  0.00000000  0.00000000  0.00004977  1
  H  H0_1  1  0.00000000  0.00000000  0.50004978  1
  H  H0_2  1  0.00000000  0.50000000  0.00004977  1
  H  H0_3  1  0.00000000  0.50000000  0.50004978  1
  H  H0_4  1  0.50000000  0.00000000  0.00004977  1
  H  H0_5  1  0.50000000  0.00000000  0.50004978  1
  H  H0_6  1  0.50000000  0.50000000  0.00004977  1
  H  H0_7  1  0.50000000  0.50000000  0.50004978  1
  H  H1_0  1  0.00000000  0.00000000  0.25005658  1
  H  H1_1  1  0.00000000  0.00000000  0.75005658  1
  H  H1_2  1  0.00000000  0.50000000  0.25005658  1
  H  H1_3  1  0.00000000  0.50000000  0.75005658  1
  H  H1_4  1  0.50000000  0.00000000  0.25005658  1
  H  H1_5  1  0.50000000  0.00000000  0.75005658  1
  H  H1_6  1  0.50000000  0.50000000  0.25005658  1
  H  H1_7  1  0.50000000  0.50000000  0.75005658  1
loop_
_geom_bond_atom_site_label_1
_geom_bond_atom_site_label_2
_geom_bond_distance
_geom_bond_site_symmetry_2
Co0_0 H0_5 1.808969 1_555
Co0_0 H0_7 1.808971 1_555
Co0_0 H0_1 1.808971 1_555
Co0_0 Co5_4 2.430388 1_555
Co0_0 Co5_2 2.430388 1_545
Co0_0 Co5_0 2.430391 1_555
Co0_1 H0_4 1.808969 1_556
Co0_1 H0_6 1.808971 1_556
Co0_1 H0_0 1.808971 1_556
Co0_1 Co5_5 2.430388 1_555
Co0_1 Co5_3 2.430388 1_545
Co0_1 Co5_1 2.430391 1_555
Co0_2 H0_7 1.808969 1_555
Co0_2 H0_3 1.808971 1_555
Co0_2 H0_5 1.808971 1_565
Co0_2 Co5_0 2.430388 1_555
Co0_2 Co5_6 2.430388 1_555
Co0_2 Co5_2 2.430391 1_555
Co0_3 H0_6 1.808969 1_556
Co0_3 H0_2 1.808971 1_556
Co0_3 H0_4 1.808971 1_566
Co0_3 Co5_1 2.430388 1_555
Co0_3 Co5_7 2.430388 1_555
Co0_3 Co5_3 2.430391 1_555
Co0_4 H0_1 1.808969 1_655
Co0_4 H0_3 1.808971 1_655
Co0_4 H0_5 1.808971 1_555
Co0_4 Co5_6 2.430388 1_545
Co0_4 Co5_0 2.430388 1_655
Co0_4 Co5_4 2.430391 1_555
Co0_5 H0_0 1.808969 1_656
Co0_5 H0_2 1.808971 1_656
Co0_5 H0_4 1.808971 1_556
Co0_5 Co5_1 2.430388 1_655
Co0_5 Co5_7 2.430388 1_545
Co0_5 Co5_5 2.430391 1_555
Co0_6 H0_3 1.808969 1_655
Co0_6 H0_7 1.808971 1_555
Co0_6 H0_1 1.808971 1_665
Co0_6 Co5_2 2.430388 1_655
Co0_6 Co5_4 2.430388 1_555
Co0_6 Co5_6 2.430391 1_555
Co0_7 H0_2 1.808969 1_656
Co0_7 H0_6 1.808971 1_556
Co0_7 H0_0 1.808971 1_666
Co0_7 Co5_5 2.430388 1_555
Co0_7 Co5_3 2.430388 1_655
Co0_7 Co5_7 2.430391 1_555
Co1_0 H1_2 1.810544 1_555
Co1_0 H1_0 1.810546 1_555
Co1_0 H1_6 1.810546 1_555
Co1_0 Co4_2 2.429394 1_555
Co1_0 Co4_4 2.429394 1_455
Co1_0 Co4_0 2.429396 1_555
Co1_1 H1_3 1.810544 1_555
Co1_1 H1_7 1.810546 1_555
Co1_1 H1_1 1.810546 1_555
Co1_1 Co4_3 2.429394 1_555
Co1_1 Co4_5 2.429394 1_455
Co1_1 Co4_1 2.429396 1_555
Co1_2 H1_0 1.810544 1_565
Co1_2 H1_4 1.810546 1_565
Co1_2 H1_2 1.810546 1_555
Co1_2 Co4_6 2.429394 1_455
Co1_2 Co4_0 2.429394 1_565
Co1_2 Co4_2 2.429396 1_555
Co1_3 H1_1 1.810544 1_565
Co1_3 H1_3 1.810546 1_555
Co1_3 H1_5 1.810546 1_565
Co1_3 Co4_7 2.429394 1_455
Co1_3 Co4_1 2.429394 1_565
Co1_3 Co4_3 2.429396 1_555
Co1_4 H1_6 1.810544 1_555
Co1_4 H1_4 1.810546 1_555
Co1_4 H1_2 1.810546 1_655
Co1_4 Co4_6 2.429394 1_555
Co1_4 Co4_0 2.429394 1_555
Co1_4 Co4_4 2.429396 1_555
Co1_5 H1_7 1.810544 1_555
Co1_5 H1_3 1.810546 1_655
Co1_5 H1_5 1.810546 1_555
Co1_5 Co4_7 2.429394 1_555
Co1_5 Co4_1 2.429394 1_555
Co1_5 Co4_5 2.429396 1_555
Co1_6 H1_4 1.810544 1_565
Co1_6 H1_6 1.810546 1_555
Co1_6 H1_0 1.810546 1_665
Co1_6 Co4_2 2.429394 1_555
Co1_6 Co4_4 2.429394 1_565
Co1_6 Co4_6 2.429396 1_555
Co1_7 H1_5 1.810544 1_565
Co1_7 H1_7 1.810546 1_555
Co1_7 H1_1 1.810546 1_665
Co1_7 Co4_5 2.429394 1_565
Co1_7 Co4_3 2.429394 1_555
Co1_7 Co4_7 2.429396 1_555
Co2_0 H1_4 1.810665 1_555
Co2_0 H1_6 1.810666 1_555
Co2_0 H1_0 1.810666 1_555
Co2_0 Co5_4 2.430413 1_555
Co2_0 Co5_2 2.430413 1_545
Co2_0 Co5_0 2.430415 1_555
Co2_1 H1_5 1.810665 1_555
Co2_1 H1_1 1.810666 1_555
Co2_1 H1_7 1.810666 1_555
Co2_1 Co5_5 2.430413 1_555
Co2_1 Co5_3 2.430413 1_545
Co2_1 Co5_1 2.430415 1_555
Co2_2 H1_6 1.810665 1_555
Co2_2 H1_2 1.810666 1_555
Co2_2 H1_4 1.810666 1_565
Co2_2 Co5_0 2.430413 1_555
Co2_2 Co5_6 2.430413 1_555
Co2_2 Co5_2 2.430415 1_555
Co2_3 H1_7 1.810665 1_555
Co2_3 H1_3 1.810666 1_555
Co2_3 H1_5 1.810666 1_565
Co2_3 Co5_7 2.430413 1_555
Co2_3 Co5_1 2.430413 1_555
Co2_3 Co5_3 2.430415 1_555
Co2_4 H1_0 1.810665 1_655
Co2_4 H1_4 1.810666 1_555
Co2_4 H1_2 1.810666 1_655
Co2_4 Co5_0 2.430413 1_655
Co2_4 Co5_6 2.430413 1_545
Co2_4 Co5_4 2.430415 1_555
Co2_5 H1_1 1.810665 1_655
Co2_5 H1_5 1.810666 1_555
Co2_5 H1_3 1.810666 1_655
Co2_5 Co5_1 2.430413 1_655
Co2_5 Co5_7 2.430413 1_545
Co2_5 Co5_5 2.430415 1_555
Co2_6 H1_2 1.810665 1_655
Co2_6 H1_6 1.810666 1_555
Co2_6 H1_0 1.810666 1_665
Co2_6 Co5_4 2.430413 1_555
Co2_6 Co5_2 2.430413 1_655
Co2_6 Co5_6 2.430415 1_555
Co2_7 H1_3 1.810665 1_655
Co2_7 H1_7 1.810666 1_555
Co2_7 H1_1 1.810666 1_665
Co2_7 Co5_5 2.430413 1_555
Co2_7 Co5_3 2.430413 1_655
Co2_7 Co5_7 2.430415 1_555
Co3_0 H0_2 1.811266 1_555
Co3_0 H0_6 1.811268 1_555
Co3_0 H0_0 1.811268 1_555
Co3_0 Co4_2 2.428747 1_555
Co3_0 Co4_4 2.428747 1_455
Co3_0 Co4_0 2.428750 1_555
Co3_1 H0_3 1.811266 1_555
Co3_1 H0_7 1.811268 1_555
Co3_1 H0_1 1.811268 1_555
Co3_1 Co4_3 2.428747 1_555
Co3_1 Co4_5 2.428747 1_455
Co3_1 Co4_1 2.428750 1_555
Co3_2 H0_0 1.811266 1_565
Co3_2 H0_4 1.811268 1_565
Co3_2 H0_2 1.811268 1_555
Co3_2 Co4_6 2.428747 1_455
Co3_2 Co4_0 2.428747 1_565
Co3_2 Co4_2 2.428750 1_555
Co3_3 H0_1 1.811266 1_565
Co3_3 H0_5 1.811268 1_565
Co3_3 H0_3 1.811268 1_555
Co3_3 Co4_7 2.428747 1_455
Co3_3 Co4_1 2.428747 1_565
Co3_3 Co4_3 2.428750 1_555
Co3_4 H0_6 1.811266 1_555
Co3_4 H0_4 1.811268 1_555
Co3_4 H0_2 1.811268 1_655
Co3_4 Co4_6 2.428747 1_555
Co3_4 Co4_0 2.428747 1_555
Co3_4 Co4_4 2.428750 1_555
Co3_5 H0_7 1.811266 1_555
Co3_5 H0_3 1.811268 1_655
Co3_5 H0_5 1.811268 1_555
Co3_5 Co4_7 2.428747 1_555
Co3_5 Co4_1 2.428747 1_555
Co3_5 Co4_5 2.428750 1_555
Co3_6 H0_4 1.811266 1_565
Co3_6 H0_6 1.811268 1_555
Co3_6 H0_0 1.811268 1_665
Co3_6 Co4_2 2.428747 1_555
Co3_6 Co4_4 2.428747 1_565
Co3_6 Co4_6 2.428750 1_555
Co3_7 H0_5 1.811266 1_565
Co3_7 H0_7 1.811268 1_555
Co3_7 H0_1 1.811268 1_665
Co3_7 Co4_3 2.428747 1_555
Co3_7 Co4_5 2.428747 1_565
Co3_7 Co4_7 2.428750 1_555
Co4_0 Co4_2 2.516693 1_555
Co4_0 Co4_4 2.516693 1_455
Co4_0 Co4_4 2.516693 1_555
Co4_0 Co4_2 2.516693 1_545
Co4_0 Co4_6 2.516693 1_445
Co4_0 Co4_6 2.516693 1_555
Co4_1 Co4_5 2.516693 1_455
Co4_1 Co4_3 2.516693 1_555
Co4_1 Co4_3 2.516693 1_545
Co4_1 Co4_5 2.516693 1_555
Co4_1 Co4_7 2.516693 1_445
Co4_1 Co4_7 2.516693 1_555
Co4_2 Co4_6 2.516693 1_455
Co4_2 Co4_6 2.516693 1_555
Co4_2 Co4_4 2.516693 1_455
Co4_2 Co4_4 2.516693 1_565
Co4_3 Co4_7 2.516693 1_455
Co4_3 Co4_7 2.516693 1_555
Co4_3 Co4_5 2.516693 1_455
Co4_3 Co4_5 2.516693 1_565
Co4_4 Co4_6 2.516693 1_545
Co4_4 Co4_6 2.516693 1_555
Co4_5 Co4_7 2.516693 1_545
Co4_5 Co4_7 2.516693 1_555
Co5_0 Co5_2 2.516693 1_555
Co5_0 Co5_4 2.516693 1_455
Co5_0 Co5_4 2.516693 1_555
Co5_0 Co5_2 2.516693 1_545
Co5_0 Co5_6 2.516693 1_445
Co5_0 Co5_6 2.516693 1_555
Co5_1 Co5_3 2.516693 1_555
Co5_1 Co5_5 2.516693 1_455
Co5_1 Co5_5 2.516693 1_555
Co5_1 Co5_3 2.516693 1_545
Co5_1 Co5_7 2.516693 1_445
Co5_1 Co5_7 2.516693 1_555
Co5_2 Co5_6 2.516693 1_455
Co5_2 Co5_6 2.516693 1_555
Co5_2 Co5_4 2.516693 1_455
Co5_2 Co5_4 2.516693 1_565
Co5_3 Co5_7 2.516693 1_555
Co5_3 Co5_7 2.516693 1_455
Co5_3 Co5_5 2.516693 1_455
Co5_3 Co5_5 2.516693 1_565
Co5_4 Co5_6 2.516693 1_555
Co5_4 Co5_6 2.516693 1_545
Co5_5 Co5_7 2.516693 1_555
Co5_5 Co5_7 2.516693 1_545
