# generated using pymatgen
data_La15Cd2Rh5
_symmetry_space_group_name_H-M   'P 1'
_cell_length_a   15.96205575
_cell_length_b   15.96205575
_cell_length_c   15.96205563
_cell_angle_alpha   37.22495794
_cell_angle_beta   37.22495794
_cell_angle_gamma   37.22495724
_symmetry_Int_Tables_number   1
_chemical_formula_structural   La15Cd2Rh5
_chemical_formula_sum   'La30 Cd4 Rh10'
_cell_volume   1334.10832292
_cell_formula_units_Z   2
loop_
 _symmetry_equiv_pos_site_id
 _symmetry_equiv_pos_as_xyz
  1  'x, y, z'
loop_
 _atom_site_type_symbol
 _atom_site_label
 _atom_site_symmetry_multiplicity
 _atom_site_fract_x
 _atom_site_fract_y
 _atom_site_fract_z
 _atom_site_occupancy
  La  La0  1  0.31983800  0.94175800  0.31983800  1
  La  La1  1  0.31983800  0.31983800  0.94175800  1
  La  La2  1  0.94175800  0.31983800  0.31983800  1
  La  La3  1  0.17344800  0.77920600  0.17344800  1
  La  La4  1  0.17344800  0.17344800  0.77920600  1
  La  La5  1  0.77920600  0.17344800  0.17344800  1
  La  La6  1  0.32402800  0.70640500  0.32402800  1
  La  La7  1  0.32402800  0.32402800  0.70640500  1
  La  La8  1  0.70640500  0.32402800  0.32402800  1
  La  La9  1  0.47711600  0.84887300  0.47711600  1
  La  La10  1  0.47711600  0.47711600  0.84887300  1
  La  La11  1  0.84887300  0.47711600  0.47711600  1
  La  La12  1  0.79779100  0.42030800  0.79779100  1
  La  La13  1  0.79779100  0.79779100  0.42030800  1
  La  La14  1  0.42030800  0.79779100  0.79779100  1
  La  La15  1  0.61652700  0.99515500  0.61652700  1
  La  La16  1  0.61652700  0.61652700  0.99515500  1
  La  La17  1  0.99515500  0.61652700  0.61652700  1
  La  La18  1  0.75925700  0.13442400  0.75925700  1
  La  La19  1  0.75925700  0.75925700  0.13442400  1
  La  La20  1  0.13442400  0.75925700  0.75925700  1
  La  La21  1  0.08258000  0.70552600  0.08258000  1
  La  La22  1  0.08258000  0.08258000  0.70552600  1
  La  La23  1  0.70552600  0.08258000  0.08258000  1
  La  La24  1  0.94013000  0.55960900  0.94013000  1
  La  La25  1  0.94013000  0.94013000  0.55960900  1
  La  La26  1  0.55960900  0.94013000  0.94013000  1
  La  La27  1  0.11194600  0.11194600  0.11194600  1
  La  La28  1  0.26542900  0.26542900  0.26542900  1
  La  La29  1  0.52156500  0.52156500  0.52156500  1
  Cd  Cd0  1  0.44018700  0.12285600  0.44018700  1
  Cd  Cd1  1  0.44018700  0.44018700  0.12285600  1
  Cd  Cd2  1  0.12285600  0.44018700  0.44018700  1
  Cd  Cd3  1  0.39237300  0.39237300  0.39237300  1
  Rh  Rh0  1  0.63194100  0.19648100  0.63194100  1
  Rh  Rh1  1  0.63194100  0.63194100  0.19648100  1
  Rh  Rh2  1  0.19648100  0.63194100  0.63194100  1
  Rh  Rh3  1  0.93120000  0.37236800  0.93120000  1
  Rh  Rh4  1  0.93120000  0.93120000  0.37236800  1
  Rh  Rh5  1  0.37236800  0.93120000  0.93120000  1
  Rh  Rh6  1  0.08851100  0.51745000  0.08851100  1
  Rh  Rh7  1  0.08851100  0.08851100  0.51745000  1
  Rh  Rh8  1  0.51745000  0.08851100  0.08851100  1
  Rh  Rh9  1  0.99954800  0.99954800  0.99954800  1
loop_
_geom_bond_atom_site_label_1
_geom_bond_atom_site_label_2
_geom_bond_distance
_geom_bond_site_symmetry_2
La0 Rh7 2.918053 1_565
La0 Rh8 2.918053 1_565
La0 La9 3.603466 1_555
La1 Rh8 2.918053 1_556
La1 Rh6 2.918053 1_556
La1 La10 3.603466 1_555
La2 Rh7 2.918053 1_655
La2 Rh6 2.918053 1_655
La3 Rh4 2.948737 1_455
La3 Rh5 2.948738 1_554
La3 Rh9 2.992596 1_454
La4 Rh5 2.948737 1_545
La4 Rh3 2.948737 1_455
La4 Rh9 2.992596 1_445
La5 Rh4 2.948737 1_545
La5 Rh3 2.948738 1_554
La5 Rh9 2.992596 1_544
La6 Rh2 2.886019 1_555
La6 Rh1 2.886019 1_555
La6 Rh4 3.696098 1_455
La6 Rh5 3.696098 1_554
La7 Rh0 2.886019 1_555
La7 Rh2 2.886019 1_555
La7 Rh3 3.696098 1_455
La7 Rh5 3.696098 1_545
La8 Rh0 2.886019 1_555
La8 Rh1 2.886019 1_555
La8 Rh4 3.696098 1_545
La8 Rh3 3.696098 1_554
La9 Rh7 3.646711 1_565
La9 Rh8 3.646711 1_565
La10 Rh8 3.646711 1_556
La10 Rh6 3.646711 1_556
La10 La28 3.697130 1_556
La10 La9 3.787863 1_555
La10 La11 3.787863 1_555
La10 La23 3.814441 1_556
La10 La21 3.814441 1_556
La10 La14 3.850544 1_555
La10 La12 3.850544 1_555
La10 La18 3.901279 1_555
La10 La20 3.901279 1_555
La10 La29 4.159038 1_555
La11 La2 3.603466 1_555
La11 Rh7 3.646711 1_655
La11 Rh6 3.646711 1_655
La11 La28 3.697130 1_655
La11 La9 3.787863 1_555
La11 La22 3.814441 1_655
La11 La21 3.814441 1_655
La11 La12 3.850544 1_555
La11 La13 3.850544 1_555
La11 La19 3.901279 1_555
La11 La18 3.901279 1_555
La11 La29 4.159038 1_555
La12 Rh3 3.418546 1_555
La12 La4 3.601500 1_655
La12 La5 3.601500 1_556
La12 Rh9 3.670992 1_545
La12 La14 3.846205 1_555
La12 La13 3.846205 1_555
La12 La22 3.853593 1_655
La12 La23 3.853593 1_556
La12 La16 3.856389 1_555
La12 La17 3.856389 1_555
La13 Rh4 3.418546 1_555
La13 La5 3.601500 1_565
La13 La3 3.601500 1_655
La13 Rh9 3.670992 1_554
La13 La14 3.846205 1_555
La13 La9 3.850544 1_555
La13 La23 3.853593 1_565
La13 La21 3.853593 1_655
La13 La17 3.856389 1_555
La13 La15 3.856389 1_555
La14 Rh5 3.418546 1_555
La14 La4 3.601500 1_565
La14 La3 3.601500 1_556
La14 Rh9 3.670992 1_455
La14 La9 3.850544 1_555
La14 La22 3.853593 1_565
La14 La21 3.853593 1_556
La14 La16 3.856389 1_555
La14 La15 3.856389 1_555
La15 Rh4 2.907828 1_555
La15 Rh5 2.907828 1_555
La16 Rh3 2.907828 1_555
La16 Rh5 2.907828 1_555
La17 Rh4 2.907828 1_555
La17 Rh3 2.907828 1_555
La18 Rh8 3.020243 1_556
La18 Rh7 3.020243 1_655
La18 Rh0 3.067001 1_555
La19 Rh8 3.020243 1_565
La19 Rh6 3.020243 1_655
La19 Rh1 3.067001 1_555
La19 La9 3.901279 1_555
La20 Rh6 3.020243 1_556
La20 Rh7 3.020243 1_565
La20 Rh2 3.067001 1_555
La20 La9 3.901279 1_555
La21 Rh6 2.852973 1_555
La21 Rh9 2.919757 1_454
La22 Rh7 2.852973 1_555
La22 Rh9 2.919757 1_445
La22 La9 3.814441 1_545
La23 Rh8 2.852973 1_555
La23 Rh9 2.919757 1_544
La23 La9 3.814441 1_545
La24 Rh1 2.949293 1_556
La24 Rh2 2.949293 1_655
La24 Rh3 3.219088 1_555
La25 Rh0 2.949293 1_565
La25 Rh2 2.949293 1_655
La25 Rh4 3.219088 1_555
La26 Rh1 2.949293 1_556
La26 Rh0 2.949293 1_565
La26 Rh5 3.219088 1_555
La27 Rh5 2.997413 1_544
La27 Rh3 2.997413 1_454
La27 Rh4 2.997413 1_445
La28 Rh6 2.941010 1_555
La28 Rh8 2.941010 1_555
La28 Rh7 2.941010 1_555
La28 La9 3.697130 1_545
La29 Rh1 2.993134 1_555
La29 Rh2 2.993134 1_555
La29 Rh0 2.993134 1_555
La29 La9 4.159038 1_555
Cd0 Cd3 3.184726 1_555
Cd0 Cd2 3.233312 1_555
Cd0 Cd1 3.233312 1_555
Cd0 La9 3.487619 1_545
Cd0 La13 3.489441 1_545
Cd0 La14 3.489441 1_545
Cd0 La4 3.585413 1_555
Cd0 La5 3.585413 1_555
Cd0 La28 3.593623 1_555
Cd0 La23 3.733792 1_555
Cd0 La22 3.733792 1_555
Cd0 La15 3.787294 1_545
Cd1 Cd3 3.184726 1_555
Cd1 Cd2 3.233312 1_555
Cd1 La10 3.487619 1_554
Cd1 La12 3.489441 1_554
Cd1 La14 3.489441 1_554
Cd1 La5 3.585413 1_555
Cd1 La3 3.585413 1_555
Cd1 La28 3.593623 1_555
Cd1 La21 3.733792 1_555
Cd1 La23 3.733792 1_555
Cd1 La16 3.787294 1_554
Cd2 Cd3 3.184726 1_555
Cd2 La11 3.487619 1_455
Cd2 La13 3.489441 1_455
Cd2 La12 3.489441 1_455
Cd2 La4 3.585413 1_555
Cd2 La3 3.585413 1_555
Cd2 La28 3.593623 1_555
Cd2 La21 3.733792 1_555
Cd2 La22 3.733792 1_555
Cd2 La17 3.787294 1_455
Cd3 La7 3.461869 1_555
Cd3 La8 3.461869 1_555
Cd3 La6 3.461869 1_555
Cd3 La5 3.642996 1_555
Cd3 La3 3.642996 1_555
Cd3 La4 3.642996 1_555
Cd3 La15 3.733112 1_545
Cd3 La17 3.733112 1_455
Cd3 La16 3.733112 1_554
