# generated using pymatgen
data_Mg6CuB
_symmetry_space_group_name_H-M   'P 1'
_cell_length_a   4.48891700
_cell_length_b   6.40211700
_cell_length_c   10.17651100
_cell_angle_alpha   90.00000000
_cell_angle_beta   90.00000000
_cell_angle_gamma   90.00000000
_symmetry_Int_Tables_number   1
_chemical_formula_structural   Mg6CuB
_chemical_formula_sum   'Mg12 Cu2 B2'
_cell_volume   292.45839243
_cell_formula_units_Z   2
loop_
 _symmetry_equiv_pos_site_id
 _symmetry_equiv_pos_as_xyz
  1  'x, y, z'
loop_
 _atom_site_type_symbol
 _atom_site_label
 _atom_site_symmetry_multiplicity
 _atom_site_fract_x
 _atom_site_fract_y
 _atom_site_fract_z
 _atom_site_occupancy
  Mg  Mg0  1  0.50000000  0.25349300  0.59633400  1
  Mg  Mg1  1  0.50000000  0.74650700  0.59633400  1
  Mg  Mg2  1  0.00000000  0.24242100  0.40690000  1
  Mg  Mg3  1  0.00000000  0.75757900  0.40690000  1
  Mg  Mg4  1  0.00000000  0.00000000  0.67372200  1
  Mg  Mg5  1  0.00000000  0.00000000  0.17319500  1
  Mg  Mg6  1  0.50000000  0.75349300  0.09633400  1
  Mg  Mg7  1  0.50000000  0.24650700  0.09633400  1
  Mg  Mg8  1  0.00000000  0.74242100  0.90690000  1
  Mg  Mg9  1  0.00000000  0.25757900  0.90690000  1
  Mg  Mg10  1  0.00000000  0.50000000  0.17372200  1
  Mg  Mg11  1  0.00000000  0.50000000  0.67319500  1
  Cu  Cu0  1  0.50000000  0.00000000  0.83770900  1
  Cu  Cu1  1  0.50000000  0.50000000  0.33770900  1
  B  B0  1  0.50000000  0.00000000  0.30891200  1
  B  B1  1  0.50000000  0.50000000  0.80891200  1
loop_
_geom_bond_atom_site_label_1
_geom_bond_atom_site_label_2
_geom_bond_distance
_geom_bond_site_symmetry_2
Cu0 Mg4 2.796880 1_555
Cu0 Mg4 2.796880 1_655
Cu0 Mg9 2.872760 1_655
Cu0 Mg8 2.872760 1_645
Cu0 Mg8 2.872760 1_545
Cu0 Mg9 2.872760 1_555
Cu0 Mg0 2.944055 1_555
Cu0 Mg1 2.944055 1_545
Cu0 Mg7 3.068796 1_556
Cu0 Mg6 3.068796 1_546
Cu1 Mg10 2.796880 1_555
Cu1 Mg10 2.796880 1_655
Cu1 Mg2 2.872760 1_655
Cu1 Mg3 2.872760 1_555
Cu1 Mg3 2.872760 1_655
Cu1 Mg2 2.872760 1_555
Cu1 Mg6 2.944055 1_555
Cu1 Mg7 2.944055 1_555
Cu1 Mg1 3.068796 1_555
Cu1 Mg0 3.068796 1_555
B0 Mg5 2.635356 1_655
B0 Mg5 2.635356 1_555
B0 Mg7 2.677777 1_555
B0 Mg6 2.677777 1_545
B0 Mg2 2.905285 1_555
B0 Mg3 2.905285 1_545
B0 Mg3 2.905285 1_645
B0 Mg2 2.905285 1_655
B1 Mg11 2.635356 1_555
B1 Mg11 2.635356 1_655
B1 Mg1 2.677777 1_555
B1 Mg0 2.677777 1_555
B1 Mg9 2.905285 1_655
B1 Mg8 2.905285 1_555
B1 Mg8 2.905285 1_655
B1 Mg9 2.905285 1_555
