# generated using pymatgen
data_RbV3Cd4O12
_symmetry_space_group_name_H-M   'P 1'
_cell_length_a   9.56836376
_cell_length_b   9.56836376
_cell_length_c   7.19674131
_cell_angle_alpha   72.90053309
_cell_angle_beta   72.90053309
_cell_angle_gamma   91.96468246
_symmetry_Int_Tables_number   1
_chemical_formula_structural   RbV3Cd4O12
_chemical_formula_sum   'Rb2 V6 Cd8 O24'
_cell_volume   596.64352581
_cell_formula_units_Z   2
loop_
 _symmetry_equiv_pos_site_id
 _symmetry_equiv_pos_as_xyz
  1  'x, y, z'
loop_
 _atom_site_type_symbol
 _atom_site_label
 _atom_site_symmetry_multiplicity
 _atom_site_fract_x
 _atom_site_fract_y
 _atom_site_fract_z
 _atom_site_occupancy
  Rb  Rb0  1  0.97403600  0.02720600  0.74962200  1
  Rb  Rb1  1  0.02720600  0.97403600  0.24962200  1
  V  V0  1  0.70339300  0.29639600  0.75044500  1
  V  V1  1  0.29639600  0.70339300  0.25044500  1
  V  V2  1  0.12952300  0.35115800  0.85926600  1
  V  V3  1  0.64992900  0.87187900  0.63921500  1
  V  V4  1  0.87187900  0.64992900  0.13921500  1
  V  V5  1  0.35115800  0.12952300  0.35926600  1
  Cd  Cd0  1  0.26385300  0.73538500  0.75162300  1
  Cd  Cd1  1  0.73538500  0.26385300  0.25162300  1
  Cd  Cd2  1  0.93851700  0.61518800  0.64931100  1
  Cd  Cd3  1  0.38338300  0.06392100  0.84996300  1
  Cd  Cd4  1  0.06392100  0.38338300  0.34996300  1
  Cd  Cd5  1  0.61518800  0.93851700  0.14931100  1
  Cd  Cd6  1  0.51372700  0.52382300  0.53009700  1
  Cd  Cd7  1  0.52382300  0.51372700  0.03009700  1
  O  O0  1  0.18207200  0.18010400  0.86796400  1
  O  O1  1  0.81958700  0.81751800  0.63247500  1
  O  O2  1  0.81751800  0.81958700  0.13247500  1
  O  O3  1  0.18010400  0.18207200  0.36796400  1
  O  O4  1  0.71449700  0.47601300  0.77287200  1
  O  O5  1  0.52753900  0.28523600  0.72560000  1
  O  O6  1  0.28523600  0.52753900  0.22560000  1
  O  O7  1  0.47601300  0.71449700  0.27287200  1
  O  O8  1  0.82106300  0.26995900  0.53016900  1
  O  O9  1  0.73005900  0.17807200  0.96971600  1
  O  O10  1  0.17807200  0.73005900  0.46971600  1
  O  O11  1  0.26995900  0.82106300  0.03016900  1
  O  O12  1  0.99421200  0.32967000  0.09792500  1
  O  O13  1  0.67142200  0.00543100  0.40193700  1
  O  O14  1  0.00543100  0.67142200  0.90193700  1
  O  O15  1  0.32967000  0.99421200  0.59792500  1
  O  O16  1  0.28547700  0.48447400  0.78920700  1
  O  O17  1  0.51859600  0.71005100  0.70870700  1
  O  O18  1  0.71005100  0.51859600  0.20870700  1
  O  O19  1  0.48447400  0.28547700  0.28920700  1
  O  O20  1  0.04060900  0.39714500  0.67499000  1
  O  O21  1  0.60288200  0.95839300  0.82469700  1
  O  O22  1  0.95839300  0.60288200  0.32469700  1
  O  O23  1  0.39714500  0.04060900  0.17499000  1
loop_
_geom_bond_atom_site_label_1
_geom_bond_atom_site_label_2
_geom_bond_distance
_geom_bond_site_symmetry_2
Cd0 O16 2.359014 1_555
Cd0 O14 2.364917 1_555
Cd0 O15 2.371900 1_555
Cd0 O11 2.392907 1_556
Cd0 O17 2.395258 1_555
Cd0 O10 2.414445 1_555
Cd1 O19 2.359014 1_555
Cd1 O13 2.364917 1_555
Cd1 O12 2.371900 1_555
Cd1 O8 2.392907 1_555
Cd1 O18 2.395258 1_555
Cd1 O9 2.414445 1_554
Cd2 O4 2.268420 1_555
Cd2 O1 2.269760 1_555
Cd2 O14 2.289336 1_655
Cd2 O20 2.315226 1_655
Cd2 O10 2.319963 1_655
Cd2 O22 2.325880 1_555
Cd3 O0 2.246709 1_555
Cd3 O5 2.268729 1_555
Cd3 O15 2.288068 1_545
Cd3 O23 2.327008 1_556
Cd3 O11 2.342384 1_546
Cd3 O21 2.343598 1_545
Cd4 O3 2.246709 1_555
Cd4 O6 2.268729 1_555
Cd4 O12 2.288068 1_455
Cd4 O20 2.327008 1_555
Cd4 O8 2.342384 1_455
Cd4 O22 2.343598 1_455
Cd5 O7 2.268420 1_555
Cd5 O2 2.269760 1_555
Cd5 O13 2.289336 1_565
Cd5 O23 2.315226 1_565
Cd5 O9 2.319963 1_564
Cd5 O21 2.325880 1_554
Cd6 O7 2.310313 1_555
Cd6 O5 2.334487 1_555
Cd6 O16 2.350452 1_555
Cd6 O17 2.491199 1_555
Cd6 O18 2.529910 1_555
Cd7 O4 2.310313 1_554
Cd7 O6 2.334487 1_555
Cd7 O19 2.350452 1_555
Cd7 O18 2.491199 1_555
Cd7 O17 2.529910 1_554
O0 V2 1.717624 1_555
O0 Rb1 2.801648 1_546
O0 Rb0 2.891023 1_455
O1 V3 1.713066 1_555
O1 Rb1 2.816310 1_655
O1 Rb0 2.905919 1_565
O2 V4 1.713066 1_555
O2 Rb0 2.816310 1_564
O2 Rb1 2.905919 1_655
O3 V5 1.717624 1_555
O3 Rb0 2.801648 1_455
O3 Rb1 2.891023 1_545
O4 V0 1.775318 1_555
O5 V0 1.746559 1_555
O6 V1 1.746559 1_555
O7 V1 1.775318 1_555
O8 V0 1.746559 1_555
O8 Rb0 3.076880 1_555
O9 V0 1.744435 1_555
O9 Rb0 3.073051 1_555
O10 V1 1.744435 1_555
O10 Rb1 3.073051 1_555
O11 V1 1.746559 1_555
O11 Rb1 3.076880 1_555
O12 V2 1.770579 1_654
O12 Rb1 3.310971 1_645
O13 V3 1.755985 1_545
O13 Rb1 3.309108 1_645
O14 V4 1.755985 1_456
O14 Rb0 3.309108 1_465
O15 V5 1.770579 1_565
O15 Rb0 3.310971 1_465
O16 V2 1.776785 1_555
O17 V3 1.807902 1_555
O18 V4 1.807902 1_555
O19 V5 1.776785 1_555
O20 V2 1.738442 1_555
O20 Rb0 3.427823 1_455
O21 V3 1.729668 1_555
O21 Rb0 3.440865 1_565
O22 V4 1.729668 1_555
O22 Rb1 3.440865 1_655
O23 V5 1.738442 1_555
O23 Rb1 3.427823 1_545
