# generated using pymatgen
data_Sr2ZnWO6
_symmetry_space_group_name_H-M   'P 1'
_cell_length_a   8.05765103
_cell_length_b   8.06256969
_cell_length_c   8.07110056
_cell_angle_alpha   89.99068631
_cell_angle_beta   89.93517161
_cell_angle_gamma   90.00190153
_symmetry_Int_Tables_number   1
_chemical_formula_structural   Sr2ZnWO6
_chemical_formula_sum   'Sr8 Zn4 W4 O24'
_cell_volume   524.34171545
_cell_formula_units_Z   4
loop_
 _symmetry_equiv_pos_site_id
 _symmetry_equiv_pos_as_xyz
  1  'x, y, z'
loop_
 _atom_site_type_symbol
 _atom_site_label
 _atom_site_symmetry_multiplicity
 _atom_site_fract_x
 _atom_site_fract_y
 _atom_site_fract_z
 _atom_site_occupancy
  Sr  Sr0  1  0.74954700  0.49142600  0.49025800  1
  Sr  Sr1  1  0.25045300  0.50857400  0.50974200  1
  Sr  Sr2  1  0.75059200  0.99119800  0.48699200  1
  Sr  Sr3  1  0.24940800  0.00880200  0.51300800  1
  Sr  Sr4  1  0.74964500  0.49094300  0.98668400  1
  Sr  Sr5  1  0.25035500  0.50905700  0.01331600  1
  Sr  Sr6  1  0.25098200  0.01759200  0.00914000  1
  Sr  Sr7  1  0.74901800  0.98240800  0.99086000  1
  Zn  Zn0  1  0.99977000  0.24850500  0.75143800  1
  Zn  Zn1  1  0.00023000  0.75149500  0.24856200  1
  Zn  Zn2  1  0.50101300  0.25141200  0.25059200  1
  Zn  Zn3  1  0.49898700  0.74858800  0.74940800  1
  W  W0  1  0.00028400  0.25228500  0.25043500  1
  W  W1  1  0.99971600  0.74771500  0.74956500  1
  W  W2  1  0.50158800  0.24831500  0.75062800  1
  W  W3  1  0.49841200  0.75168500  0.24937200  1
  O  O0  1  0.96774000  0.01357100  0.21837800  1
  O  O1  1  0.03226000  0.98642900  0.78162200  1
  O  O2  1  0.03038500  0.28039300  0.01151400  1
  O  O3  1  0.96961500  0.71960700  0.98848600  1
  O  O4  1  0.03309800  0.49063200  0.28031600  1
  O  O5  1  0.96690200  0.50936800  0.71968400  1
  O  O6  1  0.97234600  0.22155600  0.49031200  1
  O  O7  1  0.02765400  0.77844400  0.50968800  1
  O  O8  1  0.76123400  0.28963900  0.22895400  1
  O  O9  1  0.23876600  0.71036100  0.77104600  1
  O  O10  1  0.74013900  0.22012600  0.78516400  1
  O  O11  1  0.25986100  0.77987400  0.21483600  1
  O  O12  1  0.76055900  0.78261100  0.72468200  1
  O  O13  1  0.23944100  0.21738900  0.27531800  1
  O  O14  1  0.52996800  0.99098700  0.22461900  1
  O  O15  1  0.47003200  0.00901300  0.77538100  1
  O  O16  1  0.47032600  0.27730700  0.99017200  1
  O  O17  1  0.52967400  0.72269300  0.00982800  1
  O  O18  1  0.53175700  0.22324700  0.51111200  1
  O  O19  1  0.46824300  0.77675300  0.48888800  1
  O  O20  1  0.46684500  0.51249800  0.27446300  1
  O  O21  1  0.53315500  0.48750200  0.72553700  1
  O  O22  1  0.73812100  0.72760200  0.28157200  1
  O  O23  1  0.26187900  0.27239800  0.71842800  1
loop_
_geom_bond_atom_site_label_1
_geom_bond_atom_site_label_2
_geom_bond_distance
_geom_bond_site_symmetry_2
O0 W0 1.959658 1_655
O0 Zn1 2.143057 1_645
O0 Sr7 2.559033 1_544
O0 Sr2 2.790257 1_545
O0 Sr6 2.837785 1_655
O1 W1 1.959658 1_455
O1 Zn0 2.143057 1_465
O1 Sr6 2.559033 1_566
O1 Sr3 2.790257 1_565
O1 Sr7 2.837785 1_455
O2 W0 1.956409 1_555
O2 Zn0 2.129440 1_454
O2 Sr5 2.557449 1_555
O2 Sr6 2.765785 1_555
O2 Sr4 2.835526 1_454
O3 W1 1.956409 1_555
O3 Zn1 2.129440 1_656
O3 Sr4 2.557449 1_555
O3 Sr7 2.765785 1_555
O3 Sr5 2.835526 1_656
O4 W0 1.954795 1_555
O4 Zn1 2.135275 1_555
O4 Sr1 2.554311 1_555
O4 Sr5 2.778831 1_555
O4 Sr0 2.842990 1_455
O5 W1 1.954795 1_555
O5 Zn0 2.135275 1_555
O5 Sr0 2.554311 1_555
O5 Sr4 2.778831 1_555
O5 Sr1 2.842990 1_655
O6 W0 1.964506 1_655
O6 Zn0 2.130518 1_555
O6 Sr2 2.577366 1_545
O6 Sr0 2.820893 1_555
O6 Sr3 2.821516 1_655
O7 W1 1.964506 1_455
O7 Zn1 2.130518 1_555
O7 Sr3 2.577366 1_565
O7 Sr1 2.820893 1_555
O7 Sr2 2.821516 1_455
O8 W0 1.957476 1_655
O8 Zn2 2.126275 1_555
O8 Sr4 2.542806 1_554
O8 Sr0 2.665398 1_555
O9 W1 1.957476 1_455
O9 Zn3 2.126275 1_555
O9 Sr5 2.542806 1_556
O9 Sr1 2.665398 1_555
O10 W2 1.955831 1_555
O10 Zn0 2.121707 1_555
O10 Sr7 2.536538 1_545
O10 Sr4 2.724031 1_555
O10 Sr2 3.034219 1_545
O11 W3 1.955831 1_555
O11 Zn1 2.121707 1_555
O11 Sr6 2.536538 1_565
O11 Sr5 2.724031 1_555
O11 Sr3 3.034219 1_565
O12 W1 1.958030 1_555
O12 Zn3 2.134544 1_555
O12 Sr2 2.552326 1_555
O12 Sr7 2.686943 1_555
O12 Sr0 3.016830 1_555
O13 W0 1.958030 1_555
O13 Zn2 2.134544 1_555
O13 Sr3 2.552326 1_555
O13 Sr6 2.686943 1_555
O13 Sr1 3.016830 1_555
O14 W3 1.956230 1_555
O14 Zn2 2.123008 1_565
O14 Sr7 2.583067 1_554
O14 Sr2 2.766437 1_555
O14 Sr6 2.851806 1_565
O15 W2 1.956230 1_555
O15 Zn3 2.123008 1_545
O15 Sr6 2.583067 1_556
O15 Sr3 2.766437 1_555
O15 Sr7 2.851806 1_545
O16 W2 1.963444 1_555
O16 Zn2 2.126887 1_556
O16 Sr5 2.582121 1_556
O16 Sr6 2.744245 1_556
O16 Sr4 2.834198 1_555
O17 W3 1.963444 1_555
O17 Zn3 2.126887 1_554
O17 Sr4 2.582121 1_554
O17 Sr7 2.744245 1_554
O17 Sr5 2.834198 1_555
O18 W2 1.958599 1_555
O18 Zn2 2.129610 1_555
O18 Sr2 2.578174 1_545
O18 Sr0 2.789631 1_555
O18 Sr3 2.857480 1_555
O19 W3 1.958599 1_555
O19 Zn3 2.129610 1_555
O19 Sr3 2.578174 1_565
O19 Sr1 2.789631 1_555
O19 Sr2 2.857480 1_555
O20 W3 1.955607 1_555
O20 Zn2 2.131688 1_555
O20 Sr1 2.576765 1_555
O20 Sr5 2.737631 1_555
O20 Sr0 2.874055 1_555
O21 W2 1.955607 1_555
O21 Zn3 2.131688 1_555
O21 Sr0 2.576765 1_555
O21 Sr4 2.737631 1_555
O21 Sr1 2.874055 1_555
O22 W3 1.958839 1_555
O22 Zn1 2.137112 1_655
O22 Sr0 2.543751 1_555
O22 Sr2 2.697627 1_555
O22 Sr4 3.052067 1_554
O22 Sr7 3.119554 1_554
O23 W2 1.958839 1_555
O23 Zn0 2.137112 1_455
O23 Sr1 2.543751 1_555
O23 Sr3 2.697627 1_555
O23 Sr5 3.052067 1_556
O23 Sr6 3.119554 1_556
