# generated using pymatgen
data_CaSi2WO6
_symmetry_space_group_name_H-M   'P 1'
_cell_length_a   5.48501700
_cell_length_b   10.01209400
_cell_length_c   19.84783200
_cell_angle_alpha   90.00000000
_cell_angle_beta   90.00000000
_cell_angle_gamma   90.00000000
_symmetry_Int_Tables_number   1
_chemical_formula_structural   CaSi2WO6
_chemical_formula_sum   'Ca8 Si16 W8 O48'
_cell_volume   1089.97358106
_cell_formula_units_Z   8
loop_
 _symmetry_equiv_pos_site_id
 _symmetry_equiv_pos_as_xyz
  1  'x, y, z'
loop_
 _atom_site_type_symbol
 _atom_site_label
 _atom_site_symmetry_multiplicity
 _atom_site_fract_x
 _atom_site_fract_y
 _atom_site_fract_z
 _atom_site_occupancy
  Ca  Ca0  1  0.62191400  0.13994800  0.37250300  1
  Ca  Ca1  1  0.37808600  0.86005200  0.62749700  1
  Ca  Ca2  1  0.62191400  0.63994800  0.12749700  1
  Ca  Ca3  1  0.12191400  0.86005200  0.12749700  1
  Ca  Ca4  1  0.87808600  0.13994800  0.87250300  1
  Ca  Ca5  1  0.37808600  0.36005200  0.87250300  1
  Ca  Ca6  1  0.12191400  0.36005200  0.37250300  1
  Ca  Ca7  1  0.87808600  0.63994800  0.62749700  1
  Si  Si0  1  0.56613500  0.67677200  0.77626300  1
  Si  Si1  1  0.76264900  0.83493600  0.48602700  1
  Si  Si2  1  0.73735100  0.83493600  0.98602700  1
  Si  Si3  1  0.93386500  0.17677200  0.22373700  1
  Si  Si4  1  0.06613500  0.32322800  0.72373700  1
  Si  Si5  1  0.43386500  0.82322800  0.27626300  1
  Si  Si6  1  0.26264900  0.66506400  0.48602700  1
  Si  Si7  1  0.76264900  0.33493600  0.01397300  1
  Si  Si8  1  0.73735100  0.33493600  0.51397300  1
  Si  Si9  1  0.93386500  0.67677200  0.27626300  1
  Si  Si10  1  0.43386500  0.32322800  0.22373700  1
  Si  Si11  1  0.56613500  0.17677200  0.72373700  1
  Si  Si12  1  0.23735100  0.16506400  0.51397300  1
  Si  Si13  1  0.06613500  0.82322800  0.77626300  1
  Si  Si14  1  0.23735100  0.66506400  0.98602700  1
  Si  Si15  1  0.26264900  0.16506400  0.01397300  1
  W  W0  1  0.36472500  0.96129900  0.87757000  1
  W  W1  1  0.63527500  0.03870100  0.12243000  1
  W  W2  1  0.86472500  0.03870100  0.62243000  1
  W  W3  1  0.13527500  0.96129900  0.37757000  1
  W  W4  1  0.36472500  0.46129900  0.62243000  1
  W  W5  1  0.63527500  0.53870100  0.37757000  1
  W  W6  1  0.86472500  0.53870100  0.87757000  1
  W  W7  1  0.13527500  0.46129900  0.12243000  1
  O  O0  1  0.95364800  0.53154200  0.31163900  1
  O  O1  1  0.30456800  0.03529400  0.06135100  1
  O  O2  1  0.04635200  0.46845800  0.68836100  1
  O  O3  1  0.76386200  0.35565800  0.93150100  1
  O  O4  1  0.26386200  0.14434200  0.93150100  1
  O  O5  1  0.98697600  0.22711900  0.03094300  1
  O  O6  1  0.93694300  0.69199000  0.19623200  1
  O  O7  1  0.06305700  0.80801000  0.69623200  1
  O  O8  1  0.76386200  0.85565800  0.56849900  1
  O  O9  1  0.93694300  0.19199000  0.30376800  1
  O  O10  1  0.45364800  0.46845800  0.18836100  1
  O  O11  1  0.73613800  0.35565800  0.43150100  1
  O  O12  1  0.69543200  0.96470600  0.93864900  1
  O  O13  1  0.43694300  0.80801000  0.19623200  1
  O  O14  1  0.54635200  0.03154200  0.68836100  1
  O  O15  1  0.30456800  0.53529400  0.43864900  1
  O  O16  1  0.45364800  0.96845800  0.31163900  1
  O  O17  1  0.15408600  0.77702600  0.30914600  1
  O  O18  1  0.34591400  0.77702600  0.80914600  1
  O  O19  1  0.51302400  0.72711900  0.96905700  1
  O  O20  1  0.73613800  0.85565800  0.06849900  1
  O  O21  1  0.56305700  0.69199000  0.69623200  1
  O  O22  1  0.80456800  0.46470600  0.06135100  1
  O  O23  1  0.15408600  0.27702600  0.19085400  1
  O  O24  1  0.23613800  0.14434200  0.43150100  1
  O  O25  1  0.56305700  0.19199000  0.80376800  1
  O  O26  1  0.69543200  0.46470600  0.56135100  1
  O  O27  1  0.26386200  0.64434200  0.56849900  1
  O  O28  1  0.19543200  0.53529400  0.93864900  1
  O  O29  1  0.65408600  0.72297400  0.30914600  1
  O  O30  1  0.04635200  0.96845800  0.81163900  1
  O  O31  1  0.84591400  0.72297400  0.80914600  1
  O  O32  1  0.84591400  0.22297400  0.69085400  1
  O  O33  1  0.80456800  0.96470600  0.43864900  1
  O  O34  1  0.23613800  0.64434200  0.06849900  1
  O  O35  1  0.19543200  0.03529400  0.56135100  1
  O  O36  1  0.34591400  0.27702600  0.69085400  1
  O  O37  1  0.01302400  0.77288100  0.96905700  1
  O  O38  1  0.48697600  0.77288100  0.46905700  1
  O  O39  1  0.65408600  0.22297400  0.19085400  1
  O  O40  1  0.48697600  0.27288100  0.03094300  1
  O  O41  1  0.51302400  0.22711900  0.53094300  1
  O  O42  1  0.01302400  0.27288100  0.53094300  1
  O  O43  1  0.43694300  0.30801000  0.30376800  1
  O  O44  1  0.54635200  0.53154200  0.81163900  1
  O  O45  1  0.98697600  0.72711900  0.46905700  1
  O  O46  1  0.06305700  0.30801000  0.80376800  1
  O  O47  1  0.95364800  0.03154200  0.18836100  1
loop_
_geom_bond_atom_site_label_1
_geom_bond_atom_site_label_2
_geom_bond_distance
_geom_bond_site_symmetry_2
Ca0 O9 2.262393 1_555
Ca0 O16 2.293279 1_545
Ca0 O43 2.392033 1_555
Ca0 O33 2.409506 1_545
Ca0 O24 2.418789 1_555
Ca0 O11 2.535364 1_555
Ca1 O7 2.262393 1_555
Ca1 O14 2.293279 1_565
Ca1 O21 2.392033 1_555
Ca1 O35 2.409506 1_565
Ca1 O8 2.418789 1_555
Ca1 O27 2.535364 1_555
Ca2 O6 2.262393 1_555
Ca2 O10 2.293279 1_555
Ca2 O13 2.392033 1_555
Ca2 O22 2.409506 1_555
Ca2 O34 2.418789 1_555
Ca2 O20 2.535364 1_555
Ca3 O13 2.262393 1_555
Ca3 O47 2.293279 1_465
Ca3 O6 2.392033 1_455
Ca3 O1 2.409506 1_565
Ca3 O20 2.418789 1_455
Ca3 O34 2.535364 1_555
Ca4 O25 2.262393 1_555
Ca4 O30 2.293279 1_645
Ca4 O46 2.392033 1_655
Ca4 O12 2.409506 1_545
Ca4 O4 2.418789 1_655
Ca4 O3 2.535364 1_555
Ca5 O46 2.262393 1_555
Ca5 O44 2.293279 1_555
Ca5 O25 2.392033 1_555
Ca5 O28 2.409506 1_555
Ca5 O3 2.418789 1_555
Ca5 O4 2.535364 1_555
Ca6 O43 2.262393 1_555
Ca6 O0 2.293279 1_455
Ca6 O9 2.392033 1_455
Ca6 O15 2.409506 1_555
Ca6 O11 2.418789 1_455
Ca6 O24 2.535364 1_555
Ca7 O21 2.262393 1_555
Ca7 O2 2.293279 1_655
Ca7 O7 2.392033 1_655
Ca7 O26 2.409506 1_555
Ca7 O27 2.418789 1_655
Ca7 O8 2.535364 1_555
O0 Si9 1.618348 1_555
O0 W5 2.183355 1_555
O1 Si15 1.620255 1_555
O1 W1 2.182007 1_555
O2 Si4 1.618348 1_555
O2 W4 2.183355 1_555
O3 Si7 1.650000 1_556
O3 W6 2.193271 1_555
O4 Si15 1.650000 1_556
O4 W0 2.193271 1_545
O5 Si15 1.669077 1_655
O5 Si7 1.671133 1_555
O6 Si9 1.595822 1_555
O7 Si13 1.595822 1_555
O8 Si1 1.650000 1_555
O8 W2 2.193271 1_565
O9 Si3 1.595822 1_555
O10 Si10 1.618348 1_555
O10 W7 2.183355 1_555
O11 Si8 1.650000 1_555
O11 W5 2.193271 1_555
O12 Si2 1.620255 1_555
O12 W0 2.182007 1_555
O13 Si5 1.595822 1_555
O14 Si11 1.618348 1_555
O14 W2 2.183355 1_555
O15 Si6 1.620255 1_555
O15 W5 2.182007 1_555
O16 Si5 1.618348 1_555
O16 W3 2.183355 1_555
O17 Si9 1.700747 1_455
O17 Si5 1.730582 1_555
O17 W3 2.293222 1_555
O18 Si0 1.700747 1_555
O18 Si13 1.730582 1_555
O18 W0 2.293222 1_555
O19 Si14 1.669077 1_555
O19 Si2 1.671133 1_555
O20 Si2 1.650000 1_554
O20 W1 2.193271 1_565
O21 Si0 1.595822 1_555
O22 Si7 1.620255 1_555
O22 W7 2.182007 1_655
O23 Si3 1.700747 1_455
O23 Si10 1.730582 1_555
O23 W7 2.293222 1_555
O24 Si12 1.650000 1_555
O24 W3 2.193271 1_545
O25 Si11 1.595822 1_555
O26 Si8 1.620255 1_555
O26 W4 2.182007 1_555
O27 Si6 1.650000 1_555
O27 W4 2.193271 1_555
O28 Si14 1.620255 1_555
O28 W6 2.182007 1_455
O29 Si5 1.700747 1_555
O29 Si9 1.730582 1_555
O29 W5 2.293222 1_555
O30 Si13 1.618348 1_555
O30 W0 2.183355 1_555
O31 Si13 1.700747 1_655
O31 Si0 1.730582 1_555
O31 W6 2.293222 1_555
O32 Si4 1.700747 1_655
O32 Si11 1.730582 1_555
O32 W2 2.293222 1_555
O33 Si1 1.620255 1_555
O33 W3 2.182007 1_655
O34 Si14 1.650000 1_554
O34 W7 2.193271 1_555
O35 Si12 1.620255 1_555
O35 W2 2.182007 1_455
O36 Si11 1.700747 1_555
O36 Si4 1.730582 1_555
O36 W4 2.293222 1_555
O37 Si2 1.669077 1_455
O37 Si14 1.671133 1_555
O38 Si1 1.669077 1_555
O38 Si6 1.671133 1_555
O39 Si10 1.700747 1_555
O39 Si3 1.730582 1_555
O39 W1 2.293222 1_555
O40 Si7 1.669077 1_555
O40 Si15 1.671133 1_555
O41 Si12 1.669077 1_555
O41 Si8 1.671133 1_555
O42 Si8 1.669077 1_455
O42 Si12 1.671133 1_555
O43 Si10 1.595822 1_555
O44 Si0 1.618348 1_555
O44 W6 2.183355 1_555
O45 Si6 1.669077 1_655
O45 Si1 1.671133 1_555
O46 Si4 1.595822 1_555
O47 Si3 1.618348 1_555
O47 W1 2.183355 1_555
