# generated using pymatgen
data_Yb3Ho
_symmetry_space_group_name_H-M   'P 1'
_cell_length_a   7.49855514
_cell_length_b   7.49855514
_cell_length_c   6.04531100
_cell_angle_alpha   90.00000000
_cell_angle_beta   90.00000000
_cell_angle_gamma   119.99999245
_symmetry_Int_Tables_number   1
_chemical_formula_structural   Yb3Ho
_chemical_formula_sum   'Yb6 Ho2'
_cell_volume   294.37741815
_cell_formula_units_Z   2
loop_
 _symmetry_equiv_pos_site_id
 _symmetry_equiv_pos_as_xyz
  1  'x, y, z'
loop_
 _atom_site_type_symbol
 _atom_site_label
 _atom_site_symmetry_multiplicity
 _atom_site_fract_x
 _atom_site_fract_y
 _atom_site_fract_z
 _atom_site_occupancy
  Yb  Yb0  1  0.17074400  0.34148900  0.25000000  1
  Yb  Yb1  1  0.65851100  0.82925600  0.25000000  1
  Yb  Yb2  1  0.17074400  0.82925600  0.25000000  1
  Yb  Yb3  1  0.82925600  0.65851100  0.75000000  1
  Yb  Yb4  1  0.34148900  0.17074400  0.75000000  1
  Yb  Yb5  1  0.82925600  0.17074400  0.75000000  1
  Ho  Ho0  1  0.33333300  0.66666700  0.75000000  1
  Ho  Ho1  1  0.66666700  0.33333300  0.25000000  1
loop_
_geom_bond_atom_site_label_1
_geom_bond_atom_site_label_2
_geom_bond_distance
_geom_bond_site_symmetry_2
Yb0 Yb2 3.657548 1_555
Yb0 Yb1 3.657548 1_555
Yb0 Yb5 3.748894 1_454
Yb0 Yb5 3.748894 1_455
Yb0 Yb4 3.748902 1_554
Yb0 Yb4 3.748902 1_555
Yb0 Yb2 3.841007 1_545
Yb0 Yb1 3.841008 1_445
Yb1 Yb2 3.657548 1_555
Yb1 Yb5 3.748894 1_564
Yb1 Yb5 3.748894 1_565
Yb1 Yb3 3.748902 1_555
Yb1 Yb3 3.748902 1_554
Yb1 Yb2 3.841007 1_655
Yb2 Yb3 3.748894 1_454
Yb2 Yb4 3.748894 1_564
Yb2 Yb3 3.748894 1_455
Yb2 Yb4 3.748894 1_565
Yb3 Yb5 3.657548 1_555
Yb3 Yb4 3.657548 1_555
Yb3 Yb5 3.841007 1_565
Yb3 Yb4 3.841008 1_665
Yb4 Yb5 3.657548 1_555
Yb4 Yb5 3.841007 1_455
Ho0 Yb2 3.687230 1_556
Ho0 Yb2 3.687230 1_555
Ho0 Yb1 3.687230 1_556
Ho0 Yb1 3.687230 1_555
Ho0 Yb0 3.687230 1_555
Ho0 Yb0 3.687230 1_556
Ho0 Yb3 3.749644 1_455
Ho0 Yb4 3.749644 1_565
Ho0 Yb5 3.749652 1_455
Ho0 Yb5 3.749652 1_565
Ho0 Yb3 3.749659 1_555
Ho0 Yb4 3.749659 1_555
Ho1 Yb5 3.687230 1_554
Ho1 Yb5 3.687230 1_555
Ho1 Yb3 3.687230 1_554
Ho1 Yb3 3.687230 1_555
Ho1 Yb4 3.687230 1_554
Ho1 Yb4 3.687230 1_555
Ho1 Yb1 3.749644 1_545
Ho1 Yb0 3.749644 1_655
Ho1 Yb2 3.749652 1_545
Ho1 Yb2 3.749652 1_655
Ho1 Yb1 3.749659 1_555
Ho1 Yb0 3.749659 1_555
