# generated using pymatgen
data_Eu3Au2
_symmetry_space_group_name_H-M   'P 1'
_cell_length_a   8.06236894
_cell_length_b   8.06241672
_cell_length_c   8.06230744
_cell_angle_alpha   70.32117627
_cell_angle_beta   70.31946926
_cell_angle_gamma   70.32084302
_symmetry_Int_Tables_number   1
_chemical_formula_structural   Eu3Au2
_chemical_formula_sum   'Eu9 Au6'
_cell_volume   449.64942472
_cell_formula_units_Z   3
loop_
 _symmetry_equiv_pos_site_id
 _symmetry_equiv_pos_as_xyz
  1  'x, y, z'
loop_
 _atom_site_type_symbol
 _atom_site_label
 _atom_site_symmetry_multiplicity
 _atom_site_fract_x
 _atom_site_fract_y
 _atom_site_fract_z
 _atom_site_occupancy
  Eu  Eu0  1  -0.00000000  0.00000000  -0.00000000  1
  Eu  Eu1  1  0.80159826  0.80158675  0.80160192  1
  Eu  Eu2  1  0.19840174  0.19841325  0.19839808  1
  Eu  Eu3  1  0.59703961  0.33904121  0.84214641  1
  Eu  Eu4  1  0.33904295  0.84213541  0.59703736  1
  Eu  Eu5  1  0.84213944  0.59703993  0.33904877  1
  Eu  Eu6  1  0.40296039  0.66095879  0.15785359  1
  Eu  Eu7  1  0.66095705  0.15786459  0.40296264  1
  Eu  Eu8  1  0.15786056  0.40296007  0.66095123  1
  Au  Au0  1  0.95637205  0.16100780  0.59020274  1
  Au  Au1  1  0.16104781  0.59020878  0.95635397  1
  Au  Au2  1  0.59019059  0.95633833  0.16106713  1
  Au  Au3  1  0.04362795  0.83899220  0.40979726  1
  Au  Au4  1  0.83895219  0.40979122  0.04364603  1
  Au  Au5  1  0.40980941  0.04366167  0.83893287  1
loop_
_geom_bond_atom_site_label_1
_geom_bond_atom_site_label_2
_geom_bond_distance
_geom_bond_site_symmetry_2
Au0 Eu2 3.078958 1_655
Au0 Eu3 3.127079 1_555
Au0 Eu8 3.205829 1_655
Au0 Eu0 3.211131 1_656
Au0 Eu7 3.231151 1_555
Au0 Eu1 3.245890 1_545
Au0 Eu4 3.287574 1_645
Au0 Eu5 3.404141 1_555
Au1 Eu2 3.079040 1_556
Au1 Eu4 3.126854 1_555
Au1 Eu6 3.205638 1_556
Au1 Eu0 3.211160 1_566
Au1 Eu8 3.231227 1_555
Au1 Eu1 3.245997 1_455
Au1 Eu5 3.287758 1_456
Au1 Eu3 3.403857 1_555
Au2 Eu2 3.079054 1_565
Au2 Eu5 3.126881 1_555
Au2 Eu7 3.205746 1_565
Au2 Eu0 3.211298 1_665
Au2 Eu6 3.231068 1_555
Au2 Eu1 3.246045 1_554
Au2 Eu3 3.287945 1_564
Au2 Eu4 3.403629 1_555
Au3 Eu1 3.078958 1_455
Au3 Eu6 3.127079 1_555
Au3 Eu5 3.205829 1_455
Au3 Eu0 3.211131 1_565
Au3 Eu4 3.231151 1_555
Au3 Eu2 3.245890 1_565
Au3 Eu7 3.287574 1_465
Au3 Eu8 3.404141 1_555
Au4 Eu1 3.079040 1_554
Au4 Eu7 3.126854 1_555
Au4 Eu3 3.205638 1_554
Au4 Eu0 3.211160 1_655
Au4 Eu5 3.231227 1_555
Au4 Eu2 3.245997 1_655
Au4 Eu8 3.287758 1_654
Au4 Eu6 3.403857 1_555
Au5 Eu1 3.079054 1_545
Au5 Eu8 3.126881 1_555
Au5 Eu4 3.205746 1_545
Au5 Eu0 3.211298 1_556
Au5 Eu3 3.231068 1_555
Au5 Eu2 3.246045 1_556
Au5 Eu6 3.287945 1_546
Au5 Eu7 3.403629 1_555
