# generated using pymatgen
data_Zn3InGaO6
_symmetry_space_group_name_H-M   'P 1'
_cell_length_a   14.17307494
_cell_length_b   14.17307494
_cell_length_c   14.17307470
_cell_angle_alpha   13.52134957
_cell_angle_beta   13.52134957
_cell_angle_gamma   13.52135285
_symmetry_Int_Tables_number   1
_chemical_formula_structural   Zn3InGaO6
_chemical_formula_sum   'Zn3 In1 Ga1 O6'
_cell_volume   135.41016075
_cell_formula_units_Z   1
loop_
 _symmetry_equiv_pos_site_id
 _symmetry_equiv_pos_as_xyz
  1  'x, y, z'
loop_
 _atom_site_type_symbol
 _atom_site_label
 _atom_site_symmetry_multiplicity
 _atom_site_fract_x
 _atom_site_fract_y
 _atom_site_fract_z
 _atom_site_occupancy
  Zn  Zn0  1  0.26097000  0.26097000  0.26097000  1
  Zn  Zn1  1  0.74111500  0.74111500  0.74111500  1
  Zn  Zn2  1  0.86572700  0.86572700  0.86572700  1
  In  In0  1  0.00089600  0.00089600  0.00089600  1
  Ga  Ga0  1  0.13717300  0.13717300  0.13717300  1
  O  O0  1  0.91320500  0.91320500  0.91320500  1
  O  O1  1  0.08975200  0.08975200  0.08975200  1
  O  O2  1  0.18472100  0.18472100  0.18472100  1
  O  O3  1  0.80426800  0.80426800  0.80426800  1
  O  O4  1  0.69389600  0.69389600  0.69389600  1
  O  O5  1  0.30827900  0.30827900  0.30827900  1
loop_
_geom_bond_atom_site_label_1
_geom_bond_atom_site_label_2
_geom_bond_distance
_geom_bond_site_symmetry_2
In0 O5 2.215124 1_554
In0 O5 2.215124 1_545
In0 O5 2.215124 1_455
In0 O4 2.223130 1_445
In0 O4 2.223130 1_544
In0 O4 2.223130 1_454
Ga0 O3 1.926689 1_445
Ga0 O3 1.926689 1_544
Ga0 O3 1.926689 1_454
Ga0 O1 1.997589 1_555
Ga0 O2 2.002938 1_555
O0 Zn2 1.999990 1_555
O0 Zn0 2.020243 1_665
O0 Zn0 2.020243 1_566
O0 Zn0 2.020243 1_656
O1 Zn1 2.031598 1_445
O1 Zn1 2.031599 1_544
O1 Zn1 2.031599 1_454
O2 Zn2 2.019076 1_445
O2 Zn2 2.019076 1_454
O2 Zn2 2.019076 1_544
O4 Zn1 1.989079 1_555
O5 Zn0 1.992871 1_555
