# generated using pymatgen
data_K3Np(HO3)2
_symmetry_space_group_name_H-M   'P 1'
_cell_length_a   6.76312400
_cell_length_b   10.19527700
_cell_length_c   11.10470100
_cell_angle_alpha   90.00000000
_cell_angle_beta   90.00000000
_cell_angle_gamma   90.00000000
_symmetry_Int_Tables_number   1
_chemical_formula_structural   K3Np(HO3)2
_chemical_formula_sum   'K12 Np4 H8 O24'
_cell_volume   765.69048346
_cell_formula_units_Z   4
loop_
 _symmetry_equiv_pos_site_id
 _symmetry_equiv_pos_as_xyz
  1  'x, y, z'
loop_
 _atom_site_type_symbol
 _atom_site_label
 _atom_site_symmetry_multiplicity
 _atom_site_fract_x
 _atom_site_fract_y
 _atom_site_fract_z
 _atom_site_occupancy
  K  K0  1  0.98952700  0.58585000  0.65459400  1
  K  K1  1  0.98952700  0.91415000  0.84540600  1
  K  K2  1  0.51047300  0.08585000  0.34540600  1
  K  K3  1  0.51047300  0.41415000  0.15459400  1
  K  K4  1  0.01047300  0.41415000  0.34540600  1
  K  K5  1  0.01047300  0.08585000  0.15459400  1
  K  K6  1  0.48952700  0.91415000  0.65459400  1
  K  K7  1  0.48952700  0.58585000  0.84540600  1
  K  K8  1  0.08382600  0.25000000  0.75000000  1
  K  K9  1  0.41617400  0.75000000  0.25000000  1
  K  K10  1  0.91617400  0.75000000  0.25000000  1
  K  K11  1  0.58382600  0.25000000  0.75000000  1
  Np  Np0  1  0.00000000  0.50000000  0.00000000  1
  Np  Np1  1  0.00000000  0.00000000  0.50000000  1
  Np  Np2  1  0.50000000  0.00000000  0.00000000  1
  Np  Np3  1  0.50000000  0.50000000  0.50000000  1
  H  H0  1  0.29330700  0.29573800  0.97663400  1
  H  H1  1  0.29330700  0.20426200  0.52336600  1
  H  H2  1  0.20669300  0.79573800  0.02336600  1
  H  H3  1  0.20669300  0.70426200  0.47663400  1
  H  H4  1  0.70669300  0.70426200  0.02336600  1
  H  H5  1  0.70669300  0.79573800  0.47663400  1
  H  H6  1  0.79330700  0.20426200  0.97663400  1
  H  H7  1  0.79330700  0.29573800  0.52336600  1
  O  O0  1  0.14864100  0.56178300  0.13705500  1
  O  O1  1  0.14864100  0.93821700  0.36294500  1
  O  O2  1  0.35135900  0.06178300  0.86294500  1
  O  O3  1  0.35135900  0.43821700  0.63705500  1
  O  O4  1  0.85135900  0.43821700  0.86294500  1
  O  O5  1  0.85135900  0.06178300  0.63705500  1
  O  O6  1  0.64864100  0.93821700  0.13705500  1
  O  O7  1  0.64864100  0.56178300  0.36294500  1
  O  O8  1  0.09593500  0.64321900  0.90221600  1
  O  O9  1  0.09593500  0.85678100  0.59778400  1
  O  O10  1  0.40406500  0.14321900  0.09778400  1
  O  O11  1  0.40406500  0.35678100  0.40221600  1
  O  O12  1  0.90406500  0.35678100  0.09778400  1
  O  O13  1  0.90406500  0.14321900  0.40221600  1
  O  O14  1  0.59593500  0.85678100  0.90221600  1
  O  O15  1  0.59593500  0.64321900  0.59778400  1
  O  O16  1  0.27412800  0.38074200  0.93704900  1
  O  O17  1  0.27412800  0.11925800  0.56295100  1
  O  O18  1  0.22587200  0.88074200  0.06295100  1
  O  O19  1  0.22587200  0.61925800  0.43704900  1
  O  O20  1  0.72587200  0.61925800  0.06295100  1
  O  O21  1  0.72587200  0.88074200  0.43704900  1
  O  O22  1  0.77412800  0.11925800  0.93704900  1
  O  O23  1  0.77412800  0.38074200  0.56295100  1
loop_
_geom_bond_atom_site_label_1
_geom_bond_atom_site_label_2
_geom_bond_distance
_geom_bond_site_symmetry_2
K0 O23 2.744206 1_555
K0 O15 2.797473 1_555
K0 O3 2.879550 1_655
K0 O8 2.901934 1_655
K0 O4 2.914068 1_555
K0 O19 2.916667 1_655
K0 O9 2.923306 1_655
K1 O22 2.744206 1_565
K1 O14 2.797473 1_555
K1 O2 2.879550 1_665
K1 O9 2.901934 1_655
K1 O5 2.914068 1_565
K1 O18 2.916667 1_656
K1 O8 2.923306 1_655
K2 O21 2.744206 1_545
K2 O13 2.797473 1_555
K2 O1 2.879550 1_545
K2 O10 2.901934 1_555
K2 O6 2.914068 1_545
K2 O17 2.916667 1_555
K2 O11 2.923306 1_555
K3 O20 2.744206 1_555
K3 O12 2.797473 1_555
K3 O0 2.879550 1_555
K3 O11 2.901934 1_555
K3 O7 2.914068 1_555
K3 O16 2.916667 1_554
K3 O10 2.923306 1_555
K4 O19 2.744206 1_555
K4 O11 2.797473 1_555
K4 O7 2.879550 1_455
K4 O12 2.901934 1_455
K4 O0 2.914068 1_555
K4 O23 2.916667 1_455
K4 O13 2.923306 1_455
K5 O18 2.744206 1_545
K5 O10 2.797473 1_555
K5 O6 2.879550 1_445
K5 O13 2.901934 1_455
K5 O1 2.914068 1_545
K5 O22 2.916667 1_454
K5 O12 2.923306 1_455
K6 O17 2.744206 1_565
K6 O9 2.797473 1_555
K6 O5 2.879550 1_565
K6 O14 2.901934 1_555
K6 O2 2.914068 1_565
K6 O21 2.916667 1_555
K6 O15 2.923306 1_555
K7 O16 2.744206 1_555
K7 O8 2.797473 1_555
K7 O4 2.879550 1_555
K7 O15 2.901934 1_555
K7 O3 2.914068 1_555
K7 O20 2.916667 1_556
K7 O14 2.923306 1_555
K8 O4 2.779777 1_455
K8 O5 2.779777 1_455
K8 O16 2.783462 1_555
K8 O17 2.783462 1_555
K8 O3 2.920466 1_555
K8 O2 2.920466 1_555
K9 O7 2.779777 1_555
K9 O6 2.779777 1_555
K9 O19 2.783462 1_555
K9 O18 2.783462 1_555
K9 O1 2.920466 1_555
K9 O0 2.920466 1_555
K10 O1 2.779777 1_655
K10 O0 2.779777 1_655
K10 O21 2.783462 1_555
K10 O20 2.783462 1_555
K10 O7 2.920466 1_555
K10 O6 2.920466 1_555
K11 O3 2.779777 1_555
K11 O2 2.779777 1_555
K11 O23 2.783462 1_555
K11 O22 2.783462 1_555
K11 O4 2.920466 1_555
K11 O5 2.920466 1_555
Np0 O0 1.929688 1_555
Np0 O4 1.929688 1_454
Np0 O8 1.931871 1_554
Np0 O12 1.931871 1_455
Np0 O20 2.324690 1_455
Np0 O16 2.324690 1_554
Np1 O5 1.929688 1_455
Np1 O1 1.929688 1_545
Np1 O9 1.931871 1_545
Np1 O13 1.931871 1_455
Np1 O17 2.324690 1_555
Np1 O21 2.324690 1_445
Np2 O6 1.929688 1_545
Np2 O2 1.929688 1_554
Np2 O10 1.931871 1_555
Np2 O14 1.931871 1_544
Np2 O22 2.324690 1_554
Np2 O18 2.324690 1_545
Np3 O3 1.929688 1_555
Np3 O7 1.929688 1_555
Np3 O15 1.931871 1_555
Np3 O11 1.931871 1_555
Np3 O23 2.324690 1_555
Np3 O19 2.324690 1_555
H0 O16 0.980367 1_555
H0 K3 2.742246 1_556
H1 O17 0.980367 1_555
H1 K2 2.742246 1_555
H2 O18 0.980367 1_555
H2 K1 2.742246 1_454
H3 O19 0.980367 1_555
H3 K0 2.742246 1_455
H4 O20 0.980367 1_555
H4 K7 2.742246 1_554
H5 O21 0.980367 1_555
H5 K6 2.742246 1_555
H6 O22 0.980367 1_555
H6 K5 2.742246 1_656
H7 O23 0.980367 1_555
H7 K4 2.742246 1_655
