# generated using pymatgen
data_RbCoO2
_symmetry_space_group_name_H-M   'P 1'
_cell_length_a   6.01023369
_cell_length_b   6.01023369
_cell_length_c   6.01023369
_cell_angle_alpha   60.00000000
_cell_angle_beta   60.00000000
_cell_angle_gamma   60.00000000
_symmetry_Int_Tables_number   1
_chemical_formula_structural   RbCoO2
_chemical_formula_sum   'Rb2 Co2 O4'
_cell_volume   153.51792026
_cell_formula_units_Z   2
loop_
 _symmetry_equiv_pos_site_id
 _symmetry_equiv_pos_as_xyz
  1  'x, y, z'
loop_
 _atom_site_type_symbol
 _atom_site_label
 _atom_site_symmetry_multiplicity
 _atom_site_fract_x
 _atom_site_fract_y
 _atom_site_fract_z
 _atom_site_occupancy
  Rb  Rb0  1  0.50000000  0.50000000  0.50000000  1
  Rb  Rb1  1  0.75000000  0.75000000  0.75000000  1
  Co  Co0  1  0.00000000  0.00000000  0.00000000  1
  Co  Co1  1  0.25000000  0.25000000  0.25000000  1
  O  O0  1  0.12500000  0.12500000  0.12500000  1
  O  O1  1  0.62500000  0.12500000  0.12500000  1
  O  O2  1  0.12500000  0.12500000  0.62500000  1
  O  O3  1  0.12500000  0.62500000  0.12500000  1
loop_
_geom_bond_atom_site_label_1
_geom_bond_atom_site_label_2
_geom_bond_distance
_geom_bond_site_symmetry_2
Co0 O3 1.840251 1_545
Co0 O0 1.840251 1_555
Co0 O2 1.840251 1_554
Co0 O1 1.840251 1_455
Co1 O3 1.840251 1_555
Co1 O2 1.840251 1_555
Co1 O0 1.840251 1_555
Co1 O1 1.840251 1_555
O0 Rb0 3.523812 1_545
O0 Rb1 3.523812 1_445
O0 Rb1 3.523812 1_454
O0 Rb1 3.523812 1_544
O0 Rb0 3.523812 1_554
O0 Rb0 3.523812 1_455
O1 Rb0 3.523812 1_555
O1 Rb1 3.523812 1_554
O1 Rb0 3.523812 1_545
O1 Rb1 3.523812 1_544
O1 Rb1 3.523812 1_545
O1 Rb0 3.523812 1_554
O2 Rb1 3.523812 1_545
O2 Rb0 3.523812 1_455
O2 Rb1 3.523812 1_455
O2 Rb0 3.523812 1_545
O2 Rb0 3.523812 1_555
O2 Rb1 3.523812 1_445
O3 Rb0 3.523812 1_455
O3 Rb1 3.523812 1_554
O3 Rb0 3.523812 1_555
O3 Rb1 3.523812 1_455
O3 Rb1 3.523812 1_454
O3 Rb0 3.523812 1_554
