# generated using pymatgen
data_MoW3(SeS3)2
_symmetry_space_group_name_H-M   'P 1'
_cell_length_a   3.22353594
_cell_length_b   3.22353594
_cell_length_c   36.39703700
_cell_angle_alpha   90.00000000
_cell_angle_beta   90.00000000
_cell_angle_gamma   119.99999883
_symmetry_Int_Tables_number   1
_chemical_formula_structural   MoW3(SeS3)2
_chemical_formula_sum   'Mo1 W3 Se2 S6'
_cell_volume   327.53800618
_cell_formula_units_Z   1
loop_
 _symmetry_equiv_pos_site_id
 _symmetry_equiv_pos_as_xyz
  1  'x, y, z'
loop_
 _atom_site_type_symbol
 _atom_site_label
 _atom_site_symmetry_multiplicity
 _atom_site_fract_x
 _atom_site_fract_y
 _atom_site_fract_z
 _atom_site_occupancy
  Mo  Mo0  1  0.00000000  0.00000000  0.09391400  1
  W  W0  1  0.00000000  0.00000000  0.46966800  1
  W  W1  1  0.33333300  0.66666700  0.28181600  1
  W  W2  1  0.33333300  0.66666700  0.65753300  1
  Se  Se0  1  0.00000000  0.00000000  0.32904300  1
  Se  Se1  1  0.00000000  0.00000000  0.23452500  1
  S  S0  1  0.00000000  0.00000000  0.70041700  1
  S  S1  1  0.33333300  0.66666700  0.05123000  1
  S  S2  1  0.33333300  0.66666700  0.42684100  1
  S  S3  1  0.33333300  0.66666700  0.13657400  1
  S  S4  1  0.33333300  0.66666700  0.51251800  1
  S  S5  1  0.00000000  0.00000000  0.61466900  1
loop_
_geom_bond_atom_site_label_1
_geom_bond_atom_site_label_2
_geom_bond_distance
_geom_bond_site_symmetry_2
Mo0 S3 2.423756 1_545
Mo0 S3 2.423758 1_445
Mo0 S3 2.423758 1_555
Mo0 S1 2.424315 1_545
Mo0 S1 2.424317 1_555
Mo0 S1 2.424317 1_445
Se0 W1 2.533459 1_545
Se0 W1 2.533462 1_445
Se0 W1 2.533462 1_555
Se1 W1 2.535041 1_545
Se1 W1 2.535043 1_445
Se1 W1 2.535043 1_555
S0 W2 2.428986 1_545
S0 W2 2.428989 1_555
S0 W2 2.428989 1_445
S2 W0 2.427654 1_565
S2 W0 2.427656 1_665
S2 W0 2.427656 1_555
S4 W0 2.428191 1_565
S4 W0 2.428194 1_665
S4 W0 2.428194 1_555
S5 W2 2.428519 1_545
S5 W2 2.428521 1_555
S5 W2 2.428521 1_445
