# generated using pymatgen
data_Mg14AlCuO16
_symmetry_space_group_name_H-M   'P 1'
_cell_length_a   4.22695600
_cell_length_b   8.50553000
_cell_length_c   8.56780600
_cell_angle_alpha   90.00000000
_cell_angle_beta   90.00000000
_cell_angle_gamma   90.00000000
_symmetry_Int_Tables_number   1
_chemical_formula_structural   Mg14AlCuO16
_chemical_formula_sum   'Mg14 Al1 Cu1 O16'
_cell_volume   308.03405435
_cell_formula_units_Z   1
loop_
 _symmetry_equiv_pos_site_id
 _symmetry_equiv_pos_as_xyz
  1  'x, y, z'
loop_
 _atom_site_type_symbol
 _atom_site_label
 _atom_site_symmetry_multiplicity
 _atom_site_fract_x
 _atom_site_fract_y
 _atom_site_fract_z
 _atom_site_occupancy
  Mg  Mg0  1  0.00000000  0.50000000  0.00000000  1
  Mg  Mg1  1  0.00000000  0.50000000  0.50000000  1
  Mg  Mg2  1  0.50000000  0.00000000  0.25519200  1
  Mg  Mg3  1  0.50000000  0.00000000  0.74480800  1
  Mg  Mg4  1  0.50000000  0.50000000  0.25239400  1
  Mg  Mg5  1  0.50000000  0.50000000  0.74760600  1
  Mg  Mg6  1  0.50000000  0.24975800  0.00000000  1
  Mg  Mg7  1  0.50000000  0.24731900  0.50000000  1
  Mg  Mg8  1  0.50000000  0.75024200  0.00000000  1
  Mg  Mg9  1  0.50000000  0.75268100  0.50000000  1
  Mg  Mg10  1  0.00000000  0.24787500  0.25482100  1
  Mg  Mg11  1  0.00000000  0.24787500  0.74517900  1
  Mg  Mg12  1  0.00000000  0.75212500  0.25482100  1
  Mg  Mg13  1  0.00000000  0.75212500  0.74517900  1
  Al  Al0  1  0.00000000  0.00000000  0.00000000  1
  Cu  Cu0  1  0.00000000  0.00000000  0.50000000  1
  O  O0  1  0.00000000  0.23699200  0.00000000  1
  O  O1  1  0.00000000  0.26206600  0.50000000  1
  O  O2  1  0.00000000  0.76300800  0.00000000  1
  O  O3  1  0.00000000  0.73793400  0.50000000  1
  O  O4  1  0.50000000  0.24885000  0.24933800  1
  O  O5  1  0.50000000  0.24885000  0.75066200  1
  O  O6  1  0.50000000  0.75115000  0.24933800  1
  O  O7  1  0.50000000  0.75115000  0.75066200  1
  O  O8  1  0.50000000  0.00000000  0.00000000  1
  O  O9  1  0.50000000  0.00000000  0.50000000  1
  O  O10  1  0.50000000  0.50000000  0.00000000  1
  O  O11  1  0.50000000  0.50000000  0.50000000  1
  O  O12  1  0.00000000  0.00000000  0.21486100  1
  O  O13  1  0.00000000  0.00000000  0.78513900  1
  O  O14  1  0.00000000  0.50000000  0.24417400  1
  O  O15  1  0.00000000  0.50000000  0.75582600  1
loop_
_geom_bond_atom_site_label_1
_geom_bond_atom_site_label_2
_geom_bond_distance
_geom_bond_site_symmetry_2
Mg0 O15 2.092035 1_554
Mg0 O14 2.092035 1_555
Mg0 O10 2.113478 1_455
Mg0 O10 2.113478 1_555
Mg0 O2 2.237022 1_555
Mg0 O0 2.237022 1_555
Mg1 O3 2.023755 1_555
Mg1 O1 2.023755 1_555
Mg1 O11 2.113478 1_555
Mg1 O11 2.113478 1_455
Mg1 O14 2.191868 1_555
Mg1 O15 2.191868 1_555
Mg2 O9 2.097467 1_555
Mg2 O6 2.117195 1_545
Mg2 O4 2.117195 1_555
Mg2 O12 2.141540 1_655
Mg2 O12 2.141540 1_555
Mg2 O8 2.186436 1_555
Mg3 O9 2.097467 1_555
Mg3 O7 2.117195 1_545
Mg3 O5 2.117195 1_555
Mg3 O13 2.141540 1_655
Mg3 O13 2.141540 1_555
Mg3 O8 2.186436 1_556
Mg4 O14 2.114651 1_555
Mg4 O14 2.114651 1_655
Mg4 O11 2.121440 1_555
Mg4 O4 2.136324 1_555
Mg4 O6 2.136324 1_555
Mg4 O10 2.162463 1_555
Mg5 O15 2.114651 1_655
Mg5 O15 2.114651 1_555
Mg5 O11 2.121440 1_555
Mg5 O5 2.136324 1_555
Mg5 O7 2.136324 1_555
Mg5 O10 2.162463 1_556
Mg6 O0 2.116265 1_655
Mg6 O0 2.116265 1_555
Mg6 O8 2.124324 1_555
Mg6 O10 2.128441 1_555
Mg6 O4 2.136294 1_555
Mg6 O5 2.136294 1_554
Mg7 O9 2.103579 1_555
Mg7 O1 2.117197 1_555
Mg7 O1 2.117197 1_655
Mg7 O5 2.147663 1_555
Mg7 O4 2.147663 1_555
Mg7 O11 2.149186 1_555
Mg8 O2 2.116265 1_555
Mg8 O2 2.116265 1_655
Mg8 O8 2.124324 1_565
Mg8 O10 2.128441 1_555
Mg8 O6 2.136294 1_555
Mg8 O7 2.136294 1_554
Mg9 O9 2.103579 1_565
Mg9 O3 2.117197 1_555
Mg9 O3 2.117197 1_655
Mg9 O7 2.147663 1_555
Mg9 O6 2.147663 1_555
Mg9 O11 2.149186 1_555
Mg10 O1 2.104111 1_555
Mg10 O4 2.114016 1_555
Mg10 O4 2.114016 1_455
Mg10 O12 2.135926 1_555
Mg10 O14 2.146396 1_555
Mg10 O0 2.185218 1_555
Mg11 O1 2.104111 1_555
Mg11 O5 2.114016 1_455
Mg11 O5 2.114016 1_555
Mg11 O13 2.135926 1_555
Mg11 O15 2.146396 1_555
Mg11 O0 2.185218 1_556
Mg12 O3 2.104111 1_555
Mg12 O6 2.114016 1_555
Mg12 O6 2.114016 1_455
Mg12 O12 2.135926 1_565
Mg12 O14 2.146396 1_555
Mg12 O2 2.185218 1_555
Mg13 O3 2.104111 1_555
Mg13 O7 2.114016 1_455
Mg13 O7 2.114016 1_555
Mg13 O13 2.135926 1_565
Mg13 O15 2.146396 1_555
Mg13 O2 2.185218 1_556
Al0 O12 1.840887 1_555
Al0 O13 1.840887 1_554
Al0 O0 2.015743 1_555
Al0 O2 2.015743 1_545
Al0 O8 2.113478 1_455
Al0 O8 2.113478 1_555
Cu0 O9 2.113478 1_455
Cu0 O9 2.113478 1_555
Cu0 O1 2.229010 1_555
Cu0 O3 2.229010 1_545
Cu0 O13 2.443016 1_555
Cu0 O12 2.443016 1_555
