# generated using pymatgen
data_Li5(YSb2)2
_symmetry_space_group_name_H-M   'P 1'
_cell_length_a   8.41498182
_cell_length_b   8.41498182
_cell_length_c   7.84823725
_cell_angle_alpha   62.71785322
_cell_angle_beta   62.71785322
_cell_angle_gamma   30.92111016
_symmetry_Int_Tables_number   1
_chemical_formula_structural   Li5(YSb2)2
_chemical_formula_sum   'Li5 Y2 Sb4'
_cell_volume   251.21267843
_cell_formula_units_Z   1
loop_
 _symmetry_equiv_pos_site_id
 _symmetry_equiv_pos_as_xyz
  1  'x, y, z'
loop_
 _atom_site_type_symbol
 _atom_site_label
 _atom_site_symmetry_multiplicity
 _atom_site_fract_x
 _atom_site_fract_y
 _atom_site_fract_z
 _atom_site_occupancy
  Li  Li0  1  0.75920700  0.75920700  0.22344100  1
  Li  Li1  1  0.25723200  0.25723200  0.76262200  1
  Li  Li2  1  0.82675400  0.82675400  0.50801100  1
  Li  Li3  1  0.67253000  0.67253000  0.99275800  1
  Li  Li4  1  0.17539700  0.17539700  0.49160100  1
  Y  Y0  1  0.49692000  0.49692000  0.50235500  1
  Y  Y1  1  0.99890600  0.99890600  0.00082800  1
  Sb  Sb0  1  0.62289600  0.62289600  0.71037000  1
  Sb  Sb1  1  0.12112500  0.12112500  0.21358500  1
  Sb  Sb2  1  0.37337900  0.37337900  0.28425700  1
  Sb  Sb3  1  0.87256300  0.87256300  0.80032200  1
loop_
_geom_bond_atom_site_label_1
_geom_bond_atom_site_label_2
_geom_bond_distance
_geom_bond_site_symmetry_2
Li0 Li3 2.770505 1_554
Li0 Li2 2.918221 1_555
Li0 Li4 2.930545 1_565
Li0 Li4 2.930545 1_655
Li0 Sb3 2.932659 1_554
Li0 Sb2 3.087146 1_565
Li0 Sb2 3.087146 1_655
Li0 Sb1 3.196816 1_565
Li0 Sb1 3.196816 1_655
Li0 Sb0 3.384663 1_555
Li0 Y1 3.421813 1_555
Li0 Y0 3.746265 1_555
Li1 Li3 2.796716 1_455
Li1 Li3 2.796716 1_545
Li1 Li2 2.855412 1_545
Li1 Li2 2.855412 1_455
Li1 Li4 2.995333 1_555
Li1 Sb3 3.024219 1_545
Li1 Sb3 3.024219 1_455
Li1 Sb1 3.157274 1_556
Li1 Sb0 3.286104 1_455
Li1 Sb0 3.286104 1_545
Li1 Sb2 3.304039 1_555
Li1 Y0 3.425610 1_555
Li1 Y1 3.688146 1_446
Li2 Sb2 2.724808 1_565
Li2 Sb2 2.724808 1_655
Li2 Sb3 2.727013 1_555
Li2 Sb0 2.908914 1_555
Li3 Sb0 2.693909 1_555
Li3 Sb1 2.712274 1_566
Li3 Sb1 2.712274 1_656
Li3 Sb3 2.854483 1_555
Li4 Sb0 2.704523 1_455
Li4 Sb0 2.704523 1_545
Li4 Sb1 2.713465 1_555
Li4 Sb2 2.826796 1_555
Sb0 Y1 3.148451 1_546
Sb0 Y1 3.148451 1_456
Sb0 Y0 3.164496 1_555
Sb1 Y1 3.141199 1_445
Sb1 Y0 3.143944 1_545
Sb1 Y0 3.143944 1_455
Sb2 Y1 3.133364 1_455
Sb2 Y1 3.133364 1_545
Sb2 Y0 3.195046 1_555
Sb3 Y1 3.121509 1_556
Sb3 Y0 3.175358 1_565
Sb3 Y0 3.175358 1_655
