# generated using pymatgen
data_Sc36In5Co13
_symmetry_space_group_name_H-M   'P 1'
_cell_length_a   7.80057688
_cell_length_b   7.80057688
_cell_length_c   19.94998444
_cell_angle_alpha   77.16286867
_cell_angle_beta   77.16286867
_cell_angle_gamma   68.62997933
_symmetry_Int_Tables_number   1
_chemical_formula_structural   Sc36In5Co13
_chemical_formula_sum   'Sc36 In5 Co13'
_cell_volume   1088.80538907
_cell_formula_units_Z   1
loop_
 _symmetry_equiv_pos_site_id
 _symmetry_equiv_pos_as_xyz
  1  'x, y, z'
loop_
 _atom_site_type_symbol
 _atom_site_label
 _atom_site_symmetry_multiplicity
 _atom_site_fract_x
 _atom_site_fract_y
 _atom_site_fract_z
 _atom_site_occupancy
  Sc  Sc0  1  0.10347100  0.10347100  0.83986400  1
  Sc  Sc1  1  0.43740000  0.43740000  0.17344000  1
  Sc  Sc2  1  0.78846100  0.78846100  0.50816900  1
  Sc  Sc3  1  0.89652900  0.89652900  0.16013600  1
  Sc  Sc4  1  0.21153900  0.21153900  0.49183100  1
  Sc  Sc5  1  0.56260000  0.56260000  0.82656000  1
  Sc  Sc6  1  0.75290600  0.75290600  0.01565100  1
  Sc  Sc7  1  0.08015700  0.08015700  0.36379800  1
  Sc  Sc8  1  0.42151300  0.42151300  0.67992200  1
  Sc  Sc9  1  0.24709400  0.24709400  0.98434900  1
  Sc  Sc10  1  0.57848700  0.57848700  0.32007800  1
  Sc  Sc11  1  0.91984300  0.91984300  0.63620200  1
  Sc  Sc12  1  0.82654300  0.42286300  0.93790500  1
  Sc  Sc13  1  0.15890200  0.75888800  0.27248200  1
  Sc  Sc14  1  0.48802100  0.08997700  0.60349600  1
  Sc  Sc15  1  0.57713700  0.17345700  0.06209500  1
  Sc  Sc16  1  0.91002300  0.51197900  0.39650400  1
  Sc  Sc17  1  0.24111200  0.84109800  0.72751800  1
  Sc  Sc18  1  0.17345700  0.57713700  0.06209500  1
  Sc  Sc19  1  0.51197900  0.91002300  0.39650400  1
  Sc  Sc20  1  0.84109800  0.24111200  0.72751800  1
  Sc  Sc21  1  0.42286300  0.82654300  0.93790500  1
  Sc  Sc22  1  0.75888800  0.15890200  0.27248200  1
  Sc  Sc23  1  0.08997700  0.48802100  0.60349600  1
  Sc  Sc24  1  0.31839800  0.88868000  0.10332500  1
  Sc  Sc25  1  0.66639700  0.21113600  0.44096900  1
  Sc  Sc26  1  0.98431600  0.55744000  0.76824400  1
  Sc  Sc27  1  0.11132000  0.68160200  0.89667500  1
  Sc  Sc28  1  0.44256000  0.01568400  0.23175600  1
  Sc  Sc29  1  0.78886400  0.33360300  0.55903100  1
  Sc  Sc30  1  0.88868000  0.31839800  0.10332500  1
  Sc  Sc31  1  0.21113600  0.66639700  0.44096900  1
  Sc  Sc32  1  0.55744000  0.98431600  0.76824400  1
  Sc  Sc33  1  0.68160200  0.11132000  0.89667500  1
  Sc  Sc34  1  0.01568400  0.44256000  0.23175600  1
  Sc  Sc35  1  0.33360300  0.78886400  0.55903100  1
  In  In0  1  0.00000000  0.00000000  0.00000000  1
  In  In1  1  0.33347500  0.33347500  0.33345800  1
  In  In2  1  0.66652500  0.66652500  0.66654200  1
  In  In3  1  0.33314800  0.33314800  0.83263300  1
  In  In4  1  0.66685200  0.66685200  0.16736700  1
  Co  Co0  1  0.45519000  0.45519000  0.95616900  1
  Co  Co1  1  0.78896300  0.78896300  0.28965900  1
  Co  Co2  1  0.12239100  0.12239100  0.62225100  1
  Co  Co3  1  0.54481000  0.54481000  0.04383100  1
  Co  Co4  1  0.87760900  0.87760900  0.37774900  1
  Co  Co5  1  0.21103700  0.21103700  0.71034100  1
  Co  Co6  1  0.00000000  0.00000000  0.50000000  1
  Co  Co7  1  0.75283400  0.75283400  0.87187800  1
  Co  Co8  1  0.08536100  0.08536100  0.20482900  1
  Co  Co9  1  0.42287000  0.42287000  0.54000900  1
  Co  Co10  1  0.24716600  0.24716600  0.12812200  1
  Co  Co11  1  0.57713000  0.57713000  0.45999100  1
  Co  Co12  1  0.91463900  0.91463900  0.79517100  1
loop_
_geom_bond_atom_site_label_1
_geom_bond_atom_site_label_2
_geom_bond_distance
_geom_bond_site_symmetry_2
In0 Sc3 3.113239 1_445
In0 Sc0 3.113239 1_554
In0 Sc9 3.114561 1_554
In0 Sc6 3.114561 1_445
In0 Sc15 3.149979 1_455
In0 Sc18 3.149979 1_545
In0 Sc21 3.149979 1_544
In0 Sc12 3.149979 1_454
In0 Sc30 3.328613 1_455
In0 Sc24 3.328613 1_545
In0 Sc33 3.328613 1_454
In0 Sc27 3.328613 1_544
In1 Sc10 3.096061 1_555
In1 Sc1 3.111993 1_555
In1 Sc4 3.127402 1_555
In1 Sc7 3.155696 1_555
In1 Sc22 3.161550 1_555
In1 Sc13 3.161550 1_555
In1 Sc19 3.164156 1_545
In1 Sc16 3.164156 1_455
In1 Sc34 3.304006 1_555
In1 Sc28 3.304006 1_555
In1 Sc31 3.466242 1_555
In1 Sc25 3.466242 1_555
In2 Sc8 3.096061 1_555
In2 Sc5 3.111993 1_555
In2 Sc2 3.127402 1_555
In2 Sc11 3.155696 1_555
In2 Sc17 3.161550 1_555
In2 Sc20 3.161550 1_555
In2 Sc23 3.164156 1_655
In2 Sc14 3.164156 1_565
In2 Sc32 3.304006 1_555
In2 Sc26 3.304006 1_555
In2 Sc35 3.466242 1_555
In2 Sc29 3.466242 1_555
In3 Sc0 2.924066 1_555
In3 Sc5 2.926406 1_555
In3 Sc9 2.930024 1_555
In3 Sc8 2.951588 1_555
In3 Sc27 3.024550 1_555
In3 Sc33 3.024550 1_555
In3 Sc32 3.033230 1_545
In3 Sc26 3.033230 1_455
In4 Sc3 2.924066 1_555
In4 Sc1 2.926406 1_555
In4 Sc6 2.930024 1_555
In4 Sc10 2.951588 1_555
In4 Sc24 3.024550 1_555
In4 Sc30 3.024550 1_555
In4 Sc28 3.033230 1_565
In4 Sc34 3.033230 1_655
Co0 Co3 2.340656 1_556
Co0 Sc5 2.583812 1_555
Co0 Sc9 2.587540 1_555
Co0 Sc15 2.739782 1_556
Co0 Sc18 2.739782 1_556
Co0 Sc21 2.761715 1_555
Co0 Sc12 2.761715 1_555
Co0 Sc33 2.958692 1_555
Co0 Sc27 2.958692 1_555
Co1 Co4 2.339490 1_555
Co1 Sc3 2.582880 1_555
Co1 Sc10 2.615060 1_555
Co1 Sc19 2.732145 1_555
Co1 Sc16 2.732145 1_555
Co1 Sc22 2.757330 1_565
Co1 Sc13 2.757330 1_655
Co1 Sc34 2.959769 1_655
Co1 Sc28 2.959769 1_565
Co2 Co5 2.339490 1_555
Co2 Sc4 2.545850 1_555
Co2 Sc11 2.549255 1_445
Co2 Sc23 2.716767 1_555
Co2 Sc14 2.716767 1_555
Co2 Sc20 2.723659 1_455
Co2 Sc17 2.723659 1_545
Co2 Sc35 2.912886 1_545
Co2 Sc29 2.912886 1_455
Co3 Sc1 2.583812 1_555
Co3 Sc6 2.587540 1_555
Co3 Sc21 2.739782 1_554
Co3 Sc12 2.739782 1_554
Co3 Sc18 2.761715 1_555
Co3 Sc15 2.761715 1_555
Co3 Sc24 2.958692 1_555
Co3 Sc30 2.958692 1_555
Co4 Sc2 2.545850 1_555
Co4 Sc7 2.549255 1_665
Co4 Sc19 2.716767 1_555
Co4 Sc16 2.716767 1_555
Co4 Sc22 2.723659 1_565
Co4 Sc13 2.723659 1_655
Co4 Sc31 2.912886 1_655
Co4 Sc25 2.912886 1_565
Co5 Sc0 2.582880 1_555
Co5 Sc8 2.615060 1_555
Co5 Sc14 2.732145 1_555
Co5 Sc23 2.732145 1_555
Co5 Sc17 2.757330 1_545
Co5 Sc20 2.757330 1_455
Co5 Sc26 2.959769 1_455
Co5 Sc32 2.959769 1_545
Co6 Sc11 2.634433 1_445
Co6 Sc7 2.634433 1_555
Co6 Sc4 2.686596 1_555
Co6 Sc2 2.686596 1_445
Co6 Sc29 2.871902 1_455
Co6 Sc35 2.871902 1_545
Co6 Sc25 2.871902 1_455
Co6 Sc31 2.871902 1_545
Co7 Sc12 2.538182 1_555
Co7 Sc21 2.538182 1_555
Co7 Sc32 2.755691 1_555
Co7 Sc26 2.755691 1_555
Co7 Sc27 2.780916 1_655
Co7 Sc33 2.780916 1_565
Co7 Sc5 2.831722 1_555
Co7 Sc6 2.868519 1_556
Co8 Sc13 2.527505 1_545
Co8 Sc22 2.527505 1_455
Co8 Sc30 2.733358 1_455
Co8 Sc24 2.733358 1_545
Co8 Sc28 2.789170 1_555
Co8 Sc34 2.789170 1_555
Co8 Sc3 2.807652 1_445
Co8 Sc7 3.154052 1_555
Co9 Sc14 2.543302 1_555
Co9 Sc23 2.543302 1_555
Co9 Sc29 2.773969 1_555
Co9 Sc35 2.773969 1_555
Co9 Sc25 2.781412 1_555
Co9 Sc31 2.781412 1_555
Co9 Sc8 2.786609 1_555
Co9 Sc4 3.122113 1_555
Co10 Co8 2.229892 1_555
Co10 Sc15 2.538182 1_555
Co10 Sc18 2.538182 1_555
Co10 Sc34 2.755691 1_555
Co10 Sc28 2.755691 1_555
Co10 Sc30 2.780916 1_455
Co10 Sc24 2.780916 1_545
Co10 Sc1 2.831722 1_555
Co10 Sc9 2.868519 1_554
Co11 Co9 2.189152 1_555
Co11 Sc19 2.543302 1_555
Co11 Sc16 2.543302 1_555
Co11 Sc25 2.773969 1_555
Co11 Sc31 2.773969 1_555
Co11 Sc35 2.781412 1_555
Co11 Sc29 2.781412 1_555
Co11 Sc10 2.786609 1_555
Co11 Sc2 3.122113 1_555
Co12 Co7 2.229892 1_555
Co12 Sc17 2.527505 1_655
Co12 Sc20 2.527505 1_565
Co12 Sc27 2.733358 1_655
Co12 Sc33 2.733358 1_565
Co12 Sc26 2.789170 1_555
Co12 Sc32 2.789170 1_555
Co12 Sc0 2.807652 1_665
Co12 Sc11 3.154052 1_555
