# generated using pymatgen
data_NaOsN2
_symmetry_space_group_name_H-M   'P 1'
_cell_length_a   5.76750100
_cell_length_b   11.43267800
_cell_length_c   14.86840500
_cell_angle_alpha   90.00000000
_cell_angle_beta   90.00000000
_cell_angle_gamma   90.00000000
_symmetry_Int_Tables_number   1
_chemical_formula_structural   NaOsN2
_chemical_formula_sum   'Na16 Os16 N32'
_cell_volume   980.39261825
_cell_formula_units_Z   16
loop_
 _symmetry_equiv_pos_site_id
 _symmetry_equiv_pos_as_xyz
  1  'x, y, z'
loop_
 _atom_site_type_symbol
 _atom_site_label
 _atom_site_symmetry_multiplicity
 _atom_site_fract_x
 _atom_site_fract_y
 _atom_site_fract_z
 _atom_site_occupancy
  Na  Na0  1  0.22149200  0.96827300  0.44151600  1
  Na  Na1  1  0.72149200  0.53172700  0.55848400  1
  Na  Na2  1  0.77850800  0.46827300  0.05848400  1
  Na  Na3  1  0.27850800  0.03172700  0.94151600  1
  Na  Na4  1  0.77850800  0.03172700  0.55848400  1
  Na  Na5  1  0.27850800  0.46827300  0.44151600  1
  Na  Na6  1  0.22149200  0.53172700  0.94151600  1
  Na  Na7  1  0.72149200  0.96827300  0.05848400  1
  Na  Na8  1  0.27734900  0.25731700  0.31248300  1
  Na  Na9  1  0.77734900  0.24268300  0.68751700  1
  Na  Na10  1  0.72265100  0.75731700  0.18751700  1
  Na  Na11  1  0.22265100  0.74268300  0.81248300  1
  Na  Na12  1  0.72265100  0.74268300  0.68751700  1
  Na  Na13  1  0.22265100  0.75731700  0.31248300  1
  Na  Na14  1  0.27734900  0.24268300  0.81248300  1
  Na  Na15  1  0.77734900  0.25731700  0.18751700  1
  Os  Os0  1  0.68056200  0.02105700  0.31175400  1
  Os  Os1  1  0.18056200  0.47894300  0.68824600  1
  Os  Os2  1  0.31943800  0.52105700  0.18824600  1
  Os  Os3  1  0.81943800  0.97894300  0.81175400  1
  Os  Os4  1  0.31943800  0.97894300  0.68824600  1
  Os  Os5  1  0.81943800  0.52105700  0.31175400  1
  Os  Os6  1  0.68056200  0.47894300  0.81175400  1
  Os  Os7  1  0.18056200  0.02105700  0.18824600  1
  Os  Os8  1  0.77056300  0.27859300  0.43554200  1
  Os  Os9  1  0.27056300  0.22140700  0.56445800  1
  Os  Os10  1  0.22943700  0.77859300  0.06445800  1
  Os  Os11  1  0.72943700  0.72140700  0.93554200  1
  Os  Os12  1  0.22943700  0.72140700  0.56445800  1
  Os  Os13  1  0.72943700  0.77859300  0.43554200  1
  Os  Os14  1  0.77056300  0.22140700  0.93554200  1
  Os  Os15  1  0.27056300  0.27859300  0.06445800  1
  N  N0  1  0.08901900  0.26270100  0.46437300  1
  N  N1  1  0.58901900  0.23729900  0.53562700  1
  N  N2  1  0.91098100  0.76270100  0.03562700  1
  N  N3  1  0.41098100  0.73729900  0.96437300  1
  N  N4  1  0.91098100  0.73729900  0.53562700  1
  N  N5  1  0.41098100  0.76270100  0.46437300  1
  N  N6  1  0.08901900  0.23729900  0.96437300  1
  N  N7  1  0.58901900  0.26270100  0.03562700  1
  N  N8  1  0.70558900  0.43931600  0.41269900  1
  N  N9  1  0.20558900  0.06068400  0.58730100  1
  N  N10  1  0.29441100  0.93931600  0.08730100  1
  N  N11  1  0.79441100  0.56068400  0.91269900  1
  N  N12  1  0.29441100  0.56068400  0.58730100  1
  N  N13  1  0.79441100  0.93931600  0.41269900  1
  N  N14  1  0.70558900  0.06068400  0.91269900  1
  N  N15  1  0.20558900  0.43931600  0.08730100  1
  N  N16  1  0.68344300  0.18328600  0.33674100  1
  N  N17  1  0.18344300  0.31671400  0.66325900  1
  N  N18  1  0.31655700  0.68328600  0.16325900  1
  N  N19  1  0.81655700  0.81671400  0.83674100  1
  N  N20  1  0.31655700  0.81671400  0.66325900  1
  N  N21  1  0.81655700  0.68328600  0.33674100  1
  N  N22  1  0.68344300  0.31671400  0.83674100  1
  N  N23  1  0.18344300  0.18328600  0.16325900  1
  N  N24  1  0.63180900  0.47909300  0.21160500  1
  N  N25  1  0.13180900  0.02090700  0.78839500  1
  N  N26  1  0.36819100  0.97909300  0.28839500  1
  N  N27  1  0.86819100  0.52090700  0.71160500  1
  N  N28  1  0.36819100  0.52090700  0.78839500  1
  N  N29  1  0.86819100  0.97909300  0.21160500  1
  N  N30  1  0.63180900  0.02090700  0.71160500  1
  N  N31  1  0.13180900  0.47909300  0.28839500  1
loop_
_geom_bond_atom_site_label_1
_geom_bond_atom_site_label_2
_geom_bond_distance
_geom_bond_site_symmetry_2
N0 Os9 1.879803 1_555
N0 Os8 1.894787 1_455
N0 Na8 2.506752 1_555
N0 Na5 2.614096 1_555
N1 Os8 1.879803 1_555
N1 Os9 1.894787 1_555
N1 Na9 2.506752 1_555
N1 Na4 2.614096 1_555
N2 Os11 1.879803 1_554
N2 Os10 1.894787 1_655
N2 Na10 2.506752 1_555
N2 Na7 2.614096 1_555
N3 Os10 1.879803 1_556
N3 Os11 1.894787 1_555
N3 Na11 2.506752 1_555
N3 Na6 2.614096 1_555
N4 Os13 1.879803 1_555
N4 Os12 1.894787 1_655
N4 Na12 2.506752 1_555
N4 Na1 2.614096 1_555
N5 Os12 1.879803 1_555
N5 Os13 1.894787 1_555
N5 Na13 2.506752 1_555
N5 Na0 2.614096 1_555
N6 Os15 1.879803 1_556
N6 Os14 1.894787 1_455
N6 Na14 2.506752 1_555
N6 Na3 2.614096 1_555
N7 Os14 1.879803 1_554
N7 Os15 1.894787 1_555
N7 Na15 2.506752 1_555
N7 Na2 2.614096 1_555
N8 Os5 1.886042 1_555
N8 Os8 1.905825 1_555
N8 Na1 2.413103 1_555
N8 Na5 2.522000 1_555
N9 Os4 1.886042 1_545
N9 Os9 1.905825 1_555
N9 Na0 2.413103 1_545
N9 Na4 2.522000 1_455
N10 Os7 1.886042 1_565
N10 Os10 1.905825 1_555
N10 Na3 2.413103 1_564
N10 Na7 2.522000 1_555
N11 Os6 1.886042 1_555
N11 Os11 1.905825 1_555
N11 Na2 2.413103 1_556
N11 Na6 2.522000 1_655
N12 Os1 1.886042 1_555
N12 Os12 1.905825 1_555
N12 Na5 2.413103 1_555
N12 Na1 2.522000 1_555
N13 Os0 1.886042 1_565
N13 Os13 1.905825 1_555
N13 Na4 2.413103 1_565
N13 Na0 2.522000 1_655
N14 Os3 1.886042 1_545
N14 Os14 1.905825 1_555
N14 Na7 2.413103 1_546
N14 Na3 2.522000 1_555
N15 Os2 1.886042 1_555
N15 Os15 1.905825 1_555
N15 Na6 2.413103 1_554
N15 Na2 2.522000 1_455
N16 Os0 1.891628 1_555
N16 Os8 1.896768 1_555
N16 Na15 2.435654 1_555
N16 Na8 2.516364 1_555
N17 Os1 1.891628 1_555
N17 Os9 1.896768 1_555
N17 Na14 2.435654 1_555
N17 Na9 2.516364 1_455
N18 Os2 1.891628 1_555
N18 Os10 1.896768 1_555
N18 Na13 2.435654 1_555
N18 Na10 2.516364 1_555
N19 Os3 1.891628 1_555
N19 Os11 1.896768 1_555
N19 Na12 2.435654 1_555
N19 Na11 2.516364 1_655
N20 Os4 1.891628 1_555
N20 Os12 1.896768 1_555
N20 Na11 2.435654 1_555
N20 Na12 2.516364 1_555
N21 Os5 1.891628 1_555
N21 Os13 1.896768 1_555
N21 Na10 2.435654 1_555
N21 Na13 2.516364 1_655
N22 Os6 1.891628 1_555
N22 Os14 1.896768 1_555
N22 Na9 2.435654 1_555
N22 Na14 2.516364 1_555
N23 Os7 1.891628 1_555
N23 Os15 1.896768 1_555
N23 Na8 2.435654 1_555
N23 Na15 2.516364 1_455
N24 Os2 1.896459 1_555
N24 Os5 1.902238 1_555
N24 Na2 2.431947 1_555
N24 Na15 2.694735 1_555
N25 Os3 1.896459 1_445
N25 Os4 1.902238 1_545
N25 Na3 2.431947 1_555
N25 Na14 2.694735 1_555
N26 Os0 1.896459 1_565
N26 Os7 1.902238 1_565
N26 Na0 2.431947 1_555
N26 Na13 2.694735 1_555
N27 Os1 1.896459 1_655
N27 Os6 1.902238 1_555
N27 Na1 2.431947 1_555
N27 Na12 2.694735 1_555
N28 Os6 1.896459 1_555
N28 Os1 1.902238 1_555
N28 Na6 2.431947 1_555
N28 Na11 2.694735 1_555
N29 Os7 1.896459 1_665
N29 Os0 1.902238 1_565
N29 Na7 2.431947 1_555
N29 Na10 2.694735 1_555
N30 Os4 1.896459 1_545
N30 Os3 1.902238 1_545
N30 Na4 2.431947 1_555
N30 Na9 2.694735 1_555
N31 Os5 1.896459 1_455
N31 Os2 1.902238 1_555
N31 Na5 2.431947 1_555
N31 Na8 2.694735 1_555
