# generated using pymatgen
data_MgZn4(Se2O5)4
_symmetry_space_group_name_H-M   'P 1'
_cell_length_a   6.33234265
_cell_length_b   6.84043170
_cell_length_c   10.98030179
_cell_angle_alpha   90.56370421
_cell_angle_beta   94.99204971
_cell_angle_gamma   92.16323054
_symmetry_Int_Tables_number   1
_chemical_formula_structural   MgZn4(Se2O5)4
_chemical_formula_sum   'Mg1 Zn4 Se8 O20'
_cell_volume   473.43933577
_cell_formula_units_Z   1
loop_
 _symmetry_equiv_pos_site_id
 _symmetry_equiv_pos_as_xyz
  1  'x, y, z'
loop_
 _atom_site_type_symbol
 _atom_site_label
 _atom_site_symmetry_multiplicity
 _atom_site_fract_x
 _atom_site_fract_y
 _atom_site_fract_z
 _atom_site_occupancy
  Mg  Mg0  1  0.94141298  0.30263507  0.61566713  1
  Zn  Zn0  1  0.75241400  0.96823524  0.91100532  1
  Zn  Zn1  1  0.34674233  0.52128476  0.56262338  1
  Zn  Zn2  1  0.23573879  0.00110922  0.04698953  1
  Zn  Zn3  1  0.78184808  0.55149231  0.41280033  1
  Se  Se0  1  0.97209130  0.38046723  0.87403039  1
  Se  Se1  1  0.48709759  0.14561203  0.66173503  1
  Se  Se2  1  0.98305860  0.83497724  0.66953395  1
  Se  Se3  1  0.45026493  0.61505105  0.85849608  1
  Se  Se4  1  0.93740826  0.64133272  0.14818799  1
  Se  Se5  1  0.44812125  0.88393298  0.34283745  1
  Se  Se6  1  0.01520509  0.13113994  0.34025674  1
  Se  Se7  1  0.49410346  0.38005113  0.16928855  1
  O  O0  1  0.83919017  0.00838504  0.58866070  1
  O  O1  1  0.21292783  0.52180239  0.93453487  1
  O  O2  1  0.24353083  0.98999650  0.42574769  1
  O  O3  1  0.67812376  0.53750162  0.08468988  1
  O  O4  1  0.25673353  0.27882396  0.66676170  1
  O  O5  1  0.61206593  0.18835141  0.80593903  1
  O  O6  1  0.82391406  0.76102121  0.78178042  1
  O  O7  1  0.35513380  0.68329067  0.71600266  1
  O  O8  1  0.86245089  0.73635839  0.28236295  1
  O  O9  1  0.31871895  0.80880613  0.20887394  1
  O  O10  1  0.12926784  0.20694027  0.21654776  1
  O  O11  1  0.65911447  0.32697203  0.29686633  1
  O  O12  1  0.04437867  0.33447500  0.43785891  1
  O  O13  1  0.50193003  0.17274033  0.08371514  1
  O  O14  1  0.94117898  0.84617065  0.05812693  1
  O  O15  1  0.47425838  0.66491494  0.42692032  1
  O  O16  1  0.95919192  0.62006240  0.57154944  1
  O  O17  1  0.45531354  0.83950841  0.93440690  1
  O  O18  1  0.03726558  0.13199408  0.91323063  1
  O  O19  1  0.61438719  0.33641567  0.58322194  1
loop_
_geom_bond_atom_site_label_1
_geom_bond_atom_site_label_2
_geom_bond_distance
_geom_bond_site_symmetry_2
Mg0 O4 2.039500 1_655
Mg0 O19 2.092377 1_555
Mg0 O0 2.101139 1_555
Mg0 O12 2.122161 1_655
Mg0 O16 2.230200 1_555
O0 Se2 1.728316 1_545
O1 Se0 1.844340 1_455
O1 Se3 1.875945 1_555
O2 Se5 1.815712 1_555
O2 Se6 1.946997 1_565
O3 Se4 1.841015 1_555
O3 Se7 1.869247 1_555
O4 Se1 1.753479 1_555
O4 Zn1 2.112465 1_555
O5 Se1 1.724592 1_555
O5 Zn0 2.084380 1_545
O6 Se2 1.726413 1_555
O6 Zn0 2.085222 1_555
O7 Se3 1.703051 1_555
O7 Zn1 2.002631 1_555
O8 Se4 1.715963 1_555
O8 Zn3 2.006262 1_555
O9 Se5 1.686069 1_555
O9 Zn2 2.258708 1_565
O10 Se6 1.670936 1_555
O10 Zn2 2.478264 1_555
O11 Se7 1.723347 1_555
O11 Zn3 2.069420 1_555
O12 Se6 1.741864 1_555
O12 Zn3 2.271089 1_455
O12 Zn1 2.549511 1_555
O13 Se7 1.698096 1_555
O13 Zn2 2.026141 1_555
O14 Se4 1.723555 1_555
O14 Zn0 2.121664 1_554
O14 Zn2 2.123772 1_665
O15 Se5 1.773041 1_555
O15 Zn1 2.003971 1_555
O15 Zn3 2.141040 1_555
O16 Se2 1.807050 1_555
O16 Zn3 2.030530 1_555
O17 Se3 1.737719 1_555
O17 Zn0 2.084313 1_555
O17 Zn2 2.252038 1_566
O18 Se0 1.811322 1_455
O18 Zn2 2.080340 1_556
O18 Zn0 2.085251 1_445
O19 Se1 1.777656 1_555
O19 Zn1 2.150222 1_555
