# generated using pymatgen
data_CeYFe4
_symmetry_space_group_name_H-M   'P 1'
_cell_length_a   5.20489492
_cell_length_b   5.20489492
_cell_length_c   5.20489492
_cell_angle_alpha   90.00000000
_cell_angle_beta   60.00000000
_cell_angle_gamma   120.00000000
_symmetry_Int_Tables_number   1
_chemical_formula_structural   CeYFe4
_chemical_formula_sum   'Ce1 Y1 Fe4'
_cell_volume   99.70590948
_cell_formula_units_Z   1
loop_
 _symmetry_equiv_pos_site_id
 _symmetry_equiv_pos_as_xyz
  1  'x, y, z'
loop_
 _atom_site_type_symbol
 _atom_site_label
 _atom_site_symmetry_multiplicity
 _atom_site_fract_x
 _atom_site_fract_y
 _atom_site_fract_z
 _atom_site_occupancy
  Ce  Ce0  1  0.50000000  0.75000000  0.75000000  1
  Y  Y0  1  0.00000000  -0.00000000  -0.00000000  1
  Fe  Fe0  1  0.75141793  0.37570896  0.87287211  1
  Fe  Fe1  1  0.24858207  0.37570896  0.37570896  1
  Fe  Fe2  1  0.24858207  0.87287211  0.37570896  1
  Fe  Fe3  1  0.75141793  0.37570896  0.37570896  1
loop_
_geom_bond_atom_site_label_1
_geom_bond_atom_site_label_2
_geom_bond_distance
_geom_bond_site_symmetry_2
Ce0 Fe0 3.050077 1_565
Ce0 Fe2 3.050077 1_556
Ce0 Fe0 3.050077 1_555
Ce0 Fe2 3.050077 1_555
Ce0 Fe1 3.050080 1_665
Ce0 Fe1 3.050080 1_556
Ce0 Fe3 3.050080 1_565
Ce0 Fe3 3.050080 1_456
Ce0 Fe1 3.050080 1_555
Ce0 Fe3 3.050080 1_555
Ce0 Fe0 3.050082 1_455
Ce0 Fe2 3.050082 1_655
Ce0 Y0 3.187334 1_556
Ce0 Y0 3.187334 1_566
Ce0 Y0 3.187334 1_666
Ce0 Y0 3.187334 1_665
Fe0 Fe3 2.587682 1_555
Fe0 Fe2 2.587682 1_655
Fe0 Fe1 2.587685 1_655
Fe0 Fe1 2.617210 1_556
Fe0 Fe3 2.617213 1_556
Fe0 Fe2 2.617213 1_546
Fe0 Y0 3.053224 1_556
Fe0 Y0 3.053229 1_656
Fe0 Y0 3.053229 1_666
Fe1 Fe2 2.587682 1_555
Fe1 Fe3 2.587687 1_455
Fe1 Fe3 2.617208 1_555
Fe1 Fe2 2.617213 1_545
Fe1 Y0 3.053227 1_555
Fe1 Y0 3.053227 1_556
Fe1 Y0 3.053227 1_665
Fe2 Fe3 2.587685 1_455
Fe2 Fe3 2.617210 1_565
Fe2 Y0 3.053224 1_665
Fe2 Y0 3.053229 1_565
Fe2 Y0 3.053229 1_566
Fe3 Y0 3.053227 1_655
Fe3 Y0 3.053227 1_665
Fe3 Y0 3.053227 1_556
