# generated using pymatgen
data_Y3C4
_symmetry_space_group_name_H-M   'P 1'
_cell_length_a   8.10416372
_cell_length_b   8.10416372
_cell_length_c   15.97977528
_cell_angle_alpha   90.00000000
_cell_angle_beta   90.00000000
_cell_angle_gamma   90.00000000
_symmetry_Int_Tables_number   1
_chemical_formula_structural   Y3C4
_chemical_formula_sum   'Y30 C40'
_cell_volume   1049.51120518
_cell_formula_units_Z   10
loop_
 _symmetry_equiv_pos_site_id
 _symmetry_equiv_pos_as_xyz
  1  'x, y, z'
loop_
 _atom_site_type_symbol
 _atom_site_label
 _atom_site_symmetry_multiplicity
 _atom_site_fract_x
 _atom_site_fract_y
 _atom_site_fract_z
 _atom_site_occupancy
  Y  Y0  1  0.50000000  0.50000000  0.50000000  1
  Y  Y1  1  0.00000000  0.00000000  0.00000000  1
  Y  Y2  1  0.50000000  0.50000000  0.18736704  1
  Y  Y3  1  0.00000000  0.00000000  0.68736704  1
  Y  Y4  1  0.50000000  0.50000000  0.81263296  1
  Y  Y5  1  0.00000000  0.00000000  0.31263296  1
  Y  Y6  1  0.70191701  0.90418523  0.50000000  1
  Y  Y7  1  0.29808299  0.09581477  0.50000000  1
  Y  Y8  1  0.79808299  0.40418523  0.00000000  1
  Y  Y9  1  0.20191701  0.59581477  0.00000000  1
  Y  Y10  1  0.90418523  0.29808299  0.50000000  1
  Y  Y11  1  0.09581477  0.70191701  0.50000000  1
  Y  Y12  1  0.40418523  0.20191701  0.00000000  1
  Y  Y13  1  0.59581477  0.79808299  0.00000000  1
  Y  Y14  1  0.78837320  0.60001744  0.35332161  1
  Y  Y15  1  0.21162680  0.39998256  0.35332161  1
  Y  Y16  1  0.71162680  0.10001744  0.85332161  1
  Y  Y17  1  0.28837320  0.89998256  0.85332161  1
  Y  Y18  1  0.60001744  0.21162680  0.35332161  1
  Y  Y19  1  0.39998256  0.78837320  0.35332161  1
  Y  Y20  1  0.10001744  0.28837320  0.85332161  1
  Y  Y21  1  0.89998256  0.71162680  0.85332161  1
  Y  Y22  1  0.21162680  0.39998256  0.64667839  1
  Y  Y23  1  0.78837320  0.60001744  0.64667839  1
  Y  Y24  1  0.28837320  0.89998256  0.14667839  1
  Y  Y25  1  0.71162680  0.10001744  0.14667839  1
  Y  Y26  1  0.39998256  0.78837320  0.64667839  1
  Y  Y27  1  0.60001744  0.21162680  0.64667839  1
  Y  Y28  1  0.89998256  0.71162680  0.14667839  1
  Y  Y29  1  0.10001744  0.28837320  0.14667839  1
  C  C0  1  0.50000000  0.50000000  0.95947611  1
  C  C1  1  0.00000000  0.00000000  0.45947611  1
  C  C2  1  0.50000000  0.50000000  0.04052389  1
  C  C3  1  0.00000000  0.00000000  0.54052389  1
  C  C4  1  0.50000000  0.50000000  0.34242117  1
  C  C5  1  0.00000000  0.00000000  0.84242117  1
  C  C6  1  0.50000000  0.50000000  0.65757883  1
  C  C7  1  0.00000000  0.00000000  0.15757883  1
  C  C8  1  0.60627690  0.19543118  0.50000000  1
  C  C9  1  0.39372310  0.80456882  0.50000000  1
  C  C10  1  0.89372310  0.69543118  0.00000000  1
  C  C11  1  0.10627690  0.30456882  0.00000000  1
  C  C12  1  0.19543118  0.39372310  0.50000000  1
  C  C13  1  0.80456882  0.60627690  0.50000000  1
  C  C14  1  0.69543118  0.10627690  0.00000000  1
  C  C15  1  0.30456882  0.89372310  0.00000000  1
  C  C16  1  0.69373440  0.90211971  0.32632434  1
  C  C17  1  0.30626560  0.09788029  0.32632434  1
  C  C18  1  0.80626560  0.40211971  0.82632434  1
  C  C19  1  0.19373440  0.59788029  0.82632434  1
  C  C20  1  0.90211971  0.30626560  0.32632434  1
  C  C21  1  0.09788029  0.69373440  0.32632434  1
  C  C22  1  0.40211971  0.19373440  0.82632434  1
  C  C23  1  0.59788029  0.80626560  0.82632434  1
  C  C24  1  0.30626560  0.09788029  0.67367566  1
  C  C25  1  0.69373440  0.90211971  0.67367566  1
  C  C26  1  0.19373440  0.59788029  0.17367566  1
  C  C27  1  0.80626560  0.40211971  0.17367566  1
  C  C28  1  0.09788029  0.69373440  0.67367566  1
  C  C29  1  0.90211971  0.30626560  0.67367566  1
  C  C30  1  0.59788029  0.80626560  0.17367566  1
  C  C31  1  0.40211971  0.19373440  0.17367566  1
  C  C32  1  0.64964823  0.85035177  0.25000000  1
  C  C33  1  0.35035177  0.14964823  0.25000000  1
  C  C34  1  0.85035177  0.35035177  0.75000000  1
  C  C35  1  0.14964823  0.64964823  0.75000000  1
  C  C36  1  0.85035177  0.35035177  0.25000000  1
  C  C37  1  0.14964823  0.64964823  0.25000000  1
  C  C38  1  0.35035177  0.14964823  0.75000000  1
  C  C39  1  0.64964823  0.85035177  0.75000000  1
loop_
_geom_bond_atom_site_label_1
_geom_bond_atom_site_label_2
_geom_bond_distance
_geom_bond_site_symmetry_2
C0 C2 1.295125 1_556
C0 Y4 2.346521 1_555
C0 Y12 2.618770 1_556
C0 Y9 2.618770 1_556
C0 Y13 2.618770 1_556
C0 Y8 2.618770 1_556
C1 C3 1.295125 1_555
C1 Y5 2.346521 1_555
C1 Y11 2.618770 1_545
C1 Y6 2.618770 1_445
C1 Y7 2.618770 1_555
C1 Y10 2.618770 1_455
C2 Y2 2.346521 1_555
C2 Y12 2.618770 1_555
C2 Y9 2.618770 1_555
C2 Y13 2.618770 1_555
C2 Y8 2.618770 1_555
C3 Y3 2.346521 1_555
C3 Y11 2.618770 1_545
C3 Y6 2.618770 1_445
C3 Y7 2.618770 1_555
C3 Y10 2.618770 1_455
C4 Y2 2.477730 1_555
C4 Y14 2.479723 1_555
C4 Y18 2.479723 1_555
C4 Y15 2.479723 1_555
C4 Y19 2.479723 1_555
C4 Y0 2.518074 1_555
C5 Y3 2.477730 1_555
C5 Y17 2.479723 1_545
C5 Y20 2.479723 1_555
C5 Y21 2.479723 1_445
C5 Y16 2.479723 1_455
C5 Y1 2.518074 1_556
C6 Y4 2.477730 1_555
C6 Y23 2.479723 1_555
C6 Y27 2.479723 1_555
C6 Y22 2.479723 1_555
C6 Y26 2.479723 1_555
C6 Y0 2.518074 1_555
C7 Y5 2.477730 1_555
C7 Y29 2.479723 1_555
C7 Y25 2.479723 1_455
C7 Y28 2.479723 1_445
C7 Y24 2.479723 1_545
C7 Y1 2.518074 1_555
C8 Y18 2.348108 1_555
C8 Y27 2.348108 1_555
C8 Y6 2.484309 1_545
C8 Y10 2.553606 1_555
C8 Y0 2.614230 1_555
C8 Y7 2.624885 1_555
C9 Y19 2.348108 1_555
C9 Y26 2.348108 1_555
C9 Y7 2.484309 1_565
C9 Y11 2.553606 1_555
C9 Y0 2.614230 1_555
C9 Y6 2.624885 1_555
C10 Y21 2.348108 1_554
C10 Y28 2.348108 1_555
C10 Y8 2.484309 1_555
C10 Y13 2.553606 1_555
C10 Y1 2.614230 1_665
C10 Y9 2.624885 1_655
C11 Y20 2.348108 1_554
C11 Y29 2.348108 1_555
C11 Y9 2.484309 1_555
C11 Y12 2.553606 1_555
C11 Y1 2.614230 1_555
C11 Y8 2.624885 1_455
C12 Y15 2.348108 1_555
C12 Y22 2.348108 1_555
C12 Y10 2.484309 1_455
C12 Y7 2.553606 1_555
C12 Y0 2.614230 1_555
C12 Y11 2.624885 1_555
C13 Y14 2.348108 1_555
C13 Y23 2.348108 1_555
C13 Y11 2.484309 1_655
C13 Y6 2.553606 1_555
C13 Y0 2.614230 1_555
C13 Y10 2.624885 1_555
C14 Y16 2.348108 1_554
C14 Y25 2.348108 1_555
C14 Y12 2.484309 1_555
C14 Y8 2.553606 1_555
C14 Y1 2.614230 1_655
C14 Y13 2.624885 1_545
C15 Y17 2.348108 1_554
C15 Y24 2.348108 1_555
C15 Y13 2.484309 1_555
C15 Y9 2.553606 1_555
C15 Y1 2.614230 1_565
C15 Y12 2.624885 1_565
C16 C32 1.338356 1_555
C16 Y19 2.589051 1_555
C16 Y14 2.601627 1_555
C16 Y5 2.614871 1_665
C16 Y18 2.656031 1_565
C16 Y6 2.776141 1_555
C17 C33 1.338356 1_555
C17 Y18 2.589051 1_555
C17 Y15 2.601627 1_555
C17 Y5 2.614871 1_555
C17 Y19 2.656031 1_545
C17 Y7 2.776141 1_555
C18 C34 1.338356 1_555
C18 Y20 2.589051 1_655
C18 Y16 2.601627 1_555
C18 Y4 2.614871 1_555
C18 Y21 2.656031 1_555
C18 Y8 2.776141 1_556
C19 C35 1.338356 1_555
C19 Y21 2.589051 1_455
C19 Y17 2.601627 1_555
C19 Y4 2.614871 1_555
C19 Y20 2.656031 1_555
C19 Y9 2.776141 1_556
C20 C36 1.338356 1_555
C20 Y14 2.589051 1_555
C20 Y18 2.601627 1_555
C20 Y5 2.614871 1_655
C20 Y15 2.656031 1_655
C20 Y10 2.776141 1_555
C21 C37 1.338356 1_555
C21 Y15 2.589051 1_555
C21 Y19 2.601627 1_555
C21 Y5 2.614871 1_565
C21 Y14 2.656031 1_455
C21 Y11 2.776141 1_555
C22 C38 1.338356 1_555
C22 Y17 2.589051 1_545
C22 Y20 2.601627 1_555
C22 Y4 2.614871 1_555
C22 Y16 2.656031 1_555
C22 Y12 2.776141 1_556
C23 C39 1.338356 1_555
C23 Y16 2.589051 1_565
C23 Y21 2.601627 1_555
C23 Y4 2.614871 1_555
C23 Y17 2.656031 1_555
C23 Y13 2.776141 1_556
C24 C38 1.338356 1_555
C24 Y27 2.589051 1_555
C24 Y22 2.601627 1_555
C24 Y3 2.614871 1_555
C24 Y26 2.656031 1_545
C24 Y7 2.776141 1_555
C25 C39 1.338356 1_555
C25 Y26 2.589051 1_555
C25 Y23 2.601627 1_555
C25 Y3 2.614871 1_665
C25 Y27 2.656031 1_565
C25 Y6 2.776141 1_555
C26 C37 1.338356 1_555
C26 Y28 2.589051 1_455
C26 Y24 2.601627 1_555
C26 Y2 2.614871 1_555
C26 Y29 2.656031 1_555
C26 Y9 2.776141 1_555
C27 C36 1.338356 1_555
C27 Y29 2.589051 1_655
C27 Y25 2.601627 1_555
C27 Y2 2.614871 1_555
C27 Y28 2.656031 1_555
C27 Y8 2.776141 1_555
C28 C35 1.338356 1_555
C28 Y22 2.589051 1_555
C28 Y26 2.601627 1_555
C28 Y3 2.614871 1_565
C28 Y23 2.656031 1_455
C28 Y11 2.776141 1_555
C29 C34 1.338356 1_555
C29 Y23 2.589051 1_555
C29 Y27 2.601627 1_555
C29 Y3 2.614871 1_655
C29 Y22 2.656031 1_655
C29 Y10 2.776141 1_555
C30 C32 1.338356 1_555
C30 Y25 2.589051 1_565
C30 Y28 2.601627 1_555
C30 Y2 2.614871 1_555
C30 Y24 2.656031 1_555
C30 Y13 2.776141 1_555
C31 C33 1.338356 1_555
C31 Y24 2.589051 1_545
C31 Y29 2.601627 1_555
C31 Y2 2.614871 1_555
C31 Y25 2.656031 1_555
C31 Y12 2.776141 1_555
C32 Y25 2.659351 1_565
C32 Y19 2.659351 1_555
C32 Y14 2.847060 1_555
C32 Y28 2.847060 1_555
C33 Y24 2.659351 1_545
C33 Y18 2.659351 1_555
C33 Y29 2.847060 1_555
C33 Y15 2.847060 1_555
C34 Y23 2.659351 1_555
C34 Y20 2.659351 1_655
C34 Y27 2.847060 1_555
C34 Y16 2.847060 1_555
C35 Y22 2.659351 1_555
C35 Y21 2.659351 1_455
C35 Y26 2.847060 1_555
C35 Y17 2.847060 1_555
C36 Y29 2.659351 1_655
C36 Y14 2.659351 1_555
C36 Y25 2.847060 1_555
C36 Y18 2.847060 1_555
C37 Y28 2.659351 1_455
C37 Y15 2.659351 1_555
C37 Y24 2.847060 1_555
C37 Y19 2.847060 1_555
C38 Y27 2.659351 1_555
C38 Y17 2.659351 1_545
C38 Y22 2.847060 1_555
C38 Y20 2.847060 1_555
C39 Y26 2.659351 1_555
C39 Y16 2.659351 1_565
C39 Y23 2.847060 1_555
C39 Y21 2.847060 1_555
