# generated using pymatgen
data_Li3Co3SbO8
_symmetry_space_group_name_H-M   'P 1'
_cell_length_a   6.03296370
_cell_length_b   6.03946446
_cell_length_c   10.51895957
_cell_angle_alpha   106.35274589
_cell_angle_beta   73.37816703
_cell_angle_gamma   119.96502248
_symmetry_Int_Tables_number   1
_chemical_formula_structural   Li3Co3SbO8
_chemical_formula_sum   'Li6 Co6 Sb2 O16'
_cell_volume   313.69090946
_cell_formula_units_Z   2
loop_
 _symmetry_equiv_pos_site_id
 _symmetry_equiv_pos_as_xyz
  1  'x, y, z'
loop_
 _atom_site_type_symbol
 _atom_site_label
 _atom_site_symmetry_multiplicity
 _atom_site_fract_x
 _atom_site_fract_y
 _atom_site_fract_z
 _atom_site_occupancy
  Li  Li0  1  0.74654600  0.75073600  0.75215900  1
  Li  Li1  1  0.25345000  0.24926500  0.24784200  1
  Li  Li2  1  0.25113800  0.24443600  0.75136800  1
  Li  Li3  1  0.74886000  0.75556100  0.24863200  1
  Li  Li4  1  0.74346600  0.24201300  0.25546900  1
  Li  Li5  1  0.25653700  0.75798800  0.74452800  1
  Co  Co0  1  0.99999800  0.49999800  0.99999900  1
  Co  Co1  1  0.50000700  0.00000000  0.99999900  1
  Co  Co2  1  0.50000300  0.50000500  0.00000000  1
  Co  Co3  1  0.49999900  0.99999800  0.50000100  1
  Co  Co4  1  0.99999800  0.50000100  0.50000100  1
  Co  Co5  1  0.99999200  0.99999600  0.50000200  1
  Sb  Sb0  1  0.50000800  0.50001000  0.50000600  1
  Sb  Sb1  1  0.99999900  0.99999900  0.99999500  1
  O  O0  1  0.39185300  0.64177400  0.89924800  1
  O  O1  1  0.89084000  0.14645100  0.39326700  1
  O  O2  1  0.10915700  0.85354900  0.60673400  1
  O  O3  1  0.60814500  0.35822800  0.10075300  1
  O  O4  1  0.85729300  0.62160200  0.38585600  1
  O  O5  1  0.34652500  0.09401600  0.87992800  1
  O  O6  1  0.65348400  0.90598700  0.12006800  1
  O  O7  1  0.14270300  0.37839800  0.61414500  1
  O  O8  1  0.37255700  0.14576800  0.38810200  1
  O  O9  1  0.84993900  0.63543600  0.89572000  1
  O  O10  1  0.15006000  0.36456800  0.10428100  1
  O  O11  1  0.62743700  0.85422100  0.61189500  1
  O  O12  1  0.87820500  0.11750800  0.88640000  1
  O  O13  1  0.37728600  0.62068300  0.38819200  1
  O  O14  1  0.62271000  0.37931700  0.61180900  1
  O  O15  1  0.12179800  0.88249100  0.11360400  1
loop_
_geom_bond_atom_site_label_1
_geom_bond_atom_site_label_2
_geom_bond_distance
_geom_bond_site_symmetry_2
Li0 O12 2.157389 1_565
Li0 O11 2.158314 1_555
Li0 O0 2.162966 1_555
Li0 O9 2.172410 1_555
Li0 O2 2.185106 1_655
Li0 O14 2.204916 1_555
Li1 O15 2.157381 1_545
Li1 O8 2.158316 1_555
Li1 O3 2.162974 1_555
Li1 O10 2.172410 1_555
Li1 O1 2.185102 1_455
Li1 O13 2.204912 1_555
Li2 O5 2.155099 1_555
Li2 O12 2.174652 1_455
Li2 O14 2.193242 1_555
Li2 O7 2.211924 1_555
Li2 O2 2.307509 1_545
Li2 O0 2.348935 1_555
Li3 O6 2.155117 1_555
Li3 O15 2.174653 1_655
Li3 O13 2.193254 1_555
Li3 O4 2.211913 1_555
Li3 O1 2.307526 1_565
Li3 O3 2.348910 1_555
Li4 O6 2.038627 1_545
Li4 O8 2.159357 1_555
Li4 O4 2.191797 1_555
Li4 O1 2.223868 1_555
Li4 O10 2.389855 1_655
Li4 O3 2.404879 1_555
Li5 O5 2.038629 1_565
Li5 O11 2.159323 1_555
Li5 O7 2.191782 1_555
Li5 O2 2.223855 1_555
Li5 O9 2.389891 1_455
Li5 O0 2.404891 1_555
Co0 O0 2.121462 1_655
Co0 O3 2.121462 1_556
Co0 O9 2.122484 1_555
Co0 O10 2.122485 1_656
Co0 O12 2.134582 1_555
Co0 O15 2.134617 1_656
Co1 O0 1.980897 1_545
Co1 O3 1.980923 1_556
Co1 O6 2.091150 1_546
Co1 O5 2.091202 1_555
Co1 O12 2.106574 1_555
Co1 O15 2.106646 1_546
Co2 O0 1.935619 1_554
Co2 O3 1.935629 1_555
Co2 O9 1.945405 1_554
Co2 O10 1.945441 1_555
Co2 O6 2.263127 1_555
Co2 O5 2.263172 1_554
Co3 O13 2.113326 1_555
Co3 O14 2.113341 1_565
Co3 O11 2.128139 1_555
Co3 O8 2.128166 1_565
Co3 O1 2.136341 1_565
Co3 O2 2.136342 1_555
Co4 O2 1.980367 1_655
Co4 O1 1.980380 1_555
Co4 O14 2.095065 1_555
Co4 O13 2.095069 1_655
Co4 O4 2.107544 1_555
Co4 O7 2.107545 1_655
Co5 O2 2.010110 1_655
Co5 O1 2.010115 1_565
Co5 O11 2.074972 1_555
Co5 O8 2.075042 1_665
Co5 O4 2.118096 1_555
Co5 O7 2.118121 1_665
O4 Sb0 2.015383 1_555
O5 Sb1 1.998874 1_445
O6 Sb1 1.998854 1_554
O7 Sb0 2.015424 1_555
O8 Sb0 2.002604 1_555
O9 Sb1 2.021754 1_555
O10 Sb1 2.021823 1_444
O11 Sb0 2.002406 1_555
O12 Sb1 1.993009 1_545
O13 Sb0 1.995639 1_555
O14 Sb0 1.995546 1_555
O15 Sb1 1.993145 1_454
