# generated using pymatgen
data_La13Al12Si18(N13O5)3
_symmetry_space_group_name_H-M   'P 1'
_cell_length_a   11.76635944
_cell_length_b   11.74766349
_cell_length_c   11.74766286
_cell_angle_alpha   109.43896190
_cell_angle_beta   109.50345994
_cell_angle_gamma   109.50346311
_symmetry_Int_Tables_number   1
_chemical_formula_structural   La13Al12Si18(N13O5)3
_chemical_formula_sum   'La13 Al12 Si18 N39 O15'
_cell_volume   1249.54018137
_cell_formula_units_Z   1
loop_
 _symmetry_equiv_pos_site_id
 _symmetry_equiv_pos_as_xyz
  1  'x, y, z'
loop_
 _atom_site_type_symbol
 _atom_site_label
 _atom_site_symmetry_multiplicity
 _atom_site_fract_x
 _atom_site_fract_y
 _atom_site_fract_z
 _atom_site_occupancy
  La  La0  1  0.98981700  0.31375000  0.57397400  1
  La  La1  1  0.98981700  0.57397400  0.31375000  1
  La  La2  1  0.32490700  0.00000000  0.57356600  1
  La  La3  1  0.25483000  0.66884800  0.66884800  1
  La  La4  1  0.89187600  0.00000000  0.00000000  1
  La  La5  1  0.41584300  0.73977700  0.42602700  1
  La  La6  1  0.41584300  0.42602700  0.73977700  1
  La  La7  1  0.32490700  0.57356600  0.00000000  1
  La  La8  1  0.67606700  0.68625000  0.26022300  1
  La  La9  1  0.67606700  0.26022300  0.68625000  1
  La  La10  1  0.75134100  0.42643400  0.42643400  1
  La  La11  1  0.58598200  0.00000000  0.33115200  1
  La  La12  1  0.58598200  0.33115200  0.00000000  1
  Al  Al0  1  0.00164900  0.84168100  0.24589700  1
  Al  Al1  1  0.00164900  0.24589700  0.84168100  1
  Al  Al2  1  0.24709200  0.00000000  0.83733900  1
  Al  Al3  1  0.15996800  0.15831900  0.40421600  1
  Al  Al4  1  0.15996800  0.40421600  0.15831900  1
  Al  Al5  1  0.24709200  0.83733900  0.00000000  1
  Al  Al6  1  0.58515200  0.74718200  0.74718200  1
  Al  Al7  1  0.75575200  0.59578400  0.75410300  1
  Al  Al8  1  0.75575200  0.75410300  0.59578400  1
  Al  Al9  1  0.40975400  0.16266100  0.16266100  1
  Al  Al10  1  0.83797000  0.00000000  0.25281800  1
  Al  Al11  1  0.83797000  0.25281800  0.00000000  1
  Si  Si0  1  0.00332000  0.69810800  0.69810800  1
  Si  Si1  1  0.99973100  0.53836900  0.83907400  1
  Si  Si2  1  0.99973100  0.83907400  0.53836900  1
  Si  Si3  1  0.16065700  0.16092600  0.69929500  1
  Si  Si4  1  0.16065700  0.69929500  0.16092600  1
  Si  Si5  1  0.53991800  0.00000000  0.84097700  1
  Si  Si6  1  0.30112100  0.45778500  0.45778500  1
  Si  Si7  1  0.30521200  0.00000000  0.30189200  1
  Si  Si8  1  0.30521200  0.30189200  0.00000000  1
  Si  Si9  1  0.46136000  0.30070500  0.46163100  1
  Si  Si10  1  0.46136000  0.46163100  0.30070500  1
  Si  Si11  1  0.53991800  0.84097700  0.00000000  1
  Si  Si12  1  0.84333500  0.00000000  0.54221500  1
  Si  Si13  1  0.70450000  0.00000000  0.70516600  1
  Si  Si14  1  0.70450000  0.70516600  0.00000000  1
  Si  Si15  1  0.69894100  0.15902300  0.15902300  1
  Si  Si16  1  0.84333500  0.54221500  0.00000000  1
  Si  Si17  1  0.99933400  0.29483400  0.29483400  1
  N  N0  1  0.00378400  0.69651500  0.54894700  1
  N  N1  1  0.00378400  0.54894700  0.69651500  1
  N  N2  1  0.15142700  0.00000000  0.66958200  1
  N  N3  1  0.15688500  0.84014600  0.84014600  1
  N  N4  1  0.16783300  0.00000000  0.32716100  1
  N  N5  1  0.00317900  0.68102700  0.14917600  1
  N  N6  1  0.00317900  0.14917600  0.68102700  1
  N  N7  1  0.14216000  0.44136600  0.44136600  1
  N  N8  1  0.99694800  0.14467000  0.28818000  1
  N  N9  1  0.99694800  0.28818000  0.14467000  1
  N  N10  1  0.30726900  0.85243200  0.30348500  1
  N  N11  1  0.30726900  0.30348500  0.85243200  1
  N  N12  1  0.15142700  0.66958200  0.00000000  1
  N  N13  1  0.31673900  0.00000000  0.15985400  1
  N  N14  1  0.53064500  0.85421900  0.85421900  1
  N  N15  1  0.41846300  0.60771200  0.60771200  1
  N  N16  1  0.16783300  0.32716100  0.00000000  1
  N  N17  1  0.32215100  0.31897300  0.46814800  1
  N  N18  1  0.32215100  0.46814800  0.31897300  1
  N  N19  1  0.70079400  0.00000000  0.55863400  1
  N  N20  1  0.70876800  0.85649100  0.71182000  1
  N  N21  1  0.70876800  0.71182000  0.85649100  1
  N  N22  1  0.45483700  0.45105300  0.14756800  1
  N  N23  1  0.45483700  0.14756800  0.45105300  1
  N  N24  1  0.48184600  0.33041800  0.33041800  1
  N  N25  1  0.31673900  0.15985400  0.00000000  1
  N  N26  1  0.55505700  0.00000000  0.69952600  1
  N  N27  1  0.55505700  0.69952600  0.00000000  1
  N  N28  1  0.81075100  0.00000000  0.39228800  1
  N  N29  1  0.84067100  0.67283900  0.67283900  1
  N  N30  1  0.85400300  0.85082400  0.53185200  1
  N  N31  1  0.85400300  0.53185200  0.85082400  1
  N  N32  1  0.70079400  0.55863400  0.00000000  1
  N  N33  1  0.85227800  0.14350900  0.85533000  1
  N  N34  1  0.85227800  0.85533000  0.14350900  1
  N  N35  1  0.67642600  0.00000000  0.14578100  1
  N  N36  1  0.67642600  0.14578100  0.00000000  1
  N  N37  1  0.85553200  0.30047400  0.30047400  1
  N  N38  1  0.81075100  0.39228800  0.00000000  1
  O  O0  1  0.24924500  0.75282100  0.49680200  1
  O  O1  1  0.24924500  0.49680200  0.75282100  1
  O  O2  1  0.17772100  0.57428000  0.19156900  1
  O  O3  1  0.17772100  0.19156900  0.57428000  1
  O  O4  1  0.39206900  0.00000000  0.81293100  1
  O  O5  1  0.39206900  0.81293100  0.00000000  1
  O  O6  1  0.49642400  0.24717900  0.74398200  1
  O  O7  1  0.49642400  0.74398200  0.24717900  1
  O  O8  1  0.60344000  0.61729000  0.42572000  1
  O  O9  1  0.60344000  0.42572000  0.61729000  1
  O  O10  1  0.57913800  0.18706900  0.18706900  1
  O  O11  1  0.75244300  0.50319800  0.25601800  1
  O  O12  1  0.75244300  0.25601800  0.50319800  1
  O  O13  1  0.98615100  0.80843100  0.38271000  1
  O  O14  1  0.98615100  0.38271000  0.80843100  1
loop_
_geom_bond_atom_site_label_1
_geom_bond_atom_site_label_2
_geom_bond_distance
_geom_bond_site_symmetry_2
La0 O12 2.400303 1_555
La0 N1 2.573902 1_655
La0 O1 2.585294 1_655
La0 O14 2.619528 1_555
La0 N6 2.652080 1_655
La1 O11 2.400303 1_555
La1 N0 2.573902 1_655
La1 O0 2.585294 1_655
La1 O13 2.619528 1_555
La1 N5 2.652080 1_655
La2 O0 2.456118 1_545
La2 O6 2.456120 1_555
La2 N26 2.616742 1_555
La2 N2 2.641271 1_555
La2 O4 2.654792 1_555
La2 N4 2.867525 1_555
La2 N10 2.962127 1_545
La2 N23 2.962127 1_555
La2 O3 3.265524 1_555
La2 O13 3.265534 1_445
La3 N15 2.498402 1_555
La3 O0 2.518765 1_555
La3 O1 2.518765 1_555
La3 N7 2.560468 1_555
La3 N14 2.724377 1_555
La3 N1 2.997122 1_555
La3 N0 2.997122 1_555
La3 N3 3.135121 1_555
La3 O5 3.194389 1_556
La3 O4 3.194389 1_565
La4 N34 2.801896 1_545
La4 N33 2.801896 1_554
La4 N8 2.801906 1_555
La4 N9 2.801906 1_555
La4 N20 2.801906 1_544
La4 N21 2.801906 1_544
La5 O0 2.400295 1_555
La5 N10 2.573899 1_555
La5 O7 2.585304 1_555
La5 O2 2.619527 1_555
La5 N18 2.652099 1_555
La6 O1 2.400296 1_555
La6 N11 2.573899 1_555
La6 O6 2.585305 1_555
La6 O3 2.619527 1_555
La6 N17 2.652099 1_555
La7 O1 2.456118 1_554
La7 O7 2.456120 1_555
La7 N27 2.616742 1_555
La7 N12 2.641271 1_555
La7 O5 2.654792 1_555
La7 N16 2.867525 1_555
La7 N11 2.962127 1_554
La7 N22 2.962127 1_555
La7 O2 3.265524 1_555
La7 O14 3.265534 1_454
La8 O7 2.400314 1_555
La8 N22 2.573905 1_555
La8 O11 2.585294 1_555
La8 O8 2.619533 1_555
La8 N30 2.652097 1_555
La9 O6 2.400314 1_555
La9 N23 2.573905 1_555
La9 O12 2.585293 1_555
La9 O9 2.619533 1_555
La9 N31 2.652097 1_555
La10 O11 2.456129 1_555
La10 O12 2.456129 1_555
La10 N37 2.616751 1_555
La10 N24 2.641260 1_555
La10 O10 2.654792 1_555
La10 N29 2.867529 1_555
La10 N1 2.962127 1_655
La10 N0 2.962127 1_655
La10 O9 3.265543 1_555
La10 O8 3.265543 1_555
La11 N28 2.498402 1_555
La11 O7 2.518754 1_545
La11 O12 2.518757 1_555
La11 N19 2.560468 1_555
La11 N35 2.724377 1_555
La11 N23 2.997122 1_555
La11 N10 2.997122 1_545
La11 N13 3.135121 1_555
La11 O5 3.194389 1_545
La11 O10 3.194389 1_555
La12 N38 2.498402 1_555
La12 O6 2.518754 1_554
La12 O11 2.518757 1_555
La12 N32 2.560468 1_555
La12 N36 2.724377 1_555
La12 N22 2.997122 1_555
La12 N11 2.997122 1_554
La12 N25 3.135121 1_555
La12 O4 3.194389 1_554
La12 O10 3.194389 1_555
Al0 O13 1.826208 1_455
Al0 N4 1.826851 1_565
Al0 N5 1.860727 1_555
Al0 N34 1.861836 1_455
Al1 O14 1.826208 1_455
Al1 N16 1.826851 1_556
Al1 N6 1.860727 1_555
Al1 N33 1.861836 1_455
Al2 O4 1.821745 1_555
Al2 N25 1.840619 1_556
Al2 N3 1.840619 1_545
Al2 N2 1.915636 1_555
Al3 O3 1.826216 1_555
Al3 N4 1.826851 1_555
Al3 N17 1.860724 1_555
Al3 N8 1.861832 1_455
Al4 O2 1.826216 1_555
Al4 N16 1.826851 1_555
Al4 N18 1.860724 1_555
Al4 N9 1.861832 1_455
Al5 O5 1.821745 1_555
Al5 N13 1.840619 1_565
Al5 N3 1.840619 1_554
Al5 N12 1.915636 1_555
Al6 N15 1.771289 1_555
Al6 N20 1.857019 1_555
Al6 N21 1.857019 1_555
Al6 N14 1.896887 1_555
Al7 O9 1.826217 1_555
Al7 N29 1.826844 1_555
Al7 N31 1.860718 1_555
Al7 N21 1.861838 1_555
Al8 O8 1.826217 1_555
Al8 N29 1.826845 1_555
Al8 N30 1.860718 1_555
Al8 N20 1.861838 1_555
Al9 O10 1.821733 1_555
Al9 N25 1.840622 1_555
Al9 N13 1.840622 1_555
Al9 N24 1.915636 1_555
Al10 N28 1.771289 1_555
Al10 N8 1.857013 1_555
Al10 N34 1.857018 1_545
Al10 N35 1.896887 1_555
Al11 N38 1.771289 1_555
Al11 N9 1.857013 1_555
Al11 N33 1.857018 1_554
Al11 N36 1.896887 1_555
N0 Si2 1.735035 1_455
N0 Si0 1.748010 1_555
N1 Si1 1.735035 1_455
N1 Si0 1.748011 1_555
N2 Si2 1.762386 1_445
N2 Si3 1.762386 1_555
N3 Si0 1.718659 1_555
N4 Si7 1.738229 1_555
N5 Si4 1.744271 1_555
N5 Si16 1.765446 1_455
N6 Si3 1.744271 1_555
N6 Si12 1.765446 1_455
N7 Si17 1.707345 1_455
N7 Si6 1.751063 1_555
N8 Si17 1.729897 1_555
N9 Si17 1.729897 1_555
N10 Si4 1.735035 1_555
N10 Si7 1.748011 1_565
N11 Si3 1.735035 1_555
N11 Si8 1.748010 1_556
N12 Si4 1.762386 1_555
N12 Si1 1.762386 1_454
N13 Si7 1.718659 1_555
N14 Si11 1.741535 1_556
N14 Si5 1.741535 1_565
N15 Si6 1.672794 1_555
N16 Si8 1.738229 1_555
N17 Si9 1.744255 1_555
N17 Si6 1.765432 1_555
N18 Si10 1.744255 1_555
N18 Si6 1.765432 1_555
N19 Si13 1.707345 1_555
N19 Si12 1.751051 1_555
N20 Si13 1.729885 1_565
N21 Si14 1.729885 1_556
N22 Si10 1.735043 1_555
N22 Si8 1.748011 1_555
N23 Si9 1.735043 1_555
N23 Si7 1.748011 1_555
N24 Si9 1.762399 1_555
N24 Si10 1.762399 1_555
N25 Si8 1.718659 1_555
N26 Si5 1.729361 1_555
N26 Si13 1.737402 1_555
N27 Si11 1.729361 1_555
N27 Si14 1.737402 1_555
N28 Si12 1.672795 1_555
N29 Si0 1.738241 1_655
N30 Si2 1.744274 1_555
N30 Si12 1.765449 1_565
N31 Si1 1.744274 1_555
N31 Si16 1.765449 1_556
N32 Si14 1.707345 1_555
N32 Si16 1.751051 1_555
N33 Si13 1.729894 1_555
N34 Si14 1.729894 1_555
N35 Si11 1.741535 1_545
N35 Si15 1.741535 1_555
N36 Si15 1.741535 1_555
N36 Si5 1.741535 1_554
N37 Si15 1.729366 1_555
N37 Si17 1.737390 1_555
N38 Si16 1.672795 1_555
O2 Si4 1.681462 1_555
O3 Si3 1.681462 1_555
O4 Si5 1.658974 1_555
O5 Si11 1.658974 1_555
O8 Si10 1.681472 1_555
O9 Si9 1.681472 1_555
O10 Si15 1.658974 1_555
O13 Si2 1.681470 1_555
O14 Si1 1.681470 1_555
