# generated using pymatgen
data_LiYb4Ti2O10
_symmetry_space_group_name_H-M   'P 1'
_cell_length_a   5.35252170
_cell_length_b   6.55496012
_cell_length_c   8.02399036
_cell_angle_alpha   65.42122349
_cell_angle_beta   86.78809608
_cell_angle_gamma   63.78026842
_symmetry_Int_Tables_number   1
_chemical_formula_structural   LiYb4Ti2O10
_chemical_formula_sum   'Li1 Yb4 Ti2 O10'
_cell_volume   226.84167171
_cell_formula_units_Z   1
loop_
 _symmetry_equiv_pos_site_id
 _symmetry_equiv_pos_as_xyz
  1  'x, y, z'
loop_
 _atom_site_type_symbol
 _atom_site_label
 _atom_site_symmetry_multiplicity
 _atom_site_fract_x
 _atom_site_fract_y
 _atom_site_fract_z
 _atom_site_occupancy
  Li  Li0  1  0.87414400  0.30526100  0.12423900  1
  Yb  Yb0  1  0.64532400  0.75227200  0.73425700  1
  Yb  Yb1  1  0.61183100  0.74549700  0.23978500  1
  Yb  Yb2  1  0.38488300  0.27887400  0.76105700  1
  Yb  Yb3  1  0.37814300  0.26654600  0.26697300  1
  Ti  Ti0  1  0.00022100  0.04566500  0.53791400  1
  Ti  Ti1  1  0.02303700  0.95021800  0.98904100  1
  O  O0  1  0.76962600  0.85353400  0.94594100  1
  O  O1  1  0.37646800  0.86183300  0.46867800  1
  O  O2  1  0.06486900  0.70072400  0.61110400  1
  O  O3  1  0.73358100  0.33313000  0.89019400  1
  O  O4  1  0.33240100  0.65382300  0.12207000  1
  O  O5  1  0.94653900  0.34524100  0.33506300  1
  O  O6  1  0.61538500  0.14655500  0.54735400  1
  O  O7  1  0.16579200  0.03538300  0.74346800  1
  O  O8  1  0.21809400  0.15964900  0.03702400  1
  O  O9  1  0.79716300  0.02579500  0.19048200  1
loop_
_geom_bond_atom_site_label_1
_geom_bond_atom_site_label_2
_geom_bond_distance
_geom_bond_site_symmetry_2
Li0 O5 1.900657 1_555
Li0 O9 1.908020 1_555
Li0 O8 1.910140 1_655
Li0 O3 1.969188 1_554
O0 Ti1 1.831809 1_655
O0 Yb0 2.285410 1_555
O0 Yb1 2.385462 1_556
O0 Yb2 2.458288 1_565
O1 Ti0 2.025723 1_565
O1 Yb0 2.298937 1_555
O1 Yb1 2.366172 1_555
O1 Yb3 2.470807 1_565
O2 Ti0 1.950350 1_565
O2 Yb2 2.303459 1_555
O2 Yb0 2.343526 1_455
O3 Ti1 2.091607 1_645
O3 Yb0 2.323115 1_555
O3 Yb2 2.406969 1_555
O4 Ti1 1.812765 1_554
O4 Yb3 2.209867 1_555
O4 Yb1 2.216960 1_555
O5 Ti0 1.866258 1_655
O5 Yb3 2.222946 1_655
O5 Yb1 2.238111 1_555
O6 Ti0 1.872572 1_655
O6 Yb3 2.293068 1_555
O6 Yb2 2.295528 1_555
O6 Yb0 2.321863 1_545
O7 Ti0 1.878529 1_555
O7 Ti1 2.017765 1_545
O7 Yb2 2.408816 1_555
O7 Yb0 2.433365 1_545
O8 Ti1 2.207739 1_544
O8 Yb2 2.294882 1_554
O8 Yb1 2.472407 1_545
O8 Yb3 2.532264 1_555
O9 Ti1 2.058550 1_644
O9 Yb3 2.328375 1_555
O9 Yb1 2.340570 1_545
