# generated using pymatgen
data_Ba5B3ClO9
_symmetry_space_group_name_H-M   'P 1'
_cell_length_a   9.24156823
_cell_length_b   9.24156823
_cell_length_c   7.99094900
_cell_angle_alpha   90.00000000
_cell_angle_beta   90.00000000
_cell_angle_gamma   109.95568430
_symmetry_Int_Tables_number   1
_chemical_formula_structural   Ba5B3ClO9
_chemical_formula_sum   'Ba10 B6 Cl2 O18'
_cell_volume   641.50144237
_cell_formula_units_Z   2
loop_
 _symmetry_equiv_pos_site_id
 _symmetry_equiv_pos_as_xyz
  1  'x, y, z'
loop_
 _atom_site_type_symbol
 _atom_site_label
 _atom_site_symmetry_multiplicity
 _atom_site_fract_x
 _atom_site_fract_y
 _atom_site_fract_z
 _atom_site_occupancy
  Ba  Ba0  1  0.23875900  0.23875900  0.00000000  1
  Ba  Ba1  1  0.76124100  0.76124100  0.50000000  1
  Ba  Ba2  1  0.99516200  0.73586500  0.05635800  1
  Ba  Ba3  1  0.73586500  0.99516200  0.94364200  1
  Ba  Ba4  1  0.00483800  0.26413500  0.55635800  1
  Ba  Ba5  1  0.26413500  0.00483800  0.44364200  1
  Ba  Ba6  1  0.63701600  0.36298400  0.25000000  1
  Ba  Ba7  1  0.36298400  0.63701600  0.75000000  1
  Ba  Ba8  1  0.35886400  0.64113600  0.25000000  1
  Ba  Ba9  1  0.64113600  0.35886400  0.75000000  1
  B  B0  1  0.40406200  0.98496900  0.03137800  1
  B  B1  1  0.98496900  0.40406200  0.96862200  1
  B  B2  1  0.59593800  0.01503100  0.53137800  1
  B  B3  1  0.01503100  0.59593800  0.46862200  1
  B  B4  1  0.62750000  0.62750000  0.00000000  1
  B  B5  1  0.37250000  0.37250000  0.50000000  1
  Cl  Cl0  1  0.95293900  0.04706100  0.25000000  1
  Cl  Cl1  1  0.04706100  0.95293900  0.75000000  1
  O  O0  1  0.49467400  0.49467400  0.00000000  1
  O  O1  1  0.50532600  0.50532600  0.50000000  1
  O  O2  1  0.50934500  0.13202900  0.99209100  1
  O  O3  1  0.13202900  0.50934500  0.00790900  1
  O  O4  1  0.49065500  0.86797100  0.49209100  1
  O  O5  1  0.86797100  0.49065500  0.50790900  1
  O  O6  1  0.85230700  0.43488000  0.01427800  1
  O  O7  1  0.43488000  0.85230700  0.98572200  1
  O  O8  1  0.14769300  0.56512000  0.51427800  1
  O  O9  1  0.56512000  0.14769300  0.48572200  1
  O  O10  1  0.31042800  0.30742700  0.65258300  1
  O  O11  1  0.30742700  0.31042800  0.34741700  1
  O  O12  1  0.68957200  0.69257300  0.15258300  1
  O  O13  1  0.69257300  0.68957200  0.84741700  1
  O  O14  1  0.27022000  0.97128400  0.11922700  1
  O  O15  1  0.97128400  0.27022000  0.88077300  1
  O  O16  1  0.72978000  0.02871600  0.61922700  1
  O  O17  1  0.02871600  0.72978000  0.38077300  1
loop_
_geom_bond_atom_site_label_1
_geom_bond_atom_site_label_2
_geom_bond_distance
_geom_bond_site_symmetry_2
Ba0 O0 2.714579 1_555
Ba0 O14 2.755549 1_545
Ba0 O15 2.755549 1_454
Ba0 O10 2.874324 1_554
Ba0 O11 2.874324 1_555
Ba0 O2 2.985580 1_554
Ba0 O3 2.985580 1_555
Ba0 Cl0 3.303397 1_455
Ba0 Cl1 3.303397 1_544
Ba1 O1 2.714579 1_555
Ba1 O17 2.755549 1_655
Ba1 O16 2.755549 1_565
Ba1 O12 2.874324 1_555
Ba1 O13 2.874324 1_555
Ba1 O4 2.985580 1_555
Ba1 O5 2.985580 1_555
Ba1 Cl1 3.303397 1_655
Ba1 Cl0 3.303397 1_565
Ba2 O17 2.613747 1_655
Ba2 O6 2.662055 1_555
Ba2 O14 2.769913 1_655
Ba2 O3 2.817711 1_655
Ba2 O12 2.820600 1_555
Ba2 Cl1 3.096914 1_654
Ba2 O13 3.158154 1_554
Ba2 Cl0 3.403482 1_565
Ba3 O16 2.613747 1_565
Ba3 O7 2.662055 1_555
Ba3 O15 2.769913 1_565
Ba3 O2 2.817711 1_565
Ba3 O13 2.820600 1_555
Ba3 Cl0 3.096914 1_566
Ba3 O12 3.158154 1_556
Ba3 Cl1 3.403482 1_655
Ba4 O15 2.613747 1_455
Ba4 O8 2.662055 1_555
Ba4 O16 2.769913 1_455
Ba4 O5 2.817711 1_455
Ba4 O10 2.820600 1_555
Ba4 Cl0 3.096914 1_455
Ba4 O11 3.158154 1_555
Ba4 Cl1 3.403482 1_545
Ba5 O14 2.613747 1_545
Ba5 O9 2.662055 1_555
Ba5 O17 2.769913 1_545
Ba5 O4 2.817711 1_545
Ba5 O11 2.820600 1_555
Ba5 Cl1 3.096914 1_545
Ba5 O10 3.158154 1_555
Ba5 Cl0 3.403482 1_455
Ba6 O9 2.654399 1_555
Ba6 O6 2.654399 1_555
Ba6 O0 2.880161 1_555
Ba6 O1 2.880161 1_555
Ba6 O2 2.911394 1_554
Ba6 O5 2.911394 1_555
Ba6 O11 3.018228 1_555
Ba6 O12 3.018228 1_555
Ba7 O8 2.654399 1_555
Ba7 O7 2.654399 1_555
Ba7 O0 2.880161 1_556
Ba7 O1 2.880161 1_555
Ba7 O3 2.911394 1_556
Ba7 O4 2.911394 1_555
Ba7 O13 3.018228 1_555
Ba7 O10 3.018228 1_555
Ba8 O7 2.797515 1_554
Ba8 O8 2.797515 1_555
Ba8 O3 2.806703 1_555
Ba8 O4 2.806703 1_555
Ba8 O0 2.925386 1_555
Ba8 O1 2.925386 1_555
Ba8 O12 3.030018 1_555
Ba8 O11 3.030018 1_555
Ba9 O9 2.797515 1_555
Ba9 O6 2.797515 1_556
Ba9 O2 2.806703 1_555
Ba9 O5 2.806703 1_555
Ba9 O1 2.925386 1_555
Ba9 O0 2.925386 1_556
Ba9 O13 3.030018 1_555
Ba9 O10 3.030018 1_555
B0 O14 1.389950 1_555
B0 O7 1.398445 1_554
B0 O2 1.410565 1_564
B1 O15 1.389950 1_555
B1 O6 1.398445 1_556
B1 O3 1.410565 1_656
B2 O16 1.389950 1_555
B2 O9 1.398445 1_555
B2 O4 1.410565 1_545
B3 O17 1.389950 1_555
B3 O8 1.398445 1_555
B3 O5 1.410565 1_455
B4 O12 1.393519 1_555
B4 O13 1.393519 1_554
B4 O0 1.408931 1_555
B5 O11 1.393519 1_555
B5 O10 1.393519 1_555
B5 O1 1.408931 1_555
