# generated using pymatgen
data_KSrHfBiO6
_symmetry_space_group_name_H-M   'P 1'
_cell_length_a   5.91686235
_cell_length_b   5.91686235
_cell_length_c   5.91686235
_cell_angle_alpha   60.00000000
_cell_angle_beta   60.00000000
_cell_angle_gamma   60.00000000
_symmetry_Int_Tables_number   1
_chemical_formula_structural   KSrHfBiO6
_chemical_formula_sum   'K1 Sr1 Hf1 Bi1 O6'
_cell_volume   146.47361485
_cell_formula_units_Z   1
loop_
 _symmetry_equiv_pos_site_id
 _symmetry_equiv_pos_as_xyz
  1  'x, y, z'
loop_
 _atom_site_type_symbol
 _atom_site_label
 _atom_site_symmetry_multiplicity
 _atom_site_fract_x
 _atom_site_fract_y
 _atom_site_fract_z
 _atom_site_occupancy
  K  K0  1  0.25000000  0.25000000  0.25000000  1
  Sr  Sr0  1  0.75000000  0.75000000  0.75000000  1
  Hf  Hf0  1  0.50000000  0.50000000  0.50000000  1
  Bi  Bi0  1  0.00000000  0.00000000  0.00000000  1
  O  O0  1  0.74713327  0.25286673  0.25286673  1
  O  O1  1  0.25286673  0.74713327  0.74713327  1
  O  O2  1  0.74713327  0.25286673  0.74713327  1
  O  O3  1  0.25286673  0.74713327  0.25286673  1
  O  O4  1  0.74713327  0.74713327  0.25286673  1
  O  O5  1  0.25286673  0.25286673  0.74713327  1
loop_
_geom_bond_atom_site_label_1
_geom_bond_atom_site_label_2
_geom_bond_distance
_geom_bond_site_symmetry_2
K0 O2 2.958528 1_455
K0 O5 2.958528 1_555
K0 O0 2.958528 1_455
K0 O3 2.958528 1_555
K0 O1 2.958528 1_545
K0 O0 2.958528 1_555
K0 O1 2.958528 1_554
K0 O4 2.958528 1_455
K0 O3 2.958528 1_545
K0 O2 2.958528 1_554
K0 O4 2.958528 1_545
K0 O5 2.958528 1_554
Hf0 O4 2.067939 1_555
Hf0 O1 2.067939 1_555
Hf0 O2 2.067939 1_555
Hf0 O3 2.067939 1_555
Hf0 O0 2.067939 1_555
Hf0 O5 2.067939 1_555
Bi0 O5 2.115915 1_554
Bi0 O0 2.115915 1_455
Bi0 O3 2.115915 1_545
Bi0 O4 2.115915 1_445
Bi0 O2 2.115915 1_454
Bi0 O1 2.115915 1_544
O0 Sr0 2.958528 1_554
O0 Sr0 2.958528 1_545
O1 Sr0 2.958528 1_455
O1 Sr0 2.958528 1_555
O2 Sr0 2.958528 1_545
O2 Sr0 2.958528 1_555
O3 Sr0 2.958528 1_554
O3 Sr0 2.958528 1_455
O4 Sr0 2.958528 1_554
O4 Sr0 2.958528 1_555
O5 Sr0 2.958528 1_455
O5 Sr0 2.958528 1_545
