# generated using pymatgen
data_Sr2TaGaO6
_symmetry_space_group_name_H-M   'P 1'
_cell_length_a   5.59372343
_cell_length_b   5.59372343
_cell_length_c   5.59372343
_cell_angle_alpha   120.26040299
_cell_angle_beta   120.26040299
_cell_angle_gamma   89.54955745
_symmetry_Int_Tables_number   1
_chemical_formula_structural   Sr2TaGaO6
_chemical_formula_sum   'Sr2 Ta1 Ga1 O6'
_cell_volume   123.27093073
_cell_formula_units_Z   1
loop_
 _symmetry_equiv_pos_site_id
 _symmetry_equiv_pos_as_xyz
  1  'x, y, z'
loop_
 _atom_site_type_symbol
 _atom_site_label
 _atom_site_symmetry_multiplicity
 _atom_site_fract_x
 _atom_site_fract_y
 _atom_site_fract_z
 _atom_site_occupancy
  Sr  Sr0  1  0.75000000  0.25000000  0.50000000  1
  Sr  Sr1  1  0.25000000  0.75000000  0.50000000  1
  Ta  Ta0  1  0.50000000  0.50000000  0.00000000  1
  Ga  Ga0  1  -0.00000000  0.00000000  0.00000000  1
  O  O0  1  0.77786737  0.72212327  0.49998964  1
  O  O1  1  0.72212327  0.22213263  0.94425589  1
  O  O2  1  0.27787673  0.77786737  0.05574411  1
  O  O3  1  0.22213263  0.27787673  0.50001036  1
  O  O4  1  0.25022429  0.25022429  0.00000000  1
  O  O5  1  0.74977571  0.74977571  0.00000000  1
loop_
_geom_bond_atom_site_label_1
_geom_bond_atom_site_label_2
_geom_bond_distance
_geom_bond_site_symmetry_2
Ga0 O2 1.982132 1_545
Ga0 O1 1.982132 1_454
Ga0 O3 1.982136 1_555
Ga0 O0 1.982136 1_444
Ga0 O4 1.987220 1_555
Ga0 O5 1.987220 1_445
O0 Ta0 1.982055 1_555
O0 Sr1 2.646772 1_655
O0 Sr0 2.646777 1_555
O0 Sr0 2.955657 1_565
O0 Sr1 2.955662 1_555
O1 Ta0 1.982059 1_556
O1 Sr0 2.646774 1_555
O1 Sr1 2.646774 1_545
O1 Sr1 2.955659 1_656
O1 Sr0 2.955659 1_556
O2 Ta0 1.982059 1_555
O2 Sr1 2.646774 1_555
O2 Sr0 2.646774 1_565
O2 Sr0 2.955659 1_454
O2 Sr1 2.955659 1_554
O3 Ta0 1.982055 1_556
O3 Sr0 2.646772 1_455
O3 Sr1 2.646777 1_555
O3 Sr1 2.955657 1_545
O3 Sr0 2.955662 1_555
O4 Ta0 1.983657 1_555
O4 Sr1 2.785847 1_555
O4 Sr1 2.785847 1_544
O4 Sr0 2.785847 1_555
O4 Sr0 2.785847 1_454
O5 Ta0 1.983657 1_555
O5 Sr0 2.785847 1_565
O5 Sr1 2.785847 1_655
O5 Sr0 2.785847 1_554
O5 Sr1 2.785847 1_554
