# generated using pymatgen
data_Li3MnFeCo(PO4)3
_symmetry_space_group_name_H-M   'P 1'
_cell_length_a   6.10363400
_cell_length_b   10.43335600
_cell_length_c   14.30654264
_cell_angle_alpha   89.68761494
_cell_angle_beta   90.00000000
_cell_angle_gamma   90.00000000
_symmetry_Int_Tables_number   1
_chemical_formula_structural   Li3MnFeCo(PO4)3
_chemical_formula_sum   'Li12 Mn4 Fe4 Co4 P12 O48'
_cell_volume   911.04692892
_cell_formula_units_Z   4
loop_
 _symmetry_equiv_pos_site_id
 _symmetry_equiv_pos_as_xyz
  1  'x, y, z'
loop_
 _atom_site_type_symbol
 _atom_site_label
 _atom_site_symmetry_multiplicity
 _atom_site_fract_x
 _atom_site_fract_y
 _atom_site_fract_z
 _atom_site_occupancy
  Li  Li0  1  0.75025300  0.00344000  0.66603100  1
  Li  Li1  1  0.24961900  0.00266000  0.99998200  1
  Li  Li2  1  0.75038100  0.00266000  0.99998200  1
  Li  Li3  1  0.25064400  0.00209600  0.33340500  1
  Li  Li4  1  0.74935600  0.00209600  0.33340500  1
  Li  Li5  1  0.24974700  0.00344000  0.66603100  1
  Li  Li6  1  0.24844100  0.49685200  0.49971500  1
  Li  Li7  1  0.75155900  0.49685200  0.49971500  1
  Li  Li8  1  0.24989300  0.49752300  0.16731500  1
  Li  Li9  1  0.75010700  0.49752300  0.16731500  1
  Li  Li10  1  0.25109200  0.49793200  0.83333000  1
  Li  Li11  1  0.74890800  0.49793200  0.83333000  1
  Mn  Mn0  1  0.50000000  0.78219200  0.49279600  1
  Mn  Mn1  1  0.50000000  0.78161900  0.82666800  1
  Mn  Mn2  1  0.00000000  0.71972100  0.65980700  1
  Mn  Mn3  1  0.00000000  0.71927500  0.99380400  1
  Fe  Fe0  1  0.50000000  0.78255000  0.15966600  1
  Fe  Fe1  1  0.00000000  0.71861800  0.32544000  1
  Fe  Fe2  1  0.50000000  0.27950200  0.00916700  1
  Fe  Fe3  1  0.50000000  0.27970800  0.34303800  1
  Co  Co0  1  0.50000000  0.28478600  0.68143900  1
  Co  Co1  1  0.00000000  0.22330600  0.84077600  1
  Co  Co2  1  0.00000000  0.21793100  0.50536700  1
  Co  Co3  1  0.00000000  0.21771300  0.17381900  1
  P  P0  1  0.00000000  0.91147700  0.80564100  1
  P  P1  1  0.00000000  0.90846700  0.14063100  1
  P  P2  1  0.00000000  0.90879000  0.47053200  1
  P  P3  1  0.50000000  0.59162400  0.30561900  1
  P  P4  1  0.50000000  0.58860000  0.63911400  1
  P  P5  1  0.50000000  0.59115000  0.97271400  1
  P  P6  1  0.00000000  0.40374600  0.36014100  1
  P  P7  1  0.00000000  0.40255700  0.02780300  1
  P  P8  1  0.00000000  0.40305400  0.69360300  1
  P  P9  1  0.50000000  0.09752800  0.86079600  1
  P  P10  1  0.50000000  0.09633200  0.19413100  1
  P  P11  1  0.50000000  0.09863300  0.52719500  1
  O  O0  1  0.50000000  0.95832300  0.23624700  1
  O  O1  1  0.50000000  0.95997500  0.56909900  1
  O  O2  1  0.50000000  0.95932600  0.90240200  1
  O  O3  1  0.00000000  0.90417900  0.57796300  1
  O  O4  1  0.00000000  0.90571900  0.91312000  1
  O  O5  1  0.00000000  0.90544100  0.24786900  1
  O  O6  1  0.20262600  0.83752500  0.09658000  1
  O  O7  1  0.79737400  0.83752500  0.09658000  1
  O  O8  1  0.20142200  0.83820700  0.42572300  1
  O  O9  1  0.79857800  0.83820700  0.42572300  1
  O  O10  1  0.20157500  0.84084700  0.76071100  1
  O  O11  1  0.79842500  0.84084700  0.76071100  1
  O  O12  1  0.70184900  0.65824800  0.59394300  1
  O  O13  1  0.29815100  0.65824800  0.59394300  1
  O  O14  1  0.70232100  0.66329500  0.26105400  1
  O  O15  1  0.29767900  0.66329500  0.26105400  1
  O  O16  1  0.70218300  0.66108200  0.92755200  1
  O  O17  1  0.29781700  0.66108200  0.92755200  1
  O  O18  1  0.50000000  0.59424600  0.41285600  1
  O  O19  1  0.50000000  0.59541000  0.08015000  1
  O  O20  1  0.50000000  0.59318000  0.74648600  1
  O  O21  1  0.00000000  0.54194700  0.40092100  1
  O  O22  1  0.00000000  0.53979100  0.06927000  1
  O  O23  1  0.00000000  0.53995100  0.73656200  1
  O  O24  1  0.50000000  0.45316100  0.26523100  1
  O  O25  1  0.50000000  0.45323100  0.93188800  1
  O  O26  1  0.50000000  0.44888700  0.60056500  1
  O  O27  1  0.00000000  0.40050500  0.25267000  1
  O  O28  1  0.00000000  0.40046500  0.92024600  1
  O  O29  1  0.00000000  0.40203500  0.58654300  1
  O  O30  1  0.20191600  0.33142700  0.07241400  1
  O  O31  1  0.20190100  0.33315600  0.40552100  1
  O  O32  1  0.20095000  0.33114600  0.73852600  1
  O  O33  1  0.79905000  0.33114600  0.73852600  1
  O  O34  1  0.79808400  0.33142700  0.07241400  1
  O  O35  1  0.79809900  0.33315600  0.40552100  1
  O  O36  1  0.70422000  0.16667000  0.90460300  1
  O  O37  1  0.29578000  0.16667000  0.90460300  1
  O  O38  1  0.70322700  0.16737600  0.23782100  1
  O  O39  1  0.70602100  0.16630400  0.56970300  1
  O  O40  1  0.29677300  0.16737600  0.23782100  1
  O  O41  1  0.29397900  0.16630400  0.56970300  1
  O  O42  1  0.50000000  0.10219400  0.75297300  1
  O  O43  1  0.50000000  0.10105600  0.41876600  1
  O  O44  1  0.50000000  0.09676000  0.08653100  1
  O  O45  1  0.00000000  0.04991700  0.76547000  1
  O  O46  1  0.00000000  0.04642900  0.09856600  1
  O  O47  1  0.00000000  0.04741600  0.43004700  1
loop_
_geom_bond_atom_site_label_1
_geom_bond_atom_site_label_2
_geom_bond_distance
_geom_bond_site_symmetry_2
Li0 O1 2.113936 1_545
Li0 O45 2.142480 1_655
Li0 O11 2.184931 1_545
Li0 O39 2.198616 1_555
Li0 O42 2.226166 1_555
Li0 O3 2.235599 1_645
Li1 O2 2.120307 1_545
Li1 O46 2.127459 1_556
Li1 O37 2.200914 1_555
Li1 O44 2.201324 1_556
Li1 O4 2.214107 1_545
Li1 O6 2.221399 1_546
Li2 O2 2.120307 1_545
Li2 O46 2.127459 1_656
Li2 O36 2.200914 1_555
Li2 O44 2.201324 1_556
Li2 O4 2.214107 1_645
Li2 O7 2.221399 1_546
Li3 O0 2.112818 1_545
Li3 O47 2.117246 1_555
Li3 O8 2.175734 1_545
Li3 O5 2.206425 1_545
Li3 O43 2.210785 1_555
Li3 O40 2.212960 1_555
Li4 O0 2.112818 1_545
Li4 O47 2.117246 1_655
Li4 O9 2.175734 1_545
Li4 O5 2.206425 1_645
Li4 O43 2.210785 1_555
Li4 O38 2.212960 1_555
Li5 O1 2.113936 1_545
Li5 O45 2.142480 1_555
Li5 O10 2.184931 1_545
Li5 O41 2.198616 1_555
Li5 O42 2.226166 1_555
Li5 O3 2.235599 1_545
Li6 O21 2.123973 1_555
Li6 O26 2.163748 1_555
Li6 O13 2.183953 1_555
Li6 O29 2.192661 1_555
Li6 O31 2.199706 1_555
Li6 O18 2.218219 1_555
Li7 O21 2.123973 1_655
Li7 O26 2.163748 1_555
Li7 O12 2.183953 1_555
Li7 O29 2.192661 1_655
Li7 O35 2.199706 1_555
Li7 O18 2.218219 1_555
Li8 O22 2.116994 1_555
Li8 O24 2.121296 1_555
Li8 O27 2.197429 1_555
Li8 O15 2.213647 1_555
Li8 O19 2.216894 1_555
Li8 O30 2.226622 1_555
Li9 O22 2.116994 1_655
Li9 O24 2.121296 1_555
Li9 O27 2.197429 1_655
Li9 O14 2.213647 1_555
Li9 O19 2.216894 1_555
Li9 O34 2.226622 1_555
Li10 O23 2.109731 1_555
Li10 O25 2.122878 1_555
Li10 O17 2.195661 1_555
Li10 O20 2.196779 1_555
Li10 O28 2.217049 1_555
Li10 O32 2.233177 1_555
Li11 O23 2.109731 1_655
Li11 O25 2.122878 1_555
Li11 O16 2.195661 1_555
Li11 O20 2.196779 1_555
Li11 O28 2.217049 1_655
Li11 O33 2.233177 1_555
Mn0 O9 2.139490 1_555
Mn0 O8 2.139490 1_555
Mn0 O1 2.157382 1_555
Mn0 O18 2.275430 1_555
Mn0 O12 2.294272 1_555
Mn0 O13 2.294272 1_555
Mn1 O11 2.140956 1_555
Mn1 O10 2.140956 1_555
Mn1 O2 2.152551 1_555
Mn1 O17 2.273275 1_555
Mn1 O16 2.273275 1_555
Mn1 O20 2.281633 1_555
Mn2 O13 2.148845 1_555
Mn2 O12 2.148845 1_455
Mn2 O23 2.168238 1_555
Mn2 O3 2.247267 1_555
Mn2 O10 2.283559 1_555
Mn2 O11 2.283559 1_455
Mn3 O16 2.139526 1_455
Mn3 O17 2.139526 1_555
Mn3 O22 2.156460 1_556
Mn3 O4 2.256522 1_555
Mn3 O6 2.287674 1_556
Mn3 O7 2.287674 1_456
Fe0 O7 2.105321 1_555
Fe0 O6 2.105321 1_555
Fe0 O0 2.141370 1_555
Fe0 O19 2.265083 1_555
Fe0 O14 2.270985 1_555
Fe0 O15 2.270985 1_555
Fe1 O15 2.118649 1_555
Fe1 O14 2.118649 1_455
Fe1 O21 2.131213 1_555
Fe1 O5 2.237712 1_555
Fe1 O9 2.268507 1_455
Fe1 O8 2.268507 1_555
Fe2 O34 2.104231 1_555
Fe2 O30 2.104231 1_555
Fe2 O25 2.118000 1_554
Fe2 O44 2.199362 1_555
Fe2 O37 2.279611 1_554
Fe2 O36 2.279611 1_554
Fe3 O35 2.103811 1_555
Fe3 O31 2.103811 1_555
Fe3 O24 2.119466 1_555
Fe3 O43 2.150818 1_555
Fe3 O38 2.279775 1_555
Fe3 O40 2.279775 1_555
Co0 O32 2.058393 1_555
Co0 O33 2.058393 1_555
Co0 O26 2.061184 1_555
Co0 O42 2.157615 1_555
Co0 O39 2.384592 1_555
Co0 O41 2.384592 1_555
Co1 O36 2.106262 1_455
Co1 O37 2.106262 1_555
Co1 O45 2.110583 1_555
Co1 O28 2.175315 1_555
Co1 O33 2.211844 1_455
Co1 O32 2.211844 1_555
Co2 O47 2.084959 1_555
Co2 O41 2.086042 1_555
Co2 O39 2.086042 1_455
Co2 O31 2.232852 1_555
Co2 O35 2.232852 1_455
Co2 O29 2.250025 1_555
Co3 O46 2.091334 1_555
Co3 O40 2.095264 1_555
Co3 O38 2.095264 1_455
Co3 O27 2.221080 1_555
Co3 O30 2.238833 1_555
Co3 O34 2.238833 1_455
O0 P10 1.557848 1_565
O1 P11 1.562944 1_565
O2 P9 1.556938 1_565
O3 P2 1.537457 1_555
O4 P0 1.538499 1_555
O5 P1 1.534358 1_555
O6 P1 1.574695 1_555
O7 P1 1.574695 1_655
O8 P2 1.571578 1_555
O9 P2 1.571578 1_655
O10 P0 1.573251 1_555
O11 P0 1.573251 1_655
O12 P4 1.567928 1_555
O13 P4 1.567928 1_555
O14 P3 1.576521 1_555
O15 P3 1.576521 1_555
O16 P5 1.570846 1_555
O17 P5 1.570846 1_555
O18 P3 1.534584 1_555
O19 P5 1.537922 1_554
O20 P4 1.537126 1_555
O21 P6 1.558406 1_555
O22 P7 1.552833 1_555
O23 P8 1.557988 1_555
O24 P3 1.558825 1_555
O25 P5 1.555928 1_555
O26 P4 1.561326 1_555
O27 P6 1.538095 1_555
O28 P7 1.539043 1_556
O29 P8 1.531753 1_555
O30 P7 1.572191 1_555
O31 P6 1.573957 1_555
O32 P8 1.573221 1_555
O33 P8 1.573221 1_655
O34 P7 1.572191 1_655
O35 P6 1.573957 1_655
O36 P9 1.572206 1_555
O37 P9 1.572206 1_555
O38 P10 1.576011 1_555
O39 P11 1.566606 1_555
O40 P10 1.576011 1_555
O41 P11 1.566606 1_555
O42 P9 1.543077 1_555
O43 P11 1.551312 1_555
O44 P10 1.539366 1_555
O45 P0 1.551616 1_545
O46 P1 1.557117 1_545
O47 P2 1.555063 1_545
