# generated using pymatgen
data_NaMnP2O7
_symmetry_space_group_name_H-M   'P 1'
_cell_length_a   6.65435399
_cell_length_b   6.78382778
_cell_length_c   6.41816981
_cell_angle_alpha   97.61589546
_cell_angle_beta   113.70301501
_cell_angle_gamma   87.70483142
_symmetry_Int_Tables_number   1
_chemical_formula_structural   NaMnP2O7
_chemical_formula_sum   'Na2 Mn2 P4 O14'
_cell_volume   262.91975611
_cell_formula_units_Z   2
loop_
 _symmetry_equiv_pos_site_id
 _symmetry_equiv_pos_as_xyz
  1  'x, y, z'
loop_
 _atom_site_type_symbol
 _atom_site_label
 _atom_site_symmetry_multiplicity
 _atom_site_fract_x
 _atom_site_fract_y
 _atom_site_fract_z
 _atom_site_occupancy
  Na  Na0  1  0.17895800  0.86364000  0.71814000  1
  Na  Na1  1  0.82104200  0.13636000  0.28186000  1
  Mn  Mn0  1  0.21853400  0.34728300  0.09836500  1
  Mn  Mn1  1  0.78146600  0.65271700  0.90163500  1
  P  P0  1  0.23623700  0.87125100  0.21867900  1
  P  P1  1  0.76376300  0.12874900  0.78132100  1
  P  P2  1  0.34963200  0.37999000  0.64951600  1
  P  P3  1  0.65036800  0.62001000  0.35048400  1
  O  O0  1  0.47003400  0.58400600  0.75288200  1
  O  O1  1  0.52996600  0.41599400  0.24711800  1
  O  O2  1  0.23441500  0.31801400  0.79371500  1
  O  O3  1  0.76558500  0.68198600  0.20628500  1
  O  O4  1  0.52512300  0.21822900  0.63593200  1
  O  O5  1  0.47487700  0.78177100  0.36406800  1
  O  O6  1  0.13870000  0.94357100  0.38532500  1
  O  O7  1  0.86130000  0.05642900  0.61467500  1
  O  O8  1  0.11013600  0.68347200  0.04452000  1
  O  O9  1  0.88986400  0.31652800  0.95548000  1
  O  O10  1  0.27505900  0.02728200  0.08698000  1
  O  O11  1  0.72494100  0.97271800  0.91302000  1
  O  O12  1  0.18562500  0.38458900  0.39908300  1
  O  O13  1  0.81437500  0.61541100  0.60091700  1
loop_
_geom_bond_atom_site_label_1
_geom_bond_atom_site_label_2
_geom_bond_distance
_geom_bond_site_symmetry_2
Na0 O6 2.182627 1_555
Na0 O10 2.321310 1_566
Na0 O7 2.345175 1_465
Na0 O0 2.621172 1_555
Na0 O8 2.754336 1_556
Na0 O13 2.794887 1_455
Na1 O7 2.182627 1_555
Na1 O11 2.321310 1_544
Na1 O6 2.345175 1_645
Na1 O1 2.621172 1_555
Na1 O9 2.754336 1_554
Na1 O12 2.794887 1_655
Mn0 O1 1.947356 1_555
Mn0 O2 1.983763 1_554
Mn0 O9 2.010261 1_454
Mn0 O12 2.010731 1_555
Mn0 O10 2.184944 1_555
Mn0 O8 2.391196 1_555
Mn1 O0 1.947356 1_555
Mn1 O3 1.983763 1_556
Mn1 O8 2.010261 1_656
Mn1 O13 2.010731 1_555
Mn1 O11 2.184944 1_555
Mn1 O9 2.391196 1_555
O0 P2 1.554226 1_555
O1 P3 1.554226 1_555
O2 P2 1.523342 1_555
O3 P3 1.523342 1_555
O4 P2 1.590397 1_555
O4 P1 1.625577 1_555
O5 P3 1.590397 1_555
O5 P0 1.625577 1_555
O6 P0 1.483056 1_555
O7 P1 1.483056 1_555
O8 P0 1.590712 1_555
O9 P1 1.590712 1_555
O10 P0 1.528471 1_545
O11 P1 1.528471 1_565
O12 P2 1.541348 1_555
O13 P3 1.541348 1_555
