# generated using pymatgen
data_Ba3ZnIrRuO9
_symmetry_space_group_name_H-M   'P 1'
_cell_length_a   5.85415480
_cell_length_b   5.85415480
_cell_length_c   14.34760300
_cell_angle_alpha   90.00000000
_cell_angle_beta   90.00000000
_cell_angle_gamma   120.00000899
_symmetry_Int_Tables_number   1
_chemical_formula_structural   Ba3ZnIrRuO9
_chemical_formula_sum   'Ba6 Zn2 Ir2 Ru2 O18'
_cell_volume   425.83205195
_cell_formula_units_Z   2
loop_
 _symmetry_equiv_pos_site_id
 _symmetry_equiv_pos_as_xyz
  1  'x, y, z'
loop_
 _atom_site_type_symbol
 _atom_site_label
 _atom_site_symmetry_multiplicity
 _atom_site_fract_x
 _atom_site_fract_y
 _atom_site_fract_z
 _atom_site_occupancy
  Ba  Ba0  1  0.00000000  0.00000000  0.24898400  1
  Ba  Ba1  1  0.00000000  0.00000000  0.75101600  1
  Ba  Ba2  1  0.33333300  0.66666700  0.58649300  1
  Ba  Ba3  1  0.66666700  0.33333300  0.41350700  1
  Ba  Ba4  1  0.66666700  0.33333300  0.08498200  1
  Ba  Ba5  1  0.33333300  0.66666700  0.91501800  1
  Zn  Zn0  1  0.00000000  0.00000000  0.50000000  1
  Zn  Zn1  1  0.00000000  0.00000000  0.00000000  1
  Ir  Ir0  1  0.66666700  0.33333300  0.83989200  1
  Ir  Ir1  1  0.33333300  0.66666700  0.16010800  1
  Ru  Ru0  1  0.33333300  0.66666700  0.34248300  1
  Ru  Ru1  1  0.66666700  0.33333300  0.65751700  1
  O  O0  1  0.48829300  0.51170700  0.25030100  1
  O  O1  1  0.48829300  0.97658600  0.25030100  1
  O  O2  1  0.02341400  0.51170700  0.25030100  1
  O  O3  1  0.51170700  0.48829300  0.74969900  1
  O  O4  1  0.51170700  0.02341400  0.74969900  1
  O  O5  1  0.97658600  0.48829300  0.74969900  1
  O  O6  1  0.17212500  0.82787500  0.08395400  1
  O  O7  1  0.17212500  0.34425100  0.08395400  1
  O  O8  1  0.65574900  0.82787500  0.08395400  1
  O  O9  1  0.82787500  0.17212500  0.91604600  1
  O  O10  1  0.82787500  0.65574900  0.91604600  1
  O  O11  1  0.34425100  0.17212500  0.91604600  1
  O  O12  1  0.82753400  0.17246600  0.58420600  1
  O  O13  1  0.82753400  0.65506800  0.58420600  1
  O  O14  1  0.34493200  0.17246600  0.58420600  1
  O  O15  1  0.17246600  0.82753400  0.41579400  1
  O  O16  1  0.17246600  0.34493200  0.41579400  1
  O  O17  1  0.65506800  0.82753400  0.41579400  1
loop_
_geom_bond_atom_site_label_1
_geom_bond_atom_site_label_2
_geom_bond_distance
_geom_bond_site_symmetry_2
Ba0 O0 2.929544 1_445
Ba0 O0 2.929544 1_555
Ba0 O1 2.929544 1_445
Ba0 O2 2.929544 1_555
Ba0 O2 2.929544 1_545
Ba0 O1 2.929544 1_545
Ba0 O6 2.941506 1_545
Ba0 O7 2.941509 1_555
Ba0 O8 2.941509 1_445
Ba0 O16 2.964141 1_555
Ba0 O17 2.964141 1_445
Ba0 O15 2.964141 1_545
Ba1 O3 2.929544 1_445
Ba1 O3 2.929544 1_555
Ba1 O5 2.929544 1_445
Ba1 O4 2.929544 1_555
Ba1 O4 2.929544 1_455
Ba1 O5 2.929544 1_455
Ba1 O9 2.941506 1_455
Ba1 O11 2.941509 1_555
Ba1 O10 2.941509 1_445
Ba1 O14 2.964141 1_555
Ba1 O13 2.964141 1_445
Ba1 O12 2.964141 1_455
Ba2 O14 2.927849 1_565
Ba2 O13 2.927849 1_455
Ba2 O12 2.927851 1_565
Ba2 O12 2.927851 1_455
Ba2 O13 2.927855 1_555
Ba2 O14 2.927855 1_555
Ba2 O15 2.942587 1_555
Ba2 O17 2.942590 1_555
Ba2 O16 2.942590 1_555
Ba2 O4 2.958781 1_565
Ba2 O5 2.958781 1_455
Ba2 O3 2.958784 1_555
Ba3 O16 2.927849 1_655
Ba3 O17 2.927849 1_545
Ba3 O15 2.927851 1_655
Ba3 O15 2.927851 1_545
Ba3 O17 2.927855 1_555
Ba3 O16 2.927855 1_555
Ba3 O12 2.942587 1_555
Ba3 O13 2.942590 1_555
Ba3 O14 2.942590 1_555
Ba3 O2 2.958781 1_655
Ba3 O1 2.958781 1_545
Ba3 O0 2.958784 1_555
Ba4 O10 2.923500 1_554
Ba4 O11 2.923500 1_554
Ba4 O9 2.923500 1_554
Ba4 O7 2.927632 1_655
Ba4 O8 2.927632 1_545
Ba4 O6 2.927637 1_655
Ba4 O6 2.927637 1_545
Ba4 O8 2.927644 1_555
Ba4 O7 2.927644 1_555
Ba4 O2 2.982831 1_655
Ba4 O1 2.982831 1_545
Ba4 O0 2.982834 1_555
Ba5 O8 2.923500 1_556
Ba5 O7 2.923500 1_556
Ba5 O6 2.923500 1_556
Ba5 O11 2.927632 1_565
Ba5 O10 2.927632 1_455
Ba5 O9 2.927637 1_565
Ba5 O9 2.927637 1_455
Ba5 O10 2.927644 1_555
Ba5 O11 2.927644 1_555
Ba5 O4 2.982831 1_565
Ba5 O5 2.982831 1_455
Ba5 O3 2.982834 1_555
Ir0 O10 1.966151 1_555
Ir0 O11 1.966151 1_555
Ir0 O9 1.966151 1_555
Ir0 O5 2.035528 1_555
Ir0 O4 2.035528 1_555
Ir0 O3 2.035532 1_555
Ir1 O8 1.966151 1_555
Ir1 O7 1.966151 1_555
Ir1 O6 1.966151 1_555
Ir1 O1 2.035528 1_555
Ir1 O2 2.035528 1_555
Ir1 O0 2.035532 1_555
O0 Ru0 2.053792 1_555
O1 Ru0 2.053788 1_555
O2 Ru0 2.053788 1_555
O3 Ru1 2.053792 1_555
O4 Ru1 2.053788 1_555
O5 Ru1 2.053788 1_555
O6 Zn1 2.120605 1_565
O7 Zn1 2.120609 1_555
O8 Zn1 2.120609 1_665
O9 Zn1 2.120605 1_656
O10 Zn1 2.120609 1_666
O11 Zn1 2.120609 1_556
O12 Ru1 1.940873 1_555
O12 Zn0 2.125505 1_655
O13 Ru1 1.940877 1_555
O13 Zn0 2.125505 1_665
O14 Ru1 1.940877 1_555
O14 Zn0 2.125505 1_555
O15 Ru0 1.940873 1_555
O15 Zn0 2.125505 1_565
O16 Ru0 1.940877 1_555
O16 Zn0 2.125505 1_555
O17 Ru0 1.940877 1_555
O17 Zn0 2.125505 1_665
