# generated using pymatgen
data_MoWSe3S
_symmetry_space_group_name_H-M   'P 1'
_cell_length_a   3.29126020
_cell_length_b   3.29126020
_cell_length_c   36.94162700
_cell_angle_alpha   90.00000000
_cell_angle_beta   90.00000000
_cell_angle_gamma   120.00000400
_symmetry_Int_Tables_number   1
_chemical_formula_structural   MoWSe3S
_chemical_formula_sum   'Mo2 W2 Se6 S2'
_cell_volume   346.55412207
_cell_formula_units_Z   2
loop_
 _symmetry_equiv_pos_site_id
 _symmetry_equiv_pos_as_xyz
  1  'x, y, z'
loop_
 _atom_site_type_symbol
 _atom_site_label
 _atom_site_symmetry_multiplicity
 _atom_site_fract_x
 _atom_site_fract_y
 _atom_site_fract_z
 _atom_site_occupancy
  Mo  Mo0  1  0.00000000  0.00000000  0.09341600  1
  Mo  Mo1  1  0.00000000  0.00000000  0.47092800  1
  W  W0  1  0.33333300  0.66666700  0.28141800  1
  W  W1  1  0.33333300  0.66666700  0.65715600  1
  Se  Se0  1  0.00000000  0.00000000  0.32729500  1
  Se  Se1  1  0.00000000  0.00000000  0.70302400  1
  Se  Se2  1  0.33333300  0.66666700  0.04776400  1
  Se  Se3  1  0.33333300  0.66666700  0.13906300  1
  Se  Se4  1  0.00000000  0.00000000  0.23554200  1
  Se  Se5  1  0.00000000  0.00000000  0.61128300  1
  S  S0  1  0.33333300  0.66666700  0.42941000  1
  S  S1  1  0.33333300  0.66666700  0.51244900  1
loop_
_geom_bond_atom_site_label_1
_geom_bond_atom_site_label_2
_geom_bond_distance
_geom_bond_site_symmetry_2
Mo0 Se3 2.540534 1_545
Mo0 Se3 2.540536 1_445
Mo0 Se3 2.540536 1_555
Mo0 Se2 2.540656 1_545
Mo0 Se2 2.540659 1_555
Mo0 Se2 2.540659 1_445
Mo1 S0 2.441958 1_545
Mo1 S0 2.441960 1_445
Mo1 S0 2.441960 1_555
Mo1 S1 2.442027 1_545
Mo1 S1 2.442029 1_555
Mo1 S1 2.442029 1_445
Se0 W0 2.546181 1_545
Se0 W0 2.546183 1_445
Se0 W0 2.546183 1_555
Se1 W1 2.545960 1_545
Se1 W1 2.545962 1_555
Se1 W1 2.545962 1_445
Se4 W0 2.546157 1_545
Se4 W0 2.546159 1_555
Se4 W0 2.546159 1_445
Se5 W1 2.546083 1_545
Se5 W1 2.546085 1_555
Se5 W1 2.546085 1_445
