# generated using pymatgen
data_CaMg30NiO32
_symmetry_space_group_name_H-M   'P 1'
_cell_length_a   8.55931300
_cell_length_b   8.55931300
_cell_length_c   8.55335900
_cell_angle_alpha   90.00000000
_cell_angle_beta   90.00000000
_cell_angle_gamma   90.00000000
_symmetry_Int_Tables_number   1
_chemical_formula_structural   CaMg30NiO32
_chemical_formula_sum   'Ca1 Mg30 Ni1 O32'
_cell_volume   626.63481024
_cell_formula_units_Z   1
loop_
 _symmetry_equiv_pos_site_id
 _symmetry_equiv_pos_as_xyz
  1  'x, y, z'
loop_
 _atom_site_type_symbol
 _atom_site_label
 _atom_site_symmetry_multiplicity
 _atom_site_fract_x
 _atom_site_fract_y
 _atom_site_fract_z
 _atom_site_occupancy
  Ca  Ca0  1  0.00000000  0.00000000  0.00000000  1
  Mg  Mg0  1  0.50000000  0.00000000  0.00000000  1
  Mg  Mg1  1  0.50000000  0.00000000  0.50000000  1
  Mg  Mg2  1  0.00000000  0.50000000  0.00000000  1
  Mg  Mg3  1  0.00000000  0.50000000  0.50000000  1
  Mg  Mg4  1  0.50000000  0.50000000  0.00000000  1
  Mg  Mg5  1  0.50000000  0.50000000  0.50000000  1
  Mg  Mg6  1  0.25249500  0.00000000  0.25339600  1
  Mg  Mg7  1  0.25249500  0.00000000  0.74660400  1
  Mg  Mg8  1  0.74750500  0.00000000  0.25339600  1
  Mg  Mg9  1  0.74750500  0.00000000  0.74660400  1
  Mg  Mg10  1  0.25002800  0.50000000  0.25033200  1
  Mg  Mg11  1  0.25002800  0.50000000  0.74966800  1
  Mg  Mg12  1  0.74997200  0.50000000  0.25033200  1
  Mg  Mg13  1  0.74997200  0.50000000  0.74966800  1
  Mg  Mg14  1  0.00000000  0.25249500  0.25339600  1
  Mg  Mg15  1  0.00000000  0.25249500  0.74660400  1
  Mg  Mg16  1  0.50000000  0.25002800  0.25033200  1
  Mg  Mg17  1  0.50000000  0.25002800  0.74966800  1
  Mg  Mg18  1  0.00000000  0.74750500  0.25339600  1
  Mg  Mg19  1  0.00000000  0.74750500  0.74660400  1
  Mg  Mg20  1  0.50000000  0.74997200  0.25033200  1
  Mg  Mg21  1  0.50000000  0.74997200  0.74966800  1
  Mg  Mg22  1  0.25276600  0.25276600  0.00000000  1
  Mg  Mg23  1  0.24946500  0.24946500  0.50000000  1
  Mg  Mg24  1  0.74723400  0.25276600  0.00000000  1
  Mg  Mg25  1  0.75053500  0.24946500  0.50000000  1
  Mg  Mg26  1  0.25276600  0.74723400  0.00000000  1
  Mg  Mg27  1  0.24946500  0.75053500  0.50000000  1
  Mg  Mg28  1  0.74723400  0.74723400  0.00000000  1
  Mg  Mg29  1  0.75053500  0.75053500  0.50000000  1
  Ni  Ni0  1  0.00000000  0.00000000  0.50000000  1
  O  O0  1  0.00000000  0.26217100  0.00000000  1
  O  O1  1  0.00000000  0.25305200  0.50000000  1
  O  O2  1  0.50000000  0.25200400  0.00000000  1
  O  O3  1  0.50000000  0.25019300  0.50000000  1
  O  O4  1  0.00000000  0.73782900  0.00000000  1
  O  O5  1  0.00000000  0.74694800  0.50000000  1
  O  O6  1  0.50000000  0.74799600  0.00000000  1
  O  O7  1  0.50000000  0.74980700  0.50000000  1
  O  O8  1  0.24949100  0.24949100  0.24999400  1
  O  O9  1  0.24949100  0.24949100  0.75000600  1
  O  O10  1  0.75050900  0.24949100  0.24999400  1
  O  O11  1  0.75050900  0.24949100  0.75000600  1
  O  O12  1  0.24949100  0.75050900  0.24999400  1
  O  O13  1  0.24949100  0.75050900  0.75000600  1
  O  O14  1  0.75050900  0.75050900  0.24999400  1
  O  O15  1  0.75050900  0.75050900  0.75000600  1
  O  O16  1  0.00000000  0.00000000  0.26163800  1
  O  O17  1  0.00000000  0.00000000  0.73836200  1
  O  O18  1  0.50000000  0.00000000  0.25219800  1
  O  O19  1  0.50000000  0.00000000  0.74780200  1
  O  O20  1  0.00000000  0.50000000  0.25219800  1
  O  O21  1  0.00000000  0.50000000  0.74780200  1
  O  O22  1  0.50000000  0.50000000  0.25040000  1
  O  O23  1  0.50000000  0.50000000  0.74960000  1
  O  O24  1  0.26217100  0.00000000  0.00000000  1
  O  O25  1  0.25305200  0.00000000  0.50000000  1
  O  O26  1  0.73782900  0.00000000  0.00000000  1
  O  O27  1  0.74694800  0.00000000  0.50000000  1
  O  O28  1  0.25200400  0.50000000  0.00000000  1
  O  O29  1  0.25019300  0.50000000  0.50000000  1
  O  O30  1  0.74799600  0.50000000  0.00000000  1
  O  O31  1  0.74980700  0.50000000  0.50000000  1
loop_
_geom_bond_atom_site_label_1
_geom_bond_atom_site_label_2
_geom_bond_distance
_geom_bond_site_symmetry_2
Ca0 O16 2.237884 1_555
Ca0 O17 2.237884 1_554
Ca0 O0 2.244004 1_555
Ca0 O24 2.244004 1_555
Ca0 O26 2.244004 1_455
Ca0 O4 2.244004 1_545
Mg0 O26 2.035653 1_555
Mg0 O24 2.035653 1_555
Mg0 O6 2.156981 1_545
Mg0 O2 2.156981 1_555
Mg0 O18 2.157140 1_555
Mg0 O19 2.157140 1_554
Mg1 O27 2.113705 1_555
Mg1 O25 2.113705 1_555
Mg1 O19 2.119539 1_555
Mg1 O18 2.119539 1_555
Mg1 O3 2.141480 1_555
Mg1 O7 2.141480 1_545
Mg2 O4 2.035653 1_555
Mg2 O0 2.035653 1_555
Mg2 O28 2.156981 1_555
Mg2 O30 2.156981 1_455
Mg2 O20 2.157140 1_555
Mg2 O21 2.157140 1_554
Mg3 O5 2.113705 1_555
Mg3 O1 2.113705 1_555
Mg3 O21 2.119539 1_555
Mg3 O20 2.119539 1_555
Mg3 O29 2.141480 1_555
Mg3 O31 2.141480 1_455
Mg4 O30 2.122675 1_555
Mg4 O2 2.122675 1_555
Mg4 O28 2.122675 1_555
Mg4 O6 2.122675 1_555
Mg4 O23 2.141761 1_554
Mg4 O22 2.141761 1_555
Mg5 O22 2.134918 1_555
Mg5 O23 2.134918 1_555
Mg5 O7 2.138176 1_555
Mg5 O29 2.138176 1_555
Mg5 O31 2.138176 1_555
Mg5 O3 2.138176 1_555
Mg6 O25 2.109298 1_555
Mg6 O18 2.118498 1_555
Mg6 O12 2.135825 1_545
Mg6 O8 2.135825 1_555
Mg6 O16 2.162333 1_555
Mg6 O24 2.168969 1_555
Mg7 O25 2.109298 1_555
Mg7 O19 2.118498 1_555
Mg7 O13 2.135825 1_545
Mg7 O9 2.135825 1_555
Mg7 O17 2.162333 1_555
Mg7 O24 2.168969 1_556
Mg8 O27 2.109298 1_555
Mg8 O18 2.118498 1_555
Mg8 O14 2.135825 1_545
Mg8 O10 2.135825 1_555
Mg8 O16 2.162333 1_655
Mg8 O26 2.168969 1_555
Mg9 O27 2.109298 1_555
Mg9 O19 2.118498 1_555
Mg9 O15 2.135825 1_545
Mg9 O11 2.135825 1_555
Mg9 O17 2.162333 1_655
Mg9 O26 2.168969 1_556
Mg10 O29 2.135501 1_555
Mg10 O22 2.139589 1_555
Mg10 O20 2.140127 1_555
Mg10 O28 2.141246 1_555
Mg10 O8 2.144192 1_555
Mg10 O12 2.144192 1_555
Mg11 O29 2.135501 1_555
Mg11 O23 2.139589 1_555
Mg11 O21 2.140127 1_555
Mg11 O28 2.141246 1_556
Mg11 O9 2.144192 1_555
Mg11 O13 2.144192 1_555
Mg12 O31 2.135501 1_555
Mg12 O22 2.139589 1_555
Mg12 O20 2.140127 1_655
Mg12 O30 2.141246 1_555
Mg12 O10 2.144192 1_555
Mg12 O14 2.144192 1_555
Mg13 O31 2.135501 1_555
Mg13 O23 2.139589 1_555
Mg13 O21 2.140127 1_655
Mg13 O30 2.141246 1_556
Mg13 O15 2.144192 1_555
Mg13 O11 2.144192 1_555
Mg14 O1 2.109298 1_555
Mg14 O20 2.118498 1_555
Mg14 O10 2.135825 1_455
Mg14 O8 2.135825 1_555
Mg14 O16 2.162333 1_555
Mg14 O0 2.168969 1_555
Mg15 O1 2.109298 1_555
Mg15 O21 2.118498 1_555
Mg15 O11 2.135825 1_455
Mg15 O9 2.135825 1_555
Mg15 O17 2.162333 1_555
Mg15 O0 2.168969 1_556
Mg16 O3 2.135501 1_555
Mg16 O22 2.139589 1_555
Mg16 O18 2.140127 1_555
Mg16 O2 2.141246 1_555
Mg16 O8 2.144192 1_555
Mg16 O10 2.144192 1_555
Mg17 O3 2.135501 1_555
Mg17 O23 2.139589 1_555
Mg17 O19 2.140127 1_555
Mg17 O2 2.141246 1_556
Mg17 O9 2.144192 1_555
Mg17 O11 2.144192 1_555
Mg18 O5 2.109298 1_555
Mg18 O20 2.118498 1_555
Mg18 O14 2.135825 1_455
Mg18 O12 2.135825 1_555
Mg18 O16 2.162333 1_565
Mg18 O4 2.168969 1_555
Mg19 O5 2.109298 1_555
Mg19 O21 2.118498 1_555
Mg19 O13 2.135825 1_555
Mg19 O15 2.135825 1_455
Mg19 O17 2.162333 1_565
Mg19 O4 2.168969 1_556
Mg20 O7 2.135501 1_555
Mg20 O22 2.139589 1_555
Mg20 O18 2.140127 1_565
Mg20 O6 2.141246 1_555
Mg20 O12 2.144192 1_555
Mg20 O14 2.144192 1_555
Mg21 O7 2.135501 1_555
Mg21 O23 2.139589 1_555
Mg21 O19 2.140127 1_565
Mg21 O6 2.141246 1_556
Mg21 O15 2.144192 1_555
Mg21 O13 2.144192 1_555
Mg22 O2 2.116163 1_555
Mg22 O28 2.116163 1_555
Mg22 O8 2.138656 1_555
Mg22 O9 2.138656 1_554
Mg22 O0 2.165000 1_555
Mg22 O24 2.165000 1_555
Mg23 O1 2.135470 1_555
Mg23 O25 2.135470 1_555
Mg23 O9 2.138391 1_555
Mg23 O8 2.138391 1_555
Mg23 O3 2.144417 1_555
Mg23 O29 2.144417 1_555
Mg24 O2 2.116163 1_555
Mg24 O30 2.116163 1_555
Mg24 O10 2.138656 1_555
Mg24 O11 2.138656 1_554
Mg24 O26 2.165000 1_555
Mg24 O0 2.165000 1_655
Mg25 O27 2.135470 1_555
Mg25 O1 2.135470 1_655
Mg25 O11 2.138391 1_555
Mg25 O10 2.138391 1_555
Mg25 O3 2.144417 1_555
Mg25 O31 2.144417 1_555
Mg26 O28 2.116163 1_555
Mg26 O6 2.116163 1_555
Mg26 O12 2.138656 1_555
Mg26 O13 2.138656 1_554
Mg26 O4 2.165000 1_555
Mg26 O24 2.165000 1_565
Mg27 O5 2.135470 1_555
Mg27 O25 2.135470 1_565
Mg27 O13 2.138391 1_555
Mg27 O12 2.138391 1_555
Mg27 O29 2.144417 1_555
Mg27 O7 2.144417 1_555
Mg28 O6 2.116163 1_555
Mg28 O30 2.116163 1_555
Mg28 O14 2.138656 1_555
Mg28 O15 2.138656 1_554
Mg28 O26 2.165000 1_565
Mg28 O4 2.165000 1_655
Mg29 O27 2.135470 1_565
Mg29 O5 2.135470 1_655
Mg29 O15 2.138391 1_555
Mg29 O14 2.138391 1_555
Mg29 O7 2.144417 1_555
Mg29 O31 2.144417 1_555
Ni0 O17 2.038796 1_555
Ni0 O16 2.038796 1_555
Ni0 O1 2.165951 1_555
Ni0 O25 2.165951 1_555
Ni0 O27 2.165951 1_455
Ni0 O5 2.165951 1_545
