# generated using pymatgen
data_Li3V4O8
_symmetry_space_group_name_H-M   'P 1'
_cell_length_a   5.92555512
_cell_length_b   10.19886475
_cell_length_c   6.12359140
_cell_angle_alpha   73.92006910
_cell_angle_beta   119.22862629
_cell_angle_gamma   89.87101110
_symmetry_Int_Tables_number   1
_chemical_formula_structural   Li3V4O8
_chemical_formula_sum   'Li6 V8 O16'
_cell_volume   306.11891186
_cell_formula_units_Z   2
loop_
 _symmetry_equiv_pos_site_id
 _symmetry_equiv_pos_as_xyz
  1  'x, y, z'
loop_
 _atom_site_type_symbol
 _atom_site_label
 _atom_site_symmetry_multiplicity
 _atom_site_fract_x
 _atom_site_fract_y
 _atom_site_fract_z
 _atom_site_occupancy
  Li  Li0  1  0.50165000  0.99955300  0.50065300  1
  Li  Li1  1  0.99840400  0.50042200  0.49934200  1
  Li  Li2  1  0.28519600  0.06861400  0.06938000  1
  Li  Li3  1  0.78249100  0.56815700  0.06705600  1
  Li  Li4  1  0.21446700  0.43138800  0.93059900  1
  Li  Li5  1  0.71782900  0.93184800  0.93298500  1
  V  V0  1  0.74977500  0.25004200  0.49969100  1
  V  V1  1  0.24985700  0.75002900  0.49979400  1
  V  V2  1  0.25020300  0.24997100  0.50010900  1
  V  V3  1  0.75010500  0.75001600  0.50012400  1
  V  V4  1  0.00335200  0.99878500  0.50236300  1
  V  V5  1  0.49665300  0.50120400  0.49765200  1
  V  V6  1  0.25019600  0.74994400  0.00006800  1
  V  V7  1  0.74981300  0.25003500  0.00000000  1
  O  O0  1  0.10594800  0.12487200  0.70241700  1
  O  O1  1  0.60177900  0.62527300  0.70085700  1
  O  O2  1  0.39388400  0.37516800  0.29750300  1
  O  O3  1  0.89811600  0.87473600  0.29919500  1
  O  O4  1  0.65074900  0.12220000  0.27474500  1
  O  O5  1  0.14579400  0.62382100  0.26294800  1
  O  O6  1  0.88248600  0.36128800  0.26364000  1
  O  O7  1  0.38365000  0.86216100  0.26916500  1
  O  O8  1  0.10964100  0.12233600  0.26093600  1
  O  O9  1  0.61185400  0.62442100  0.26080400  1
  O  O10  1  0.61758200  0.13871400  0.73640700  1
  O  O11  1  0.11643100  0.63784800  0.73084600  1
  O  O12  1  0.39031700  0.37766300  0.73914500  1
  O  O13  1  0.88837700  0.87551700  0.73940300  1
  O  O14  1  0.84910900  0.37777600  0.72521500  1
  O  O15  1  0.35429300  0.87620000  0.73695900  1
loop_
_geom_bond_atom_site_label_1
_geom_bond_atom_site_label_2
_geom_bond_distance
_geom_bond_site_symmetry_2
Li0 O4 2.121066 1_565
Li0 O7 2.144429 1_555
Li0 O15 2.160903 1_555
Li0 O13 2.163240 1_555
Li0 O10 2.177463 1_565
Li0 O8 2.181122 1_565
Li1 O14 2.121768 1_555
Li1 O11 2.144787 1_655
Li1 O5 2.161613 1_655
Li1 O9 2.162332 1_555
Li1 O6 2.177014 1_555
Li1 O12 2.180606 1_655
Li2 O0 1.859859 1_554
Li2 O7 2.034951 1_545
Li2 O4 2.073153 1_555
Li2 O8 2.074470 1_555
Li3 O1 1.855559 1_554
Li3 O6 2.035299 1_555
Li3 O5 2.063125 1_655
Li3 O9 2.074930 1_555
Li4 O2 1.859546 1_556
Li4 O11 2.035003 1_555
Li4 O14 2.072422 1_455
Li4 O12 2.075290 1_555
Li5 O3 1.855653 1_556
Li5 O10 2.035267 1_565
Li5 O15 2.064225 1_555
Li5 O13 2.073922 1_555
O0 V4 1.916470 1_545
O0 V2 2.014138 1_555
O0 V0 2.043617 1_455
O1 V5 1.912162 1_555
O1 V3 2.023818 1_555
O1 V1 2.023927 1_555
O2 V5 1.916426 1_555
O2 V2 2.013314 1_555
O2 V0 2.042418 1_555
O3 V4 1.911843 1_655
O3 V1 2.023110 1_655
O3 V3 2.023118 1_555
O4 V4 2.016128 1_645
O4 V0 2.037342 1_555
O4 V7 2.151228 1_555
O5 V5 2.006600 1_555
O5 V1 2.074827 1_555
O5 V6 2.111339 1_555
O6 V2 2.032320 1_655
O6 V0 2.049564 1_555
O6 V7 2.071503 1_555
O7 V3 2.029075 1_555
O7 V1 2.033162 1_555
O7 V6 2.103991 1_555
O8 V4 2.012730 1_545
O8 V7 2.074387 1_455
O8 V2 2.098327 1_555
O9 V5 2.027276 1_555
O9 V6 2.072322 1_555
O9 V3 2.081279 1_555
O10 V2 2.030617 1_555
O10 V0 2.050639 1_555
O10 V7 2.071820 1_556
O11 V3 2.028579 1_455
O11 V1 2.033649 1_555
O11 V6 2.103617 1_556
O12 V5 2.013163 1_555
O12 V7 2.072763 1_556
O12 V2 2.098082 1_555
O13 V4 2.027408 1_655
O13 V6 2.073113 1_656
O13 V3 2.080337 1_555
O14 V5 2.015574 1_555
O14 V0 2.038880 1_555
O14 V7 2.151940 1_556
O15 V4 2.006770 1_555
O15 V1 2.075844 1_555
O15 V6 2.111709 1_556
