# generated using pymatgen
data_Sr3Se2(ClO3)2
_symmetry_space_group_name_H-M   'P 1'
_cell_length_a   7.26212267
_cell_length_b   7.26212267
_cell_length_c   6.78660897
_cell_angle_alpha   84.24815390
_cell_angle_beta   84.24815390
_cell_angle_gamma   45.68654389
_symmetry_Int_Tables_number   1
_chemical_formula_structural   Sr3Se2(ClO3)2
_chemical_formula_sum   'Sr3 Se2 Cl2 O6'
_cell_volume   254.57963539
_cell_formula_units_Z   1
loop_
 _symmetry_equiv_pos_site_id
 _symmetry_equiv_pos_as_xyz
  1  'x, y, z'
loop_
 _atom_site_type_symbol
 _atom_site_label
 _atom_site_symmetry_multiplicity
 _atom_site_fract_x
 _atom_site_fract_y
 _atom_site_fract_z
 _atom_site_occupancy
  Sr  Sr0  1  0.28651600  0.28866200  0.21210000  1
  Sr  Sr1  1  0.71133800  0.71348400  0.78790000  1
  Sr  Sr2  1  0.98271700  0.01728300  0.00000000  1
  Se  Se0  1  0.40171100  0.40526100  0.73511400  1
  Se  Se1  1  0.59473900  0.59828900  0.26488600  1
  Cl  Cl0  1  0.16035400  0.16094900  0.62468600  1
  Cl  Cl1  1  0.83905100  0.83964600  0.37531400  1
  O  O0  1  0.87800000  0.40812600  0.11533900  1
  O  O1  1  0.40465500  0.87976400  0.11477800  1
  O  O2  1  0.12023600  0.59534500  0.88522200  1
  O  O3  1  0.59187400  0.12200000  0.88466100  1
  O  O4  1  0.47555800  0.46974800  0.22834000  1
  O  O5  1  0.53025200  0.52444200  0.77166000  1
loop_
_geom_bond_atom_site_label_1
_geom_bond_atom_site_label_2
_geom_bond_distance
_geom_bond_site_symmetry_2
Cl0 Sr0 3.113270 1_555
Cl0 Sr1 3.130065 1_545
Cl0 Sr1 3.137932 1_455
Cl0 Sr2 3.151130 1_456
Cl1 Sr1 3.113270 1_555
Cl1 Sr0 3.130065 1_655
Cl1 Sr0 3.137932 1_565
Cl1 Sr2 3.151130 1_565
O0 Se1 1.749898 1_555
O0 Sr2 2.560766 1_555
O0 Sr0 2.581752 1_655
O0 Sr1 2.668710 1_554
O1 Se1 1.744645 1_555
O1 Sr0 2.590391 1_565
O1 Sr2 2.653344 1_465
O1 Sr1 2.669979 1_554
O2 Se0 1.744645 1_555
O2 Sr1 2.590391 1_455
O2 Sr2 2.653344 1_466
O2 Sr0 2.669979 1_556
O3 Se0 1.749898 1_555
O3 Sr2 2.560766 1_556
O3 Sr1 2.581752 1_545
O3 Sr0 2.668710 1_556
O4 Se1 1.703014 1_555
O4 Sr0 2.491599 1_555
O5 Se0 1.703014 1_555
O5 Sr1 2.491599 1_555
