# generated using pymatgen
data_NdGaCo4
_symmetry_space_group_name_H-M   'P 1'
_cell_length_a   8.72686767
_cell_length_b   8.72686767
_cell_length_c   4.02175300
_cell_angle_alpha   90.00000000
_cell_angle_beta   90.00000000
_cell_angle_gamma   119.99999748
_symmetry_Int_Tables_number   1
_chemical_formula_structural   NdGaCo4
_chemical_formula_sum   'Nd3 Ga3 Co12'
_cell_volume   265.25453527
_cell_formula_units_Z   3
loop_
 _symmetry_equiv_pos_site_id
 _symmetry_equiv_pos_as_xyz
  1  'x, y, z'
loop_
 _atom_site_type_symbol
 _atom_site_label
 _atom_site_symmetry_multiplicity
 _atom_site_fract_x
 _atom_site_fract_y
 _atom_site_fract_z
 _atom_site_occupancy
  Nd  Nd0  1  0.33333300  0.66666700  0.00000000  1
  Nd  Nd1  1  0.66666700  0.33333300  0.00000000  1
  Nd  Nd2  1  0.00000000  0.00000000  0.00000000  1
  Ga  Ga0  1  0.50000000  0.00000000  0.50000000  1
  Ga  Ga1  1  0.00000000  0.50000000  0.50000000  1
  Ga  Ga2  1  0.50000000  0.50000000  0.50000000  1
  Co  Co0  1  0.16038200  0.32076300  0.50000000  1
  Co  Co1  1  0.83961800  0.67923700  0.50000000  1
  Co  Co2  1  0.67923700  0.83961800  0.50000000  1
  Co  Co3  1  0.32076300  0.16038200  0.50000000  1
  Co  Co4  1  0.16038200  0.83961800  0.50000000  1
  Co  Co5  1  0.83961800  0.16038200  0.50000000  1
  Co  Co6  1  0.32389100  0.00000000  0.00000000  1
  Co  Co7  1  0.67610900  0.00000000  0.00000000  1
  Co  Co8  1  0.00000000  0.32389100  0.00000000  1
  Co  Co9  1  0.00000000  0.67610900  0.00000000  1
  Co  Co10  1  0.67610900  0.67610900  0.00000000  1
  Co  Co11  1  0.32389100  0.32389100  0.00000000  1
loop_
_geom_bond_atom_site_label_1
_geom_bond_atom_site_label_2
_geom_bond_distance
_geom_bond_site_symmetry_2
Ga0 Nd0 3.223372 1_545
Ga0 Nd1 3.223372 1_555
Ga0 Nd0 3.223372 1_546
Ga0 Nd1 3.223372 1_556
Ga1 Nd1 3.223372 1_455
Ga1 Nd0 3.223372 1_555
Ga1 Nd1 3.223372 1_456
Ga1 Nd0 3.223372 1_556
Ga2 Nd0 3.223378 1_556
Ga2 Nd1 3.223378 1_555
Ga2 Nd1 3.223378 1_556
Ga2 Nd0 3.223378 1_555
Co0 Co3 2.424219 1_555
Co0 Co5 2.424235 1_455
Co0 Co11 2.457951 1_556
Co0 Co11 2.457951 1_555
Co0 Co8 2.457956 1_555
Co0 Co8 2.457956 1_556
Co0 Ga2 2.568046 1_555
Co0 Ga1 2.568053 1_555
Co0 Nd2 3.149683 1_555
Co0 Nd2 3.149683 1_556
Co0 Nd0 3.298158 1_555
Co0 Nd0 3.298158 1_556
Co1 Co2 2.424219 1_555
Co1 Co4 2.424235 1_655
Co1 Co10 2.457951 1_555
Co1 Co10 2.457951 1_556
Co1 Co9 2.457956 1_656
Co1 Co9 2.457956 1_655
Co1 Ga2 2.568046 1_555
Co1 Ga1 2.568053 1_655
Co1 Nd2 3.149683 1_665
Co1 Nd2 3.149683 1_666
Co1 Nd1 3.298158 1_556
Co1 Nd1 3.298158 1_555
Co2 Co5 2.424235 1_565
Co2 Co7 2.457956 1_566
Co2 Co7 2.457956 1_565
Co2 Ga2 2.568046 1_555
Co2 Ga0 2.568053 1_565
Co2 Nd2 3.149683 1_665
Co2 Nd2 3.149683 1_666
Co2 Nd0 3.298158 1_555
Co2 Nd0 3.298158 1_556
Co3 Co4 2.424235 1_545
Co3 Co6 2.457956 1_556
Co3 Co6 2.457956 1_555
Co3 Ga2 2.568046 1_555
Co3 Ga0 2.568053 1_555
Co3 Nd2 3.149683 1_555
Co3 Nd2 3.149683 1_556
Co3 Nd1 3.298158 1_555
Co3 Nd1 3.298158 1_556
Co4 Co6 2.457953 1_566
Co4 Co6 2.457953 1_565
Co4 Co9 2.457953 1_555
Co4 Co9 2.457953 1_556
Co4 Ga1 2.568045 1_555
Co4 Ga0 2.568045 1_565
Co4 Nd2 3.149688 1_565
Co4 Nd2 3.149688 1_566
Co4 Nd0 3.298146 1_555
Co4 Nd0 3.298146 1_556
Co5 Co8 2.457953 1_655
Co5 Co7 2.457953 1_556
Co5 Co7 2.457953 1_555
Co5 Co8 2.457953 1_656
Co5 Ga1 2.568045 1_655
Co5 Ga0 2.568045 1_555
Co5 Nd2 3.149688 1_656
Co5 Nd2 3.149688 1_655
Co5 Nd1 3.298146 1_555
Co5 Nd1 3.298146 1_556
Co6 Ga0 2.530933 1_555
Co6 Ga0 2.530933 1_554
Co6 Nd2 2.826554 1_555
Co6 Nd0 2.951015 1_545
Co6 Nd1 2.951020 1_555
Co7 Ga0 2.530933 1_555
Co7 Ga0 2.530933 1_554
Co7 Nd2 2.826554 1_655
Co7 Nd1 2.951015 1_555
Co7 Nd0 2.951020 1_545
Co8 Ga1 2.530933 1_554
Co8 Ga1 2.530933 1_555
Co8 Nd2 2.826554 1_555
Co8 Nd1 2.951015 1_455
Co8 Nd0 2.951020 1_555
Co9 Ga1 2.530933 1_554
Co9 Ga1 2.530933 1_555
Co9 Nd2 2.826554 1_565
Co9 Nd0 2.951015 1_555
Co9 Nd1 2.951020 1_455
Co10 Co2 2.457951 1_554
Co10 Co2 2.457951 1_555
Co10 Ga2 2.530934 1_554
Co10 Ga2 2.530934 1_555
Co10 Nd2 2.826554 1_665
Co10 Nd0 2.951024 1_555
Co10 Nd1 2.951024 1_555
Co11 Co3 2.457951 1_554
Co11 Co3 2.457951 1_555
Co11 Ga2 2.530934 1_555
Co11 Ga2 2.530934 1_554
Co11 Nd2 2.826554 1_555
Co11 Nd1 2.951024 1_555
Co11 Nd0 2.951024 1_555
