# generated using pymatgen
data_Ba2Sr3Nb10O30
_symmetry_space_group_name_H-M   'P 1'
_cell_length_a   4.06416800
_cell_length_b   12.66059600
_cell_length_c   12.66354366
_cell_angle_alpha   89.65644162
_cell_angle_beta   90.00000000
_cell_angle_gamma   90.00000000
_symmetry_Int_Tables_number   1
_chemical_formula_structural   Ba2Sr3Nb10O30
_chemical_formula_sum   'Ba2 Sr3 Nb10 O30'
_cell_volume   651.58825439
_cell_formula_units_Z   1
loop_
 _symmetry_equiv_pos_site_id
 _symmetry_equiv_pos_as_xyz
  1  'x, y, z'
loop_
 _atom_site_type_symbol
 _atom_site_label
 _atom_site_symmetry_multiplicity
 _atom_site_fract_x
 _atom_site_fract_y
 _atom_site_fract_z
 _atom_site_occupancy
  Ba  Ba0  1  0.51336600  0.83133500  0.32330600  1
  Ba  Ba1  1  0.51336600  0.16866500  0.67669400  1
  Sr  Sr0  1  0.49402200  0.32074800  0.16829200  1
  Sr  Sr1  1  0.49402200  0.67925200  0.83170800  1
  Sr  Sr2  1  0.51212600  0.50000000  0.50000000  1
  Nb  Nb0  1  0.00503600  0.42012500  0.71125300  1
  Nb  Nb1  1  0.00503600  0.57987500  0.28874700  1
  Nb  Nb2  1  0.99633200  0.92726100  0.79586200  1
  Nb  Nb3  1  0.99633200  0.07273900  0.20413800  1
  Nb  Nb4  1  0.00357900  0.71121000  0.58335100  1
  Nb  Nb5  1  0.00357900  0.28879000  0.41664900  1
  Nb  Nb6  1  0.99674600  0.79417500  0.07187800  1
  Nb  Nb7  1  0.99674600  0.20582500  0.92812200  1
  Nb  Nb8  1  0.99634100  0.50000000  0.00000000  1
  Nb  Nb9  1  0.99558200  0.00000000  0.50000000  1
  O  O0  1  0.04416300  0.36162900  0.56488800  1
  O  O1  1  0.04416300  0.63837100  0.43511200  1
  O  O2  1  0.04959100  0.85483700  0.93225200  1
  O  O3  1  0.04959100  0.14516300  0.06774800  1
  O  O4  1  0.04674200  0.56335800  0.63454800  1
  O  O5  1  0.04674200  0.43664200  0.36545200  1
  O  O6  1  0.04243200  0.93133600  0.14810800  1
  O  O7  1  0.04243200  0.06866400  0.85189200  1
  O  O8  1  0.04568900  0.50882000  0.84081900  1
  O  O9  1  0.04568900  0.49118000  0.15918100  1
  O  O10  1  0.04424000  0.00167200  0.65595600  1
  O  O11  1  0.04424000  0.99832800  0.34404400  1
  O  O12  1  0.04115900  0.84149400  0.49506600  1
  O  O13  1  0.04115900  0.15850600  0.50493400  1
  O  O14  1  0.04756300  0.65702100  0.99385500  1
  O  O15  1  0.04756300  0.34297900  0.00614500  1
  O  O16  1  0.53879300  0.50000000  0.00000000  1
  O  O17  1  0.53630900  0.00000000  0.50000000  1
  O  O18  1  0.04089000  0.27973300  0.77826100  1
  O  O19  1  0.04089000  0.72026700  0.22173900  1
  O  O20  1  0.03894900  0.76929400  0.72763500  1
  O  O21  1  0.03894900  0.23070600  0.27236500  1
  O  O22  1  0.53968900  0.41872100  0.70027800  1
  O  O23  1  0.53968900  0.58127900  0.29972200  1
  O  O24  1  0.54073400  0.91031200  0.79048200  1
  O  O25  1  0.54073400  0.08968800  0.20951800  1
  O  O26  1  0.53867000  0.70071400  0.58425800  1
  O  O27  1  0.53867000  0.29928600  0.41574200  1
  O  O28  1  0.54123300  0.79101300  0.08588300  1
  O  O29  1  0.54123300  0.20898700  0.91411700  1
loop_
_geom_bond_atom_site_label_1
_geom_bond_atom_site_label_2
_geom_bond_distance
_geom_bond_site_symmetry_2
Ba0 O19 2.709356 1_555
Ba0 O11 2.860201 1_555
Ba0 O19 2.872257 1_655
Ba0 O12 2.904130 1_555
Ba0 O11 3.033260 1_655
Ba0 O28 3.054765 1_555
Ba0 O12 3.058122 1_655
Ba0 O17 3.103652 1_565
Ba0 O23 3.183494 1_555
Ba0 O6 3.186657 1_555
Ba0 O6 3.333913 1_655
Ba0 O1 3.401171 1_555
Ba1 O18 2.709356 1_555
Ba1 O10 2.860201 1_555
Ba1 O18 2.872257 1_655
Ba1 O13 2.904130 1_555
Ba1 O10 3.033260 1_655
Ba1 O29 3.054765 1_555
Ba1 O13 3.058122 1_655
Ba1 O17 3.103652 1_555
Ba1 O22 3.183494 1_555
Ba1 O7 3.186657 1_555
Ba1 O7 3.333913 1_655
Ba1 O0 3.401171 1_555
Nb0 O22 1.896439 1_455
Nb0 O18 1.970409 1_555
Nb0 O8 2.000619 1_555
Nb0 O0 2.006412 1_555
Nb0 O4 2.059033 1_555
Nb0 O22 2.177439 1_555
Nb1 O23 1.896439 1_455
Nb1 O19 1.970409 1_555
Nb1 O9 2.000619 1_555
Nb1 O1 2.006412 1_555
Nb1 O5 2.059033 1_555
Nb1 O23 2.177439 1_555
Nb2 O24 1.865311 1_555
Nb2 O7 1.938753 1_665
Nb2 O2 1.962594 1_655
Nb2 O10 2.011060 1_665
Nb2 O20 2.190214 1_655
Nb2 O24 2.224006 1_655
Nb3 O25 1.865311 1_555
Nb3 O6 1.938753 1_645
Nb3 O3 1.962594 1_655
Nb3 O11 2.011060 1_645
Nb3 O21 2.190214 1_655
Nb3 O25 2.224006 1_655
Nb4 O26 1.894165 1_455
Nb4 O20 1.978895 1_555
Nb4 O4 1.985081 1_555
Nb4 O12 1.992962 1_555
Nb4 O1 2.102947 1_555
Nb4 O26 2.178782 1_555
Nb5 O27 1.894165 1_455
Nb5 O21 1.978895 1_555
Nb5 O5 1.985081 1_555
Nb5 O13 1.992962 1_555
Nb5 O0 2.102947 1_555
Nb5 O27 2.178782 1_555
Nb6 O28 1.860165 1_555
Nb6 O2 1.935480 1_654
Nb6 O6 2.000509 1_655
Nb6 O14 2.013636 1_654
Nb6 O19 2.118490 1_655
Nb6 O28 2.220324 1_655
Nb7 O29 1.860165 1_555
Nb7 O3 1.935480 1_656
Nb7 O7 2.000509 1_655
Nb7 O15 2.013636 1_656
Nb7 O18 2.118490 1_655
Nb7 O29 2.220324 1_655
Nb8 O16 1.859552 1_555
Nb8 O14 1.999900 1_654
Nb8 O15 1.999900 1_655
Nb8 O8 2.028158 1_654
Nb8 O9 2.028158 1_655
Nb8 O16 2.204616 1_655
Nb9 O17 1.866563 1_555
Nb9 O10 1.985071 1_655
Nb9 O11 1.985071 1_645
Nb9 O13 2.016652 1_655
Nb9 O12 2.016652 1_645
Nb9 O17 2.197605 1_655
O0 Sr2 2.710001 1_555
O0 Sr2 2.898697 1_455
O1 Sr2 2.710001 1_555
O1 Sr2 2.898697 1_455
O2 Sr1 3.139965 1_555
O3 Sr0 3.139965 1_555
O4 Sr2 2.672142 1_555
O4 Sr2 2.878173 1_455
O5 Sr2 2.672142 1_555
O5 Sr2 2.878173 1_455
O8 Sr1 2.826013 1_555
O8 Sr1 3.113385 1_455
O9 Sr0 2.826013 1_555
O9 Sr0 3.113385 1_455
O14 Sr1 2.753345 1_555
O14 Sr1 3.057717 1_455
O15 Sr0 2.753345 1_555
O15 Sr0 3.057717 1_455
O16 Sr1 3.109236 1_554
O16 Sr0 3.109236 1_555
O20 Sr1 2.537542 1_555
O20 Sr1 2.814832 1_455
O21 Sr0 2.537542 1_555
O21 Sr0 2.814832 1_455
O22 Sr2 2.733612 1_555
O23 Sr2 2.733612 1_555
O24 Sr1 2.974558 1_555
O25 Sr0 2.974558 1_555
O26 Sr2 2.764081 1_555
O26 Sr1 3.148962 1_555
O27 Sr2 2.764081 1_555
O27 Sr0 3.148962 1_555
