# generated using pymatgen
data_SmMgTiS4
_symmetry_space_group_name_H-M   'P 1'
_cell_length_a   7.86702640
_cell_length_b   7.69591011
_cell_length_c   7.69329741
_cell_angle_alpha   58.47264822
_cell_angle_beta   59.25625998
_cell_angle_gamma   59.25725188
_symmetry_Int_Tables_number   1
_chemical_formula_structural   SmMgTiS4
_chemical_formula_sum   'Sm2 Mg2 Ti2 S8'
_cell_volume   321.76904277
_cell_formula_units_Z   2
loop_
 _symmetry_equiv_pos_site_id
 _symmetry_equiv_pos_as_xyz
  1  'x, y, z'
loop_
 _atom_site_type_symbol
 _atom_site_label
 _atom_site_symmetry_multiplicity
 _atom_site_fract_x
 _atom_site_fract_y
 _atom_site_fract_z
 _atom_site_occupancy
  Sm  Sm0  1  0.50000300  0.50001700  0.49997500  1
  Sm  Sm1  1  0.00000200  0.49999100  0.50001200  1
  Mg  Mg0  1  0.87688600  0.87299700  0.87321800  1
  Mg  Mg1  1  0.12311300  0.12701200  0.12678700  1
  Ti  Ti0  1  0.49999600  0.49999700  0.99999900  1
  Ti  Ti1  1  0.50000000  0.99998900  0.50000900  1
  S  S0  1  0.71605400  0.75570800  0.75630000  1
  S  S1  1  0.27010200  0.22619600  0.73360600  1
  S  S2  1  0.27023100  0.73372100  0.22581300  1
  S  S3  1  0.72806900  0.24430000  0.24369000  1
  S  S4  1  0.72975200  0.26628100  0.77417300  1
  S  S5  1  0.27193300  0.75569500  0.75630500  1
  S  S6  1  0.28394600  0.24428000  0.24371700  1
  S  S7  1  0.72991800  0.77381100  0.26639600  1
loop_
_geom_bond_atom_site_label_1
_geom_bond_atom_site_label_2
_geom_bond_distance
_geom_bond_site_symmetry_2
Mg0 S7 2.445615 1_556
Mg0 S4 2.447301 1_565
Mg0 S0 2.530826 1_555
Mg0 S5 2.530913 1_655
Mg1 S1 2.445636 1_554
Mg1 S2 2.447359 1_545
Mg1 S6 2.530777 1_555
Mg1 S3 2.530909 1_455
S0 Ti0 2.565143 1_555
S0 Ti1 2.567862 1_555
S0 Sm1 2.794814 1_655
S1 Ti1 2.502234 1_545
S1 Sm1 2.747931 1_555
S1 Sm0 2.748509 1_555
S2 Ti0 2.500831 1_554
S2 Sm0 2.749175 1_555
S2 Sm1 2.749757 1_555
S3 Ti0 2.564700 1_554
S3 Ti1 2.568471 1_545
S3 Sm0 2.794783 1_555
S4 Ti0 2.500851 1_555
S4 Sm0 2.749236 1_555
S4 Sm1 2.749767 1_655
S5 Ti0 2.564663 1_555
S5 Ti1 2.568366 1_555
S5 Sm0 2.794815 1_555
S6 Ti0 2.565133 1_554
S6 Ti1 2.567867 1_545
S6 Sm1 2.794816 1_555
S7 Ti1 2.502165 1_555
S7 Sm1 2.747956 1_655
S7 Sm0 2.748463 1_555
