# generated using pymatgen
data_Li7Si3
_symmetry_space_group_name_H-M   'P 1'
_cell_length_a   7.52741895
_cell_length_b   7.52781684
_cell_length_c   17.84231328
_cell_angle_alpha   90.02470226
_cell_angle_beta   89.98347694
_cell_angle_gamma   120.00195093
_symmetry_Int_Tables_number   1
_chemical_formula_structural   Li7Si3
_chemical_formula_sum   'Li42 Si18'
_cell_volume   875.56490129
_cell_formula_units_Z   6
loop_
 _symmetry_equiv_pos_site_id
 _symmetry_equiv_pos_as_xyz
  1  'x, y, z'
loop_
 _atom_site_type_symbol
 _atom_site_label
 _atom_site_symmetry_multiplicity
 _atom_site_fract_x
 _atom_site_fract_y
 _atom_site_fract_z
 _atom_site_occupancy
  Li  Li0  1  0.55577956  0.44428856  0.66657742  1
  Li  Li1  1  0.88912704  0.44462914  -0.00000248  1
  Li  Li2  1  0.55586147  0.11160119  0.33343253  1
  Li  Li3  1  0.22396388  0.77605357  0.66672750  1
  Li  Li4  1  0.55320274  0.77651654  0.00008706  1
  Li  Li5  1  0.22399122  0.44797212  0.33327860  1
  Li  Li6  1  0.21997346  0.10896625  0.13476295  1
  Li  Li7  1  0.88915849  0.78002741  0.46835441  1
  Li  Li8  1  0.89085421  0.11058083  0.80172225  1
  Li  Li9  1  0.88909410  0.10905087  0.53167861  1
  Li  Li10  1  0.89088475  0.78020034  0.19826364  1
  Li  Li11  1  0.21992067  0.11100145  0.86524859  1
  Li  Li12  1  0.20004545  0.09044219  0.28856211  1
  Li  Li13  1  0.89004129  0.80012962  0.62223441  1
  Li  Li14  1  0.90955928  0.10988319  0.95567234  1
  Li  Li15  1  0.89003578  0.08994011  0.37777152  1
  Li  Li16  1  0.91000128  0.80008656  0.04431312  1
  Li  Li17  1  0.20004331  0.10947782  0.71143553  1
  Li  Li18  1  0.55321073  0.44228845  0.81709041  1
  Li  Li19  1  0.88864459  0.44732883  0.15028620  1
  Li  Li20  1  0.55848237  0.11132148  0.48389018  1
  Li  Li21  1  0.88884433  0.44142838  0.84980158  1
  Li  Li22  1  0.55848518  0.44713983  0.51608485  1
  Li  Li23  1  0.55317639  0.11095288  0.18295101  1
  Li  Li24  1  0.53187325  0.42063110  0.95992323  1
  Li  Li25  1  0.88843567  0.46848569  0.29354122  1
  Li  Li26  1  0.57884769  0.11023082  0.62642333  1
  Li  Li27  1  0.88870967  0.41958479  0.70663032  1
  Li  Li28  1  0.57898398  0.46866998  0.37353949  1
  Li  Li29  1  0.53191024  0.11127662  0.04008693  1
  Li  Li30  1  0.21941408  0.44081282  0.48404080  1
  Li  Li31  1  0.22046872  0.78059441  0.81732507  1
  Li  Li32  1  0.55912484  0.77869683  0.15042839  1
  Li  Li33  1  0.22056132  0.43989945  0.18264714  1
  Li  Li34  1  0.55911182  0.78040870  0.84958342  1
  Li  Li35  1  0.21954117  0.77885850  0.51599421  1
  Li  Li36  1  0.19816331  0.41895153  0.62709956  1
  Li  Li37  1  0.22084223  0.80246303  0.96001729  1
  Li  Li38  1  0.58101899  0.77885457  0.29354307  1
  Li  Li39  1  0.22046776  0.41814812  0.03989134  1
  Li  Li40  1  0.58106086  0.80218158  0.70645619  1
  Li  Li41  1  0.19824072  0.77942835  0.37277255  1
  Si  Si0  1  0.24024028  0.12399043  0.43426392  1
  Si  Si1  1  0.88378689  0.75989186  0.76758149  1
  Si  Si2  1  0.87610240  0.11609235  0.10100237  1
  Si  Si3  1  0.88379028  0.12386334  0.23241925  1
  Si  Si4  1  0.87613852  0.76004617  0.89899904  1
  Si  Si5  1  0.24022709  0.11630836  0.56573423  1
  Si  Si6  1  0.56400241  0.45345426  0.10150344  1
  Si  Si7  1  0.88955069  0.43611831  0.43486405  1
  Si  Si8  1  0.54669483  0.11050964  0.76813637  1
  Si  Si9  1  0.88953888  0.45345235  0.56519098  1
  Si  Si10  1  0.54673967  0.43619913  0.23185912  1
  Si  Si11  1  0.56399849  0.11060196  0.89848601  1
  Si  Si12  1  0.23512348  0.46215337  0.76809694  1
  Si  Si13  1  0.22702885  0.76485695  0.10134265  1
  Si  Si14  1  0.53790394  0.77314142  0.43471433  1
  Si  Si15  1  0.22701302  0.46215034  0.89865304  1
  Si  Si16  1  0.53789323  0.76477382  0.56528181  1
  Si  Si17  1  0.23507218  0.77290948  0.23189504  1
loop_
_geom_bond_atom_site_label_1
_geom_bond_atom_site_label_2
_geom_bond_distance
_geom_bond_site_symmetry_2
Li0 Li22 2.685221 1_555
Li0 Li18 2.685558 1_555
Li0 Li36 2.695646 1_555
Li0 Li40 2.699378 1_555
Li0 Li27 2.700569 1_555
Li0 Li26 2.702286 1_555
Li0 Li13 2.718943 1_555
Li0 Li17 2.722962 1_555
Li0 Si5 3.018112 1_555
Li0 Si1 3.020088 1_555
Li0 Si9 3.068090 1_555
Li0 Si8 3.071401 1_555
Li0 Si16 3.071448 1_555
Li0 Si12 3.073589 1_555
Li1 Li21 2.679933 1_554
Li1 Li19 2.681581 1_555
Li1 Li39 2.695459 1_655
Li1 Li37 2.697012 1_654
Li1 Li24 2.700155 1_554
Li1 Li29 2.700282 1_555
Li1 Li14 2.717508 1_554
Li1 Li16 2.718025 1_555
Li1 Si4 3.021699 1_554
Li1 Si2 3.022448 1_555
Li1 Si13 3.068773 1_655
Li1 Si15 3.068885 1_654
Li1 Si6 3.071474 1_555
Li1 Si11 3.071993 1_554
Li2 Li20 2.684600 1_555
Li2 Li23 2.685004 1_555
Li2 Li41 2.694569 1_545
Li2 Li25 2.695545 1_555
Li2 Li38 2.699902 1_545
Li2 Li28 2.701479 1_555
Li2 Si0 3.018079 1_555
Li2 Si3 3.019906 1_555
Li2 Si7 3.068324 1_555
Li2 Si10 3.071092 1_555
Li2 Si14 3.071628 1_545
Li2 Si17 3.074911 1_545
Li3 Li31 2.687500 1_555
Li3 Li35 2.689869 1_555
Li3 Li40 2.690511 1_555
Li3 Li36 2.690797 1_555
Li3 Si12 3.010697 1_555
Li3 Si16 3.010914 1_555
Li3 Si8 3.065332 1_565
Li3 Si9 3.066235 1_455
Li3 Si1 3.081529 1_455
Li3 Si5 3.084305 1_565
Li4 Si13 3.013625 1_555
Li4 Si15 3.015372 1_554
Li4 Si6 3.065437 1_555
Li4 Si11 3.068744 1_564
Li4 Si2 3.077217 1_565
Li4 Si4 3.078366 1_554
Li5 Si17 3.010329 1_555
Li5 Si14 3.010835 1_555
Li5 Si10 3.065501 1_555
Li5 Si7 3.066548 1_455
Li5 Si3 3.082139 1_455
Li5 Si0 3.084127 1_555
Li6 Si6 2.658534 1_555
Li6 Si13 2.684166 1_545
Li6 Si2 2.684334 1_455
Li6 Si10 3.009789 1_555
Li7 Si7 2.658139 1_555
Li7 Si0 2.686201 1_665
Li7 Si14 2.686581 1_555
Li7 Si9 3.006607 1_555
Li8 Si8 2.658944 1_555
Li8 Si1 2.683518 1_545
Li8 Si12 2.687292 1_655
Li8 Si11 3.005358 1_555
Li9 Si9 2.658769 1_555
Li9 Si16 2.685812 1_545
Li9 Si5 2.686038 1_655
Li9 Si7 3.006836 1_555
Li9 Si14 3.112791 1_545
Li10 Li32 2.634012 1_555
Li10 Li19 2.639694 1_555
Li10 Si10 2.658518 1_555
Li10 Si3 2.683982 1_565
Li10 Si17 2.686761 1_655
Li10 Si6 3.005200 1_555
Li11 Li31 2.631722 1_545
Li11 Li18 2.644887 1_555
Li11 Si11 2.658678 1_555
Li11 Si4 2.683726 1_445
Li11 Si15 2.683858 1_555
Li11 Si8 3.009880 1_555
Li12 Si0 2.614768 1_555
Li12 Si3 2.708224 1_455
Li12 Li2 2.722959 1_555
Li12 Li5 2.725044 1_555
Li12 Si17 2.726442 1_545
Li12 Si10 2.795801 1_555
Li13 Si1 2.608767 1_555
Li13 Si5 2.712178 1_665
Li13 Si16 2.725025 1_555
Li13 Li3 2.727267 1_655
Li13 Si9 2.799000 1_555
Li14 Si2 2.607810 1_556
Li14 Si4 2.712276 1_545
Li14 Li4 2.718390 1_546
Li14 Si15 2.727834 1_655
Li14 Si11 2.796939 1_555
Li15 Si3 2.608812 1_555
Li15 Si0 2.712278 1_655
Li15 Li2 2.718730 1_555
Li15 Si14 2.724763 1_545
Li15 Li5 2.727389 1_655
Li15 Si7 2.799281 1_555
Li16 Si4 2.607872 1_554
Li16 Si2 2.711430 1_565
Li16 Li4 2.718834 1_555
Li16 Si13 2.726750 1_655
Li16 Si6 2.799590 1_555
Li17 Si5 2.614654 1_555
Li17 Si1 2.707750 1_445
Li17 Li3 2.723744 1_545
Li17 Si12 2.727069 1_555
Li17 Si8 2.795302 1_555
Li18 Li24 2.553625 1_555
Li18 Li34 2.588889 1_555
Li18 Si1 2.596037 1_555
Li18 Li21 2.596318 1_555
Li18 Si8 2.622750 1_555
Li18 Si12 2.622774 1_555
Li18 Si4 2.819674 1_555
Li18 Si15 2.921331 1_555
Li18 Si11 2.925077 1_555
Li19 Li25 2.560938 1_555
Li19 Li33 2.592199 1_655
Li19 Li23 2.595004 1_555
Li19 Si2 2.600454 1_555
Li19 Si6 2.616376 1_555
Li19 Si13 2.622178 1_655
Li19 Si3 2.827030 1_555
Li19 Si10 2.920855 1_555
Li19 Si17 2.921434 1_655
Li20 Li26 2.548045 1_555
Li20 Li35 2.591489 1_545
Li20 Li22 2.592169 1_555
Li20 Si0 2.600289 1_555
Li20 Si7 2.619313 1_555
Li20 Si14 2.622692 1_545
Li20 Li9 2.639031 1_555
Li20 Si5 2.821492 1_555
Li20 Si9 2.920244 1_555
Li20 Si16 2.921868 1_545
Li21 Li27 2.559691 1_555
Li21 Li31 2.590852 1_655
Li21 Si4 2.600001 1_555
Li21 Si11 2.616584 1_555
Li21 Si15 2.620664 1_655
Li21 Li8 2.640994 1_555
Li21 Si1 2.827557 1_555
Li21 Si12 2.921496 1_655
Li21 Si8 2.923138 1_555
Li22 Li28 2.548288 1_555
Li22 Li30 2.592835 1_555
Li22 Si5 2.600059 1_555
Li22 Si9 2.619673 1_555
Li22 Si16 2.623092 1_555
Li22 Li7 2.638808 1_555
Li22 Si0 2.821114 1_555
Li22 Si7 2.919240 1_555
Li22 Si14 2.921945 1_555
Li23 Li29 2.554172 1_555
Li23 Li32 2.589455 1_545
Li23 Si3 2.596394 1_555
Li23 Si10 2.622068 1_555
Li23 Si17 2.622764 1_545
Li23 Li6 2.644624 1_555
Li23 Si2 2.819951 1_555
Li23 Si13 2.921888 1_545
Li23 Si6 2.925590 1_555
Li24 Si6 2.537887 1_556
Li24 Si11 2.696101 1_555
Li24 Si15 2.697769 1_555
Li24 Li4 2.699041 1_556
Li24 Si4 2.793667 1_555
Li25 Si7 2.533796 1_555
Li25 Si10 2.694838 1_555
Li25 Si17 2.700074 1_655
Li25 Li5 2.701433 1_655
Li25 Si3 2.797776 1_555
Li26 Si8 2.540076 1_555
Li26 Si16 2.691451 1_545
Li26 Li3 2.694732 1_545
Li26 Si9 2.701254 1_555
Li26 Si5 2.791052 1_555
Li27 Si9 2.536252 1_555
Li27 Si8 2.693680 1_555
Li27 Si12 2.696430 1_655
Li27 Li3 2.702693 1_655
Li27 Si1 2.799861 1_555
Li28 Si10 2.539578 1_555
Li28 Si14 2.691974 1_555
Li28 Li5 2.695455 1_555
Li28 Si7 2.701296 1_555
Li28 Si0 2.791494 1_555
Li29 Si11 2.538183 1_554
Li29 Si6 2.696219 1_555
Li29 Si13 2.697744 1_545
Li29 Li4 2.699595 1_545
Li29 Si2 2.793370 1_555
Li30 Li36 2.557679 1_555
Li30 Si14 2.604495 1_555
Li30 Li35 2.607122 1_555
Li30 Si7 2.617249 1_455
Li30 Si0 2.621735 1_555
Li30 Li9 2.632983 1_455
Li30 Li5 2.690375 1_555
Li30 Si16 2.819195 1_555
Li30 Si5 2.915887 1_555
Li30 Si9 2.916402 1_455
Li31 Li37 2.551117 1_555
Li31 Si12 2.606270 1_555
Li31 Li34 2.614123 1_555
Li31 Si1 2.615552 1_455
Li31 Si8 2.621067 1_565
Li31 Si15 2.824130 1_555
Li31 Si4 2.909057 1_455
Li31 Si11 2.920612 1_565
Li32 Li38 2.558819 1_555
Li32 Si13 2.601488 1_555
Li32 Li33 2.613471 1_555
Li32 Si6 2.616467 1_555
Li32 Si2 2.619517 1_565
Li32 Li4 2.682727 1_555
Li32 Si17 2.820733 1_555
Li32 Si3 2.917611 1_565
Li32 Si10 2.920589 1_555
Li33 Li39 2.552259 1_555
Li33 Si17 2.606261 1_555
Li33 Si3 2.616120 1_455
Li33 Si10 2.621035 1_555
Li33 Li6 2.631198 1_555
Li33 Li5 2.688114 1_555
Li33 Si13 2.823951 1_555
Li33 Si2 2.909511 1_455
Li33 Si6 2.919599 1_555
Li34 Li40 2.559040 1_555
Li34 Si15 2.601280 1_555
Li34 Si11 2.616823 1_565
Li34 Si4 2.619712 1_555
Li34 Li8 2.633676 1_565
Li34 Li4 2.685618 1_556
Li34 Si12 2.820848 1_555
Li34 Si1 2.917657 1_555
Li34 Si8 2.920775 1_565
Li35 Li41 2.560617 1_555
Li35 Si16 2.604337 1_555
Li35 Si9 2.618567 1_455
Li35 Si5 2.620563 1_565
Li35 Li7 2.632586 1_455
Li35 Si14 2.819406 1_555
Li35 Si0 2.915333 1_565
Li35 Si7 2.917531 1_455
Li36 Si12 2.534014 1_555
Li36 Si5 2.684866 1_555
Li36 Si9 2.699945 1_455
Li36 Si16 2.806506 1_555
Li37 Si13 2.540571 1_556
Li37 Si4 2.681907 1_455
Li37 Si11 2.695676 1_565
Li37 Li4 2.701520 1_556
Li37 Si15 2.807197 1_555
Li38 Si14 2.537185 1_555
Li38 Si3 2.685215 1_565
Li38 Li5 2.689876 1_555
Li38 Si10 2.695089 1_555
Li38 Si17 2.806814 1_555
Li39 Si15 2.539088 1_554
Li39 Si2 2.680403 1_455
Li39 Si6 2.698184 1_555
Li39 Li4 2.701617 1_555
Li39 Si13 2.808052 1_555
Li40 Si16 2.537318 1_555
Li40 Si1 2.685272 1_555
Li40 Si8 2.695063 1_565
Li40 Si12 2.806663 1_555
Li41 Si17 2.531888 1_555
Li41 Si0 2.684987 1_565
Li41 Li5 2.691084 1_555
Li41 Si7 2.702057 1_455
Li41 Si14 2.807761 1_555
Si7 Si9 2.328939 1_555
Si10 Si6 2.329491 1_555
Si11 Si8 2.329401 1_555
Si14 Si16 2.330503 1_555
