# generated using pymatgen
data_Yb2S3O20
_symmetry_space_group_name_H-M   'P 1'
_cell_length_a   6.51994600
_cell_length_b   7.45950862
_cell_length_c   17.97180290
_cell_angle_alpha   95.78280281
_cell_angle_beta   90.00000000
_cell_angle_gamma   115.91405778
_symmetry_Int_Tables_number   1
_chemical_formula_structural   Yb2S3O20
_chemical_formula_sum   'Yb4 S6 O40'
_cell_volume   781.23374889
_cell_formula_units_Z   2
loop_
 _symmetry_equiv_pos_site_id
 _symmetry_equiv_pos_as_xyz
  1  'x, y, z'
loop_
 _atom_site_type_symbol
 _atom_site_label
 _atom_site_symmetry_multiplicity
 _atom_site_fract_x
 _atom_site_fract_y
 _atom_site_fract_z
 _atom_site_occupancy
  Yb  Yb0  1  0.68093900  0.33323400  0.39090300  1
  Yb  Yb1  1  0.34770500  0.66676600  0.10909700  1
  Yb  Yb2  1  0.31906100  0.66676600  0.60909700  1
  Yb  Yb3  1  0.65229500  0.33323400  0.89090300  1
  S  S0  1  0.73122800  0.41418600  0.09147400  1
  S  S1  1  0.31704200  0.58581400  0.40852600  1
  S  S2  1  0.26877200  0.58581400  0.90852600  1
  S  S3  1  0.68295800  0.41418600  0.59147400  1
  S  S4  1  0.80285800  0.00000000  0.25000000  1
  S  S5  1  0.19714200  0.00000000  0.75000000  1
  O  O0  1  0.98686800  0.09799200  0.19744600  1
  O  O1  1  0.88887600  0.90200800  0.30255400  1
  O  O2  1  0.01313200  0.90200800  0.80255400  1
  O  O3  1  0.11112400  0.09799200  0.69744600  1
  O  O4  1  0.74832100  0.15078200  0.29424200  1
  O  O5  1  0.59753800  0.84921800  0.20575800  1
  O  O6  1  0.25167900  0.84921800  0.70575800  1
  O  O7  1  0.40246200  0.15078200  0.79424200  1
  O  O8  1  0.72593500  0.31701700  0.01529100  1
  O  O9  1  0.40891800  0.68298300  0.48470900  1
  O  O10  1  0.27406500  0.68298300  0.98470900  1
  O  O11  1  0.59108200  0.31701700  0.51529100  1
  O  O12  1  0.67125400  0.26070700  0.14752700  1
  O  O13  1  0.41054800  0.73929300  0.35247300  1
  O  O14  1  0.32874600  0.73929300  0.85247300  1
  O  O15  1  0.58945200  0.26070700  0.64752700  1
  O  O16  1  0.96407300  0.56987600  0.11581300  1
  O  O17  1  0.39419700  0.43012400  0.38418700  1
  O  O18  1  0.03592700  0.43012400  0.88418700  1
  O  O19  1  0.60580300  0.56987600  0.61581300  1
  O  O20  1  0.06620300  0.50087400  0.40484300  1
  O  O21  1  0.56532800  0.49912600  0.09515700  1
  O  O22  1  0.93379700  0.49912600  0.59515700  1
  O  O23  1  0.43467200  0.50087400  0.90484300  1
  O  O24  1  0.36526400  0.00476000  0.12816100  1
  O  O25  1  0.36050500  0.99524000  0.37183900  1
  O  O26  1  0.63473600  0.99524000  0.87183900  1
  O  O27  1  0.63949500  0.00476000  0.62816100  1
  O  O28  1  0.85981900  0.11712800  0.46422000  1
  O  O29  1  0.74269200  0.88287200  0.03578000  1
  O  O30  1  0.14018100  0.88287200  0.53578000  1
  O  O31  1  0.25730800  0.11712800  0.96422000  1
  O  O32  1  0.73428600  0.55370600  0.29226300  1
  O  O33  1  0.18057900  0.44629400  0.20773700  1
  O  O34  1  0.26571400  0.44629400  0.70773700  1
  O  O35  1  0.81942100  0.55370600  0.79226300  1
  O  O36  1  0.17470300  0.19666200  0.01060500  1
  O  O37  1  0.97804100  0.80333800  0.48939500  1
  O  O38  1  0.82529700  0.80333800  0.98939500  1
  O  O39  1  0.02195900  0.19666200  0.51060500  1
loop_
_geom_bond_atom_site_label_1
_geom_bond_atom_site_label_2
_geom_bond_distance
_geom_bond_site_symmetry_2
O0 S4 1.496114 1_555
O1 S4 1.496114 1_565
O2 S5 1.496114 1_565
O3 S5 1.496114 1_555
O4 S4 1.480901 1_555
O4 Yb0 2.260371 1_555
O5 S4 1.480904 1_565
O5 Yb1 2.260368 1_555
O6 S5 1.480901 1_565
O6 Yb2 2.260371 1_555
O7 S5 1.480904 1_555
O7 Yb3 2.260368 1_555
O8 S0 1.476241 1_555
O8 Yb3 2.312526 1_554
O9 S1 1.476241 1_555
O9 Yb2 2.312526 1_555
O10 S2 1.476241 1_555
O10 Yb1 2.312526 1_556
O11 S3 1.476241 1_555
O11 Yb0 2.312526 1_555
O12 S0 1.523013 1_555
O13 S1 1.523014 1_555
O14 S2 1.523013 1_555
O15 S3 1.523014 1_555
O16 S0 1.483724 1_555
O16 Yb1 2.287079 1_655
O17 S1 1.483724 1_555
O17 Yb0 2.287079 1_555
O18 S2 1.483724 1_555
O18 Yb3 2.287079 1_455
O19 S3 1.483724 1_555
O19 Yb2 2.287079 1_555
O20 S1 1.471866 1_555
O20 Yb0 2.264407 1_455
O21 S0 1.471872 1_555
O21 Yb1 2.264401 1_555
O22 S3 1.471866 1_555
O22 Yb2 2.264407 1_655
O23 S2 1.471872 1_555
O23 Yb3 2.264401 1_555
O24 Yb1 2.461895 1_545
O25 Yb0 2.461893 1_565
O26 Yb3 2.461895 1_565
O27 Yb2 2.461893 1_545
O28 O39 1.231508 1_655
O28 Yb0 2.786830 1_555
O29 O38 1.231504 1_554
O29 Yb1 2.786835 1_555
O30 O37 1.231508 1_455
O30 Yb2 2.786830 1_555
O31 O36 1.231504 1_556
O31 Yb3 2.786835 1_555
O32 Yb0 2.460867 1_555
O33 Yb1 2.460868 1_555
O34 Yb2 2.460867 1_555
O35 Yb3 2.460868 1_555
