# generated using pymatgen
data_CsW3I3Cl4
_symmetry_space_group_name_H-M   'P 1'
_cell_length_a   10.74222857
_cell_length_b   10.74222857
_cell_length_c   16.07970100
_cell_angle_alpha   90.00000000
_cell_angle_beta   90.00000000
_cell_angle_gamma   120.00000351
_symmetry_Int_Tables_number   1
_chemical_formula_structural   CsW3I3Cl4
_chemical_formula_sum   'Cs4 W12 I12 Cl16'
_cell_volume   1606.93149603
_cell_formula_units_Z   4
loop_
 _symmetry_equiv_pos_site_id
 _symmetry_equiv_pos_as_xyz
  1  'x, y, z'
loop_
 _atom_site_type_symbol
 _atom_site_label
 _atom_site_symmetry_multiplicity
 _atom_site_fract_x
 _atom_site_fract_y
 _atom_site_fract_z
 _atom_site_occupancy
  Cs  Cs0  1  0.00000000  0.00000000  0.99826400  1
  Cs  Cs1  1  0.00000000  0.00000000  0.49826400  1
  Cs  Cs2  1  0.66666700  0.33333300  0.71277300  1
  Cs  Cs3  1  0.33333300  0.66666700  0.21277300  1
  W  W0  1  0.47963700  0.67518400  0.77928000  1
  W  W1  1  0.19554700  0.52036300  0.77928000  1
  W  W2  1  0.80445300  0.32481600  0.27928000  1
  W  W3  1  0.32481600  0.80445300  0.77928000  1
  W  W4  1  0.67518400  0.47963700  0.27928000  1
  W  W5  1  0.52036300  0.19554700  0.27928000  1
  W  W6  1  0.46962300  0.81337300  0.64536000  1
  W  W7  1  0.34375000  0.53037700  0.64536000  1
  W  W8  1  0.65625000  0.18662700  0.14536000  1
  W  W9  1  0.18662700  0.65625000  0.64536000  1
  W  W10  1  0.81337300  0.46962300  0.14536000  1
  W  W11  1  0.53037700  0.34375000  0.14536000  1
  I  I0  1  0.97316300  0.29918900  0.87356900  1
  I  I1  1  0.32602600  0.02683700  0.87356900  1
  I  I2  1  0.67397400  0.70081100  0.37356900  1
  I  I3  1  0.70081100  0.67397400  0.87356900  1
  I  I4  1  0.29918900  0.97316300  0.37356900  1
  I  I5  1  0.02683700  0.32602600  0.37356900  1
  I  I6  1  0.67637600  0.04627700  0.55003500  1
  I  I7  1  0.36990100  0.32362400  0.55003500  1
  I  I8  1  0.63009900  0.95372300  0.05003500  1
  I  I9  1  0.95372300  0.63009900  0.55003500  1
  I  I10  1  0.04627700  0.67637600  0.05003500  1
  I  I11  1  0.32362400  0.36990100  0.05003500  1
  Cl  Cl0  1  0.61326100  0.68830500  0.64693700  1
  Cl  Cl1  1  0.07504500  0.38673900  0.64693700  1
  Cl  Cl2  1  0.92495500  0.31169500  0.14693700  1
  Cl  Cl3  1  0.31169500  0.92495500  0.64693700  1
  Cl  Cl4  1  0.68830500  0.61326100  0.14693700  1
  Cl  Cl5  1  0.38673900  0.07504500  0.14693700  1
  Cl  Cl6  1  0.66666700  0.33333300  0.02142900  1
  Cl  Cl7  1  0.33333300  0.66666700  0.52142900  1
  Cl  Cl8  1  0.66666700  0.33333300  0.40248500  1
  Cl  Cl9  1  0.33333300  0.66666700  0.90248500  1
  Cl  Cl10  1  0.59504000  0.94310800  0.77757000  1
  Cl  Cl11  1  0.34806800  0.40496000  0.77757000  1
  Cl  Cl12  1  0.65193200  0.05689200  0.27757000  1
  Cl  Cl13  1  0.05689200  0.65193200  0.77757000  1
  Cl  Cl14  1  0.94310800  0.59504000  0.27757000  1
  Cl  Cl15  1  0.40496000  0.34806800  0.27757000  1
loop_
_geom_bond_atom_site_label_1
_geom_bond_atom_site_label_2
_geom_bond_distance
_geom_bond_site_symmetry_2
Cs0 I11 3.841091 1_556
Cs0 I8 3.841091 1_446
Cs0 I10 3.841091 1_546
Cs0 I3 3.919111 1_445
Cs0 I1 3.919112 1_555
Cs0 I0 3.919112 1_455
Cs1 I7 3.841091 1_555
Cs1 I9 3.841091 1_445
Cs1 I6 3.841091 1_455
Cs1 I2 3.919111 1_445
Cs1 I5 3.919112 1_555
Cs1 I4 3.919112 1_545
Cs2 I6 4.085185 1_555
Cs2 I9 4.085189 1_555
Cs2 I7 4.085193 1_555
Cs2 I0 4.343668 1_555
Cs2 I1 4.343672 1_555
Cs2 I3 4.343676 1_555
Cs3 I10 4.085185 1_555
Cs3 I8 4.085189 1_555
Cs3 I11 4.085193 1_555
Cs3 I4 4.343668 1_555
Cs3 I5 4.343672 1_555
Cs3 I2 4.343676 1_555
I0 W1 2.823940 1_655
I1 W3 2.823940 1_545
I2 W4 2.823940 1_555
I3 W0 2.823940 1_555
I4 W5 2.823940 1_565
I5 W2 2.823940 1_455
I6 W6 2.825790 1_545
I7 W7 2.825790 1_555
I8 W8 2.825790 1_565
I9 W9 2.825790 1_655
I10 W10 2.825790 1_455
I11 W11 2.825790 1_555
Cl0 W6 2.501901 1_555
Cl0 W7 2.519726 1_555
Cl0 W0 2.531109 1_555
Cl1 W7 2.501892 1_555
Cl1 W9 2.519727 1_555
Cl1 W1 2.531106 1_555
Cl2 W8 2.501891 1_555
Cl2 W10 2.519718 1_555
Cl2 W2 2.531103 1_555
Cl3 W9 2.501891 1_555
Cl3 W6 2.519718 1_555
Cl3 W3 2.531103 1_555
Cl4 W10 2.501901 1_555
Cl4 W11 2.519726 1_555
Cl4 W4 2.531109 1_555
Cl5 W11 2.501892 1_555
Cl5 W8 2.519727 1_555
Cl5 W5 2.531106 1_555
Cl6 W8 2.508173 1_555
Cl6 W10 2.508176 1_555
Cl6 W11 2.508180 1_555
Cl7 W9 2.508173 1_555
Cl7 W6 2.508176 1_555
Cl7 W7 2.508180 1_555
Cl8 W2 2.501865 1_555
Cl8 W5 2.501868 1_555
Cl8 W4 2.501871 1_555
Cl9 W3 2.501865 1_555
Cl9 W1 2.501868 1_555
Cl9 W0 2.501871 1_555
Cl10 W0 2.500620 1_555
Cl10 W3 2.514344 1_555
Cl10 W6 2.529662 1_555
Cl10 Cs2 4.003017 1_565
Cl11 W1 2.500620 1_555
Cl11 W0 2.514344 1_555
Cl11 W7 2.529662 1_555
Cl11 Cs2 4.003028 1_555
Cl12 W2 2.500620 1_555
Cl12 W5 2.514344 1_555
Cl12 W8 2.529662 1_555
Cl12 Cs3 4.003021 1_545
Cl13 W3 2.500620 1_555
Cl13 W1 2.514344 1_555
Cl13 W9 2.529662 1_555
Cl13 Cs2 4.003021 1_455
Cl14 W4 2.500620 1_555
Cl14 W2 2.514344 1_555
Cl14 W10 2.529662 1_555
Cl14 Cs3 4.003017 1_655
Cl15 W5 2.500620 1_555
Cl15 W4 2.514344 1_555
Cl15 W11 2.529662 1_555
Cl15 Cs3 4.003028 1_555
