# generated using pymatgen
data_Li6Mn3CoO10
_symmetry_space_group_name_H-M   'P 1'
_cell_length_a   5.04578000
_cell_length_b   5.15624230
_cell_length_c   7.66526415
_cell_angle_alpha   103.97265515
_cell_angle_beta   107.38041291
_cell_angle_gamma   100.55386012
_symmetry_Int_Tables_number   1
_chemical_formula_structural   Li6Mn3CoO10
_chemical_formula_sum   'Li6 Mn3 Co1 O10'
_cell_volume   177.53659431
_cell_formula_units_Z   1
loop_
 _symmetry_equiv_pos_site_id
 _symmetry_equiv_pos_as_xyz
  1  'x, y, z'
loop_
 _atom_site_type_symbol
 _atom_site_label
 _atom_site_symmetry_multiplicity
 _atom_site_fract_x
 _atom_site_fract_y
 _atom_site_fract_z
 _atom_site_occupancy
  Li  Li0  1  0.20093400  0.49750600  0.90031300  1
  Li  Li1  1  0.80834800  0.51136800  0.11187700  1
  Li  Li2  1  0.39786000  0.50247600  0.30476300  1
  Li  Li3  1  0.00356000  0.49208400  0.49435700  1
  Li  Li4  1  0.58434700  0.49382600  0.68875600  1
  Li  Li5  1  0.19963900  0.99963300  0.40010100  1
  Mn  Mn0  1  0.00374400  0.00143100  0.00571500  1
  Mn  Mn1  1  0.80097600  0.00158500  0.59323400  1
  Mn  Mn2  1  0.39644300  0.00293500  0.79507700  1
  Co  Co0  1  0.61143300  0.99375000  0.20741000  1
  O  O0  1  0.99325500  0.78103300  0.75102400  1
  O  O1  1  0.62965800  0.77270200  0.96910900  1
  O  O2  1  0.20451000  0.78559000  0.13581100  1
  O  O3  1  0.78921400  0.75917200  0.36148300  1
  O  O4  1  0.42345900  0.77205700  0.56792100  1
  O  O5  1  0.37743900  0.22651500  0.03650600  1
  O  O6  1  0.98196700  0.23256300  0.23176500  1
  O  O7  1  0.61874400  0.21618500  0.44988900  1
  O  O8  1  0.17274000  0.23802400  0.64642100  1
  O  O9  1  0.80173000  0.21956600  0.84846900  1
loop_
_geom_bond_atom_site_label_1
_geom_bond_atom_site_label_2
_geom_bond_distance
_geom_bond_site_symmetry_2
Li0 O8 2.026148 1_555
Li0 O2 2.035000 1_556
Li0 O5 2.107201 1_556
Li0 O9 2.111500 1_455
Li0 O1 2.191776 1_555
Li0 O0 2.279811 1_455
Li1 O3 2.068236 1_555
Li1 O6 2.072914 1_555
Li1 O1 2.096191 1_554
Li1 O2 2.156148 1_655
Li1 O9 2.194520 1_554
Li1 O5 2.210980 1_555
Li2 O3 2.022879 1_555
Li2 O4 2.107689 1_555
Li2 O6 2.122806 1_455
Li2 O5 2.161082 1_555
Li2 O7 2.305169 1_555
Li2 O2 2.332351 1_555
Li3 O7 2.066089 1_455
Li3 O8 2.087109 1_555
Li3 O6 2.090186 1_455
Li3 O4 2.159548 1_555
Li3 O3 2.160692 1_455
Li3 O0 2.183385 1_455
Li4 O4 2.047974 1_555
Li4 O7 2.108812 1_555
Li4 O8 2.132043 1_555
Li4 O0 2.151504 1_555
Li4 O1 2.198148 1_555
Li4 O9 2.302983 1_555
Li5 O8 2.046397 1_565
Li5 O2 2.069468 1_555
Li5 O7 2.076417 1_565
Li5 O3 2.104645 1_455
Li5 O4 2.157231 1_555
Li5 O6 2.167659 1_465
Mn0 O6 1.897167 1_455
Mn0 O2 1.898604 1_545
Mn0 O1 1.934122 1_444
Mn0 O5 1.938629 1_555
Mn0 O0 1.987578 1_444
Mn0 O9 2.024247 1_454
Mn1 O3 1.886568 1_545
Mn1 O7 1.906165 1_555
Mn1 O8 1.906993 1_655
Mn1 O4 1.977196 1_545
Mn1 O9 2.005753 1_555
Mn1 O0 2.016135 1_545
Mn2 O4 1.915159 1_545
Mn2 O5 1.969577 1_556
Mn2 O9 2.009882 1_555
Mn2 O0 2.027872 1_445
Mn2 O8 2.107541 1_555
Mn2 O1 2.216363 1_545
Co0 O7 1.919771 1_565
Co0 O1 1.943578 1_554
Co0 O6 1.970731 1_565
Co0 O2 1.975868 1_555
Co0 O3 2.028998 1_555
Co0 O5 2.214713 1_565
