# generated using pymatgen
data_Gd(GaFe)6
_symmetry_space_group_name_H-M   'P 1'
_cell_length_a   8.50246868
_cell_length_b   6.56165205
_cell_length_c   6.44026312
_cell_angle_alpha   81.67282600
_cell_angle_beta   49.78248598
_cell_angle_gamma   48.54468802
_symmetry_Int_Tables_number   1
_chemical_formula_structural   Gd(GaFe)6
_chemical_formula_sum   'Gd1 Ga6 Fe6'
_cell_volume   178.79998044
_cell_formula_units_Z   1
loop_
 _symmetry_equiv_pos_site_id
 _symmetry_equiv_pos_as_xyz
  1  'x, y, z'
loop_
 _atom_site_type_symbol
 _atom_site_label
 _atom_site_symmetry_multiplicity
 _atom_site_fract_x
 _atom_site_fract_y
 _atom_site_fract_z
 _atom_site_occupancy
  Gd  Gd0  1  0.00000000  0.00000000  0.00000000  1
  Ga  Ga0  1  0.00000000  0.00000000  0.50000000  1
  Ga  Ga1  1  0.50000000  0.50000000  0.00000000  1
  Ga  Ga2  1  0.01984300  0.35021500  0.64978500  1
  Ga  Ga3  1  0.98015700  0.64978500  0.35021500  1
  Ga  Ga4  1  0.64978500  0.98015700  0.01984300  1
  Ga  Ga5  1  0.35021500  0.01984300  0.98015700  1
  Fe  Fe0  1  0.49584700  0.28461000  0.71539000  1
  Fe  Fe1  1  0.50415300  0.71539000  0.28461000  1
  Fe  Fe2  1  0.71539000  0.50415300  0.49584700  1
  Fe  Fe3  1  0.28461000  0.49584700  0.50415300  1
  Fe  Fe4  1  0.50000000  0.00000000  0.50000000  1
  Fe  Fe5  1  0.00000000  0.50000000  0.00000000  1
loop_
_geom_bond_atom_site_label_1
_geom_bond_atom_site_label_2
_geom_bond_distance
_geom_bond_site_symmetry_2
Ga0 Ga1 2.473893 1_545
Ga0 Ga1 2.473893 1_456
Ga0 Ga2 2.757787 1_555
Ga0 Ga5 2.757787 1_554
Ga0 Ga3 2.757787 1_445
Ga0 Ga4 2.757787 1_446
Ga0 Gd0 3.220132 1_555
Ga0 Gd0 3.220132 1_556
Ga1 Ga5 2.757787 1_564
Ga1 Ga4 2.757787 1_545
Ga1 Ga3 2.757787 1_455
Ga1 Ga2 2.757787 1_654
Ga1 Gd0 3.220132 1_565
Ga1 Gd0 3.220132 1_655
Ga2 Ga3 2.562025 1_455
Ga2 Ga4 2.935087 1_545
Ga2 Ga4 2.935087 1_456
Ga2 Gd0 2.986143 1_556
Ga3 Ga5 2.935087 1_654
Ga3 Ga5 2.935087 1_565
Ga3 Gd0 2.986143 1_665
Ga4 Ga5 2.562025 1_564
Ga4 Gd0 2.986143 1_665
Ga5 Gd0 2.986143 1_556
Fe0 Fe4 2.452116 1_555
Fe0 Fe5 2.452116 1_556
Fe0 Ga0 2.501694 1_655
Fe0 Ga1 2.501694 1_556
Fe0 Fe3 2.512099 1_555
Fe0 Ga5 2.592819 1_555
Fe0 Fe2 2.668514 1_555
Fe0 Ga3 2.731067 1_545
Fe0 Ga3 2.731067 1_456
Fe0 Ga4 2.875068 1_546
Fe0 Gd0 3.078644 1_566
Fe0 Gd0 3.078644 1_655
Fe1 Fe5 2.452116 1_655
Fe1 Fe4 2.452116 1_565
Fe1 Ga1 2.501694 1_555
Fe1 Ga0 2.501694 1_565
Fe1 Fe2 2.512099 1_555
Fe1 Ga4 2.592819 1_555
Fe1 Fe3 2.668514 1_555
Fe1 Ga2 2.731067 1_654
Fe1 Ga2 2.731067 1_565
Fe1 Ga5 2.875068 1_564
Fe1 Gd0 3.078644 1_566
Fe1 Gd0 3.078644 1_655
Fe2 Fe4 2.452116 1_565
Fe2 Fe5 2.452116 1_655
Fe2 Ga0 2.501694 1_655
Fe2 Ga1 2.501694 1_556
Fe2 Ga3 2.592819 1_555
Fe2 Ga5 2.731067 1_565
Fe2 Ga5 2.731067 1_654
Fe2 Ga2 2.875068 1_655
Fe2 Gd0 3.078644 1_566
Fe2 Gd0 3.078644 1_655
Fe3 Fe4 2.452116 1_555
Fe3 Fe5 2.452116 1_556
Fe3 Ga1 2.501694 1_555
Fe3 Ga0 2.501694 1_565
Fe3 Ga2 2.592819 1_555
Fe3 Ga4 2.731067 1_545
Fe3 Ga4 2.731067 1_456
Fe3 Ga3 2.875068 1_455
Fe3 Gd0 3.078644 1_655
Fe3 Gd0 3.078644 1_566
Fe4 Ga5 2.452087 1_555
Fe4 Ga3 2.452087 1_545
Fe4 Ga4 2.452087 1_545
Fe4 Ga2 2.452087 1_555
Fe4 Fe5 2.473893 1_645
Fe4 Fe5 2.473893 1_556
Fe4 Gd0 3.280826 1_556
Fe4 Gd0 3.280826 1_655
Fe5 Ga3 2.452087 1_455
Fe5 Ga5 2.452087 1_554
Fe5 Ga4 2.452087 1_455
Fe5 Ga2 2.452087 1_554
Fe5 Gd0 3.280826 1_555
Fe5 Gd0 3.280826 1_565
