# generated using pymatgen
data_InH12C4Se2Cl3
_symmetry_space_group_name_H-M   'P 1'
_cell_length_a   11.66505947
_cell_length_b   11.76094962
_cell_length_c   18.30356837
_cell_angle_alpha   90.00000000
_cell_angle_beta   90.00000000
_cell_angle_gamma   90.00000000
_symmetry_Int_Tables_number   1
_chemical_formula_structural   InH12C4Se2Cl3
_chemical_formula_sum   'In8 H96 C32 Se16 Cl24'
_cell_volume   2511.10638681
_cell_formula_units_Z   8
loop_
 _symmetry_equiv_pos_site_id
 _symmetry_equiv_pos_as_xyz
  1  'x, y, z'
loop_
 _atom_site_type_symbol
 _atom_site_label
 _atom_site_symmetry_multiplicity
 _atom_site_fract_x
 _atom_site_fract_y
 _atom_site_fract_z
 _atom_site_occupancy
  In  In0  1  0.42195276  0.57191910  0.41676098  1
  In  In1  1  0.92195276  0.92808090  0.58323902  1
  In  In2  1  0.57804724  0.07191910  0.08323902  1
  In  In3  1  0.07804724  0.42808090  0.91676098  1
  In  In4  1  0.57804724  0.42808090  0.58323902  1
  In  In5  1  0.07804724  0.07191910  0.41676098  1
  In  In6  1  0.42195276  0.92808090  0.91676098  1
  In  In7  1  0.92195276  0.57191910  0.08323902  1
  H  H0  1  0.09040223  0.49763056  0.38635258  1
  H  H1  1  0.59040223  0.00236944  0.61364742  1
  H  H2  1  0.90959777  0.99763056  0.11364742  1
  H  H3  1  0.40959777  0.50236944  0.88635258  1
  H  H4  1  0.90959777  0.50236944  0.61364742  1
  H  H5  1  0.40959777  0.99763056  0.38635258  1
  H  H6  1  0.09040223  0.00236944  0.88635258  1
  H  H7  1  0.59040223  0.49763056  0.11364742  1
  H  H8  1  0.13221738  0.64480630  0.39915669  1
  H  H9  1  0.63221738  0.85519370  0.60084331  1
  H  H10  1  0.86778262  0.14480630  0.10084331  1
  H  H11  1  0.36778262  0.35519370  0.89915669  1
  H  H12  1  0.86778262  0.35519370  0.60084331  1
  H  H13  1  0.36778262  0.14480630  0.39915669  1
  H  H14  1  0.13221738  0.85519370  0.89915669  1
  H  H15  1  0.63221738  0.64480630  0.10084331  1
  H  H16  1  0.02227890  0.58307266  0.45549105  1
  H  H17  1  0.52227890  0.91692734  0.54450895  1
  H  H18  1  0.97772110  0.08307266  0.04450895  1
  H  H19  1  0.47772110  0.41692734  0.95549105  1
  H  H20  1  0.97772110  0.41692734  0.54450895  1
  H  H21  1  0.47772110  0.08307266  0.45549105  1
  H  H22  1  0.02227890  0.91692734  0.95549105  1
  H  H23  1  0.52227890  0.58307266  0.04450895  1
  H  H24  1  0.26653850  0.63715377  0.60686806  1
  H  H25  1  0.76653850  0.86284623  0.39313194  1
  H  H26  1  0.73346150  0.13715377  0.89313194  1
  H  H27  1  0.23346150  0.36284623  0.10686806  1
  H  H28  1  0.73346150  0.36284623  0.39313194  1
  H  H29  1  0.23346150  0.13715377  0.60686806  1
  H  H30  1  0.26653850  0.86284623  0.10686806  1
  H  H31  1  0.76653850  0.63715377  0.89313194  1
  H  H32  1  0.23739802  0.72678566  0.52908991  1
  H  H33  1  0.73739802  0.77321434  0.47091009  1
  H  H34  1  0.76260198  0.22678566  0.97091009  1
  H  H35  1  0.26260198  0.27321434  0.02908991  1
  H  H36  1  0.76260198  0.27321434  0.47091009  1
  H  H37  1  0.26260198  0.22678566  0.52908991  1
  H  H38  1  0.23739802  0.77321434  0.02908991  1
  H  H39  1  0.73739802  0.72678566  0.97091009  1
  H  H40  1  0.12046906  0.66170720  0.57765129  1
  H  H41  1  0.62046906  0.83829280  0.42234871  1
  H  H42  1  0.87953094  0.16170720  0.92234871  1
  H  H43  1  0.37953094  0.33829280  0.07765129  1
  H  H44  1  0.87953094  0.33829280  0.42234871  1
  H  H45  1  0.37953094  0.16170720  0.57765129  1
  H  H46  1  0.12046906  0.83829280  0.07765129  1
  H  H47  1  0.62046906  0.66170720  0.92234871  1
  H  H48  1  0.33526502  0.67011090  0.22707252  1
  H  H49  1  0.83526502  0.82988910  0.77292748  1
  H  H50  1  0.66473498  0.17011090  0.27292748  1
  H  H51  1  0.16473498  0.32988910  0.72707252  1
  H  H52  1  0.66473498  0.32988910  0.77292748  1
  H  H53  1  0.16473498  0.17011090  0.22707252  1
  H  H54  1  0.33526502  0.82988910  0.72707252  1
  H  H55  1  0.83526502  0.67011090  0.27292748  1
  H  H56  1  0.47368333  0.60218413  0.23142486  1
  H  H57  1  0.97368333  0.89781587  0.76857514  1
  H  H58  1  0.52631667  0.10218413  0.26857514  1
  H  H59  1  0.02631667  0.39781587  0.73142486  1
  H  H60  1  0.52631667  0.39781587  0.76857514  1
  H  H61  1  0.02631667  0.10218413  0.23142486  1
  H  H62  1  0.47368333  0.89781587  0.73142486  1
  H  H63  1  0.97368333  0.60218413  0.26857514  1
  H  H64  1  0.36815838  0.55794118  0.16395178  1
  H  H65  1  0.86815838  0.94205882  0.83604822  1
  H  H66  1  0.63184162  0.05794118  0.33604822  1
  H  H67  1  0.13184162  0.44205882  0.66395178  1
  H  H68  1  0.63184162  0.44205882  0.83604822  1
  H  H69  1  0.13184162  0.05794118  0.16395178  1
  H  H70  1  0.36815838  0.94205882  0.66395178  1
  H  H71  1  0.86815838  0.55794118  0.33604822  1
  H  H72  1  0.40858434  0.28596404  0.30542925  1
  H  H73  1  0.90858434  0.21403596  0.69457075  1
  H  H74  1  0.59141566  0.78596404  0.19457075  1
  H  H75  1  0.09141566  0.71403596  0.80542925  1
  H  H76  1  0.59141566  0.71403596  0.69457075  1
  H  H77  1  0.09141566  0.78596404  0.30542925  1
  H  H78  1  0.40858434  0.21403596  0.80542925  1
  H  H79  1  0.90858434  0.28596404  0.19457075  1
  H  H80  1  0.51654455  0.38756048  0.27851757  1
  H  H81  1  0.01654455  0.11243952  0.72148243  1
  H  H82  1  0.48345545  0.88756048  0.22148243  1
  H  H83  1  0.98345545  0.61243952  0.77851757  1
  H  H84  1  0.48345545  0.61243952  0.72148243  1
  H  H85  1  0.98345545  0.88756048  0.27851757  1
  H  H86  1  0.51654455  0.11243952  0.77851757  1
  H  H87  1  0.01654455  0.38756048  0.22148243  1
  H  H88  1  0.41863898  0.32884543  0.21165255  1
  H  H89  1  0.91863898  0.17115457  0.78834745  1
  H  H90  1  0.58136102  0.82884543  0.28834745  1
  H  H91  1  0.08136102  0.67115457  0.71165255  1
  H  H92  1  0.58136102  0.67115457  0.78834745  1
  H  H93  1  0.08136102  0.82884543  0.21165255  1
  H  H94  1  0.41863898  0.17115457  0.71165255  1
  H  H95  1  0.91863898  0.32884543  0.28834745  1
  C  C0  1  0.42977992  0.35603509  0.26829161  1
  C  C1  1  0.92977992  0.14396491  0.73170839  1
  C  C2  1  0.57022008  0.85603509  0.23170839  1
  C  C3  1  0.07022008  0.64396491  0.76829161  1
  C  C4  1  0.57022008  0.64396491  0.73170839  1
  C  C5  1  0.07022008  0.85603509  0.26829161  1
  C  C6  1  0.42977992  0.14396491  0.76829161  1
  C  C7  1  0.92977992  0.35603509  0.23170839  1
  C  C8  1  0.10187109  0.56685737  0.42577380  1
  C  C9  1  0.60187109  0.93314263  0.57422620  1
  C  C10  1  0.89812891  0.06685737  0.07422620  1
  C  C11  1  0.39812891  0.43314263  0.92577380  1
  C  C12  1  0.89812891  0.43314263  0.57422620  1
  C  C13  1  0.39812891  0.06685737  0.42577380  1
  C  C14  1  0.10187109  0.93314263  0.92577380  1
  C  C15  1  0.60187109  0.56685737  0.07422620  1
  C  C16  1  0.20965782  0.65232484  0.56018864  1
  C  C17  1  0.70965782  0.84767516  0.43981136  1
  C  C18  1  0.79034218  0.15232484  0.93981136  1
  C  C19  1  0.29034218  0.34767516  0.06018864  1
  C  C20  1  0.79034218  0.34767516  0.43981136  1
  C  C21  1  0.29034218  0.15232484  0.56018864  1
  C  C22  1  0.20965782  0.84767516  0.06018864  1
  C  C23  1  0.70965782  0.65232484  0.93981136  1
  C  C24  1  0.38285198  0.59052710  0.21911625  1
  C  C25  1  0.88285198  0.90947290  0.78088375  1
  C  C26  1  0.61714802  0.09052710  0.28088375  1
  C  C27  1  0.11714802  0.40947290  0.71911625  1
  C  C28  1  0.61714802  0.40947290  0.78088375  1
  C  C29  1  0.11714802  0.09052710  0.21911625  1
  C  C30  1  0.38285198  0.90947290  0.71911625  1
  C  C31  1  0.88285198  0.59052710  0.28088375  1
  Se  Se0  1  0.21825812  0.51683150  0.49697464  1
  Se  Se1  1  0.71825812  0.98316850  0.50302536  1
  Se  Se2  1  0.78174188  0.01683150  0.00302536  1
  Se  Se3  1  0.28174188  0.48316850  0.99697464  1
  Se  Se4  1  0.78174188  0.48316850  0.50302536  1
  Se  Se5  1  0.28174188  0.01683150  0.49697464  1
  Se  Se6  1  0.21825812  0.98316850  0.99697464  1
  Se  Se7  1  0.71825812  0.51683150  0.00302536  1
  Se  Se8  1  0.31976923  0.47880140  0.28834605  1
  Se  Se9  1  0.81976923  0.02119860  0.71165395  1
  Se  Se10  1  0.68023077  0.97880140  0.21165395  1
  Se  Se11  1  0.18023077  0.52119860  0.78834605  1
  Se  Se12  1  0.68023077  0.52119860  0.71165395  1
  Se  Se13  1  0.18023077  0.97880140  0.28834605  1
  Se  Se14  1  0.31976923  0.02119860  0.78834605  1
  Se  Se15  1  0.81976923  0.47880140  0.21165395  1
  Cl  Cl0  1  0.34358825  0.76349084  0.38618476  1
  Cl  Cl1  1  0.84358825  0.73650916  0.61381524  1
  Cl  Cl2  1  0.65641175  0.26349084  0.11381524  1
  Cl  Cl3  1  0.15641175  0.23650916  0.88618476  1
  Cl  Cl4  1  0.65641175  0.23650916  0.61381524  1
  Cl  Cl5  1  0.15641175  0.26349084  0.38618476  1
  Cl  Cl6  1  0.34358825  0.73650916  0.88618476  1
  Cl  Cl7  1  0.84358825  0.76349084  0.11381524  1
  Cl  Cl8  1  0.60767196  0.59001632  0.35299339  1
  Cl  Cl9  1  0.10767196  0.90998368  0.64700661  1
  Cl  Cl10  1  0.39232804  0.09001632  0.14700661  1
  Cl  Cl11  1  0.89232804  0.40998368  0.85299339  1
  Cl  Cl12  1  0.39232804  0.40998368  0.64700661  1
  Cl  Cl13  1  0.89232804  0.09001632  0.35299339  1
  Cl  Cl14  1  0.60767196  0.90998368  0.85299339  1
  Cl  Cl15  1  0.10767196  0.59001632  0.14700661  1
  Cl  Cl16  1  0.48766870  0.36375125  0.45979161  1
  Cl  Cl17  1  0.98766870  0.13624875  0.54020839  1
  Cl  Cl18  1  0.51233130  0.86375125  0.04020839  1
  Cl  Cl19  1  0.01233130  0.63624875  0.95979161  1
  Cl  Cl20  1  0.51233130  0.63624875  0.54020839  1
  Cl  Cl21  1  0.01233130  0.86375125  0.45979161  1
  Cl  Cl22  1  0.48766870  0.13624875  0.95979161  1
  Cl  Cl23  1  0.98766870  0.36375125  0.04020839  1
loop_
_geom_bond_atom_site_label_1
_geom_bond_atom_site_label_2
_geom_bond_distance
_geom_bond_site_symmetry_2
In0 Se8 2.853908 1_555
In0 Se0 2.867272 1_555
In1 Se9 2.853908 1_565
In1 Se1 2.867272 1_555
In2 Se10 2.853908 1_545
In2 Se2 2.867272 1_555
In3 Se11 2.853908 1_555
In3 Se3 2.867272 1_555
In4 Se12 2.853908 1_555
In4 Se4 2.867272 1_555
In5 Se13 2.853908 1_545
In5 Se5 2.867272 1_555
In6 Se14 2.853908 1_565
In6 Se6 2.867272 1_555
In7 Se15 2.853908 1_555
In7 Se7 2.867272 1_555
C0 H88 1.092651 1_555
C0 H80 1.094019 1_555
C0 H72 1.096512 1_555
C0 Se8 1.966278 1_555
C1 H89 1.092651 1_555
C1 H81 1.094019 1_655
C1 H73 1.096512 1_555
C1 Se9 1.966278 1_555
C2 H90 1.092651 1_555
C2 H82 1.094019 1_555
C2 H74 1.096512 1_555
C2 Se10 1.966278 1_555
C3 H91 1.092651 1_555
C3 H83 1.094019 1_455
C3 H75 1.096512 1_555
C3 Se11 1.966278 1_555
C4 H92 1.092651 1_555
C4 H84 1.094019 1_555
C4 H76 1.096512 1_555
C4 Se12 1.966278 1_555
C5 H93 1.092651 1_555
C5 H85 1.094019 1_455
C5 H77 1.096512 1_555
C5 Se13 1.966278 1_555
C6 H94 1.092651 1_555
C6 H86 1.094019 1_555
C6 H78 1.096512 1_555
C6 Se14 1.966278 1_555
C7 H95 1.092651 1_555
C7 H87 1.094019 1_655
C7 H79 1.096512 1_555
C7 Se15 1.966278 1_555
C8 H16 1.092816 1_555
C8 H0 1.096088 1_555
C8 H8 1.096859 1_555
C8 Se0 1.971753 1_555
C9 H17 1.092816 1_555
C9 H1 1.096088 1_565
C9 H9 1.096859 1_555
C9 Se1 1.971753 1_555
C10 H18 1.092816 1_555
C10 H2 1.096088 1_545
C10 H10 1.096859 1_555
C10 Se2 1.971753 1_555
C11 H19 1.092816 1_555
C11 H3 1.096088 1_555
C11 H11 1.096859 1_555
C11 Se3 1.971753 1_555
C12 H20 1.092816 1_555
C12 H4 1.096088 1_555
C12 H12 1.096859 1_555
C12 Se4 1.971753 1_555
C13 H21 1.092816 1_555
C13 H5 1.096088 1_545
C13 H13 1.096859 1_555
C13 Se5 1.971753 1_555
C14 H22 1.092816 1_555
C14 H6 1.096088 1_565
C14 H14 1.096859 1_555
C14 Se6 1.971753 1_555
C15 H23 1.092816 1_555
C15 H7 1.096088 1_555
C15 H15 1.096859 1_555
C15 Se7 1.971753 1_555
C16 H32 1.093445 1_555
C16 H40 1.093963 1_555
C16 H24 1.096398 1_555
C16 Se0 1.971839 1_555
C17 H33 1.093445 1_555
C17 H41 1.093963 1_555
C17 H25 1.096398 1_555
C17 Se1 1.971839 1_555
C18 H34 1.093445 1_555
C18 H42 1.093963 1_555
C18 H26 1.096398 1_555
C18 Se2 1.971839 1_556
C19 H35 1.093445 1_555
C19 H43 1.093963 1_555
C19 H27 1.096398 1_555
C19 Se3 1.971839 1_554
C20 H36 1.093445 1_555
C20 H44 1.093963 1_555
C20 H28 1.096398 1_555
C20 Se4 1.971839 1_555
C21 H37 1.093445 1_555
C21 H45 1.093963 1_555
C21 H29 1.096398 1_555
C21 Se5 1.971839 1_555
C22 H38 1.093445 1_555
C22 H46 1.093963 1_555
C22 H30 1.096398 1_555
C22 Se6 1.971839 1_554
C23 H39 1.093445 1_555
C23 H47 1.093963 1_555
C23 H31 1.096398 1_555
C23 Se7 1.971839 1_556
C24 H56 1.091881 1_555
C24 H64 1.093508 1_555
C24 H48 1.097911 1_555
C24 Se8 1.968189 1_555
C25 H57 1.091881 1_555
C25 H65 1.093508 1_555
C25 H49 1.097911 1_555
C25 Se9 1.968189 1_565
C26 H58 1.091881 1_555
C26 H66 1.093508 1_555
C26 H50 1.097911 1_555
C26 Se10 1.968189 1_545
C27 H59 1.091881 1_555
C27 H67 1.093508 1_555
C27 H51 1.097911 1_555
C27 Se11 1.968189 1_555
C28 H60 1.091881 1_555
C28 H68 1.093508 1_555
C28 H52 1.097911 1_555
C28 Se12 1.968189 1_555
C29 H61 1.091881 1_555
C29 H69 1.093508 1_555
C29 H53 1.097911 1_555
C29 Se13 1.968189 1_545
C30 H62 1.091881 1_555
C30 H70 1.093508 1_555
C30 H54 1.097911 1_555
C30 Se14 1.968189 1_565
C31 H63 1.091881 1_555
C31 H71 1.093508 1_555
C31 H55 1.097911 1_555
C31 Se15 1.968189 1_555
Cl0 In0 2.495024 1_555
Cl1 In1 2.495024 1_555
Cl2 In2 2.495024 1_555
Cl3 In3 2.495024 1_555
Cl4 In4 2.495024 1_555
Cl5 In5 2.495024 1_555
Cl6 In6 2.495024 1_555
Cl7 In7 2.495024 1_555
Cl8 In0 2.470020 1_555
Cl9 In1 2.470020 1_455
Cl10 In2 2.470020 1_555
Cl11 In3 2.470020 1_655
Cl12 In4 2.470020 1_555
Cl13 In5 2.470020 1_655
Cl14 In6 2.470020 1_555
Cl15 In7 2.470020 1_455
Cl16 In4 2.605641 1_555
Cl16 In0 2.683639 1_555
Cl17 In5 2.605641 1_655
Cl17 In1 2.683639 1_545
Cl18 In6 2.605641 1_554
Cl18 In2 2.683639 1_565
Cl19 In7 2.605641 1_456
Cl19 In3 2.683639 1_555
Cl20 In0 2.605641 1_555
Cl20 In4 2.683639 1_555
Cl21 In1 2.605641 1_455
Cl21 In5 2.683639 1_565
Cl22 In2 2.605641 1_556
Cl22 In6 2.683639 1_545
Cl23 In3 2.605641 1_654
Cl23 In7 2.683639 1_555
