# generated using pymatgen
data_KVO4
_symmetry_space_group_name_H-M   'P 1'
_cell_length_a   3.68317100
_cell_length_b   7.91204700
_cell_length_c   14.13320200
_cell_angle_alpha   90.00000000
_cell_angle_beta   90.00000000
_cell_angle_gamma   90.00000000
_symmetry_Int_Tables_number   1
_chemical_formula_structural   KVO4
_chemical_formula_sum   'K4 V4 O16'
_cell_volume   411.86160456
_cell_formula_units_Z   4
loop_
 _symmetry_equiv_pos_site_id
 _symmetry_equiv_pos_as_xyz
  1  'x, y, z'
loop_
 _atom_site_type_symbol
 _atom_site_label
 _atom_site_symmetry_multiplicity
 _atom_site_fract_x
 _atom_site_fract_y
 _atom_site_fract_z
 _atom_site_occupancy
  K  K0  1  0.25000000  0.27121000  0.22640100  1
  K  K1  1  0.25000000  0.77121000  0.27359900  1
  K  K2  1  0.75000000  0.72879000  0.77359900  1
  K  K3  1  0.75000000  0.22879000  0.72640100  1
  V  V0  1  0.25000000  0.57154500  0.58199100  1
  V  V1  1  0.25000000  0.07154500  0.91800900  1
  V  V2  1  0.75000000  0.42845500  0.41800900  1
  V  V3  1  0.75000000  0.92845500  0.08199100  1
  O  O0  1  0.25000000  0.47333400  0.68867800  1
  O  O1  1  0.25000000  0.97333400  0.81132200  1
  O  O2  1  0.75000000  0.52666600  0.31132200  1
  O  O3  1  0.75000000  0.02666600  0.18867800  1
  O  O4  1  0.25000000  0.77709200  0.60786300  1
  O  O5  1  0.25000000  0.27709200  0.89213700  1
  O  O6  1  0.75000000  0.22290800  0.39213700  1
  O  O7  1  0.75000000  0.72290800  0.10786300  1
  O  O8  1  0.25000000  0.46829300  0.45077200  1
  O  O9  1  0.25000000  0.96829300  0.04922800  1
  O  O10  1  0.75000000  0.53170700  0.54922800  1
  O  O11  1  0.75000000  0.03170700  0.95077200  1
  O  O12  1  0.25000000  0.53839200  0.96006300  1
  O  O13  1  0.25000000  0.03839200  0.53993700  1
  O  O14  1  0.75000000  0.46160800  0.03993700  1
  O  O15  1  0.75000000  0.96160800  0.46006300  1
loop_
_geom_bond_atom_site_label_1
_geom_bond_atom_site_label_2
_geom_bond_distance
_geom_bond_site_symmetry_2
K0 O3 2.723840 1_455
K0 O3 2.723840 1_555
K0 O2 2.986151 1_455
K0 O2 2.986151 1_555
K0 O6 3.004036 1_455
K0 O6 3.004036 1_555
K1 O2 2.723840 1_455
K1 O2 2.723840 1_555
K1 O3 2.986151 1_565
K1 O3 2.986151 1_465
K1 O7 3.004036 1_455
K1 O7 3.004036 1_555
K2 O1 2.723840 1_555
K2 O1 2.723840 1_655
K2 O0 2.986151 1_655
K2 O0 2.986151 1_555
K2 O4 3.004036 1_555
K2 O4 3.004036 1_655
K3 O0 2.723840 1_555
K3 O0 2.723840 1_655
K3 O1 2.986151 1_645
K3 O1 2.986151 1_545
K3 O5 3.004036 1_655
K3 O5 3.004036 1_555
O0 V0 1.696277 1_555
O1 V1 1.696277 1_565
O2 V2 1.696277 1_555
O3 V3 1.696277 1_545
O4 V0 1.666897 1_555
O5 V1 1.666897 1_555
O6 V2 1.666897 1_555
O7 V3 1.666897 1_555
O8 V2 1.924890 1_455
O8 V2 1.924890 1_555
O8 V0 2.026504 1_555
O9 V3 1.924890 1_455
O9 V3 1.924890 1_555
O9 V1 2.026504 1_564
O10 V0 1.924890 1_655
O10 V0 1.924890 1_555
O10 V2 2.026504 1_555
O11 V1 1.924890 1_555
O11 V1 1.924890 1_655
O11 V3 2.026504 1_546
