# generated using pymatgen
data_Pr5Sn4
_symmetry_space_group_name_H-M   'P 1'
_cell_length_a   8.34885400
_cell_length_b   8.54347400
_cell_length_c   16.17893900
_cell_angle_alpha   90.00000000
_cell_angle_beta   90.00000000
_cell_angle_gamma   90.00000000
_symmetry_Int_Tables_number   1
_chemical_formula_structural   Pr5Sn4
_chemical_formula_sum   'Pr20 Sn16'
_cell_volume   1154.01487310
_cell_formula_units_Z   4
loop_
 _symmetry_equiv_pos_site_id
 _symmetry_equiv_pos_as_xyz
  1  'x, y, z'
loop_
 _atom_site_type_symbol
 _atom_site_label
 _atom_site_symmetry_multiplicity
 _atom_site_fract_x
 _atom_site_fract_y
 _atom_site_fract_z
 _atom_site_occupancy
  Pr  Pr0  1  0.36841600  0.83555200  0.88018300  1
  Pr  Pr1  1  0.86841600  0.66444800  0.61981700  1
  Pr  Pr2  1  0.63158400  0.16444800  0.38018300  1
  Pr  Pr3  1  0.13158400  0.33555200  0.11981700  1
  Pr  Pr4  1  0.63158400  0.16444800  0.11981700  1
  Pr  Pr5  1  0.13158400  0.33555200  0.38018300  1
  Pr  Pr6  1  0.36841600  0.83555200  0.61981700  1
  Pr  Pr7  1  0.86841600  0.66444800  0.88018300  1
  Pr  Pr8  1  0.51887900  0.31716900  0.90046200  1
  Pr  Pr9  1  0.01887900  0.18283100  0.59953800  1
  Pr  Pr10  1  0.48112100  0.68283100  0.40046200  1
  Pr  Pr11  1  0.98112100  0.81716900  0.09953800  1
  Pr  Pr12  1  0.48112100  0.68283100  0.09953800  1
  Pr  Pr13  1  0.98112100  0.81716900  0.40046200  1
  Pr  Pr14  1  0.51887900  0.31716900  0.59953800  1
  Pr  Pr15  1  0.01887900  0.18283100  0.90046200  1
  Pr  Pr16  1  0.19747300  0.50065500  0.75000000  1
  Pr  Pr17  1  0.69747300  0.99934500  0.75000000  1
  Pr  Pr18  1  0.80252700  0.49934500  0.25000000  1
  Pr  Pr19  1  0.30252700  0.00065500  0.25000000  1
  Sn  Sn0  1  0.29011100  0.03255500  0.04285100  1
  Sn  Sn1  1  0.79011100  0.46744500  0.45714900  1
  Sn  Sn2  1  0.70988900  0.96744500  0.54285100  1
  Sn  Sn3  1  0.20988900  0.53255500  0.95714900  1
  Sn  Sn4  1  0.70988900  0.96744500  0.95714900  1
  Sn  Sn5  1  0.20988900  0.53255500  0.54285100  1
  Sn  Sn6  1  0.29011100  0.03255500  0.45714900  1
  Sn  Sn7  1  0.79011100  0.46744500  0.04285100  1
  Sn  Sn8  1  0.56820200  0.61641900  0.75000000  1
  Sn  Sn9  1  0.06820200  0.88358100  0.75000000  1
  Sn  Sn10  1  0.43179800  0.38358100  0.25000000  1
  Sn  Sn11  1  0.93179800  0.11641900  0.25000000  1
  Sn  Sn12  1  0.32107700  0.14228200  0.75000000  1
  Sn  Sn13  1  0.82107700  0.35771800  0.75000000  1
  Sn  Sn14  1  0.67892300  0.85771800  0.25000000  1
  Sn  Sn15  1  0.17892300  0.64228200  0.25000000  1
loop_
_geom_bond_atom_site_label_1
_geom_bond_atom_site_label_2
_geom_bond_distance
_geom_bond_site_symmetry_2
Pr0 Sn3 3.162813 1_555
Pr0 Sn0 3.191636 1_566
Pr0 Sn8 3.274648 1_555
Pr0 Sn9 3.299516 1_555
Pr0 Sn4 3.308777 1_555
Pr0 Sn12 3.385204 1_565
Pr1 Sn2 3.162813 1_555
Pr1 Sn1 3.191636 1_555
Pr1 Sn9 3.274648 1_655
Pr1 Sn8 3.299516 1_555
Pr1 Sn5 3.308777 1_655
Pr1 Sn13 3.385204 1_555
Pr2 Sn1 3.162813 1_555
Pr2 Sn2 3.191636 1_545
Pr2 Sn10 3.274648 1_555
Pr2 Sn11 3.299516 1_555
Pr2 Sn6 3.308777 1_555
Pr2 Sn14 3.385204 1_545
Pr3 Sn0 3.162813 1_555
Pr3 Sn3 3.191636 1_554
Pr3 Sn11 3.274648 1_455
Pr3 Sn10 3.299516 1_555
Pr3 Sn7 3.308777 1_455
Pr3 Sn15 3.385204 1_555
Pr4 Sn7 3.162813 1_555
Pr4 Sn4 3.191636 1_544
Pr4 Sn10 3.274648 1_555
Pr4 Sn11 3.299516 1_555
Pr4 Sn0 3.308777 1_555
Pr4 Sn14 3.385204 1_545
Pr5 Sn6 3.162813 1_555
Pr5 Sn5 3.191636 1_555
Pr5 Sn11 3.274648 1_455
Pr5 Sn10 3.299516 1_555
Pr5 Sn1 3.308777 1_455
Pr5 Sn15 3.385204 1_555
Pr6 Sn5 3.162813 1_555
Pr6 Sn6 3.191636 1_565
Pr6 Sn8 3.274648 1_555
Pr6 Sn9 3.299516 1_555
Pr6 Sn2 3.308777 1_555
Pr6 Sn12 3.385204 1_565
Pr7 Sn4 3.162813 1_555
Pr7 Sn7 3.191636 1_556
Pr7 Sn9 3.274648 1_655
Pr7 Sn8 3.299516 1_555
Pr7 Sn3 3.308777 1_655
Pr7 Sn13 3.385204 1_555
Pr8 Sn3 3.298816 1_555
Pr8 Sn12 3.299324 1_555
Pr8 Sn7 3.476096 1_556
Pr8 Sn4 3.508781 1_545
Pr8 Sn13 3.522992 1_555
Pr8 Sn8 3.554131 1_555
Pr8 Sn0 3.855853 1_556
Pr9 Sn2 3.298816 1_445
Pr9 Sn13 3.299324 1_455
Pr9 Sn6 3.476096 1_555
Pr9 Sn5 3.508781 1_555
Pr9 Sn12 3.522992 1_555
Pr9 Sn9 3.554131 1_545
Pr9 Sn1 3.855853 1_455
Pr10 Sn1 3.298816 1_555
Pr10 Sn14 3.299324 1_555
Pr10 Sn5 3.476096 1_555
Pr10 Sn6 3.508781 1_565
Pr10 Sn15 3.522992 1_555
Pr10 Sn10 3.554131 1_555
Pr10 Sn2 3.855853 1_555
Pr11 Sn0 3.298816 1_665
Pr11 Sn15 3.299324 1_655
Pr11 Sn4 3.476096 1_554
Pr11 Sn7 3.508781 1_555
Pr11 Sn14 3.522992 1_555
Pr11 Sn11 3.554131 1_565
Pr11 Sn3 3.855853 1_654
Pr12 Sn7 3.298816 1_555
Pr12 Sn14 3.299324 1_555
Pr12 Sn3 3.476096 1_554
Pr12 Sn0 3.508781 1_565
Pr12 Sn15 3.522992 1_555
Pr12 Sn10 3.554131 1_555
Pr12 Sn4 3.855853 1_554
Pr13 Sn6 3.298816 1_665
Pr13 Sn15 3.299324 1_655
Pr13 Sn2 3.476096 1_555
Pr13 Sn1 3.508781 1_555
Pr13 Sn14 3.522992 1_555
Pr13 Sn11 3.554131 1_565
Pr13 Sn5 3.855853 1_655
Pr14 Sn5 3.298816 1_555
Pr14 Sn12 3.299324 1_555
Pr14 Sn1 3.476096 1_555
Pr14 Sn2 3.508781 1_545
Pr14 Sn13 3.522992 1_555
Pr14 Sn8 3.554131 1_555
Pr14 Sn6 3.855853 1_555
Pr15 Sn4 3.298816 1_445
Pr15 Sn13 3.299324 1_455
Pr15 Sn0 3.476096 1_556
Pr15 Sn3 3.508781 1_555
Pr15 Sn12 3.522992 1_555
Pr15 Sn9 3.554131 1_545
Pr15 Sn7 3.855853 1_456
Pr16 Sn12 3.230981 1_555
Pr16 Sn8 3.249339 1_555
Pr16 Sn5 3.364111 1_555
Pr16 Sn3 3.364111 1_555
Pr16 Sn13 3.371413 1_455
Pr16 Sn9 3.444945 1_555
Pr17 Sn13 3.230981 1_565
Pr17 Sn9 3.249339 1_655
Pr17 Sn4 3.364111 1_555
Pr17 Sn2 3.364111 1_555
Pr17 Sn12 3.371413 1_565
Pr17 Sn8 3.444945 1_555
Pr18 Sn14 3.230981 1_555
Pr18 Sn10 3.249339 1_555
Pr18 Sn7 3.364111 1_555
Pr18 Sn1 3.364111 1_555
Pr18 Sn15 3.371413 1_655
Pr18 Sn11 3.444945 1_555
Pr19 Sn15 3.230981 1_545
Pr19 Sn11 3.249339 1_455
Pr19 Sn0 3.364111 1_555
Pr19 Sn6 3.364111 1_555
Pr19 Sn14 3.371413 1_545
Pr19 Sn10 3.444945 1_555
Sn10 Sn15 3.056508 1_555
Sn11 Sn14 3.056508 1_545
Sn12 Sn9 3.056508 1_545
Sn13 Sn8 3.056508 1_555
