# generated using pymatgen
data_Zn(FeO2)2
_symmetry_space_group_name_H-M   'P 1'
_cell_length_a   5.05723727
_cell_length_b   5.89671445
_cell_length_c   10.23256167
_cell_angle_alpha   89.84607909
_cell_angle_beta   89.60405054
_cell_angle_gamma   89.91552470
_symmetry_Int_Tables_number   1
_chemical_formula_structural   Zn(FeO2)2
_chemical_formula_sum   'Zn4 Fe8 O16'
_cell_volume   305.13737058
_cell_formula_units_Z   4
loop_
 _symmetry_equiv_pos_site_id
 _symmetry_equiv_pos_as_xyz
  1  'x, y, z'
loop_
 _atom_site_type_symbol
 _atom_site_label
 _atom_site_symmetry_multiplicity
 _atom_site_fract_x
 _atom_site_fract_y
 _atom_site_fract_z
 _atom_site_occupancy
  Zn  Zn0  1  0.85558200  0.25011600  0.75093200  1
  Zn  Zn1  1  0.14899900  0.75032800  0.25013700  1
  Zn  Zn2  1  0.53789300  0.25039500  0.24993100  1
  Zn  Zn3  1  0.47073700  0.74969900  0.74997300  1
  Fe  Fe0  1  0.50922000  0.75006500  0.48656800  1
  Fe  Fe1  1  0.50973000  0.74990100  0.01161000  1
  Fe  Fe2  1  0.49056800  0.25033300  0.51530800  1
  Fe  Fe3  1  0.48949000  0.24994700  0.98718000  1
  Fe  Fe4  1  0.99957200  0.50256700  0.49982000  1
  Fe  Fe5  1  0.99937800  0.99949600  0.00059200  1
  Fe  Fe6  1  0.99979900  0.99727900  0.49957900  1
  Fe  Fe7  1  0.00057100  0.50065800  0.00070500  1
  O  O0  1  0.84535800  0.75041300  0.39333200  1
  O  O1  1  0.84584100  0.74961800  0.10736200  1
  O  O2  1  0.14947900  0.24937900  0.60665900  1
  O  O3  1  0.15064100  0.25035200  0.89355400  1
  O  O4  1  0.19967700  0.74957200  0.59697500  1
  O  O5  1  0.20191000  0.75014700  0.90212000  1
  O  O6  1  0.79862800  0.25012400  0.40308000  1
  O  O7  1  0.79922900  0.24981000  0.09741300  1
  O  O8  1  0.66392300  0.50959600  0.61205600  1
  O  O9  1  0.66128200  0.99983900  0.89015000  1
  O  O10  1  0.33547200  0.99447800  0.38658800  1
  O  O11  1  0.33863000  0.49856800  0.10973300  1
  O  O12  1  0.33639400  0.50508600  0.38729900  1
  O  O13  1  0.33910800  0.00000100  0.10936800  1
  O  O14  1  0.66257100  0.99070300  0.61137600  1
  O  O15  1  0.66031600  0.50153200  0.89059700  1
loop_
_geom_bond_atom_site_label_1
_geom_bond_atom_site_label_2
_geom_bond_distance
_geom_bond_site_symmetry_2
Fe0 O4 1.924179 1_555
Fe0 O0 1.943591 1_555
Fe0 O10 1.973992 1_555
Fe0 O12 1.976456 1_555
Fe0 O8 2.066981 1_555
Fe0 O14 2.067028 1_555
Fe1 O5 1.924235 1_554
Fe1 O1 1.967812 1_555
Fe1 O13 1.977971 1_565
Fe1 O11 1.984204 1_555
Fe1 O15 2.061950 1_554
Fe1 O9 2.069913 1_554
Fe2 O6 1.929043 1_555
Fe2 O2 1.956279 1_555
Fe2 O14 2.016592 1_545
Fe2 O8 2.027305 1_555
Fe2 O12 2.140179 1_555
Fe2 O10 2.157474 1_545
Fe3 O7 1.936596 1_556
Fe3 O3 1.969026 1_555
Fe3 O9 1.976823 1_545
Fe3 O15 1.976867 1_555
Fe3 O13 2.072234 1_556
Fe3 O11 2.072996 1_556
Fe4 O0 1.982753 1_555
Fe4 O2 1.999559 1_655
Fe4 O4 2.039583 1_655
Fe4 O8 2.043317 1_555
Fe4 O12 2.049464 1_655
Fe4 O6 2.062709 1_555
Fe5 O1 1.987615 1_555
Fe5 O3 1.988962 1_664
Fe5 O7 2.043122 1_565
Fe5 O5 2.053180 1_654
Fe5 O13 2.053587 1_665
Fe5 O9 2.056052 1_554
Fe6 O0 1.983592 1_555
Fe6 O2 2.001740 1_665
Fe6 O4 2.037223 1_655
Fe6 O14 2.047363 1_555
Fe6 O10 2.047366 1_655
Fe6 O6 2.057793 1_565
Fe7 O3 1.987602 1_554
Fe7 O1 1.987961 1_455
Fe7 O7 2.046136 1_455
Fe7 O11 2.047903 1_555
Fe7 O5 2.049628 1_554
Fe7 O15 2.063291 1_454
O0 Zn1 2.115156 1_655
O1 Zn1 2.125073 1_655
O2 Zn0 2.087636 1_455
O3 Zn0 2.094407 1_455
O4 Zn3 2.088010 1_555
O5 Zn3 2.059820 1_555
O6 Zn2 2.055011 1_555
O7 Zn2 2.038106 1_555
O8 Zn3 2.222219 1_555
O8 Zn0 2.302825 1_555
O9 Zn0 2.268603 1_565
O9 Zn3 2.279540 1_555
O10 Zn1 2.223624 1_555
O10 Zn2 2.292172 1_565
O11 Zn1 2.275063 1_555
O11 Zn2 2.284610 1_555
O12 Zn1 2.227714 1_555
O12 Zn2 2.292763 1_555
O13 Zn1 2.267230 1_545
O13 Zn2 2.301136 1_555
O14 Zn3 2.224034 1_555
O14 Zn0 2.316753 1_565
O15 Zn3 2.266014 1_555
O15 Zn0 2.281016 1_555
