# generated using pymatgen
data_Th2HN3
_symmetry_space_group_name_H-M   'P 1'
_cell_length_a   4.02246622
_cell_length_b   4.02246622
_cell_length_c   6.16336900
_cell_angle_alpha   90.00000000
_cell_angle_beta   90.00000000
_cell_angle_gamma   120.00000368
_symmetry_Int_Tables_number   1
_chemical_formula_structural   Th2HN3
_chemical_formula_sum   'Th2 H1 N3'
_cell_volume   86.36416875
_cell_formula_units_Z   1
loop_
 _symmetry_equiv_pos_site_id
 _symmetry_equiv_pos_as_xyz
  1  'x, y, z'
loop_
 _atom_site_type_symbol
 _atom_site_label
 _atom_site_symmetry_multiplicity
 _atom_site_fract_x
 _atom_site_fract_y
 _atom_site_fract_z
 _atom_site_occupancy
  Th  Th0  1  0.66666700  0.33333300  0.25037100  1
  Th  Th1  1  0.33333300  0.66666700  0.72914100  1
  H  H0  1  0.00000000  0.00000000  0.84928800  1
  N  N0  1  0.66666700  0.33333300  0.64917700  1
  N  N1  1  0.33333300  0.66666700  0.35471100  1
  N  N2  1  0.00000000  0.00000000  0.01732200  1
loop_
_geom_bond_atom_site_label_1
_geom_bond_atom_site_label_2
_geom_bond_distance
_geom_bond_site_symmetry_2
H0 N2 1.035656 1_556
H0 Th1 2.437572 1_545
H0 Th1 2.437575 1_445
H0 Th1 2.437575 1_555
N0 Th1 2.374089 1_545
N0 Th1 2.374089 1_655
N0 Th1 2.374096 1_555
N0 Th0 2.457989 1_555
N1 Th1 2.307750 1_555
N1 Th0 2.409763 1_455
N1 Th0 2.409763 1_565
N1 Th0 2.409770 1_555
N2 Th0 2.730669 1_455
N2 Th0 2.730671 1_555
N2 Th0 2.730671 1_445
