# generated using pymatgen
data_HfP2
_symmetry_space_group_name_H-M   'P 1'
_cell_length_a   3.49786185
_cell_length_b   6.47301606
_cell_length_c   8.65235419
_cell_angle_alpha   90.00000000
_cell_angle_beta   90.00000000
_cell_angle_gamma   90.00000000
_symmetry_Int_Tables_number   1
_chemical_formula_structural   HfP2
_chemical_formula_sum   'Hf4 P8'
_cell_volume   195.90414570
_cell_formula_units_Z   4
loop_
 _symmetry_equiv_pos_site_id
 _symmetry_equiv_pos_as_xyz
  1  'x, y, z'
loop_
 _atom_site_type_symbol
 _atom_site_label
 _atom_site_symmetry_multiplicity
 _atom_site_fract_x
 _atom_site_fract_y
 _atom_site_fract_z
 _atom_site_occupancy
  Hf  Hf0  1  0.75000000  0.22049659  0.66344498  1
  Hf  Hf1  1  0.75000000  0.72049659  0.83655502  1
  Hf  Hf2  1  0.25000000  0.77950341  0.33655502  1
  Hf  Hf3  1  0.25000000  0.27950341  0.16344498  1
  P  P0  1  0.75000000  0.60821558  0.53936001  1
  P  P1  1  0.75000000  0.10821558  0.96063999  1
  P  P2  1  0.25000000  0.39178442  0.46063999  1
  P  P3  1  0.25000000  0.89178442  0.03936001  1
  P  P4  1  0.75000000  0.59242568  0.14409275  1
  P  P5  1  0.75000000  0.09242568  0.35590725  1
  P  P6  1  0.25000000  0.40757432  0.85590725  1
  P  P7  1  0.25000000  0.90757432  0.64409275  1
loop_
_geom_bond_atom_site_label_1
_geom_bond_atom_site_label_2
_geom_bond_distance
_geom_bond_site_symmetry_2
Hf0 P1 2.672175 1_555
Hf0 P7 2.681353 1_545
Hf0 P7 2.681353 1_645
Hf0 P6 2.701525 1_655
Hf0 P6 2.701525 1_555
Hf0 P2 2.714258 1_655
Hf0 P2 2.714258 1_555
Hf0 P0 2.729712 1_555
Hf0 P5 2.787073 1_555
Hf1 P0 2.672175 1_555
Hf1 P6 2.681353 1_655
Hf1 P6 2.681353 1_555
Hf1 P7 2.701525 1_555
Hf1 P7 2.701525 1_655
Hf1 P3 2.714258 1_556
Hf1 P3 2.714258 1_656
Hf1 P1 2.729712 1_565
Hf1 P4 2.787073 1_556
Hf2 P3 2.672175 1_555
Hf2 P5 2.681353 1_565
Hf2 P5 2.681353 1_465
Hf2 P4 2.701525 1_555
Hf2 P4 2.701525 1_455
Hf2 P0 2.714258 1_455
Hf2 P0 2.714258 1_555
Hf2 P2 2.729712 1_555
Hf2 P7 2.787073 1_555
Hf3 P2 2.672175 1_555
Hf3 P4 2.681353 1_555
Hf3 P4 2.681353 1_455
Hf3 P5 2.701525 1_555
Hf3 P5 2.701525 1_455
Hf3 P1 2.714258 1_454
Hf3 P1 2.714258 1_554
Hf3 P3 2.729712 1_545
Hf3 P6 2.787073 1_554
P0 P2 2.342087 1_555
P0 P2 2.342087 1_655
P0 P7 2.763118 1_555
P0 P7 2.763118 1_655
P1 P3 2.342087 1_546
P1 P3 2.342087 1_646
P1 P6 2.763118 1_555
P1 P6 2.763118 1_655
P2 P5 2.763118 1_455
P2 P5 2.763118 1_555
P3 P4 2.763118 1_555
P3 P4 2.763118 1_455
