# generated using pymatgen
data_Dy5Mg
_symmetry_space_group_name_H-M   'P 1'
_cell_length_a   18.68078331
_cell_length_b   18.68078331
_cell_length_c   11.18357600
_cell_angle_alpha   90.00000000
_cell_angle_beta   90.00000000
_cell_angle_gamma   157.93994084
_symmetry_Int_Tables_number   1
_chemical_formula_structural   Dy5Mg
_chemical_formula_sum   'Dy40 Mg8'
_cell_volume   1465.78859682
_cell_formula_units_Z   8
loop_
 _symmetry_equiv_pos_site_id
 _symmetry_equiv_pos_as_xyz
  1  'x, y, z'
loop_
 _atom_site_type_symbol
 _atom_site_label
 _atom_site_symmetry_multiplicity
 _atom_site_fract_x
 _atom_site_fract_y
 _atom_site_fract_z
 _atom_site_occupancy
  Dy  Dy0_0  1  0.00061600  0.49938400  0.25000000  1
  Dy  Dy0_1  1  0.00061600  0.49938400  0.75000000  1
  Dy  Dy0_2  1  0.00061600  0.99938400  0.25000000  1
  Dy  Dy0_3  1  0.00061600  0.99938400  0.75000000  1
  Dy  Dy0_4  1  0.50061600  0.49938400  0.25000000  1
  Dy  Dy0_5  1  0.50061600  0.49938400  0.75000000  1
  Dy  Dy0_6  1  0.50061600  0.99938400  0.25000000  1
  Dy  Dy0_7  1  0.50061600  0.99938400  0.75000000  1
  Dy  Dy1_0  1  0.33552950  0.16447050  0.25000000  1
  Dy  Dy1_1  1  0.33552950  0.16447050  0.75000000  1
  Dy  Dy1_2  1  0.33552950  0.66447050  0.25000000  1
  Dy  Dy1_3  1  0.33552950  0.66447050  0.75000000  1
  Dy  Dy1_4  1  0.83552950  0.16447050  0.25000000  1
  Dy  Dy1_5  1  0.83552950  0.16447050  0.75000000  1
  Dy  Dy1_6  1  0.83552950  0.66447050  0.25000000  1
  Dy  Dy1_7  1  0.83552950  0.66447050  0.75000000  1
  Dy  Dy2_0  1  0.16638050  0.33361950  0.25000000  1
  Dy  Dy2_1  1  0.16638050  0.33361950  0.75000000  1
  Dy  Dy2_2  1  0.16638050  0.83361950  0.25000000  1
  Dy  Dy2_3  1  0.16638050  0.83361950  0.75000000  1
  Dy  Dy2_4  1  0.66638050  0.33361950  0.25000000  1
  Dy  Dy2_5  1  0.66638050  0.33361950  0.75000000  1
  Dy  Dy2_6  1  0.66638050  0.83361950  0.25000000  1
  Dy  Dy2_7  1  0.66638050  0.83361950  0.75000000  1
  Dy  Dy3_0  1  0.27693250  0.22306750  0.00000000  1
  Dy  Dy3_1  1  0.27693250  0.22306750  0.50000000  1
  Dy  Dy3_2  1  0.27693250  0.72306750  0.00000000  1
  Dy  Dy3_3  1  0.27693250  0.72306750  0.50000000  1
  Dy  Dy3_4  1  0.77693250  0.22306750  0.00000000  1
  Dy  Dy3_5  1  0.77693250  0.22306750  0.50000000  1
  Dy  Dy3_6  1  0.77693250  0.72306750  0.00000000  1
  Dy  Dy3_7  1  0.77693250  0.72306750  0.50000000  1
  Dy  Dy4_0  1  0.44282400  0.05717600  0.00000000  1
  Dy  Dy4_1  1  0.44282400  0.05717600  0.50000000  1
  Dy  Dy4_2  1  0.44282400  0.55717600  0.00000000  1
  Dy  Dy4_3  1  0.44282400  0.55717600  0.50000000  1
  Dy  Dy4_4  1  0.94282400  0.05717600  0.00000000  1
  Dy  Dy4_5  1  0.94282400  0.05717600  0.50000000  1
  Dy  Dy4_6  1  0.94282400  0.55717600  0.00000000  1
  Dy  Dy4_7  1  0.94282400  0.55717600  0.50000000  1
  Mg  Mg0_0  1  0.11105400  0.38894600  0.00000000  1
  Mg  Mg0_1  1  0.11105400  0.38894600  0.50000000  1
  Mg  Mg0_2  1  0.11105400  0.88894600  0.00000000  1
  Mg  Mg0_3  1  0.11105400  0.88894600  0.50000000  1
  Mg  Mg0_4  1  0.61105400  0.38894600  0.00000000  1
  Mg  Mg0_5  1  0.61105400  0.38894600  0.50000000  1
  Mg  Mg0_6  1  0.61105400  0.88894600  0.00000000  1
  Mg  Mg0_7  1  0.61105400  0.88894600  0.50000000  1
loop_
_geom_bond_atom_site_label_1
_geom_bond_atom_site_label_2
_geom_bond_distance
_geom_bond_site_symmetry_2
Dy0_0 Dy3_4 3.455701 1_455
Dy0_0 Dy3_5 3.455701 1_455
Dy0_0 Dy3_2 3.455701 1_555
Dy0_0 Dy3_3 3.455701 1_555
Dy0_0 Dy4_7 3.508349 1_455
Dy0_0 Dy4_6 3.508349 1_455
Dy0_0 Dy2_4 3.568700 1_455
Dy0_0 Dy2_2 3.568700 1_555
Dy0_0 Dy0_6 3.574072 1_445
Dy0_0 Dy0_6 3.574072 1_555
Dy0_0 Dy1_4 3.590243 1_455
Dy0_0 Dy1_2 3.590243 1_555
Dy0_1 Dy3_4 3.455701 1_456
Dy0_1 Dy3_5 3.455701 1_455
Dy0_1 Dy3_2 3.455701 1_556
Dy0_1 Dy3_3 3.455701 1_555
Dy0_1 Dy4_7 3.508349 1_455
Dy0_1 Dy4_6 3.508349 1_456
Dy0_1 Dy2_3 3.568700 1_555
Dy0_1 Dy2_5 3.568700 1_455
Dy0_1 Dy0_7 3.574072 1_445
Dy0_1 Dy0_7 3.574072 1_555
Dy0_1 Dy1_5 3.590243 1_455
Dy0_1 Dy1_3 3.590243 1_555
Dy0_2 Dy3_0 3.455701 1_565
Dy0_2 Dy3_1 3.455701 1_565
Dy0_2 Dy3_7 3.455701 1_455
Dy0_2 Dy3_6 3.455701 1_455
Dy0_2 Dy4_4 3.508349 1_465
Dy0_2 Dy4_5 3.508349 1_465
Dy0_2 Dy2_6 3.568700 1_455
Dy0_2 Dy2_0 3.568700 1_565
Dy0_2 Dy0_4 3.574072 1_455
Dy0_2 Dy0_4 3.574072 1_565
Dy0_2 Dy1_6 3.590243 1_455
Dy0_2 Dy1_0 3.590243 1_565
Dy0_3 Dy3_1 3.455701 1_565
Dy0_3 Dy3_7 3.455701 1_455
Dy0_3 Dy3_6 3.455701 1_456
Dy0_3 Dy3_0 3.455701 1_566
Dy0_3 Dy4_4 3.508349 1_466
Dy0_3 Dy4_5 3.508349 1_465
Dy0_3 Dy2_7 3.568700 1_455
Dy0_3 Dy2_1 3.568700 1_565
Dy0_3 Dy0_5 3.574072 1_455
Dy0_3 Dy0_5 3.574072 1_565
Dy0_3 Dy1_7 3.590243 1_455
Dy0_3 Dy1_1 3.590243 1_565
Dy0_4 Dy3_6 3.455701 1_555
Dy0_4 Dy3_0 3.455701 1_555
Dy0_4 Dy3_1 3.455701 1_555
Dy0_4 Dy3_7 3.455701 1_555
Dy0_4 Dy4_3 3.508349 1_555
Dy0_4 Dy4_2 3.508349 1_555
Dy0_4 Dy2_6 3.568700 1_555
Dy0_4 Dy2_0 3.568700 1_555
Dy0_4 Dy1_0 3.590243 1_555
Dy0_4 Dy1_6 3.590243 1_555
Dy0_5 Dy3_0 3.455701 1_556
Dy0_5 Dy3_1 3.455701 1_555
Dy0_5 Dy3_7 3.455701 1_555
Dy0_5 Dy3_6 3.455701 1_556
Dy0_5 Dy4_2 3.508349 1_556
Dy0_5 Dy4_3 3.508349 1_555
Dy0_5 Dy2_7 3.568700 1_555
Dy0_5 Dy2_1 3.568700 1_555
Dy0_5 Dy1_1 3.590243 1_555
Dy0_5 Dy1_7 3.590243 1_555
Dy0_6 Dy3_2 3.455701 1_555
Dy0_6 Dy3_3 3.455701 1_555
Dy0_6 Dy3_4 3.455701 1_565
Dy0_6 Dy3_5 3.455701 1_565
Dy0_6 Dy4_0 3.508349 1_565
Dy0_6 Dy4_1 3.508349 1_565
Dy0_6 Dy2_4 3.568700 1_565
Dy0_6 Dy2_2 3.568700 1_555
Dy0_6 Dy1_4 3.590243 1_565
Dy0_6 Dy1_2 3.590243 1_555
Dy0_7 Dy3_3 3.455701 1_555
Dy0_7 Dy3_2 3.455701 1_556
Dy0_7 Dy3_4 3.455701 1_566
Dy0_7 Dy3_5 3.455701 1_565
Dy0_7 Dy4_1 3.508349 1_565
Dy0_7 Dy4_0 3.508349 1_566
Dy0_7 Dy2_3 3.568700 1_555
Dy0_7 Dy2_5 3.568700 1_565
Dy0_7 Dy1_5 3.590243 1_565
Dy0_7 Dy1_3 3.590243 1_555
Dy1_0 Mg0_3 3.447702 1_545
Dy1_0 Mg0_4 3.447702 1_555
Dy1_0 Mg0_5 3.447702 1_555
Dy1_0 Mg0_2 3.447702 1_545
Dy1_0 Dy2_2 3.461826 1_545
Dy1_0 Dy2_4 3.461826 1_555
Dy1_0 Dy3_0 3.526260 1_555
Dy1_0 Dy3_1 3.526260 1_555
Dy1_0 Dy1_6 3.574072 1_555
Dy1_0 Dy1_6 3.574072 1_445
Dy1_1 Mg0_4 3.447702 1_556
Dy1_1 Mg0_3 3.447702 1_545
Dy1_1 Mg0_2 3.447702 1_546
Dy1_1 Mg0_5 3.447702 1_555
Dy1_1 Dy2_3 3.461826 1_545
Dy1_1 Dy2_5 3.461826 1_555
Dy1_1 Dy3_0 3.526260 1_556
Dy1_1 Dy3_1 3.526260 1_555
Dy1_1 Dy1_7 3.574072 1_445
Dy1_1 Dy1_7 3.574072 1_555
Dy1_2 Mg0_6 3.447702 1_555
Dy1_2 Mg0_0 3.447702 1_555
Dy1_2 Mg0_1 3.447702 1_555
Dy1_2 Mg0_7 3.447702 1_555
Dy1_2 Dy2_0 3.461826 1_555
Dy1_2 Dy2_6 3.461826 1_555
Dy1_2 Dy3_3 3.526260 1_555
Dy1_2 Dy3_2 3.526260 1_555
Dy1_2 Dy1_4 3.574072 1_455
Dy1_2 Dy1_4 3.574072 1_565
Dy1_3 Mg0_1 3.447702 1_555
Dy1_3 Mg0_7 3.447702 1_555
Dy1_3 Mg0_6 3.447702 1_556
Dy1_3 Mg0_0 3.447702 1_556
Dy1_3 Dy2_1 3.461826 1_555
Dy1_3 Dy2_7 3.461826 1_555
Dy1_3 Dy3_3 3.526260 1_555
Dy1_3 Dy3_2 3.526260 1_556
Dy1_3 Dy1_5 3.574072 1_455
Dy1_3 Dy1_5 3.574072 1_565
Dy1_4 Mg0_7 3.447702 1_545
Dy1_4 Mg0_6 3.447702 1_545
Dy1_4 Mg0_0 3.447702 1_655
Dy1_4 Mg0_1 3.447702 1_655
Dy1_4 Dy2_0 3.461826 1_655
Dy1_4 Dy2_6 3.461826 1_545
Dy1_4 Dy3_5 3.526260 1_555
Dy1_4 Dy3_4 3.526260 1_555
Dy1_5 Mg0_7 3.447702 1_545
Dy1_5 Mg0_0 3.447702 1_656
Dy1_5 Mg0_6 3.447702 1_546
Dy1_5 Mg0_1 3.447702 1_655
Dy1_5 Dy2_1 3.461826 1_655
Dy1_5 Dy2_7 3.461826 1_545
Dy1_5 Dy3_4 3.526260 1_556
Dy1_5 Dy3_5 3.526260 1_555
Dy1_6 Mg0_4 3.447702 1_555
Dy1_6 Mg0_5 3.447702 1_555
Dy1_6 Mg0_3 3.447702 1_655
Dy1_6 Mg0_2 3.447702 1_655
Dy1_6 Dy2_4 3.461826 1_555
Dy1_6 Dy2_2 3.461826 1_655
Dy1_6 Dy3_6 3.526260 1_555
Dy1_6 Dy3_7 3.526260 1_555
Dy1_7 Mg0_4 3.447702 1_556
Dy1_7 Mg0_2 3.447702 1_656
Dy1_7 Mg0_5 3.447702 1_555
Dy1_7 Mg0_3 3.447702 1_655
Dy1_7 Dy2_5 3.461826 1_555
Dy1_7 Dy2_3 3.461826 1_655
Dy1_7 Dy3_7 3.526260 1_555
Dy1_7 Dy3_6 3.526260 1_556
Dy2_0 Mg0_0 3.454484 1_555
Dy2_0 Mg0_1 3.454484 1_555
Dy2_0 Dy4_3 3.457004 1_555
Dy2_0 Dy4_2 3.457004 1_555
Dy2_0 Dy4_5 3.457004 1_455
Dy2_0 Dy4_4 3.457004 1_455
Dy2_0 Dy2_6 3.574072 1_445
Dy2_0 Dy2_6 3.574072 1_555
Dy2_1 Mg0_0 3.454484 1_556
Dy2_1 Mg0_1 3.454484 1_555
Dy2_1 Dy4_2 3.457004 1_556
Dy2_1 Dy4_3 3.457004 1_555
Dy2_1 Dy4_5 3.457004 1_455
Dy2_1 Dy4_4 3.457004 1_456
Dy2_1 Dy2_7 3.574072 1_555
Dy2_1 Dy2_7 3.574072 1_445
Dy2_2 Mg0_3 3.454484 1_555
Dy2_2 Mg0_2 3.454484 1_555
Dy2_2 Dy4_1 3.457004 1_565
Dy2_2 Dy4_7 3.457004 1_455
Dy2_2 Dy4_0 3.457004 1_565
Dy2_2 Dy4_6 3.457004 1_455
Dy2_2 Dy2_4 3.574072 1_455
Dy2_2 Dy2_4 3.574072 1_565
Dy2_3 Mg0_3 3.454484 1_555
Dy2_3 Mg0_2 3.454484 1_556
Dy2_3 Dy4_7 3.457004 1_455
Dy2_3 Dy4_1 3.457004 1_565
Dy2_3 Dy4_6 3.457004 1_456
Dy2_3 Dy4_0 3.457004 1_566
Dy2_3 Dy2_5 3.574072 1_455
Dy2_3 Dy2_5 3.574072 1_565
Dy2_4 Mg0_4 3.454484 1_555
Dy2_4 Mg0_5 3.454484 1_555
Dy2_4 Dy4_6 3.457004 1_555
Dy2_4 Dy4_7 3.457004 1_555
Dy2_4 Dy4_1 3.457004 1_555
Dy2_4 Dy4_0 3.457004 1_555
Dy2_5 Mg0_5 3.454484 1_555
Dy2_5 Mg0_4 3.454484 1_556
Dy2_5 Dy4_7 3.457004 1_555
Dy2_5 Dy4_6 3.457004 1_556
Dy2_5 Dy4_1 3.457004 1_555
Dy2_5 Dy4_0 3.457004 1_556
Dy2_6 Mg0_6 3.454484 1_555
Dy2_6 Mg0_7 3.454484 1_555
Dy2_6 Dy4_5 3.457004 1_565
Dy2_6 Dy4_4 3.457004 1_565
Dy2_6 Dy4_3 3.457004 1_555
Dy2_6 Dy4_2 3.457004 1_555
Dy2_7 Mg0_7 3.454484 1_555
Dy2_7 Mg0_6 3.454484 1_556
Dy2_7 Dy4_4 3.457004 1_566
Dy2_7 Dy4_5 3.457004 1_565
Dy2_7 Dy4_2 3.457004 1_556
Dy2_7 Dy4_3 3.457004 1_555
Dy3_0 Dy4_2 3.564670 1_555
Dy3_0 Dy4_4 3.564670 1_455
Dy3_0 Mg0_2 3.565082 1_545
Dy3_0 Mg0_4 3.565082 1_555
Dy3_0 Dy3_6 3.574072 1_555
Dy3_0 Dy3_6 3.574072 1_445
Dy3_1 Dy4_5 3.564670 1_455
Dy3_1 Dy4_3 3.564670 1_555
Dy3_1 Mg0_3 3.565082 1_545
Dy3_1 Mg0_5 3.565082 1_555
Dy3_1 Dy3_7 3.574072 1_445
Dy3_1 Dy3_7 3.574072 1_555
Dy3_2 Dy4_6 3.564670 1_455
Dy3_2 Dy4_0 3.564670 1_565
Dy3_2 Mg0_0 3.565082 1_555
Dy3_2 Mg0_6 3.565082 1_555
Dy3_2 Dy3_4 3.574072 1_455
Dy3_2 Dy3_4 3.574072 1_565
Dy3_3 Dy4_7 3.564670 1_455
Dy3_3 Dy4_1 3.564670 1_565
Dy3_3 Mg0_1 3.565082 1_555
Dy3_3 Mg0_7 3.565082 1_555
Dy3_3 Dy3_5 3.574072 1_455
Dy3_3 Dy3_5 3.574072 1_565
Dy3_4 Dy4_0 3.564670 1_555
Dy3_4 Dy4_6 3.564670 1_555
Dy3_4 Mg0_6 3.565082 1_545
Dy3_4 Mg0_0 3.565082 1_655
Dy3_5 Dy4_7 3.564670 1_555
Dy3_5 Dy4_1 3.564670 1_555
Dy3_5 Mg0_7 3.565082 1_545
Dy3_5 Mg0_1 3.565082 1_655
Dy3_6 Dy4_2 3.564670 1_555
Dy3_6 Dy4_4 3.564670 1_565
Dy3_6 Mg0_4 3.565082 1_555
Dy3_6 Mg0_2 3.565082 1_655
Dy3_7 Dy4_3 3.564670 1_555
Dy3_7 Dy4_5 3.564670 1_565
Dy3_7 Mg0_5 3.565082 1_555
Dy3_7 Mg0_3 3.565082 1_655
Dy4_0 Mg0_4 3.490733 1_555
Dy4_0 Mg0_2 3.490733 1_545
Dy4_0 Dy4_6 3.574072 1_555
Dy4_0 Dy4_6 3.574072 1_445
Dy4_1 Mg0_3 3.490733 1_545
Dy4_1 Mg0_5 3.490733 1_555
Dy4_1 Dy4_7 3.574072 1_445
Dy4_1 Dy4_7 3.574072 1_555
Dy4_2 Mg0_6 3.490733 1_555
Dy4_2 Mg0_0 3.490733 1_555
Dy4_2 Dy4_4 3.574072 1_455
Dy4_2 Dy4_4 3.574072 1_565
Dy4_3 Mg0_7 3.490733 1_555
Dy4_3 Mg0_1 3.490733 1_555
Dy4_3 Dy4_5 3.574072 1_455
Dy4_3 Dy4_5 3.574072 1_565
Dy4_4 Mg0_0 3.490733 1_655
Dy4_4 Mg0_6 3.490733 1_545
Dy4_5 Mg0_7 3.490733 1_545
Dy4_5 Mg0_1 3.490733 1_655
Dy4_6 Mg0_4 3.490733 1_555
Dy4_6 Mg0_2 3.490733 1_655
Dy4_7 Mg0_5 3.490733 1_555
Dy4_7 Mg0_3 3.490733 1_655
