# generated using pymatgen
data_LiEu4(BN2)3
_symmetry_space_group_name_H-M   'P 1'
_cell_length_a   6.37548157
_cell_length_b   6.37548157
_cell_length_c   6.37548157
_cell_angle_alpha   109.47122063
_cell_angle_beta   109.47122063
_cell_angle_gamma   109.47122063
_symmetry_Int_Tables_number   1
_chemical_formula_structural   LiEu4(BN2)3
_chemical_formula_sum   'Li1 Eu4 B3 N6'
_cell_volume   199.48814547
_cell_formula_units_Z   1
loop_
 _symmetry_equiv_pos_site_id
 _symmetry_equiv_pos_as_xyz
  1  'x, y, z'
loop_
 _atom_site_type_symbol
 _atom_site_label
 _atom_site_symmetry_multiplicity
 _atom_site_fract_x
 _atom_site_fract_y
 _atom_site_fract_z
 _atom_site_occupancy
  Li  Li0  1  0.00000000  0.00000000  0.00000000  1
  Eu  Eu0  1  0.00000000  0.00000000  0.50000000  1
  Eu  Eu1  1  0.00000000  0.50000000  0.00000000  1
  Eu  Eu2  1  0.50000000  0.00000000  0.00000000  1
  Eu  Eu3  1  0.50000000  0.50000000  0.50000000  1
  B  B0  1  0.50000000  0.50000000  0.00000000  1
  B  B1  1  0.50000000  0.00000000  0.50000000  1
  B  B2  1  0.00000000  0.50000000  0.50000000  1
  N  N0  1  0.68336700  0.68336700  0.00000000  1
  N  N1  1  0.31663300  0.00000000  0.31663300  1
  N  N2  1  0.00000000  0.31663300  0.31663300  1
  N  N3  1  0.31663300  0.31663300  0.00000000  1
  N  N4  1  0.68336700  0.00000000  0.68336700  1
  N  N5  1  0.00000000  0.68336700  0.68336700  1
loop_
_geom_bond_atom_site_label_1
_geom_bond_atom_site_label_2
_geom_bond_distance
_geom_bond_site_symmetry_2
Li0 N1 2.330980 1_555
Li0 N2 2.330980 1_555
Li0 N3 2.330980 1_555
Li0 N4 2.330980 1_454
Li0 N0 2.330980 1_445
Li0 N5 2.330980 1_544
Eu0 N5 2.648601 1_545
Eu0 N4 2.648601 1_455
Eu0 N2 2.648601 1_555
Eu0 N0 2.648601 1_445
Eu0 N1 2.648601 1_555
Eu0 N3 2.648601 1_556
Eu1 N2 2.648601 1_555
Eu1 N3 2.648601 1_555
Eu1 N4 2.648601 1_454
Eu1 N5 2.648601 1_554
Eu1 N0 2.648601 1_455
Eu1 N1 2.648601 1_565
Eu2 N2 2.648601 1_655
Eu2 N4 2.648601 1_554
Eu2 N3 2.648601 1_555
Eu2 N0 2.648601 1_545
Eu2 N1 2.648601 1_555
Eu2 N5 2.648601 1_544
Eu3 N2 2.648601 1_555
Eu3 N3 2.648601 1_555
Eu3 N5 2.648601 1_655
Eu3 N1 2.648601 1_555
Eu3 N4 2.648601 1_565
Eu3 N0 2.648601 1_556
B0 N0 1.349906 1_555
B0 N3 1.349906 1_555
B1 N4 1.349906 1_555
B1 N1 1.349906 1_555
B2 N5 1.349906 1_555
B2 N2 1.349906 1_555
