# generated using pymatgen
data_Sm4FeSn8
_symmetry_space_group_name_H-M   'P 1'
_cell_length_a   4.46855700
_cell_length_b   4.52823400
_cell_length_c   16.66107600
_cell_angle_alpha   90.00000000
_cell_angle_beta   90.00000000
_cell_angle_gamma   90.00000000
_symmetry_Int_Tables_number   1
_chemical_formula_structural   Sm4FeSn8
_chemical_formula_sum   'Sm4 Fe1 Sn8'
_cell_volume   337.13140367
_cell_formula_units_Z   1
loop_
 _symmetry_equiv_pos_site_id
 _symmetry_equiv_pos_as_xyz
  1  'x, y, z'
loop_
 _atom_site_type_symbol
 _atom_site_label
 _atom_site_symmetry_multiplicity
 _atom_site_fract_x
 _atom_site_fract_y
 _atom_site_fract_z
 _atom_site_occupancy
  Sm  Sm0  1  0.00000000  0.00000000  0.09758400  1
  Sm  Sm1  1  0.00000000  0.50000000  0.60202300  1
  Sm  Sm2  1  0.50000000  0.50000000  0.39649400  1
  Sm  Sm3  1  0.50000000  0.00000000  0.89956400  1
  Fe  Fe0  1  0.00000000  0.00000000  0.30486400  1
  Sn  Sn0  1  0.00000000  0.00000000  0.45247700  1
  Sn  Sn1  1  0.00000000  0.50000000  0.93744000  1
  Sn  Sn2  1  0.50000000  0.50000000  0.06231800  1
  Sn  Sn3  1  0.50000000  0.00000000  0.57076400  1
  Sn  Sn4  1  0.00000000  0.50000000  0.23940100  1
  Sn  Sn5  1  0.00000000  0.00000000  0.74900300  1
  Sn  Sn6  1  0.50000000  0.00000000  0.23941300  1
  Sn  Sn7  1  0.50000000  0.50000000  0.75165700  1
loop_
_geom_bond_atom_site_label_1
_geom_bond_atom_site_label_2
_geom_bond_distance
_geom_bond_site_symmetry_2
Sm0 Sn2 3.234728 1_445
Sm0 Sn2 3.234728 1_545
Sm0 Sn2 3.234728 1_555
Sm0 Sn2 3.234728 1_455
Sm0 Sn6 3.252058 1_555
Sm0 Sn6 3.252058 1_455
Sm0 Sn4 3.272486 1_545
Sm0 Sn4 3.272486 1_555
Sm0 Sn1 3.499338 1_554
Sm0 Sn1 3.499338 1_544
Sm1 Sn3 3.223270 1_565
Sm1 Sn3 3.223270 1_555
Sm1 Sn3 3.223270 1_465
Sm1 Sn3 3.223270 1_455
Sm1 Sn5 3.335126 1_555
Sm1 Sn5 3.335126 1_565
Sm1 Sn7 3.347740 1_455
Sm1 Sn7 3.347740 1_555
Sm1 Sn0 3.366643 1_555
Sm1 Sn0 3.366643 1_565
Sm2 Sn0 3.314849 1_565
Sm2 Sn0 3.314849 1_655
Sm2 Sn0 3.314849 1_665
Sm2 Sn0 3.314849 1_555
Sm2 Sn4 3.441288 1_655
Sm2 Sn4 3.441288 1_555
Sm2 Sn6 3.460584 1_565
Sm2 Sn6 3.460584 1_555
Sm2 Sn3 3.681941 1_555
Sm2 Sn3 3.681941 1_565
Sm3 Sn1 3.242909 1_555
Sm3 Sn1 3.242909 1_545
Sm3 Sn1 3.242909 1_655
Sm3 Sn1 3.242909 1_645
Sm3 Sn7 3.346483 1_545
Sm3 Sn7 3.346483 1_555
Sm3 Sn5 3.359258 1_655
Sm3 Sn5 3.359258 1_555
Sm3 Sn2 3.532606 1_546
Sm3 Sn2 3.532606 1_556
Fe0 Sn0 2.459391 1_555
Fe0 Sn6 2.486193 1_455
Fe0 Sn6 2.486193 1_555
Fe0 Sn4 2.513129 1_555
Fe0 Sn4 2.513129 1_545
Fe0 Sm2 3.528300 1_445
Fe0 Sm2 3.528300 1_545
Fe0 Sm2 3.528300 1_455
Fe0 Sm2 3.528300 1_555
Sn0 Sn3 2.979263 1_555
Sn0 Sn3 2.979263 1_455
Sn1 Sn2 3.053016 1_556
Sn1 Sn2 3.053016 1_456
Sn5 Sn7 3.181223 1_445
Sn5 Sn7 3.181223 1_455
Sn5 Sn7 3.181223 1_545
Sn5 Sn7 3.181223 1_555
