# generated using pymatgen
data_Li9Mn2Co5O16
_symmetry_space_group_name_H-M   'P 1'
_cell_length_a   2.97939600
_cell_length_b   5.98388351
_cell_length_c   16.15881690
_cell_angle_alpha   90.73825760
_cell_angle_beta   90.99531445
_cell_angle_gamma   94.50392744
_symmetry_Int_Tables_number   1
_chemical_formula_structural   Li9Mn2Co5O16
_chemical_formula_sum   'Li9 Mn2 Co5 O16'
_cell_volume   287.12288848
_cell_formula_units_Z   1
loop_
 _symmetry_equiv_pos_site_id
 _symmetry_equiv_pos_as_xyz
  1  'x, y, z'
loop_
 _atom_site_type_symbol
 _atom_site_label
 _atom_site_symmetry_multiplicity
 _atom_site_fract_x
 _atom_site_fract_y
 _atom_site_fract_z
 _atom_site_occupancy
  Li  Li0  1  0.99618500  0.49519300  0.00476200  1
  Li  Li1  1  0.49556500  0.76062100  0.12935100  1
  Li  Li2  1  0.00112600  0.00630200  0.24556800  1
  Li  Li3  1  0.50184600  0.24900300  0.87318000  1
  Li  Li4  1  0.99928000  0.00027200  0.74944200  1
  Li  Li5  1  0.50035100  0.74819100  0.62565400  1
  Li  Li6  1  0.00036300  0.50018400  0.49942600  1
  Li  Li7  1  0.50139800  0.25155200  0.37242700  1
  Li  Li8  1  0.50838500  0.23983900  0.12838300  1
  Mn  Mn0  1  0.99665800  0.00520000  0.00398800  1
  Mn  Mn1  1  0.99984600  0.99900400  0.49942800  1
  Co  Co0  1  0.00367100  0.49109900  0.24425400  1
  Co  Co1  1  0.50165000  0.74834200  0.37309400  1
  Co  Co2  1  0.49775900  0.25245600  0.62569600  1
  Co  Co3  1  0.00002100  0.50024900  0.75062200  1
  Co  Co4  1  0.48869200  0.75249700  0.87409000  1
  O  O0  1  0.47027400  0.77775100  0.99453400  1
  O  O1  1  0.00563300  0.99625200  0.11586900  1
  O  O2  1  0.52686100  0.27109200  0.25047900  1
  O  O3  1  0.02559900  0.51355600  0.87069900  1
  O  O4  1  0.52616200  0.26364900  0.74482100  1
  O  O5  1  0.02714100  0.01211900  0.62157600  1
  O  O6  1  0.52889700  0.75214700  0.49356900  1
  O  O7  1  0.02653900  0.51342500  0.36494200  1
  O  O8  1  0.52604700  0.21836600  0.99947500  1
  O  O9  1  0.99814800  0.50436300  0.13675500  1
  O  O10  1  0.47716500  0.73598200  0.25605100  1
  O  O11  1  0.96842100  0.98438800  0.87933500  1
  O  O12  1  0.47711100  0.73562600  0.75583100  1
  O  O13  1  0.97472900  0.48844100  0.63196700  1
  O  O14  1  0.47240000  0.24590000  0.50614600  1
  O  O15  1  0.97607600  0.98693500  0.37858600  1
loop_
_geom_bond_atom_site_label_1
_geom_bond_atom_site_label_2
_geom_bond_distance
_geom_bond_site_symmetry_2
Li0 O8 2.083533 1_554
Li0 O0 2.126377 1_654
Li0 O9 2.132744 1_555
Li0 O3 2.173436 1_654
Li0 O8 2.378074 1_654
Li0 O0 2.399074 1_554
Li1 O1 2.006960 1_655
Li1 O9 2.053288 1_455
Li1 O10 2.055889 1_555
Li1 O1 2.118105 1_555
Li1 O0 2.182485 1_554
Li1 O9 2.228676 1_555
Li2 O1 2.096177 1_545
Li2 O2 2.138463 1_555
Li2 O15 2.156296 1_445
Li2 O10 2.168377 1_445
Li2 O2 2.205849 1_455
Li2 O10 2.239606 1_545
Li3 O8 2.051874 1_555
Li3 O4 2.079387 1_555
Li3 O3 2.135079 1_655
Li3 O11 2.158071 1_445
Li3 O11 2.189633 1_545
Li3 O3 2.207593 1_555
Li4 O5 2.071172 1_655
Li4 O11 2.105567 1_545
Li4 O12 2.135812 1_545
Li4 O4 2.138269 1_655
Li4 O4 2.196515 1_555
Li4 O12 2.213242 1_645
Li5 O12 2.107962 1_555
Li5 O13 2.122761 1_455
Li5 O6 2.137869 1_555
Li5 O5 2.139844 1_665
Li5 O13 2.183570 1_555
Li5 O5 2.198976 1_565
Li6 O6 2.097107 1_555
Li6 O14 2.106115 1_455
Li6 O6 2.141725 1_455
Li6 O13 2.146251 1_455
Li6 O14 2.154075 1_555
Li6 O7 2.178093 1_555
Li7 O2 1.977922 1_555
Li7 O7 2.131796 1_655
Li7 O15 2.141750 1_445
Li7 O14 2.164560 1_555
Li7 O7 2.195209 1_555
Li7 O15 2.206393 1_545
Li8 O2 1.978774 1_555
Li8 O1 2.012002 1_545
Li8 O9 2.068318 1_555
Li8 O8 2.087138 1_554
Li8 O1 2.168473 1_645
Li8 O9 2.283498 1_455
Mn0 O1 1.809142 1_645
Mn0 O8 1.952059 1_654
Mn0 O8 1.969289 1_554
Mn0 O0 1.996598 1_544
Mn0 O11 2.016376 1_544
Mn0 O0 2.042222 1_644
Mn1 O15 1.952917 1_555
Mn1 O6 1.956028 1_555
Mn1 O14 1.959748 1_665
Mn1 O5 1.974325 1_665
Mn1 O14 2.242862 1_565
Mn1 O6 2.245621 1_655
Co0 O9 1.739742 1_455
Co0 O2 1.864417 1_455
Co0 O7 1.952668 1_555
Co0 O10 1.957686 1_555
Co0 O2 2.119757 1_555
Co0 O10 2.237973 1_455
Co1 O10 1.891685 1_555
Co1 O7 1.916608 1_555
Co1 O15 1.928642 1_555
Co1 O6 1.946781 1_555
Co1 O7 2.187845 1_655
Co1 O15 2.202485 1_455
Co2 O13 1.923521 1_555
Co2 O4 1.925380 1_555
Co2 O5 1.927780 1_555
Co2 O14 1.931724 1_555
Co2 O13 2.186333 1_455
Co2 O5 2.217614 1_655
Co3 O13 1.917670 1_455
Co3 O4 1.919509 1_455
Co3 O12 1.920863 1_555
Co3 O3 1.940837 1_555
Co3 O12 2.182711 1_455
Co3 O4 2.195632 1_555
Co4 O3 1.906966 1_555
Co4 O12 1.911860 1_555
Co4 O11 1.912281 1_555
Co4 O0 1.952204 1_555
Co4 O11 2.162123 1_455
Co4 O3 2.228556 1_655
