# generated using pymatgen
data_Eu2CuH4(SO6)2
_symmetry_space_group_name_H-M   'P 1'
_cell_length_a   6.98904700
_cell_length_b   6.46208100
_cell_length_c   10.94499507
_cell_angle_alpha   81.63645791
_cell_angle_beta   90.00000000
_cell_angle_gamma   90.00000000
_symmetry_Int_Tables_number   1
_chemical_formula_structural   Eu2CuH4(SO6)2
_chemical_formula_sum   'Eu4 Cu2 H8 S4 O24'
_cell_volume   489.06041221
_cell_formula_units_Z   2
loop_
 _symmetry_equiv_pos_site_id
 _symmetry_equiv_pos_as_xyz
  1  'x, y, z'
loop_
 _atom_site_type_symbol
 _atom_site_label
 _atom_site_symmetry_multiplicity
 _atom_site_fract_x
 _atom_site_fract_y
 _atom_site_fract_z
 _atom_site_occupancy
  Eu  Eu0  1  0.51240900  0.08290400  0.67501800  1
  Eu  Eu1  1  0.01240900  0.91709600  0.82498200  1
  Eu  Eu2  1  0.48759100  0.91709600  0.32498200  1
  Eu  Eu3  1  0.98759100  0.08290400  0.17501800  1
  Cu  Cu0  1  0.50000000  0.00000000  0.00000000  1
  Cu  Cu1  1  0.00000000  0.00000000  0.50000000  1
  H  H0  1  0.69819500  0.75613400  0.11846900  1
  H  H1  1  0.19819500  0.24386600  0.38153100  1
  H  H2  1  0.30180500  0.24386600  0.88153100  1
  H  H3  1  0.80180500  0.75613400  0.61846900  1
  H  H4  1  0.60623500  0.72693700  0.89551300  1
  H  H5  1  0.10623500  0.27306300  0.60448700  1
  H  H6  1  0.39376500  0.27306300  0.10448700  1
  H  H7  1  0.89376500  0.72693700  0.39551300  1
  S  S0  1  0.67273000  0.35870200  0.36926000  1
  S  S1  1  0.17273000  0.64129800  0.13074000  1
  S  S2  1  0.32727000  0.64129800  0.63074000  1
  S  S3  1  0.82727000  0.35870200  0.86926000  1
  O  O0  1  0.66969500  0.90048500  0.12993900  1
  O  O1  1  0.16969500  0.09951500  0.37006100  1
  O  O2  1  0.33030500  0.09951500  0.87006100  1
  O  O3  1  0.83030500  0.90048500  0.62993900  1
  O  O4  1  0.64445100  0.87516400  0.88347100  1
  O  O5  1  0.14445100  0.12483600  0.61652900  1
  O  O6  1  0.35554900  0.12483600  0.11652900  1
  O  O7  1  0.85554900  0.87516400  0.38347100  1
  O  O8  1  0.69665200  0.25117900  0.25692800  1
  O  O9  1  0.19665200  0.74882100  0.24307200  1
  O  O10  1  0.30334800  0.74882100  0.74307200  1
  O  O11  1  0.80334800  0.25117900  0.75692800  1
  O  O12  1  0.55471300  0.20329500  0.45514000  1
  O  O13  1  0.05471300  0.79670500  0.04486000  1
  O  O14  1  0.44528700  0.79670500  0.54486000  1
  O  O15  1  0.94528700  0.20329500  0.95514000  1
  O  O16  1  0.56099500  0.55135000  0.33608400  1
  O  O17  1  0.06099500  0.44865000  0.16391600  1
  O  O18  1  0.43900500  0.44865000  0.66391600  1
  O  O19  1  0.93900500  0.55135000  0.83608400  1
  O  O20  1  0.85583100  0.39782300  0.42617900  1
  O  O21  1  0.35583100  0.60217700  0.07382100  1
  O  O22  1  0.14416900  0.60217700  0.57382100  1
  O  O23  1  0.64416900  0.39782300  0.92617900  1
loop_
_geom_bond_atom_site_label_1
_geom_bond_atom_site_label_2
_geom_bond_distance
_geom_bond_site_symmetry_2
Eu0 O18 2.404257 1_555
Eu0 O12 2.437122 1_555
Eu0 O2 2.501033 1_555
Eu0 O11 2.530697 1_555
Eu0 O14 2.537001 1_545
Eu0 O3 2.595874 1_545
Eu0 O10 2.623483 1_545
Eu0 O4 2.639717 1_545
Eu0 O5 2.654484 1_555
Eu1 O19 2.404257 1_455
Eu1 O13 2.437122 1_556
Eu1 O3 2.501033 1_455
Eu1 O10 2.530697 1_555
Eu1 O15 2.537001 1_465
Eu1 O2 2.595874 1_565
Eu1 O11 2.623483 1_465
Eu1 O5 2.639717 1_565
Eu1 O4 2.654484 1_455
Eu2 O16 2.404257 1_555
Eu2 O14 2.437122 1_555
Eu2 O0 2.501033 1_555
Eu2 O9 2.530697 1_555
Eu2 O12 2.537001 1_565
Eu2 O1 2.595874 1_565
Eu2 O8 2.623483 1_565
Eu2 O6 2.639717 1_565
Eu2 O7 2.654484 1_555
Eu3 O17 2.404257 1_655
Eu3 O15 2.437122 1_554
Eu3 O1 2.501033 1_655
Eu3 O8 2.530697 1_555
Eu3 O13 2.537001 1_645
Eu3 O0 2.595874 1_545
Eu3 O9 2.623483 1_645
Eu3 O7 2.639717 1_545
Eu3 O6 2.654484 1_655
Cu0 O2 1.891217 1_554
Cu0 O0 1.891217 1_545
Cu0 O4 1.896308 1_544
Cu0 O6 1.896308 1_555
Cu1 O1 1.891217 1_555
Cu1 O3 1.891217 1_445
Cu1 O7 1.896308 1_445
Cu1 O5 1.896308 1_555
H0 O0 0.979608 1_555
H1 O1 0.979608 1_555
H2 O2 0.979608 1_555
H3 O3 0.979608 1_555
H4 O4 0.984617 1_555
H5 O5 0.984617 1_555
H6 O6 0.984617 1_555
H7 O7 0.984617 1_555
O8 S0 1.506933 1_555
O9 S1 1.506933 1_555
O10 S2 1.506933 1_555
O11 S3 1.506933 1_555
O12 S0 1.515842 1_555
O13 S1 1.515842 1_555
O14 S2 1.515842 1_555
O15 S3 1.515842 1_555
O16 S0 1.469687 1_555
O17 S1 1.469687 1_555
O18 S2 1.469687 1_555
O19 S3 1.469687 1_555
O20 S0 1.461322 1_555
O21 S1 1.461322 1_555
O22 S2 1.461322 1_555
O23 S3 1.461322 1_555
