# generated using pymatgen
data_CaNi5H
_symmetry_space_group_name_H-M   'P 1'
_cell_length_a   4.93954690
_cell_length_b   4.93954690
_cell_length_c   3.94541000
_cell_angle_alpha   90.00000000
_cell_angle_beta   90.00000000
_cell_angle_gamma   119.13467060
_symmetry_Int_Tables_number   1
_chemical_formula_structural   CaNi5H
_chemical_formula_sum   'Ca1 Ni5 H1'
_cell_volume   84.08494134
_cell_formula_units_Z   1
loop_
 _symmetry_equiv_pos_site_id
 _symmetry_equiv_pos_as_xyz
  1  'x, y, z'
loop_
 _atom_site_type_symbol
 _atom_site_label
 _atom_site_symmetry_multiplicity
 _atom_site_fract_x
 _atom_site_fract_y
 _atom_site_fract_z
 _atom_site_occupancy
  Ca  Ca0  1  0.99775500  0.00224500  0.00000000  1
  Ni  Ni0  1  0.33901600  0.66098400  0.00000000  1
  Ni  Ni1  1  0.66241300  0.33758700  0.00000000  1
  Ni  Ni2  1  0.49645500  0.50354500  0.50000000  1
  Ni  Ni3  1  0.50436100  0.00729900  0.50000000  1
  Ni  Ni4  1  0.99270100  0.49563900  0.50000000  1
  H  H0  1  0.14332600  0.85667400  0.50000000  1
loop_
_geom_bond_atom_site_label_1
_geom_bond_atom_site_label_2
_geom_bond_distance
_geom_bond_site_symmetry_2
Ca0 H0 2.330043 1_645
Ca0 H0 2.330043 1_644
Ca0 Ni0 2.843996 1_545
Ca0 Ni0 2.843996 1_655
Ca0 Ni1 2.856444 1_555
Ca0 Ni1 2.868310 1_655
Ca0 Ni1 2.868310 1_545
Ca0 Ni0 2.906862 1_645
Ca0 Ni2 3.186177 1_544
Ca0 Ni2 3.186177 1_545
Ca0 Ni2 3.186177 1_654
Ca0 Ni2 3.186177 1_655
Ni0 Ni2 2.385377 1_555
Ni0 Ni2 2.385377 1_554
Ni0 Ni3 2.474768 1_564
Ni0 Ni3 2.474768 1_565
Ni0 Ni4 2.474768 1_454
Ni0 Ni4 2.474768 1_455
Ni0 Ni1 2.754696 1_555
Ni0 Ni1 2.919412 1_565
Ni0 Ni1 2.919412 1_455
Ni1 Ni2 2.426915 1_555
Ni1 Ni2 2.426915 1_554
Ni1 Ni3 2.433625 1_554
Ni1 Ni3 2.433625 1_555
Ni1 Ni4 2.433625 1_554
Ni1 Ni4 2.433625 1_555
Ni2 Ni4 2.469539 1_455
Ni2 Ni3 2.469539 1_565
Ni2 Ni3 2.470479 1_555
Ni2 Ni4 2.470479 1_555
H0 Ni4 1.562662 1_455
H0 Ni3 1.562662 1_565
