# generated using pymatgen
data_Tm2Al2Fe15
_symmetry_space_group_name_H-M   'P 1'
_cell_length_a   8.32194408
_cell_length_b   8.32194408
_cell_length_c   8.37400700
_cell_angle_alpha   90.00000000
_cell_angle_beta   90.00000000
_cell_angle_gamma   120.00000060
_symmetry_Int_Tables_number   1
_chemical_formula_structural   Tm2Al2Fe15
_chemical_formula_sum   'Tm4 Al4 Fe30'
_cell_volume   502.24258607
_cell_formula_units_Z   2
loop_
 _symmetry_equiv_pos_site_id
 _symmetry_equiv_pos_as_xyz
  1  'x, y, z'
loop_
 _atom_site_type_symbol
 _atom_site_label
 _atom_site_symmetry_multiplicity
 _atom_site_fract_x
 _atom_site_fract_y
 _atom_site_fract_z
 _atom_site_occupancy
  Tm  Tm0  1  0.00000000  0.00000000  0.25000000  1
  Tm  Tm1  1  0.00000000  0.00000000  0.75000000  1
  Tm  Tm2  1  0.33333300  0.66666700  0.75000000  1
  Tm  Tm3  1  0.66666700  0.33333300  0.25000000  1
  Al  Al0  1  0.33333300  0.66666700  0.39977800  1
  Al  Al1  1  0.66666700  0.33333300  0.60022200  1
  Al  Al2  1  0.66666700  0.33333300  0.89977800  1
  Al  Al3  1  0.33333300  0.66666700  0.10022200  1
  Fe  Fe0  1  0.50000000  0.50000000  0.50000000  1
  Fe  Fe1  1  0.50000000  0.00000000  0.50000000  1
  Fe  Fe2  1  0.00000000  0.50000000  0.50000000  1
  Fe  Fe3  1  0.50000000  0.50000000  0.00000000  1
  Fe  Fe4  1  0.50000000  0.00000000  0.00000000  1
  Fe  Fe5  1  0.00000000  0.50000000  0.00000000  1
  Fe  Fe6  1  0.33057200  0.36183700  0.25000000  1
  Fe  Fe7  1  0.63816300  0.96873500  0.25000000  1
  Fe  Fe8  1  0.03126500  0.66942800  0.25000000  1
  Fe  Fe9  1  0.63816300  0.66942800  0.25000000  1
  Fe  Fe10  1  0.03126500  0.36183700  0.25000000  1
  Fe  Fe11  1  0.33057200  0.96873500  0.25000000  1
  Fe  Fe12  1  0.66942800  0.63816300  0.75000000  1
  Fe  Fe13  1  0.36183700  0.03126500  0.75000000  1
  Fe  Fe14  1  0.96873500  0.33057200  0.75000000  1
  Fe  Fe15  1  0.36183700  0.33057200  0.75000000  1
  Fe  Fe16  1  0.96873500  0.63816300  0.75000000  1
  Fe  Fe17  1  0.66942800  0.03126500  0.75000000  1
  Fe  Fe18  1  0.16538700  0.83461300  0.51208100  1
  Fe  Fe19  1  0.16538700  0.33077400  0.51208100  1
  Fe  Fe20  1  0.66922600  0.83461300  0.51208100  1
  Fe  Fe21  1  0.83461300  0.16538700  0.48791900  1
  Fe  Fe22  1  0.83461300  0.66922600  0.48791900  1
  Fe  Fe23  1  0.33077400  0.16538700  0.48791900  1
  Fe  Fe24  1  0.83461300  0.16538700  0.01208100  1
  Fe  Fe25  1  0.83461300  0.66922600  0.01208100  1
  Fe  Fe26  1  0.33077400  0.16538700  0.01208100  1
  Fe  Fe27  1  0.16538700  0.83461300  0.98791900  1
  Fe  Fe28  1  0.16538700  0.33077400  0.98791900  1
  Fe  Fe29  1  0.66922600  0.83461300  0.98791900  1
loop_
_geom_bond_atom_site_label_1
_geom_bond_atom_site_label_2
_geom_bond_distance
_geom_bond_site_symmetry_2
Al0 Al3 2.508484 1_555
Al0 Fe2 2.544715 1_555
Al0 Fe1 2.544715 1_565
Al0 Fe0 2.544722 1_555
Al0 Fe18 2.597031 1_555
Al0 Fe19 2.597038 1_555
Al0 Fe20 2.597038 1_555
Al0 Fe11 2.819675 1_555
Al0 Fe8 2.819675 1_555
Al0 Fe7 2.819678 1_555
Al0 Fe10 2.819678 1_555
Al0 Fe9 2.819682 1_555
Al0 Fe6 2.819682 1_555
Al0 Tm2 2.932761 1_555
Al1 Al2 2.508484 1_555
Al1 Fe2 2.544715 1_655
Al1 Fe1 2.544715 1_555
Al1 Fe0 2.544722 1_555
Al1 Fe21 2.597031 1_555
Al1 Fe22 2.597038 1_555
Al1 Fe23 2.597038 1_555
Al1 Fe14 2.819675 1_555
Al1 Fe17 2.819675 1_555
Al1 Fe16 2.819678 1_555
Al1 Fe13 2.819678 1_555
Al1 Fe12 2.819682 1_555
Al1 Fe15 2.819682 1_555
Al1 Tm3 2.932761 1_555
Al2 Fe5 2.544715 1_656
Al2 Fe4 2.544715 1_556
Al2 Fe3 2.544722 1_556
Al2 Fe24 2.597031 1_556
Al2 Fe26 2.597038 1_556
Al2 Fe25 2.597038 1_556
Al2 Fe14 2.819675 1_555
Al2 Fe17 2.819675 1_555
Al2 Fe16 2.819678 1_555
Al2 Fe13 2.819678 1_555
Al2 Fe12 2.819682 1_555
Al2 Fe15 2.819682 1_555
Al2 Tm3 2.932761 1_556
Al3 Fe5 2.544715 1_555
Al3 Fe4 2.544715 1_565
Al3 Fe3 2.544722 1_555
Al3 Fe27 2.597031 1_554
Al3 Fe28 2.597038 1_554
Al3 Fe29 2.597038 1_554
Al3 Fe11 2.819675 1_555
Al3 Fe8 2.819675 1_555
Al3 Fe7 2.819678 1_555
Al3 Fe10 2.819678 1_555
Al3 Fe9 2.819682 1_555
Al3 Fe6 2.819682 1_555
Al3 Tm2 2.932761 1_554
Fe0 Fe22 2.413735 1_555
Fe0 Fe20 2.413735 1_555
Fe0 Fe19 2.413735 1_555
Fe0 Fe23 2.413735 1_555
Fe0 Fe9 2.464063 1_555
Fe0 Fe12 2.464063 1_555
Fe0 Fe6 2.464063 1_555
Fe0 Fe15 2.464063 1_555
Fe0 Tm2 3.186535 1_555
Fe0 Tm3 3.186535 1_555
Fe1 Fe21 2.413735 1_555
Fe1 Fe18 2.413735 1_545
Fe1 Fe23 2.413735 1_555
Fe1 Fe20 2.413735 1_545
Fe1 Fe11 2.464063 1_545
Fe1 Fe17 2.464063 1_555
Fe1 Fe7 2.464063 1_545
Fe1 Fe13 2.464063 1_555
Fe1 Tm2 3.186529 1_545
Fe1 Tm3 3.186529 1_555
Fe2 Fe21 2.413735 1_455
Fe2 Fe22 2.413735 1_455
Fe2 Fe8 2.464063 1_555
Fe2 Tm3 3.186529 1_455
Fe2 Tm2 3.186529 1_555
Fe3 Fe9 2.464063 1_555
Fe3 Fe6 2.464063 1_555
Fe3 Tm3 3.186535 1_555
Fe3 Tm2 3.186535 1_554
Fe4 Fe7 2.464063 1_545
Fe4 Tm2 3.186529 1_544
Fe4 Tm3 3.186529 1_555
Fe5 Fe8 2.464063 1_555
Fe5 Tm2 3.186529 1_554
Fe5 Tm3 3.186529 1_455
Fe6 Fe9 2.559755 1_555
Fe6 Tm0 2.889892 1_555
Fe6 Tm3 2.922796 1_555
Fe7 Fe9 2.490816 1_555
Fe7 Tm0 2.889892 1_665
Fe7 Tm3 2.922788 1_565
Fe8 Tm0 2.889892 1_565
Fe8 Tm3 2.922792 1_455
Fe9 Tm0 2.889892 1_665
Fe9 Tm3 2.922796 1_555
Fe10 Fe2 2.464063 1_555
Fe10 Fe5 2.464063 1_555
Fe10 Fe6 2.490816 1_555
Fe10 Fe28 2.533323 1_554
Fe10 Fe19 2.533323 1_555
Fe10 Fe8 2.559755 1_555
Fe10 Fe24 2.577765 1_455
Fe10 Fe21 2.577765 1_455
Fe10 Tm0 2.889892 1_555
Fe10 Tm3 2.922788 1_455
Fe11 Fe4 2.464063 1_565
Fe11 Fe8 2.490816 1_555
Fe11 Fe27 2.533323 1_554
Fe11 Fe18 2.533323 1_555
Fe11 Fe7 2.559755 1_555
Fe11 Fe26 2.577765 1_565
Fe11 Fe23 2.577765 1_565
Fe11 Tm0 2.889892 1_565
Fe11 Tm3 2.922792 1_565
Fe12 Fe3 2.464063 1_556
Fe12 Fe16 2.490816 1_555
Fe12 Fe22 2.533323 1_555
Fe12 Fe25 2.533323 1_556
Fe12 Fe15 2.559755 1_555
Fe12 Fe20 2.577765 1_555
Fe12 Fe29 2.577765 1_555
Fe12 Tm1 2.889892 1_665
Fe12 Tm2 2.922796 1_555
Fe13 Fe4 2.464063 1_556
Fe13 Fe15 2.490816 1_555
Fe13 Fe26 2.533323 1_556
Fe13 Fe23 2.533323 1_555
Fe13 Fe17 2.559755 1_555
Fe13 Fe18 2.577765 1_545
Fe13 Fe27 2.577765 1_545
Fe13 Tm1 2.889892 1_555
Fe13 Tm2 2.922788 1_545
Fe14 Fe2 2.464063 1_655
Fe14 Fe5 2.464063 1_656
Fe14 Fe17 2.490816 1_555
Fe14 Fe24 2.533323 1_556
Fe14 Fe21 2.533323 1_555
Fe14 Fe16 2.559755 1_555
Fe14 Fe28 2.577765 1_655
Fe14 Fe19 2.577765 1_655
Fe14 Tm1 2.889892 1_655
Fe14 Tm2 2.922792 1_655
Fe15 Fe3 2.464063 1_556
Fe15 Fe26 2.533323 1_556
Fe15 Fe23 2.533323 1_555
Fe15 Fe28 2.577765 1_555
Fe15 Fe19 2.577765 1_555
Fe15 Tm1 2.889892 1_555
Fe15 Tm2 2.922796 1_555
Fe16 Fe5 2.464063 1_656
Fe16 Fe2 2.464063 1_655
Fe16 Fe22 2.533323 1_555
Fe16 Fe25 2.533323 1_556
Fe16 Fe18 2.577765 1_655
Fe16 Fe27 2.577765 1_655
Fe16 Tm1 2.889892 1_665
Fe16 Tm2 2.922788 1_655
Fe17 Fe4 2.464063 1_556
Fe17 Fe24 2.533323 1_556
Fe17 Fe21 2.533323 1_555
Fe17 Fe20 2.577765 1_545
Fe17 Fe29 2.577765 1_545
Fe17 Tm1 2.889892 1_655
Fe17 Tm2 2.922792 1_545
Fe18 Fe23 2.392464 1_565
Fe18 Fe22 2.392464 1_455
Fe18 Fe2 2.413735 1_555
Fe18 Fe8 2.533323 1_555
Fe18 Tm1 3.106823 1_565
Fe18 Tm2 3.135214 1_555
Fe18 Tm0 3.240295 1_565
Fe19 Fe21 2.392464 1_455
Fe19 Fe23 2.392464 1_555
Fe19 Fe2 2.413735 1_555
Fe19 Fe6 2.533323 1_555
Fe19 Tm1 3.106823 1_555
Fe19 Tm2 3.135220 1_555
Fe19 Tm0 3.240295 1_555
Fe20 Fe21 2.392464 1_565
Fe20 Fe22 2.392464 1_555
Fe20 Fe9 2.533323 1_555
Fe20 Fe7 2.533323 1_555
Fe20 Tm1 3.106823 1_665
Fe20 Tm2 3.135220 1_555
Fe20 Tm0 3.240295 1_665
Fe21 Fe7 2.577765 1_545
Fe21 Tm0 3.106823 1_655
Fe21 Tm3 3.135214 1_555
Fe21 Tm1 3.240295 1_655
Fe22 Fe8 2.577765 1_655
Fe22 Fe9 2.577765 1_555
Fe22 Tm0 3.106823 1_665
Fe22 Tm3 3.135220 1_555
Fe22 Tm1 3.240295 1_665
Fe23 Fe6 2.577765 1_555
Fe23 Tm0 3.106823 1_555
Fe23 Tm3 3.135220 1_555
Fe23 Tm1 3.240295 1_555
Fe24 Fe28 2.392464 1_654
Fe24 Fe29 2.392464 1_544
Fe24 Fe4 2.413735 1_555
Fe24 Fe5 2.413735 1_655
Fe24 Fe7 2.577765 1_545
Fe24 Tm0 3.106823 1_655
Fe24 Tm3 3.135214 1_555
Fe24 Tm1 3.240295 1_654
Fe25 Fe27 2.392464 1_654
Fe25 Fe29 2.392464 1_554
Fe25 Fe3 2.413735 1_555
Fe25 Fe5 2.413735 1_655
Fe25 Fe8 2.577765 1_655
Fe25 Fe9 2.577765 1_555
Fe25 Tm0 3.106823 1_665
Fe25 Tm3 3.135220 1_555
Fe25 Tm1 3.240295 1_664
Fe26 Fe27 2.392464 1_544
Fe26 Fe28 2.392464 1_554
Fe26 Fe3 2.413735 1_555
Fe26 Fe4 2.413735 1_555
Fe26 Fe6 2.577765 1_555
Fe26 Tm0 3.106823 1_555
Fe26 Tm3 3.135220 1_555
Fe26 Tm1 3.240295 1_554
Fe27 Fe5 2.413735 1_556
Fe27 Fe4 2.413735 1_566
Fe27 Fe8 2.533323 1_556
Fe27 Tm1 3.106823 1_565
Fe27 Tm2 3.135214 1_555
Fe27 Tm0 3.240295 1_566
Fe28 Fe3 2.413735 1_556
Fe28 Fe5 2.413735 1_556
Fe28 Fe6 2.533323 1_556
Fe28 Tm1 3.106823 1_555
Fe28 Tm2 3.135220 1_555
Fe28 Tm0 3.240295 1_556
Fe29 Fe3 2.413735 1_556
Fe29 Fe4 2.413735 1_566
Fe29 Fe9 2.533323 1_556
Fe29 Fe7 2.533323 1_556
Fe29 Tm1 3.106823 1_665
Fe29 Tm2 3.135220 1_555
Fe29 Tm0 3.240295 1_666
