# generated using pymatgen
data_Ba3Sr5Ti8O20
_symmetry_space_group_name_H-M   'P 1'
_cell_length_a   11.45975039
_cell_length_b   11.44724703
_cell_length_c   17.84485099
_cell_angle_alpha   108.73899171
_cell_angle_beta   108.68062460
_cell_angle_gamma   89.95950910
_symmetry_Int_Tables_number   1
_chemical_formula_structural   Ba3Sr5Ti8O20
_chemical_formula_sum   'Ba12 Sr20 Ti32 O80'
_cell_volume   2086.38957087
_cell_formula_units_Z   4
loop_
 _symmetry_equiv_pos_site_id
 _symmetry_equiv_pos_as_xyz
  1  'x, y, z'
loop_
 _atom_site_type_symbol
 _atom_site_label
 _atom_site_symmetry_multiplicity
 _atom_site_fract_x
 _atom_site_fract_y
 _atom_site_fract_z
 _atom_site_occupancy
  Ba  Ba0  1  0.30590500  0.06021400  0.11911000  1
  Ba  Ba1  1  0.30697700  0.56076000  0.12063600  1
  Ba  Ba2  1  0.80610400  0.06136800  0.12088800  1
  Ba  Ba3  1  0.80569700  0.55993200  0.11919100  1
  Ba  Ba4  1  0.18786200  0.94018400  0.38123000  1
  Ba  Ba5  1  0.18477700  0.93634300  0.87809700  1
  Ba  Ba6  1  0.68506000  0.43608600  0.87812300  1
  Ba  Ba7  1  0.05636400  0.30938800  0.12013500  1
  Ba  Ba8  1  0.05618900  0.80897800  0.11919500  1
  Ba  Ba9  1  0.55662400  0.30940200  0.12028600  1
  Ba  Ba10  1  0.55674900  0.80953400  0.12032500  1
  Ba  Ba11  1  0.93431000  0.69073800  0.87762300  1
  Sr  Sr0  1  0.30374500  0.06112900  0.61226500  1
  Sr  Sr1  1  0.30703500  0.56174300  0.61289500  1
  Sr  Sr2  1  0.80536100  0.06016900  0.61212400  1
  Sr  Sr3  1  0.80447000  0.56095100  0.61340700  1
  Sr  Sr4  1  0.19242300  0.44217200  0.38744300  1
  Sr  Sr5  1  0.19251900  0.43925300  0.88562800  1
  Sr  Sr6  1  0.69328300  0.44306900  0.38794800  1
  Sr  Sr7  1  0.69206500  0.94089600  0.38656400  1
  Sr  Sr8  1  0.69198700  0.94090300  0.88654500  1
  Sr  Sr9  1  0.05345800  0.30278800  0.61282100  1
  Sr  Sr10  1  0.05554200  0.80087200  0.61262300  1
  Sr  Sr11  1  0.55668200  0.30097300  0.61222100  1
  Sr  Sr12  1  0.55523300  0.79978700  0.61135500  1
  Sr  Sr13  1  0.44150400  0.19458600  0.38667200  1
  Sr  Sr14  1  0.44120600  0.19551900  0.88620700  1
  Sr  Sr15  1  0.44365400  0.69594200  0.38735200  1
  Sr  Sr16  1  0.44341100  0.69831000  0.88638600  1
  Sr  Sr17  1  0.94267700  0.19645500  0.38749200  1
  Sr  Sr18  1  0.94279000  0.19659700  0.88684900  1
  Sr  Sr19  1  0.94166800  0.69431000  0.38768300  1
  Ti  Ti0  1  0.99485000  0.00007700  0.99837700  1
  Ti  Ti1  1  0.99838200  0.00009300  0.50126700  1
  Ti  Ti2  1  0.99707500  0.49806700  0.99770800  1
  Ti  Ti3  1  0.00105900  0.49981700  0.50141400  1
  Ti  Ti4  1  0.49653500  0.99894700  0.99730300  1
  Ti  Ti5  1  0.50041300  0.99942400  0.50060700  1
  Ti  Ti6  1  0.49508200  0.49833700  0.99758600  1
  Ti  Ti7  1  0.49911200  0.49869000  0.50032000  1
  Ti  Ti8  1  0.24668100  0.24985900  0.99808000  1
  Ti  Ti9  1  0.25041900  0.25250600  0.50169800  1
  Ti  Ti10  1  0.24666600  0.74711300  0.99723400  1
  Ti  Ti11  1  0.25023000  0.75037900  0.50068100  1
  Ti  Ti12  1  0.74625700  0.24752700  0.99748300  1
  Ti  Ti13  1  0.74928000  0.25071300  0.50002600  1
  Ti  Ti14  1  0.74545300  0.75006400  0.99836700  1
  Ti  Ti15  1  0.75025600  0.75135800  0.50108000  1
  Ti  Ti16  1  0.12098400  0.11457400  0.25331200  1
  Ti  Ti17  1  0.11210000  0.10831300  0.74702300  1
  Ti  Ti18  1  0.12015200  0.60940100  0.25387000  1
  Ti  Ti19  1  0.11702600  0.60198900  0.74643200  1
  Ti  Ti20  1  0.62190900  0.11438100  0.25431400  1
  Ti  Ti21  1  0.61208000  0.10213600  0.74734800  1
  Ti  Ti22  1  0.62097600  0.61237900  0.25468800  1
  Ti  Ti23  1  0.61277500  0.61072100  0.74699500  1
  Ti  Ti24  1  0.37167800  0.39139000  0.25453700  1
  Ti  Ti25  1  0.36402600  0.39213000  0.74793100  1
  Ti  Ti26  1  0.37326600  0.89301000  0.25308700  1
  Ti  Ti27  1  0.36507700  0.89253400  0.74677300  1
  Ti  Ti28  1  0.87013300  0.39152300  0.25459300  1
  Ti  Ti29  1  0.86471300  0.38840200  0.74558200  1
  Ti  Ti30  1  0.87007500  0.89205900  0.25415400  1
  Ti  Ti31  1  0.86140400  0.89344200  0.74763300  1
  O  O0  1  0.11905200  0.12550600  0.49522700  1
  O  O1  1  0.11739100  0.12436900  0.99379200  1
  O  O2  1  0.12114800  0.62170500  0.49355300  1
  O  O3  1  0.12139000  0.61974100  0.99409600  1
  O  O4  1  0.61979800  0.12097700  0.49139300  1
  O  O5  1  0.61904500  0.12104400  0.99276800  1
  O  O6  1  0.62089800  0.62144200  0.49259300  1
  O  O7  1  0.61653100  0.62344700  0.99343700  1
  O  O8  1  0.12176700  0.37388500  0.99859000  1
  O  O9  1  0.12999200  0.38005000  0.50919200  1
  O  O10  1  0.12142100  0.87443700  0.00019300  1
  O  O11  1  0.12844700  0.87919900  0.51079400  1
  O  O12  1  0.61994500  0.37238700  0.99929600  1
  O  O13  1  0.62942300  0.37996300  0.50987300  1
  O  O14  1  0.62122300  0.87510600  0.99941100  1
  O  O15  1  0.62895700  0.87907100  0.50808900  1
  O  O16  1  0.37393500  0.12442600  0.49550000  1
  O  O17  1  0.37036000  0.12317600  0.99282000  1
  O  O18  1  0.37024500  0.61954300  0.49125200  1
  O  O19  1  0.36892400  0.62021400  0.99248500  1
  O  O20  1  0.86804600  0.11999300  0.49062700  1
  O  O21  1  0.86818600  0.12217100  0.99370800  1
  O  O22  1  0.87167500  0.62148400  0.49412800  1
  O  O23  1  0.86936300  0.62224500  0.99500600  1
  O  O24  1  0.37090000  0.37506300  0.99942600  1
  O  O25  1  0.37912700  0.37945600  0.50900400  1
  O  O26  1  0.37285500  0.87284600  0.99850400  1
  O  O27  1  0.38021000  0.87833200  0.50891200  1
  O  O28  1  0.87245000  0.37235300  0.99880300  1
  O  O29  1  0.87964000  0.37998100  0.51009900  1
  O  O30  1  0.86976300  0.87728000  0.00054600  1
  O  O31  1  0.87864900  0.87917500  0.50986700  1
  O  O32  1  0.06092400  0.07424100  0.13127200  1
  O  O33  1  0.05851200  0.08739500  0.62901300  1
  O  O34  1  0.06299100  0.57122100  0.13187900  1
  O  O35  1  0.06940900  0.58498300  0.62976100  1
  O  O36  1  0.56251900  0.07347300  0.13180400  1
  O  O37  1  0.56656200  0.08368200  0.63019100  1
  O  O38  1  0.56276500  0.57258200  0.13243100  1
  O  O39  1  0.55952600  0.58531600  0.62831600  1
  O  O40  1  0.43617500  0.41109700  0.37221200  1
  O  O41  1  0.42684800  0.41864600  0.86653200  1
  O  O42  1  0.43674900  0.91409100  0.37162900  1
  O  O43  1  0.43390200  0.92313200  0.86567700  1
  O  O44  1  0.93574500  0.41333800  0.37294300  1
  O  O45  1  0.93317600  0.41941900  0.86483800  1
  O  O46  1  0.93159500  0.91158200  0.37229700  1
  O  O47  1  0.92515000  0.92917600  0.86753300  1
  O  O48  1  0.31326300  0.30922300  0.13191300  1
  O  O49  1  0.31610800  0.29542200  0.63073500  1
  O  O50  1  0.31469500  0.80808700  0.13157800  1
  O  O51  1  0.31891400  0.79411500  0.62961300  1
  O  O52  1  0.81225200  0.30893800  0.13235500  1
  O  O53  1  0.81161300  0.28959800  0.62798300  1
  O  O54  1  0.81186600  0.80911000  0.13231000  1
  O  O55  1  0.81277300  0.79609000  0.63003200  1
  O  O56  1  0.18639900  0.20867900  0.37251300  1
  O  O57  1  0.18154900  0.19682300  0.86581200  1
  O  O58  1  0.18481200  0.70128900  0.37296100  1
  O  O59  1  0.18308800  0.68660400  0.86589800  1
  O  O60  1  0.68559500  0.21209000  0.37225000  1
  O  O61  1  0.68084300  0.18766100  0.86660800  1
  O  O62  1  0.68709200  0.70907000  0.37273100  1
  O  O63  1  0.67683800  0.69750800  0.86668700  1
  O  O64  1  0.49316800  0.01632100  0.26022900  1
  O  O65  1  0.46185800  0.03146900  0.74537100  1
  O  O66  1  0.48925900  0.51715900  0.26103500  1
  O  O67  1  0.46872400  0.52115100  0.74695800  1
  O  O68  1  0.99080100  0.01519900  0.25939600  1
  O  O69  1  0.96588800  0.02415900  0.74637400  1
  O  O70  1  0.98719500  0.51582900  0.25957400  1
  O  O71  1  0.97223300  0.50898400  0.73761800  1
  O  O72  1  0.23842900  0.49051700  0.25959100  1
  O  O73  1  0.21530600  0.46572700  0.74510100  1
  O  O74  1  0.24447100  0.00030300  0.25507300  1
  O  O75  1  0.21992600  0.97924800  0.73914500  1
  O  O76  1  0.73865500  0.49285300  0.26086800  1
  O  O77  1  0.72474100  0.48247900  0.74076000  1
  O  O78  1  0.74138600  0.99694300  0.26021200  1
  O  O79  1  0.70950000  0.96719900  0.74458100  1
loop_
_geom_bond_atom_site_label_1
_geom_bond_atom_site_label_2
_geom_bond_distance
_geom_bond_site_symmetry_2
Ba0 O10 2.779965 1_545
Ba0 O48 2.784608 1_555
Ba0 O26 2.812553 1_544
Ba0 O1 2.857541 1_554
Ba0 O17 2.873081 1_554
Ba0 O36 2.876469 1_555
Ba0 O32 2.884748 1_555
Ba0 O64 2.923857 1_555
Ba0 O50 2.964353 1_545
Ba0 O74 3.002768 1_555
Ba1 O50 2.774133 1_555
Ba1 O24 2.791476 1_554
Ba1 O8 2.806442 1_554
Ba1 O3 2.824743 1_554
Ba1 O34 2.866313 1_555
Ba1 O19 2.870085 1_554
Ba1 O38 2.870884 1_555
Ba1 O66 2.887752 1_555
Ba1 O48 2.949472 1_555
Ba1 O72 3.153085 1_555
Ba2 O30 2.770984 1_545
Ba2 O52 2.774312 1_555
Ba2 O14 2.797993 1_544
Ba2 O5 2.854978 1_554
Ba2 O36 2.860004 1_555
Ba2 O21 2.862031 1_554
Ba2 O32 2.867037 1_655
Ba2 O68 2.890475 1_555
Ba2 O54 2.958675 1_545
Ba2 O78 3.104070 1_545
Ba3 O54 2.785074 1_555
Ba3 O12 2.802785 1_554
Ba3 O28 2.810275 1_554
Ba3 O23 2.829164 1_554
Ba3 O7 2.862454 1_554
Ba3 O38 2.868084 1_555
Ba3 O34 2.883722 1_655
Ba3 O70 2.886164 1_555
Ba3 O52 2.956027 1_555
Ba3 O76 3.172402 1_555
Ba4 O58 2.690554 1_555
Ba4 O0 2.740962 1_565
Ba4 O16 2.758783 1_565
Ba4 O74 2.809666 1_565
Ba4 O11 2.888373 1_555
Ba4 O27 2.892849 1_555
Ba4 O46 2.902600 1_455
Ba4 O42 2.921038 1_555
Ba4 O68 2.935239 1_465
Ba4 O56 3.126739 1_565
Ba5 O1 2.766815 1_565
Ba5 O17 2.773521 1_565
Ba5 O10 2.789721 1_556
Ba5 O59 2.796097 1_555
Ba5 O26 2.797342 1_555
Ba5 O75 2.823885 1_555
Ba5 O47 2.919857 1_455
Ba5 O43 2.933545 1_555
Ba5 O57 3.058608 1_565
Ba5 O69 3.250461 1_465
Ba6 O7 2.765550 1_555
Ba6 O23 2.771461 1_555
Ba6 O61 2.783889 1_555
Ba6 O12 2.794915 1_555
Ba6 O28 2.797544 1_555
Ba6 O77 2.836916 1_555
Ba6 O41 2.901865 1_555
Ba6 O45 2.929027 1_555
Ba6 O63 3.063596 1_555
Ba6 O67 3.211973 1_555
Ba7 O32 2.761305 1_555
Ba7 O28 2.779710 1_454
Ba7 O8 2.807535 1_554
Ba7 O1 2.828041 1_554
Ba7 O21 2.848964 1_454
Ba7 O72 2.865311 1_555
Ba7 O52 2.874872 1_455
Ba7 O48 2.883606 1_555
Ba7 O34 2.935956 1_555
Ba7 O70 3.144374 1_455
Ba8 O10 2.769470 1_555
Ba8 O30 2.796793 1_455
Ba8 O34 2.801601 1_555
Ba8 O23 2.826247 1_454
Ba8 O3 2.862426 1_554
Ba8 O54 2.883337 1_455
Ba8 O50 2.899466 1_555
Ba8 O74 2.928270 1_565
Ba8 O32 2.973581 1_565
Ba8 O68 3.130055 1_465
Ba9 O36 2.772779 1_555
Ba9 O12 2.777127 1_554
Ba9 O24 2.800921 1_554
Ba9 O17 2.838183 1_554
Ba9 O48 2.862118 1_555
Ba9 O52 2.867848 1_555
Ba9 O5 2.868265 1_554
Ba9 O76 2.885127 1_555
Ba9 O38 2.949443 1_555
Ba9 O66 3.156249 1_555
Ba10 O26 2.787031 1_554
Ba10 O38 2.788456 1_555
Ba10 O14 2.797787 1_554
Ba10 O7 2.833129 1_554
Ba10 O50 2.844999 1_555
Ba10 O54 2.862373 1_555
Ba10 O19 2.866788 1_554
Ba10 O78 2.914246 1_555
Ba10 O36 2.961248 1_565
Ba10 O64 3.119748 1_565
Ba11 O23 2.758828 1_555
Ba11 O47 2.792246 1_555
Ba11 O3 2.793771 1_655
Ba11 O10 2.801895 1_656
Ba11 O30 2.818907 1_556
Ba11 O71 2.848499 1_555
Ba11 O63 2.896630 1_555
Ba11 O59 2.923936 1_655
Ba11 O45 3.039973 1_555
Ba11 O77 3.150516 1_555
O0 Ti9 2.043788 1_555
O0 Ti1 2.045149 1_455
O0 Sr17 2.636798 1_455
O0 Sr9 2.712756 1_555
O0 Sr0 2.745865 1_555
O1 Ti8 2.030867 1_555
O1 Ti0 2.038212 1_455
O1 Sr18 2.625738 1_455
O2 Ti3 2.027936 1_555
O2 Ti11 2.033750 1_555
O2 Sr4 2.638990 1_555
O2 Sr19 2.647202 1_455
O2 Sr10 2.739996 1_555
O2 Sr1 2.752347 1_555
O3 Ti10 2.022155 1_555
O3 Ti2 2.023112 1_455
O3 Sr5 2.668050 1_555
O4 Ti5 2.031922 1_545
O4 Ti13 2.034884 1_555
O4 Sr13 2.634437 1_555
O4 Sr7 2.635718 1_545
O4 Sr11 2.749561 1_555
O4 Sr2 2.770343 1_555
O5 Ti12 2.018616 1_555
O5 Ti4 2.019728 1_545
O5 Sr8 2.654277 1_545
O5 Sr14 2.655715 1_555
O6 Ti15 2.036361 1_555
O6 Ti7 2.047404 1_555
O6 Sr6 2.623824 1_555
O6 Sr15 2.638738 1_555
O6 Sr12 2.732233 1_555
O6 Sr3 2.757678 1_555
O7 Ti14 2.032028 1_555
O7 Ti6 2.032381 1_555
O7 Sr16 2.634635 1_555
O8 Ti2 2.014943 1_455
O8 Ti8 2.015467 1_555
O8 Sr18 2.662222 1_455
O8 Sr5 2.701430 1_555
O9 Ti9 2.010986 1_555
O9 Ti3 2.017441 1_555
O9 Sr1 2.644741 1_555
O9 Sr9 2.657459 1_555
O9 Sr4 2.779716 1_555
O9 Sr17 2.797978 1_455
O10 Ti0 2.042136 1_464
O10 Ti10 2.045307 1_554
O11 Ti11 2.035255 1_555
O11 Ti1 2.037559 1_465
O11 Sr10 2.612337 1_555
O11 Sr0 2.627614 1_565
O11 Sr19 2.809621 1_455
O12 Ti6 2.030890 1_555
O12 Ti12 2.033860 1_555
O12 Sr14 2.664588 1_555
O13 Ti7 2.022168 1_555
O13 Ti13 2.022683 1_555
O13 Sr11 2.624040 1_555
O13 Sr3 2.627207 1_555
O13 Sr6 2.796748 1_555
O13 Sr13 2.819607 1_555
O14 Ti4 2.012416 1_555
O14 Ti14 2.018156 1_555
O14 Sr16 2.658275 1_555
O14 Sr8 2.702451 1_555
O15 Ti5 2.018716 1_555
O15 Ti15 2.018972 1_555
O15 Sr2 2.638152 1_565
O15 Sr12 2.646934 1_555
O15 Sr7 2.778163 1_555
O15 Sr15 2.778389 1_555
O16 Ti5 2.037862 1_545
O16 Ti9 2.039256 1_555
O16 Sr13 2.642413 1_555
O16 Sr11 2.704742 1_555
O16 Sr0 2.749203 1_555
O17 Ti8 2.028667 1_555
O17 Ti4 2.028676 1_545
O17 Sr14 2.639527 1_555
O18 Ti7 2.027026 1_555
O18 Ti11 2.036279 1_555
O18 Sr4 2.622555 1_555
O18 Sr15 2.636701 1_555
O18 Sr12 2.756644 1_555
O18 Sr1 2.757749 1_555
O19 Ti6 2.009814 1_555
O19 Ti10 2.018507 1_555
O19 Sr5 2.648117 1_555
O19 Sr16 2.690053 1_555
O20 Ti13 2.025288 1_555
O20 Ti1 2.033137 1_555
O20 Sr7 2.622858 1_545
O20 Sr17 2.632324 1_555
O20 Sr2 2.763695 1_555
O20 Sr9 2.784720 1_655
O21 Ti12 2.002858 1_555
O21 Ti0 2.015386 1_555
O21 Sr8 2.650028 1_545
O21 Sr18 2.679960 1_555
O22 Ti3 2.035934 1_655
O22 Ti15 2.037375 1_555
O22 Sr19 2.634542 1_555
O22 Sr6 2.641747 1_555
O22 Sr10 2.736773 1_655
O22 Sr3 2.757244 1_555
O23 Ti14 2.038640 1_555
O23 Ti2 2.039814 1_555
O24 Ti8 2.009981 1_555
O24 Ti6 2.019940 1_555
O24 Sr5 2.672058 1_555
O24 Sr14 2.706961 1_555
O25 Ti7 2.013116 1_555
O25 Ti9 2.015563 1_555
O25 Sr1 2.639490 1_555
O25 Sr11 2.645702 1_555
O25 Sr13 2.790012 1_555
O25 Sr4 2.797167 1_555
O26 Ti10 2.030829 1_555
O26 Ti4 2.033535 1_555
O26 Sr16 2.667232 1_555
O27 Ti5 2.026424 1_555
O27 Ti11 2.027406 1_555
O27 Sr12 2.622588 1_555
O27 Sr0 2.664777 1_565
O27 Sr15 2.773349 1_555
O28 Ti12 2.023152 1_555
O28 Ti2 2.037119 1_555
O28 Sr18 2.671248 1_555
O29 Ti13 2.028283 1_555
O29 Ti3 2.029619 1_655
O29 Sr9 2.609200 1_655
O29 Sr3 2.644455 1_555
O29 Sr17 2.789158 1_555
O29 Sr6 2.803747 1_555
O30 Ti14 2.020565 1_554
O30 Ti0 2.026235 1_564
O30 Sr8 2.667278 1_554
O31 Ti15 2.009508 1_555
O31 Ti1 2.023919 1_565
O31 Sr2 2.622582 1_565
O31 Sr10 2.635804 1_655
O31 Sr19 2.792077 1_555
O31 Sr7 2.809889 1_555
O32 Ti16 1.955471 1_555
O32 Ti0 2.115442 1_454
O33 Ti17 1.927939 1_555
O33 Ti1 2.049670 1_455
O33 Sr9 2.571602 1_555
O33 Sr2 2.825755 1_455
O33 Sr0 2.925177 1_555
O34 Ti18 1.958234 1_555
O34 Ti2 2.135055 1_454
O35 Ti19 1.918922 1_555
O35 Ti3 2.055928 1_555
O35 Sr10 2.584608 1_555
O35 Sr1 2.837140 1_555
O35 Sr3 2.959893 1_455
O35 Sr9 3.146110 1_555
O36 Ti20 1.962499 1_555
O36 Ti4 2.140795 1_544
O37 Ti21 1.924927 1_555
O37 Ti5 2.072984 1_545
O37 Sr11 2.606063 1_555
O37 Sr2 2.858955 1_555
O37 Sr0 2.927609 1_555
O38 Ti22 1.960035 1_555
O38 Ti6 2.146042 1_554
O39 Ti23 1.928403 1_555
O39 Ti7 2.052402 1_555
O39 Sr12 2.566960 1_555
O39 Sr1 2.822078 1_555
O39 Sr3 2.908163 1_555
O40 Ti24 1.925713 1_555
O40 Ti7 2.055170 1_555
O40 Sr13 2.571702 1_555
O40 Sr6 2.880890 1_555
O40 Sr4 2.902750 1_555
O40 Sr15 3.183078 1_555
O41 Ti25 1.923841 1_555
O41 Ti6 2.090859 1_555
O41 Sr14 2.685669 1_555
O41 Sr5 2.813631 1_555
O41 Sr16 3.104743 1_555
O42 Ti26 1.936156 1_555
O42 Ti5 2.065093 1_555
O42 Sr15 2.599365 1_555
O42 Sr7 2.859202 1_555
O42 Sr13 3.133999 1_565
O43 Ti27 1.922951 1_555
O43 Ti4 2.096809 1_555
O43 Sr16 2.712325 1_555
O43 Sr8 2.859030 1_555
O43 Sr14 3.018347 1_565
O44 Ti28 1.931883 1_555
O44 Ti3 2.059040 1_655
O44 Sr17 2.576478 1_555
O44 Sr4 2.878726 1_655
O44 Sr6 2.885237 1_555
O44 Sr19 3.140707 1_555
O45 Ti29 1.927642 1_555
O45 Ti2 2.117968 1_555
O45 Sr18 2.699644 1_555
O45 Sr5 2.874462 1_655
O46 Ti30 1.933145 1_555
O46 Ti1 2.069671 1_565
O46 Sr19 2.587036 1_555
O46 Sr7 2.846695 1_555
O46 Sr17 3.183433 1_565
O47 Ti31 1.927615 1_555
O47 Ti0 2.082566 1_565
O47 Sr8 2.797067 1_555
O47 Sr18 2.968013 1_565
O48 Ti24 1.964992 1_555
O48 Ti8 2.130327 1_554
O49 Ti25 1.917929 1_555
O49 Ti9 2.067249 1_555
O49 Sr0 2.593172 1_555
O49 Sr11 2.882878 1_555
O49 Sr9 2.927357 1_555
O50 Ti26 1.952282 1_555
O50 Ti10 2.137906 1_554
O51 Ti27 1.923310 1_555
O51 Ti11 2.064975 1_555
O51 Sr1 2.578344 1_555
O51 Sr12 2.832586 1_555
O51 Sr10 2.938683 1_555
O51 Sr0 3.168825 1_565
O52 Ti28 1.959827 1_555
O52 Ti12 2.146245 1_554
O53 Ti29 1.926478 1_555
O53 Ti13 2.055421 1_555
O53 Sr2 2.548050 1_555
O53 Sr11 2.850882 1_555
O53 Sr9 2.878248 1_655
O53 Sr3 3.198162 1_555
O54 Ti30 1.954330 1_555
O54 Ti14 2.132257 1_554
O55 Ti31 1.924984 1_555
O55 Ti15 2.063502 1_555
O55 Sr3 2.609882 1_555
O55 Sr12 2.863927 1_555
O55 Sr10 2.899003 1_655
O56 Ti16 1.937646 1_555
O56 Ti9 2.068405 1_555
O56 Sr4 2.598234 1_555
O56 Sr13 2.861594 1_555
O56 Sr17 2.897354 1_455
O57 Ti17 1.921947 1_555
O57 Ti8 2.109058 1_555
O57 Sr5 2.680267 1_555
O57 Sr18 2.878521 1_455
O57 Sr14 2.880382 1_555
O58 Ti18 1.930773 1_555
O58 Ti11 2.038497 1_555
O58 Sr19 2.884783 1_455
O58 Sr15 2.896601 1_555
O58 Sr4 3.057827 1_555
O59 Ti19 1.922644 1_555
O59 Ti10 2.089795 1_555
O59 Sr16 2.884741 1_555
O59 Sr5 2.961196 1_555
O60 Ti20 1.928113 1_555
O60 Ti13 2.052779 1_555
O60 Sr6 2.566317 1_555
O60 Sr17 2.881443 1_555
O60 Sr13 2.902742 1_555
O61 Ti21 1.922679 1_555
O61 Ti12 2.082497 1_555
O61 Sr14 2.875170 1_555
O61 Sr18 2.904160 1_555
O61 Sr8 2.955993 1_545
O62 Ti22 1.927982 1_555
O62 Ti15 2.056743 1_555
O62 Sr7 2.583985 1_555
O62 Sr19 2.853150 1_555
O62 Sr15 2.892291 1_555
O62 Sr6 3.141542 1_555
O63 Ti23 1.929027 1_555
O63 Ti14 2.100141 1_555
O63 Sr8 2.691754 1_555
O63 Sr16 2.807066 1_555
O64 Ti20 1.904216 1_555
O64 Ti26 1.916182 1_545
O64 Sr13 2.738893 1_555
O64 Sr7 2.996560 1_545
O65 Ti21 1.887841 1_555
O65 Ti27 1.950891 1_545
O65 Sr0 2.607790 1_555
O65 Sr14 2.691977 1_555
O66 Ti22 1.915862 1_555
O66 Ti24 1.922815 1_555
O66 Sr15 2.707707 1_555
O66 Sr6 3.025605 1_555
O67 Ti25 1.911417 1_555
O67 Ti23 1.943621 1_555
O67 Sr1 2.691825 1_555
O67 Sr16 2.758059 1_555
O68 Ti16 1.927957 1_655
O68 Ti30 1.935185 1_545
O68 Sr17 2.755532 1_555
O69 Ti31 1.927331 1_545
O69 Ti17 1.928290 1_655
O69 Sr2 2.665260 1_555
O69 Sr18 2.737764 1_555
O70 Ti18 1.910742 1_655
O70 Ti28 1.917654 1_555
O70 Sr19 2.726577 1_555
O70 Sr4 3.040475 1_655
O71 Ti19 1.907667 1_655
O71 Ti29 1.919461 1_555
O71 Sr3 2.660602 1_555
O71 Sr9 3.056900 1_655
O72 Ti24 1.909842 1_555
O72 Ti18 1.922928 1_555
O72 Sr4 2.715080 1_555
O72 Sr15 3.063840 1_555
O73 Ti25 1.893969 1_555
O73 Ti19 1.921702 1_555
O73 Sr9 2.619637 1_555
O73 Sr5 2.712267 1_555
O74 Ti26 1.921246 1_545
O74 Ti16 1.926132 1_555
O74 Sr13 2.968845 1_555
O75 Ti17 1.924757 1_565
O75 Ti27 1.926182 1_555
O75 Sr10 2.671036 1_555
O75 Sr0 3.112167 1_565
O76 Ti28 1.910585 1_555
O76 Ti22 1.924051 1_555
O76 Sr6 2.706250 1_555
O76 Sr19 3.022212 1_555
O77 Ti29 1.925826 1_555
O77 Ti23 1.948756 1_555
O77 Sr11 2.720512 1_555
O77 Sr3 3.073980 1_555
O78 Ti30 1.909006 1_555
O78 Ti20 1.920670 1_565
O78 Sr7 2.749770 1_555
O78 Sr17 3.002361 1_565
O79 Ti21 1.902273 1_565
O79 Ti31 1.926886 1_555
O79 Sr12 2.614402 1_555
O79 Sr8 2.713738 1_555
