# generated using pymatgen
data_Mg14AlSi
_symmetry_space_group_name_H-M   'P 1'
_cell_length_a   6.25464302
_cell_length_b   6.25464254
_cell_length_c   9.98308085
_cell_angle_alpha   90.00000000
_cell_angle_beta   90.00000000
_cell_angle_gamma   120.00000263
_symmetry_Int_Tables_number   1
_chemical_formula_structural   Mg14AlSi
_chemical_formula_sum   'Mg14 Al1 Si1'
_cell_volume   338.22073631
_cell_formula_units_Z   1
loop_
 _symmetry_equiv_pos_site_id
 _symmetry_equiv_pos_as_xyz
  1  'x, y, z'
loop_
 _atom_site_type_symbol
 _atom_site_label
 _atom_site_symmetry_multiplicity
 _atom_site_fract_x
 _atom_site_fract_y
 _atom_site_fract_z
 _atom_site_occupancy
  Mg  Mg0  1  0.16701047  0.83350474  0.12500000  1
  Mg  Mg1  1  0.16500323  0.83250111  0.62500000  1
  Mg  Mg2  1  0.66649526  0.33298953  0.12500000  1
  Mg  Mg3  1  0.66749889  0.33499677  0.62500000  1
  Mg  Mg4  1  0.66649526  0.83350474  0.12500000  1
  Mg  Mg5  1  0.66749889  0.83250111  0.62500000  1
  Mg  Mg6  1  0.33082032  0.16917968  0.37690281  1
  Mg  Mg7  1  0.33082032  0.16917968  0.87309719  1
  Mg  Mg8  1  0.33082032  0.66164163  0.37690281  1
  Mg  Mg9  1  0.33082032  0.66164163  0.87309719  1
  Mg  Mg10  1  0.83835837  0.16917968  0.37690281  1
  Mg  Mg11  1  0.83835837  0.16917968  0.87309719  1
  Mg  Mg12  1  0.83333300  0.66666700  0.37395340  1
  Mg  Mg13  1  0.83333300  0.66666700  0.87604660  1
  Al  Al0  1  0.16666700  0.33333300  0.12500000  1
  Si  Si0  1  0.16666700  0.33333300  0.62500000  1
loop_
_geom_bond_atom_site_label_1
_geom_bond_atom_site_label_2
_geom_bond_distance
_geom_bond_site_symmetry_2
Mg0 Mg12 3.073045 1_455
Mg0 Mg13 3.073045 1_454
Mg0 Mg8 3.103329 1_555
Mg0 Mg9 3.103329 1_554
Mg0 Mg6 3.103336 1_565
Mg0 Mg7 3.103336 1_564
Mg0 Mg2 3.124099 1_565
Mg0 Mg4 3.124099 1_555
Mg0 Mg2 3.130544 1_455
Mg0 Mg4 3.130544 1_455
Mg1 Mg8 3.075781 1_555
Mg1 Mg9 3.075781 1_555
Mg1 Mg6 3.075787 1_565
Mg1 Mg7 3.075787 1_565
Mg1 Mg13 3.083623 1_455
Mg1 Mg12 3.083623 1_455
Mg1 Mg3 3.111712 1_455
Mg1 Mg5 3.111712 1_455
Mg1 Si0 3.127334 1_555
Mg1 Si0 3.127334 1_565
Mg1 Mg3 3.142931 1_565
Mg1 Mg5 3.142931 1_555
Mg2 Mg6 3.103336 1_555
Mg2 Mg7 3.103336 1_554
Mg2 Mg4 3.124099 1_545
Mg2 Mg4 3.130544 1_555
Mg3 Mg7 3.075787 1_555
Mg3 Mg6 3.075787 1_555
Mg3 Mg5 3.111712 1_555
Mg3 Si0 3.127334 1_655
Mg3 Si0 3.127335 1_555
Mg3 Mg5 3.142931 1_545
Mg4 Mg8 3.103336 1_555
Mg4 Mg9 3.103336 1_554
Mg5 Mg9 3.075787 1_555
Mg5 Mg8 3.075787 1_555
Mg5 Si0 3.127334 1_665
Mg5 Si0 3.127334 1_555
Mg6 Si0 3.049078 1_555
Mg6 Mg8 3.080173 1_555
Mg6 Mg8 3.174469 1_545
Mg7 Si0 3.049078 1_555
Mg7 Mg9 3.080173 1_555
Mg7 Mg9 3.174469 1_545
Mg8 Si0 3.049084 1_555
Mg9 Si0 3.049084 1_555
Mg10 Si0 3.049084 1_655
Mg10 Mg3 3.075781 1_555
Mg10 Mg5 3.075787 1_545
Mg10 Mg8 3.080173 1_655
Mg10 Mg6 3.080174 1_655
Mg10 Mg2 3.103329 1_555
Mg10 Mg4 3.103336 1_545
Mg10 Mg12 3.127578 1_545
Mg10 Mg12 3.127578 1_555
Mg10 Mg8 3.174469 1_545
Mg10 Mg6 3.174469 1_555
Mg11 Si0 3.049084 1_655
Mg11 Mg3 3.075781 1_555
Mg11 Mg5 3.075787 1_545
Mg11 Mg9 3.080173 1_655
Mg11 Mg7 3.080174 1_655
Mg11 Mg2 3.103329 1_556
Mg11 Mg4 3.103336 1_546
Mg11 Mg13 3.127578 1_545
Mg11 Mg13 3.127578 1_555
Mg11 Mg9 3.174469 1_545
Mg11 Mg7 3.174469 1_555
Mg12 Mg4 3.073039 1_555
Mg12 Mg2 3.073045 1_555
Mg12 Mg5 3.083616 1_555
Mg12 Mg3 3.083622 1_555
Mg12 Mg6 3.127578 1_665
Mg12 Mg6 3.127578 1_555
Mg12 Mg8 3.127579 1_555
Mg12 Mg8 3.127579 1_655
Mg13 Mg4 3.073039 1_556
Mg13 Mg2 3.073045 1_556
Mg13 Mg5 3.083616 1_555
Mg13 Mg3 3.083622 1_555
Mg13 Mg7 3.127578 1_665
Mg13 Mg7 3.127578 1_555
Mg13 Mg9 3.127579 1_555
Mg13 Mg9 3.127579 1_655
Al0 Mg6 3.080018 1_555
Al0 Mg7 3.080018 1_554
Al0 Mg8 3.080024 1_555
Al0 Mg9 3.080024 1_554
Al0 Mg10 3.080025 1_455
Al0 Mg11 3.080025 1_454
Al0 Mg0 3.127322 1_545
Al0 Mg4 3.127322 1_555
Al0 Mg4 3.127322 1_445
Al0 Mg0 3.127322 1_555
Al0 Mg2 3.127322 1_555
Al0 Mg2 3.127322 1_455
