# generated using pymatgen
data_Al9Co2Ni
_symmetry_space_group_name_H-M   'P 1'
_cell_length_a   10.48095867
_cell_length_b   10.48095867
_cell_length_c   10.48095867
_cell_angle_alpha   137.86464295
_cell_angle_beta   109.95708241
_cell_angle_gamma   85.24597882
_symmetry_Int_Tables_number   1
_chemical_formula_structural   Al9Co2Ni
_chemical_formula_sum   'Al36 Co8 Ni4'
_cell_volume   699.07620739
_cell_formula_units_Z   4
loop_
 _symmetry_equiv_pos_site_id
 _symmetry_equiv_pos_as_xyz
  1  'x, y, z'
loop_
 _atom_site_type_symbol
 _atom_site_label
 _atom_site_symmetry_multiplicity
 _atom_site_fract_x
 _atom_site_fract_y
 _atom_site_fract_z
 _atom_site_occupancy
  Al  Al0  1  0.16818200  0.00000000  0.16818200  1
  Al  Al1  1  0.83181800  0.00000000  0.83181800  1
  Al  Al2  1  0.59956300  0.55802900  0.66663300  1
  Al  Al3  1  0.10860400  0.44197100  0.04153400  1
  Al  Al4  1  0.40043700  0.06707000  0.95846600  1
  Al  Al5  1  0.89139600  0.93293000  0.33336700  1
  Al  Al6  1  0.40043700  0.44197100  0.33336700  1
  Al  Al7  1  0.89139600  0.55802900  0.95846600  1
  Al  Al8  1  0.59956300  0.93293000  0.04153400  1
  Al  Al9  1  0.10860400  0.06707000  0.66663300  1
  Al  Al10  1  0.24356600  0.74356600  0.50000000  1
  Al  Al11  1  0.75643400  0.25643400  0.50000000  1
  Al  Al12  1  0.74923600  0.58668500  0.16255100  1
  Al  Al13  1  0.57586600  0.41331500  0.16255100  1
  Al  Al14  1  0.25076400  0.41331500  0.83744900  1
  Al  Al15  1  0.42413400  0.58668500  0.83744900  1
  Al  Al16  1  0.19817300  0.87154700  0.32662600  1
  Al  Al17  1  0.45507900  0.12845300  0.32662600  1
  Al  Al18  1  0.80182700  0.12845300  0.67337400  1
  Al  Al19  1  0.54492100  0.87154700  0.67337400  1
  Al  Al20  1  0.00000000  0.50000000  0.50000000  1
  Al  Al21  1  0.24413600  0.38921200  0.45463700  1
  Al  Al22  1  0.06542500  0.61078800  0.85492400  1
  Al  Al23  1  0.75586400  0.21050100  0.14507600  1
  Al  Al24  1  0.93457500  0.78949900  0.54536300  1
  Al  Al25  1  0.75586400  0.61078800  0.54536300  1
  Al  Al26  1  0.93457500  0.38921200  0.14507600  1
  Al  Al27  1  0.24413600  0.78949900  0.85492400  1
  Al  Al28  1  0.06542500  0.21050100  0.45463700  1
  Al  Al29  1  0.86418400  0.86418400  0.00000000  1
  Al  Al30  1  0.13581600  0.13581600  0.00000000  1
  Al  Al31  1  0.50000000  0.00000000  0.50000000  1
  Al  Al32  1  0.59789400  0.36301700  0.76512300  1
  Al  Al33  1  0.40210600  0.63698300  0.23487700  1
  Al  Al34  1  0.40210600  0.16722900  0.76512300  1
  Al  Al35  1  0.59789400  0.83277100  0.23487700  1
  Co  Co0  1  0.00000000  0.81465100  0.81465100  1
  Co  Co1  1  0.00000000  0.18534900  0.18534900  1
  Co  Co2  1  0.69854100  0.69854100  0.00000000  1
  Co  Co3  1  0.30145900  0.30145900  0.00000000  1
  Co  Co4  1  0.33119000  0.79454700  0.12573700  1
  Co  Co5  1  0.33119000  0.20545300  0.53664300  1
  Co  Co6  1  0.66881000  0.79454700  0.46335700  1
  Co  Co7  1  0.66881000  0.20545300  0.87426300  1
  Ni  Ni0  1  0.02292000  0.71146800  0.31145100  1
  Ni  Ni1  1  0.59998300  0.28853200  0.31145100  1
  Ni  Ni2  1  0.97708000  0.28853200  0.68854900  1
  Ni  Ni3  1  0.40001700  0.71146800  0.68854900  1
loop_
_geom_bond_atom_site_label_1
_geom_bond_atom_site_label_2
_geom_bond_distance
_geom_bond_site_symmetry_2
Al0 Co1 2.458424 1_555
Al0 Co0 2.458424 1_544
Al0 Co5 2.498393 1_555
Al0 Co4 2.498393 1_545
Al0 Al28 2.651563 1_555
Al0 Al22 2.651563 1_544
Al0 Al21 2.651563 1_555
Al0 Al27 2.651563 1_544
Al0 Al17 2.749274 1_555
Al0 Al16 2.749274 1_545
Al0 Al30 2.912339 1_555
Al0 Al29 2.912339 1_445
Al1 Co1 2.458424 1_656
Al1 Co0 2.458424 1_645
Al1 Co7 2.498393 1_555
Al1 Co6 2.498393 1_545
Al1 Al23 2.651563 1_556
Al1 Al25 2.651563 1_545
Al1 Al26 2.651563 1_556
Al1 Al24 2.651563 1_545
Al1 Al19 2.749274 1_545
Al1 Al18 2.749274 1_555
Al1 Al30 2.912339 1_656
Al1 Al29 2.912339 1_546
Al2 Co2 2.366525 1_556
Al2 Ni3 2.497136 1_555
Al2 Ni1 2.500116 1_555
Al2 Al6 2.679360 1_555
Al2 Al25 2.686787 1_555
Al2 Al8 2.824950 1_556
Al2 Al32 2.896708 1_555
Al2 Al29 2.903204 1_556
Al3 Co3 2.366525 1_555
Al3 Ni2 2.497137 1_454
Al3 Ni0 2.500109 1_555
Al3 Al7 2.679360 1_454
Al3 Al9 2.824950 1_554
Al3 Al33 2.896708 1_555
Al3 Al30 2.903204 1_555
Al4 Co3 2.366525 1_556
Al4 Ni1 2.497136 1_556
Al4 Ni3 2.500116 1_545
Al4 Al8 2.679360 1_546
Al4 Al6 2.824950 1_556
Al5 Co2 2.366525 1_555
Al5 Ni0 2.497141 1_655
Al5 Ni2 2.500116 1_565
Al5 Al9 2.679360 1_665
Al5 Al7 2.824950 1_554
Al6 Co3 2.366525 1_555
Al6 Ni1 2.497136 1_555
Al6 Ni3 2.500116 1_555
Al7 Co2 2.366525 1_556
Al7 Ni0 2.497137 1_656
Al7 Ni2 2.500109 1_555
Al8 Co2 2.366525 1_555
Al8 Ni3 2.497136 1_554
Al8 Ni1 2.500116 1_565
Al9 Co3 2.366525 1_556
Al9 Ni2 2.497141 1_455
Al9 Ni0 2.500116 1_545
Al10 Ni0 2.321583 1_555
Al10 Ni3 2.321591 1_555
Al10 Al4 2.942163 1_565
Al10 Al3 2.942163 1_555
Al10 Al9 2.942163 1_565
Al10 Al6 2.942163 1_555
Al11 Ni2 2.321583 1_555
Al11 Ni1 2.321591 1_555
Al11 Al7 2.942163 1_555
Al11 Al2 2.942163 1_555
Al11 Al8 2.942163 1_545
Al11 Al5 2.942163 1_545
Al12 Co6 2.592186 1_555
Al12 Co7 2.592186 1_554
Al12 Co2 2.607759 1_555
Al12 Ni0 2.629251 1_655
Al12 Al35 2.643099 1_555
Al12 Al32 2.643099 1_554
Al12 Al24 2.665500 1_555
Al12 Al26 2.665500 1_555
Al12 Al13 2.674113 1_555
Al12 Al5 2.834463 1_555
Al12 Al7 2.834463 1_554
Al13 Co7 2.592186 1_554
Al13 Co6 2.592186 1_555
Al13 Co3 2.607759 1_555
Al13 Ni1 2.629242 1_555
Al13 Al34 2.643099 1_554
Al13 Al33 2.643099 1_555
Al13 Al25 2.665500 1_555
Al13 Al23 2.665500 1_555
Al13 Al6 2.834463 1_555
Al13 Al4 2.834463 1_554
Al14 Co4 2.592186 1_556
Al14 Co5 2.592186 1_555
Al14 Co3 2.607759 1_556
Al14 Ni2 2.629251 1_455
Al14 Al34 2.643099 1_555
Al14 Al33 2.643099 1_556
Al14 Al22 2.665500 1_555
Al14 Al28 2.665500 1_555
Al14 Al15 2.674113 1_555
Al14 Al9 2.834463 1_555
Al14 Al3 2.834463 1_556
Al15 Co4 2.592186 1_556
Al15 Co5 2.592186 1_555
Al15 Co2 2.607759 1_556
Al15 Ni3 2.629242 1_555
Al15 Al32 2.643099 1_555
Al15 Al35 2.643099 1_556
Al15 Al27 2.665500 1_555
Al15 Al21 2.665500 1_555
Al15 Al8 2.834463 1_556
Al15 Al2 2.834463 1_555
Al16 Ni0 2.475839 1_555
Al16 Co4 2.515007 1_555
Al16 Co5 2.515007 1_565
Al16 Al31 2.876704 1_565
Al16 Al3 2.985617 1_555
Al16 Al9 2.985617 1_565
Al16 Al22 3.121285 1_554
Al16 Al28 3.121285 1_565
Al17 Ni1 2.475848 1_555
Al17 Co4 2.515007 1_545
Al17 Co5 2.515007 1_555
Al17 Al31 2.876704 1_555
Al17 Al8 2.985617 1_545
Al17 Al2 2.985617 1_555
Al17 Al27 3.121285 1_544
Al17 Al21 3.121285 1_555
Al18 Ni2 2.475839 1_555
Al18 Co6 2.515007 1_545
Al18 Co7 2.515007 1_555
Al18 Al31 2.876704 1_555
Al18 Al5 2.985617 1_545
Al18 Al7 2.985617 1_555
Al18 Al24 3.121285 1_545
Al18 Al26 3.121285 1_556
Al19 Ni3 2.475848 1_555
Al19 Co7 2.515007 1_565
Al19 Co6 2.515007 1_555
Al19 Al31 2.876704 1_565
Al19 Al4 2.985617 1_565
Al19 Al6 2.985617 1_555
Al19 Al25 3.121285 1_555
Al19 Al23 3.121285 1_566
Al20 Co0 2.370955 1_555
Al20 Co1 2.370955 1_555
Al20 Al22 2.764216 1_555
Al20 Al28 2.764216 1_555
Al20 Al27 2.764216 1_555
Al20 Al25 2.764216 1_455
Al20 Al21 2.764216 1_555
Al20 Al23 2.764216 1_455
Al20 Al24 2.764216 1_455
Al20 Al26 2.764216 1_455
Al21 Ni3 2.446839 1_555
Al21 Co1 2.472034 1_555
Al21 Co5 2.628519 1_555
Al21 Al6 2.686787 1_555
Al21 Al28 2.756494 1_555
Al21 Al30 3.014246 1_555
Al21 Al27 3.016239 1_555
Al22 Ni2 2.446841 1_455
Al22 Co0 2.472034 1_555
Al22 Co4 2.628519 1_556
Al22 Al7 2.686787 1_455
Al22 Al27 2.756494 1_555
Al22 Al29 3.014246 1_456
Al22 Al28 3.016239 1_555
Al23 Ni1 2.446839 1_555
Al23 Co1 2.472034 1_655
Al23 Co7 2.628519 1_554
Al23 Al8 2.686787 1_545
Al23 Al26 2.756494 1_555
Al23 Al29 3.014246 1_545
Al23 Al25 3.016239 1_555
Al24 Ni0 2.446846 1_655
Al24 Co0 2.472034 1_655
Al24 Co6 2.628519 1_555
Al24 Al9 2.686787 1_665
Al24 Al25 2.756494 1_555
Al24 Al30 3.014246 1_666
Al24 Al26 3.016239 1_555
Al25 Ni1 2.446839 1_555
Al25 Co0 2.472034 1_655
Al25 Co6 2.628519 1_555
Al25 Al29 3.014246 1_556
Al26 Ni0 2.446841 1_655
Al26 Co1 2.472034 1_655
Al26 Co7 2.628519 1_554
Al26 Al3 2.686787 1_655
Al26 Al30 3.014246 1_655
Al27 Ni3 2.446839 1_555
Al27 Co0 2.472034 1_555
Al27 Co4 2.628519 1_556
Al27 Al4 2.686787 1_565
Al27 Al30 3.014246 1_566
Al28 Ni2 2.446846 1_455
Al28 Co1 2.472034 1_555
Al28 Co5 2.628519 1_555
Al28 Al5 2.686787 1_445
Al28 Al29 3.014246 1_445
Al29 Co1 2.517752 1_665
Al29 Co0 2.517752 1_654
Al29 Co2 2.554929 1_555
Al29 Al5 2.903204 1_555
Al29 Al7 2.903204 1_554
Al29 Al8 2.903204 1_555
Al30 Co1 2.517752 1_555
Al30 Co0 2.517752 1_544
Al30 Co3 2.554929 1_555
Al30 Al6 2.903204 1_555
Al30 Al4 2.903204 1_554
Al30 Al9 2.903204 1_554
Al31 Al35 2.504188 1_545
Al31 Al32 2.504188 1_555
Al31 Al33 2.504188 1_545
Al31 Al34 2.504188 1_555
Al31 Co6 2.553541 1_545
Al31 Co5 2.553541 1_555
Al31 Co4 2.553541 1_545
Al31 Co7 2.553541 1_555
Al32 Co2 2.354214 1_556
Al32 Co5 2.570210 1_555
Al32 Co7 2.570210 1_555
Al32 Al7 2.896708 1_555
Al33 Co3 2.354214 1_555
Al33 Co4 2.570210 1_555
Al33 Co6 2.570210 1_555
Al33 Al6 2.896708 1_555
Al34 Co3 2.354214 1_556
Al34 Co5 2.570210 1_555
Al34 Co7 2.570210 1_555
Al34 Al4 2.896708 1_555
Al34 Al9 2.896708 1_555
Al35 Co2 2.354214 1_555
Al35 Co6 2.570210 1_555
Al35 Co4 2.570210 1_555
Al35 Al8 2.896708 1_555
Al35 Al5 2.896708 1_555
