# generated using pymatgen
data_NaCu4P2ClO9
_symmetry_space_group_name_H-M   'P 1'
_cell_length_a   6.46877700
_cell_length_b   8.48613848
_cell_length_c   16.05381543
_cell_angle_alpha   100.53587948
_cell_angle_beta   90.00000000
_cell_angle_gamma   90.00000000
_symmetry_Int_Tables_number   1
_chemical_formula_structural   NaCu4P2ClO9
_chemical_formula_sum   'Na4 Cu16 P8 Cl4 O36'
_cell_volume   866.41545294
_cell_formula_units_Z   4
loop_
 _symmetry_equiv_pos_site_id
 _symmetry_equiv_pos_as_xyz
  1  'x, y, z'
loop_
 _atom_site_type_symbol
 _atom_site_label
 _atom_site_symmetry_multiplicity
 _atom_site_fract_x
 _atom_site_fract_y
 _atom_site_fract_z
 _atom_site_occupancy
  Na  Na0  1  0.00110600  0.98348300  0.32685000  1
  Na  Na1  1  0.50110600  0.51651700  0.17315000  1
  Na  Na2  1  0.99889400  0.01651700  0.67315000  1
  Na  Na3  1  0.49889400  0.48348300  0.82685000  1
  Cu  Cu0  1  0.00000000  0.00000000  0.00000000  1
  Cu  Cu1  1  0.50000000  0.50000000  0.50000000  1
  Cu  Cu2  1  0.50000000  0.00000000  0.00000000  1
  Cu  Cu3  1  0.00000000  0.50000000  0.50000000  1
  Cu  Cu4  1  0.76012000  0.44056900  0.33564200  1
  Cu  Cu5  1  0.26012000  0.05943100  0.16435800  1
  Cu  Cu6  1  0.23988000  0.55943100  0.66435800  1
  Cu  Cu7  1  0.73988000  0.94056900  0.83564200  1
  Cu  Cu8  1  0.74865500  0.77313200  0.44484200  1
  Cu  Cu9  1  0.24865500  0.72686800  0.05515800  1
  Cu  Cu10  1  0.25134500  0.22686800  0.55515800  1
  Cu  Cu11  1  0.75134500  0.27313200  0.94484200  1
  Cu  Cu12  1  0.99676500  0.45886500  0.15294300  1
  Cu  Cu13  1  0.49676500  0.04113500  0.34705700  1
  Cu  Cu14  1  0.00323500  0.54113500  0.84705700  1
  Cu  Cu15  1  0.50323500  0.95886500  0.65294300  1
  P  P0  1  0.24656100  0.34676700  0.30883400  1
  P  P1  1  0.74656100  0.15323300  0.19116600  1
  P  P2  1  0.75343900  0.65323300  0.69116600  1
  P  P3  1  0.25343900  0.84676700  0.80883400  1
  P  P4  1  0.26488900  0.86542500  0.48384400  1
  P  P5  1  0.76488900  0.63457500  0.01615600  1
  P  P6  1  0.73511100  0.13457500  0.51615600  1
  P  P7  1  0.23511100  0.36542500  0.98384400  1
  Cl  Cl0  1  0.28010700  0.79708700  0.20989600  1
  Cl  Cl1  1  0.78010700  0.70291300  0.29010400  1
  Cl  Cl2  1  0.71989300  0.20291300  0.79010400  1
  Cl  Cl3  1  0.21989300  0.29708700  0.70989600  1
  O  O0  1  0.05604100  0.38704400  0.36731200  1
  O  O1  1  0.55604100  0.11295600  0.13268800  1
  O  O2  1  0.94395900  0.61295600  0.63268800  1
  O  O3  1  0.44395900  0.88704400  0.86731200  1
  O  O4  1  0.44302800  0.41966800  0.35418500  1
  O  O5  1  0.94302800  0.08033200  0.14581500  1
  O  O6  1  0.55697200  0.58033200  0.64581500  1
  O  O7  1  0.05697200  0.91966800  0.85418500  1
  O  O8  1  0.75014700  0.54794700  0.45327100  1
  O  O9  1  0.25014700  0.95205300  0.04672900  1
  O  O10  1  0.24985300  0.45205300  0.54672900  1
  O  O11  1  0.74985300  0.04794700  0.95327100  1
  O  O12  1  0.77223000  0.34372900  0.21268000  1
  O  O13  1  0.27223000  0.15627100  0.28732000  1
  O  O14  1  0.22777000  0.65627100  0.78732000  1
  O  O15  1  0.72777000  0.84372900  0.71268000  1
  O  O16  1  0.21827500  0.39907600  0.22230800  1
  O  O17  1  0.71827500  0.10092400  0.27769200  1
  O  O18  1  0.78172500  0.60092400  0.77769200  1
  O  O19  1  0.28172500  0.89907600  0.72230800  1
  O  O20  1  0.44863200  0.74882900  0.48826800  1
  O  O21  1  0.94863200  0.75117100  0.01173200  1
  O  O22  1  0.55136800  0.25117100  0.51173200  1
  O  O23  1  0.05136800  0.24882900  0.98826800  1
  O  O24  1  0.05812900  0.77756600  0.48321600  1
  O  O25  1  0.55812900  0.72243400  0.01678400  1
  O  O26  1  0.94187100  0.22243400  0.51678400  1
  O  O27  1  0.44187100  0.27756600  0.98321600  1
  O  O28  1  0.21978900  0.49988600  0.06789600  1
  O  O29  1  0.71978900  0.00011400  0.43210400  1
  O  O30  1  0.78021100  0.50011400  0.93210400  1
  O  O31  1  0.28021100  0.99988600  0.56789600  1
  O  O32  1  0.27989600  0.95469400  0.40848600  1
  O  O33  1  0.77989600  0.54530600  0.09151400  1
  O  O34  1  0.72010400  0.04530600  0.59151400  1
  O  O35  1  0.22010400  0.45469400  0.90848600  1
loop_
_geom_bond_atom_site_label_1
_geom_bond_atom_site_label_2
_geom_bond_distance
_geom_bond_site_symmetry_2
Na0 O32 2.268641 1_555
Na0 O17 2.291507 1_465
Na0 O13 2.443159 1_565
Na0 O29 2.469712 1_465
Na1 O33 2.268641 1_555
Na1 O16 2.291507 1_555
Na1 O12 2.443159 1_555
Na1 O28 2.469712 1_555
Na2 O34 2.268641 1_555
Na2 O19 2.291507 1_645
Na2 O15 2.443159 1_545
Na2 O31 2.469712 1_645
Na3 O35 2.268641 1_555
Na3 O18 2.291507 1_555
Na3 O14 2.443159 1_555
Na3 O30 2.469712 1_555
Cu0 O9 1.859662 1_545
Cu0 O11 1.859662 1_454
Cu0 O21 2.179489 1_445
Cu0 O23 2.179489 1_554
Cu0 O5 2.344507 1_455
Cu0 O7 2.344507 1_544
Cu1 O10 1.859662 1_555
Cu1 O8 1.859662 1_555
Cu1 O20 2.179489 1_555
Cu1 O22 2.179489 1_555
Cu1 O4 2.344507 1_555
Cu1 O6 2.344507 1_555
Cu2 O9 1.858007 1_545
Cu2 O11 1.858007 1_554
Cu2 O1 2.200243 1_555
Cu2 O3 2.200243 1_544
Cu2 O25 2.448327 1_545
Cu2 O27 2.448327 1_554
Cu3 O10 1.858007 1_555
Cu3 O8 1.858007 1_455
Cu3 O0 2.200243 1_555
Cu3 O2 2.200243 1_455
Cu3 O24 2.448327 1_555
Cu3 O26 2.448327 1_455
Cu4 O8 1.941969 1_555
Cu4 O12 1.996233 1_555
Cu4 O0 2.052707 1_655
Cu4 O4 2.084897 1_555
Cu5 O9 1.941969 1_545
Cu5 O13 1.996233 1_555
Cu5 O1 2.052707 1_555
Cu5 O5 2.084897 1_455
Cu6 O10 1.941969 1_555
Cu6 O14 1.996233 1_555
Cu6 O2 2.052707 1_455
Cu6 O6 2.084897 1_555
Cu7 O11 1.941969 1_565
Cu7 O15 1.996233 1_555
Cu7 O3 2.052707 1_555
Cu7 O7 2.084897 1_655
Cu8 O8 1.940284 1_555
Cu8 O29 1.982671 1_565
Cu8 O20 2.085131 1_555
Cu8 O24 2.092877 1_655
Cu9 O9 1.940284 1_555
Cu9 O28 1.982671 1_555
Cu9 O21 2.085131 1_455
Cu9 O25 2.092877 1_555
Cu10 O10 1.940284 1_555
Cu10 O31 1.982671 1_545
Cu10 O22 2.085131 1_555
Cu10 O26 2.092877 1_455
Cu11 O11 1.940284 1_555
Cu11 O30 1.982671 1_555
Cu11 O23 2.085131 1_655
Cu11 O27 2.092877 1_555
Cu12 O33 1.934746 1_555
Cu12 O16 1.938375 1_655
Cu12 O28 2.059242 1_655
Cu12 O12 2.080064 1_555
Cu13 O32 1.934746 1_545
Cu13 O17 1.938375 1_555
Cu13 O29 2.059242 1_555
Cu13 O13 2.080064 1_555
Cu14 O35 1.934746 1_555
Cu14 O18 1.938375 1_455
Cu14 O30 2.059242 1_455
Cu14 O14 2.080064 1_555
Cu15 O34 1.934746 1_565
Cu15 O19 1.938375 1_555
Cu15 O31 2.059242 1_555
Cu15 O15 2.080064 1_555
Cl0 Cu9 2.454805 1_555
Cl0 Cu5 2.470368 1_565
Cl0 Na1 2.747187 1_555
Cl0 Na0 2.863293 1_555
Cl1 Cu8 2.454805 1_555
Cl1 Cu4 2.470368 1_555
Cl1 Na0 2.747187 1_655
Cl1 Na1 2.863293 1_555
Cl2 Cu11 2.454805 1_555
Cl2 Cu7 2.470368 1_545
Cl2 Na3 2.747187 1_555
Cl2 Na2 2.863293 1_555
Cl3 Cu10 2.454805 1_555
Cl3 Cu6 2.470368 1_555
Cl3 Na2 2.747187 1_455
Cl3 Na3 2.863293 1_555
O0 P0 1.549097 1_555
O1 P1 1.549097 1_555
O2 P2 1.549097 1_555
O3 P3 1.549097 1_555
O4 P0 1.537292 1_555
O5 P1 1.537292 1_555
O6 P2 1.537292 1_555
O7 P3 1.537292 1_555
O12 P1 1.598747 1_555
O13 P0 1.598747 1_555
O14 P3 1.598747 1_555
O15 P2 1.598747 1_555
O16 P0 1.544522 1_555
O17 P1 1.544522 1_555
O18 P2 1.544522 1_555
O19 P3 1.544522 1_555
O20 P4 1.556440 1_555
O21 P5 1.556440 1_555
O22 P6 1.556440 1_555
O23 P7 1.556440 1_555
O24 P4 1.530396 1_555
O25 P5 1.530396 1_555
O26 P6 1.530396 1_555
O27 P7 1.530396 1_555
O28 P7 1.602973 1_554
O29 P6 1.602973 1_555
O30 P5 1.602973 1_556
O31 P4 1.602973 1_555
O32 P4 1.543385 1_555
O33 P5 1.543385 1_555
O34 P6 1.543385 1_555
O35 P7 1.543385 1_555
