# generated using pymatgen
data_Tb(GaCo)6
_symmetry_space_group_name_H-M   'P 1'
_cell_length_a   5.05143400
_cell_length_b   6.48124124
_cell_length_c   6.48124124
_cell_angle_alpha   83.33637754
_cell_angle_beta   67.06437459
_cell_angle_gamma   67.06437459
_symmetry_Int_Tables_number   1
_chemical_formula_structural   Tb(GaCo)6
_chemical_formula_sum   'Tb1 Ga6 Co6'
_cell_volume   179.80802839
_cell_formula_units_Z   1
loop_
 _symmetry_equiv_pos_site_id
 _symmetry_equiv_pos_as_xyz
  1  'x, y, z'
loop_
 _atom_site_type_symbol
 _atom_site_label
 _atom_site_symmetry_multiplicity
 _atom_site_fract_x
 _atom_site_fract_y
 _atom_site_fract_z
 _atom_site_occupancy
  Tb  Tb0  1  0.00000000  0.00000000  0.00000000  1
  Ga  Ga0  1  0.50000000  0.18989800  0.81010200  1
  Ga  Ga1  1  0.50000000  0.81010200  0.18989800  1
  Ga  Ga2  1  0.34062100  0.65937900  0.65937900  1
  Ga  Ga3  1  0.65937900  0.34062100  0.34062100  1
  Ga  Ga4  1  0.00000000  0.34537200  0.65462800  1
  Ga  Ga5  1  0.00000000  0.65462800  0.34537200  1
  Co  Co0  1  0.50000000  0.00000000  0.50000000  1
  Co  Co1  1  0.50000000  0.50000000  0.00000000  1
  Co  Co2  1  0.00000000  0.50000000  0.00000000  1
  Co  Co3  1  0.00000000  0.00000000  0.50000000  1
  Co  Co4  1  0.26195800  0.23804200  0.23804200  1
  Co  Co5  1  0.73804200  0.76195800  0.76195800  1
loop_
_geom_bond_atom_site_label_1
_geom_bond_atom_site_label_2
_geom_bond_distance
_geom_bond_site_symmetry_2
Ga0 Ga4 2.859086 1_655
Ga0 Ga4 2.859086 1_555
Ga0 Ga2 2.979095 1_555
Ga0 Ga3 2.979095 1_555
Ga0 Tb0 3.009535 1_556
Ga0 Tb0 3.009535 1_656
Ga1 Ga5 2.859086 1_655
Ga1 Ga5 2.859086 1_555
Ga1 Ga2 2.979095 1_555
Ga1 Ga3 2.979095 1_555
Ga1 Tb0 3.009535 1_565
Ga1 Tb0 3.009535 1_665
Ga2 Ga3 2.633274 1_555
Ga2 Tb0 2.813885 1_566
Ga3 Tb0 2.813885 1_655
Ga4 Ga5 2.665064 1_555
Ga4 Tb0 2.976299 1_556
Ga5 Tb0 2.976299 1_565
Co0 Ga0 2.475556 1_555
Co0 Ga1 2.475556 1_545
Co0 Co5 2.499215 1_545
Co0 Co4 2.499215 1_555
Co0 Co3 2.525717 1_555
Co0 Co3 2.525717 1_655
Co0 Ga4 2.556483 1_555
Co0 Ga5 2.556483 1_645
Co0 Ga3 2.607059 1_555
Co0 Ga2 2.607059 1_545
Co0 Tb0 3.240620 1_655
Co0 Tb0 3.240620 1_556
Co1 Ga1 2.475556 1_555
Co1 Ga0 2.475556 1_554
Co1 Co5 2.499215 1_554
Co1 Co4 2.499215 1_555
Co1 Co2 2.525717 1_555
Co1 Co2 2.525717 1_655
Co1 Ga5 2.556483 1_555
Co1 Ga4 2.556483 1_654
Co1 Ga3 2.607059 1_555
Co1 Ga2 2.607059 1_554
Co1 Tb0 3.240620 1_565
Co1 Tb0 3.240620 1_655
Co2 Ga1 2.475555 1_455
Co2 Ga0 2.475555 1_554
Co2 Co4 2.499215 1_555
Co2 Co5 2.499215 1_454
Co2 Ga5 2.556484 1_555
Co2 Ga4 2.556484 1_554
Co2 Ga2 2.607059 1_554
Co2 Ga3 2.607059 1_455
Co2 Tb0 3.240621 1_565
Co2 Tb0 3.240621 1_555
Co3 Ga0 2.475555 1_455
Co3 Ga1 2.475555 1_545
Co3 Co4 2.499215 1_555
Co3 Co5 2.499215 1_445
Co3 Ga4 2.556484 1_555
Co3 Ga5 2.556484 1_545
Co3 Ga2 2.607059 1_545
Co3 Ga3 2.607059 1_455
Co3 Tb0 3.240621 1_555
Co3 Tb0 3.240621 1_556
Co4 Ga4 2.541405 1_555
Co4 Ga5 2.541405 1_555
Co4 Ga1 2.558336 1_545
Co4 Ga0 2.558336 1_554
Co4 Ga3 2.664085 1_455
Co4 Ga3 2.664085 1_555
Co4 Tb0 3.200979 1_655
Co4 Tb0 3.200980 1_555
Co5 Ga5 2.541405 1_655
Co5 Ga4 2.541405 1_655
Co5 Ga1 2.558336 1_556
Co5 Ga0 2.558336 1_565
Co5 Ga2 2.664085 1_655
Co5 Ga2 2.664085 1_555
Co5 Tb0 3.200979 1_566
Co5 Tb0 3.200980 1_666
