# generated using pymatgen
data_AlAgSnSe4
_symmetry_space_group_name_H-M   'P 1'
_cell_length_a   6.89680549
_cell_length_b   6.89680549
_cell_length_c   6.89680549
_cell_angle_alpha   127.91225861
_cell_angle_beta   127.91225861
_cell_angle_gamma   76.76720879
_symmetry_Int_Tables_number   1
_chemical_formula_structural   AlAgSnSe4
_chemical_formula_sum   'Al1 Ag1 Sn1 Se4'
_cell_volume   198.28725897
_cell_formula_units_Z   1
loop_
 _symmetry_equiv_pos_site_id
 _symmetry_equiv_pos_as_xyz
  1  'x, y, z'
loop_
 _atom_site_type_symbol
 _atom_site_label
 _atom_site_symmetry_multiplicity
 _atom_site_fract_x
 _atom_site_fract_y
 _atom_site_fract_z
 _atom_site_occupancy
  Al  Al0  1  0.50000000  0.50000000  0.00000000  1
  Ag  Ag0  1  0.75000000  0.25000000  0.50000000  1
  Sn  Sn0  1  0.25000000  0.75000000  0.50000000  1
  Se  Se0  1  0.86267300  0.36719100  0.01415900  1
  Se  Se1  1  0.35303200  0.84851400  0.98584100  1
  Se  Se2  1  0.63280900  0.64696800  0.49548200  1
  Se  Se3  1  0.15148600  0.13732700  0.50451800  1
loop_
_geom_bond_atom_site_label_1
_geom_bond_atom_site_label_2
_geom_bond_distance
_geom_bond_site_symmetry_2
Al0 Se2 2.421942 1_555
Al0 Se3 2.421942 1_554
Al0 Se0 2.421942 1_555
Al0 Se1 2.421942 1_554
Ag0 Se1 2.685268 1_544
Ag0 Se3 2.685268 1_655
Ag0 Se2 2.685268 1_555
Ag0 Se0 2.685268 1_556
Se0 Sn0 2.586763 1_655
Se1 Sn0 2.586763 1_555
Se2 Sn0 2.586763 1_555
Se3 Sn0 2.586763 1_545
