# generated using pymatgen
data_CuSi4P3
_symmetry_space_group_name_H-M   'P 1'
_cell_length_a   11.76855959
_cell_length_b   11.76855959
_cell_length_c   11.76855923
_cell_angle_alpha   18.93498579
_cell_angle_beta   18.93498579
_cell_angle_gamma   18.93498698
_symmetry_Int_Tables_number   1
_chemical_formula_structural   CuSi4P3
_chemical_formula_sum   'Cu1 Si4 P3'
_cell_volume   149.98596718
_cell_formula_units_Z   1
loop_
 _symmetry_equiv_pos_site_id
 _symmetry_equiv_pos_as_xyz
  1  'x, y, z'
loop_
 _atom_site_type_symbol
 _atom_site_label
 _atom_site_symmetry_multiplicity
 _atom_site_fract_x
 _atom_site_fract_y
 _atom_site_fract_z
 _atom_site_occupancy
  Cu  Cu0  1  0.99449800  0.99449800  0.99449800  1
  Si  Si0  1  0.75058100  0.75058100  0.75058100  1
  Si  Si1  1  0.49801100  0.49801100  0.49801100  1
  Si  Si2  1  0.25024000  0.25024000  0.25024000  1
  Si  Si3  1  0.06314800  0.06314800  0.06314800  1
  P  P0  1  0.81640800  0.81640800  0.81640800  1
  P  P1  1  0.56322900  0.56322900  0.56322900  1
  P  P2  1  0.31388500  0.31388500  0.31388500  1
loop_
_geom_bond_atom_site_label_1
_geom_bond_atom_site_label_2
_geom_bond_distance
_geom_bond_site_symmetry_2
Cu0 P2 2.286932 1_665
Cu0 P2 2.286932 1_566
Cu0 P2 2.286932 1_656
Cu0 Si3 2.379615 1_666
Si0 Si3 2.348299 1_665
Si0 Si3 2.348299 1_566
Si0 Si3 2.348299 1_656
P0 Si0 2.281761 1_555
P0 Si1 2.294431 1_556
P0 Si1 2.294431 1_565
P0 Si1 2.294431 1_655
P1 Si1 2.260652 1_555
P1 Si2 2.343856 1_556
P1 Si2 2.343856 1_655
P1 Si2 2.343856 1_565
P2 Si2 2.206127 1_555
