# generated using pymatgen
data_KNa3Mo2O17
_symmetry_space_group_name_H-M   'P 1'
_cell_length_a   8.67196922
_cell_length_b   8.67196886
_cell_length_c   10.78675400
_cell_angle_alpha   90.00000000
_cell_angle_beta   90.00000000
_cell_angle_gamma   120.00000030
_symmetry_Int_Tables_number   1
_chemical_formula_structural   KNa3Mo2O17
_chemical_formula_sum   'K2 Na6 Mo4 O34'
_cell_volume   702.51700662
_cell_formula_units_Z   2
loop_
 _symmetry_equiv_pos_site_id
 _symmetry_equiv_pos_as_xyz
  1  'x, y, z'
loop_
 _atom_site_type_symbol
 _atom_site_label
 _atom_site_symmetry_multiplicity
 _atom_site_fract_x
 _atom_site_fract_y
 _atom_site_fract_z
 _atom_site_occupancy
  K  K0  1  0.00000000  0.00000000  0.75000000  1
  K  K1  1  0.00000000  0.00000000  0.25000000  1
  Na  Na0  1  0.60213500  0.07731100  0.75000000  1
  Na  Na1  1  0.39786500  0.92268900  0.25000000  1
  Na  Na2  1  0.47517600  0.39786500  0.75000000  1
  Na  Na3  1  0.52482400  0.60213500  0.25000000  1
  Na  Na4  1  0.92268900  0.52482400  0.75000000  1
  Na  Na5  1  0.07731100  0.47517600  0.25000000  1
  Mo  Mo0  1  0.66666700  0.33333300  0.44955500  1
  Mo  Mo1  1  0.33333300  0.66666700  0.55044500  1
  Mo  Mo2  1  0.33333300  0.66666700  0.94955500  1
  Mo  Mo3  1  0.66666700  0.33333300  0.05044500  1
  O  O0  1  0.94822100  0.27314300  0.75000000  1
  O  O1  1  0.05177900  0.72685800  0.25000000  1
  O  O2  1  0.32492200  0.05177900  0.75000000  1
  O  O3  1  0.67507800  0.94822100  0.25000000  1
  O  O4  1  0.72685800  0.67507800  0.75000000  1
  O  O5  1  0.27314300  0.32492200  0.25000000  1
  O  O6  1  0.80848900  0.04496200  0.95598400  1
  O  O7  1  0.19151100  0.95503800  0.04401600  1
  O  O8  1  0.23647300  0.19151100  0.95598400  1
  O  O9  1  0.19151100  0.95503800  0.45598400  1
  O  O10  1  0.76352700  0.80848900  0.04401600  1
  O  O11  1  0.80848900  0.04496200  0.54401600  1
  O  O12  1  0.95503800  0.76352700  0.95598400  1
  O  O13  1  0.76352700  0.80848900  0.45598400  1
  O  O14  1  0.04496200  0.23647300  0.04401600  1
  O  O15  1  0.23647300  0.19151100  0.54401600  1
  O  O16  1  0.04496200  0.23647300  0.45598400  1
  O  O17  1  0.95503800  0.76352700  0.54401600  1
  O  O18  1  0.52254900  0.65296300  0.89342400  1
  O  O19  1  0.47745100  0.34703700  0.10657600  1
  O  O20  1  0.13041400  0.47745100  0.89342400  1
  O  O21  1  0.47745100  0.34703700  0.39342400  1
  O  O22  1  0.86958600  0.52254900  0.10657600  1
  O  O23  1  0.52254900  0.65296300  0.60657600  1
  O  O24  1  0.34703700  0.86958600  0.89342400  1
  O  O25  1  0.86958600  0.52254900  0.39342400  1
  O  O26  1  0.65296300  0.13041400  0.10657600  1
  O  O27  1  0.13041400  0.47745100  0.60657600  1
  O  O28  1  0.65296300  0.13041400  0.39342400  1
  O  O29  1  0.34703700  0.86958600  0.60657600  1
  O  O30  1  0.66666700  0.33333300  0.88541600  1
  O  O31  1  0.33333300  0.66666700  0.11458400  1
  O  O32  1  0.33333300  0.66666700  0.38541600  1
  O  O33  1  0.66666700  0.33333300  0.61458400  1
loop_
_geom_bond_atom_site_label_1
_geom_bond_atom_site_label_2
_geom_bond_distance
_geom_bond_site_symmetry_2
K0 O4 2.622192 1_445
K0 O0 2.622195 1_455
K0 O2 2.622195 1_555
K0 O12 2.914549 1_445
K0 O17 2.914549 1_445
K0 O15 2.914549 1_555
K0 O8 2.914549 1_555
K0 O6 2.914549 1_455
K0 O11 2.914549 1_455
K1 O1 2.622187 1_545
K1 O5 2.622195 1_555
K1 O3 2.622195 1_445
K1 O14 2.914549 1_555
K1 O16 2.914549 1_555
K1 O13 2.914549 1_445
K1 O10 2.914549 1_445
K1 O9 2.914549 1_545
K1 O7 2.914549 1_545
Na0 O2 2.301279 1_555
Na0 O33 2.476630 1_555
Na0 O30 2.476630 1_555
Na0 O24 2.558760 1_545
Na0 O29 2.558760 1_545
Na0 O0 2.606659 1_555
Na0 O6 2.952936 1_555
Na0 O11 2.952936 1_555
Na1 O3 2.301279 1_555
Na1 O32 2.476630 1_555
Na1 O31 2.476630 1_555
Na1 O28 2.558760 1_565
Na1 O26 2.558760 1_565
Na1 O1 2.606658 1_555
Na1 O9 2.952936 1_555
Na1 O7 2.952936 1_555
Na2 O4 2.301282 1_555
Na2 O33 2.476636 1_555
Na2 O30 2.476636 1_555
Na2 O23 2.558760 1_555
Na2 O18 2.558760 1_555
Na2 O2 2.606658 1_555
Na2 O15 2.952936 1_555
Na2 O8 2.952936 1_555
Na3 O5 2.301279 1_555
Na3 O31 2.476636 1_555
Na3 O32 2.476636 1_555
Na3 O21 2.558760 1_555
Na3 O19 2.558760 1_555
Na3 O3 2.606658 1_555
Na3 O10 2.952936 1_555
Na3 O13 2.952936 1_555
Na4 O0 2.301279 1_555
Na4 O33 2.476632 1_555
Na4 O30 2.476632 1_555
Na4 O27 2.558760 1_655
Na4 O20 2.558760 1_655
Na4 O4 2.606651 1_555
Na4 O12 2.952936 1_555
Na4 O17 2.952936 1_555
Na5 O1 2.301287 1_555
Na5 O31 2.476632 1_555
Na5 O32 2.476632 1_555
Na5 O25 2.558760 1_455
Na5 O22 2.558760 1_455
Na5 O5 2.606659 1_555
Na5 O14 2.952936 1_555
Na5 O16 2.952936 1_555
Mo0 O33 1.780127 1_555
Mo0 O28 1.807806 1_555
Mo0 O25 1.807810 1_555
Mo0 O21 1.807814 1_555
Mo1 O32 1.780127 1_555
Mo1 O29 1.807806 1_555
Mo1 O27 1.807810 1_555
Mo1 O23 1.807814 1_555
Mo2 O31 1.780127 1_556
Mo2 O24 1.807806 1_555
Mo2 O20 1.807810 1_555
Mo2 O18 1.807814 1_555
Mo3 O30 1.780127 1_554
Mo3 O26 1.807806 1_555
Mo3 O22 1.807810 1_555
Mo3 O19 1.807814 1_555
