# generated using pymatgen
data_Li(NO)6
_symmetry_space_group_name_H-M   'P 1'
_cell_length_a   7.66235662
_cell_length_b   7.66235662
_cell_length_c   12.40447231
_cell_angle_alpha   83.01363415
_cell_angle_beta   83.01363415
_cell_angle_gamma   125.36459513
_symmetry_Int_Tables_number   1
_chemical_formula_structural   Li(NO)6
_chemical_formula_sum   'Li1 N6 O6'
_cell_volume   572.66852568
_cell_formula_units_Z   1
loop_
 _symmetry_equiv_pos_site_id
 _symmetry_equiv_pos_as_xyz
  1  'x, y, z'
loop_
 _atom_site_type_symbol
 _atom_site_label
 _atom_site_symmetry_multiplicity
 _atom_site_fract_x
 _atom_site_fract_y
 _atom_site_fract_z
 _atom_site_occupancy
  Li  Li0  1  0.00000000  0.00000000  0.00000000  1
  N  N0  1  0.74990500  0.74990500  0.50573900  1
  N  N1  1  0.25009500  0.25009500  0.49426100  1
  N  N2  1  0.89458100  0.26373600  0.00002400  1
  N  N3  1  0.10541900  0.73626400  0.99997600  1
  N  N4  1  0.26373600  0.89458100  0.00002400  1
  N  N5  1  0.73626400  0.10541900  0.99997600  1
  O  O0  1  0.74130000  0.90369800  0.50422600  1
  O  O1  1  0.25870000  0.09630200  0.49577400  1
  O  O2  1  0.26466400  0.26466400  0.00004500  1
  O  O3  1  0.09630200  0.25870000  0.49577400  1
  O  O4  1  0.73533600  0.73533600  0.99995500  1
  O  O5  1  0.90369800  0.74130000  0.50422600  1
loop_
_geom_bond_atom_site_label_1
_geom_bond_atom_site_label_2
_geom_bond_distance
_geom_bond_site_symmetry_2
Li0 O2 1.861498 1_555
Li0 O4 1.861498 1_444
Li0 N2 2.574080 1_455
Li0 N4 2.574080 1_545
Li0 N5 2.574080 1_454
Li0 N3 2.574080 1_544
N0 O0 1.215824 1_555
N0 O5 1.215824 1_555
N1 O1 1.215824 1_555
N1 O3 1.215824 1_555
N2 N5 1.113582 1_554
N3 N4 1.113582 1_556
