# generated using pymatgen
data_PH18PtC6S3BrF6
_symmetry_space_group_name_H-M   'P 1'
_cell_length_a   25.03111300
_cell_length_b   8.72195900
_cell_length_c   8.96830524
_cell_angle_alpha   75.63633276
_cell_angle_beta   90.00000000
_cell_angle_gamma   90.00000000
_symmetry_Int_Tables_number   1
_chemical_formula_structural   PH18PtC6S3BrF6
_chemical_formula_sum   'P4 H72 Pt4 C24 S12 Br4 F24'
_cell_volume   1896.75882913
_cell_formula_units_Z   4
loop_
 _symmetry_equiv_pos_site_id
 _symmetry_equiv_pos_as_xyz
  1  'x, y, z'
loop_
 _atom_site_type_symbol
 _atom_site_label
 _atom_site_symmetry_multiplicity
 _atom_site_fract_x
 _atom_site_fract_y
 _atom_site_fract_z
 _atom_site_occupancy
  P  P0  1  0.33705500  0.99373500  0.02791300  1
  P  P1  1  0.83705500  0.50626500  0.97208700  1
  P  P2  1  0.66294500  0.00626500  0.97208700  1
  P  P3  1  0.16294500  0.49373500  0.02791300  1
  H  H0  1  0.48708700  0.04454000  0.66974500  1
  H  H1  1  0.98708700  0.45546000  0.33025500  1
  H  H2  1  0.51291300  0.95546000  0.33025500  1
  H  H3  1  0.01291300  0.54454000  0.66974500  1
  H  H4  1  0.52630700  0.06297600  0.83211400  1
  H  H5  1  0.02630700  0.43702400  0.16788600  1
  H  H6  1  0.47369300  0.93702400  0.16788600  1
  H  H7  1  0.97369300  0.56297600  0.83211400  1
  H  H8  1  0.45390600  0.06087000  0.84379600  1
  H  H9  1  0.95390600  0.43913000  0.15620400  1
  H  H10  1  0.54609400  0.93913000  0.15620400  1
  H  H11  1  0.04609400  0.56087000  0.84379600  1
  H  H12  1  0.42355500  0.78494400  0.55992500  1
  H  H13  1  0.92355500  0.71505600  0.44007500  1
  H  H14  1  0.57644500  0.21505600  0.44007500  1
  H  H15  1  0.07644500  0.28494400  0.55992500  1
  H  H16  1  0.35502700  0.75536000  0.51380500  1
  H  H17  1  0.85502700  0.74464000  0.48619500  1
  H  H18  1  0.64497300  0.24464000  0.48619500  1
  H  H19  1  0.14497300  0.25536000  0.51380500  1
  H  H20  1  0.37108700  0.82198600  0.68374600  1
  H  H21  1  0.87108700  0.67801400  0.31625400  1
  H  H22  1  0.62891300  0.17801400  0.31625400  1
  H  H23  1  0.12891300  0.32198600  0.68374600  1
  H  H24  1  0.50455200  0.49093700  0.84831600  1
  H  H25  1  0.00455200  0.00906300  0.15168400  1
  H  H26  1  0.49544800  0.50906300  0.15168400  1
  H  H27  1  0.99544800  0.99093700  0.84831600  1
  H  H28  1  0.46457400  0.32469000  0.95025600  1
  H  H29  1  0.96457400  0.17531000  0.04974400  1
  H  H30  1  0.53542600  0.67531000  0.04974400  1
  H  H31  1  0.03542600  0.82469000  0.95025600  1
  H  H32  1  0.53549200  0.30248300  0.92677100  1
  H  H33  1  0.03549200  0.19751700  0.07322900  1
  H  H34  1  0.46450800  0.69751700  0.07322900  1
  H  H35  1  0.96450800  0.80248300  0.92677100  1
  H  H36  1  0.31988300  0.39853400  0.87190500  1
  H  H37  1  0.81988300  0.10146600  0.12809500  1
  H  H38  1  0.68011700  0.60146600  0.12809500  1
  H  H39  1  0.18011700  0.89853400  0.87190500  1
  H  H40  1  0.31293300  0.60817900  0.85354500  1
  H  H41  1  0.81293300  0.89182100  0.14645500  1
  H  H42  1  0.68706700  0.39182100  0.14645500  1
  H  H43  1  0.18706700  0.10817900  0.85354500  1
  H  H44  1  0.29441600  0.52552200  0.69654800  1
  H  H45  1  0.79441600  0.97447800  0.30345200  1
  H  H46  1  0.70558400  0.47447800  0.30345200  1
  H  H47  1  0.20558400  0.02552200  0.69654800  1
  H  H48  1  0.36028900  0.60507400  0.19154800  1
  H  H49  1  0.86028900  0.89492600  0.80845200  1
  H  H50  1  0.63971100  0.39492600  0.80845200  1
  H  H51  1  0.13971100  0.10507400  0.19154800  1
  H  H52  1  0.36464500  0.39622300  0.19773700  1
  H  H53  1  0.86464500  0.10377700  0.80226300  1
  H  H54  1  0.63535500  0.60377700  0.80226300  1
  H  H55  1  0.13535500  0.89622300  0.19773700  1
  H  H56  1  0.30054700  0.49463600  0.18102800  1
  H  H57  1  0.80054700  0.00536400  0.81897200  1
  H  H58  1  0.69945300  0.50536400  0.81897200  1
  H  H59  1  0.19945300  0.99463600  0.18102800  1
  H  H60  1  0.28921200  0.21704700  0.58660700  1
  H  H61  1  0.78921200  0.28295300  0.41339300  1
  H  H62  1  0.71078800  0.78295300  0.41339300  1
  H  H63  1  0.21078800  0.71704700  0.58660700  1
  H  H64  1  0.26139000  0.28236500  0.39426900  1
  H  H65  1  0.76139000  0.21763500  0.60573100  1
  H  H66  1  0.73861000  0.71763500  0.60573100  1
  H  H67  1  0.23861000  0.78236500  0.39426900  1
  H  H68  1  0.32320000  0.17324200  0.42496400  1
  H  H69  1  0.82320000  0.32675800  0.57503600  1
  H  H70  1  0.67680000  0.82675800  0.57503600  1
  H  H71  1  0.17680000  0.67324200  0.42496400  1
  Pt  Pt0  1  0.41209600  0.38685300  0.56790900  1
  Pt  Pt1  1  0.91209600  0.11314700  0.43209100  1
  Pt  Pt2  1  0.58790400  0.61314700  0.43209100  1
  Pt  Pt3  1  0.08790400  0.88685300  0.56790900  1
  C  C0  1  0.48887000  0.09592800  0.76926500  1
  C  C1  1  0.98887000  0.40407200  0.23073500  1
  C  C2  1  0.51113000  0.90407200  0.23073500  1
  C  C3  1  0.01113000  0.59592800  0.76926500  1
  C  C4  1  0.38391700  0.74824100  0.60739900  1
  C  C5  1  0.88391700  0.75175900  0.39260100  1
  C  C6  1  0.61608300  0.25175900  0.39260100  1
  C  C7  1  0.11608300  0.24824100  0.60739900  1
  C  C8  1  0.49906300  0.36244300  0.87470000  1
  C  C9  1  0.99906300  0.13755700  0.12530000  1
  C  C10  1  0.50093700  0.63755700  0.12530000  1
  C  C11  1  0.00093700  0.86244300  0.87470000  1
  C  C12  1  0.32209300  0.51666100  0.79293600  1
  C  C13  1  0.82209300  0.98333900  0.20706400  1
  C  C14  1  0.67790700  0.48333900  0.20706400  1
  C  C15  1  0.17790700  0.01666100  0.79293600  1
  C  C16  1  0.34094600  0.48910200  0.22897200  1
  C  C17  1  0.84094600  0.01089800  0.77102800  1
  C  C18  1  0.65905400  0.51089800  0.77102800  1
  C  C19  1  0.15905400  0.98910200  0.22897200  1
  C  C20  1  0.29796600  0.25909100  0.46312500  1
  C  C21  1  0.79796600  0.24090900  0.53687500  1
  C  C22  1  0.70203400  0.74090900  0.53687500  1
  C  C23  1  0.20203400  0.75909100  0.46312500  1
  S  S0  1  0.49233600  0.30807700  0.69438300  1
  S  S1  1  0.99233600  0.19192300  0.30561700  1
  S  S2  1  0.50766400  0.69192300  0.30561700  1
  S  S3  1  0.00766400  0.80807700  0.69438300  1
  S  S4  1  0.39015300  0.54867800  0.72632600  1
  S  S5  1  0.89015300  0.95132200  0.27367400  1
  S  S6  1  0.60984700  0.45132200  0.27367400  1
  S  S7  1  0.10984700  0.04867800  0.72632600  1
  S  S8  1  0.33234800  0.44626600  0.43479400  1
  S  S9  1  0.83234800  0.05373400  0.56520600  1
  S  S10  1  0.66765200  0.55373400  0.56520600  1
  S  S11  1  0.16765200  0.94626600  0.43479400  1
  Br  Br0  1  0.44283800  0.22578500  0.39266600  1
  Br  Br1  1  0.94283800  0.27421500  0.60733400  1
  Br  Br2  1  0.55716200  0.77421500  0.60733400  1
  Br  Br3  1  0.05716200  0.72578500  0.39266600  1
  F  F0  1  0.38467300  0.12600400  0.02043300  1
  F  F1  1  0.88467300  0.37399600  0.97956700  1
  F  F2  1  0.61532700  0.87399600  0.97956700  1
  F  F3  1  0.11532700  0.62600400  0.02043300  1
  F  F4  1  0.38154100  0.87407400  0.97883000  1
  F  F5  1  0.88154100  0.62592600  0.02117000  1
  F  F6  1  0.61845900  0.12592600  0.02117000  1
  F  F7  1  0.11845900  0.37407400  0.97883000  1
  F  F8  1  0.29054800  0.86153100  0.03369700  1
  F  F9  1  0.79054800  0.63846900  0.96630300  1
  F  F10  1  0.70945200  0.13846900  0.96630300  1
  F  F11  1  0.20945200  0.36153100  0.03369700  1
  F  F12  1  0.29384500  0.11318100  0.07650000  1
  F  F13  1  0.79384500  0.38681900  0.92350000  1
  F  F14  1  0.70615500  0.88681900  0.92350000  1
  F  F15  1  0.20615500  0.61318100  0.07650000  1
  F  F16  1  0.32413800  0.07059300  0.84432800  1
  F  F17  1  0.82413800  0.42940700  0.15567200  1
  F  F18  1  0.67586200  0.92940700  0.15567200  1
  F  F19  1  0.17586200  0.57059300  0.84432800  1
  F  F20  1  0.35095900  0.91601100  0.21027400  1
  F  F21  1  0.85095900  0.58398900  0.78972600  1
  F  F22  1  0.64904100  0.08398900  0.78972600  1
  F  F23  1  0.14904100  0.41601100  0.21027400  1
loop_
_geom_bond_atom_site_label_1
_geom_bond_atom_site_label_2
_geom_bond_distance
_geom_bond_site_symmetry_2
Pt0 S4 2.303740 1_555
Pt0 S8 2.317656 1_555
Pt0 S0 2.325084 1_555
Pt1 S5 2.303740 1_545
Pt1 S9 2.317656 1_555
Pt1 S1 2.325084 1_555
Pt2 S6 2.303740 1_555
Pt2 S10 2.317656 1_555
Pt2 S2 2.325084 1_555
Pt3 S7 2.303740 1_565
Pt3 S11 2.317656 1_555
Pt3 S3 2.325084 1_555
C0 H0 1.094513 1_555
C0 H4 1.094562 1_555
C0 H8 1.097646 1_555
C0 S0 1.807154 1_555
C1 H1 1.094513 1_555
C1 H5 1.094562 1_655
C1 H9 1.097646 1_555
C1 S1 1.807154 1_555
C2 H2 1.094513 1_555
C2 H6 1.094562 1_555
C2 H10 1.097646 1_555
C2 S2 1.807154 1_555
C3 H3 1.094513 1_555
C3 H7 1.094562 1_455
C3 H11 1.097646 1_555
C3 S3 1.807154 1_555
C4 H12 1.095699 1_555
C4 H20 1.097346 1_555
C4 H16 1.097952 1_555
C4 S4 1.808447 1_555
C5 H13 1.095699 1_555
C5 H21 1.097346 1_555
C5 H17 1.097952 1_555
C5 S5 1.808447 1_555
C6 H14 1.095699 1_555
C6 H22 1.097346 1_555
C6 H18 1.097952 1_555
C6 S6 1.808447 1_555
C7 H15 1.095699 1_555
C7 H23 1.097346 1_555
C7 H19 1.097952 1_555
C7 S7 1.808447 1_555
C8 H24 1.095129 1_555
C8 H32 1.096307 1_555
C8 H28 1.096431 1_555
C8 S0 1.802439 1_555
C9 H25 1.095129 1_655
C9 H33 1.096307 1_655
C9 H29 1.096431 1_555
C9 S1 1.802439 1_555
C10 H26 1.095129 1_555
C10 H34 1.096307 1_555
C10 H30 1.096431 1_555
C10 S2 1.802439 1_555
C11 H27 1.095129 1_455
C11 H35 1.096307 1_455
C11 H31 1.096431 1_555
C11 S3 1.802439 1_555
C12 H44 1.095459 1_555
C12 H40 1.095649 1_555
C12 H36 1.097324 1_555
C12 S4 1.803992 1_555
C13 H45 1.095459 1_555
C13 H41 1.095649 1_555
C13 H37 1.097324 1_565
C13 S5 1.803992 1_555
C14 H46 1.095459 1_555
C14 H42 1.095649 1_555
C14 H38 1.097324 1_555
C14 S6 1.803992 1_555
C15 H47 1.095459 1_555
C15 H43 1.095649 1_555
C15 H39 1.097324 1_545
C15 S7 1.803992 1_555
C16 H52 1.095080 1_555
C16 H56 1.095218 1_555
C16 H48 1.096255 1_555
C16 S8 1.803050 1_555
C17 H53 1.095080 1_555
C17 H57 1.095218 1_555
C17 H49 1.096255 1_545
C17 S9 1.803050 1_555
C18 H54 1.095080 1_555
C18 H58 1.095218 1_555
C18 H50 1.096255 1_555
C18 S10 1.803050 1_555
C19 H55 1.095080 1_555
C19 H59 1.095218 1_555
C19 H51 1.096255 1_565
C19 S11 1.803050 1_555
C20 H64 1.094785 1_555
C20 H68 1.097220 1_555
C20 H60 1.098813 1_555
C20 S8 1.806816 1_555
C21 H65 1.094785 1_555
C21 H69 1.097220 1_555
C21 H61 1.098813 1_555
C21 S9 1.806816 1_555
C22 H66 1.094785 1_555
C22 H70 1.097220 1_555
C22 H62 1.098813 1_555
C22 S10 1.806816 1_555
C23 H67 1.094785 1_555
C23 H71 1.097220 1_555
C23 H63 1.098813 1_555
C23 S11 1.806816 1_555
Br0 Pt0 2.476116 1_555
Br1 Pt1 2.476116 1_555
Br2 Pt2 2.476116 1_555
Br3 Pt3 2.476116 1_555
F0 P0 1.648545 1_545
F1 P1 1.648545 1_555
F2 P2 1.648545 1_565
F3 P3 1.648545 1_555
F4 P0 1.658593 1_556
F5 P1 1.658593 1_554
F6 P2 1.658593 1_554
F7 P3 1.658593 1_556
F8 P0 1.630271 1_555
F9 P1 1.630271 1_555
F10 P2 1.630271 1_555
F11 P3 1.630271 1_555
F12 P0 1.634107 1_545
F13 P1 1.634107 1_555
F14 P2 1.634107 1_565
F15 P3 1.634107 1_555
F16 P0 1.648362 1_546
F17 P1 1.648362 1_554
F18 P2 1.648362 1_564
F19 P3 1.648362 1_556
F20 P0 1.644798 1_555
F21 P1 1.644798 1_555
F22 P2 1.644798 1_555
F23 P3 1.644798 1_555
