# generated using pymatgen
data_Al2OsPd
_symmetry_space_group_name_H-M   'P 1'
_cell_length_a   10.22116174
_cell_length_b   10.22116174
_cell_length_c   10.22116174
_cell_angle_alpha   124.53260960
_cell_angle_beta   118.81318929
_cell_angle_gamma   87.20110101
_symmetry_Int_Tables_number   1
_chemical_formula_structural   Al2OsPd
_chemical_formula_sum   'Al2 Os1 Pd1'
_cell_volume   732.58591027
_cell_formula_units_Z   1
loop_
 _symmetry_equiv_pos_site_id
 _symmetry_equiv_pos_as_xyz
  1  'x, y, z'
loop_
 _atom_site_type_symbol
 _atom_site_label
 _atom_site_symmetry_multiplicity
 _atom_site_fract_x
 _atom_site_fract_y
 _atom_site_fract_z
 _atom_site_occupancy
  Al  Al0  1  0.00000000  0.25052700  0.25052700  1
  Al  Al1  1  0.00000000  0.74947300  0.74947300  1
  Os  Os0  1  0.00000000  0.50000000  0.50000000  1
  Pd  Pd0  1  0.00000000  0.00000000  0.00000000  1
loop_
_geom_bond_atom_site_label_1
_geom_bond_atom_site_label_2
_geom_bond_distance
_geom_bond_site_symmetry_2
Al0 Os0 2.373260 1_555
Al0 Pd0 2.383287 1_555
Al1 Os0 2.373260 1_555
Al1 Pd0 2.383287 1_566
