# generated using pymatgen
data_Na2Tm2B2TeO10
_symmetry_space_group_name_H-M   'P 1'
_cell_length_a   6.32649689
_cell_length_b   6.73001297
_cell_length_c   9.93526300
_cell_angle_alpha   90.00000000
_cell_angle_beta   90.00000000
_cell_angle_gamma   103.75547802
_symmetry_Int_Tables_number   1
_chemical_formula_structural   Na2Tm2B2TeO10
_chemical_formula_sum   'Na4 Tm4 B4 Te2 O20'
_cell_volume   410.88530050
_cell_formula_units_Z   2
loop_
 _symmetry_equiv_pos_site_id
 _symmetry_equiv_pos_as_xyz
  1  'x, y, z'
loop_
 _atom_site_type_symbol
 _atom_site_label
 _atom_site_symmetry_multiplicity
 _atom_site_fract_x
 _atom_site_fract_y
 _atom_site_fract_z
 _atom_site_occupancy
  Na  Na0  1  0.41654000  0.33260900  0.11107000  1
  Na  Na1  1  0.58346000  0.16739100  0.61107000  1
  Na  Na2  1  0.58346000  0.66739100  0.88893000  1
  Na  Na3  1  0.41654000  0.83260900  0.38893000  1
  Tm  Tm0  1  0.87274300  0.47630600  0.33452000  1
  Tm  Tm1  1  0.12725700  0.02369400  0.83452000  1
  Tm  Tm2  1  0.12725700  0.52369400  0.66548000  1
  Tm  Tm3  1  0.87274300  0.97630600  0.16548000  1
  B  B0  1  0.66322000  0.12661800  0.90004700  1
  B  B1  1  0.33678000  0.37338200  0.40004700  1
  B  B2  1  0.33678000  0.87338200  0.09995300  1
  B  B3  1  0.66322000  0.62661800  0.59995300  1
  Te  Te0  1  0.00000000  0.50000000  0.00000000  1
  Te  Te1  1  0.00000000  0.00000000  0.50000000  1
  O  O0  1  0.52238600  0.44680600  0.32907900  1
  O  O1  1  0.47761400  0.05319400  0.82907900  1
  O  O2  1  0.47761400  0.55319400  0.67092100  1
  O  O3  1  0.52238600  0.94680600  0.17092100  1
  O  O4  1  0.00119200  0.31992500  0.15214700  1
  O  O5  1  0.99880800  0.18007500  0.65214700  1
  O  O6  1  0.99880800  0.68007500  0.84785300  1
  O  O7  1  0.00119200  0.81992500  0.34785300  1
  O  O8  1  0.70845000  0.33727400  0.93655400  1
  O  O9  1  0.29155000  0.16272600  0.43655400  1
  O  O10  1  0.29155000  0.66272600  0.06344600  1
  O  O11  1  0.70845000  0.83727400  0.56344600  1
  O  O12  1  0.19633100  0.49134500  0.43790800  1
  O  O13  1  0.80366900  0.00865500  0.93790800  1
  O  O14  1  0.80366900  0.50865500  0.56209200  1
  O  O15  1  0.19633100  0.99134500  0.06209200  1
  O  O16  1  0.16273800  0.36286600  0.88249600  1
  O  O17  1  0.83726200  0.13713400  0.38249600  1
  O  O18  1  0.83726200  0.63713400  0.11750400  1
  O  O19  1  0.16273800  0.86286600  0.61750400  1
loop_
_geom_bond_atom_site_label_1
_geom_bond_atom_site_label_2
_geom_bond_distance
_geom_bond_site_symmetry_2
Na0 O0 2.342176 1_555
Na0 O15 2.435347 1_545
Na0 O8 2.527893 1_554
Na0 O10 2.573040 1_555
Na0 O4 2.640448 1_555
Na0 O16 2.816441 1_554
Na0 O3 2.893172 1_545
Na0 O18 2.948696 1_555
Na1 O1 2.342176 1_555
Na1 O14 2.435347 1_555
Na1 O9 2.527893 1_555
Na1 O11 2.573040 1_545
Na1 O5 2.640448 1_555
Na1 O17 2.816441 1_555
Na1 O2 2.893172 1_555
Na1 O19 2.948696 1_545
Na2 O2 2.342176 1_555
Na2 O13 2.435347 1_565
Na2 O10 2.527893 1_556
Na2 O8 2.573040 1_555
Na2 O6 2.640448 1_555
Na2 O18 2.816441 1_556
Na2 O1 2.893172 1_565
Na2 O16 2.948696 1_555
Na3 O3 2.342176 1_555
Na3 O12 2.435347 1_555
Na3 O11 2.527893 1_555
Na3 O9 2.573040 1_565
Na3 O7 2.640448 1_555
Na3 O19 2.816441 1_555
Na3 O0 2.893172 1_555
Na3 O17 2.948696 1_565
B0 O1 1.358019 1_555
B0 O13 1.377224 1_555
B0 O8 1.424934 1_555
B1 O0 1.358019 1_555
B1 O12 1.377224 1_555
B1 O9 1.424934 1_555
B2 O3 1.358019 1_555
B2 O15 1.377224 1_555
B2 O10 1.424934 1_555
B3 O2 1.358019 1_555
B3 O14 1.377224 1_555
B3 O11 1.424934 1_555
O0 Tm0 2.178550 1_555
O1 Tm1 2.178550 1_555
O2 Tm2 2.178550 1_555
O3 Tm3 2.178550 1_555
O4 Te0 1.938587 1_555
O4 Tm3 2.265426 1_445
O4 Tm0 2.336194 1_455
O5 Te1 1.938587 1_655
O5 Tm2 2.265426 1_655
O5 Tm1 2.336194 1_655
O6 Te0 1.938587 1_656
O6 Tm1 2.265426 1_665
O6 Tm2 2.336194 1_655
O7 Te1 1.938587 1_565
O7 Tm0 2.265426 1_455
O7 Tm3 2.336194 1_455
O8 Te0 2.009531 1_656
O9 Te1 2.009531 1_555
O10 Te0 2.009531 1_555
O11 Te1 2.009531 1_665
O12 Tm0 2.271070 1_455
O12 Tm2 2.322859 1_555
O13 Tm1 2.271070 1_655
O13 Tm3 2.322859 1_546
O14 Tm2 2.271070 1_655
O14 Tm0 2.322859 1_555
O15 Tm3 2.271070 1_455
O15 Tm1 2.322859 1_564
O16 Te0 1.930425 1_556
O16 Tm1 2.290050 1_555
O16 Tm2 2.446687 1_555
O17 Te1 1.930425 1_655
O17 Tm0 2.290050 1_555
O17 Tm3 2.446687 1_545
O18 Te0 1.930425 1_655
O18 Tm3 2.290050 1_555
O18 Tm0 2.446687 1_555
O19 Te1 1.930425 1_565
O19 Tm2 2.290050 1_555
O19 Tm1 2.446687 1_565
