# generated using pymatgen
data_CsSe4
_symmetry_space_group_name_H-M   'P 1'
_cell_length_a   10.43483300
_cell_length_b   14.10646500
_cell_length_c   19.72740500
_cell_angle_alpha   90.00000000
_cell_angle_beta   90.00000000
_cell_angle_gamma   90.00000000
_symmetry_Int_Tables_number   1
_chemical_formula_structural   CsSe4
_chemical_formula_sum   'Cs16 Se64'
_cell_volume   2903.84652577
_cell_formula_units_Z   16
loop_
 _symmetry_equiv_pos_site_id
 _symmetry_equiv_pos_as_xyz
  1  'x, y, z'
loop_
 _atom_site_type_symbol
 _atom_site_label
 _atom_site_symmetry_multiplicity
 _atom_site_fract_x
 _atom_site_fract_y
 _atom_site_fract_z
 _atom_site_occupancy
  Cs  Cs0  1  0.96759900  0.38779900  0.25000000  1
  Cs  Cs1  1  0.03240100  0.61220100  0.75000000  1
  Cs  Cs2  1  0.96759900  0.11220100  0.75000000  1
  Cs  Cs3  1  0.03240100  0.88779900  0.25000000  1
  Cs  Cs4  1  0.64960700  0.61601000  0.25000000  1
  Cs  Cs5  1  0.35039300  0.38399000  0.75000000  1
  Cs  Cs6  1  0.64960700  0.88399000  0.75000000  1
  Cs  Cs7  1  0.35039300  0.11601000  0.25000000  1
  Cs  Cs8  1  0.88233100  0.25000000  0.50000000  1
  Cs  Cs9  1  0.11766900  0.75000000  0.00000000  1
  Cs  Cs10  1  0.11766900  0.75000000  0.50000000  1
  Cs  Cs11  1  0.88233100  0.25000000  0.00000000  1
  Cs  Cs12  1  0.40137600  0.25000000  0.50000000  1
  Cs  Cs13  1  0.59862400  0.75000000  0.00000000  1
  Cs  Cs14  1  0.59862400  0.75000000  0.50000000  1
  Cs  Cs15  1  0.40137600  0.25000000  0.00000000  1
  Se  Se0  1  0.18391200  0.64002400  0.25000000  1
  Se  Se1  1  0.81608800  0.35997600  0.75000000  1
  Se  Se2  1  0.18391200  0.85997600  0.75000000  1
  Se  Se3  1  0.81608800  0.14002400  0.25000000  1
  Se  Se4  1  0.31301100  0.59758100  0.34539900  1
  Se  Se5  1  0.68698900  0.40241900  0.84539900  1
  Se  Se6  1  0.31301100  0.90241900  0.65460100  1
  Se  Se7  1  0.68698900  0.09758100  0.15460100  1
  Se  Se8  1  0.68698900  0.40241900  0.65460100  1
  Se  Se9  1  0.31301100  0.59758100  0.15460100  1
  Se  Se10  1  0.68698900  0.09758100  0.34539900  1
  Se  Se11  1  0.31301100  0.90241900  0.84539900  1
  Se  Se12  1  0.30056800  0.42597800  0.34391000  1
  Se  Se13  1  0.69943200  0.57402200  0.84391000  1
  Se  Se14  1  0.30056800  0.07402200  0.65609000  1
  Se  Se15  1  0.69943200  0.92597800  0.15609000  1
  Se  Se16  1  0.69943200  0.57402200  0.65609000  1
  Se  Se17  1  0.30056800  0.42597800  0.15609000  1
  Se  Se18  1  0.69943200  0.92597800  0.34391000  1
  Se  Se19  1  0.30056800  0.07402200  0.84391000  1
  Se  Se20  1  0.45584400  0.38737300  0.25000000  1
  Se  Se21  1  0.54415600  0.61262700  0.75000000  1
  Se  Se22  1  0.45584400  0.11262700  0.75000000  1
  Se  Se23  1  0.54415600  0.88737300  0.25000000  1
  Se  Se24  1  0.64840900  0.33547700  0.35108900  1
  Se  Se25  1  0.35159100  0.66452300  0.85108900  1
  Se  Se26  1  0.64840900  0.16452300  0.64891100  1
  Se  Se27  1  0.35159100  0.83547700  0.14891100  1
  Se  Se28  1  0.35159100  0.66452300  0.64891100  1
  Se  Se29  1  0.64840900  0.33547700  0.14891100  1
  Se  Se30  1  0.35159100  0.83547700  0.35108900  1
  Se  Se31  1  0.64840900  0.16452300  0.85108900  1
  Se  Se32  1  0.60432400  0.45771700  0.43032000  1
  Se  Se33  1  0.39567600  0.54228300  0.93032000  1
  Se  Se34  1  0.60432400  0.04228300  0.56968000  1
  Se  Se35  1  0.39567600  0.95771700  0.06968000  1
  Se  Se36  1  0.39567600  0.54228300  0.56968000  1
  Se  Se37  1  0.60432400  0.45771700  0.06968000  1
  Se  Se38  1  0.39567600  0.95771700  0.43032000  1
  Se  Se39  1  0.60432400  0.04228300  0.93032000  1
  Se  Se40  1  0.80629000  0.51048900  0.47604300  1
  Se  Se41  1  0.19371000  0.48951100  0.97604300  1
  Se  Se42  1  0.80629000  0.98951100  0.52395700  1
  Se  Se43  1  0.19371000  0.01048900  0.02395700  1
  Se  Se44  1  0.19371000  0.48951100  0.52395700  1
  Se  Se45  1  0.80629000  0.51048900  0.02395700  1
  Se  Se46  1  0.19371000  0.01048900  0.47604300  1
  Se  Se47  1  0.80629000  0.98951100  0.97604300  1
  Se  Se48  1  0.92323800  0.58483800  0.38709300  1
  Se  Se49  1  0.07676200  0.41516200  0.88709300  1
  Se  Se50  1  0.92323800  0.91516200  0.61290700  1
  Se  Se51  1  0.07676200  0.08483800  0.11290700  1
  Se  Se52  1  0.07676200  0.41516200  0.61290700  1
  Se  Se53  1  0.92323800  0.58483800  0.11290700  1
  Se  Se54  1  0.07676200  0.08483800  0.38709300  1
  Se  Se55  1  0.92323800  0.91516200  0.88709300  1
  Se  Se56  1  0.85498700  0.74575200  0.37412800  1
  Se  Se57  1  0.14501300  0.25424800  0.87412800  1
  Se  Se58  1  0.85498700  0.75424800  0.62587200  1
  Se  Se59  1  0.14501300  0.24575200  0.12587200  1
  Se  Se60  1  0.14501300  0.25424800  0.62587200  1
  Se  Se61  1  0.85498700  0.74575200  0.12587200  1
  Se  Se62  1  0.14501300  0.24575200  0.37412800  1
  Se  Se63  1  0.85498700  0.75424800  0.87412800  1
loop_
_geom_bond_atom_site_label_1
_geom_bond_atom_site_label_2
_geom_bond_distance
_geom_bond_site_symmetry_2
Cs0 Se62 3.665875 1_655
Cs0 Se59 3.665875 1_655
Cs0 Se3 3.836165 1_555
Cs0 Se48 3.905674 1_555
Cs0 Se53 3.905674 1_555
Cs0 Se29 3.951609 1_555
Cs0 Se24 3.951609 1_555
Cs0 Se17 3.974188 1_655
Cs0 Se12 3.974188 1_655
Cs0 Se0 4.213584 1_655
Cs1 Se63 3.665875 1_455
Cs1 Se58 3.665875 1_455
Cs1 Se2 3.836165 1_555
Cs1 Se49 3.905674 1_555
Cs1 Se52 3.905674 1_555
Cs1 Se28 3.951609 1_555
Cs1 Se25 3.951609 1_555
Cs1 Se16 3.974188 1_455
Cs1 Se13 3.974188 1_455
Cs1 Se1 4.213584 1_455
Cs2 Se57 3.665875 1_655
Cs2 Se60 3.665875 1_655
Cs2 Se1 3.836165 1_555
Cs2 Se55 3.905674 1_545
Cs2 Se50 3.905674 1_545
Cs2 Se31 3.951609 1_555
Cs2 Se26 3.951609 1_555
Cs2 Se14 3.974188 1_655
Cs2 Se19 3.974188 1_655
Cs2 Se2 4.213584 1_645
Cs3 Se56 3.665875 1_455
Cs3 Se61 3.665875 1_455
Cs3 Se0 3.836165 1_555
Cs3 Se54 3.905674 1_565
Cs3 Se51 3.905674 1_565
Cs3 Se30 3.951609 1_555
Cs3 Se27 3.951609 1_555
Cs3 Se15 3.974188 1_455
Cs3 Se18 3.974188 1_455
Cs3 Se3 4.213584 1_465
Cs4 Se56 3.733468 1_555
Cs4 Se61 3.733468 1_555
Cs4 Se20 3.806615 1_555
Cs4 Se48 3.957313 1_555
Cs4 Se53 3.957313 1_555
Cs4 Se23 3.982986 1_555
Cs4 Se9 3.993222 1_555
Cs4 Se4 3.993222 1_555
Cs4 Se37 4.226507 1_555
Cs4 Se32 4.226507 1_555
Cs5 Se57 3.733468 1_555
Cs5 Se60 3.733468 1_555
Cs5 Se21 3.806615 1_555
Cs5 Se49 3.957313 1_555
Cs5 Se52 3.957313 1_555
Cs5 Se22 3.982986 1_555
Cs5 Se8 3.993222 1_555
Cs5 Se5 3.993222 1_555
Cs5 Se36 4.226507 1_555
Cs5 Se33 4.226507 1_555
Cs6 Se63 3.733468 1_555
Cs6 Se58 3.733468 1_555
Cs6 Se22 3.806615 1_565
Cs6 Se55 3.957313 1_555
Cs6 Se50 3.957313 1_555
Cs6 Se21 3.982986 1_555
Cs6 Se11 3.993222 1_555
Cs6 Se6 3.993222 1_555
Cs6 Se34 4.226507 1_565
Cs6 Se39 4.226507 1_565
Cs7 Se62 3.733468 1_555
Cs7 Se59 3.733468 1_555
Cs7 Se23 3.806615 1_545
Cs7 Se54 3.957313 1_555
Cs7 Se51 3.957313 1_555
Cs7 Se20 3.982986 1_555
Cs7 Se10 3.993222 1_555
Cs7 Se7 3.993222 1_555
Cs7 Se35 4.226507 1_545
Cs7 Se38 4.226507 1_545
Cs8 Se60 3.699031 1_655
Cs8 Se62 3.699031 1_655
Cs8 Se40 3.788864 1_555
Cs8 Se42 3.788864 1_545
Cs8 Se52 3.808622 1_655
Cs8 Se54 3.808622 1_655
Cs8 Se24 4.005213 1_555
Cs8 Se26 4.005213 1_555
Cs8 Se8 4.252007 1_555
Cs8 Se10 4.252007 1_555
Cs9 Se61 3.699031 1_455
Cs9 Se63 3.699031 1_454
Cs9 Se43 3.788864 1_565
Cs9 Se41 3.788864 1_554
Cs9 Se53 3.808622 1_455
Cs9 Se55 3.808622 1_454
Cs9 Se27 4.005213 1_555
Cs9 Se25 4.005213 1_554
Cs9 Se11 4.252007 1_554
Cs9 Se9 4.252007 1_555
Cs10 Se58 3.699031 1_455
Cs10 Se56 3.699031 1_455
Cs10 Se46 3.788864 1_565
Cs10 Se44 3.788864 1_555
Cs10 Se50 3.808622 1_455
Cs10 Se48 3.808622 1_455
Cs10 Se30 4.005213 1_555
Cs10 Se28 4.005213 1_555
Cs10 Se6 4.252007 1_555
Cs10 Se4 4.252007 1_555
Cs11 Se59 3.699031 1_655
Cs11 Se57 3.699031 1_654
Cs11 Se45 3.788864 1_555
Cs11 Se47 3.788864 1_544
Cs11 Se51 3.808622 1_655
Cs11 Se49 3.808622 1_654
Cs11 Se29 4.005213 1_555
Cs11 Se31 4.005213 1_554
Cs11 Se5 4.252007 1_554
Cs11 Se7 4.252007 1_555
Cs12 Se60 3.650439 1_555
Cs12 Se62 3.650439 1_555
Cs12 Se32 3.867830 1_555
Cs12 Se34 3.867830 1_555
Cs12 Se44 4.041581 1_555
Cs12 Se46 4.041581 1_555
Cs12 Se24 4.090030 1_555
Cs12 Se26 4.090030 1_555
Cs12 Se12 4.092769 1_555
Cs12 Se14 4.092769 1_555
Cs13 Se61 3.650439 1_555
Cs13 Se63 3.650439 1_554
Cs13 Se35 3.867830 1_555
Cs13 Se33 3.867830 1_554
Cs13 Se47 4.041581 1_554
Cs13 Se45 4.041581 1_555
Cs13 Se27 4.090030 1_555
Cs13 Se25 4.090030 1_554
Cs13 Se15 4.092769 1_555
Cs13 Se13 4.092769 1_554
Cs14 Se58 3.650439 1_555
Cs14 Se56 3.650439 1_555
Cs14 Se38 3.867830 1_555
Cs14 Se36 3.867830 1_555
Cs14 Se42 4.041581 1_555
Cs14 Se40 4.041581 1_555
Cs14 Se30 4.090030 1_555
Cs14 Se28 4.090030 1_555
Cs14 Se18 4.092769 1_555
Cs14 Se16 4.092769 1_555
Cs15 Se59 3.650439 1_555
Cs15 Se57 3.650439 1_554
Cs15 Se39 3.867830 1_554
Cs15 Se37 3.867830 1_555
Cs15 Se43 4.041581 1_555
Cs15 Se41 4.041581 1_554
Cs15 Se29 4.090030 1_555
Cs15 Se31 4.090030 1_554
Cs15 Se17 4.092769 1_555
Cs15 Se19 4.092769 1_554
Se0 Se9 2.390616 1_555
Se0 Se4 2.390616 1_555
Se1 Se5 2.390616 1_555
Se1 Se8 2.390616 1_555
Se2 Se6 2.390616 1_555
Se3 Se7 2.390616 1_555
Se10 Se3 2.390616 1_555
Se10 Se18 2.424369 1_545
Se11 Se2 2.390616 1_555
Se11 Se19 2.424369 1_565
Se12 Se4 2.424369 1_555
Se12 Se20 2.520714 1_555
Se12 Se62 3.074681 1_555
Se13 Se5 2.424369 1_555
Se13 Se21 2.520714 1_555
Se13 Se63 3.074681 1_555
Se14 Se6 2.424369 1_545
Se14 Se22 2.520714 1_555
Se14 Se60 3.074681 1_555
Se15 Se7 2.424369 1_565
Se15 Se23 2.520714 1_555
Se15 Se61 3.074681 1_555
Se16 Se8 2.424369 1_555
Se16 Se21 2.520714 1_555
Se16 Se58 3.074681 1_555
Se17 Se9 2.424369 1_555
Se17 Se20 2.520714 1_555
Se17 Se59 3.074681 1_555
Se18 Se23 2.520714 1_555
Se18 Se56 3.074681 1_555
Se19 Se22 2.520714 1_555
Se19 Se57 3.074681 1_555
Se20 Se24 2.924120 1_555
Se20 Se29 2.924120 1_555
Se21 Se28 2.924120 1_555
Se21 Se25 2.924120 1_555
Se22 Se26 2.924120 1_555
Se22 Se31 2.924120 1_555
Se23 Se30 2.924120 1_555
Se23 Se27 2.924120 1_555
Se24 Se32 2.372366 1_555
Se25 Se33 2.372366 1_555
Se26 Se34 2.372366 1_555
Se27 Se35 2.372366 1_555
Se28 Se36 2.372366 1_555
Se29 Se37 2.372366 1_555
Se30 Se38 2.372366 1_555
Se31 Se39 2.372366 1_555
Se32 Se40 2.410238 1_555
Se33 Se41 2.410238 1_555
Se34 Se42 2.410238 1_545
Se35 Se43 2.410238 1_565
Se36 Se44 2.410238 1_555
Se37 Se45 2.410238 1_555
Se38 Se46 2.410238 1_565
Se39 Se47 2.410238 1_545
Se40 Se48 2.380831 1_555
Se41 Se49 2.380831 1_555
Se42 Se50 2.380831 1_555
Se43 Se51 2.380831 1_555
Se44 Se52 2.380831 1_555
Se45 Se53 2.380831 1_555
Se46 Se54 2.380831 1_555
Se47 Se55 2.380831 1_555
Se48 Se56 2.392739 1_555
Se49 Se57 2.392739 1_555
Se50 Se58 2.392739 1_555
Se51 Se59 2.392739 1_555
Se52 Se60 2.392739 1_555
Se53 Se61 2.392739 1_555
Se54 Se62 2.392739 1_555
Se55 Se63 2.392739 1_555
