# generated using pymatgen
data_ErAu
_symmetry_space_group_name_H-M   'P 1'
_cell_length_a   3.68110155
_cell_length_b   4.60362151
_cell_length_c   5.70274985
_cell_angle_alpha   90.00000000
_cell_angle_beta   108.82920102
_cell_angle_gamma   90.00000000
_symmetry_Int_Tables_number   1
_chemical_formula_structural   ErAu
_chemical_formula_sum   'Er2 Au2'
_cell_volume   91.46931309
_cell_formula_units_Z   2
loop_
 _symmetry_equiv_pos_site_id
 _symmetry_equiv_pos_as_xyz
  1  'x, y, z'
loop_
 _atom_site_type_symbol
 _atom_site_label
 _atom_site_symmetry_multiplicity
 _atom_site_fract_x
 _atom_site_fract_y
 _atom_site_fract_z
 _atom_site_occupancy
  Er  Er0  1  0.13890128  0.75000000  0.27780055  1
  Er  Er1  1  0.86109872  0.25000000  0.72219945  1
  Au  Au0  1  0.41132941  0.75000000  0.82265882  1
  Au  Au1  1  0.58867059  0.25000000  0.17734118  1
loop_
_geom_bond_atom_site_label_1
_geom_bond_atom_site_label_2
_geom_bond_distance
_geom_bond_site_symmetry_2
Au0 Er0 2.940909 1_555
Au0 Er1 2.996659 1_565
Au0 Er1 2.996659 1_555
Au0 Er1 2.996664 1_465
Au0 Er1 2.996664 1_455
Au0 Er0 3.069655 1_556
Au0 Er0 3.069659 1_656
Au1 Er1 2.940909 1_555
Au1 Er0 2.996659 1_545
Au1 Er0 2.996659 1_555
Au1 Er0 2.996664 1_645
Au1 Er0 2.996664 1_655
Au1 Er1 3.069655 1_554
Au1 Er1 3.069659 1_454
