# generated using pymatgen
data_MoO3
_symmetry_space_group_name_H-M   'P 1'
_cell_length_a   5.16073841
_cell_length_b   5.29905345
_cell_length_c   7.37961047
_cell_angle_alpha   90.00000000
_cell_angle_beta   90.00000000
_cell_angle_gamma   90.00000000
_symmetry_Int_Tables_number   1
_chemical_formula_structural   MoO3
_chemical_formula_sum   'Mo4 O12'
_cell_volume   201.81041914
_cell_formula_units_Z   4
loop_
 _symmetry_equiv_pos_site_id
 _symmetry_equiv_pos_as_xyz
  1  'x, y, z'
loop_
 _atom_site_type_symbol
 _atom_site_label
 _atom_site_symmetry_multiplicity
 _atom_site_fract_x
 _atom_site_fract_y
 _atom_site_fract_z
 _atom_site_occupancy
  Mo  Mo0  1  0.50000000  0.00000000  -0.00000000  1
  Mo  Mo1  1  -0.00000000  0.50000000  -0.00000000  1
  Mo  Mo2  1  -0.00000000  0.50000000  0.50000000  1
  Mo  Mo3  1  0.50000000  0.00000000  0.50000000  1
  O  O0  1  0.71088703  0.28645983  0.45761855  1
  O  O1  1  0.21088703  0.21354017  0.54238145  1
  O  O2  1  0.78911297  0.78645983  0.04238145  1
  O  O3  1  0.28911297  0.71354017  0.95761855  1
  O  O4  1  0.28911297  0.71354017  0.54238145  1
  O  O5  1  0.78911297  0.78645983  0.45761855  1
  O  O6  1  0.21088703  0.21354017  0.95761855  1
  O  O7  1  0.71088703  0.28645983  0.04238145  1
  O  O8  1  0.08385349  0.48760599  0.25000000  1
  O  O9  1  0.58385349  0.01239401  0.75000000  1
  O  O10  1  0.41614651  0.98760599  0.25000000  1
  O  O11  1  0.91614651  0.51239401  0.75000000  1
loop_
_geom_bond_atom_site_label_1
_geom_bond_atom_site_label_2
_geom_bond_distance
_geom_bond_site_symmetry_2
Mo0 O3 1.893807 1_544
Mo0 O7 1.893807 1_555
Mo0 O9 1.896114 1_554
Mo0 O10 1.896114 1_545
Mo0 O6 1.898531 1_554
Mo0 O2 1.898531 1_545
Mo1 O6 1.893807 1_554
Mo1 O2 1.893807 1_455
Mo1 O11 1.896114 1_454
Mo1 O8 1.896114 1_555
Mo1 O7 1.898531 1_455
Mo1 O3 1.898531 1_554
Mo2 O5 1.893807 1_455
Mo2 O1 1.893807 1_555
Mo2 O11 1.896114 1_455
Mo2 O8 1.896114 1_555
Mo2 O0 1.898531 1_455
Mo2 O4 1.898531 1_555
Mo3 O4 1.893807 1_545
Mo3 O0 1.893807 1_555
Mo3 O9 1.896114 1_555
Mo3 O10 1.896114 1_545
Mo3 O1 1.898531 1_555
Mo3 O5 1.898531 1_545
