# generated using pymatgen
data_YMg14Al
_symmetry_space_group_name_H-M   'P 1'
_cell_length_a   6.43188503
_cell_length_b   6.43188450
_cell_length_c   10.34133387
_cell_angle_alpha   90.00000000
_cell_angle_beta   90.00000000
_cell_angle_gamma   120.00000268
_symmetry_Int_Tables_number   1
_chemical_formula_structural   YMg14Al
_chemical_formula_sum   'Y1 Mg14 Al1'
_cell_volume   370.49614136
_cell_formula_units_Z   1
loop_
 _symmetry_equiv_pos_site_id
 _symmetry_equiv_pos_as_xyz
  1  'x, y, z'
loop_
 _atom_site_type_symbol
 _atom_site_label
 _atom_site_symmetry_multiplicity
 _atom_site_fract_x
 _atom_site_fract_y
 _atom_site_fract_z
 _atom_site_occupancy
  Y  Y0  1  0.16666700  0.33333300  0.62500000  1
  Mg  Mg0  1  0.16370613  0.83185256  0.12500000  1
  Mg  Mg1  1  0.17563049  0.83781475  0.62500000  1
  Mg  Mg2  1  0.66814744  0.33629387  0.12500000  1
  Mg  Mg3  1  0.66218525  0.32436951  0.62500000  1
  Mg  Mg4  1  0.66814744  0.83185256  0.12500000  1
  Mg  Mg5  1  0.66218525  0.83781475  0.62500000  1
  Mg  Mg6  1  0.33221789  0.16778211  0.36853068  1
  Mg  Mg7  1  0.33221789  0.16778211  0.88146932  1
  Mg  Mg8  1  0.33221789  0.66443677  0.36853068  1
  Mg  Mg9  1  0.33221789  0.66443677  0.88146932  1
  Mg  Mg10  1  0.83556323  0.16778211  0.36853068  1
  Mg  Mg11  1  0.83556323  0.16778211  0.88146932  1
  Mg  Mg12  1  0.83333300  0.66666700  0.38123294  1
  Mg  Mg13  1  0.83333300  0.66666700  0.86876706  1
  Al  Al0  1  0.16666700  0.33333300  0.12500000  1
loop_
_geom_bond_atom_site_label_1
_geom_bond_atom_site_label_2
_geom_bond_distance
_geom_bond_site_symmetry_2
Mg0 Mg8 3.137485 1_555
Mg0 Mg9 3.137485 1_554
Mg0 Mg6 3.137491 1_565
Mg0 Mg7 3.137491 1_564
Mg0 Mg2 3.187376 1_455
Mg0 Mg4 3.187377 1_455
Mg0 Mg13 3.226121 1_454
Mg0 Mg12 3.226121 1_455
Mg0 Mg2 3.244508 1_565
Mg0 Mg4 3.244509 1_555
Mg1 Mg3 3.129464 1_565
Mg1 Mg5 3.129464 1_555
Mg1 Mg12 3.160721 1_455
Mg1 Mg13 3.160721 1_455
Mg1 Y0 3.216330 1_565
Mg1 Y0 3.216330 1_555
Mg1 Mg9 3.227287 1_555
Mg1 Mg8 3.227287 1_555
Mg1 Mg6 3.227293 1_565
Mg1 Mg7 3.227293 1_565
Mg1 Mg3 3.302420 1_455
Mg1 Mg5 3.302421 1_455
Mg2 Mg7 3.137491 1_554
Mg2 Mg6 3.137491 1_555
Mg2 Mg4 3.187376 1_555
Mg2 Mg4 3.244508 1_545
Mg3 Mg5 3.129464 1_545
Mg3 Y0 3.216330 1_555
Mg3 Y0 3.216330 1_655
Mg3 Mg6 3.227293 1_555
Mg3 Mg7 3.227293 1_555
Mg3 Mg5 3.302420 1_555
Mg4 Mg9 3.137491 1_554
Mg4 Mg8 3.137491 1_555
Mg5 Y0 3.216330 1_555
Mg5 Y0 3.216330 1_665
Mg5 Mg8 3.227293 1_555
Mg5 Mg9 3.227293 1_555
Mg6 Mg8 3.194425 1_555
Mg6 Y0 3.230445 1_555
Mg6 Mg8 3.237459 1_545
Mg7 Mg9 3.194425 1_555
Mg7 Y0 3.230445 1_555
Mg7 Mg9 3.237459 1_545
Mg8 Y0 3.230451 1_555
Mg9 Y0 3.230451 1_555
Mg10 Mg2 3.137485 1_555
Mg10 Mg4 3.137491 1_545
Mg10 Mg8 3.194425 1_655
Mg10 Mg6 3.194426 1_655
Mg10 Mg12 3.218648 1_545
Mg10 Mg12 3.218648 1_555
Mg10 Mg3 3.227287 1_555
Mg10 Mg5 3.227293 1_545
Mg10 Y0 3.230451 1_655
Mg10 Mg8 3.237459 1_545
Mg10 Mg6 3.237459 1_555
Mg11 Mg2 3.137485 1_556
Mg11 Mg4 3.137491 1_546
Mg11 Mg9 3.194425 1_655
Mg11 Mg7 3.194426 1_655
Mg11 Mg13 3.218648 1_545
Mg11 Mg13 3.218648 1_555
Mg11 Mg3 3.227287 1_555
Mg11 Mg5 3.227293 1_545
Mg11 Y0 3.230451 1_655
Mg11 Mg9 3.237459 1_545
Mg11 Mg7 3.237459 1_555
Mg12 Mg5 3.160715 1_555
Mg12 Mg3 3.160721 1_555
Mg12 Mg6 3.218648 1_665
Mg12 Mg6 3.218648 1_555
Mg12 Mg8 3.218648 1_555
Mg12 Mg8 3.218648 1_655
Mg12 Mg4 3.226115 1_555
Mg12 Mg2 3.226121 1_555
Mg13 Mg5 3.160715 1_555
Mg13 Mg3 3.160721 1_555
Mg13 Mg7 3.218648 1_665
Mg13 Mg7 3.218648 1_555
Mg13 Mg9 3.218648 1_555
Mg13 Mg9 3.218648 1_655
Mg13 Mg4 3.226115 1_556
Mg13 Mg2 3.226121 1_556
Al0 Mg6 3.121526 1_555
Al0 Mg7 3.121526 1_554
Al0 Mg8 3.121532 1_555
Al0 Mg9 3.121532 1_554
Al0 Mg11 3.121533 1_454
Al0 Mg10 3.121533 1_455
Al0 Mg0 3.215985 1_555
Al0 Mg4 3.215985 1_445
Al0 Mg4 3.215985 1_555
Al0 Mg0 3.215985 1_545
Al0 Mg2 3.215985 1_455
Al0 Mg2 3.215985 1_555
