# generated using pymatgen
data_Ta3Ga2
_symmetry_space_group_name_H-M   'P 1'
_cell_length_a   6.99308042
_cell_length_b   13.71759436
_cell_length_c   13.71759436
_cell_angle_alpha   90.00000000
_cell_angle_beta   90.00000000
_cell_angle_gamma   90.00000000
_symmetry_Int_Tables_number   1
_chemical_formula_structural   Ta3Ga2
_chemical_formula_sum   'Ta48 Ga32'
_cell_volume   1315.90469124
_cell_formula_units_Z   16
loop_
 _symmetry_equiv_pos_site_id
 _symmetry_equiv_pos_as_xyz
  1  'x, y, z'
loop_
 _atom_site_type_symbol
 _atom_site_label
 _atom_site_symmetry_multiplicity
 _atom_site_fract_x
 _atom_site_fract_y
 _atom_site_fract_z
 _atom_site_occupancy
  Ta  Ta0_0  1  0.25000000  0.33777720  0.41222281  1
  Ta  Ta0_1  1  0.25000000  0.33777720  0.91222280  1
  Ta  Ta0_2  1  0.25000000  0.83777720  0.41222281  1
  Ta  Ta0_3  1  0.25000000  0.83777720  0.91222280  1
  Ta  Ta0_4  1  0.75000000  0.33777720  0.41222281  1
  Ta  Ta0_5  1  0.75000000  0.33777720  0.91222280  1
  Ta  Ta0_6  1  0.75000000  0.83777720  0.41222281  1
  Ta  Ta0_7  1  0.75000000  0.83777720  0.91222280  1
  Ta  Ta1_0  1  0.25000000  0.41222281  0.16222280  1
  Ta  Ta1_1  1  0.25000000  0.41222281  0.66222280  1
  Ta  Ta1_2  1  0.25000000  0.91222280  0.16222280  1
  Ta  Ta1_3  1  0.25000000  0.91222280  0.66222280  1
  Ta  Ta1_4  1  0.75000000  0.41222281  0.16222280  1
  Ta  Ta1_5  1  0.75000000  0.41222281  0.66222280  1
  Ta  Ta1_6  1  0.75000000  0.91222280  0.16222280  1
  Ta  Ta1_7  1  0.75000000  0.91222280  0.66222280  1
  Ta  Ta2_0  1  0.25000000  0.16222280  0.08777720  1
  Ta  Ta2_1  1  0.25000000  0.16222280  0.58777719  1
  Ta  Ta2_2  1  0.25000000  0.66222280  0.08777720  1
  Ta  Ta2_3  1  0.25000000  0.66222280  0.58777719  1
  Ta  Ta2_4  1  0.75000000  0.16222280  0.08777720  1
  Ta  Ta2_5  1  0.75000000  0.16222280  0.58777719  1
  Ta  Ta2_6  1  0.75000000  0.66222280  0.08777720  1
  Ta  Ta2_7  1  0.75000000  0.66222280  0.58777719  1
  Ta  Ta3_0  1  0.25000000  0.08777720  0.33777720  1
  Ta  Ta3_1  1  0.25000000  0.08777720  0.83777720  1
  Ta  Ta3_2  1  0.25000000  0.58777719  0.33777720  1
  Ta  Ta3_3  1  0.25000000  0.58777719  0.83777720  1
  Ta  Ta3_4  1  0.75000000  0.08777720  0.33777720  1
  Ta  Ta3_5  1  0.75000000  0.08777720  0.83777720  1
  Ta  Ta3_6  1  0.75000000  0.58777719  0.33777720  1
  Ta  Ta3_7  1  0.75000000  0.58777719  0.83777720  1
  Ta  Ta4_0  1  0.00000000  0.25000000  0.25000000  1
  Ta  Ta4_1  1  0.00000000  0.25000000  0.75000000  1
  Ta  Ta4_2  1  0.00000000  0.75000000  0.25000000  1
  Ta  Ta4_3  1  0.00000000  0.75000000  0.75000000  1
  Ta  Ta4_4  1  0.50000000  0.25000000  0.25000000  1
  Ta  Ta4_5  1  0.50000000  0.25000000  0.75000000  1
  Ta  Ta4_6  1  0.50000000  0.75000000  0.25000000  1
  Ta  Ta4_7  1  0.50000000  0.75000000  0.75000000  1
  Ta  Ta5_0  1  0.00000000  0.00000000  0.00000000  1
  Ta  Ta5_1  1  0.00000000  0.00000000  0.50000000  1
  Ta  Ta5_2  1  0.00000000  0.50000000  0.00000000  1
  Ta  Ta5_3  1  0.00000000  0.50000000  0.50000000  1
  Ta  Ta5_4  1  0.50000000  0.00000000  0.00000000  1
  Ta  Ta5_5  1  0.50000000  0.00000000  0.50000000  1
  Ta  Ta5_6  1  0.50000000  0.50000000  0.00000000  1
  Ta  Ta5_7  1  0.50000000  0.50000000  0.50000000  1
  Ga  Ga0_0  1  0.00000000  0.31279527  0.06279527  1
  Ga  Ga0_1  1  0.00000000  0.31279527  0.56279527  1
  Ga  Ga0_2  1  0.00000000  0.81279527  0.06279527  1
  Ga  Ga0_3  1  0.00000000  0.81279527  0.56279527  1
  Ga  Ga0_4  1  0.50000000  0.31279527  0.06279527  1
  Ga  Ga0_5  1  0.50000000  0.31279527  0.56279527  1
  Ga  Ga0_6  1  0.50000000  0.81279527  0.06279527  1
  Ga  Ga0_7  1  0.50000000  0.81279527  0.56279527  1
  Ga  Ga1_0  1  0.00000000  0.43720473  0.31279527  1
  Ga  Ga1_1  1  0.00000000  0.43720473  0.81279527  1
  Ga  Ga1_2  1  0.00000000  0.93720473  0.31279527  1
  Ga  Ga1_3  1  0.00000000  0.93720473  0.81279527  1
  Ga  Ga1_4  1  0.50000000  0.43720473  0.31279527  1
  Ga  Ga1_5  1  0.50000000  0.43720473  0.81279527  1
  Ga  Ga1_6  1  0.50000000  0.93720473  0.31279527  1
  Ga  Ga1_7  1  0.50000000  0.93720473  0.81279527  1
  Ga  Ga2_0  1  0.00000000  0.06279527  0.18720473  1
  Ga  Ga2_1  1  0.00000000  0.06279527  0.68720473  1
  Ga  Ga2_2  1  0.00000000  0.56279527  0.18720473  1
  Ga  Ga2_3  1  0.00000000  0.56279527  0.68720473  1
  Ga  Ga2_4  1  0.50000000  0.06279527  0.18720473  1
  Ga  Ga2_5  1  0.50000000  0.06279527  0.68720473  1
  Ga  Ga2_6  1  0.50000000  0.56279527  0.18720473  1
  Ga  Ga2_7  1  0.50000000  0.56279527  0.68720473  1
  Ga  Ga3_0  1  0.00000000  0.18720473  0.43720473  1
  Ga  Ga3_1  1  0.00000000  0.18720473  0.93720473  1
  Ga  Ga3_2  1  0.00000000  0.68720473  0.43720473  1
  Ga  Ga3_3  1  0.00000000  0.68720473  0.93720473  1
  Ga  Ga3_4  1  0.50000000  0.18720473  0.43720473  1
  Ga  Ga3_5  1  0.50000000  0.18720473  0.93720473  1
  Ga  Ga3_6  1  0.50000000  0.68720473  0.43720473  1
  Ga  Ga3_7  1  0.50000000  0.68720473  0.93720473  1
loop_
_geom_bond_atom_site_label_1
_geom_bond_atom_site_label_2
_geom_bond_distance
_geom_bond_site_symmetry_2
Ta0_0 Ta5_3 3.075431 1_555
Ta0_0 Ta5_7 3.075431 1_555
Ta0_0 Ta4_0 3.075431 1_555
Ta0_0 Ta4_4 3.075431 1_555
Ta0_1 Ta5_2 3.075431 1_556
Ta0_1 Ta5_6 3.075431 1_556
Ta0_1 Ta4_5 3.075431 1_555
Ta0_1 Ta4_1 3.075431 1_555
Ta0_2 Ta5_1 3.075431 1_565
Ta0_2 Ta5_5 3.075431 1_565
Ta0_2 Ta4_6 3.075431 1_555
Ta0_2 Ta4_2 3.075431 1_555
Ta0_3 Ta5_4 3.075431 1_566
Ta0_3 Ta5_0 3.075431 1_566
Ta0_3 Ta4_3 3.075431 1_555
Ta0_3 Ta4_7 3.075431 1_555
Ta0_4 Ta5_3 3.075431 1_655
Ta0_4 Ta5_7 3.075431 1_555
Ta0_4 Ta4_0 3.075431 1_655
Ta0_4 Ta4_4 3.075431 1_555
Ta0_5 Ta5_2 3.075431 1_656
Ta0_5 Ta5_6 3.075431 1_556
Ta0_5 Ta4_1 3.075431 1_655
Ta0_5 Ta4_5 3.075431 1_555
Ta0_6 Ta5_1 3.075431 1_665
Ta0_6 Ta5_5 3.075431 1_565
Ta0_6 Ta4_2 3.075431 1_655
Ta0_6 Ta4_6 3.075431 1_555
Ta0_7 Ta5_0 3.075431 1_666
Ta0_7 Ta4_3 3.075431 1_655
Ta0_7 Ta5_4 3.075431 1_566
Ta0_7 Ta4_7 3.075431 1_555
Ta1_0 Ta5_2 3.075431 1_555
Ta1_0 Ta5_6 3.075431 1_555
Ta1_0 Ta4_4 3.075431 1_555
Ta1_0 Ta4_0 3.075431 1_555
Ta1_1 Ta5_3 3.075431 1_555
Ta1_1 Ta5_7 3.075431 1_555
Ta1_1 Ta4_1 3.075431 1_555
Ta1_1 Ta4_5 3.075431 1_555
Ta1_2 Ta4_2 3.075431 1_555
Ta1_2 Ta4_6 3.075431 1_555
Ta1_2 Ta5_4 3.075431 1_565
Ta1_2 Ta5_0 3.075431 1_565
Ta1_3 Ta4_3 3.075431 1_555
Ta1_3 Ta4_7 3.075431 1_555
Ta1_3 Ta5_1 3.075431 1_565
Ta1_3 Ta5_5 3.075431 1_565
Ta1_4 Ta5_2 3.075431 1_655
Ta1_4 Ta4_0 3.075431 1_655
Ta1_4 Ta5_6 3.075431 1_555
Ta1_4 Ta4_4 3.075431 1_555
Ta1_5 Ta5_3 3.075431 1_655
Ta1_5 Ta5_7 3.075431 1_555
Ta1_5 Ta4_1 3.075431 1_655
Ta1_5 Ta4_5 3.075431 1_555
Ta1_6 Ta4_2 3.075431 1_655
Ta1_6 Ta4_6 3.075431 1_555
Ta1_6 Ta5_0 3.075431 1_665
Ta1_6 Ta5_4 3.075431 1_565
Ta1_7 Ta4_3 3.075431 1_655
Ta1_7 Ta4_7 3.075431 1_555
Ta1_7 Ta5_1 3.075431 1_665
Ta1_7 Ta5_5 3.075431 1_565
Ta2_0 Ta4_0 3.075431 1_555
Ta2_0 Ta4_4 3.075431 1_555
Ta2_0 Ta5_0 3.075431 1_555
Ta2_0 Ta5_4 3.075431 1_555
Ta2_1 Ta5_1 3.075431 1_555
Ta2_1 Ta5_5 3.075431 1_555
Ta2_1 Ta4_1 3.075431 1_555
Ta2_1 Ta4_5 3.075431 1_555
Ta2_2 Ta4_2 3.075431 1_555
Ta2_2 Ta4_6 3.075431 1_555
Ta2_2 Ta5_2 3.075431 1_555
Ta2_2 Ta5_6 3.075431 1_555
Ta2_3 Ta5_7 3.075431 1_555
Ta2_3 Ta5_3 3.075431 1_555
Ta2_3 Ta4_3 3.075431 1_555
Ta2_3 Ta4_7 3.075431 1_555
Ta2_4 Ta4_0 3.075431 1_655
Ta2_4 Ta5_0 3.075431 1_655
Ta2_4 Ta4_4 3.075431 1_555
Ta2_4 Ta5_4 3.075431 1_555
Ta2_5 Ta5_1 3.075431 1_655
Ta2_5 Ta5_5 3.075431 1_555
Ta2_5 Ta4_1 3.075431 1_655
Ta2_5 Ta4_5 3.075431 1_555
Ta2_6 Ta4_2 3.075431 1_655
Ta2_6 Ta5_2 3.075431 1_655
Ta2_6 Ta4_6 3.075431 1_555
Ta2_6 Ta5_6 3.075431 1_555
Ta2_7 Ta5_3 3.075431 1_655
Ta2_7 Ta5_7 3.075431 1_555
Ta2_7 Ta4_3 3.075431 1_655
Ta2_7 Ta4_7 3.075431 1_555
Ta3_0 Ta5_1 3.075431 1_555
Ta3_0 Ta5_5 3.075431 1_555
Ta3_0 Ta4_0 3.075431 1_555
Ta3_0 Ta4_4 3.075431 1_555
Ta3_1 Ta4_1 3.075431 1_555
Ta3_1 Ta4_5 3.075431 1_555
Ta3_1 Ta5_0 3.075431 1_556
Ta3_1 Ta5_4 3.075431 1_556
Ta3_2 Ta5_7 3.075431 1_555
Ta3_2 Ta5_3 3.075431 1_555
Ta3_2 Ta4_2 3.075431 1_555
Ta3_2 Ta4_6 3.075431 1_555
Ta3_3 Ta5_2 3.075431 1_556
Ta3_3 Ta5_6 3.075431 1_556
Ta3_3 Ta4_3 3.075431 1_555
Ta3_3 Ta4_7 3.075431 1_555
Ta3_4 Ta5_1 3.075431 1_655
Ta3_4 Ta5_5 3.075431 1_555
Ta3_4 Ta4_0 3.075431 1_655
Ta3_4 Ta4_4 3.075431 1_555
Ta3_5 Ta5_0 3.075431 1_656
Ta3_5 Ta4_1 3.075431 1_655
Ta3_5 Ta4_5 3.075431 1_555
Ta3_5 Ta5_4 3.075431 1_556
Ta3_6 Ta5_3 3.075431 1_655
Ta3_6 Ta5_7 3.075431 1_555
Ta3_6 Ta4_2 3.075431 1_655
Ta3_6 Ta4_6 3.075431 1_555
Ta3_7 Ta5_2 3.075431 1_656
Ta3_7 Ta5_6 3.075431 1_556
Ta3_7 Ta4_3 3.075431 1_655
Ta3_7 Ta4_7 3.075431 1_555
Ta4_0 Ta4_4 3.496540 1_455
Ta4_0 Ta4_4 3.496540 1_555
Ta4_1 Ta4_5 3.496540 1_455
Ta4_1 Ta4_5 3.496540 1_555
Ta4_2 Ta4_6 3.496540 1_455
Ta4_2 Ta4_6 3.496540 1_555
Ta4_3 Ta4_7 3.496540 1_555
Ta4_3 Ta4_7 3.496540 1_455
Ta5_0 Ta5_4 3.496540 1_555
Ta5_0 Ta5_4 3.496540 1_455
Ta5_1 Ta5_5 3.496540 1_555
Ta5_1 Ta5_5 3.496540 1_455
Ta5_2 Ta5_6 3.496540 1_555
Ta5_2 Ta5_6 3.496540 1_455
Ta5_3 Ta5_7 3.496540 1_555
Ta5_3 Ta5_7 3.496540 1_455
Ga0_0 Ga3_1 2.436407 1_554
Ga0_0 Ta1_4 2.603254 1_455
Ga0_0 Ta1_0 2.603254 1_555
Ga0_0 Ta4_0 2.708621 1_555
Ga0_0 Ta5_2 2.708621 1_555
Ga0_0 Ta2_4 2.727663 1_455
Ga0_0 Ta2_0 2.727663 1_555
Ga0_0 Ta0_5 2.727663 1_454
Ga0_0 Ta0_1 2.727663 1_554
Ga0_1 Ga3_0 2.436407 1_555
Ga0_1 Ta1_5 2.603254 1_455
Ga0_1 Ta1_1 2.603254 1_555
Ga0_1 Ta5_3 2.708621 1_555
Ga0_1 Ta4_1 2.708621 1_555
Ga0_1 Ta0_4 2.727663 1_455
Ga0_1 Ta2_5 2.727663 1_455
Ga0_1 Ta2_1 2.727663 1_555
Ga0_1 Ta0_0 2.727663 1_555
Ga0_2 Ga3_3 2.436407 1_554
Ga0_2 Ta1_6 2.603254 1_455
Ga0_2 Ta1_2 2.603254 1_555
Ga0_2 Ta4_2 2.708621 1_555
Ga0_2 Ta5_0 2.708621 1_565
Ga0_2 Ta2_6 2.727663 1_455
Ga0_2 Ta2_2 2.727663 1_555
Ga0_2 Ta0_7 2.727663 1_454
Ga0_2 Ta0_3 2.727663 1_554
Ga0_3 Ga3_2 2.436407 1_555
Ga0_3 Ta1_7 2.603254 1_455
Ga0_3 Ta1_3 2.603254 1_555
Ga0_3 Ta4_3 2.708621 1_555
Ga0_3 Ta5_1 2.708621 1_565
Ga0_3 Ta0_6 2.727663 1_455
Ga0_3 Ta2_7 2.727663 1_455
Ga0_3 Ta0_2 2.727663 1_555
Ga0_3 Ta2_3 2.727663 1_555
Ga0_4 Ga3_5 2.436407 1_554
Ga0_4 Ta1_0 2.603254 1_555
Ga0_4 Ta1_4 2.603254 1_555
Ga0_4 Ta4_4 2.708621 1_555
Ga0_4 Ta5_6 2.708621 1_555
Ga0_4 Ta2_0 2.727663 1_555
Ga0_4 Ta2_4 2.727663 1_555
Ga0_4 Ta0_1 2.727663 1_554
Ga0_4 Ta0_5 2.727663 1_554
Ga0_5 Ga3_4 2.436407 1_555
Ga0_5 Ta1_1 2.603254 1_555
Ga0_5 Ta1_5 2.603254 1_555
Ga0_5 Ta5_7 2.708621 1_555
Ga0_5 Ta4_5 2.708621 1_555
Ga0_5 Ta2_1 2.727663 1_555
Ga0_5 Ta0_0 2.727663 1_555
Ga0_5 Ta0_4 2.727663 1_555
Ga0_5 Ta2_5 2.727663 1_555
Ga0_6 Ga3_7 2.436407 1_554
Ga0_6 Ta1_2 2.603254 1_555
Ga0_6 Ta1_6 2.603254 1_555
Ga0_6 Ta4_6 2.708621 1_555
Ga0_6 Ta5_4 2.708621 1_565
Ga0_6 Ta2_2 2.727663 1_555
Ga0_6 Ta2_6 2.727663 1_555
Ga0_6 Ta0_3 2.727663 1_554
Ga0_6 Ta0_7 2.727663 1_554
Ga0_7 Ga3_6 2.436407 1_555
Ga0_7 Ta1_3 2.603254 1_555
Ga0_7 Ta1_7 2.603254 1_555
Ga0_7 Ta4_7 2.708621 1_555
Ga0_7 Ta5_5 2.708621 1_565
Ga0_7 Ta0_2 2.727663 1_555
Ga0_7 Ta2_3 2.727663 1_555
Ga0_7 Ta0_6 2.727663 1_555
Ga0_7 Ta2_7 2.727663 1_555
Ga1_0 Ga2_2 2.436407 1_555
Ga1_0 Ta0_4 2.603254 1_455
Ga1_0 Ta0_0 2.603254 1_555
Ga1_0 Ta5_3 2.708621 1_555
Ga1_0 Ta4_0 2.708621 1_555
Ga1_0 Ta3_6 2.727663 1_455
Ga1_0 Ta1_4 2.727663 1_455
Ga1_0 Ta1_0 2.727663 1_555
Ga1_0 Ta3_2 2.727663 1_555
Ga1_1 Ga2_3 2.436407 1_555
Ga1_1 Ta0_5 2.603254 1_455
Ga1_1 Ta0_1 2.603254 1_555
Ga1_1 Ta4_1 2.708621 1_555
Ga1_1 Ta5_2 2.708621 1_556
Ga1_1 Ta3_7 2.727663 1_455
Ga1_1 Ta1_5 2.727663 1_455
Ga1_1 Ta3_3 2.727663 1_555
Ga1_1 Ta1_1 2.727663 1_555
Ga1_2 Ga2_0 2.436407 1_565
Ga1_2 Ta0_6 2.603254 1_455
Ga1_2 Ta0_2 2.603254 1_555
Ga1_2 Ta4_2 2.708621 1_555
Ga1_2 Ta5_1 2.708621 1_565
Ga1_2 Ta1_6 2.727663 1_455
Ga1_2 Ta1_2 2.727663 1_555
Ga1_2 Ta3_4 2.727663 1_465
Ga1_2 Ta3_0 2.727663 1_565
Ga1_3 Ga2_1 2.436407 1_565
Ga1_3 Ta0_7 2.603254 1_455
Ga1_3 Ta0_3 2.603254 1_555
Ga1_3 Ta4_3 2.708621 1_555
Ga1_3 Ta5_0 2.708621 1_566
Ga1_3 Ta1_7 2.727663 1_455
Ga1_3 Ta3_5 2.727663 1_465
Ga1_3 Ta1_3 2.727663 1_555
Ga1_3 Ta3_1 2.727663 1_565
Ga1_4 Ga2_6 2.436407 1_555
Ga1_4 Ta0_0 2.603254 1_555
Ga1_4 Ta0_4 2.603254 1_555
Ga1_4 Ta5_7 2.708621 1_555
Ga1_4 Ta4_4 2.708621 1_555
Ga1_4 Ta1_0 2.727663 1_555
Ga1_4 Ta3_2 2.727663 1_555
Ga1_4 Ta3_6 2.727663 1_555
Ga1_4 Ta1_4 2.727663 1_555
Ga1_5 Ga2_7 2.436407 1_555
Ga1_5 Ta0_1 2.603254 1_555
Ga1_5 Ta0_5 2.603254 1_555
Ga1_5 Ta4_5 2.708621 1_555
Ga1_5 Ta5_6 2.708621 1_556
Ga1_5 Ta3_3 2.727663 1_555
Ga1_5 Ta3_7 2.727663 1_555
Ga1_5 Ta1_1 2.727663 1_555
Ga1_5 Ta1_5 2.727663 1_555
Ga1_6 Ga2_4 2.436407 1_565
Ga1_6 Ta0_2 2.603254 1_555
Ga1_6 Ta0_6 2.603254 1_555
Ga1_6 Ta4_6 2.708621 1_555
Ga1_6 Ta5_5 2.708621 1_565
Ga1_6 Ta1_2 2.727663 1_555
Ga1_6 Ta3_0 2.727663 1_565
Ga1_6 Ta1_6 2.727663 1_555
Ga1_6 Ta3_4 2.727663 1_565
Ga1_7 Ga2_5 2.436407 1_565
Ga1_7 Ta0_3 2.603254 1_555
Ga1_7 Ta0_7 2.603254 1_555
Ga1_7 Ta4_7 2.708621 1_555
Ga1_7 Ta5_4 2.708621 1_566
Ga1_7 Ta1_3 2.727663 1_555
Ga1_7 Ta3_1 2.727663 1_565
Ga1_7 Ta1_7 2.727663 1_555
Ga1_7 Ta3_5 2.727663 1_565
Ga2_0 Ta2_4 2.603254 1_455
Ga2_0 Ta2_0 2.603254 1_555
Ga2_0 Ta4_0 2.708621 1_555
Ga2_0 Ta5_0 2.708621 1_555
Ga2_0 Ta3_4 2.727663 1_455
Ga2_0 Ta1_2 2.727663 1_545
Ga2_0 Ta1_6 2.727663 1_445
Ga2_0 Ta3_0 2.727663 1_555
Ga2_1 Ta2_5 2.603254 1_455
Ga2_1 Ta2_1 2.603254 1_555
Ga2_1 Ta5_1 2.708621 1_555
Ga2_1 Ta4_1 2.708621 1_555
Ga2_1 Ta1_7 2.727663 1_445
Ga2_1 Ta1_3 2.727663 1_545
Ga2_1 Ta3_5 2.727663 1_455
Ga2_1 Ta3_1 2.727663 1_555
Ga2_2 Ta2_6 2.603254 1_455
Ga2_2 Ta2_2 2.603254 1_555
Ga2_2 Ta5_2 2.708621 1_555
Ga2_2 Ta4_2 2.708621 1_555
Ga2_2 Ta1_4 2.727663 1_455
Ga2_2 Ta1_0 2.727663 1_555
Ga2_2 Ta3_6 2.727663 1_455
Ga2_2 Ta3_2 2.727663 1_555
Ga2_3 Ta2_7 2.603254 1_455
Ga2_3 Ta2_3 2.603254 1_555
Ga2_3 Ta5_3 2.708621 1_555
Ga2_3 Ta4_3 2.708621 1_555
Ga2_3 Ta1_5 2.727663 1_455
Ga2_3 Ta1_1 2.727663 1_555
Ga2_3 Ta3_7 2.727663 1_455
Ga2_3 Ta3_3 2.727663 1_555
Ga2_4 Ta2_0 2.603254 1_555
Ga2_4 Ta2_4 2.603254 1_555
Ga2_4 Ta4_4 2.708621 1_555
Ga2_4 Ta5_4 2.708621 1_555
Ga2_4 Ta1_2 2.727663 1_545
Ga2_4 Ta3_0 2.727663 1_555
Ga2_4 Ta3_4 2.727663 1_555
Ga2_4 Ta1_6 2.727663 1_545
Ga2_5 Ta2_1 2.603254 1_555
Ga2_5 Ta2_5 2.603254 1_555
Ga2_5 Ta5_5 2.708621 1_555
Ga2_5 Ta4_5 2.708621 1_555
Ga2_5 Ta1_3 2.727663 1_545
Ga2_5 Ta1_7 2.727663 1_545
Ga2_5 Ta3_1 2.727663 1_555
Ga2_5 Ta3_5 2.727663 1_555
Ga2_6 Ta2_2 2.603254 1_555
Ga2_6 Ta2_6 2.603254 1_555
Ga2_6 Ta5_6 2.708621 1_555
Ga2_6 Ta4_6 2.708621 1_555
Ga2_6 Ta1_0 2.727663 1_555
Ga2_6 Ta1_4 2.727663 1_555
Ga2_6 Ta3_2 2.727663 1_555
Ga2_6 Ta3_6 2.727663 1_555
Ga2_7 Ta2_3 2.603254 1_555
Ga2_7 Ta2_7 2.603254 1_555
Ga2_7 Ta5_7 2.708621 1_555
Ga2_7 Ta4_7 2.708621 1_555
Ga2_7 Ta1_1 2.727663 1_555
Ga2_7 Ta1_5 2.727663 1_555
Ga2_7 Ta3_3 2.727663 1_555
Ga2_7 Ta3_7 2.727663 1_555
Ga3_0 Ta3_4 2.603254 1_455
Ga3_0 Ta3_0 2.603254 1_555
Ga3_0 Ta4_0 2.708621 1_555
Ga3_0 Ta5_1 2.708621 1_555
Ga3_0 Ta2_5 2.727663 1_455
Ga3_0 Ta2_1 2.727663 1_555
Ga3_0 Ta0_0 2.727663 1_555
Ga3_0 Ta0_4 2.727663 1_455
Ga3_1 Ta3_5 2.603254 1_455
Ga3_1 Ta3_1 2.603254 1_555
Ga3_1 Ta4_1 2.708621 1_555
Ga3_1 Ta5_0 2.708621 1_556
Ga3_1 Ta2_4 2.727663 1_456
Ga3_1 Ta0_1 2.727663 1_555
Ga3_1 Ta2_0 2.727663 1_556
Ga3_1 Ta0_5 2.727663 1_455
Ga3_2 Ta3_6 2.603254 1_455
Ga3_2 Ta3_2 2.603254 1_555
Ga3_2 Ta5_3 2.708621 1_555
Ga3_2 Ta4_2 2.708621 1_555
Ga3_2 Ta2_7 2.727663 1_455
Ga3_2 Ta2_3 2.727663 1_555
Ga3_2 Ta0_6 2.727663 1_455
Ga3_2 Ta0_2 2.727663 1_555
Ga3_3 Ta3_7 2.603254 1_455
Ga3_3 Ta3_3 2.603254 1_555
Ga3_3 Ta4_3 2.708621 1_555
Ga3_3 Ta5_2 2.708621 1_556
Ga3_3 Ta2_6 2.727663 1_456
Ga3_3 Ta2_2 2.727663 1_556
Ga3_3 Ta0_7 2.727663 1_455
Ga3_3 Ta0_3 2.727663 1_555
Ga3_4 Ta3_0 2.603254 1_555
Ga3_4 Ta3_4 2.603254 1_555
Ga3_4 Ta5_5 2.708621 1_555
Ga3_4 Ta4_4 2.708621 1_555
Ga3_4 Ta2_1 2.727663 1_555
Ga3_4 Ta0_0 2.727663 1_555
Ga3_4 Ta2_5 2.727663 1_555
Ga3_4 Ta0_4 2.727663 1_555
Ga3_5 Ta3_1 2.603254 1_555
Ga3_5 Ta3_5 2.603254 1_555
Ga3_5 Ta4_5 2.708621 1_555
Ga3_5 Ta5_4 2.708621 1_556
Ga3_5 Ta0_1 2.727663 1_555
Ga3_5 Ta2_0 2.727663 1_556
Ga3_5 Ta2_4 2.727663 1_556
Ga3_5 Ta0_5 2.727663 1_555
Ga3_6 Ta3_2 2.603254 1_555
Ga3_6 Ta3_6 2.603254 1_555
Ga3_6 Ta5_7 2.708621 1_555
Ga3_6 Ta4_6 2.708621 1_555
Ga3_6 Ta2_3 2.727663 1_555
Ga3_6 Ta2_7 2.727663 1_555
Ga3_6 Ta0_2 2.727663 1_555
Ga3_6 Ta0_6 2.727663 1_555
Ga3_7 Ta3_3 2.603254 1_555
Ga3_7 Ta3_7 2.603254 1_555
Ga3_7 Ta4_7 2.708621 1_555
Ga3_7 Ta5_6 2.708621 1_556
Ga3_7 Ta2_2 2.727663 1_556
Ga3_7 Ta2_6 2.727663 1_556
Ga3_7 Ta0_3 2.727663 1_555
Ga3_7 Ta0_7 2.727663 1_555
