# generated using pymatgen
data_LiV3Zn2O8
_symmetry_space_group_name_H-M   'P 1'
_cell_length_a   5.98342157
_cell_length_b   8.39780002
_cell_length_c   6.00374599
_cell_angle_alpha   89.99997477
_cell_angle_beta   89.99995941
_cell_angle_gamma   89.83276058
_symmetry_Int_Tables_number   1
_chemical_formula_structural   LiV3Zn2O8
_chemical_formula_sum   'Li2 V6 Zn4 O16'
_cell_volume   301.67240840
_cell_formula_units_Z   2
loop_
 _symmetry_equiv_pos_site_id
 _symmetry_equiv_pos_as_xyz
  1  'x, y, z'
loop_
 _atom_site_type_symbol
 _atom_site_label
 _atom_site_symmetry_multiplicity
 _atom_site_fract_x
 _atom_site_fract_y
 _atom_site_fract_z
 _atom_site_occupancy
  Li  Li0  1  0.24999800  0.37499900  0.99954800  1
  Li  Li1  1  0.74999800  0.87499900  0.49962100  1
  V  V0  1  0.25000100  0.87498600  0.50052400  1
  V  V1  1  0.49934700  0.12450400  0.74951600  1
  V  V2  1  0.00070300  0.62545200  0.74959900  1
  V  V3  1  0.75000200  0.37500000  0.00017100  1
  V  V4  1  0.99927500  0.62449900  0.24962200  1
  V  V5  1  0.50067000  0.12554300  0.24956800  1
  Zn  Zn0  1  0.50942300  0.49428400  0.50076500  1
  Zn  Zn1  1  0.00946900  0.99426400  0.00076100  1
  Zn  Zn2  1  0.99057300  0.25571700  0.50076400  1
  Zn  Zn3  1  0.49053600  0.75573200  0.00076200  1
  O  O0  1  0.77172100  0.62523200  0.99948000  1
  O  O1  1  0.27177000  0.12525100  0.49948000  1
  O  O2  1  0.22823500  0.62476400  0.49947700  1
  O  O3  1  0.72828000  0.12476300  0.99948400  1
  O  O4  1  0.98916200  0.39759700  0.23532400  1
  O  O5  1  0.48917200  0.89762400  0.73533500  1
  O  O6  1  0.01155900  0.85162200  0.26526900  1
  O  O7  1  0.51155900  0.35162300  0.76527200  1
  O  O8  1  0.78202800  0.62563200  0.49960700  1
  O  O9  1  0.28205100  0.12564200  0.99962500  1
  O  O10  1  0.01083200  0.85238300  0.73533300  1
  O  O11  1  0.51084200  0.35240600  0.23532600  1
  O  O12  1  0.98843800  0.39837700  0.76527200  1
  O  O13  1  0.48843600  0.89838300  0.26526800  1
  O  O14  1  0.21794700  0.62435900  0.99962000  1
  O  O15  1  0.71797200  0.12436400  0.49960700  1
loop_
_geom_bond_atom_site_label_1
_geom_bond_atom_site_label_2
_geom_bond_distance
_geom_bond_site_symmetry_2
Li0 O9 2.102257 1_555
Li0 O14 2.102281 1_555
Li0 O12 2.112910 1_455
Li0 O7 2.112911 1_555
Li0 O4 2.115134 1_456
Li0 O11 2.115175 1_556
Li1 O15 2.102310 1_565
Li1 O8 2.102328 1_555
Li1 O6 2.113216 1_655
Li1 O13 2.113231 1_555
Li1 O5 2.114861 1_555
Li1 O10 2.114883 1_655
O0 Zn3 2.005231 1_556
O0 V4 2.027112 1_556
O0 V2 2.031710 1_655
O0 V3 2.105795 1_556
O1 Zn2 2.005136 1_455
O1 V1 2.026734 1_555
O1 V5 2.031518 1_555
O1 V0 2.106097 1_545
O2 Zn0 2.005155 1_555
O2 V2 2.026933 1_555
O2 V4 2.031508 1_455
O2 V0 2.105735 1_555
O3 Zn1 2.005247 1_646
O3 V5 2.027079 1_556
O3 V1 2.031900 1_555
O3 V3 2.105838 1_556
O4 V4 1.908546 1_555
O4 Zn2 1.989800 1_555
O4 V3 2.019535 1_555
O5 V1 1.908343 1_565
O5 Zn3 1.989798 1_556
O5 V0 2.018180 1_555
O6 V4 1.911274 1_455
O6 Zn1 1.989183 1_555
O6 V0 2.017550 1_555
O7 V1 1.911255 1_555
O7 Zn0 1.989275 1_555
O7 V3 2.016070 1_556
O8 Zn0 1.971740 1_555
O8 V4 1.985509 1_555
O8 V2 1.991139 1_655
O9 Zn1 1.971767 1_546
O9 V1 1.986263 1_555
O9 V5 1.990698 1_556
O10 V2 1.908784 1_555
O10 Zn1 1.989748 1_556
O10 V0 2.018133 1_555
O11 V5 1.908216 1_555
O11 Zn0 1.989786 1_555
O11 V3 2.019540 1_555
O12 V2 1.910874 1_655
O12 Zn2 1.989276 1_555
O12 V3 2.016039 1_556
O13 V5 1.911587 1_565
O13 Zn3 1.989220 1_555
O13 V0 2.017551 1_555
O14 Zn3 1.971778 1_556
O14 V2 1.985661 1_555
O14 V4 1.991172 1_456
O15 Zn2 1.971744 1_555
O15 V5 1.985972 1_555
O15 V1 1.990566 1_555
