# generated using pymatgen
data_Y6Ag(GeS7)2
_symmetry_space_group_name_H-M   'P 1'
_cell_length_a   9.87889026
_cell_length_b   9.87889026
_cell_length_c   5.80234000
_cell_angle_alpha   90.00000000
_cell_angle_beta   90.00000000
_cell_angle_gamma   120.00000173
_symmetry_Int_Tables_number   1
_chemical_formula_structural   Y6Ag(GeS7)2
_chemical_formula_sum   'Y6 Ag1 Ge2 S14'
_cell_volume   490.39961410
_cell_formula_units_Z   1
loop_
 _symmetry_equiv_pos_site_id
 _symmetry_equiv_pos_as_xyz
  1  'x, y, z'
loop_
 _atom_site_type_symbol
 _atom_site_label
 _atom_site_symmetry_multiplicity
 _atom_site_fract_x
 _atom_site_fract_y
 _atom_site_fract_z
 _atom_site_occupancy
  Y  Y0  1  0.02408000  0.46922500  0.25515300  1
  Y  Y1  1  0.53077500  0.55485500  0.25515300  1
  Y  Y2  1  0.44514500  0.97592000  0.25515300  1
  Y  Y3  1  0.30962500  0.19887500  0.75504200  1
  Y  Y4  1  0.80112500  0.11075000  0.75504200  1
  Y  Y5  1  0.88925000  0.69037500  0.75504200  1
  Ag  Ag0  1  0.66666700  0.33333300  0.53734500  1
  Ge  Ge0  1  0.00000000  0.00000000  0.17912700  1
  Ge  Ge1  1  0.33333300  0.66666700  0.67329100  1
  S  S0  1  0.00000000  0.00000000  0.55873000  1
  S  S1  1  0.33333300  0.66666700  0.05259500  1
  S  S2  1  0.92863400  0.43364100  0.79185100  1
  S  S3  1  0.56635900  0.49499300  0.79185100  1
  S  S4  1  0.50500700  0.07136600  0.79185100  1
  S  S5  1  0.40431100  0.23023000  0.29678200  1
  S  S6  1  0.76977000  0.17408100  0.29678200  1
  S  S7  1  0.82591900  0.59568900  0.29678200  1
  S  S8  1  0.18715000  0.75638300  0.51072700  1
  S  S9  1  0.24361700  0.43076700  0.51072700  1
  S  S10  1  0.56923300  0.81285000  0.51072700  1
  S  S11  1  0.14755700  0.91148700  0.01575600  1
  S  S12  1  0.08851300  0.23607000  0.01575600  1
  S  S13  1  0.76393000  0.85244300  0.01575600  1
loop_
_geom_bond_atom_site_label_1
_geom_bond_atom_site_label_2
_geom_bond_distance
_geom_bond_site_symmetry_2
Ag0 S6 2.657675 1_555
Ag0 S7 2.657681 1_555
Ag0 S5 2.657682 1_555
Ag0 S2 2.701047 1_555
Ag0 S4 2.701048 1_555
Ag0 S3 2.701054 1_555
Ge0 S0 2.202586 1_555
Ge0 S13 2.250042 1_445
Ge0 S12 2.250042 1_555
Ge0 S11 2.250042 1_545
Ge1 S1 2.200851 1_556
Ge1 S8 2.245142 1_555
Ge1 S10 2.245149 1_555
Ge1 S9 2.245150 1_555
S0 Y3 2.916149 1_555
S0 Y5 2.916149 1_445
S0 Y4 2.916149 1_455
S1 Y2 2.925811 1_555
S1 Y0 2.925812 1_555
S1 Y1 2.925819 1_555
S2 Y5 2.759768 1_555
S2 Y4 2.790905 1_555
S2 Y0 2.812079 1_656
S2 Y0 3.221618 1_655
S3 Y3 2.759768 1_555
S3 Y5 2.790905 1_555
S3 Y1 2.812079 1_556
S3 Y1 3.221618 1_555
S4 Y4 2.759768 1_555
S4 Y3 2.790905 1_555
S4 Y2 2.812079 1_546
S4 Y2 3.221618 1_545
S5 Y2 2.747030 1_545
S5 Y3 2.784123 1_555
S5 Y1 2.810175 1_555
S5 Y3 3.249904 1_554
S6 Y0 2.747030 1_655
S6 Y4 2.784123 1_555
S6 Y2 2.810175 1_545
S6 Y4 3.249904 1_554
S7 Y1 2.747030 1_555
S7 Y5 2.784123 1_555
S7 Y0 2.810175 1_655
S7 Y5 3.249904 1_554
S8 Y2 2.805530 1_555
S8 Y0 2.876062 1_555
S8 Y5 3.029282 1_455
S9 Y0 2.805530 1_555
S9 Y1 2.876062 1_555
S9 Y3 3.029282 1_555
S10 Y1 2.805530 1_555
S10 Y2 2.876062 1_555
S10 Y4 3.029282 1_565
S11 Y5 2.827968 1_454
S11 Y3 2.892511 1_564
S11 Y2 3.017620 1_555
S12 Y3 2.827968 1_554
S12 Y4 2.892511 1_454
S12 Y0 3.017620 1_555
S13 Y4 2.827968 1_564
S13 Y5 2.892511 1_554
S13 Y1 3.017620 1_555
