# generated using pymatgen
data_YbI3O11
_symmetry_space_group_name_H-M   'P 1'
_cell_length_a   7.20613700
_cell_length_b   7.47614285
_cell_length_c   9.56656100
_cell_angle_alpha   79.82747516
_cell_angle_beta   84.84718412
_cell_angle_gamma   69.69157095
_symmetry_Int_Tables_number   1
_chemical_formula_structural   YbI3O11
_chemical_formula_sum   'Yb2 I6 O22'
_cell_volume   475.52708836
_cell_formula_units_Z   2
loop_
 _symmetry_equiv_pos_site_id
 _symmetry_equiv_pos_as_xyz
  1  'x, y, z'
loop_
 _atom_site_type_symbol
 _atom_site_label
 _atom_site_symmetry_multiplicity
 _atom_site_fract_x
 _atom_site_fract_y
 _atom_site_fract_z
 _atom_site_occupancy
  Yb  Yb0  1  0.76848900  0.34616300  0.83576000  1
  Yb  Yb1  1  0.23151100  0.65383700  0.16424000  1
  I  I0  1  0.84253000  0.74355600  0.50797200  1
  I  I1  1  0.15747000  0.25644400  0.49202800  1
  I  I2  1  0.36802500  0.85888700  0.80199900  1
  I  I3  1  0.63197500  0.14111300  0.19800100  1
  I  I4  1  0.24393300  0.38960800  0.86395300  1
  I  I5  1  0.75606700  0.61039200  0.13604700  1
  O  O0  1  0.91846300  0.50810800  0.63941800  1
  O  O1  1  0.08153700  0.49189200  0.36058200  1
  O  O2  1  0.65605900  0.70612800  0.41558800  1
  O  O3  1  0.34394100  0.29387200  0.58441200  1
  O  O4  1  0.69318400  0.89055500  0.64414800  1
  O  O5  1  0.30681600  0.10944500  0.35585200  1
  O  O6  1  0.48281100  0.60958000  0.76779700  1
  O  O7  1  0.51718900  0.39042000  0.23220300  1
  O  O8  1  0.18584000  0.80676100  0.92991500  1
  O  O9  1  0.81416000  0.19323900  0.07008500  1
  O  O10  1  0.21035800  0.95223500  0.64261800  1
  O  O11  1  0.78964200  0.04776500  0.35738200  1
  O  O12  1  0.50138100  0.22593900  0.88311300  1
  O  O13  1  0.49861900  0.77406100  0.11688700  1
  O  O14  1  0.12259700  0.21156500  0.85901000  1
  O  O15  1  0.87740300  0.78843500  0.14099000  1
  O  O16  1  0.20427200  0.41342600  0.05220100  1
  O  O17  1  0.79572800  0.58657400  0.94779900  1
  O  O18  1  0.80340000  0.25772700  0.59086600  1
  O  O19  1  0.19660000  0.74227300  0.40913400  1
  O  O20  1  0.84724900  0.01742700  0.75996900  1
  O  O21  1  0.15275100  0.98257300  0.24003100  1
loop_
_geom_bond_atom_site_label_1
_geom_bond_atom_site_label_2
_geom_bond_distance
_geom_bond_site_symmetry_2
I0 O2 1.796300 1_555
I0 O4 1.869757 1_555
I0 O0 1.911096 1_555
I0 O11 2.394322 1_565
I0 O1 2.597296 1_655
I0 O19 2.637620 1_655
I1 O3 1.796300 1_555
I1 O5 1.869757 1_555
I1 O1 1.911096 1_555
I1 O10 2.394322 1_545
I1 O0 2.597296 1_455
I1 O18 2.637620 1_455
I2 O8 1.808601 1_555
I2 O6 1.833530 1_555
I2 O10 1.867520 1_555
I3 O9 1.808601 1_555
I3 O7 1.833530 1_555
I3 O11 1.867520 1_555
I4 O16 1.828134 1_556
I4 O14 1.837402 1_555
I4 O12 1.838130 1_555
I5 O17 1.828134 1_554
I5 O15 1.837402 1_555
I5 O13 1.838130 1_555
O0 Yb0 2.429460 1_555
O1 Yb1 2.429460 1_555
O6 Yb0 2.347973 1_555
O7 Yb1 2.347973 1_555
O8 Yb1 2.325214 1_556
O9 Yb0 2.325214 1_554
O12 Yb0 2.370329 1_555
O13 Yb1 2.370329 1_555
O14 Yb0 2.411219 1_455
O15 Yb1 2.411219 1_655
O16 Yb1 2.319688 1_555
O17 Yb0 2.319688 1_555
O18 Yb0 2.512948 1_555
O19 Yb1 2.512948 1_555
O20 Yb0 2.544657 1_555
O21 Yb1 2.544657 1_555
