# generated using pymatgen
data_ScP2NO8
_symmetry_space_group_name_H-M   'P 1'
_cell_length_a   5.46175700
_cell_length_b   8.36977100
_cell_length_c   17.24657393
_cell_angle_alpha   90.00000000
_cell_angle_beta   90.90553736
_cell_angle_gamma   90.00000000
_symmetry_Int_Tables_number   1
_chemical_formula_structural   ScP2NO8
_chemical_formula_sum   'Sc4 P8 N4 O32'
_cell_volume   788.30547255
_cell_formula_units_Z   4
loop_
 _symmetry_equiv_pos_site_id
 _symmetry_equiv_pos_as_xyz
  1  'x, y, z'
loop_
 _atom_site_type_symbol
 _atom_site_label
 _atom_site_symmetry_multiplicity
 _atom_site_fract_x
 _atom_site_fract_y
 _atom_site_fract_z
 _atom_site_occupancy
  Sc  Sc0  1  0.27484400  0.47302800  0.64018800  1
  Sc  Sc1  1  0.72515600  0.97302800  0.85981200  1
  Sc  Sc2  1  0.72515600  0.52697200  0.35981200  1
  Sc  Sc3  1  0.27484400  0.02697200  0.14018800  1
  P  P0  1  0.75766200  0.66264900  0.55389900  1
  P  P1  1  0.24233800  0.16264900  0.94610100  1
  P  P2  1  0.24233800  0.33735100  0.44610100  1
  P  P3  1  0.75766200  0.83735100  0.05389900  1
  P  P4  1  0.21216300  0.72470600  0.80564400  1
  P  P5  1  0.78783700  0.22470600  0.69435600  1
  P  P6  1  0.78783700  0.27529400  0.19435600  1
  P  P7  1  0.21216300  0.77529400  0.30564400  1
  N  N0  1  0.77862300  0.94959500  0.61599200  1
  N  N1  1  0.22137700  0.44959500  0.88400800  1
  N  N2  1  0.22137700  0.05040500  0.38400800  1
  N  N3  1  0.77862300  0.55040500  0.11599200  1
  O  O0  1  0.99460900  0.61717300  0.59306700  1
  O  O1  1  0.00539100  0.11717300  0.90693300  1
  O  O2  1  0.00539100  0.38282700  0.40693300  1
  O  O3  1  0.99460900  0.88282700  0.09306700  1
  O  O4  1  0.73447700  0.64038400  0.46768800  1
  O  O5  1  0.26552300  0.14038400  0.03231200  1
  O  O6  1  0.26552300  0.35961600  0.53231200  1
  O  O7  1  0.73447700  0.85961600  0.96768800  1
  O  O8  1  0.52934800  0.63953300  0.60010300  1
  O  O9  1  0.47065200  0.13953300  0.89989700  1
  O  O10  1  0.47065200  0.36046700  0.39989700  1
  O  O11  1  0.52934800  0.86046700  0.10010300  1
  O  O12  1  0.21847300  0.38022600  0.95049200  1
  O  O13  1  0.78152700  0.88022600  0.54950800  1
  O  O14  1  0.78152700  0.61977400  0.04950800  1
  O  O15  1  0.21847300  0.11977400  0.45049200  1
  O  O16  1  0.24460200  0.60288200  0.74305100  1
  O  O17  1  0.75539800  0.10288200  0.75694900  1
  O  O18  1  0.75539800  0.39711800  0.25694900  1
  O  O19  1  0.24460200  0.89711800  0.24305100  1
  O  O20  1  0.42851900  0.82796500  0.82539500  1
  O  O21  1  0.57148100  0.32796500  0.67460500  1
  O  O22  1  0.57148100  0.17203500  0.17460500  1
  O  O23  1  0.42851900  0.67203500  0.32539500  1
  O  O24  1  0.96301100  0.79804700  0.81372400  1
  O  O25  1  0.03698900  0.29804700  0.68627600  1
  O  O26  1  0.03698900  0.20195300  0.18627600  1
  O  O27  1  0.96301100  0.70195300  0.31372400  1
  O  O28  1  0.21100000  0.60021500  0.89445600  1
  O  O29  1  0.78900000  0.10021500  0.60554400  1
  O  O30  1  0.78900000  0.39978500  0.10554400  1
  O  O31  1  0.21100000  0.89978500  0.39445600  1
loop_
_geom_bond_atom_site_label_1
_geom_bond_atom_site_label_2
_geom_bond_distance
_geom_bond_site_symmetry_2
N0 O29 1.274855 1_565
N0 O13 1.285561 1_555
N1 O28 1.274855 1_555
N1 O12 1.285561 1_555
N2 O31 1.274855 1_545
N2 O15 1.285561 1_555
N3 O30 1.274855 1_555
N3 O14 1.285561 1_555
O0 P0 1.499459 1_555
O0 Sc0 2.102221 1_655
O1 P1 1.499459 1_555
O1 Sc1 2.102221 1_445
O2 P2 1.499459 1_555
O2 Sc2 2.102221 1_455
O3 P3 1.499459 1_555
O3 Sc3 2.102221 1_665
O4 P0 1.501838 1_555
O4 Sc2 2.088557 1_555
O5 P1 1.501838 1_554
O5 Sc3 2.088557 1_555
O6 P2 1.501838 1_555
O6 Sc0 2.088557 1_555
O7 P3 1.501838 1_556
O7 Sc1 2.088557 1_555
O8 P0 1.502939 1_555
O8 Sc0 2.093481 1_555
O9 P1 1.502939 1_555
O9 Sc1 2.093481 1_545
O10 P2 1.502939 1_555
O10 Sc2 2.093481 1_555
O11 P3 1.502939 1_555
O11 Sc3 2.093481 1_565
O12 P1 1.827384 1_555
O13 P0 1.827384 1_555
O14 P3 1.827384 1_555
O15 P2 1.827384 1_555
O16 P4 1.497482 1_555
O16 Sc0 2.089254 1_555
O17 P5 1.497482 1_555
O17 Sc1 2.089254 1_545
O18 P6 1.497482 1_555
O18 Sc2 2.089254 1_555
O19 P7 1.497482 1_555
O19 Sc3 2.089254 1_565
O20 P4 1.498874 1_555
O20 Sc1 2.102617 1_555
O21 P5 1.498874 1_555
O21 Sc0 2.102617 1_555
O22 P6 1.498874 1_555
O22 Sc3 2.102617 1_555
O23 P7 1.498874 1_555
O23 Sc2 2.102617 1_555
O24 P4 1.501339 1_655
O24 Sc1 2.120620 1_555
O25 P5 1.501339 1_455
O25 Sc0 2.120620 1_555
O26 P6 1.501339 1_455
O26 Sc3 2.120620 1_555
O27 P7 1.501339 1_655
O27 Sc2 2.120620 1_555
O28 P4 1.852605 1_555
O29 P5 1.852605 1_555
O30 P6 1.852605 1_555
O31 P7 1.852605 1_555
