# generated using pymatgen
data_Ta2OsPd
_symmetry_space_group_name_H-M   'P 1'
_cell_length_a   10.50996834
_cell_length_b   10.50996834
_cell_length_c   10.50996834
_cell_angle_alpha   125.15889422
_cell_angle_beta   118.56635516
_cell_angle_gamma   86.90325217
_symmetry_Int_Tables_number   1
_chemical_formula_structural   Ta2OsPd
_chemical_formula_sum   'Ta2 Os1 Pd1'
_cell_volume   792.99024742
_cell_formula_units_Z   1
loop_
 _symmetry_equiv_pos_site_id
 _symmetry_equiv_pos_as_xyz
  1  'x, y, z'
loop_
 _atom_site_type_symbol
 _atom_site_label
 _atom_site_symmetry_multiplicity
 _atom_site_fract_x
 _atom_site_fract_y
 _atom_site_fract_z
 _atom_site_occupancy
  Ta  Ta0  1  0.00000000  0.26269000  0.26269000  1
  Ta  Ta1  1  0.00000000  0.73731000  0.73731000  1
  Os  Os0  1  0.00000000  0.50000000  0.50000000  1
  Pd  Pd0  1  0.00000000  0.00000000  0.00000000  1
loop_
_geom_bond_atom_site_label_1
_geom_bond_atom_site_label_2
_geom_bond_distance
_geom_bond_site_symmetry_2
Os0 Ta1 2.297176 1_555
Os0 Ta0 2.297176 1_555
Pd0 Ta1 2.542856 1_544
Pd0 Ta0 2.542856 1_555
