# generated using pymatgen
data_TbPRu2C
_symmetry_space_group_name_H-M   'P 1'
_cell_length_a   5.83282683
_cell_length_b   5.83282683
_cell_length_c   7.07858800
_cell_angle_alpha   90.00000000
_cell_angle_beta   90.00000000
_cell_angle_gamma   141.93686356
_symmetry_Int_Tables_number   1
_chemical_formula_structural   TbPRu2C
_chemical_formula_sum   'Tb2 P2 Ru4 C2'
_cell_volume   148.47680781
_cell_formula_units_Z   2
loop_
 _symmetry_equiv_pos_site_id
 _symmetry_equiv_pos_as_xyz
  1  'x, y, z'
loop_
 _atom_site_type_symbol
 _atom_site_label
 _atom_site_symmetry_multiplicity
 _atom_site_fract_x
 _atom_site_fract_y
 _atom_site_fract_z
 _atom_site_occupancy
  Tb  Tb0  1  0.95516900  0.04483100  0.25000000  1
  Tb  Tb1  1  0.04483100  0.95516900  0.75000000  1
  P  P0  1  0.23071200  0.76928800  0.25000000  1
  P  P1  1  0.76928800  0.23071200  0.75000000  1
  Ru  Ru0  1  0.33428000  0.66572000  0.94643600  1
  Ru  Ru1  1  0.66572000  0.33428000  0.05356400  1
  Ru  Ru2  1  0.33428000  0.66572000  0.55356400  1
  Ru  Ru3  1  0.66572000  0.33428000  0.44643600  1
  C  C0  1  0.50000000  0.50000000  0.50000000  1
  C  C1  1  0.50000000  0.50000000  0.00000000  1
loop_
_geom_bond_atom_site_label_1
_geom_bond_atom_site_label_2
_geom_bond_distance
_geom_bond_site_symmetry_2
P0 Ru2 2.433488 1_555
P0 Ru0 2.433488 1_554
P0 Ru3 2.462691 1_455
P0 Ru1 2.462691 1_455
P0 Ru3 2.462691 1_565
P0 Ru1 2.462691 1_565
P0 Tb0 3.038688 1_465
P0 Tb0 3.121674 1_565
P0 Tb0 3.121674 1_455
P1 Ru1 2.433488 1_556
P1 Ru3 2.433488 1_555
P1 Ru0 2.462691 1_545
P1 Ru0 2.462691 1_655
P1 Ru2 2.462691 1_545
P1 Ru2 2.462691 1_655
P1 Tb1 3.038688 1_645
P1 Tb1 3.121674 1_655
P1 Tb1 3.121674 1_545
C0 Ru3 1.866477 1_555
C0 Ru2 1.866477 1_555
C0 Tb0 2.644572 1_565
C0 Tb1 2.644572 1_655
C0 Tb0 2.644572 1_455
C0 Tb1 2.644572 1_545
C1 Ru1 1.866477 1_555
C1 Ru0 1.866477 1_554
C1 Tb0 2.644572 1_565
C1 Tb1 2.644572 1_654
C1 Tb0 2.644572 1_455
C1 Tb1 2.644572 1_544
