# generated using pymatgen
data_K3Sc(PO4)2
_symmetry_space_group_name_H-M   'P 1'
_cell_length_a   9.54710298
_cell_length_b   9.54710298
_cell_length_c   7.75983700
_cell_angle_alpha   90.00000000
_cell_angle_beta   90.00000000
_cell_angle_gamma   120.00000681
_symmetry_Int_Tables_number   1
_chemical_formula_structural   K3Sc(PO4)2
_chemical_formula_sum   'K9 Sc3 P6 O24'
_cell_volume   612.52866163
_cell_formula_units_Z   3
loop_
 _symmetry_equiv_pos_site_id
 _symmetry_equiv_pos_as_xyz
  1  'x, y, z'
loop_
 _atom_site_type_symbol
 _atom_site_label
 _atom_site_symmetry_multiplicity
 _atom_site_fract_x
 _atom_site_fract_y
 _atom_site_fract_z
 _atom_site_occupancy
  K  K0  1  0.33392400  0.33350700  0.25102200  1
  K  K1  1  0.99958400  0.66607600  0.25102200  1
  K  K2  1  0.66649300  0.00041600  0.25102200  1
  K  K3  1  0.66607600  0.66649300  0.74897800  1
  K  K4  1  0.00041600  0.33392400  0.74897800  1
  K  K5  1  0.33350700  0.99958400  0.74897800  1
  K  K6  1  0.33333300  0.66666700  0.50240300  1
  K  K7  1  0.66666700  0.33333300  0.49759700  1
  K  K8  1  0.00000000  0.00000000  0.50000000  1
  Sc  Sc0  1  0.33333300  0.66666700  0.03076500  1
  Sc  Sc1  1  0.66666700  0.33333300  0.96923500  1
  Sc  Sc2  1  0.00000000  0.00000000  0.00000000  1
  P  P0  1  0.32768800  0.34045500  0.77707400  1
  P  P1  1  0.01276800  0.67231200  0.77707400  1
  P  P2  1  0.65954500  0.98723200  0.77707400  1
  P  P3  1  0.67231200  0.65954500  0.22292600  1
  P  P4  1  0.98723200  0.32768800  0.22292600  1
  P  P5  1  0.34045500  0.01276800  0.22292600  1
  O  O0  1  0.48742700  0.33459300  0.80087100  1
  O  O1  1  0.84716600  0.51257300  0.80087100  1
  O  O2  1  0.66540700  0.15283400  0.80087100  1
  O  O3  1  0.51257300  0.66540700  0.19912900  1
  O  O4  1  0.15283400  0.48742700  0.19912900  1
  O  O5  1  0.33459300  0.84716600  0.19912900  1
  O  O6  1  0.33727800  0.48214000  0.88834000  1
  O  O7  1  0.14486300  0.66272200  0.88834000  1
  O  O8  1  0.51786000  0.85513700  0.88834000  1
  O  O9  1  0.66272200  0.51786000  0.11166000  1
  O  O10  1  0.85513700  0.33727800  0.11166000  1
  O  O11  1  0.48214000  0.14486300  0.11166000  1
  O  O12  1  0.18252600  0.17649300  0.84112000  1
  O  O13  1  0.99396700  0.81747400  0.84112000  1
  O  O14  1  0.82350700  0.00603300  0.84112000  1
  O  O15  1  0.81747400  0.82350700  0.15888000  1
  O  O16  1  0.00603300  0.18252600  0.15888000  1
  O  O17  1  0.17649300  0.99396700  0.15888000  1
  O  O18  1  0.36740000  0.06659000  0.41129300  1
  O  O19  1  0.93341000  0.30081000  0.41129300  1
  O  O20  1  0.69919000  0.63260000  0.41129300  1
  O  O21  1  0.63260000  0.93341000  0.58870700  1
  O  O22  1  0.06659000  0.69919000  0.58870700  1
  O  O23  1  0.30081000  0.36740000  0.58870700  1
loop_
_geom_bond_atom_site_label_1
_geom_bond_atom_site_label_2
_geom_bond_distance
_geom_bond_site_symmetry_2
K0 O23 2.678310 1_555
K0 O3 2.776196 1_555
K0 O4 2.801995 1_555
K0 O16 2.806448 1_555
K0 O17 2.899345 1_545
K0 O9 2.931908 1_555
K0 O18 2.992834 1_555
K0 O11 2.993977 1_555
K0 O6 3.144801 1_554
K1 O22 2.678308 1_655
K1 O4 2.776189 1_655
K1 O5 2.801987 1_655
K1 O17 2.806447 1_655
K1 O15 2.899354 1_555
K1 O10 2.931907 1_555
K1 O20 2.992843 1_555
K1 O9 2.993993 1_555
K1 O7 3.144801 1_654
K2 O21 2.678308 1_545
K2 O5 2.776197 1_545
K2 O3 2.801986 1_545
K2 O15 2.806440 1_545
K2 O16 2.899346 1_655
K2 O11 2.931923 1_555
K2 O19 2.992839 1_555
K2 O10 2.993991 1_555
K2 O8 3.144801 1_544
K3 O20 2.678310 1_555
K3 O0 2.776196 1_555
K3 O1 2.801995 1_555
K3 O13 2.806448 1_555
K3 O14 2.899345 1_565
K3 O6 2.931908 1_555
K3 O21 2.992834 1_555
K3 O8 2.993977 1_555
K3 O9 3.144801 1_556
K4 O19 2.678308 1_455
K4 O1 2.776189 1_455
K4 O2 2.801987 1_455
K4 O14 2.806447 1_455
K4 O12 2.899354 1_555
K4 O7 2.931907 1_555
K4 O23 2.992843 1_555
K4 O6 2.993993 1_555
K4 O10 3.144801 1_456
K5 O18 2.678308 1_565
K5 O2 2.776197 1_565
K5 O0 2.801986 1_565
K5 O12 2.806440 1_565
K5 O13 2.899346 1_455
K5 O8 2.931923 1_555
K5 O22 2.992839 1_555
K5 O7 2.993991 1_555
K5 O11 3.144801 1_566
K6 O22 2.796593 1_555
K6 O21 2.796598 1_555
K6 O23 2.796602 1_555
K6 O5 2.913292 1_555
K6 O4 2.913294 1_555
K6 O3 2.913297 1_555
K7 O19 2.796593 1_555
K7 O18 2.796598 1_555
K7 O20 2.796602 1_555
K7 O2 2.913292 1_555
K7 O1 2.913294 1_555
K7 O0 2.913297 1_555
K8 O12 3.153788 1_555
K8 O15 3.153788 1_445
K8 O16 3.153788 1_555
K8 O13 3.153788 1_445
K8 O17 3.153788 1_545
K8 O14 3.153788 1_455
K8 O23 3.309284 1_555
K8 O20 3.309284 1_445
K8 O21 3.309284 1_445
K8 O18 3.309284 1_555
K8 O22 3.309284 1_545
K8 O19 3.309284 1_455
O0 P0 1.564718 1_555
O0 Sc1 2.157752 1_555
O1 P1 1.564723 1_655
O1 Sc1 2.157748 1_555
O2 P2 1.564727 1_545
O2 Sc1 2.157745 1_555
O3 P3 1.564718 1_555
O3 Sc0 2.157752 1_555
O4 P4 1.564723 1_455
O4 Sc0 2.157748 1_555
O5 P5 1.564727 1_565
O5 Sc0 2.157745 1_555
O6 P0 1.568360 1_555
O6 Sc0 2.095902 1_556
O7 P1 1.568360 1_555
O7 Sc0 2.095886 1_556
O8 P2 1.568360 1_555
O8 Sc0 2.095894 1_556
O9 P3 1.568360 1_555
O9 Sc1 2.095902 1_554
O10 P4 1.568360 1_555
O10 Sc1 2.095886 1_554
O11 P5 1.568360 1_555
O11 Sc1 2.095894 1_554
O12 P0 1.564803 1_555
O12 Sc2 2.111773 1_556
O13 P1 1.564809 1_655
O13 Sc2 2.111773 1_666
O14 P2 1.564800 1_545
O14 Sc2 2.111773 1_656
O15 P3 1.564803 1_555
O15 Sc2 2.111773 1_665
O16 P4 1.564809 1_455
O16 Sc2 2.111773 1_555
O17 P5 1.564800 1_565
O17 Sc2 2.111773 1_565
O18 P5 1.527935 1_555
O19 P4 1.527935 1_555
O20 P3 1.527938 1_555
O21 P2 1.527935 1_555
O22 P1 1.527935 1_555
O23 P0 1.527938 1_555
