# generated using pymatgen
data_MgMn6(PO4)6
_symmetry_space_group_name_H-M   'P 1'
_cell_length_a   8.57974973
_cell_length_b   8.87738225
_cell_length_c   8.93069039
_cell_angle_alpha   107.24351303
_cell_angle_beta   110.44373819
_cell_angle_gamma   105.42561804
_symmetry_Int_Tables_number   1
_chemical_formula_structural   MgMn6(PO4)6
_chemical_formula_sum   'Mg1 Mn6 P6 O24'
_cell_volume   554.40254179
_cell_formula_units_Z   1
loop_
 _symmetry_equiv_pos_site_id
 _symmetry_equiv_pos_as_xyz
  1  'x, y, z'
loop_
 _atom_site_type_symbol
 _atom_site_label
 _atom_site_symmetry_multiplicity
 _atom_site_fract_x
 _atom_site_fract_y
 _atom_site_fract_z
 _atom_site_occupancy
  Mg  Mg0  1  0.41808700  0.59611800  0.19933400  1
  Mn  Mn0  1  0.05145000  0.46154400  0.29518500  1
  Mn  Mn1  1  0.27988500  0.07307600  0.42692900  1
  Mn  Mn2  1  0.80508000  0.94246000  0.55187500  1
  Mn  Mn3  1  0.54048400  0.76297000  0.91468200  1
  Mn  Mn4  1  0.44631300  0.21156100  0.03138500  1
  Mn  Mn5  1  0.88128500  0.53833200  0.78613400  1
  P  P0  1  0.55364400  0.37129300  0.76790300  1
  P  P1  1  0.06304100  0.29423500  0.92050800  1
  P  P2  1  0.91629200  0.09913400  0.28882200  1
  P  P3  1  0.28270700  0.85102200  0.06272200  1
  P  P4  1  0.77104500  0.57726400  0.40677800  1
  P  P5  1  0.39718100  0.79833900  0.54700200  1
  O  O0  1  0.35064900  0.28875300  0.62312400  1
  O  O1  1  0.83778200  0.63642400  0.60604800  1
  O  O2  1  0.93346200  0.60490500  0.36366300  1
  O  O3  1  0.38321400  0.72612800  0.05495600  1
  O  O4  1  0.27344700  0.35052100  0.02237600  1
  O  O5  1  0.74026800  0.98821800  0.11801600  1
  O  O6  1  0.60057000  0.88319900  0.59666200  1
  O  O7  1  0.35470100  0.96601000  0.26239800  1
  O  O8  1  0.97532600  0.10119300  0.78924500  1
  O  O9  1  0.29014000  0.64422500  0.34913000  1
  O  O10  1  0.92625500  0.04895500  0.44395200  1
  O  O11  1  0.08308200  0.09016500  0.25916100  1
  O  O12  1  0.36556900  0.71277100  0.66406100  1
  O  O13  1  0.31911500  0.93675200  0.55538000  1
  O  O14  1  0.94265400  0.29335000  0.35859100  1
  O  O15  1  0.69082100  0.71185800  0.35732500  1
  O  O16  1  0.66760400  0.32407900  0.66966000  1
  O  O17  1  0.07404900  0.74853600  0.97960800  1
  O  O18  1  0.03015900  0.40962900  0.82490900  1
  O  O19  1  0.60752900  0.40318000  0.28966000  1
  O  O20  1  0.64131100  0.57366000  0.84984200  1
  O  O21  1  0.33524600  0.95893400  0.96891600  1
  O  O22  1  0.57792900  0.30858200  0.91188800  1
  O  O23  1  0.99033000  0.31748500  0.05845300  1
loop_
_geom_bond_atom_site_label_1
_geom_bond_atom_site_label_2
_geom_bond_distance
_geom_bond_site_symmetry_2
Mg0 O3 1.969923 1_555
Mg0 O4 1.984674 1_555
Mg0 O15 2.019188 1_555
Mg0 O9 2.028221 1_555
Mn0 O14 1.884265 1_455
Mn0 O23 1.909460 1_455
Mn0 O2 1.916992 1_455
Mn0 O9 2.033916 1_555
Mn1 O11 1.903335 1_555
Mn1 O7 1.905243 1_545
Mn1 O13 1.914124 1_545
Mn1 O0 1.937544 1_555
Mn2 O8 1.893156 1_565
Mn2 O10 1.902884 1_565
Mn2 O6 1.907745 1_555
Mn2 O15 1.950491 1_555
Mn3 O5 2.020784 1_556
Mn3 O12 2.041274 1_555
Mn3 O20 2.110540 1_555
Mn3 O3 2.164727 1_556
Mn4 O21 1.999707 1_544
Mn4 O22 2.006312 1_554
Mn4 O19 2.078583 1_555
Mn4 O4 2.162582 1_555
Mn5 O17 1.911363 1_655
Mn5 O16 1.923688 1_555
Mn5 O18 1.938751 1_655
Mn5 O1 2.016948 1_555
Mn5 O20 2.391079 1_555
O0 P0 1.558306 1_555
O1 P4 1.531273 1_555
O2 P4 1.548951 1_555
O3 P3 1.575597 1_555
O4 P1 1.561904 1_554
O5 P2 1.512069 1_565
O6 P5 1.539895 1_555
O7 P3 1.555444 1_555
O8 P1 1.544012 1_655
O9 P5 1.613221 1_555
O10 P2 1.558376 1_555
O11 P2 1.561163 1_455
O12 P5 1.517486 1_555
O13 P5 1.543484 1_555
O14 P2 1.571372 1_555
O15 P4 1.623103 1_555
O16 P0 1.581367 1_555
O17 P3 1.545484 1_556
O18 P1 1.536845 1_555
O19 P4 1.521094 1_555
O20 P0 1.563932 1_555
O21 P3 1.527295 1_556
O22 P0 1.518484 1_555
O23 P1 1.550515 1_654
