# generated using pymatgen
data_CeSCl
_symmetry_space_group_name_H-M   'P 1'
_cell_length_a   6.88042065
_cell_length_b   6.99133139
_cell_length_c   13.56780226
_cell_angle_alpha   90.00000000
_cell_angle_beta   90.00000000
_cell_angle_gamma   90.00000000
_symmetry_Int_Tables_number   1
_chemical_formula_structural   CeSCl
_chemical_formula_sum   'Ce8 S8 Cl8'
_cell_volume   652.65607421
_cell_formula_units_Z   8
loop_
 _symmetry_equiv_pos_site_id
 _symmetry_equiv_pos_as_xyz
  1  'x, y, z'
loop_
 _atom_site_type_symbol
 _atom_site_label
 _atom_site_symmetry_multiplicity
 _atom_site_fract_x
 _atom_site_fract_y
 _atom_site_fract_z
 _atom_site_occupancy
  Ce  Ce0  1  0.25900952  0.96534173  0.90062224  1
  Ce  Ce1  1  0.74099048  0.03465827  0.09937776  1
  Ce  Ce2  1  0.24099048  0.46534173  0.09937776  1
  Ce  Ce3  1  0.74099048  0.53465827  0.40062224  1
  Ce  Ce4  1  0.75900952  0.53465827  0.90062224  1
  Ce  Ce5  1  0.25900952  0.46534173  0.59937776  1
  Ce  Ce6  1  0.75900952  0.03465827  0.59937776  1
  Ce  Ce7  1  0.24099048  0.96534173  0.40062224  1
  S  S0  1  -0.00067195  0.74285358  0.52365824  1
  S  S1  1  0.00067195  0.25714642  0.47634176  1
  S  S2  1  0.50067195  0.24285358  0.47634176  1
  S  S3  1  0.00067195  0.75714642  0.02365824  1
  S  S4  1  0.49932805  0.75714642  0.52365824  1
  S  S5  1  -0.00067195  0.24285358  0.97634176  1
  S  S6  1  0.49932805  0.25714642  0.97634176  1
  S  S7  1  0.50067195  0.74285358  0.02365824  1
  Cl  Cl0  1  0.13289212  0.62308317  0.78740178  1
  Cl  Cl1  1  0.86710788  0.37691683  0.21259822  1
  Cl  Cl2  1  0.36710788  0.12308317  0.21259822  1
  Cl  Cl3  1  0.86710788  0.87691683  0.28740178  1
  Cl  Cl4  1  0.63289212  0.87691683  0.78740178  1
  Cl  Cl5  1  0.13289212  0.12308317  0.71259822  1
  Cl  Cl6  1  0.63289212  0.37691683  0.71259822  1
  Cl  Cl7  1  0.36710788  0.62308317  0.28740178  1
loop_
_geom_bond_atom_site_label_1
_geom_bond_atom_site_label_2
_geom_bond_distance
_geom_bond_site_symmetry_2
Ce0 S6 2.819841 1_565
Ce0 S7 2.823279 1_556
Ce0 S5 2.830564 1_565
Ce0 S3 2.839845 1_556
Ce0 Cl5 2.911557 1_565
Ce0 Cl0 2.972951 1_555
Ce0 Cl4 3.059338 1_555
Ce1 S7 2.819841 1_545
Ce1 S6 2.823279 1_554
Ce1 S3 2.830564 1_645
Ce1 S5 2.839845 1_654
Ce1 Cl3 2.911557 1_545
Ce1 Cl1 2.972951 1_555
Ce1 Cl2 3.059338 1_555
Ce2 S3 2.819841 1_555
Ce2 S5 2.823279 1_554
Ce2 S7 2.830564 1_555
Ce2 S6 2.839845 1_554
Ce2 Cl7 2.911557 1_555
Ce2 Cl2 2.972951 1_555
Ce2 Cl1 3.059338 1_455
Ce3 S2 2.819841 1_555
Ce3 S4 2.823279 1_555
Ce3 S1 2.830564 1_655
Ce3 S0 2.839845 1_655
Ce3 Cl1 2.911557 1_555
Ce3 Cl3 2.972951 1_555
Ce3 Cl7 3.059338 1_555
Ce4 S5 2.819841 1_655
Ce4 S3 2.823279 1_656
Ce4 S6 2.830564 1_555
Ce4 S7 2.839845 1_556
Ce4 Cl6 2.911557 1_555
Ce4 Cl4 2.972951 1_555
Ce4 Cl0 3.059338 1_655
Ce5 S4 2.819841 1_555
Ce5 S2 2.823279 1_555
Ce5 S0 2.830564 1_555
Ce5 S1 2.839845 1_555
Ce5 Cl0 2.911557 1_555
Ce5 Cl5 2.972951 1_555
Ce5 Cl6 3.059338 1_555
Ce6 S0 2.819841 1_645
Ce6 S1 2.823279 1_655
Ce6 S4 2.830564 1_545
Ce6 S2 2.839845 1_555
Ce6 Cl4 2.911557 1_545
Ce6 Cl6 2.972951 1_555
Ce6 Cl5 3.059338 1_655
Ce7 S1 2.819841 1_565
Ce7 S0 2.823279 1_555
Ce7 S2 2.830564 1_565
Ce7 S4 2.839845 1_555
Ce7 Cl2 2.911557 1_565
Ce7 Cl7 2.972951 1_555
Ce7 Cl3 3.059338 1_455
