# generated using pymatgen
data_La2VCo16
_symmetry_space_group_name_H-M   'P 1'
_cell_length_a   6.33584765
_cell_length_b   6.33584765
_cell_length_c   6.33584804
_cell_angle_alpha   83.02749245
_cell_angle_beta   83.02749245
_cell_angle_gamma   83.02749180
_symmetry_Int_Tables_number   1
_chemical_formula_structural   La2VCo16
_chemical_formula_sum   'La2 V1 Co16'
_cell_volume   249.11910137
_cell_formula_units_Z   1
loop_
 _symmetry_equiv_pos_site_id
 _symmetry_equiv_pos_as_xyz
  1  'x, y, z'
loop_
 _atom_site_type_symbol
 _atom_site_label
 _atom_site_symmetry_multiplicity
 _atom_site_fract_x
 _atom_site_fract_y
 _atom_site_fract_z
 _atom_site_occupancy
  La  La0  1  0.65552100  0.65552100  0.65552100  1
  La  La1  1  0.34956900  0.34957000  0.34957000  1
  V  V0  1  0.09256300  0.09256300  0.09256300  1
  Co  Co0  1  0.34138000  0.34138000  0.85388900  1
  Co  Co1  1  0.85388900  0.34138000  0.34138000  1
  Co  Co2  1  0.34138000  0.85388900  0.34138000  1
  Co  Co3  1  0.65915400  0.65915400  0.14578600  1
  Co  Co4  1  0.14578600  0.65915400  0.65915400  1
  Co  Co5  1  0.65915400  0.14578600  0.65915400  1
  Co  Co6  1  0.71262300  0.28607600  0.99856500  1
  Co  Co7  1  0.99856500  0.71262300  0.28607600  1
  Co  Co8  1  0.28607600  0.99856500  0.71262300  1
  Co  Co9  1  0.99856500  0.28607600  0.71262300  1
  Co  Co10  1  0.71262300  0.99856500  0.28607600  1
  Co  Co11  1  0.28607600  0.71262300  0.99856500  1
  Co  Co12  1  0.00040300  0.00040300  0.50060500  1
  Co  Co13  1  0.50060500  0.00040300  0.00040300  1
  Co  Co14  1  0.00040300  0.50060500  0.00040300  1
  Co  Co15  1  0.90566100  0.90566100  0.90566100  1
loop_
_geom_bond_atom_site_label_1
_geom_bond_atom_site_label_2
_geom_bond_distance
_geom_bond_site_symmetry_2
La1 V0 3.144184 1_555
Co0 Co13 2.399586 1_556
Co0 Co14 2.399586 1_556
Co0 Co4 2.504802 1_555
Co0 Co5 2.504802 1_555
Co0 Co8 2.524771 1_545
Co0 Co9 2.524771 1_455
Co0 V0 2.589027 1_556
Co0 Co11 2.596336 1_555
Co0 Co6 2.596336 1_555
Co0 La0 3.041336 1_555
Co0 La1 3.154089 1_556
Co0 La1 3.183615 1_555
Co1 Co12 2.399586 1_655
Co1 Co14 2.399586 1_655
Co1 Co3 2.504802 1_555
Co1 Co5 2.504802 1_555
Co1 Co10 2.524771 1_545
Co1 Co6 2.524771 1_554
Co1 V0 2.589027 1_655
Co1 Co7 2.596336 1_555
Co1 Co9 2.596336 1_555
Co1 La0 3.041336 1_555
Co1 La1 3.154084 1_655
Co1 La1 3.183620 1_555
Co2 Co3 2.504802 1_555
Co2 Co4 2.504802 1_555
Co2 Co7 2.524771 1_455
Co2 V0 2.589027 1_565
Co2 Co8 2.596336 1_555
Co2 La0 3.041336 1_555
Co2 La1 3.154089 1_565
Co2 La1 3.183614 1_555
Co3 Co7 2.498669 1_555
Co3 Co6 2.614648 1_554
Co3 La1 3.011017 1_555
Co3 La0 3.112019 1_554
Co3 La0 3.224194 1_555
Co4 Co8 2.498669 1_555
Co4 Co9 2.614648 1_455
Co4 Co7 2.614648 1_455
Co4 La1 3.011011 1_555
Co4 La0 3.112019 1_455
Co4 La0 3.224194 1_555
Co5 Co9 2.498669 1_555
Co5 Co6 2.498669 1_555
Co5 Co8 2.614648 1_545
Co5 La1 3.011017 1_555
Co5 La0 3.112019 1_545
Co5 La0 3.224194 1_555
Co6 Co9 2.401569 1_555
Co6 V0 2.665889 1_656
Co6 La0 3.013984 1_555
Co6 La1 3.024790 1_556
Co7 V0 2.665889 1_665
Co7 La0 3.013984 1_555
Co7 La1 3.024782 1_655
Co8 Co9 2.414746 1_465
Co8 V0 2.665890 1_566
Co8 La0 3.013984 1_555
Co8 La1 3.024786 1_565
Co9 V0 2.665890 1_656
Co9 La0 3.013984 1_555
Co9 La1 3.024782 1_655
Co10 Co13 2.379505 1_565
Co10 Co7 2.401569 1_555
Co10 Co12 2.404757 1_665
Co10 Co6 2.414746 1_564
Co10 Co3 2.498669 1_555
Co10 Co2 2.596336 1_555
Co10 Co5 2.614648 1_565
Co10 Co15 2.665638 1_554
Co10 V0 2.665889 1_665
Co10 La0 3.013984 1_555
Co10 La1 3.024790 1_565
Co11 Co14 2.379505 1_556
Co11 Co8 2.401569 1_555
Co11 Co13 2.404757 1_566
Co11 Co7 2.414746 1_456
Co11 Co4 2.498669 1_555
Co11 Co2 2.524771 1_556
Co11 Co3 2.614648 1_556
Co11 Co15 2.665638 1_455
Co11 V0 2.665889 1_566
Co11 La0 3.013984 1_555
Co11 La1 3.024786 1_556
Co12 Co9 2.379505 1_455
Co12 Co8 2.379505 1_545
Co12 Co5 2.397097 1_455
Co12 Co4 2.397097 1_545
Co12 Co2 2.399586 1_545
Co12 Co7 2.404757 1_445
Co12 Co15 2.578056 1_445
Co12 V0 2.591410 1_555
Co12 La0 3.260475 1_445
Co12 La1 3.296094 1_555
Co13 Co6 2.379505 1_554
Co13 Co3 2.397097 1_545
Co13 Co5 2.397097 1_554
Co13 Co2 2.399586 1_545
Co13 Co8 2.404757 1_544
Co13 Co15 2.578055 1_544
Co13 V0 2.591410 1_555
Co13 La0 3.260475 1_544
Co13 La1 3.296099 1_555
Co14 Co7 2.379505 1_455
Co14 Co3 2.397097 1_455
Co14 Co4 2.397097 1_554
Co14 Co6 2.404757 1_454
Co14 Co9 2.404757 1_454
Co14 Co15 2.578055 1_454
Co14 V0 2.591410 1_555
Co14 La0 3.260475 1_454
Co14 La1 3.296094 1_555
Co15 V0 2.286533 1_666
Co15 Co5 2.575210 1_565
Co15 Co4 2.575210 1_655
Co15 Co3 2.575210 1_556
Co15 Co6 2.665638 1_565
Co15 Co8 2.665638 1_655
Co15 Co9 2.665638 1_565
Co15 Co7 2.665638 1_556
Co15 La0 3.060178 1_555
