# generated using pymatgen
data_Li9Mn2Co5O16
_symmetry_space_group_name_H-M   'P 1'
_cell_length_a   5.66431900
_cell_length_b   5.94422638
_cell_length_c   10.03884202
_cell_angle_alpha   76.15850026
_cell_angle_beta   73.72080990
_cell_angle_gamma   61.54267555
_symmetry_Int_Tables_number   1
_chemical_formula_structural   Li9Mn2Co5O16
_chemical_formula_sum   'Li9 Mn2 Co5 O16'
_cell_volume   283.00806562
_cell_formula_units_Z   1
loop_
 _symmetry_equiv_pos_site_id
 _symmetry_equiv_pos_as_xyz
  1  'x, y, z'
loop_
 _atom_site_type_symbol
 _atom_site_label
 _atom_site_symmetry_multiplicity
 _atom_site_fract_x
 _atom_site_fract_y
 _atom_site_fract_z
 _atom_site_occupancy
  Li  Li0  1  0.49737900  0.75291800  0.25551400  1
  Li  Li1  1  0.99867000  0.24887300  0.74831300  1
  Li  Li2  1  0.99139400  0.24301500  0.25771500  1
  Li  Li3  1  0.50437000  0.75314200  0.74243200  1
  Li  Li4  1  0.49563000  0.24685800  0.25756800  1
  Li  Li5  1  0.00860600  0.75698500  0.74228500  1
  Li  Li6  1  0.00133000  0.75112700  0.25168700  1
  Li  Li7  1  0.50262100  0.24708200  0.74448600  1
  Li  Li8  1  0.50000000  0.50000000  0.50000000  1
  Mn  Mn0  1  0.00000000  0.00000000  0.00000000  1
  Mn  Mn1  1  0.50000000  0.50000000  0.00000000  1
  Co  Co0  1  0.00000000  0.00000000  0.50000000  1
  Co  Co1  1  0.00000000  0.50000000  0.00000000  1
  Co  Co2  1  0.50000000  0.00000000  0.50000000  1
  Co  Co3  1  0.50000000  0.00000000  0.00000000  1
  Co  Co4  1  0.00000000  0.50000000  0.50000000  1
  O  O0  1  0.74470200  0.11241000  0.11505900  1
  O  O1  1  0.26613100  0.66161800  0.59956500  1
  O  O2  1  0.23933000  0.60586800  0.11828100  1
  O  O3  1  0.74230400  0.10214500  0.61761000  1
  O  O4  1  0.74111500  0.60106600  0.12175800  1
  O  O5  1  0.24877700  0.10692900  0.60954600  1
  O  O6  1  0.24656500  0.10390100  0.11713500  1
  O  O7  1  0.79588400  0.66157100  0.60006900  1
  O  O8  1  0.20411500  0.33842900  0.39993100  1
  O  O9  1  0.75343500  0.89609900  0.88286500  1
  O  O10  1  0.75122300  0.89307100  0.39045400  1
  O  O11  1  0.25888500  0.39893400  0.87824200  1
  O  O12  1  0.25769600  0.89785500  0.38239000  1
  O  O13  1  0.76067000  0.39413200  0.88171900  1
  O  O14  1  0.73386900  0.33838200  0.40043500  1
  O  O15  1  0.25529800  0.88759000  0.88494100  1
loop_
_geom_bond_atom_site_label_1
_geom_bond_atom_site_label_2
_geom_bond_distance
_geom_bond_site_symmetry_2
Li0 O12 1.627455 1_555
Li0 O4 1.696112 1_555
Li1 O13 1.669815 1_555
Li1 O5 1.725205 1_655
Li2 O14 1.711954 1_555
Li2 O6 1.743648 1_655
Li3 O15 1.736887 1_555
Li3 O7 1.804983 1_555
Li4 O0 1.736887 1_555
Li4 O8 1.804986 1_555
Li5 O1 1.711954 1_555
Li5 O9 1.743648 1_455
Li6 O2 1.669815 1_555
Li6 O10 1.725205 1_455
Li7 O3 1.627455 1_555
Li7 O11 1.696112 1_555
Li8 O1 1.476858 1_555
Li8 O14 1.476858 1_555
Mn0 O15 1.543957 1_544
Mn0 O0 1.543957 1_455
Mn1 O2 1.573263 1_555
Mn1 O13 1.573263 1_554
Co0 O12 1.557390 1_545
Co0 O3 1.557390 1_455
Co1 O4 1.584994 1_455
Co1 O11 1.584994 1_554
Co2 O5 1.494475 1_555
Co2 O10 1.494475 1_545
Co3 O6 1.543088 1_555
Co3 O9 1.543088 1_544
Co4 O8 1.421463 1_555
Co4 O7 1.421465 1_455
