# generated using pymatgen
data_CaMnAl4SiP3(HO4)5
_symmetry_space_group_name_H-M   'P 1'
_cell_length_a   10.42803663
_cell_length_b   10.42803663
_cell_length_c   7.39681643
_cell_angle_alpha   70.64053328
_cell_angle_beta   70.64053328
_cell_angle_gamma   67.49461136
_symmetry_Int_Tables_number   1
_chemical_formula_structural   CaMnAl4SiP3(HO4)5
_chemical_formula_sum   'Ca2 Mn2 Al8 Si2 P6 H10 O40'
_cell_volume   681.49408039
_cell_formula_units_Z   2
loop_
 _symmetry_equiv_pos_site_id
 _symmetry_equiv_pos_as_xyz
  1  'x, y, z'
loop_
 _atom_site_type_symbol
 _atom_site_label
 _atom_site_symmetry_multiplicity
 _atom_site_fract_x
 _atom_site_fract_y
 _atom_site_fract_z
 _atom_site_occupancy
  Ca  Ca0  1  0.74339100  0.25660900  0.00000000  1
  Ca  Ca1  1  0.25660900  0.74339100  0.00000000  1
  Mn  Mn0  1  0.28552500  0.28552500  0.94723900  1
  Mn  Mn1  1  0.71447500  0.71447500  0.05276100  1
  Al  Al0  1  0.76466000  0.49819700  0.50275200  1
  Al  Al1  1  0.49819700  0.76466000  0.50275200  1
  Al  Al2  1  0.23534000  0.50180300  0.49724800  1
  Al  Al3  1  0.50180300  0.23534000  0.49724800  1
  Al  Al4  1  0.98938600  0.24744400  0.23147400  1
  Al  Al5  1  0.24744400  0.98938600  0.23147400  1
  Al  Al6  1  0.01061400  0.75255600  0.76852600  1
  Al  Al7  1  0.75255600  0.01061400  0.76852600  1
  Si  Si0  1  0.05038400  0.05038400  0.66484700  1
  Si  Si1  1  0.94961600  0.94961600  0.33515300  1
  P  P0  1  0.46591000  0.46591000  0.76664800  1
  P  P1  1  0.53409000  0.53409000  0.23335200  1
  P  P2  1  0.95566000  0.46284900  0.80459600  1
  P  P3  1  0.46284900  0.95566000  0.80459600  1
  P  P4  1  0.04434000  0.53715100  0.19540400  1
  P  P5  1  0.53715100  0.04434000  0.19540400  1
  H  H0  1  0.81418800  0.81418800  0.35934500  1
  H  H1  1  0.18581200  0.18581200  0.64065500  1
  H  H2  1  0.67930900  0.67930900  0.68966200  1
  H  H3  1  0.32069100  0.32069100  0.31033800  1
  H  H4  1  0.83962900  0.25447500  0.54729500  1
  H  H5  1  0.25447500  0.83962900  0.54729500  1
  H  H6  1  0.16037100  0.74552500  0.45270500  1
  H  H7  1  0.74552500  0.16037100  0.45270500  1
  H  H8  1  0.13570200  0.13570200  0.94530300  1
  H  H9  1  0.86429800  0.86429800  0.05469700  1
  O  O0  1  0.40669200  0.40669200  0.64505300  1
  O  O1  1  0.59330800  0.59330800  0.35494700  1
  O  O2  1  0.40351000  0.40351000  0.98249700  1
  O  O3  1  0.59649000  0.59649000  0.01750300  1
  O  O4  1  0.11253300  0.87762900  0.75249900  1
  O  O5  1  0.87762900  0.11253300  0.75249900  1
  O  O6  1  0.88746700  0.12237100  0.24750100  1
  O  O7  1  0.12237100  0.88746700  0.24750100  1
  O  O8  1  0.12198700  0.41684900  0.73731400  1
  O  O9  1  0.41684900  0.12198700  0.73731400  1
  O  O10  1  0.87801300  0.58315100  0.26268600  1
  O  O11  1  0.58315100  0.87801300  0.26268600  1
  O  O12  1  0.90015700  0.62319600  0.81294000  1
  O  O13  1  0.62319600  0.90015700  0.81294000  1
  O  O14  1  0.09984300  0.37680400  0.18706000  1
  O  O15  1  0.37680400  0.09984300  0.18706000  1
  O  O16  1  0.88730600  0.43776600  0.67064700  1
  O  O17  1  0.43776600  0.88730600  0.67064700  1
  O  O18  1  0.11269400  0.56223400  0.32935300  1
  O  O19  1  0.56223400  0.11269400  0.32935300  1
  O  O20  1  0.09493600  0.09493600  0.42122900  1
  O  O21  1  0.90506400  0.90506400  0.57877100  1
  O  O22  1  0.63134900  0.41296100  0.71789400  1
  O  O23  1  0.41296100  0.63134900  0.71789400  1
  O  O24  1  0.36865100  0.58703900  0.28210600  1
  O  O25  1  0.58703900  0.36865100  0.28210600  1
  O  O26  1  0.90944800  0.36854200  0.01160200  1
  O  O27  1  0.36854200  0.90944800  0.01160200  1
  O  O28  1  0.09055200  0.63145800  0.98839800  1
  O  O29  1  0.63145800  0.09055200  0.98839800  1
  O  O30  1  0.12808100  0.12808100  0.74196600  1
  O  O31  1  0.87191900  0.87191900  0.25803400  1
  O  O32  1  0.67774100  0.67774100  0.55988700  1
  O  O33  1  0.32225900  0.32225900  0.44011300  1
  O  O34  1  0.84733800  0.32970800  0.42295600  1
  O  O35  1  0.32970800  0.84733800  0.42295600  1
  O  O36  1  0.15266200  0.67029200  0.57704400  1
  O  O37  1  0.67029200  0.15266200  0.57704400  1
  O  O38  1  0.15188500  0.15188500  0.06209500  1
  O  O39  1  0.84811500  0.84811500  0.93790500  1
loop_
_geom_bond_atom_site_label_1
_geom_bond_atom_site_label_2
_geom_bond_distance
_geom_bond_site_symmetry_2
Ca0 O29 2.465910 1_554
Ca0 O26 2.465910 1_555
Ca0 O5 2.466342 1_554
Ca0 O6 2.466342 1_555
Ca0 O25 2.506020 1_555
Ca0 O22 2.506020 1_554
Ca0 O19 2.907084 1_555
Ca0 O16 2.907084 1_554
Ca1 O28 2.465910 1_554
Ca1 O27 2.465910 1_555
Ca1 O4 2.466342 1_554
Ca1 O7 2.466342 1_555
Ca1 O24 2.506020 1_555
Ca1 O23 2.506020 1_554
Ca1 O18 2.907084 1_555
Ca1 O17 2.907084 1_554
Mn0 O38 2.126711 1_556
Mn0 O2 2.163299 1_555
Mn0 O14 2.287645 1_556
Mn0 O15 2.287645 1_556
Mn0 O0 2.380443 1_555
Mn0 O8 2.398498 1_555
Mn0 O9 2.398498 1_555
Mn1 O39 2.126711 1_554
Mn1 O3 2.163299 1_555
Mn1 O13 2.287645 1_554
Mn1 O12 2.287645 1_554
Mn1 O1 2.380443 1_555
Mn1 O10 2.398498 1_555
Mn1 O11 2.398498 1_555
Al0 O34 1.835564 1_555
Al0 O32 1.864703 1_555
Al0 O16 1.868774 1_555
Al0 O10 1.924151 1_555
Al0 O22 1.948465 1_555
Al0 O1 2.142759 1_555
Al1 O35 1.835564 1_555
Al1 O32 1.864703 1_555
Al1 O17 1.868774 1_555
Al1 O11 1.924151 1_555
Al1 O23 1.948465 1_555
Al1 O1 2.142759 1_555
Al2 O36 1.835564 1_555
Al2 O33 1.864703 1_555
Al2 O18 1.868774 1_555
Al2 O8 1.924151 1_555
Al2 O24 1.948465 1_555
Al2 O0 2.142759 1_555
Al3 O37 1.835564 1_555
Al3 O33 1.864703 1_555
Al3 O19 1.868774 1_555
Al3 O9 1.924151 1_555
Al3 O25 1.948465 1_555
Al3 O0 2.142759 1_555
Al4 O34 1.837925 1_555
Al4 O38 1.887229 1_655
Al4 O26 1.914663 1_555
Al4 O6 1.928700 1_555
Al4 O14 1.974644 1_655
Al4 O20 1.978648 1_655
Al5 O35 1.837925 1_555
Al5 O38 1.887229 1_565
Al5 O27 1.914663 1_555
Al5 O7 1.928700 1_555
Al5 O15 1.974644 1_565
Al5 O20 1.978648 1_565
Al6 O36 1.837925 1_555
Al6 O39 1.887229 1_455
Al6 O28 1.914663 1_555
Al6 O4 1.928700 1_555
Al6 O12 1.974644 1_455
Al6 O21 1.978648 1_455
Al7 O37 1.837925 1_555
Al7 O39 1.887229 1_545
Al7 O29 1.914663 1_555
Al7 O5 1.928700 1_555
Al7 O13 1.974644 1_545
Al7 O21 1.978648 1_545
H0 O31 0.982690 1_555
H1 O30 0.982690 1_555
H2 O32 0.971083 1_555
H3 O33 0.971083 1_555
H4 O34 0.994341 1_555
H4 O5 1.764101 1_555
H5 O35 0.994341 1_555
H5 O4 1.764101 1_555
H6 O36 0.994341 1_555
H6 O7 1.764101 1_555
H7 O37 0.994341 1_555
H7 O6 1.764101 1_555
H8 O38 1.009145 1_556
H8 O30 1.561447 1_555
H9 O39 1.009145 1_554
H9 O31 1.561447 1_555
O0 P0 1.612460 1_555
O1 P1 1.612460 1_555
O2 P0 1.530532 1_555
O3 P1 1.530532 1_555
O4 Si0 1.642005 1_565
O5 Si0 1.642005 1_655
O6 Si1 1.642005 1_545
O7 Si1 1.642005 1_455
O8 P2 1.560512 1_455
O9 P3 1.560512 1_545
O10 P4 1.560512 1_655
O11 P5 1.560512 1_565
O12 P2 1.561598 1_555
O13 P3 1.561598 1_555
O14 P4 1.561598 1_555
O15 P5 1.561598 1_555
O16 P2 1.530017 1_555
O17 P3 1.530017 1_555
O18 P4 1.530017 1_555
O19 P5 1.530017 1_555
O20 Si0 1.653489 1_555
O21 Si1 1.653489 1_555
O22 P0 1.549694 1_555
O23 P0 1.549694 1_555
O24 P1 1.549694 1_555
O25 P1 1.549694 1_555
O26 P2 1.555365 1_554
O27 P3 1.555365 1_554
O28 P4 1.555365 1_556
O29 P5 1.555365 1_556
O30 Si0 1.659436 1_555
O31 Si1 1.659436 1_555
