# generated using pymatgen
data_Ba4Pr4Fe4Cu4O21
_symmetry_space_group_name_H-M   'P 1'
_cell_length_a   16.32884093
_cell_length_b   16.32884093
_cell_length_c   16.32884093
_cell_angle_alpha   160.22674889
_cell_angle_beta   160.22674889
_cell_angle_gamma   28.10599030
_symmetry_Int_Tables_number   1
_chemical_formula_structural   Ba4Pr4Fe4Cu4O21
_chemical_formula_sum   'Ba4 Pr4 Fe4 Cu4 O21'
_cell_volume   498.04213957
_cell_formula_units_Z   1
loop_
 _symmetry_equiv_pos_site_id
 _symmetry_equiv_pos_as_xyz
  1  'x, y, z'
loop_
 _atom_site_type_symbol
 _atom_site_label
 _atom_site_symmetry_multiplicity
 _atom_site_fract_x
 _atom_site_fract_y
 _atom_site_fract_z
 _atom_site_occupancy
  Ba  Ba0  1  0.86956400  0.36956400  0.50000000  1
  Ba  Ba1  1  0.13043600  0.63043600  0.50000000  1
  Ba  Ba2  1  0.36956400  0.86956400  0.50000000  1
  Ba  Ba3  1  0.63043600  0.13043600  0.50000000  1
  Pr  Pr0  1  0.00000000  0.50000000  0.50000000  1
  Pr  Pr1  1  0.25000000  0.75000000  0.50000000  1
  Pr  Pr2  1  0.50000000  0.00000000  0.50000000  1
  Pr  Pr3  1  0.75000000  0.25000000  0.50000000  1
  Fe  Fe0  1  0.56012900  0.56012900  0.00000000  1
  Fe  Fe1  1  0.06603200  0.06603200  0.00000000  1
  Fe  Fe2  1  0.43987100  0.43987100  0.00000000  1
  Fe  Fe3  1  0.93396800  0.93396800  0.00000000  1
  Cu  Cu0  1  0.30573600  0.30573600  0.00000000  1
  Cu  Cu1  1  0.80636600  0.80636600  0.00000000  1
  Cu  Cu2  1  0.19363400  0.19363400  0.00000000  1
  Cu  Cu3  1  0.69426400  0.69426400  0.00000000  1
  O  O0  1  0.29175200  0.29175200  0.48067500  1
  O  O1  1  0.54741300  0.54741300  0.49683200  1
  O  O2  1  0.81107700  0.81107700  0.51932500  1
  O  O3  1  0.05058100  0.05058100  0.50316800  1
  O  O4  1  0.29175200  0.81107700  0.00000000  1
  O  O5  1  0.54741300  0.05058100  0.00000000  1
  O  O6  1  0.81107700  0.29175200  0.00000000  1
  O  O7  1  0.05058100  0.54741300  0.00000000  1
  O  O8  1  0.18892300  0.18892300  0.48067500  1
  O  O9  1  0.45258700  0.45258700  0.50316800  1
  O  O10  1  0.70824800  0.70824800  0.51932500  1
  O  O11  1  0.94941900  0.94941900  0.49683200  1
  O  O12  1  0.18892300  0.70824800  0.00000000  1
  O  O13  1  0.45258700  0.94941900  0.00000000  1
  O  O14  1  0.70824800  0.18892300  0.00000000  1
  O  O15  1  0.94941900  0.45258700  0.00000000  1
  O  O16  1  0.38066600  0.38066600  0.00000000  1
  O  O17  1  0.61933400  0.61933400  0.00000000  1
  O  O18  1  0.87475200  0.87475200  0.00000000  1
  O  O19  1  0.12524800  0.12524800  0.00000000  1
  O  O20  1  0.50000000  0.50000000  0.00000000  1
loop_
_geom_bond_atom_site_label_1
_geom_bond_atom_site_label_2
_geom_bond_distance
_geom_bond_site_symmetry_2
Ba0 O18 2.808461 1_556
Ba0 O18 2.808461 1_545
Ba0 O16 2.825623 1_656
Ba0 O16 2.825623 1_555
Ba0 O1 2.988011 1_555
Ba0 O5 2.988011 1_555
Ba0 O7 2.988011 1_656
Ba0 O3 2.988011 1_655
Ba0 O8 3.194248 1_655
Ba0 O12 3.194248 1_656
Ba0 O10 3.194248 1_555
Ba0 O14 3.194248 1_555
Ba1 O19 2.808461 1_555
Ba1 O19 2.808461 1_566
Ba1 O17 2.825623 1_455
Ba1 O17 2.825623 1_556
Ba1 O13 2.988011 1_556
Ba1 O11 2.988011 1_455
Ba1 O15 2.988011 1_455
Ba1 O9 2.988011 1_555
Ba1 O4 3.194248 1_556
Ba1 O2 3.194248 1_455
Ba1 O6 3.194248 1_455
Ba1 O0 3.194248 1_555
Ba2 O18 2.808461 1_455
Ba2 O18 2.808461 1_556
Ba2 O16 2.825623 1_566
Ba2 O16 2.825623 1_555
Ba2 O1 2.988011 1_555
Ba2 O5 2.988011 1_566
Ba2 O7 2.988011 1_555
Ba2 O3 2.988011 1_565
Ba2 O14 3.194248 1_566
Ba2 O10 3.194248 1_555
Ba2 O8 3.194248 1_565
Ba2 O12 3.194248 1_555
Ba3 O19 2.808461 1_555
Ba3 O19 2.808461 1_656
Ba3 O17 2.825623 1_545
Ba3 O17 2.825623 1_556
Ba3 O15 2.988011 1_556
Ba3 O13 2.988011 1_545
Ba3 O11 2.988011 1_545
Ba3 O9 2.988011 1_555
Ba3 O4 3.194248 1_545
Ba3 O6 3.194248 1_556
Ba3 O0 3.194248 1_555
Ba3 O2 3.194248 1_545
Fe0 O17 1.875631 1_555
Fe0 O20 1.904904 1_555
Fe0 O2 2.077527 1_555
Fe0 O0 2.077527 1_554
Fe0 O4 2.077527 1_555
Fe0 O6 2.077527 1_555
Fe1 O19 1.875980 1_555
Fe1 O2 1.961310 1_444
Fe1 O4 1.961310 1_545
Fe1 O6 1.961310 1_455
Fe1 O0 1.961310 1_555
Fe2 O16 1.875631 1_555
Fe2 O20 1.904904 1_555
Fe2 O12 2.077527 1_555
Fe2 O10 2.077527 1_555
Fe2 O8 2.077527 1_554
Fe2 O14 2.077527 1_555
Fe3 O18 1.875980 1_555
Fe3 O14 1.961310 1_565
Fe3 O8 1.961310 1_665
Fe3 O10 1.961310 1_554
Fe3 O12 1.961310 1_655
Cu0 O1 1.981453 1_555
Cu0 O3 1.981453 1_554
Cu0 O7 1.981453 1_555
Cu0 O5 1.981453 1_555
Cu0 O16 2.373804 1_555
Cu1 O3 2.008652 1_665
Cu1 O7 2.008652 1_655
Cu1 O5 2.008652 1_565
Cu1 O1 2.008652 1_554
Cu1 O18 2.166488 1_555
Cu2 O15 2.008652 1_455
Cu2 O13 2.008652 1_545
Cu2 O9 2.008652 1_555
Cu2 O11 2.008652 1_444
Cu2 O19 2.166488 1_555
Cu3 O13 1.981453 1_555
Cu3 O11 1.981453 1_555
Cu3 O15 1.981453 1_555
Cu3 O9 1.981453 1_554
Cu3 O17 2.373804 1_555
O0 Pr2 2.566937 1_555
O0 Pr0 2.566937 1_555
O1 Pr1 2.517901 1_555
O1 Pr3 2.517901 1_555
O2 Pr0 2.566937 1_655
O2 Pr2 2.566937 1_565
O3 Pr1 2.517901 1_545
O3 Pr3 2.517901 1_455
O4 Pr2 2.566937 1_565
O4 Pr0 2.566937 1_554
O5 Pr3 2.517901 1_555
O5 Pr1 2.517901 1_544
O6 Pr2 2.566937 1_554
O6 Pr0 2.566937 1_655
O7 Pr1 2.517901 1_555
O7 Pr3 2.517901 1_454
O8 Pr0 2.566937 1_555
O8 Pr2 2.566937 1_555
O9 Pr1 2.517901 1_555
O9 Pr3 2.517901 1_555
O10 Pr2 2.566937 1_565
O10 Pr0 2.566937 1_655
O11 Pr3 2.517901 1_565
O11 Pr1 2.517901 1_655
O12 Pr2 2.566937 1_565
O12 Pr0 2.566937 1_554
O13 Pr1 2.517901 1_554
O13 Pr3 2.517901 1_565
O14 Pr2 2.566937 1_554
O14 Pr0 2.566937 1_655
O15 Pr1 2.517901 1_655
O15 Pr3 2.517901 1_554
O20 Pr0 2.803648 1_554
O20 Pr0 2.803648 1_655
O20 Pr2 2.803648 1_554
O20 Pr2 2.803648 1_565
