# generated using pymatgen
data_Cu3Sn(PO4)4
_symmetry_space_group_name_H-M   'P 1'
_cell_length_a   6.06513600
_cell_length_b   5.13529900
_cell_length_c   9.98617467
_cell_angle_alpha   87.62713093
_cell_angle_beta   90.00000000
_cell_angle_gamma   90.00000000
_symmetry_Int_Tables_number   1
_chemical_formula_structural   Cu3Sn(PO4)4
_chemical_formula_sum   'Cu3 Sn1 P4 O16'
_cell_volume   310.76556529
_cell_formula_units_Z   1
loop_
 _symmetry_equiv_pos_site_id
 _symmetry_equiv_pos_as_xyz
  1  'x, y, z'
loop_
 _atom_site_type_symbol
 _atom_site_label
 _atom_site_symmetry_multiplicity
 _atom_site_fract_x
 _atom_site_fract_y
 _atom_site_fract_z
 _atom_site_occupancy
  Cu  Cu0  1  0.50000000  0.87143000  0.30874100  1
  Cu  Cu1  1  0.50000000  0.64683000  0.80994100  1
  Cu  Cu2  1  0.00000000  0.37170600  0.19565600  1
  Sn  Sn0  1  0.00000000  0.04571100  0.71067100  1
  P  P0  1  0.00000000  0.91006600  0.38873700  1
  P  P1  1  0.00000000  0.57883400  0.89986200  1
  P  P2  1  0.50000000  0.43895100  0.11239400  1
  P  P3  1  0.50000000  0.08009100  0.59767700  1
  O  O0  1  0.00000000  0.83969500  0.54304300  1
  O  O1  1  0.19952800  0.77517000  0.32345300  1
  O  O2  1  0.80047200  0.77517000  0.32345300  1
  O  O3  1  0.50000000  0.78551400  0.63413600  1
  O  O4  1  0.50000000  0.73473200  0.13706000  1
  O  O5  1  0.19113000  0.74332200  0.82661200  1
  O  O6  1  0.80887000  0.74332200  0.82661200  1
  O  O7  1  0.00000000  0.61593200  0.04994200  1
  O  O8  1  0.50000000  0.41359600  0.95780000  1
  O  O9  1  0.69864300  0.28758000  0.17598100  1
  O  O10  1  0.30135700  0.28758000  0.17598100  1
  O  O11  1  0.00000000  0.28845300  0.86969600  1
  O  O12  1  0.00000000  0.21028000  0.36927400  1
  O  O13  1  0.70417000  0.22128300  0.65963500  1
  O  O14  1  0.29583000  0.22128300  0.65963500  1
  O  O15  1  0.50000000  0.11346900  0.44400700  1
loop_
_geom_bond_atom_site_label_1
_geom_bond_atom_site_label_2
_geom_bond_distance
_geom_bond_site_symmetry_2
Cu0 O15 1.873117 1_565
Cu0 O4 1.879290 1_555
Cu0 O2 1.892375 1_555
Cu0 O1 1.892375 1_555
Cu1 O8 1.862336 1_555
Cu1 O3 1.867049 1_555
Cu1 O5 1.946658 1_555
Cu1 O6 1.946658 1_555
Cu2 O7 1.881282 1_555
Cu2 O10 1.890242 1_555
Cu2 O9 1.890242 1_455
Cu2 O12 1.890548 1_555
O0 P0 1.568100 1_555
O0 Sn0 2.016944 1_565
O1 P0 1.551384 1_555
O2 P0 1.551384 1_655
O3 P3 1.541213 1_565
O4 P2 1.548801 1_555
O5 P1 1.594124 1_555
O5 Sn0 2.224145 1_565
O6 P1 1.594124 1_655
O6 Sn0 2.224145 1_665
O7 P1 1.518589 1_554
O8 P2 1.554646 1_556
O9 P2 1.555033 1_555
O10 P2 1.555033 1_555
O11 P1 1.533493 1_555
O11 Sn0 2.059058 1_555
O12 P0 1.545887 1_545
O13 P3 1.574521 1_555
O13 Sn0 2.062507 1_655
O14 P3 1.574521 1_555
O14 Sn0 2.062507 1_555
O15 P3 1.537050 1_555
