# generated using pymatgen
data_LaCrAgO6
_symmetry_space_group_name_H-M   'P 1'
_cell_length_a   7.10598400
_cell_length_b   4.61538400
_cell_length_c   9.07662241
_cell_angle_alpha   70.38666660
_cell_angle_beta   90.00000000
_cell_angle_gamma   90.00000000
_symmetry_Int_Tables_number   1
_chemical_formula_structural   LaCrAgO6
_chemical_formula_sum   'La2 Cr2 Ag2 O12'
_cell_volume   280.41272836
_cell_formula_units_Z   2
loop_
 _symmetry_equiv_pos_site_id
 _symmetry_equiv_pos_as_xyz
  1  'x, y, z'
loop_
 _atom_site_type_symbol
 _atom_site_label
 _atom_site_symmetry_multiplicity
 _atom_site_fract_x
 _atom_site_fract_y
 _atom_site_fract_z
 _atom_site_occupancy
  La  La0  1  0.40629700  0.84954600  0.23645700  1
  La  La1  1  0.59370300  0.84954600  0.73645700  1
  Cr  Cr0  1  0.16014500  0.94362800  0.56990000  1
  Cr  Cr1  1  0.83985500  0.94362800  0.06990000  1
  Ag  Ag0  1  0.21895600  0.51290800  0.98912900  1
  Ag  Ag1  1  0.78104400  0.51290800  0.48912900  1
  O  O0  1  0.69718900  0.37286000  0.71054100  1
  O  O1  1  0.04922100  0.11058200  0.07334200  1
  O  O2  1  0.14789100  0.78311200  0.43217600  1
  O  O3  1  0.66296900  0.19019900  0.03374000  1
  O  O4  1  0.58812900  0.83406100  0.46459100  1
  O  O5  1  0.21764900  0.66334000  0.73991900  1
  O  O6  1  0.30281100  0.37286000  0.21054100  1
  O  O7  1  0.95077900  0.11058200  0.57334200  1
  O  O8  1  0.85210900  0.78311200  0.93217600  1
  O  O9  1  0.33703100  0.19019900  0.53374000  1
  O  O10  1  0.41187100  0.83406100  0.96459100  1
  O  O11  1  0.78235100  0.66334000  0.23991900  1
loop_
_geom_bond_atom_site_label_1
_geom_bond_atom_site_label_2
_geom_bond_distance
_geom_bond_site_symmetry_2
La0 O6 2.404980 1_555
La0 O4 2.421365 1_555
La0 O6 2.459335 1_565
La0 O10 2.492839 1_554
La0 O2 2.501182 1_555
La0 O3 2.691098 1_565
La0 O11 2.803976 1_555
La0 O1 2.980649 1_565
La1 O0 2.404980 1_555
La1 O10 2.421365 1_555
La1 O0 2.459335 1_565
La1 O4 2.492839 1_555
La1 O8 2.501182 1_555
La1 O9 2.691098 1_565
La1 O5 2.803976 1_555
La1 O7 2.980649 1_565
Cr0 O9 1.652870 1_565
Cr0 O2 1.655547 1_555
Cr0 O7 1.680565 1_465
Cr0 O5 1.697558 1_555
Cr1 O3 1.652870 1_565
Cr1 O8 1.655547 1_554
Cr1 O1 1.680565 1_665
Cr1 O11 1.697558 1_555
Ag0 O10 1.975919 1_555
Ag0 O6 1.984837 1_556
Ag0 O1 2.129364 1_556
Ag0 O5 2.131754 1_555
Ag1 O4 1.975919 1_555
Ag1 O0 1.984837 1_555
Ag1 O7 2.129364 1_555
Ag1 O11 2.131754 1_555
