# generated using pymatgen
data_Ba6Si25
_symmetry_space_group_name_H-M   'P 1'
_cell_length_a   14.16619100
_cell_length_b   14.16619100
_cell_length_c   14.16619100
_cell_angle_alpha   90.00000000
_cell_angle_beta   90.00000000
_cell_angle_gamma   90.00000000
_symmetry_Int_Tables_number   1
_chemical_formula_structural   Ba6Si25
_chemical_formula_sum   'Ba24 Si100'
_cell_volume   2842.88491494
_cell_formula_units_Z   4
loop_
 _symmetry_equiv_pos_site_id
 _symmetry_equiv_pos_as_xyz
  1  'x, y, z'
loop_
 _atom_site_type_symbol
 _atom_site_label
 _atom_site_symmetry_multiplicity
 _atom_site_fract_x
 _atom_site_fract_y
 _atom_site_fract_z
 _atom_site_occupancy
  Ba  Ba0  1  0.18873700  0.18873700  0.18873700  1
  Ba  Ba1  1  0.43873700  0.06126300  0.93873700  1
  Ba  Ba2  1  0.93873700  0.43873700  0.06126300  1
  Ba  Ba3  1  0.06126300  0.93873700  0.43873700  1
  Ba  Ba4  1  0.31126300  0.81126300  0.68873700  1
  Ba  Ba5  1  0.68873700  0.31126300  0.81126300  1
  Ba  Ba6  1  0.81126300  0.68873700  0.31126300  1
  Ba  Ba7  1  0.56126300  0.56126300  0.56126300  1
  Ba  Ba8  1  0.87500000  0.87500000  0.87500000  1
  Ba  Ba9  1  0.12500000  0.37500000  0.62500000  1
  Ba  Ba10  1  0.62500000  0.12500000  0.37500000  1
  Ba  Ba11  1  0.37500000  0.62500000  0.12500000  1
  Ba  Ba12  1  0.12500000  0.80766300  0.05766300  1
  Ba  Ba13  1  0.37500000  0.19233700  0.55766300  1
  Ba  Ba14  1  0.87500000  0.30766300  0.44233700  1
  Ba  Ba15  1  0.80766300  0.05766300  0.12500000  1
  Ba  Ba16  1  0.19233700  0.55766300  0.37500000  1
  Ba  Ba17  1  0.44233700  0.87500000  0.30766300  1
  Ba  Ba18  1  0.05766300  0.12500000  0.80766300  1
  Ba  Ba19  1  0.69233700  0.94233700  0.62500000  1
  Ba  Ba20  1  0.55766300  0.37500000  0.19233700  1
  Ba  Ba21  1  0.94233700  0.62500000  0.69233700  1
  Ba  Ba22  1  0.30766300  0.44233700  0.87500000  1
  Ba  Ba23  1  0.62500000  0.69233700  0.94233700  1
  Si  Si0  1  0.04004400  0.04004400  0.04004400  1
  Si  Si1  1  0.29004400  0.20995600  0.79004400  1
  Si  Si2  1  0.79004400  0.29004400  0.20995600  1
  Si  Si3  1  0.20995600  0.79004400  0.29004400  1
  Si  Si4  1  0.45995600  0.95995600  0.54004400  1
  Si  Si5  1  0.54004400  0.45995600  0.95995600  1
  Si  Si6  1  0.95995600  0.54004400  0.45995600  1
  Si  Si7  1  0.70995600  0.70995600  0.70995600  1
  Si  Si8  1  0.20553200  0.04233200  0.99899600  1
  Si  Si9  1  0.45553200  0.25100400  0.79233200  1
  Si  Si10  1  0.95553200  0.24899600  0.20766800  1
  Si  Si11  1  0.74899600  0.29233200  0.04446800  1
  Si  Si12  1  0.25100400  0.79233200  0.45553200  1
  Si  Si13  1  0.20766800  0.95553200  0.24899600  1
  Si  Si14  1  0.29233200  0.04446800  0.74899600  1
  Si  Si15  1  0.99899600  0.20553200  0.04233200  1
  Si  Si16  1  0.04233200  0.99899600  0.20553200  1
  Si  Si17  1  0.45766800  0.00100400  0.70553200  1
  Si  Si18  1  0.49899600  0.29446800  0.95766800  1
  Si  Si19  1  0.95766800  0.49899600  0.29446800  1
  Si  Si20  1  0.50100400  0.79446800  0.54233200  1
  Si  Si21  1  0.00100400  0.70553200  0.45766800  1
  Si  Si22  1  0.54233200  0.50100400  0.79446800  1
  Si  Si23  1  0.70553200  0.45766800  0.00100400  1
  Si  Si24  1  0.79446800  0.54233200  0.50100400  1
  Si  Si25  1  0.29446800  0.95766800  0.49899600  1
  Si  Si26  1  0.79233200  0.45553200  0.25100400  1
  Si  Si27  1  0.70766800  0.54446800  0.75100400  1
  Si  Si28  1  0.24899600  0.20766800  0.95553200  1
  Si  Si29  1  0.75100400  0.70766800  0.54446800  1
  Si  Si30  1  0.04446800  0.74899600  0.29233200  1
  Si  Si31  1  0.54446800  0.75100400  0.70766800  1
  Si  Si32  1  0.12500000  0.16655900  0.41655900  1
  Si  Si33  1  0.37500000  0.83344100  0.91655900  1
  Si  Si34  1  0.87500000  0.66655900  0.08344100  1
  Si  Si35  1  0.16655900  0.41655900  0.12500000  1
  Si  Si36  1  0.83344100  0.91655900  0.37500000  1
  Si  Si37  1  0.08344100  0.87500000  0.66655900  1
  Si  Si38  1  0.41655900  0.12500000  0.16655900  1
  Si  Si39  1  0.33344100  0.58344100  0.62500000  1
  Si  Si40  1  0.91655900  0.37500000  0.83344100  1
  Si  Si41  1  0.58344100  0.62500000  0.33344100  1
  Si  Si42  1  0.66655900  0.08344100  0.87500000  1
  Si  Si43  1  0.62500000  0.33344100  0.58344100  1
  Si  Si44  1  0.24033800  0.93671500  0.87333000  1
  Si  Si45  1  0.49033800  0.37667000  0.68671500  1
  Si  Si46  1  0.99033800  0.12333000  0.31328500  1
  Si  Si47  1  0.62333000  0.18671500  0.00966200  1
  Si  Si48  1  0.37667000  0.68671500  0.49033800  1
  Si  Si49  1  0.31328500  0.99033800  0.12333000  1
  Si  Si50  1  0.18671500  0.00966200  0.62333000  1
  Si  Si51  1  0.87333000  0.24033800  0.93671500  1
  Si  Si52  1  0.93671500  0.87333000  0.24033800  1
  Si  Si53  1  0.56328500  0.12667000  0.74033800  1
  Si  Si54  1  0.37333000  0.25966200  0.06328500  1
  Si  Si55  1  0.06328500  0.37333000  0.25966200  1
  Si  Si56  1  0.62667000  0.75966200  0.43671500  1
  Si  Si57  1  0.12667000  0.74033800  0.56328500  1
  Si  Si58  1  0.43671500  0.62667000  0.75966200  1
  Si  Si59  1  0.74033800  0.56328500  0.12667000  1
  Si  Si60  1  0.75966200  0.43671500  0.62667000  1
  Si  Si61  1  0.25966200  0.06328500  0.37333000  1
  Si  Si62  1  0.68671500  0.49033800  0.37667000  1
  Si  Si63  1  0.81328500  0.50966200  0.87667000  1
  Si  Si64  1  0.12333000  0.31328500  0.99033800  1
  Si  Si65  1  0.87667000  0.81328500  0.50966200  1
  Si  Si66  1  0.00966200  0.62333000  0.18671500  1
  Si  Si67  1  0.50966200  0.87667000  0.81328500  1
  Si  Si68  1  0.41436400  0.86079000  0.07684900  1
  Si  Si69  1  0.66436400  0.17315100  0.61079000  1
  Si  Si70  1  0.16436400  0.32684900  0.38921000  1
  Si  Si71  1  0.82684900  0.11079000  0.83563600  1
  Si  Si72  1  0.17315100  0.61079000  0.66436400  1
  Si  Si73  1  0.38921000  0.16436400  0.32684900  1
  Si  Si74  1  0.11079000  0.83563600  0.82684900  1
  Si  Si75  1  0.07684900  0.41436400  0.86079000  1
  Si  Si76  1  0.86079000  0.07684900  0.41436400  1
  Si  Si77  1  0.63921000  0.92315100  0.91436400  1
  Si  Si78  1  0.57684900  0.08563600  0.13921000  1
  Si  Si79  1  0.13921000  0.57684900  0.08563600  1
  Si  Si80  1  0.42315100  0.58563600  0.36079000  1
  Si  Si81  1  0.92315100  0.91436400  0.63921000  1
  Si  Si82  1  0.36079000  0.42315100  0.58563600  1
  Si  Si83  1  0.91436400  0.63921000  0.92315100  1
  Si  Si84  1  0.58563600  0.36079000  0.42315100  1
  Si  Si85  1  0.08563600  0.13921000  0.57684900  1
  Si  Si86  1  0.61079000  0.66436400  0.17315100  1
  Si  Si87  1  0.88921000  0.33563600  0.67315100  1
  Si  Si88  1  0.32684900  0.38921000  0.16436400  1
  Si  Si89  1  0.67315100  0.88921000  0.33563600  1
  Si  Si90  1  0.83563600  0.82684900  0.11079000  1
  Si  Si91  1  0.33563600  0.67315100  0.88921000  1
  Si  Si92  1  0.32539800  0.32539800  0.32539800  1
  Si  Si93  1  0.57539800  0.92460200  0.07539800  1
  Si  Si94  1  0.07539800  0.57539800  0.92460200  1
  Si  Si95  1  0.92460200  0.07539800  0.57539800  1
  Si  Si96  1  0.17460200  0.67460200  0.82539800  1
  Si  Si97  1  0.82539800  0.17460200  0.67460200  1
  Si  Si98  1  0.67460200  0.82539800  0.17460200  1
  Si  Si99  1  0.42460200  0.42460200  0.42460200  1
loop_
_geom_bond_atom_site_label_1
_geom_bond_atom_site_label_2
_geom_bond_distance
_geom_bond_site_symmetry_2
Ba0 Si54 3.317525 1_555
Ba0 Si61 3.317525 1_555
Ba0 Si55 3.317525 1_555
Ba0 Si92 3.353191 1_555
Ba0 Si38 3.365988 1_555
Ba0 Si35 3.365988 1_555
Ba0 Si32 3.365988 1_555
Ba0 Si8 3.403371 1_554
Ba0 Si16 3.403371 1_545
Ba0 Si15 3.403371 1_455
Ba0 Si10 3.422656 1_455
Ba0 Si13 3.422656 1_545
Ba0 Si28 3.422656 1_554
Ba0 Si64 3.445398 1_554
Ba0 Si46 3.445398 1_455
Ba0 Si49 3.445398 1_545
Ba0 Si70 3.465897 1_555
Ba0 Si88 3.465897 1_555
Ba0 Si73 3.465897 1_555
Ba0 Si0 3.648415 1_555
Ba1 Si49 3.317525 1_546
Ba1 Si67 3.317525 1_545
Ba1 Si47 3.317525 1_556
Ba1 Si93 3.353191 1_546
Ba1 Si38 3.365988 1_556
Ba1 Si33 3.365988 1_545
Ba1 Si42 3.365988 1_555
Ba1 Si28 3.403371 1_555
Ba1 Si9 3.403371 1_555
Ba1 Si14 3.403371 1_555
Ba1 Si18 3.422656 1_555
Ba1 Si8 3.422656 1_555
Ba1 Si17 3.422656 1_555
Ba1 Si54 3.445398 1_556
Ba1 Si44 3.445398 1_545
Ba1 Si53 3.445398 1_555
Ba1 Si68 3.465897 1_546
Ba1 Si77 3.465897 1_545
Ba1 Si78 3.465897 1_556
Ba1 Si1 3.648415 1_555
Ba2 Si64 3.317525 1_654
Ba2 Si66 3.317525 1_655
Ba2 Si63 3.317525 1_554
Ba2 Si94 3.353191 1_654
Ba2 Si35 3.365988 1_655
Ba2 Si40 3.365988 1_554
Ba2 Si34 3.365988 1_555
Ba2 Si26 3.403371 1_555
Ba2 Si10 3.403371 1_555
Ba2 Si11 3.403371 1_555
Ba2 Si19 3.422656 1_555
Ba2 Si15 3.422656 1_555
Ba2 Si23 3.422656 1_555
Ba2 Si55 3.445398 1_655
Ba2 Si59 3.445398 1_555
Ba2 Si51 3.445398 1_554
Ba2 Si75 3.465897 1_654
Ba2 Si83 3.465897 1_554
Ba2 Si79 3.465897 1_655
Ba2 Si2 3.648415 1_555
Ba3 Si46 3.317525 1_465
Ba3 Si65 3.317525 1_455
Ba3 Si50 3.317525 1_565
Ba3 Si95 3.353191 1_465
Ba3 Si32 3.365988 1_565
Ba3 Si36 3.365988 1_455
Ba3 Si37 3.365988 1_555
Ba3 Si12 3.403371 1_555
Ba3 Si13 3.403371 1_555
Ba3 Si30 3.403371 1_555
Ba3 Si21 3.422656 1_555
Ba3 Si16 3.422656 1_555
Ba3 Si25 3.422656 1_555
Ba3 Si61 3.445398 1_565
Ba3 Si52 3.445398 1_455
Ba3 Si57 3.445398 1_555
Ba3 Si76 3.465897 1_465
Ba3 Si81 3.465897 1_455
Ba3 Si85 3.465897 1_565
Ba3 Si3 3.648415 1_555
Ba4 Si57 3.317525 1_555
Ba4 Si58 3.317525 1_555
Ba4 Si44 3.317525 1_555
Ba4 Si96 3.353191 1_555
Ba4 Si33 3.365988 1_555
Ba4 Si39 3.365988 1_555
Ba4 Si37 3.365988 1_555
Ba4 Si20 3.403371 1_555
Ba4 Si25 3.403371 1_555
Ba4 Si17 3.403371 1_565
Ba4 Si31 3.422656 1_555
Ba4 Si14 3.422656 1_565
Ba4 Si12 3.422656 1_555
Ba4 Si67 3.445398 1_555
Ba4 Si48 3.445398 1_555
Ba4 Si50 3.445398 1_565
Ba4 Si91 3.465897 1_555
Ba4 Si72 3.465897 1_555
Ba4 Si74 3.465897 1_555
Ba4 Si4 3.648415 1_555
Ba5 Si60 3.317525 1_555
Ba5 Si53 3.317525 1_555
Ba5 Si51 3.317525 1_555
Ba5 Si97 3.353191 1_555
Ba5 Si43 3.365988 1_555
Ba5 Si40 3.365988 1_555
Ba5 Si42 3.365988 1_555
Ba5 Si22 3.403371 1_555
Ba5 Si18 3.403371 1_555
Ba5 Si23 3.403371 1_556
Ba5 Si27 3.422656 1_555
Ba5 Si11 3.422656 1_556
Ba5 Si9 3.422656 1_555
Ba5 Si63 3.445398 1_555
Ba5 Si45 3.445398 1_555
Ba5 Si47 3.445398 1_556
Ba5 Si87 3.465897 1_555
Ba5 Si69 3.465897 1_555
Ba5 Si71 3.465897 1_555
Ba5 Si5 3.648415 1_555
Ba6 Si56 3.317525 1_555
Ba6 Si59 3.317525 1_555
Ba6 Si52 3.317525 1_555
Ba6 Si98 3.353191 1_555
Ba6 Si41 3.365988 1_555
Ba6 Si36 3.365988 1_555
Ba6 Si34 3.365988 1_555
Ba6 Si24 3.403371 1_555
Ba6 Si21 3.403371 1_655
Ba6 Si19 3.403371 1_555
Ba6 Si29 3.422656 1_555
Ba6 Si30 3.422656 1_655
Ba6 Si26 3.422656 1_555
Ba6 Si65 3.445398 1_555
Ba6 Si62 3.445398 1_555
Ba6 Si66 3.445398 1_655
Ba6 Si89 3.465897 1_555
Ba6 Si86 3.465897 1_555
Ba6 Si90 3.465897 1_555
Ba6 Si6 3.648415 1_555
Ba7 Si45 3.317525 1_555
Ba7 Si48 3.317525 1_555
Ba7 Si62 3.317525 1_555
Ba7 Si99 3.353191 1_555
Ba7 Si43 3.365988 1_555
Ba7 Si39 3.365988 1_555
Ba7 Si41 3.365988 1_555
Ba7 Si27 3.403371 1_555
Ba7 Si29 3.403371 1_555
Ba7 Si31 3.403371 1_555
Ba7 Si24 3.422656 1_555
Ba7 Si20 3.422656 1_555
Ba7 Si22 3.422656 1_555
Ba7 Si60 3.445398 1_555
Ba7 Si56 3.445398 1_555
Ba7 Si58 3.445398 1_555
Ba7 Si80 3.465897 1_555
Ba7 Si82 3.465897 1_555
Ba7 Si84 3.465897 1_555
Ba7 Si7 3.648415 1_555
Ba8 Si90 3.454488 1_556
Ba8 Si74 3.454488 1_655
Ba8 Si71 3.454488 1_565
Ba8 Si83 3.454488 1_555
Ba8 Si77 3.454488 1_555
Ba8 Si81 3.454488 1_555
Ba9 Si82 3.454488 1_555
Ba9 Si70 3.454488 1_555
Ba9 Si85 3.454488 1_555
Ba9 Si72 3.454488 1_555
Ba9 Si75 3.454488 1_555
Ba9 Si87 3.454488 1_455
Ba10 Si84 3.454488 1_555
Ba10 Si73 3.454488 1_555
Ba10 Si78 3.454488 1_555
Ba10 Si69 3.454488 1_555
Ba10 Si89 3.454488 1_545
Ba10 Si76 3.454488 1_555
Ba11 Si79 3.454488 1_555
Ba11 Si80 3.454488 1_555
Ba11 Si88 3.454488 1_555
Ba11 Si86 3.454488 1_555
Ba11 Si91 3.454488 1_554
Ba11 Si68 3.454488 1_555
Ba12 Si79 3.299826 1_555
Ba12 Si74 3.299826 1_554
Ba12 Si0 3.513926 1_565
Ba12 Si3 3.513926 1_555
Ba12 Si44 3.582000 1_554
Ba12 Si66 3.582000 1_555
Ba12 Si30 3.611594 1_555
Ba12 Si8 3.611594 1_564
Ba12 Si16 3.620219 1_555
Ba12 Si13 3.620219 1_555
Ba12 Si49 3.830994 1_555
Ba12 Si52 3.830994 1_455
Ba12 Si96 3.856552 1_554
Ba12 Si94 3.856552 1_554
Ba13 Si82 3.299826 1_555
Ba13 Si73 3.299826 1_555
Ba13 Si4 3.513926 1_545
Ba13 Si1 3.513926 1_555
Ba13 Si45 3.582000 1_555
Ba13 Si61 3.582000 1_555
Ba13 Si9 3.611594 1_555
Ba13 Si25 3.611594 1_545
Ba13 Si14 3.620219 1_555
Ba13 Si17 3.620219 1_555
Ba13 Si50 3.830994 1_555
Ba13 Si53 3.830994 1_555
Ba13 Si99 3.856552 1_555
Ba13 Si92 3.856552 1_555
Ba14 Si76 3.299826 1_555
Ba14 Si87 3.299826 1_555
Ba14 Si2 3.513926 1_555
Ba14 Si6 3.513926 1_555
Ba14 Si60 3.582000 1_555
Ba14 Si46 3.582000 1_555
Ba14 Si10 3.611594 1_555
Ba14 Si24 3.611594 1_555
Ba14 Si19 3.620219 1_555
Ba14 Si26 3.620219 1_555
Ba14 Si55 3.830994 1_655
Ba14 Si62 3.830994 1_555
Ba14 Si95 3.856552 1_555
Ba14 Si97 3.856552 1_555
Ba15 Si90 3.299826 1_545
Ba15 Si78 3.299826 1_555
Ba15 Si0 3.513926 1_655
Ba15 Si2 3.513926 1_555
Ba15 Si52 3.582000 1_545
Ba15 Si47 3.582000 1_555
Ba15 Si11 3.611594 1_555
Ba15 Si16 3.611594 1_645
Ba15 Si15 3.620219 1_555
Ba15 Si10 3.620219 1_555
Ba15 Si46 3.830994 1_555
Ba15 Si51 3.830994 1_554
Ba15 Si98 3.856552 1_545
Ba15 Si93 3.856552 1_545
Ba16 Si80 3.299826 1_555
Ba16 Si70 3.299826 1_555
Ba16 Si6 3.513926 1_455
Ba16 Si3 3.513926 1_555
Ba16 Si48 3.582000 1_555
Ba16 Si55 3.582000 1_555
Ba16 Si12 3.611594 1_555
Ba16 Si19 3.611594 1_455
Ba16 Si30 3.620219 1_555
Ba16 Si21 3.620219 1_555
Ba16 Si66 3.830994 1_555
Ba16 Si57 3.830994 1_555
Ba16 Si99 3.856552 1_555
Ba16 Si92 3.856552 1_555
Ba17 Si68 3.299826 1_555
Ba17 Si89 3.299826 1_555
Ba17 Si4 3.513926 1_555
Ba17 Si3 3.513926 1_555
Ba17 Si56 3.582000 1_555
Ba17 Si49 3.582000 1_555
Ba17 Si13 3.611594 1_555
Ba17 Si20 3.611594 1_555
Ba17 Si12 3.620219 1_555
Ba17 Si25 3.620219 1_555
Ba17 Si61 3.830994 1_565
Ba17 Si48 3.830994 1_555
Ba17 Si93 3.856552 1_555
Ba17 Si98 3.856552 1_555
Ba18 Si85 3.299826 1_555
Ba18 Si71 3.299826 1_455
Ba18 Si0 3.513926 1_556
Ba18 Si1 3.513926 1_555
Ba18 Si51 3.582000 1_455
Ba18 Si50 3.582000 1_555
Ba18 Si14 3.611594 1_555
Ba18 Si15 3.611594 1_456
Ba18 Si8 3.620219 1_555
Ba18 Si28 3.620219 1_555
Ba18 Si64 3.830994 1_555
Ba18 Si44 3.830994 1_545
Ba18 Si97 3.856552 1_455
Ba18 Si95 3.856552 1_455
Ba19 Si81 3.299826 1_555
Ba19 Si69 3.299826 1_565
Ba19 Si7 3.513926 1_555
Ba19 Si4 3.513926 1_555
Ba19 Si65 3.582000 1_555
Ba19 Si53 3.582000 1_565
Ba19 Si17 3.611594 1_565
Ba19 Si29 3.611594 1_555
Ba19 Si20 3.620219 1_555
Ba19 Si31 3.620219 1_555
Ba19 Si56 3.830994 1_555
Ba19 Si67 3.830994 1_555
Ba19 Si97 3.856552 1_565
Ba19 Si95 3.856552 1_565
Ba20 Si84 3.299826 1_555
Ba20 Si88 3.299826 1_555
Ba20 Si2 3.513926 1_555
Ba20 Si5 3.513926 1_554
Ba20 Si62 3.582000 1_555
Ba20 Si54 3.582000 1_555
Ba20 Si26 3.611594 1_555
Ba20 Si18 3.611594 1_554
Ba20 Si11 3.620219 1_555
Ba20 Si23 3.620219 1_555
Ba20 Si47 3.830994 1_555
Ba20 Si59 3.830994 1_555
Ba20 Si99 3.856552 1_555
Ba20 Si92 3.856552 1_555
Ba21 Si72 3.299826 1_655
Ba21 Si83 3.299826 1_555
Ba21 Si7 3.513926 1_555
Ba21 Si6 3.513926 1_555
Ba21 Si63 3.582000 1_555
Ba21 Si57 3.582000 1_655
Ba21 Si21 3.611594 1_655
Ba21 Si27 3.611594 1_555
Ba21 Si24 3.620219 1_555
Ba21 Si29 3.620219 1_555
Ba21 Si60 3.830994 1_555
Ba21 Si65 3.830994 1_555
Ba21 Si96 3.856552 1_655
Ba21 Si94 3.856552 1_655
Ba22 Si75 3.299826 1_555
Ba22 Si91 3.299826 1_555
Ba22 Si1 3.513926 1_555
Ba22 Si5 3.513926 1_555
Ba22 Si58 3.582000 1_555
Ba22 Si64 3.582000 1_555
Ba22 Si28 3.611594 1_555
Ba22 Si22 3.611594 1_555
Ba22 Si9 3.620219 1_555
Ba22 Si18 3.620219 1_555
Ba22 Si54 3.830994 1_556
Ba22 Si45 3.830994 1_555
Ba22 Si94 3.856552 1_555
Ba22 Si96 3.856552 1_555
Ba23 Si77 3.299826 1_555
Ba23 Si86 3.299826 1_556
Ba23 Si7 3.513926 1_555
Ba23 Si5 3.513926 1_555
Ba23 Si67 3.582000 1_555
Ba23 Si59 3.582000 1_556
Ba23 Si23 3.611594 1_556
Ba23 Si31 3.611594 1_555
Ba23 Si27 3.620219 1_555
Ba23 Si22 3.620219 1_555
Ba23 Si58 3.830994 1_555
Ba23 Si63 3.830994 1_555
Ba23 Si98 3.856552 1_556
Ba23 Si93 3.856552 1_556
Si0 Si8 2.415593 1_554
Si0 Si15 2.415593 1_455
Si0 Si16 2.415593 1_545
Si1 Si9 2.415593 1_555
Si1 Si14 2.415593 1_555
Si1 Si28 2.415593 1_555
Si2 Si26 2.415593 1_555
Si3 Si30 2.415593 1_555
Si10 Si46 2.377151 1_555
Si10 Si2 2.415593 1_555
Si10 Si55 2.444357 1_655
Si10 Si15 2.498807 1_555
Si11 Si47 2.377151 1_555
Si11 Si2 2.415593 1_555
Si11 Si51 2.444357 1_554
Si11 Si23 2.498807 1_555
Si12 Si48 2.377151 1_555
Si12 Si3 2.415593 1_555
Si12 Si57 2.444357 1_555
Si12 Si25 2.498807 1_555
Si13 Si49 2.377151 1_555
Si13 Si3 2.415593 1_555
Si13 Si61 2.444357 1_565
Si13 Si16 2.498807 1_555
Si14 Si50 2.377151 1_555
Si14 Si44 2.444357 1_545
Si14 Si17 2.498807 1_555
Si15 Si51 2.377151 1_554
Si15 Si64 2.444357 1_654
Si16 Si52 2.377151 1_455
Si16 Si46 2.444357 1_465
Si17 Si53 2.377151 1_555
Si17 Si4 2.415593 1_545
Si17 Si67 2.444357 1_545
Si18 Si54 2.377151 1_556
Si18 Si5 2.415593 1_555
Si18 Si47 2.444357 1_556
Si18 Si9 2.498807 1_555
Si19 Si55 2.377151 1_655
Si19 Si6 2.415593 1_555
Si19 Si66 2.444357 1_655
Si19 Si26 2.498807 1_555
Si20 Si56 2.377151 1_555
Si20 Si4 2.415593 1_555
Si20 Si48 2.444357 1_555
Si20 Si31 2.498807 1_555
Si21 Si57 2.377151 1_555
Si21 Si6 2.415593 1_455
Si21 Si65 2.444357 1_455
Si21 Si30 2.498807 1_555
Si22 Si58 2.377151 1_555
Si22 Si5 2.415593 1_555
Si22 Si45 2.444357 1_555
Si22 Si27 2.498807 1_555
Si23 Si59 2.377151 1_555
Si23 Si5 2.415593 1_554
Si23 Si63 2.444357 1_554
Si24 Si60 2.377151 1_555
Si24 Si6 2.415593 1_555
Si24 Si62 2.444357 1_555
Si24 Si29 2.498807 1_555
Si25 Si61 2.377151 1_565
Si25 Si4 2.415593 1_555
Si25 Si50 2.444357 1_565
Si26 Si62 2.377151 1_555
Si26 Si59 2.444357 1_555
Si27 Si63 2.377151 1_555
Si27 Si7 2.415593 1_555
Si27 Si60 2.444357 1_555
Si28 Si64 2.377151 1_555
Si28 Si54 2.444357 1_556
Si28 Si8 2.498807 1_555
Si29 Si65 2.377151 1_555
Si29 Si7 2.415593 1_555
Si29 Si56 2.444357 1_555
Si30 Si66 2.377151 1_555
Si30 Si52 2.444357 1_455
Si31 Si67 2.377151 1_555
Si31 Si7 2.415593 1_555
Si31 Si58 2.444357 1_555
Si32 Si85 2.370050 1_555
Si32 Si70 2.370050 1_555
Si32 Si46 2.480828 1_455
Si32 Si61 2.480828 1_555
Si33 Si68 2.370050 1_556
Si33 Si91 2.370050 1_555
Si33 Si67 2.480828 1_555
Si33 Si44 2.480828 1_555
Si34 Si90 2.370050 1_555
Si34 Si83 2.370050 1_554
Si34 Si59 2.480828 1_555
Si34 Si66 2.480828 1_655
Si35 Si79 2.370050 1_555
Si35 Si88 2.370050 1_555
Si35 Si64 2.480828 1_554
Si35 Si55 2.480828 1_555
Si36 Si89 2.370050 1_555
Si36 Si76 2.370050 1_565
Si36 Si65 2.480828 1_555
Si36 Si52 2.480828 1_555
Si37 Si81 2.370050 1_455
Si37 Si74 2.370050 1_555
Si37 Si57 2.480828 1_555
Si37 Si50 2.480828 1_565
Si38 Si78 2.370050 1_555
Si38 Si73 2.370050 1_555
Si38 Si49 2.480828 1_545
Si38 Si54 2.480828 1_555
Si39 Si82 2.370050 1_555
Si39 Si72 2.370050 1_555
Si39 Si48 2.480828 1_555
Si39 Si58 2.480828 1_555
Si40 Si87 2.370050 1_555
Si40 Si75 2.370050 1_655
Si40 Si63 2.480828 1_555
Si40 Si51 2.480828 1_555
Si41 Si80 2.370050 1_555
Si41 Si86 2.370050 1_555
Si41 Si56 2.480828 1_555
Si41 Si62 2.480828 1_555
Si42 Si71 2.370050 1_555
Si42 Si77 2.370050 1_545
Si42 Si53 2.480828 1_555
Si42 Si47 2.480828 1_556
Si43 Si84 2.370050 1_555
Si43 Si69 2.370050 1_555
Si43 Si60 2.480828 1_555
Si43 Si45 2.480828 1_555
Si44 Si8 2.377151 1_565
Si44 Si74 2.419067 1_555
Si45 Si9 2.377151 1_555
Si45 Si82 2.419067 1_555
Si46 Si76 2.419067 1_555
Si47 Si78 2.419067 1_555
Si48 Si80 2.419067 1_555
Si49 Si68 2.419067 1_555
Si49 Si8 2.444357 1_564
Si50 Si85 2.419067 1_555
Si51 Si71 2.419067 1_555
Si52 Si90 2.419067 1_555
Si53 Si69 2.419067 1_555
Si53 Si9 2.444357 1_555
Si54 Si88 2.419067 1_555
Si55 Si70 2.419067 1_555
Si56 Si89 2.419067 1_555
Si57 Si72 2.419067 1_555
Si58 Si91 2.419067 1_555
Si59 Si86 2.419067 1_555
Si60 Si87 2.419067 1_555
Si61 Si73 2.419067 1_555
Si62 Si84 2.419067 1_555
Si63 Si83 2.419067 1_555
Si64 Si75 2.419067 1_555
Si65 Si81 2.419067 1_555
Si66 Si79 2.419067 1_555
Si67 Si77 2.419067 1_555
Si68 Si93 2.453903 1_555
Si69 Si97 2.453903 1_555
Si70 Si92 2.453903 1_555
Si71 Si97 2.453903 1_555
Si72 Si96 2.453903 1_555
Si73 Si92 2.453903 1_555
Si74 Si96 2.453903 1_555
Si75 Si94 2.453903 1_555
Si76 Si95 2.453903 1_555
Si77 Si93 2.453903 1_556
Si78 Si93 2.453903 1_545
Si79 Si94 2.453903 1_554
Si80 Si99 2.453903 1_555
Si81 Si95 2.453903 1_565
Si82 Si99 2.453903 1_555
Si83 Si94 2.453903 1_655
Si84 Si99 2.453903 1_555
Si85 Si95 2.453903 1_455
Si86 Si98 2.453903 1_555
Si87 Si97 2.453903 1_555
Si88 Si92 2.453903 1_555
Si89 Si98 2.453903 1_555
Si90 Si98 2.453903 1_555
Si91 Si96 2.453903 1_555
Si92 Si99 2.434125 1_555
Si93 Si98 2.434125 1_555
Si94 Si96 2.434125 1_555
Si95 Si97 2.434125 1_555
