# generated using pymatgen
data_KMn2Cr2O10
_symmetry_space_group_name_H-M   'P 1'
_cell_length_a   5.70523919
_cell_length_b   5.70523919
_cell_length_c   8.27638464
_cell_angle_alpha   68.77374933
_cell_angle_beta   68.77374933
_cell_angle_gamma   65.54338008
_symmetry_Int_Tables_number   1
_chemical_formula_structural   KMn2Cr2O10
_chemical_formula_sum   'K1 Mn2 Cr2 O10'
_cell_volume   221.32576276
_cell_formula_units_Z   1
loop_
 _symmetry_equiv_pos_site_id
 _symmetry_equiv_pos_as_xyz
  1  'x, y, z'
loop_
 _atom_site_type_symbol
 _atom_site_label
 _atom_site_symmetry_multiplicity
 _atom_site_fract_x
 _atom_site_fract_y
 _atom_site_fract_z
 _atom_site_occupancy
  K  K0  1  0.50000000  0.50000000  0.50000000  1
  Mn  Mn0  1  0.00000000  0.50000000  0.00000000  1
  Mn  Mn1  1  0.50000000  0.00000000  0.00000000  1
  Cr  Cr0  1  0.07431800  0.07431800  0.73323000  1
  Cr  Cr1  1  0.92568200  0.92568200  0.26677000  1
  O  O0  1  0.18470800  0.18470800  0.84917900  1
  O  O1  1  0.81529200  0.81529200  0.15082100  1
  O  O2  1  0.18593000  0.18593000  0.52073600  1
  O  O3  1  0.81407000  0.81407000  0.47926400  1
  O  O4  1  0.73969200  0.18080300  0.78553200  1
  O  O5  1  0.18080300  0.73969200  0.78553200  1
  O  O6  1  0.26030800  0.81919700  0.21446800  1
  O  O7  1  0.81919700  0.26030800  0.21446800  1
  O  O8  1  0.68754800  0.68754800  0.92485200  1
  O  O9  1  0.31245200  0.31245200  0.07514800  1
loop_
_geom_bond_atom_site_label_1
_geom_bond_atom_site_label_2
_geom_bond_distance
_geom_bond_site_symmetry_2
K0 O6 2.816526 1_555
K0 O7 2.816526 1_555
K0 O4 2.816526 1_555
K0 O5 2.816526 1_555
K0 O2 2.943470 1_555
K0 O3 2.943470 1_555
K0 O1 3.158163 1_555
K0 O0 3.158163 1_555
Mn0 O8 1.857695 1_454
Mn0 O9 1.857695 1_555
Mn0 O5 2.041894 1_554
Mn0 O7 2.041894 1_455
Mn0 O0 2.237900 1_554
Mn0 O1 2.237900 1_455
Mn1 O8 1.857695 1_544
Mn1 O9 1.857695 1_555
Mn1 O4 2.041894 1_554
Mn1 O6 2.041894 1_545
Mn1 O0 2.237900 1_554
Mn1 O1 2.237900 1_545
Cr0 O2 1.617975 1_555
Cr0 O4 1.683115 1_455
Cr0 O5 1.683115 1_545
Cr0 O0 1.708187 1_555
Cr1 O3 1.617975 1_555
Cr1 O6 1.683115 1_655
Cr1 O7 1.683115 1_565
Cr1 O1 1.708187 1_555
