# generated using pymatgen
data_Cs2PrAgF6
_symmetry_space_group_name_H-M   'P 1'
_cell_length_a   6.79507272
_cell_length_b   6.79507272
_cell_length_c   6.79507272
_cell_angle_alpha   60.00000000
_cell_angle_beta   60.00000000
_cell_angle_gamma   60.00000000
_symmetry_Int_Tables_number   1
_chemical_formula_structural   Cs2PrAgF6
_chemical_formula_sum   'Cs2 Pr1 Ag1 F6'
_cell_volume   221.85403352
_cell_formula_units_Z   1
loop_
 _symmetry_equiv_pos_site_id
 _symmetry_equiv_pos_as_xyz
  1  'x, y, z'
loop_
 _atom_site_type_symbol
 _atom_site_label
 _atom_site_symmetry_multiplicity
 _atom_site_fract_x
 _atom_site_fract_y
 _atom_site_fract_z
 _atom_site_occupancy
  Cs  Cs0  1  0.75000000  0.75000000  0.75000000  1
  Cs  Cs1  1  0.25000000  0.25000000  0.25000000  1
  Pr  Pr0  1  0.50000000  0.50000000  0.50000000  1
  Ag  Ag0  1  0.00000000  0.00000000  0.00000000  1
  F  F0  1  0.73980800  0.26019200  0.26019200  1
  F  F1  1  0.26019200  0.26019200  0.73980800  1
  F  F2  1  0.26019200  0.73980800  0.73980800  1
  F  F3  1  0.26019200  0.73980800  0.26019200  1
  F  F4  1  0.73980800  0.26019200  0.73980800  1
  F  F5  1  0.73980800  0.73980800  0.26019200  1
loop_
_geom_bond_atom_site_label_1
_geom_bond_atom_site_label_2
_geom_bond_distance
_geom_bond_site_symmetry_2
Cs0 F4 3.398948 1_555
Cs0 F1 3.398948 1_655
Cs0 F0 3.398948 1_565
Cs0 F5 3.398948 1_555
Cs0 F2 3.398948 1_555
Cs0 F4 3.398948 1_565
Cs0 F5 3.398948 1_556
Cs0 F0 3.398948 1_556
Cs0 F3 3.398948 1_655
Cs0 F2 3.398948 1_655
Cs0 F3 3.398948 1_556
Cs0 F1 3.398948 1_565
Cs1 F1 3.398948 1_555
Cs1 F1 3.398948 1_554
Cs1 F2 3.398948 1_554
Cs1 F2 3.398948 1_545
Cs1 F5 3.398948 1_455
Cs1 F3 3.398948 1_555
Cs1 F5 3.398948 1_545
Cs1 F0 3.398948 1_455
Cs1 F4 3.398948 1_554
Cs1 F0 3.398948 1_555
Cs1 F4 3.398948 1_455
Cs1 F3 3.398948 1_545
Ag0 F1 2.500363 1_554
Ag0 F2 2.500363 1_544
Ag0 F0 2.500363 1_455
Ag0 F5 2.500363 1_445
Ag0 F3 2.500363 1_545
Ag0 F4 2.500363 1_454
F0 Pr0 2.304479 1_555
F1 Pr0 2.304479 1_555
F2 Pr0 2.304479 1_555
F3 Pr0 2.304479 1_555
F4 Pr0 2.304479 1_555
F5 Pr0 2.304479 1_555
