# generated using pymatgen
data_Yb2AlNi2
_symmetry_space_group_name_H-M   'P 1'
_cell_length_a   4.03500200
_cell_length_b   5.45503865
_cell_length_c   5.45503865
_cell_angle_alpha   59.02047877
_cell_angle_beta   68.29413124
_cell_angle_gamma   68.29413124
_symmetry_Int_Tables_number   1
_chemical_formula_structural   Yb2AlNi2
_chemical_formula_sum   'Yb2 Al1 Ni2'
_cell_volume   93.18483764
_cell_formula_units_Z   1
loop_
 _symmetry_equiv_pos_site_id
 _symmetry_equiv_pos_as_xyz
  1  'x, y, z'
loop_
 _atom_site_type_symbol
 _atom_site_label
 _atom_site_symmetry_multiplicity
 _atom_site_fract_x
 _atom_site_fract_y
 _atom_site_fract_z
 _atom_site_occupancy
  Yb  Yb0  1  0.20238800  0.29761200  0.29761200  1
  Yb  Yb1  1  0.79761200  0.70238800  0.70238800  1
  Al  Al0  1  0.00000000  0.00000000  0.00000000  1
  Ni  Ni0  1  0.50000000  0.25858000  0.74142000  1
  Ni  Ni1  1  0.50000000  0.74142000  0.25858000  1
loop_
_geom_bond_atom_site_label_1
_geom_bond_atom_site_label_2
_geom_bond_distance
_geom_bond_site_symmetry_2
Al0 Ni0 2.449771 1_554
Al0 Ni1 2.449771 1_545
Al0 Ni0 2.449771 1_454
Al0 Ni1 2.449771 1_445
Ni0 Ni1 2.594819 1_555
Ni0 Ni1 2.779257 1_546
Ni0 Yb1 2.910972 1_545
Ni0 Yb0 2.910972 1_556
Ni0 Yb0 2.962984 1_655
Ni0 Yb1 2.962984 1_455
Ni0 Yb0 2.962984 1_555
Ni0 Yb1 2.962984 1_555
Ni1 Yb0 2.910972 1_565
Ni1 Yb1 2.910972 1_554
Ni1 Yb0 2.962984 1_655
Ni1 Yb1 2.962984 1_455
Ni1 Yb0 2.962984 1_555
Ni1 Yb1 2.962984 1_555
