# generated using pymatgen
data_Y3Al6Si6B3H3O31
_symmetry_space_group_name_H-M   'P 1'
_cell_length_a   9.90985231
_cell_length_b   9.90985231
_cell_length_c   9.90985173
_cell_angle_alpha   114.08176826
_cell_angle_beta   114.08176826
_cell_angle_gamma   114.08177561
_symmetry_Int_Tables_number   1
_chemical_formula_structural   Y3Al6Si6B3H3O31
_chemical_formula_sum   'Y3 Al6 Si6 B3 H3 O31'
_cell_volume   587.66654692
_cell_formula_units_Z   1
loop_
 _symmetry_equiv_pos_site_id
 _symmetry_equiv_pos_as_xyz
  1  'x, y, z'
loop_
 _atom_site_type_symbol
 _atom_site_label
 _atom_site_symmetry_multiplicity
 _atom_site_fract_x
 _atom_site_fract_y
 _atom_site_fract_z
 _atom_site_occupancy
  Y  Y0  1  0.76085600  0.76085600  0.95784900  1
  Y  Y1  1  0.95784900  0.76085600  0.76085600  1
  Y  Y2  1  0.76085600  0.95784900  0.76085600  1
  Al  Al0  1  0.14756200  0.81105800  0.57511500  1
  Al  Al1  1  0.57511500  0.14756200  0.81105800  1
  Al  Al2  1  0.81105800  0.14756200  0.57511500  1
  Al  Al3  1  0.81105800  0.57511500  0.14756200  1
  Al  Al4  1  0.14756200  0.57511500  0.81105800  1
  Al  Al5  1  0.57511500  0.81105800  0.14756200  1
  Si  Si0  1  0.03234300  0.41315600  0.22143700  1
  Si  Si1  1  0.22143700  0.03234300  0.41315600  1
  Si  Si2  1  0.41315600  0.03234300  0.22143700  1
  Si  Si3  1  0.41315600  0.22143700  0.03234300  1
  Si  Si4  1  0.03234300  0.22143700  0.41315600  1
  Si  Si5  1  0.22143700  0.41315600  0.03234300  1
  B  B0  1  0.79519100  0.79519100  0.44543200  1
  B  B1  1  0.44543200  0.79519100  0.79519100  1
  B  B2  1  0.79519100  0.44543200  0.79519100  1
  H  H0  1  0.46534300  0.46534300  0.90033400  1
  H  H1  1  0.90033400  0.46534300  0.46534300  1
  H  H2  1  0.46534300  0.90033400  0.46534300  1
  O  O0  1  0.20508100  0.99473100  0.80467900  1
  O  O1  1  0.80467900  0.20508100  0.99473100  1
  O  O2  1  0.99473100  0.20508100  0.80467900  1
  O  O3  1  0.99473100  0.80467900  0.20508100  1
  O  O4  1  0.20508100  0.80467900  0.99473100  1
  O  O5  1  0.80467900  0.99473100  0.20508100  1
  O  O6  1  0.60028700  0.60028700  0.02790800  1
  O  O7  1  0.02790800  0.60028700  0.60028700  1
  O  O8  1  0.60028700  0.02790800  0.60028700  1
  O  O9  1  0.74943900  0.74943900  0.54130400  1
  O  O10  1  0.54130400  0.74943900  0.74943900  1
  O  O11  1  0.74943900  0.54130400  0.74943900  1
  O  O12  1  0.37305500  0.37305500  0.09301700  1
  O  O13  1  0.09301700  0.37305500  0.37305500  1
  O  O14  1  0.37305500  0.09301700  0.37305500  1
  O  O15  1  0.02417200  0.58972500  0.31231000  1
  O  O16  1  0.31231000  0.02417200  0.58972500  1
  O  O17  1  0.58972500  0.02417200  0.31231000  1
  O  O18  1  0.58972500  0.31231000  0.02417200  1
  O  O19  1  0.02417200  0.31231000  0.58972500  1
  O  O20  1  0.31231000  0.58972500  0.02417200  1
  O  O21  1  0.96734900  0.96734900  0.96734900  1
  O  O22  1  0.20208900  0.20208900  0.48482100  1
  O  O23  1  0.48482100  0.20208900  0.20208900  1
  O  O24  1  0.20208900  0.48482100  0.20208900  1
  O  O25  1  0.40031900  0.89294800  0.74290000  1
  O  O26  1  0.74290000  0.40031900  0.89294800  1
  O  O27  1  0.89294800  0.40031900  0.74290000  1
  O  O28  1  0.89294800  0.74290000  0.40031900  1
  O  O29  1  0.40031900  0.74290000  0.89294800  1
  O  O30  1  0.74290000  0.89294800  0.40031900  1
loop_
_geom_bond_atom_site_label_1
_geom_bond_atom_site_label_2
_geom_bond_distance
_geom_bond_site_symmetry_2
Al0 O0 1.878608 1_555
Al0 O25 1.881060 1_555
Al0 O15 1.907737 1_555
Al0 O16 1.972410 1_565
Al0 O28 1.977570 1_455
Al0 O7 2.115739 1_555
Al1 O1 1.878608 1_555
Al1 O26 1.881060 1_555
Al1 O16 1.907737 1_555
Al1 O18 1.972411 1_556
Al1 O25 1.977570 1_545
Al1 O8 2.115739 1_555
Al2 O2 1.878608 1_555
Al2 O27 1.881060 1_555
Al2 O17 1.907737 1_555
Al2 O19 1.972410 1_655
Al2 O30 1.977570 1_545
Al2 O8 2.115739 1_555
Al3 O3 1.878608 1_555
Al3 O28 1.881060 1_555
Al3 O18 1.907737 1_555
Al3 O15 1.972411 1_655
Al3 O26 1.977570 1_554
Al3 O6 2.115739 1_555
Al4 O4 1.878608 1_555
Al4 O29 1.881060 1_555
Al4 O19 1.907737 1_555
Al4 O20 1.972411 1_556
Al4 O27 1.977570 1_455
Al4 O7 2.115739 1_555
Al5 O5 1.878608 1_555
Al5 O30 1.881060 1_555
Al5 O20 1.907737 1_555
Al5 O17 1.972411 1_565
Al5 O29 1.977570 1_554
Al5 O6 2.115739 1_555
B0 O9 1.359814 1_555
B0 O30 1.407460 1_555
B0 O28 1.407460 1_555
B1 O10 1.359814 1_555
B1 O29 1.407460 1_555
B1 O25 1.407460 1_555
B2 O11 1.359814 1_555
B2 O26 1.407460 1_555
B2 O27 1.407460 1_555
H0 O6 0.977815 1_556
H1 O7 0.977815 1_655
H2 O8 0.977815 1_565
O0 Si3 1.635782 1_566
O0 Y1 2.288916 1_455
O1 Si0 1.635782 1_656
O1 Y2 2.288916 1_545
O2 Si5 1.635782 1_656
O2 Y2 2.288916 1_545
O3 Si1 1.635782 1_665
O3 Y0 2.288916 1_554
O4 Si2 1.635782 1_566
O4 Y1 2.288916 1_455
O5 Si4 1.635782 1_665
O5 Y0 2.288916 1_554
O6 Y0 2.298428 1_554
O7 Y1 2.298428 1_455
O8 Y2 2.298428 1_545
O9 Y1 2.225628 1_555
O9 Y2 2.225628 1_555
O10 Y2 2.225628 1_555
O10 Y0 2.225628 1_555
O11 Y1 2.225628 1_555
O11 Y0 2.225628 1_555
O12 Si3 1.649849 1_555
O12 Si5 1.649849 1_555
O13 Si4 1.649849 1_555
O13 Si0 1.649849 1_555
O14 Si1 1.649849 1_555
O14 Si2 1.649849 1_555
O15 Si0 1.663862 1_555
O16 Si1 1.663862 1_555
O17 Si2 1.663862 1_555
O18 Si3 1.663862 1_555
O19 Si4 1.663862 1_555
O20 Si5 1.663862 1_555
O21 Y0 2.156846 1_555
O21 Y1 2.156846 1_555
O21 Y2 2.156846 1_555
O22 Si1 1.664389 1_555
O22 Si4 1.664389 1_555
O23 Si2 1.664389 1_555
O23 Si3 1.664389 1_555
O24 Si0 1.664389 1_555
O24 Si5 1.664389 1_555
