# generated using pymatgen
data_Sr3CaTiMn3O12
_symmetry_space_group_name_H-M   'P 1'
_cell_length_a   7.74295600
_cell_length_b   7.74460300
_cell_length_c   7.79299000
_cell_angle_alpha   90.00000000
_cell_angle_beta   90.00000000
_cell_angle_gamma   90.00000000
_symmetry_Int_Tables_number   1
_chemical_formula_structural   Sr3CaTiMn3O12
_chemical_formula_sum   'Sr6 Ca2 Ti2 Mn6 O24'
_cell_volume   467.31537558
_cell_formula_units_Z   2
loop_
 _symmetry_equiv_pos_site_id
 _symmetry_equiv_pos_as_xyz
  1  'x, y, z'
loop_
 _atom_site_type_symbol
 _atom_site_label
 _atom_site_symmetry_multiplicity
 _atom_site_fract_x
 _atom_site_fract_y
 _atom_site_fract_z
 _atom_site_occupancy
  Sr  Sr0  1  0.24657200  0.24719000  0.75000000  1
  Sr  Sr1  1  0.24684300  0.75292700  0.75000000  1
  Sr  Sr2  1  0.75318400  0.75323600  0.75000000  1
  Sr  Sr3  1  0.24684300  0.24707300  0.25000000  1
  Sr  Sr4  1  0.24657200  0.75281000  0.25000000  1
  Sr  Sr5  1  0.75318400  0.24676400  0.25000000  1
  Ca  Ca0  1  0.75432800  0.24603300  0.75000000  1
  Ca  Ca1  1  0.75432800  0.75396700  0.25000000  1
  Ti  Ti0  1  0.50223400  0.50000000  0.00000000  1
  Ti  Ti1  1  0.50223400  0.50000000  0.50000000  1
  Mn  Mn0  1  0.99898700  0.00000000  0.00000000  1
  Mn  Mn1  1  0.99938000  0.50000000  0.00000000  1
  Mn  Mn2  1  0.50125000  0.00000000  0.00000000  1
  Mn  Mn3  1  0.99898700  0.00000000  0.50000000  1
  Mn  Mn4  1  0.99938000  0.50000000  0.50000000  1
  Mn  Mn5  1  0.50125000  0.00000000  0.50000000  1
  O  O0  1  0.99655500  0.00247800  0.75000000  1
  O  O1  1  0.99654300  0.49736700  0.75000000  1
  O  O2  1  0.50341200  0.00298500  0.75000000  1
  O  O3  1  0.50232500  0.49891800  0.75000000  1
  O  O4  1  0.99655500  0.99752200  0.25000000  1
  O  O5  1  0.99654300  0.50263300  0.25000000  1
  O  O6  1  0.50341200  0.99701500  0.25000000  1
  O  O7  1  0.50232500  0.50108200  0.25000000  1
  O  O8  1  0.24997000  0.00000000  0.00000000  1
  O  O9  1  0.24664200  0.50000000  0.00000000  1
  O  O10  1  0.74995900  0.00000000  0.00000000  1
  O  O11  1  0.75337100  0.50000000  0.00000000  1
  O  O12  1  0.24997000  0.00000000  0.50000000  1
  O  O13  1  0.24664200  0.50000000  0.50000000  1
  O  O14  1  0.74995900  0.00000000  0.50000000  1
  O  O15  1  0.75337100  0.50000000  0.50000000  1
  O  O16  1  0.99667300  0.24990600  0.99715100  1
  O  O17  1  0.99667300  0.75009400  0.00284900  1
  O  O18  1  0.50255000  0.24660400  0.99850000  1
  O  O19  1  0.50255000  0.75339600  0.00150000  1
  O  O20  1  0.99667300  0.24990600  0.50284900  1
  O  O21  1  0.99667300  0.75009400  0.49715100  1
  O  O22  1  0.50255000  0.24660400  0.50150000  1
  O  O23  1  0.50255000  0.75339600  0.49850000  1
loop_
_geom_bond_atom_site_label_1
_geom_bond_atom_site_label_2
_geom_bond_distance
_geom_bond_site_symmetry_2
Ca0 O0 2.659998 1_555
Ca0 O20 2.689178 1_555
Ca0 O16 2.689178 1_555
Ca0 O1 2.702988 1_555
Ca0 O2 2.705122 1_555
Ca0 O14 2.725338 1_555
Ca0 O10 2.725338 1_556
Ca0 O18 2.747881 1_555
Ca0 O22 2.747881 1_555
Ca0 O3 2.764610 1_555
Ca0 O15 2.768450 1_555
Ca0 O11 2.768450 1_556
Ca1 O4 2.659998 1_555
Ca1 O17 2.689178 1_555
Ca1 O21 2.689178 1_555
Ca1 O5 2.702988 1_555
Ca1 O6 2.705122 1_555
Ca1 O14 2.725338 1_565
Ca1 O10 2.725338 1_565
Ca1 O19 2.747881 1_555
Ca1 O23 2.747881 1_555
Ca1 O7 2.764610 1_555
Ca1 O11 2.768450 1_555
Ca1 O15 2.768450 1_555
Mn0 O10 1.928213 1_555
Mn0 O17 1.935633 1_545
Mn0 O16 1.935633 1_554
Mn0 O8 1.943350 1_655
Mn0 O4 1.948433 1_545
Mn0 O0 1.948433 1_554
Mn1 O11 1.904837 1_555
Mn1 O9 1.914539 1_655
Mn1 O16 1.937119 1_554
Mn1 O17 1.937119 1_555
Mn1 O1 1.948478 1_554
Mn1 O5 1.948478 1_555
Mn2 O18 1.909912 1_554
Mn2 O19 1.909912 1_545
Mn2 O10 1.925743 1_555
Mn2 O8 1.945650 1_555
Mn2 O6 1.948457 1_545
Mn2 O2 1.948457 1_554
Mn3 O14 1.928213 1_555
Mn3 O21 1.935633 1_545
Mn3 O20 1.935633 1_555
Mn3 O12 1.943350 1_655
Mn3 O4 1.948433 1_545
Mn3 O0 1.948433 1_555
Mn4 O15 1.904837 1_555
Mn4 O13 1.914539 1_655
Mn4 O20 1.937119 1_555
Mn4 O21 1.937119 1_555
Mn4 O1 1.948478 1_555
Mn4 O5 1.948478 1_555
Mn5 O22 1.909912 1_555
Mn5 O23 1.909912 1_545
Mn5 O14 1.925743 1_555
Mn5 O12 1.945650 1_555
Mn5 O2 1.948457 1_555
Mn5 O6 1.948457 1_545
O0 Sr2 2.697589 1_545
O0 Sr0 2.709127 1_655
O0 Sr1 2.736960 1_645
O1 Sr2 2.734485 1_555
O1 Sr0 2.738968 1_655
O1 Sr1 2.770083 1_655
O2 Sr2 2.735217 1_545
O2 Sr0 2.744419 1_555
O2 Sr1 2.774348 1_545
O3 Ti0 1.948266 1_556
O3 Ti1 1.948266 1_555
O3 Sr2 2.766256 1_555
O3 Sr0 2.778886 1_555
O3 Sr1 2.789819 1_555
O4 Sr5 2.697589 1_565
O4 Sr4 2.709127 1_655
O4 Sr3 2.736960 1_665
O5 Sr5 2.734485 1_555
O5 Sr4 2.738968 1_655
O5 Sr3 2.770083 1_655
O6 Sr5 2.735217 1_565
O6 Sr4 2.744419 1_555
O6 Sr3 2.774348 1_565
O7 Ti1 1.948266 1_555
O7 Ti0 1.948266 1_555
O7 Sr5 2.766256 1_555
O7 Sr4 2.778886 1_555
O7 Sr3 2.789819 1_555
O8 Sr1 2.730873 1_544
O8 Sr3 2.730873 1_555
O8 Sr4 2.731528 1_545
O8 Sr0 2.731528 1_554
O9 Ti0 1.979038 1_555
O9 Sr4 2.762081 1_555
O9 Sr0 2.762081 1_554
O9 Sr3 2.762724 1_555
O9 Sr1 2.762724 1_554
O10 Sr5 2.729204 1_555
O10 Sr2 2.729204 1_544
O11 Ti0 1.944543 1_555
O11 Sr5 2.764421 1_555
O11 Sr2 2.764421 1_554
O12 Sr3 2.730873 1_555
O12 Sr1 2.730873 1_545
O12 Sr4 2.731528 1_545
O12 Sr0 2.731528 1_555
O13 Ti1 1.979038 1_555
O13 Sr4 2.762081 1_555
O13 Sr0 2.762081 1_555
O13 Sr3 2.762724 1_555
O13 Sr1 2.762724 1_555
O14 Sr5 2.729204 1_555
O14 Sr2 2.729204 1_545
O15 Ti1 1.944543 1_555
O15 Sr5 2.764421 1_555
O15 Sr2 2.764421 1_555
O16 Sr5 2.727217 1_556
O16 Sr0 2.730229 1_655
O16 Sr3 2.763211 1_656
O17 Sr2 2.727217 1_554
O17 Sr4 2.730229 1_655
O17 Sr1 2.763211 1_654
O18 Ti0 1.962488 1_556
O18 Sr5 2.758164 1_556
O18 Sr0 2.771048 1_555
O18 Sr3 2.785944 1_556
O19 Ti0 1.962488 1_555
O19 Sr2 2.758164 1_554
O19 Sr4 2.771048 1_555
O19 Sr1 2.785944 1_554
O20 Sr5 2.727217 1_555
O20 Sr0 2.730229 1_655
O20 Sr3 2.763211 1_655
O21 Sr2 2.727217 1_555
O21 Sr4 2.730229 1_655
O21 Sr1 2.763211 1_655
O22 Ti1 1.962488 1_555
O22 Sr5 2.758164 1_555
O22 Sr0 2.771048 1_555
O22 Sr3 2.785944 1_555
O23 Ti1 1.962488 1_555
O23 Sr2 2.758164 1_555
O23 Sr4 2.771048 1_555
O23 Sr1 2.785944 1_555
