# generated using pymatgen
data_AlCu4
_symmetry_space_group_name_H-M   'P 1'
_cell_length_a   6.24356527
_cell_length_b   6.24356527
_cell_length_c   6.24356527
_cell_angle_alpha   90.00000000
_cell_angle_beta   90.00000000
_cell_angle_gamma   90.00000000
_symmetry_Int_Tables_number   1
_chemical_formula_structural   AlCu4
_chemical_formula_sum   'Al4 Cu16'
_cell_volume   243.38733117
_cell_formula_units_Z   4
loop_
 _symmetry_equiv_pos_site_id
 _symmetry_equiv_pos_as_xyz
  1  'x, y, z'
loop_
 _atom_site_type_symbol
 _atom_site_label
 _atom_site_symmetry_multiplicity
 _atom_site_fract_x
 _atom_site_fract_y
 _atom_site_fract_z
 _atom_site_occupancy
  Al  Al0  1  0.44089041  0.94089041  0.55910959  1
  Al  Al1  1  0.94089041  0.55910959  0.44089041  1
  Al  Al2  1  0.55910959  0.44089041  0.94089041  1
  Al  Al3  1  0.05910959  0.05910959  0.05910959  1
  Cu  Cu0  1  0.80907878  0.30907878  0.19092122  1
  Cu  Cu1  1  0.30907878  0.19092122  0.80907878  1
  Cu  Cu2  1  0.19092122  0.80907878  0.30907878  1
  Cu  Cu3  1  0.69092122  0.69092122  0.69092122  1
  Cu  Cu4  1  0.04875566  0.87489095  0.69996473  1
  Cu  Cu5  1  0.30003527  0.54875566  0.62510905  1
  Cu  Cu6  1  0.37489095  0.80003527  0.95124434  1
  Cu  Cu7  1  0.54875566  0.62510905  0.30003527  1
  Cu  Cu8  1  0.80003527  0.95124434  0.37489095  1
  Cu  Cu9  1  0.87489095  0.69996473  0.04875566  1
  Cu  Cu10  1  0.95124434  0.37489095  0.80003527  1
  Cu  Cu11  1  0.69996473  0.04875566  0.87489095  1
  Cu  Cu12  1  0.62510905  0.30003527  0.54875566  1
  Cu  Cu13  1  0.45124434  0.12510905  0.19996473  1
  Cu  Cu14  1  0.19996473  0.45124434  0.12510905  1
  Cu  Cu15  1  0.12510905  0.19996473  0.45124434  1
loop_
_geom_bond_atom_site_label_1
_geom_bond_atom_site_label_2
_geom_bond_distance
_geom_bond_site_symmetry_2
Al0 Cu1 2.355855 1_565
Al0 Cu3 2.355855 1_555
Al0 Cu2 2.355855 1_555
Al0 Cu12 2.520953 1_565
Al0 Cu13 2.520953 1_565
Al0 Cu8 2.520953 1_555
Al0 Cu4 2.633910 1_555
Al0 Cu6 2.633910 1_555
Al0 Cu5 2.633910 1_555
Al0 Cu11 2.637655 1_565
Al0 Cu15 2.637655 1_565
Al0 Cu7 2.637655 1_555
Al1 Cu2 2.355855 1_655
Al1 Cu3 2.355855 1_555
Al1 Cu0 2.355855 1_555
Al1 Cu5 2.520953 1_655
Al1 Cu15 2.520953 1_655
Al1 Cu10 2.520953 1_555
Al1 Cu9 2.633910 1_555
Al1 Cu7 2.633910 1_555
Al1 Cu8 2.633910 1_555
Al1 Cu14 2.637655 1_655
Al1 Cu12 2.637655 1_555
Al1 Cu4 2.637655 1_655
Al2 Cu0 2.355855 1_556
Al2 Cu3 2.355855 1_555
Al2 Cu1 2.355855 1_555
Al2 Cu7 2.520953 1_556
Al2 Cu6 2.520953 1_555
Al2 Cu14 2.520953 1_556
Al2 Cu11 2.633910 1_555
Al2 Cu10 2.633910 1_555
Al2 Cu12 2.633910 1_555
Al2 Cu5 2.637655 1_555
Al2 Cu9 2.637655 1_556
Al2 Cu13 2.637655 1_556
Al3 Cu0 2.355855 1_455
Al3 Cu2 2.355855 1_545
Al3 Cu1 2.355855 1_554
Al3 Cu9 2.520953 1_445
Al3 Cu11 2.520953 1_454
Al3 Cu4 2.520953 1_544
Al3 Cu15 2.633910 1_555
Al3 Cu14 2.633910 1_555
Al3 Cu13 2.633910 1_555
Al3 Cu8 2.637655 1_445
Al3 Cu6 2.637655 1_544
Al3 Cu10 2.637655 1_454
Cu0 Cu12 2.512770 1_555
Cu0 Cu13 2.512770 1_555
Cu0 Cu8 2.512770 1_545
Cu0 Cu9 2.629231 1_555
Cu0 Cu14 2.629231 1_655
Cu0 Cu10 2.629231 1_554
Cu0 Cu11 2.645601 1_554
Cu0 Cu7 2.645601 1_555
Cu0 Cu15 2.645601 1_655
Cu1 Cu5 2.512770 1_555
Cu1 Cu15 2.512770 1_555
Cu1 Cu10 2.512770 1_455
Cu1 Cu13 2.629231 1_556
Cu1 Cu6 2.629231 1_545
Cu1 Cu11 2.629231 1_555
Cu1 Cu4 2.645601 1_545
Cu1 Cu14 2.645601 1_556
Cu1 Cu12 2.645601 1_555
Cu2 Cu7 2.512770 1_555
Cu2 Cu6 2.512770 1_554
Cu2 Cu4 2.629231 1_555
Cu2 Cu8 2.629231 1_455
Cu2 Cu9 2.645601 1_455
Cu2 Cu5 2.645601 1_555
Cu3 Cu9 2.512770 1_556
Cu3 Cu4 2.512770 1_655
Cu3 Cu7 2.629231 1_555
Cu3 Cu5 2.629231 1_555
Cu3 Cu8 2.645601 1_555
Cu3 Cu6 2.645601 1_555
Cu4 Cu8 2.599638 1_455
Cu4 Cu6 2.612684 1_555
Cu4 Cu5 2.612684 1_555
Cu4 Cu9 2.667130 1_456
Cu5 Cu7 2.599638 1_555
Cu5 Cu6 2.612684 1_555
Cu6 Cu7 2.667130 1_556
Cu7 Cu8 2.612684 1_555
Cu7 Cu9 2.612684 1_555
Cu8 Cu9 2.612684 1_555
Cu10 Cu9 2.599638 1_556
Cu10 Cu14 2.599638 1_656
Cu10 Cu12 2.612684 1_555
Cu10 Cu11 2.612684 1_555
Cu10 Cu3 2.645601 1_555
Cu10 Cu5 2.667130 1_655
Cu10 Cu15 2.667130 1_655
Cu11 Cu3 2.512770 1_545
Cu11 Cu13 2.599638 1_556
Cu11 Cu6 2.599638 1_545
Cu11 Cu12 2.612684 1_555
Cu11 Cu9 2.667130 1_546
Cu11 Cu4 2.667130 1_645
Cu12 Cu5 2.599638 1_555
Cu12 Cu7 2.599638 1_555
Cu12 Cu3 2.629231 1_555
Cu12 Cu8 2.667130 1_545
Cu12 Cu13 2.667130 1_555
Cu13 Cu6 2.599638 1_544
Cu13 Cu14 2.612684 1_555
Cu13 Cu15 2.612684 1_555
Cu13 Cu2 2.645601 1_545
Cu13 Cu8 2.667130 1_545
Cu14 Cu2 2.512770 1_555
Cu14 Cu9 2.599638 1_455
Cu14 Cu15 2.612684 1_555
Cu14 Cu6 2.667130 1_554
Cu14 Cu7 2.667130 1_555
Cu15 Cu4 2.599638 1_545
Cu15 Cu8 2.599638 1_445
Cu15 Cu2 2.629231 1_545
Cu15 Cu5 2.667130 1_555
