# generated using pymatgen
data_GaNi2Ge3
_symmetry_space_group_name_H-M   'P 1'
_cell_length_a   6.15036852
_cell_length_b   6.15036852
_cell_length_c   5.73982600
_cell_angle_alpha   90.00000000
_cell_angle_beta   90.00000000
_cell_angle_gamma   124.32246940
_symmetry_Int_Tables_number   1
_chemical_formula_structural   GaNi2Ge3
_chemical_formula_sum   'Ga2 Ni4 Ge6'
_cell_volume   179.31495054
_cell_formula_units_Z   2
loop_
 _symmetry_equiv_pos_site_id
 _symmetry_equiv_pos_as_xyz
  1  'x, y, z'
loop_
 _atom_site_type_symbol
 _atom_site_label
 _atom_site_symmetry_multiplicity
 _atom_site_fract_x
 _atom_site_fract_y
 _atom_site_fract_z
 _atom_site_occupancy
  Ga  Ga0  1  0.75027800  0.75027800  0.00000000  1
  Ga  Ga1  1  0.24972200  0.24972200  0.50000000  1
  Ni  Ni0  1  0.36570200  0.63429800  0.25000000  1
  Ni  Ni1  1  0.86585100  0.13414900  0.75000000  1
  Ni  Ni2  1  0.13414900  0.86585100  0.25000000  1
  Ni  Ni3  1  0.63429800  0.36570200  0.75000000  1
  Ge  Ge0  1  0.24981200  0.24981200  0.00000000  1
  Ge  Ge1  1  0.75018800  0.75018800  0.50000000  1
  Ge  Ge2  1  0.40704900  0.90611900  0.90679200  1
  Ge  Ge3  1  0.09388100  0.59295100  0.59320800  1
  Ge  Ge4  1  0.90611900  0.40704900  0.09320800  1
  Ge  Ge5  1  0.59295100  0.09388100  0.40679200  1
loop_
_geom_bond_atom_site_label_1
_geom_bond_atom_site_label_2
_geom_bond_distance
_geom_bond_site_symmetry_2
Ga0 Ni1 2.499186 1_564
Ga0 Ni2 2.499186 1_655
Ga0 Ni0 2.501966 1_555
Ga0 Ni3 2.501966 1_554
Ga0 Ge4 2.818311 1_555
Ga0 Ge2 2.818311 1_554
Ga0 Ge0 2.869453 1_665
Ga0 Ge1 2.869913 1_555
Ga0 Ge1 2.869913 1_554
Ga0 Ge0 2.874807 1_555
Ga1 Ni1 2.499186 1_455
Ga1 Ni2 2.499186 1_545
Ga1 Ni3 2.501966 1_555
Ga1 Ni0 2.501966 1_555
Ga1 Ge3 2.818311 1_555
Ga1 Ge5 2.818311 1_555
Ga1 Ge1 2.869453 1_445
Ga1 Ge0 2.869913 1_555
Ga1 Ge0 2.869913 1_556
Ga1 Ge1 2.874807 1_555
Ni0 Ni2 2.518628 1_555
Ni1 Ni3 2.518628 1_555
Ge0 Ni1 2.499482 1_454
Ge0 Ni2 2.499482 1_545
Ge0 Ni3 2.501669 1_554
Ge0 Ni0 2.501669 1_555
Ge0 Ge4 2.827546 1_455
Ge0 Ge2 2.827546 1_544
Ge1 Ni2 2.499482 1_655
Ge1 Ni1 2.499482 1_565
Ge1 Ni3 2.501669 1_555
Ge1 Ni0 2.501669 1_555
Ge1 Ge3 2.827546 1_655
Ge1 Ge5 2.827546 1_565
Ge2 Ni0 2.502174 1_556
Ge2 Ni1 2.505304 1_565
Ge2 Ni2 2.508074 1_556
Ge2 Ni3 2.509570 1_565
Ge2 Ge3 2.544761 1_555
Ge3 Ni0 2.502174 1_555
Ge3 Ni1 2.505304 1_455
Ge3 Ni2 2.508074 1_555
Ge3 Ni3 2.509570 1_455
Ge4 Ni3 2.502174 1_554
Ge4 Ni2 2.505304 1_655
Ge4 Ni1 2.508074 1_554
Ge4 Ni0 2.509570 1_655
Ge4 Ge5 2.544761 1_555
Ge5 Ni3 2.502174 1_555
Ge5 Ni2 2.505304 1_545
Ge5 Ni1 2.508074 1_555
Ge5 Ni0 2.509570 1_545
