# generated using pymatgen
data_CrPt(NCl)5
_symmetry_space_group_name_H-M   'P 1'
_cell_length_a   7.88209300
_cell_length_b   11.31047200
_cell_length_c   14.34927000
_cell_angle_alpha   90.00000000
_cell_angle_beta   90.00000000
_cell_angle_gamma   90.00000000
_symmetry_Int_Tables_number   1
_chemical_formula_structural   CrPt(NCl)5
_chemical_formula_sum   'Cr4 Pt4 N20 Cl20'
_cell_volume   1279.24017811
_cell_formula_units_Z   4
loop_
 _symmetry_equiv_pos_site_id
 _symmetry_equiv_pos_as_xyz
  1  'x, y, z'
loop_
 _atom_site_type_symbol
 _atom_site_label
 _atom_site_symmetry_multiplicity
 _atom_site_fract_x
 _atom_site_fract_y
 _atom_site_fract_z
 _atom_site_occupancy
  Cr  Cr0  1  0.25000000  0.91708300  0.90743900  1
  Cr  Cr1  1  0.25000000  0.58291700  0.40743900  1
  Cr  Cr2  1  0.75000000  0.08291700  0.09256100  1
  Cr  Cr3  1  0.75000000  0.41708300  0.59256100  1
  Pt  Pt0  1  0.25000000  0.33706000  0.84640900  1
  Pt  Pt1  1  0.25000000  0.16294000  0.34640900  1
  Pt  Pt2  1  0.75000000  0.66294000  0.15359100  1
  Pt  Pt3  1  0.75000000  0.83706000  0.65359100  1
  N  N0  1  0.09878200  0.95097400  0.83717100  1
  N  N1  1  0.40121800  0.54902600  0.33717100  1
  N  N2  1  0.59878200  0.04902600  0.16282900  1
  N  N3  1  0.90121800  0.45097400  0.66282900  1
  N  N4  1  0.90121800  0.04902600  0.16282900  1
  N  N5  1  0.59878200  0.45097400  0.66282900  1
  N  N6  1  0.40121800  0.95097400  0.83717100  1
  N  N7  1  0.09878200  0.54902600  0.33717100  1
  N  N8  1  0.14531000  0.72864000  0.89654900  1
  N  N9  1  0.35469000  0.77136000  0.39654900  1
  N  N10  1  0.64531000  0.27136000  0.10345100  1
  N  N11  1  0.85469000  0.22864000  0.60345100  1
  N  N12  1  0.85469000  0.27136000  0.10345100  1
  N  N13  1  0.64531000  0.22864000  0.60345100  1
  N  N14  1  0.35469000  0.72864000  0.89654900  1
  N  N15  1  0.14531000  0.77136000  0.39654900  1
  N  N16  1  0.25000000  0.65216200  0.86044500  1
  N  N17  1  0.25000000  0.84783800  0.36044500  1
  N  N18  1  0.75000000  0.34783800  0.13955500  1
  N  N19  1  0.75000000  0.15216200  0.63955500  1
  Cl  Cl0  1  0.25000000  0.42519900  0.98743400  1
  Cl  Cl1  1  0.25000000  0.07480100  0.48743400  1
  Cl  Cl2  1  0.75000000  0.57480100  0.01256600  1
  Cl  Cl3  1  0.75000000  0.92519900  0.51256600  1
  Cl  Cl4  1  0.96270700  0.34150800  0.84465100  1
  Cl  Cl5  1  0.53729300  0.15849200  0.34465100  1
  Cl  Cl6  1  0.46270700  0.65849200  0.15534900  1
  Cl  Cl7  1  0.03729300  0.84150800  0.65534900  1
  Cl  Cl8  1  0.03729300  0.65849200  0.15534900  1
  Cl  Cl9  1  0.46270700  0.84150800  0.65534900  1
  Cl  Cl10  1  0.53729300  0.34150800  0.84465100  1
  Cl  Cl11  1  0.96270700  0.15849200  0.34465100  1
  Cl  Cl12  1  0.25000000  0.23078200  0.71340400  1
  Cl  Cl13  1  0.25000000  0.26921800  0.21340400  1
  Cl  Cl14  1  0.75000000  0.76921800  0.28659600  1
  Cl  Cl15  1  0.75000000  0.73078200  0.78659600  1
  Cl  Cl16  1  0.25000000  0.03857700  0.02366300  1
  Cl  Cl17  1  0.25000000  0.46142300  0.52366300  1
  Cl  Cl18  1  0.75000000  0.96142300  0.97633700  1
  Cl  Cl19  1  0.75000000  0.53857700  0.47633700  1
loop_
_geom_bond_atom_site_label_1
_geom_bond_atom_site_label_2
_geom_bond_distance
_geom_bond_site_symmetry_2
Cr0 N0 1.607562 1_555
Cr0 N6 1.607562 1_555
Cr0 N14 2.290876 1_555
Cr0 N8 2.290876 1_555
Cr1 N7 1.607562 1_555
Cr1 N1 1.607562 1_555
Cr1 N9 2.290876 1_555
Cr1 N15 2.290876 1_555
Cr2 N2 1.607562 1_555
Cr2 N4 1.607562 1_555
Cr2 N12 2.290876 1_555
Cr2 N10 2.290876 1_555
Cr3 N3 1.607562 1_555
Cr3 N5 1.607562 1_555
Cr3 N13 2.290876 1_555
Cr3 N11 2.290876 1_555
N10 N18 1.302896 1_555
N10 N12 1.650353 1_555
N11 N19 1.302896 1_555
N11 N13 1.650353 1_555
N12 N18 1.302896 1_555
N13 N19 1.302896 1_555
N14 N16 1.302896 1_555
N14 N8 1.650353 1_555
N15 N17 1.302896 1_555
N15 N9 1.650353 1_555
N16 N8 1.302896 1_555
N17 N9 1.302896 1_555
Cl0 Pt0 2.255832 1_555
Cl1 Pt1 2.255832 1_555
Cl2 Pt2 2.255832 1_555
Cl3 Pt3 2.255832 1_555
Cl4 Pt0 2.265169 1_655
Cl5 Pt1 2.265169 1_555
Cl6 Pt2 2.265169 1_555
Cl7 Pt3 2.265169 1_455
Cl8 Pt2 2.265169 1_455
Cl9 Pt3 2.265169 1_555
Cl10 Pt0 2.265169 1_555
Cl11 Pt1 2.265169 1_655
Cl12 Pt0 2.255527 1_555
Cl13 Pt1 2.255527 1_555
Cl14 Pt2 2.255527 1_555
Cl15 Pt3 2.255527 1_555
Cl16 Cr0 2.160931 1_544
Cl17 Cr1 2.160931 1_555
Cl18 Cr2 2.160931 1_566
Cl19 Cr3 2.160931 1_555
