# generated using pymatgen
data_HfCoP
_symmetry_space_group_name_H-M   'P 1'
_cell_length_a   3.64950659
_cell_length_b   6.23253766
_cell_length_c   7.03562274
_cell_angle_alpha   90.00000000
_cell_angle_beta   90.00000000
_cell_angle_gamma   90.00000000
_symmetry_Int_Tables_number   1
_chemical_formula_structural   HfCoP
_chemical_formula_sum   'Hf4 Co4 P4'
_cell_volume   160.03007454
_cell_formula_units_Z   4
loop_
 _symmetry_equiv_pos_site_id
 _symmetry_equiv_pos_as_xyz
  1  'x, y, z'
loop_
 _atom_site_type_symbol
 _atom_site_label
 _atom_site_symmetry_multiplicity
 _atom_site_fract_x
 _atom_site_fract_y
 _atom_site_fract_z
 _atom_site_occupancy
  Hf  Hf0  1  0.75000000  0.48017655  0.68347013  1
  Hf  Hf1  1  0.75000000  0.98017655  0.81652987  1
  Hf  Hf2  1  0.25000000  0.51982345  0.31652987  1
  Hf  Hf3  1  0.25000000  0.01982345  0.18347013  1
  Co  Co0  1  0.75000000  0.36128843  0.06209832  1
  Co  Co1  1  0.75000000  0.86128843  0.43790168  1
  Co  Co2  1  0.25000000  0.63871157  0.93790168  1
  Co  Co3  1  0.25000000  0.13871157  0.56209832  1
  P  P0  1  0.75000000  0.72716752  0.11469231  1
  P  P1  1  0.75000000  0.22716752  0.38530769  1
  P  P2  1  0.25000000  0.27283248  0.88530769  1
  P  P3  1  0.25000000  0.77283248  0.61469231  1
loop_
_geom_bond_atom_site_label_1
_geom_bond_atom_site_label_2
_geom_bond_distance
_geom_bond_site_symmetry_2
Hf0 P1 2.624341 1_555
Hf0 P3 2.625036 1_555
Hf0 P3 2.625036 1_655
Hf0 P2 2.648823 1_655
Hf0 P2 2.648823 1_555
Hf1 P0 2.624341 1_556
Hf1 P2 2.625036 1_565
Hf1 P2 2.625036 1_665
Hf1 P3 2.648823 1_555
Hf1 P3 2.648823 1_655
Hf2 P3 2.624341 1_555
Hf2 P1 2.625036 1_555
Hf2 P1 2.625036 1_455
Hf2 P0 2.648823 1_555
Hf2 P0 2.648823 1_455
Hf3 P2 2.624341 1_554
Hf3 P0 2.625036 1_445
Hf3 P0 2.625036 1_545
Hf3 P1 2.648823 1_555
Hf3 P1 2.648823 1_455
Co0 P2 2.276133 1_654
Co0 P2 2.276133 1_554
Co0 P0 2.310182 1_555
Co0 P1 2.422753 1_555
Co0 Co2 2.661366 1_654
Co0 Co2 2.661366 1_554
Co0 Hf2 2.740515 1_555
Co0 Hf2 2.740515 1_655
Co0 Hf0 2.765019 1_554
Co0 Hf3 2.930550 1_555
Co0 Hf3 2.930550 1_655
Co0 Hf1 2.937186 1_544
Co1 P3 2.276133 1_555
Co1 P3 2.276133 1_655
Co1 P1 2.310182 1_565
Co1 P0 2.422753 1_555
Co1 Co3 2.661366 1_565
Co1 Co3 2.661366 1_665
Co1 Hf3 2.740515 1_665
Co1 Hf3 2.740515 1_565
Co1 Hf1 2.765019 1_555
Co1 Hf2 2.930550 1_655
Co1 Hf2 2.930550 1_555
Co1 Hf0 2.937186 1_555
Co2 P0 2.276133 1_456
Co2 P0 2.276133 1_556
Co2 P2 2.310182 1_555
Co2 P3 2.422753 1_555
Co2 Hf0 2.740515 1_455
Co2 Hf0 2.740515 1_555
Co2 Hf2 2.765019 1_556
Co2 Hf1 2.930550 1_455
Co2 Hf1 2.930550 1_555
Co2 Hf3 2.937186 1_566
Co3 P1 2.276133 1_555
Co3 P1 2.276133 1_455
Co3 P3 2.310182 1_545
Co3 P2 2.422753 1_555
Co3 Hf1 2.740515 1_445
Co3 Hf1 2.740515 1_545
Co3 Hf3 2.765019 1_555
Co3 Hf0 2.930550 1_455
Co3 Hf0 2.930550 1_555
Co3 Hf2 2.937186 1_555
