# generated using pymatgen
data_Y4Mg25
_symmetry_space_group_name_H-M   'P 1'
_cell_length_a   9.73397532
_cell_length_b   9.73397532
_cell_length_c   9.73397584
_cell_angle_alpha   109.50849286
_cell_angle_beta   109.50849286
_cell_angle_gamma   109.50849105
_symmetry_Int_Tables_number   1
_chemical_formula_structural   Y4Mg25
_chemical_formula_sum   'Y4 Mg25'
_cell_volume   709.00304687
_cell_formula_units_Z   1
loop_
 _symmetry_equiv_pos_site_id
 _symmetry_equiv_pos_as_xyz
  1  'x, y, z'
loop_
 _atom_site_type_symbol
 _atom_site_label
 _atom_site_symmetry_multiplicity
 _atom_site_fract_x
 _atom_site_fract_y
 _atom_site_fract_z
 _atom_site_occupancy
  Y  Y0  1  0.99886700  0.99886700  0.99886700  1
  Y  Y1  1  0.99935100  0.99935100  0.37264300  1
  Y  Y2  1  0.37264300  0.99935100  0.99935100  1
  Y  Y3  1  0.99935100  0.37264300  0.99935100  1
  Mg  Mg0  1  0.67674000  0.67674000  0.28385400  1
  Mg  Mg1  1  0.67674000  0.28385400  0.67674000  1
  Mg  Mg2  1  0.28385400  0.67674000  0.67674000  1
  Mg  Mg3  1  0.39242000  0.39242000  0.71197000  1
  Mg  Mg4  1  0.60865300  0.00075100  0.32425900  1
  Mg  Mg5  1  0.00075100  0.60865300  0.32425900  1
  Mg  Mg6  1  0.32425900  0.60865300  0.00075100  1
  Mg  Mg7  1  0.32425900  0.00075100  0.60865300  1
  Mg  Mg8  1  0.71197000  0.39242000  0.39242000  1
  Mg  Mg9  1  0.60865300  0.32425900  0.00075100  1
  Mg  Mg10  1  0.39242000  0.71197000  0.39242000  1
  Mg  Mg11  1  0.00075100  0.32425900  0.60865300  1
  Mg  Mg12  1  0.19033100  0.19033100  0.81964900  1
  Mg  Mg13  1  0.19033100  0.81964900  0.19033100  1
  Mg  Mg14  1  0.81964900  0.19033100  0.19033100  1
  Mg  Mg15  1  0.37044800  0.37044800  0.17938400  1
  Mg  Mg16  1  0.62926600  0.99949500  0.80971000  1
  Mg  Mg17  1  0.99949500  0.62926600  0.80971000  1
  Mg  Mg18  1  0.80971000  0.62926600  0.99949500  1
  Mg  Mg19  1  0.80971000  0.99949500  0.62926600  1
  Mg  Mg20  1  0.17938400  0.37044800  0.37044800  1
  Mg  Mg21  1  0.62926600  0.80971000  0.99949500  1
  Mg  Mg22  1  0.37044800  0.17938400  0.37044800  1
  Mg  Mg23  1  0.99949500  0.80971000  0.62926600  1
  Mg  Mg24  1  0.63078300  0.63078300  0.63078300  1
loop_
_geom_bond_atom_site_label_1
_geom_bond_atom_site_label_2
_geom_bond_distance
_geom_bond_site_symmetry_2
Y0 Y2 3.635182 1_655
Y0 Y3 3.635182 1_565
Y0 Y1 3.635183 1_556
Mg0 Mg15 2.970735 1_555
Mg0 Mg19 3.189455 1_555
Mg0 Mg23 3.189455 1_555
Mg0 Y1 3.202813 1_555
Mg0 Mg9 3.278991 1_555
Mg0 Mg6 3.278991 1_555
Mg0 Mg10 3.352464 1_555
Mg0 Mg8 3.352464 1_555
Mg0 Mg4 3.358990 1_565
Mg0 Mg5 3.358990 1_655
Mg0 Mg18 3.389444 1_554
Mg0 Mg21 3.389444 1_554
Mg1 Mg22 2.970735 1_555
Mg1 Mg17 3.189455 1_555
Mg1 Mg18 3.189455 1_555
Mg1 Y3 3.202813 1_555
Mg1 Mg7 3.278991 1_555
Mg1 Mg4 3.278991 1_555
Mg1 Mg3 3.352464 1_555
Mg1 Mg8 3.352464 1_555
Mg1 Mg11 3.358990 1_655
Mg1 Mg9 3.358990 1_556
Mg1 Mg19 3.389444 1_545
Mg1 Mg16 3.389444 1_545
Mg2 Mg20 2.970735 1_555
Mg2 Mg21 3.189455 1_555
Mg2 Y2 3.202813 1_555
Mg2 Mg5 3.278991 1_555
Mg2 Mg3 3.352464 1_555
Mg2 Mg7 3.358990 1_565
Mg2 Mg6 3.358990 1_556
Mg2 Mg23 3.389444 1_455
Mg3 Mg6 3.316438 1_556
Mg3 Mg9 3.316438 1_556
Mg3 Mg7 3.360182 1_555
Mg3 Y1 3.678257 1_445
Mg4 Y2 3.221466 1_544
Mg4 Mg6 3.352679 1_545
Mg4 Mg8 3.360182 1_555
Mg4 Y1 3.678012 1_545
Mg5 Y3 3.221466 1_454
Mg5 Mg8 3.316438 1_455
Mg5 Mg7 3.352679 1_565
Mg5 Mg9 3.352679 1_455
Mg5 Y1 3.678012 1_455
Mg6 Y3 3.221465 1_454
Mg6 Y2 3.678012 1_554
Mg7 Y1 3.221465 1_445
Mg7 Mg9 3.352679 1_556
Mg7 Y2 3.678012 1_545
Mg8 Mg9 3.360183 1_555
Mg8 Y2 3.678257 1_544
Mg9 Y2 3.221465 1_544
Mg9 Y3 3.678012 1_554
Mg10 Mg13 3.001249 1_555
Mg10 Mg15 3.165753 1_555
Mg10 Mg20 3.165753 1_555
Mg10 Mg24 3.200801 1_555
Mg10 Mg7 3.316438 1_565
Mg10 Mg4 3.316438 1_565
Mg10 Mg2 3.352464 1_555
Mg10 Mg5 3.360182 1_555
Mg10 Mg6 3.360183 1_555
Mg10 Mg19 3.389741 1_555
Mg10 Mg16 3.389741 1_555
Mg10 Y3 3.678257 1_454
Mg11 Mg17 2.967211 1_455
Mg11 Mg12 3.191673 1_555
Mg11 Mg19 3.199743 1_445
Mg11 Y1 3.221465 1_445
Mg11 Mg2 3.278991 1_555
Mg11 Mg8 3.316438 1_455
Mg11 Mg4 3.352679 1_455
Mg11 Mg6 3.352679 1_556
Mg11 Mg3 3.360182 1_555
Mg11 Mg20 3.386560 1_555
Mg11 Mg14 3.393108 1_455
Mg11 Y3 3.678012 1_455
Mg12 Mg15 2.855793 1_556
Mg12 Mg3 3.001249 1_555
Mg12 Mg19 3.021601 1_445
Mg12 Mg23 3.021601 1_445
Mg12 Mg7 3.191673 1_555
Mg12 Mg9 3.393108 1_556
Mg12 Mg6 3.393108 1_556
Mg12 Y3 3.459314 1_455
Mg12 Y2 3.459314 1_545
Mg12 Y0 3.466006 1_445
Mg12 Y1 3.568080 1_445
Mg13 Mg22 2.855793 1_565
Mg13 Mg18 3.021601 1_454
Mg13 Mg17 3.021601 1_454
Mg13 Mg6 3.191673 1_555
Mg13 Mg5 3.191673 1_555
Mg13 Mg4 3.393108 1_565
Mg13 Mg7 3.393108 1_565
Mg13 Y1 3.459314 1_455
Mg13 Y2 3.459314 1_554
Mg13 Y0 3.466006 1_454
Mg13 Y3 3.568080 1_454
Mg14 Mg20 2.855793 1_655
Mg14 Mg8 3.001249 1_555
Mg14 Mg21 3.021601 1_544
Mg14 Mg16 3.021601 1_544
Mg14 Mg9 3.191673 1_555
Mg14 Mg4 3.191673 1_555
Mg14 Mg5 3.393108 1_655
Mg14 Y1 3.459314 1_545
Mg14 Y3 3.459314 1_554
Mg14 Y0 3.466006 1_544
Mg14 Y2 3.568080 1_544
Mg15 Mg22 3.037759 1_555
Mg15 Mg20 3.037759 1_555
Mg15 Mg8 3.165753 1_555
Mg15 Mg9 3.386560 1_555
Mg15 Mg6 3.386560 1_555
Mg15 Y2 3.459547 1_544
Mg15 Y3 3.459547 1_454
Mg15 Y0 3.467721 1_444
Mg16 Mg19 2.868910 1_555
Mg16 Mg7 2.967211 1_565
Mg16 Mg21 3.017424 1_555
Mg16 Mg2 3.189455 1_555
Mg16 Mg9 3.199743 1_566
Mg16 Mg24 3.434010 1_555
Mg16 Y3 3.452400 1_565
Mg16 Y0 3.454202 1_555
Mg16 Y2 3.567426 1_555
Mg17 Mg23 2.868910 1_555
Mg17 Mg18 3.017424 1_555
Mg17 Mg6 3.199743 1_656
Mg17 Mg2 3.389444 1_655
Mg17 Mg8 3.389741 1_555
Mg17 Mg24 3.434010 1_555
Mg17 Y2 3.452400 1_655
Mg17 Y0 3.454202 1_555
Mg17 Y3 3.567426 1_555
Mg18 Mg21 2.868910 1_555
Mg18 Mg9 2.967211 1_556
Mg18 Mg5 3.199743 1_656
Mg18 Mg3 3.389741 1_555
Mg18 Mg24 3.434011 1_555
Mg18 Y1 3.452400 1_556
Mg18 Y0 3.454202 1_555
Mg18 Y3 3.567426 1_555
Mg19 Mg4 2.967211 1_565
Mg19 Mg23 3.017424 1_555
Mg19 Mg24 3.434010 1_555
Mg19 Y3 3.452400 1_565
Mg19 Y0 3.454202 1_555
Mg19 Y1 3.567426 1_555
Mg20 Mg22 3.037759 1_555
Mg20 Mg3 3.165753 1_555
Mg20 Mg5 3.386560 1_555
Mg20 Y1 3.459547 1_445
Mg20 Y3 3.459547 1_454
Mg20 Y0 3.467721 1_444
Mg21 Mg6 2.967211 1_556
Mg21 Mg4 3.199743 1_566
Mg21 Mg3 3.389741 1_555
Mg21 Mg24 3.434011 1_555
Mg21 Y1 3.452400 1_556
Mg21 Y0 3.454202 1_555
Mg21 Y2 3.567426 1_555
Mg22 Mg8 3.165753 1_555
Mg22 Mg3 3.165753 1_555
Mg22 Mg4 3.386560 1_555
Mg22 Mg7 3.386560 1_555
Mg22 Y1 3.459547 1_445
Mg22 Y2 3.459547 1_544
Mg22 Y0 3.467721 1_444
Mg23 Mg5 2.967211 1_655
Mg23 Mg7 3.199743 1_665
Mg23 Mg8 3.389741 1_555
Mg23 Mg24 3.434010 1_555
Mg23 Y2 3.452400 1_655
Mg23 Y0 3.454202 1_555
Mg23 Y1 3.567426 1_555
Mg24 Mg8 3.200801 1_555
Mg24 Mg3 3.200801 1_555
Mg24 Y0 3.576323 1_555
