# generated using pymatgen
data_Yb6Al43Mo4
_symmetry_space_group_name_H-M   'P 1'
_cell_length_a   11.05365162
_cell_length_b   11.05365162
_cell_length_c   17.66079000
_cell_angle_alpha   90.00000000
_cell_angle_beta   90.00000000
_cell_angle_gamma   119.99999774
_symmetry_Int_Tables_number   1
_chemical_formula_structural   Yb6Al43Mo4
_chemical_formula_sum   'Yb12 Al86 Mo8'
_cell_volume   1868.75476768
_cell_formula_units_Z   2
loop_
 _symmetry_equiv_pos_site_id
 _symmetry_equiv_pos_as_xyz
  1  'x, y, z'
loop_
 _atom_site_type_symbol
 _atom_site_label
 _atom_site_symmetry_multiplicity
 _atom_site_fract_x
 _atom_site_fract_y
 _atom_site_fract_z
 _atom_site_occupancy
  Yb  Yb0  1  0.46702700  0.46702700  0.90558700  1
  Yb  Yb1  1  0.53297300  0.00000000  0.90558700  1
  Yb  Yb2  1  0.00000000  0.53297300  0.90558700  1
  Yb  Yb3  1  0.53297300  0.53297300  0.09441300  1
  Yb  Yb4  1  0.46702700  0.00000000  0.09441300  1
  Yb  Yb5  1  0.00000000  0.46702700  0.09441300  1
  Yb  Yb6  1  0.53297300  0.53297300  0.40558700  1
  Yb  Yb7  1  0.46702700  0.00000000  0.40558700  1
  Yb  Yb8  1  0.00000000  0.46702700  0.40558700  1
  Yb  Yb9  1  0.46702700  0.46702700  0.59441300  1
  Yb  Yb10  1  0.53297300  0.00000000  0.59441300  1
  Yb  Yb11  1  0.00000000  0.53297300  0.59441300  1
  Al  Al0  1  0.84413900  0.23658400  0.83506500  1
  Al  Al1  1  0.76341600  0.60755500  0.83506500  1
  Al  Al2  1  0.39244500  0.15586100  0.83506500  1
  Al  Al3  1  0.23658400  0.84413900  0.83506500  1
  Al  Al4  1  0.60755500  0.76341600  0.83506500  1
  Al  Al5  1  0.15586100  0.39244500  0.83506500  1
  Al  Al6  1  0.15586100  0.76341600  0.16493500  1
  Al  Al7  1  0.23658400  0.39244500  0.16493500  1
  Al  Al8  1  0.60755500  0.84413900  0.16493500  1
  Al  Al9  1  0.76341600  0.15586100  0.16493500  1
  Al  Al10  1  0.39244500  0.23658400  0.16493500  1
  Al  Al11  1  0.84413900  0.60755500  0.16493500  1
  Al  Al12  1  0.15586100  0.76341600  0.33506500  1
  Al  Al13  1  0.23658400  0.39244500  0.33506500  1
  Al  Al14  1  0.60755500  0.84413900  0.33506500  1
  Al  Al15  1  0.76341600  0.15586100  0.33506500  1
  Al  Al16  1  0.39244500  0.23658400  0.33506500  1
  Al  Al17  1  0.84413900  0.60755500  0.33506500  1
  Al  Al18  1  0.84413900  0.23658400  0.66493500  1
  Al  Al19  1  0.76341600  0.60755500  0.66493500  1
  Al  Al20  1  0.39244500  0.15586100  0.66493500  1
  Al  Al21  1  0.23658400  0.84413900  0.66493500  1
  Al  Al22  1  0.60755500  0.76341600  0.66493500  1
  Al  Al23  1  0.15586100  0.39244500  0.66493500  1
  Al  Al24  1  0.84125500  0.84125500  0.38471000  1
  Al  Al25  1  0.15874500  0.00000000  0.38471000  1
  Al  Al26  1  0.00000000  0.15874500  0.38471000  1
  Al  Al27  1  0.15874500  0.15874500  0.61529000  1
  Al  Al28  1  0.84125500  0.00000000  0.61529000  1
  Al  Al29  1  0.00000000  0.84125500  0.61529000  1
  Al  Al30  1  0.15874500  0.15874500  0.88471000  1
  Al  Al31  1  0.84125500  0.00000000  0.88471000  1
  Al  Al32  1  0.00000000  0.84125500  0.88471000  1
  Al  Al33  1  0.84125500  0.84125500  0.11529000  1
  Al  Al34  1  0.15874500  0.00000000  0.11529000  1
  Al  Al35  1  0.00000000  0.15874500  0.11529000  1
  Al  Al36  1  0.74794200  0.74794200  0.96835900  1
  Al  Al37  1  0.25205800  0.00000000  0.96835900  1
  Al  Al38  1  0.00000000  0.25205800  0.96835900  1
  Al  Al39  1  0.25205800  0.25205800  0.03164100  1
  Al  Al40  1  0.74794200  0.00000000  0.03164100  1
  Al  Al41  1  0.00000000  0.74794200  0.03164100  1
  Al  Al42  1  0.25205800  0.25205800  0.46835900  1
  Al  Al43  1  0.74794200  0.00000000  0.46835900  1
  Al  Al44  1  0.00000000  0.74794200  0.46835900  1
  Al  Al45  1  0.74794200  0.74794200  0.53164100  1
  Al  Al46  1  0.25205800  0.00000000  0.53164100  1
  Al  Al47  1  0.00000000  0.25205800  0.53164100  1
  Al  Al48  1  0.85155500  0.45003700  0.75000000  1
  Al  Al49  1  0.54996300  0.40151800  0.75000000  1
  Al  Al50  1  0.59848200  0.14844500  0.75000000  1
  Al  Al51  1  0.45003700  0.85155500  0.75000000  1
  Al  Al52  1  0.40151800  0.54996300  0.75000000  1
  Al  Al53  1  0.14844500  0.59848200  0.75000000  1
  Al  Al54  1  0.14844500  0.54996300  0.25000000  1
  Al  Al55  1  0.45003700  0.59848200  0.25000000  1
  Al  Al56  1  0.40151800  0.85155500  0.25000000  1
  Al  Al57  1  0.54996300  0.14844500  0.25000000  1
  Al  Al58  1  0.59848200  0.45003700  0.25000000  1
  Al  Al59  1  0.85155500  0.40151800  0.25000000  1
  Al  Al60  1  0.75293900  0.24706100  0.00000000  1
  Al  Al61  1  0.75293900  0.50587800  0.00000000  1
  Al  Al62  1  0.49412200  0.24706100  0.00000000  1
  Al  Al63  1  0.24706100  0.75293900  0.00000000  1
  Al  Al64  1  0.50587800  0.75293900  0.00000000  1
  Al  Al65  1  0.24706100  0.49412200  0.00000000  1
  Al  Al66  1  0.24706100  0.75293900  0.50000000  1
  Al  Al67  1  0.24706100  0.49412200  0.50000000  1
  Al  Al68  1  0.50587800  0.75293900  0.50000000  1
  Al  Al69  1  0.75293900  0.24706100  0.50000000  1
  Al  Al70  1  0.49412200  0.24706100  0.50000000  1
  Al  Al71  1  0.75293900  0.50587800  0.50000000  1
  Al  Al72  1  0.66666700  0.33333300  0.87352600  1
  Al  Al73  1  0.33333300  0.66666700  0.87352600  1
  Al  Al74  1  0.33333300  0.66666700  0.12647400  1
  Al  Al75  1  0.66666700  0.33333300  0.12647400  1
  Al  Al76  1  0.33333300  0.66666700  0.37352600  1
  Al  Al77  1  0.66666700  0.33333300  0.37352600  1
  Al  Al78  1  0.66666700  0.33333300  0.62647400  1
  Al  Al79  1  0.33333300  0.66666700  0.62647400  1
  Al  Al80  1  0.85320900  0.85320900  0.75000000  1
  Al  Al81  1  0.14679100  0.00000000  0.75000000  1
  Al  Al82  1  0.00000000  0.14679100  0.75000000  1
  Al  Al83  1  0.14679100  0.14679100  0.25000000  1
  Al  Al84  1  0.85320900  0.00000000  0.25000000  1
  Al  Al85  1  0.00000000  0.85320900  0.25000000  1
  Mo  Mo0  1  0.27051200  0.27051200  0.75000000  1
  Mo  Mo1  1  0.72948800  0.00000000  0.75000000  1
  Mo  Mo2  1  0.00000000  0.72948800  0.75000000  1
  Mo  Mo3  1  0.72948800  0.72948800  0.25000000  1
  Mo  Mo4  1  0.27051200  0.00000000  0.25000000  1
  Mo  Mo5  1  0.00000000  0.27051200  0.25000000  1
  Mo  Mo6  1  0.00000000  0.00000000  0.00000000  1
  Mo  Mo7  1  0.00000000  0.00000000  0.50000000  1
loop_
_geom_bond_atom_site_label_1
_geom_bond_atom_site_label_2
_geom_bond_distance
_geom_bond_site_symmetry_2
Yb0 Yb3 3.413555 1_556
Yb1 Yb4 3.413555 1_556
Yb2 Yb5 3.413555 1_556
Yb6 Yb9 3.413555 1_555
Yb10 Yb7 3.413555 1_555
Yb11 Yb8 3.413555 1_555
Al0 Mo1 2.718032 1_555
Al0 Al31 2.743212 1_555
Al0 Al72 2.747963 1_555
Al0 Al48 2.763547 1_555
Al0 Al82 2.814289 1_655
Al0 Al50 2.816746 1_555
Al0 Al38 2.871308 1_655
Al0 Al5 2.984035 1_655
Al0 Al18 3.004630 1_555
Al0 Yb2 3.099743 1_655
Al0 Al60 3.103433 1_556
Al0 Yb1 3.350462 1_555
Al1 Mo2 2.718032 1_655
Al1 Al32 2.743212 1_655
Al1 Al72 2.747973 1_555
Al1 Al49 2.763547 1_555
Al1 Al80 2.814289 1_555
Al1 Al48 2.816746 1_555
Al1 Al36 2.871308 1_555
Al1 Al4 2.984035 1_555
Al1 Al19 3.004630 1_555
Al1 Yb0 3.099743 1_555
Al1 Al61 3.103433 1_556
Al1 Yb2 3.350462 1_655
Al2 Mo0 2.718032 1_555
Al2 Al30 2.743212 1_555
Al2 Al72 2.747971 1_555
Al2 Al50 2.763547 1_555
Al2 Al81 2.814289 1_555
Al2 Al49 2.816746 1_555
Al2 Al37 2.871308 1_555
Al2 Al3 2.984035 1_545
Al2 Al20 3.004630 1_555
Al2 Yb1 3.099743 1_555
Al2 Al62 3.103433 1_556
Al2 Yb0 3.350462 1_555
Al3 Mo2 2.718032 1_555
Al3 Al32 2.743212 1_555
Al3 Al73 2.747963 1_555
Al3 Al51 2.763547 1_555
Al3 Al81 2.814289 1_565
Al3 Al53 2.816746 1_555
Al3 Al37 2.871308 1_565
Al3 Yb1 3.099743 1_565
Al3 Al63 3.103433 1_556
Al3 Yb2 3.350462 1_555
Al4 Mo1 2.718032 1_565
Al4 Al73 2.747973 1_555
Al4 Al52 2.763547 1_555
Al4 Al80 2.814289 1_555
Al4 Al51 2.816746 1_555
Al4 Yb0 3.099743 1_555
Al4 Al64 3.103433 1_556
Al4 Yb1 3.350462 1_565
Al5 Mo0 2.718032 1_555
Al5 Al73 2.747971 1_555
Al5 Al53 2.763547 1_555
Al5 Al82 2.814289 1_555
Al5 Al52 2.816746 1_555
Al5 Yb2 3.099743 1_555
Al5 Al65 3.103433 1_556
Al5 Yb0 3.350462 1_555
Al6 Mo4 2.718032 1_565
Al6 Al74 2.747963 1_555
Al6 Al85 2.814289 1_555
Al6 Yb5 3.099743 1_555
Al6 Al63 3.103433 1_555
Al6 Yb4 3.350462 1_565
Al7 Mo5 2.718032 1_555
Al7 Al74 2.747973 1_555
Al7 Al83 2.814289 1_555
Al7 Yb3 3.099743 1_555
Al7 Yb5 3.350462 1_555
Al8 Mo3 2.718032 1_555
Al8 Al84 2.814289 1_565
Al8 Al9 2.984035 1_565
Al8 Yb4 3.099743 1_565
Al8 Yb3 3.350462 1_555
Al9 Mo5 2.718032 1_655
Al9 Yb4 3.099743 1_555
Al9 Yb5 3.350462 1_655
Al10 Mo4 2.718032 1_555
Al10 Al34 2.743212 1_555
Al10 Al75 2.747973 1_555
Al10 Al58 2.763547 1_555
Al10 Al83 2.814289 1_555
Al10 Al57 2.816746 1_555
Al10 Al39 2.871308 1_555
Al10 Al7 2.984035 1_555
Al10 Al16 3.004630 1_555
Al10 Yb3 3.099743 1_555
Al10 Al62 3.103433 1_555
Al10 Yb4 3.350462 1_555
Al11 Mo3 2.718032 1_555
Al11 Al33 2.743212 1_555
Al11 Al75 2.747971 1_555
Al11 Al59 2.763547 1_555
Al11 Al85 2.814289 1_655
Al11 Al58 2.816746 1_555
Al11 Al41 2.871308 1_655
Al11 Al6 2.984035 1_655
Al11 Al17 3.004630 1_555
Al11 Yb5 3.099743 1_655
Al11 Al61 3.103433 1_555
Al11 Yb3 3.350462 1_555
Al12 Mo4 2.718032 1_565
Al12 Al25 2.743212 1_565
Al12 Al76 2.747963 1_555
Al12 Al54 2.763547 1_555
Al12 Al85 2.814289 1_555
Al12 Al56 2.816746 1_555
Al12 Al44 2.871308 1_555
Al12 Al17 2.984035 1_455
Al12 Al6 3.004630 1_555
Al12 Yb8 3.099743 1_555
Al12 Al66 3.103433 1_555
Al12 Yb7 3.350462 1_565
Al13 Mo5 2.718032 1_555
Al13 Al26 2.743212 1_555
Al13 Al76 2.747973 1_555
Al13 Al55 2.763547 1_555
Al13 Al83 2.814289 1_555
Al13 Al54 2.816746 1_555
Al13 Al42 2.871308 1_555
Al13 Al16 2.984035 1_555
Al13 Al7 3.004630 1_555
Al13 Yb6 3.099743 1_555
Al13 Al67 3.103433 1_555
Al13 Yb8 3.350462 1_555
Al14 Mo3 2.718032 1_555
Al14 Al24 2.743212 1_555
Al14 Al76 2.747971 1_555
Al14 Al56 2.763547 1_555
Al14 Al84 2.814289 1_565
Al14 Al55 2.816746 1_555
Al14 Al43 2.871308 1_565
Al14 Al15 2.984035 1_565
Al14 Al8 3.004630 1_555
Al14 Yb7 3.099743 1_565
Al14 Al68 3.103433 1_555
Al14 Yb6 3.350462 1_555
Al15 Mo5 2.718032 1_655
Al15 Al26 2.743212 1_655
Al15 Al77 2.747963 1_555
Al15 Al57 2.763547 1_555
Al15 Al84 2.814289 1_555
Al15 Al59 2.816746 1_555
Al15 Al43 2.871308 1_555
Al15 Al9 3.004630 1_555
Al15 Yb7 3.099743 1_555
Al15 Al69 3.103433 1_555
Al15 Yb8 3.350462 1_655
Al16 Mo4 2.718032 1_555
Al16 Al25 2.743212 1_555
Al16 Al77 2.747973 1_555
Al16 Al58 2.763547 1_555
Al16 Al83 2.814289 1_555
Al16 Al57 2.816746 1_555
Al16 Al42 2.871308 1_555
Al16 Yb6 3.099743 1_555
Al16 Al70 3.103433 1_555
Al16 Yb7 3.350462 1_555
Al17 Mo3 2.718032 1_555
Al17 Al24 2.743212 1_555
Al17 Al77 2.747971 1_555
Al17 Al59 2.763547 1_555
Al17 Al85 2.814289 1_655
Al17 Al58 2.816746 1_555
Al17 Al44 2.871308 1_655
Al17 Yb8 3.099743 1_655
Al17 Al71 3.103433 1_555
Al17 Yb6 3.350462 1_555
Al18 Mo1 2.718032 1_555
Al18 Al28 2.743212 1_555
Al18 Al78 2.747963 1_555
Al18 Al48 2.763547 1_555
Al18 Al82 2.814289 1_655
Al18 Al50 2.816746 1_555
Al18 Al47 2.871308 1_655
Al18 Al23 2.984035 1_655
Al18 Yb11 3.099743 1_655
Al18 Al69 3.103433 1_555
Al18 Yb10 3.350462 1_555
Al19 Mo2 2.718032 1_655
Al19 Al29 2.743212 1_655
Al19 Al78 2.747973 1_555
Al19 Al49 2.763547 1_555
Al19 Al80 2.814289 1_555
Al19 Al48 2.816746 1_555
Al19 Al45 2.871308 1_555
Al19 Al22 2.984035 1_555
Al19 Yb9 3.099743 1_555
Al19 Al71 3.103433 1_555
Al19 Yb11 3.350462 1_655
Al20 Mo0 2.718032 1_555
Al20 Al27 2.743212 1_555
Al20 Al78 2.747971 1_555
Al20 Al50 2.763547 1_555
Al20 Al81 2.814289 1_555
Al20 Al49 2.816746 1_555
Al20 Al46 2.871308 1_555
Al20 Al21 2.984035 1_545
Al20 Yb10 3.099743 1_555
Al20 Al70 3.103433 1_555
Al20 Yb9 3.350462 1_555
Al21 Mo2 2.718032 1_555
Al21 Al29 2.743212 1_555
Al21 Al79 2.747963 1_555
Al21 Al51 2.763547 1_555
Al21 Al81 2.814289 1_565
Al21 Al53 2.816746 1_555
Al21 Al46 2.871308 1_565
Al21 Al3 3.004630 1_555
Al21 Yb10 3.099743 1_565
Al21 Al66 3.103433 1_555
Al21 Yb11 3.350462 1_555
Al22 Mo1 2.718032 1_565
Al22 Al28 2.743212 1_565
Al22 Al79 2.747973 1_555
Al22 Al52 2.763547 1_555
Al22 Al80 2.814289 1_555
Al22 Al51 2.816746 1_555
Al22 Al45 2.871308 1_555
Al22 Al4 3.004630 1_555
Al22 Yb9 3.099743 1_555
Al22 Al68 3.103433 1_555
Al22 Yb10 3.350462 1_565
Al23 Mo0 2.718032 1_555
Al23 Al27 2.743212 1_555
Al23 Al79 2.747971 1_555
Al23 Al53 2.763547 1_555
Al23 Al82 2.814289 1_555
Al23 Al52 2.816746 1_555
Al23 Al47 2.871308 1_555
Al23 Al5 3.004630 1_555
Al23 Yb11 3.099743 1_555
Al23 Al67 3.103433 1_555
Al23 Yb9 3.350462 1_555
Al24 Mo3 2.680735 1_555
Al24 Mo7 2.687893 1_665
Al24 Al45 2.792398 1_555
Al24 Al43 2.852233 1_565
Al24 Al44 2.852233 1_655
Al24 Yb6 3.427531 1_555
Al25 Mo4 2.680735 1_555
Al25 Mo7 2.687893 1_555
Al25 Al46 2.792398 1_555
Al25 Al42 2.852233 1_555
Al25 Al44 2.852233 1_545
Al25 Yb7 3.427531 1_555
Al26 Mo5 2.680735 1_555
Al26 Mo7 2.687893 1_555
Al26 Al47 2.792398 1_555
Al26 Al42 2.852233 1_555
Al26 Al43 2.852233 1_455
Al26 Yb8 3.427531 1_555
Al27 Mo0 2.680735 1_555
Al27 Mo7 2.687893 1_555
Al27 Al42 2.792398 1_555
Al27 Al46 2.852233 1_555
Al27 Al47 2.852233 1_555
Al27 Yb9 3.427531 1_555
Al28 Mo1 2.680735 1_555
Al28 Mo7 2.687893 1_655
Al28 Al43 2.792398 1_555
Al28 Al45 2.852233 1_545
Al28 Al47 2.852233 1_655
Al28 Yb10 3.427531 1_555
Al29 Mo2 2.680735 1_555
Al29 Mo7 2.687893 1_565
Al29 Al44 2.792398 1_555
Al29 Al45 2.852233 1_455
Al29 Al46 2.852233 1_565
Al29 Yb11 3.427531 1_555
Al30 Mo0 2.680735 1_555
Al30 Mo6 2.687893 1_556
Al30 Al5 2.743212 1_555
Al30 Al39 2.792398 1_556
Al30 Al38 2.852233 1_555
Al30 Al37 2.852233 1_555
Al30 Yb0 3.427531 1_555
Al31 Mo1 2.680735 1_555
Al31 Mo6 2.687893 1_656
Al31 Al4 2.743212 1_545
Al31 Al40 2.792398 1_556
Al31 Al36 2.852233 1_545
Al31 Al38 2.852233 1_655
Al31 Yb1 3.427531 1_555
Al32 Mo2 2.680735 1_555
Al32 Mo6 2.687893 1_566
Al32 Al41 2.792398 1_556
Al32 Al36 2.852233 1_455
Al32 Al37 2.852233 1_565
Al32 Yb2 3.427531 1_555
Al33 Mo3 2.680735 1_555
Al33 Mo6 2.687893 1_665
Al33 Al8 2.743212 1_555
Al33 Al36 2.792398 1_554
Al33 Al40 2.852233 1_565
Al33 Al41 2.852233 1_655
Al33 Yb3 3.427531 1_555
Al34 Mo4 2.680735 1_555
Al34 Mo6 2.687893 1_555
Al34 Al6 2.743212 1_545
Al34 Al37 2.792398 1_554
Al34 Al39 2.852233 1_555
Al34 Al41 2.852233 1_545
Al34 Yb4 3.427531 1_555
Al35 Mo5 2.680735 1_555
Al35 Mo6 2.687893 1_555
Al35 Al9 2.743212 1_455
Al35 Al7 2.743212 1_555
Al35 Al38 2.792398 1_554
Al35 Al39 2.852233 1_555
Al35 Al40 2.852233 1_455
Al35 Yb5 3.427531 1_555
Al36 Al61 2.760875 1_556
Al36 Al64 2.760875 1_556
Al36 Mo6 2.841647 1_666
Al36 Al4 2.871308 1_555
Al36 Al40 3.001957 1_566
Al36 Al41 3.001957 1_656
Al36 Yb3 3.256120 1_556
Al36 Yb0 3.297101 1_555
Al37 Al63 2.760875 1_546
Al37 Al62 2.760875 1_556
Al37 Mo6 2.841647 1_556
Al37 Al39 3.001957 1_556
Al37 Al41 3.001957 1_546
Al37 Yb4 3.256120 1_556
Al37 Yb1 3.297101 1_555
Al38 Al60 2.760875 1_456
Al38 Al65 2.760875 1_556
Al38 Mo6 2.841647 1_556
Al38 Al5 2.871308 1_555
Al38 Al39 3.001957 1_556
Al38 Al40 3.001957 1_456
Al38 Yb5 3.256120 1_556
Al38 Yb2 3.297101 1_555
Al39 Al62 2.760875 1_555
Al39 Al65 2.760875 1_555
Al39 Mo6 2.841647 1_555
Al39 Al7 2.871308 1_555
Al39 Yb0 3.256120 1_554
Al39 Yb3 3.297101 1_555
Al40 Al60 2.760875 1_555
Al40 Al64 2.760875 1_545
Al40 Mo6 2.841647 1_655
Al40 Al9 2.871308 1_555
Al40 Al8 2.871308 1_545
Al40 Yb1 3.256120 1_554
Al40 Yb4 3.297101 1_555
Al41 Al63 2.760875 1_555
Al41 Al61 2.760875 1_455
Al41 Mo6 2.841647 1_565
Al41 Al6 2.871308 1_555
Al41 Yb2 3.256120 1_554
Al41 Yb5 3.297101 1_555
Al42 Al67 2.760875 1_555
Al42 Al70 2.760875 1_555
Al42 Mo7 2.841647 1_555
Al42 Al46 3.001957 1_555
Al42 Al47 3.001957 1_555
Al42 Yb9 3.256120 1_555
Al42 Yb6 3.297101 1_555
Al43 Al69 2.760875 1_555
Al43 Al68 2.760875 1_545
Al43 Mo7 2.841647 1_655
Al43 Al45 3.001957 1_545
Al43 Al47 3.001957 1_655
Al43 Yb10 3.256120 1_555
Al43 Yb7 3.297101 1_555
Al44 Al66 2.760875 1_555
Al44 Al71 2.760875 1_455
Al44 Mo7 2.841647 1_565
Al44 Al45 3.001957 1_455
Al44 Al46 3.001957 1_565
Al44 Yb11 3.256120 1_555
Al44 Yb8 3.297101 1_555
Al45 Al71 2.760875 1_555
Al45 Al68 2.760875 1_555
Al45 Mo7 2.841647 1_665
Al45 Yb6 3.256120 1_555
Al45 Yb9 3.297101 1_555
Al46 Al66 2.760875 1_545
Al46 Al70 2.760875 1_555
Al46 Mo7 2.841647 1_555
Al46 Yb7 3.256120 1_555
Al46 Yb10 3.297101 1_555
Al47 Al69 2.760875 1_455
Al47 Al67 2.760875 1_555
Al47 Mo7 2.841647 1_555
Al47 Yb8 3.256120 1_555
Al47 Yb11 3.297101 1_555
Al48 Mo2 2.676848 1_655
Al48 Al78 2.821992 1_555
Al48 Al72 2.821992 1_555
Al48 Yb11 3.094986 1_655
Al48 Yb2 3.094986 1_655
Al49 Mo0 2.676848 1_555
Al49 Al72 2.821997 1_555
Al49 Al78 2.821997 1_555
Al49 Yb9 3.094986 1_555
Al49 Yb0 3.094986 1_555
Al50 Mo1 2.676848 1_555
Al50 Al78 2.821991 1_555
Al50 Al72 2.821991 1_555
Al50 Yb10 3.094986 1_555
Al50 Yb1 3.094986 1_555
Al51 Mo1 2.676848 1_565
Al51 Al73 2.821992 1_555
Al51 Al79 2.821992 1_555
Al51 Yb1 3.094986 1_565
Al51 Yb10 3.094986 1_565
Al52 Mo0 2.676848 1_555
Al52 Al79 2.821997 1_555
Al52 Al73 2.821997 1_555
Al52 Yb9 3.094986 1_555
Al52 Yb0 3.094986 1_555
Al53 Mo2 2.676848 1_555
Al53 Al79 2.821991 1_555
Al53 Al73 2.821991 1_555
Al53 Yb11 3.094986 1_555
Al53 Yb2 3.094986 1_555
Al54 Mo5 2.676848 1_555
Al54 Al6 2.763547 1_555
Al54 Al7 2.816746 1_555
Al54 Al76 2.821992 1_555
Al54 Al74 2.821992 1_555
Al54 Yb8 3.094986 1_555
Al54 Yb5 3.094986 1_555
Al55 Mo3 2.676848 1_555
Al55 Al7 2.763547 1_555
Al55 Al8 2.816746 1_555
Al55 Al74 2.821997 1_555
Al55 Al76 2.821997 1_555
Al55 Yb6 3.094986 1_555
Al55 Yb3 3.094986 1_555
Al56 Mo4 2.676848 1_565
Al56 Al8 2.763547 1_555
Al56 Al6 2.816746 1_555
Al56 Al74 2.821991 1_555
Al56 Al76 2.821991 1_555
Al56 Yb7 3.094986 1_565
Al56 Yb4 3.094986 1_565
Al57 Mo4 2.676848 1_555
Al57 Al9 2.763547 1_555
Al57 Al75 2.821992 1_555
Al57 Al77 2.821992 1_555
Al57 Yb7 3.094986 1_555
Al57 Yb4 3.094986 1_555
Al58 Mo3 2.676848 1_555
Al58 Al75 2.821997 1_555
Al58 Al77 2.821997 1_555
Al58 Yb6 3.094986 1_555
Al58 Yb3 3.094986 1_555
Al59 Mo5 2.676848 1_655
Al59 Al9 2.816746 1_555
Al59 Al75 2.821991 1_555
Al59 Al77 2.821991 1_555
Al59 Yb8 3.094986 1_655
Al59 Yb5 3.094986 1_655
Al60 Al72 2.778000 1_554
Al60 Al75 2.778000 1_555
Al60 Al62 2.860873 1_555
Al60 Al61 2.860873 1_555
Al60 Yb1 3.083829 1_554
Al60 Yb5 3.083829 1_655
Al60 Al9 3.103433 1_555
Al60 Yb4 3.405204 1_555
Al60 Yb2 3.405204 1_654
Al61 Al72 2.778006 1_554
Al61 Al75 2.778006 1_555
Al61 Al62 2.860873 1_555
Al61 Yb3 3.083829 1_555
Al61 Yb2 3.083829 1_654
Al61 Yb5 3.405204 1_655
Al61 Yb0 3.405204 1_554
Al62 Al75 2.778006 1_555
Al62 Al72 2.778006 1_554
Al62 Yb0 3.083829 1_554
Al62 Yb4 3.083829 1_555
Al62 Yb1 3.405204 1_554
Al62 Yb3 3.405204 1_555
Al63 Al73 2.778000 1_554
Al63 Al74 2.778000 1_555
Al63 Al65 2.860873 1_555
Al63 Al64 2.860873 1_555
Al63 Yb4 3.083829 1_565
Al63 Yb2 3.083829 1_554
Al63 Yb1 3.405204 1_564
Al63 Yb5 3.405204 1_555
Al64 Al73 2.778006 1_554
Al64 Al74 2.778006 1_555
Al64 Al65 2.860873 1_555
Al64 Yb3 3.083829 1_555
Al64 Yb1 3.083829 1_564
Al64 Al8 3.103433 1_555
Al64 Yb4 3.405204 1_565
Al64 Yb0 3.405204 1_554
Al65 Al73 2.778006 1_554
Al65 Al74 2.778006 1_555
Al65 Yb0 3.083829 1_554
Al65 Yb5 3.083829 1_555
Al65 Al7 3.103433 1_555
Al65 Yb2 3.405204 1_554
Al65 Yb3 3.405204 1_555
Al66 Al79 2.778000 1_555
Al66 Al76 2.778000 1_555
Al66 Al67 2.860873 1_555
Al66 Al68 2.860873 1_555
Al66 Yb11 3.083829 1_555
Al66 Yb7 3.083829 1_565
Al66 Yb10 3.405204 1_565
Al66 Yb8 3.405204 1_555
Al67 Al76 2.778006 1_555
Al67 Al79 2.778006 1_555
Al67 Al68 2.860873 1_555
Al67 Yb9 3.083829 1_555
Al67 Yb8 3.083829 1_555
Al67 Yb11 3.405204 1_555
Al67 Yb6 3.405204 1_555
Al68 Al76 2.778006 1_555
Al68 Al79 2.778006 1_555
Al68 Yb6 3.083829 1_555
Al68 Yb10 3.083829 1_565
Al68 Yb7 3.405204 1_565
Al68 Yb9 3.405204 1_555
Al69 Al77 2.778000 1_555
Al69 Al78 2.778000 1_555
Al69 Al70 2.860873 1_555
Al69 Al71 2.860873 1_555
Al69 Yb10 3.083829 1_555
Al69 Yb8 3.083829 1_655
Al69 Yb11 3.405204 1_655
Al69 Yb7 3.405204 1_555
Al70 Al78 2.778006 1_555
Al70 Al77 2.778006 1_555
Al70 Al71 2.860873 1_555
Al70 Yb9 3.083829 1_555
Al70 Yb7 3.083829 1_555
Al70 Yb10 3.405204 1_555
Al70 Yb6 3.405204 1_555
Al71 Al78 2.778006 1_555
Al71 Al77 2.778006 1_555
Al71 Yb6 3.083829 1_555
Al71 Yb11 3.083829 1_655
Al71 Yb8 3.405204 1_655
Al71 Yb9 3.405204 1_555
Al72 Yb1 3.261190 1_555
Al72 Yb2 3.261191 1_655
Al72 Yb0 3.261200 1_555
Al73 Yb2 3.261190 1_555
Al73 Yb1 3.261191 1_565
Al73 Yb0 3.261200 1_555
Al74 Al8 2.747971 1_555
Al74 Yb4 3.261190 1_565
Al74 Yb5 3.261191 1_555
Al74 Yb3 3.261200 1_555
Al75 Al9 2.747963 1_555
Al75 Yb5 3.261190 1_655
Al75 Yb4 3.261191 1_555
Al75 Yb3 3.261200 1_555
Al76 Yb7 3.261190 1_565
Al76 Yb8 3.261191 1_555
Al76 Yb6 3.261200 1_555
Al77 Yb8 3.261190 1_655
Al77 Yb7 3.261191 1_555
Al77 Yb6 3.261200 1_555
Al78 Yb10 3.261190 1_555
Al78 Yb11 3.261191 1_655
Al78 Yb9 3.261200 1_555
Al79 Yb11 3.261190 1_555
Al79 Yb10 3.261191 1_565
Al79 Yb9 3.261200 1_555
Al80 Mo1 2.592679 1_565
Al80 Mo2 2.592679 1_655
Al81 Mo0 2.592679 1_555
Al81 Mo2 2.592679 1_545
Al82 Mo0 2.592679 1_555
Al82 Mo1 2.592679 1_455
Al83 Mo4 2.592679 1_555
Al83 Mo5 2.592679 1_555
Al84 Mo3 2.592679 1_545
Al84 Mo5 2.592679 1_655
Al84 Al9 2.814289 1_555
Al85 Mo3 2.592679 1_455
Al85 Mo4 2.592679 1_565
Mo0 Yb0 3.502690 1_555
Mo0 Yb9 3.502690 1_555
Mo1 Yb1 3.502690 1_555
Mo1 Yb10 3.502690 1_555
Mo2 Yb2 3.502690 1_555
Mo2 Yb11 3.502690 1_555
Mo3 Yb6 3.502690 1_555
Mo3 Yb3 3.502690 1_555
Mo4 Yb7 3.502690 1_555
Mo4 Yb4 3.502690 1_555
Mo5 Yb8 3.502690 1_555
Mo5 Yb5 3.502690 1_555
