# generated using pymatgen
data_NaCe(CO3)2
_symmetry_space_group_name_H-M   'P 1'
_cell_length_a   5.19954900
_cell_length_b   6.44930100
_cell_length_c   7.19932600
_cell_angle_alpha   90.00000000
_cell_angle_beta   90.00000000
_cell_angle_gamma   90.00000000
_symmetry_Int_Tables_number   1
_chemical_formula_structural   NaCe(CO3)2
_chemical_formula_sum   'Na2 Ce2 C4 O12'
_cell_volume   241.41828572
_cell_formula_units_Z   2
loop_
 _symmetry_equiv_pos_site_id
 _symmetry_equiv_pos_as_xyz
  1  'x, y, z'
loop_
 _atom_site_type_symbol
 _atom_site_label
 _atom_site_symmetry_multiplicity
 _atom_site_fract_x
 _atom_site_fract_y
 _atom_site_fract_z
 _atom_site_occupancy
  Na  Na0  1  0.00000000  0.48240000  0.02795600  1
  Na  Na1  1  0.00000000  0.51760000  0.52795600  1
  Ce  Ce0  1  0.50000000  0.13040700  0.32622500  1
  Ce  Ce1  1  0.50000000  0.86959200  0.82622500  1
  C  C0  1  0.50000000  0.58077800  0.24321400  1
  C  C1  1  0.50000000  0.41922200  0.74321400  1
  C  C2  1  0.00000000  0.03596200  0.99833000  1
  C  C3  1  0.00000000  0.96403800  0.49833000  1
  O  O0  1  0.00000000  0.14137900  0.41544900  1
  O  O1  1  0.00000000  0.85862100  0.91544900  1
  O  O2  1  0.28786400  0.48429100  0.28052600  1
  O  O3  1  0.71213600  0.51570900  0.78052600  1
  O  O4  1  0.28786400  0.51570900  0.78052600  1
  O  O5  1  0.71213600  0.48429100  0.28052600  1
  O  O6  1  0.21912900  0.12514000  0.03416700  1
  O  O7  1  0.78087100  0.87486000  0.53416700  1
  O  O8  1  0.21912900  0.87486000  0.53416700  1
  O  O9  1  0.78087100  0.12514000  0.03416700  1
  O  O10  1  0.50000000  0.23657400  0.66544000  1
  O  O11  1  0.50000000  0.76342600  0.16544000  1
loop_
_geom_bond_atom_site_label_1
_geom_bond_atom_site_label_2
_geom_bond_distance
_geom_bond_site_symmetry_2
Na0 O3 2.336575 1_454
Na0 O4 2.336575 1_554
Na0 O5 2.355162 1_455
Na0 O2 2.355162 1_555
Na0 O1 2.557986 1_554
Na0 O6 2.570786 1_555
Na0 O9 2.570786 1_455
Na1 O5 2.336575 1_455
Na1 O2 2.336575 1_555
Na1 O3 2.355162 1_455
Na1 O4 2.355162 1_555
Na1 O0 2.557986 1_555
Na1 O8 2.570786 1_555
Na1 O7 2.570786 1_455
Ce0 O10 2.536290 1_555
Ce0 O5 2.556128 1_555
Ce0 O2 2.556128 1_555
Ce0 O9 2.560262 1_555
Ce0 O6 2.560262 1_555
Ce0 O11 2.634675 1_545
Ce0 O7 2.662732 1_545
Ce0 O8 2.662732 1_545
Ce0 O0 2.678890 1_655
Ce0 O0 2.678890 1_555
Ce1 O11 2.536288 1_556
Ce1 O3 2.556122 1_555
Ce1 O4 2.556122 1_555
Ce1 O8 2.560262 1_555
Ce1 O7 2.560262 1_555
Ce1 O10 2.634681 1_565
Ce1 O9 2.662736 1_566
Ce1 O6 2.662736 1_566
Ce1 O1 2.678890 1_555
Ce1 O1 2.678890 1_655
C0 O2 1.294611 1_555
C0 O5 1.294611 1_555
C0 O11 1.304255 1_555
C1 O3 1.294611 1_555
C1 O4 1.294611 1_555
C1 O10 1.304255 1_555
C2 O1 1.290017 1_545
C2 O6 1.302119 1_556
C2 O9 1.302119 1_456
C3 O0 1.290017 1_565
C3 O8 1.302119 1_555
C3 O7 1.302119 1_455
