# generated using pymatgen
data_Li3VFe(P2O7)2
_symmetry_space_group_name_H-M   'P 1'
_cell_length_a   5.00106037
_cell_length_b   10.91777809
_cell_length_c   11.00754566
_cell_angle_alpha   80.61976892
_cell_angle_beta   102.00291822
_cell_angle_gamma   77.58829018
_symmetry_Int_Tables_number   1
_chemical_formula_structural   Li3VFe(P2O7)2
_chemical_formula_sum   'Li6 V2 Fe2 P8 O28'
_cell_volume   560.40469252
_cell_formula_units_Z   2
loop_
 _symmetry_equiv_pos_site_id
 _symmetry_equiv_pos_as_xyz
  1  'x, y, z'
loop_
 _atom_site_type_symbol
 _atom_site_label
 _atom_site_symmetry_multiplicity
 _atom_site_fract_x
 _atom_site_fract_y
 _atom_site_fract_z
 _atom_site_occupancy
  Li  Li0  1  0.17194300  0.59547500  0.25801400  1
  Li  Li1  1  0.17844100  0.09323900  0.76056700  1
  Li  Li2  1  0.27388200  0.53244300  0.62797400  1
  Li  Li3  1  0.27883400  0.03309700  0.12767700  1
  Li  Li4  1  0.82122000  0.50621700  0.84933600  1
  Li  Li5  1  0.82386900  0.00575100  0.34836300  1
  V  V0  1  0.21208400  0.88999100  0.61439100  1
  V  V1  1  0.21304000  0.38982200  0.11502500  1
  Fe  Fe0  1  0.79725700  0.35607400  0.63131900  1
  Fe  Fe1  1  0.79811700  0.85518400  0.12973300  1
  P  P0  1  0.39106200  0.32962800  0.85410000  1
  P  P1  1  0.39193700  0.82927000  0.35267000  1
  P  P2  1  0.21638500  0.85185700  0.93306200  1
  P  P3  1  0.22112700  0.35038300  0.43345700  1
  P  P4  1  0.78959400  0.19027400  0.10266200  1
  P  P5  1  0.78785000  0.69117800  0.60194800  1
  P  P6  1  0.60054500  0.60129000  0.07945400  1
  P  P7  1  0.60549400  0.10084000  0.58076900  1
  O  O0  1  0.06898200  0.22849300  0.10249400  1
  O  O1  1  0.06950700  0.72669600  0.60269400  1
  O  O2  1  0.16197900  0.40497800  0.28988600  1
  O  O3  1  0.15548400  0.90515500  0.78957300  1
  O  O4  1  0.19589800  0.26988800  0.77073300  1
  O  O5  1  0.20039400  0.76805100  0.27004200  1
  O  O6  1  0.22872400  0.41174600  0.93028600  1
  O  O7  1  0.23140100  0.91259300  0.42798700  1
  O  O8  1  0.38300700  0.54154300  0.13125000  1
  O  O9  1  0.39001800  0.04098800  0.63332600  1
  O  O10  1  0.60113800  0.26327700  0.17262900  1
  O  O11  1  0.59998700  0.76852800  0.67017500  1
  O  O12  1  0.62169100  0.20976000  0.95488500  1
  O  O13  1  0.62141200  0.70937000  0.45511300  1
  O  O14  1  0.42583600  0.70886600  0.95241700  1
  O  O15  1  0.43361100  0.20772800  0.45290300  1
  O  O16  1  0.37835600  0.93330900  0.00671500  1
  O  O17  1  0.38501800  0.43148200  0.50803300  1
  O  O18  1  0.54944900  0.40912500  0.78084500  1
  O  O19  1  0.55517000  0.90679400  0.27959300  1
  O  O20  1  0.75513600  0.66542800  0.17440600  1
  O  O21  1  0.76235000  0.16498900  0.67473800  1
  O  O22  1  0.80401300  0.50682100  0.02895200  1
  O  O23  1  0.80987600  0.00452700  0.53092800  1
  O  O24  1  0.86285600  0.54587000  0.65706900  1
  O  O25  1  0.87146500  0.04440600  0.15565200  1
  O  O26  1  0.95559100  0.83732000  0.97688800  1
  O  O27  1  0.96054900  0.33503400  0.47583100  1
loop_
_geom_bond_atom_site_label_1
_geom_bond_atom_site_label_2
_geom_bond_distance
_geom_bond_site_symmetry_2
Li0 O5 1.943323 1_555
Li0 O8 2.005282 1_555
Li0 O20 2.015925 1_455
Li0 O2 2.065218 1_555
Li1 O4 1.969356 1_555
Li1 O9 2.006018 1_555
Li1 O21 2.019084 1_455
Li1 O3 2.057837 1_545
Li2 O17 1.945048 1_555
Li2 O18 2.010688 1_555
Li2 O1 2.092238 1_555
Li2 O24 2.123439 1_455
Li3 O16 1.929489 1_545
Li3 O19 2.018822 1_545
Li3 O25 2.103749 1_455
Li3 O0 2.110214 1_555
Li4 O22 1.997816 1_556
Li4 O18 1.998242 1_555
Li4 O6 2.013108 1_655
Li4 O24 2.152499 1_555
Li5 O19 2.003401 1_545
Li5 O7 2.007942 1_645
Li5 O23 2.023284 1_555
Li5 O25 2.167013 1_555
Fe0 O27 2.068305 1_555
Fe0 O21 2.116003 1_555
Fe0 O17 2.124217 1_555
Fe0 O4 2.159948 1_655
Fe0 O24 2.219635 1_555
Fe0 O18 2.330442 1_555
Fe1 O26 2.020128 1_554
Fe1 O20 2.117385 1_555
Fe1 O16 2.153951 1_555
Fe1 O5 2.178012 1_655
Fe1 O25 2.226699 1_565
Fe1 O19 2.314553 1_555
O0 P4 1.542021 1_455
O0 V1 2.055184 1_555
O1 P5 1.538043 1_455
O1 V0 2.070396 1_555
O2 P3 1.537220 1_555
O2 V1 2.021755 1_555
O3 P2 1.533037 1_555
O3 V0 2.033939 1_555
O4 P0 1.521962 1_555
O5 P1 1.517428 1_555
O6 P0 1.543235 1_555
O6 V1 2.028400 1_556
O7 P1 1.538892 1_555
O7 V0 2.051332 1_555
O8 P6 1.541413 1_555
O8 V1 2.033919 1_555
O9 P7 1.536780 1_555
O9 V0 2.053895 1_545
O10 P4 1.515179 1_555
O10 V1 2.031700 1_555
O11 P5 1.522831 1_555
O11 V0 2.008029 1_555
O12 P0 1.618462 1_555
O12 P4 1.624398 1_556
O13 P5 1.615368 1_555
O13 P1 1.623882 1_555
O14 P6 1.616662 1_556
O14 P2 1.635720 1_555
O15 P7 1.616148 1_555
O15 P3 1.638911 1_555
O16 P2 1.541354 1_554
O17 P3 1.548768 1_555
O18 P0 1.537530 1_555
O19 P1 1.542090 1_555
O20 P6 1.521736 1_555
O21 P7 1.520071 1_555
O22 P6 1.542478 1_555
O22 V1 2.095201 1_655
O23 P7 1.552644 1_555
O23 V0 2.056548 1_645
O24 P5 1.536685 1_555
O25 P4 1.536771 1_555
O26 P2 1.511520 1_655
O27 P3 1.505024 1_655
