# generated using pymatgen
data_BaGaBO3F2
_symmetry_space_group_name_H-M   'P 1'
_cell_length_a   4.94782376
_cell_length_b   4.94782376
_cell_length_c   9.86622300
_cell_angle_alpha   90.00000000
_cell_angle_beta   90.00000000
_cell_angle_gamma   119.99999679
_symmetry_Int_Tables_number   1
_chemical_formula_structural   BaGaBO3F2
_chemical_formula_sum   'Ba2 Ga2 B2 O6 F4'
_cell_volume   209.17511509
_cell_formula_units_Z   2
loop_
 _symmetry_equiv_pos_site_id
 _symmetry_equiv_pos_as_xyz
  1  'x, y, z'
loop_
 _atom_site_type_symbol
 _atom_site_label
 _atom_site_symmetry_multiplicity
 _atom_site_fract_x
 _atom_site_fract_y
 _atom_site_fract_z
 _atom_site_occupancy
  Ba  Ba0  1  0.00000000  0.00000000  0.50000000  1
  Ba  Ba1  1  0.00000000  0.00000000  0.00000000  1
  Ga  Ga0  1  0.66666700  0.33333300  0.75000000  1
  Ga  Ga1  1  0.33333300  0.66666700  0.25000000  1
  B  B0  1  0.33333300  0.66666700  0.75000000  1
  B  B1  1  0.66666700  0.33333300  0.25000000  1
  O  O0  1  0.31113500  0.93447800  0.75000000  1
  O  O1  1  0.62334300  0.68886500  0.75000000  1
  O  O2  1  0.93447800  0.62334300  0.25000000  1
  O  O3  1  0.37665700  0.31113500  0.25000000  1
  O  O4  1  0.06552200  0.37665700  0.75000000  1
  O  O5  1  0.68886500  0.06552200  0.25000000  1
  F  F0  1  0.66666700  0.33333300  0.95225100  1
  F  F1  1  0.33333300  0.66666700  0.45225100  1
  F  F2  1  0.66666700  0.33333300  0.54774900  1
  F  F3  1  0.33333300  0.66666700  0.04774900  1
loop_
_geom_bond_atom_site_label_1
_geom_bond_atom_site_label_2
_geom_bond_distance
_geom_bond_site_symmetry_2
Ba0 F2 2.895210 1_455
Ba0 F1 2.895210 1_545
Ba0 F2 2.895214 1_445
Ba0 F1 2.895214 1_555
Ba0 F1 2.895214 1_445
Ba0 F2 2.895214 1_555
Ba0 O0 3.009643 1_545
Ba0 O5 3.009643 1_455
Ba0 O4 3.009643 1_555
Ba0 O2 3.009643 1_445
Ba0 O3 3.009643 1_555
Ba0 O1 3.009643 1_445
Ba1 F3 2.895210 1_545
Ba1 F0 2.895210 1_454
Ba1 F3 2.895214 1_555
Ba1 F3 2.895214 1_445
Ba1 F0 2.895214 1_554
Ba1 F0 2.895214 1_444
Ba1 O0 3.009643 1_544
Ba1 O5 3.009643 1_455
Ba1 O4 3.009643 1_554
Ba1 O2 3.009643 1_445
Ba1 O3 3.009643 1_555
Ba1 O1 3.009643 1_444
Ga0 O4 1.875495 1_655
Ga0 O0 1.875497 1_545
Ga0 O1 1.875500 1_555
Ga1 O2 1.875495 1_455
Ga1 O5 1.875497 1_565
Ga1 O3 1.875500 1_555
B0 O0 1.383272 1_555
B0 O4 1.383274 1_555
B0 O1 1.383277 1_555
B1 O5 1.383272 1_555
B1 O2 1.383274 1_555
B1 O3 1.383277 1_555
F0 Ga0 1.995453 1_555
F1 Ga1 1.995453 1_555
F2 Ga0 1.995453 1_555
F3 Ga1 1.995453 1_555
