# generated using pymatgen
data_Li4MnCo2O7
_symmetry_space_group_name_H-M   'P 1'
_cell_length_a   9.84701762
_cell_length_b   9.84701762
_cell_length_c   9.76463832
_cell_angle_alpha   66.05079435
_cell_angle_beta   66.05079435
_cell_angle_gamma   17.06033031
_symmetry_Int_Tables_number   1
_chemical_formula_structural   Li4MnCo2O7
_chemical_formula_sum   'Li8 Mn2 Co4 O14'
_cell_volume   253.29659155
_cell_formula_units_Z   2
loop_
 _symmetry_equiv_pos_site_id
 _symmetry_equiv_pos_as_xyz
  1  'x, y, z'
loop_
 _atom_site_type_symbol
 _atom_site_label
 _atom_site_symmetry_multiplicity
 _atom_site_fract_x
 _atom_site_fract_y
 _atom_site_fract_z
 _atom_site_occupancy
  Li  Li0  1  0.35476800  0.35476800  0.07304600  1
  Li  Li1  1  0.07459100  0.07459100  0.22423700  1
  Li  Li2  1  0.77588600  0.77588600  0.37319100  1
  Li  Li3  1  0.50772400  0.50772400  0.50095700  1
  Li  Li4  1  0.21488400  0.21488400  0.63703000  1
  Li  Li5  1  0.93335900  0.93335900  0.77334000  1
  Li  Li6  1  0.64114200  0.64114200  0.92157200  1
  Li  Li7  1  0.14100500  0.14100500  0.42701700  1
  Mn  Mn0  1  0.99983700  0.99983700  0.99579000  1
  Mn  Mn1  1  0.71042100  0.71042100  0.15245300  1
  Co  Co0  1  0.42767500  0.42767500  0.28862700  1
  Co  Co1  1  0.85744900  0.85744900  0.57276600  1
  Co  Co2  1  0.58157900  0.58157900  0.68732100  1
  Co  Co3  1  0.28603800  0.28603800  0.85856800  1
  O  O0  1  0.46616000  0.46616000  0.90781200  1
  O  O1  1  0.18364200  0.18364200  0.04469300  1
  O  O2  1  0.90153300  0.90153300  0.17623400  1
  O  O3  1  0.61572200  0.61572200  0.30390700  1
  O  O4  1  0.32695800  0.32695800  0.46439300  1
  O  O5  1  0.03664000  0.03664000  0.61373400  1
  O  O6  1  0.75505500  0.75505500  0.75507400  1
  O  O7  1  0.24644300  0.24644300  0.23688400  1
  O  O8  1  0.95926300  0.95926300  0.38858800  1
  O  O9  1  0.67613700  0.67613700  0.54751000  1
  O  O10  1  0.38749000  0.38749000  0.67882700  1
  O  O11  1  0.09598900  0.09598900  0.83238100  1
  O  O12  1  0.81290300  0.81290300  0.96808900  1
  O  O13  1  0.52970900  0.52970900  0.09595700  1
loop_
_geom_bond_atom_site_label_1
_geom_bond_atom_site_label_2
_geom_bond_distance
_geom_bond_site_symmetry_2
Li0 O7 2.059042 1_555
Li0 O0 2.106262 1_554
Li0 O12 2.129453 1_454
Li0 O12 2.129453 1_544
Li0 O2 2.175218 1_545
Li0 O2 2.175218 1_455
Li1 O3 1.972791 1_455
Li1 O3 1.972791 1_545
Li1 O1 2.127856 1_555
Li1 O8 2.159039 1_445
Li1 O13 2.316330 1_455
Li1 O13 2.316330 1_545
Li2 O9 1.989184 1_555
Li2 O4 2.154779 1_565
Li2 O4 2.154779 1_655
Li2 O7 2.204611 1_655
Li2 O7 2.204611 1_565
Li2 O2 2.413207 1_555
Li3 O5 2.042638 1_565
Li3 O5 2.042638 1_655
Li3 O3 2.191808 1_555
Li3 O8 2.253512 1_545
Li3 O8 2.253512 1_455
Li3 O10 2.271848 1_555
Li4 O9 2.002125 1_545
Li4 O9 2.002125 1_455
Li4 O4 2.141381 1_555
Li4 O6 2.194183 1_545
Li4 O6 2.194183 1_455
Li4 O11 2.318320 1_555
Li5 O5 1.975230 1_665
Li5 O10 2.111872 1_655
Li5 O10 2.111872 1_565
Li5 O0 2.225821 1_655
Li5 O0 2.225821 1_565
Li5 O12 2.336162 1_555
Li6 O11 2.072193 1_655
Li6 O11 2.072193 1_565
Li6 O13 2.139129 1_556
Li6 O6 2.145754 1_555
Li6 O1 2.254069 1_656
Li6 O1 2.254069 1_566
Li7 O3 2.075308 1_545
Li7 O3 2.075308 1_455
Li7 O5 2.100809 1_555
Li7 O7 2.129325 1_555
Li7 O9 2.155638 1_455
Li7 O9 2.155638 1_545
Mn0 O11 1.897343 1_665
Mn0 O0 1.940144 1_655
Mn0 O0 1.940144 1_565
Mn0 O13 1.973748 1_656
Mn0 O13 1.973748 1_566
Mn0 O2 2.000201 1_556
Mn1 O3 1.830201 1_555
Mn1 O7 1.944250 1_655
Mn1 O7 1.944250 1_565
Mn1 O1 1.990760 1_565
Mn1 O1 1.990760 1_655
Mn1 O12 2.067593 1_554
Co0 O8 1.989365 1_545
Co0 O8 1.989365 1_455
Co0 O4 2.007402 1_555
Co0 O2 2.013897 1_545
Co0 O2 2.013897 1_455
Co0 O13 2.102229 1_555
Co1 O10 2.011394 1_655
Co1 O10 2.011394 1_565
Co1 O4 2.030213 1_565
Co1 O4 2.030213 1_655
Co1 O6 2.057091 1_555
Co1 O8 2.058841 1_555
Co2 O9 1.786445 1_555
Co2 O5 1.982934 1_655
Co2 O5 1.982934 1_565
Co2 O11 2.131864 1_565
Co2 O11 2.131864 1_655
Co2 O0 2.390702 1_555
Co3 O12 2.002546 1_545
Co3 O12 2.002546 1_455
Co3 O6 2.004844 1_455
Co3 O6 2.004844 1_545
Co3 O10 2.034119 1_555
Co3 O1 2.074799 1_556
