# generated using pymatgen
data_Dy3BeCrS7
_symmetry_space_group_name_H-M   'P 1'
_cell_length_a   9.58398347
_cell_length_b   9.58398347
_cell_length_c   6.01622800
_cell_angle_alpha   90.00000000
_cell_angle_beta   90.00000000
_cell_angle_gamma   119.99999633
_symmetry_Int_Tables_number   1
_chemical_formula_structural   Dy3BeCrS7
_chemical_formula_sum   'Dy6 Be2 Cr2 S14'
_cell_volume   478.57173620
_cell_formula_units_Z   2
loop_
 _symmetry_equiv_pos_site_id
 _symmetry_equiv_pos_as_xyz
  1  'x, y, z'
loop_
 _atom_site_type_symbol
 _atom_site_label
 _atom_site_symmetry_multiplicity
 _atom_site_fract_x
 _atom_site_fract_y
 _atom_site_fract_z
 _atom_site_occupancy
  Dy  Dy0  1  0.75609900  0.14884600  0.23387100  1
  Dy  Dy1  1  0.39274600  0.24390100  0.23387100  1
  Dy  Dy2  1  0.85115400  0.60725400  0.23387100  1
  Dy  Dy3  1  0.24390100  0.85115400  0.73387100  1
  Dy  Dy4  1  0.60725400  0.75609900  0.73387100  1
  Dy  Dy5  1  0.14884600  0.39274600  0.73387100  1
  Be  Be0  1  0.66666700  0.33333300  0.64984800  1
  Be  Be1  1  0.33333300  0.66666700  0.14984800  1
  Cr  Cr0  1  0.00000000  0.00000000  0.04067300  1
  Cr  Cr1  1  0.00000000  0.00000000  0.54067300  1
  S  S0  1  0.86201000  0.08945100  0.79966400  1
  S  S1  1  0.22744000  0.13799000  0.79966400  1
  S  S2  1  0.91054900  0.77256000  0.79966400  1
  S  S3  1  0.13799000  0.91054900  0.29966400  1
  S  S4  1  0.77256000  0.86201000  0.29966400  1
  S  S5  1  0.08945100  0.22744000  0.29966400  1
  S  S6  1  0.89789500  0.41851900  0.51366500  1
  S  S7  1  0.52062400  0.10210500  0.51366500  1
  S  S8  1  0.58148100  0.47937600  0.51366500  1
  S  S9  1  0.10210500  0.58148100  0.01366500  1
  S  S10  1  0.47937600  0.89789500  0.01366500  1
  S  S11  1  0.41851900  0.52062400  0.01366500  1
  S  S12  1  0.66666700  0.33333300  0.99995800  1
  S  S13  1  0.33333300  0.66666700  0.49995800  1
loop_
_geom_bond_atom_site_label_1
_geom_bond_atom_site_label_2
_geom_bond_distance
_geom_bond_site_symmetry_2
Dy0 S7 2.667643 1_555
Dy0 S12 2.712342 1_554
Dy0 S6 2.801402 1_555
Dy0 S4 2.858747 1_545
Dy0 S10 2.862646 1_545
Dy0 S5 2.919686 1_655
Dy0 S0 2.959091 1_554
Dy1 S8 2.667645 1_555
Dy1 S12 2.712357 1_554
Dy1 S7 2.801409 1_555
Dy1 S5 2.858728 1_555
Dy1 S11 2.862642 1_555
Dy1 S3 2.919680 1_545
Dy1 S1 2.959091 1_554
Dy2 S6 2.667650 1_555
Dy2 S12 2.712354 1_554
Dy2 S8 2.801402 1_555
Dy2 S3 2.858737 1_655
Dy2 S9 2.862651 1_655
Dy2 S4 2.919667 1_555
Dy2 S2 2.959091 1_554
Dy3 S10 2.667643 1_556
Dy3 S13 2.712342 1_555
Dy3 S9 2.801402 1_556
Dy3 S1 2.858747 1_565
Dy3 S7 2.862646 1_565
Dy3 S2 2.919686 1_455
Dy3 S3 2.959091 1_555
Dy4 S11 2.667645 1_556
Dy4 S13 2.712357 1_555
Dy4 S10 2.801409 1_556
Dy4 S2 2.858728 1_555
Dy4 S8 2.862642 1_555
Dy4 S0 2.919680 1_565
Dy4 S4 2.959091 1_555
Dy5 S9 2.667650 1_556
Dy5 S13 2.712354 1_555
Dy5 S11 2.801402 1_556
Dy5 S0 2.858737 1_455
Dy5 S6 2.862651 1_455
Dy5 S1 2.919667 1_555
Dy5 S5 2.959091 1_555
Be0 S12 2.106342 1_555
Be0 S6 2.107032 1_555
Be0 S7 2.107034 1_555
Be0 S8 2.107040 1_555
Be1 S13 2.106342 1_555
Be1 S9 2.107032 1_555
Be1 S10 2.107034 1_555
Be1 S11 2.107040 1_555
Cr0 S2 2.391670 1_444
Cr0 S1 2.391671 1_554
Cr0 S0 2.391677 1_454
Cr0 S5 2.458762 1_555
Cr0 S4 2.458763 1_445
Cr0 S3 2.458769 1_545
Cr1 S5 2.391670 1_555
Cr1 S4 2.391671 1_445
Cr1 S3 2.391677 1_545
Cr1 S2 2.458762 1_445
Cr1 S1 2.458763 1_555
Cr1 S0 2.458769 1_455
