# generated using pymatgen
data_CrNiO4
_symmetry_space_group_name_H-M   'P 1'
_cell_length_a   4.90740825
_cell_length_b   4.90740774
_cell_length_c   6.09936133
_cell_angle_alpha   90.00000000
_cell_angle_beta   90.00000000
_cell_angle_gamma   112.40249124
_symmetry_Int_Tables_number   1
_chemical_formula_structural   CrNiO4
_chemical_formula_sum   'Cr2 Ni2 O8'
_cell_volume   135.80302713
_cell_formula_units_Z   2
loop_
 _symmetry_equiv_pos_site_id
 _symmetry_equiv_pos_as_xyz
  1  'x, y, z'
loop_
 _atom_site_type_symbol
 _atom_site_label
 _atom_site_symmetry_multiplicity
 _atom_site_fract_x
 _atom_site_fract_y
 _atom_site_fract_z
 _atom_site_occupancy
  Cr  Cr0  1  0.64227638  0.35772262  0.25000000  1
  Cr  Cr1  1  0.35772362  0.64227738  0.75000000  1
  Ni  Ni0  1  0.00000000  -0.00000000  0.50000000  1
  Ni  Ni1  1  0.00000000  -0.00000000  0.00000000  1
  O  O0  1  0.21983024  0.26803486  0.75000000  1
  O  O1  1  0.78016976  0.73196514  0.25000000  1
  O  O2  1  0.26803386  0.21983124  0.25000000  1
  O  O3  1  0.73196614  0.78016876  0.75000000  1
  O  O4  1  0.24100100  0.75900000  0.96503443  1
  O  O5  1  0.75899900  0.24100000  0.46503443  1
  O  O6  1  0.75899900  0.24100000  0.03496557  1
  O  O7  1  0.24100100  0.75900000  0.53496557  1
loop_
_geom_bond_atom_site_label_1
_geom_bond_atom_site_label_2
_geom_bond_distance
_geom_bond_site_symmetry_2
Cr0 O5 1.620656 1_555
Cr0 O6 1.620656 1_555
Cr0 O1 1.698113 1_555
Cr0 O2 1.698114 1_555
Cr1 O4 1.620656 1_555
Cr1 O7 1.620656 1_555
Cr1 O0 1.698113 1_555
Cr1 O3 1.698114 1_555
Ni0 O7 1.977155 1_545
Ni0 O5 1.977155 1_455
Ni0 O3 2.034086 1_445
Ni0 O2 2.034086 1_555
Ni0 O1 2.034087 1_445
Ni0 O0 2.034087 1_555
Ni1 O4 1.977155 1_544
Ni1 O6 1.977155 1_455
Ni1 O3 2.034086 1_444
Ni1 O2 2.034086 1_555
Ni1 O1 2.034087 1_445
Ni1 O0 2.034087 1_554
