# generated using pymatgen
data_LiMn2O4
_symmetry_space_group_name_H-M   'P 1'
_cell_length_a   6.04904300
_cell_length_b   8.22519344
_cell_length_c   10.23491844
_cell_angle_alpha   113.69360855
_cell_angle_beta   104.51434668
_cell_angle_gamma   89.50460771
_symmetry_Int_Tables_number   1
_chemical_formula_structural   LiMn2O4
_chemical_formula_sum   'Li6 Mn12 O24'
_cell_volume   448.98572949
_cell_formula_units_Z   6
loop_
 _symmetry_equiv_pos_site_id
 _symmetry_equiv_pos_as_xyz
  1  'x, y, z'
loop_
 _atom_site_type_symbol
 _atom_site_label
 _atom_site_symmetry_multiplicity
 _atom_site_fract_x
 _atom_site_fract_y
 _atom_site_fract_z
 _atom_site_occupancy
  Li  Li0  1  0.93310100  0.04244800  0.83660600  1
  Li  Li1  1  0.59451900  0.71192700  0.17140800  1
  Li  Li2  1  0.06803000  0.95884300  0.16393900  1
  Li  Li3  1  0.73475100  0.62039000  0.49559700  1
  Li  Li4  1  0.41195700  0.29007600  0.83124500  1
  Li  Li5  1  0.26050300  0.37413400  0.50207700  1
  Mn  Mn0  1  0.82851900  0.33298600  0.16551700  1
  Mn  Mn1  1  0.50137700  0.00036900  0.99959100  1
  Mn  Mn2  1  0.67633000  0.67034900  0.83919400  1
  Mn  Mn3  1  0.15891900  0.66612400  0.33209100  1
  Mn  Mn4  1  0.17623800  0.66831000  0.83875500  1
  Mn  Mn5  1  0.00584200  0.50365600  0.00291000  1
  Mn  Mn6  1  0.99820900  0.99908800  0.49902500  1
  Mn  Mn7  1  0.32762100  0.33013400  0.16221100  1
  Mn  Mn8  1  0.83943500  0.33174600  0.66804500  1
  Mn  Mn9  1  0.49654400  0.99784200  0.49618500  1
  Mn  Mn10  1  0.33639100  0.83005700  0.66520000  1
  Mn  Mn11  1  0.66106100  0.16594700  0.33345900  1
  O  O0  1  0.84542900  0.08778300  0.65461600  1
  O  O1  1  0.15980100  0.44192100  0.85164000  1
  O  O2  1  0.48564400  0.23922300  0.00820700  1
  O  O3  1  0.51758000  0.76358600  0.99359800  1
  O  O4  1  0.98958000  0.23715800  0.50611100  1
  O  O5  1  0.33736500  0.09214000  0.15115600  1
  O  O6  1  0.45334900  0.75376400  0.48677600  1
  O  O7  1  0.01968100  0.27581000  0.02102800  1
  O  O8  1  0.29838200  0.57165100  0.16307300  1
  O  O9  1  0.69172400  0.93743600  0.35671700  1
  O  O10  1  0.17419100  0.42364200  0.31859800  1
  O  O11  1  0.30765700  0.05653800  0.64119000  1
  O  O12  1  0.63212500  0.39438100  0.30412300  1
  O  O13  1  0.66247300  0.90783700  0.84630700  1
  O  O14  1  0.98214800  0.72874000  0.98373300  1
  O  O15  1  0.37186000  0.60552200  0.69515600  1
  O  O16  1  0.00905400  0.75446200  0.48730500  1
  O  O17  1  0.14934300  0.90350600  0.34077000  1
  O  O18  1  0.71129600  0.43436000  0.84775500  1
  O  O19  1  0.21187400  0.90593200  0.83992900  1
  O  O20  1  0.86877000  0.57301600  0.17085700  1
  O  O21  1  0.78950100  0.09389100  0.15998800  1
  O  O22  1  0.83110200  0.57917100  0.68429400  1
  O  O23  1  0.51593300  0.22932400  0.49182300  1
loop_
_geom_bond_atom_site_label_1
_geom_bond_atom_site_label_2
_geom_bond_distance
_geom_bond_site_symmetry_2
Li0 O0 1.987316 1_555
Li0 O19 2.018623 1_645
Li0 O13 2.028995 1_545
Li0 O7 2.032599 1_656
Li1 O3 1.975496 1_554
Li1 O9 2.003976 1_555
Li1 O20 2.006082 1_555
Li1 O8 2.104158 1_555
Li2 O17 1.984095 1_555
Li2 O14 1.996242 1_454
Li2 O21 2.010909 1_465
Li2 O5 2.031395 1_565
Li3 O6 2.019759 1_555
Li3 O22 2.035475 1_555
Li3 O16 2.038117 1_655
Li3 O12 2.040565 1_555
Li4 O1 1.961410 1_555
Li4 O2 1.963421 1_556
Li4 O11 2.067481 1_555
Li4 O18 2.106720 1_555
Li5 O23 1.940633 1_555
Li5 O4 2.014952 1_455
Li5 O10 2.020979 1_555
Li5 O15 2.076861 1_555
Mn0 O21 1.959164 1_555
Mn0 O20 1.968508 1_555
Mn0 O12 1.984304 1_555
Mn0 O7 2.008496 1_655
Mn0 O10 2.197476 1_655
Mn0 O2 2.201063 1_555
Mn1 O3 1.926178 1_545
Mn1 O2 1.933469 1_556
Mn1 O5 1.943673 1_556
Mn1 O13 1.945250 1_545
Mn1 O21 1.974453 1_556
Mn1 O19 1.977232 1_545
Mn2 O13 1.927167 1_555
Mn2 O22 1.930980 1_555
Mn2 O3 1.944627 1_555
Mn2 O15 1.968236 1_555
Mn2 O14 1.978356 1_555
Mn2 O18 1.985047 1_555
Mn3 O16 1.912120 1_555
Mn3 O17 1.919579 1_555
Mn3 O10 1.946105 1_555
Mn3 O6 1.972253 1_555
Mn3 O20 1.986441 1_455
Mn3 O8 1.986916 1_555
Mn4 O1 1.924007 1_555
Mn4 O19 1.963095 1_555
Mn4 O15 2.019459 1_555
Mn4 O14 2.024259 1_455
Mn4 O3 2.186028 1_555
Mn4 O22 2.199095 1_455
Mn5 O1 1.898665 1_554
Mn5 O14 1.939059 1_454
Mn5 O7 1.955087 1_555
Mn5 O20 1.971231 1_455
Mn5 O18 1.973084 1_454
Mn5 O8 1.989388 1_555
Mn6 O0 1.927326 1_565
Mn6 O4 1.930910 1_565
Mn6 O17 1.945192 1_655
Mn6 O16 1.968479 1_655
Mn6 O9 1.970995 1_555
Mn6 O11 1.985402 1_665
Mn7 O5 1.916143 1_555
Mn7 O2 1.937249 1_555
Mn7 O10 1.938492 1_555
Mn7 O12 1.959757 1_555
Mn7 O7 1.975798 1_555
Mn7 O8 1.989537 1_555
Mn8 O0 1.956119 1_555
Mn8 O4 1.970551 1_555
Mn8 O22 1.975429 1_555
Mn8 O18 2.037622 1_555
Mn8 O23 2.197802 1_555
Mn8 O1 2.223551 1_655
Mn9 O23 1.927617 1_565
Mn9 O9 1.985701 1_555
Mn9 O6 1.987219 1_555
Mn9 O11 2.001440 1_565
Mn9 O17 2.214711 1_555
Mn9 O0 2.231166 1_565
Mn10 O11 1.975275 1_565
Mn10 O19 1.981166 1_555
Mn10 O6 1.986979 1_555
Mn10 O15 1.991513 1_555
Mn10 O16 2.219628 1_555
Mn10 O13 2.229789 1_555
Mn11 O23 1.922449 1_555
Mn11 O21 1.986184 1_555
Mn11 O9 1.988766 1_545
Mn11 O12 2.018038 1_555
Mn11 O4 2.200644 1_555
Mn11 O5 2.227747 1_555
