# generated using pymatgen
data_Ca2Ta2CoO8
_symmetry_space_group_name_H-M   'P 1'
_cell_length_a   6.34567527
_cell_length_b   10.93018659
_cell_length_c   11.25258470
_cell_angle_alpha   117.27562529
_cell_angle_beta   106.37631168
_cell_angle_gamma   89.92252080
_symmetry_Int_Tables_number   1
_chemical_formula_structural   Ca2Ta2CoO8
_chemical_formula_sum   'Ca8 Ta8 Co4 O32'
_cell_volume   658.02780869
_cell_formula_units_Z   4
loop_
 _symmetry_equiv_pos_site_id
 _symmetry_equiv_pos_as_xyz
  1  'x, y, z'
loop_
 _atom_site_type_symbol
 _atom_site_label
 _atom_site_symmetry_multiplicity
 _atom_site_fract_x
 _atom_site_fract_y
 _atom_site_fract_z
 _atom_site_occupancy
  Ca  Ca0  1  0.46918600  0.41473700  0.58477200  1
  Ca  Ca1  1  0.47013800  0.91500100  0.58596000  1
  Ca  Ca2  1  0.88468600  0.33738500  0.41516400  1
  Ca  Ca3  1  0.88498400  0.83698300  0.41448700  1
  Ca  Ca4  1  0.52818700  0.58771500  0.41620500  1
  Ca  Ca5  1  0.52979700  0.08844800  0.41788800  1
  Ca  Ca6  1  0.11222300  0.66423300  0.58329600  1
  Ca  Ca7  1  0.11232400  0.16438100  0.58445400  1
  Ta  Ta0  1  0.25948000  0.23629400  0.22293400  1
  Ta  Ta1  1  0.26086700  0.73676300  0.22360300  1
  Ta  Ta2  1  0.03602200  0.51560800  0.77711900  1
  Ta  Ta3  1  0.03648200  0.01571700  0.77765600  1
  Ta  Ta4  1  0.73806300  0.76610500  0.77812700  1
  Ta  Ta5  1  0.73809500  0.26619400  0.77844600  1
  Ta  Ta6  1  0.96168900  0.48641600  0.22273200  1
  Ta  Ta7  1  0.96116500  0.98635100  0.22287100  1
  Co  Co0  1  0.63663500  0.12559800  0.00087300  1
  Co  Co1  1  0.36124900  0.87588000  0.00028500  1
  Co  Co2  1  0.63748900  0.62717600  0.00041700  1
  Co  Co3  1  0.36019500  0.37657000  0.99954400  1
  O  O0  1  0.19794300  0.52732300  0.14107100  1
  O  O1  1  0.19316200  0.02706600  0.13930800  1
  O  O2  1  0.05333300  0.72481800  0.86143600  1
  O  O3  1  0.05457700  0.22462100  0.86079000  1
  O  O4  1  0.80326900  0.47475800  0.86064500  1
  O  O5  1  0.80060700  0.97524800  0.85982700  1
  O  O6  1  0.94285400  0.27765400  0.14028600  1
  O  O7  1  0.94345600  0.77744400  0.14120900  1
  O  O8  1  0.40688300  0.26582500  0.11280200  1
  O  O9  1  0.40896700  0.76637000  0.11375700  1
  O  O10  1  0.29439600  0.48542500  0.88661200  1
  O  O11  1  0.29414600  0.98537300  0.88719300  1
  O  O12  1  0.58948800  0.73619800  0.88787900  1
  O  O13  1  0.59008700  0.23667300  0.88838500  1
  O  O14  1  0.70614700  0.51810100  0.11350000  1
  O  O15  1  0.70303300  0.01638100  0.11322400  1
  O  O16  1  0.24057100  0.43369500  0.36254500  1
  O  O17  1  0.24111500  0.93416600  0.36232700  1
  O  O18  1  0.87828600  0.81826500  0.63905000  1
  O  O19  1  0.87765800  0.31831600  0.63794000  1
  O  O20  1  0.11957800  0.18363100  0.36231000  1
  O  O21  1  0.12080900  0.68369500  0.36269500  1
  O  O22  1  0.75707300  0.56855600  0.63860600  1
  O  O23  1  0.75689800  0.06885300  0.63863400  1
  O  O24  1  0.83621700  0.51562600  0.36925700  1
  O  O25  1  0.83675300  0.01577100  0.36982400  1
  O  O26  1  0.46683000  0.73652600  0.63116700  1
  O  O27  1  0.46669700  0.23738600  0.63182100  1
  O  O28  1  0.16036000  0.48681400  0.63044100  1
  O  O29  1  0.15996400  0.98606200  0.63030200  1
  O  O30  1  0.53066000  0.26512900  0.36958300  1
  O  O31  1  0.53146000  0.76616200  0.37076700  1
loop_
_geom_bond_atom_site_label_1
_geom_bond_atom_site_label_2
_geom_bond_distance
_geom_bond_site_symmetry_2
Ca0 O28 2.217621 1_555
Ca0 O22 2.231989 1_555
Ca0 O27 2.232412 1_555
Ca0 O30 2.364588 1_555
Ca0 O16 2.613263 1_555
Ca0 O19 2.807726 1_555
Ca0 O20 2.942264 1_555
Ca0 O4 2.997918 1_555
Ca1 O29 2.218277 1_555
Ca1 O23 2.230917 1_565
Ca1 O26 2.231671 1_555
Ca1 O31 2.362333 1_555
Ca1 O17 2.628417 1_555
Ca1 O18 2.807469 1_555
Ca1 O21 2.944603 1_555
Ca1 O5 2.971164 1_555
Ca2 O30 2.217545 1_555
Ca2 O20 2.230865 1_655
Ca2 O24 2.233416 1_555
Ca2 O28 2.363852 1_655
Ca2 O19 2.621346 1_555
Ca2 O16 2.809004 1_655
Ca2 O22 2.946470 1_555
Ca2 O6 2.986967 1_555
Ca3 O31 2.215214 1_555
Ca3 O21 2.230763 1_655
Ca3 O25 2.230897 1_565
Ca3 O29 2.364057 1_655
Ca3 O18 2.638823 1_555
Ca3 O17 2.811725 1_655
Ca3 O23 2.955841 1_565
Ca3 O7 2.970840 1_555
Ca4 O24 2.217483 1_555
Ca4 O16 2.232695 1_555
Ca4 O31 2.232996 1_555
Ca4 O26 2.360402 1_555
Ca4 O22 2.616528 1_555
Ca4 O21 2.799948 1_555
Ca4 O18 2.942084 1_555
Ca4 O0 2.980694 1_555
Ca5 O25 2.216691 1_555
Ca5 O17 2.233070 1_545
Ca5 O30 2.233527 1_555
Ca5 O27 2.357008 1_555
Ca5 O23 2.600188 1_555
Ca5 O20 2.814377 1_555
Ca5 O19 2.923591 1_555
Ca5 O1 3.023283 1_555
Ca6 O26 2.215675 1_555
Ca6 O18 2.232067 1_455
Ca6 O28 2.232768 1_555
Ca6 O24 2.355873 1_455
Ca6 O21 2.602012 1_555
Ca6 O22 2.820258 1_455
Ca6 O16 2.929429 1_555
Ca6 O2 3.022091 1_555
Ca7 O27 2.217388 1_555
Ca7 O19 2.231836 1_455
Ca7 O29 2.233487 1_545
Ca7 O25 2.357938 1_455
Ca7 O20 2.615689 1_555
Ca7 O23 2.813187 1_455
Ca7 O17 2.937502 1_545
Ca7 O3 3.000353 1_555
Co0 O15 2.069399 1_555
Co0 O13 2.088088 1_554
Co0 O5 2.199619 1_544
Co0 O6 2.213427 1_555
Co0 O8 2.306762 1_555
Co0 O11 2.313690 1_544
Co1 O11 2.078942 1_554
Co1 O9 2.082442 1_555
Co1 O1 2.209625 1_565
Co1 O2 2.215410 1_554
Co1 O12 2.299036 1_554
Co1 O15 2.311569 1_565
Co2 O12 2.069052 1_554
Co2 O14 2.075285 1_555
Co2 O7 2.206003 1_555
Co2 O4 2.209636 1_554
Co2 O9 2.302743 1_555
Co2 O10 2.323556 1_554
Co3 O10 2.071255 1_555
Co3 O8 2.092187 1_556
Co3 O0 2.196876 1_556
Co3 O3 2.209476 1_555
Co3 O13 2.302340 1_555
Co3 O14 2.336754 1_556
O0 Ta1 2.026633 1_555
O0 Ta6 2.108806 1_455
O1 Ta0 2.024702 1_555
O1 Ta7 2.101286 1_445
O2 Ta2 2.023527 1_555
O2 Ta4 2.100619 1_455
O3 Ta3 2.020992 1_555
O3 Ta5 2.105325 1_455
O4 Ta5 2.019309 1_555
O4 Ta2 2.105563 1_655
O5 Ta4 2.024571 1_555
O5 Ta3 2.109040 1_665
O6 Ta6 2.019801 1_555
O6 Ta0 2.106040 1_655
O7 Ta7 2.022437 1_555
O7 Ta1 2.106338 1_655
O8 Ta0 1.880422 1_555
O9 Ta1 1.881019 1_555
O10 Ta2 1.883347 1_555
O11 Ta3 1.881339 1_565
O12 Ta4 1.883713 1_555
O13 Ta5 1.881091 1_555
O14 Ta6 1.877495 1_555
O15 Ta7 1.882351 1_545
O16 Ta0 2.033872 1_555
O16 Ta6 2.279741 1_455
O17 Ta1 2.032361 1_555
O17 Ta7 2.278024 1_455
O18 Ta3 2.033698 1_665
O18 Ta4 2.273832 1_555
O19 Ta2 2.033677 1_655
O19 Ta5 2.285851 1_555
O20 Ta7 2.034097 1_445
O20 Ta0 2.278835 1_555
O21 Ta6 2.036208 1_455
O21 Ta1 2.279013 1_555
O22 Ta4 2.034886 1_555
O22 Ta2 2.272841 1_655
O23 Ta5 2.033910 1_555
O23 Ta3 2.279705 1_655
O24 Ta6 1.926515 1_555
O25 Ta7 1.925922 1_545
O26 Ta4 1.925637 1_555
O27 Ta5 1.926230 1_555
O28 Ta2 1.924401 1_555
O29 Ta3 1.925552 1_565
O30 Ta0 1.925403 1_555
O31 Ta1 1.924656 1_555
