# generated using pymatgen
data_Li9Mn2Co5O16
_symmetry_space_group_name_H-M   'P 1'
_cell_length_a   2.90922000
_cell_length_b   5.14111389
_cell_length_c   19.29965700
_cell_angle_alpha   94.69826495
_cell_angle_beta   91.70025146
_cell_angle_gamma   90.65495036
_symmetry_Int_Tables_number   1
_chemical_formula_structural   Li9Mn2Co5O16
_chemical_formula_sum   'Li9 Mn2 Co5 O16'
_cell_volume   287.53342893
_cell_formula_units_Z   1
loop_
 _symmetry_equiv_pos_site_id
 _symmetry_equiv_pos_as_xyz
  1  'x, y, z'
loop_
 _atom_site_type_symbol
 _atom_site_label
 _atom_site_symmetry_multiplicity
 _atom_site_fract_x
 _atom_site_fract_y
 _atom_site_fract_z
 _atom_site_occupancy
  Li  Li0  1  0.01323300  0.62138300  0.87216300  1
  Li  Li1  1  0.48746800  0.74890900  0.75675600  1
  Li  Li2  1  0.99010800  0.87747800  0.62718500  1
  Li  Li3  1  0.48193500  0.99821900  0.49607100  1
  Li  Li4  1  0.99636100  0.12790800  0.37385700  1
  Li  Li5  1  0.50389100  0.24720900  0.24957500  1
  Li  Li6  1  0.00465300  0.37748200  0.12539300  1
  Li  Li7  1  0.51291700  0.49469400  0.99565400  1
  Li  Li8  1  0.49954800  0.13298800  0.87705900  1
  Mn  Mn0  1  0.01055400  0.01161000  0.99681400  1
  Mn  Mn1  1  0.49198400  0.37408700  0.62528800  1
  Co  Co0  1  0.99978500  0.22854700  0.75954000  1
  Co  Co1  1  0.98087700  0.50828100  0.49775400  1
  Co  Co2  1  0.49242600  0.62623700  0.37454200  1
  Co  Co3  1  0.00846900  0.74090100  0.25056000  1
  Co  Co4  1  0.51352000  0.87274400  0.12538700  1
  O  O0  1  0.49824000  0.83535000  0.94609300  1
  O  O1  1  0.00116000  0.94623100  0.80662900  1
  O  O2  1  0.49521300  0.09843500  0.68531000  1
  O  O3  1  0.97991100  0.20959800  0.56759300  1
  O  O4  1  0.48374600  0.34113200  0.43627700  1
  O  O5  1  0.03394300  0.45088600  0.31492300  1
  O  O6  1  0.52053700  0.57267500  0.19008100  1
  O  O7  1  0.03022000  0.71787800  0.06519000  1
  O  O8  1  0.50736500  0.42839900  0.80719700  1
  O  O9  1  0.00467600  0.53783600  0.67866200  1
  O  O10  1  0.48240200  0.66192600  0.56331300  1
  O  O11  1  0.94958300  0.80461500  0.43530000  1
  O  O12  1  0.49988800  0.90866300  0.31166500  1
  O  O13  1  0.99711100  0.04284300  0.18627300  1
  O  O14  1  0.52355500  0.16552000  0.05791400  1
  O  O15  1  0.00472600  0.28934400  0.94398100  1
loop_
_geom_bond_atom_site_label_1
_geom_bond_atom_site_label_2
_geom_bond_distance
_geom_bond_site_symmetry_2
Li0 O8 2.091798 1_455
Li0 O8 2.135119 1_555
Li0 O1 2.175963 1_555
Li0 O0 2.196524 1_555
Li0 O15 2.285711 1_555
Li0 O0 2.323358 1_455
Li1 O1 1.977111 1_655
Li1 O1 1.977585 1_555
Li1 O8 1.981875 1_555
Li1 O9 2.234621 1_555
Li1 O2 2.353229 1_565
Li1 O9 2.370059 1_655
Li2 O9 2.078748 1_655
Li2 O2 2.088879 1_665
Li2 O2 2.132186 1_565
Li2 O3 2.135391 1_565
Li2 O10 2.135413 1_555
Li2 O10 2.171650 1_655
Li3 O11 2.037559 1_555
Li3 O11 2.104897 1_455
Li3 O4 2.184763 1_565
Li3 O3 2.187404 1_565
Li3 O10 2.245177 1_555
Li3 O3 2.264856 1_465
Li4 O4 2.076097 1_655
Li4 O5 2.091749 1_655
Li4 O12 2.106086 1_545
Li4 O11 2.124740 1_545
Li4 O12 2.185745 1_645
Li4 O4 2.191938 1_555
Li5 O13 2.101799 1_455
Li5 O6 2.106351 1_555
Li5 O5 2.115415 1_555
Li5 O13 2.140931 1_555
Li5 O5 2.167095 1_655
Li5 O12 2.192597 1_545
Li6 O14 2.113517 1_455
Li6 O6 2.113594 1_555
Li6 O6 2.116762 1_455
Li6 O13 2.161635 1_455
Li6 O7 2.180215 1_555
Li6 O14 2.254820 1_555
Li7 O15 1.999811 1_555
Li7 O15 2.025580 1_655
Li7 O0 2.063414 1_555
Li7 O14 2.154264 1_556
Li7 O7 2.229544 1_656
Li7 O7 2.232929 1_556
Li8 O15 2.040720 1_655
Li8 O15 2.086462 1_555
Li8 O0 2.109681 1_545
Li8 O8 2.112232 1_555
Li8 O1 2.123485 1_545
Li8 O1 2.198862 1_645
Mn0 O15 1.821213 1_555
Mn0 O0 1.933395 1_445
Mn0 O0 1.938772 1_545
Mn0 O14 1.989902 1_556
Mn0 O14 1.998961 1_456
Mn0 O7 2.085446 1_546
Mn1 O2 1.902344 1_555
Mn1 O9 1.931982 1_655
Mn1 O9 1.936889 1_555
Mn1 O3 1.973022 1_455
Mn1 O10 1.977420 1_555
Mn1 O3 1.984170 1_555
Co0 O1 1.774416 1_645
Co0 O8 1.952455 1_655
Co0 O8 1.977598 1_555
Co0 O2 2.085755 1_555
Co0 O2 2.136538 1_655
Co0 O9 2.317854 1_655
Co1 O4 1.985097 1_555
Co1 O10 2.013466 1_655
Co1 O11 2.019808 1_555
Co1 O4 2.061834 1_655
Co1 O10 2.073451 1_555
Co1 O3 2.124593 1_555
Co2 O5 1.904534 1_555
Co2 O11 1.920480 1_555
Co2 O4 1.963593 1_555
Co2 O12 1.967437 1_555
Co2 O5 2.142105 1_655
Co2 O11 2.162610 1_455
Co3 O6 1.957967 1_455
Co3 O12 1.970702 1_555
Co3 O5 2.017935 1_555
Co3 O13 2.065045 1_465
Co3 O12 2.071201 1_455
Co3 O6 2.072906 1_555
Co4 O7 1.920026 1_555
Co4 O13 1.957110 1_565
Co4 O7 2.054921 1_655
Co4 O6 2.062518 1_555
Co4 O14 2.069915 1_565
Co4 O13 2.090230 1_465
