# generated using pymatgen
data_La4Sm4Co7CuO20
_symmetry_space_group_name_H-M   'P 1'
_cell_length_a   10.86379828
_cell_length_b   11.52884615
_cell_length_c   17.51624931
_cell_angle_alpha   109.23614692
_cell_angle_beta   108.03597746
_cell_angle_gamma   89.97538258
_symmetry_Int_Tables_number   1
_chemical_formula_structural   La4Sm4Co7CuO20
_chemical_formula_sum   'La16 Sm16 Co28 Cu4 O80'
_cell_volume   1956.94300936
_cell_formula_units_Z   4
loop_
 _symmetry_equiv_pos_site_id
 _symmetry_equiv_pos_as_xyz
  1  'x, y, z'
loop_
 _atom_site_type_symbol
 _atom_site_label
 _atom_site_symmetry_multiplicity
 _atom_site_fract_x
 _atom_site_fract_y
 _atom_site_fract_z
 _atom_site_occupancy
  La  La0  1  0.30740468  0.06574842  0.61011289  1
  La  La1  1  0.30917770  0.56772361  0.61277227  1
  La  La2  1  0.80616311  0.06606488  0.61059670  1
  La  La3  1  0.80670736  0.56745067  0.61300524  1
  La  La4  1  0.19562631  0.43329863  0.38663887  1
  La  La5  1  0.19023624  0.43656086  0.89034588  1
  La  La6  1  0.69356871  0.43328542  0.38655218  1
  La  La7  1  0.69071582  0.93136784  0.38585342  1
  La  La8  1  0.05738623  0.29463408  0.61083826  1
  La  La9  1  0.05550048  0.79672167  0.61253262  1
  La  La10  1  0.55816176  0.29615684  0.61238051  1
  La  La11  1  0.44367481  0.20297668  0.38624674  1
  La  La12  1  0.44763218  0.20590723  0.89097602  1
  La  La13  1  0.94517398  0.20406804  0.38615564  1
  La  La14  1  0.94408256  0.20517599  0.89026085  1
  La  La15  1  0.94460808  0.70455701  0.38672720  1
  Sm  Sm0  1  0.29818820  0.06879540  0.10881535  1
  Sm  Sm1  1  0.29891133  0.56911324  0.11184082  1
  Sm  Sm2  1  0.79707040  0.06610124  0.10662263  1
  Sm  Sm3  1  0.80244271  0.56879261  0.10940178  1
  Sm  Sm4  1  0.19556504  0.93014894  0.38826356  1
  Sm  Sm5  1  0.19067947  0.93214315  0.89300988  1
  Sm  Sm6  1  0.69523516  0.43599958  0.89249669  1
  Sm  Sm7  1  0.68973957  0.92876900  0.88966522  1
  Sm  Sm8  1  0.05197775  0.28878961  0.10933406  1
  Sm  Sm9  1  0.04949988  0.79110871  0.11074295  1
  Sm  Sm10  1  0.55167466  0.28900579  0.10894589  1
  Sm  Sm11  1  0.54987324  0.79189690  0.10809592  1
  Sm  Sm12  1  0.55437754  0.79264771  0.60963482  1
  Sm  Sm13  1  0.44346366  0.70808987  0.38986952  1
  Sm  Sm14  1  0.44436029  0.71122836  0.89267015  1
  Sm  Sm15  1  0.94066103  0.71288425  0.89284577  1
  Co  Co0  1  0.00462355  0.99890985  0.49785390  1
  Co  Co1  1  0.00494075  0.50001563  0.49954347  1
  Co  Co2  1  0.50426334  0.99893536  0.49936229  1
  Co  Co3  1  0.50573761  0.50147368  0.00233774  1
  Co  Co4  1  0.50422732  0.50012281  0.49858832  1
  Co  Co5  1  0.25554478  0.25232570  0.00236153  1
  Co  Co6  1  0.25487830  0.24856564  0.49845147  1
  Co  Co7  1  0.25455664  0.75172462  0.00226480  1
  Co  Co8  1  0.25529182  0.74931874  0.49936034  1
  Co  Co9  1  0.75609080  0.25080939  0.00161770  1
  Co  Co10  1  0.75439760  0.24998525  0.49905367  1
  Co  Co11  1  0.75336187  0.74920783  0.49878526  1
  Co  Co12  1  0.10605755  0.09162603  0.24948188  1
  Co  Co13  1  0.10914988  0.09344861  0.75296132  1
  Co  Co14  1  0.10812696  0.59513565  0.24944559  1
  Co  Co15  1  0.10878471  0.59931685  0.75390489  1
  Co  Co16  1  0.60542635  0.09198128  0.24801437  1
  Co  Co17  1  0.60804875  0.09358236  0.75229558  1
  Co  Co18  1  0.60193187  0.59291318  0.24545370  1
  Co  Co19  1  0.60690651  0.59723881  0.75092122  1
  Co  Co20  1  0.35456680  0.40619921  0.24672740  1
  Co  Co21  1  0.36137558  0.40878398  0.75334985  1
  Co  Co22  1  0.35242640  0.90215106  0.24692188  1
  Co  Co23  1  0.35913436  0.90412471  0.75042368  1
  Co  Co24  1  0.85343982  0.40262959  0.24449800  1
  Co  Co25  1  0.85524061  0.40873337  0.75041189  1
  Co  Co26  1  0.85778667  0.90545329  0.24869460  1
  Co  Co27  1  0.85409078  0.90304262  0.75022555  1
  Cu  Cu0  1  0.00135393  0.99885636  0.00157852  1
  Cu  Cu1  1  0.00280895  0.50146006  0.00182999  1
  Cu  Cu2  1  0.50195038  0.99973363  0.00136134  1
  Cu  Cu3  1  0.75277524  0.75021424  0.00145626  1
  O  O0  1  0.11939842  0.11437719  0.47919151  1
  O  O1  1  0.11947822  0.12064092  0.98696204  1
  O  O2  1  0.11929961  0.61839145  0.48191830  1
  O  O3  1  0.11309495  0.62145980  0.98404141  1
  O  O4  1  0.61751764  0.11725377  0.48146880  1
  O  O5  1  0.61901817  0.11729172  0.98547759  1
  O  O6  1  0.61439246  0.62037026  0.47913886  1
  O  O7  1  0.61772158  0.61947479  0.97836879  1
  O  O8  1  0.13481083  0.38330120  0.02352695  1
  O  O9  1  0.13675404  0.38178013  0.51768851  1
  O  O10  1  0.13394005  0.88150036  0.01947821  1
  O  O11  1  0.13727448  0.88075465  0.51615127  1
  O  O12  1  0.63927026  0.38366751  0.02331182  1
  O  O13  1  0.63694056  0.38359328  0.51808794  1
  O  O14  1  0.63338013  0.87763906  0.01630736  1
  O  O15  1  0.63396244  0.87874647  0.51840433  1
  O  O16  1  0.36447257  0.10686804  0.47798756  1
  O  O17  1  0.36580552  0.11125842  0.98431693  1
  O  O18  1  0.37036643  0.61575889  0.47973494  1
  O  O19  1  0.36999710  0.61688417  0.98341284  1
  O  O20  1  0.86813342  0.11244100  0.48077789  1
  O  O21  1  0.86372872  0.10641421  0.98226804  1
  O  O22  1  0.86845559  0.61413953  0.48155763  1
  O  O23  1  0.86705912  0.61342959  0.98496286  1
  O  O24  1  0.38711580  0.39185033  0.02441185  1
  O  O25  1  0.38719050  0.38719309  0.51831421  1
  O  O26  1  0.38635654  0.89030889  0.02015661  1
  O  O27  1  0.38879251  0.88258038  0.51681822  1
  O  O28  1  0.88426293  0.39266516  0.01887665  1
  O  O29  1  0.88680490  0.38732692  0.51801099  1
  O  O30  1  0.88148408  0.88367330  0.01624439  1
  O  O31  1  0.88560691  0.88448973  0.51567641  1
  O  O32  1  0.11442962  0.12411944  0.15078910  1
  O  O33  1  0.09049432  0.11022966  0.64227200  1
  O  O34  1  0.11427002  0.62676528  0.15033811  1
  O  O35  1  0.09047614  0.61454022  0.64285239  1
  O  O36  1  0.61537848  0.12368521  0.14969582  1
  O  O37  1  0.58947507  0.11204595  0.64204618  1
  O  O38  1  0.60324707  0.61823805  0.14104561  1
  O  O39  1  0.58658588  0.61353178  0.63982925  1
  O  O40  1  0.44563960  0.38722423  0.35687889  1
  O  O41  1  0.46153141  0.38855301  0.86057007  1
  O  O42  1  0.44667825  0.88603414  0.35780999  1
  O  O43  1  0.46577450  0.87638005  0.85132145  1
  O  O44  1  0.94572017  0.38852626  0.35619188  1
  O  O45  1  0.95257397  0.37788399  0.85187009  1
  O  O46  1  0.95738620  0.88859980  0.35770689  1
  O  O47  1  0.96587965  0.87804567  0.85136959  1
  O  O48  1  0.35437527  0.27637268  0.14238048  1
  O  O49  1  0.34055618  0.28111009  0.64169105  1
  O  O50  1  0.35213022  0.77621673  0.14033406  1
  O  O51  1  0.34746337  0.78069971  0.63966979  1
  O  O52  1  0.85196474  0.27460696  0.13844646  1
  O  O53  1  0.83632170  0.28113601  0.63999978  1
  O  O54  1  0.86164085  0.77540115  0.14817899  1
  O  O55  1  0.83627732  0.77901507  0.63887415  1
  O  O56  1  0.19718524  0.22115043  0.35946867  1
  O  O57  1  0.20222555  0.22330783  0.86109357  1
  O  O58  1  0.20551722  0.72102744  0.35933096  1
  O  O59  1  0.21390422  0.72460792  0.86172897  1
  O  O60  1  0.69583165  0.21948025  0.35904555  1
  O  O61  1  0.69873115  0.22445168  0.86204284  1
  O  O62  1  0.69673238  0.71871755  0.35648622  1
  O  O63  1  0.71604882  0.72433823  0.85146257  1
  O  O64  1  0.41545888  0.06551047  0.24428155  1
  O  O65  1  0.41930875  0.07031848  0.75105654  1
  O  O66  1  0.41523566  0.57454436  0.24971979  1
  O  O67  1  0.42170628  0.57554273  0.75604872  1
  O  O68  1  0.91515390  0.06857522  0.24339581  1
  O  O69  1  0.91933524  0.06747326  0.75018357  1
  O  O70  1  0.91728811  0.56707201  0.24442746  1
  O  O71  1  0.92300134  0.57553330  0.75658833  1
  O  O72  1  0.16449281  0.42616765  0.24363000  1
  O  O73  1  0.17206542  0.43319185  0.75075161  1
  O  O74  1  0.16576887  0.92532773  0.24981804  1
  O  O75  1  0.17461715  0.93062104  0.75675681  1
  O  O76  1  0.66458546  0.42723761  0.24366073  1
  O  O77  1  0.66852195  0.43281192  0.75542348  1
  O  O78  1  0.66596843  0.92426317  0.24413715  1
  O  O79  1  0.66632261  0.92701087  0.75045895  1
loop_
_geom_bond_atom_site_label_1
_geom_bond_atom_site_label_2
_geom_bond_distance
_geom_bond_site_symmetry_2
La0 O49 2.360676 1_555
La0 O65 2.373086 1_555
La0 O11 2.545650 1_545
La0 O27 2.555557 1_545
La0 O33 2.600738 1_555
La0 O16 2.752625 1_555
La0 O0 2.773221 1_555
La0 O37 2.954883 1_555
La1 O51 2.353949 1_555
La1 O67 2.398382 1_555
La1 O25 2.526930 1_555
La1 O9 2.568501 1_555
La1 O35 2.607810 1_555
La1 O2 2.793453 1_555
La1 O18 2.826450 1_555
La1 O39 2.921976 1_555
La2 O53 2.361223 1_555
La2 O69 2.366955 1_555
La2 O31 2.546571 1_545
La2 O15 2.570227 1_545
La2 O37 2.595298 1_555
La2 O20 2.767544 1_555
La2 O4 2.769904 1_555
La2 O33 2.976987 1_655
La3 O55 2.332376 1_555
La3 O71 2.410052 1_555
La3 O13 2.537938 1_555
La3 O29 2.540951 1_555
La3 O39 2.598418 1_555
La3 O22 2.795437 1_555
La3 O6 2.853680 1_555
La3 O35 2.981300 1_655
La4 O56 2.333838 1_555
La4 O72 2.394944 1_555
La4 O18 2.552268 1_555
La4 O2 2.556410 1_555
La4 O44 2.616281 1_455
La4 O25 2.787097 1_555
La4 O9 2.799817 1_555
La4 O40 2.936682 1_555
La5 O57 2.352660 1_555
La5 O73 2.378625 1_555
La5 O45 2.490320 1_455
La5 O3 2.546522 1_555
La5 O19 2.567527 1_555
La5 O8 2.827662 1_556
La5 O24 2.835758 1_556
La5 O41 3.166255 1_555
La6 O60 2.352304 1_555
La6 O76 2.401175 1_555
La6 O22 2.546708 1_555
La6 O6 2.565040 1_555
La6 O40 2.599865 1_555
La6 O13 2.786200 1_555
La6 O29 2.792784 1_555
La6 O44 2.961927 1_555
La7 O62 2.338587 1_555
La7 O78 2.386163 1_555
La7 O4 2.547208 1_565
La7 O42 2.562964 1_555
La7 O20 2.563077 1_565
La7 O31 2.788090 1_555
La7 O15 2.820248 1_555
La7 O46 3.098733 1_555
La8 O33 2.366496 1_555
La8 O73 2.375186 1_555
La8 O9 2.523325 1_555
La8 O29 2.549001 1_455
La8 O53 2.620143 1_455
La8 O20 2.789156 1_455
La8 O0 2.809471 1_555
La8 O49 2.967429 1_555
La9 O35 2.333931 1_555
La9 O75 2.418125 1_555
La9 O31 2.549374 1_455
La9 O11 2.566148 1_555
La9 O55 2.582539 1_455
La9 O22 2.785343 1_455
La9 O2 2.796953 1_555
La9 O51 3.073156 1_555
La10 O37 2.346870 1_555
La10 O77 2.395378 1_555
La10 O13 2.539621 1_555
La10 O25 2.551287 1_555
La10 O49 2.587063 1_555
La10 O4 2.779598 1_555
La10 O16 2.878058 1_555
La10 O53 2.923224 1_555
La11 O40 2.346058 1_555
La11 O64 2.391840 1_555
La11 O4 2.541547 1_555
La11 O16 2.565273 1_555
La11 O56 2.592508 1_555
La11 O25 2.806979 1_555
La11 O13 2.812491 1_555
La11 O60 2.938679 1_555
La12 O41 2.351481 1_555
La12 O65 2.356682 1_555
La12 O5 2.540608 1_555
La12 O57 2.574226 1_555
La12 O17 2.594321 1_555
La12 O12 2.791530 1_556
La12 O24 2.852971 1_556
La12 O61 2.944811 1_555
La13 O44 2.352719 1_555
La13 O68 2.391883 1_555
La13 O0 2.550702 1_655
La13 O20 2.564537 1_555
La13 O60 2.617891 1_555
La13 O9 2.785964 1_655
La13 O29 2.809017 1_555
La13 O56 2.933677 1_655
La14 O45 2.312170 1_555
La14 O69 2.374468 1_555
La14 O1 2.556812 1_655
La14 O61 2.579605 1_555
La14 O21 2.595563 1_555
La14 O8 2.794539 1_656
La14 O28 2.804749 1_556
La14 O57 3.021183 1_655
La15 O46 2.352520 1_555
La15 O70 2.398398 1_555
La15 O2 2.549319 1_655
La15 O22 2.553987 1_555
La15 O62 2.594632 1_555
La15 O31 2.761120 1_555
La15 O11 2.770876 1_655
La15 O58 3.033695 1_655
Co0 O0 1.993557 1_565
Co0 O20 1.995746 1_465
Co0 O31 2.008012 1_455
Co0 O11 2.008737 1_555
Co0 O46 2.251738 1_455
Co0 O33 2.305873 1_565
Co1 O29 1.993750 1_455
Co1 O22 2.002772 1_455
Co1 O9 2.002918 1_555
Co1 O2 2.004469 1_555
Co1 O44 2.290144 1_455
Co1 O35 2.297995 1_555
Co2 O16 1.986997 1_565
Co2 O27 1.993947 1_555
Co2 O4 1.998675 1_565
Co2 O15 2.007097 1_555
Co2 O42 2.268691 1_555
Co2 O37 2.285766 1_565
Co3 O24 2.009830 1_555
Co3 O19 2.010251 1_554
Co3 O12 2.020177 1_555
Co3 O7 2.049661 1_554
Co3 O38 2.256059 1_555
Co3 O41 2.285565 1_554
Co4 O18 1.998050 1_555
Co4 O13 1.998995 1_555
Co4 O25 2.000241 1_555
Co4 O6 2.008830 1_555
Co4 O39 2.264869 1_555
Co4 O40 2.270281 1_555
Co5 O24 2.007597 1_555
Co5 O1 2.011932 1_554
Co5 O8 2.017038 1_555
Co5 O17 2.018364 1_554
Co5 O57 2.266639 1_554
Co5 O48 2.272999 1_555
Co6 O0 2.005990 1_555
Co6 O9 2.011001 1_555
Co6 O25 2.016778 1_555
Co6 O16 2.022739 1_555
Co6 O56 2.228820 1_555
Co6 O49 2.288274 1_555
Co7 O10 1.998040 1_555
Co7 O19 2.003751 1_554
Co7 O26 2.023675 1_555
Co7 O3 2.025199 1_554
Co7 O50 2.239447 1_555
Co7 O59 2.274286 1_554
Co8 O11 1.991141 1_555
Co8 O18 1.991903 1_555
Co8 O2 1.993234 1_555
Co8 O27 1.993752 1_555
Co8 O51 2.250409 1_555
Co8 O58 2.250925 1_555
Co9 O12 2.003646 1_555
Co9 O28 2.029883 1_555
Co9 O5 2.030127 1_554
Co9 O21 2.031132 1_554
Co9 O52 2.219364 1_555
Co9 O61 2.241670 1_554
Co10 O13 2.008839 1_555
Co10 O29 2.011529 1_555
Co10 O20 2.013078 1_555
Co10 O4 2.013836 1_555
Co10 O60 2.237971 1_555
Co10 O53 2.252047 1_555
Co11 O6 1.986803 1_555
Co11 O15 1.991776 1_555
Co11 O22 2.000401 1_555
Co11 O31 2.004679 1_555
Co11 O55 2.242030 1_555
Co11 O62 2.277748 1_555
Co12 O32 1.913431 1_555
Co12 O56 1.961159 1_555
Co12 O74 2.024994 1_545
Co12 O68 2.056237 1_455
Co13 O57 1.948896 1_555
Co13 O33 1.959973 1_555
Co13 O75 2.021385 1_545
Co13 O69 2.067157 1_455
Co14 O34 1.907872 1_555
Co14 O58 1.957098 1_555
Co14 O72 2.021613 1_555
Co14 O70 2.068744 1_455
Co15 O59 1.955996 1_555
Co15 O35 1.959491 1_555
Co15 O73 2.023968 1_555
Co15 O71 2.053946 1_455
Co16 O36 1.908211 1_555
Co16 O60 1.960211 1_555
Co16 O78 2.028802 1_545
Co16 O64 2.064069 1_555
Co17 O37 1.960848 1_555
Co17 O61 1.964641 1_555
Co17 O79 2.015075 1_545
Co17 O65 2.060525 1_555
Co18 O38 1.948877 1_555
Co18 O62 1.961906 1_555
Co18 O76 2.021177 1_555
Co18 O66 2.066106 1_555
Co19 O63 1.913784 1_555
Co19 O39 1.960971 1_555
Co19 O77 2.027933 1_555
Co19 O67 2.060539 1_555
Co20 O48 1.943198 1_555
Co20 O40 1.960955 1_555
Co20 O66 2.028948 1_555
Co20 O72 2.063567 1_555
Co21 O41 1.946426 1_555
Co21 O49 1.967858 1_555
Co21 O67 2.012452 1_555
Co21 O73 2.064207 1_555
Co22 O50 1.950350 1_555
Co22 O42 1.965139 1_555
Co22 O64 2.023896 1_565
Co22 O74 2.059195 1_555
Co23 O43 1.916327 1_555
Co23 O51 1.957882 1_555
Co23 O65 2.020201 1_565
Co23 O75 2.058814 1_555
Co24 O52 1.950496 1_555
Co24 O44 1.963194 1_555
Co24 O70 2.019533 1_555
Co24 O76 2.067289 1_555
Co25 O45 1.911921 1_555
Co25 O53 1.956035 1_555
Co25 O71 2.016529 1_555
Co25 O77 2.072003 1_555
Co26 O54 1.912029 1_555
Co26 O46 1.954372 1_555
Co26 O68 2.021275 1_565
Co26 O78 2.074594 1_555
Co27 O47 1.923677 1_555
Co27 O55 1.953237 1_555
Co27 O69 2.024465 1_565
Co27 O79 2.059466 1_555
Cu0 O21 1.961912 1_464
Cu0 O30 1.989633 1_455
Cu0 O10 2.000443 1_555
Cu0 O1 2.031140 1_564
Cu0 O32 2.439649 1_565
Cu0 O47 2.443149 1_454
Cu1 O28 1.951217 1_455
Cu1 O23 1.976977 1_454
Cu1 O3 1.990776 1_554
Cu1 O8 2.014590 1_555
Cu1 O45 2.423721 1_454
Cu1 O34 2.427922 1_555
Cu2 O26 1.951389 1_555
Cu2 O17 1.976803 1_564
Cu2 O5 2.000202 1_564
Cu2 O14 2.024405 1_555
Cu2 O36 2.425670 1_565
Cu2 O43 2.445839 1_554
Cu3 O7 1.954718 1_554
Cu3 O14 1.965637 1_555
Cu3 O30 1.976000 1_555
Cu3 O23 2.007981 1_554
Cu3 O54 2.390506 1_555
Cu3 O63 2.446540 1_554
O0 Sm4 2.513582 1_545
O1 Sm5 2.541559 1_545
O1 Sm0 2.637407 1_556
O1 Sm8 2.669163 1_556
O3 Sm15 2.535077 1_455
O3 Sm9 2.704857 1_556
O3 Sm1 2.746144 1_556
O5 Sm7 2.554264 1_545
O5 Sm2 2.622083 1_556
O5 Sm10 2.699813 1_556
O6 Sm13 2.481605 1_555
O6 Sm12 2.743181 1_555
O7 Sm6 2.476336 1_555
O7 Sm14 2.492654 1_555
O7 Sm3 2.768947 1_556
O7 Sm11 2.778091 1_556
O8 Sm8 2.484673 1_555
O8 Sm1 2.504442 1_555
O10 Sm0 2.518537 1_565
O10 Sm9 2.547492 1_555
O10 Sm5 2.706710 1_554
O10 Sm15 2.717750 1_454
O11 Sm4 2.731792 1_555
O12 Sm3 2.489730 1_555
O12 Sm10 2.511975 1_555
O12 Sm6 2.785329 1_554
O14 Sm11 2.517214 1_555
O14 Sm2 2.526313 1_565
O14 Sm14 2.664474 1_554
O14 Sm7 2.710381 1_554
O15 Sm12 2.487561 1_555
O15 Sm13 2.724405 1_555
O16 Sm4 2.468922 1_545
O17 Sm5 2.526804 1_545
O17 Sm0 2.688986 1_556
O17 Sm10 2.714503 1_556
O18 Sm13 2.473940 1_555
O18 Sm12 2.731610 1_555
O19 Sm14 2.509419 1_555
O19 Sm11 2.667685 1_556
O19 Sm1 2.802284 1_556
O21 Sm7 2.512797 1_545
O21 Sm2 2.670057 1_556
O21 Sm8 2.767413 1_656
O23 Sm6 2.498017 1_555
O23 Sm15 2.564439 1_555
O23 Sm3 2.682466 1_556
O23 Sm9 2.702623 1_656
O24 Sm1 2.506936 1_555
O24 Sm10 2.512012 1_555
O26 Sm11 2.504211 1_555
O26 Sm0 2.525317 1_565
O26 Sm14 2.734704 1_554
O26 Sm5 2.736230 1_554
O27 Sm12 2.500461 1_555
O27 Sm13 2.685799 1_555
O27 Sm4 2.768318 1_555
O28 Sm3 2.485396 1_555
O28 Sm8 2.593307 1_655
O28 Sm6 2.698157 1_554
O30 Sm2 2.544396 1_565
O30 Sm9 2.549860 1_655
O30 Sm15 2.649018 1_554
O30 Sm7 2.724722 1_554
O32 Sm8 2.279015 1_555
O32 Sm0 2.351897 1_555
O34 Sm9 2.264627 1_555
O34 Sm1 2.336936 1_555
O36 Sm10 2.282656 1_555
O36 Sm2 2.344595 1_555
O38 Sm11 2.287104 1_555
O38 Sm3 2.418401 1_555
O39 Sm12 2.295827 1_555
O41 Sm6 2.445085 1_555
O42 Sm13 2.301414 1_555
O42 Sm4 2.950694 1_555
O43 Sm14 2.284148 1_555
O43 Sm7 2.336229 1_555
O45 Sm6 3.112441 1_555
O46 Sm4 2.487119 1_655
O47 Sm15 2.294292 1_555
O47 Sm5 2.341743 1_655
O48 Sm0 2.301572 1_555
O48 Sm10 2.406706 1_555
O48 Sm8 3.166174 1_555
O50 Sm1 2.306857 1_555
O50 Sm11 2.405259 1_555
O51 Sm12 2.475684 1_555
O52 Sm2 2.314566 1_555
O52 Sm8 2.397844 1_655
O54 Sm3 2.283293 1_555
O54 Sm9 2.352694 1_655
O55 Sm12 2.957584 1_555
O58 Sm4 2.304282 1_555
O58 Sm13 2.487291 1_555
O59 Sm5 2.304314 1_555
O59 Sm14 2.408362 1_555
O61 Sm6 2.321519 1_555
O62 Sm13 2.995207 1_555
O63 Sm7 2.272195 1_555
O63 Sm15 2.337665 1_555
O64 Sm0 2.332854 1_555
O66 Sm1 2.333291 1_555
O66 Sm13 2.352607 1_555
O67 Sm14 2.324530 1_555
O68 Sm2 2.331954 1_555
O70 Sm3 2.313993 1_555
O71 Sm15 2.338184 1_555
O72 Sm8 2.302687 1_555
O74 Sm4 2.326764 1_555
O74 Sm9 2.353035 1_555
O75 Sm5 2.332668 1_555
O76 Sm10 2.311702 1_555
O77 Sm6 2.315342 1_555
O78 Sm11 2.311346 1_555
O79 Sm12 2.364202 1_555
O79 Sm7 2.365186 1_555
