# generated using pymatgen
data_DyMg2Mn3S8
_symmetry_space_group_name_H-M   'P 1'
_cell_length_a   7.48356076
_cell_length_b   7.48981833
_cell_length_c   7.49152624
_cell_angle_alpha   59.18855718
_cell_angle_beta   59.18280161
_cell_angle_gamma   59.18840498
_symmetry_Int_Tables_number   1
_chemical_formula_structural   DyMg2Mn3S8
_chemical_formula_sum   'Dy1 Mg2 Mn3 S8'
_cell_volume   291.41382574
_cell_formula_units_Z   1
loop_
 _symmetry_equiv_pos_site_id
 _symmetry_equiv_pos_as_xyz
  1  'x, y, z'
loop_
 _atom_site_type_symbol
 _atom_site_label
 _atom_site_symmetry_multiplicity
 _atom_site_fract_x
 _atom_site_fract_y
 _atom_site_fract_z
 _atom_site_occupancy
  Dy  Dy0  1  0.49999300  0.50001700  0.49997300  1
  Mg  Mg0  1  0.87438100  0.87448300  0.87450700  1
  Mg  Mg1  1  0.12562500  0.12550500  0.12550800  1
  Mn  Mn0  1  0.49999200  0.49997400  0.99999900  1
  Mn  Mn1  1  0.99996700  0.50006000  0.50000300  1
  Mn  Mn2  1  0.50007400  0.99999600  0.50001200  1
  S  S0  1  0.74022600  0.74020100  0.74012000  1
  S  S1  1  0.24555600  0.24539800  0.71989500  1
  S  S2  1  0.24554400  0.71986700  0.24540400  1
  S  S3  1  0.71984200  0.24552100  0.24551100  1
  S  S4  1  0.75443100  0.28012200  0.75458300  1
  S  S5  1  0.28015800  0.75447500  0.75447400  1
  S  S6  1  0.25976600  0.25977800  0.25990000  1
  S  S7  1  0.75445000  0.75459600  0.28011200  1
loop_
_geom_bond_atom_site_label_1
_geom_bond_atom_site_label_2
_geom_bond_distance
_geom_bond_site_symmetry_2
Dy0 S7 2.695078 1_555
Dy0 S1 2.695140 1_555
Dy0 S2 2.695568 1_555
Dy0 S4 2.695700 1_555
Dy0 S3 2.696373 1_555
Dy0 S5 2.696390 1_555
Mg0 S5 2.464109 1_655
Mg0 S4 2.465686 1_565
Mg0 S7 2.465992 1_556
Mg0 S0 2.477969 1_555
Mg1 S3 2.464161 1_455
Mg1 S2 2.465715 1_545
Mg1 S1 2.466040 1_554
Mg1 S6 2.477858 1_555
Mn0 S3 2.453426 1_556
Mn0 S5 2.453433 1_555
Mn0 S4 2.453528 1_555
Mn0 S2 2.453675 1_556
Mn0 S6 2.529392 1_556
Mn0 S0 2.529584 1_555
Mn1 S2 2.452949 1_655
Mn1 S4 2.453373 1_555
Mn1 S7 2.453476 1_555
Mn1 S1 2.453902 1_655
Mn1 S0 2.529719 1_555
Mn1 S6 2.530385 1_655
Mn2 S3 2.452628 1_565
Mn2 S5 2.453320 1_555
Mn2 S1 2.453604 1_565
Mn2 S7 2.453626 1_555
Mn2 S0 2.529018 1_555
Mn2 S6 2.529829 1_565
