# generated using pymatgen
data_TbCu2Ni3
_symmetry_space_group_name_H-M   'P 1'
_cell_length_a   4.90083643
_cell_length_b   4.90078000
_cell_length_c   3.92719502
_cell_angle_alpha   90.00000000
_cell_angle_beta   90.00000000
_cell_angle_gamma   119.99962358
_symmetry_Int_Tables_number   1
_chemical_formula_structural   TbCu2Ni3
_chemical_formula_sum   'Tb1 Cu2 Ni3'
_cell_volume   81.68647632
_cell_formula_units_Z   1
loop_
 _symmetry_equiv_pos_site_id
 _symmetry_equiv_pos_as_xyz
  1  'x, y, z'
loop_
 _atom_site_type_symbol
 _atom_site_label
 _atom_site_symmetry_multiplicity
 _atom_site_fract_x
 _atom_site_fract_y
 _atom_site_fract_z
 _atom_site_occupancy
  Tb  Tb0  1  0.00000000  -0.00000000  0.00000000  1
  Cu  Cu0  1  0.66667408  0.33333654  0.00000000  1
  Cu  Cu1  1  0.33332592  0.66666346  -0.00000000  1
  Ni  Ni0  1  0.50000000  0.50000000  0.50000000  1
  Ni  Ni1  1  0.50000000  -0.00000000  0.50000000  1
  Ni  Ni2  1  0.00000000  0.50000000  0.50000000  1
loop_
_geom_bond_atom_site_label_1
_geom_bond_atom_site_label_2
_geom_bond_distance
_geom_bond_site_symmetry_2
Cu0 Ni2 2.420157 1_655
Cu0 Ni2 2.420157 1_654
Cu0 Ni1 2.420173 1_554
Cu0 Ni1 2.420173 1_555
Cu0 Ni0 2.420176 1_555
Cu0 Ni0 2.420176 1_554
Cu0 Tb0 2.829460 1_655
Cu0 Tb0 2.829464 1_665
Cu0 Tb0 2.829541 1_555
Cu1 Ni2 2.420157 1_554
Cu1 Ni2 2.420157 1_555
Cu1 Ni1 2.420173 1_565
Cu1 Ni1 2.420173 1_564
Cu1 Ni0 2.420176 1_555
Cu1 Ni0 2.420176 1_554
Cu1 Tb0 2.829460 1_565
Cu1 Tb0 2.829464 1_555
Cu1 Tb0 2.829541 1_665
Ni0 Ni1 2.450390 1_555
Ni0 Ni1 2.450390 1_565
Ni0 Ni2 2.450418 1_655
Ni0 Ni2 2.450418 1_555
Ni0 Tb0 3.140106 1_666
Ni0 Tb0 3.140106 1_665
Ni0 Tb0 3.140106 1_555
Ni0 Tb0 3.140106 1_556
Ni1 Ni2 2.450418 1_545
Ni1 Ni2 2.450418 1_655
Ni1 Tb0 3.140106 1_555
Ni1 Tb0 3.140106 1_556
Ni1 Tb0 3.140106 1_656
Ni1 Tb0 3.140106 1_655
Ni2 Tb0 3.140084 1_565
Ni2 Tb0 3.140084 1_566
Ni2 Tb0 3.140084 1_555
Ni2 Tb0 3.140084 1_556
