# generated using pymatgen
data_Si3(MoO6)2
_symmetry_space_group_name_H-M   'P 1'
_cell_length_a   10.37572046
_cell_length_b   10.37572046
_cell_length_c   10.37572046
_cell_angle_alpha   109.47122063
_cell_angle_beta   109.47122063
_cell_angle_gamma   109.47122063
_symmetry_Int_Tables_number   1
_chemical_formula_structural   Si3(MoO6)2
_chemical_formula_sum   'Si12 Mo8 O48'
_cell_volume   859.87019749
_cell_formula_units_Z   4
loop_
 _symmetry_equiv_pos_site_id
 _symmetry_equiv_pos_as_xyz
  1  'x, y, z'
loop_
 _atom_site_type_symbol
 _atom_site_label
 _atom_site_symmetry_multiplicity
 _atom_site_fract_x
 _atom_site_fract_y
 _atom_site_fract_z
 _atom_site_occupancy
  Si  Si0  1  0.12500000  0.75000000  0.87500000  1
  Si  Si1  1  0.87500000  0.25000000  0.12500000  1
  Si  Si2  1  0.75000000  0.37500000  0.62500000  1
  Si  Si3  1  0.12500000  0.87500000  0.25000000  1
  Si  Si4  1  0.25000000  0.12500000  0.87500000  1
  Si  Si5  1  0.37500000  0.62500000  0.75000000  1
  Si  Si6  1  0.37500000  0.25000000  0.62500000  1
  Si  Si7  1  0.87500000  0.12500000  0.75000000  1
  Si  Si8  1  0.62500000  0.37500000  0.25000000  1
  Si  Si9  1  0.75000000  0.87500000  0.12500000  1
  Si  Si10  1  0.25000000  0.62500000  0.37500000  1
  Si  Si11  1  0.62500000  0.75000000  0.37500000  1
  Mo  Mo0  1  0.50000000  0.00000000  0.00000000  1
  Mo  Mo1  1  0.50000000  0.50000000  0.00000000  1
  Mo  Mo2  1  0.00000000  0.50000000  0.50000000  1
  Mo  Mo3  1  0.00000000  0.00000000  0.50000000  1
  Mo  Mo4  1  0.50000000  0.50000000  0.50000000  1
  Mo  Mo5  1  0.00000000  0.50000000  0.00000000  1
  Mo  Mo6  1  0.50000000  0.00000000  0.50000000  1
  Mo  Mo7  1  0.00000000  0.00000000  0.00000000  1
  O  O0  1  0.58456900  0.89297700  0.39141400  1
  O  O1  1  0.39141400  0.58456900  0.89297700  1
  O  O2  1  0.30684500  0.30840800  0.91543100  1
  O  O3  1  0.49843700  0.60702300  0.19159200  1
  O  O4  1  0.30840800  0.89297700  0.00156300  1
  O  O5  1  0.10858600  0.00156300  0.19315500  1
  O  O6  1  0.39141400  0.30684500  0.49843700  1
  O  O7  1  0.89297700  0.39141400  0.58456900  1
  O  O8  1  0.19159200  0.19315500  0.58456900  1
  O  O9  1  0.49843700  0.39141400  0.30684500  1
  O  O10  1  0.89297700  0.00156300  0.30840800  1
  O  O11  1  0.60702300  0.91543100  0.10858600  1
  O  O12  1  0.91543100  0.10858600  0.60702300  1
  O  O13  1  0.30684500  0.49843700  0.39141400  1
  O  O14  1  0.58456900  0.19159200  0.19315500  1
  O  O15  1  0.19315500  0.58456900  0.19159200  1
  O  O16  1  0.00156300  0.30840800  0.89297700  1
  O  O17  1  0.91543100  0.30684500  0.30840800  1
  O  O18  1  0.00156300  0.19315500  0.10858600  1
  O  O19  1  0.80840800  0.80684500  0.41543100  1
  O  O20  1  0.19159200  0.49843700  0.60702300  1
  O  O21  1  0.60702300  0.19159200  0.49843700  1
  O  O22  1  0.19315500  0.10858600  0.00156300  1
  O  O23  1  0.10858600  0.60702300  0.91543100  1
  O  O24  1  0.41543100  0.10702300  0.60858600  1
  O  O25  1  0.60858600  0.41543100  0.10702300  1
  O  O26  1  0.69315500  0.69159200  0.08456900  1
  O  O27  1  0.50156300  0.39297700  0.80840800  1
  O  O28  1  0.69159200  0.10702300  0.99843700  1
  O  O29  1  0.89141400  0.99843700  0.80684500  1
  O  O30  1  0.60858600  0.69315500  0.50156300  1
  O  O31  1  0.10702300  0.60858600  0.41543100  1
  O  O32  1  0.89141400  0.39297700  0.08456900  1
  O  O33  1  0.80684500  0.89141400  0.99843700  1
  O  O34  1  0.39297700  0.80840800  0.50156300  1
  O  O35  1  0.69159200  0.08456900  0.69315500  1
  O  O36  1  0.80840800  0.50156300  0.39297700  1
  O  O37  1  0.99843700  0.80684500  0.89141400  1
  O  O38  1  0.08456900  0.69315500  0.69159200  1
  O  O39  1  0.99843700  0.69159200  0.10702300  1
  O  O40  1  0.80684500  0.41543100  0.80840800  1
  O  O41  1  0.41543100  0.80840800  0.80684500  1
  O  O42  1  0.69315500  0.50156300  0.60858600  1
  O  O43  1  0.08456900  0.89141400  0.39297700  1
  O  O44  1  0.39297700  0.08456900  0.89141400  1
  O  O45  1  0.10702300  0.99843700  0.69159200  1
  O  O46  1  0.50156300  0.60858600  0.69315500  1
  O  O47  1  0.30840800  0.91543100  0.30684500  1
loop_
_geom_bond_atom_site_label_1
_geom_bond_atom_site_label_2
_geom_bond_distance
_geom_bond_site_symmetry_2
Mo0 O14 1.935710 1_555
Mo0 O11 1.935710 1_545
Mo0 O44 1.935710 1_554
Mo0 O28 1.935710 1_554
Mo0 O41 1.935710 1_544
Mo0 O4 1.935710 1_545
Mo1 O3 1.935710 1_555
Mo1 O25 1.935710 1_555
Mo1 O27 1.935710 1_554
Mo1 O26 1.935710 1_555
Mo1 O1 1.935710 1_554
Mo1 O2 1.935710 1_554
Mo2 O20 1.935710 1_555
Mo2 O31 1.935710 1_555
Mo2 O36 1.935710 1_455
Mo2 O38 1.935710 1_555
Mo2 O7 1.935710 1_455
Mo2 O17 1.935710 1_455
Mo3 O8 1.935710 1_555
Mo3 O12 1.935710 1_455
Mo3 O43 1.935710 1_545
Mo3 O45 1.935710 1_545
Mo3 O19 1.935710 1_445
Mo3 O10 1.935710 1_455
Mo4 O6 1.935710 1_555
Mo4 O9 1.935710 1_555
Mo4 O13 1.935710 1_555
Mo4 O30 1.935710 1_555
Mo4 O42 1.935710 1_555
Mo4 O46 1.935710 1_555
Mo5 O15 1.935710 1_555
Mo5 O23 1.935710 1_554
Mo5 O32 1.935710 1_455
Mo5 O39 1.935710 1_455
Mo5 O40 1.935710 1_454
Mo5 O16 1.935710 1_554
Mo6 O21 1.935710 1_555
Mo6 O24 1.935710 1_555
Mo6 O35 1.935710 1_555
Mo6 O34 1.935710 1_545
Mo6 O47 1.935710 1_545
Mo6 O0 1.935710 1_545
Mo7 O18 1.935710 1_555
Mo7 O5 1.935710 1_555
Mo7 O22 1.935710 1_555
Mo7 O33 1.935710 1_444
Mo7 O37 1.935710 1_444
Mo7 O29 1.935710 1_444
O0 Si11 1.643109 1_555
O1 Si5 1.643109 1_555
O2 Si4 1.643109 1_555
O3 Si11 1.643109 1_555
O4 Si0 1.643109 1_554
O5 Si3 1.643109 1_545
O6 Si6 1.643109 1_555
O7 Si2 1.643109 1_555
O8 Si6 1.643109 1_555
O9 Si8 1.643109 1_555
O10 Si9 1.643109 1_545
O11 Si9 1.643109 1_555
O12 Si7 1.643109 1_555
O13 Si10 1.643109 1_555
O14 Si8 1.643109 1_555
O15 Si10 1.643109 1_555
O16 Si7 1.643109 1_455
O17 Si1 1.643109 1_555
O18 Si1 1.643109 1_455
O19 Si11 1.643109 1_555
O20 Si5 1.643109 1_555
O21 Si2 1.643109 1_555
O22 Si4 1.643109 1_554
O23 Si0 1.643109 1_555
O24 Si6 1.643109 1_555
O25 Si8 1.643109 1_555
O26 Si9 1.643109 1_555
O27 Si6 1.643109 1_555
O28 Si1 1.643109 1_556
O29 Si7 1.643109 1_565
O30 Si11 1.643109 1_555
O31 Si10 1.643109 1_555
O32 Si1 1.643109 1_555
O33 Si9 1.643109 1_556
O34 Si10 1.643109 1_555
O35 Si7 1.643109 1_555
O36 Si8 1.643109 1_555
O37 Si0 1.643109 1_655
O38 Si0 1.643109 1_555
O39 Si3 1.643109 1_655
O40 Si2 1.643109 1_555
O41 Si5 1.643109 1_555
O42 Si2 1.643109 1_555
O43 Si3 1.643109 1_555
O44 Si4 1.643109 1_555
O45 Si4 1.643109 1_565
O46 Si5 1.643109 1_555
O47 Si3 1.643109 1_555
