# generated using pymatgen
data_TiMnSi4
_symmetry_space_group_name_H-M   'P 1'
_cell_length_a   12.80388900
_cell_length_b   4.53611400
_cell_length_c   4.57098167
_cell_angle_alpha   60.55069697
_cell_angle_beta   90.00000000
_cell_angle_gamma   90.00000000
_symmetry_Int_Tables_number   1
_chemical_formula_structural   TiMnSi4
_chemical_formula_sum   'Ti3 Mn3 Si12'
_cell_volume   231.17949215
_cell_formula_units_Z   3
loop_
 _symmetry_equiv_pos_site_id
 _symmetry_equiv_pos_as_xyz
  1  'x, y, z'
loop_
 _atom_site_type_symbol
 _atom_site_label
 _atom_site_symmetry_multiplicity
 _atom_site_fract_x
 _atom_site_fract_y
 _atom_site_fract_z
 _atom_site_occupancy
  Ti  Ti0  1  0.24909800  0.00000000  0.50000000  1
  Ti  Ti1  1  0.58563400  0.50000000  0.50000000  1
  Ti  Ti2  1  0.08128300  0.50000000  0.50000000  1
  Mn  Mn0  1  0.91173400  0.50000000  0.00000000  1
  Mn  Mn1  1  0.41800200  0.50000000  0.00000000  1
  Mn  Mn2  1  0.75498000  0.00000000  0.50000000  1
  Si  Si0  1  0.91408100  0.84173100  0.33219100  1
  Si  Si1  1  0.41729000  0.83299200  0.32670600  1
  Si  Si2  1  0.75224200  0.33042800  0.83927400  1
  Si  Si3  1  0.25254500  0.32248300  0.84161700  1
  Si  Si4  1  0.58422400  0.83715100  0.83208800  1
  Si  Si5  1  0.07925200  0.83379800  0.84477200  1
  Si  Si6  1  0.91408100  0.15826900  0.66780900  1
  Si  Si7  1  0.41729000  0.16700800  0.67329400  1
  Si  Si8  1  0.75224200  0.66957200  0.16072600  1
  Si  Si9  1  0.25254500  0.67751700  0.15838300  1
  Si  Si10  1  0.58422400  0.16284900  0.16791200  1
  Si  Si11  1  0.07925200  0.16620200  0.15522800  1
loop_
_geom_bond_atom_site_label_1
_geom_bond_atom_site_label_2
_geom_bond_distance
_geom_bond_site_symmetry_2
Mn0 Si2 2.420193 1_554
Mn0 Si8 2.420193 1_555
Mn0 Si5 2.517973 1_654
Mn0 Si11 2.517973 1_655
Mn0 Si6 2.600829 1_564
Mn0 Si0 2.600829 1_545
Mn0 Si0 2.650274 1_555
Mn0 Si6 2.650274 1_554
Mn0 Si0 2.658755 1_554
Mn0 Si6 2.658755 1_555
Mn1 Si3 2.496754 1_554
Mn1 Si9 2.496754 1_555
Mn1 Si4 2.510659 1_554
Mn1 Si10 2.510659 1_555
Mn1 Si1 2.594199 1_555
Mn1 Si7 2.594199 1_554
Mn1 Si7 2.634709 1_564
Mn1 Si1 2.634709 1_545
Mn1 Si7 2.679976 1_555
Mn1 Si1 2.679976 1_554
Mn2 Si6 2.407302 1_555
Mn2 Si0 2.407302 1_545
Mn2 Si10 2.554875 1_555
Mn2 Si4 2.554875 1_545
Mn2 Si8 2.630205 1_546
Mn2 Si2 2.630205 1_554
Mn2 Si2 2.634101 1_555
Mn2 Si8 2.634101 1_545
Mn2 Si8 2.645673 1_555
Mn2 Si2 2.645673 1_545
Si0 Si8 2.473838 1_555
Si0 Si11 2.474356 1_665
Si0 Ti2 2.530864 1_655
Si0 Si6 2.565370 1_565
Si0 Si6 2.645106 1_564
Si0 Si6 2.699698 1_555
Si1 Si9 2.464223 1_555
Si1 Si10 2.503246 1_565
Si1 Ti1 2.525573 1_555
Si1 Ti0 2.535557 1_565
Si1 Si7 2.601241 1_564
Si1 Si7 2.632503 1_555
Si1 Si7 2.676892 1_565
Si2 Si6 2.473838 1_555
Si2 Ti1 2.524756 1_555
Si2 Si8 2.597761 1_556
Si2 Si8 2.610390 1_546
Si2 Si8 2.700906 1_555
Si3 Si7 2.464223 1_555
Si3 Si9 2.547638 1_546
Si3 Ti2 2.580469 1_555
Si3 Ti0 2.612709 1_555
Si3 Ti0 2.621033 1_556
Si3 Si9 2.642549 1_556
Si3 Ti0 2.677038 1_565
Si3 Si9 2.720559 1_555
Si4 Si7 2.503246 1_565
Si4 Si8 2.517859 1_556
Si4 Ti1 2.618622 1_565
Si4 Ti1 2.631775 1_555
Si4 Ti1 2.658749 1_556
Si5 Si6 2.474356 1_465
Si5 Si9 2.545863 1_556
Si5 Ti0 2.571570 1_565
Si5 Ti2 2.608512 1_556
Si5 Ti2 2.633176 1_565
Si5 Ti2 2.668951 1_555
Si6 Ti2 2.530864 1_655
Si7 Ti1 2.525573 1_555
Si7 Ti0 2.535557 1_555
Si8 Ti1 2.524756 1_555
Si9 Ti2 2.580469 1_555
Si9 Ti0 2.612709 1_565
Si9 Ti0 2.621033 1_564
Si9 Ti0 2.677038 1_555
Si10 Si2 2.517859 1_554
Si10 Si4 2.601751 1_544
Si10 Ti1 2.618622 1_545
Si10 Ti1 2.631775 1_555
Si10 Si4 2.643710 1_545
Si10 Ti1 2.658749 1_554
Si10 Si4 2.663681 1_554
Si11 Si5 2.528113 1_544
Si11 Si3 2.545863 1_554
Si11 Ti0 2.571570 1_555
Si11 Ti2 2.608512 1_554
Si11 Ti2 2.633176 1_545
Si11 Si5 2.637932 1_554
Si11 Ti2 2.668951 1_555
Si11 Si5 2.744959 1_545
