# generated using pymatgen
data_NdFe10Mo2N
_symmetry_space_group_name_H-M   'P 1'
_cell_length_a   4.85291500
_cell_length_b   6.59134412
_cell_length_c   6.59134412
_cell_angle_alpha   98.01383951
_cell_angle_beta   111.60020003
_cell_angle_gamma   68.39979997
_symmetry_Int_Tables_number   1
_chemical_formula_structural   NdFe10Mo2N
_chemical_formula_sum   'Nd1 Fe10 Mo2 N1'
_cell_volume   182.26453250
_cell_formula_units_Z   1
loop_
 _symmetry_equiv_pos_site_id
 _symmetry_equiv_pos_as_xyz
  1  'x, y, z'
loop_
 _atom_site_type_symbol
 _atom_site_label
 _atom_site_symmetry_multiplicity
 _atom_site_fract_x
 _atom_site_fract_y
 _atom_site_fract_z
 _atom_site_occupancy
  Nd  Nd0  1  0.00000000  0.00000000  0.00000000  1
  Fe  Fe0  1  0.72075700  0.77924300  0.22075700  1
  Fe  Fe1  1  0.27924300  0.22075700  0.77924300  1
  Fe  Fe2  1  0.50000000  0.77746800  0.77746800  1
  Fe  Fe3  1  0.50000000  0.22253200  0.22253200  1
  Fe  Fe4  1  0.50000000  0.00000000  0.50000000  1
  Fe  Fe5  1  0.00000000  0.00000000  0.50000000  1
  Fe  Fe6  1  0.50000000  0.50000000  0.00000000  1
  Fe  Fe7  1  0.00000000  0.50000000  0.00000000  1
  Fe  Fe8  1  0.63916200  0.36083800  0.63916200  1
  Fe  Fe9  1  0.36083800  0.63916200  0.36083800  1
  Mo  Mo0  1  0.00000000  0.36034300  0.36034300  1
  Mo  Mo1  1  0.00000000  0.63965700  0.63965700  1
  N  N0  1  0.50000000  0.00000000  0.00000000  1
loop_
_geom_bond_atom_site_label_1
_geom_bond_atom_site_label_2
_geom_bond_distance
_geom_bond_site_symmetry_2
Fe0 N0 1.917597 1_565
Fe0 Fe6 2.492000 1_555
Fe0 Fe4 2.492000 1_565
Fe0 Fe5 2.492000 1_665
Fe0 Fe7 2.492000 1_655
Fe0 Mo0 2.709644 1_655
Fe0 Mo1 2.709644 1_655
Fe0 Fe9 2.714465 1_555
Fe0 Fe9 2.714465 1_655
Fe1 N0 1.917597 1_556
Fe1 Fe4 2.492000 1_555
Fe1 Fe6 2.492000 1_556
Fe1 Fe7 2.492000 1_556
Fe1 Fe5 2.492000 1_555
Fe1 Mo0 2.709644 1_555
Fe1 Mo1 2.709644 1_555
Fe1 Fe8 2.714465 1_555
Fe1 Fe8 2.714465 1_455
Fe2 N0 1.924328 1_566
Fe2 Fe4 2.498851 1_565
Fe2 Fe6 2.498851 1_556
Fe2 Fe7 2.498851 1_656
Fe2 Fe5 2.498851 1_565
Fe2 Fe8 2.686688 1_555
Fe2 Fe9 2.686688 1_555
Fe2 Mo1 2.703307 1_555
Fe2 Mo1 2.703307 1_655
Fe3 N0 1.924328 1_555
Fe3 Fe6 2.498851 1_555
Fe3 Fe4 2.498851 1_555
Fe3 Fe5 2.498851 1_655
Fe3 Fe7 2.498851 1_555
Fe3 Fe9 2.686688 1_555
Fe3 Fe8 2.686688 1_555
Fe3 Mo0 2.703307 1_555
Fe3 Mo0 2.703307 1_655
Fe4 Fe5 2.426458 1_655
Fe4 Fe5 2.426458 1_555
Fe4 Fe9 2.659418 1_545
Fe4 Fe8 2.659418 1_555
Fe4 Mo0 2.664264 1_555
Fe4 Mo1 2.664264 1_645
Fe4 Nd0 3.295672 1_555
Fe4 Nd0 3.295672 1_656
Fe5 Fe9 2.659418 1_545
Fe5 Fe8 2.659418 1_455
Fe5 Mo0 2.664264 1_555
Fe5 Mo1 2.664264 1_545
Fe5 Nd0 3.295672 1_555
Fe5 Nd0 3.295672 1_556
Fe6 Fe7 2.426458 1_555
Fe6 Fe7 2.426458 1_655
Fe6 Fe8 2.659418 1_554
Fe6 Fe9 2.659418 1_555
Fe6 Mo1 2.664264 1_554
Fe6 Mo0 2.664264 1_655
Fe6 Nd0 3.295672 1_565
Fe6 Nd0 3.295672 1_655
Fe7 Fe8 2.659418 1_454
Fe7 Fe9 2.659418 1_555
Fe7 Mo0 2.664264 1_555
Fe7 Mo1 2.664264 1_554
Fe7 Nd0 3.295672 1_555
Fe7 Nd0 3.295672 1_565
Fe8 Fe9 2.417651 1_555
Fe8 Mo0 2.967731 1_655
Fe8 Mo1 2.967731 1_655
Fe8 Mo0 2.967731 1_555
Fe8 Mo1 2.967731 1_555
Fe8 Nd0 3.134406 1_656
Fe9 Mo0 2.967731 1_555
Fe9 Mo1 2.967731 1_555
Fe9 Mo0 2.967731 1_655
Fe9 Mo1 2.967731 1_655
Fe9 Nd0 3.134406 1_565
Mo0 Mo1 2.415345 1_555
Mo0 Nd0 3.116037 1_555
Mo1 Nd0 3.116037 1_566
N0 Nd0 2.426458 1_555
N0 Nd0 2.426458 1_655
