# generated using pymatgen
data_HoGaAg
_symmetry_space_group_name_H-M   'P 1'
_cell_length_a   5.67093023
_cell_length_b   5.67093023
_cell_length_c   7.09718443
_cell_angle_alpha   52.21776906
_cell_angle_beta   52.21776906
_cell_angle_gamma   46.61672034
_symmetry_Int_Tables_number   1
_chemical_formula_structural   HoGaAg
_chemical_formula_sum   'Ho2 Ga2 Ag2'
_cell_volume   123.57473996
_cell_formula_units_Z   2
loop_
 _symmetry_equiv_pos_site_id
 _symmetry_equiv_pos_as_xyz
  1  'x, y, z'
loop_
 _atom_site_type_symbol
 _atom_site_label
 _atom_site_symmetry_multiplicity
 _atom_site_fract_x
 _atom_site_fract_y
 _atom_site_fract_z
 _atom_site_occupancy
  Ho  Ho0  1  0.53405067  0.53405067  0.70952514  1
  Ho  Ho1  1  0.46594933  0.46594933  0.29047486  1
  Ga  Ga0  1  0.84185828  0.84185828  0.11831966  1
  Ga  Ga1  1  0.15814172  0.15814172  0.88168034  1
  Ag  Ag0  1  0.17316888  0.17316888  0.27875651  1
  Ag  Ag1  1  0.82683112  0.82683112  0.72124349  1
loop_
_geom_bond_atom_site_label_1
_geom_bond_atom_site_label_2
_geom_bond_distance
_geom_bond_site_symmetry_2
Ga0 Ga1 2.508399 1_664
Ga0 Ho0 3.116220 1_564
Ga0 Ho0 3.116220 1_654
Ga0 Ho0 3.152186 1_555
Ga0 Ho1 3.210233 1_655
Ga0 Ho1 3.210233 1_565
Ga0 Ho1 3.231320 1_555
Ga1 Ho1 3.116220 1_456
Ga1 Ho1 3.116220 1_546
Ga1 Ho1 3.152186 1_555
Ga1 Ho0 3.210233 1_545
Ga1 Ho0 3.210233 1_455
Ga1 Ho0 3.231320 1_555
Ag0 Ga0 2.597983 1_545
Ag0 Ga0 2.597983 1_455
Ag0 Ag1 2.785863 1_445
Ag0 Ga1 2.924868 1_554
Ag0 Ho1 3.075917 1_455
Ag0 Ho1 3.075917 1_545
Ag0 Ho1 3.105770 1_555
Ag0 Ho0 3.192140 1_554
Ag0 Ho0 3.251263 1_455
Ag0 Ho0 3.251263 1_545
Ag1 Ga1 2.597983 1_565
Ag1 Ga1 2.597983 1_655
Ag1 Ga0 2.924868 1_556
Ag1 Ho0 3.075917 1_655
Ag1 Ho0 3.075917 1_565
Ag1 Ho0 3.105770 1_555
Ag1 Ho1 3.192140 1_556
Ag1 Ho1 3.251263 1_655
Ag1 Ho1 3.251263 1_565
