# generated using pymatgen
data_Li4FeTe(WO6)2
_symmetry_space_group_name_H-M   'P 1'
_cell_length_a   7.55464703
_cell_length_b   7.58505503
_cell_length_c   7.57847816
_cell_angle_alpha   86.48881401
_cell_angle_beta   93.30387740
_cell_angle_gamma   93.54587736
_symmetry_Int_Tables_number   1
_chemical_formula_structural   Li4FeTe(WO6)2
_chemical_formula_sum   'Li8 Fe2 Te2 W4 O24'
_cell_volume   431.98775714
_cell_formula_units_Z   2
loop_
 _symmetry_equiv_pos_site_id
 _symmetry_equiv_pos_as_xyz
  1  'x, y, z'
loop_
 _atom_site_type_symbol
 _atom_site_label
 _atom_site_symmetry_multiplicity
 _atom_site_fract_x
 _atom_site_fract_y
 _atom_site_fract_z
 _atom_site_occupancy
  Li  Li0  1  0.19852900  0.79236000  0.26729300  1
  Li  Li1  1  0.69902600  0.29586800  0.27134600  1
  Li  Li2  1  0.71959500  0.78313400  0.81024600  1
  Li  Li3  1  0.22754700  0.27717400  0.80008300  1
  Li  Li4  1  0.70464500  0.29809100  0.81126500  1
  Li  Li5  1  0.20438200  0.80162500  0.80496300  1
  Li  Li6  1  0.28220500  0.21854500  0.20323500  1
  Li  Li7  1  0.74848200  0.74144900  0.23510500  1
  Fe  Fe0  1  0.49084900  0.50820600  0.99988700  1
  Fe  Fe1  1  0.99217400  0.00512400  0.00249500  1
  Te  Te0  1  0.49498000  0.01219100  0.51802900  1
  Te  Te1  1  0.00036200  0.50204900  0.50495400  1
  W  W0  1  0.99758000  0.01209800  0.49869100  1
  W  W1  1  0.49870400  0.50725300  0.50440000  1
  W  W2  1  0.49493000  0.99457900  0.00754600  1
  W  W3  1  0.99759800  0.49677800  0.00478800  1
  O  O0  1  0.94811200  0.74545000  0.42615000  1
  O  O1  1  0.44411000  0.25365200  0.42495100  1
  O  O2  1  0.93935300  0.93837900  0.73175800  1
  O  O3  1  0.44624800  0.42419100  0.73702300  1
  O  O4  1  0.74275100  0.93144800  0.05027600  1
  O  O5  1  0.24029100  0.43346100  0.04617800  1
  O  O6  1  0.77809200  0.08122500  0.41629600  1
  O  O7  1  0.24920500  0.56969000  0.43921000  1
  O  O8  1  0.44814300  0.75644200  0.92040000  1
  O  O9  1  0.94160700  0.25695500  0.94247000  1
  O  O10  1  0.57117300  0.07482800  0.75822800  1
  O  O11  1  0.06664000  0.56094300  0.74590300  1
  O  O12  1  0.42688300  0.92189500  0.23369500  1
  O  O13  1  0.93986100  0.43982700  0.25693000  1
  O  O14  1  0.54909400  0.23934500  0.05914100  1
  O  O15  1  0.05847500  0.73903600  0.04393400  1
  O  O16  1  0.24520600  0.94473100  0.57540700  1
  O  O17  1  0.75784700  0.41924900  0.55587800  1
  O  O18  1  0.25146300  0.05067000  0.93591500  1
  O  O19  1  0.75501100  0.54625700  0.94369000  1
  O  O20  1  0.07934600  0.03912700  0.25862700  1
  O  O21  1  0.55919800  0.55015700  0.25874000  1
  O  O22  1  0.07595500  0.25843300  0.56301000  1
  O  O23  1  0.59195000  0.72047800  0.57425900  1
loop_
_geom_bond_atom_site_label_1
_geom_bond_atom_site_label_2
_geom_bond_distance
_geom_bond_site_symmetry_2
Li0 O12 1.953614 1_555
Li0 O15 1.993207 1_555
Li0 O7 2.109406 1_555
Li0 O20 2.122501 1_565
Li0 O0 2.298196 1_455
Li1 O14 1.966592 1_555
Li1 O6 2.009908 1_555
Li1 O13 2.068119 1_555
Li1 O21 2.250130 1_555
Li1 O1 2.302784 1_555
Li1 O17 2.410039 1_555
Li2 O19 2.031810 1_555
Li2 O23 2.050086 1_555
Li2 O2 2.069510 1_555
Li2 O4 2.189699 1_556
Li2 O8 2.251358 1_555
Li2 O10 2.541058 1_565
Li3 O18 1.960694 1_555
Li3 O3 1.999884 1_555
Li3 O22 2.081751 1_555
Li3 O5 2.264699 1_556
Li3 O9 2.462055 1_455
Li3 O11 2.537118 1_555
Li4 O10 1.967624 1_555
Li4 O9 2.028956 1_555
Li4 O17 2.139660 1_555
Li4 O19 2.189517 1_555
Li4 O3 2.254005 1_555
Li4 O14 2.279360 1_556
Li5 O16 2.022126 1_555
Li5 O8 2.032159 1_555
Li5 O11 2.104126 1_555
Li5 O15 2.186390 1_556
Li5 O18 2.187607 1_565
Li5 O2 2.334723 1_455
Li6 O5 1.989247 1_555
Li6 O20 2.030541 1_555
Li6 O1 2.041545 1_555
Li6 O14 2.340083 1_555
Li6 O18 2.450445 1_554
Li6 O12 2.553900 1_545
Li7 O4 1.947893 1_555
Li7 O21 1.980716 1_555
Li7 O0 2.029690 1_555
Fe0 O8 1.981420 1_555
Fe0 O5 1.986685 1_556
Fe0 O21 2.038520 1_556
Fe0 O19 2.063726 1_555
Fe0 O14 2.128419 1_556
Fe0 O3 2.130656 1_555
Fe1 O4 1.979299 1_545
Fe1 O9 1.991318 1_554
Fe1 O20 2.039857 1_655
Fe1 O18 2.054228 1_654
Fe1 O15 2.110045 1_645
Fe1 O2 2.152485 1_544
O0 Te1 1.961858 1_655
O0 W0 2.133441 1_565
O1 Te0 1.974136 1_555
O1 W1 2.061041 1_555
O2 W0 1.887885 1_565
O3 W1 1.890898 1_555
O4 W2 1.965023 1_555
O5 W3 1.927381 1_455
O6 W0 1.833687 1_555
O6 Te0 2.333495 1_555
O7 W1 1.998887 1_555
O7 Te1 2.000730 1_555
O8 W2 1.965706 1_556
O9 W3 1.923021 1_556
O10 Te0 1.955002 1_555
O10 W2 2.052681 1_546
O11 Te1 1.936878 1_555
O11 W3 2.080332 1_456
O12 W2 1.859115 1_555
O12 Te0 2.320863 1_565
O13 Te1 1.986873 1_655
O13 W3 1.999968 1_555
O14 W2 1.934854 1_545
O15 W3 1.903310 1_455
O16 Te0 1.989823 1_565
O16 W0 2.013760 1_465
O17 Te1 1.951795 1_655
O17 W1 2.114761 1_555
O18 W2 1.952478 1_546
O19 W3 1.918299 1_556
O20 W0 1.949797 1_455
O21 W1 1.945832 1_555
O22 Te1 1.983989 1_555
O22 W0 2.005188 1_455
O23 W1 1.820227 1_555
O23 Te0 2.379737 1_565
