# generated using pymatgen
data_PrCuPb
_symmetry_space_group_name_H-M   'P 1'
_cell_length_a   4.61828011
_cell_length_b   4.62032047
_cell_length_c   8.07246077
_cell_angle_alpha   90.00000000
_cell_angle_beta   90.00000000
_cell_angle_gamma   119.98540009
_symmetry_Int_Tables_number   1
_chemical_formula_structural   PrCuPb
_chemical_formula_sum   'Pr2 Cu2 Pb2'
_cell_volume   149.19450198
_cell_formula_units_Z   2
loop_
 _symmetry_equiv_pos_site_id
 _symmetry_equiv_pos_as_xyz
  1  'x, y, z'
loop_
 _atom_site_type_symbol
 _atom_site_label
 _atom_site_symmetry_multiplicity
 _atom_site_fract_x
 _atom_site_fract_y
 _atom_site_fract_z
 _atom_site_occupancy
  Pr  Pr0  1  -0.00000000  -0.00000000  0.50000000  1
  Pr  Pr1  1  -0.00000000  -0.00000000  -0.00000000  1
  Cu  Cu0  1  0.33323868  0.66647736  0.25000000  1
  Cu  Cu1  1  0.66676132  0.33352264  0.75000000  1
  Pb  Pb0  1  0.33335143  0.66670285  0.75000000  1
  Pb  Pb1  1  0.66664857  0.33329715  0.25000000  1
loop_
_geom_bond_atom_site_label_1
_geom_bond_atom_site_label_2
_geom_bond_distance
_geom_bond_site_symmetry_2
Cu0 Pb1 2.666451 1_455
Cu0 Pb1 2.666452 1_555
Cu0 Pb1 2.668548 1_565
Cu0 Pr0 3.344609 1_665
Cu0 Pr1 3.344609 1_665
Cu0 Pr1 3.344609 1_565
Cu0 Pr0 3.344609 1_565
Cu0 Pr1 3.344642 1_555
Cu0 Pr0 3.344642 1_555
Cu1 Pb0 2.666451 1_655
Cu1 Pb0 2.666452 1_555
Cu1 Pb0 2.668548 1_545
Cu1 Pr1 3.344609 1_556
Cu1 Pr0 3.344609 1_555
Cu1 Pr1 3.344609 1_656
Cu1 Pr0 3.344609 1_655
Cu1 Pr0 3.344642 1_665
Cu1 Pr1 3.344642 1_666
Pb0 Pr0 3.344249 1_665
Pb0 Pr1 3.344249 1_666
Pb0 Pr1 3.344249 1_566
Pb0 Pr0 3.344249 1_565
Pb0 Pr0 3.345361 1_555
Pb0 Pr1 3.345361 1_556
Pb1 Pr1 3.344249 1_555
Pb1 Pr0 3.344249 1_555
Pb1 Pr1 3.344249 1_655
Pb1 Pr0 3.344249 1_655
Pb1 Pr1 3.345361 1_665
Pb1 Pr0 3.345361 1_665
