# generated using pymatgen
data_Fe74W13
_symmetry_space_group_name_H-M   'P 1'
_cell_length_a   7.68446973
_cell_length_b   7.68446973
_cell_length_c   19.33822705
_cell_angle_alpha   82.38990808
_cell_angle_beta   82.38990808
_cell_angle_gamma   109.47928081
_symmetry_Int_Tables_number   1
_chemical_formula_structural   Fe74W13
_chemical_formula_sum   'Fe74 W13'
_cell_volume   1047.87071547
_cell_formula_units_Z   1
loop_
 _symmetry_equiv_pos_site_id
 _symmetry_equiv_pos_as_xyz
  1  'x, y, z'
loop_
 _atom_site_type_symbol
 _atom_site_label
 _atom_site_symmetry_multiplicity
 _atom_site_fract_x
 _atom_site_fract_y
 _atom_site_fract_z
 _atom_site_occupancy
  Fe  Fe0  1  0.70925434  0.52341089  0.33320025  1
  Fe  Fe1  1  0.04200612  0.85688538  0.66666700  1
  Fe  Fe2  1  0.37578859  0.18994514  0.00013275  1
  Fe  Fe3  1  0.64541561  0.26987274  0.27002807  1
  Fe  Fe4  1  0.97944791  0.60349039  0.60327756  1
  Fe  Fe5  1  0.31195780  0.93678763  0.93698249  1
  Fe  Fe6  1  0.24877768  0.87323481  0.06330493  1
  Fe  Fe7  1  0.58227329  0.20710313  0.39635051  1
  Fe  Fe8  1  0.91605847  0.54010095  0.73005644  1
  Fe  Fe9  1  0.52341089  0.70925434  0.33320025  1
  Fe  Fe10  1  0.85688538  0.04200612  0.66666700  1
  Fe  Fe11  1  0.18994514  0.37578859  0.00013275  1
  Fe  Fe12  1  0.87323481  0.24877768  0.06330493  1
  Fe  Fe13  1  0.20710313  0.58227329  0.39635051  1
  Fe  Fe14  1  0.54010095  0.91605847  0.73005644  1
  Fe  Fe15  1  0.26987274  0.64541561  0.27002807  1
  Fe  Fe16  1  0.60349039  0.97944791  0.60327756  1
  Fe  Fe17  1  0.93678763  0.31195780  0.93698249  1
  Fe  Fe18  1  0.68654361  0.68654361  0.06179921  1
  Fe  Fe19  1  0.01963113  0.01963113  0.39492548  1
  Fe  Fe20  1  0.35301052  0.35301052  0.72868289  1
  Fe  Fe21  1  0.74957262  0.93943471  0.12517197  1
  Fe  Fe22  1  0.08317498  0.27306942  0.45845622  1
  Fe  Fe23  1  0.41570584  0.60587012  0.79187865  1
  Fe  Fe24  1  0.93943471  0.74957262  0.12517197  1
  Fe  Fe25  1  0.27306942  0.08317498  0.45845622  1
  Fe  Fe26  1  0.60587012  0.41570584  0.79187865  1
  Fe  Fe27  1  0.08167682  0.08167682  0.27153379  1
  Fe  Fe28  1  0.41502642  0.41502642  0.60465011  1
  Fe  Fe29  1  0.74788961  0.74788961  0.93840852  1
  Fe  Fe30  1  0.39794068  0.20807859  0.20816103  1
  Fe  Fe31  1  0.73108178  0.54091749  0.54145435  1
  Fe  Fe32  1  0.06485864  0.87496420  0.87487778  1
  Fe  Fe33  1  0.20807859  0.39794068  0.20816103  1
  Fe  Fe34  1  0.54091749  0.73108178  0.54145435  1
  Fe  Fe35  1  0.87496420  0.06485864  0.87487778  1
  Fe  Fe36  1  0.99998373  0.99998373  0.00009394  1
  Fe  Fe37  1  0.33341068  0.33341068  0.33323906  1
  Fe  Fe38  1  0.73536665  0.01129422  0.33328357  1
  Fe  Fe39  1  0.06713028  0.34364832  0.66666700  1
  Fe  Fe40  1  0.40198422  0.67791179  0.00004943  1
  Fe  Fe41  1  0.50924363  0.10738155  0.10719398  1
  Fe  Fe42  1  0.84297110  0.44085805  0.44080127  1
  Fe  Fe43  1  0.17556134  0.77463341  0.77404246  1
  Fe  Fe44  1  0.94977062  0.54790853  0.22614002  1
  Fe  Fe45  1  0.28293780  0.88200987  0.55929054  1
  Fe  Fe46  1  0.61710537  0.21499232  0.89253173  1
  Fe  Fe47  1  0.01129422  0.73536665  0.33328357  1
  Fe  Fe48  1  0.34364832  0.06713028  0.66666700  1
  Fe  Fe49  1  0.67791179  0.40198422  0.00004943  1
  Fe  Fe50  1  0.54790853  0.94977062  0.22614002  1
  Fe  Fe51  1  0.88200987  0.28293780  0.55929054  1
  Fe  Fe52  1  0.21499232  0.61710537  0.89253173  1
  Fe  Fe53  1  0.10738155  0.50924363  0.10719398  1
  Fe  Fe54  1  0.44085805  0.84297110  0.44080127  1
  Fe  Fe55  1  0.77463341  0.17556134  0.77404246  1
  Fe  Fe56  1  0.83926083  0.83926083  0.24131805  1
  Fe  Fe57  1  0.17307971  0.17307971  0.57567680  1
  Fe  Fe58  1  0.50595964  0.50595964  0.90746988  1
  Fe  Fe59  1  0.73197507  0.41020251  0.13400197  1
  Fe  Fe60  1  0.06567960  0.74237827  0.46734608  1
  Fe  Fe61  1  0.39879722  0.07738653  0.80047242  1
  Fe  Fe62  1  0.41020251  0.73197507  0.13400197  1
  Fe  Fe63  1  0.74237827  0.06567960  0.46734608  1
  Fe  Fe64  1  0.07738653  0.39879722  0.80047242  1
  Fe  Fe65  1  0.41391288  0.41391288  0.09201495  1
  Fe  Fe66  1  0.74676251  0.74676251  0.42586312  1
  Fe  Fe67  1  0.08208951  0.08208951  0.75765720  1
  Fe  Fe68  1  0.87753748  0.19931004  0.19933203  1
  Fe  Fe69  1  0.21119295  0.53260364  0.53286058  1
  Fe  Fe70  1  0.54305735  0.86635868  0.86598692  1
  Fe  Fe71  1  0.19931004  0.87753748  0.19933203  1
  Fe  Fe72  1  0.53260364  0.21119295  0.53286058  1
  Fe  Fe73  1  0.86635868  0.54305735  0.86598692  1
  W  W0  1  0.96622713  0.33349667  0.33313400  1
  W  W1  1  0.29490234  0.66662622  0.66666700  1
  W  W2  1  0.63269513  -0.00003533  0.00019900  1
  W  W3  1  -0.00003533  0.63269513  0.00019900  1
  W  W4  1  0.33349667  0.96622713  0.33313400  1
  W  W5  1  0.66662622  0.29490234  0.66666700  1
  W  W6  1  0.57795567  0.57795567  0.21115541  1
  W  W7  1  0.91459581  0.91459581  0.54250956  1
  W  W8  1  0.24420103  0.24420103  0.87796306  1
  W  W9  1  0.12244508  0.12244508  0.12217759  1
  W  W10  1  0.45549709  0.45549709  0.45536994  1
  W  W11  1  0.79043837  0.79043837  0.79082444  1
  W  W12  1  0.66704884  0.66704884  0.66666700  1
loop_
_geom_bond_atom_site_label_1
_geom_bond_atom_site_label_2
_geom_bond_distance
_geom_bond_site_symmetry_2
Fe0 Fe9 2.332207 1_555
Fe0 Fe47 2.349558 1_655
Fe0 Fe7 2.380748 1_555
Fe0 Fe3 2.383412 1_555
Fe0 Fe44 2.527652 1_555
Fe0 Fe42 2.537613 1_555
Fe0 Fe56 2.610870 1_555
Fe0 Fe66 2.619427 1_555
Fe0 W6 2.722985 1_555
Fe0 W10 2.725979 1_555
Fe0 Fe37 2.767669 1_555
Fe0 W0 2.819767 1_555
Fe1 Fe10 2.323138 1_465
Fe1 Fe48 2.342124 1_565
Fe1 Fe4 2.385245 1_455
Fe1 Fe8 2.385245 1_455
Fe1 Fe43 2.532567 1_555
Fe1 Fe45 2.532583 1_555
Fe1 Fe67 2.603938 1_565
Fe1 Fe57 2.603938 1_565
Fe1 W11 2.747760 1_455
Fe1 W7 2.747760 1_455
Fe1 W12 2.761690 1_455
Fe1 W1 2.794497 1_555
Fe2 Fe49 2.349558 1_555
Fe2 Fe5 2.380748 1_544
Fe2 Fe6 2.383412 1_545
Fe2 Fe41 2.527666 1_555
Fe2 Fe46 2.537611 1_554
Fe2 Fe65 2.610870 1_555
Fe2 Fe58 2.619427 1_554
Fe2 W9 2.722985 1_555
Fe2 W8 2.725979 1_554
Fe2 Fe36 2.767669 1_445
Fe2 W2 2.819767 1_555
Fe3 Fe30 2.328990 1_555
Fe3 Fe68 2.353784 1_555
Fe3 Fe7 2.377708 1_555
Fe3 Fe44 2.533087 1_555
Fe3 Fe38 2.533505 1_555
Fe3 Fe50 2.612393 1_545
Fe3 Fe59 2.613756 1_555
Fe3 W4 2.723980 1_545
Fe3 W6 2.725926 1_555
Fe3 Fe37 2.764713 1_555
Fe3 W0 2.820790 1_555
Fe4 Fe69 2.350231 1_655
Fe4 Fe8 2.386298 1_555
Fe4 Fe45 2.531148 1_655
Fe4 Fe60 2.609981 1_655
Fe4 Fe51 2.616396 1_555
Fe4 W7 2.747776 1_555
Fe4 W5 2.748150 1_555
Fe4 W12 2.768634 1_555
Fe4 W1 2.788285 1_655
Fe5 Fe70 2.350237 1_555
Fe5 Fe6 2.377708 1_556
Fe5 Fe52 2.614786 1_555
Fe5 Fe61 2.622716 1_565
Fe5 W8 2.723573 1_565
Fe5 W3 2.726483 1_556
Fe5 W2 2.821725 1_566
Fe6 Fe62 2.353794 1_555
Fe6 Fe71 2.613774 1_555
Fe6 W3 2.723980 1_555
Fe6 W9 2.725926 1_565
Fe6 W2 2.820790 1_565
Fe7 Fe72 2.622718 1_555
Fe7 W10 2.723573 1_555
Fe7 W4 2.726483 1_545
Fe7 W0 2.821725 1_555
Fe8 W11 2.747776 1_555
Fe8 W5 2.748150 1_555
Fe8 W12 2.768634 1_555
Fe8 W1 2.788285 1_655
Fe9 W6 2.722985 1_555
Fe9 W10 2.725979 1_555
Fe9 W4 2.819767 1_555
Fe10 Fe39 2.342124 1_655
Fe10 Fe16 2.385245 1_545
Fe10 Fe14 2.385245 1_545
Fe10 Fe55 2.532567 1_555
Fe10 Fe51 2.532583 1_555
Fe10 Fe67 2.603938 1_655
Fe10 Fe57 2.603938 1_655
Fe10 W7 2.747760 1_545
Fe10 W11 2.747760 1_545
Fe10 W12 2.761690 1_545
Fe10 W5 2.794497 1_555
Fe11 Fe2 2.332207 1_555
Fe11 Fe40 2.349558 1_555
Fe11 Fe17 2.380748 1_454
Fe11 Fe12 2.383412 1_455
Fe11 Fe53 2.527666 1_555
Fe11 Fe52 2.537611 1_554
Fe11 Fe65 2.610870 1_555
Fe11 Fe58 2.619427 1_554
Fe11 W9 2.722985 1_555
Fe11 W8 2.725979 1_554
Fe11 Fe36 2.767669 1_445
Fe11 W3 2.819767 1_555
Fe12 Fe21 2.328997 1_545
Fe12 Fe59 2.353794 1_555
Fe12 Fe17 2.377708 1_554
Fe12 Fe53 2.533089 1_655
Fe12 Fe49 2.533505 1_555
Fe12 Fe41 2.612403 1_555
Fe12 Fe68 2.613774 1_555
Fe12 W2 2.723980 1_555
Fe12 W9 2.725926 1_655
Fe12 Fe36 2.764713 1_545
Fe12 W3 2.820790 1_655
Fe13 Fe22 2.329626 1_555
Fe13 Fe60 2.350238 1_555
Fe13 Fe15 2.377708 1_555
Fe13 Fe9 2.380748 1_555
Fe13 Fe47 2.534196 1_555
Fe13 Fe54 2.538493 1_555
Fe13 Fe42 2.614779 1_455
Fe13 Fe69 2.622718 1_555
Fe13 W10 2.723573 1_555
Fe13 W0 2.726483 1_455
Fe13 Fe37 2.762456 1_555
Fe13 W4 2.821725 1_555
Fe14 Fe23 2.334024 1_555
Fe14 Fe61 2.350219 1_565
Fe14 Fe16 2.386298 1_555
Fe14 Fe55 2.531138 1_565
Fe14 Fe48 2.532081 1_565
Fe14 Fe70 2.609962 1_555
Fe14 Fe43 2.616393 1_555
Fe14 W11 2.747776 1_555
Fe14 W1 2.748150 1_555
Fe14 W12 2.768634 1_555
Fe14 W5 2.788285 1_565
Fe15 Fe33 2.328990 1_555
Fe15 Fe71 2.353784 1_555
Fe15 Fe9 2.383412 1_555
Fe15 Fe50 2.533087 1_555
Fe15 Fe47 2.533505 1_555
Fe15 Fe44 2.612393 1_455
Fe15 Fe62 2.613756 1_555
Fe15 W0 2.723980 1_455
Fe15 W6 2.725926 1_555
Fe15 Fe37 2.764713 1_555
Fe15 W4 2.820790 1_555
Fe16 Fe34 2.334036 1_555
Fe16 Fe72 2.350231 1_565
Fe16 Fe51 2.531148 1_565
Fe16 Fe48 2.532081 1_565
Fe16 Fe63 2.609981 1_565
Fe16 Fe45 2.616396 1_555
Fe16 W7 2.747776 1_555
Fe16 W1 2.748150 1_555
Fe16 W12 2.768634 1_555
Fe16 W5 2.788285 1_565
Fe17 Fe35 2.329620 1_555
Fe17 Fe73 2.350237 1_555
Fe17 Fe49 2.534196 1_556
Fe17 Fe52 2.538485 1_655
Fe17 Fe46 2.614786 1_555
Fe17 Fe64 2.622716 1_655
Fe17 W8 2.723573 1_655
Fe17 W2 2.726483 1_556
Fe17 Fe36 2.762456 1_546
Fe17 W3 2.821725 1_656
Fe18 Fe29 2.322526 1_554
Fe18 Fe65 2.354561 1_555
Fe18 Fe21 2.381867 1_555
Fe18 Fe24 2.381867 1_555
Fe18 Fe59 2.533591 1_555
Fe18 Fe62 2.533591 1_555
Fe18 Fe49 2.613007 1_555
Fe18 Fe40 2.613007 1_555
Fe18 W2 2.725134 1_565
Fe18 W3 2.725134 1_655
Fe18 Fe36 2.763174 1_555
Fe18 W6 2.827313 1_555
Fe19 Fe27 2.322545 1_555
Fe19 Fe66 2.356822 1_445
Fe19 Fe25 2.387283 1_555
Fe19 Fe22 2.387283 1_555
Fe19 Fe60 2.543532 1_545
Fe19 Fe63 2.543532 1_455
Fe19 Fe38 2.610239 1_455
Fe19 Fe47 2.610239 1_545
Fe19 W4 2.727667 1_545
Fe19 W0 2.727667 1_455
Fe19 Fe37 2.765834 1_555
Fe19 W7 2.791701 1_445
Fe20 Fe28 2.334609 1_555
Fe20 Fe67 2.339629 1_555
Fe20 Fe26 2.379451 1_555
Fe20 Fe23 2.379451 1_555
Fe20 Fe64 2.526803 1_555
Fe20 Fe61 2.526803 1_555
Fe20 Fe39 2.623889 1_555
Fe20 Fe48 2.623889 1_555
Fe20 W1 2.745841 1_555
Fe20 W5 2.745841 1_555
Fe20 W12 2.769200 1_555
Fe20 W8 2.826136 1_555
Fe21 Fe50 2.354142 1_555
Fe21 Fe24 2.382638 1_555
Fe21 Fe62 2.531578 1_555
Fe21 Fe56 2.533427 1_555
Fe21 Fe68 2.614209 1_565
Fe21 Fe41 2.614950 1_565
Fe21 W2 2.723877 1_565
Fe21 W9 2.727314 1_665
Fe21 Fe36 2.764394 1_555
Fe21 W6 2.823600 1_555
Fe22 Fe51 2.348764 1_455
Fe22 Fe25 2.383044 1_555
Fe22 Fe63 2.540155 1_455
Fe22 Fe57 2.552205 1_555
Fe22 Fe42 2.612231 1_455
Fe22 Fe69 2.615734 1_555
Fe22 W10 2.722553 1_555
Fe22 W0 2.730157 1_455
Fe22 Fe37 2.766022 1_555
Fe22 W7 2.790139 1_445
Fe23 Fe52 2.348025 1_555
Fe23 Fe26 2.386431 1_555
Fe23 Fe64 2.524904 1_555
Fe23 Fe58 2.525542 1_555
Fe23 Fe70 2.615956 1_555
Fe23 Fe43 2.617720 1_555
Fe23 W1 2.743676 1_555
Fe23 W11 2.749027 1_555
Fe23 W12 2.769247 1_555
Fe23 W8 2.825418 1_555
Fe24 Fe6 2.328997 1_655
Fe24 Fe44 2.354142 1_555
Fe24 Fe59 2.531578 1_555
Fe24 Fe56 2.533427 1_555
Fe24 Fe71 2.614209 1_655
Fe24 Fe53 2.614950 1_655
Fe24 W3 2.723877 1_655
Fe24 W9 2.727314 1_665
Fe24 Fe36 2.764394 1_555
Fe24 W6 2.823600 1_555
Fe25 Fe7 2.329626 1_555
Fe25 Fe45 2.348764 1_545
Fe25 Fe60 2.540155 1_545
Fe25 Fe57 2.552205 1_555
Fe25 Fe54 2.612231 1_545
Fe25 Fe72 2.615734 1_555
Fe25 W10 2.722553 1_555
Fe25 W4 2.730157 1_545
Fe25 Fe37 2.766022 1_555
Fe25 W7 2.790139 1_445
Fe26 Fe8 2.334024 1_555
Fe26 Fe46 2.348025 1_555
Fe26 Fe61 2.524904 1_555
Fe26 Fe58 2.525542 1_555
Fe26 Fe73 2.615956 1_555
Fe26 Fe55 2.617720 1_555
Fe26 W5 2.743676 1_555
Fe26 W11 2.749027 1_555
Fe26 W12 2.769247 1_555
Fe26 W8 2.825418 1_555
Fe27 Fe56 2.354569 1_445
Fe27 Fe30 2.381867 1_555
Fe27 Fe33 2.381867 1_555
Fe27 Fe71 2.533582 1_545
Fe27 Fe68 2.533582 1_455
Fe27 Fe38 2.613012 1_455
Fe27 Fe47 2.613012 1_545
Fe27 W4 2.725131 1_545
Fe27 W0 2.725131 1_455
Fe27 Fe37 2.763166 1_555
Fe27 W9 2.827313 1_555
Fe28 Fe57 2.339620 1_555
Fe28 Fe34 2.379451 1_555
Fe28 Fe31 2.379451 1_555
Fe28 Fe72 2.526800 1_555
Fe28 Fe69 2.526800 1_555
Fe28 Fe39 2.623895 1_555
Fe28 Fe48 2.623895 1_555
Fe28 W5 2.745850 1_555
Fe28 W1 2.745850 1_555
Fe28 W12 2.769211 1_555
Fe28 W10 2.826136 1_555
Fe29 Fe58 2.356822 1_555
Fe29 Fe35 2.387283 1_565
Fe29 Fe32 2.387283 1_655
Fe29 Fe73 2.543543 1_555
Fe29 Fe70 2.543543 1_555
Fe29 Fe49 2.610228 1_556
Fe29 Fe40 2.610228 1_556
Fe29 W3 2.727660 1_656
Fe29 W2 2.727660 1_566
Fe29 Fe36 2.765830 1_556
Fe29 W11 2.791701 1_555
Fe30 Fe41 2.354128 1_555
Fe30 Fe33 2.382638 1_555
Fe30 Fe71 2.531581 1_545
Fe30 Fe65 2.533427 1_555
Fe30 Fe59 2.614195 1_555
Fe30 Fe50 2.614953 1_545
Fe30 W4 2.723880 1_545
Fe30 W6 2.727306 1_555
Fe30 Fe37 2.764391 1_555
Fe30 W9 2.823600 1_555
Fe31 Fe4 2.334036 1_555
Fe31 Fe42 2.348023 1_555
Fe31 Fe34 2.386431 1_555
Fe31 Fe72 2.524895 1_555
Fe31 Fe66 2.525542 1_555
Fe31 Fe60 2.615963 1_655
Fe31 Fe51 2.617718 1_555
Fe31 W5 2.743691 1_555
Fe31 W7 2.749031 1_555
Fe31 W12 2.769264 1_555
Fe31 W10 2.825418 1_555
Fe32 Fe5 2.329620 1_555
Fe32 Fe43 2.348780 1_555
Fe32 Fe35 2.383044 1_465
Fe32 Fe73 2.540161 1_455
Fe32 Fe67 2.552205 1_565
Fe32 Fe52 2.612229 1_555
Fe32 Fe61 2.615741 1_565
Fe32 W8 2.722557 1_565
Fe32 W3 2.730140 1_556
Fe32 Fe36 2.766007 1_456
Fe32 W11 2.790139 1_455
Fe33 Fe53 2.354128 1_555
Fe33 Fe68 2.531581 1_455
Fe33 Fe65 2.533427 1_555
Fe33 Fe62 2.614195 1_555
Fe33 Fe44 2.614953 1_455
Fe33 W0 2.723880 1_455
Fe33 W6 2.727306 1_555
Fe33 Fe37 2.764391 1_555
Fe33 W9 2.823600 1_555
Fe34 Fe54 2.348023 1_555
Fe34 Fe69 2.524895 1_555
Fe34 Fe66 2.525542 1_555
Fe34 Fe63 2.615963 1_565
Fe34 Fe45 2.617718 1_555
Fe34 W1 2.743691 1_555
Fe34 W7 2.749031 1_555
Fe34 W12 2.769264 1_555
Fe34 W10 2.825418 1_555
Fe35 Fe55 2.348780 1_555
Fe35 Fe70 2.540161 1_545
Fe35 Fe67 2.552205 1_655
Fe35 Fe46 2.612229 1_555
Fe35 Fe64 2.615741 1_655
Fe35 W8 2.722557 1_655
Fe35 W2 2.730140 1_556
Fe35 Fe36 2.766007 1_546
Fe35 W11 2.790139 1_545
Fe36 Fe5 2.762456 1_654
Fe36 Fe6 2.764713 1_655
Fe36 W8 2.815161 1_664
Fe36 W9 2.816236 1_665
Fe36 W3 2.822101 1_655
Fe36 W2 2.822101 1_565
Fe37 Fe7 2.762456 1_555
Fe37 Fe9 2.767669 1_555
Fe37 W10 2.815161 1_555
Fe37 W6 2.816236 1_555
Fe37 W0 2.822101 1_455
Fe37 W4 2.822101 1_545
Fe38 Fe9 2.349558 1_545
Fe38 W0 2.518901 1_555
Fe38 Fe7 2.534196 1_555
Fe38 Fe56 2.549211 1_545
Fe38 Fe66 2.557630 1_545
Fe38 Fe50 2.680938 1_545
Fe38 Fe68 2.682828 1_555
Fe38 Fe54 2.684588 1_545
Fe38 Fe63 2.684722 1_555
Fe38 W4 2.990990 1_545
Fe39 W1 2.515203 1_555
Fe39 Fe8 2.532081 1_455
Fe39 Fe4 2.532081 1_455
Fe39 Fe67 2.533805 1_555
Fe39 Fe57 2.533805 1_555
Fe39 Fe55 2.673819 1_455
Fe39 Fe51 2.673830 1_455
Fe39 Fe64 2.683925 1_555
Fe39 Fe69 2.683945 1_555
Fe39 W5 2.973792 1_455
Fe40 W2 2.518901 1_565
Fe40 Fe6 2.533505 1_555
Fe40 Fe5 2.534196 1_554
Fe40 Fe65 2.549211 1_555
Fe40 Fe58 2.557630 1_554
Fe40 Fe53 2.680954 1_555
Fe40 Fe62 2.682844 1_555
Fe40 Fe52 2.684593 1_554
Fe40 Fe70 2.684719 1_554
Fe40 W3 2.990990 1_555
Fe41 W2 2.513400 1_555
Fe41 Fe6 2.533089 1_545
Fe41 Fe59 2.551763 1_555
Fe41 Fe50 2.555242 1_545
Fe41 Fe49 2.680954 1_555
Fe41 Fe65 2.682538 1_555
Fe41 Fe71 2.683969 1_545
Fe41 Fe62 2.684244 1_545
Fe41 W9 2.990386 1_555
Fe42 W0 2.523226 1_555
Fe42 Fe7 2.538493 1_555
Fe42 Fe60 2.542455 1_655
Fe42 Fe51 2.549788 1_555
Fe42 Fe63 2.681342 1_555
Fe42 Fe66 2.681727 1_555
Fe42 Fe47 2.684588 1_655
Fe42 Fe72 2.684830 1_555
Fe42 W10 2.994550 1_555
Fe43 W1 2.510233 1_555
Fe43 Fe8 2.531138 1_455
Fe43 Fe52 2.549788 1_555
Fe43 Fe61 2.549910 1_565
Fe43 Fe48 2.673819 1_565
Fe43 Fe67 2.681826 1_565
Fe43 Fe73 2.682694 1_455
Fe43 Fe64 2.687987 1_555
Fe43 W11 2.978974 1_455
Fe44 W0 2.513385 1_555
Fe44 Fe71 2.551763 1_655
Fe44 Fe53 2.555242 1_655
Fe44 Fe47 2.680938 1_655
Fe44 Fe56 2.682534 1_555
Fe44 Fe59 2.683969 1_555
Fe44 Fe68 2.684244 1_555
Fe44 W6 2.990391 1_555
Fe45 W1 2.510249 1_555
Fe45 Fe54 2.549788 1_555
Fe45 Fe72 2.549910 1_565
Fe45 Fe48 2.673830 1_565
Fe45 Fe57 2.681827 1_565
Fe45 Fe60 2.682694 1_555
Fe45 Fe69 2.687987 1_555
Fe45 W7 2.978974 1_455
Fe46 W2 2.523224 1_556
Fe46 Fe5 2.538485 1_545
Fe46 Fe73 2.542455 1_555
Fe46 Fe55 2.549788 1_555
Fe46 Fe70 2.681342 1_545
Fe46 Fe58 2.681730 1_555
Fe46 Fe49 2.684593 1_556
Fe46 Fe61 2.684830 1_555
Fe46 W8 2.994545 1_555
Fe47 W4 2.518901 1_555
Fe47 Fe56 2.549211 1_455
Fe47 Fe66 2.557630 1_455
Fe47 Fe71 2.682828 1_555
Fe47 Fe60 2.684722 1_555
Fe47 W0 2.990990 1_455
Fe48 W5 2.515203 1_555
Fe48 Fe67 2.533805 1_555
Fe48 Fe57 2.533805 1_555
Fe48 Fe61 2.683925 1_555
Fe48 Fe72 2.683945 1_555
Fe48 W1 2.973792 1_545
Fe49 W3 2.518901 1_655
Fe49 Fe65 2.549211 1_555
Fe49 Fe58 2.557630 1_554
Fe49 Fe59 2.682844 1_555
Fe49 Fe73 2.684719 1_554
Fe49 W2 2.990990 1_555
Fe50 W4 2.513385 1_555
Fe50 Fe9 2.527652 1_555
Fe50 Fe68 2.551763 1_565
Fe50 Fe56 2.682534 1_555
Fe50 Fe62 2.683969 1_555
Fe50 Fe71 2.684244 1_555
Fe50 W6 2.990391 1_555
Fe51 W5 2.510249 1_555
Fe51 Fe69 2.549910 1_655
Fe51 Fe57 2.681827 1_655
Fe51 Fe63 2.682694 1_555
Fe51 Fe72 2.687987 1_555
Fe51 W7 2.978974 1_545
Fe52 W3 2.523224 1_556
Fe52 Fe70 2.542455 1_555
Fe52 Fe73 2.681342 1_455
Fe52 Fe58 2.681730 1_555
Fe52 Fe64 2.684830 1_555
Fe52 W8 2.994545 1_555
Fe53 W3 2.513400 1_555
Fe53 Fe62 2.551763 1_555
Fe53 Fe6 2.612403 1_555
Fe53 Fe65 2.682538 1_555
Fe53 Fe68 2.683969 1_455
Fe53 Fe59 2.684244 1_455
Fe53 W9 2.990386 1_555
Fe54 W4 2.523226 1_555
Fe54 Fe9 2.537613 1_555
Fe54 Fe63 2.542455 1_565
Fe54 Fe7 2.614779 1_565
Fe54 Fe60 2.681342 1_555
Fe54 Fe66 2.681727 1_555
Fe54 Fe69 2.684830 1_555
Fe54 W10 2.994550 1_555
Fe55 W5 2.510233 1_555
Fe55 Fe64 2.549910 1_655
Fe55 Fe8 2.616393 1_555
Fe55 Fe67 2.681826 1_655
Fe55 Fe70 2.682694 1_545
Fe55 Fe61 2.687987 1_555
Fe55 W11 2.978974 1_545
Fe56 W6 2.517069 1_555
Fe56 Fe9 2.610870 1_555
Fe56 Fe68 2.683255 1_565
Fe56 Fe71 2.683255 1_655
Fe56 W9 2.994181 1_665
Fe57 W7 2.519086 1_445
Fe57 Fe72 2.682234 1_555
Fe57 Fe69 2.682234 1_555
Fe57 W10 3.002780 1_555
Fe58 W8 2.515400 1_555
Fe58 Fe73 2.686863 1_555
Fe58 Fe70 2.686863 1_555
Fe58 W11 2.974340 1_555
Fe59 W6 2.519508 1_555
Fe59 Fe68 2.552376 1_555
Fe59 Fe65 2.683258 1_555
Fe59 W3 2.987984 1_655
Fe60 W7 2.509839 1_455
Fe60 Fe69 2.547647 1_555
Fe60 Fe66 2.686869 1_455
Fe60 W4 2.995396 1_555
Fe61 W8 2.520525 1_555
Fe61 Fe70 2.547647 1_545
Fe61 Fe67 2.682225 1_555
Fe61 W5 2.979062 1_555
Fe62 W6 2.519508 1_555
Fe62 Fe71 2.552376 1_555
Fe62 Fe65 2.683258 1_555
Fe62 W2 2.987984 1_565
Fe63 Fe7 2.350238 1_555
Fe63 W7 2.509839 1_545
Fe63 Fe72 2.547647 1_555
Fe63 Fe66 2.686869 1_545
Fe63 W0 2.995396 1_555
Fe64 Fe8 2.350219 1_455
Fe64 W8 2.520525 1_555
Fe64 Fe73 2.547647 1_455
Fe64 Fe67 2.682225 1_555
Fe64 W1 2.979062 1_555
Fe65 W9 2.517069 1_555
Fe65 W6 2.994175 1_555
Fe66 W10 2.515400 1_555
Fe66 Fe9 2.619427 1_555
Fe66 W7 2.974357 1_555
Fe67 W11 2.519086 1_445
Fe67 W8 3.002768 1_555
Fe68 W9 2.519520 1_655
Fe68 W0 2.987966 1_555
Fe69 W10 2.520524 1_555
Fe69 W1 2.979076 1_555
Fe70 W11 2.509829 1_555
Fe70 W2 2.995401 1_566
Fe71 W9 2.519520 1_565
Fe71 W4 2.987966 1_555
Fe72 W10 2.520524 1_555
Fe72 W5 2.979076 1_555
Fe73 W11 2.509829 1_555
Fe73 Fe8 2.609962 1_555
Fe73 W3 2.995401 1_656
W1 W12 2.858667 1_555
W11 W12 2.858178 1_555
W12 W7 2.858178 1_555
W12 W5 2.858667 1_555
