# generated using pymatgen
data_Eu2B2O5
_symmetry_space_group_name_H-M   'P 1'
_cell_length_a   5.32038692
_cell_length_b   7.69181114
_cell_length_c   11.84755439
_cell_angle_alpha   86.49578900
_cell_angle_beta   90.00397100
_cell_angle_gamma   90.00302127
_symmetry_Int_Tables_number   1
_chemical_formula_structural   Eu2B2O5
_chemical_formula_sum   'Eu8 B8 O20'
_cell_volume   483.93583525
_cell_formula_units_Z   4
loop_
 _symmetry_equiv_pos_site_id
 _symmetry_equiv_pos_as_xyz
  1  'x, y, z'
loop_
 _atom_site_type_symbol
 _atom_site_label
 _atom_site_symmetry_multiplicity
 _atom_site_fract_x
 _atom_site_fract_y
 _atom_site_fract_z
 _atom_site_occupancy
  Eu  Eu0  1  0.41568054  0.87631830  0.83900977  1
  Eu  Eu1  1  0.58431946  0.12368170  0.16099023  1
  Eu  Eu2  1  0.91562543  0.12360640  0.66093784  1
  Eu  Eu3  1  0.08437457  0.87639360  0.33906216  1
  Eu  Eu4  1  0.96357594  0.61650289  0.63330957  1
  Eu  Eu5  1  0.03642406  0.38349711  0.36669043  1
  Eu  Eu6  1  0.46353111  0.38347345  0.86669692  1
  Eu  Eu7  1  0.53646889  0.61652655  0.13330308  1
  B  B0  1  0.45694736  0.34020693  0.58226756  1
  B  B1  1  0.54305264  0.65979307  0.41773244  1
  B  B2  1  0.95705572  0.65982684  0.91781453  1
  B  B3  1  0.04294428  0.34017316  0.08218547  1
  B  B4  1  0.43350859  0.83983098  0.59553479  1
  B  B5  1  0.56649141  0.16016902  0.40446521  1
  B  B6  1  0.93342029  0.16008975  0.90439846  1
  B  B7  1  0.06657971  0.83991025  0.09560154  1
  O  O0  1  0.21867355  0.89428023  0.64542936  1
  O  O1  1  0.78132645  0.10571977  0.35457064  1
  O  O2  1  0.71856462  0.10573882  0.85444908  1
  O  O3  1  0.28143538  0.89426118  0.14555092  1
  O  O4  1  0.66100168  0.85666093  0.64430831  1
  O  O5  1  0.33899832  0.14333907  0.35569169  1
  O  O6  1  0.16092164  0.14322588  0.85565550  1
  O  O7  1  0.83907836  0.85677412  0.14434450  1
  O  O8  1  0.10841227  0.75245133  0.99526358  1
  O  O9  1  0.89158773  0.24754867  0.00473642  1
  O  O10  1  0.60830333  0.24769327  0.50477178  1
  O  O11  1  0.39169667  0.75230673  0.49522822  1
  O  O12  1  0.20400232  0.35305253  0.56933329  1
  O  O13  1  0.79599768  0.64694747  0.43066671  1
  O  O14  1  0.70412823  0.64688992  0.93077578  1
  O  O15  1  0.29587177  0.35311008  0.06922422  1
  O  O16  1  0.09710955  0.59540266  0.83359793  1
  O  O17  1  0.90289045  0.40459734  0.16640207  1
  O  O18  1  0.59708533  0.40465113  0.66645495  1
  O  O19  1  0.40291467  0.59534887  0.33354505  1
loop_
_geom_bond_atom_site_label_1
_geom_bond_atom_site_label_2
_geom_bond_distance
_geom_bond_site_symmetry_2
Eu0 O2 2.404871 1_565
Eu0 O6 2.478041 1_565
Eu0 O0 2.517657 1_555
Eu0 O14 2.533165 1_555
Eu0 O8 2.606139 1_555
Eu0 O4 2.662804 1_555
Eu0 O16 2.749953 1_555
Eu1 O3 2.404871 1_545
Eu1 O7 2.478041 1_545
Eu1 O1 2.517657 1_555
Eu1 O15 2.533165 1_555
Eu1 O9 2.606139 1_555
Eu1 O5 2.662804 1_555
Eu1 O17 2.749953 1_555
Eu2 O0 2.405161 1_645
Eu2 O4 2.477733 1_545
Eu2 O2 2.517159 1_555
Eu2 O12 2.532267 1_655
Eu2 O10 2.606051 1_555
Eu2 O6 2.662709 1_655
Eu2 O18 2.750869 1_555
Eu3 O1 2.405161 1_465
Eu3 O5 2.477733 1_565
Eu3 O3 2.517159 1_555
Eu3 O13 2.532267 1_455
Eu3 O11 2.606051 1_555
Eu3 O7 2.662709 1_455
Eu3 O19 2.750869 1_555
Eu4 O4 2.459792 1_555
Eu4 O16 2.472764 1_655
Eu4 O0 2.542624 1_655
Eu4 O12 2.550543 1_655
Eu4 O18 2.555993 1_555
Eu4 O13 2.558261 1_555
Eu4 O11 2.957532 1_655
Eu5 O5 2.459792 1_555
Eu5 O17 2.472764 1_455
Eu5 O1 2.542624 1_455
Eu5 O13 2.550543 1_455
Eu5 O19 2.555993 1_555
Eu5 O12 2.558261 1_555
Eu5 O10 2.957532 1_455
Eu6 O6 2.460345 1_555
Eu6 O18 2.472365 1_555
Eu6 O2 2.542460 1_555
Eu6 O14 2.551047 1_555
Eu6 O16 2.556114 1_555
Eu6 O15 2.557221 1_556
Eu6 O9 2.957213 1_556
Eu7 O7 2.460345 1_555
Eu7 O19 2.472365 1_555
Eu7 O3 2.542460 1_555
Eu7 O15 2.551047 1_555
Eu7 O17 2.556114 1_555
Eu7 O14 2.557221 1_554
Eu7 O8 2.957213 1_554
B0 O12 1.357374 1_555
B0 O18 1.362625 1_555
B0 O10 1.441471 1_555
B1 O13 1.357374 1_555
B1 O19 1.362625 1_555
B1 O11 1.441471 1_555
B2 O14 1.357373 1_555
B2 O16 1.362682 1_655
B2 O8 1.441444 1_655
B3 O15 1.357373 1_555
B3 O17 1.362682 1_455
B3 O9 1.441444 1_455
B4 O4 1.350795 1_555
B4 O0 1.364444 1_555
B4 O11 1.418705 1_555
B5 O5 1.350795 1_555
B5 O1 1.364444 1_555
B5 O10 1.418705 1_555
B6 O6 1.350793 1_655
B6 O2 1.364472 1_555
B6 O9 1.418818 1_556
B7 O7 1.350793 1_455
B7 O3 1.364472 1_555
B7 O8 1.418818 1_554
