# generated using pymatgen
data_HfMg30AlO32
_symmetry_space_group_name_H-M   'P 1'
_cell_length_a   8.59867000
_cell_length_b   8.59867000
_cell_length_c   8.56898100
_cell_angle_alpha   90.00000000
_cell_angle_beta   90.00000000
_cell_angle_gamma   90.00000000
_symmetry_Int_Tables_number   1
_chemical_formula_structural   HfMg30AlO32
_chemical_formula_sum   'Hf1 Mg30 Al1 O32'
_cell_volume   633.56582591
_cell_formula_units_Z   1
loop_
 _symmetry_equiv_pos_site_id
 _symmetry_equiv_pos_as_xyz
  1  'x, y, z'
loop_
 _atom_site_type_symbol
 _atom_site_label
 _atom_site_symmetry_multiplicity
 _atom_site_fract_x
 _atom_site_fract_y
 _atom_site_fract_z
 _atom_site_occupancy
  Hf  Hf0  1  0.50000000  0.50000000  0.00000000  1
  Mg  Mg0  1  0.50000000  0.00000000  0.00000000  1
  Mg  Mg1  1  0.00000000  0.50000000  0.00000000  1
  Mg  Mg2  1  0.00000000  0.00000000  0.50000000  1
  Mg  Mg3  1  0.50000000  0.00000000  0.50000000  1
  Mg  Mg4  1  0.00000000  0.50000000  0.50000000  1
  Mg  Mg5  1  0.50000000  0.50000000  0.50000000  1
  Mg  Mg6  1  0.24848800  0.24848800  0.00000000  1
  Mg  Mg7  1  0.75151200  0.24848800  0.00000000  1
  Mg  Mg8  1  0.24848800  0.75151200  0.00000000  1
  Mg  Mg9  1  0.75151200  0.75151200  0.00000000  1
  Mg  Mg10  1  0.24977500  0.24977500  0.50000000  1
  Mg  Mg11  1  0.75022500  0.24977500  0.50000000  1
  Mg  Mg12  1  0.24977500  0.75022500  0.50000000  1
  Mg  Mg13  1  0.75022500  0.75022500  0.50000000  1
  Mg  Mg14  1  0.24983400  0.00000000  0.25092500  1
  Mg  Mg15  1  0.75016600  0.00000000  0.25092500  1
  Mg  Mg16  1  0.24566600  0.50000000  0.25363400  1
  Mg  Mg17  1  0.75433400  0.50000000  0.25363400  1
  Mg  Mg18  1  0.24983400  0.00000000  0.74907500  1
  Mg  Mg19  1  0.75016600  0.00000000  0.74907500  1
  Mg  Mg20  1  0.24566600  0.50000000  0.74636600  1
  Mg  Mg21  1  0.75433400  0.50000000  0.74636600  1
  Mg  Mg22  1  0.00000000  0.24983400  0.25092500  1
  Mg  Mg23  1  0.50000000  0.24566600  0.25363400  1
  Mg  Mg24  1  0.00000000  0.75016600  0.25092500  1
  Mg  Mg25  1  0.50000000  0.75433400  0.25363400  1
  Mg  Mg26  1  0.00000000  0.24983400  0.74907500  1
  Mg  Mg27  1  0.50000000  0.24566600  0.74636600  1
  Mg  Mg28  1  0.00000000  0.75016600  0.74907500  1
  Mg  Mg29  1  0.50000000  0.75433400  0.74636600  1
  Al  Al0  1  0.00000000  0.00000000  0.00000000  1
  O  O0  1  0.00000000  0.00000000  0.23499600  1
  O  O1  1  0.50000000  0.00000000  0.24976100  1
  O  O2  1  0.00000000  0.50000000  0.24976100  1
  O  O3  1  0.50000000  0.50000000  0.25305000  1
  O  O4  1  0.00000000  0.00000000  0.76500400  1
  O  O5  1  0.50000000  0.00000000  0.75023900  1
  O  O6  1  0.00000000  0.50000000  0.75023900  1
  O  O7  1  0.50000000  0.50000000  0.74695000  1
  O  O8  1  0.24994300  0.24994300  0.25003300  1
  O  O9  1  0.75005700  0.24994300  0.25003300  1
  O  O10  1  0.24994300  0.75005700  0.25003300  1
  O  O11  1  0.75005700  0.75005700  0.25003300  1
  O  O12  1  0.24994300  0.24994300  0.74996700  1
  O  O13  1  0.75005700  0.24994300  0.74996700  1
  O  O14  1  0.24994300  0.75005700  0.74996700  1
  O  O15  1  0.75005700  0.75005700  0.74996700  1
  O  O16  1  0.23233200  0.00000000  0.00000000  1
  O  O17  1  0.76766800  0.00000000  0.00000000  1
  O  O18  1  0.23731300  0.50000000  0.00000000  1
  O  O19  1  0.76268700  0.50000000  0.00000000  1
  O  O20  1  0.24786500  0.00000000  0.50000000  1
  O  O21  1  0.75213500  0.00000000  0.50000000  1
  O  O22  1  0.24941000  0.50000000  0.50000000  1
  O  O23  1  0.75059000  0.50000000  0.50000000  1
  O  O24  1  0.00000000  0.23233200  0.00000000  1
  O  O25  1  0.50000000  0.23731300  0.00000000  1
  O  O26  1  0.00000000  0.76766800  0.00000000  1
  O  O27  1  0.50000000  0.76268700  0.00000000  1
  O  O28  1  0.00000000  0.24786500  0.50000000  1
  O  O29  1  0.50000000  0.24941000  0.50000000  1
  O  O30  1  0.00000000  0.75213500  0.50000000  1
  O  O31  1  0.50000000  0.75059000  0.50000000  1
loop_
_geom_bond_atom_site_label_1
_geom_bond_atom_site_label_2
_geom_bond_distance
_geom_bond_site_symmetry_2
Hf0 O3 2.168381 1_555
Hf0 O7 2.168381 1_554
Hf0 O18 2.258759 1_555
Hf0 O19 2.258759 1_555
Hf0 O27 2.258759 1_555
Hf0 O25 2.258759 1_555
Mg0 O25 2.040576 1_555
Mg0 O27 2.040576 1_545
Mg0 O5 2.140197 1_554
Mg0 O1 2.140197 1_555
Mg0 O16 2.301589 1_555
Mg0 O17 2.301589 1_555
Mg1 O19 2.040576 1_455
Mg1 O18 2.040576 1_555
Mg1 O2 2.140197 1_555
Mg1 O6 2.140197 1_554
Mg1 O24 2.301589 1_555
Mg1 O26 2.301589 1_555
Mg2 O30 2.131309 1_545
Mg2 O28 2.131309 1_555
Mg2 O21 2.131309 1_455
Mg2 O20 2.131309 1_555
Mg2 O0 2.270814 1_555
Mg2 O4 2.270814 1_555
Mg3 O5 2.144293 1_555
Mg3 O1 2.144293 1_555
Mg3 O31 2.144594 1_545
Mg3 O29 2.144594 1_555
Mg3 O20 2.168026 1_555
Mg3 O21 2.168026 1_555
Mg4 O2 2.144293 1_555
Mg4 O6 2.144293 1_555
Mg4 O22 2.144594 1_555
Mg4 O23 2.144594 1_455
Mg4 O28 2.168026 1_555
Mg4 O30 2.168026 1_555
Mg5 O7 2.116110 1_555
Mg5 O3 2.116110 1_555
Mg5 O29 2.154741 1_555
Mg5 O31 2.154741 1_555
Mg5 O22 2.154741 1_555
Mg5 O23 2.154741 1_555
Mg6 O24 2.141178 1_555
Mg6 O16 2.141178 1_555
Mg6 O12 2.142601 1_554
Mg6 O8 2.142601 1_555
Mg6 O25 2.164802 1_555
Mg6 O18 2.164802 1_555
Mg7 O17 2.141178 1_555
Mg7 O24 2.141178 1_655
Mg7 O13 2.142601 1_554
Mg7 O9 2.142601 1_555
Mg7 O25 2.164802 1_555
Mg7 O19 2.164802 1_555
Mg8 O26 2.141178 1_555
Mg8 O16 2.141178 1_565
Mg8 O14 2.142601 1_554
Mg8 O10 2.142601 1_555
Mg8 O18 2.164802 1_555
Mg8 O27 2.164802 1_555
Mg9 O17 2.141178 1_565
Mg9 O26 2.141178 1_655
Mg9 O15 2.142601 1_554
Mg9 O11 2.142601 1_555
Mg9 O19 2.164802 1_555
Mg9 O27 2.164802 1_555
Mg10 O8 2.141963 1_555
Mg10 O12 2.141963 1_555
Mg10 O28 2.147796 1_555
Mg10 O20 2.147796 1_555
Mg10 O22 2.151604 1_555
Mg10 O29 2.151604 1_555
Mg11 O9 2.141963 1_555
Mg11 O13 2.141963 1_555
Mg11 O28 2.147796 1_655
Mg11 O21 2.147796 1_555
Mg11 O23 2.151604 1_555
Mg11 O29 2.151604 1_555
Mg12 O10 2.141963 1_555
Mg12 O14 2.141963 1_555
Mg12 O30 2.147796 1_555
Mg12 O20 2.147796 1_565
Mg12 O22 2.151604 1_555
Mg12 O31 2.151604 1_555
Mg13 O11 2.141963 1_555
Mg13 O15 2.141963 1_555
Mg13 O21 2.147796 1_565
Mg13 O30 2.147796 1_655
Mg13 O23 2.151604 1_555
Mg13 O31 2.151604 1_555
Mg14 O20 2.134386 1_555
Mg14 O8 2.149191 1_555
Mg14 O10 2.149191 1_545
Mg14 O1 2.151118 1_555
Mg14 O0 2.152572 1_555
Mg14 O16 2.155432 1_555
Mg15 O21 2.134386 1_555
Mg15 O9 2.149191 1_555
Mg15 O11 2.149191 1_545
Mg15 O1 2.151118 1_555
Mg15 O0 2.152572 1_655
Mg15 O17 2.155432 1_555
Mg16 O22 2.111351 1_555
Mg16 O2 2.112662 1_555
Mg16 O8 2.150693 1_555
Mg16 O10 2.150693 1_555
Mg16 O18 2.174571 1_555
Mg16 O3 2.186940 1_555
Mg17 O23 2.111351 1_555
Mg17 O2 2.112662 1_655
Mg17 O11 2.150693 1_555
Mg17 O9 2.150693 1_555
Mg17 O19 2.174571 1_555
Mg17 O3 2.186940 1_555
Mg18 O20 2.134386 1_555
Mg18 O12 2.149191 1_555
Mg18 O14 2.149191 1_545
Mg18 O5 2.151118 1_555
Mg18 O4 2.152572 1_555
Mg18 O16 2.155432 1_556
Mg19 O21 2.134386 1_555
Mg19 O13 2.149191 1_555
Mg19 O15 2.149191 1_545
Mg19 O5 2.151118 1_555
Mg19 O4 2.152572 1_655
Mg19 O17 2.155432 1_556
Mg20 O22 2.111351 1_555
Mg20 O6 2.112662 1_555
Mg20 O12 2.150693 1_555
Mg20 O14 2.150693 1_555
Mg20 O18 2.174571 1_556
Mg20 O7 2.186940 1_555
Mg21 O23 2.111351 1_555
Mg21 O6 2.112662 1_655
Mg21 O15 2.150693 1_555
Mg21 O13 2.150693 1_555
Mg21 O19 2.174571 1_556
Mg21 O7 2.186940 1_555
Mg22 O28 2.134386 1_555
Mg22 O8 2.149191 1_555
Mg22 O9 2.149191 1_455
Mg22 O2 2.151118 1_555
Mg22 O0 2.152572 1_555
Mg22 O24 2.155432 1_555
Mg23 O29 2.111351 1_555
Mg23 O1 2.112662 1_555
Mg23 O8 2.150693 1_555
Mg23 O9 2.150693 1_555
Mg23 O25 2.174571 1_555
Mg23 O3 2.186940 1_555
Mg24 O30 2.134386 1_555
Mg24 O10 2.149191 1_555
Mg24 O11 2.149191 1_455
Mg24 O2 2.151118 1_555
Mg24 O0 2.152572 1_565
Mg24 O26 2.155432 1_555
Mg25 O31 2.111351 1_555
Mg25 O1 2.112662 1_565
Mg25 O11 2.150693 1_555
Mg25 O10 2.150693 1_555
Mg25 O27 2.174571 1_555
Mg25 O3 2.186940 1_555
Mg26 O28 2.134386 1_555
Mg26 O12 2.149191 1_555
Mg26 O13 2.149191 1_455
Mg26 O6 2.151118 1_555
Mg26 O4 2.152572 1_555
Mg26 O24 2.155432 1_556
Mg27 O29 2.111351 1_555
Mg27 O5 2.112662 1_555
Mg27 O13 2.150693 1_555
Mg27 O12 2.150693 1_555
Mg27 O25 2.174571 1_556
Mg27 O7 2.186940 1_555
Mg28 O30 2.134386 1_555
Mg28 O14 2.149191 1_555
Mg28 O15 2.149191 1_455
Mg28 O6 2.151118 1_555
Mg28 O4 2.152572 1_565
Mg28 O26 2.155432 1_556
Mg29 O31 2.111351 1_555
Mg29 O5 2.112662 1_565
Mg29 O15 2.150693 1_555
Mg29 O14 2.150693 1_555
Mg29 O27 2.174571 1_556
Mg29 O7 2.186940 1_555
Al0 O26 1.997746 1_545
Al0 O17 1.997746 1_455
Al0 O24 1.997746 1_555
Al0 O16 1.997746 1_555
Al0 O4 2.013676 1_554
Al0 O0 2.013676 1_555
