# generated using pymatgen
data_Ba2LiMn2(P2O7)2
_symmetry_space_group_name_H-M   'P 1'
_cell_length_a   5.50139507
_cell_length_b   8.45273070
_cell_length_c   7.57878969
_cell_angle_alpha   105.22112123
_cell_angle_beta   93.06385694
_cell_angle_gamma   93.24734313
_symmetry_Int_Tables_number   1
_chemical_formula_structural   Ba2LiMn2(P2O7)2
_chemical_formula_sum   'Ba2 Li1 Mn2 P4 O14'
_cell_volume   338.66329307
_cell_formula_units_Z   1
loop_
 _symmetry_equiv_pos_site_id
 _symmetry_equiv_pos_as_xyz
  1  'x, y, z'
loop_
 _atom_site_type_symbol
 _atom_site_label
 _atom_site_symmetry_multiplicity
 _atom_site_fract_x
 _atom_site_fract_y
 _atom_site_fract_z
 _atom_site_occupancy
  Ba  Ba0  1  0.18583800  0.77105700  0.95017400  1
  Ba  Ba1  1  0.79356600  0.21208900  0.04487200  1
  Li  Li0  1  0.93835500  0.04761600  0.56037800  1
  Mn  Mn0  1  0.18806300  0.60006300  0.39688200  1
  Mn  Mn1  1  0.80082000  0.37158200  0.59759100  1
  P  P0  1  0.69063900  0.72087900  0.20992400  1
  P  P1  1  0.30900200  0.30414400  0.79090600  1
  P  P2  1  0.71537400  0.78270400  0.60994400  1
  P  P3  1  0.28110100  0.21218800  0.37879100  1
  O  O0  1  0.54202400  0.27785200  0.36282000  1
  O  O1  1  0.44719700  0.73011700  0.62241800  1
  O  O2  1  0.82432600  0.93616900  0.75342700  1
  O  O3  1  0.18421600  0.05222100  0.24434000  1
  O  O4  1  0.10136600  0.34992000  0.38071500  1
  O  O5  1  0.88844500  0.64173200  0.59165200  1
  O  O6  1  0.73613700  0.84374300  0.42099700  1
  O  O7  1  0.27413800  0.17304700  0.58055200  1
  O  O8  1  0.11575200  0.42953000  0.79884000  1
  O  O9  1  0.90722900  0.61111400  0.18928600  1
  O  O10  1  0.56914600  0.38510500  0.81190600  1
  O  O11  1  0.43975800  0.63010300  0.20498100  1
  O  O12  1  0.27469900  0.19230800  0.91729400  1
  O  O13  1  0.69281000  0.83186000  0.08131200  1
loop_
_geom_bond_atom_site_label_1
_geom_bond_atom_site_label_2
_geom_bond_distance
_geom_bond_site_symmetry_2
Ba0 O3 2.800181 1_566
Ba0 O8 2.808200 1_555
Ba0 O11 2.865049 1_556
Ba0 O13 2.881633 1_556
Ba0 O1 2.888626 1_555
Ba0 O13 2.964220 1_456
Ba0 O9 2.968111 1_456
Ba0 O5 3.002866 1_455
Ba0 O2 3.035923 1_455
Ba1 O2 2.779677 1_544
Ba1 O0 2.787601 1_555
Ba1 O10 2.847420 1_554
Ba1 O12 2.864917 1_654
Ba1 O4 2.908925 1_655
Ba1 O12 2.945667 1_554
Ba1 O3 3.128017 1_655
Ba1 O9 3.273307 1_555
Ba1 O13 3.315682 1_545
Li0 O6 2.006115 1_545
Li0 O2 2.043630 1_545
Li0 O7 2.054920 1_655
Mn0 O4 2.111070 1_555
Mn0 O11 2.113378 1_555
Mn0 O9 2.169036 1_455
Mn0 O1 2.176646 1_555
Mn0 O5 2.252289 1_455
Mn1 O10 2.101425 1_555
Mn1 O0 2.163740 1_555
Mn1 O8 2.190228 1_655
Mn1 O5 2.319565 1_555
Mn1 O4 2.373968 1_655
O0 P3 1.531926 1_555
O1 P2 1.531617 1_555
O2 P2 1.525132 1_555
O3 P3 1.512464 1_555
O4 P3 1.567278 1_555
O5 P2 1.549705 1_555
O6 P2 1.651848 1_555
O6 P0 1.659994 1_555
O7 P3 1.649108 1_555
O7 P1 1.679853 1_555
O8 P1 1.535646 1_555
O9 P0 1.540798 1_555
O10 P1 1.532762 1_555
O11 P0 1.534438 1_555
O12 P1 1.523591 1_555
O13 P0 1.519984 1_555
