# generated using pymatgen
data_Sr5Cr3F19
_symmetry_space_group_name_H-M   'P 1'
_cell_length_a   7.39517111
_cell_length_b   10.84329766
_cell_length_c   10.91793426
_cell_angle_alpha   84.62543581
_cell_angle_beta   72.28153669
_cell_angle_gamma   71.97873543
_symmetry_Int_Tables_number   1
_chemical_formula_structural   Sr5Cr3F19
_chemical_formula_sum   'Sr10 Cr6 F38'
_cell_volume   793.04504805
_cell_formula_units_Z   2
loop_
 _symmetry_equiv_pos_site_id
 _symmetry_equiv_pos_as_xyz
  1  'x, y, z'
loop_
 _atom_site_type_symbol
 _atom_site_label
 _atom_site_symmetry_multiplicity
 _atom_site_fract_x
 _atom_site_fract_y
 _atom_site_fract_z
 _atom_site_occupancy
  Sr  Sr0  1  0.08094200  0.67714200  0.17148200  1
  Sr  Sr1  1  0.27899400  0.27765300  0.15998300  1
  Sr  Sr2  1  0.26462700  0.49637300  0.47974400  1
  Sr  Sr3  1  0.26157700  0.82315700  0.67075100  1
  Sr  Sr4  1  0.44198600  0.83802000  0.27507600  1
  Sr  Sr5  1  0.55499500  0.17171200  0.72001100  1
  Sr  Sr6  1  0.73612700  0.17776900  0.32214300  1
  Sr  Sr7  1  0.73515800  0.50338700  0.51711900  1
  Sr  Sr8  1  0.73331000  0.71908700  0.83097200  1
  Sr  Sr9  1  0.92604900  0.32345800  0.81865500  1
  Cr  Cr0  1  0.28486700  0.99877900  0.99225000  1
  Cr  Cr1  1  0.15413700  0.16603000  0.51285300  1
  Cr  Cr2  1  0.32344600  0.51899300  0.83197900  1
  Cr  Cr3  1  0.78720500  0.00574200  0.99792600  1
  Cr  Cr4  1  0.68127800  0.48339500  0.16158300  1
  Cr  Cr5  1  0.84236100  0.83513800  0.48304300  1
  F  F0  1  0.02444700  0.19992100  0.37618900  1
  F  F1  1  0.26729900  0.04514200  0.16261400  1
  F  F2  1  0.04905500  0.35063700  0.55017100  1
  F  F3  1  0.15024900  0.46356100  0.29579900  1
  F  F4  1  0.25194900  0.48413200  0.01500700  1
  F  F5  1  0.07403700  0.85092700  0.34340900  1
  F  F6  1  0.26906100  0.15439000  0.65343400  1
  F  F7  1  0.28174900  0.17403700  0.93590500  1
  F  F8  1  0.29133400  0.82872100  0.06060200  1
  F  F9  1  0.37833400  0.20814000  0.38552500  1
  F  F10  1  0.07386700  0.65387000  0.84924400  1
  F  F11  1  0.22767600  0.38643000  0.78660800  1
  F  F12  1  0.42535000  0.61956100  0.19478100  1
  F  F13  1  0.61330000  0.07724600  0.16360700  1
  F  F14  1  0.57436800  0.34447800  0.14899400  1
  F  F15  1  0.26369800  0.98021400  0.48145700  1
  F  F16  1  0.38422900  0.56390100  0.65052800  1
  F  F17  1  0.41319200  0.69180600  0.45307100  1
  F  F18  1  0.57783600  0.31036200  0.53665900  1
  F  F19  1  0.61551100  0.44239900  0.34368900  1
  F  F20  1  0.73291000  0.02065500  0.51720900  1
  F  F21  1  0.43174800  0.65691300  0.84657000  1
  F  F22  1  0.58587100  0.38828400  0.78796000  1
  F  F23  1  0.77613600  0.61761500  0.20324000  1
  F  F24  1  0.35324300  0.94172100  0.81834800  1
  F  F25  1  0.92645000  0.34178400  0.14880100  1
  F  F26  1  0.62574100  0.78670700  0.61277300  1
  F  F27  1  0.71168200  0.17350700  0.91825300  1
  F  F28  1  0.82922600  0.83518100  0.07292400  1
  F  F29  1  0.71661000  0.85617100  0.34824500  1
  F  F30  1  0.91666900  0.15670100  0.64799000  1
  F  F31  1  0.75760400  0.51430900  0.97718600  1
  F  F32  1  0.86212400  0.53465400  0.69831200  1
  F  F33  1  0.94990200  0.65069100  0.44183700  1
  F  F34  1  0.99190500  0.05562800  0.04547500  1
  F  F35  1  0.58265400  0.95608500  0.94263000  1
  F  F36  1  0.96703000  0.80006400  0.62232900  1
  F  F37  1  0.96569800  0.93882100  0.83665400  1
loop_
_geom_bond_atom_site_label_1
_geom_bond_atom_site_label_2
_geom_bond_distance
_geom_bond_site_symmetry_2
Cr0 F8 1.915427 1_556
Cr0 F24 1.919756 1_555
Cr0 F1 1.927945 1_566
Cr0 F7 1.937243 1_565
Cr0 F34 1.971264 1_466
Cr0 F35 2.011825 1_555
Cr1 F2 1.942798 1_555
Cr1 F30 1.943167 1_455
Cr1 F15 1.945216 1_545
Cr1 F6 1.945594 1_555
Cr1 F0 1.957410 1_555
Cr1 F9 1.958700 1_555
Cr2 F10 1.936673 1_555
Cr2 F4 1.937693 1_556
Cr2 F21 1.940819 1_555
Cr2 F16 1.943322 1_555
Cr2 F11 1.946787 1_555
Cr2 F22 1.965708 1_555
Cr3 F37 1.897685 1_545
Cr3 F28 1.924336 1_546
Cr3 F27 1.936093 1_555
Cr3 F13 1.938289 1_556
Cr3 F34 1.972632 1_556
Cr3 F35 2.015778 1_545
Cr4 F14 1.937721 1_555
Cr4 F19 1.940823 1_555
Cr4 F23 1.940872 1_555
Cr4 F31 1.945005 1_554
Cr4 F25 1.956566 1_555
Cr4 F12 1.961405 1_555
Cr5 F29 1.929175 1_555
Cr5 F20 1.946853 1_565
Cr5 F33 1.949757 1_555
Cr5 F5 1.957439 1_655
Cr5 F36 1.958390 1_555
Cr5 F26 1.961697 1_555
F0 Sr6 2.461970 1_455
F0 Sr1 2.780347 1_555
F1 Sr1 2.546472 1_555
F1 Sr4 2.621870 1_545
F2 Sr2 2.492971 1_555
F2 Sr7 2.506209 1_455
F2 Sr9 2.808524 1_455
F3 Sr1 2.383704 1_555
F3 Sr2 2.495864 1_555
F3 Sr0 2.562918 1_555
F4 Sr0 2.571980 1_555
F4 Sr1 2.609571 1_555
F5 Sr4 2.555104 1_555
F5 Sr0 2.760759 1_555
F6 Sr5 2.498350 1_555
F6 Sr9 2.829538 1_455
F7 Sr5 2.592358 1_555
F7 Sr1 2.778198 1_556
F7 Sr9 3.194875 1_455
F8 Sr0 2.578923 1_555
F8 Sr4 2.904511 1_555
F9 Sr6 2.444867 1_555
F9 Sr1 2.753596 1_555
F10 Sr8 2.461712 1_455
F10 Sr3 2.890348 1_555
F11 Sr9 2.446788 1_455
F11 Sr5 2.750899 1_555
F12 Sr0 2.514396 1_555
F12 Sr4 2.651402 1_555
F13 Sr6 2.632894 1_555
F13 Sr1 2.748665 1_555
F14 Sr1 2.472715 1_555
F14 Sr6 2.769608 1_555
F15 Sr3 2.551316 1_555
F15 Sr4 2.603369 1_555
F16 Sr7 2.472174 1_555
F16 Sr2 2.540776 1_555
F16 Sr3 2.681592 1_555
F17 Sr4 2.390681 1_555
F17 Sr2 2.629225 1_555
F17 Sr3 2.637817 1_555
F17 Sr7 2.840456 1_555
F18 Sr5 2.384037 1_555
F18 Sr6 2.615988 1_555
F18 Sr7 2.655520 1_555
F18 Sr2 2.751347 1_555
F19 Sr2 2.481803 1_555
F19 Sr7 2.534157 1_555
F19 Sr6 2.738584 1_555
F20 Sr6 2.598688 1_555
F20 Sr5 2.624755 1_555
F21 Sr8 2.476782 1_555
F21 Sr3 2.817177 1_555
F22 Sr9 2.511956 1_555
F22 Sr5 2.622691 1_555
F23 Sr0 2.449565 1_655
F23 Sr4 2.819665 1_555
F24 Sr3 2.510258 1_555
F25 Sr1 2.520246 1_655
F25 Sr6 2.832407 1_555
F26 Sr3 2.481957 1_555
F26 Sr8 2.703900 1_555
F27 Sr9 2.560020 1_555
F27 Sr5 2.752454 1_555
F28 Sr0 2.541588 1_655
F28 Sr4 3.030517 1_555
F29 Sr4 2.462867 1_555
F29 Sr0 3.008798 1_655
F30 Sr5 2.504591 1_555
F30 Sr9 2.744768 1_555
F31 Sr9 2.567830 1_555
F31 Sr8 2.602847 1_555
F32 Sr8 2.351329 1_555
F32 Sr9 2.517686 1_555
F32 Sr7 2.522546 1_555
F33 Sr7 2.505555 1_555
F33 Sr2 2.536757 1_655
F33 Sr0 2.829540 1_655
F34 Sr6 3.190273 1_555
F35 Sr8 2.705575 1_555
F36 Sr3 2.479934 1_655
F36 Sr8 2.667439 1_555
F37 Sr3 2.440641 1_655
