# generated using pymatgen
data_V2O5
_symmetry_space_group_name_H-M   'P 1'
_cell_length_a   12.51940564
_cell_length_b   13.05662672
_cell_length_c   11.66217746
_cell_angle_alpha   90.32159009
_cell_angle_beta   84.02669169
_cell_angle_gamma   94.36273639
_symmetry_Int_Tables_number   1
_chemical_formula_structural   V2O5
_chemical_formula_sum   'V30 O75'
_cell_volume   1890.46446048
_cell_formula_units_Z   15
loop_
 _symmetry_equiv_pos_site_id
 _symmetry_equiv_pos_as_xyz
  1  'x, y, z'
loop_
 _atom_site_type_symbol
 _atom_site_label
 _atom_site_symmetry_multiplicity
 _atom_site_fract_x
 _atom_site_fract_y
 _atom_site_fract_z
 _atom_site_occupancy
  V  V0  1  0.76935213  0.10205180  0.08990176  1
  V  V1  1  0.43942210  0.90115507  0.47234523  1
  V  V2  1  0.09479055  0.76489707  0.31265008  1
  V  V3  1  0.59587914  0.27286742  0.03341081  1
  V  V4  1  0.93194979  0.98682855  0.92160134  1
  V  V5  1  0.75598468  0.95679580  0.74837910  1
  V  V6  1  0.72707183  0.83882037  0.03027269  1
  V  V7  1  0.24553605  0.65451675  0.17934605  1
  V  V8  1  0.92625193  0.06597271  0.58413960  1
  V  V9  1  0.30683055  0.39757607  0.24109819  1
  V  V10  1  0.63892274  0.02958800  0.57529239  1
  V  V11  1  0.25674783  0.22956374  0.47555463  1
  V  V12  1  0.65467129  0.96307697  0.27998373  1
  V  V13  1  0.31230396  0.18868026  0.76284055  1
  V  V14  1  0.21239329  0.50012670  0.93977010  1
  V  V15  1  0.79217466  0.23776240  0.46367857  1
  V  V16  1  0.49644773  0.52943596  0.47274738  1
  V  V17  1  0.11341123  0.06795836  0.09232367  1
  V  V18  1  0.24297965  0.55814746  0.63638929  1
  V  V19  1  0.86480539  0.26009061  0.90057092  1
  V  V20  1  0.52760770  0.44913375  0.82233248  1
  V  V21  1  0.36807957  0.78694923  0.65774512  1
  V  V22  1  0.90338203  0.74587766  0.45789495  1
  V  V23  1  0.22450916  0.29608395  0.00680682  1
  V  V24  1  0.84958254  0.38118835  0.71198102  1
  V  V25  1  0.13669740  0.02568835  0.36707602  1
  V  V26  1  0.71325275  0.58456289  0.63781697  1
  V  V27  1  0.37264955  0.08353084  0.94655420  1
  V  V28  1  0.55630065  0.70706578  0.83786241  1
  V  V29  1  0.61600486  0.32405687  0.31373285  1
  O  O0  1  0.31435451  0.42429509  0.96887950  1
  O  O1  1  0.15847572  0.90073738  0.32903850  1
  O  O2  1  0.81900840  0.32969625  0.57336732  1
  O  O3  1  0.69219470  0.02646171  0.84591296  1
  O  O4  1  0.36411667  0.51551338  0.56044112  1
  O  O5  1  0.59468780  0.59179546  0.55360650  1
  O  O6  1  0.23898882  0.03115063  0.05883930  1
  O  O7  1  0.82461807  0.88948765  0.87166681  1
  O  O8  1  0.84597390  0.50991116  0.71108051  1
  O  O9  1  0.17730482  0.67034144  0.33991399  1
  O  O10  1  0.65740270  0.90824253  0.65535159  1
  O  O11  1  0.21702891  0.60677383  0.03263247  1
  O  O12  1  0.75981679  0.32281842  0.82117049  1
  O  O13  1  0.80068367  0.97316654  0.06143884  1
  O  O14  1  0.44771071  0.98788445  0.94266095  1
  O  O15  1  0.31823549  0.20967034  0.60553228  1
  O  O16  1  0.55967918  0.36067693  0.93117190  1
  O  O17  1  0.22993941  0.27299398  0.84394077  1
  O  O18  1  0.60241767  0.77758124  0.94726377  1
  O  O19  1  0.13787031  0.75550445  0.16598240  1
  O  O20  1  0.79439321  0.74370598  0.05885622  1
  O  O21  1  0.32090768  0.22029661  0.02561685  1
  O  O22  1  0.25552077  0.69925405  0.64075636  1
  O  O23  1  0.42286890  0.38016261  0.17034586  1
  O  O24  1  0.50270543  0.58026760  0.87618576  1
  O  O25  1  0.95163233  0.73033410  0.30557967  1
  O  O26  1  0.67713496  0.15979579  0.49585962  1
  O  O27  1  0.89969434  0.32766669  0.00687706  1
  O  O28  1  0.48268130  0.59958208  0.36328151  1
  O  O29  1  0.35576677  0.72595356  0.16174096  1
  O  O30  1  0.89332895  0.12228088  0.92106544  1
  O  O31  1  0.66933731  0.68937540  0.74182435  1
  O  O32  1  0.43044790  0.19196530  0.82441069  1
  O  O33  1  0.13766261  0.51716763  0.57625094  1
  O  O34  1  0.85993378  0.15447065  0.16440215  1
  O  O35  1  0.57806810  0.96908701  0.43960674  1
  O  O36  1  0.77650307  0.96929720  0.31467279  1
  O  O37  1  0.94562547  0.49387744  0.33055824  1
  O  O38  1  0.95422984  0.32883244  0.77865924  1
  O  O39  1  0.89307468  0.15732051  0.45207111  1
  O  O40  1  0.65034812  0.07635505  0.19035347  1
  O  O41  1  0.04014051  0.02094262  0.48246472  1
  O  O42  1  0.10890326  0.18852671  0.03421931  1
  O  O43  1  0.75473695  0.30562245  0.34310518  1
  O  O44  1  0.98224936  0.14927637  0.66548120  1
  O  O45  1  0.28316914  0.52980342  0.23243321  1
  O  O46  1  0.63033155  0.34259529  0.15957213  1
  O  O47  1  0.43275865  0.40172557  0.74915848  1
  O  O48  1  0.03069385  0.98412919  0.82250994  1
  O  O49  1  0.81885762  0.63893477  0.54080844  1
  O  O50  1  0.31246525  0.33209120  0.38123655  1
  O  O51  1  0.13313737  0.25309392  0.50933237  1
  O  O52  1  0.50482663  0.17685925  0.05764278  1
  O  O53  1  0.89947372  0.95532640  0.67084016  1
  O  O54  1  0.83695223  0.84794469  0.47404453  1
  O  O55  1  0.11071014  0.41272765  0.97897368  1
  O  O56  1  0.08670088  0.08177226  0.24912458  1
  O  O57  1  0.25225389  0.10374185  0.39966695  1
  O  O58  1  0.71919215  0.20689887  0.99475068  1
  O  O59  1  0.20631380  0.33604722  0.16380866  1
  O  O60  1  0.45602977  0.77429846  0.52092196  1
  O  O61  1  0.53552425  0.06771921  0.65140447  1
  O  O62  1  0.86825660  0.51186480  0.27882639  1
  O  O63  1  0.45172118  0.76785635  0.77217792  1
  O  O64  1  0.22509425  0.52711413  0.78640758  1
  O  O65  1  0.03429665  0.77575673  0.48529811  1
  O  O66  1  0.01391140  0.97913506  0.04470215  1
  O  O67  1  0.54307898  0.21870213  0.34056175  1
  O  O68  1  0.38258671  0.90064595  0.35443334  1
  O  O69  1  0.55786972  0.41608902  0.41225870  1
  O  O70  1  0.64119632  0.46917369  0.72081031  1
  O  O71  1  0.63783419  0.86378463  0.18409573  1
  O  O72  1  0.35025212  0.91897579  0.60017454  1
  O  O73  1  0.76912094  0.07315272  0.63926486  1
  O  O74  1  0.26871950  0.07122241  0.82324369  1
loop_
_geom_bond_atom_site_label_1
_geom_bond_atom_site_label_2
_geom_bond_distance
_geom_bond_site_symmetry_2
O0 V14 1.735293 1_555
O0 V23 1.970133 1_556
O1 V25 1.722524 1_565
O1 V2 1.905439 1_555
O2 V15 1.789112 1_555
O2 V24 1.813599 1_555
O3 V5 1.633648 1_545
O4 V18 1.799352 1_555
O4 V16 1.851288 1_555
O5 V16 1.773486 1_555
O5 V26 1.871496 1_555
O6 V17 1.685288 1_555
O6 V27 2.088655 1_554
O7 V4 1.911743 1_555
O7 V5 1.991007 1_555
O7 V6 2.184274 1_556
O8 V24 1.684846 1_555
O8 V26 2.234316 1_555
O9 V2 1.720242 1_555
O9 V7 1.992106 1_555
O10 V5 1.803896 1_555
O10 V10 1.884885 1_565
O11 V14 1.760394 1_554
O11 V7 1.877430 1_555
O12 V24 1.745862 1_555
O12 V19 1.918716 1_555
O13 V0 1.778466 1_565
O13 V6 1.968482 1_555
O13 V4 2.189271 1_554
O14 V27 1.616698 1_565
O15 V11 1.798738 1_555
O15 V13 1.849437 1_555
O16 V3 1.774361 1_556
O16 V20 1.816407 1_555
O17 V13 1.768541 1_555
O17 V23 1.916492 1_556
O18 V28 1.693543 1_555
O18 V6 2.031707 1_556
O19 V2 1.745656 1_555
O19 V7 1.973874 1_555
O20 V6 1.608131 1_555
O21 V23 1.650153 1_555
O21 V27 2.119362 1_554
O22 V21 1.773732 1_555
O22 V18 1.837987 1_555
O23 V9 1.625305 1_555
O24 V28 1.779808 1_555
O24 V20 1.857831 1_555
O25 V2 1.824806 1_655
O25 V22 1.831038 1_555
O26 V15 1.708838 1_555
O26 V10 1.943955 1_555
O27 V19 1.596266 1_554
O28 V16 1.606609 1_555
O29 V7 1.601230 1_555
O30 V4 1.868808 1_545
O30 V19 1.882175 1_555
O30 V0 2.379744 1_556
O31 V28 1.739936 1_555
O31 V26 1.898250 1_555
O32 V13 1.707684 1_555
O32 V27 2.051679 1_555
O33 V18 1.611692 1_555
O34 V0 1.609232 1_555
O35 V1 1.891295 1_555
O35 V10 1.963089 1_565
O35 V12 2.007362 1_555
O36 V12 1.614277 1_555
O37 O62 1.230922 1_555
O38 V24 1.772755 1_555
O38 V19 1.900131 1_555
O39 V15 1.697591 1_555
O39 V8 2.048516 1_555
O40 V0 1.808240 1_555
O40 V12 1.823290 1_545
O41 V25 1.710835 1_555
O41 V8 1.884800 1_455
O42 V17 1.724519 1_555
O42 V23 1.941287 1_555
O43 V15 1.787821 1_555
O43 V29 1.838545 1_555
O44 V8 1.607854 1_555
O45 V9 1.778922 1_555
O45 V7 1.856205 1_555
O46 V3 1.799155 1_555
O46 V29 1.803937 1_555
O47 V20 1.616967 1_555
O48 V4 1.604298 1_455
O49 V26 1.756921 1_555
O49 V22 1.892580 1_555
O50 V11 1.789766 1_555
O50 V9 1.858999 1_555
O51 V11 1.608884 1_555
O52 V3 1.634070 1_555
O52 V27 2.454234 1_554
O53 V8 1.758970 1_565
O53 V5 1.926675 1_555
O54 V22 1.623667 1_555
O55 V14 1.671973 1_555
O55 V23 2.210538 1_556
O56 V25 1.755117 1_555
O56 V17 1.834797 1_555
O57 V25 1.778139 1_555
O57 V11 1.861510 1_555
O58 V3 1.838906 1_556
O58 V0 1.947463 1_556
O58 V19 2.100285 1_555
O59 V9 1.765101 1_555
O59 V23 1.896629 1_555
O60 V1 1.787456 1_555
O60 V21 1.856024 1_555
O61 V10 1.601687 1_555
O63 V21 1.809403 1_555
O63 V28 1.817870 1_555
O64 V18 1.785449 1_555
O64 V14 1.813197 1_555
O65 V22 1.717817 1_455
O65 V2 2.084089 1_555
O66 V17 1.766946 1_565
O66 V4 1.856854 1_454
O67 V29 1.605604 1_555
O68 V1 1.612479 1_555
O69 V29 1.799276 1_555
O69 V16 1.824184 1_555
O70 V20 1.757541 1_555
O70 V26 1.910048 1_555
O71 V12 1.722460 1_555
O71 V6 2.050418 1_555
O72 V1 1.792213 1_555
O72 V21 1.890731 1_555
O73 V10 1.909015 1_555
O73 V5 1.973453 1_545
O73 V8 2.013969 1_555
O74 V13 1.717764 1_555
O74 V27 2.035159 1_555
