# generated using pymatgen
data_YErAl2O6
_symmetry_space_group_name_H-M   'P 1'
_cell_length_a   5.18643900
_cell_length_b   5.38244200
_cell_length_c   7.41010600
_cell_angle_alpha   90.00000000
_cell_angle_beta   90.00000000
_cell_angle_gamma   90.00000000
_symmetry_Int_Tables_number   1
_chemical_formula_structural   YErAl2O6
_chemical_formula_sum   'Y2 Er2 Al4 O12'
_cell_volume   206.85834871
_cell_formula_units_Z   2
loop_
 _symmetry_equiv_pos_site_id
 _symmetry_equiv_pos_as_xyz
  1  'x, y, z'
loop_
 _atom_site_type_symbol
 _atom_site_label
 _atom_site_symmetry_multiplicity
 _atom_site_fract_x
 _atom_site_fract_y
 _atom_site_fract_z
 _atom_site_occupancy
  Y  Y0  1  0.26326100  0.55722000  0.00000000  1
  Y  Y1  1  0.73673900  0.05722000  0.00000000  1
  Er  Er0  1  0.23717700  0.44007500  0.50000000  1
  Er  Er1  1  0.76282300  0.94007500  0.50000000  1
  Al  Al0  1  0.74963100  0.49979100  0.74856000  1
  Al  Al1  1  0.25036900  0.99979100  0.25144000  1
  Al  Al2  1  0.74963100  0.49979100  0.25144000  1
  Al  Al3  1  0.25036900  0.99979100  0.74856000  1
  O  O0  1  0.54805000  0.79753900  0.79357700  1
  O  O1  1  0.45195000  0.29753900  0.20642300  1
  O  O2  1  0.95204300  0.20217200  0.29801100  1
  O  O3  1  0.04795700  0.70217200  0.70198900  1
  O  O4  1  0.95204300  0.20217200  0.70198900  1
  O  O5  1  0.04795700  0.70217200  0.29801100  1
  O  O6  1  0.54805000  0.79753900  0.20642300  1
  O  O7  1  0.45195000  0.29753900  0.79357700  1
  O  O8  1  0.16540900  0.97745800  0.00000000  1
  O  O9  1  0.83459100  0.47745800  0.00000000  1
  O  O10  1  0.34018700  0.02624200  0.50000000  1
  O  O11  1  0.65981300  0.52624200  0.50000000  1
loop_
_geom_bond_atom_site_label_1
_geom_bond_atom_site_label_2
_geom_bond_distance
_geom_bond_site_symmetry_2
Er0 O11 2.240504 1_555
Er0 O3 2.278932 1_555
Er0 O5 2.278932 1_555
Er0 O10 2.290607 1_555
Er0 O4 2.463109 1_455
Er0 O2 2.463109 1_455
Er0 O1 2.561620 1_555
Er0 O7 2.561620 1_555
Er1 O10 2.240504 1_565
Er1 O4 2.278932 1_565
Er1 O2 2.278932 1_565
Er1 O11 2.290607 1_555
Er1 O3 2.463109 1_655
Er1 O5 2.463109 1_655
Er1 O6 2.561620 1_555
Er1 O0 2.561620 1_555
Al0 O11 1.905179 1_555
Al0 O7 1.918329 1_555
Al0 O9 1.918363 1_556
Al0 O3 1.923449 1_655
Al0 O0 1.942340 1_555
Al0 O4 1.946100 1_555
Al1 O10 1.905179 1_565
Al1 O6 1.918329 1_555
Al1 O8 1.918363 1_555
Al1 O2 1.923449 1_465
Al1 O1 1.942340 1_565
Al1 O5 1.946100 1_555
Al2 O11 1.905179 1_555
Al2 O1 1.918329 1_555
Al2 O9 1.918363 1_555
Al2 O5 1.923449 1_655
Al2 O6 1.942340 1_555
Al2 O2 1.946100 1_555
Al3 O10 1.905179 1_565
Al3 O0 1.918329 1_555
Al3 O8 1.918363 1_556
Al3 O4 1.923449 1_465
Al3 O7 1.942340 1_565
Al3 O3 1.946100 1_555
O0 Y1 2.291516 1_566
O0 Y0 2.488880 1_556
O1 Y0 2.291516 1_555
O1 Y1 2.488880 1_555
O2 Y1 2.594648 1_555
O3 Y0 2.594648 1_556
O4 Y1 2.594648 1_556
O5 Y0 2.594648 1_555
O6 Y1 2.291516 1_565
O6 Y0 2.488880 1_555
O7 Y0 2.291516 1_556
O7 Y1 2.488880 1_556
O8 Y1 2.264342 1_465
O8 Y0 2.318142 1_555
O9 Y0 2.264342 1_655
O9 Y1 2.318142 1_555
