# generated using pymatgen
data_LaMnO3
_symmetry_space_group_name_H-M   'P 1'
_cell_length_a   3.93932500
_cell_length_b   8.82393316
_cell_length_c   7.90347300
_cell_angle_alpha   63.39073160
_cell_angle_beta   90.00055181
_cell_angle_gamma   89.99925949
_symmetry_Int_Tables_number   1
_chemical_formula_structural   LaMnO3
_chemical_formula_sum   'La4 Mn4 O12'
_cell_volume   245.62877790
_cell_formula_units_Z   4
loop_
 _symmetry_equiv_pos_site_id
 _symmetry_equiv_pos_as_xyz
  1  'x, y, z'
loop_
 _atom_site_type_symbol
 _atom_site_label
 _atom_site_symmetry_multiplicity
 _atom_site_fract_x
 _atom_site_fract_y
 _atom_site_fract_z
 _atom_site_occupancy
  La  La0  1  0.00007700  0.49966700  0.75310400  1
  La  La1  1  0.99999200  0.00180100  0.49888800  1
  La  La2  1  0.99993000  0.50019900  0.24665900  1
  La  La3  1  0.99999100  0.00182000  0.99963400  1
  Mn  Mn0  1  0.50028600  0.24962800  0.12525700  1
  Mn  Mn1  1  0.50005400  0.74996200  0.87497500  1
  Mn  Mn2  1  0.49985900  0.74854600  0.37581600  1
  Mn  Mn3  1  0.49991200  0.25193600  0.62386700  1
  O  O0  1  0.99983600  0.74981900  0.37498500  1
  O  O1  1  0.00021000  0.25190800  0.12407100  1
  O  O2  1  0.99994500  0.74590300  0.87703300  1
  O  O3  1  0.99998500  0.25110600  0.62462000  1
  O  O4  1  0.49990000  0.49530500  0.50242300  1
  O  O5  1  0.50005000  0.00362700  0.24794800  1
  O  O6  1  0.50006600  0.49391800  0.00326200  1
  O  O7  1  0.49986900  0.00724900  0.74626300  1
  O  O8  1  0.49991300  0.74837500  0.63654300  1
  O  O9  1  0.50010800  0.25030500  0.36390000  1
  O  O10  1  0.49999000  0.74820600  0.11509100  1
  O  O11  1  0.50002900  0.25072100  0.88566100  1
loop_
_geom_bond_atom_site_label_1
_geom_bond_atom_site_label_2
_geom_bond_distance
_geom_bond_site_symmetry_2
La0 O2 2.754399 1_455
La0 O1 2.762925 1_556
La0 O6 2.775075 1_556
La0 O6 2.775164 1_456
La0 O8 2.780461 1_555
La0 O8 2.781323 1_455
La0 O11 2.782102 1_555
La0 O11 2.782424 1_455
La0 O3 2.799435 1_455
La0 O4 2.805717 1_555
La0 O4 2.806669 1_455
La0 O0 2.809618 1_455
La1 O9 2.780011 1_555
La1 O9 2.780713 1_655
La1 O5 2.789928 1_555
La1 O3 2.790177 1_555
La1 O5 2.790278 1_655
La1 O7 2.790447 1_655
La1 O1 2.790978 1_655
La1 O7 2.791157 1_555
La1 O0 2.802372 1_545
La1 O8 2.807682 1_645
La1 O8 2.808174 1_545
La1 O2 2.825851 1_545
La2 O2 2.749722 1_554
La2 O1 2.764110 1_655
La2 O6 2.770653 1_555
La2 O6 2.771440 1_655
La2 O10 2.776752 1_555
La2 O10 2.777142 1_655
La2 O9 2.787018 1_555
La2 O9 2.787956 1_655
La2 O3 2.805851 1_555
La2 O0 2.807386 1_555
La2 O4 2.808709 1_655
La2 O4 2.808903 1_555
La3 O11 2.782386 1_555
La3 O11 2.782650 1_655
La3 O5 2.785425 1_556
La3 O5 2.785727 1_656
La3 O1 2.789483 1_656
La3 O3 2.789806 1_555
La3 O7 2.793594 1_655
La3 O7 2.794243 1_555
La3 O0 2.799262 1_546
La3 O10 2.809065 1_646
La3 O10 2.809123 1_546
La3 O2 2.828161 1_545
Mn0 O9 1.888792 1_555
Mn0 O11 1.889341 1_554
Mn0 O6 1.927282 1_555
Mn0 O5 1.940782 1_555
Mn0 O1 1.969446 1_655
Mn0 O1 1.970044 1_555
Mn1 O8 1.890755 1_555
Mn1 O10 1.890861 1_556
Mn1 O2 1.969493 1_555
Mn1 O2 1.970353 1_455
Mn1 O6 2.020013 1_556
Mn1 O7 2.029819 1_565
Mn2 O0 1.969598 1_555
Mn2 O0 1.969779 1_455
Mn2 O4 1.997899 1_555
Mn2 O5 2.012417 1_565
Mn2 O8 2.059973 1_555
Mn2 O10 2.061979 1_555
Mn3 O4 1.920017 1_555
Mn3 O7 1.930414 1_555
Mn3 O3 1.969388 1_455
Mn3 O3 1.969963 1_555
Mn3 O9 2.061129 1_555
Mn3 O11 2.064302 1_555
