# generated using pymatgen
data_Ca2PrBeO5
_symmetry_space_group_name_H-M   'P 1'
_cell_length_a   6.48749500
_cell_length_b   7.27496200
_cell_length_c   9.40954000
_cell_angle_alpha   90.00000000
_cell_angle_beta   90.00000000
_cell_angle_gamma   90.00000000
_symmetry_Int_Tables_number   1
_chemical_formula_structural   Ca2PrBeO5
_chemical_formula_sum   'Ca8 Pr4 Be4 O20'
_cell_volume   444.09528075
_cell_formula_units_Z   4
loop_
 _symmetry_equiv_pos_site_id
 _symmetry_equiv_pos_as_xyz
  1  'x, y, z'
loop_
 _atom_site_type_symbol
 _atom_site_label
 _atom_site_symmetry_multiplicity
 _atom_site_fract_x
 _atom_site_fract_y
 _atom_site_fract_z
 _atom_site_occupancy
  Ca  Ca0  1  0.57981500  0.52790700  0.82639100  1
  Ca  Ca1  1  0.42018500  0.47209300  0.17360900  1
  Ca  Ca2  1  0.07981500  0.47209300  0.67360900  1
  Ca  Ca3  1  0.42018500  0.02790700  0.17360900  1
  Ca  Ca4  1  0.92018500  0.52790700  0.32639100  1
  Ca  Ca5  1  0.57981500  0.97209300  0.82639100  1
  Ca  Ca6  1  0.92018500  0.97209300  0.32639100  1
  Ca  Ca7  1  0.07981500  0.02790700  0.67360900  1
  Pr  Pr0  1  0.09894800  0.75000000  0.97190300  1
  Pr  Pr1  1  0.90105200  0.25000000  0.02809700  1
  Pr  Pr2  1  0.59894800  0.25000000  0.52809700  1
  Pr  Pr3  1  0.40105200  0.75000000  0.47190300  1
  Be  Be0  1  0.81060600  0.75000000  0.60629800  1
  Be  Be1  1  0.18939400  0.25000000  0.39370200  1
  Be  Be2  1  0.31060600  0.25000000  0.89370200  1
  Be  Be3  1  0.68939400  0.75000000  0.10629800  1
  O  O0  1  0.86165700  0.75000000  0.77664300  1
  O  O1  1  0.13834300  0.25000000  0.22335700  1
  O  O2  1  0.36165700  0.25000000  0.72335700  1
  O  O3  1  0.63834300  0.75000000  0.27664300  1
  O  O4  1  0.32946400  0.75000000  0.73017600  1
  O  O5  1  0.67053600  0.25000000  0.26982400  1
  O  O6  1  0.82946400  0.25000000  0.76982400  1
  O  O7  1  0.17053600  0.75000000  0.23017600  1
  O  O8  1  0.02480800  0.75000000  0.51264700  1
  O  O9  1  0.97519200  0.25000000  0.48735300  1
  O  O10  1  0.52480800  0.25000000  0.98735300  1
  O  O11  1  0.47519200  0.75000000  0.01264700  1
  O  O12  1  0.68856300  0.56153600  0.57227600  1
  O  O13  1  0.31143700  0.43846400  0.42772400  1
  O  O14  1  0.18856300  0.43846400  0.92772400  1
  O  O15  1  0.31143700  0.06153600  0.42772400  1
  O  O16  1  0.81143700  0.56153600  0.07227600  1
  O  O17  1  0.68856300  0.93846400  0.57227600  1
  O  O18  1  0.81143700  0.93846400  0.07227600  1
  O  O19  1  0.18856300  0.06153600  0.92772400  1
loop_
_geom_bond_atom_site_label_1
_geom_bond_atom_site_label_2
_geom_bond_distance
_geom_bond_site_symmetry_2
Ca0 O4 2.463341 1_555
Ca0 O11 2.478464 1_556
Ca0 O0 2.484531 1_555
Ca0 O12 2.504989 1_555
Ca0 O10 2.551239 1_555
Ca0 O6 2.644604 1_555
Ca0 O2 2.651515 1_555
Ca0 O16 2.769629 1_556
Ca0 O14 2.788413 1_555
Ca1 O5 2.463341 1_555
Ca1 O10 2.478464 1_554
Ca1 O1 2.484531 1_555
Ca1 O13 2.504989 1_555
Ca1 O11 2.551239 1_555
Ca1 O7 2.644604 1_555
Ca1 O3 2.651515 1_555
Ca1 O14 2.769629 1_554
Ca1 O16 2.788413 1_555
Ca2 O6 2.463341 1_455
Ca2 O9 2.478464 1_455
Ca2 O2 2.484531 1_555
Ca2 O14 2.504989 1_555
Ca2 O8 2.551239 1_555
Ca2 O4 2.644604 1_555
Ca2 O0 2.651515 1_455
Ca2 O13 2.769629 1_555
Ca2 O12 2.788413 1_455
Ca3 O5 2.463341 1_555
Ca3 O10 2.478464 1_554
Ca3 O1 2.484531 1_555
Ca3 O15 2.504989 1_555
Ca3 O11 2.551239 1_545
Ca3 O7 2.644604 1_545
Ca3 O3 2.651515 1_545
Ca3 O19 2.769629 1_554
Ca3 O18 2.788413 1_545
Ca4 O7 2.463341 1_655
Ca4 O8 2.478464 1_655
Ca4 O3 2.484531 1_555
Ca4 O16 2.504989 1_555
Ca4 O9 2.551239 1_555
Ca4 O5 2.644604 1_555
Ca4 O1 2.651515 1_655
Ca4 O12 2.769629 1_555
Ca4 O13 2.788413 1_655
Ca5 O4 2.463341 1_555
Ca5 O11 2.478464 1_556
Ca5 O0 2.484531 1_555
Ca5 O17 2.504989 1_555
Ca5 O10 2.551239 1_565
Ca5 O6 2.644604 1_565
Ca5 O2 2.651515 1_565
Ca5 O18 2.769629 1_556
Ca5 O19 2.788413 1_565
Ca6 O7 2.463341 1_655
Ca6 O8 2.478464 1_655
Ca6 O3 2.484531 1_555
Ca6 O18 2.504989 1_555
Ca6 O9 2.551239 1_565
Ca6 O5 2.644604 1_565
Ca6 O1 2.651515 1_665
Ca6 O17 2.769629 1_555
Ca6 O15 2.788413 1_665
Ca7 O6 2.463341 1_455
Ca7 O9 2.478464 1_455
Ca7 O2 2.484531 1_555
Ca7 O19 2.504989 1_555
Ca7 O8 2.551239 1_545
Ca7 O4 2.644604 1_545
Ca7 O0 2.651515 1_445
Ca7 O15 2.769629 1_555
Ca7 O17 2.788413 1_445
Be0 O12 1.615298 1_555
Be0 O17 1.615298 1_555
Be0 O0 1.636727 1_555
Be0 O8 1.645485 1_655
Be1 O15 1.615298 1_555
Be1 O13 1.615298 1_555
Be1 O1 1.636727 1_555
Be1 O9 1.645485 1_455
Be2 O19 1.615298 1_555
Be2 O14 1.615298 1_555
Be2 O2 1.636727 1_555
Be2 O10 1.645485 1_555
Be3 O18 1.615298 1_555
Be3 O16 1.615298 1_555
Be3 O3 1.636727 1_555
Be3 O11 1.645485 1_555
O0 Pr0 2.396982 1_655
O1 Pr1 2.396982 1_455
O2 Pr2 2.396982 1_555
O3 Pr3 2.396982 1_555
O4 Pr3 2.474209 1_555
O4 Pr0 2.722125 1_555
O5 Pr2 2.474209 1_555
O5 Pr1 2.722125 1_555
O6 Pr1 2.474209 1_556
O6 Pr2 2.722125 1_555
O7 Pr0 2.474209 1_554
O7 Pr3 2.722125 1_555
O8 Pr3 2.470806 1_555
O9 Pr2 2.470806 1_555
O10 Pr1 2.470806 1_556
O11 Pr0 2.470806 1_554
O12 Pr2 2.376433 1_555
O12 Pr3 2.500182 1_555
O13 Pr3 2.376433 1_555
O13 Pr2 2.500182 1_555
O14 Pr0 2.376433 1_555
O14 Pr1 2.500182 1_456
O15 Pr3 2.376433 1_545
O15 Pr2 2.500182 1_555
O16 Pr1 2.376433 1_555
O16 Pr0 2.500182 1_654
O17 Pr2 2.376433 1_565
O17 Pr3 2.500182 1_555
O18 Pr1 2.376433 1_565
O18 Pr0 2.500182 1_654
O19 Pr0 2.376433 1_545
O19 Pr1 2.500182 1_456
