# generated using pymatgen
data_LiCrP2O7
_symmetry_space_group_name_H-M   'P 1'
_cell_length_a   6.27539285
_cell_length_b   6.27416147
_cell_length_c   13.63717796
_cell_angle_alpha   77.08608276
_cell_angle_beta   80.52694037
_cell_angle_gamma   98.87390009
_symmetry_Int_Tables_number   1
_chemical_formula_structural   LiCrP2O7
_chemical_formula_sum   'Li4 Cr4 P8 O28'
_cell_volume   505.92242179
_cell_formula_units_Z   4
loop_
 _symmetry_equiv_pos_site_id
 _symmetry_equiv_pos_as_xyz
  1  'x, y, z'
loop_
 _atom_site_type_symbol
 _atom_site_label
 _atom_site_symmetry_multiplicity
 _atom_site_fract_x
 _atom_site_fract_y
 _atom_site_fract_z
 _atom_site_occupancy
  Li  Li0  1  0.21293000  0.60792200  0.66324800  1
  Li  Li1  1  0.77198400  0.87808300  0.83670800  1
  Li  Li2  1  0.23316200  0.12678500  0.15971700  1
  Li  Li3  1  0.78814700  0.39244300  0.33638200  1
  Cr  Cr0  1  0.41530100  0.99671300  0.35901500  1
  Cr  Cr1  1  0.14406400  0.22885400  0.85817700  1
  Cr  Cr2  1  0.85493200  0.77422800  0.13984900  1
  Cr  Cr3  1  0.58783500  0.00419200  0.63921200  1
  P  P0  1  0.26779100  0.76303600  0.86556900  1
  P  P1  1  0.34878500  0.67286900  0.08975900  1
  P  P2  1  0.26305300  0.44161500  0.40817400  1
  P  P3  1  0.87450100  0.86619800  0.36605300  1
  P  P4  1  0.12882700  0.13617900  0.63212400  1
  P  P5  1  0.74004800  0.56052900  0.58961700  1
  P  P6  1  0.64989600  0.33082600  0.90831000  1
  P  P7  1  0.73141200  0.23900400  0.13232600  1
  O  O0  1  0.08336300  0.89639800  0.88530100  1
  O  O1  1  0.18517500  0.82233200  0.11955500  1
  O  O2  1  0.28246200  0.97226000  0.61191900  1
  O  O3  1  0.47272300  0.91203700  0.78789000  1
  O  O4  1  0.08246200  0.44257000  0.35120300  1
  O  O5  1  0.18012700  0.55809700  0.83033600  1
  O  O6  1  0.34407000  0.68117200  0.96902000  1
  O  O7  1  0.37459300  0.67381600  0.41585000  1
  O  O8  1  0.58843900  0.79044900  0.08342500  1
  O  O9  1  0.29111500  0.43497300  0.14604200  1
  O  O10  1  0.14775600  0.31443100  0.52850700  1
  O  O11  1  0.55985100  0.69371900  0.61902800  1
  O  O12  1  0.88886800  0.01337700  0.66865100  1
  O  O13  1  0.20203100  0.26481600  0.70928700  1
  O  O14  1  0.80107800  0.73894400  0.28853400  1
  O  O15  1  0.11444600  0.98868000  0.33029200  1
  O  O16  1  0.44228400  0.30785400  0.37816200  1
  O  O17  1  0.85468000  0.68617500  0.46922800  1
  O  O18  1  0.70671800  0.56933900  0.85299800  1
  O  O19  1  0.41099400  0.21259400  0.91383400  1
  O  O20  1  0.63063200  0.32712200  0.58251500  1
  O  O21  1  0.65156700  0.32011000  0.02963900  1
  O  O22  1  0.81568400  0.44364900  0.16853100  1
  O  O23  1  0.92047400  0.56264000  0.64674100  1
  O  O24  1  0.52841600  0.08624400  0.21020600  1
  O  O25  1  0.72098900  0.03019700  0.38650700  1
  O  O26  1  0.81424000  0.18257900  0.87802700  1
  O  O27  1  0.91701200  0.10781600  0.11110100  1
loop_
_geom_bond_atom_site_label_1
_geom_bond_atom_site_label_2
_geom_bond_distance
_geom_bond_site_symmetry_2
Li0 O23 1.871721 1_455
Li0 O13 2.090292 1_555
Li0 O11 2.110505 1_555
Li0 O2 2.186849 1_555
Li0 O5 2.199891 1_555
Li1 O18 1.871476 1_555
Li1 O26 2.100409 1_565
Li1 O3 2.118250 1_555
Li1 O0 2.159062 1_655
Li1 O12 2.212697 1_565
Li2 O9 1.872291 1_555
Li2 O1 2.093780 1_545
Li2 O24 2.111591 1_555
Li2 O27 2.187515 1_455
Li2 O15 2.246404 1_545
Li3 O4 1.876976 1_655
Li3 O16 2.102248 1_555
Li3 O14 2.110149 1_555
Li3 O25 2.173864 1_555
Li3 O22 2.212832 1_555
Cr0 O24 1.957270 1_565
Cr0 O7 1.960511 1_555
Cr0 O15 1.985786 1_555
Cr0 O25 2.003054 1_565
Cr0 O16 2.011999 1_565
Cr1 O19 1.956794 1_555
Cr1 O13 1.957728 1_555
Cr1 O5 1.984819 1_555
Cr1 O0 1.999111 1_545
Cr1 O26 2.009126 1_455
Cr2 O14 1.955832 1_555
Cr2 O8 1.959660 1_555
Cr2 O22 1.990888 1_555
Cr2 O27 2.004360 1_565
Cr2 O1 2.010832 1_655
Cr3 O3 1.957579 1_545
Cr3 O20 1.959245 1_555
Cr3 O12 1.989872 1_555
Cr3 O2 2.000169 1_545
Cr3 O11 2.012753 1_545
O0 P0 1.552066 1_555
O1 P1 1.558421 1_555
O2 P4 1.551870 1_565
O3 P0 1.545314 1_555
O4 P2 1.475739 1_555
O5 P0 1.527006 1_555
O6 P0 1.567644 1_555
O6 P1 1.640992 1_556
O7 P2 1.549526 1_555
O8 P1 1.549172 1_555
O9 P1 1.475732 1_555
O10 P4 1.568113 1_555
O10 P2 1.642831 1_555
O11 P5 1.558837 1_555
O12 P4 1.527386 1_655
O13 P4 1.547279 1_555
O14 P3 1.546416 1_555
O15 P3 1.526249 1_455
O16 P2 1.558879 1_555
O17 P3 1.568321 1_555
O17 P5 1.640769 1_555
O18 P6 1.475748 1_555
O19 P6 1.548644 1_555
O20 P5 1.549343 1_555
O21 P7 1.569119 1_555
O21 P6 1.642707 1_554
O22 P7 1.527040 1_555
O23 P5 1.476255 1_555
O24 P7 1.546720 1_555
O25 P3 1.552498 1_545
O26 P6 1.557805 1_555
O27 P7 1.552131 1_555
