# generated using pymatgen
data_Ca2UO17
_symmetry_space_group_name_H-M   'P 1'
_cell_length_a   9.11704200
_cell_length_b   11.55935200
_cell_length_c   13.00396900
_cell_angle_alpha   90.00000000
_cell_angle_beta   90.00000000
_cell_angle_gamma   90.00000000
_symmetry_Int_Tables_number   1
_chemical_formula_structural   Ca2UO17
_chemical_formula_sum   'Ca8 U4 O68'
_cell_volume   1370.45055119
_cell_formula_units_Z   4
loop_
 _symmetry_equiv_pos_site_id
 _symmetry_equiv_pos_as_xyz
  1  'x, y, z'
loop_
 _atom_site_type_symbol
 _atom_site_label
 _atom_site_symmetry_multiplicity
 _atom_site_fract_x
 _atom_site_fract_y
 _atom_site_fract_z
 _atom_site_occupancy
  Ca  Ca0  1  0.81891800  0.53114800  0.53216200  1
  Ca  Ca1  1  0.68108200  0.96885200  0.03216200  1
  Ca  Ca2  1  0.31891800  0.96885200  0.46783800  1
  Ca  Ca3  1  0.18108200  0.53114800  0.96783800  1
  Ca  Ca4  1  0.18108200  0.46885200  0.46783800  1
  Ca  Ca5  1  0.31891800  0.03114800  0.96783800  1
  Ca  Ca6  1  0.68108200  0.03114800  0.53216200  1
  Ca  Ca7  1  0.81891800  0.46885200  0.03216200  1
  U  U0  1  0.50000000  0.87562000  0.25000000  1
  U  U1  1  0.00000000  0.62438000  0.75000000  1
  U  U2  1  0.50000000  0.12438000  0.75000000  1
  U  U3  1  0.00000000  0.37562000  0.25000000  1
  O  O0  1  0.44497800  0.89936200  0.07587300  1
  O  O1  1  0.05502200  0.60063800  0.57587300  1
  O  O2  1  0.94497800  0.60063800  0.92412700  1
  O  O3  1  0.55502200  0.89936200  0.42412700  1
  O  O4  1  0.55502200  0.10063800  0.92412700  1
  O  O5  1  0.94497800  0.39936200  0.42412700  1
  O  O6  1  0.05502200  0.39936200  0.07587300  1
  O  O7  1  0.44497800  0.10063800  0.57587300  1
  O  O8  1  0.46375000  0.01570800  0.12374600  1
  O  O9  1  0.03625000  0.48429200  0.62374600  1
  O  O10  1  0.96375000  0.48429200  0.87625400  1
  O  O11  1  0.53625000  0.01570800  0.37625400  1
  O  O12  1  0.53625000  0.98429200  0.87625400  1
  O  O13  1  0.96375000  0.51570800  0.37625400  1
  O  O14  1  0.03625000  0.51570800  0.12374600  1
  O  O15  1  0.46375000  0.98429200  0.62374600  1
  O  O16  1  0.52374800  0.67521100  0.29805500  1
  O  O17  1  0.97625200  0.82478900  0.79805500  1
  O  O18  1  0.02374800  0.82478900  0.70194500  1
  O  O19  1  0.47625200  0.67521100  0.20194500  1
  O  O20  1  0.47625200  0.32478900  0.70194500  1
  O  O21  1  0.02374800  0.17521100  0.20194500  1
  O  O22  1  0.97625200  0.17521100  0.29805500  1
  O  O23  1  0.52374800  0.32478900  0.79805500  1
  O  O24  1  0.69191800  0.88017400  0.20061100  1
  O  O25  1  0.80808200  0.61982600  0.70061100  1
  O  O26  1  0.19191800  0.61982600  0.79938900  1
  O  O27  1  0.30808200  0.88017400  0.29938900  1
  O  O28  1  0.30808200  0.11982600  0.79938900  1
  O  O29  1  0.19191800  0.38017400  0.29938900  1
  O  O30  1  0.80808200  0.38017400  0.20061100  1
  O  O31  1  0.69191800  0.11982600  0.70061100  1
  O  O32  1  0.77380800  0.17898100  0.06166200  1
  O  O33  1  0.72619200  0.32101900  0.56166200  1
  O  O34  1  0.27380800  0.32101900  0.93833800  1
  O  O35  1  0.22619200  0.17898100  0.43833800  1
  O  O36  1  0.22619200  0.82101900  0.93833800  1
  O  O37  1  0.27380800  0.67898100  0.43833800  1
  O  O38  1  0.72619200  0.67898100  0.06166200  1
  O  O39  1  0.77380800  0.82101900  0.56166200  1
  O  O40  1  0.71195000  0.24617100  0.49170900  1
  O  O41  1  0.78805000  0.25382900  0.99170900  1
  O  O42  1  0.21195000  0.25382900  0.50829100  1
  O  O43  1  0.28805000  0.24617100  0.00829100  1
  O  O44  1  0.28805000  0.75382900  0.50829100  1
  O  O45  1  0.21195000  0.74617100  0.00829100  1
  O  O46  1  0.78805000  0.74617100  0.49170900  1
  O  O47  1  0.71195000  0.75382900  0.99170900  1
  O  O48  1  0.52677600  0.58493400  0.59680700  1
  O  O49  1  0.97322400  0.91506600  0.09680700  1
  O  O50  1  0.02677600  0.91506600  0.40319300  1
  O  O51  1  0.47322400  0.58493400  0.90319300  1
  O  O52  1  0.47322400  0.41506600  0.40319300  1
  O  O53  1  0.02677600  0.08493400  0.90319300  1
  O  O54  1  0.97322400  0.08493400  0.59680700  1
  O  O55  1  0.52677600  0.41506600  0.09680700  1
  O  O56  1  0.59621700  0.46187200  0.40062100  1
  O  O57  1  0.90378300  0.03812800  0.90062100  1
  O  O58  1  0.09621700  0.03812800  0.59937900  1
  O  O59  1  0.40378300  0.46187200  0.09937900  1
  O  O60  1  0.40378300  0.53812800  0.59937900  1
  O  O61  1  0.09621700  0.96187200  0.09937900  1
  O  O62  1  0.90378300  0.96187200  0.40062100  1
  O  O63  1  0.59621700  0.53812800  0.90062100  1
  O  O64  1  0.50000000  0.21412500  0.25000000  1
  O  O65  1  0.00000000  0.28587500  0.75000000  1
  O  O66  1  0.50000000  0.78587500  0.75000000  1
  O  O67  1  0.00000000  0.71412500  0.25000000  1
loop_
_geom_bond_atom_site_label_1
_geom_bond_atom_site_label_2
_geom_bond_distance
_geom_bond_site_symmetry_2
Ca0 O1 2.366829 1_655
Ca0 O5 2.369642 1_555
Ca0 O9 2.374400 1_655
Ca0 O25 2.420501 1_555
Ca0 O13 2.426079 1_555
Ca0 O46 2.556124 1_555
Ca0 O33 2.600320 1_555
Ca0 O56 2.773027 1_555
Ca0 O48 2.861347 1_555
Ca1 O0 2.366829 1_555
Ca1 O4 2.369642 1_564
Ca1 O8 2.374400 1_565
Ca1 O24 2.420501 1_555
Ca1 O12 2.426079 1_554
Ca1 O47 2.556124 1_554
Ca1 O32 2.600320 1_565
Ca1 O57 2.773027 1_564
Ca1 O49 2.861347 1_555
Ca2 O3 2.366829 1_555
Ca2 O7 2.369642 1_565
Ca2 O11 2.374400 1_565
Ca2 O27 2.420501 1_555
Ca2 O15 2.426079 1_555
Ca2 O44 2.556124 1_555
Ca2 O35 2.600320 1_565
Ca2 O58 2.773027 1_565
Ca2 O50 2.861347 1_555
Ca3 O2 2.366829 1_455
Ca3 O6 2.369642 1_556
Ca3 O10 2.374400 1_455
Ca3 O26 2.420501 1_555
Ca3 O14 2.426079 1_556
Ca3 O45 2.556124 1_556
Ca3 O34 2.600320 1_555
Ca3 O59 2.773027 1_556
Ca3 O51 2.861347 1_555
Ca4 O5 2.366829 1_455
Ca4 O1 2.369642 1_555
Ca4 O13 2.374400 1_455
Ca4 O29 2.420501 1_555
Ca4 O9 2.426079 1_555
Ca4 O42 2.556124 1_555
Ca4 O37 2.600320 1_555
Ca4 O60 2.773027 1_555
Ca4 O52 2.861347 1_555
Ca5 O4 2.366829 1_555
Ca5 O0 2.369642 1_546
Ca5 O12 2.374400 1_545
Ca5 O28 2.420501 1_555
Ca5 O8 2.426079 1_556
Ca5 O43 2.556124 1_556
Ca5 O36 2.600320 1_545
Ca5 O61 2.773027 1_546
Ca5 O53 2.861347 1_555
Ca6 O7 2.366829 1_555
Ca6 O3 2.369642 1_545
Ca6 O15 2.374400 1_545
Ca6 O31 2.420501 1_555
Ca6 O11 2.426079 1_555
Ca6 O40 2.556124 1_555
Ca6 O39 2.600320 1_545
Ca6 O62 2.773027 1_545
Ca6 O54 2.861347 1_555
Ca7 O6 2.366829 1_655
Ca7 O2 2.369642 1_554
Ca7 O14 2.374400 1_655
Ca7 O30 2.420501 1_555
Ca7 O10 2.426079 1_554
Ca7 O41 2.556124 1_554
Ca7 O38 2.600320 1_555
Ca7 O63 2.773027 1_554
Ca7 O55 2.861347 1_555
O0 O8 1.491831 1_565
O0 U0 2.335424 1_555
O1 O9 1.491831 1_555
O1 U1 2.335424 1_555
O2 U1 2.335424 1_655
O3 U0 2.335424 1_555
O4 U2 2.335424 1_555
O5 U3 2.335424 1_655
O6 U3 2.335424 1_555
O7 U2 2.335424 1_555
O8 U0 2.329584 1_545
O9 U1 2.329584 1_555
O10 O2 1.491831 1_555
O10 U1 2.329584 1_655
O11 O3 1.491831 1_545
O11 U0 2.329584 1_545
O12 O4 1.491831 1_565
O12 U2 2.329584 1_565
O13 O5 1.491831 1_555
O13 U3 2.329584 1_655
O14 O6 1.491831 1_555
O14 U3 2.329584 1_555
O15 O7 1.491831 1_565
O15 U2 2.329584 1_565
O16 O19 1.322701 1_555
O16 U0 2.409152 1_555
O17 O18 1.322701 1_655
O17 U1 2.409152 1_655
O18 U1 2.409152 1_555
O19 U0 2.409152 1_555
O20 O23 1.322701 1_555
O20 U2 2.409152 1_555
O21 O22 1.322701 1_455
O21 U3 2.409152 1_555
O22 U3 2.409152 1_655
O23 U2 2.409152 1_555
O24 U0 1.864617 1_555
O25 U1 1.864617 1_655
O26 U1 1.864617 1_555
O27 U0 1.864617 1_555
O28 U2 1.864617 1_555
O29 U3 1.864617 1_555
O30 U3 1.864617 1_655
O31 U2 1.864617 1_555
O32 O41 1.262107 1_554
O33 O40 1.262107 1_555
O34 O43 1.262107 1_556
O35 O42 1.262107 1_555
O36 O45 1.262107 1_556
O37 O44 1.262107 1_555
O38 O47 1.262107 1_554
O39 O46 1.262107 1_555
O48 O60 1.245487 1_555
O49 O61 1.245487 1_655
O50 O62 1.245487 1_455
O51 O63 1.245487 1_555
O52 O56 1.245487 1_555
O53 O57 1.245487 1_455
O54 O58 1.245487 1_655
O55 O59 1.245487 1_555
