# generated using pymatgen
data_Sn3O4
_symmetry_space_group_name_H-M   'P 1'
_cell_length_a   8.64405300
_cell_length_b   8.64405300
_cell_length_c   7.40823300
_cell_angle_alpha   90.00000000
_cell_angle_beta   90.00000000
_cell_angle_gamma   90.00000000
_symmetry_Int_Tables_number   1
_chemical_formula_structural   Sn3O4
_chemical_formula_sum   'Sn12 O16'
_cell_volume   553.54059367
_cell_formula_units_Z   4
loop_
 _symmetry_equiv_pos_site_id
 _symmetry_equiv_pos_as_xyz
  1  'x, y, z'
loop_
 _atom_site_type_symbol
 _atom_site_label
 _atom_site_symmetry_multiplicity
 _atom_site_fract_x
 _atom_site_fract_y
 _atom_site_fract_z
 _atom_site_occupancy
  Sn  Sn0  1  0.65621100  0.73635600  0.50000000  1
  Sn  Sn1  1  0.84378900  0.23635600  0.00000000  1
  Sn  Sn2  1  0.34378900  0.26364400  0.50000000  1
  Sn  Sn3  1  0.15621100  0.76364400  0.00000000  1
  Sn  Sn4  1  0.26364400  0.65621100  0.50000000  1
  Sn  Sn5  1  0.76364400  0.84378900  0.00000000  1
  Sn  Sn6  1  0.73635600  0.34378900  0.50000000  1
  Sn  Sn7  1  0.23635600  0.15621100  0.00000000  1
  Sn  Sn8  1  0.50000000  0.50000000  0.80765000  1
  Sn  Sn9  1  0.00000000  0.00000000  0.69235000  1
  Sn  Sn10  1  0.50000000  0.50000000  0.19235000  1
  Sn  Sn11  1  0.00000000  0.00000000  0.30765000  1
  O  O0  1  0.71375900  0.54254800  0.68106300  1
  O  O1  1  0.78624100  0.04254800  0.81893700  1
  O  O2  1  0.28624100  0.45745200  0.68106300  1
  O  O3  1  0.21375900  0.95745200  0.81893700  1
  O  O4  1  0.45745200  0.71375900  0.31893700  1
  O  O5  1  0.95745200  0.78624100  0.18106300  1
  O  O6  1  0.54254800  0.28624100  0.31893700  1
  O  O7  1  0.04254800  0.21375900  0.18106300  1
  O  O8  1  0.45745200  0.71375900  0.68106300  1
  O  O9  1  0.04254800  0.21375900  0.81893700  1
  O  O10  1  0.54254800  0.28624100  0.68106300  1
  O  O11  1  0.95745200  0.78624100  0.81893700  1
  O  O12  1  0.28624100  0.45745200  0.31893700  1
  O  O13  1  0.78624100  0.04254800  0.18106300  1
  O  O14  1  0.71375900  0.54254800  0.31893700  1
  O  O15  1  0.21375900  0.95745200  0.18106300  1
loop_
_geom_bond_atom_site_label_1
_geom_bond_atom_site_label_2
_geom_bond_distance
_geom_bond_site_symmetry_2
O0 Sn8 2.104488 1_555
O0 Sn6 2.188425 1_555
O0 Sn0 2.203016 1_555
O1 Sn9 2.104488 1_655
O1 Sn5 2.188425 1_546
O1 Sn1 2.203016 1_556
O2 Sn8 2.104488 1_555
O2 Sn4 2.188425 1_555
O2 Sn2 2.203016 1_555
O3 Sn9 2.104488 1_565
O3 Sn7 2.188425 1_566
O3 Sn3 2.203016 1_556
O4 Sn10 2.104488 1_555
O4 Sn0 2.188425 1_555
O4 Sn4 2.203016 1_555
O5 Sn11 2.104488 1_665
O5 Sn3 2.188425 1_655
O5 Sn5 2.203016 1_555
O6 Sn10 2.104488 1_555
O6 Sn2 2.188425 1_555
O6 Sn6 2.203016 1_555
O7 Sn11 2.104488 1_555
O7 Sn1 2.188425 1_455
O7 Sn7 2.203016 1_555
O8 Sn8 2.104488 1_555
O8 Sn0 2.188425 1_555
O8 Sn4 2.203016 1_555
O9 Sn9 2.104488 1_555
O9 Sn1 2.188425 1_456
O9 Sn7 2.203016 1_556
O10 Sn8 2.104488 1_555
O10 Sn2 2.188425 1_555
O10 Sn6 2.203016 1_555
O11 Sn9 2.104488 1_665
O11 Sn3 2.188425 1_656
O11 Sn5 2.203016 1_556
O12 Sn10 2.104488 1_555
O12 Sn4 2.188425 1_555
O12 Sn2 2.203016 1_555
O13 Sn11 2.104488 1_655
O13 Sn5 2.188425 1_545
O13 Sn1 2.203016 1_555
O14 Sn10 2.104488 1_555
O14 Sn6 2.188425 1_555
O14 Sn0 2.203016 1_555
O15 Sn11 2.104488 1_565
O15 Sn7 2.188425 1_565
O15 Sn3 2.203016 1_555
