# generated using pymatgen
data_Ag7PS6
_symmetry_space_group_name_H-M   'P 1'
_cell_length_a   10.53102800
_cell_length_b   10.53102800
_cell_length_c   10.53102800
_cell_angle_alpha   90.00000000
_cell_angle_beta   90.00000000
_cell_angle_gamma   90.00000000
_symmetry_Int_Tables_number   1
_chemical_formula_structural   Ag7PS6
_chemical_formula_sum   'Ag28 P4 S24'
_cell_volume   1167.91786708
_cell_formula_units_Z   4
loop_
 _symmetry_equiv_pos_site_id
 _symmetry_equiv_pos_as_xyz
  1  'x, y, z'
loop_
 _atom_site_type_symbol
 _atom_site_label
 _atom_site_symmetry_multiplicity
 _atom_site_fract_x
 _atom_site_fract_y
 _atom_site_fract_z
 _atom_site_occupancy
  Ag  Ag0  1  0.23338300  0.92657800  0.90250300  1
  Ag  Ag1  1  0.09749700  0.73338300  0.57342200  1
  Ag  Ag2  1  0.42657800  0.59749700  0.76661700  1
  Ag  Ag3  1  0.73338300  0.57342200  0.09749700  1
  Ag  Ag4  1  0.59749700  0.76661700  0.42657800  1
  Ag  Ag5  1  0.92657800  0.90250300  0.23338300  1
  Ag  Ag6  1  0.76661700  0.42657800  0.59749700  1
  Ag  Ag7  1  0.90250300  0.23338300  0.92657800  1
  Ag  Ag8  1  0.57342200  0.09749700  0.73338300  1
  Ag  Ag9  1  0.26661700  0.07342200  0.40250300  1
  Ag  Ag10  1  0.40250300  0.26661700  0.07342200  1
  Ag  Ag11  1  0.07342200  0.40250300  0.26661700  1
  Ag  Ag12  1  0.00774200  0.77273500  0.98409600  1
  Ag  Ag13  1  0.01590400  0.50774200  0.72726500  1
  Ag  Ag14  1  0.27273500  0.51590400  0.99225800  1
  Ag  Ag15  1  0.50774200  0.72726500  0.01590400  1
  Ag  Ag16  1  0.51590400  0.99225800  0.27273500  1
  Ag  Ag17  1  0.77273500  0.98409600  0.00774200  1
  Ag  Ag18  1  0.99225800  0.27273500  0.51590400  1
  Ag  Ag19  1  0.98409600  0.00774200  0.77273500  1
  Ag  Ag20  1  0.72726500  0.01590400  0.50774200  1
  Ag  Ag21  1  0.49225800  0.22726500  0.48409600  1
  Ag  Ag22  1  0.48409600  0.49225800  0.22726500  1
  Ag  Ag23  1  0.22726500  0.48409600  0.49225800  1
  Ag  Ag24  1  0.35195800  0.85195800  0.64804200  1
  Ag  Ag25  1  0.85195800  0.64804200  0.35195800  1
  Ag  Ag26  1  0.64804200  0.35195800  0.85195800  1
  Ag  Ag27  1  0.14804200  0.14804200  0.14804200  1
  P  P0  1  0.75138000  0.25138000  0.24862000  1
  P  P1  1  0.25138000  0.24862000  0.75138000  1
  P  P2  1  0.24862000  0.75138000  0.25138000  1
  P  P3  1  0.74862000  0.74862000  0.74862000  1
  S  S0  1  0.86535700  0.36535700  0.13464300  1
  S  S1  1  0.36535700  0.13464300  0.86535700  1
  S  S2  1  0.13464300  0.86535700  0.36535700  1
  S  S3  1  0.63464300  0.63464300  0.63464300  1
  S  S4  1  0.35458700  0.86834300  0.13309200  1
  S  S5  1  0.86690800  0.85458700  0.63165700  1
  S  S6  1  0.36834300  0.36690800  0.64541300  1
  S  S7  1  0.85458700  0.63165700  0.86690800  1
  S  S8  1  0.36690800  0.64541300  0.36834300  1
  S  S9  1  0.86834300  0.13309200  0.35458700  1
  S  S10  1  0.64541300  0.36834300  0.36690800  1
  S  S11  1  0.13309200  0.35458700  0.86834300  1
  S  S12  1  0.63165700  0.86690800  0.85458700  1
  S  S13  1  0.14541300  0.13165700  0.63309200  1
  S  S14  1  0.63309200  0.14541300  0.13165700  1
  S  S15  1  0.13165700  0.63309200  0.14541300  1
  S  S16  1  0.21923000  0.71923000  0.78077000  1
  S  S17  1  0.71923000  0.78077000  0.21923000  1
  S  S18  1  0.78077000  0.21923000  0.71923000  1
  S  S19  1  0.28077000  0.28077000  0.28077000  1
  S  S20  1  0.48534000  0.98534000  0.51466000  1
  S  S21  1  0.98534000  0.51466000  0.48534000  1
  S  S22  1  0.51466000  0.48534000  0.98534000  1
  S  S23  1  0.01466000  0.01466000  0.01466000  1
loop_
_geom_bond_atom_site_label_1
_geom_bond_atom_site_label_2
_geom_bond_distance
_geom_bond_site_symmetry_2
Ag0 S16 2.536479 1_555
Ag0 S1 2.624065 1_565
Ag0 S23 2.749736 1_566
Ag0 S4 2.811075 1_556
Ag1 S16 2.536479 1_555
Ag1 S2 2.624065 1_555
Ag1 S21 2.749736 1_455
Ag1 S5 2.811075 1_455
Ag2 S16 2.536479 1_555
Ag2 S3 2.624065 1_555
Ag2 S22 2.749736 1_555
Ag2 S6 2.811075 1_555
Ag3 S17 2.536479 1_555
Ag3 S0 2.624065 1_555
Ag3 S22 2.749736 1_554
Ag3 S7 2.811075 1_554
Ag4 S17 2.536479 1_555
Ag4 S3 2.624065 1_555
Ag4 S20 2.749736 1_555
Ag4 S8 2.811075 1_555
Ag5 S17 2.536479 1_555
Ag5 S2 2.624065 1_655
Ag5 S23 2.749736 1_665
Ag5 S9 2.811075 1_565
Ag6 S18 2.536479 1_555
Ag6 S3 2.624065 1_555
Ag6 S21 2.749736 1_555
Ag6 S10 2.811075 1_555
Ag7 S18 2.536479 1_555
Ag7 S0 2.624065 1_556
Ag7 S23 2.749736 1_656
Ag7 S11 2.811075 1_655
Ag8 S18 2.536479 1_555
Ag8 S1 2.624065 1_555
Ag8 S20 2.749736 1_545
Ag8 S12 2.811075 1_545
Ag9 S19 2.536479 1_555
Ag9 S2 2.624065 1_545
Ag9 S20 2.749736 1_545
Ag9 S13 2.811075 1_555
Ag10 S19 2.536479 1_555
Ag10 S1 2.624065 1_554
Ag10 S22 2.749736 1_554
Ag10 S14 2.811075 1_555
Ag11 S19 2.536479 1_555
Ag11 S0 2.624065 1_455
Ag11 S21 2.749736 1_455
Ag11 S15 2.811075 1_555
Ag12 S7 2.516287 1_455
Ag12 S23 2.569004 1_566
Ag12 S15 2.598376 1_556
Ag12 S16 3.140497 1_555
Ag13 S11 2.516287 1_555
Ag13 S21 2.569004 1_455
Ag13 S7 2.598376 1_455
Ag13 S16 3.140497 1_555
Ag14 S15 2.516287 1_556
Ag14 S22 2.569004 1_555
Ag14 S11 2.598376 1_555
Ag14 S16 3.140497 1_555
Ag15 S4 2.516287 1_555
Ag15 S22 2.569004 1_554
Ag15 S12 2.598376 1_554
Ag15 S17 3.140497 1_555
Ag16 S14 2.516287 1_565
Ag16 S20 2.569004 1_555
Ag16 S4 2.598376 1_555
Ag16 S17 3.140497 1_555
Ag17 S12 2.516287 1_554
Ag17 S23 2.569004 1_665
Ag17 S14 2.598376 1_565
Ag17 S17 3.140497 1_555
Ag18 S13 2.516287 1_655
Ag18 S21 2.569004 1_555
Ag18 S9 2.598376 1_555
Ag18 S18 3.140497 1_555
Ag19 S5 2.516287 1_545
Ag19 S23 2.569004 1_656
Ag19 S13 2.598376 1_655
Ag19 S18 3.140497 1_555
Ag20 S9 2.516287 1_555
Ag20 S20 2.569004 1_545
Ag20 S5 2.598376 1_545
Ag20 S18 3.140497 1_555
Ag21 S10 2.516287 1_555
Ag21 S20 2.569004 1_545
Ag21 S6 2.598376 1_555
Ag21 S19 3.140497 1_555
Ag22 S8 2.516287 1_555
Ag22 S22 2.569004 1_554
Ag22 S10 2.598376 1_555
Ag22 S19 3.140497 1_555
Ag23 S6 2.516287 1_555
Ag23 S21 2.569004 1_455
Ag23 S8 2.598376 1_555
Ag23 S19 3.140497 1_555
Ag24 S16 2.420995 1_555
Ag24 S20 2.432924 1_555
Ag25 S17 2.420995 1_555
Ag25 S21 2.432924 1_555
Ag26 S18 2.420995 1_555
Ag26 S22 2.432924 1_555
Ag27 S19 2.420995 1_555
Ag27 S23 2.432924 1_555
P0 S9 2.077081 1_555
P0 S10 2.077081 1_555
P0 S14 2.077081 1_555
P0 S0 2.078972 1_555
P1 S11 2.077081 1_555
P1 S6 2.077081 1_555
P1 S13 2.077081 1_555
P1 S1 2.078972 1_555
P2 S4 2.077081 1_555
P2 S8 2.077081 1_555
P2 S15 2.077081 1_555
P2 S2 2.078972 1_555
P3 S12 2.077081 1_555
P3 S7 2.077081 1_555
P3 S5 2.077081 1_555
P3 S3 2.078972 1_555
