# generated using pymatgen
data_Ti3O8
_symmetry_space_group_name_H-M   'P 1'
_cell_length_a   3.78237900
_cell_length_b   3.78237900
_cell_length_c   9.61863300
_cell_angle_alpha   90.00000000
_cell_angle_beta   90.00000000
_cell_angle_gamma   90.00000000
_symmetry_Int_Tables_number   1
_chemical_formula_structural   Ti3O8
_chemical_formula_sum   'Ti3 O8'
_cell_volume   137.60792362
_cell_formula_units_Z   1
loop_
 _symmetry_equiv_pos_site_id
 _symmetry_equiv_pos_as_xyz
  1  'x, y, z'
loop_
 _atom_site_type_symbol
 _atom_site_label
 _atom_site_symmetry_multiplicity
 _atom_site_fract_x
 _atom_site_fract_y
 _atom_site_fract_z
 _atom_site_occupancy
  Ti  Ti0  1  0.00000000  0.00000000  0.50000000  1
  Ti  Ti1  1  0.00000000  0.50000000  0.24010400  1
  Ti  Ti2  1  0.50000000  0.00000000  0.75989600  1
  O  O0  1  0.00000000  0.50000000  0.03753200  1
  O  O1  1  0.50000000  0.00000000  0.54214400  1
  O  O2  1  0.00000000  0.00000000  0.28949800  1
  O  O3  1  0.50000000  0.50000000  0.79146600  1
  O  O4  1  0.50000000  0.50000000  0.20853400  1
  O  O5  1  0.00000000  0.00000000  0.71050200  1
  O  O6  1  0.50000000  0.00000000  0.96246800  1
  O  O7  1  0.00000000  0.50000000  0.45785600  1
loop_
_geom_bond_atom_site_label_1
_geom_bond_atom_site_label_2
_geom_bond_distance
_geom_bond_site_symmetry_2
O0 Ti1 1.948466 1_555
O1 Ti0 1.934146 1_555
O1 Ti0 1.934146 1_655
O1 Ti2 2.094477 1_555
O2 Ti1 1.949954 1_555
O2 Ti1 1.949954 1_545
O2 Ti0 2.024741 1_555
O3 Ti2 1.915413 1_555
O3 Ti2 1.915413 1_565
O4 Ti1 1.915413 1_555
O4 Ti1 1.915413 1_655
O5 Ti2 1.949954 1_555
O5 Ti2 1.949954 1_455
O5 Ti0 2.024741 1_555
O6 Ti2 1.948466 1_555
O7 Ti0 1.934146 1_565
O7 Ti0 1.934146 1_555
O7 Ti1 2.094477 1_555
