# generated using pymatgen
data_Mg6FeBi
_symmetry_space_group_name_H-M   'P 1'
_cell_length_a   5.00497700
_cell_length_b   6.32943900
_cell_length_c   10.92970600
_cell_angle_alpha   90.00000000
_cell_angle_beta   90.00000000
_cell_angle_gamma   90.00000000
_symmetry_Int_Tables_number   1
_chemical_formula_structural   Mg6FeBi
_chemical_formula_sum   'Mg12 Fe2 Bi2'
_cell_volume   346.23884050
_cell_formula_units_Z   2
loop_
 _symmetry_equiv_pos_site_id
 _symmetry_equiv_pos_as_xyz
  1  'x, y, z'
loop_
 _atom_site_type_symbol
 _atom_site_label
 _atom_site_symmetry_multiplicity
 _atom_site_fract_x
 _atom_site_fract_y
 _atom_site_fract_z
 _atom_site_occupancy
  Mg  Mg0  1  0.00000000  0.23666000  0.07705500  1
  Mg  Mg1  1  0.00000000  0.76334000  0.07705500  1
  Mg  Mg2  1  0.00000000  0.50000000  0.83395500  1
  Mg  Mg3  1  0.50000000  0.23777000  0.91263600  1
  Mg  Mg4  1  0.50000000  0.76223000  0.91263600  1
  Mg  Mg5  1  0.50000000  0.50000000  0.66846700  1
  Mg  Mg6  1  0.00000000  0.73666000  0.57705500  1
  Mg  Mg7  1  0.00000000  0.26334000  0.57705500  1
  Mg  Mg8  1  0.00000000  0.00000000  0.33395500  1
  Mg  Mg9  1  0.50000000  0.73777000  0.41263600  1
  Mg  Mg10  1  0.50000000  0.26223000  0.41263600  1
  Mg  Mg11  1  0.50000000  0.00000000  0.16846700  1
  Fe  Fe0  1  0.00000000  0.50000000  0.34742000  1
  Fe  Fe1  1  0.00000000  0.00000000  0.84742000  1
  Bi  Bi0  1  0.50000000  0.50000000  0.17077500  1
  Bi  Bi1  1  0.50000000  0.00000000  0.67077500  1
loop_
_geom_bond_atom_site_label_1
_geom_bond_atom_site_label_2
_geom_bond_distance
_geom_bond_site_symmetry_2
Mg0 Mg1 2.995850 1_545
Mg0 Mg3 3.080891 1_454
Mg0 Mg3 3.080891 1_554
Mg0 Mg11 3.082927 1_455
Mg0 Mg11 3.082927 1_555
Mg0 Mg2 3.136545 1_554
Mg0 Mg8 3.182413 1_555
Mg0 Mg1 3.333589 1_555
Mg1 Mg4 3.080891 1_554
Mg1 Mg4 3.080891 1_454
Mg1 Mg11 3.082927 1_565
Mg1 Mg11 3.082927 1_465
Mg1 Mg2 3.136545 1_554
Mg1 Mg8 3.182413 1_565
Mg2 Mg5 3.087713 1_555
Mg2 Mg5 3.087713 1_455
Mg2 Mg3 3.123590 1_455
Mg2 Mg3 3.123590 1_555
Mg2 Mg4 3.123590 1_555
Mg2 Mg4 3.123590 1_455
Mg2 Mg7 3.182413 1_555
Mg2 Mg6 3.182413 1_555
Mg3 Mg4 3.009901 1_545
Mg3 Mg5 3.142732 1_555
Mg3 Mg4 3.319538 1_555
Mg4 Mg5 3.142732 1_555
Mg5 Mg7 3.082927 1_555
Mg5 Mg6 3.082927 1_655
Mg5 Mg7 3.082927 1_655
Mg5 Mg6 3.082927 1_555
Mg5 Mg9 3.175433 1_555
Mg6 Mg7 2.995850 1_555
Mg6 Mg9 3.080891 1_455
Mg6 Mg9 3.080891 1_555
Mg6 Mg8 3.136545 1_565
Mg6 Mg7 3.333589 1_565
Mg7 Mg8 3.136545 1_555
Mg8 Mg9 3.123590 1_545
Mg8 Mg9 3.123590 1_445
Mg10 Mg9 3.009901 1_555
Mg10 Mg7 3.080891 1_655
Mg10 Mg7 3.080891 1_555
Mg10 Mg8 3.123590 1_555
Mg10 Mg8 3.123590 1_655
Mg10 Mg11 3.142732 1_555
Mg10 Mg5 3.175433 1_555
Mg10 Mg9 3.319538 1_545
Mg11 Mg8 3.087713 1_655
Mg11 Mg8 3.087713 1_555
Mg11 Mg9 3.142732 1_545
Mg11 Mg4 3.175433 1_544
Mg11 Mg3 3.175433 1_554
Fe0 Mg6 2.922857 1_555
Fe0 Mg7 2.922857 1_555
Fe0 Mg10 3.005894 1_455
Fe0 Mg9 3.005894 1_455
Fe0 Mg10 3.005894 1_555
Fe0 Mg9 3.005894 1_555
Fe0 Mg8 3.168140 1_565
Fe0 Mg8 3.168140 1_555
Fe0 Mg0 3.392681 1_555
Fe0 Mg1 3.392681 1_555
Fe1 Mg1 2.922857 1_546
Fe1 Mg0 2.922857 1_556
Fe1 Mg4 3.005894 1_445
Fe1 Mg4 3.005894 1_545
Fe1 Mg3 3.005894 1_455
Fe1 Mg3 3.005894 1_555
Fe1 Mg2 3.168140 1_545
Fe1 Mg2 3.168140 1_555
Fe1 Mg6 3.392681 1_545
Fe1 Mg7 3.392681 1_555
Bi0 Mg10 3.041843 1_555
Bi0 Mg9 3.041843 1_555
Bi0 Fe0 3.160691 1_655
Bi0 Fe0 3.160691 1_555
Bi0 Mg11 3.164820 1_565
Bi0 Mg11 3.164820 1_555
Bi0 Mg0 3.176462 1_555
Bi0 Mg0 3.176462 1_655
Bi0 Mg1 3.176462 1_655
Bi0 Mg1 3.176462 1_555
Bi0 Mg3 3.273383 1_554
Bi0 Mg4 3.273383 1_554
Bi1 Mg4 3.041843 1_545
Bi1 Mg3 3.041843 1_555
Bi1 Fe1 3.160691 1_655
Bi1 Fe1 3.160691 1_555
Bi1 Mg5 3.164820 1_545
Bi1 Mg5 3.164820 1_555
Bi1 Mg6 3.176462 1_645
Bi1 Mg6 3.176462 1_545
Bi1 Mg7 3.176462 1_555
Bi1 Mg7 3.176462 1_655
Bi1 Mg9 3.273383 1_545
Bi1 Mg10 3.273383 1_555
