# generated using pymatgen
data_Mn3Al9Si
_symmetry_space_group_name_H-M   'P 1'
_cell_length_a   7.46652092
_cell_length_b   7.46654962
_cell_length_c   7.71050383
_cell_angle_alpha   89.99999937
_cell_angle_beta   90.00000350
_cell_angle_gamma   120.00005729
_symmetry_Int_Tables_number   1
_chemical_formula_structural   Mn3Al9Si
_chemical_formula_sum   'Mn6 Al18 Si2'
_cell_volume   372.26429146
_cell_formula_units_Z   2
loop_
 _symmetry_equiv_pos_site_id
 _symmetry_equiv_pos_as_xyz
  1  'x, y, z'
loop_
 _atom_site_type_symbol
 _atom_site_label
 _atom_site_symmetry_multiplicity
 _atom_site_fract_x
 _atom_site_fract_y
 _atom_site_fract_z
 _atom_site_occupancy
  Mn  Mn0  1  0.76689353  0.88344855  0.24999999  1
  Mn  Mn1  1  0.11654711  0.88344647  0.25000002  1
  Mn  Mn2  1  0.88344223  0.76688723  0.74999992  1
  Mn  Mn3  1  0.23312174  0.11656944  0.74999997  1
  Mn  Mn4  1  0.88344782  0.11656727  0.74999995  1
  Mn  Mn5  1  0.11654391  0.23310019  0.25000001  1
  Al  Al0  1  0.79714659  0.20284834  0.43819825  1
  Al  Al1  1  0.79714660  0.20284836  0.06180173  1
  Al  Al2  1  0.20285817  0.79714328  0.56179465  1
  Al  Al3  1  0.20285626  0.40571518  0.56179445  1
  Al  Al4  1  0.59428720  0.79714138  0.56180479  1
  Al  Al5  1  0.40571232  0.20285560  0.06179936  1
  Al  Al6  1  0.45832688  0.91665943  0.24999995  1
  Al  Al7  1  0.54167794  0.45833320  0.75000009  1
  Al  Al8  1  0.91666211  0.45833031  0.75000007  1
  Al  Al9  1  0.79714173  0.59428706  0.06180298  1
  Al  Al10  1  0.45832633  0.54166219  0.24999994  1
  Al  Al11  1  0.54167562  0.08333935  0.75000008  1
  Al  Al12  1  0.20285628  0.40571520  0.93820560  1
  Al  Al13  1  0.08333581  0.54166453  0.24999997  1
  Al  Al14  1  0.40571228  0.20285557  0.43820062  1
  Al  Al15  1  0.59428716  0.79714137  0.93819525  1
  Al  Al16  1  0.20285815  0.79714327  0.93820537  1
  Al  Al17  1  0.79714173  0.59428705  0.43819698  1
  Si  Si0  1  -0.00000324  0.00000307  0.00000018  1
  Si  Si1  1  -0.00000324  0.00000310  0.49999982  1
loop_
_geom_bond_atom_site_label_1
_geom_bond_atom_site_label_2
_geom_bond_distance
_geom_bond_site_symmetry_2
Mn0 Si1 2.446970 1_665
Mn0 Si0 2.446970 1_665
Mn0 Mn5 2.610679 1_665
Mn0 Mn1 2.610704 1_655
Mn1 Si1 2.446987 1_565
Mn1 Si0 2.446987 1_565
Mn1 Mn5 2.610719 1_565
Mn2 Si1 2.447025 1_665
Mn2 Si0 2.447026 1_666
Mn2 Mn4 2.610882 1_565
Mn2 Mn3 2.610902 1_665
Mn3 Si1 2.447058 1_555
Mn3 Si0 2.447059 1_556
Mn3 Mn4 2.610840 1_455
Mn4 Si1 2.447014 1_655
Mn4 Si0 2.447014 1_656
Mn5 Si1 2.446949 1_555
Mn5 Si0 2.446949 1_555
Al0 Mn4 2.650525 1_555
Al0 Si1 2.666241 1_655
Al0 Mn5 2.702824 1_655
Al0 Mn0 2.702845 1_545
Al0 Al13 2.768727 1_655
Al0 Al6 2.768737 1_545
Al0 Al3 2.791129 1_655
Al0 Al4 2.791149 1_545
Al0 Al1 2.902207 1_555
Al0 Al11 2.917629 1_555
Al0 Al8 2.917673 1_555
Al0 Al14 2.922679 1_555
Al0 Al17 2.922715 1_555
Al1 Mn4 2.650525 1_554
Al1 Si0 2.666241 1_655
Al1 Mn5 2.702824 1_655
Al1 Mn0 2.702845 1_545
Al1 Al13 2.768727 1_655
Al1 Al6 2.768737 1_545
Al1 Al12 2.791129 1_654
Al1 Al15 2.791149 1_544
Al1 Al11 2.917628 1_554
Al1 Al8 2.917672 1_554
Al1 Al5 2.922679 1_555
Al1 Al9 2.922715 1_555
Al2 Mn1 2.650562 1_555
Al2 Si1 2.666396 1_565
Al2 Mn2 2.702959 1_455
Al2 Mn3 2.703011 1_565
Al2 Al8 2.768759 1_455
Al2 Al6 2.917575 1_555
Al2 Al3 2.922610 1_555
Al2 Al4 2.922620 1_555
Al3 Mn5 2.650563 1_555
Al3 Si1 2.666340 1_555
Al3 Mn4 2.702903 1_455
Al3 Mn3 2.702913 1_555
Al3 Al8 2.768739 1_455
Al3 Al7 2.768808 1_555
Al3 Al4 2.922613 1_555
Al4 Mn0 2.650611 1_555
Al4 Si1 2.666328 1_665
Al4 Mn2 2.702881 1_555
Al4 Mn4 2.702958 1_565
Al4 Al7 2.768710 1_555
Al4 Al6 2.917677 1_555
Al5 Mn3 2.650530 1_554
Al5 Si0 2.666358 1_555
Al5 Mn1 2.702933 1_545
Al5 Mn5 2.702953 1_555
Al5 Al6 2.768735 1_545
Al5 Al7 2.917641 1_554
Al5 Al9 2.922627 1_555
Al6 Mn0 2.437384 1_555
Al6 Mn1 2.437392 1_555
Al7 Mn2 2.437288 1_555
Al7 Mn3 2.437295 1_555
Al7 Al9 2.917609 1_556
Al8 Mn4 2.437274 1_555
Al8 Mn2 2.437358 1_555
Al8 Al9 2.917660 1_556
Al9 Mn2 2.650583 1_554
Al9 Si0 2.666376 1_665
Al9 Mn1 2.702887 1_655
Al9 Mn0 2.702914 1_555
Al10 Mn5 2.437391 1_555
Al10 Mn0 2.437426 1_555
Al10 Al5 2.768711 1_555
Al10 Al14 2.768711 1_555
Al10 Al9 2.768717 1_555
Al10 Al17 2.768718 1_555
Al10 Al12 2.917576 1_554
Al10 Al3 2.917577 1_555
Al10 Al15 2.917680 1_554
Al10 Al4 2.917681 1_555
Al11 Mn4 2.437289 1_555
Al11 Mn3 2.437371 1_555
Al11 Al15 2.768712 1_545
Al11 Al4 2.768713 1_545
Al11 Al16 2.768774 1_545
Al11 Al2 2.768774 1_545
Al11 Al5 2.917647 1_556
Al11 Al14 2.917648 1_555
Al12 Mn5 2.650563 1_556
Al12 Si0 2.666340 1_556
Al12 Mn4 2.702904 1_455
Al12 Mn3 2.702914 1_555
Al12 Al8 2.768738 1_455
Al12 Al7 2.768807 1_555
Al12 Al5 2.791166 1_556
Al12 Al3 2.902320 1_555
Al12 Al13 2.917579 1_556
Al12 Al16 2.922610 1_555
Al12 Al15 2.922612 1_555
Al13 Mn5 2.437363 1_555
Al13 Mn1 2.437424 1_555
Al13 Al9 2.768732 1_455
Al13 Al17 2.768732 1_455
Al13 Al3 2.917579 1_555
Al13 Al16 2.917614 1_554
Al13 Al2 2.917615 1_555
Al14 Mn3 2.650529 1_555
Al14 Si1 2.666358 1_555
Al14 Mn1 2.702932 1_545
Al14 Mn5 2.702953 1_555
Al14 Al6 2.768735 1_545
Al14 Al2 2.791149 1_545
Al14 Al3 2.791166 1_555
Al14 Al5 2.902243 1_555
Al14 Al7 2.917642 1_555
Al14 Al17 2.922627 1_555
Al15 Mn0 2.650610 1_556
Al15 Si0 2.666328 1_666
Al15 Mn2 2.702882 1_555
Al15 Mn4 2.702959 1_565
Al15 Al7 2.768710 1_555
Al15 Al9 2.791161 1_556
Al15 Al4 2.902160 1_555
Al15 Al6 2.917676 1_556
Al15 Al16 2.922620 1_555
Al16 Mn1 2.650562 1_556
Al16 Si0 2.666395 1_566
Al16 Mn2 2.702960 1_455
Al16 Mn3 2.703012 1_565
Al16 Al8 2.768758 1_455
Al16 Al5 2.791149 1_566
Al16 Al9 2.791174 1_456
Al16 Al2 2.902316 1_555
Al16 Al6 2.917574 1_556
Al17 Mn2 2.650582 1_555
Al17 Si1 2.666376 1_665
Al17 Mn1 2.702887 1_655
Al17 Mn0 2.702914 1_555
Al17 Al4 2.791161 1_555
Al17 Al2 2.791174 1_655
Al17 Al9 2.902187 1_555
Al17 Al7 2.917611 1_555
Al17 Al8 2.917661 1_555
