# generated using pymatgen
data_Y5Sc5Si6
_symmetry_space_group_name_H-M   'P 1'
_cell_length_a   8.22888908
_cell_length_b   8.22888908
_cell_length_c   6.02633100
_cell_angle_alpha   90.00000000
_cell_angle_beta   90.00000000
_cell_angle_gamma   119.65014092
_symmetry_Int_Tables_number   1
_chemical_formula_structural   Y5Sc5Si6
_chemical_formula_sum   'Y5 Sc5 Si6'
_cell_volume   354.63886433
_cell_formula_units_Z   1
loop_
 _symmetry_equiv_pos_site_id
 _symmetry_equiv_pos_as_xyz
  1  'x, y, z'
loop_
 _atom_site_type_symbol
 _atom_site_label
 _atom_site_symmetry_multiplicity
 _atom_site_fract_x
 _atom_site_fract_y
 _atom_site_fract_z
 _atom_site_occupancy
  Y  Y0  1  0.24568400  0.99964100  0.50000000  1
  Y  Y1  1  0.99964100  0.24568400  0.50000000  1
  Y  Y2  1  0.24932700  0.24932700  0.00000000  1
  Y  Y3  1  0.75394200  0.99801400  0.00000000  1
  Y  Y4  1  0.99801400  0.75394200  0.00000000  1
  Sc  Sc0  1  0.66743300  0.33551900  0.25074500  1
  Sc  Sc1  1  0.33551900  0.66743300  0.25074500  1
  Sc  Sc2  1  0.33551900  0.66743300  0.74925500  1
  Sc  Sc3  1  0.66743300  0.33551900  0.74925500  1
  Sc  Sc4  1  0.74911900  0.74911900  0.50000000  1
  Si  Si0  1  0.40414300  0.40414300  0.50000000  1
  Si  Si1  1  0.60394000  0.99282400  0.50000000  1
  Si  Si2  1  0.99282400  0.60394000  0.50000000  1
  Si  Si3  1  0.60137800  0.60137800  0.00000000  1
  Si  Si4  1  0.39756500  0.99856900  0.00000000  1
  Si  Si5  1  0.99856900  0.39756500  0.00000000  1
loop_
_geom_bond_atom_site_label_1
_geom_bond_atom_site_label_2
_geom_bond_distance
_geom_bond_site_symmetry_2
Sc0 Si2 2.907410 1_555
Sc0 Si0 2.912003 1_555
Sc0 Si3 2.922583 1_555
Sc0 Si5 2.931296 1_555
Sc0 Si4 2.968286 1_545
Sc0 Si1 3.003979 1_545
Sc1 Si1 2.907410 1_555
Sc1 Si0 2.912003 1_555
Sc1 Si3 2.922583 1_555
Sc1 Si4 2.931296 1_555
Sc1 Si5 2.968286 1_455
Sc1 Si2 3.003979 1_455
Sc2 Si1 2.907410 1_555
Sc2 Si0 2.912003 1_555
Sc2 Si3 2.922583 1_556
Sc2 Si4 2.931296 1_556
Sc2 Si5 2.968286 1_456
Sc2 Si2 3.003979 1_455
Sc3 Si2 2.907410 1_555
Sc3 Si0 2.912003 1_555
Sc3 Si3 2.922583 1_556
Sc3 Si5 2.931296 1_556
Sc3 Si4 2.968286 1_546
Sc3 Si1 3.003979 1_545
Sc4 Si2 2.796310 1_555
Sc4 Si1 2.796310 1_555
Sc4 Si0 2.853768 1_555
Sc4 Si3 3.251593 1_555
Sc4 Si3 3.251593 1_556
Si0 Y0 2.912995 1_545
Si0 Y1 2.912995 1_455
Si0 Y2 3.274041 1_556
Si0 Y2 3.274041 1_555
Si1 Y1 2.868575 1_565
Si1 Y0 2.976199 1_555
Si1 Y3 3.248454 1_555
Si1 Y3 3.248454 1_556
Si2 Y0 2.868575 1_655
Si2 Y1 2.976199 1_555
Si2 Y4 3.248454 1_556
Si2 Y4 3.248454 1_555
Si3 Y3 2.859165 1_555
Si3 Y4 2.859165 1_555
Si3 Y2 2.912295 1_555
Si4 Y2 2.869891 1_565
Si4 Y4 2.883377 1_455
Si4 Y3 2.934849 1_555
Si4 Y0 3.263768 1_554
Si4 Y0 3.263768 1_555
Si5 Y2 2.869891 1_655
Si5 Y3 2.883377 1_545
Si5 Y4 2.934849 1_555
Si5 Y1 3.263768 1_555
Si5 Y1 3.263768 1_554
