# generated using pymatgen
data_BaPrEuNbO6
_symmetry_space_group_name_H-M   'P 1'
_cell_length_a   8.67372575
_cell_length_b   8.65353234
_cell_length_c   8.58405328
_cell_angle_alpha   90.00000000
_cell_angle_beta   90.00000000
_cell_angle_gamma   90.00000000
_symmetry_Int_Tables_number   1
_chemical_formula_structural   BaPrEuNbO6
_chemical_formula_sum   'Ba4 Pr4 Eu4 Nb4 O24'
_cell_volume   644.30501531
_cell_formula_units_Z   4
loop_
 _symmetry_equiv_pos_site_id
 _symmetry_equiv_pos_as_xyz
  1  'x, y, z'
loop_
 _atom_site_type_symbol
 _atom_site_label
 _atom_site_symmetry_multiplicity
 _atom_site_fract_x
 _atom_site_fract_y
 _atom_site_fract_z
 _atom_site_occupancy
  Ba  Ba0  1  0.00000000  -0.00000000  -0.00000000  1
  Ba  Ba1  1  0.50000000  0.50000000  0.50000000  1
  Ba  Ba2  1  0.50000000  -0.00000000  0.50000000  1
  Ba  Ba3  1  0.00000000  0.50000000  0.00000000  1
  Pr  Pr0  1  0.25000000  0.25000000  0.25000000  1
  Pr  Pr1  1  0.75000000  0.75000000  0.25000000  1
  Pr  Pr2  1  0.75000000  0.25000000  0.75000000  1
  Pr  Pr3  1  0.25000000  0.75000000  0.75000000  1
  Eu  Eu0  1  0.00000000  0.50000000  0.50000000  1
  Eu  Eu1  1  0.50000000  0.50000000  0.00000000  1
  Eu  Eu2  1  0.50000000  -0.00000000  -0.00000000  1
  Eu  Eu3  1  0.00000000  0.00000000  0.50000000  1
  Nb  Nb0  1  0.75000000  0.75000000  0.75000000  1
  Nb  Nb1  1  0.25000000  0.25000000  0.75000000  1
  Nb  Nb2  1  0.25000000  0.75000000  0.25000000  1
  Nb  Nb3  1  0.75000000  0.25000000  0.25000000  1
  O  O0  1  0.98039146  0.20538837  0.28794253  1
  O  O1  1  0.01960854  0.79461163  0.28794253  1
  O  O2  1  0.01960854  0.20538837  0.71205747  1
  O  O3  1  0.98039146  0.79461163  0.71205747  1
  O  O4  1  0.28865660  0.98018253  0.20580697  1
  O  O5  1  0.28865660  0.01981747  0.79419303  1
  O  O6  1  0.71134340  0.01981747  0.20580697  1
  O  O7  1  0.71134340  0.98018253  0.79419303  1
  O  O8  1  0.21197747  0.28247038  0.97986972  1
  O  O9  1  0.78802253  0.28247038  0.02013028  1
  O  O10  1  0.21197747  0.71752962  0.02013028  1
  O  O11  1  0.78802253  0.71752962  0.97986972  1
  O  O12  1  0.51960854  0.29461163  0.21205747  1
  O  O13  1  0.48039146  0.70538837  0.21205747  1
  O  O14  1  0.48039146  0.29461163  0.78794253  1
  O  O15  1  0.51960854  0.70538837  0.78794253  1
  O  O16  1  0.21134340  0.51981747  0.29419303  1
  O  O17  1  0.21134340  0.48018253  0.70580697  1
  O  O18  1  0.78865660  0.48018253  0.29419303  1
  O  O19  1  0.78865660  0.51981747  0.70580697  1
  O  O20  1  0.28802253  0.21752962  0.52013028  1
  O  O21  1  0.71197747  0.21752962  0.47986972  1
  O  O22  1  0.28802253  0.78247038  0.47986972  1
  O  O23  1  0.71197747  0.78247038  0.52013028  1
loop_
_geom_bond_atom_site_label_1
_geom_bond_atom_site_label_2
_geom_bond_distance
_geom_bond_site_symmetry_2
Ba0 O3 3.049134 1_444
Ba0 O2 3.049134 1_554
Ba0 O1 3.049134 1_545
Ba0 O0 3.049134 1_455
Ba0 O11 3.063554 1_444
Ba0 O10 3.063554 1_545
Ba0 O9 3.063554 1_455
Ba0 O8 3.063554 1_554
Ba0 O4 3.069062 1_545
Ba0 O5 3.069062 1_554
Ba0 O7 3.069062 1_444
Ba0 O6 3.069062 1_455
Ba1 O13 3.049134 1_555
Ba1 O14 3.049134 1_555
Ba1 O15 3.049134 1_555
Ba1 O12 3.049134 1_555
Ba1 O21 3.063554 1_555
Ba1 O22 3.063554 1_555
Ba1 O20 3.063554 1_555
Ba1 O23 3.063554 1_555
Ba1 O18 3.069062 1_555
Ba1 O19 3.069062 1_555
Ba1 O17 3.069062 1_555
Ba1 O16 3.069062 1_555
Ba2 O22 2.637018 1_545
Ba2 O23 2.637018 1_545
Ba2 O21 2.637018 1_555
Ba2 O20 2.637018 1_555
Ba2 O6 3.125265 1_555
Ba2 O5 3.125265 1_555
Ba2 O7 3.125265 1_545
Ba2 O4 3.125265 1_545
Ba3 O10 2.637018 1_555
Ba3 O11 2.637018 1_454
Ba3 O8 2.637018 1_554
Ba3 O9 2.637018 1_455
Ba3 O17 3.125265 1_554
Ba3 O16 3.125265 1_555
Ba3 O19 3.125265 1_454
Ba3 O18 3.125265 1_455
Eu0 O16 2.551641 1_555
Eu0 O17 2.551641 1_555
Eu0 O18 2.551641 1_455
Eu0 O19 2.551641 1_455
Eu0 O3 3.137207 1_455
Eu0 O2 3.137207 1_555
Eu0 O1 3.137207 1_555
Eu0 O0 3.137207 1_455
Eu1 O14 2.549781 1_554
Eu1 O15 2.549781 1_554
Eu1 O12 2.549781 1_555
Eu1 O13 2.549781 1_555
Eu1 O9 3.132800 1_555
Eu1 O10 3.132800 1_555
Eu1 O11 3.132800 1_554
Eu1 O8 3.132800 1_554
Eu2 O6 2.551641 1_555
Eu2 O4 2.551641 1_545
Eu2 O5 2.551641 1_554
Eu2 O7 2.551641 1_544
Eu2 O15 3.137207 1_544
Eu2 O12 3.137207 1_555
Eu2 O14 3.137207 1_554
Eu2 O13 3.137207 1_545
Eu3 O3 2.549781 1_445
Eu3 O1 2.549781 1_545
Eu3 O0 2.549781 1_455
Eu3 O2 2.549781 1_555
Eu3 O23 3.132800 1_445
Eu3 O22 3.132800 1_545
Eu3 O21 3.132800 1_455
Eu3 O20 3.132800 1_555
Nb0 O23 2.020221 1_555
Nb0 O11 2.020221 1_555
Nb0 O19 2.055229 1_555
Nb0 O7 2.055229 1_555
Nb0 O3 2.061195 1_555
Nb0 O15 2.061195 1_555
Nb1 O20 2.020221 1_555
Nb1 O8 2.020221 1_555
Nb1 O17 2.055229 1_555
Nb1 O5 2.055229 1_555
Nb1 O2 2.061195 1_555
Nb1 O14 2.061195 1_555
Nb2 O22 2.020221 1_555
Nb2 O10 2.020221 1_555
Nb2 O16 2.055229 1_555
Nb2 O4 2.055229 1_555
Nb2 O13 2.061195 1_555
Nb2 O1 2.061195 1_555
Nb3 O21 2.020221 1_555
Nb3 O9 2.020221 1_555
Nb3 O18 2.055229 1_555
Nb3 O6 2.055229 1_555
Nb3 O12 2.061195 1_555
Nb3 O0 2.061195 1_555
O0 Pr0 2.392435 1_655
O1 Pr1 2.392435 1_455
O2 Pr2 2.392435 1_455
O3 Pr3 2.392435 1_655
O4 Pr0 2.389136 1_565
O5 Pr3 2.389136 1_545
O6 Pr1 2.389136 1_545
O7 Pr2 2.389136 1_565
O8 Pr0 2.358943 1_556
O9 Pr2 2.358943 1_554
O10 Pr3 2.358943 1_554
O11 Pr1 2.358943 1_556
O12 Pr0 2.392435 1_555
O13 Pr1 2.392435 1_555
O14 Pr2 2.392435 1_555
O15 Pr3 2.392435 1_555
O16 Pr0 2.389136 1_555
O17 Pr3 2.389136 1_555
O18 Pr1 2.389136 1_555
O19 Pr2 2.389136 1_555
O20 Pr0 2.358943 1_555
O21 Pr2 2.358943 1_555
O22 Pr3 2.358943 1_555
O23 Pr1 2.358943 1_555
