# generated using pymatgen
data_YCdAu
_symmetry_space_group_name_H-M   'P 1'
_cell_length_a   7.67291965
_cell_length_b   7.67291965
_cell_length_c   3.99523940
_cell_angle_alpha   90.00000000
_cell_angle_beta   90.00000000
_cell_angle_gamma   119.99999526
_symmetry_Int_Tables_number   1
_chemical_formula_structural   YCdAu
_chemical_formula_sum   'Y3 Cd3 Au3'
_cell_volume   203.70175050
_cell_formula_units_Z   3
loop_
 _symmetry_equiv_pos_site_id
 _symmetry_equiv_pos_as_xyz
  1  'x, y, z'
loop_
 _atom_site_type_symbol
 _atom_site_label
 _atom_site_symmetry_multiplicity
 _atom_site_fract_x
 _atom_site_fract_y
 _atom_site_fract_z
 _atom_site_occupancy
  Y  Y0  1  0.59368484  -0.00000000  0.00000000  1
  Y  Y1  1  -0.00000000  0.59368484  -0.00000000  1
  Y  Y2  1  0.40631516  0.40631516  0.00000000  1
  Cd  Cd0  1  0.25727725  -0.00000000  0.50000000  1
  Cd  Cd1  1  -0.00000000  0.25727725  0.50000000  1
  Cd  Cd2  1  0.74272275  0.74272275  0.50000000  1
  Au  Au0  1  0.33333300  0.66666700  0.50000000  1
  Au  Au1  1  0.66666700  0.33333300  0.50000000  1
  Au  Au2  1  0.00000000  0.00000000  0.00000000  1
loop_
_geom_bond_atom_site_label_1
_geom_bond_atom_site_label_2
_geom_bond_distance
_geom_bond_site_symmetry_2
Cd0 Y0 3.263928 1_556
Cd0 Y0 3.263928 1_555
Cd0 Y2 3.384170 1_555
Cd0 Y2 3.384170 1_556
Cd0 Y1 3.384170 1_545
Cd0 Y1 3.384170 1_546
Cd1 Y1 3.263928 1_556
Cd1 Y1 3.263928 1_555
Cd1 Y2 3.384170 1_555
Cd1 Y2 3.384170 1_556
Cd1 Y0 3.384170 1_456
Cd1 Y0 3.384170 1_455
Cd2 Y2 3.263928 1_556
Cd2 Y2 3.263928 1_555
Cd2 Y1 3.384170 1_656
Cd2 Y1 3.384170 1_655
Cd2 Y0 3.384170 1_565
Cd2 Y0 3.384170 1_566
Au0 Cd0 2.893894 1_565
Au0 Cd1 2.893899 1_555
Au0 Cd2 2.893901 1_555
Au0 Y1 3.068116 1_556
Au0 Y1 3.068116 1_555
Au0 Y0 3.068118 1_565
Au0 Y0 3.068118 1_566
Au0 Y2 3.068122 1_556
Au0 Y2 3.068122 1_555
Au1 Cd1 2.893894 1_655
Au1 Cd0 2.893899 1_555
Au1 Cd2 2.893901 1_555
Au1 Y0 3.068116 1_556
Au1 Y0 3.068116 1_555
Au1 Y1 3.068118 1_656
Au1 Y1 3.068118 1_655
Au1 Y2 3.068122 1_556
Au1 Y2 3.068122 1_555
Au2 Cd1 2.808456 1_554
Au2 Cd1 2.808456 1_555
Au2 Cd0 2.808456 1_555
Au2 Cd0 2.808456 1_554
Au2 Cd2 2.808457 1_445
Au2 Cd2 2.808457 1_444
Au2 Y0 3.117624 1_455
Au2 Y1 3.117624 1_545
Au2 Y2 3.117624 1_555
