# generated using pymatgen
data_MnSi2Pd3
_symmetry_space_group_name_H-M   'P 1'
_cell_length_a   3.50508400
_cell_length_b   6.53176300
_cell_length_c   11.30639819
_cell_angle_alpha   89.65397013
_cell_angle_beta   90.00000000
_cell_angle_gamma   90.00000000
_symmetry_Int_Tables_number   1
_chemical_formula_structural   MnSi2Pd3
_chemical_formula_sum   'Mn3 Si6 Pd9'
_cell_volume   258.84823320
_cell_formula_units_Z   3
loop_
 _symmetry_equiv_pos_site_id
 _symmetry_equiv_pos_as_xyz
  1  'x, y, z'
loop_
 _atom_site_type_symbol
 _atom_site_label
 _atom_site_symmetry_multiplicity
 _atom_site_fract_x
 _atom_site_fract_y
 _atom_site_fract_z
 _atom_site_occupancy
  Mn  Mn0  1  0.50000000  0.89876800  0.50806000  1
  Mn  Mn1  1  0.50000000  0.40335300  0.99464500  1
  Mn  Mn2  1  0.50000000  0.79445000  0.79928800  1
  Si  Si0  1  0.00000000  0.00151100  0.67194600  1
  Si  Si1  1  0.00000000  0.50609300  0.17144400  1
  Si  Si2  1  0.00000000  0.49701900  0.83033600  1
  Si  Si3  1  0.00000000  0.00315400  0.32704100  1
  Si  Si4  1  0.50000000  0.99508000  0.00020800  1
  Si  Si5  1  0.50000000  0.48983200  0.50112600  1
  Pd  Pd0  1  0.50000000  0.30682700  0.30152800  1
  Pd  Pd1  1  0.50000000  0.30332800  0.69903600  1
  Pd  Pd2  1  0.50000000  0.80289000  0.19684000  1
  Pd  Pd3  1  0.00000000  0.72980600  0.99781800  1
  Pd  Pd4  1  0.00000000  0.22171600  0.49792200  1
  Pd  Pd5  1  0.00000000  0.63711500  0.62838300  1
  Pd  Pd6  1  0.00000000  0.14228900  0.12779800  1
  Pd  Pd7  1  0.00000000  0.12730800  0.87252200  1
  Pd  Pd8  1  0.00000000  0.63966000  0.37405800  1
loop_
_geom_bond_atom_site_label_1
_geom_bond_atom_site_label_2
_geom_bond_distance
_geom_bond_site_symmetry_2
Mn0 Si0 2.640123 1_665
Mn0 Si0 2.640123 1_565
Mn0 Si5 2.672697 1_555
Mn0 Pd4 2.744317 1_565
Mn0 Pd4 2.744317 1_665
Mn0 Si3 2.776383 1_665
Mn0 Si3 2.776383 1_565
Mn0 Pd5 2.795520 1_555
Mn0 Pd5 2.795520 1_655
Mn0 Pd8 2.874399 1_555
Mn0 Pd8 2.874399 1_655
Mn1 Si2 2.623583 1_555
Mn1 Si2 2.623583 1_655
Mn1 Si4 2.667104 1_546
Mn1 Si1 2.744774 1_656
Mn1 Si1 2.744774 1_556
Mn1 Pd3 2.760503 1_655
Mn1 Pd3 2.760503 1_555
Mn1 Pd6 2.866113 1_556
Mn1 Pd6 2.866113 1_656
Mn1 Pd7 2.873853 1_655
Mn1 Pd7 2.873853 1_555
Mn2 Si4 2.629414 1_556
Mn2 Si0 2.636291 1_565
Mn2 Si0 2.636291 1_665
Mn2 Si2 2.638308 1_655
Mn2 Si2 2.638308 1_555
Mn2 Pd5 2.808089 1_555
Mn2 Pd5 2.808089 1_655
Mn2 Pd3 2.876932 1_555
Mn2 Pd3 2.876932 1_655
Mn2 Pd7 2.916450 1_565
Mn2 Pd7 2.916450 1_665
Pd0 Si5 2.560134 1_555
Pd0 Si1 2.627838 1_655
Pd0 Si1 2.627838 1_555
Pd0 Si3 2.661213 1_655
Pd0 Si3 2.661213 1_555
Pd1 Si5 2.541291 1_555
Pd1 Si2 2.626501 1_655
Pd1 Si2 2.626501 1_555
Pd1 Si0 2.656862 1_555
Pd1 Si0 2.656862 1_655
Pd2 Si4 2.546524 1_555
Pd2 Si1 2.630356 1_655
Pd2 Si1 2.630356 1_555
Pd2 Si3 2.640610 1_665
Pd2 Si3 2.640610 1_565
Pd3 Si2 2.435676 1_555
Pd3 Si1 2.440139 1_556
Pd3 Si4 2.464746 1_556
Pd3 Si4 2.464746 1_456
Pd4 Si3 2.409181 1_555
Pd4 Si0 2.430224 1_555
Pd4 Si5 2.477989 1_455
Pd4 Si5 2.477989 1_555
Pd5 Si0 2.433488 1_565
Pd5 Si2 2.454763 1_555
Pd5 Si5 2.466536 1_455
Pd5 Si5 2.466536 1_555
Pd6 Si3 2.424033 1_555
Pd6 Si1 2.429897 1_555
Pd6 Si4 2.468553 1_545
Pd6 Si4 2.468553 1_445
Pd7 Si0 2.416721 1_555
Pd7 Si4 2.426205 1_446
Pd7 Si4 2.426205 1_546
Pd7 Si2 2.458691 1_555
Pd8 Si3 2.429906 1_565
Pd8 Si1 2.456256 1_555
Pd8 Si5 2.464997 1_455
Pd8 Si5 2.464997 1_555
