# generated using pymatgen
data_Pr2MgSe4
_symmetry_space_group_name_H-M   'P 1'
_cell_length_a   7.49577800
_cell_length_b   8.63957400
_cell_length_c   12.39668000
_cell_angle_alpha   90.00000000
_cell_angle_beta   90.00000000
_cell_angle_gamma   90.00000000
_symmetry_Int_Tables_number   1
_chemical_formula_structural   Pr2MgSe4
_chemical_formula_sum   'Pr8 Mg4 Se16'
_cell_volume   802.81307182
_cell_formula_units_Z   4
loop_
 _symmetry_equiv_pos_site_id
 _symmetry_equiv_pos_as_xyz
  1  'x, y, z'
loop_
 _atom_site_type_symbol
 _atom_site_label
 _atom_site_symmetry_multiplicity
 _atom_site_fract_x
 _atom_site_fract_y
 _atom_site_fract_z
 _atom_site_occupancy
  Pr  Pr0  1  0.75000000  0.03786600  0.32045600  1
  Pr  Pr1  1  0.25000000  0.96213400  0.67954400  1
  Pr  Pr2  1  0.25000000  0.46213400  0.82045600  1
  Pr  Pr3  1  0.75000000  0.53786600  0.17954400  1
  Pr  Pr4  1  0.25000000  0.08489200  0.03718100  1
  Pr  Pr5  1  0.75000000  0.91510800  0.96281900  1
  Pr  Pr6  1  0.75000000  0.41510800  0.53718100  1
  Pr  Pr7  1  0.25000000  0.58489200  0.46281900  1
  Mg  Mg0  1  0.25000000  0.19396700  0.41774000  1
  Mg  Mg1  1  0.75000000  0.80603300  0.58226000  1
  Mg  Mg2  1  0.75000000  0.30603300  0.91774000  1
  Mg  Mg3  1  0.25000000  0.69396700  0.08226000  1
  Se  Se0  1  0.49160400  0.14248300  0.84628000  1
  Se  Se1  1  0.50839600  0.85751700  0.15372000  1
  Se  Se2  1  0.50839600  0.35751700  0.34628000  1
  Se  Se3  1  0.49160400  0.64248300  0.65372000  1
  Se  Se4  1  0.00839600  0.64248300  0.65372000  1
  Se  Se5  1  0.99160400  0.35751700  0.34628000  1
  Se  Se6  1  0.99160400  0.85751700  0.15372000  1
  Se  Se7  1  0.00839600  0.14248300  0.84628000  1
  Se  Se8  1  0.25000000  0.91159900  0.43716700  1
  Se  Se9  1  0.75000000  0.08840100  0.56283300  1
  Se  Se10  1  0.75000000  0.58840100  0.93716700  1
  Se  Se11  1  0.25000000  0.41159900  0.06283300  1
  Se  Se12  1  0.75000000  0.20782200  0.11139600  1
  Se  Se13  1  0.25000000  0.79217800  0.88860400  1
  Se  Se14  1  0.25000000  0.29217800  0.61139600  1
  Se  Se15  1  0.75000000  0.70782200  0.38860400  1
loop_
_geom_bond_atom_site_label_1
_geom_bond_atom_site_label_2
_geom_bond_distance
_geom_bond_site_symmetry_2
Pr0 Se15 2.973955 1_545
Pr0 Se12 2.978707 1_555
Pr0 Se9 3.036225 1_555
Pr0 Se6 3.159103 1_545
Pr0 Se1 3.159103 1_545
Pr0 Se2 3.317973 1_555
Pr0 Se5 3.317973 1_555
Pr1 Se14 2.973955 1_565
Pr1 Se13 2.978707 1_555
Pr1 Se8 3.036225 1_555
Pr1 Se0 3.159103 1_565
Pr1 Se7 3.159103 1_565
Pr1 Se3 3.317973 1_555
Pr1 Se4 3.317973 1_555
Pr2 Se13 2.973955 1_555
Pr2 Se14 2.978707 1_555
Pr2 Se11 3.036225 1_556
Pr2 Se3 3.159103 1_555
Pr2 Se4 3.159103 1_555
Pr2 Se0 3.317973 1_555
Pr2 Se7 3.317973 1_555
Pr3 Se12 2.973955 1_555
Pr3 Se15 2.978707 1_555
Pr3 Se10 3.036225 1_554
Pr3 Se5 3.159103 1_555
Pr3 Se2 3.159103 1_555
Pr3 Se1 3.317973 1_555
Pr3 Se6 3.317973 1_555
Pr4 Se11 2.840466 1_555
Pr4 Se7 3.021230 1_554
Pr4 Se0 3.021230 1_554
Pr4 Se1 3.114098 1_545
Pr4 Se6 3.114098 1_445
Pr4 Se13 3.128564 1_544
Pr5 Se10 2.840466 1_555
Pr5 Se1 3.021230 1_556
Pr5 Se6 3.021230 1_556
Pr5 Se0 3.114098 1_565
Pr5 Se7 3.114098 1_665
Pr5 Se12 3.128564 1_566
Pr6 Se9 2.840466 1_555
Pr6 Se2 3.021230 1_555
Pr6 Se5 3.021230 1_555
Pr6 Se3 3.114098 1_555
Pr6 Se4 3.114098 1_655
Pr6 Se15 3.128564 1_555
Pr7 Se8 2.840466 1_555
Pr7 Se3 3.021230 1_555
Pr7 Se4 3.021230 1_555
Pr7 Se2 3.114098 1_555
Pr7 Se5 3.114098 1_455
Pr7 Se14 3.128564 1_555
Mg0 Se8 2.451398 1_545
Mg0 Se14 2.546227 1_555
Mg0 Se5 2.555941 1_455
Mg0 Se2 2.555941 1_555
Mg1 Se9 2.451398 1_565
Mg1 Se15 2.546227 1_555
Mg1 Se3 2.555941 1_555
Mg1 Se4 2.555941 1_655
Mg2 Se10 2.451398 1_555
Mg2 Se12 2.546227 1_556
Mg2 Se0 2.555941 1_555
Mg2 Se7 2.555941 1_655
Mg3 Se11 2.451398 1_555
Mg3 Se13 2.546227 1_554
Mg3 Se1 2.555941 1_555
Mg3 Se6 2.555941 1_455
