# generated using pymatgen
data_KPt2Se3
_symmetry_space_group_name_H-M   'P 1'
_cell_length_a   7.78727467
_cell_length_b   7.78727469
_cell_length_c   7.78727391
_cell_angle_alpha   56.97064746
_cell_angle_beta   56.97064982
_cell_angle_gamma   56.97064863
_symmetry_Int_Tables_number   1
_chemical_formula_structural   KPt2Se3
_chemical_formula_sum   'K2 Pt4 Se6'
_cell_volume   310.59163349
_cell_formula_units_Z   2
loop_
 _symmetry_equiv_pos_site_id
 _symmetry_equiv_pos_as_xyz
  1  'x, y, z'
loop_
 _atom_site_type_symbol
 _atom_site_label
 _atom_site_symmetry_multiplicity
 _atom_site_fract_x
 _atom_site_fract_y
 _atom_site_fract_z
 _atom_site_occupancy
  K  K0  1  0.20044289  0.20044289  0.20044289  1
  K  K1  1  0.79955711  0.79955711  0.79955711  1
  Pt  Pt0  1  -0.00000000  -0.00000000  0.00000000  1
  Pt  Pt1  1  0.50000000  -0.00000000  0.50000000  1
  Pt  Pt2  1  -0.00000000  0.50000000  0.50000000  1
  Pt  Pt3  1  0.50000000  0.50000000  0.00000000  1
  Se  Se0  1  0.76546879  0.76546879  0.27716271  1
  Se  Se1  1  0.23453121  0.72283729  0.23453121  1
  Se  Se2  1  0.76546879  0.27716271  0.76546879  1
  Se  Se3  1  0.27716271  0.76546879  0.76546879  1
  Se  Se4  1  0.23453121  0.23453121  0.72283729  1
  Se  Se5  1  0.72283729  0.23453121  0.23453121  1
loop_
_geom_bond_atom_site_label_1
_geom_bond_atom_site_label_2
_geom_bond_distance
_geom_bond_site_symmetry_2
K0 Pt1 3.363494 1_555
K0 Pt2 3.363495 1_555
K0 Pt3 3.363495 1_555
K0 Se4 3.449343 1_554
K0 Se1 3.449344 1_545
K0 Se5 3.449344 1_455
K1 Pt1 3.363494 1_565
K1 Pt2 3.363495 1_655
K1 Pt3 3.363495 1_556
K1 Se0 3.449343 1_556
K1 Se2 3.449344 1_565
K1 Se3 3.449344 1_655
Pt0 Se1 2.524167 1_545
Pt0 Se2 2.524167 1_454
Pt0 Se3 2.524168 1_544
Pt0 Se5 2.524168 1_455
Pt0 Se0 2.524168 1_445
Pt0 Se4 2.524168 1_554
Pt1 Se0 2.459433 1_545
Pt1 Se4 2.459433 1_555
Pt1 Se3 2.459433 1_545
Pt1 Se5 2.459433 1_555
Pt2 Se4 2.459433 1_555
Pt2 Se0 2.459433 1_455
Pt2 Se1 2.459433 1_555
Pt2 Se2 2.459433 1_455
Pt3 Se5 2.459433 1_555
Pt3 Se3 2.459433 1_554
Pt3 Se1 2.459433 1_555
Pt3 Se2 2.459433 1_554
