# generated using pymatgen
data_K10Gd22F79
_symmetry_space_group_name_H-M   'P 1'
_cell_length_a   8.24618213
_cell_length_b   11.92364070
_cell_length_c   18.00893435
_cell_angle_alpha   109.33239122
_cell_angle_beta   103.23508379
_cell_angle_gamma   90.00000000
_symmetry_Int_Tables_number   1
_chemical_formula_structural   K10Gd22F79
_chemical_formula_sum   'K10 Gd22 F79'
_cell_volume   1620.94912279
_cell_formula_units_Z   1
loop_
 _symmetry_equiv_pos_site_id
 _symmetry_equiv_pos_as_xyz
  1  'x, y, z'
loop_
 _atom_site_type_symbol
 _atom_site_label
 _atom_site_symmetry_multiplicity
 _atom_site_fract_x
 _atom_site_fract_y
 _atom_site_fract_z
 _atom_site_occupancy
  K  K0  1  0.12537191  0.38615404  0.25074381  1
  K  K1  1  0.87462809  0.61384596  0.74925619  1
  K  K2  1  0.12537191  0.86458977  0.25074381  1
  K  K3  1  0.87462809  0.13541023  0.74925619  1
  K  K4  1  0.25355621  0.49407170  0.50711241  1
  K  K5  1  0.74644379  0.50592830  0.49288759  1
  K  K6  1  0.25355621  0.01304071  0.50711241  1
  K  K7  1  0.74644379  0.98695929  0.49288759  1
  K  K8  1  0.50000000  0.75764460  1.00000000  1
  K  K9  1  0.50000000  0.24235540  0.00000000  1
  Gd  Gd0  1  0.37016928  0.62755189  0.74033856  1
  Gd  Gd1  1  0.62983072  0.37244811  0.25966144  1
  Gd  Gd2  1  0.37016928  0.11278667  0.74033856  1
  Gd  Gd3  1  0.62983072  0.88721333  0.25966144  1
  Gd  Gd4  1  0.32157369  0.06641981  0.13283963  1
  Gd  Gd5  1  0.67842631  0.93358019  0.86716037  1
  Gd  Gd6  1  0.81126594  0.06641981  0.13283963  1
  Gd  Gd7  1  0.18873406  0.93358019  0.86716037  1
  Gd  Gd8  1  0.69737123  0.43863660  0.87727320  1
  Gd  Gd9  1  0.30262877  0.56136340  0.12272680  1
  Gd  Gd10  1  0.17990197  0.43863660  0.87727320  1
  Gd  Gd11  1  0.82009803  0.56136340  0.12272680  1
  Gd  Gd12  1  0.42844408  0.18746044  0.37492088  1
  Gd  Gd13  1  0.57155592  0.81253956  0.62507912  1
  Gd  Gd14  1  0.94647680  0.18746044  0.37492088  1
  Gd  Gd15  1  0.05352320  0.81253956  0.62507912  1
  Gd  Gd16  1  0.56889415  0.30609727  0.61219453  1
  Gd  Gd17  1  0.43110585  0.69390273  0.38780547  1
  Gd  Gd18  1  0.04330038  0.30609727  0.61219453  1
  Gd  Gd19  1  0.95669962  0.69390273  0.38780547  1
  Gd  Gd20  1  0.00000000  0.25338453  0.00000000  1
  Gd  Gd21  1  1.00000000  0.74661547  1.00000000  1
  F  F0  1  0.21491695  0.21310987  0.08712073  1
  F  F1  1  0.78508305  0.78689013  0.91287927  1
  F  F2  1  0.87220378  0.87401086  0.08712073  1
  F  F3  1  0.78508305  0.12598914  0.91287927  1
  F  F4  1  0.12779622  0.12598914  0.91287927  1
  F  F5  1  0.21491695  0.87401086  0.08712073  1
  F  F6  1  0.12779622  0.78689013  0.91287927  1
  F  F7  1  0.87220378  0.21310987  0.08712073  1
  F  F8  1  0.27918685  0.27918685  0.55837371  1
  F  F9  1  0.72081315  0.72081315  0.44162629  1
  F  F10  1  0.45763335  0.45763335  0.91526671  1
  F  F11  1  0.54236665  0.54236665  0.08473329  1
  F  F12  1  0.05634196  0.44469602  0.11268392  1
  F  F13  1  0.94365804  0.55530398  0.88731608  1
  F  F14  1  0.05634196  0.66798791  0.11268392  1
  F  F15  1  0.94365804  0.33201209  0.88731608  1
  F  F16  1  0.18577198  0.29109552  0.37154397  1
  F  F17  1  0.81422802  0.70890448  0.62845603  1
  F  F18  1  0.18577198  0.08044844  0.37154397  1
  F  F19  1  0.81422802  0.91955156  0.62845603  1
  F  F20  1  0.22634106  0.38689822  1.00000000  1
  F  F21  1  0.77365894  0.61310178  0.00000000  1
  F  F22  1  0.77365894  0.38689822  1.00000000  1
  F  F23  1  0.22634106  0.61310178  0.00000000  1
  F  F24  1  0.70819112  0.37308188  0.74616375  1
  F  F25  1  0.29180888  0.62691812  0.25383625  1
  F  F26  1  0.03797263  0.37308188  0.74616375  1
  F  F27  1  0.96202737  0.62691812  0.25383625  1
  F  F28  1  0.42785655  0.81686685  0.85571310  1
  F  F29  1  0.57214345  0.18313315  0.14428690  1
  F  F30  1  0.42785655  0.03884625  0.85571310  1
  F  F31  1  0.57214345  0.96115375  0.14428690  1
  F  F32  1  -0.00000000  -0.00000000  0.00000000  1
  F  F33  1  0.35174420  0.35174420  0.70348840  1
  F  F34  1  0.64825580  0.64825580  0.29651160  1
  F  F35  1  0.31803457  0.71200255  0.63606914  1
  F  F36  1  0.68196543  0.28799745  0.36393086  1
  F  F37  1  0.31803457  0.92406659  0.63606914  1
  F  F38  1  0.68196543  0.07593341  0.36393086  1
  F  F39  1  0.50758671  0.35072118  0.48776715  1
  F  F40  1  0.49241329  0.64927882  0.51223285  1
  F  F41  1  0.98018044  0.13704597  0.48776715  1
  F  F42  1  0.49241329  0.86295403  0.51223285  1
  F  F43  1  0.01981956  0.86295403  0.51223285  1
  F  F44  1  0.50758671  0.13704597  0.48776715  1
  F  F45  1  0.01981956  0.64927882  0.51223285  1
  F  F46  1  0.98018044  0.35072118  0.48776715  1
  F  F47  1  0.19389607  0.58761439  0.38779215  1
  F  F48  1  0.80610393  0.41238561  0.61220785  1
  F  F49  1  0.19389607  0.80017776  0.38779215  1
  F  F50  1  0.80610393  0.19982224  0.61220785  1
  F  F51  1  0.41738601  0.42216111  0.17419243  1
  F  F52  1  0.58261399  0.57783889  0.82580757  1
  F  F53  1  0.75680642  0.75203132  0.17419243  1
  F  F54  1  0.58261399  0.24796868  0.82580757  1
  F  F55  1  0.24319358  0.24796868  0.82580757  1
  F  F56  1  0.41738601  0.75203132  0.17419243  1
  F  F57  1  0.24319358  0.57783889  0.82580757  1
  F  F58  1  0.75680642  0.42216111  0.17419243  1
  F  F59  1  0.09080176  0.09080176  0.18160352  1
  F  F60  1  0.90919824  0.90919824  0.81839648  1
  F  F61  1  0.33845484  -0.00000000  0.00000000  1
  F  F62  1  0.66154516  -0.00000000  0.00000000  1
  F  F63  1  0.39549558  0.24046197  0.25580310  1
  F  F64  1  0.60450442  0.75953803  0.74419690  1
  F  F65  1  0.86030753  0.01534114  0.25580310  1
  F  F66  1  0.60450442  0.98465886  0.74419690  1
  F  F67  1  0.13969247  0.98465886  0.74419690  1
  F  F68  1  0.39549558  0.01534114  0.25580310  1
  F  F69  1  0.13969247  0.75953803  0.74419690  1
  F  F70  1  0.86030753  0.24046197  0.25580310  1
  F  F71  1  0.50166908  0.50509683  0.64988874  1
  F  F72  1  0.49833092  0.49490317  0.35011126  1
  F  F73  1  0.14821966  0.14479192  0.64988874  1
  F  F74  1  0.49833092  0.85520808  0.35011126  1
  F  F75  1  0.85178034  0.85520808  0.35011126  1
  F  F76  1  0.50166908  0.14479192  0.64988874  1
  F  F77  1  0.85178034  0.49490317  0.35011126  1
  F  F78  1  0.14821966  0.50509683  0.64988874  1
loop_
_geom_bond_atom_site_label_1
_geom_bond_atom_site_label_2
_geom_bond_distance
_geom_bond_site_symmetry_2
F0 Gd20 2.249159 1_555
F0 Gd4 2.265530 1_555
F1 Gd21 2.249159 1_555
F1 Gd5 2.265530 1_555
F2 Gd21 2.249159 1_554
F2 Gd6 2.265530 1_565
F3 Gd20 2.249159 1_656
F3 Gd5 2.265530 1_545
F4 Gd20 2.249159 1_556
F4 Gd7 2.265530 1_545
F5 Gd21 2.249159 1_454
F5 Gd4 2.265530 1_565
F6 Gd21 2.249159 1_455
F6 Gd7 2.265530 1_555
F7 Gd20 2.249159 1_655
F7 Gd6 2.265530 1_555
F8 Gd18 2.341677 1_555
F8 Gd16 2.341677 1_555
F8 K6 2.989741 1_555
F8 K4 2.989741 1_555
F9 Gd19 2.341677 1_555
F9 Gd17 2.341677 1_555
F9 K7 2.989741 1_555
F9 K5 2.989741 1_555
F10 Gd10 2.223611 1_555
F10 Gd8 2.223611 1_555
F11 Gd11 2.223611 1_555
F11 Gd9 2.223611 1_555
F12 Gd9 2.399533 1_555
F12 Gd11 2.399533 1_455
F12 Gd20 2.457822 1_555
F12 K0 2.737527 1_555
F13 Gd8 2.399533 1_555
F13 Gd10 2.399533 1_655
F13 Gd21 2.457822 1_555
F13 K1 2.737527 1_555
F14 Gd9 2.399533 1_555
F14 Gd11 2.399533 1_455
F14 Gd21 2.457822 1_454
F14 K2 2.737527 1_555
F15 Gd8 2.399533 1_555
F15 Gd10 2.399533 1_655
F15 Gd20 2.457822 1_656
F15 K3 2.737527 1_555
F16 Gd14 2.351420 1_455
F16 Gd12 2.351420 1_555
F16 K0 2.720649 1_555
F16 K4 2.755621 1_555
F17 Gd15 2.351420 1_655
F17 Gd13 2.351420 1_555
F17 K1 2.720649 1_555
F17 K5 2.755621 1_555
F18 Gd14 2.351420 1_455
F18 Gd12 2.351420 1_555
F18 K2 2.720649 1_545
F18 K6 2.755620 1_555
F19 Gd15 2.351420 1_655
F19 Gd13 2.351420 1_555
F19 K3 2.720649 1_565
F19 K7 2.755620 1_555
F20 Gd10 2.434609 1_555
F20 Gd9 2.434609 1_556
F20 Gd20 2.453161 1_556
F20 K9 2.839507 1_556
F21 Gd11 2.434609 1_555
F21 Gd8 2.434609 1_554
F21 Gd21 2.453161 1_554
F21 K8 2.839507 1_554
F22 Gd8 2.434609 1_555
F22 Gd11 2.434609 1_556
F22 Gd20 2.453161 1_656
F22 K9 2.839507 1_556
F23 Gd9 2.434609 1_555
F23 Gd10 2.434609 1_554
F23 Gd21 2.453161 1_454
F23 K8 2.839507 1_554
F24 Gd8 2.251319 1_555
F24 Gd16 2.287660 1_555
F25 Gd9 2.251319 1_555
F25 Gd17 2.287660 1_555
F26 Gd10 2.251319 1_555
F26 Gd18 2.287660 1_555
F27 Gd11 2.251319 1_555
F27 Gd19 2.287660 1_555
F28 Gd5 2.421477 1_555
F28 Gd7 2.421477 1_555
F28 Gd0 2.465967 1_555
F28 K8 2.848079 1_555
F29 Gd4 2.421477 1_555
F29 Gd6 2.421477 1_555
F29 Gd1 2.465967 1_555
F29 K9 2.848079 1_555
F30 Gd5 2.421477 1_545
F30 Gd7 2.421477 1_545
F30 Gd2 2.465967 1_555
F30 K9 2.848079 1_556
F31 Gd4 2.421477 1_565
F31 Gd6 2.421477 1_565
F31 Gd3 2.465967 1_555
F31 K8 2.848079 1_554
F32 Gd21 3.021266 1_444
F32 Gd20 3.021266 1_555
F32 Gd4 3.036925 1_555
F32 Gd5 3.036925 1_444
F32 Gd7 3.036925 1_544
F32 Gd6 3.036925 1_455
F33 Gd18 2.638438 1_555
F33 Gd16 2.638438 1_555
F34 Gd19 2.638438 1_555
F34 Gd17 2.638438 1_555
F35 Gd0 2.367937 1_555
F35 Gd15 2.488634 1_555
F35 Gd13 2.488634 1_555
F35 K4 2.804903 1_555
F36 Gd1 2.367937 1_555
F36 Gd14 2.488634 1_555
F36 Gd12 2.488634 1_555
F36 K5 2.804903 1_555
F37 Gd2 2.367938 1_565
F37 Gd15 2.488634 1_555
F37 Gd13 2.488634 1_555
F37 K6 2.804903 1_565
F38 Gd3 2.367938 1_545
F38 Gd14 2.488634 1_555
F38 Gd12 2.488634 1_555
F38 K7 2.804903 1_545
F39 Gd12 2.262478 1_555
F39 Gd16 2.414660 1_555
F39 K5 2.667724 1_555
F39 K4 2.714950 1_555
F40 Gd13 2.262478 1_555
F40 Gd17 2.414660 1_555
F40 K4 2.667724 1_555
F40 K5 2.714950 1_555
F41 Gd14 2.262478 1_555
F41 Gd18 2.414660 1_655
F41 K7 2.667724 1_545
F41 K6 2.714950 1_655
F42 Gd13 2.262478 1_555
F42 Gd17 2.414660 1_555
F42 K6 2.667724 1_565
F42 K7 2.714950 1_555
F43 Gd15 2.262478 1_555
F43 Gd19 2.414660 1_455
F43 K6 2.667724 1_565
F43 K7 2.714950 1_455
F44 Gd12 2.262478 1_555
F44 Gd16 2.414660 1_555
F44 K7 2.667724 1_545
F44 K6 2.714950 1_555
F45 Gd15 2.262478 1_555
F45 Gd19 2.414660 1_455
F45 K4 2.667724 1_555
F45 K5 2.714950 1_455
F46 Gd14 2.262478 1_555
F46 Gd18 2.414660 1_655
F46 K5 2.667724 1_555
F46 K4 2.714950 1_655
F47 Gd19 2.330660 1_455
F47 Gd17 2.330660 1_555
F47 K4 2.684467 1_555
F47 K0 2.759910 1_555
F48 Gd18 2.330660 1_655
F48 Gd16 2.330660 1_555
F48 K5 2.684467 1_555
F48 K1 2.759910 1_555
F49 Gd19 2.330660 1_455
F49 Gd17 2.330660 1_555
F49 K6 2.684467 1_565
F49 K2 2.759910 1_555
F50 Gd18 2.330660 1_655
F50 Gd16 2.330660 1_555
F50 K7 2.684467 1_545
F50 K3 2.759910 1_555
F51 Gd9 2.264156 1_555
F51 Gd1 2.271323 1_555
F52 Gd8 2.264156 1_555
F52 Gd0 2.271323 1_555
F53 Gd11 2.264156 1_555
F53 Gd3 2.271323 1_555
F54 Gd8 2.264156 1_555
F54 Gd2 2.271323 1_555
F55 Gd10 2.264156 1_555
F55 Gd2 2.271323 1_555
F56 Gd9 2.264156 1_555
F56 Gd3 2.271323 1_555
F57 Gd10 2.264156 1_555
F57 Gd0 2.271323 1_555
F58 Gd11 2.264156 1_555
F58 Gd1 2.271323 1_555
F59 Gd6 2.252393 1_455
F59 Gd4 2.252393 1_555
F60 Gd7 2.252393 1_655
F60 Gd5 2.252393 1_555
F61 Gd7 2.295159 1_544
F61 Gd4 2.295159 1_555
F62 Gd6 2.295159 1_555
F62 Gd5 2.295159 1_544
F63 Gd12 2.388670 1_555
F63 Gd4 2.433338 1_555
F63 Gd1 2.466111 1_555
F63 K0 2.828368 1_555
F64 Gd13 2.388670 1_555
F64 Gd5 2.433338 1_555
F64 Gd0 2.466111 1_555
F64 K1 2.828368 1_555
F65 Gd14 2.388670 1_555
F65 Gd6 2.433337 1_555
F65 Gd3 2.466112 1_545
F65 K2 2.828368 1_645
F66 Gd13 2.388670 1_555
F66 Gd5 2.433337 1_555
F66 Gd2 2.466112 1_565
F66 K3 2.828368 1_565
F67 Gd15 2.388670 1_555
F67 Gd7 2.433337 1_555
F67 Gd2 2.466112 1_565
F67 K3 2.828368 1_465
F68 Gd12 2.388670 1_555
F68 Gd4 2.433337 1_555
F68 Gd3 2.466112 1_545
F68 K2 2.828368 1_545
F69 Gd15 2.388670 1_555
F69 Gd7 2.433338 1_555
F69 Gd0 2.466112 1_555
F69 K1 2.828368 1_455
F70 Gd14 2.388670 1_555
F70 Gd6 2.433338 1_555
F70 Gd1 2.466112 1_555
F70 K0 2.828368 1_655
F71 Gd0 2.279297 1_555
F71 Gd16 2.346091 1_555
F71 K4 2.860419 1_555
F72 Gd1 2.279297 1_555
F72 Gd17 2.346091 1_555
F72 K5 2.860419 1_555
F73 Gd2 2.279297 1_555
F73 Gd18 2.346091 1_555
F73 K6 2.860419 1_555
F74 Gd3 2.279297 1_555
F74 Gd17 2.346091 1_555
F74 K7 2.860419 1_555
F75 Gd3 2.279297 1_555
F75 Gd19 2.346091 1_555
F75 K7 2.860419 1_555
F76 Gd2 2.279297 1_555
F76 Gd16 2.346091 1_555
F76 K6 2.860419 1_555
F77 Gd1 2.279297 1_555
F77 Gd19 2.346091 1_555
F77 K5 2.860419 1_555
F78 Gd0 2.279297 1_555
F78 Gd18 2.346091 1_555
F78 K4 2.860419 1_555
