# generated using pymatgen
data_FeO2
_symmetry_space_group_name_H-M   'P 1'
_cell_length_a   5.93987200
_cell_length_b   5.97312033
_cell_length_c   14.50089497
_cell_angle_alpha   88.61198800
_cell_angle_beta   89.14963335
_cell_angle_gamma   60.38650920
_symmetry_Int_Tables_number   1
_chemical_formula_structural   FeO2
_chemical_formula_sum   'Fe12 O24'
_cell_volume   447.14902079
_cell_formula_units_Z   12
loop_
 _symmetry_equiv_pos_site_id
 _symmetry_equiv_pos_as_xyz
  1  'x, y, z'
loop_
 _atom_site_type_symbol
 _atom_site_label
 _atom_site_symmetry_multiplicity
 _atom_site_fract_x
 _atom_site_fract_y
 _atom_site_fract_z
 _atom_site_occupancy
  Fe  Fe0  1  0.68069000  0.65552900  0.16833700  1
  Fe  Fe1  1  0.50111400  0.50054000  0.49928700  1
  Fe  Fe2  1  0.33121700  0.82722500  0.33347900  1
  Fe  Fe3  1  0.16498200  0.65968600  0.16899800  1
  Fe  Fe4  1  0.99970700  0.00524900  0.50022700  1
  Fe  Fe5  1  0.16451900  0.17377400  0.16803600  1
  Fe  Fe6  1  0.66811000  0.17321000  0.66553600  1
  Fe  Fe7  1  0.49912500  0.00226100  0.49971700  1
  Fe  Fe8  1  0.33238900  0.33292000  0.83374200  1
  Fe  Fe9  1  0.83339000  0.33362000  0.83396600  1
  Fe  Fe10  1  0.83288100  0.83321300  0.83290400  1
  Fe  Fe11  1  0.33649600  0.83096900  0.95470200  1
  O  O0  1  0.30360000  0.34561800  0.10737900  1
  O  O1  1  0.84694500  0.35481400  0.10448700  1
  O  O2  1  0.97916100  0.49586400  0.24600100  1
  O  O3  1  0.84283800  0.80508400  0.10870500  1
  O  O4  1  0.62497400  0.67274400  0.41996800  1
  O  O5  1  0.48003500  0.53665400  0.23916000  1
  O  O6  1  0.34496800  0.83536500  0.08859400  1
  O  O7  1  0.47410600  0.96777800  0.24604800  1
  O  O8  1  0.18284200  0.69180800  0.41761600  1
  O  O9  1  0.34347800  0.82862100  0.56759400  1
  O  O10  1  0.17562900  0.13195000  0.42616100  1
  O  O11  1  0.04735300  0.97365100  0.24258900  1
  O  O12  1  0.94780100  0.02676700  0.74689100  1
  O  O13  1  0.81929300  0.88231000  0.57748300  1
  O  O14  1  0.65820600  0.17200300  0.43116000  1
  O  O15  1  0.81472900  0.31039400  0.58190500  1
  O  O16  1  0.65774600  0.16454300  0.90170300  1
  O  O17  1  0.52558000  0.02835400  0.74389300  1
  O  O18  1  0.52193600  0.45194300  0.74700200  1
  O  O19  1  0.37982900  0.32638600  0.57928300  1
  O  O20  1  0.17111000  0.16365900  0.90155400  1
  O  O21  1  0.16995300  0.66938700  0.90206400  1
  O  O22  1  0.00995900  0.50173800  0.76869500  1
  O  O23  1  0.66671100  0.66766500  0.90003400  1
loop_
_geom_bond_atom_site_label_1
_geom_bond_atom_site_label_2
_geom_bond_distance
_geom_bond_site_symmetry_2
Fe0 O3 1.805973 1_555
Fe0 O1 1.832818 1_555
Fe0 O2 1.912379 1_555
Fe0 O5 1.934984 1_555
Fe0 O7 2.013238 1_555
Fe0 O6 2.087795 1_555
Fe1 O4 1.894120 1_555
Fe1 O19 1.898449 1_555
Fe1 O9 1.987767 1_555
Fe1 O14 1.988591 1_555
Fe1 O15 2.026018 1_555
Fe1 O8 2.036698 1_555
Fe2 O8 1.882644 1_555
Fe2 O7 1.911357 1_555
Fe2 O4 1.971461 1_555
Fe2 O11 1.974261 1_555
Fe2 O5 2.056025 1_555
Fe2 O10 2.095836 1_565
Fe3 O0 1.878409 1_555
Fe3 O3 1.884308 1_455
Fe3 O5 1.933487 1_555
Fe3 O11 1.980846 1_555
Fe3 O2 2.097738 1_455
Fe3 O6 2.148475 1_555
Fe4 O10 1.878051 1_655
Fe4 O13 1.909164 1_545
Fe4 O15 2.004726 1_555
Fe4 O9 2.029074 1_645
Fe4 O14 2.031022 1_555
Fe4 O8 2.044695 1_645
Fe5 O0 1.811758 1_555
Fe5 O1 1.887916 1_455
Fe5 O11 1.954280 1_545
Fe5 O7 1.983283 1_545
Fe5 O2 2.041256 1_455
Fe5 O6 2.120551 1_545
Fe6 O17 1.845051 1_555
Fe6 O12 1.867856 1_555
Fe6 O15 1.877868 1_555
Fe6 O18 1.886138 1_555
Fe6 O19 1.947666 1_555
Fe6 O13 1.996822 1_545
Fe7 O9 1.941770 1_545
Fe7 O14 1.944035 1_555
Fe7 O10 1.994933 1_555
Fe7 O13 2.019795 1_545
Fe7 O19 2.075980 1_555
Fe7 O4 2.097770 1_545
Fe8 O22 1.916612 1_555
Fe8 O20 1.946250 1_555
Fe8 O16 1.950685 1_555
Fe8 O18 2.015152 1_555
Fe8 O21 2.025656 1_555
Fe8 O17 2.081145 1_555
Fe9 O22 1.992376 1_655
Fe9 O23 1.997843 1_555
Fe9 O20 2.003193 1_655
Fe9 O16 2.008995 1_555
Fe9 O18 2.060615 1_555
Fe9 O12 2.066691 1_555
Fe10 O23 1.946549 1_555
Fe10 O22 1.973700 1_655
Fe10 O16 2.006084 1_565
Fe10 O12 2.010735 1_565
Fe10 O21 2.011907 1_655
Fe10 O17 2.061748 1_565
Fe11 O21 1.869340 1_555
Fe11 O20 1.878015 1_565
Fe11 O23 1.878186 1_555
Fe11 O6 1.944101 1_556
