# generated using pymatgen
data_Ce2Te7Br2O17
_symmetry_space_group_name_H-M   'P 1'
_cell_length_a   5.50694500
_cell_length_b   9.93575200
_cell_length_c   20.61872528
_cell_angle_alpha   68.76865238
_cell_angle_beta   90.00000000
_cell_angle_gamma   90.00000000
_symmetry_Int_Tables_number   1
_chemical_formula_structural   Ce2Te7Br2O17
_chemical_formula_sum   'Ce4 Te14 Br4 O34'
_cell_volume   1051.59334132
_cell_formula_units_Z   2
loop_
 _symmetry_equiv_pos_site_id
 _symmetry_equiv_pos_as_xyz
  1  'x, y, z'
loop_
 _atom_site_type_symbol
 _atom_site_label
 _atom_site_symmetry_multiplicity
 _atom_site_fract_x
 _atom_site_fract_y
 _atom_site_fract_z
 _atom_site_occupancy
  Ce  Ce0  1  0.86464000  0.49546100  0.90846000  1
  Ce  Ce1  1  0.13536000  0.50453900  0.09154000  1
  Ce  Ce2  1  0.86464000  0.50453900  0.59154000  1
  Ce  Ce3  1  0.13536000  0.49546100  0.40846000  1
  Te  Te0  1  0.39645700  0.21458800  0.91055500  1
  Te  Te1  1  0.60354300  0.78541200  0.08944500  1
  Te  Te2  1  0.39645700  0.78541200  0.58944500  1
  Te  Te3  1  0.60354300  0.21458800  0.41055500  1
  Te  Te4  1  0.55979600  0.50000000  0.75000000  1
  Te  Te5  1  0.44020400  0.50000000  0.25000000  1
  Te  Te6  1  0.67418000  0.23680100  0.07967200  1
  Te  Te7  1  0.32582000  0.76319900  0.92032800  1
  Te  Te8  1  0.67418000  0.76319900  0.42032800  1
  Te  Te9  1  0.32582000  0.23680100  0.57967200  1
  Te  Te10  1  0.01790400  0.82601700  0.74384300  1
  Te  Te11  1  0.98209600  0.17398300  0.25615700  1
  Te  Te12  1  0.01790400  0.17398300  0.75615700  1
  Te  Te13  1  0.98209600  0.82601700  0.24384300  1
  Br  Br0  1  0.83304400  0.96985400  0.92101100  1
  Br  Br1  1  0.16695600  0.03014600  0.07898900  1
  Br  Br2  1  0.83304400  0.03014600  0.57898900  1
  Br  Br3  1  0.16695600  0.96985400  0.42101100  1
  O  O0  1  0.63561200  0.34305400  0.84981000  1
  O  O1  1  0.36438800  0.65694600  0.15019000  1
  O  O2  1  0.63561200  0.65694600  0.65019000  1
  O  O3  1  0.36438800  0.34305400  0.34981000  1
  O  O4  1  0.42877000  0.36232000  0.08887900  1
  O  O5  1  0.57123000  0.63768000  0.91112100  1
  O  O6  1  0.42877000  0.63768000  0.41112100  1
  O  O7  1  0.57123000  0.36232000  0.58887900  1
  O  O8  1  0.12142800  0.71242700  0.83708600  1
  O  O9  1  0.87857200  0.28757300  0.16291400  1
  O  O10  1  0.12142800  0.28757300  0.66291400  1
  O  O11  1  0.87857200  0.71242700  0.33708600  1
  O  O12  1  0.59589400  0.27685600  0.97737400  1
  O  O13  1  0.40410600  0.72314400  0.02262600  1
  O  O14  1  0.59589400  0.72314400  0.52262600  1
  O  O15  1  0.40410600  0.27685600  0.47737400  1
  O  O16  1  0.16215600  0.36001100  0.90049900  1
  O  O17  1  0.83784400  0.63998900  0.09950100  1
  O  O18  1  0.16215600  0.63998900  0.59950100  1
  O  O19  1  0.83784400  0.36001100  0.40049900  1
  O  O20  1  0.90088000  0.38601200  0.03237100  1
  O  O21  1  0.09912000  0.61398800  0.96762900  1
  O  O22  1  0.90088000  0.61398800  0.46762900  1
  O  O23  1  0.09912000  0.38601200  0.53237100  1
  O  O24  1  0.78922600  0.59878000  0.78597500  1
  O  O25  1  0.21077400  0.40122000  0.21402500  1
  O  O26  1  0.78922600  0.40122000  0.71402500  1
  O  O27  1  0.21077400  0.59878000  0.28597500  1
  O  O28  1  0.18917300  0.00000000  0.75000000  1
  O  O29  1  0.81082700  0.00000000  0.25000000  1
  O  O30  1  0.27740300  0.77546900  0.69793200  1
  O  O31  1  0.72259700  0.22453100  0.30206800  1
  O  O32  1  0.27740300  0.22453100  0.80206800  1
  O  O33  1  0.72259700  0.77546900  0.19793200  1
loop_
_geom_bond_atom_site_label_1
_geom_bond_atom_site_label_2
_geom_bond_distance
_geom_bond_site_symmetry_2
Ce0 O5 2.160247 1_555
Ce0 O16 2.163904 1_655
Ce0 O21 2.362879 1_655
Ce0 O24 2.393044 1_555
Ce0 O20 2.395325 1_556
Ce0 O8 2.552426 1_655
Ce0 O0 2.583106 1_555
Ce0 O12 2.586823 1_555
Ce1 O4 2.160247 1_555
Ce1 O17 2.163904 1_455
Ce1 O20 2.362879 1_455
Ce1 O25 2.393044 1_555
Ce1 O21 2.395325 1_554
Ce1 O9 2.552426 1_455
Ce1 O1 2.583106 1_555
Ce1 O13 2.586823 1_555
Ce2 O7 2.160247 1_555
Ce2 O18 2.163904 1_655
Ce2 O23 2.362879 1_655
Ce2 O26 2.393044 1_555
Ce2 O22 2.395325 1_555
Ce2 O10 2.552426 1_655
Ce2 O2 2.583106 1_555
Ce2 O14 2.586823 1_555
Ce3 O6 2.160247 1_555
Ce3 O19 2.163904 1_455
Ce3 O22 2.362879 1_455
Ce3 O27 2.393044 1_555
Ce3 O23 2.395325 1_555
Ce3 O11 2.552426 1_455
Ce3 O3 2.583106 1_555
Ce3 O15 2.586823 1_555
O0 Te0 1.942828 1_555
O0 Te4 2.125295 1_555
O1 Te1 1.942828 1_555
O1 Te5 2.125295 1_555
O2 Te2 1.942828 1_555
O2 Te4 2.125295 1_555
O3 Te3 1.942828 1_555
O3 Te5 2.125295 1_555
O4 Te6 1.894538 1_555
O5 Te7 1.894538 1_555
O6 Te8 1.894538 1_555
O7 Te9 1.894538 1_555
O8 Te10 1.929623 1_555
O8 Te7 2.257061 1_555
O9 Te11 1.929623 1_555
O9 Te6 2.257061 1_555
O10 Te12 1.929623 1_555
O10 Te9 2.257061 1_555
O11 Te13 1.929623 1_555
O11 Te8 2.257061 1_555
O12 Te0 2.025948 1_555
O12 Te6 2.045782 1_556
O13 Te1 2.025948 1_555
O13 Te7 2.045782 1_554
O14 Te2 2.025948 1_555
O14 Te8 2.045782 1_555
O15 Te3 2.025948 1_555
O15 Te9 2.045782 1_555
O16 Te0 1.891702 1_555
O17 Te1 1.891702 1_555
O18 Te2 1.891702 1_555
O19 Te3 1.891702 1_555
O20 Te6 1.913221 1_555
O21 Te7 1.913221 1_555
O22 Te8 1.913221 1_555
O23 Te9 1.913221 1_555
O24 Te4 1.907106 1_555
O24 Te10 2.453063 1_655
O25 Te5 1.907106 1_555
O25 Te11 2.453063 1_455
O26 Te4 1.907106 1_555
O26 Te12 2.453063 1_655
O27 Te5 1.907106 1_555
O27 Te13 2.453063 1_455
O28 Te12 2.013172 1_555
O28 Te10 2.013172 1_545
O29 Te11 2.013172 1_555
O29 Te13 2.013172 1_545
O30 Te10 1.880120 1_555
O30 Te2 2.298502 1_555
O31 Te11 1.880120 1_555
O31 Te3 2.298502 1_555
O32 Te12 1.880120 1_555
O32 Te0 2.298502 1_555
O33 Te13 1.880120 1_555
O33 Te1 2.298502 1_555
