# generated using pymatgen
data_Rb2Mo4O13
_symmetry_space_group_name_H-M   'P 1'
_cell_length_a   8.29421917
_cell_length_b   8.40964386
_cell_length_c   10.27777033
_cell_angle_alpha   104.25189754
_cell_angle_beta   106.51215941
_cell_angle_gamma   109.86761221
_symmetry_Int_Tables_number   1
_chemical_formula_structural   Rb2Mo4O13
_chemical_formula_sum   'Rb4 Mo8 O26'
_cell_volume   597.88603588
_cell_formula_units_Z   2
loop_
 _symmetry_equiv_pos_site_id
 _symmetry_equiv_pos_as_xyz
  1  'x, y, z'
loop_
 _atom_site_type_symbol
 _atom_site_label
 _atom_site_symmetry_multiplicity
 _atom_site_fract_x
 _atom_site_fract_y
 _atom_site_fract_z
 _atom_site_occupancy
  Rb  Rb0  1  0.30995215  0.34808542  0.57163444  1
  Rb  Rb1  1  0.69004785  0.65191458  0.42836556  1
  Rb  Rb2  1  0.62158519  0.07217089  0.30596815  1
  Rb  Rb3  1  0.37841481  0.92782911  0.69403185  1
  Mo  Mo0  1  0.22875561  0.54230207  0.04270702  1
  Mo  Mo1  1  0.77124439  0.45769793  0.95729298  1
  Mo  Mo2  1  0.77412945  0.84716388  0.94212656  1
  Mo  Mo3  1  0.22587055  0.15283612  0.05787344  1
  Mo  Mo4  1  0.05376601  0.87678197  0.27079560  1
  Mo  Mo5  1  0.94623399  0.12321803  0.72920440  1
  Mo  Mo6  1  0.07406473  0.49442719  0.29128416  1
  Mo  Mo7  1  0.92593527  0.50557281  0.70871584  1
  O  O0  1  0.58152624  0.71750536  0.78015062  1
  O  O1  1  0.41847376  0.28249464  0.21984938  1
  O  O2  1  0.98984960  0.68322598  0.33696411  1
  O  O3  1  0.01015040  0.31677402  0.66303589  1
  O  O4  1  0.77982650  0.69369915  0.06153779  1
  O  O5  1  0.22017350  0.30630085  0.93846221  1
  O  O6  1  0.70269349  0.97987355  0.04059637  1
  O  O7  1  0.29730651  0.02012645  0.95940363  1
  O  O8  1  0.10155033  0.64994800  0.13225114  1
  O  O9  1  0.89844967  0.35005200  0.86774886  1
  O  O10  1  0.96903412  0.34347091  0.35931274  1
  O  O11  1  0.03096588  0.65652909  0.64068726  1
  O  O12  1  0.06876882  0.98167851  0.11721303  1
  O  O13  1  0.93123118  0.01832149  0.88278697  1
  O  O14  1  0.30035415  0.61729200  0.42286588  1
  O  O15  1  0.69964585  0.38270800  0.57713412  1
  O  O16  1  0.12016030  0.35964538  0.14280537  1
  O  O17  1  0.87983970  0.64035462  0.85719463  1
  O  O18  1  0.78529534  0.37990214  0.10009904  1
  O  O19  1  0.21470466  0.62009786  0.89990096  1
  O  O20  1  0.94337571  0.98577845  0.34514088  1
  O  O21  1  0.05662429  0.01422155  0.65485912  1
  O  O22  1  0.45479106  0.66455671  0.16724300  1
  O  O23  1  0.54520894  0.33544329  0.83275700  1
  O  O24  1  0.28645006  0.00476669  0.38395082  1
  O  O25  1  0.71354994  0.99523331  0.61604918  1
loop_
_geom_bond_atom_site_label_1
_geom_bond_atom_site_label_2
_geom_bond_distance
_geom_bond_site_symmetry_2
Mo0 O22 1.699424 1_555
Mo0 O19 1.738740 1_554
Mo0 O8 1.889598 1_555
Mo0 O5 1.976259 1_554
Mo0 O16 2.143280 1_555
Mo0 O9 2.471960 1_454
Mo1 O23 1.699424 1_555
Mo1 O18 1.738740 1_556
Mo1 O9 1.889598 1_555
Mo1 O4 1.976259 1_556
Mo1 O17 2.143280 1_555
Mo1 O8 2.471960 1_656
Mo2 O6 1.689688 1_556
Mo2 O0 1.709646 1_555
Mo2 O13 1.936699 1_565
Mo2 O4 1.990581 1_556
Mo2 O12 2.260302 1_656
Mo2 O17 2.297724 1_555
Mo3 O7 1.689688 1_554
Mo3 O1 1.709646 1_555
Mo3 O12 1.936699 1_545
Mo3 O5 1.990581 1_554
Mo3 O13 2.260302 1_454
Mo3 O16 2.297724 1_555
Mo4 O20 1.698720 1_455
Mo4 O24 1.712186 1_565
Mo4 O2 1.885871 1_455
Mo4 O12 2.001980 1_555
Mo4 O8 2.306691 1_555
Mo4 O4 2.317897 1_455
Mo5 O21 1.698720 1_655
Mo5 O25 1.712186 1_545
Mo5 O3 1.885871 1_655
Mo5 O13 2.001980 1_555
Mo5 O9 2.306691 1_555
Mo5 O5 2.317897 1_655
Mo6 O10 1.700274 1_455
Mo6 O14 1.723443 1_555
Mo6 O16 1.879956 1_555
Mo6 O2 1.949974 1_455
Mo6 O18 2.313068 1_455
Mo6 O8 2.344317 1_555
Mo7 O11 1.700274 1_655
Mo7 O15 1.723443 1_555
Mo7 O17 1.879956 1_555
Mo7 O3 1.949974 1_655
Mo7 O19 2.313068 1_655
Mo7 O9 2.344317 1_555
O0 Rb0 2.922245 1_555
O0 Rb3 2.949316 1_555
O1 Rb1 2.922245 1_555
O1 Rb2 2.949316 1_555
O2 Rb1 2.853013 1_555
O3 Rb0 2.853013 1_555
O6 Rb2 2.974804 1_565
O7 Rb3 2.974804 1_545
O10 Rb2 2.797832 1_555
O10 Rb0 3.022460 1_655
O11 Rb3 2.797832 1_555
O11 Rb1 3.022460 1_455
O14 Rb0 3.037643 1_555
O14 Rb3 3.041034 1_555
O14 Rb1 3.127859 1_555
O15 Rb1 3.037643 1_555
O15 Rb2 3.041034 1_555
O15 Rb0 3.127859 1_555
O20 Rb2 2.943588 1_565
O20 Rb0 3.183493 1_665
O20 Rb1 3.350205 1_555
O21 Rb3 2.943588 1_545
O21 Rb1 3.183493 1_445
O21 Rb0 3.350205 1_555
O22 Rb1 2.885489 1_555
O22 Rb2 2.991025 1_565
O23 Rb0 2.885489 1_555
O23 Rb3 2.991025 1_545
O24 Rb0 2.959111 1_555
O24 Rb2 3.018192 1_555
O24 Rb3 3.335558 1_545
O25 Rb1 2.959111 1_555
O25 Rb3 3.018192 1_555
O25 Rb2 3.335558 1_565
