# generated using pymatgen
data_Sc(BRu)4
_symmetry_space_group_name_H-M   'P 1'
_cell_length_a   9.13631293
_cell_length_b   9.13631293
_cell_length_c   9.13631293
_cell_angle_alpha   132.28999750
_cell_angle_beta   132.28999750
_cell_angle_gamma   69.77139121
_symmetry_Int_Tables_number   1
_chemical_formula_structural   Sc(BRu)4
_chemical_formula_sum   'Sc4 B16 Ru16'
_cell_volume   409.27517686
_cell_formula_units_Z   4
loop_
 _symmetry_equiv_pos_site_id
 _symmetry_equiv_pos_as_xyz
  1  'x, y, z'
loop_
 _atom_site_type_symbol
 _atom_site_label
 _atom_site_symmetry_multiplicity
 _atom_site_fract_x
 _atom_site_fract_y
 _atom_site_fract_z
 _atom_site_occupancy
  Sc  Sc0  1  0.75000000  0.75000000  0.00000000  1
  Sc  Sc1  1  0.25000000  0.25000000  0.00000000  1
  Sc  Sc2  1  0.00000000  0.50000000  0.50000000  1
  Sc  Sc3  1  0.50000000  0.00000000  0.50000000  1
  B  B0  1  0.71714400  0.41207200  0.96635800  1
  B  B1  1  0.21714400  0.25078600  0.30507200  1
  B  B2  1  0.66207200  0.46714400  0.46635800  1
  B  B3  1  0.16207200  0.69571400  0.19492800  1
  B  B4  1  0.03285600  0.83792800  0.53364200  1
  B  B5  1  0.53285600  0.99921400  0.19492800  1
  B  B6  1  0.08792800  0.78285600  0.03364200  1
  B  B7  1  0.58792800  0.55428600  0.30507200  1
  B  B8  1  0.94571400  0.91207200  0.69492800  1
  B  B9  1  0.44571400  0.75078600  0.03364200  1
  B  B10  1  0.50078600  0.96714400  0.80507200  1
  B  B11  1  0.00078600  0.19571400  0.53364200  1
  B  B12  1  0.80428600  0.33792800  0.80507200  1
  B  B13  1  0.30428600  0.49921400  0.46635800  1
  B  B14  1  0.24921400  0.28285600  0.69492800  1
  B  B15  1  0.74921400  0.05428600  0.96635800  1
  Ru  Ru0  1  0.03478000  0.57352900  0.23145800  1
  Ru  Ru1  1  0.53478000  0.30332200  0.46125100  1
  Ru  Ru2  1  0.82352900  0.78478000  0.73145800  1
  Ru  Ru3  1  0.32352900  0.59207000  0.03874900  1
  Ru  Ru4  1  0.71522000  0.67647100  0.26854200  1
  Ru  Ru5  1  0.21522000  0.94667800  0.03874900  1
  Ru  Ru6  1  0.92647100  0.46522000  0.76854200  1
  Ru  Ru7  1  0.42647100  0.65793000  0.46125100  1
  Ru  Ru8  1  0.84207000  0.07352900  0.53874900  1
  Ru  Ru9  1  0.34207000  0.80332200  0.76854200  1
  Ru  Ru10  1  0.55332200  0.28478000  0.96125100  1
  Ru  Ru11  1  0.05332200  0.09207000  0.26854200  1
  Ru  Ru12  1  0.90793000  0.17647100  0.96125100  1
  Ru  Ru13  1  0.40793000  0.44667800  0.73145800  1
  Ru  Ru14  1  0.19667800  0.96522000  0.53874900  1
  Ru  Ru15  1  0.69667800  0.15793000  0.23145800  1
loop_
_geom_bond_atom_site_label_1
_geom_bond_atom_site_label_2
_geom_bond_distance
_geom_bond_site_symmetry_2
B0 B12 1.768236 1_555
B0 Ru4 2.125709 1_556
B0 Ru10 2.152119 1_555
B0 Ru13 2.196134 1_555
B0 Ru12 2.248001 1_555
B0 Ru0 2.270910 1_656
B0 Sc3 2.909606 1_555
B0 Sc0 2.992721 1_556
B0 Sc2 3.209830 1_656
B1 B13 1.768236 1_555
B1 Ru5 2.125709 1_545
B1 Ru11 2.152126 1_555
B1 Ru12 2.196136 1_454
B1 Ru13 2.247996 1_555
B1 Ru1 2.270910 1_555
B1 Sc2 2.909606 1_555
B1 Sc1 2.992721 1_555
B1 Sc3 3.209830 1_555
B2 B7 1.768236 1_555
B2 Ru6 2.125709 1_555
B2 Ru1 2.152119 1_555
B2 Ru15 2.196134 1_555
B2 Ru7 2.248001 1_555
B2 Ru2 2.270910 1_555
B2 Sc1 2.909606 1_555
B2 Sc2 2.992721 1_655
B2 Sc0 3.209830 1_556
B3 B6 1.768236 1_555
B3 Ru7 2.125704 1_555
B3 Ru0 2.152119 1_555
B3 Ru14 2.196139 1_555
B3 Ru6 2.247997 1_454
B3 Ru3 2.270908 1_555
B3 Sc0 2.909606 1_455
B3 Sc3 2.992721 1_565
B3 Sc1 3.209830 1_555
B4 B8 1.768236 1_455
B4 Ru0 2.125709 1_555
B4 Ru14 2.152119 1_555
B4 Ru9 2.196134 1_555
B4 Ru8 2.248001 1_465
B4 Ru4 2.270910 1_455
B4 Sc1 2.909606 1_566
B4 Sc2 2.992721 1_555
B4 Sc0 3.209830 1_455
B5 B9 1.768236 1_555
B5 Ru1 2.125709 1_565
B5 Ru15 2.152126 1_565
B5 Ru8 2.196136 1_565
B5 Ru9 2.247996 1_554
B5 Ru5 2.270910 1_555
B5 Sc0 2.909606 1_555
B5 Sc3 2.992721 1_565
B5 Sc1 3.209830 1_565
B6 Ru2 2.125709 1_454
B6 Ru5 2.152119 1_555
B6 Ru11 2.196134 1_565
B6 Ru3 2.248001 1_555
B6 Ru6 2.270910 1_454
B6 Sc3 2.909606 1_565
B6 Sc0 2.992721 1_455
B6 Sc2 3.209830 1_554
B7 Ru3 2.125704 1_555
B7 Ru4 2.152119 1_555
B7 Ru10 2.196139 1_554
B7 Ru2 2.247997 1_555
B7 Ru7 2.270908 1_555
B7 Sc2 2.909606 1_655
B7 Sc1 2.992721 1_555
B7 Sc3 3.209830 1_565
B8 Ru12 2.125704 1_565
B8 Ru2 2.152119 1_555
B8 Ru5 2.196139 1_656
B8 Ru4 2.247997 1_555
B8 Ru8 2.270908 1_565
B8 Sc2 2.909606 1_655
B8 Sc1 2.992721 1_666
B8 Sc3 3.209830 1_565
B9 Ru13 2.125711 1_554
B9 Ru3 2.152127 1_555
B9 Ru4 2.196139 1_555
B9 Ru5 2.247997 1_555
B9 Ru9 2.270907 1_554
B9 Sc3 2.909606 1_565
B9 Sc0 2.992721 1_555
B9 Sc2 3.209830 1_554
B10 B15 1.768236 1_565
B10 Ru14 2.125709 1_555
B10 Ru9 2.152126 1_555
B10 Ru7 2.196136 1_555
B10 Ru15 2.247996 1_566
B10 Ru10 2.270910 1_565
B10 Sc0 2.909606 1_556
B10 Sc3 2.992721 1_565
B10 Sc1 3.209830 1_566
B11 B14 1.768236 1_555
B11 Ru15 2.125711 1_455
B11 Ru8 2.152127 1_455
B11 Ru6 2.196139 1_455
B11 Ru14 2.247997 1_545
B11 Ru11 2.270907 1_555
B11 Sc1 2.909606 1_556
B11 Sc2 2.992721 1_555
B11 Sc0 3.209830 1_445
B12 Ru8 2.125704 1_555
B12 Ru6 2.152119 1_555
B12 Ru1 2.196139 1_555
B12 Ru0 2.247997 1_656
B12 Ru12 2.270908 1_555
B12 Sc0 2.909606 1_556
B12 Sc3 2.992721 1_555
B12 Sc1 3.209830 1_656
B13 Ru9 2.125711 1_555
B13 Ru7 2.152127 1_555
B13 Ru0 2.196139 1_555
B13 Ru1 2.247997 1_555
B13 Ru13 2.270907 1_555
B13 Sc1 2.909606 1_555
B13 Sc2 2.992721 1_555
B13 Sc0 3.209830 1_556
B14 Ru10 2.125709 1_555
B14 Ru13 2.152126 1_555
B14 Ru3 2.196136 1_556
B14 Ru11 2.247996 1_555
B14 Ru14 2.270910 1_545
B14 Sc2 2.909606 1_555
B14 Sc1 2.992721 1_556
B14 Sc3 3.209830 1_555
B15 Ru11 2.125711 1_656
B15 Ru12 2.152127 1_555
B15 Ru2 2.196139 1_545
B15 Ru10 2.247997 1_555
B15 Ru15 2.270907 1_556
B15 Sc3 2.909606 1_555
B15 Sc0 2.992721 1_546
B15 Sc2 3.209830 1_656
Ru0 Sc0 2.850239 1_455
Ru0 Sc2 3.160184 1_555
Ru0 Sc1 3.199993 1_555
Ru1 Sc1 2.850239 1_555
Ru1 Sc3 3.160184 1_555
Ru1 Sc0 3.199993 1_556
Ru2 Sc2 2.850239 1_655
Ru2 Sc0 3.160184 1_556
Ru2 Sc3 3.199993 1_565
Ru3 Sc3 2.850244 1_565
Ru3 Sc1 3.160175 1_555
Ru3 Sc2 3.199997 1_554
Ru4 Sc2 2.850239 1_655
Ru4 Sc0 3.160184 1_555
Ru4 Sc3 3.199993 1_565
Ru5 Sc3 2.850239 1_565
Ru5 Sc1 3.160184 1_565
Ru5 Sc2 3.199993 1_554
Ru6 Sc0 2.850239 1_556
Ru6 Sc2 3.160184 1_655
Ru6 Sc1 3.199993 1_656
Ru7 Sc1 2.850244 1_555
Ru7 Sc3 3.160175 1_565
Ru7 Sc0 3.199997 1_556
Ru8 Sc1 2.850244 1_656
Ru8 Sc3 3.160175 1_555
Ru8 Sc0 3.199997 1_545
Ru9 Sc0 2.850246 1_556
Ru9 Sc2 3.160177 1_555
Ru9 Sc1 3.199991 1_566
Ru10 Sc3 2.850239 1_555
Ru10 Sc1 3.160184 1_556
Ru10 Sc2 3.199993 1_656
Ru11 Sc2 2.850246 1_555
Ru11 Sc0 3.160177 1_445
Ru11 Sc3 3.199991 1_555
Ru12 Sc3 2.850244 1_555
Ru12 Sc1 3.160175 1_656
Ru12 Sc2 3.199997 1_656
Ru13 Sc2 2.850246 1_555
Ru13 Sc0 3.160177 1_556
Ru13 Sc3 3.199991 1_555
Ru14 Sc1 2.850239 1_566
Ru14 Sc3 3.160184 1_565
Ru14 Sc0 3.199993 1_455
Ru15 Sc0 2.850246 1_545
Ru15 Sc2 3.160177 1_655
Ru15 Sc1 3.199991 1_555
