# generated using pymatgen
data_Cs2CuSi5O12
_symmetry_space_group_name_H-M   'P 1'
_cell_length_a   13.81245573
_cell_length_b   13.83089711
_cell_length_c   13.87285465
_cell_angle_alpha   90.00000000
_cell_angle_beta   90.00000000
_cell_angle_gamma   90.00000000
_symmetry_Int_Tables_number   1
_chemical_formula_structural   Cs2CuSi5O12
_chemical_formula_sum   'Cs16 Cu8 Si40 O96'
_cell_volume   2650.25148000
_cell_formula_units_Z   8
loop_
 _symmetry_equiv_pos_site_id
 _symmetry_equiv_pos_as_xyz
  1  'x, y, z'
loop_
 _atom_site_type_symbol
 _atom_site_label
 _atom_site_symmetry_multiplicity
 _atom_site_fract_x
 _atom_site_fract_y
 _atom_site_fract_z
 _atom_site_occupancy
  Cs  Cs0  1  0.87013919  0.37333905  0.64745973  1
  Cs  Cs1  1  0.62986081  0.87333905  0.35254027  1
  Cs  Cs2  1  0.37013919  0.62666095  0.85254027  1
  Cs  Cs3  1  0.12986081  0.12666095  0.14745973  1
  Cs  Cs4  1  0.12986081  0.62666095  0.35254027  1
  Cs  Cs5  1  0.37013919  0.12666095  0.64745973  1
  Cs  Cs6  1  0.62986081  0.37333905  0.14745973  1
  Cs  Cs7  1  0.87013919  0.87333905  0.85254027  1
  Cs  Cs8  1  0.61354453  0.12184146  0.88517814  1
  Cs  Cs9  1  0.88645547  0.62184146  0.11482186  1
  Cs  Cs10  1  0.11354453  0.87815854  0.61482186  1
  Cs  Cs11  1  0.38645547  0.37815854  0.38517814  1
  Cs  Cs12  1  0.38645547  0.87815854  0.11482186  1
  Cs  Cs13  1  0.11354453  0.37815854  0.88517814  1
  Cs  Cs14  1  0.88645547  0.12184146  0.38517814  1
  Cs  Cs15  1  0.61354453  0.62184146  0.61482186  1
  Cu  Cu0  1  0.16053055  0.12047575  0.43170086  1
  Cu  Cu1  1  0.33946945  0.62047575  0.56829914  1
  Cu  Cu2  1  0.66053055  0.87952425  0.06829914  1
  Cu  Cu3  1  0.83946945  0.37952425  0.93170086  1
  Cu  Cu4  1  0.83946945  0.87952425  0.56829914  1
  Cu  Cu5  1  0.66053055  0.37952425  0.43170086  1
  Cu  Cu6  1  0.33946945  0.12047575  0.93170086  1
  Cu  Cu7  1  0.16053055  0.62047575  0.06829914  1
  Si  Si0  1  0.32451290  0.36848086  0.09459108  1
  Si  Si1  1  0.17548710  0.86848086  0.90540892  1
  Si  Si2  1  0.82451290  0.63151914  0.40540892  1
  Si  Si3  1  0.67548710  0.13151914  0.59459108  1
  Si  Si4  1  0.67548710  0.63151914  0.90540892  1
  Si  Si5  1  0.82451290  0.13151914  0.09459108  1
  Si  Si6  1  0.17548710  0.36848086  0.59459108  1
  Si  Si7  1  0.32451290  0.86848086  0.40540892  1
  Si  Si8  1  0.87830576  0.91722168  0.13585597  1
  Si  Si9  1  0.62169424  0.41722168  0.86414403  1
  Si  Si10  1  0.37830576  0.08277832  0.36414403  1
  Si  Si11  1  0.12169424  0.58277832  0.63585597  1
  Si  Si12  1  0.12169424  0.08277832  0.86414403  1
  Si  Si13  1  0.37830576  0.58277832  0.13585597  1
  Si  Si14  1  0.62169424  0.91722168  0.63585597  1
  Si  Si15  1  0.87830576  0.41722168  0.36414403  1
  Si  Si16  1  0.40999360  0.83969378  0.61113463  1
  Si  Si17  1  0.09000640  0.33969378  0.38886537  1
  Si  Si18  1  0.90999360  0.16030622  0.88886537  1
  Si  Si19  1  0.59000640  0.66030622  0.11113463  1
  Si  Si20  1  0.59000640  0.16030622  0.38886537  1
  Si  Si21  1  0.90999360  0.66030622  0.61113463  1
  Si  Si22  1  0.09000640  0.83969378  0.11113463  1
  Si  Si23  1  0.40999360  0.33969378  0.88886537  1
  Si  Si24  1  0.62062197  0.59166601  0.32174595  1
  Si  Si25  1  0.87937803  0.09166601  0.67825405  1
  Si  Si26  1  0.12062197  0.40833399  0.17825405  1
  Si  Si27  1  0.37937803  0.90833399  0.82174595  1
  Si  Si28  1  0.37937803  0.40833399  0.67825405  1
  Si  Si29  1  0.12062197  0.90833399  0.32174595  1
  Si  Si30  1  0.87937803  0.59166601  0.82174595  1
  Si  Si31  1  0.62062197  0.09166601  0.17825405  1
  Si  Si32  1  0.09156679  0.66293529  0.85087542  1
  Si  Si33  1  0.40843321  0.16293529  0.14912458  1
  Si  Si34  1  0.59156679  0.33706471  0.64912458  1
  Si  Si35  1  0.90843321  0.83706471  0.35087542  1
  Si  Si36  1  0.90843321  0.33706471  0.14912458  1
  Si  Si37  1  0.59156679  0.83706471  0.85087542  1
  Si  Si38  1  0.40843321  0.66293529  0.35087542  1
  Si  Si39  1  0.09156679  0.16293529  0.64912458  1
  O  O0  1  0.63212591  0.03589665  0.64816020  1
  O  O1  1  0.86787409  0.53589665  0.35183980  1
  O  O2  1  0.13212591  0.96410335  0.85183980  1
  O  O3  1  0.36787409  0.46410335  0.14816020  1
  O  O4  1  0.36787409  0.96410335  0.35183980  1
  O  O5  1  0.13212591  0.46410335  0.64816020  1
  O  O6  1  0.86787409  0.03589665  0.14816020  1
  O  O7  1  0.63212591  0.53589665  0.85183980  1
  O  O8  1  0.51173421  0.39977474  0.90626086  1
  O  O9  1  0.98826579  0.89977474  0.09373914  1
  O  O10  1  0.01173421  0.60022526  0.59373914  1
  O  O11  1  0.48826579  0.10022526  0.40626086  1
  O  O12  1  0.48826579  0.60022526  0.09373914  1
  O  O13  1  0.01173421  0.10022526  0.90626086  1
  O  O14  1  0.98826579  0.39977474  0.40626086  1
  O  O15  1  0.51173421  0.89977474  0.59373914  1
  O  O16  1  0.83741888  0.12677982  0.97815105  1
  O  O17  1  0.66258112  0.62677982  0.02184895  1
  O  O18  1  0.33741888  0.87322018  0.52184895  1
  O  O19  1  0.16258112  0.37322018  0.47815105  1
  O  O20  1  0.16258112  0.87322018  0.02184895  1
  O  O21  1  0.33741888  0.37322018  0.97815105  1
  O  O22  1  0.66258112  0.12677982  0.47815105  1
  O  O23  1  0.83741888  0.62677982  0.52184895  1
  O  O24  1  0.57518730  0.77444011  0.11893531  1
  O  O25  1  0.92481270  0.27444011  0.88106469  1
  O  O26  1  0.07518730  0.22555989  0.38106469  1
  O  O27  1  0.42481270  0.72555989  0.61893531  1
  O  O28  1  0.42481270  0.22555989  0.88106469  1
  O  O29  1  0.07518730  0.72555989  0.11893531  1
  O  O30  1  0.92481270  0.77444011  0.61893531  1
  O  O31  1  0.57518730  0.27444011  0.38106469  1
  O  O32  1  0.29095398  0.85621802  0.88396093  1
  O  O33  1  0.20904602  0.35621802  0.11603907  1
  O  O34  1  0.79095398  0.14378198  0.61603907  1
  O  O35  1  0.70904602  0.64378198  0.38396093  1
  O  O36  1  0.70904602  0.14378198  0.11603907  1
  O  O37  1  0.79095398  0.64378198  0.88396093  1
  O  O38  1  0.20904602  0.85621802  0.38396093  1
  O  O39  1  0.29095398  0.35621802  0.61603907  1
  O  O40  1  0.36992773  0.12757181  0.25513313  1
  O  O41  1  0.13007227  0.62757181  0.74486687  1
  O  O42  1  0.86992773  0.87242819  0.24486687  1
  O  O43  1  0.63007227  0.37242819  0.75513313  1
  O  O44  1  0.63007227  0.87242819  0.74486687  1
  O  O45  1  0.86992773  0.37242819  0.25513313  1
  O  O46  1  0.13007227  0.12757181  0.75513313  1
  O  O47  1  0.36992773  0.62757181  0.24486687  1
  O  O48  1  0.10709978  0.52080125  0.15830147  1
  O  O49  1  0.39290022  0.02080125  0.84169853  1
  O  O50  1  0.60709978  0.47919875  0.34169853  1
  O  O51  1  0.89290022  0.97919875  0.65830147  1
  O  O52  1  0.89290022  0.47919875  0.84169853  1
  O  O53  1  0.60709978  0.97919875  0.15830147  1
  O  O54  1  0.39290022  0.52080125  0.65830147  1
  O  O55  1  0.10709978  0.02080125  0.34169853  1
  O  O56  1  0.02751121  0.84057964  0.35373322  1
  O  O57  1  0.47248879  0.34057964  0.64626678  1
  O  O58  1  0.52751121  0.15942036  0.14626678  1
  O  O59  1  0.97248879  0.65942036  0.85373322  1
  O  O60  1  0.97248879  0.15942036  0.64626678  1
  O  O61  1  0.52751121  0.65942036  0.35373322  1
  O  O62  1  0.47248879  0.84057964  0.85373322  1
  O  O63  1  0.02751121  0.34057964  0.14626678  1
  O  O64  1  0.35636608  0.59941175  0.43156641  1
  O  O65  1  0.14363392  0.09941175  0.56843359  1
  O  O66  1  0.85636608  0.40058825  0.06843359  1
  O  O67  1  0.64363392  0.90058825  0.93156641  1
  O  O68  1  0.64363392  0.40058825  0.56843359  1
  O  O69  1  0.85636608  0.90058825  0.43156641  1
  O  O70  1  0.14363392  0.59941175  0.93156641  1
  O  O71  1  0.35636608  0.09941175  0.06843359  1
  O  O72  1  0.11624204  0.27945877  0.64331696  1
  O  O73  1  0.38375796  0.77945877  0.35668304  1
  O  O74  1  0.61624204  0.72054123  0.85668304  1
  O  O75  1  0.88375796  0.22054123  0.14331696  1
  O  O76  1  0.88375796  0.72054123  0.35668304  1
  O  O77  1  0.61624204  0.22054123  0.64331696  1
  O  O78  1  0.38375796  0.27945877  0.14331696  1
  O  O79  1  0.11624204  0.77945877  0.85668304  1
  O  O80  1  0.80000714  0.37028638  0.43455404  1
  O  O81  1  0.69999286  0.87028638  0.56544596  1
  O  O82  1  0.30000714  0.62971362  0.06544596  1
  O  O83  1  0.19999286  0.12971362  0.93455404  1
  O  O84  1  0.19999286  0.62971362  0.56544596  1
  O  O85  1  0.30000714  0.12971362  0.43455404  1
  O  O86  1  0.69999286  0.37028638  0.93455404  1
  O  O87  1  0.80000714  0.87028638  0.06544596  1
  O  O88  1  0.85645590  0.61156209  0.70628987  1
  O  O89  1  0.64354410  0.11156209  0.29371013  1
  O  O90  1  0.35645590  0.38843791  0.79371013  1
  O  O91  1  0.14354410  0.88843791  0.20628987  1
  O  O92  1  0.14354410  0.38843791  0.29371013  1
  O  O93  1  0.35645590  0.88843791  0.70628987  1
  O  O94  1  0.64354410  0.61156209  0.20628987  1
  O  O95  1  0.85645590  0.11156209  0.79371013  1
loop_
_geom_bond_atom_site_label_1
_geom_bond_atom_site_label_2
_geom_bond_distance
_geom_bond_site_symmetry_2
Cs0 O52 3.082799 1_555
Cs0 O80 3.108692 1_555
Cs0 O60 3.279123 1_555
Cs0 O68 3.336473 1_555
Cs0 O34 3.386263 1_555
Cs0 O88 3.399672 1_555
Cs0 O25 3.597764 1_555
Cs0 O43 3.636852 1_555
Cs0 O72 3.639287 1_655
Cs0 O14 3.740637 1_555
Cs0 O10 3.771970 1_655
Cs0 O5 3.830254 1_655
Cs1 O53 3.082799 1_555
Cs1 O81 3.108692 1_555
Cs1 O61 3.279123 1_555
Cs1 O69 3.336473 1_555
Cs1 O35 3.386263 1_555
Cs1 O89 3.399672 1_565
Cs1 O24 3.597764 1_555
Cs1 O42 3.636852 1_555
Cs1 O73 3.639287 1_555
Cs1 O15 3.740637 1_555
Cs1 O11 3.771970 1_565
Cs1 O4 3.830254 1_555
Cs2 O54 3.082799 1_555
Cs2 O82 3.108692 1_556
Cs2 O62 3.279123 1_555
Cs2 O70 3.336473 1_555
Cs2 O32 3.386263 1_555
Cs2 O90 3.399672 1_555
Cs2 O27 3.597764 1_555
Cs2 O41 3.636852 1_555
Cs2 O74 3.639287 1_555
Cs2 O12 3.740637 1_556
Cs2 O8 3.771970 1_555
Cs2 O7 3.830254 1_555
Cs3 O55 3.082799 1_555
Cs3 O83 3.108692 1_554
Cs3 O63 3.279123 1_555
Cs3 O71 3.336473 1_555
Cs3 O33 3.386263 1_555
Cs3 O91 3.399672 1_545
Cs3 O26 3.597764 1_555
Cs3 O40 3.636852 1_555
Cs3 O75 3.639287 1_455
Cs3 O13 3.740637 1_554
Cs3 O9 3.771970 1_445
Cs3 O6 3.830254 1_455
Cs4 O48 3.082799 1_555
Cs4 O84 3.108692 1_555
Cs4 O56 3.279123 1_555
Cs4 O64 3.336473 1_555
Cs4 O38 3.386263 1_555
Cs4 O92 3.399672 1_555
Cs4 O29 3.597764 1_555
Cs4 O47 3.636852 1_555
Cs4 O76 3.639287 1_455
Cs4 O10 3.740637 1_555
Cs4 O14 3.771970 1_455
Cs4 O1 3.830254 1_455
Cs5 O49 3.082799 1_555
Cs5 O85 3.108692 1_555
Cs5 O57 3.279123 1_555
Cs5 O65 3.336473 1_555
Cs5 O39 3.386263 1_555
Cs5 O93 3.399672 1_545
Cs5 O28 3.597764 1_555
Cs5 O46 3.636852 1_555
Cs5 O77 3.639287 1_555
Cs5 O11 3.740637 1_555
Cs5 O15 3.771970 1_545
Cs5 O0 3.830254 1_555
Cs6 O50 3.082799 1_555
Cs6 O86 3.108692 1_554
Cs6 O58 3.279123 1_555
Cs6 O66 3.336473 1_555
Cs6 O36 3.386263 1_555
Cs6 O94 3.399672 1_555
Cs6 O31 3.597764 1_555
Cs6 O45 3.636852 1_555
Cs6 O78 3.639287 1_555
Cs6 O8 3.740637 1_554
Cs6 O12 3.771970 1_555
Cs6 O3 3.830254 1_555
Cs7 O51 3.082799 1_555
Cs7 O87 3.108692 1_556
Cs7 O59 3.279123 1_555
Cs7 O67 3.336473 1_555
Cs7 O37 3.386263 1_555
Cs7 O95 3.399672 1_565
Cs7 O30 3.597764 1_555
Cs7 O44 3.636852 1_555
Cs7 O79 3.639287 1_655
Cs7 O9 3.740637 1_556
Cs7 O13 3.771970 1_665
Cs7 O2 3.830254 1_655
Cs8 O28 2.976032 1_555
Cs8 O67 3.154563 1_545
Cs8 O16 3.351162 1_555
Cs8 O49 3.406594 1_555
Cs8 O36 3.476985 1_556
Cs8 O0 3.505791 1_555
Cs8 O95 3.589953 1_555
Cs8 O77 3.622565 1_555
Cs8 O86 3.701699 1_555
Cs9 O29 2.976032 1_655
Cs9 O66 3.154563 1_555
Cs9 O17 3.351162 1_555
Cs9 O48 3.406594 1_655
Cs9 O37 3.476985 1_554
Cs9 O1 3.505791 1_555
Cs9 O94 3.589953 1_555
Cs9 O76 3.622565 1_555
Cs9 O87 3.701699 1_555
Cs10 O30 2.976032 1_455
Cs10 O65 3.154563 1_565
Cs10 O18 3.351162 1_555
Cs10 O51 3.406594 1_455
Cs10 O38 3.476985 1_555
Cs10 O2 3.505791 1_555
Cs10 O93 3.589953 1_555
Cs10 O79 3.622565 1_555
Cs10 O84 3.701699 1_555
Cs11 O31 2.976032 1_555
Cs11 O64 3.154563 1_555
Cs11 O19 3.351162 1_555
Cs11 O50 3.406594 1_555
Cs11 O39 3.476985 1_555
Cs11 O3 3.505791 1_555
Cs11 O92 3.589953 1_555
Cs11 O78 3.622565 1_555
Cs11 O85 3.701699 1_555
Cs12 O24 2.976032 1_555
Cs12 O71 3.154563 1_565
Cs12 O20 3.351162 1_555
Cs12 O53 3.406594 1_555
Cs12 O32 3.476985 1_554
Cs12 O4 3.505791 1_555
Cs12 O91 3.589953 1_555
Cs12 O73 3.622565 1_555
Cs12 O82 3.701699 1_555
Cs13 O25 2.976032 1_455
Cs13 O70 3.154563 1_555
Cs13 O21 3.351162 1_555
Cs13 O52 3.406594 1_455
Cs13 O33 3.476985 1_556
Cs13 O5 3.505791 1_555
Cs13 O90 3.589953 1_555
Cs13 O72 3.622565 1_555
Cs13 O83 3.701699 1_555
Cs14 O26 2.976032 1_655
Cs14 O69 3.154563 1_545
Cs14 O22 3.351162 1_555
Cs14 O55 3.406594 1_655
Cs14 O34 3.476985 1_555
Cs14 O6 3.505791 1_555
Cs14 O89 3.589953 1_555
Cs14 O75 3.622565 1_555
Cs14 O80 3.701699 1_555
Cs15 O27 2.976032 1_555
Cs15 O68 3.154563 1_555
Cs15 O23 3.351162 1_555
Cs15 O54 3.406594 1_555
Cs15 O35 3.476985 1_555
Cs15 O7 3.505791 1_555
Cs15 O88 3.589953 1_555
Cs15 O74 3.622565 1_555
Cs15 O81 3.701699 1_555
Cu0 O85 1.931152 1_555
Cu0 O65 1.933254 1_555
Cu0 O26 1.998856 1_555
Cu0 O55 2.001034 1_555
Cu1 O84 1.931152 1_555
Cu1 O64 1.933254 1_555
Cu1 O27 1.998856 1_555
Cu1 O54 2.001034 1_555
Cu2 O87 1.931152 1_555
Cu2 O67 1.933254 1_554
Cu2 O24 1.998856 1_555
Cu2 O53 2.001034 1_555
Cu3 O86 1.931152 1_555
Cu3 O66 1.933254 1_556
Cu3 O25 1.998856 1_555
Cu3 O52 2.001034 1_555
Cu4 O81 1.931152 1_555
Cu4 O69 1.933254 1_555
Cu4 O30 1.998856 1_555
Cu4 O51 2.001034 1_555
Cu5 O80 1.931152 1_555
Cu5 O68 1.933254 1_555
Cu5 O31 1.998856 1_555
Cu5 O50 2.001034 1_555
Cu6 O83 1.931152 1_555
Cu6 O71 1.933254 1_556
Cu6 O28 1.998856 1_555
Cu6 O49 2.001034 1_555
Cu7 O82 1.931152 1_555
Cu7 O70 1.933254 1_554
Cu7 O29 1.998856 1_555
Cu7 O48 2.001034 1_555
O0 Si3 1.630987 1_555
O0 Si14 1.656511 1_545
O1 Si2 1.630987 1_555
O1 Si15 1.656511 1_555
O2 Si1 1.630987 1_555
O2 Si12 1.656511 1_565
O3 Si0 1.630987 1_555
O3 Si13 1.656511 1_555
O4 Si7 1.630987 1_555
O4 Si10 1.656511 1_565
O5 Si6 1.630987 1_555
O5 Si11 1.656511 1_555
O6 Si5 1.630987 1_555
O6 Si8 1.656511 1_545
O7 Si4 1.630987 1_555
O7 Si9 1.656511 1_555
O8 Si9 1.645120 1_555
O8 Si23 1.650330 1_555
O9 Si8 1.645120 1_555
O9 Si22 1.650330 1_655
O10 Si11 1.645120 1_555
O10 Si21 1.650330 1_455
O11 Si10 1.645120 1_555
O11 Si20 1.650330 1_555
O12 Si13 1.645120 1_555
O12 Si19 1.650330 1_555
O13 Si12 1.645120 1_555
O13 Si18 1.650330 1_455
O14 Si15 1.645120 1_555
O14 Si17 1.650330 1_655
O15 Si14 1.645120 1_555
O15 Si16 1.650330 1_555
O16 Si5 1.626483 1_556
O16 Si18 1.659560 1_555
O17 Si4 1.626483 1_554
O17 Si19 1.659560 1_555
O18 Si7 1.626483 1_555
O18 Si16 1.659560 1_555
O19 Si6 1.626483 1_555
O19 Si17 1.659560 1_555
O20 Si1 1.626483 1_554
O20 Si22 1.659560 1_555
O21 Si0 1.626483 1_556
O21 Si23 1.659560 1_555
O22 Si3 1.626483 1_555
O22 Si20 1.659560 1_555
O23 Si2 1.626483 1_555
O23 Si21 1.659560 1_555
O24 Si19 1.595464 1_555
O25 Si18 1.595464 1_555
O26 Si17 1.595464 1_555
O27 Si16 1.595464 1_555
O28 Si23 1.595464 1_555
O29 Si22 1.595464 1_555
O30 Si21 1.595464 1_555
O31 Si20 1.595464 1_555
O32 Si1 1.631240 1_555
O32 Si27 1.660184 1_555
O33 Si0 1.631240 1_555
O33 Si26 1.660184 1_555
O34 Si3 1.631240 1_555
O34 Si25 1.660184 1_555
O35 Si2 1.631240 1_555
O35 Si24 1.660184 1_555
O36 Si5 1.631240 1_555
O36 Si31 1.660184 1_555
O37 Si4 1.631240 1_555
O37 Si30 1.660184 1_555
O38 Si7 1.631240 1_555
O38 Si29 1.660184 1_555
O39 Si6 1.631240 1_555
O39 Si28 1.660184 1_555
O40 Si10 1.638366 1_555
O40 Si33 1.638561 1_555
O41 Si11 1.638366 1_555
O41 Si32 1.638561 1_555
O42 Si8 1.638366 1_555
O42 Si35 1.638561 1_555
O43 Si9 1.638366 1_555
O43 Si34 1.638561 1_555
O44 Si14 1.638366 1_555
O44 Si37 1.638561 1_555
O45 Si15 1.638366 1_555
O45 Si36 1.638561 1_555
O46 Si12 1.638366 1_555
O46 Si39 1.638561 1_555
O47 Si13 1.638366 1_555
O47 Si38 1.638561 1_555
O48 Si26 1.590960 1_555
O49 Si27 1.590960 1_545
O50 Si24 1.590960 1_555
O51 Si25 1.590960 1_565
O52 Si30 1.590960 1_555
O53 Si31 1.590960 1_565
O54 Si28 1.590960 1_555
O55 Si29 1.590960 1_545
O56 Si35 1.645955 1_455
O56 Si29 1.652000 1_555
O57 Si34 1.645955 1_555
O57 Si28 1.652000 1_555
O58 Si33 1.645955 1_555
O58 Si31 1.652000 1_555
O59 Si32 1.645955 1_655
O59 Si30 1.652000 1_555
O60 Si39 1.645955 1_655
O60 Si25 1.652000 1_555
O61 Si38 1.645955 1_555
O61 Si24 1.652000 1_555
O62 Si37 1.645955 1_555
O62 Si27 1.652000 1_555
O63 Si36 1.645955 1_455
O63 Si26 1.652000 1_555
O64 Si38 1.594433 1_555
O65 Si39 1.594433 1_555
O66 Si36 1.594433 1_555
O67 Si37 1.594433 1_555
O68 Si34 1.594433 1_555
O69 Si35 1.594433 1_555
O70 Si32 1.594433 1_555
O71 Si33 1.594433 1_555
O72 Si6 1.625598 1_555
O72 Si39 1.649238 1_555
O73 Si7 1.625598 1_555
O73 Si38 1.649238 1_555
O74 Si4 1.625598 1_555
O74 Si37 1.649238 1_555
O75 Si5 1.625598 1_555
O75 Si36 1.649238 1_555
O76 Si2 1.625598 1_555
O76 Si35 1.649238 1_555
O77 Si3 1.625598 1_555
O77 Si34 1.649238 1_555
O78 Si0 1.625598 1_555
O78 Si33 1.649238 1_555
O79 Si1 1.625598 1_555
O79 Si32 1.649238 1_555
O80 Si15 1.595354 1_555
O81 Si14 1.595354 1_555
O82 Si13 1.595354 1_555
O83 Si12 1.595354 1_555
O84 Si11 1.595354 1_555
O85 Si10 1.595354 1_555
O86 Si9 1.595354 1_555
O87 Si8 1.595354 1_555
O88 Si30 1.655726 1_555
O88 Si21 1.656487 1_555
O89 Si31 1.655726 1_555
O89 Si20 1.656487 1_555
O90 Si28 1.655726 1_555
O90 Si23 1.656487 1_555
O91 Si29 1.655726 1_555
O91 Si22 1.656487 1_555
O92 Si26 1.655726 1_555
O92 Si17 1.656487 1_555
O93 Si27 1.655726 1_555
O93 Si16 1.656487 1_555
O94 Si24 1.655726 1_555
O94 Si19 1.656487 1_555
O95 Si25 1.655726 1_555
O95 Si18 1.656487 1_555
