# generated using pymatgen
data_Er2Cu(B2O5)2
_symmetry_space_group_name_H-M   'P 1'
_cell_length_a   7.26863400
_cell_length_b   4.59348300
_cell_length_c   9.34457750
_cell_angle_alpha   89.61178448
_cell_angle_beta   90.00000000
_cell_angle_gamma   90.00000000
_symmetry_Int_Tables_number   1
_chemical_formula_structural   Er2Cu(B2O5)2
_chemical_formula_sum   'Er4 Cu2 B8 O20'
_cell_volume   311.99283165
_cell_formula_units_Z   2
loop_
 _symmetry_equiv_pos_site_id
 _symmetry_equiv_pos_as_xyz
  1  'x, y, z'
loop_
 _atom_site_type_symbol
 _atom_site_label
 _atom_site_symmetry_multiplicity
 _atom_site_fract_x
 _atom_site_fract_y
 _atom_site_fract_z
 _atom_site_occupancy
  Er  Er0  1  0.39601400  0.00371600  0.83495400  1
  Er  Er1  1  0.89601400  0.99628400  0.66504600  1
  Er  Er2  1  0.10398600  0.00371600  0.33495400  1
  Er  Er3  1  0.60398600  0.99628400  0.16504600  1
  Cu  Cu0  1  0.00000000  0.00000000  0.00000000  1
  Cu  Cu1  1  0.50000000  0.00000000  0.50000000  1
  B  B0  1  0.26833700  0.53941300  0.08036100  1
  B  B1  1  0.76833700  0.46058700  0.41963900  1
  B  B2  1  0.73166300  0.46058700  0.91963900  1
  B  B3  1  0.23166300  0.53941300  0.58036100  1
  B  B4  1  0.59837900  0.52820800  0.66237100  1
  B  B5  1  0.09837900  0.47179200  0.83762900  1
  B  B6  1  0.90162100  0.52820800  0.16237100  1
  B  B7  1  0.40162100  0.47179200  0.33762900  1
  O  O0  1  0.22265200  0.35853200  0.95222700  1
  O  O1  1  0.72265200  0.64146800  0.54777300  1
  O  O2  1  0.83516900  0.65799400  0.30076000  1
  O  O3  1  0.33516900  0.34200600  0.19924000  1
  O  O4  1  0.16483100  0.34200600  0.69924000  1
  O  O5  1  0.66483100  0.65799400  0.80076000  1
  O  O6  1  0.08785900  0.67736800  0.13822400  1
  O  O7  1  0.58785900  0.32263200  0.36177600  1
  O  O8  1  0.91214100  0.32263200  0.86177600  1
  O  O9  1  0.41214100  0.67736800  0.63822400  1
  O  O10  1  0.91055600  0.21423700  0.16644600  1
  O  O11  1  0.41055600  0.78576300  0.33355400  1
  O  O12  1  0.08944400  0.78576300  0.83355400  1
  O  O13  1  0.58944400  0.21423700  0.66644600  1
  O  O14  1  0.11086200  0.77127700  0.54176800  1
  O  O15  1  0.61086200  0.22872300  0.95823200  1
  O  O16  1  0.88913800  0.22872300  0.45823200  1
  O  O17  1  0.38913800  0.77127700  0.04176800  1
  O  O18  1  0.77734800  0.64146800  0.04777300  1
  O  O19  1  0.27734800  0.35853200  0.45222700  1
loop_
_geom_bond_atom_site_label_1
_geom_bond_atom_site_label_2
_geom_bond_distance
_geom_bond_site_symmetry_2
Er0 O17 2.202142 1_546
Er0 O15 2.202319 1_555
Er0 O13 2.317485 1_555
Er0 O0 2.338669 1_555
Er0 O9 2.382828 1_545
Er0 O12 2.442990 1_545
Er0 O5 2.539446 1_545
Er0 O4 2.611511 1_555
Er1 O16 2.202142 1_565
Er1 O14 2.202319 1_655
Er1 O12 2.317485 1_655
Er1 O1 2.338669 1_555
Er1 O8 2.382828 1_565
Er1 O13 2.442990 1_565
Er1 O4 2.539446 1_665
Er1 O5 2.611511 1_555
Er2 O14 2.202142 1_545
Er2 O16 2.202319 1_455
Er2 O10 2.317485 1_455
Er2 O19 2.338669 1_555
Er2 O6 2.382828 1_545
Er2 O11 2.442990 1_545
Er2 O2 2.539446 1_445
Er2 O3 2.611511 1_555
Er3 O15 2.202142 1_564
Er3 O17 2.202319 1_555
Er3 O11 2.317485 1_555
Er3 O18 2.338669 1_555
Er3 O7 2.382828 1_565
Er3 O10 2.442990 1_565
Er3 O3 2.539446 1_565
Er3 O2 2.611511 1_555
Cu0 O12 1.957301 1_544
Cu0 O10 1.957301 1_455
Cu0 O6 2.060722 1_545
Cu0 O8 2.060722 1_454
Cu0 O18 2.349634 1_445
Cu0 O0 2.349634 1_554
Cu1 O13 1.957301 1_555
Cu1 O11 1.957301 1_545
Cu1 O7 2.060722 1_555
Cu1 O9 2.060722 1_545
Cu1 O1 2.349634 1_545
Cu1 O19 2.349634 1_555
B0 O17 1.424851 1_555
B0 O0 1.499256 1_554
B0 O3 1.509513 1_555
B0 O6 1.555464 1_555
B1 O16 1.424851 1_555
B1 O1 1.499256 1_555
B1 O2 1.509513 1_555
B1 O7 1.555464 1_555
B2 O15 1.424851 1_555
B2 O18 1.499256 1_556
B2 O5 1.509513 1_555
B2 O8 1.555464 1_555
B3 O14 1.424851 1_555
B3 O19 1.499256 1_555
B3 O4 1.509513 1_555
B3 O9 1.555464 1_555
B4 O13 1.443926 1_555
B4 O1 1.491919 1_555
B4 O5 1.507150 1_555
B4 O9 1.533219 1_555
B5 O12 1.443926 1_555
B5 O0 1.491919 1_555
B5 O4 1.507150 1_555
B5 O8 1.533219 1_455
B6 O10 1.443926 1_555
B6 O18 1.491919 1_555
B6 O2 1.507150 1_555
B6 O6 1.533219 1_655
B7 O11 1.443926 1_555
B7 O19 1.491919 1_555
B7 O3 1.507150 1_555
B7 O7 1.533219 1_555
