# generated using pymatgen
data_Ca16Mg3Sn13
_symmetry_space_group_name_H-M   'P 1'
_cell_length_a   9.25549085
_cell_length_b   9.25549085
_cell_length_c   17.53042200
_cell_angle_alpha   90.00000000
_cell_angle_beta   90.00000000
_cell_angle_gamma   141.85994076
_symmetry_Int_Tables_number   1
_chemical_formula_structural   Ca16Mg3Sn13
_chemical_formula_sum   'Ca16 Mg3 Sn13'
_cell_volume   927.44608038
_cell_formula_units_Z   1
loop_
 _symmetry_equiv_pos_site_id
 _symmetry_equiv_pos_as_xyz
  1  'x, y, z'
loop_
 _atom_site_type_symbol
 _atom_site_label
 _atom_site_symmetry_multiplicity
 _atom_site_fract_x
 _atom_site_fract_y
 _atom_site_fract_z
 _atom_site_occupancy
  Ca  Ca0  1  0.06762400  0.43371600  0.39880800  1
  Ca  Ca1  1  0.56715600  0.93277300  0.89994700  1
  Ca  Ca2  1  0.43371600  0.06762400  0.60119200  1
  Ca  Ca3  1  0.93277300  0.56715600  0.10005300  1
  Ca  Ca4  1  0.85033800  0.64950100  0.68341700  1
  Ca  Ca5  1  0.35025400  0.14884100  0.18238700  1
  Ca  Ca6  1  0.64950100  0.85033800  0.31658300  1
  Ca  Ca7  1  0.14884100  0.35025400  0.81761300  1
  Ca  Ca8  1  0.64950100  0.85033800  0.68341700  1
  Ca  Ca9  1  0.14884100  0.35025400  0.18238700  1
  Ca  Ca10  1  0.85033800  0.64950100  0.31658300  1
  Ca  Ca11  1  0.35025400  0.14884100  0.81761300  1
  Ca  Ca12  1  0.43371600  0.06762400  0.39880800  1
  Ca  Ca13  1  0.93277300  0.56715600  0.89994700  1
  Ca  Ca14  1  0.06762400  0.43371600  0.60119200  1
  Ca  Ca15  1  0.56715600  0.93277300  0.10005300  1
  Mg  Mg0  1  0.50021200  0.50021200  0.00000000  1
  Mg  Mg1  1  0.49944000  0.49944000  0.50000000  1
  Mg  Mg2  1  0.99971400  0.99971400  0.00000000  1
  Sn  Sn0  1  0.25208700  0.25208700  0.65317100  1
  Sn  Sn1  1  0.74899300  0.74899300  0.15355300  1
  Sn  Sn2  1  0.25208700  0.25208700  0.34682900  1
  Sn  Sn3  1  0.74899300  0.74899300  0.84644700  1
  Sn  Sn4  1  0.59548500  0.90261300  0.50000000  1
  Sn  Sn5  1  0.09687800  0.40223900  0.00000000  1
  Sn  Sn6  1  0.90261300  0.59548500  0.50000000  1
  Sn  Sn7  1  0.40223900  0.09687800  0.00000000  1
  Sn  Sn8  1  0.25011700  0.74983800  0.74959900  1
  Sn  Sn9  1  0.74983800  0.25011700  0.25040100  1
  Sn  Sn10  1  0.74983800  0.25011700  0.74959900  1
  Sn  Sn11  1  0.25011700  0.74983800  0.25040100  1
  Sn  Sn12  1  0.00094400  0.00094400  0.50000000  1
loop_
_geom_bond_atom_site_label_1
_geom_bond_atom_site_label_2
_geom_bond_distance
_geom_bond_site_symmetry_2
Ca0 Sn11 3.226202 1_555
Ca0 Sn9 3.231895 1_455
Ca0 Sn2 3.329534 1_555
Ca0 Sn6 3.364240 1_455
Ca0 Sn4 3.535279 1_555
Ca0 Sn4 3.552011 1_445
Ca1 Sn8 3.257105 1_555
Ca1 Sn10 3.258939 1_565
Ca1 Sn3 3.332937 1_555
Ca1 Sn7 3.370473 1_566
Ca1 Sn5 3.533255 1_666
Ca1 Sn5 3.537456 1_556
Ca2 Sn10 3.226202 1_555
Ca2 Sn8 3.231895 1_545
Ca2 Sn0 3.329534 1_555
Ca2 Sn4 3.364240 1_545
Ca2 Sn6 3.535279 1_555
Ca2 Sn6 3.552011 1_445
Ca3 Sn9 3.257105 1_555
Ca3 Sn11 3.258939 1_655
Ca3 Sn1 3.332937 1_555
Ca3 Sn5 3.370473 1_655
Ca3 Sn7 3.533255 1_665
Ca3 Sn7 3.537456 1_555
Ca4 Sn10 3.235235 1_555
Ca4 Sn8 3.239509 1_655
Ca4 Sn6 3.347115 1_555
Ca4 Sn3 3.354782 1_555
Ca4 Sn0 3.526043 1_555
Ca4 Sn0 3.548457 1_665
Ca5 Sn9 3.244212 1_555
Ca5 Sn11 3.245717 1_545
Ca5 Sn7 3.324105 1_555
Ca5 Sn2 3.378550 1_555
Ca5 Sn1 3.533258 1_555
Ca5 Sn1 3.538994 1_445
Ca6 Sn11 3.235235 1_555
Ca6 Sn9 3.239509 1_565
Ca6 Sn4 3.347115 1_555
Ca6 Sn1 3.354782 1_555
Ca6 Sn2 3.526043 1_555
Ca6 Sn2 3.548457 1_665
Ca7 Sn8 3.244212 1_555
Ca7 Sn10 3.245717 1_455
Ca7 Sn5 3.324105 1_556
Ca7 Sn0 3.378550 1_555
Ca7 Sn3 3.533258 1_555
Ca7 Sn3 3.538994 1_445
Ca8 Sn8 3.235235 1_555
Ca8 Sn10 3.239509 1_565
Ca8 Sn4 3.347115 1_555
Ca8 Sn3 3.354782 1_555
Ca8 Sn0 3.526043 1_555
Ca8 Sn0 3.548457 1_665
Ca9 Sn11 3.244212 1_555
Ca9 Sn9 3.245717 1_455
Ca9 Sn5 3.324105 1_555
Ca9 Sn2 3.378550 1_555
Ca9 Sn1 3.533258 1_555
Ca9 Sn1 3.538994 1_445
Ca10 Sn9 3.235235 1_555
Ca10 Sn11 3.239509 1_655
Ca10 Sn6 3.347115 1_555
Ca10 Sn1 3.354782 1_555
Ca10 Sn2 3.526043 1_555
Ca10 Sn2 3.548457 1_665
Ca11 Sn10 3.244212 1_555
Ca11 Sn8 3.245717 1_545
Ca11 Sn7 3.324105 1_556
Ca11 Sn0 3.378550 1_555
Ca11 Sn3 3.533258 1_555
Ca11 Sn3 3.538994 1_445
Ca12 Sn9 3.226202 1_555
Ca12 Sn11 3.231895 1_545
Ca12 Sn2 3.329534 1_555
Ca12 Sn4 3.364240 1_545
Ca12 Sn6 3.535279 1_555
Ca12 Sn6 3.552011 1_445
Ca13 Sn10 3.257105 1_555
Ca13 Sn8 3.258939 1_655
Ca13 Sn3 3.332937 1_555
Ca13 Sn5 3.370473 1_656
Ca13 Sn7 3.533255 1_666
Ca13 Sn7 3.537456 1_556
Ca14 Sn8 3.226202 1_555
Ca14 Sn10 3.231895 1_455
Ca14 Sn0 3.329534 1_555
Ca14 Sn6 3.364240 1_455
Ca14 Sn4 3.535279 1_555
Ca14 Sn4 3.552011 1_445
Ca15 Sn11 3.257105 1_555
Ca15 Sn9 3.258939 1_565
Ca15 Sn1 3.332937 1_555
Ca15 Sn7 3.370473 1_565
Ca15 Sn5 3.533255 1_665
Ca15 Sn5 3.537456 1_555
Mg0 Sn7 3.071350 1_555
Mg0 Sn5 3.071350 1_555
Mg0 Sn1 3.083818 1_555
Mg0 Sn3 3.083818 1_554
Mg1 Sn12 3.014891 1_555
Mg1 Sn12 3.033083 1_665
Mg1 Sn0 3.073762 1_555
Mg1 Sn2 3.073762 1_555
Mg1 Sn6 3.081703 1_555
Mg1 Sn4 3.081703 1_555
Mg2 Sn7 3.068938 1_665
Mg2 Sn5 3.068938 1_665
Mg2 Sn1 3.089560 1_555
Mg2 Sn3 3.089560 1_554
Sn0 Sn12 3.084983 1_555
Sn10 Sn8 3.023991 1_545
Sn10 Sn8 3.023991 1_655
Sn11 Sn9 3.023991 1_565
Sn11 Sn9 3.023991 1_455
Sn12 Sn2 3.084983 1_555
Sn12 Sn4 3.088499 1_445
Sn12 Sn6 3.088499 1_445
