# generated using pymatgen
data_Ca2Mg
_symmetry_space_group_name_H-M   'P 1'
_cell_length_a   13.95947184
_cell_length_b   13.95947184
_cell_length_c   17.86914765
_cell_angle_alpha   70.48177075
_cell_angle_beta   70.48177075
_cell_angle_gamma   31.36234423
_symmetry_Int_Tables_number   1
_chemical_formula_structural   Ca2Mg
_chemical_formula_sum   'Ca32 Mg16'
_cell_volume   1699.63673820
_cell_formula_units_Z   16
loop_
 _symmetry_equiv_pos_site_id
 _symmetry_equiv_pos_as_xyz
  1  'x, y, z'
loop_
 _atom_site_type_symbol
 _atom_site_label
 _atom_site_symmetry_multiplicity
 _atom_site_fract_x
 _atom_site_fract_y
 _atom_site_fract_z
 _atom_site_occupancy
  Ca  Ca0_0  1  0.16461287  0.16461287  0.06264280  1
  Ca  Ca0_1  1  0.16461287  0.16461287  0.56264279  1
  Ca  Ca0_2  1  0.16461287  0.66461287  0.06264280  1
  Ca  Ca0_3  1  0.16461287  0.66461287  0.56264280  1
  Ca  Ca0_4  1  0.66461287  0.16461287  0.06264280  1
  Ca  Ca0_5  1  0.66461287  0.16461287  0.56264280  1
  Ca  Ca0_6  1  0.66461287  0.66461287  0.06264280  1
  Ca  Ca0_7  1  0.66461287  0.66461287  0.56264280  1
  Ca  Ca1_0  1  0.01426502  0.01426502  0.13863010  1
  Ca  Ca1_1  1  0.01426502  0.01426502  0.63863010  1
  Ca  Ca1_2  1  0.01426502  0.51426502  0.13863010  1
  Ca  Ca1_3  1  0.01426502  0.51426502  0.63863010  1
  Ca  Ca1_4  1  0.51426502  0.01426502  0.13863010  1
  Ca  Ca1_5  1  0.51426502  0.01426502  0.63863010  1
  Ca  Ca1_6  1  0.51426502  0.51426502  0.13863010  1
  Ca  Ca1_7  1  0.51426502  0.51426502  0.63863010  1
  Ca  Ca2_0  1  0.48573498  0.48573498  0.36136990  1
  Ca  Ca2_1  1  0.48573498  0.48573498  0.86136990  1
  Ca  Ca2_2  1  0.48573498  0.98573498  0.36136990  1
  Ca  Ca2_3  1  0.48573498  0.98573498  0.86136990  1
  Ca  Ca2_4  1  0.98573498  0.48573498  0.36136990  1
  Ca  Ca2_5  1  0.98573498  0.48573498  0.86136990  1
  Ca  Ca2_6  1  0.98573498  0.98573498  0.36136990  1
  Ca  Ca2_7  1  0.98573498  0.98573498  0.86136990  1
  Ca  Ca3_0  1  0.33538713  0.33538713  0.43735721  1
  Ca  Ca3_1  1  0.33538713  0.33538713  0.93735721  1
  Ca  Ca3_2  1  0.33538713  0.83538713  0.43735721  1
  Ca  Ca3_3  1  0.33538713  0.83538713  0.93735721  1
  Ca  Ca3_4  1  0.83538713  0.33538713  0.43735721  1
  Ca  Ca3_5  1  0.83538713  0.33538713  0.93735721  1
  Ca  Ca3_6  1  0.83538713  0.83538713  0.43735721  1
  Ca  Ca3_7  1  0.83538713  0.83538713  0.93735721  1
  Mg  Mg0_0  1  0.33653896  0.33653896  0.22906134  1
  Mg  Mg0_1  1  0.33653896  0.33653896  0.72906134  1
  Mg  Mg0_2  1  0.33653896  0.83653896  0.22906134  1
  Mg  Mg0_3  1  0.33653896  0.83653896  0.72906134  1
  Mg  Mg0_4  1  0.83653896  0.33653896  0.22906134  1
  Mg  Mg0_5  1  0.83653896  0.33653896  0.72906134  1
  Mg  Mg0_6  1  0.83653897  0.83653897  0.22906134  1
  Mg  Mg0_7  1  0.83653897  0.83653897  0.72906134  1
  Mg  Mg1_0  1  0.16346104  0.16346104  0.27093866  1
  Mg  Mg1_1  1  0.16346104  0.16346103  0.77093866  1
  Mg  Mg1_2  1  0.16346104  0.66346103  0.27093866  1
  Mg  Mg1_3  1  0.16346104  0.66346103  0.77093866  1
  Mg  Mg1_4  1  0.66346103  0.16346104  0.27093866  1
  Mg  Mg1_5  1  0.66346103  0.16346103  0.77093866  1
  Mg  Mg1_6  1  0.66346103  0.66346103  0.27093866  1
  Mg  Mg1_7  1  0.66346104  0.66346103  0.77093866  1
loop_
_geom_bond_atom_site_label_1
_geom_bond_atom_site_label_2
_geom_bond_distance
_geom_bond_site_symmetry_2
Ca0_0 Mg0_4 3.531991 1_455
Ca0_0 Mg0_2 3.531991 1_545
Ca0_0 Mg1_0 3.711439 1_555
Ca0_0 Ca0_6 3.773023 1_455
Ca0_0 Ca0_6 3.773023 1_545
Ca0_0 Ca1_0 3.790444 1_555
Ca0_0 Ca1_2 3.886132 1_555
Ca0_0 Ca1_4 3.886132 1_555
Ca0_0 Ca2_5 3.921349 1_454
Ca0_0 Ca2_3 3.921349 1_544
Ca0_0 Ca3_3 4.051532 1_544
Ca0_0 Ca3_5 4.051532 1_454
Ca0_1 Mg0_3 3.531991 1_545
Ca0_1 Mg0_5 3.531991 1_455
Ca0_1 Mg1_1 3.711439 1_555
Ca0_1 Ca0_7 3.773023 1_455
Ca0_1 Ca0_7 3.773023 1_545
Ca0_1 Ca1_1 3.790444 1_555
Ca0_1 Ca1_3 3.886132 1_555
Ca0_1 Ca1_5 3.886132 1_555
Ca0_1 Ca2_2 3.921349 1_545
Ca0_1 Ca2_4 3.921349 1_455
Ca0_1 Ca3_2 4.051532 1_545
Ca0_1 Ca3_4 4.051532 1_455
Ca0_2 Mg0_6 3.531991 1_455
Ca0_2 Mg0_0 3.531991 1_555
Ca0_2 Mg1_2 3.711439 1_555
Ca0_2 Ca0_4 3.773023 1_465
Ca0_2 Ca0_4 3.773023 1_555
Ca0_2 Ca1_2 3.790444 1_555
Ca0_2 Ca1_0 3.886132 1_565
Ca0_2 Ca1_6 3.886132 1_555
Ca0_2 Ca2_1 3.921349 1_554
Ca0_2 Ca2_7 3.921349 1_454
Ca0_2 Ca3_7 4.051532 1_454
Ca0_2 Ca3_1 4.051532 1_554
Ca0_3 Mg0_1 3.531991 1_555
Ca0_3 Mg0_7 3.531991 1_455
Ca0_3 Mg1_3 3.711439 1_555
Ca0_3 Ca0_5 3.773023 1_465
Ca0_3 Ca0_5 3.773023 1_555
Ca0_3 Ca1_3 3.790444 1_555
Ca0_3 Ca1_7 3.886132 1_555
Ca0_3 Ca1_1 3.886132 1_565
Ca0_3 Ca2_0 3.921349 1_555
Ca0_3 Ca2_6 3.921349 1_455
Ca0_3 Ca3_6 4.051532 1_455
Ca0_3 Ca3_0 4.051532 1_555
Ca0_4 Mg0_6 3.531991 1_545
Ca0_4 Mg0_0 3.531991 1_555
Ca0_4 Mg1_4 3.711439 1_555
Ca0_4 Ca1_4 3.790444 1_555
Ca0_4 Ca1_0 3.886132 1_655
Ca0_4 Ca1_6 3.886132 1_555
Ca0_4 Ca2_1 3.921349 1_554
Ca0_4 Ca2_7 3.921349 1_544
Ca0_4 Ca3_7 4.051532 1_544
Ca0_4 Ca3_1 4.051532 1_554
Ca0_5 Mg0_1 3.531991 1_555
Ca0_5 Mg0_7 3.531991 1_545
Ca0_5 Mg1_5 3.711439 1_555
Ca0_5 Ca1_5 3.790444 1_555
Ca0_5 Ca1_7 3.886132 1_555
Ca0_5 Ca1_1 3.886132 1_655
Ca0_5 Ca2_0 3.921349 1_555
Ca0_5 Ca2_6 3.921349 1_545
Ca0_5 Ca3_6 4.051532 1_545
Ca0_5 Ca3_0 4.051532 1_555
Ca0_6 Mg0_2 3.531991 1_555
Ca0_6 Mg0_4 3.531991 1_555
Ca0_6 Mg1_6 3.711439 1_555
Ca0_6 Ca1_6 3.790444 1_555
Ca0_6 Ca1_2 3.886132 1_655
Ca0_6 Ca1_4 3.886132 1_565
Ca0_6 Ca2_5 3.921349 1_554
Ca0_6 Ca2_3 3.921349 1_554
Ca0_6 Ca3_3 4.051532 1_554
Ca0_6 Ca3_5 4.051532 1_554
Ca0_7 Mg0_3 3.531991 1_555
Ca0_7 Mg0_5 3.531991 1_555
Ca0_7 Mg1_7 3.711439 1_555
Ca0_7 Ca1_7 3.790444 1_555
Ca0_7 Ca1_3 3.886132 1_655
Ca0_7 Ca1_5 3.886132 1_565
Ca0_7 Ca2_2 3.921349 1_555
Ca0_7 Ca2_4 3.921349 1_555
Ca0_7 Ca3_2 4.051532 1_555
Ca0_7 Ca3_4 4.051532 1_555
Ca1_0 Mg1_4 3.470491 1_455
Ca1_0 Mg1_2 3.470491 1_545
Ca1_0 Mg0_2 3.481822 1_545
Ca1_0 Mg0_4 3.481822 1_455
Ca1_0 Ca3_5 3.921349 1_454
Ca1_0 Ca3_3 3.921349 1_544
Ca1_1 Mg1_5 3.470491 1_455
Ca1_1 Mg1_3 3.470491 1_545
Ca1_1 Mg0_5 3.481822 1_455
Ca1_1 Mg0_3 3.481822 1_545
Ca1_1 Ca3_2 3.921349 1_545
Ca1_1 Ca3_4 3.921349 1_455
Ca1_2 Mg1_0 3.470491 1_555
Ca1_2 Mg1_6 3.470491 1_455
Ca1_2 Mg0_0 3.481822 1_555
Ca1_2 Mg0_6 3.481822 1_455
Ca1_2 Ca3_7 3.921349 1_454
Ca1_2 Ca3_1 3.921349 1_554
Ca1_3 Mg1_7 3.470491 1_455
Ca1_3 Mg1_1 3.470491 1_555
Ca1_3 Mg0_1 3.481822 1_555
Ca1_3 Mg0_7 3.481822 1_455
Ca1_3 Ca3_6 3.921349 1_455
Ca1_3 Ca3_0 3.921349 1_555
Ca1_4 Mg1_0 3.470491 1_555
Ca1_4 Mg1_6 3.470491 1_545
Ca1_4 Mg0_0 3.481822 1_555
Ca1_4 Mg0_6 3.481822 1_545
Ca1_4 Ca3_7 3.921349 1_544
Ca1_4 Ca3_1 3.921349 1_554
Ca1_5 Mg1_1 3.470491 1_555
Ca1_5 Mg1_7 3.470491 1_545
Ca1_5 Mg0_1 3.481822 1_555
Ca1_5 Mg0_7 3.481822 1_545
Ca1_5 Ca3_6 3.921349 1_545
Ca1_5 Ca3_0 3.921349 1_555
Ca1_6 Mg1_4 3.470491 1_555
Ca1_6 Mg1_2 3.470491 1_555
Ca1_6 Mg0_4 3.481822 1_555
Ca1_6 Mg0_2 3.481822 1_555
Ca1_6 Ca3_5 3.921349 1_554
Ca1_6 Ca3_3 3.921349 1_554
Ca1_7 Mg1_3 3.470491 1_555
Ca1_7 Mg1_5 3.470491 1_555
Ca1_7 Mg0_5 3.481822 1_555
Ca1_7 Mg0_3 3.481822 1_555
Ca1_7 Ca3_2 3.921349 1_555
Ca1_7 Ca3_4 3.921349 1_555
Ca2_0 Mg0_4 3.470491 1_555
Ca2_0 Mg0_2 3.470491 1_555
Ca2_0 Mg1_2 3.481822 1_555
Ca2_0 Mg1_4 3.481822 1_555
Ca2_0 Ca3_0 3.790444 1_555
Ca2_0 Ca3_2 3.886132 1_555
Ca2_0 Ca3_4 3.886132 1_555
Ca2_1 Mg0_5 3.470491 1_555
Ca2_1 Mg0_3 3.470491 1_555
Ca2_1 Mg1_3 3.481822 1_555
Ca2_1 Mg1_5 3.481822 1_555
Ca2_1 Ca3_1 3.790444 1_555
Ca2_1 Ca3_5 3.886132 1_555
Ca2_1 Ca3_3 3.886132 1_555
Ca2_2 Mg0_0 3.470491 1_565
Ca2_2 Mg0_6 3.470491 1_555
Ca2_2 Mg1_0 3.481822 1_565
Ca2_2 Mg1_6 3.481822 1_555
Ca2_2 Ca3_2 3.790444 1_555
Ca2_2 Ca3_6 3.886132 1_555
Ca2_2 Ca3_0 3.886132 1_565
Ca2_3 Mg0_1 3.470491 1_565
Ca2_3 Mg0_7 3.470491 1_555
Ca2_3 Mg1_1 3.481822 1_565
Ca2_3 Mg1_7 3.481822 1_555
Ca2_3 Ca3_3 3.790444 1_555
Ca2_3 Ca3_1 3.886132 1_565
Ca2_3 Ca3_7 3.886132 1_555
Ca2_4 Mg0_0 3.470491 1_655
Ca2_4 Mg0_6 3.470491 1_555
Ca2_4 Mg1_0 3.481822 1_655
Ca2_4 Mg1_6 3.481822 1_555
Ca2_4 Ca3_4 3.790444 1_555
Ca2_4 Ca3_0 3.886132 1_655
Ca2_4 Ca3_6 3.886132 1_555
Ca2_5 Mg0_1 3.470491 1_655
Ca2_5 Mg0_7 3.470491 1_555
Ca2_5 Mg1_7 3.481822 1_555
Ca2_5 Mg1_1 3.481822 1_655
Ca2_5 Ca3_5 3.790444 1_555
Ca2_5 Ca3_1 3.886132 1_655
Ca2_5 Ca3_7 3.886132 1_555
Ca2_6 Mg0_2 3.470491 1_655
Ca2_6 Mg0_4 3.470491 1_565
Ca2_6 Mg1_2 3.481822 1_655
Ca2_6 Mg1_4 3.481822 1_565
Ca2_6 Ca3_6 3.790444 1_555
Ca2_6 Ca3_2 3.886132 1_655
Ca2_6 Ca3_4 3.886132 1_565
Ca2_7 Mg0_5 3.470491 1_565
Ca2_7 Mg0_3 3.470491 1_655
Ca2_7 Mg1_5 3.481822 1_565
Ca2_7 Mg1_3 3.481822 1_655
Ca2_7 Ca3_7 3.790444 1_555
Ca2_7 Ca3_5 3.886132 1_565
Ca2_7 Ca3_3 3.886132 1_655
Ca3_0 Mg1_2 3.531991 1_555
Ca3_0 Mg1_4 3.531991 1_555
Ca3_0 Mg0_0 3.711439 1_555
Ca3_0 Ca3_6 3.773023 1_455
Ca3_0 Ca3_6 3.773023 1_545
Ca3_1 Mg1_5 3.531991 1_555
Ca3_1 Mg1_3 3.531991 1_555
Ca3_1 Mg0_1 3.711439 1_555
Ca3_1 Ca3_7 3.773023 1_455
Ca3_1 Ca3_7 3.773023 1_545
Ca3_2 Mg1_6 3.531991 1_555
Ca3_2 Mg1_0 3.531991 1_565
Ca3_2 Mg0_2 3.711439 1_555
Ca3_2 Ca3_4 3.773023 1_555
Ca3_2 Ca3_4 3.773023 1_465
Ca3_3 Mg1_7 3.531991 1_555
Ca3_3 Mg1_1 3.531991 1_565
Ca3_3 Mg0_3 3.711439 1_555
Ca3_3 Ca3_5 3.773023 1_555
Ca3_3 Ca3_5 3.773023 1_465
Ca3_4 Mg1_6 3.531991 1_555
Ca3_4 Mg1_0 3.531991 1_655
Ca3_4 Mg0_4 3.711439 1_555
Ca3_5 Mg1_7 3.531991 1_555
Ca3_5 Mg1_1 3.531991 1_655
Ca3_5 Mg0_5 3.711439 1_555
Ca3_6 Mg1_2 3.531991 1_655
Ca3_6 Mg1_4 3.531991 1_565
Ca3_6 Mg0_6 3.711439 1_555
Ca3_7 Mg1_3 3.531991 1_655
Ca3_7 Mg1_5 3.531991 1_565
Ca3_7 Mg0_7 3.711439 1_555
Mg0_0 Mg1_4 3.077002 1_555
Mg0_0 Mg1_2 3.077002 1_555
Mg0_1 Mg1_5 3.077002 1_555
Mg0_1 Mg1_3 3.077002 1_555
Mg0_2 Mg1_6 3.077002 1_555
Mg0_2 Mg1_0 3.077002 1_565
Mg0_3 Mg1_7 3.077002 1_555
Mg0_3 Mg1_1 3.077002 1_565
Mg0_4 Mg1_6 3.077002 1_555
Mg0_4 Mg1_0 3.077002 1_655
Mg0_5 Mg1_7 3.077002 1_555
Mg0_5 Mg1_1 3.077002 1_655
Mg0_6 Mg1_2 3.077002 1_655
Mg0_6 Mg1_4 3.077002 1_565
Mg0_7 Mg1_5 3.077002 1_565
Mg0_7 Mg1_3 3.077002 1_655
