# generated using pymatgen
data_SrCa7Mn7CrO24
_symmetry_space_group_name_H-M   'P 1'
_cell_length_a   7.63098949
_cell_length_b   7.63098949
_cell_length_c   7.63098949
_cell_angle_alpha   90.02891833
_cell_angle_beta   90.02891833
_cell_angle_gamma   90.02891833
_symmetry_Int_Tables_number   1
_chemical_formula_structural   SrCa7Mn7CrO24
_chemical_formula_sum   'Sr1 Ca7 Mn7 Cr1 O24'
_cell_volume   444.36761400
_cell_formula_units_Z   1
loop_
 _symmetry_equiv_pos_site_id
 _symmetry_equiv_pos_as_xyz
  1  'x, y, z'
loop_
 _atom_site_type_symbol
 _atom_site_label
 _atom_site_symmetry_multiplicity
 _atom_site_fract_x
 _atom_site_fract_y
 _atom_site_fract_z
 _atom_site_occupancy
  Sr  Sr0  1  0.25234500  0.25234500  0.25234500  1
  Ca  Ca0  1  0.25340900  0.25340900  0.74652800  1
  Ca  Ca1  1  0.25340900  0.74652800  0.25340900  1
  Ca  Ca2  1  0.25392700  0.74653800  0.74653800  1
  Ca  Ca3  1  0.74652800  0.25340900  0.25340900  1
  Ca  Ca4  1  0.74653800  0.25392700  0.74653800  1
  Ca  Ca5  1  0.74653800  0.74653800  0.25392700  1
  Ca  Ca6  1  0.74608500  0.74608500  0.74608500  1
  Mn  Mn0  1  0.99943400  0.99943400  0.49989100  1
  Mn  Mn1  1  0.99943400  0.49989100  0.99943400  1
  Mn  Mn2  1  0.99949700  0.50051500  0.50051500  1
  Mn  Mn3  1  0.49989100  0.99943400  0.99943400  1
  Mn  Mn4  1  0.50051500  0.99949700  0.50051500  1
  Mn  Mn5  1  0.50051500  0.50051500  0.99949700  1
  Mn  Mn6  1  0.50048200  0.50048200  0.50048200  1
  Cr  Cr0  1  0.99835900  0.99835900  0.99835900  1
  O  O0  1  0.99710100  0.99710100  0.24609800  1
  O  O1  1  0.00011900  0.00011900  0.75432800  1
  O  O2  1  0.99696400  0.50299200  0.24934800  1
  O  O3  1  0.99958800  0.50089400  0.75067500  1
  O  O4  1  0.50299200  0.99696400  0.24934800  1
  O  O5  1  0.50089400  0.99958800  0.75067500  1
  O  O6  1  0.50304300  0.50304300  0.25036200  1
  O  O7  1  0.50058200  0.50058200  0.74969400  1
  O  O8  1  0.24609800  0.99710100  0.99710100  1
  O  O9  1  0.24934800  0.99696400  0.50299200  1
  O  O10  1  0.24934800  0.50299200  0.99696400  1
  O  O11  1  0.25036200  0.50304300  0.50304300  1
  O  O12  1  0.75432800  0.00011900  0.00011900  1
  O  O13  1  0.75067500  0.99958800  0.50089400  1
  O  O14  1  0.75067500  0.50089400  0.99958800  1
  O  O15  1  0.74969400  0.50058200  0.50058200  1
  O  O16  1  0.99710100  0.24609800  0.99710100  1
  O  O17  1  0.99696400  0.24934800  0.50299200  1
  O  O18  1  0.00011900  0.75432800  0.00011900  1
  O  O19  1  0.99958800  0.75067500  0.50089400  1
  O  O20  1  0.50299200  0.24934800  0.99696400  1
  O  O21  1  0.50304300  0.25036200  0.50304300  1
  O  O22  1  0.50089400  0.75067500  0.99958800  1
  O  O23  1  0.50058200  0.74969400  0.50058200  1
loop_
_geom_bond_atom_site_label_1
_geom_bond_atom_site_label_2
_geom_bond_distance
_geom_bond_site_symmetry_2
Ca0 O11 2.661813 1_555
Ca0 O21 2.661813 1_555
Ca0 O7 2.666873 1_555
Ca0 O20 2.697588 1_555
Ca0 O10 2.697588 1_555
Ca0 O9 2.698234 1_545
Ca0 O17 2.698234 1_455
Ca0 O5 2.706093 1_545
Ca0 O3 2.706093 1_455
Ca0 O1 2.733468 1_555
Ca0 O16 2.736525 1_455
Ca0 O8 2.736525 1_545
Ca1 O11 2.661813 1_555
Ca1 O6 2.661813 1_555
Ca1 O23 2.666873 1_555
Ca1 O4 2.697588 1_555
Ca1 O9 2.697588 1_555
Ca1 O10 2.698234 1_554
Ca1 O2 2.698234 1_455
Ca1 O19 2.706093 1_455
Ca1 O22 2.706093 1_554
Ca1 O18 2.733468 1_555
Ca1 O0 2.736525 1_455
Ca1 O8 2.736525 1_554
Ca2 O11 2.627219 1_555
Ca2 O23 2.658874 1_555
Ca2 O7 2.658874 1_555
Ca2 O9 2.666596 1_555
Ca2 O10 2.666596 1_555
Ca2 O22 2.697735 1_555
Ca2 O5 2.697735 1_555
Ca2 O19 2.697805 1_455
Ca2 O3 2.697805 1_455
Ca2 O8 2.704058 1_555
Ca2 O1 2.739169 1_565
Ca2 O18 2.739169 1_556
Ca3 O21 2.661813 1_555
Ca3 O6 2.661813 1_555
Ca3 O15 2.666873 1_555
Ca3 O2 2.697588 1_555
Ca3 O17 2.697588 1_555
Ca3 O20 2.698234 1_554
Ca3 O4 2.698234 1_545
Ca3 O14 2.706093 1_554
Ca3 O13 2.706093 1_545
Ca3 O12 2.733468 1_555
Ca3 O16 2.736525 1_554
Ca3 O0 2.736525 1_545
Ca4 O21 2.627219 1_555
Ca4 O15 2.658874 1_555
Ca4 O7 2.658874 1_555
Ca4 O17 2.666596 1_555
Ca4 O20 2.666596 1_555
Ca4 O3 2.697735 1_555
Ca4 O14 2.697735 1_555
Ca4 O13 2.697805 1_545
Ca4 O5 2.697805 1_545
Ca4 O16 2.704058 1_555
Ca4 O12 2.739169 1_556
Ca4 O1 2.739169 1_655
Ca5 O6 2.627219 1_555
Ca5 O23 2.658874 1_555
Ca5 O15 2.658874 1_555
Ca5 O2 2.666596 1_555
Ca5 O4 2.666596 1_555
Ca5 O13 2.697735 1_555
Ca5 O19 2.697735 1_555
Ca5 O22 2.697805 1_554
Ca5 O14 2.697805 1_554
Ca5 O0 2.704058 1_555
Ca5 O18 2.739169 1_655
Ca5 O12 2.739169 1_565
Ca6 O23 2.648925 1_555
Ca6 O15 2.648925 1_555
Ca6 O7 2.648925 1_555
Ca6 O14 2.692195 1_555
Ca6 O5 2.692195 1_555
Ca6 O19 2.692195 1_555
Ca6 O13 2.692195 1_555
Ca6 O22 2.692195 1_555
Ca6 O3 2.692195 1_555
Ca6 O12 2.741481 1_566
Ca6 O18 2.741481 1_656
Ca6 O1 2.741481 1_665
Mn0 O13 1.898298 1_555
Mn0 O19 1.898298 1_555
Mn0 O17 1.907329 1_565
Mn0 O9 1.907329 1_655
Mn0 O0 1.936837 1_555
Mn0 O1 1.941615 1_665
Mn1 O14 1.898298 1_555
Mn1 O3 1.898298 1_555
Mn1 O10 1.907329 1_655
Mn1 O2 1.907329 1_556
Mn1 O16 1.936837 1_555
Mn1 O18 1.941615 1_656
Mn2 O15 1.906245 1_555
Mn2 O3 1.908969 1_555
Mn2 O19 1.908969 1_555
Mn2 O11 1.914523 1_655
Mn2 O17 1.916843 1_555
Mn2 O2 1.916843 1_555
Mn3 O5 1.898298 1_555
Mn3 O22 1.898298 1_555
Mn3 O20 1.907329 1_565
Mn3 O4 1.907329 1_556
Mn3 O8 1.936837 1_555
Mn3 O12 1.941615 1_566
Mn4 O23 1.906245 1_555
Mn4 O5 1.908969 1_555
Mn4 O13 1.908969 1_555
Mn4 O21 1.914523 1_565
Mn4 O9 1.916843 1_555
Mn4 O4 1.916843 1_555
Mn5 O7 1.906245 1_555
Mn5 O14 1.908969 1_555
Mn5 O22 1.908969 1_555
Mn5 O6 1.914523 1_556
Mn5 O10 1.916843 1_555
Mn5 O20 1.916843 1_555
Mn6 O23 1.901734 1_555
Mn6 O15 1.901734 1_555
Mn6 O7 1.901734 1_555
Mn6 O6 1.908883 1_555
Mn6 O21 1.908883 1_555
Mn6 O11 1.908883 1_555
Cr0 O1 1.862308 1_665
Cr0 O12 1.862308 1_566
Cr0 O18 1.862308 1_656
Cr0 O8 1.890552 1_655
Cr0 O0 1.890552 1_556
Cr0 O16 1.890552 1_565
O0 Sr0 2.754238 1_665
O2 Sr0 2.731393 1_655
O4 Sr0 2.731393 1_565
O6 Sr0 2.704865 1_555
O8 Sr0 2.754238 1_566
O9 Sr0 2.731393 1_565
O10 Sr0 2.731393 1_556
O11 Sr0 2.704865 1_555
O16 Sr0 2.754238 1_656
O17 Sr0 2.731393 1_655
O20 Sr0 2.731393 1_556
O21 Sr0 2.704865 1_555
