# generated using pymatgen
data_SbH12C4NF4
_symmetry_space_group_name_H-M   'P 1'
_cell_length_a   9.65010600
_cell_length_b   5.39923500
_cell_length_c   19.62346507
_cell_angle_alpha   88.33641195
_cell_angle_beta   90.00000000
_cell_angle_gamma   90.00000000
_symmetry_Int_Tables_number   1
_chemical_formula_structural   SbH12C4NF4
_chemical_formula_sum   'Sb4 H48 C16 N4 F16'
_cell_volume   1022.01418122
_cell_formula_units_Z   4
loop_
 _symmetry_equiv_pos_site_id
 _symmetry_equiv_pos_as_xyz
  1  'x, y, z'
loop_
 _atom_site_type_symbol
 _atom_site_label
 _atom_site_symmetry_multiplicity
 _atom_site_fract_x
 _atom_site_fract_y
 _atom_site_fract_z
 _atom_site_occupancy
  Sb  Sb0  1  0.59377700  0.55679400  0.91982200  1
  Sb  Sb1  1  0.90622300  0.55679400  0.41982200  1
  Sb  Sb2  1  0.09377700  0.44320600  0.58017800  1
  Sb  Sb3  1  0.40622300  0.44320600  0.08017800  1
  H  H0  1  0.35464400  0.17174700  0.42907800  1
  H  H1  1  0.75789600  0.69942300  0.22208200  1
  H  H2  1  0.87934700  0.92065400  0.70986500  1
  H  H3  1  0.00648600  0.76687300  0.93638700  1
  H  H4  1  0.62065300  0.92065400  0.20986500  1
  H  H5  1  0.59822400  0.03641400  0.44138600  1
  H  H6  1  0.66701000  0.72066200  0.14225900  1
  H  H7  1  0.57836400  0.00446700  0.75162900  1
  H  H8  1  0.90177600  0.03641400  0.94138600  1
  H  H9  1  0.05920800  0.71423700  0.79902800  1
  H  H10  1  0.09447300  0.12641400  0.13452000  1
  H  H11  1  0.25535200  0.85321500  0.86646600  1
  H  H12  1  0.40177600  0.96358600  0.55861400  1
  H  H13  1  0.78569200  0.22895700  0.24854000  1
  H  H14  1  0.33299000  0.27933800  0.85774100  1
  H  H15  1  0.95275300  0.73642000  0.14394900  1
  H  H16  1  0.54724700  0.73642000  0.64394900  1
  H  H17  1  0.37934700  0.07934600  0.79013500  1
  H  H18  1  0.99351400  0.23312700  0.06361300  1
  H  H19  1  0.50648600  0.23312700  0.56361300  1
  H  H20  1  0.49351400  0.76687300  0.43638700  1
  H  H21  1  0.07836400  0.99553300  0.74837100  1
  H  H22  1  0.12065300  0.07934600  0.29013500  1
  H  H23  1  0.04724700  0.26358000  0.85605100  1
  H  H24  1  0.42163600  0.99553300  0.24837100  1
  H  H25  1  0.44079200  0.71423700  0.29902800  1
  H  H26  1  0.74464800  0.14678500  0.13353400  1
  H  H27  1  0.85464400  0.82825300  0.07092200  1
  H  H28  1  0.14535600  0.17174700  0.92907800  1
  H  H29  1  0.25789600  0.30057700  0.27791800  1
  H  H30  1  0.94079200  0.28576300  0.20097200  1
  H  H31  1  0.28569200  0.77104300  0.25146000  1
  H  H32  1  0.59447300  0.87358600  0.36548000  1
  H  H33  1  0.83299000  0.72066200  0.64225900  1
  H  H34  1  0.92163600  0.00446700  0.25162900  1
  H  H35  1  0.90552700  0.87358600  0.86548000  1
  H  H36  1  0.74210400  0.69942300  0.72208200  1
  H  H37  1  0.21430800  0.77104300  0.75146000  1
  H  H38  1  0.75535200  0.14678500  0.63353400  1
  H  H39  1  0.16701000  0.27933800  0.35774100  1
  H  H40  1  0.71430800  0.22895700  0.74854000  1
  H  H41  1  0.40552700  0.12641400  0.63452000  1
  H  H42  1  0.45275300  0.26358000  0.35605100  1
  H  H43  1  0.09822400  0.96358600  0.05861400  1
  H  H44  1  0.64535600  0.82825300  0.57092200  1
  H  H45  1  0.24210400  0.30057700  0.77791800  1
  H  H46  1  0.24464800  0.85321500  0.36646600  1
  H  H47  1  0.55920800  0.28576300  0.70097200  1
  C  C0  1  0.58739900  0.89779900  0.61459000  1
  C  C1  1  0.47034000  0.06743800  0.59206200  1
  C  C2  1  0.86827900  0.14314600  0.21928600  1
  C  C3  1  0.97034000  0.93256200  0.90793800  1
  C  C4  1  0.63172100  0.14314600  0.71928600  1
  C  C5  1  0.70557300  0.82410800  0.18535700  1
  C  C6  1  0.13172100  0.85685400  0.78071400  1
  C  C7  1  0.20557300  0.17589200  0.31464300  1
  C  C8  1  0.08739900  0.10220100  0.88541000  1
  C  C9  1  0.29442700  0.17589200  0.81464300  1
  C  C10  1  0.36827900  0.85685400  0.28071400  1
  C  C11  1  0.41260100  0.10220100  0.38541000  1
  C  C12  1  0.02966000  0.06743800  0.09206200  1
  C  C13  1  0.52966000  0.93256200  0.40793800  1
  C  C14  1  0.91260100  0.89779900  0.11459000  1
  C  C15  1  0.79442700  0.82410800  0.68535700  1
  N  N0  1  0.19376600  0.98456800  0.83974000  1
  N  N1  1  0.69376600  0.01543200  0.66026000  1
  N  N2  1  0.30623400  0.98456800  0.33974000  1
  N  N3  1  0.80623400  0.01543200  0.16026000  1
  F  F0  1  0.59049800  0.31815000  0.13367600  1
  F  F1  1  0.68163100  0.56448100  0.82926900  1
  F  F2  1  0.90950200  0.31815000  0.63367600  1
  F  F3  1  0.78418200  0.51117400  0.96081400  1
  F  F4  1  0.88124300  0.91054400  0.43286400  1
  F  F5  1  0.18163100  0.43551900  0.67073100  1
  F  F6  1  0.71581800  0.51117400  0.46081400  1
  F  F7  1  0.21581800  0.48882600  0.03918600  1
  F  F8  1  0.11875700  0.08945600  0.56713600  1
  F  F9  1  0.28418200  0.48882600  0.53918600  1
  F  F10  1  0.61875700  0.91054400  0.93286400  1
  F  F11  1  0.81836900  0.56448100  0.32926900  1
  F  F12  1  0.40950200  0.68185000  0.86632400  1
  F  F13  1  0.31836900  0.43551900  0.17073100  1
  F  F14  1  0.38124300  0.08945600  0.06713600  1
  F  F15  1  0.09049800  0.68185000  0.36632400  1
loop_
_geom_bond_atom_site_label_1
_geom_bond_atom_site_label_2
_geom_bond_distance
_geom_bond_site_symmetry_2
H11 N0 1.053393 1_555
H26 N3 1.053393 1_555
H38 N1 1.053393 1_555
H46 N2 1.053393 1_555
C0 H44 1.098541 1_555
C0 H16 1.100959 1_555
C0 C1 1.512250 1_565
C0 N1 1.514339 1_565
C1 H41 1.096434 1_555
C1 H12 1.097440 1_545
C1 H19 1.097558 1_555
C2 H13 1.093078 1_555
C2 H30 1.093474 1_555
C2 H34 1.095898 1_555
C2 N3 1.490638 1_555
C3 H35 1.096434 1_555
C3 H8 1.097440 1_565
C3 H3 1.097558 1_655
C3 C8 1.512250 1_665
C4 H40 1.093078 1_555
C4 H47 1.093474 1_555
C4 H7 1.095898 1_555
C4 N1 1.490638 1_555
C5 H4 1.090476 1_555
C5 H6 1.092305 1_555
C5 H1 1.095148 1_555
C5 N3 1.491208 1_565
C6 H37 1.093078 1_555
C6 H9 1.093474 1_555
C6 H21 1.095898 1_555
C6 N0 1.490638 1_555
C7 H22 1.090476 1_555
C7 H39 1.092305 1_555
C7 H29 1.095148 1_555
C7 N2 1.491208 1_545
C8 H28 1.098541 1_555
C8 H23 1.100959 1_555
C8 N0 1.514339 1_545
C9 H17 1.090476 1_555
C9 H14 1.092305 1_555
C9 H45 1.095148 1_555
C9 N0 1.491208 1_545
C10 H31 1.093078 1_555
C10 H25 1.093474 1_555
C10 H24 1.095898 1_555
C10 N2 1.490638 1_555
C11 H0 1.098541 1_555
C11 H42 1.100959 1_555
C11 C13 1.512250 1_545
C11 N2 1.514339 1_545
C12 H10 1.096434 1_555
C12 H43 1.097440 1_545
C12 H18 1.097558 1_455
C12 C14 1.512250 1_445
C13 H32 1.096434 1_555
C13 H5 1.097440 1_565
C13 H20 1.097558 1_555
C14 H27 1.098541 1_555
C14 H15 1.100959 1_555
C14 N3 1.514339 1_565
C15 H2 1.090476 1_555
C15 H33 1.092305 1_555
C15 H36 1.095148 1_555
C15 N1 1.491208 1_565
F0 Sb3 2.163127 1_555
F1 Sb0 1.968199 1_555
F2 Sb2 2.163127 1_655
F3 Sb0 2.018013 1_555
F4 Sb1 1.949362 1_555
F5 Sb2 1.968199 1_555
F6 Sb1 2.018013 1_555
F7 Sb3 2.018013 1_555
F8 Sb2 1.949362 1_555
F9 Sb2 2.018013 1_555
F10 Sb0 1.949362 1_555
F11 Sb1 1.968199 1_555
F12 Sb0 2.163127 1_555
F13 Sb3 1.968199 1_555
F14 Sb3 1.949362 1_555
F15 Sb1 2.163127 1_455
