# generated using pymatgen
data_Ca3MnCoO6
_symmetry_space_group_name_H-M   'P 1'
_cell_length_a   6.40108250
_cell_length_b   6.40764539
_cell_length_c   6.41171007
_cell_angle_alpha   91.99677790
_cell_angle_beta   91.97386558
_cell_angle_gamma   91.95699818
_symmetry_Int_Tables_number   1
_chemical_formula_structural   Ca3MnCoO6
_chemical_formula_sum   'Ca6 Mn2 Co2 O12'
_cell_volume   262.50165337
_cell_formula_units_Z   2
loop_
 _symmetry_equiv_pos_site_id
 _symmetry_equiv_pos_as_xyz
  1  'x, y, z'
loop_
 _atom_site_type_symbol
 _atom_site_label
 _atom_site_symmetry_multiplicity
 _atom_site_fract_x
 _atom_site_fract_y
 _atom_site_fract_z
 _atom_site_occupancy
  Ca  Ca0  1  0.75197300  0.39011300  0.11005800  1
  Ca  Ca1  1  0.25076800  0.61016500  0.88983100  1
  Ca  Ca2  1  0.38897400  0.11107500  0.74985500  1
  Ca  Ca3  1  0.11110900  0.74818300  0.38858700  1
  Ca  Ca4  1  0.61128200  0.88837500  0.24781700  1
  Ca  Ca5  1  0.88963300  0.25141200  0.61057000  1
  Mn  Mn0  1  0.49901600  0.49941500  0.50163800  1
  Mn  Mn1  1  0.99860400  0.00116800  0.00050300  1
  Co  Co0  1  0.25519300  0.24633500  0.24849300  1
  Co  Co1  1  0.75331300  0.75196100  0.74474700  1
  O  O0  1  0.58233300  0.45363400  0.78741600  1
  O  O1  1  0.95535800  0.08470600  0.28693000  1
  O  O2  1  0.78696100  0.58220800  0.45482500  1
  O  O3  1  0.04334500  0.91593100  0.71273900  1
  O  O4  1  0.91516200  0.71418800  0.04569600  1
  O  O5  1  0.45613300  0.78688600  0.58530800  1
  O  O6  1  0.08119600  0.28715600  0.95332400  1
  O  O7  1  0.41446800  0.54456500  0.21440000  1
  O  O8  1  0.54405100  0.21204800  0.41777400  1
  O  O9  1  0.28659100  0.95581700  0.08344900  1
  O  O10  1  0.21284100  0.41835000  0.54690200  1
  O  O11  1  0.71169800  0.04631000  0.91913800  1
loop_
_geom_bond_atom_site_label_1
_geom_bond_atom_site_label_2
_geom_bond_distance
_geom_bond_site_symmetry_2
Ca0 O4 2.348364 1_555
Ca0 O0 2.357622 1_554
Ca0 O6 2.465931 1_654
Ca0 O11 2.483859 1_554
Ca0 O2 2.491824 1_555
Ca0 O7 2.508745 1_555
Ca0 O1 2.652837 1_555
Ca0 O8 2.683266 1_555
Ca1 O7 2.355048 1_556
Ca1 O6 2.358688 1_555
Ca1 O0 2.477331 1_555
Ca1 O10 2.481664 1_555
Ca1 O9 2.500643 1_556
Ca1 O4 2.501442 1_456
Ca1 O5 2.655531 1_555
Ca1 O3 2.668260 1_555
Ca2 O5 2.356380 1_545
Ca2 O11 2.356531 1_555
Ca2 O8 2.476942 1_555
Ca2 O0 2.482943 1_555
Ca2 O9 2.488865 1_546
Ca2 O3 2.503783 1_545
Ca2 O10 2.658973 1_555
Ca2 O6 2.661308 1_555
Ca3 O2 2.357560 1_455
Ca3 O3 2.366723 1_555
Ca3 O10 2.473675 1_555
Ca3 O4 2.492416 1_455
Ca3 O1 2.503701 1_465
Ca3 O5 2.505776 1_555
Ca3 O7 2.634611 1_555
Ca3 O9 2.662755 1_555
Ca4 O9 2.357805 1_555
Ca4 O8 2.368512 1_565
Ca4 O11 2.464933 1_564
Ca4 O7 2.499056 1_555
Ca4 O1 2.499411 1_565
Ca4 O5 2.508709 1_555
Ca4 O4 2.632488 1_555
Ca4 O2 2.665380 1_555
Ca5 O10 2.351295 1_655
Ca5 O1 2.358046 1_555
Ca5 O2 2.473732 1_555
Ca5 O6 2.479067 1_655
Ca5 O3 2.493268 1_645
Ca5 O8 2.497372 1_555
Ca5 O0 2.656943 1_555
Ca5 O11 2.678226 1_555
Mn0 O10 1.921401 1_555
Mn0 O0 1.925805 1_555
Mn0 O5 1.931831 1_555
Mn0 O8 1.934095 1_555
Mn0 O7 1.935863 1_555
Mn0 O2 1.936799 1_555
Mn1 O11 1.925978 1_554
Mn1 O1 1.926779 1_555
Mn1 O6 1.926804 1_654
Mn1 O4 1.931680 1_545
Mn1 O9 1.935286 1_645
Mn1 O3 1.939439 1_644
Co0 O9 2.128017 1_545
Co0 O8 2.133365 1_555
Co0 O7 2.156470 1_555
Co0 O1 2.175209 1_455
Co0 O6 2.190842 1_554
Co0 O10 2.204157 1_555
Co1 O3 2.121490 1_655
Co1 O2 2.141890 1_555
Co1 O5 2.150542 1_555
Co1 O4 2.183393 1_556
Co1 O11 2.187782 1_565
Co1 O0 2.200222 1_555
