# generated using pymatgen
data_Na2U2ZnH8(C3O7)4
_symmetry_space_group_name_H-M   'P 1'
_cell_length_a   6.53744798
_cell_length_b   7.98646837
_cell_length_c   13.05736695
_cell_angle_alpha   75.80487378
_cell_angle_beta   84.52133030
_cell_angle_gamma   67.39780456
_symmetry_Int_Tables_number   1
_chemical_formula_structural   Na2U2ZnH8(C3O7)4
_chemical_formula_sum   'Na2 U2 Zn1 H8 C12 O28'
_cell_volume   610.16118345
_cell_formula_units_Z   1
loop_
 _symmetry_equiv_pos_site_id
 _symmetry_equiv_pos_as_xyz
  1  'x, y, z'
loop_
 _atom_site_type_symbol
 _atom_site_label
 _atom_site_symmetry_multiplicity
 _atom_site_fract_x
 _atom_site_fract_y
 _atom_site_fract_z
 _atom_site_occupancy
  Na  Na0  1  0.75013400  0.83535200  0.79217700  1
  Na  Na1  1  0.24986600  0.16464800  0.20782300  1
  U  U0  1  0.76196500  0.33660200  0.80407000  1
  U  U1  1  0.23803500  0.66339800  0.19593000  1
  Zn  Zn0  1  0.50000000  0.00000000  0.50000000  1
  H  H0  1  0.91743700  0.85846000  0.57407700  1
  H  H1  1  0.08256300  0.14154000  0.42592300  1
  H  H2  1  0.80530600  0.06110900  0.59883100  1
  H  H3  1  0.19469400  0.93889100  0.40116900  1
  H  H4  1  0.75156000  0.98091400  0.31770600  1
  H  H5  1  0.24844000  0.01908600  0.68229400  1
  H  H6  1  0.64922400  0.19248800  0.32815800  1
  H  H7  1  0.35077600  0.80751200  0.67184200  1
  C  C0  1  0.30911100  0.24939000  0.77451400  1
  C  C1  1  0.69088900  0.75061000  0.22548600  1
  C  C2  1  0.21566200  0.45308500  0.78129500  1
  C  C3  1  0.78433800  0.54691500  0.21870500  1
  C  C4  1  0.80205300  0.38823400  0.54617800  1
  C  C5  1  0.19794700  0.61176600  0.45382200  1
  C  C6  1  0.69743500  0.58992900  0.56271300  1
  C  C7  1  0.30256500  0.41007100  0.43728700  1
  C  C8  1  0.52409700  0.58891500  0.97893600  1
  C  C9  1  0.47590300  0.41108500  0.02106400  1
  C  C10  1  0.97391600  0.93269700  0.97532900  1
  C  C11  1  0.02608400  0.06730300  0.02467100  1
  O  O0  1  0.16916200  0.17737200  0.76701000  1
  O  O1  1  0.83083800  0.82262800  0.23299000  1
  O  O2  1  0.00779000  0.52777800  0.79056500  1
  O  O3  1  0.99221000  0.47222200  0.20943500  1
  O  O4  1  0.35497300  0.52995200  0.77643100  1
  O  O5  1  0.64502700  0.47004800  0.22356900  1
  O  O6  1  0.51761000  0.16769200  0.77557300  1
  O  O7  1  0.48239000  0.83230800  0.22442700  1
  O  O8  1  0.81874100  0.26416900  0.63422900  1
  O  O9  1  0.18125900  0.73583100  0.36577100  1
  O  O10  1  0.67988300  0.60098100  0.65955000  1
  O  O11  1  0.32011700  0.39901900  0.34045000  1
  O  O12  1  0.63612100  0.72452300  0.48412800  1
  O  O13  1  0.36387900  0.27547700  0.51587200  1
  O  O14  1  0.85938400  0.35603400  0.45779800  1
  O  O15  1  0.14061600  0.64396600  0.54220200  1
  O  O16  1  0.62990300  0.59841100  0.89214500  1
  O  O17  1  0.37009700  0.40158900  0.10785500  1
  O  O18  1  0.45692900  0.71115600  0.03281700  1
  O  O19  1  0.54307100  0.28884400  0.96718300  1
  O  O20  1  0.88913900  0.99952400  0.88309900  1
  O  O21  1  0.11086100  0.00047600  0.11690100  1
  O  O22  1  0.01729300  0.76875200  0.02901000  1
  O  O23  1  0.98270700  0.23124800  0.97099000  1
  O  O24  1  0.78050000  0.94537900  0.60076500  1
  O  O25  1  0.21950000  0.05462100  0.39923500  1
  O  O26  1  0.70184600  0.06277800  0.36859100  1
  O  O27  1  0.29815400  0.93722200  0.63140900  1
loop_
_geom_bond_atom_site_label_1
_geom_bond_atom_site_label_2
_geom_bond_distance
_geom_bond_site_symmetry_2
Na0 O16 2.374545 1_555
Na0 O2 2.389536 1_655
Na0 O20 2.416543 1_555
Na0 O24 2.453662 1_555
Na0 O6 2.466175 1_565
Na1 O17 2.374545 1_555
Na1 O3 2.389536 1_455
Na1 O21 2.416543 1_555
Na1 O25 2.453662 1_555
Na1 O7 2.466175 1_545
H0 O24 0.993039 1_555
H1 O25 0.993039 1_555
H2 O24 0.992070 1_545
H3 O25 0.992070 1_565
H4 O26 0.991481 1_565
H5 O27 0.991481 1_545
H6 O26 0.981189 1_555
H7 O27 0.981189 1_555
C0 O6 1.264668 1_555
C0 O0 1.275433 1_555
C1 O7 1.264668 1_555
C1 O1 1.275433 1_555
C2 O2 1.264174 1_555
C2 O4 1.268833 1_555
C3 O3 1.264174 1_555
C3 O5 1.268833 1_555
C4 O14 1.235808 1_555
C4 O8 1.302942 1_555
C5 O15 1.235808 1_555
C5 O9 1.302942 1_555
C6 O12 1.255162 1_555
C6 O10 1.280236 1_555
C7 O13 1.255162 1_555
C7 O11 1.280236 1_555
C8 O18 1.260658 1_556
C8 O16 1.271603 1_555
C9 O19 1.260658 1_554
C9 O17 1.271603 1_555
C10 O22 1.260371 1_656
C10 O20 1.275600 1_555
C11 O23 1.260371 1_454
C11 O21 1.275600 1_555
O0 U0 2.528134 1_455
O1 U1 2.528134 1_655
O2 U0 2.577761 1_455
O3 U1 2.577761 1_655
O4 U0 2.519113 1_555
O5 U1 2.519113 1_555
O6 U0 2.554650 1_555
O7 U1 2.554650 1_555
O8 U0 2.386937 1_555
O9 U1 2.386937 1_555
O10 U0 2.382317 1_555
O11 U1 2.382317 1_555
O12 Zn0 2.087760 1_565
O13 Zn0 2.087760 1_555
O16 U0 2.458066 1_555
O17 U1 2.458066 1_555
O18 U1 2.483661 1_555
O19 U0 2.483661 1_555
O20 U0 2.466624 1_565
O21 U1 2.466624 1_545
O22 U1 2.511710 1_555
O23 U0 2.511710 1_555
O24 Zn0 2.201912 1_565
O25 Zn0 2.201912 1_555
O26 Zn0 2.142671 1_555
O27 Zn0 2.142671 1_565
