# generated using pymatgen
data_CaMnCu3(RuO4)3
_symmetry_space_group_name_H-M   'P 1'
_cell_length_a   6.49901122
_cell_length_b   6.49901122
_cell_length_c   6.53665929
_cell_angle_alpha   70.41138947
_cell_angle_beta   70.41138947
_cell_angle_gamma   109.35357607
_symmetry_Int_Tables_number   1
_chemical_formula_structural   CaMnCu3(RuO4)3
_chemical_formula_sum   'Ca1 Mn1 Cu3 Ru3 O12'
_cell_volume   212.22536809
_cell_formula_units_Z   1
loop_
 _symmetry_equiv_pos_site_id
 _symmetry_equiv_pos_as_xyz
  1  'x, y, z'
loop_
 _atom_site_type_symbol
 _atom_site_label
 _atom_site_symmetry_multiplicity
 _atom_site_fract_x
 _atom_site_fract_y
 _atom_site_fract_z
 _atom_site_occupancy
  Ca  Ca0  1  0.00000000  0.00000000  0.00000000  1
  Mn  Mn0  1  0.00000000  0.00000000  0.50000000  1
  Cu  Cu0  1  0.50000000  0.00000000  0.50000000  1
  Cu  Cu1  1  0.50000000  0.50000000  0.00000000  1
  Cu  Cu2  1  0.00000000  0.50000000  0.50000000  1
  Ru  Ru0  1  0.00000000  0.50000000  0.00000000  1
  Ru  Ru1  1  0.50000000  0.50000000  0.50000000  1
  Ru  Ru2  1  0.50000000  0.00000000  0.00000000  1
  O  O0  1  0.13809400  0.81983900  0.70284300  1
  O  O1  1  0.47826100  0.16974600  0.69229600  1
  O  O2  1  0.52173900  0.83025400  0.30770400  1
  O  O3  1  0.86190600  0.18016100  0.29715700  1
  O  O4  1  0.68174500  0.86190600  0.84093700  1
  O  O5  1  0.69148500  0.52173900  0.17055700  1
  O  O6  1  0.30851500  0.47826100  0.82944300  1
  O  O7  1  0.31825500  0.13809400  0.15906300  1
  O  O8  1  0.18016100  0.31825500  0.52268200  1
  O  O9  1  0.83025400  0.30851500  0.86204200  1
  O  O10  1  0.16974600  0.69148500  0.13795800  1
  O  O11  1  0.81983900  0.68174500  0.47731800  1
loop_
_geom_bond_atom_site_label_1
_geom_bond_atom_site_label_2
_geom_bond_distance
_geom_bond_site_symmetry_2
Ca0 O9 2.640291 1_454
Ca0 O6 2.640291 1_554
Ca0 O10 2.640291 1_545
Ca0 O5 2.640291 1_445
Ca0 O2 2.640291 1_445
Ca0 O1 2.640291 1_554
Ca0 O4 2.646115 1_444
Ca0 O7 2.646115 1_555
Ca0 O8 2.646115 1_554
Ca0 O3 2.646115 1_455
Ca0 O11 2.646115 1_445
Ca0 O0 2.646115 1_544
Mn0 O8 2.094722 1_555
Mn0 O11 2.094722 1_445
Mn0 O4 2.094722 1_445
Mn0 O3 2.094722 1_455
Mn0 O0 2.094722 1_545
Mn0 O7 2.094722 1_555
Cu0 O3 1.924493 1_555
Cu0 O0 1.924493 1_545
Cu0 O2 1.931574 1_545
Cu0 O1 1.931574 1_555
Cu1 O4 1.924493 1_554
Cu1 O7 1.924493 1_555
Cu1 O6 1.931574 1_554
Cu1 O5 1.931574 1_555
Cu2 O8 1.924493 1_555
Cu2 O11 1.924493 1_455
Cu2 O9 1.931574 1_455
Cu2 O10 1.931574 1_555
O0 Ru0 1.945890 1_556
O1 Ru1 2.019304 1_555
O1 Ru2 2.022014 1_556
O2 Ru1 2.019304 1_555
O2 Ru2 2.022014 1_565
O3 Ru0 1.945890 1_655
O4 Ru2 1.945890 1_566
O5 Ru0 2.019304 1_655
O5 Ru1 2.022014 1_555
O6 Ru0 2.019304 1_556
O6 Ru1 2.022014 1_555
O7 Ru2 1.945890 1_555
O8 Ru1 1.945890 1_555
O9 Ru2 2.019304 1_556
O9 Ru0 2.022014 1_656
O10 Ru2 2.019304 1_565
O10 Ru0 2.022014 1_555
O11 Ru1 1.945890 1_555
