# generated using pymatgen
data_Li3MnV(PO4)3
_symmetry_space_group_name_H-M   'P 1'
_cell_length_a   8.56927900
_cell_length_b   8.72571131
_cell_length_c   12.14063514
_cell_angle_alpha   90.23411746
_cell_angle_beta   91.38573790
_cell_angle_gamma   90.69574456
_symmetry_Int_Tables_number   1
_chemical_formula_structural   Li3MnV(PO4)3
_chemical_formula_sum   'Li12 Mn4 V4 P12 O48'
_cell_volume   907.45126452
_cell_formula_units_Z   4
loop_
 _symmetry_equiv_pos_site_id
 _symmetry_equiv_pos_as_xyz
  1  'x, y, z'
loop_
 _atom_site_type_symbol
 _atom_site_label
 _atom_site_symmetry_multiplicity
 _atom_site_fract_x
 _atom_site_fract_y
 _atom_site_fract_z
 _atom_site_occupancy
  Li  Li0  1  0.93522400  0.48660600  0.65449700  1
  Li  Li1  1  0.91921200  0.91438100  0.30816000  1
  Li  Li2  1  0.81891000  0.22061100  0.82225500  1
  Li  Li3  1  0.68052800  0.71947300  0.67736200  1
  Li  Li4  1  0.57909700  0.41436100  0.19078300  1
  Li  Li5  1  0.56514600  0.98746400  0.84595500  1
  Li  Li6  1  0.43498500  0.01456500  0.15322300  1
  Li  Li7  1  0.42044900  0.58469500  0.80824800  1
  Li  Li8  1  0.31877400  0.28039700  0.32224300  1
  Li  Li9  1  0.18062300  0.77921400  0.17718900  1
  Li  Li10  1  0.08153100  0.08475000  0.69172100  1
  Li  Li11  1  0.06455600  0.51257700  0.34535200  1
  Mn  Mn0  1  0.74612800  0.47280000  0.39344300  1
  Mn  Mn1  1  0.25408700  0.52746300  0.60553200  1
  Mn  Mn2  1  0.24647700  0.46336400  0.10989900  1
  Mn  Mn3  1  0.24753800  0.02951700  0.89433800  1
  V  V0  1  0.75635800  0.97306100  0.10438300  1
  V  V1  1  0.75491900  0.53519300  0.89161000  1
  V  V2  1  0.74469400  0.03633200  0.60923800  1
  V  V3  1  0.25488300  0.96381300  0.39026200  1
  P  P0  1  0.95653400  0.75111800  0.51000100  1
  P  P1  1  0.88557600  0.61824200  0.15227700  1
  P  P2  1  0.88528100  0.89040600  0.85302000  1
  P  P3  1  0.61496300  0.11848300  0.34858100  1
  P  P4  1  0.61588600  0.38951600  0.64674200  1
  P  P5  1  0.54266500  0.25123100  0.99092900  1
  P  P6  1  0.45696500  0.74987200  0.00919200  1
  P  P7  1  0.38188900  0.61115800  0.35144900  1
  P  P8  1  0.38516500  0.88082800  0.64929400  1
  P  P9  1  0.11640300  0.10984400  0.14823700  1
  P  P10  1  0.11576900  0.38148800  0.85203700  1
  P  P11  1  0.04417400  0.24858700  0.49015200  1
  O  O0  1  0.94862900  0.10895500  0.10327500  1
  O  O1  1  0.95168900  0.13008200  0.55661300  1
  O  O2  1  0.94999900  0.33162900  0.39965100  1
  O  O3  1  0.94368500  0.41902300  0.81369500  1
  O  O4  1  0.89660600  0.63843400  0.41630300  1
  O  O5  1  0.87362100  0.79604300  0.16919900  1
  O  O6  1  0.86113200  0.57992400  0.02994300  1
  O  O7  1  0.87151300  0.00682700  0.75414000  1
  O  O8  1  0.82614600  0.73049500  0.81230200  1
  O  O9  1  0.81309600  0.82407800  0.56480500  1
  O  O10  1  0.76821900  0.52750800  0.22166100  1
  O  O11  1  0.76472400  0.95078900  0.93720300  1
  O  O12  1  0.73840100  0.45194500  0.56451800  1
  O  O13  1  0.72933000  0.03056400  0.27621600  1
  O  O14  1  0.68756900  0.32202500  0.93368800  1
  O  O15  1  0.67354100  0.23014100  0.68768700  1
  O  O16  1  0.64079000  0.07958800  0.46996900  1
  O  O17  1  0.62812600  0.50561100  0.74707700  1
  O  O18  1  0.62281800  0.29782200  0.33295800  1
  O  O19  1  0.60064500  0.13890500  0.08175400  1
  O  O20  1  0.55412500  0.83628000  0.09918700  1
  O  O21  1  0.55790400  0.91934800  0.68819100  1
  O  O22  1  0.54834300  0.61273200  0.39636000  1
  O  O23  1  0.54845300  0.63191900  0.94339500  1
  O  O24  1  0.45448600  0.37236900  0.05441700  1
  O  O25  1  0.44883200  0.38613800  0.60168300  1
  O  O26  1  0.44207000  0.07983200  0.31103400  1
  O  O27  1  0.44639700  0.16664700  0.89850600  1
  O  O28  1  0.39777100  0.86252600  0.91669100  1
  O  O29  1  0.37756000  0.70116500  0.66599700  1
  O  O30  1  0.37098200  0.49361300  0.25022400  1
  O  O31  1  0.36208700  0.91811000  0.52728800  1
  O  O32  1  0.32554200  0.77044800  0.31050800  1
  O  O33  1  0.31250900  0.67755000  0.06489200  1
  O  O34  1  0.27006300  0.96903200  0.71907900  1
  O  O35  1  0.25997800  0.54787900  0.43317600  1
  O  O36  1  0.23770600  0.04854700  0.06718800  1
  O  O37  1  0.23066600  0.47072400  0.78077100  1
  O  O38  1  0.18820000  0.17557400  0.43627900  1
  O  O39  1  0.17184700  0.27137700  0.18944500  1
  O  O40  1  0.12562200  0.99471700  0.24839300  1
  O  O41  1  0.13729000  0.41832700  0.97496200  1
  O  O42  1  0.12357700  0.20213100  0.83406200  1
  O  O43  1  0.10354500  0.36164100  0.58407000  1
  O  O44  1  0.05596300  0.58291000  0.19162800  1
  O  O45  1  0.05116100  0.66738900  0.60053600  1
  O  O46  1  0.04865200  0.87014000  0.44420600  1
  O  O47  1  0.05300200  0.88914200  0.89757400  1
loop_
_geom_bond_atom_site_label_1
_geom_bond_atom_site_label_2
_geom_bond_distance
_geom_bond_site_symmetry_2
Li0 O45 1.976478 1_655
Li0 O12 2.006324 1_555
Li0 O43 2.022567 1_655
Li0 O3 2.022911 1_555
Li1 O13 1.959216 1_565
Li1 O5 2.002291 1_555
Li1 O46 2.008588 1_655
Li1 O40 2.045144 1_655
Li2 O14 1.992011 1_555
Li2 O3 2.028126 1_555
Li2 O15 2.032979 1_555
Li2 O7 2.095872 1_555
Li3 O9 2.012733 1_555
Li3 O8 2.036459 1_555
Li3 O21 2.052436 1_555
Li3 O17 2.100303 1_555
Li4 O10 1.915849 1_555
Li4 O24 1.978751 1_555
Li4 O18 2.036209 1_555
Li4 O30 2.065820 1_555
Li5 O27 1.987199 1_565
Li5 O21 2.002437 1_555
Li5 O28 2.003098 1_555
Li5 O11 2.044290 1_555
Li6 O20 1.988823 1_545
Li6 O36 1.991523 1_555
Li6 O19 1.993762 1_555
Li6 O26 1.995847 1_555
Li7 O37 1.917525 1_555
Li7 O23 1.990368 1_555
Li7 O29 2.035488 1_555
Li7 O17 2.069882 1_555
Li8 O38 2.016374 1_555
Li8 O39 2.022166 1_555
Li8 O26 2.060946 1_555
Li8 O30 2.106649 1_555
Li9 O33 2.002983 1_555
Li9 O44 2.018156 1_555
Li9 O32 2.018400 1_555
Li9 O40 2.129166 1_555
Li10 O34 1.938136 1_545
Li10 O1 2.003185 1_455
Li10 O42 2.027731 1_555
Li10 O7 2.077491 1_455
Li11 O44 1.966970 1_555
Li11 O2 1.973156 1_455
Li11 O35 1.983570 1_555
Li11 O4 2.027303 1_455
Mn0 O4 1.939788 1_555
Mn0 O18 1.975113 1_555
Mn0 O12 2.088230 1_555
Mn0 O22 2.101789 1_555
Mn0 O2 2.149840 1_555
Mn0 O10 2.153657 1_555
Mn1 O43 1.939325 1_555
Mn1 O29 1.967247 1_555
Mn1 O25 2.088330 1_555
Mn1 O35 2.102576 1_555
Mn1 O45 2.136668 1_555
Mn1 O37 2.199671 1_555
Mn2 O41 1.904028 1_554
Mn2 O30 2.002979 1_555
Mn2 O33 2.027128 1_555
Mn2 O39 2.040856 1_555
Mn2 O24 2.085541 1_555
Mn2 O44 2.202085 1_555
Mn3 O28 1.971317 1_545
Mn3 O42 1.985635 1_555
Mn3 O47 2.057869 1_545
Mn3 O27 2.069784 1_555
Mn3 O36 2.108187 1_556
Mn3 O34 2.203703 1_545
O0 P9 1.525371 1_655
O0 V0 2.018578 1_545
O1 P11 1.538259 1_655
O1 V2 2.060966 1_555
O2 P11 1.536673 1_655
O3 P10 1.574256 1_655
O3 V1 2.155203 1_555
O4 P0 1.573172 1_555
O5 P1 1.569058 1_555
O5 V0 2.006031 1_555
O6 P1 1.529940 1_555
O6 V1 1.927015 1_554
O7 P2 1.578933 1_545
O7 V2 2.064006 1_555
O8 P2 1.553449 1_555
O8 V1 2.054342 1_555
O9 P0 1.553681 1_555
O9 V2 2.024407 1_565
O10 P1 1.541054 1_555
O11 P2 1.565029 1_555
O11 V0 2.041231 1_556
O12 P4 1.560995 1_555
O13 P3 1.541191 1_555
O13 V0 2.162200 1_545
O14 P5 1.559816 1_555
O14 V1 2.012405 1_555
O15 P4 1.560640 1_555
O15 V2 2.044195 1_555
O16 P3 1.525180 1_555
O16 V2 1.932526 1_555
O17 P4 1.581832 1_555
O17 V1 2.055113 1_555
O18 P3 1.577904 1_555
O19 P5 1.554847 1_554
O19 V0 1.995618 1_545
O20 P6 1.545792 1_555
O20 V0 2.091787 1_555
O21 P8 1.574778 1_555
O21 V2 2.136677 1_565
O22 P7 1.514570 1_555
O23 P6 1.534670 1_556
O23 V1 2.079335 1_555
O24 P5 1.524230 1_554
O25 P4 1.519993 1_555
O26 P3 1.571790 1_555
O26 V3 2.136868 1_545
O27 P5 1.554988 1_555
O28 P6 1.574268 1_556
O29 P8 1.582330 1_555
O30 P7 1.597755 1_555
O31 P8 1.526536 1_555
O31 V3 1.926365 1_555
O32 P7 1.556411 1_555
O32 V3 2.047140 1_555
O33 P6 1.553348 1_555
O34 P8 1.528578 1_555
O35 P7 1.556069 1_555
O36 P9 1.547092 1_555
O37 P10 1.533748 1_555
O38 P11 1.552949 1_555
O38 V3 2.021269 1_545
O39 P9 1.558578 1_555
O40 P9 1.581521 1_565
O40 V3 2.045733 1_555
O41 P10 1.531629 1_555
O42 P10 1.581720 1_555
O43 P11 1.575643 1_555
O44 P1 1.559987 1_455
O45 P0 1.541843 1_455
O46 P0 1.535303 1_455
O46 V3 2.060448 1_555
O47 P2 1.523556 1_455
