# generated using pymatgen
data_Cr3O5
_symmetry_space_group_name_H-M   'P 1'
_cell_length_a   4.80979000
_cell_length_b   5.28588734
_cell_length_c   5.29593329
_cell_angle_alpha   113.01309603
_cell_angle_beta   91.64667886
_cell_angle_gamma   114.83410159
_symmetry_Int_Tables_number   1
_chemical_formula_structural   Cr3O5
_chemical_formula_sum   'Cr3 O5'
_cell_volume   109.42735008
_cell_formula_units_Z   1
loop_
 _symmetry_equiv_pos_site_id
 _symmetry_equiv_pos_as_xyz
  1  'x, y, z'
loop_
 _atom_site_type_symbol
 _atom_site_label
 _atom_site_symmetry_multiplicity
 _atom_site_fract_x
 _atom_site_fract_y
 _atom_site_fract_z
 _atom_site_occupancy
  Cr  Cr0  1  0.85224700  0.76537600  0.56085500  1
  Cr  Cr1  1  0.21078300  0.30751900  0.46594700  1
  Cr  Cr2  1  0.27160700  0.62313900  0.01615200  1
  O  O0  1  0.11168700  0.87218200  0.28265400  1
  O  O1  1  0.48063700  0.52482400  0.27367100  1
  O  O2  1  0.98191300  0.17841000  0.75311100  1
  O  O3  1  0.56829600  0.56994400  0.77245100  1
  O  O4  1  0.12252100  0.65916100  0.67423600  1
loop_
_geom_bond_atom_site_label_1
_geom_bond_atom_site_label_2
_geom_bond_distance
_geom_bond_site_symmetry_2
Cr0 O4 1.788143 1_655
Cr0 O2 1.809397 1_565
Cr0 O1 1.883428 1_555
Cr0 O3 1.999033 1_555
Cr0 O0 2.052034 1_655
Cr1 O3 1.895094 1_555
Cr1 O0 1.941727 1_545
Cr1 O1 1.943994 1_555
Cr1 O4 1.984571 1_555
Cr1 O2 2.065684 1_455
Cr2 O0 1.943397 1_555
Cr2 O3 1.985015 1_554
Cr2 O2 1.996207 1_454
Cr2 O1 2.013720 1_555
Cr2 O4 2.034444 1_554
