# generated using pymatgen
data_CaLa2FeO6
_symmetry_space_group_name_H-M   'P 1'
_cell_length_a   5.93110557
_cell_length_b   10.03618364
_cell_length_c   10.03034774
_cell_angle_alpha   76.35179165
_cell_angle_beta   84.99104528
_cell_angle_gamma   71.90105755
_symmetry_Int_Tables_number   1
_chemical_formula_structural   CaLa2FeO6
_chemical_formula_sum   'Ca4 La8 Fe4 O24'
_cell_volume   551.43267495
_cell_formula_units_Z   4
loop_
 _symmetry_equiv_pos_site_id
 _symmetry_equiv_pos_as_xyz
  1  'x, y, z'
loop_
 _atom_site_type_symbol
 _atom_site_label
 _atom_site_symmetry_multiplicity
 _atom_site_fract_x
 _atom_site_fract_y
 _atom_site_fract_z
 _atom_site_occupancy
  Ca  Ca0  1  0.87501600  0.24994900  0.62498900  1
  Ca  Ca1  1  0.12499200  0.75004100  0.37498700  1
  Ca  Ca2  1  0.37499100  0.25000800  0.12506300  1
  Ca  Ca3  1  0.62502000  0.74999400  0.87495500  1
  La  La0  1  0.33562300  0.37728800  0.43407600  1
  La  La1  1  0.58562200  0.87726600  0.18397300  1
  La  La2  1  0.83568900  0.37722600  0.93401100  1
  La  La3  1  0.08567400  0.87725300  0.68397900  1
  La  La4  1  0.41433200  0.12276900  0.81599600  1
  La  La5  1  0.66444600  0.62270000  0.56596200  1
  La  La6  1  0.91427400  0.12275400  0.31597300  1
  La  La7  1  0.16438200  0.62272300  0.06599700  1
  Fe  Fe0  1  0.50017800  0.99976400  0.50037300  1
  Fe  Fe1  1  0.74963400  0.50034700  0.24972900  1
  Fe  Fe2  1  0.00030400  0.99987100  0.00026000  1
  Fe  Fe3  1  0.24971900  0.50016100  0.74965400  1
  O  O0  1  0.76906800  0.06273900  0.57957100  1
  O  O1  1  0.01901800  0.56300200  0.32946000  1
  O  O2  1  0.26905000  0.06275900  0.07953400  1
  O  O3  1  0.51912800  0.56296000  0.82942700  1
  O  O4  1  0.97150900  0.15753600  0.84986200  1
  O  O5  1  0.22201700  0.65750400  0.59966700  1
  O  O6  1  0.47149000  0.15761500  0.34991100  1
  O  O7  1  0.72190000  0.65757800  0.09968500  1
  O  O8  1  0.48619800  0.37717800  0.65303300  1
  O  O9  1  0.73632900  0.87737300  0.40297400  1
  O  O10  1  0.98610100  0.37726100  0.15298600  1
  O  O11  1  0.23629100  0.87734000  0.90298800  1
  O  O12  1  0.98098700  0.43720700  0.67044700  1
  O  O13  1  0.23086100  0.93705800  0.42057600  1
  O  O14  1  0.48091800  0.43724600  0.17045300  1
  O  O15  1  0.73094900  0.93700800  0.92055400  1
  O  O16  1  0.26390900  0.12271400  0.59704500  1
  O  O17  1  0.51367800  0.62269800  0.34696300  1
  O  O18  1  0.76384900  0.12275000  0.09701600  1
  O  O19  1  0.01375800  0.62264100  0.84697100  1
  O  O20  1  0.77839300  0.34246200  0.40015800  1
  O  O21  1  0.02808100  0.84243900  0.15029300  1
  O  O22  1  0.27848800  0.34246600  0.90015700  1
  O  O23  1  0.52813500  0.84235000  0.65029300  1
loop_
_geom_bond_atom_site_label_1
_geom_bond_atom_site_label_2
_geom_bond_distance
_geom_bond_site_symmetry_2
Ca0 O20 2.276636 1_555
Ca0 O4 2.276763 1_555
Ca0 O8 2.292253 1_555
Ca0 O16 2.292469 1_655
Ca0 O0 2.306526 1_555
Ca0 O12 2.307222 1_555
Ca1 O21 2.275629 1_555
Ca1 O5 2.275777 1_555
Ca1 O9 2.291685 1_455
Ca1 O17 2.291890 1_555
Ca1 O13 2.305150 1_555
Ca1 O1 2.305439 1_555
Ca2 O6 2.276522 1_555
Ca2 O22 2.277122 1_554
Ca2 O10 2.292469 1_455
Ca2 O18 2.292533 1_555
Ca2 O14 2.306608 1_555
Ca2 O2 2.307334 1_555
Ca3 O23 2.275262 1_555
Ca3 O7 2.275938 1_556
Ca3 O19 2.292104 1_655
Ca3 O11 2.292122 1_555
Ca3 O3 2.305132 1_555
Ca3 O15 2.305356 1_555
La0 O1 2.312525 1_555
La0 O6 2.424534 1_555
La0 O8 2.441658 1_555
La0 O20 2.542479 1_555
La0 O14 2.696306 1_555
La0 O16 2.821983 1_555
La0 O17 2.895576 1_555
La0 O12 3.069701 1_455
La1 O2 2.310823 1_565
La1 O7 2.425375 1_555
La1 O9 2.443126 1_555
La1 O21 2.540491 1_655
La1 O15 2.694325 1_554
La1 O17 2.822529 1_555
La1 O18 2.896746 1_565
La1 O13 3.071669 1_555
La2 O3 2.312350 1_555
La2 O4 2.424594 1_555
La2 O10 2.441870 1_556
La2 O22 2.542699 1_655
La2 O12 2.695800 1_555
La2 O18 2.821594 1_556
La2 O19 2.895620 1_655
La2 O14 3.070854 1_556
La3 O0 2.310810 1_465
La3 O5 2.426055 1_555
La3 O11 2.442898 1_555
La3 O23 2.540392 1_555
La3 O13 2.693986 1_555
La3 O19 2.822833 1_555
La3 O16 2.896552 1_565
La3 O15 3.071276 1_455
La4 O15 2.312584 1_545
La4 O22 2.424724 1_555
La4 O16 2.441741 1_555
La4 O4 2.542837 1_455
La4 O2 2.695563 1_556
La4 O8 2.820956 1_555
La4 O11 2.895612 1_545
La4 O0 3.070626 1_555
La5 O12 2.310867 1_555
La5 O23 2.425270 1_555
La5 O17 2.442925 1_555
La5 O5 2.540371 1_555
La5 O3 2.694722 1_555
La5 O9 2.823243 1_555
La5 O8 2.897240 1_555
La5 O1 3.070120 1_655
La6 O13 2.312336 1_645
La6 O20 2.424954 1_555
La6 O18 2.441635 1_555
La6 O6 2.542522 1_555
La6 O0 2.695972 1_555
La6 O10 2.821754 1_555
La6 O9 2.894845 1_545
La6 O2 3.070807 1_655
La7 O14 2.310680 1_555
La7 O21 2.425670 1_555
La7 O19 2.443059 1_554
La7 O7 2.540588 1_455
La7 O1 2.694770 1_555
La7 O11 2.822918 1_554
La7 O10 2.896764 1_455
La7 O3 3.071320 1_554
Fe0 O23 1.882629 1_555
Fe0 O6 1.888229 1_565
Fe0 O16 1.918230 1_565
Fe0 O9 1.919229 1_555
Fe0 O0 2.158327 1_565
Fe0 O13 2.161886 1_555
Fe1 O7 1.882378 1_555
Fe1 O20 1.888197 1_555
Fe1 O17 1.917466 1_555
Fe1 O10 1.919955 1_555
Fe1 O14 2.158601 1_555
Fe1 O1 2.161584 1_655
Fe2 O21 1.883541 1_555
Fe2 O4 1.886612 1_464
Fe2 O11 1.918747 1_554
Fe2 O18 1.918886 1_465
Fe2 O2 2.157442 1_565
Fe2 O15 2.162579 1_454
Fe3 O5 1.882750 1_555
Fe3 O22 1.887457 1_555
Fe3 O19 1.918667 1_555
Fe3 O8 1.918710 1_555
Fe3 O12 2.157436 1_455
Fe3 O3 2.162803 1_555
