# generated using pymatgen
data_ThMn(N3O13)2
_symmetry_space_group_name_H-M   'P 1'
_cell_length_a   8.47450100
_cell_length_b   8.84064816
_cell_length_c   12.57703789
_cell_angle_alpha   95.71252883
_cell_angle_beta   90.00000000
_cell_angle_gamma   90.00000000
_symmetry_Int_Tables_number   1
_chemical_formula_structural   ThMn(N3O13)2
_chemical_formula_sum   'Th2 Mn2 N12 O52'
_cell_volume   937.59321726
_cell_formula_units_Z   2
loop_
 _symmetry_equiv_pos_site_id
 _symmetry_equiv_pos_as_xyz
  1  'x, y, z'
loop_
 _atom_site_type_symbol
 _atom_site_label
 _atom_site_symmetry_multiplicity
 _atom_site_fract_x
 _atom_site_fract_y
 _atom_site_fract_z
 _atom_site_occupancy
  Th  Th0  1  0.00000000  0.00000000  0.50000000  1
  Th  Th1  1  0.50000000  0.00000000  0.00000000  1
  Mn  Mn0  1  0.00000000  0.50000000  0.00000000  1
  Mn  Mn1  1  0.50000000  0.50000000  0.50000000  1
  N  N0  1  0.37710500  0.79299700  0.81081500  1
  N  N1  1  0.62289500  0.20700300  0.18918500  1
  N  N2  1  0.87710500  0.20700300  0.68918500  1
  N  N3  1  0.12289500  0.79299700  0.31081500  1
  N  N4  1  0.82801000  0.95903100  0.91115800  1
  N  N5  1  0.17199000  0.04096900  0.08884200  1
  N  N6  1  0.32801000  0.04096900  0.58884200  1
  N  N7  1  0.67199000  0.95903100  0.41115800  1
  N  N8  1  0.94618000  0.71291500  0.60922300  1
  N  N9  1  0.05382000  0.28708500  0.39077700  1
  N  N10  1  0.44618000  0.28708500  0.89077700  1
  N  N11  1  0.55382000  0.71291500  0.10922300  1
  O  O0  1  0.28480000  0.85389600  0.88289600  1
  O  O1  1  0.71520000  0.14610400  0.11710400  1
  O  O2  1  0.78480000  0.14610400  0.61710400  1
  O  O3  1  0.21520000  0.85389600  0.38289600  1
  O  O4  1  0.32455500  0.70136700  0.73762200  1
  O  O5  1  0.67544500  0.29863300  0.26237800  1
  O  O6  1  0.82455500  0.29863300  0.76237800  1
  O  O7  1  0.17544500  0.70136700  0.23762200  1
  O  O8  1  0.79936300  0.51939300  0.94128600  1
  O  O9  1  0.20063700  0.48060700  0.05871400  1
  O  O10  1  0.29936300  0.48060700  0.55871400  1
  O  O11  1  0.70063700  0.51939300  0.44128600  1
  O  O12  1  0.01703900  0.70859100  0.51989500  1
  O  O13  1  0.98296100  0.29140900  0.48010500  1
  O  O14  1  0.51703900  0.29140900  0.98010500  1
  O  O15  1  0.48296100  0.70859100  0.01989500  1
  O  O16  1  0.52870300  0.66589100  0.60491200  1
  O  O17  1  0.47129700  0.33410900  0.39508800  1
  O  O18  1  0.02870300  0.33410900  0.89508800  1
  O  O19  1  0.97129700  0.66589100  0.10491200  1
  O  O20  1  0.96167100  0.94630200  0.87661100  1
  O  O21  1  0.03832900  0.05369800  0.12338900  1
  O  O22  1  0.46167100  0.05369800  0.62338900  1
  O  O23  1  0.53832900  0.94630200  0.37661100  1
  O  O24  1  0.91989700  0.58973900  0.64879800  1
  O  O25  1  0.08010300  0.41026100  0.35120200  1
  O  O26  1  0.41989700  0.41026100  0.85120200  1
  O  O27  1  0.58010300  0.58973900  0.14879800  1
  O  O28  1  0.54311600  0.42132600  0.62997300  1
  O  O29  1  0.45688400  0.57867400  0.37002700  1
  O  O30  1  0.04311600  0.57867400  0.87002700  1
  O  O31  1  0.95688400  0.42132600  0.12997300  1
  O  O32  1  0.90471300  0.84077800  0.65478000  1
  O  O33  1  0.09528700  0.15922200  0.34522000  1
  O  O34  1  0.40471300  0.15922200  0.84522000  1
  O  O35  1  0.59528700  0.84077800  0.15478000  1
  O  O36  1  0.74039800  0.60163900  0.77346100  1
  O  O37  1  0.25960200  0.39836100  0.22653900  1
  O  O38  1  0.24039800  0.39836100  0.72653900  1
  O  O39  1  0.75960200  0.60163900  0.27346100  1
  O  O40  1  0.23505100  0.93096900  0.60809300  1
  O  O41  1  0.76494900  0.06903100  0.39190700  1
  O  O42  1  0.73505100  0.06903100  0.89190700  1
  O  O43  1  0.26494900  0.93096900  0.10809300  1
  O  O44  1  0.52225900  0.83058000  0.81793500  1
  O  O45  1  0.47774100  0.16942000  0.18206500  1
  O  O46  1  0.02225900  0.16942000  0.68206500  1
  O  O47  1  0.97774100  0.83058000  0.31793500  1
  O  O48  1  0.76551400  0.86371200  0.97104800  1
  O  O49  1  0.23448600  0.13628800  0.02895200  1
  O  O50  1  0.26551400  0.13628800  0.52895200  1
  O  O51  1  0.73448600  0.86371200  0.47104800  1
loop_
_geom_bond_atom_site_label_1
_geom_bond_atom_site_label_2
_geom_bond_distance
_geom_bond_site_symmetry_2
Mn0 O9 1.868400 1_555
Mn0 O8 1.868400 1_454
Mn0 O30 1.875039 1_554
Mn0 O31 1.875039 1_455
Mn0 O19 1.888341 1_455
Mn0 O18 1.888341 1_554
Mn1 O10 1.868400 1_555
Mn1 O11 1.868400 1_555
Mn1 O28 1.875039 1_555
Mn1 O29 1.875039 1_555
Mn1 O16 1.888341 1_555
Mn1 O17 1.888341 1_555
N0 O4 1.246394 1_555
N0 O44 1.275012 1_555
N0 O0 1.275325 1_555
N1 O5 1.246394 1_555
N1 O45 1.275012 1_555
N1 O1 1.275325 1_555
N2 O6 1.246394 1_555
N2 O46 1.275012 1_655
N2 O2 1.275325 1_555
N3 O7 1.246394 1_555
N3 O47 1.275012 1_455
N3 O3 1.275325 1_555
N4 O20 1.214394 1_555
N4 O42 1.292979 1_565
N4 O48 1.297822 1_555
N5 O21 1.214394 1_555
N5 O43 1.292979 1_545
N5 O49 1.297822 1_555
N6 O22 1.214394 1_555
N6 O40 1.292979 1_545
N6 O50 1.297822 1_555
N7 O23 1.214394 1_555
N7 O41 1.292979 1_565
N7 O51 1.297822 1_555
N8 O24 1.261379 1_555
N8 O32 1.265162 1_555
N8 O12 1.271108 1_655
N9 O25 1.261379 1_555
N9 O33 1.265162 1_555
N9 O13 1.271108 1_455
N10 O26 1.261379 1_555
N10 O34 1.265162 1_555
N10 O14 1.271108 1_555
N11 O27 1.261379 1_555
N11 O35 1.265162 1_555
N11 O15 1.271108 1_555
O0 Th1 2.604762 1_566
O1 Th1 2.604762 1_555
O2 Th0 2.604762 1_655
O3 Th0 2.604762 1_565
O12 Th0 2.617026 1_565
O13 Th0 2.617026 1_655
O14 Th1 2.617026 1_556
O15 Th1 2.617026 1_565
O32 Th0 2.639796 1_665
O33 Th0 2.639796 1_555
O34 Th1 2.639796 1_556
O35 Th1 2.639796 1_565
O40 Th0 2.520643 1_565
O41 Th0 2.520643 1_655
O42 Th1 2.520643 1_556
O43 Th1 2.520643 1_565
O44 Th1 2.615250 1_566
O45 Th1 2.615250 1_555
O46 Th0 2.615250 1_555
O47 Th0 2.615250 1_665
O48 Th1 2.561233 1_566
O49 Th1 2.561233 1_555
O50 Th0 2.561233 1_555
O51 Th0 2.561233 1_665
