# generated using pymatgen
data_BaAsHO4
_symmetry_space_group_name_H-M   'P 1'
_cell_length_a   7.37583839
_cell_length_b   7.85375000
_cell_length_c   22.20262076
_cell_angle_alpha   90.00000000
_cell_angle_beta   96.09026356
_cell_angle_gamma   90.00000000
_symmetry_Int_Tables_number   1
_chemical_formula_structural   BaAsHO4
_chemical_formula_sum   'Ba12 As12 H12 O48'
_cell_volume   1278.89414610
_cell_formula_units_Z   12
loop_
 _symmetry_equiv_pos_site_id
 _symmetry_equiv_pos_as_xyz
  1  'x, y, z'
loop_
 _atom_site_type_symbol
 _atom_site_label
 _atom_site_symmetry_multiplicity
 _atom_site_fract_x
 _atom_site_fract_y
 _atom_site_fract_z
 _atom_site_occupancy
  Ba  Ba0  1  0.84647300  0.82627700  0.00252900  1
  Ba  Ba1  1  0.15352700  0.32627700  0.99747100  1
  Ba  Ba2  1  0.56041400  0.50383800  0.16834200  1
  Ba  Ba3  1  0.43958600  0.00383800  0.83165800  1
  Ba  Ba4  1  0.26116400  0.03224500  0.17759300  1
  Ba  Ba5  1  0.73883600  0.53224500  0.82240700  1
  Ba  Ba6  1  0.99995100  0.32148000  0.31348200  1
  Ba  Ba7  1  0.00004900  0.82148000  0.68651800  1
  Ba  Ba8  1  0.72394500  0.83028100  0.33042200  1
  Ba  Ba9  1  0.27605500  0.33028100  0.66957800  1
  Ba  Ba10  1  0.64415200  0.23503400  0.48191300  1
  Ba  Ba11  1  0.35584800  0.73503400  0.51808700  1
  As  As0  1  0.33234400  0.84335100  0.00686600  1
  As  As1  1  0.66765600  0.34335100  0.99313400  1
  As  As2  1  0.04819400  0.49604500  0.14521100  1
  As  As3  1  0.95180600  0.99604500  0.85478900  1
  As  As4  1  0.75860500  0.01274100  0.18742400  1
  As  As5  1  0.24139500  0.51274100  0.81257600  1
  As  As6  1  0.51389500  0.33053200  0.32211500  1
  As  As7  1  0.48610500  0.83053200  0.67788500  1
  As  As8  1  0.23014300  0.80273100  0.33707900  1
  As  As9  1  0.76985700  0.30273100  0.66292100  1
  As  As10  1  0.15716300  0.24473200  0.49775400  1
  As  As11  1  0.84283700  0.74473200  0.50224600  1
  H  H0  1  0.50119700  0.61059100  0.04682400  1
  H  H1  1  0.49880300  0.11059100  0.95317600  1
  H  H2  1  0.14271500  0.66618800  0.22662300  1
  H  H3  1  0.85728500  0.16618800  0.77337700  1
  H  H4  1  0.84229500  0.09922200  0.09265700  1
  H  H5  1  0.15770500  0.59922200  0.90734300  1
  H  H6  1  0.39048300  0.52513100  0.38928700  1
  H  H7  1  0.60951700  0.02513100  0.61071300  1
  H  H8  1  0.17874800  0.01155700  0.40856500  1
  H  H9  1  0.82125200  0.51155700  0.59143500  1
  H  H10  1  0.02191100  0.03149700  0.55327600  1
  H  H11  1  0.97808900  0.53149700  0.44672400  1
  O  O0  1  0.22554900  0.99043200  0.04682300  1
  O  O1  1  0.77445100  0.49043200  0.95317700  1
  O  O2  1  0.81706800  0.19320600  0.02523700  1
  O  O3  1  0.18293200  0.69320600  0.97476300  1
  O  O4  1  0.52163700  0.42366100  0.04123000  1
  O  O5  1  0.47836300  0.92366100  0.95877000  1
  O  O6  1  0.48817100  0.73602800  0.06151100  1
  O  O7  1  0.51182900  0.23602800  0.93848900  1
  O  O8  1  0.92359900  0.57780400  0.08361100  1
  O  O9  1  0.07640100  0.07780400  0.91638900  1
  O  O10  1  0.91878200  0.41721400  0.19727900  1
  O  O11  1  0.08121800  0.91721400  0.80272100  1
  O  O12  1  0.21216900  0.35981300  0.12439800  1
  O  O13  1  0.78783100  0.85981300  0.87560200  1
  O  O14  1  0.18208200  0.66523400  0.18471400  1
  O  O15  1  0.81791800  0.16523400  0.81528600  1
  O  O16  1  0.59717500  0.16656600  0.17437000  1
  O  O17  1  0.40282500  0.66656600  0.82563000  1
  O  O18  1  0.65409900  0.82523400  0.20099300  1
  O  O19  1  0.34590100  0.32523400  0.79900700  1
  O  O20  1  0.92879800  0.04266400  0.24508300  1
  O  O21  1  0.07120200  0.54266400  0.75491700  1
  O  O22  1  0.88037800  0.00166200  0.12133500  1
  O  O23  1  0.11962200  0.50166200  0.87866500  1
  O  O24  1  0.33605400  0.29097500  0.26866800  1
  O  O25  1  0.66394600  0.79097500  0.73133200  1
  O  O26  1  0.65380400  0.17021800  0.35074200  1
  O  O27  1  0.34619600  0.67021800  0.64925800  1
  O  O28  1  0.64843100  0.49343100  0.30056300  1
  O  O29  1  0.35156900  0.99343100  0.69943700  1
  O  O30  1  0.41108400  0.39339600  0.38895700  1
  O  O31  1  0.58891600  0.89339600  0.61104300  1
  O  O32  1  0.36476600  0.88131000  0.28643000  1
  O  O33  1  0.63523400  0.38131000  0.71357000  1
  O  O34  1  0.06405100  0.67098900  0.30465800  1
  O  O35  1  0.93594900  0.17098900  0.69534200  1
  O  O36  1  0.36762500  0.71287600  0.39626000  1
  O  O37  1  0.63237500  0.21287600  0.60374000  1
  O  O38  1  0.10907500  0.97475700  0.36861500  1
  O  O39  1  0.89092500  0.47475700  0.63138500  1
  O  O40  1  0.70596400  0.89746100  0.46789500  1
  O  O41  1  0.29403600  0.39746100  0.53210500  1
  O  O42  1  0.00720100  0.82428000  0.55561400  1
  O  O43  1  0.99279900  0.32428000  0.44438600  1
  O  O44  1  0.28164800  0.07791200  0.47337800  1
  O  O45  1  0.71835200  0.57791200  0.52662200  1
  O  O46  1  0.03072200  0.16130100  0.55582800  1
  O  O47  1  0.96927800  0.66130100  0.44417200  1
loop_
_geom_bond_atom_site_label_1
_geom_bond_atom_site_label_2
_geom_bond_distance
_geom_bond_site_symmetry_2
Ba0 O8 2.674936 1_555
Ba0 O13 2.817724 1_554
Ba0 O3 2.820566 1_654
Ba0 O1 2.883834 1_554
Ba0 O5 2.888086 1_554
Ba0 H4 2.934884 1_565
Ba0 O2 2.937521 1_565
Ba0 O22 2.962751 1_565
Ba0 O0 3.140613 1_655
Ba0 O6 3.152135 1_555
Ba0 O9 3.335336 1_664
Ba1 O9 2.674936 1_555
Ba1 O12 2.817724 1_556
Ba1 O2 2.820566 1_456
Ba1 O0 2.883834 1_546
Ba1 O4 2.888086 1_556
Ba1 H5 2.934884 1_555
Ba1 O3 2.937521 1_555
Ba1 O23 2.962751 1_555
Ba1 O1 3.140613 1_455
Ba1 O7 3.152135 1_555
Ba1 O8 3.335336 1_456
Ba2 O16 2.664608 1_555
Ba2 O18 2.695947 1_555
Ba2 O10 2.738999 1_555
Ba2 H0 2.814775 1_555
Ba2 O4 2.876101 1_555
Ba2 O12 2.880509 1_555
Ba2 O28 2.939694 1_555
Ba2 O6 2.994523 1_555
Ba2 O14 3.121068 1_555
Ba2 O24 3.358162 1_555
Ba2 O8 3.481641 1_555
Ba3 O17 2.664608 1_545
Ba3 O19 2.695947 1_555
Ba3 O11 2.738999 1_545
Ba3 H1 2.814775 1_555
Ba3 O5 2.876101 1_545
Ba3 O13 2.880509 1_545
Ba3 O29 2.939694 1_545
Ba3 O7 2.994523 1_555
Ba3 O15 3.121068 1_555
Ba3 O25 3.358162 1_545
Ba3 O9 3.481641 1_555
Ba4 O16 2.701462 1_555
Ba4 O32 2.727014 1_545
Ba4 O12 2.837854 1_555
Ba4 O24 2.878549 1_555
Ba4 O0 2.906020 1_545
Ba4 O14 2.948407 1_545
Ba4 O22 2.960035 1_455
Ba4 O20 3.006871 1_455
Ba4 O18 3.315629 1_545
Ba5 O17 2.701462 1_555
Ba5 O33 2.727014 1_555
Ba5 O13 2.837854 1_555
Ba5 O25 2.878549 1_555
Ba5 O1 2.906020 1_555
Ba5 O15 2.948407 1_555
Ba5 O23 2.960035 1_655
Ba5 O21 3.006871 1_655
Ba5 O19 3.315629 1_555
Ba6 O20 2.684694 1_555
Ba6 O10 2.693036 1_555
Ba6 O24 2.777848 1_655
Ba6 O34 2.795774 1_655
Ba6 O28 2.910428 1_555
Ba6 O43 2.912564 1_555
Ba6 O26 3.010361 1_555
Ba6 O38 3.058158 1_645
Ba6 O30 3.353299 1_655
Ba7 O21 2.684694 1_555
Ba7 O11 2.693036 1_555
Ba7 O25 2.777848 1_455
Ba7 O35 2.795774 1_465
Ba7 O29 2.910428 1_555
Ba7 O42 2.912564 1_555
Ba7 O27 3.010361 1_555
Ba7 O39 3.058158 1_455
Ba7 O31 3.353299 1_455
Ba8 O32 2.753919 1_555
Ba8 O26 2.765582 1_565
Ba8 O28 2.769519 1_555
Ba8 O18 2.865446 1_555
Ba8 O34 2.913711 1_655
Ba8 O20 3.043484 1_565
Ba8 O38 3.092697 1_655
Ba8 O40 3.114187 1_555
Ba8 O47 3.231773 1_555
Ba8 O36 3.272523 1_555
Ba9 O33 2.753919 1_555
Ba9 O27 2.765582 1_555
Ba9 O29 2.769519 1_545
Ba9 O19 2.865446 1_555
Ba9 O35 2.913711 1_455
Ba9 O21 3.043484 1_555
Ba9 O39 3.092697 1_455
Ba9 O41 3.114187 1_555
Ba9 O46 3.231773 1_555
Ba9 O37 3.272523 1_555
Ba10 O40 2.713627 1_545
Ba10 O37 2.721039 1_555
Ba10 O30 2.829982 1_555
Ba10 O43 2.872818 1_555
Ba10 O45 2.901932 1_555
Ba10 O44 2.932609 1_555
Ba10 O26 2.964779 1_555
Ba10 O41 3.185689 1_555
Ba10 O46 3.188332 1_655
Ba11 O41 2.713627 1_555
Ba11 O36 2.721039 1_555
Ba11 O31 2.829982 1_555
Ba11 O42 2.872818 1_555
Ba11 O44 2.901932 1_565
Ba11 O45 2.932609 1_555
Ba11 O27 2.964779 1_555
Ba11 O40 3.185689 1_555
Ba11 O47 3.188332 1_455
As0 O0 1.700039 1_555
As0 O5 1.715267 1_554
As0 O3 1.716500 1_554
As0 O6 1.790974 1_555
As1 O1 1.700039 1_555
As1 O4 1.715267 1_556
As1 O2 1.716500 1_556
As1 O7 1.790974 1_555
As2 O8 1.691364 1_455
As2 O10 1.692634 1_455
As2 O12 1.714544 1_555
As2 O14 1.823820 1_555
As3 O9 1.691364 1_665
As3 O11 1.692634 1_655
As3 O13 1.714544 1_555
As3 O15 1.823820 1_565
As4 O16 1.699415 1_555
As4 O18 1.703775 1_545
As4 O20 1.711407 1_555
As4 O22 1.801961 1_555
As5 O17 1.699415 1_555
As5 O19 1.703775 1_555
As5 O21 1.711407 1_555
As5 O23 1.801961 1_555
As6 O24 1.701477 1_555
As6 O26 1.707327 1_555
As6 O28 1.717906 1_555
As6 O30 1.805563 1_555
As7 O25 1.701477 1_555
As7 O27 1.707327 1_555
As7 O29 1.717906 1_555
As7 O31 1.805563 1_555
As8 O32 1.693621 1_555
As8 O34 1.703634 1_555
As8 O36 1.723397 1_555
As8 O38 1.801574 1_555
As9 O33 1.693621 1_555
As9 O35 1.703634 1_555
As9 O37 1.723397 1_555
As9 O39 1.801574 1_555
As10 O41 1.695963 1_555
As10 O44 1.719865 1_555
As10 O43 1.720244 1_455
As10 O46 1.793545 1_555
As11 O40 1.695963 1_555
As11 O45 1.719865 1_555
As11 O42 1.720244 1_655
As11 O47 1.793545 1_555
H0 O6 1.045340 1_555
H0 O4 1.482380 1_555
H1 O7 1.045340 1_555
H1 O5 1.482380 1_545
H2 O14 1.003747 1_555
H3 O15 1.003747 1_555
H4 O22 1.016589 1_555
H4 O2 1.661645 1_555
H5 O23 1.016589 1_555
H5 O3 1.661645 1_555
H6 O30 1.045851 1_555
H6 O36 1.494018 1_555
H7 O31 1.045851 1_545
H7 O37 1.494018 1_555
H8 O38 1.018656 1_545
H8 O44 1.639100 1_555
H9 O39 1.018656 1_555
H9 O45 1.639100 1_555
H10 O46 1.022706 1_555
H10 O42 1.632235 1_545
H11 O47 1.022706 1_555
H11 O43 1.632235 1_555
