# generated using pymatgen
data_NaGdH2S2O9
_symmetry_space_group_name_H-M   'P 1'
_cell_length_a   7.02400855
_cell_length_b   7.02400855
_cell_length_c   12.86684500
_cell_angle_alpha   90.00000000
_cell_angle_beta   90.00000000
_cell_angle_gamma   120.00000518
_symmetry_Int_Tables_number   1
_chemical_formula_structural   NaGdH2S2O9
_chemical_formula_sum   'Na3 Gd3 H6 S6 O27'
_cell_volume   549.75949823
_cell_formula_units_Z   3
loop_
 _symmetry_equiv_pos_site_id
 _symmetry_equiv_pos_as_xyz
  1  'x, y, z'
loop_
 _atom_site_type_symbol
 _atom_site_label
 _atom_site_symmetry_multiplicity
 _atom_site_fract_x
 _atom_site_fract_y
 _atom_site_fract_z
 _atom_site_occupancy
  Na  Na0  1  0.47077400  0.47077200  0.66664200  1
  Na  Na1  1  0.52922800  0.00000100  0.99997600  1
  Na  Na2  1  0.99999900  0.52922600  0.33330900  1
  Gd  Gd0  1  0.55881700  0.00000300  0.50000200  1
  Gd  Gd1  1  0.99999700  0.55881300  0.83333600  1
  Gd  Gd2  1  0.44118700  0.44118300  0.16666900  1
  H  H0  1  0.03472200  0.09802200  0.45983000  1
  H  H1  1  0.90197800  0.93670000  0.79316400  1
  H  H2  1  0.06330000  0.96527800  0.12649700  1
  H  H3  1  0.96526400  0.06329500  0.20683700  1
  H  H4  1  0.93670500  0.90196900  0.54017100  1
  H  H5  1  0.09803100  0.03473600  0.87350400  1
  S  S0  1  0.55661000  0.01346600  0.74091200  1
  S  S1  1  0.98653400  0.54314400  0.07424600  1
  S  S2  1  0.45685600  0.44339000  0.40757900  1
  S  S3  1  0.44337700  0.45686400  0.92576200  1
  S  S4  1  0.54313600  0.98651300  0.25909600  1
  S  S5  1  0.01348700  0.55662300  0.59242900  1
  O  O0  1  0.75263800  0.16871700  0.80233100  1
  O  O1  1  0.83128300  0.58392100  0.13566500  1
  O  O2  1  0.41607900  0.24736200  0.46899800  1
  O  O3  1  0.24736700  0.41608300  0.86434200  1
  O  O4  1  0.58391700  0.83128500  0.19767600  1
  O  O5  1  0.16871500  0.75263300  0.53100900  1
  O  O6  1  0.37972600  0.87525900  0.81562400  1
  O  O7  1  0.12474100  0.50446600  0.14895800  1
  O  O8  1  0.49553400  0.62027400  0.48229100  1
  O  O9  1  0.62027600  0.49552500  0.85104300  1
  O  O10  1  0.50447500  0.12475100  0.18437700  1
  O  O11  1  0.87524900  0.37972400  0.51771000  1
  O  O12  1  0.61354300  0.87494700  0.67314500  1
  O  O13  1  0.12505300  0.73859600  0.00647900  1
  O  O14  1  0.26140400  0.38645700  0.33981200  1
  O  O15  1  0.38645300  0.26140200  0.99352700  1
  O  O16  1  0.73859800  0.12505100  0.32686100  1
  O  O17  1  0.87494900  0.61354700  0.66019400  1
  O  O18  1  0.48754700  0.13193800  0.66694200  1
  O  O19  1  0.86806200  0.35560900  0.00027600  1
  O  O20  1  0.64439100  0.51245300  0.33360900  1
  O  O21  1  0.51245300  0.64438400  0.99972700  1
  O  O22  1  0.35561600  0.86806900  0.33306100  1
  O  O23  1  0.13193100  0.48754700  0.66639400  1
  O  O24  1  0.90447100  0.00001100  0.50002900  1
  O  O25  1  0.99998900  0.90446100  0.83336300  1
  O  O26  1  0.09553900  0.09552900  0.16669600  1
loop_
_geom_bond_atom_site_label_1
_geom_bond_atom_site_label_2
_geom_bond_distance
_geom_bond_site_symmetry_2
Na0 O18 2.441016 1_555
Na0 O23 2.441086 1_555
Na0 O17 2.495012 1_555
Na0 O12 2.495043 1_555
Na0 O8 2.564526 1_555
Na0 O9 2.565128 1_555
Na0 O2 2.911074 1_555
Na0 O3 2.911699 1_555
Na1 O19 2.441020 1_556
Na1 O21 2.441079 1_545
Na1 O15 2.495019 1_555
Na1 O13 2.495041 1_546
Na1 O6 2.564538 1_545
Na1 O10 2.565130 1_556
Na1 O0 2.911086 1_555
Na1 O4 2.911692 1_546
Na2 O20 2.441023 1_555
Na2 O22 2.441082 1_655
Na2 O16 2.495013 1_555
Na2 O14 2.495036 1_655
Na2 O7 2.564526 1_655
Na2 O11 2.565129 1_555
Na2 O1 2.911077 1_555
Na2 O5 2.911697 1_655
Gd0 O24 2.427849 1_555
Gd0 O2 2.434138 1_555
Gd0 O5 2.434183 1_545
Gd0 O11 2.485483 1_555
Gd0 O8 2.485557 1_545
Gd0 O22 2.487403 1_545
Gd0 O18 2.487404 1_555
Gd0 O16 2.493982 1_555
Gd0 O12 2.494013 1_545
Gd1 O25 2.427863 1_555
Gd1 O0 2.434135 1_555
Gd1 O3 2.434170 1_655
Gd1 O9 2.485484 1_555
Gd1 O6 2.485558 1_655
Gd1 O19 2.487401 1_556
Gd1 O23 2.487412 1_655
Gd1 O17 2.493996 1_555
Gd1 O13 2.494015 1_656
Gd2 O26 2.427855 1_555
Gd2 O1 2.434131 1_555
Gd2 O4 2.434185 1_555
Gd2 O10 2.485479 1_555
Gd2 O7 2.485557 1_555
Gd2 O20 2.487400 1_555
Gd2 O21 2.487415 1_554
Gd2 O15 2.493993 1_554
Gd2 O14 2.494016 1_555
H0 O24 0.973985 1_455
H1 O25 0.973981 1_555
H2 O26 0.973987 1_565
H3 O26 0.973738 1_655
H4 O24 0.973750 1_565
H5 O25 0.973739 1_445
O0 S0 1.485951 1_555
O1 S1 1.485951 1_555
O2 S2 1.485951 1_555
O3 S3 1.485845 1_555
O4 S4 1.485839 1_555
O5 S5 1.485843 1_555
O6 S0 1.484598 1_565
O7 S1 1.484601 1_455
O8 S2 1.484596 1_555
O9 S3 1.484761 1_555
O10 S4 1.484761 1_545
O11 S5 1.484761 1_655
O12 S0 1.501980 1_565
O13 S1 1.501980 1_455
O14 S2 1.501980 1_555
O15 S3 1.502032 1_555
O16 S4 1.502032 1_545
O17 S5 1.502032 1_655
O18 S0 1.495766 1_555
O19 S1 1.495765 1_555
O20 S2 1.495765 1_555
O21 S3 1.495638 1_555
O22 S4 1.495638 1_555
O23 S5 1.495638 1_555
