# generated using pymatgen
data_Co2O3F
_symmetry_space_group_name_H-M   'P 1'
_cell_length_a   5.39208132
_cell_length_b   5.43165503
_cell_length_c   5.43147146
_cell_angle_alpha   68.85662507
_cell_angle_beta   103.23754039
_cell_angle_gamma   65.47761082
_symmetry_Int_Tables_number   1
_chemical_formula_structural   Co2O3F
_chemical_formula_sum   'Co4 O6 F2'
_cell_volume   120.79645171
_cell_formula_units_Z   2
loop_
 _symmetry_equiv_pos_site_id
 _symmetry_equiv_pos_as_xyz
  1  'x, y, z'
loop_
 _atom_site_type_symbol
 _atom_site_label
 _atom_site_symmetry_multiplicity
 _atom_site_fract_x
 _atom_site_fract_y
 _atom_site_fract_z
 _atom_site_occupancy
  Co  Co0  1  0.20685000  0.24860600  0.45545200  1
  Co  Co1  1  0.79307400  0.75138600  0.54446400  1
  Co  Co2  1  0.00020300  0.99981800  0.00002300  1
  Co  Co3  1  0.49987100  0.50011800  0.99999000  1
  O  O0  1  0.06845400  0.75395300  0.82239400  1
  O  O1  1  0.50001100  0.80599000  0.69402900  1
  O  O2  1  0.99999600  0.31122300  0.68879700  1
  O  O3  1  0.49999900  0.19401200  0.30598400  1
  O  O4  1  0.99999800  0.68879300  0.31121400  1
  O  O5  1  0.93151100  0.24607800  0.17760300  1
  F  F0  1  0.56494400  0.23504600  0.79997700  1
  F  F1  1  0.43508900  0.76497800  0.20007200  1
loop_
_geom_bond_atom_site_label_1
_geom_bond_atom_site_label_2
_geom_bond_distance
_geom_bond_site_symmetry_2
Co0 O5 1.867513 1_455
Co0 O4 1.899804 1_455
Co0 O2 1.899878 1_455
Co0 O1 1.902004 1_545
Co0 O3 1.902062 1_555
Co0 F0 2.315843 1_555
Co1 O0 1.868058 1_655
Co1 O2 1.899590 1_555
Co1 O4 1.899660 1_555
Co1 O3 1.901953 1_565
Co1 O1 1.902014 1_555
Co1 F1 2.314927 1_555
Co2 O0 1.879842 1_554
Co2 O5 1.881417 1_465
Co2 O4 1.911373 1_455
Co2 O2 1.911382 1_464
Co2 F1 1.912265 1_555
Co2 F0 1.913814 1_464
Co3 O3 1.879285 1_556
Co3 O1 1.879289 1_555
Co3 O0 1.895607 1_555
Co3 O5 1.896615 1_556
Co3 F1 2.063306 1_556
Co3 F0 2.063942 1_555
