# generated using pymatgen
data_Cu2NiO4
_symmetry_space_group_name_H-M   'P 1'
_cell_length_a   6.11243588
_cell_length_b   6.11243588
_cell_length_c   5.35293903
_cell_angle_alpha   65.20079673
_cell_angle_beta   65.20079673
_cell_angle_gamma   104.70560990
_symmetry_Int_Tables_number   1
_chemical_formula_structural   Cu2NiO4
_chemical_formula_sum   'Cu4 Ni2 O8'
_cell_volume   140.62132877
_cell_formula_units_Z   2
loop_
 _symmetry_equiv_pos_site_id
 _symmetry_equiv_pos_as_xyz
  1  'x, y, z'
loop_
 _atom_site_type_symbol
 _atom_site_label
 _atom_site_symmetry_multiplicity
 _atom_site_fract_x
 _atom_site_fract_y
 _atom_site_fract_z
 _atom_site_occupancy
  Cu  Cu0  1  0.50000000  0.00000000  0.00000000  1
  Cu  Cu1  1  0.50000000  0.50000000  0.00000000  1
  Cu  Cu2  1  0.50000000  0.50000000  0.50000000  1
  Cu  Cu3  1  0.00000000  0.50000000  0.50000000  1
  Ni  Ni0  1  0.08310500  0.91689500  0.75000000  1
  Ni  Ni1  1  0.91689500  0.08310500  0.25000000  1
  O  O0  1  0.15967000  0.48631800  0.13354800  1
  O  O1  1  0.48631800  0.15967000  0.63354800  1
  O  O2  1  0.27986200  0.11659300  0.22287300  1
  O  O3  1  0.11659300  0.27986200  0.72287300  1
  O  O4  1  0.88340700  0.72013800  0.27712700  1
  O  O5  1  0.72013800  0.88340700  0.77712700  1
  O  O6  1  0.51368200  0.84033000  0.36645200  1
  O  O7  1  0.84033000  0.51368200  0.86645200  1
loop_
_geom_bond_atom_site_label_1
_geom_bond_atom_site_label_2
_geom_bond_distance
_geom_bond_site_symmetry_2
Cu0 O6 1.838594 1_545
Cu0 O1 1.838594 1_554
Cu0 O5 1.896110 1_544
Cu0 O2 1.896110 1_555
Cu1 O2 1.852839 1_555
Cu1 O5 1.852839 1_554
Cu1 O0 1.859966 1_555
Cu1 O7 1.859966 1_554
Cu2 O3 1.852839 1_555
Cu2 O4 1.852839 1_555
Cu2 O1 1.859966 1_555
Cu2 O6 1.859966 1_555
Cu3 O7 1.838594 1_455
Cu3 O0 1.838594 1_555
Cu3 O4 1.896110 1_455
Cu3 O3 1.896110 1_555
Ni0 O2 2.101627 1_565
Ni0 O4 2.101627 1_456
Ni0 O3 2.111746 1_565
Ni0 O5 2.111746 1_455
Ni0 O1 2.177921 1_565
Ni0 O7 2.177921 1_455
Ni1 O5 2.101627 1_545
Ni1 O3 2.101627 1_654
Ni1 O4 2.111746 1_545
Ni1 O2 2.111746 1_655
Ni1 O6 2.177921 1_545
Ni1 O0 2.177921 1_655
