# generated using pymatgen
data_Yb4MgTi2O10
_symmetry_space_group_name_H-M   'P 1'
_cell_length_a   5.40142366
_cell_length_b   6.25285989
_cell_length_c   7.97841326
_cell_angle_alpha   67.39913962
_cell_angle_beta   86.69396020
_cell_angle_gamma   64.31420470
_symmetry_Int_Tables_number   1
_chemical_formula_structural   Yb4MgTi2O10
_chemical_formula_sum   'Yb4 Mg1 Ti2 O10'
_cell_volume   222.26044234
_cell_formula_units_Z   1
loop_
 _symmetry_equiv_pos_site_id
 _symmetry_equiv_pos_as_xyz
  1  'x, y, z'
loop_
 _atom_site_type_symbol
 _atom_site_label
 _atom_site_symmetry_multiplicity
 _atom_site_fract_x
 _atom_site_fract_y
 _atom_site_fract_z
 _atom_site_occupancy
  Yb  Yb0  1  0.62009500  0.76300700  0.72700200  1
  Yb  Yb1  1  0.60397700  0.76298000  0.24347700  1
  Yb  Yb2  1  0.35371800  0.30437100  0.77080500  1
  Yb  Yb3  1  0.37839100  0.26544100  0.27687700  1
  Mg  Mg0  1  0.85869800  0.37012300  0.08955200  1
  Ti  Ti0  1  0.98693700  0.04993800  0.54110700  1
  Ti  Ti1  1  0.04605200  0.93456500  0.99402200  1
  O  O0  1  0.84631000  0.75624200  0.97686300  1
  O  O1  1  0.36186400  0.85901600  0.47417600  1
  O  O2  1  0.02758600  0.70843500  0.59484500  1
  O  O3  1  0.72166600  0.32706900  0.87643300  1
  O  O4  1  0.38293900  0.63756600  0.10103700  1
  O  O5  1  0.94300900  0.34779600  0.33884800  1
  O  O6  1  0.60613500  0.15785900  0.55939600  1
  O  O7  1  0.16213400  0.03390100  0.74597000  1
  O  O8  1  0.23832300  0.13985200  0.05449300  1
  O  O9  1  0.79966400  0.04183700  0.17973900  1
loop_
_geom_bond_atom_site_label_1
_geom_bond_atom_site_label_2
_geom_bond_distance
_geom_bond_site_symmetry_2
Mg0 O5 2.004714 1_555
Mg0 O8 2.009988 1_655
Mg0 O3 2.044810 1_554
Mg0 O9 2.058830 1_555
Mg0 O0 2.200082 1_554
Mg0 O4 2.402917 1_555
O0 Ti1 1.898221 1_655
O0 Yb0 2.374896 1_555
O0 Yb1 2.437179 1_556
O1 Ti0 2.020153 1_465
O1 Yb0 2.245590 1_555
O1 Yb1 2.312970 1_555
O1 Yb3 2.459645 1_565
O2 Ti0 1.921607 1_465
O2 Yb2 2.271184 1_555
O2 Yb0 2.330352 1_455
O3 Ti1 2.160025 1_645
O3 Yb2 2.282526 1_555
O3 Yb0 2.331065 1_555
O4 Ti1 1.876177 1_554
O4 Yb3 2.217998 1_555
O4 Yb1 2.232717 1_555
O5 Ti0 1.865513 1_555
O5 Yb3 2.247632 1_655
O5 Yb1 2.278893 1_555
O6 Ti0 1.882879 1_555
O6 Yb0 2.280836 1_545
O6 Yb2 2.320093 1_555
O6 Yb3 2.341696 1_555
O7 Ti0 1.883416 1_455
O7 Ti1 1.986274 1_545
O7 Yb0 2.352154 1_545
O7 Yb2 2.401803 1_555
O8 Ti1 2.156029 1_544
O8 Yb2 2.274452 1_554
O8 Yb1 2.303323 1_545
O8 Yb3 2.465339 1_555
O9 Ti1 2.044314 1_644
O9 Yb1 2.295711 1_545
O9 Yb3 2.367447 1_555
