# generated using pymatgen
data_Mg4Si3
_symmetry_space_group_name_H-M   'P 1'
_cell_length_a   4.95118100
_cell_length_b   7.14687787
_cell_length_c   7.71670136
_cell_angle_alpha   88.80977248
_cell_angle_beta   93.91636032
_cell_angle_gamma   108.21852886
_symmetry_Int_Tables_number   1
_chemical_formula_structural   Mg4Si3
_chemical_formula_sum   'Mg8 Si6'
_cell_volume   258.76531261
_cell_formula_units_Z   2
loop_
 _symmetry_equiv_pos_site_id
 _symmetry_equiv_pos_as_xyz
  1  'x, y, z'
loop_
 _atom_site_type_symbol
 _atom_site_label
 _atom_site_symmetry_multiplicity
 _atom_site_fract_x
 _atom_site_fract_y
 _atom_site_fract_z
 _atom_site_occupancy
  Mg  Mg0  1  0.55871800  0.81293100  0.49862100  1
  Mg  Mg1  1  0.21444700  0.92552300  0.77474200  1
  Mg  Mg2  1  0.48867500  0.27288500  0.99295000  1
  Mg  Mg3  1  0.10338900  0.51160900  0.93218600  1
  Mg  Mg4  1  0.34053200  0.32508400  0.60628500  1
  Mg  Mg5  1  0.94887600  0.57164600  0.55381600  1
  Mg  Mg6  1  0.72285800  0.20642200  0.34015800  1
  Mg  Mg7  1  0.78796200  0.66097600  0.18325100  1
  Si  Si0  1  0.36421100  0.87260400  0.13776200  1
  Si  Si1  1  0.12605000  0.98115500  0.37257000  1
  Si  Si2  1  0.87991800  0.03965500  0.02587600  1
  Si  Si3  1  0.65884800  0.68881200  0.83228200  1
  Si  Si4  1  0.79205800  0.18003100  0.72141700  1
  Si  Si5  1  0.26360900  0.45070800  0.27798400  1
loop_
_geom_bond_atom_site_label_1
_geom_bond_atom_site_label_2
_geom_bond_distance
_geom_bond_site_symmetry_2
Mg0 Si3 2.769078 1_555
Mg0 Si1 2.873661 1_555
Mg0 Si1 2.914593 1_655
Mg0 Si0 2.950374 1_555
Mg0 Mg5 2.970982 1_555
Mg0 Mg5 3.026798 1_455
Mg0 Si4 3.032278 1_565
Mg0 Si5 3.035384 1_555
Mg0 Mg1 3.085137 1_555
Mg1 Si3 2.802170 1_455
Mg1 Si0 2.896178 1_556
Mg1 Si2 2.917737 1_466
Mg1 Si4 2.921238 1_565
Mg1 Mg2 2.931829 1_565
Mg1 Mg5 2.970740 1_455
Mg1 Mg4 3.012644 1_565
Mg1 Mg3 3.074770 1_555
Mg1 Si1 3.138947 1_555
Mg1 Si3 3.172284 1_555
Mg1 Si4 3.175126 1_465
Mg2 Si4 2.863241 1_555
Mg2 Si2 2.920544 1_556
Mg2 Mg6 2.935272 1_556
Mg2 Mg3 2.940991 1_555
Mg2 Si0 2.944719 1_546
Mg2 Si2 2.978784 1_456
Mg2 Si5 3.005205 1_556
Mg2 Mg3 3.051032 1_655
Mg2 Mg7 3.057347 1_556
Mg2 Mg4 3.066921 1_555
Mg2 Si3 3.083314 1_555
Mg3 Si5 2.796013 1_556
Mg3 Si3 2.798736 1_555
Mg3 Si4 2.858439 1_455
Mg3 Si3 2.917746 1_455
Mg3 Si0 2.940657 1_556
Mg3 Mg5 3.023656 1_455
Mg4 Si5 2.712337 1_555
Mg4 Si4 2.787379 1_455
Mg4 Si4 2.828682 1_555
Mg4 Si1 2.951712 1_545
Mg4 Mg5 3.004863 1_455
Mg4 Mg5 3.026474 1_555
Mg4 Si3 3.087701 1_555
Mg5 Si3 2.937494 1_555
Mg5 Si4 2.955833 1_555
Mg5 Mg6 2.980626 1_555
Mg5 Si5 3.012911 1_655
Mg5 Mg7 3.024948 1_555
Mg5 Si1 3.111832 1_655
Mg6 Si5 2.768465 1_655
Mg6 Si0 2.900227 1_545
Mg6 Si1 2.914714 1_545
Mg6 Si1 2.926485 1_645
Mg6 Si4 2.947601 1_555
Mg6 Si2 2.977277 1_555
Mg7 Si5 2.703125 1_555
Mg7 Si1 2.753595 1_655
Mg7 Si3 2.757515 1_554
Mg7 Si0 2.822684 1_655
Mg7 Si2 2.859208 1_565
Mg7 Si0 2.945208 1_555
Si0 Si1 2.489526 1_555
Si0 Si2 2.653798 1_565
Si2 Si4 2.598245 1_554
Si2 Si3 2.816589 1_544
