# generated using pymatgen
data_Ca2FeBiO6
_symmetry_space_group_name_H-M   'P 1'
_cell_length_a   5.74541942
_cell_length_b   5.74541942
_cell_length_c   5.74541942
_cell_angle_alpha   60.00000000
_cell_angle_beta   60.00000000
_cell_angle_gamma   60.00000000
_symmetry_Int_Tables_number   1
_chemical_formula_structural   Ca2FeBiO6
_chemical_formula_sum   'Ca2 Fe1 Bi1 O6'
_cell_volume   134.10661956
_cell_formula_units_Z   1
loop_
 _symmetry_equiv_pos_site_id
 _symmetry_equiv_pos_as_xyz
  1  'x, y, z'
loop_
 _atom_site_type_symbol
 _atom_site_label
 _atom_site_symmetry_multiplicity
 _atom_site_fract_x
 _atom_site_fract_y
 _atom_site_fract_z
 _atom_site_occupancy
  Ca  Ca0  1  0.25000000  0.25000000  0.25000000  1
  Ca  Ca1  1  0.75000000  0.75000000  0.75000000  1
  Fe  Fe0  1  0.50000000  0.50000000  0.50000000  1
  Bi  Bi0  1  0.00000000  -0.00000000  -0.00000000  1
  O  O0  1  0.74379291  0.25620709  0.25620709  1
  O  O1  1  0.25620709  0.74379291  0.74379291  1
  O  O2  1  0.74379291  0.25620709  0.74379291  1
  O  O3  1  0.25620709  0.74379291  0.25620709  1
  O  O4  1  0.74379291  0.74379291  0.25620709  1
  O  O5  1  0.25620709  0.25620709  0.74379291  1
loop_
_geom_bond_atom_site_label_1
_geom_bond_atom_site_label_2
_geom_bond_distance
_geom_bond_site_symmetry_2
Ca0 O3 2.873152 1_545
Ca0 O5 2.873152 1_554
Ca0 O0 2.873152 1_455
Ca0 O4 2.873152 1_455
Ca0 O1 2.873152 1_554
Ca0 O2 2.873152 1_455
Ca0 O2 2.873152 1_554
Ca0 O1 2.873152 1_545
Ca0 O4 2.873152 1_545
Ca0 O0 2.873152 1_555
Ca0 O3 2.873152 1_555
Ca0 O5 2.873152 1_555
Ca1 O2 2.873152 1_555
Ca1 O4 2.873152 1_555
Ca1 O1 2.873152 1_555
Ca1 O5 2.873152 1_565
Ca1 O5 2.873152 1_655
Ca1 O3 2.873152 1_556
Ca1 O0 2.873152 1_556
Ca1 O0 2.873152 1_565
Ca1 O3 2.873152 1_655
Ca1 O4 2.873152 1_556
Ca1 O1 2.873152 1_655
Ca1 O2 2.873152 1_565
Fe0 O5 1.980878 1_555
Fe0 O3 1.980878 1_555
Fe0 O0 1.980878 1_555
Fe0 O2 1.980878 1_555
Fe0 O4 1.980878 1_555
Fe0 O1 1.980878 1_555
Bi0 O4 2.081747 1_445
Bi0 O1 2.081747 1_544
Bi0 O2 2.081747 1_454
Bi0 O3 2.081747 1_545
Bi0 O5 2.081747 1_554
Bi0 O0 2.081747 1_455
