# generated using pymatgen
data_Er3ScS6
_symmetry_space_group_name_H-M   'P 1'
_cell_length_a   3.84103156
_cell_length_b   10.86174945
_cell_length_c   11.00338923
_cell_angle_alpha   70.54593633
_cell_angle_beta   90.00000000
_cell_angle_gamma   90.00000000
_symmetry_Int_Tables_number   1
_chemical_formula_structural   Er3ScS6
_chemical_formula_sum   'Er6 Sc2 S12'
_cell_volume   432.85638432
_cell_formula_units_Z   2
loop_
 _symmetry_equiv_pos_site_id
 _symmetry_equiv_pos_as_xyz
  1  'x, y, z'
loop_
 _atom_site_type_symbol
 _atom_site_label
 _atom_site_symmetry_multiplicity
 _atom_site_fract_x
 _atom_site_fract_y
 _atom_site_fract_z
 _atom_site_occupancy
  Er  Er0  1  0.25000000  0.45270713  0.19222590  1
  Er  Er1  1  0.75000000  0.54729287  0.80777410  1
  Er  Er2  1  0.25000000  0.81948958  0.99821723  1
  Er  Er3  1  0.75000000  0.18051042  0.00178277  1
  Er  Er4  1  0.25000000  0.33499296  0.58447158  1
  Er  Er5  1  0.75000000  0.66500704  0.41552842  1
  Sc  Sc0  1  0.25000000  0.06413489  0.33499684  1
  Sc  Sc1  1  0.75000000  0.93586511  0.66500316  1
  S  S0  1  0.25000000  0.38872474  0.96497156  1
  S  S1  1  0.75000000  0.61127526  0.03502844  1
  S  S2  1  0.25000000  0.76479238  0.76777882  1
  S  S3  1  0.75000000  0.23520762  0.23222118  1
  S  S4  1  0.25000000  0.69106868  0.24849618  1
  S  S5  1  0.75000000  0.30893132  0.75150382  1
  S  S6  1  0.25000000  0.01854183  0.12216528  1
  S  S7  1  0.75000000  0.98145817  0.87783472  1
  S  S8  1  0.25000000  0.09751173  0.56156838  1
  S  S9  1  0.75000000  0.90248827  0.43843162  1
  S  S10  1  0.25000000  0.58021356  0.59984023  1
  S  S11  1  0.75000000  0.41978644  0.40015977  1
loop_
_geom_bond_atom_site_label_1
_geom_bond_atom_site_label_2
_geom_bond_distance
_geom_bond_site_symmetry_2
Er0 S1 2.768081 1_455
Er0 S1 2.768081 1_555
Er0 S0 2.809512 1_554
Er0 S4 2.855554 1_555
Er0 S11 2.916526 1_455
Er0 S11 2.916526 1_555
Er0 S3 2.961517 1_455
Er0 S3 2.961517 1_555
Er1 S0 2.768081 1_655
Er1 S0 2.768081 1_555
Er1 S1 2.809512 1_556
Er1 S5 2.855554 1_555
Er1 S10 2.916526 1_655
Er1 S10 2.916526 1_555
Er1 S2 2.961517 1_555
Er1 S2 2.961517 1_655
Er2 S4 2.640263 1_556
Er2 S7 2.643056 1_455
Er2 S7 2.643056 1_555
Er2 S2 2.790283 1_555
Er2 S1 2.890843 1_456
Er2 S1 2.890843 1_556
Er2 S6 2.915255 1_566
Er3 S5 2.640263 1_554
Er3 S6 2.643056 1_555
Er3 S6 2.643056 1_655
Er3 S3 2.790283 1_555
Er3 S0 2.890843 1_554
Er3 S0 2.890843 1_654
Er3 S7 2.915255 1_544
Er4 S5 2.607664 1_555
Er4 S5 2.607664 1_455
Er4 S8 2.673974 1_555
Er4 S11 2.721297 1_455
Er4 S11 2.721297 1_555
Er4 S10 2.724516 1_555
Er5 S4 2.607664 1_555
Er5 S4 2.607664 1_655
Er5 S9 2.673974 1_555
Er5 S10 2.721297 1_655
Er5 S10 2.721297 1_555
Er5 S11 2.724516 1_555
S2 Sc1 2.649581 1_455
S2 Sc1 2.649581 1_555
S3 Sc0 2.649581 1_555
S3 Sc0 2.649581 1_655
S6 Sc0 2.549921 1_555
S7 Sc1 2.549921 1_555
S8 Sc1 2.595259 1_545
S8 Sc1 2.595259 1_445
S8 Sc0 2.636054 1_555
S9 Sc0 2.595259 1_565
S9 Sc0 2.595259 1_665
S9 Sc1 2.636054 1_555
