# generated using pymatgen
data_CrS2
_symmetry_space_group_name_H-M   'P 1'
_cell_length_a   6.56335362
_cell_length_b   6.56335362
_cell_length_c   6.56335344
_cell_angle_alpha   62.71129593
_cell_angle_beta   62.71129593
_cell_angle_gamma   62.71129879
_symmetry_Int_Tables_number   1
_chemical_formula_structural   CrS2
_chemical_formula_sum   'Cr4 S8'
_cell_volume   211.98331665
_cell_formula_units_Z   4
loop_
 _symmetry_equiv_pos_site_id
 _symmetry_equiv_pos_as_xyz
  1  'x, y, z'
loop_
 _atom_site_type_symbol
 _atom_site_label
 _atom_site_symmetry_multiplicity
 _atom_site_fract_x
 _atom_site_fract_y
 _atom_site_fract_z
 _atom_site_occupancy
  Cr  Cr0  1  0.50000000  0.00000000  0.50000000  1
  Cr  Cr1  1  0.00000000  0.50000000  0.50000000  1
  Cr  Cr2  1  0.50000000  0.50000000  0.50000000  1
  Cr  Cr3  1  0.50000000  0.50000000  0.00000000  1
  S  S0  1  0.74323600  0.25402900  0.25402900  1
  S  S1  1  0.25402900  0.74323600  0.25402900  1
  S  S2  1  0.25402900  0.25402900  0.74323600  1
  S  S3  1  0.25077700  0.25077700  0.25077700  1
  S  S4  1  0.74597100  0.25676400  0.74597100  1
  S  S5  1  0.25676400  0.74597100  0.74597100  1
  S  S6  1  0.74922300  0.74922300  0.74922300  1
  S  S7  1  0.74597100  0.74597100  0.25676400  1
loop_
_geom_bond_atom_site_label_1
_geom_bond_atom_site_label_2
_geom_bond_distance
_geom_bond_site_symmetry_2
Cr0 S5 2.354580 1_545
Cr0 S0 2.354580 1_555
Cr0 S7 2.354580 1_545
Cr0 S2 2.354580 1_555
Cr0 S3 2.361434 1_555
Cr0 S6 2.361434 1_545
Cr1 S4 2.354580 1_455
Cr1 S1 2.354580 1_555
Cr1 S7 2.354580 1_455
Cr1 S2 2.354580 1_555
Cr1 S3 2.361434 1_555
Cr1 S6 2.361434 1_455
Cr2 S2 2.329056 1_555
Cr2 S7 2.329056 1_555
Cr2 S0 2.329056 1_555
Cr2 S1 2.329056 1_555
Cr2 S4 2.329056 1_555
Cr2 S5 2.329056 1_555
Cr3 S4 2.354580 1_554
Cr3 S5 2.354580 1_554
Cr3 S1 2.354580 1_555
Cr3 S0 2.354580 1_555
Cr3 S6 2.361434 1_554
Cr3 S3 2.361434 1_555
