# generated using pymatgen
data_Li7Mn2(CoO4)3
_symmetry_space_group_name_H-M   'P 1'
_cell_length_a   5.88339100
_cell_length_b   6.52245906
_cell_length_c   6.61066052
_cell_angle_alpha   96.62493965
_cell_angle_beta   116.40674242
_cell_angle_gamma   103.23590245
_symmetry_Int_Tables_number   1
_chemical_formula_structural   Li7Mn2(CoO4)3
_chemical_formula_sum   'Li7 Mn2 Co3 O12'
_cell_volume   214.20107432
_cell_formula_units_Z   1
loop_
 _symmetry_equiv_pos_site_id
 _symmetry_equiv_pos_as_xyz
  1  'x, y, z'
loop_
 _atom_site_type_symbol
 _atom_site_label
 _atom_site_symmetry_multiplicity
 _atom_site_fract_x
 _atom_site_fract_y
 _atom_site_fract_z
 _atom_site_occupancy
  Li  Li0  1  0.24235500  0.17347500  0.66360000  1
  Li  Li1  1  0.75764500  0.82652500  0.33640000  1
  Li  Li2  1  0.24652000  0.49910100  0.99512200  1
  Li  Li3  1  0.75619300  0.17558400  0.66403400  1
  Li  Li4  1  0.24380700  0.82441600  0.33596600  1
  Li  Li5  1  0.75348000  0.50089900  0.00487800  1
  Li  Li6  1  0.00000000  0.50000000  0.50000000  1
  Mn  Mn0  1  0.99797800  0.83259600  0.82894300  1
  Mn  Mn1  1  0.00202200  0.16740400  0.17105700  1
  Co  Co0  1  0.50000000  0.50000000  0.50000000  1
  Co  Co1  1  0.48452700  0.82077900  0.82344500  1
  Co  Co2  1  0.51547300  0.17922100  0.17655500  1
  O  O0  1  0.35314700  0.84577500  0.06443800  1
  O  O1  1  0.86617700  0.52164200  0.74552700  1
  O  O2  1  0.35824400  0.16937200  0.40255600  1
  O  O3  1  0.88320000  0.84812900  0.06999000  1
  O  O4  1  0.39084700  0.51742800  0.75237200  1
  O  O5  1  0.87310200  0.15964700  0.39042700  1
  O  O6  1  0.13382300  0.47835800  0.25447300  1
  O  O7  1  0.64685300  0.15422500  0.93556200  1
  O  O8  1  0.12689800  0.84035300  0.60957300  1
  O  O9  1  0.60915300  0.48257200  0.24762800  1
  O  O10  1  0.11680000  0.15187100  0.93001000  1
  O  O11  1  0.64175600  0.83062800  0.59744400  1
loop_
_geom_bond_atom_site_label_1
_geom_bond_atom_site_label_2
_geom_bond_distance
_geom_bond_site_symmetry_2
Li0 O8 2.058937 1_545
Li0 O5 2.090922 1_455
Li0 O4 2.117371 1_555
Li0 O2 2.118444 1_555
Li0 O10 2.198616 1_555
Li0 O7 2.301040 1_555
Li1 O5 2.058937 1_565
Li1 O8 2.090922 1_655
Li1 O9 2.117371 1_555
Li1 O11 2.118444 1_555
Li1 O3 2.198616 1_555
Li1 O0 2.301040 1_555
Li2 O9 2.080613 1_556
Li2 O6 2.102607 1_556
Li2 O4 2.126104 1_555
Li2 O0 2.138239 1_556
Li2 O10 2.142052 1_555
Li2 O1 2.161921 1_455
Li3 O10 2.124041 1_655
Li3 O11 2.126868 1_545
Li3 O1 2.131711 1_555
Li3 O7 2.167699 1_555
Li3 O2 2.193579 1_555
Li3 O5 2.202572 1_555
Li4 O3 2.124041 1_455
Li4 O2 2.126868 1_565
Li4 O6 2.131711 1_555
Li4 O0 2.167699 1_555
Li4 O11 2.193579 1_555
Li4 O8 2.202572 1_555
Li5 O4 2.080613 1_554
Li5 O1 2.102607 1_554
Li5 O9 2.126104 1_555
Li5 O7 2.138239 1_554
Li5 O3 2.142052 1_555
Li5 O6 2.161921 1_655
Li6 O8 2.097427 1_555
Li6 O5 2.097427 1_455
Li6 O1 2.099754 1_455
Li6 O6 2.099754 1_555
Li6 O4 2.123250 1_555
Li6 O9 2.123250 1_455
Mn0 O8 1.912752 1_655
Mn0 O1 1.913197 1_555
Mn0 O0 1.946977 1_656
Mn0 O11 1.965914 1_555
Mn0 O10 1.966876 1_665
Mn0 O3 1.989135 1_556
Mn1 O5 1.912752 1_455
Mn1 O6 1.913197 1_555
Mn1 O7 1.946977 1_454
Mn1 O2 1.965914 1_555
Mn1 O3 1.966876 1_445
Mn1 O10 1.989135 1_554
Co0 O1 1.998309 1_555
Co0 O6 1.998309 1_555
Co0 O11 2.034467 1_555
Co0 O2 2.034467 1_555
Co0 O4 2.037489 1_555
Co0 O9 2.037489 1_555
Co1 O4 1.869533 1_555
Co1 O8 1.990218 1_555
Co1 O7 2.058849 1_565
Co1 O0 2.062811 1_556
Co1 O11 2.077529 1_555
Co1 O3 2.128550 1_556
Co2 O9 1.869533 1_555
Co2 O5 1.990218 1_555
Co2 O0 2.058849 1_545
Co2 O7 2.062811 1_554
Co2 O2 2.077529 1_555
Co2 O10 2.128550 1_554
