# generated using pymatgen
data_LaBWO6
_symmetry_space_group_name_H-M   'P 1'
_cell_length_a   4.09876300
_cell_length_b   6.11356732
_cell_length_c   9.57482884
_cell_angle_alpha   99.77905219
_cell_angle_beta   90.00000000
_cell_angle_gamma   90.00000000
_symmetry_Int_Tables_number   1
_chemical_formula_structural   LaBWO6
_chemical_formula_sum   'La2 B2 W2 O12'
_cell_volume   236.44055004
_cell_formula_units_Z   2
loop_
 _symmetry_equiv_pos_site_id
 _symmetry_equiv_pos_as_xyz
  1  'x, y, z'
loop_
 _atom_site_type_symbol
 _atom_site_label
 _atom_site_symmetry_multiplicity
 _atom_site_fract_x
 _atom_site_fract_y
 _atom_site_fract_z
 _atom_site_occupancy
  La  La0  1  0.94296400  0.85884500  0.80369000  1
  La  La1  1  0.44296400  0.14115500  0.19631000  1
  B  B0  1  0.52821400  0.61685300  0.99884200  1
  B  B1  1  0.02821400  0.38314700  0.00115800  1
  W  W0  1  0.99008100  0.71271000  0.35531400  1
  W  W1  1  0.49008100  0.28729000  0.64468600  1
  O  O0  1  0.93054300  0.94513000  0.25314300  1
  O  O1  1  0.43054300  0.05487000  0.74685700  1
  O  O2  1  0.92639400  0.77132300  0.54438300  1
  O  O3  1  0.42639400  0.22867700  0.45561700  1
  O  O4  1  0.93856100  0.28074700  0.65978700  1
  O  O5  1  0.43856100  0.71925300  0.34021300  1
  O  O6  1  0.42273600  0.57652600  0.73155700  1
  O  O7  1  0.92273600  0.42347400  0.26844300  1
  O  O8  1  0.42701700  0.82395400  0.99715400  1
  O  O9  1  0.92701700  0.17604600  0.00284600  1
  O  O10  1  0.85709000  0.56715400  0.97035700  1
  O  O11  1  0.35709000  0.43284600  0.02964300  1
loop_
_geom_bond_atom_site_label_1
_geom_bond_atom_site_label_2
_geom_bond_distance
_geom_bond_site_symmetry_2
La0 O1 2.438795 1_665
La0 O2 2.450311 1_555
La0 O9 2.478896 1_566
La0 O1 2.522908 1_565
La0 O10 2.610987 1_555
La0 O6 2.630223 1_655
La0 O8 2.747250 1_655
La0 O6 2.756398 1_555
La0 O8 2.843097 1_555
La0 O4 3.123935 1_565
La1 O0 2.438795 1_545
La1 O3 2.450311 1_555
La1 O8 2.478896 1_544
La1 O0 2.522908 1_445
La1 O11 2.610987 1_555
La1 O7 2.630223 1_555
La1 O9 2.747250 1_555
La1 O7 2.756398 1_455
La1 O9 2.843097 1_455
La1 O5 3.123935 1_545
B0 O8 1.335040 1_555
B0 O10 1.398434 1_555
B0 O11 1.398971 1_556
B1 O9 1.335040 1_455
B1 O11 1.398434 1_555
B1 O10 1.398971 1_454
O0 W0 1.872901 1_555
O1 W1 1.872901 1_555
O2 W0 1.803713 1_555
O3 W1 1.803713 1_555
O4 W1 1.844857 1_555
O4 W1 2.265956 1_655
O5 W0 1.844857 1_455
O5 W0 2.265956 1_555
O6 W1 1.842599 1_555
O7 W0 1.842599 1_555
