# generated using pymatgen
data_Nd3Sc
_symmetry_space_group_name_H-M   'P 1'
_cell_length_a   7.34679834
_cell_length_b   7.34679834
_cell_length_c   5.67314709
_cell_angle_alpha   90.00000000
_cell_angle_beta   90.00000000
_cell_angle_gamma   119.99997569
_symmetry_Int_Tables_number   1
_chemical_formula_structural   Nd3Sc
_chemical_formula_sum   'Nd6 Sc2'
_cell_volume   265.18626121
_cell_formula_units_Z   2
loop_
 _symmetry_equiv_pos_site_id
 _symmetry_equiv_pos_as_xyz
  1  'x, y, z'
loop_
 _atom_site_type_symbol
 _atom_site_label
 _atom_site_symmetry_multiplicity
 _atom_site_fract_x
 _atom_site_fract_y
 _atom_site_fract_z
 _atom_site_occupancy
  Nd  Nd0  1  0.65763773  0.82881936  0.25000000  1
  Nd  Nd1  1  0.17118064  0.34236227  0.25000000  1
  Nd  Nd2  1  0.34236227  0.17118064  0.75000000  1
  Nd  Nd3  1  0.82881936  0.65763773  0.75000000  1
  Nd  Nd4  1  0.17118064  0.82881936  0.25000000  1
  Nd  Nd5  1  0.82881936  0.17118064  0.75000000  1
  Sc  Sc0  1  0.66666700  0.33333300  0.25000000  1
  Sc  Sc1  1  0.33333300  0.66666700  0.75000000  1
loop_
_geom_bond_atom_site_label_1
_geom_bond_atom_site_label_2
_geom_bond_distance
_geom_bond_site_symmetry_2
Nd0 Sc1 3.507669 1_554
Nd0 Sc1 3.507669 1_555
Nd0 Nd4 3.573902 1_555
Nd0 Nd1 3.573903 1_555
Nd0 Nd5 3.576458 1_564
Nd0 Nd5 3.576458 1_565
Nd0 Nd3 3.576465 1_555
Nd0 Nd3 3.576465 1_554
Nd0 Sc0 3.673841 1_565
Nd0 Sc0 3.673856 1_555
Nd0 Nd4 3.772896 1_655
Nd0 Nd1 3.772898 1_665
Nd1 Sc1 3.507669 1_554
Nd1 Sc1 3.507669 1_555
Nd1 Nd4 3.573902 1_555
Nd1 Nd5 3.576458 1_454
Nd1 Nd5 3.576458 1_455
Nd1 Nd2 3.576465 1_554
Nd1 Nd2 3.576465 1_555
Nd1 Sc0 3.673841 1_455
Nd1 Sc0 3.673856 1_555
Nd1 Nd4 3.772896 1_545
Nd2 Sc0 3.507669 1_555
Nd2 Sc0 3.507669 1_556
Nd2 Nd5 3.573902 1_555
Nd2 Nd3 3.573903 1_555
Nd2 Nd4 3.576458 1_546
Nd2 Nd4 3.576458 1_545
Nd2 Sc1 3.673841 1_545
Nd2 Sc1 3.673856 1_555
Nd2 Nd5 3.772896 1_455
Nd2 Nd3 3.772898 1_445
Nd3 Sc0 3.507669 1_555
Nd3 Sc0 3.507669 1_556
Nd3 Nd5 3.573902 1_555
Nd3 Nd4 3.576458 1_655
Nd3 Nd4 3.576458 1_656
Nd3 Sc1 3.673841 1_655
Nd3 Sc1 3.673856 1_555
Nd3 Nd5 3.772896 1_565
Nd4 Sc1 3.507669 1_554
Nd4 Sc1 3.507669 1_555
Nd4 Sc0 3.673850 1_455
Nd4 Sc0 3.673850 1_565
Nd5 Sc0 3.507669 1_555
Nd5 Sc0 3.507669 1_556
Nd5 Sc1 3.673850 1_545
Nd5 Sc1 3.673850 1_655
