# generated using pymatgen
data_NaMg149
_symmetry_space_group_name_H-M   'P 1'
_cell_length_a   15.88455615
_cell_length_b   15.88458153
_cell_length_c   15.43567090
_cell_angle_alpha   90.00000000
_cell_angle_beta   90.00000000
_cell_angle_gamma   120.00005492
_symmetry_Int_Tables_number   1
_chemical_formula_structural   NaMg149
_chemical_formula_sum   'Na1 Mg149'
_cell_volume   3372.92561920
_cell_formula_units_Z   1
loop_
 _symmetry_equiv_pos_site_id
 _symmetry_equiv_pos_as_xyz
  1  'x, y, z'
loop_
 _atom_site_type_symbol
 _atom_site_label
 _atom_site_symmetry_multiplicity
 _atom_site_fract_x
 _atom_site_fract_y
 _atom_site_fract_z
 _atom_site_occupancy
  Na  Na0  1  0.99999904  0.99999952  0.00000000  1
  Mg  Mg0  1  0.79981818  0.20018375  0.00000000  1
  Mg  Mg1  1  0.40036531  0.20018315  0.00000000  1
  Mg  Mg2  1  0.60009626  0.20019385  0.00000000  1
  Mg  Mg3  1  0.00120026  0.20321879  0.00000000  1
  Mg  Mg4  1  0.20201867  0.20321847  0.00000000  1
  Mg  Mg5  1  0.79980733  0.39990316  0.00000000  1
  Mg  Mg6  1  0.60009626  0.39990240  0.00000000  1
  Mg  Mg7  1  0.40070965  0.40091552  0.00000000  1
  Mg  Mg8  1  0.00020577  0.40091716  0.00000000  1
  Mg  Mg9  1  0.20087340  0.40174793  0.00000000  1
  Mg  Mg10  1  0.00020577  0.59928861  0.00000000  1
  Mg  Mg11  1  0.59908301  0.59928986  0.00000000  1
  Mg  Mg12  1  0.79981818  0.59963442  0.00000000  1
  Mg  Mg13  1  0.39980875  0.60019145  0.00000000  1
  Mg  Mg14  1  0.20038055  0.60019027  0.00000000  1
  Mg  Mg15  1  0.00120026  0.79798147  0.00000000  1
  Mg  Mg16  1  0.79678135  0.79798285  0.00000000  1
  Mg  Mg17  1  0.59825226  0.79912614  0.00000000  1
  Mg  Mg18  1  0.20087340  0.79912548  0.00000000  1
  Mg  Mg19  1  0.39980875  0.79961728  0.00000000  1
  Mg  Mg20  1  0.20201867  0.99879920  0.00000000  1
  Mg  Mg21  1  0.79678135  0.99879850  0.00000000  1
  Mg  Mg22  1  0.40070965  0.99979412  0.00000000  1
  Mg  Mg23  1  0.59908301  0.99979316  0.00000000  1
  Mg  Mg24  1  0.26651350  0.13325725  0.16625730  1
  Mg  Mg25  1  0.86674373  0.13325713  0.16625598  1
  Mg  Mg26  1  0.86674373  0.73348662  0.16625598  1
  Mg  Mg27  1  0.66666724  0.33333312  0.16661414  1
  Mg  Mg28  1  0.66667288  0.13332255  0.16653724  1
  Mg  Mg29  1  0.46665132  0.13332347  0.16653787  1
  Mg  Mg30  1  0.46665132  0.33332784  0.16653787  1
  Mg  Mg31  1  0.86667691  0.33332759  0.16653775  1
  Mg  Mg32  1  0.86667691  0.53334832  0.16653775  1
  Mg  Mg33  1  0.66667288  0.53335034  0.16653724  1
  Mg  Mg34  1  0.46665318  0.53334583  0.16661415  1
  Mg  Mg35  1  0.06669112  0.53334606  0.16661414  1
  Mg  Mg36  1  0.46665318  0.93330734  0.16661415  1
  Mg  Mg37  1  0.26669947  0.53339953  0.16659424  1
  Mg  Mg38  1  0.26669947  0.73329993  0.16659424  1
  Mg  Mg39  1  0.46659905  0.73330002  0.16659337  1
  Mg  Mg40  1  0.26680725  0.33349304  0.16660209  1
  Mg  Mg41  1  0.06668471  0.33349269  0.16660228  1
  Mg  Mg42  1  0.06668471  0.73319303  0.16660228  1
  Mg  Mg43  1  0.66650790  0.73319332  0.16660269  1
  Mg  Mg44  1  0.66650790  0.93331459  0.16660269  1
  Mg  Mg45  1  0.26680725  0.93331421  0.16660209  1
  Mg  Mg46  1  0.06757464  0.13514908  0.16945724  1
  Mg  Mg47  1  0.06757464  0.93242556  0.16945724  1
  Mg  Mg48  1  0.86485116  0.93242508  0.16945755  1
  Mg  Mg49  1  0.40007321  0.20003610  0.33381292  1
  Mg  Mg50  1  0.79996421  0.20003604  0.33381374  1
  Mg  Mg51  1  0.79996421  0.59992816  0.33381374  1
  Mg  Mg52  1  0.60004014  0.20008107  0.33377176  1
  Mg  Mg53  1  0.79991912  0.39995956  0.33377201  1
  Mg  Mg54  1  0.60004014  0.39995908  0.33377176  1
  Mg  Mg55  1  0.00000027  0.00000013  0.33382752  1
  Mg  Mg56  1  0.59994290  0.00001323  0.33378902  1
  Mg  Mg57  1  0.40006993  0.00001187  0.33378964  1
  Mg  Mg58  1  0.99998717  0.40005707  0.33378840  1
  Mg  Mg59  1  0.40006993  0.40005706  0.33378964  1
  Mg  Mg60  1  0.59994290  0.59992967  0.33378902  1
  Mg  Mg61  1  0.99998717  0.59993009  0.33378840  1
  Mg  Mg62  1  0.39997712  0.60002343  0.33379160  1
  Mg  Mg63  1  0.20004747  0.60002373  0.33379114  1
  Mg  Mg64  1  0.39997712  0.79995469  0.33379160  1
  Mg  Mg65  1  0.19998421  0.39996849  0.33380570  1
  Mg  Mg66  1  0.60003036  0.80001568  0.33380685  1
  Mg  Mg67  1  0.19998421  0.80001572  0.33380570  1
  Mg  Mg68  1  0.79982593  0.00008868  0.33390436  1
  Mg  Mg69  1  0.20026254  0.00008734  0.33390376  1
  Mg  Mg70  1  0.20026254  0.20017521  0.33390376  1
  Mg  Mg71  1  0.99991242  0.20017539  0.33390413  1
  Mg  Mg72  1  0.79982593  0.79973725  0.33390436  1
  Mg  Mg73  1  0.99991242  0.79973703  0.33390413  1
  Mg  Mg74  1  0.06666907  0.13333784  0.50000000  1
  Mg  Mg75  1  0.86668738  0.13331164  0.50000000  1
  Mg  Mg76  1  0.26662490  0.13331245  0.50000000  1
  Mg  Mg77  1  0.46668676  0.13338596  0.50000000  1
  Mg  Mg78  1  0.66670047  0.13338630  0.50000000  1
  Mg  Mg79  1  0.86661412  0.33329920  0.50000000  1
  Mg  Mg80  1  0.46668676  0.33329980  0.50000000  1
  Mg  Mg81  1  0.66666774  0.33333337  0.50000000  1
  Mg  Mg82  1  0.06669325  0.33336690  0.50000000  1
  Mg  Mg83  1  0.26667299  0.33336648  0.50000000  1
  Mg  Mg84  1  0.86661412  0.53331492  0.50000000  1
  Mg  Mg85  1  0.66670047  0.53331417  0.50000000  1
  Mg  Mg86  1  0.46668560  0.53331529  0.50000000  1
  Mg  Mg87  1  0.06662985  0.53331542  0.50000000  1
  Mg  Mg88  1  0.26667392  0.53334736  0.50000000  1
  Mg  Mg89  1  0.86668738  0.73337574  0.50000000  1
  Mg  Mg90  1  0.66663406  0.73332713  0.50000000  1
  Mg  Mg91  1  0.06669325  0.73332635  0.50000000  1
  Mg  Mg92  1  0.26667392  0.73332656  0.50000000  1
  Mg  Mg93  1  0.46665302  0.73332701  0.50000000  1
  Mg  Mg94  1  0.66663406  0.93330693  0.50000000  1
  Mg  Mg95  1  0.26667299  0.93330651  0.50000000  1
  Mg  Mg96  1  0.46668560  0.93337029  0.50000000  1
  Mg  Mg97  1  0.86666392  0.93333196  0.50000000  1
  Mg  Mg98  1  0.06666907  0.93333123  0.50000000  1
  Mg  Mg99  1  0.79982593  0.00008868  0.66609564  1
  Mg  Mg100  1  0.20026254  0.00008734  0.66609624  1
  Mg  Mg101  1  0.20026254  0.20017521  0.66609624  1
  Mg  Mg102  1  0.99991242  0.20017539  0.66609587  1
  Mg  Mg103  1  0.79982593  0.79973725  0.66609564  1
  Mg  Mg104  1  0.99991242  0.79973703  0.66609587  1
  Mg  Mg105  1  0.19998421  0.39996849  0.66619430  1
  Mg  Mg106  1  0.60003036  0.80001568  0.66619315  1
  Mg  Mg107  1  0.19998421  0.80001572  0.66619430  1
  Mg  Mg108  1  0.39997712  0.60002343  0.66620840  1
  Mg  Mg109  1  0.20004747  0.60002373  0.66620886  1
  Mg  Mg110  1  0.39997712  0.79995469  0.66620840  1
  Mg  Mg111  1  0.59994290  0.00001323  0.66621098  1
  Mg  Mg112  1  0.40006993  0.00001187  0.66621036  1
  Mg  Mg113  1  0.99998717  0.40005707  0.66621160  1
  Mg  Mg114  1  0.40006993  0.40005706  0.66621036  1
  Mg  Mg115  1  0.59994290  0.59992967  0.66621098  1
  Mg  Mg116  1  0.99998717  0.59993009  0.66621160  1
  Mg  Mg117  1  0.00000027  0.00000013  0.66617248  1
  Mg  Mg118  1  0.60004014  0.20008107  0.66622824  1
  Mg  Mg119  1  0.79991912  0.39995956  0.66622799  1
  Mg  Mg120  1  0.60004014  0.39995908  0.66622824  1
  Mg  Mg121  1  0.40007321  0.20003610  0.66618708  1
  Mg  Mg122  1  0.79996421  0.20003604  0.66618626  1
  Mg  Mg123  1  0.79996421  0.59992816  0.66618626  1
  Mg  Mg124  1  0.06757464  0.13514908  0.83054276  1
  Mg  Mg125  1  0.06757464  0.93242556  0.83054276  1
  Mg  Mg126  1  0.86485116  0.93242508  0.83054245  1
  Mg  Mg127  1  0.26680725  0.33349304  0.83339791  1
  Mg  Mg128  1  0.06668471  0.33349269  0.83339772  1
  Mg  Mg129  1  0.06668471  0.73319303  0.83339772  1
  Mg  Mg130  1  0.66650790  0.73319332  0.83339731  1
  Mg  Mg131  1  0.66650790  0.93331459  0.83339731  1
  Mg  Mg132  1  0.26680725  0.93331421  0.83339791  1
  Mg  Mg133  1  0.26669947  0.53339953  0.83340676  1
  Mg  Mg134  1  0.26669947  0.73329993  0.83340676  1
  Mg  Mg135  1  0.46659905  0.73330002  0.83340763  1
  Mg  Mg136  1  0.46665318  0.53334583  0.83338585  1
  Mg  Mg137  1  0.06669112  0.53334606  0.83338586  1
  Mg  Mg138  1  0.46665318  0.93330734  0.83338585  1
  Mg  Mg139  1  0.66667288  0.13332255  0.83346276  1
  Mg  Mg140  1  0.46665132  0.13332347  0.83346213  1
  Mg  Mg141  1  0.46665132  0.33332784  0.83346213  1
  Mg  Mg142  1  0.86667691  0.33332759  0.83346225  1
  Mg  Mg143  1  0.86667691  0.53334832  0.83346225  1
  Mg  Mg144  1  0.66667288  0.53335034  0.83346276  1
  Mg  Mg145  1  0.66666724  0.33333312  0.83338586  1
  Mg  Mg146  1  0.26651350  0.13325725  0.83374370  1
  Mg  Mg147  1  0.86674373  0.13325713  0.83374502  1
  Mg  Mg148  1  0.86674373  0.73348662  0.83374502  1
loop_
_geom_bond_atom_site_label_1
_geom_bond_atom_site_label_2
_geom_bond_distance
_geom_bond_site_symmetry_2
Mg0 Mg31 3.156394 1_555
Mg0 Mg142 3.156394 1_554
Mg0 Mg139 3.156398 1_554
Mg0 Mg28 3.156398 1_555
Mg0 Mg147 3.158508 1_554
Mg0 Mg25 3.158520 1_555
Mg0 Mg5 3.172545 1_555
Mg0 Mg2 3.172574 1_555
Mg0 Mg3 3.175034 1_655
Mg0 Mg21 3.175076 1_545
Mg0 Mg8 3.185818 1_655
Mg0 Mg23 3.185856 1_545
Mg1 Mg141 3.156402 1_554
Mg1 Mg30 3.156402 1_555
Mg1 Mg140 3.156410 1_554
Mg1 Mg29 3.156410 1_555
Mg1 Mg146 3.158520 1_554
Mg1 Mg24 3.158532 1_555
Mg1 Mg6 3.172544 1_555
Mg1 Mg2 3.172553 1_555
Mg1 Mg4 3.175030 1_555
Mg1 Mg20 3.175046 1_545
Mg1 Mg7 3.185818 1_555
Mg1 Mg22 3.185834 1_545
Mg2 Mg27 3.157315 1_555
Mg2 Mg29 3.158797 1_555
Mg2 Mg28 3.158815 1_555
Mg2 Mg6 3.172287 1_555
Mg2 Mg5 3.172308 1_555
Mg2 Mg22 3.175245 1_545
Mg2 Mg23 3.175264 1_545
Mg3 Mg41 3.134468 1_555
Mg3 Mg8 3.148284 1_555
Mg3 Mg9 3.162672 1_555
Mg3 Mg4 3.189914 1_555
Mg3 Mg46 3.203521 1_555
Mg3 Na0 3.218555 1_445
Mg4 Mg40 3.134471 1_555
Mg4 Mg7 3.148254 1_555
Mg4 Mg9 3.162693 1_555
Mg4 Mg46 3.203518 1_555
Mg4 Na0 3.218560 1_445
Mg5 Mg6 3.172316 1_555
Mg5 Mg8 3.175217 1_655
Mg6 Mg7 3.175245 1_555
Mg7 Mg9 3.180942 1_555
Mg8 Mg9 3.180939 1_555
Mg10 Mg15 3.148284 1_555
Mg10 Mg8 3.151047 1_555
Mg10 Mg137 3.151651 1_554
Mg10 Mg35 3.151651 1_555
Mg10 Mg32 3.159493 1_455
Mg10 Mg143 3.159493 1_454
Mg10 Mg42 3.163292 1_555
Mg10 Mg129 3.163292 1_554
Mg10 Mg14 3.172551 1_555
Mg10 Mg5 3.175225 1_455
Mg10 Mg18 3.180939 1_555
Mg10 Mg12 3.185818 1_455
Mg11 Mg16 3.148280 1_555
Mg11 Mg7 3.151080 1_555
Mg11 Mg136 3.151665 1_554
Mg11 Mg34 3.151665 1_555
Mg11 Mg33 3.159492 1_555
Mg11 Mg144 3.159492 1_554
Mg11 Mg43 3.163290 1_555
Mg11 Mg130 3.163290 1_554
Mg11 Mg13 3.172568 1_555
Mg11 Mg6 3.175264 1_555
Mg11 Mg17 3.180934 1_555
Mg11 Mg12 3.185856 1_555
Mg12 Mg144 3.156398 1_554
Mg12 Mg33 3.156398 1_555
Mg12 Mg143 3.156402 1_554
Mg12 Mg32 3.156402 1_555
Mg12 Mg148 3.158508 1_554
Mg12 Mg26 3.158521 1_555
Mg12 Mg5 3.172561 1_555
Mg12 Mg6 3.172574 1_555
Mg12 Mg15 3.175034 1_655
Mg12 Mg16 3.175076 1_555
Mg13 Mg17 3.156095 1_555
Mg13 Mg9 3.156101 1_555
Mg13 Mg135 3.156798 1_554
Mg13 Mg39 3.156811 1_555
Mg13 Mg133 3.156813 1_554
Mg13 Mg37 3.156826 1_555
Mg13 Mg34 3.161716 1_555
Mg13 Mg136 3.161716 1_554
Mg13 Mg19 3.167796 1_555
Mg13 Mg14 3.167819 1_555
Mg13 Mg7 3.172594 1_555
Mg14 Mg9 3.156095 1_555
Mg14 Mg18 3.156095 1_555
Mg14 Mg38 3.156830 1_555
Mg14 Mg37 3.156831 1_555
Mg14 Mg35 3.161709 1_555
Mg14 Mg19 3.167819 1_555
Mg14 Mg8 3.172550 1_555
Mg15 Mg42 3.134460 1_555
Mg15 Mg18 3.162672 1_555
Mg15 Mg26 3.163670 1_455
Mg15 Mg20 3.189906 1_555
Mg15 Mg47 3.203521 1_555
Mg15 Na0 3.218555 1_455
Mg15 Mg16 3.247115 1_455
Mg16 Mg43 3.134468 1_555
Mg16 Mg17 3.162666 1_555
Mg16 Mg26 3.163689 1_555
Mg16 Mg21 3.189873 1_555
Mg16 Mg48 3.203510 1_555
Mg16 Na0 3.218526 1_555
Mg17 Mg39 3.145236 1_555
Mg17 Mg19 3.156095 1_555
Mg17 Mg21 3.162666 1_555
Mg17 Mg44 3.165619 1_555
Mg17 Mg43 3.165619 1_555
Mg17 Mg23 3.180934 1_555
Mg18 Mg38 3.145236 1_555
Mg18 Mg19 3.156101 1_555
Mg18 Mg20 3.162677 1_555
Mg18 Mg45 3.165614 1_555
Mg18 Mg42 3.165614 1_555
Mg18 Mg22 3.180942 1_555
Mg19 Mg39 3.156803 1_555
Mg19 Mg38 3.156826 1_555
Mg19 Mg36 3.161716 1_555
Mg19 Mg23 3.172568 1_555
Mg19 Mg22 3.172594 1_555
Mg20 Mg45 3.134463 1_555
Mg20 Mg22 3.148246 1_555
Mg20 Mg24 3.163701 1_565
Mg20 Mg47 3.203518 1_555
Mg20 Na0 3.218568 1_455
Mg20 Mg4 3.247115 1_565
Mg21 Mg44 3.134468 1_555
Mg21 Mg23 3.148280 1_555
Mg21 Mg25 3.163689 1_565
Mg21 Mg48 3.203518 1_555
Mg21 Na0 3.218526 1_555
Mg21 Mg3 3.247115 1_665
Mg22 Mg23 3.151080 1_555
Mg22 Mg36 3.151670 1_555
Mg22 Mg29 3.159500 1_565
Mg22 Mg45 3.163272 1_555
Mg23 Mg36 3.151665 1_555
Mg23 Mg28 3.159492 1_565
Mg23 Mg44 3.163290 1_555
Mg24 Mg4 3.163685 1_555
Mg24 Mg70 3.170548 1_555
Mg24 Mg69 3.170556 1_555
Mg24 Mg49 3.172508 1_555
Mg24 Mg46 3.175572 1_555
Mg24 Mg47 3.175580 1_545
Mg24 Mg40 3.178336 1_555
Mg24 Mg45 3.178352 1_545
Mg24 Mg30 3.178569 1_555
Mg24 Mg29 3.178578 1_555
Mg25 Mg3 3.163670 1_655
Mg25 Mg71 3.170566 1_555
Mg25 Mg68 3.170568 1_555
Mg25 Mg50 3.172526 1_555
Mg25 Mg46 3.175575 1_655
Mg25 Mg48 3.175593 1_545
Mg25 Mg41 3.178320 1_655
Mg25 Mg44 3.178335 1_545
Mg25 Mg28 3.178559 1_555
Mg25 Mg31 3.178569 1_555
Mg26 Mg73 3.170566 1_555
Mg26 Mg72 3.170568 1_555
Mg26 Mg51 3.172526 1_555
Mg26 Mg47 3.175574 1_655
Mg26 Mg48 3.175577 1_555
Mg26 Mg42 3.178313 1_655
Mg26 Mg43 3.178335 1_555
Mg26 Mg33 3.178559 1_555
Mg26 Mg32 3.178586 1_555
Mg27 Mg5 3.157320 1_555
Mg27 Mg6 3.157323 1_555
Mg27 Mg52 3.165050 1_555
Mg27 Mg53 3.165050 1_555
Mg27 Mg54 3.165058 1_555
Mg27 Mg32 3.177109 1_555
Mg27 Mg31 3.177109 1_555
Mg27 Mg29 3.177114 1_555
Mg27 Mg30 3.177122 1_555
Mg27 Mg28 3.177129 1_555
Mg27 Mg33 3.177145 1_555
Mg28 Mg56 3.166691 1_555
Mg28 Mg50 3.166857 1_555
Mg28 Mg52 3.167127 1_555
Mg28 Mg44 3.175733 1_545
Mg28 Mg31 3.176983 1_555
Mg28 Mg36 3.177189 1_545
Mg28 Mg29 3.177261 1_555
Mg29 Mg57 3.166709 1_555
Mg29 Mg49 3.166836 1_555
Mg29 Mg52 3.167098 1_555
Mg29 Mg45 3.175747 1_545
Mg29 Mg30 3.176986 1_555
Mg29 Mg36 3.177188 1_545
Mg30 Mg6 3.158797 1_555
Mg30 Mg7 3.159500 1_555
Mg30 Mg59 3.166702 1_555
Mg30 Mg49 3.166844 1_555
Mg30 Mg54 3.167098 1_555
Mg30 Mg40 3.175747 1_555
Mg30 Mg34 3.177188 1_555
Mg30 Mg33 3.177261 1_555
Mg31 Mg5 3.158799 1_555
Mg31 Mg8 3.159493 1_655
Mg31 Mg58 3.166683 1_555
Mg31 Mg50 3.166854 1_555
Mg31 Mg53 3.167112 1_555
Mg31 Mg41 3.175725 1_655
Mg31 Mg35 3.177171 1_655
Mg31 Mg32 3.177246 1_555
Mg32 Mg5 3.158799 1_555
Mg32 Mg61 3.166683 1_555
Mg32 Mg51 3.166862 1_555
Mg32 Mg53 3.167104 1_555
Mg32 Mg42 3.175741 1_655
Mg32 Mg33 3.176991 1_555
Mg32 Mg35 3.177155 1_655
Mg33 Mg6 3.158815 1_555
Mg33 Mg60 3.166691 1_555
Mg33 Mg51 3.166857 1_555
Mg33 Mg54 3.167127 1_555
Mg33 Mg43 3.175733 1_555
Mg33 Mg34 3.177189 1_555
Mg34 Mg7 3.151670 1_555
Mg34 Mg60 3.165566 1_555
Mg34 Mg59 3.165568 1_555
Mg34 Mg62 3.166109 1_555
Mg34 Mg40 3.174518 1_555
Mg34 Mg43 3.174546 1_555
Mg34 Mg37 3.176603 1_555
Mg34 Mg39 3.176619 1_555
Mg35 Mg8 3.151659 1_555
Mg35 Mg61 3.165546 1_455
Mg35 Mg58 3.165554 1_455
Mg35 Mg63 3.166123 1_555
Mg35 Mg41 3.174536 1_555
Mg35 Mg42 3.174536 1_555
Mg35 Mg38 3.176611 1_555
Mg35 Mg37 3.176619 1_555
Mg36 Mg57 3.165560 1_565
Mg36 Mg56 3.165566 1_565
Mg36 Mg64 3.166101 1_555
Mg36 Mg45 3.174518 1_555
Mg36 Mg44 3.174546 1_555
Mg36 Mg38 3.176602 1_555
Mg36 Mg39 3.176603 1_555
Mg37 Mg9 3.145236 1_555
Mg37 Mg63 3.165737 1_555
Mg37 Mg62 3.165752 1_555
Mg37 Mg65 3.167154 1_555
Mg37 Mg39 3.175323 1_555
Mg37 Mg38 3.175334 1_555
Mg37 Mg40 3.176287 1_555
Mg37 Mg41 3.176289 1_555
Mg38 Mg63 3.165737 1_555
Mg38 Mg64 3.165752 1_555
Mg38 Mg67 3.167154 1_555
Mg38 Mg39 3.175315 1_555
Mg38 Mg45 3.176287 1_555
Mg38 Mg42 3.176297 1_555
Mg39 Mg62 3.165757 1_555
Mg39 Mg64 3.165757 1_555
Mg39 Mg66 3.167180 1_555
Mg39 Mg44 3.176303 1_555
Mg39 Mg43 3.176311 1_555
Mg40 Mg46 3.157995 1_555
Mg40 Mg7 3.163272 1_555
Mg40 Mg59 3.165510 1_555
Mg40 Mg9 3.165614 1_555
Mg40 Mg65 3.166000 1_555
Mg40 Mg70 3.167387 1_555
Mg40 Mg41 3.178855 1_555
Mg41 Mg46 3.158005 1_555
Mg41 Mg8 3.163284 1_555
Mg41 Mg58 3.165488 1_455
Mg41 Mg9 3.165614 1_555
Mg41 Mg65 3.166004 1_555
Mg41 Mg71 3.167385 1_455
Mg42 Mg47 3.157989 1_555
Mg42 Mg61 3.165496 1_455
Mg42 Mg67 3.166004 1_555
Mg42 Mg73 3.167377 1_455
Mg42 Mg45 3.178847 1_555
Mg43 Mg48 3.157982 1_555
Mg43 Mg60 3.165504 1_555
Mg43 Mg66 3.166018 1_555
Mg43 Mg72 3.167387 1_555
Mg43 Mg44 3.178843 1_555
Mg44 Mg48 3.157991 1_555
Mg44 Mg56 3.165504 1_565
Mg44 Mg66 3.166010 1_555
Mg44 Mg68 3.167387 1_565
Mg45 Mg47 3.157995 1_555
Mg45 Mg57 3.165510 1_565
Mg45 Mg67 3.166000 1_555
Mg45 Mg69 3.167387 1_565
Mg46 Mg70 3.126560 1_555
Mg46 Mg71 3.126572 1_455
Mg46 Mg55 3.145428 1_555
Mg46 Na0 3.209105 1_445
Mg46 Mg48 3.220177 1_445
Mg46 Mg47 3.220178 1_545
Mg47 Mg69 3.126560 1_565
Mg47 Mg73 3.126572 1_455
Mg47 Mg55 3.145428 1_565
Mg47 Na0 3.209105 1_455
Mg47 Mg48 3.220169 1_455
Mg48 Mg72 3.126565 1_555
Mg48 Mg68 3.126573 1_565
Mg48 Mg55 3.145424 1_665
Mg48 Na0 3.209094 1_555
Mg49 Mg77 3.152942 1_555
Mg49 Mg80 3.152943 1_555
Mg49 Mg76 3.154418 1_555
Mg49 Mg69 3.175001 1_555
Mg49 Mg70 3.175010 1_555
Mg49 Mg52 3.176029 1_555
Mg49 Mg54 3.176037 1_555
Mg49 Mg57 3.177275 1_555
Mg49 Mg59 3.177275 1_555
Mg50 Mg79 3.152928 1_555
Mg50 Mg78 3.152931 1_555
Mg50 Mg75 3.154404 1_555
Mg50 Mg71 3.174983 1_555
Mg50 Mg68 3.174983 1_555
Mg50 Mg53 3.176060 1_555
Mg50 Mg52 3.176063 1_555
Mg50 Mg58 3.177261 1_555
Mg50 Mg56 3.177262 1_555
Mg51 Mg84 3.152928 1_555
Mg51 Mg85 3.152931 1_555
Mg51 Mg89 3.154404 1_555
Mg51 Mg73 3.174983 1_555
Mg51 Mg72 3.174983 1_555
Mg51 Mg53 3.176060 1_555
Mg51 Mg54 3.176063 1_555
Mg51 Mg61 3.177261 1_555
Mg51 Mg60 3.177262 1_555
Mg52 Mg81 3.153368 1_555
Mg52 Mg77 3.154175 1_555
Mg52 Mg78 3.154191 1_555
Mg52 Mg54 3.174979 1_555
Mg52 Mg53 3.174985 1_555
Mg52 Mg56 3.177222 1_555
Mg52 Mg57 3.177224 1_555
Mg53 Mg81 3.153356 1_555
Mg53 Mg84 3.154190 1_555
Mg53 Mg79 3.154190 1_555
Mg53 Mg54 3.174985 1_555
Mg53 Mg61 3.177218 1_555
Mg53 Mg58 3.177218 1_555
Mg54 Mg81 3.153376 1_555
Mg54 Mg80 3.154175 1_555
Mg54 Mg85 3.154190 1_555
Mg54 Mg59 3.177217 1_555
Mg54 Mg60 3.177222 1_555
Mg55 Mg97 3.153339 1_445
Mg55 Mg98 3.153351 1_545
Mg55 Mg74 3.153351 1_555
Mg55 Mg72 3.180384 1_445
Mg55 Mg68 3.180384 1_455
Mg55 Mg69 3.180385 1_555
Mg55 Mg70 3.180385 1_555
Mg55 Mg73 3.180398 1_445
Mg55 Mg71 3.180398 1_455
Mg56 Mg96 3.153190 1_545
Mg56 Mg78 3.154118 1_555
Mg56 Mg94 3.154313 1_545
Mg56 Mg68 3.174455 1_555
Mg56 Mg57 3.174883 1_555
Mg56 Mg64 3.177105 1_545
Mg56 Mg66 3.177572 1_545
Mg57 Mg96 3.153183 1_545
Mg57 Mg77 3.154118 1_555
Mg57 Mg95 3.154299 1_545
Mg57 Mg69 3.174452 1_555
Mg57 Mg64 3.177088 1_545
Mg57 Mg67 3.177562 1_545
Mg58 Mg87 3.153208 1_655
Mg58 Mg79 3.154124 1_555
Mg58 Mg82 3.154311 1_655
Mg58 Mg71 3.174444 1_555
Mg58 Mg61 3.174899 1_555
Mg58 Mg63 3.177126 1_655
Mg58 Mg65 3.177568 1_655
Mg59 Mg86 3.153191 1_555
Mg59 Mg80 3.154118 1_555
Mg59 Mg83 3.154299 1_555
Mg59 Mg70 3.174444 1_555
Mg59 Mg60 3.174890 1_555
Mg59 Mg62 3.177119 1_555
Mg59 Mg65 3.177570 1_555
Mg60 Mg86 3.153190 1_555
Mg60 Mg85 3.154118 1_555
Mg60 Mg90 3.154313 1_555
Mg60 Mg72 3.174455 1_555
Mg60 Mg62 3.177113 1_555
Mg60 Mg66 3.177588 1_555
Mg61 Mg87 3.153200 1_655
Mg61 Mg84 3.154124 1_555
Mg61 Mg91 3.154311 1_655
Mg61 Mg73 3.174444 1_555
Mg61 Mg63 3.177126 1_655
Mg61 Mg67 3.177568 1_655
Mg62 Mg88 3.153525 1_555
Mg62 Mg93 3.153529 1_555
Mg62 Mg86 3.154434 1_555
Mg62 Mg63 3.175796 1_555
Mg62 Mg64 3.175824 1_555
Mg62 Mg66 3.177273 1_555
Mg62 Mg65 3.177291 1_555
Mg63 Mg88 3.153529 1_555
Mg63 Mg92 3.153529 1_555
Mg63 Mg87 3.154446 1_555
Mg63 Mg64 3.175804 1_555
Mg63 Mg65 3.177291 1_555
Mg63 Mg67 3.177292 1_555
Mg64 Mg92 3.153525 1_555
Mg64 Mg93 3.153529 1_555
Mg64 Mg96 3.154426 1_555
Mg64 Mg66 3.177273 1_555
Mg64 Mg67 3.177283 1_555
Mg65 Mg82 3.153250 1_555
Mg65 Mg83 3.153250 1_555
Mg65 Mg88 3.153955 1_555
Mg65 Mg71 3.175841 1_455
Mg65 Mg70 3.175846 1_555
Mg66 Mg94 3.153239 1_555
Mg66 Mg90 3.153247 1_555
Mg66 Mg93 3.153926 1_555
Mg66 Mg68 3.175870 1_565
Mg66 Mg72 3.175878 1_555
Mg67 Mg91 3.153250 1_555
Mg67 Mg95 3.153250 1_555
Mg67 Mg92 3.153955 1_555
Mg67 Mg73 3.175841 1_455
Mg67 Mg69 3.175846 1_565
Mg68 Mg94 3.151219 1_545
Mg68 Mg75 3.151471 1_555
Mg68 Mg97 3.154445 1_545
Mg68 Mg71 3.178287 1_555
Mg68 Mg72 3.182499 1_545
Mg69 Mg95 3.151224 1_545
Mg69 Mg76 3.151496 1_555
Mg69 Mg98 3.154441 1_545
Mg69 Mg70 3.178312 1_555
Mg69 Mg73 3.182474 1_445
Mg70 Mg83 3.151224 1_555
Mg70 Mg76 3.151496 1_555
Mg70 Mg74 3.154441 1_555
Mg70 Mg71 3.182474 1_455
Mg71 Mg82 3.151221 1_655
Mg71 Mg75 3.151489 1_555
Mg71 Mg74 3.154444 1_655
Mg72 Mg90 3.151219 1_555
Mg72 Mg89 3.151471 1_555
Mg72 Mg97 3.154445 1_555
Mg72 Mg73 3.178287 1_555
Mg73 Mg91 3.151221 1_655
Mg73 Mg89 3.151489 1_555
Mg73 Mg98 3.154444 1_655
Mg74 Mg76 3.176411 1_555
Mg74 Mg75 3.176412 1_455
Mg74 Mg97 3.176999 1_445
Mg74 Mg98 3.177021 1_545
Mg74 Mg83 3.177170 1_555
Mg74 Mg82 3.177186 1_555
Mg75 Mg99 3.151471 1_555
Mg75 Mg97 3.176407 1_545
Mg75 Mg78 3.177296 1_555
Mg75 Mg79 3.177301 1_555
Mg75 Mg94 3.177372 1_545
Mg75 Mg82 3.177397 1_655
Mg76 Mg98 3.176411 1_545
Mg76 Mg80 3.177302 1_555
Mg76 Mg77 3.177310 1_555
Mg76 Mg83 3.177393 1_555
Mg76 Mg95 3.177393 1_545
Mg77 Mg80 3.175548 1_555
Mg77 Mg81 3.176342 1_555
Mg77 Mg78 3.177126 1_555
Mg77 Mg96 3.177156 1_545
Mg77 Mg95 3.177652 1_545
Mg78 Mg79 3.175534 1_555
Mg78 Mg81 3.176336 1_555
Mg78 Mg96 3.177156 1_545
Mg78 Mg94 3.177650 1_545
Mg79 Mg81 3.176331 1_555
Mg79 Mg87 3.177165 1_655
Mg79 Mg84 3.177166 1_555
Mg79 Mg82 3.177631 1_655
Mg80 Mg81 3.176343 1_555
Mg80 Mg85 3.177134 1_555
Mg80 Mg86 3.177172 1_555
Mg80 Mg83 3.177660 1_555
Mg81 Mg84 3.176339 1_555
Mg81 Mg85 3.176351 1_555
Mg82 Mg83 3.176593 1_555
Mg82 Mg87 3.176602 1_555
Mg82 Mg88 3.176602 1_555
Mg83 Mg86 3.176605 1_555
Mg83 Mg88 3.176605 1_555
Mg84 Mg85 3.175534 1_555
Mg84 Mg87 3.177157 1_655
Mg84 Mg89 3.177301 1_555
Mg84 Mg91 3.177631 1_655
Mg85 Mg86 3.177156 1_555
Mg85 Mg89 3.177296 1_555
Mg85 Mg90 3.177650 1_555
Mg86 Mg90 3.176596 1_555
Mg86 Mg88 3.177352 1_555
Mg86 Mg93 3.177361 1_555
Mg87 Mg91 3.176587 1_555
Mg87 Mg92 3.177350 1_555
Mg87 Mg88 3.177358 1_555
Mg88 Mg93 3.176584 1_555
Mg88 Mg92 3.176586 1_555
Mg89 Mg97 3.176407 1_555
Mg89 Mg98 3.176412 1_655
Mg89 Mg90 3.177372 1_555
Mg89 Mg91 3.177397 1_655
Mg90 Mg94 3.176595 1_555
Mg90 Mg93 3.176609 1_555
Mg90 Mg97 3.177187 1_555
Mg91 Mg95 3.176593 1_555
Mg91 Mg92 3.176603 1_555
Mg91 Mg98 3.177186 1_555
Mg92 Mg93 3.176576 1_555
Mg92 Mg95 3.176605 1_555
Mg92 Mg96 3.177351 1_555
Mg93 Mg94 3.176601 1_555
Mg93 Mg96 3.177345 1_555
Mg94 Mg99 3.151219 1_565
Mg94 Mg96 3.176596 1_555
Mg94 Mg97 3.177187 1_555
Mg95 Mg96 3.176605 1_555
Mg95 Mg98 3.177170 1_555
Mg97 Mg99 3.154445 1_565
Mg97 Mg98 3.176999 1_655
Mg100 Mg125 3.126560 1_545
Mg100 Mg95 3.151224 1_545
Mg100 Mg76 3.151496 1_555
Mg100 Mg98 3.154441 1_545
Mg100 Mg132 3.167387 1_545
Mg100 Mg146 3.170568 1_555
Mg100 Mg112 3.174452 1_555
Mg100 Mg121 3.175001 1_555
Mg100 Mg107 3.175846 1_545
Mg100 Mg101 3.178312 1_555
Mg100 Mg117 3.180385 1_555
Mg100 Mg104 3.182474 1_445
Mg101 Mg124 3.126560 1_555
Mg101 Mg83 3.151224 1_555
Mg101 Mg76 3.151496 1_555
Mg101 Mg74 3.154441 1_555
Mg101 Mg127 3.167387 1_555
Mg101 Mg146 3.170560 1_555
Mg101 Mg114 3.174444 1_555
Mg101 Mg121 3.175010 1_555
Mg101 Mg105 3.175846 1_555
Mg101 Mg117 3.180385 1_555
Mg101 Mg102 3.182474 1_455
Mg102 Mg124 3.126572 1_655
Mg102 Mg82 3.151221 1_655
Mg102 Mg75 3.151489 1_555
Mg102 Mg74 3.154444 1_655
Mg102 Mg128 3.167385 1_655
Mg102 Mg147 3.170578 1_555
Mg102 Mg113 3.174444 1_555
Mg102 Mg122 3.174983 1_555
Mg102 Mg105 3.175841 1_655
Mg102 Mg99 3.178287 1_555
Mg102 Mg117 3.180398 1_655
Mg103 Mg126 3.126565 1_555
Mg103 Mg90 3.151219 1_555
Mg103 Mg89 3.151471 1_555
Mg103 Mg97 3.154445 1_555
Mg103 Mg130 3.167387 1_555
Mg103 Mg148 3.170581 1_555
Mg103 Mg115 3.174455 1_555
Mg103 Mg123 3.174983 1_555
Mg103 Mg106 3.175878 1_555
Mg103 Mg104 3.178287 1_555
Mg103 Mg117 3.180384 1_665
Mg103 Mg99 3.182499 1_565
Mg104 Mg125 3.126572 1_655
Mg104 Mg91 3.151221 1_655
Mg104 Mg89 3.151489 1_555
Mg104 Mg98 3.154444 1_655
Mg104 Mg129 3.167377 1_655
Mg104 Mg148 3.170578 1_555
Mg104 Mg116 3.174444 1_555
Mg104 Mg123 3.174983 1_555
Mg104 Mg107 3.175841 1_655
Mg104 Mg117 3.180398 1_665
Mg105 Mg82 3.153250 1_555
Mg105 Mg83 3.153250 1_555
Mg105 Mg88 3.153955 1_555
Mg105 Mg127 3.166000 1_555
Mg105 Mg128 3.166004 1_555
Mg105 Mg133 3.167167 1_555
Mg105 Mg108 3.177291 1_555
Mg105 Mg109 3.177291 1_555
Mg105 Mg113 3.177568 1_455
Mg105 Mg114 3.177570 1_555
Mg106 Mg94 3.153239 1_555
Mg106 Mg90 3.153247 1_555
Mg106 Mg93 3.153926 1_555
Mg106 Mg131 3.166010 1_555
Mg106 Mg130 3.166018 1_555
Mg106 Mg135 3.167192 1_555
Mg106 Mg99 3.175870 1_565
Mg106 Mg108 3.177273 1_555
Mg106 Mg110 3.177273 1_555
Mg106 Mg111 3.177572 1_565
Mg106 Mg115 3.177588 1_555
Mg107 Mg91 3.153250 1_555
Mg107 Mg95 3.153250 1_555
Mg107 Mg92 3.153955 1_555
Mg107 Mg132 3.166000 1_555
Mg107 Mg129 3.166004 1_555
Mg107 Mg134 3.167167 1_555
Mg107 Mg110 3.177283 1_555
Mg107 Mg109 3.177292 1_555
Mg107 Mg112 3.177562 1_565
Mg107 Mg116 3.177568 1_455
Mg108 Mg88 3.153525 1_555
Mg108 Mg93 3.153529 1_555
Mg108 Mg86 3.154434 1_555
Mg108 Mg133 3.165765 1_555
Mg108 Mg135 3.165769 1_555
Mg108 Mg136 3.166109 1_555
Mg108 Mg109 3.175796 1_555
Mg108 Mg110 3.175824 1_555
Mg108 Mg115 3.177113 1_555
Mg108 Mg114 3.177119 1_555
Mg109 Mg88 3.153529 1_555
Mg109 Mg92 3.153529 1_555
Mg109 Mg87 3.154446 1_555
Mg109 Mg134 3.165749 1_555
Mg109 Mg133 3.165749 1_555
Mg109 Mg137 3.166123 1_555
Mg109 Mg110 3.175804 1_555
Mg109 Mg113 3.177126 1_455
Mg109 Mg116 3.177126 1_455
Mg110 Mg92 3.153525 1_555
Mg110 Mg93 3.153529 1_555
Mg110 Mg96 3.154426 1_555
Mg110 Mg134 3.165765 1_555
Mg110 Mg135 3.165769 1_555
Mg110 Mg138 3.166101 1_555
Mg110 Mg112 3.177088 1_565
Mg110 Mg111 3.177105 1_565
Mg111 Mg96 3.153190 1_545
Mg111 Mg78 3.154118 1_555
Mg111 Mg94 3.154313 1_545
Mg111 Mg131 3.165504 1_545
Mg111 Mg138 3.165566 1_545
Mg111 Mg139 3.166691 1_555
Mg111 Mg99 3.174455 1_555
Mg111 Mg112 3.174883 1_555
Mg111 Mg118 3.177222 1_555
Mg111 Mg122 3.177262 1_555
Mg112 Mg96 3.153183 1_545
Mg112 Mg77 3.154118 1_555
Mg112 Mg95 3.154299 1_545
Mg112 Mg132 3.165510 1_545
Mg112 Mg138 3.165560 1_545
Mg112 Mg140 3.166709 1_555
Mg112 Mg118 3.177224 1_555
Mg112 Mg121 3.177275 1_555
Mg113 Mg87 3.153208 1_655
Mg113 Mg79 3.154124 1_555
Mg113 Mg82 3.154311 1_655
Mg113 Mg128 3.165488 1_655
Mg113 Mg137 3.165554 1_655
Mg113 Mg142 3.166683 1_555
Mg113 Mg116 3.174899 1_555
Mg113 Mg119 3.177218 1_555
Mg113 Mg122 3.177261 1_555
Mg114 Mg86 3.153191 1_555
Mg114 Mg80 3.154118 1_555
Mg114 Mg83 3.154299 1_555
Mg114 Mg127 3.165510 1_555
Mg114 Mg136 3.165568 1_555
Mg114 Mg141 3.166702 1_555
Mg114 Mg115 3.174890 1_555
Mg114 Mg120 3.177217 1_555
Mg114 Mg121 3.177275 1_555
Mg115 Mg86 3.153190 1_555
Mg115 Mg85 3.154118 1_555
Mg115 Mg90 3.154313 1_555
Mg115 Mg130 3.165504 1_555
Mg115 Mg136 3.165566 1_555
Mg115 Mg144 3.166691 1_555
Mg115 Mg120 3.177222 1_555
Mg115 Mg123 3.177262 1_555
Mg116 Mg87 3.153200 1_655
Mg116 Mg84 3.154124 1_555
Mg116 Mg91 3.154311 1_655
Mg116 Mg129 3.165496 1_655
Mg116 Mg137 3.165546 1_655
Mg116 Mg143 3.166683 1_555
Mg116 Mg119 3.177218 1_555
Mg116 Mg123 3.177261 1_555
Mg117 Mg126 3.145424 1_445
Mg117 Mg125 3.145428 1_545
Mg117 Mg124 3.145428 1_555
Mg117 Mg97 3.153339 1_445
Mg117 Mg98 3.153351 1_545
Mg117 Mg74 3.153351 1_555
Mg117 Mg99 3.180384 1_455
Mg118 Mg81 3.153368 1_555
Mg118 Mg77 3.154175 1_555
Mg118 Mg78 3.154191 1_555
Mg118 Mg145 3.165050 1_555
Mg118 Mg140 3.167098 1_555
Mg118 Mg139 3.167127 1_555
Mg118 Mg120 3.174979 1_555
Mg118 Mg119 3.174985 1_555
Mg118 Mg121 3.176029 1_555
Mg118 Mg122 3.176063 1_555
Mg119 Mg81 3.153356 1_555
Mg119 Mg84 3.154190 1_555
Mg119 Mg79 3.154190 1_555
Mg119 Mg145 3.165050 1_555
Mg119 Mg143 3.167104 1_555
Mg119 Mg142 3.167112 1_555
Mg119 Mg120 3.174985 1_555
Mg119 Mg123 3.176060 1_555
Mg119 Mg122 3.176060 1_555
Mg120 Mg81 3.153376 1_555
Mg120 Mg80 3.154175 1_555
Mg120 Mg85 3.154190 1_555
Mg120 Mg145 3.165058 1_555
Mg120 Mg141 3.167098 1_555
Mg120 Mg144 3.167127 1_555
Mg120 Mg121 3.176037 1_555
Mg120 Mg123 3.176063 1_555
Mg121 Mg77 3.152942 1_555
Mg121 Mg80 3.152943 1_555
Mg121 Mg76 3.154418 1_555
Mg121 Mg140 3.166836 1_555
Mg121 Mg141 3.166844 1_555
Mg121 Mg146 3.172520 1_555
Mg122 Mg79 3.152928 1_555
Mg122 Mg78 3.152931 1_555
Mg122 Mg75 3.154404 1_555
Mg122 Mg142 3.166854 1_555
Mg122 Mg139 3.166857 1_555
Mg122 Mg147 3.172539 1_555
Mg122 Mg99 3.174983 1_555
Mg123 Mg84 3.152928 1_555
Mg123 Mg85 3.152931 1_555
Mg123 Mg89 3.154404 1_555
Mg123 Mg144 3.166857 1_555
Mg123 Mg143 3.166862 1_555
Mg123 Mg148 3.172539 1_555
Mg124 Mg127 3.157995 1_555
Mg124 Mg128 3.158005 1_555
Mg124 Mg146 3.175572 1_555
Mg124 Mg147 3.175575 1_455
Mg124 Mg4 3.203518 1_556
Mg124 Mg3 3.203521 1_556
Mg124 Na0 3.209105 1_446
Mg124 Mg126 3.220177 1_445
Mg124 Mg125 3.220178 1_545
Mg125 Mg129 3.157989 1_555
Mg125 Mg132 3.157995 1_555
Mg125 Mg148 3.175575 1_455
Mg125 Mg146 3.175580 1_565
Mg125 Mg20 3.203518 1_556
Mg125 Mg15 3.203521 1_556
Mg125 Na0 3.209105 1_456
Mg125 Mg126 3.220169 1_455
Mg126 Mg99 3.126573 1_565
Mg126 Mg130 3.157982 1_555
Mg126 Mg131 3.157991 1_555
Mg126 Mg148 3.175577 1_555
Mg126 Mg147 3.175593 1_565
Mg126 Mg16 3.203510 1_556
Mg126 Mg21 3.203518 1_556
Mg126 Na0 3.209094 1_556
Mg127 Mg4 3.134471 1_556
Mg127 Mg7 3.163272 1_556
Mg127 Mg9 3.165614 1_556
Mg127 Mg136 3.174518 1_555
Mg127 Mg141 3.175747 1_555
Mg127 Mg133 3.176287 1_555
Mg127 Mg146 3.178336 1_555
Mg127 Mg128 3.178855 1_555
Mg128 Mg3 3.134468 1_556
Mg128 Mg8 3.163284 1_556
Mg128 Mg9 3.165614 1_556
Mg128 Mg137 3.174536 1_555
Mg128 Mg142 3.175725 1_455
Mg128 Mg133 3.176289 1_555
Mg128 Mg147 3.178320 1_455
Mg129 Mg15 3.134460 1_556
Mg129 Mg18 3.165614 1_556
Mg129 Mg137 3.174536 1_555
Mg129 Mg143 3.175741 1_455
Mg129 Mg134 3.176297 1_555
Mg129 Mg148 3.178313 1_455
Mg129 Mg132 3.178847 1_555
Mg130 Mg16 3.134468 1_556
Mg130 Mg17 3.165619 1_556
Mg130 Mg136 3.174546 1_555
Mg130 Mg144 3.175733 1_555
Mg130 Mg135 3.176311 1_555
Mg130 Mg148 3.178335 1_555
Mg130 Mg131 3.178843 1_555
Mg131 Mg21 3.134468 1_556
Mg131 Mg23 3.163290 1_556
Mg131 Mg17 3.165619 1_556
Mg131 Mg99 3.167387 1_565
Mg131 Mg138 3.174546 1_555
Mg131 Mg139 3.175733 1_565
Mg131 Mg135 3.176303 1_555
Mg131 Mg147 3.178335 1_565
Mg132 Mg20 3.134463 1_556
Mg132 Mg22 3.163272 1_556
Mg132 Mg18 3.165614 1_556
Mg132 Mg138 3.174518 1_555
Mg132 Mg140 3.175747 1_565
Mg132 Mg134 3.176287 1_555
Mg132 Mg146 3.178352 1_565
Mg133 Mg9 3.145224 1_556
Mg133 Mg14 3.156818 1_556
Mg133 Mg135 3.175323 1_555
Mg133 Mg134 3.175334 1_555
Mg133 Mg136 3.176603 1_555
Mg133 Mg137 3.176619 1_555
Mg134 Mg18 3.145224 1_556
Mg134 Mg19 3.156813 1_556
Mg134 Mg14 3.156818 1_556
Mg134 Mg135 3.175315 1_555
Mg134 Mg138 3.176602 1_555
Mg134 Mg137 3.176611 1_555
Mg135 Mg17 3.145224 1_556
Mg135 Mg19 3.156790 1_556
Mg135 Mg138 3.176603 1_555
Mg135 Mg136 3.176619 1_555
Mg136 Mg7 3.151670 1_556
Mg136 Mg141 3.177188 1_555
Mg136 Mg144 3.177189 1_555
Mg137 Mg8 3.151659 1_556
Mg137 Mg14 3.161709 1_556
Mg137 Mg143 3.177155 1_455
Mg137 Mg142 3.177171 1_455
Mg138 Mg23 3.151665 1_556
Mg138 Mg22 3.151670 1_556
Mg138 Mg19 3.161716 1_556
Mg138 Mg140 3.177188 1_565
Mg138 Mg139 3.177189 1_565
Mg139 Mg2 3.158815 1_556
Mg139 Mg23 3.159492 1_546
Mg139 Mg142 3.176983 1_555
Mg139 Mg145 3.177129 1_555
Mg139 Mg140 3.177261 1_555
Mg139 Mg147 3.178559 1_555
Mg140 Mg2 3.158797 1_556
Mg140 Mg22 3.159500 1_546
Mg140 Mg141 3.176986 1_555
Mg140 Mg145 3.177114 1_555
Mg140 Mg146 3.178578 1_555
Mg141 Mg6 3.158797 1_556
Mg141 Mg7 3.159500 1_556
Mg141 Mg145 3.177122 1_555
Mg141 Mg144 3.177261 1_555
Mg141 Mg146 3.178569 1_555
Mg142 Mg5 3.158799 1_556
Mg142 Mg8 3.159493 1_656
Mg142 Mg145 3.177109 1_555
Mg142 Mg143 3.177246 1_555
Mg142 Mg147 3.178569 1_555
Mg143 Mg5 3.158799 1_556
Mg143 Mg144 3.176991 1_555
Mg143 Mg145 3.177109 1_555
Mg143 Mg148 3.178586 1_555
Mg144 Mg6 3.158815 1_556
Mg144 Mg145 3.177145 1_555
Mg144 Mg148 3.178559 1_555
Mg145 Mg2 3.157315 1_556
Mg145 Mg5 3.157320 1_556
Mg145 Mg6 3.157323 1_556
Mg146 Mg4 3.163672 1_556
Mg146 Mg20 3.163689 1_546
Mg147 Mg3 3.163658 1_656
Mg147 Mg21 3.163676 1_546
Mg147 Mg99 3.170581 1_555
Mg148 Mg15 3.163658 1_656
Mg148 Mg16 3.163676 1_556
