# generated using pymatgen
data_DyAlGa
_symmetry_space_group_name_H-M   'P 1'
_cell_length_a   4.41484047
_cell_length_b   4.41484047
_cell_length_c   3.56870836
_cell_angle_alpha   90.00000000
_cell_angle_beta   90.00000000
_cell_angle_gamma   120.00000638
_symmetry_Int_Tables_number   1
_chemical_formula_structural   DyAlGa
_chemical_formula_sum   'Dy1 Al1 Ga1'
_cell_volume   60.23815910
_cell_formula_units_Z   1
loop_
 _symmetry_equiv_pos_site_id
 _symmetry_equiv_pos_as_xyz
  1  'x, y, z'
loop_
 _atom_site_type_symbol
 _atom_site_label
 _atom_site_symmetry_multiplicity
 _atom_site_fract_x
 _atom_site_fract_y
 _atom_site_fract_z
 _atom_site_occupancy
  Dy  Dy0  1  -0.00000000  0.00000000  -0.00000000  1
  Al  Al0  1  0.33333300  0.66666700  0.50000000  1
  Ga  Ga0  1  0.66666700  0.33333300  0.50000000  1
loop_
_geom_bond_atom_site_label_1
_geom_bond_atom_site_label_2
_geom_bond_distance
_geom_bond_site_symmetry_2
Dy0 Ga0 3.111406 1_455
Dy0 Ga0 3.111406 1_454
Dy0 Ga0 3.111409 1_554
Dy0 Ga0 3.111409 1_445
Dy0 Ga0 3.111409 1_444
Dy0 Ga0 3.111409 1_555
Al0 Ga0 2.548907 1_455
Al0 Ga0 2.548907 1_565
Al0 Ga0 2.548915 1_555
Al0 Dy0 3.111406 1_565
Al0 Dy0 3.111406 1_566
Al0 Dy0 3.111409 1_666
Al0 Dy0 3.111409 1_665
Al0 Dy0 3.111409 1_555
Al0 Dy0 3.111409 1_556
