# generated using pymatgen
data_Lu6Co2Sn
_symmetry_space_group_name_H-M   'P 1'
_cell_length_a   8.12214077
_cell_length_b   8.12212615
_cell_length_c   8.12215372
_cell_angle_alpha   111.34907923
_cell_angle_beta   109.57515188
_cell_angle_gamma   107.51213659
_symmetry_Int_Tables_number   1
_chemical_formula_structural   Lu6Co2Sn
_chemical_formula_sum   'Lu12 Co4 Sn2'
_cell_volume   412.00474888
_cell_formula_units_Z   2
loop_
 _symmetry_equiv_pos_site_id
 _symmetry_equiv_pos_as_xyz
  1  'x, y, z'
loop_
 _atom_site_type_symbol
 _atom_site_label
 _atom_site_symmetry_multiplicity
 _atom_site_fract_x
 _atom_site_fract_y
 _atom_site_fract_z
 _atom_site_occupancy
  Lu  Lu0  1  0.44746909  0.23637051  0.21109728  1
  Lu  Lu1  1  0.55253102  0.76362949  0.78889817  1
  Lu  Lu2  1  0.02526875  0.23636480  0.78890227  1
  Lu  Lu3  1  0.97472418  0.76362115  0.21109985  1
  Lu  Lu4  1  0.18365567  0.28410635  0.46776549  1
  Lu  Lu5  1  0.81634645  0.71589803  0.53224734  1
  Lu  Lu6  1  0.18365251  0.71589023  0.89954545  1
  Lu  Lu7  1  0.81634335  0.28410198  0.10044819  1
  Lu  Lu8  1  0.32561592  0.63792957  0.31231015  1
  Lu  Lu9  1  0.67438372  0.36207244  0.68768335  1
  Lu  Lu10  1  0.32561520  0.01330507  0.68768644  1
  Lu  Lu11  1  0.67438322  0.98669882  0.31231152  1
  Co  Co0  1  0.34355571  -0.00000007  0.34355889  1
  Co  Co1  1  0.65644241  -0.00000680  0.65644027  1
  Co  Co2  1  0.11443550  0.61444322  0.49999534  1
  Co  Co3  1  0.88557550  0.38557685  0.50000336  1
  Sn  Sn0  1  0.49999553  0.49999396  0.99999014  1
  Sn  Sn1  1  0.00000429  0.00000441  0.00001649  1
loop_
_geom_bond_atom_site_label_1
_geom_bond_atom_site_label_2
_geom_bond_distance
_geom_bond_site_symmetry_2
Lu0 Sn1 3.010461 1_555
Lu0 Sn0 3.212511 1_554
Lu0 Lu7 3.360536 1_555
Lu0 Lu5 3.360562 1_555
Lu0 Lu6 3.462974 1_544
Lu0 Lu4 3.462989 1_555
Lu1 Sn1 3.010502 1_666
Lu1 Sn0 3.212498 1_555
Lu1 Lu4 3.360528 1_555
Lu1 Lu6 3.360556 1_555
Lu1 Lu5 3.462891 1_555
Lu1 Lu7 3.462924 1_566
Lu2 Sn1 3.010515 1_556
Lu2 Sn0 3.212499 1_555
Lu2 Lu4 3.360547 1_555
Lu2 Lu6 3.360556 1_555
Lu2 Lu5 3.462884 1_445
Lu2 Lu7 3.462923 1_456
Lu3 Sn1 3.010470 1_665
Lu3 Sn0 3.212490 1_554
Lu3 Lu7 3.360490 1_555
Lu3 Lu5 3.360542 1_555
Lu3 Lu6 3.463000 1_654
Lu3 Lu4 3.463005 1_665
Lu4 Sn1 3.119505 1_555
Lu4 Lu7 3.440476 1_455
Lu4 Lu9 3.516347 1_555
Lu4 Sn0 3.562320 1_555
Lu4 Lu8 3.578511 1_555
Lu5 Sn1 3.119632 1_666
Lu5 Lu6 3.440414 1_655
Lu5 Lu8 3.516369 1_555
Lu5 Sn0 3.562523 1_554
Lu5 Lu9 3.578413 1_555
Lu6 Sn1 3.119609 1_566
Lu6 Lu8 3.516349 1_556
Lu6 Sn0 3.562396 1_555
Lu6 Lu9 3.578441 1_455
Lu7 Sn1 3.119536 1_655
Lu7 Lu9 3.516398 1_554
Lu7 Sn0 3.562417 1_554
Lu7 Lu8 3.578487 1_655
Lu8 Sn0 3.315008 1_554
Lu9 Sn0 3.314957 1_555
Lu10 Sn0 3.314913 1_555
Lu10 Lu4 3.516316 1_555
Lu10 Lu7 3.516355 1_556
Lu10 Lu5 3.578469 1_445
Lu10 Lu6 3.578487 1_545
Lu11 Sn0 3.315031 1_554
Lu11 Lu6 3.516375 1_554
Lu11 Lu5 3.516399 1_555
Lu11 Lu7 3.578439 1_565
Lu11 Lu4 3.578461 1_665
Co0 Lu0 2.587044 1_555
Co0 Lu3 2.587052 1_445
Co0 Lu10 2.812067 1_555
Co0 Lu8 2.812070 1_545
Co0 Lu9 2.812083 1_555
Co0 Lu11 2.812100 1_545
Co0 Co1 2.930696 1_555
Co0 Lu4 3.002627 1_555
Co0 Lu6 3.002678 1_544
Co0 Sn1 3.217892 1_555
Co1 Lu1 2.586971 1_545
Co1 Lu2 2.586999 1_655
Co1 Lu8 2.812064 1_545
Co1 Lu11 2.812105 1_545
Co1 Lu10 2.812119 1_555
Co1 Lu9 2.812152 1_555
Co1 Lu5 3.002559 1_545
Co1 Lu7 3.002645 1_556
Co1 Sn1 3.218026 1_656
Co2 Co3 2.198042 1_455
Co2 Lu10 2.658757 1_565
Co2 Lu8 2.658787 1_555
Co2 Lu5 2.842175 1_455
Co2 Lu7 2.842196 1_455
Co2 Lu6 2.842210 1_555
Co2 Lu4 2.842244 1_555
Co2 Lu3 3.061839 1_455
Co2 Lu1 3.061991 1_555
Co3 Lu9 2.658841 1_555
Co3 Lu11 2.658873 1_545
Co3 Lu6 2.842090 1_655
Co3 Lu5 2.842136 1_555
Co3 Lu4 2.842139 1_655
Co3 Lu7 2.842175 1_555
Co3 Lu0 3.062028 1_555
Co3 Lu2 3.062045 1_655
