# generated using pymatgen
data_Mn13Fe11O32
_symmetry_space_group_name_H-M   'P 1'
_cell_length_a   6.06801800
_cell_length_b   6.16525022
_cell_length_c   20.35504094
_cell_angle_alpha   97.06893302
_cell_angle_beta   89.75329995
_cell_angle_gamma   119.30268266
_symmetry_Int_Tables_number   1
_chemical_formula_structural   Mn13Fe11O32
_chemical_formula_sum   'Mn13 Fe11 O32'
_cell_volume   657.63765346
_cell_formula_units_Z   1
loop_
 _symmetry_equiv_pos_site_id
 _symmetry_equiv_pos_as_xyz
  1  'x, y, z'
loop_
 _atom_site_type_symbol
 _atom_site_label
 _atom_site_symmetry_multiplicity
 _atom_site_fract_x
 _atom_site_fract_y
 _atom_site_fract_z
 _atom_site_occupancy
  Mn  Mn0  1  0.09447000  0.90663700  0.28128800  1
  Mn  Mn1  1  0.74600500  0.24362000  0.24984600  1
  Mn  Mn2  1  0.12549900  0.38004000  0.37522500  1
  Mn  Mn3  1  0.15546800  0.84862600  0.46971600  1
  Mn  Mn4  1  0.40422900  0.59013700  0.21926100  1
  Mn  Mn5  1  0.84453200  0.15137400  0.53028400  1
  Mn  Mn6  1  0.25399500  0.75638000  0.75015400  1
  Mn  Mn7  1  0.87450100  0.61996000  0.62477500  1
  Mn  Mn8  1  0.90553000  0.09336300  0.71871200  1
  Mn  Mn9  1  0.34861400  0.66317400  0.03101100  1
  Mn  Mn10  1  0.59577100  0.40986300  0.78073900  1
  Mn  Mn11  1  0.00000000  0.00000000  0.00000000  1
  Mn  Mn12  1  0.65138600  0.33682600  0.96898900  1
  Fe  Fe0  1  0.62404400  0.87552400  0.37555800  1
  Fe  Fe1  1  0.62731200  0.37859800  0.37498400  1
  Fe  Fe2  1  0.37595600  0.12447600  0.62444200  1
  Fe  Fe3  1  0.37268800  0.62140200  0.62501600  1
  Fe  Fe4  1  0.50000000  0.50000000  0.50000000  1
  Fe  Fe5  1  0.12262200  0.87279600  0.87458700  1
  Fe  Fe6  1  0.12187000  0.37298500  0.87484700  1
  Fe  Fe7  1  0.62455700  0.87337200  0.87494500  1
  Fe  Fe8  1  0.37544300  0.12662800  0.12505500  1
  Fe  Fe9  1  0.87813000  0.62701500  0.12515300  1
  Fe  Fe10  1  0.87737800  0.12720400  0.12541300  1
  O  O0  1  0.32288600  0.22924100  0.43382200  1
  O  O1  1  0.34691500  0.69204600  0.43837200  1
  O  O2  1  0.90238700  0.06628300  0.31087200  1
  O  O3  1  0.93177900  0.53446000  0.31957500  1
  O  O4  1  0.47365000  0.08942400  0.31642300  1
  O  O5  1  0.22129300  0.33289900  0.56669400  1
  O  O6  1  0.81682600  0.18845500  0.42689400  1
  O  O7  1  0.77870700  0.66710100  0.43330600  1
  O  O8  1  0.18317400  0.81154500  0.57310600  1
  O  O9  1  0.43417200  0.56400800  0.32311400  1
  O  O10  1  0.06822100  0.46554000  0.68042500  1
  O  O11  1  0.09761300  0.93371700  0.68912800  1
  O  O12  1  0.65308500  0.30795400  0.56162800  1
  O  O13  1  0.67711400  0.77075900  0.56617800  1
  O  O14  1  0.30402900  0.67776400  0.92771600  1
  O  O15  1  0.56582800  0.43599200  0.67688600  1
  O  O16  1  0.97698000  0.58688800  0.81491500  1
  O  O17  1  0.94451200  0.07015300  0.82196200  1
  O  O18  1  0.52635000  0.91057600  0.68357700  1
  O  O19  1  0.26882200  0.16062000  0.93530800  1
  O  O20  1  0.81817100  0.70772200  0.92939400  1
  O  O21  1  0.82560300  0.16101300  0.93547000  1
  O  O22  1  0.42011500  0.58555400  0.81342600  1
  O  O23  1  0.42935800  0.03879600  0.82021500  1
  O  O24  1  0.18182900  0.29227800  0.07060600  1
  O  O25  1  0.17439700  0.83898700  0.06453000  1
  O  O26  1  0.73117800  0.83938000  0.06469200  1
  O  O27  1  0.05548800  0.92984700  0.17803800  1
  O  O28  1  0.02302000  0.41311200  0.18508500  1
  O  O29  1  0.69597100  0.32223600  0.07228400  1
  O  O30  1  0.57064200  0.96120400  0.17978500  1
  O  O31  1  0.57988500  0.41444600  0.18657400  1
loop_
_geom_bond_atom_site_label_1
_geom_bond_atom_site_label_2
_geom_bond_distance
_geom_bond_site_symmetry_2
Mn0 O2 1.913360 1_465
Mn0 O4 2.086429 1_565
Mn0 O27 2.145886 1_555
Mn0 O3 2.250150 1_455
Mn1 O30 1.945778 1_545
Mn1 O3 1.977195 1_555
Mn1 O4 2.057049 1_555
Mn1 O28 2.062950 1_655
Mn1 O2 2.235804 1_555
Mn1 O31 2.273367 1_555
Mn2 O1 2.008493 1_555
Mn2 O2 2.029476 1_455
Mn2 O9 2.029616 1_555
Mn2 O6 2.032919 1_455
Mn2 O3 2.223432 1_455
Mn2 O0 2.257620 1_555
Mn3 O1 1.904805 1_555
Mn3 O7 2.081927 1_455
Mn3 O8 2.160686 1_555
Mn3 O0 2.270341 1_565
Mn4 O31 1.923201 1_555
Mn4 O28 2.093248 1_555
Mn4 O9 2.154866 1_555
Mn4 O30 2.254599 1_555
Mn5 O12 1.904805 1_555
Mn5 O5 2.081927 1_655
Mn5 O6 2.160686 1_555
Mn5 O13 2.270341 1_545
Mn6 O23 1.945778 1_565
Mn6 O10 1.977195 1_555
Mn6 O18 2.057049 1_555
Mn6 O16 2.062950 1_455
Mn6 O11 2.235804 1_555
Mn6 O22 2.273367 1_555
Mn7 O12 2.008493 1_555
Mn7 O11 2.029476 1_655
Mn7 O15 2.029616 1_555
Mn7 O8 2.032919 1_655
Mn7 O10 2.223432 1_655
Mn7 O13 2.257620 1_555
Mn8 O11 1.913360 1_645
Mn8 O18 2.086429 1_545
Mn8 O17 2.145886 1_555
Mn8 O10 2.250150 1_655
Mn9 O25 1.921299 1_555
Mn9 O26 2.097851 1_555
Mn9 O14 2.139479 1_554
Mn9 O24 2.254765 1_555
Mn10 O22 1.923201 1_555
Mn10 O16 2.093248 1_555
Mn10 O15 2.154866 1_555
Mn10 O23 2.254599 1_555
Mn11 O24 1.989993 1_555
Mn11 O20 1.989993 1_444
Mn11 O26 2.024045 1_445
Mn11 O19 2.024045 1_554
Mn11 O21 2.278551 1_454
Mn11 O25 2.278551 1_545
Mn12 O21 1.921299 1_555
Mn12 O19 2.097851 1_555
Mn12 O29 2.139479 1_556
Mn12 O20 2.254765 1_555
Fe0 O6 1.867543 1_565
Fe0 O9 1.869654 1_555
Fe0 O1 2.053700 1_555
Fe0 O2 2.094547 1_565
Fe0 O7 2.339950 1_555
Fe0 O4 2.366216 1_565
Fe1 O7 1.818580 1_555
Fe1 O4 1.824312 1_555
Fe1 O3 2.029721 1_555
Fe1 O0 2.069305 1_555
Fe1 O9 2.326802 1_555
Fe1 O6 2.334107 1_555
Fe2 O8 1.867543 1_545
Fe2 O15 1.869654 1_555
Fe2 O12 2.053700 1_555
Fe2 O11 2.094547 1_545
Fe2 O5 2.339950 1_555
Fe2 O18 2.366216 1_545
Fe3 O5 1.818580 1_555
Fe3 O18 1.824312 1_555
Fe3 O10 2.029721 1_555
Fe3 O13 2.069305 1_555
Fe3 O15 2.326802 1_555
Fe3 O8 2.334107 1_555
Fe4 O13 1.859860 1_555
Fe4 O0 1.859860 1_555
Fe4 O5 2.093676 1_555
Fe4 O7 2.093676 1_555
Fe4 O1 2.300128 1_555
Fe4 O12 2.300128 1_555
Fe5 O16 1.822327 1_455
Fe5 O19 1.841799 1_565
Fe5 O20 2.028441 1_455
Fe5 O23 2.033003 1_565
Fe5 O17 2.326798 1_465
Fe5 O14 2.335157 1_555
Fe6 O17 1.830666 1_455
Fe6 O14 1.841241 1_555
Fe6 O21 2.130872 1_455
Fe6 O22 2.148954 1_555
Fe6 O16 2.353817 1_455
Fe6 O19 2.360676 1_555
Fe7 O21 1.873096 1_565
Fe7 O22 1.888782 1_555
Fe7 O14 2.096656 1_555
Fe7 O17 2.098275 1_565
Fe7 O20 2.261836 1_555
Fe7 O23 2.271049 1_565
Fe8 O25 1.873096 1_545
Fe8 O31 1.888782 1_555
Fe8 O29 2.096656 1_555
Fe8 O27 2.098275 1_545
Fe8 O24 2.261836 1_555
Fe8 O30 2.271049 1_545
Fe9 O27 1.830666 1_655
Fe9 O29 1.841241 1_555
Fe9 O25 2.130872 1_655
Fe9 O31 2.148954 1_555
Fe9 O28 2.353817 1_655
Fe9 O26 2.360676 1_555
Fe10 O28 1.822327 1_655
Fe10 O26 1.841799 1_545
Fe10 O24 2.028441 1_655
Fe10 O30 2.033003 1_545
Fe10 O27 2.326798 1_645
Fe10 O29 2.335157 1_555
