# generated using pymatgen
data_HfFeGe2
_symmetry_space_group_name_H-M   'P 1'
_cell_length_a   7.91921200
_cell_length_b   9.11382000
_cell_length_c   10.15226100
_cell_angle_alpha   90.00000000
_cell_angle_beta   90.00000000
_cell_angle_gamma   90.00000000
_symmetry_Int_Tables_number   1
_chemical_formula_structural   HfFeGe2
_chemical_formula_sum   'Hf12 Fe12 Ge24'
_cell_volume   732.73205404
_cell_formula_units_Z   12
loop_
 _symmetry_equiv_pos_site_id
 _symmetry_equiv_pos_as_xyz
  1  'x, y, z'
loop_
 _atom_site_type_symbol
 _atom_site_label
 _atom_site_symmetry_multiplicity
 _atom_site_fract_x
 _atom_site_fract_y
 _atom_site_fract_z
 _atom_site_occupancy
  Hf  Hf0  1  0.74381600  0.82589000  0.04895800  1
  Hf  Hf1  1  0.74381600  0.17411000  0.95104200  1
  Hf  Hf2  1  0.25618400  0.67411000  0.54895800  1
  Hf  Hf3  1  0.25618400  0.32589000  0.45104200  1
  Hf  Hf4  1  0.25618400  0.17411000  0.95104200  1
  Hf  Hf5  1  0.25618400  0.82589000  0.04895800  1
  Hf  Hf6  1  0.74381600  0.32589000  0.45104200  1
  Hf  Hf7  1  0.74381600  0.67411000  0.54895800  1
  Hf  Hf8  1  0.50000000  0.83528500  0.32097400  1
  Hf  Hf9  1  0.50000000  0.16471500  0.67902600  1
  Hf  Hf10  1  0.50000000  0.66471500  0.82097400  1
  Hf  Hf11  1  0.50000000  0.33528500  0.17902600  1
  Fe  Fe0  1  0.74938200  0.59193900  0.25374800  1
  Fe  Fe1  1  0.74938200  0.40806100  0.74625200  1
  Fe  Fe2  1  0.25061800  0.90806100  0.75374800  1
  Fe  Fe3  1  0.25061800  0.09193900  0.24625200  1
  Fe  Fe4  1  0.25061800  0.40806100  0.74625200  1
  Fe  Fe5  1  0.25061800  0.59193900  0.25374800  1
  Fe  Fe6  1  0.74938200  0.09193900  0.24625200  1
  Fe  Fe7  1  0.74938200  0.90806100  0.75374800  1
  Fe  Fe8  1  0.74509600  0.00000000  0.50000000  1
  Fe  Fe9  1  0.25490400  0.50000000  0.00000000  1
  Fe  Fe10  1  0.25490400  0.00000000  0.50000000  1
  Fe  Fe11  1  0.74509600  0.50000000  0.00000000  1
  Ge  Ge0  1  0.84342700  0.84146600  0.31918500  1
  Ge  Ge1  1  0.84342700  0.15853400  0.68081500  1
  Ge  Ge2  1  0.15657300  0.65853400  0.81918500  1
  Ge  Ge3  1  0.15657300  0.34146600  0.18081500  1
  Ge  Ge4  1  0.15657300  0.15853400  0.68081500  1
  Ge  Ge5  1  0.15657300  0.84146600  0.31918500  1
  Ge  Ge6  1  0.84342700  0.34146600  0.18081500  1
  Ge  Ge7  1  0.84342700  0.65853400  0.81918500  1
  Ge  Ge8  1  0.50000000  0.54054500  0.37983100  1
  Ge  Ge9  1  0.50000000  0.45945500  0.62016900  1
  Ge  Ge10  1  0.50000000  0.95945500  0.87983100  1
  Ge  Ge11  1  0.50000000  0.04054500  0.12016900  1
  Ge  Ge12  1  0.00000000  0.54753800  0.37884100  1
  Ge  Ge13  1  0.00000000  0.45246200  0.62115900  1
  Ge  Ge14  1  0.00000000  0.95246200  0.87884100  1
  Ge  Ge15  1  0.00000000  0.04753800  0.12115900  1
  Ge  Ge16  1  0.50000000  0.62768000  0.10223600  1
  Ge  Ge17  1  0.50000000  0.37232000  0.89776400  1
  Ge  Ge18  1  0.50000000  0.87232000  0.60223600  1
  Ge  Ge19  1  0.50000000  0.12768000  0.39776400  1
  Ge  Ge20  1  0.00000000  0.62416000  0.09869400  1
  Ge  Ge21  1  0.00000000  0.37584000  0.90130600  1
  Ge  Ge22  1  0.00000000  0.87584000  0.59869400  1
  Ge  Ge23  1  0.00000000  0.12416000  0.40130600  1
loop_
_geom_bond_atom_site_label_1
_geom_bond_atom_site_label_2
_geom_bond_distance
_geom_bond_site_symmetry_2
Fe0 Ge12 2.390735 1_655
Fe0 Ge8 2.399610 1_555
Fe0 Ge0 2.483494 1_555
Fe0 Ge6 2.512754 1_555
Fe0 Ge16 2.524361 1_555
Fe0 Ge20 2.550137 1_655
Fe1 Ge13 2.390735 1_655
Fe1 Ge9 2.399610 1_555
Fe1 Ge1 2.483494 1_555
Fe1 Ge7 2.512754 1_555
Fe1 Ge17 2.524361 1_555
Fe1 Ge21 2.550137 1_655
Fe2 Ge14 2.390735 1_555
Fe2 Ge10 2.399610 1_555
Fe2 Ge2 2.483494 1_555
Fe2 Ge4 2.512754 1_565
Fe2 Ge18 2.524361 1_555
Fe2 Ge22 2.550137 1_555
Fe3 Ge15 2.390735 1_555
Fe3 Ge11 2.399610 1_555
Fe3 Ge3 2.483494 1_555
Fe3 Ge5 2.512754 1_545
Fe3 Ge19 2.524361 1_555
Fe3 Ge23 2.550137 1_555
Fe4 Ge13 2.390735 1_555
Fe4 Ge9 2.399610 1_555
Fe4 Ge4 2.483494 1_555
Fe4 Ge2 2.512754 1_555
Fe4 Ge17 2.524361 1_555
Fe4 Ge21 2.550137 1_555
Fe5 Ge12 2.390735 1_555
Fe5 Ge8 2.399610 1_555
Fe5 Ge5 2.483494 1_555
Fe5 Ge3 2.512754 1_555
Fe5 Ge16 2.524361 1_555
Fe5 Ge20 2.550137 1_555
Fe6 Ge15 2.390735 1_655
Fe6 Ge11 2.399610 1_555
Fe6 Ge6 2.483494 1_555
Fe6 Ge0 2.512754 1_545
Fe6 Ge19 2.524361 1_555
Fe6 Ge23 2.550137 1_655
Fe7 Ge14 2.390735 1_655
Fe7 Ge10 2.399610 1_555
Fe7 Ge7 2.483494 1_555
Fe7 Ge1 2.512754 1_565
Fe7 Ge18 2.524361 1_555
Fe7 Ge22 2.550137 1_655
Fe8 Ge1 2.462458 1_555
Fe8 Ge0 2.462458 1_545
Fe8 Ge19 2.489725 1_555
Fe8 Ge18 2.489725 1_545
Fe8 Ge22 2.521764 1_645
Fe8 Ge23 2.521764 1_655
Fe9 Ge2 2.462458 1_554
Fe9 Ge3 2.462458 1_555
Fe9 Ge16 2.489725 1_555
Fe9 Ge17 2.489725 1_554
Fe9 Ge21 2.521764 1_554
Fe9 Ge20 2.521764 1_555
Fe10 Ge4 2.462458 1_555
Fe10 Ge5 2.462458 1_545
Fe10 Ge19 2.489725 1_555
Fe10 Ge18 2.489725 1_545
Fe10 Ge22 2.521764 1_545
Fe10 Ge23 2.521764 1_555
Fe11 Ge7 2.462458 1_554
Fe11 Ge6 2.462458 1_555
Fe11 Ge16 2.489725 1_555
Fe11 Ge17 2.489725 1_554
Fe11 Ge21 2.521764 1_654
Fe11 Ge20 2.521764 1_655
Ge0 Ge5 2.479870 1_655
Ge0 Hf8 2.720315 1_555
Ge0 Hf0 2.858102 1_555
Ge0 Hf7 2.896589 1_555
Ge1 Ge4 2.479870 1_655
Ge1 Hf9 2.720315 1_555
Ge1 Hf1 2.858102 1_555
Ge1 Hf6 2.896589 1_555
Ge2 Ge7 2.479870 1_455
Ge2 Hf10 2.720315 1_555
Ge2 Hf2 2.858102 1_555
Ge2 Hf5 2.896589 1_556
Ge3 Ge6 2.479870 1_455
Ge3 Hf11 2.720315 1_555
Ge3 Hf3 2.858102 1_555
Ge3 Hf4 2.896589 1_554
Ge4 Hf9 2.720315 1_555
Ge4 Hf4 2.858102 1_555
Ge4 Hf3 2.896589 1_555
Ge5 Hf8 2.720315 1_555
Ge5 Hf5 2.858102 1_555
Ge5 Hf2 2.896589 1_555
Ge6 Hf11 2.720315 1_555
Ge6 Hf6 2.858102 1_555
Ge6 Hf1 2.896589 1_554
Ge7 Hf10 2.720315 1_555
Ge7 Hf7 2.858102 1_555
Ge7 Hf0 2.896589 1_556
Ge8 Ge9 2.549442 1_555
Ge8 Hf8 2.751864 1_555
Ge8 Hf11 2.766861 1_555
Ge8 Hf3 2.842179 1_555
Ge8 Hf6 2.842179 1_555
Ge8 Hf2 2.856231 1_555
Ge8 Hf7 2.856231 1_555
Ge9 Hf9 2.751864 1_555
Ge9 Hf10 2.766861 1_555
Ge9 Hf2 2.842179 1_555
Ge9 Hf7 2.842179 1_555
Ge9 Hf3 2.856231 1_555
Ge9 Hf6 2.856231 1_555
Ge10 Ge11 2.549442 1_566
Ge10 Hf10 2.751864 1_555
Ge10 Hf9 2.766861 1_565
Ge10 Hf4 2.842179 1_565
Ge10 Hf1 2.842179 1_565
Ge10 Hf5 2.856231 1_556
Ge10 Hf0 2.856231 1_556
Ge11 Hf11 2.751864 1_555
Ge11 Hf8 2.766861 1_545
Ge11 Hf5 2.842179 1_545
Ge11 Hf0 2.842179 1_545
Ge11 Hf4 2.856231 1_554
Ge11 Hf1 2.856231 1_554
Ge12 Ge13 2.608218 1_555
Ge12 Hf7 2.903342 1_455
Ge12 Hf2 2.903342 1_555
Ge12 Hf6 2.955311 1_455
Ge12 Hf3 2.955311 1_555
Ge13 Hf6 2.903342 1_455
Ge13 Hf3 2.903342 1_555
Ge13 Hf7 2.955311 1_455
Ge13 Hf2 2.955311 1_555
Ge14 Ge15 2.608218 1_566
Ge14 Hf5 2.903342 1_556
Ge14 Hf0 2.903342 1_456
Ge14 Hf4 2.955311 1_565
Ge14 Hf1 2.955311 1_465
Ge15 Hf4 2.903342 1_554
Ge15 Hf1 2.903342 1_454
Ge15 Hf0 2.955311 1_445
Ge15 Hf5 2.955311 1_545
Ge16 Hf5 2.698876 1_555
Ge16 Hf0 2.698876 1_555
Ge16 Hf11 2.776529 1_555
Ge16 Hf10 2.875325 1_554
Ge16 Hf8 2.917429 1_555
Ge17 Hf4 2.698876 1_555
Ge17 Hf1 2.698876 1_555
Ge17 Hf10 2.776529 1_555
Ge17 Hf11 2.875325 1_556
Ge17 Hf9 2.917429 1_555
Ge18 Hf2 2.698876 1_555
Ge18 Hf7 2.698876 1_555
Ge18 Hf9 2.776529 1_565
Ge18 Hf8 2.875325 1_555
Ge18 Hf10 2.917429 1_555
Ge19 Hf3 2.698876 1_555
Ge19 Hf6 2.698876 1_555
Ge19 Hf8 2.776529 1_545
Ge19 Hf9 2.875325 1_555
Ge19 Hf11 2.917429 1_555
Ge20 Hf0 2.784077 1_455
Ge20 Hf5 2.784077 1_555
Ge21 Hf1 2.784077 1_455
Ge21 Hf4 2.784077 1_555
Ge22 Hf7 2.784077 1_455
Ge22 Hf2 2.784077 1_555
Ge23 Hf6 2.784077 1_455
Ge23 Hf3 2.784077 1_555
