# generated using pymatgen
data_Ce3Ni13B2
_symmetry_space_group_name_H-M   'P 1'
_cell_length_a   4.90264336
_cell_length_b   4.90264330
_cell_length_c   10.95178461
_cell_angle_alpha   90.00000000
_cell_angle_beta   90.00000000
_cell_angle_gamma   120.00000038
_symmetry_Int_Tables_number   1
_chemical_formula_structural   Ce3Ni13B2
_chemical_formula_sum   'Ce3 Ni13 B2'
_cell_volume   227.96917243
_cell_formula_units_Z   1
loop_
 _symmetry_equiv_pos_site_id
 _symmetry_equiv_pos_as_xyz
  1  'x, y, z'
loop_
 _atom_site_type_symbol
 _atom_site_label
 _atom_site_symmetry_multiplicity
 _atom_site_fract_x
 _atom_site_fract_y
 _atom_site_fract_z
 _atom_site_occupancy
  Ce  Ce0  1  0.00000000  0.00000000  -0.00000000  1
  Ce  Ce1  1  0.00000000  0.00000000  0.66722719  1
  Ce  Ce2  1  0.00000000  0.00000000  0.33277281  1
  Ni  Ni0  1  0.50000000  0.50000000  0.50000000  1
  Ni  Ni1  1  0.50000000  0.00000000  0.50000000  1
  Ni  Ni2  1  0.00000000  0.50000000  0.50000000  1
  Ni  Ni3  1  0.66666700  0.33333300  0.68150415  1
  Ni  Ni4  1  0.33333300  0.66666700  0.68150415  1
  Ni  Ni5  1  0.33333300  0.66666700  0.31849585  1
  Ni  Ni6  1  0.66666700  0.33333300  0.31849585  1
  Ni  Ni7  1  0.50000000  0.50000000  0.86570459  1
  Ni  Ni8  1  0.50000000  0.00000000  0.86570459  1
  Ni  Ni9  1  0.00000000  0.50000000  0.86570459  1
  Ni  Ni10  1  0.50000000  0.50000000  0.13429541  1
  Ni  Ni11  1  0.50000000  0.00000000  0.13429541  1
  Ni  Ni12  1  0.00000000  0.50000000  0.13429541  1
  B  B0  1  0.66666700  0.33333300  -0.00000000  1
  B  B1  1  0.33333300  0.66666700  -0.00000000  1
loop_
_geom_bond_atom_site_label_1
_geom_bond_atom_site_label_2
_geom_bond_distance
_geom_bond_site_symmetry_2
Ce0 Ni12 2.858698 1_555
Ce0 Ni9 2.858698 1_544
Ce0 Ni7 2.858698 1_554
Ce0 Ni12 2.858698 1_545
Ce0 Ni10 2.858698 1_445
Ce0 Ni10 2.858698 1_555
Ce0 Ni7 2.858698 1_444
Ce0 Ni9 2.858698 1_554
Ce0 Ni11 2.858698 1_455
Ce0 Ni8 2.858698 1_554
Ce0 Ni8 2.858698 1_454
Ce0 Ni11 2.858698 1_555
Ce1 Ni4 2.834855 1_545
Ce1 Ni3 2.834855 1_455
Ce1 Ni4 2.834859 1_555
Ce1 Ni3 2.834859 1_445
Ce1 Ni3 2.834859 1_555
Ce1 Ni4 2.834859 1_445
Ce1 Ni2 3.059924 1_555
Ce1 Ni0 3.059924 1_555
Ce1 Ni2 3.059924 1_545
Ce1 Ni0 3.059924 1_445
Ce1 Ni1 3.059924 1_555
Ce1 Ni1 3.059924 1_455
Ce1 Ni7 3.276259 1_445
Ce1 Ni7 3.276259 1_555
Ce1 Ni9 3.276259 1_555
Ce1 Ni9 3.276259 1_545
Ce1 Ni8 3.276259 1_555
Ce1 Ni8 3.276259 1_455
Ce2 Ni5 2.834855 1_545
Ce2 Ni6 2.834855 1_455
Ce2 Ni5 2.834859 1_555
Ce2 Ni6 2.834859 1_445
Ce2 Ni5 2.834859 1_445
Ce2 Ni6 2.834859 1_555
Ce2 Ni2 3.059924 1_555
Ce2 Ni0 3.059924 1_555
Ce2 Ni2 3.059924 1_545
Ce2 Ni0 3.059924 1_445
Ce2 Ni1 3.059924 1_455
Ce2 Ni1 3.059924 1_555
Ce2 Ni10 3.276259 1_555
Ce2 Ni12 3.276259 1_545
Ce2 Ni12 3.276259 1_555
Ce2 Ni10 3.276259 1_445
Ce2 Ni11 3.276259 1_555
Ce2 Ni11 3.276259 1_455
Ni0 Ni6 2.440149 1_555
Ni0 Ni3 2.440149 1_555
Ni0 Ni5 2.440149 1_555
Ni0 Ni4 2.440149 1_555
Ni0 Ni1 2.451322 1_555
Ni0 Ni1 2.451322 1_565
Ni0 Ni2 2.451322 1_655
Ni0 Ni2 2.451322 1_555
Ni1 Ni5 2.440147 1_545
Ni1 Ni4 2.440147 1_545
Ni1 Ni6 2.440147 1_555
Ni1 Ni3 2.440147 1_555
Ni1 Ni2 2.451322 1_655
Ni1 Ni2 2.451322 1_545
Ni2 Ni3 2.440147 1_455
Ni2 Ni6 2.440147 1_455
Ni2 Ni5 2.440147 1_555
Ni2 Ni4 2.440147 1_555
Ni3 Ni8 2.464261 1_555
Ni3 Ni9 2.464261 1_655
Ni3 Ni7 2.464264 1_555
Ni3 Ni4 2.830540 1_545
Ni3 Ni4 2.830540 1_655
Ni3 Ni4 2.830548 1_555
Ni4 Ni8 2.464261 1_565
Ni4 Ni9 2.464261 1_555
Ni4 Ni7 2.464264 1_555
Ni5 Ni6 2.830540 1_565
Ni5 Ni6 2.830540 1_455
Ni5 Ni6 2.830548 1_555
Ni10 Ni5 2.464264 1_555
Ni10 Ni6 2.464264 1_555
Ni11 Ni5 2.464261 1_545
Ni11 Ni6 2.464261 1_555
Ni12 Ni5 2.464261 1_555
Ni12 Ni6 2.464261 1_455
B0 Ni11 2.041119 1_555
B0 Ni8 2.041119 1_554
B0 Ni12 2.041119 1_655
B0 Ni9 2.041119 1_654
B0 Ni7 2.041122 1_554
B0 Ni10 2.041122 1_555
B0 Ce0 2.830540 1_655
B0 Ce0 2.830544 1_665
B0 Ce0 2.830544 1_555
B1 Ni11 2.041119 1_565
B1 Ni8 2.041119 1_564
B1 Ni12 2.041119 1_555
B1 Ni9 2.041119 1_554
B1 Ni7 2.041122 1_554
B1 Ni10 2.041122 1_555
B1 Ce0 2.830540 1_565
B1 Ce0 2.830544 1_555
B1 Ce0 2.830544 1_665
