# generated using pymatgen
data_Hf7Ni10
_symmetry_space_group_name_H-M   'P 1'
_cell_length_a   7.57665709
_cell_length_b   7.57665705
_cell_length_c   9.03287894
_cell_angle_alpha   89.99916892
_cell_angle_beta   89.99916616
_cell_angle_gamma   107.02268689
_symmetry_Int_Tables_number   1
_chemical_formula_structural   Hf7Ni10
_chemical_formula_sum   'Hf14 Ni20'
_cell_volume   495.82127239
_cell_formula_units_Z   2
loop_
 _symmetry_equiv_pos_site_id
 _symmetry_equiv_pos_as_xyz
  1  'x, y, z'
loop_
 _atom_site_type_symbol
 _atom_site_label
 _atom_site_symmetry_multiplicity
 _atom_site_fract_x
 _atom_site_fract_y
 _atom_site_fract_z
 _atom_site_occupancy
  Hf  Hf0  1  0.69314595  0.30685198  -0.00001371  1
  Hf  Hf1  1  0.30685167  0.69314570  -0.00001382  1
  Hf  Hf2  1  0.80685826  0.19314022  0.50001383  1
  Hf  Hf3  1  0.19313980  0.80685778  0.50001396  1
  Hf  Hf4  1  -0.00000235  -0.00000231  -0.00001628  1
  Hf  Hf5  1  0.49999749  0.49999748  0.50001636  1
  Hf  Hf6  1  0.00453490  0.50453481  0.25002523  1
  Hf  Hf7  1  0.99546411  0.49546389  0.74997486  1
  Hf  Hf8  1  0.49546396  0.99546414  0.74997493  1
  Hf  Hf9  1  0.50453507  0.00453517  0.25002515  1
  Hf  Hf10  1  0.31446687  0.31446692  0.18667097  1
  Hf  Hf11  1  0.68553159  0.68553142  0.81330897  1
  Hf  Hf12  1  0.18552697  0.18552719  0.68664632  1
  Hf  Hf13  1  0.81447162  0.81447151  0.31337406  1
  Ni  Ni0  1  0.86551412  0.15381183  0.20859608  1
  Ni  Ni1  1  0.13448985  0.84618849  0.79138930  1
  Ni  Ni2  1  0.63447063  0.34621128  0.70856238  1
  Ni  Ni3  1  0.65378998  0.36553358  0.29145273  1
  Ni  Ni4  1  0.36553388  0.65379039  0.29145267  1
  Ni  Ni5  1  0.34621151  0.63447089  0.70856244  1
  Ni  Ni6  1  0.84618824  0.13448927  0.79138934  1
  Ni  Ni7  1  0.15381239  0.86551482  0.20859592  1
  Ni  Ni8  1  0.93569542  0.64661675  0.00731315  1
  Ni  Ni9  1  0.06431020  0.35338264  0.99264159  1
  Ni  Ni10  1  0.56428440  0.85336430  0.50735912  1
  Ni  Ni11  1  0.14663431  0.43572136  0.49268600  1
  Ni  Ni12  1  0.43572117  0.14663418  0.49268588  1
  Ni  Ni13  1  0.85336438  0.56428446  0.50735922  1
  Ni  Ni14  1  0.35338271  0.06430999  0.99264172  1
  Ni  Ni15  1  0.64661642  0.93569522  0.00731319  1
  Ni  Ni16  1  0.10690878  0.10690865  0.39529972  1
  Ni  Ni17  1  0.89308786  0.89308787  0.60473882  1
  Ni  Ni18  1  0.39313035  0.39313041  0.89525106  1
  Ni  Ni19  1  0.60686749  0.60686770  0.10470884  1
loop_
_geom_bond_atom_site_label_1
_geom_bond_atom_site_label_2
_geom_bond_distance
_geom_bond_site_symmetry_2
Hf0 Ni14 2.690441 1_554
Hf0 Ni8 2.690469 1_555
Hf0 Ni2 2.700688 1_554
Hf0 Ni3 2.701067 1_555
Hf0 Ni19 2.712796 1_555
Hf0 Ni18 2.712835 1_554
Hf0 Ni15 2.730616 1_545
Hf0 Ni9 2.730675 1_654
Hf0 Ni6 2.736233 1_554
Hf0 Ni0 2.736328 1_555
Hf1 Ni9 2.690439 1_554
Hf1 Ni15 2.690469 1_555
Hf1 Ni5 2.700686 1_554
Hf1 Ni4 2.701068 1_555
Hf1 Ni19 2.712795 1_555
Hf1 Ni18 2.712833 1_554
Hf1 Ni8 2.730613 1_455
Hf1 Ni14 2.730674 1_564
Hf1 Ni1 2.736230 1_554
Hf1 Ni7 2.736329 1_555
Hf2 Ni10 2.690608 1_545
Hf2 Ni11 2.690627 1_655
Hf2 Ni6 2.700186 1_555
Hf2 Ni0 2.700563 1_555
Hf2 Ni16 2.712820 1_655
Hf2 Ni17 2.712859 1_545
Hf2 Ni12 2.730501 1_555
Hf2 Ni13 2.730559 1_555
Hf2 Ni2 2.736165 1_555
Hf2 Ni3 2.736257 1_555
Hf3 Ni13 2.690604 1_455
Hf3 Ni12 2.690630 1_565
Hf3 Ni1 2.700184 1_555
Hf3 Ni7 2.700566 1_555
Hf3 Ni16 2.712821 1_565
Hf3 Ni17 2.712858 1_455
Hf3 Ni11 2.730497 1_555
Hf3 Ni10 2.730561 1_555
Hf3 Ni5 2.736164 1_555
Hf3 Ni4 2.736258 1_555
Hf4 Ni6 2.577198 1_454
Hf4 Ni1 2.577200 1_544
Hf4 Ni7 2.577304 1_545
Hf4 Ni0 2.577305 1_455
Hf4 Ni8 2.578120 1_445
Hf4 Ni15 2.578122 1_445
Hf4 Ni9 2.578144 1_554
Hf4 Ni14 2.578145 1_554
Hf5 Ni2 2.576702 1_555
Hf5 Ni5 2.576702 1_555
Hf5 Ni3 2.576808 1_555
Hf5 Ni4 2.576809 1_555
Hf5 Ni11 2.578013 1_555
Hf5 Ni12 2.578014 1_555
Hf5 Ni10 2.578034 1_555
Hf5 Ni13 2.578034 1_555
Hf6 Ni11 2.562073 1_555
Hf6 Ni8 2.562456 1_455
Hf6 Ni0 2.583028 1_455
Hf6 Ni3 2.583146 1_455
Hf6 Ni7 2.662403 1_555
Hf6 Ni4 2.662526 1_555
Hf6 Ni13 2.687656 1_455
Hf6 Ni9 2.688052 1_554
Hf7 Ni13 2.561743 1_555
Hf7 Ni9 2.562120 1_655
Hf7 Ni1 2.583024 1_655
Hf7 Ni5 2.583148 1_655
Hf7 Ni6 2.662346 1_555
Hf7 Ni2 2.662466 1_555
Hf7 Ni11 2.687286 1_655
Hf7 Ni8 2.687685 1_556
Hf8 Ni10 2.561744 1_555
Hf8 Ni14 2.562120 1_565
Hf8 Ni6 2.583021 1_565
Hf8 Ni2 2.583146 1_565
Hf8 Ni1 2.662342 1_555
Hf8 Ni5 2.662464 1_555
Hf8 Ni12 2.687288 1_565
Hf8 Ni15 2.687684 1_556
Hf9 Ni12 2.562072 1_555
Hf9 Ni15 2.562454 1_545
Hf9 Ni7 2.583026 1_545
Hf9 Ni4 2.583145 1_545
Hf9 Ni0 2.662395 1_555
Hf9 Ni3 2.662521 1_555
Hf9 Ni10 2.687656 1_545
Hf9 Ni14 2.688050 1_554
Hf10 Ni16 2.655067 1_555
Hf10 Ni3 2.659492 1_555
Hf10 Ni4 2.659494 1_555
Hf10 Ni9 2.660515 1_554
Hf10 Ni14 2.660516 1_554
Hf10 Ni18 2.726114 1_554
Hf10 Ni19 2.736880 1_555
Hf11 Ni17 2.654680 1_555
Hf11 Ni5 2.659364 1_555
Hf11 Ni2 2.659365 1_555
Hf11 Ni8 2.660403 1_556
Hf11 Ni15 2.660404 1_556
Hf11 Ni19 2.725940 1_556
Hf11 Ni18 2.736835 1_555
Hf12 Ni18 2.655264 1_555
Hf12 Ni6 2.659477 1_455
Hf12 Ni1 2.659477 1_545
Hf12 Ni11 2.660229 1_555
Hf12 Ni12 2.660231 1_555
Hf12 Ni16 2.725402 1_555
Hf12 Ni17 2.737115 1_445
Hf13 Ni19 2.655656 1_555
Hf13 Ni0 2.659595 1_565
Hf13 Ni7 2.659598 1_655
Hf13 Ni13 2.660337 1_555
Hf13 Ni10 2.660338 1_555
Hf13 Ni17 2.725555 1_555
Hf13 Ni16 2.737142 1_665
Ni0 Ni16 2.587703 1_655
Ni1 Ni17 2.587422 1_455
Ni10 Ni17 2.575192 1_555
Ni11 Ni16 2.575275 1_555
Ni12 Ni16 2.575273 1_555
Ni13 Ni17 2.575192 1_555
Ni14 Ni18 2.575288 1_555
Ni15 Ni19 2.575352 1_555
Ni16 Ni7 2.587700 1_545
Ni16 Ni17 2.700241 1_445
Ni17 Ni6 2.587419 1_565
Ni18 Ni9 2.575285 1_555
Ni18 Ni2 2.587321 1_555
Ni18 Ni5 2.587321 1_555
Ni18 Ni19 2.699888 1_556
Ni19 Ni8 2.575355 1_555
Ni19 Ni4 2.587617 1_555
Ni19 Ni3 2.587620 1_555
