# generated using pymatgen
data_CaCoO2
_symmetry_space_group_name_H-M   'P 1'
_cell_length_a   3.24538300
_cell_length_b   8.07631752
_cell_length_c   8.32079353
_cell_angle_alpha   97.85547009
_cell_angle_beta   91.63854044
_cell_angle_gamma   91.64254719
_symmetry_Int_Tables_number   1
_chemical_formula_structural   CaCoO2
_chemical_formula_sum   'Ca4 Co4 O8'
_cell_volume   215.84237885
_cell_formula_units_Z   4
loop_
 _symmetry_equiv_pos_site_id
 _symmetry_equiv_pos_as_xyz
  1  'x, y, z'
loop_
 _atom_site_type_symbol
 _atom_site_label
 _atom_site_symmetry_multiplicity
 _atom_site_fract_x
 _atom_site_fract_y
 _atom_site_fract_z
 _atom_site_occupancy
  Ca  Ca0  1  0.27844000  0.72596000  0.93859000  1
  Ca  Ca1  1  0.68547200  0.24368800  0.08095600  1
  Ca  Ca2  1  0.70936600  0.93335400  0.31525200  1
  Ca  Ca3  1  0.26559900  0.03626100  0.70478600  1
  Co  Co0  1  0.93914100  0.38145200  0.72908300  1
  Co  Co1  1  0.68458400  0.70324600  0.59606200  1
  Co  Co2  1  0.29588200  0.26652200  0.42295400  1
  Co  Co3  1  0.06915900  0.58815200  0.28653500  1
  O  O0  1  0.55283600  0.44457400  0.31241000  1
  O  O1  1  0.79845600  0.17997400  0.54648200  1
  O  O2  1  0.18283400  0.78880800  0.47228200  1
  O  O3  1  0.45208400  0.52524300  0.71235600  1
  O  O4  1  0.17255000  0.26202800  0.89489400  1
  O  O5  1  0.76376600  0.87158200  0.79767400  1
  O  O6  1  0.79005800  0.70510200  0.12619400  1
  O  O7  1  0.20846800  0.09799500  0.22192800  1
loop_
_geom_bond_atom_site_label_1
_geom_bond_atom_site_label_2
_geom_bond_distance
_geom_bond_site_symmetry_2
Ca0 O6 2.271948 1_556
Ca0 O6 2.274949 1_456
Ca0 O5 2.369648 1_555
Ca0 O3 2.401645 1_555
Ca0 O5 2.434242 1_455
Ca1 O4 2.259826 1_654
Ca1 O4 2.262573 1_554
Ca1 O7 2.352373 1_555
Ca1 O0 2.399978 1_555
Ca1 O7 2.453423 1_655
Ca2 O6 2.280363 1_555
Ca2 O7 2.285927 1_665
Ca2 O7 2.312498 1_565
Ca2 O2 2.415807 1_655
Ca2 O2 2.533837 1_555
Ca2 O1 2.576872 1_565
Ca3 O4 2.277843 1_555
Ca3 O5 2.290753 1_445
Ca3 O5 2.304980 1_545
Ca3 O1 2.405251 1_455
Ca3 O1 2.550665 1_555
Ca3 O2 2.586808 1_545
Co0 O4 1.937385 1_655
Co0 O3 2.000849 1_555
Co0 O3 2.021339 1_655
Co0 O1 2.099214 1_555
Co1 O3 1.982992 1_555
Co1 O5 2.015069 1_555
Co1 O2 2.086395 1_555
Co1 O2 2.092551 1_655
Co2 O0 1.986455 1_555
Co2 O7 2.014777 1_555
Co2 O1 2.090752 1_555
Co2 O1 2.092306 1_455
Co3 O6 1.953708 1_455
Co3 O0 2.002064 1_555
Co3 O0 2.043606 1_455
Co3 O2 2.097510 1_555
