# generated using pymatgen
data_Zn4Co5(TeO6)3
_symmetry_space_group_name_H-M   'P 1'
_cell_length_a   8.72651603
_cell_length_b   8.72651603
_cell_length_c   10.54631678
_cell_angle_alpha   86.38258818
_cell_angle_beta   86.38258818
_cell_angle_gamma   61.47590078
_symmetry_Int_Tables_number   1
_chemical_formula_structural   Zn4Co5(TeO6)3
_chemical_formula_sum   'Zn8 Co10 Te6 O36'
_cell_volume   703.73411742
_cell_formula_units_Z   2
loop_
 _symmetry_equiv_pos_site_id
 _symmetry_equiv_pos_as_xyz
  1  'x, y, z'
loop_
 _atom_site_type_symbol
 _atom_site_label
 _atom_site_symmetry_multiplicity
 _atom_site_fract_x
 _atom_site_fract_y
 _atom_site_fract_z
 _atom_site_occupancy
  Zn  Zn0  1  0.93401100  0.65813600  0.42515300  1
  Zn  Zn1  1  0.32208800  0.62952300  0.54544800  1
  Zn  Zn2  1  0.34186400  0.06598900  0.07484700  1
  Zn  Zn3  1  0.37047700  0.67791200  0.95455200  1
  Zn  Zn4  1  0.62952300  0.32208800  0.04544800  1
  Zn  Zn5  1  0.65813600  0.93401100  0.92515300  1
  Zn  Zn6  1  0.06598900  0.34186400  0.57484700  1
  Zn  Zn7  1  0.67791200  0.37047700  0.45455200  1
  Co  Co0  1  0.00951500  0.70967800  0.76977000  1
  Co  Co1  1  0.70967800  0.00951500  0.26977000  1
  Co  Co2  1  0.45650800  0.87413300  0.44493200  1
  Co  Co3  1  0.87413300  0.45650800  0.94493200  1
  Co  Co4  1  0.12586700  0.54349200  0.05506800  1
  Co  Co5  1  0.81699700  0.18300300  0.75000000  1
  Co  Co6  1  0.18300300  0.81699700  0.25000000  1
  Co  Co7  1  0.54349200  0.12586700  0.55506800  1
  Co  Co8  1  0.99048500  0.29032200  0.23023000  1
  Co  Co9  1  0.29032200  0.99048500  0.73023000  1
  Te  Te0  1  0.34241100  0.33285200  0.80170300  1
  Te  Te1  1  0.00000000  0.00000000  0.50000000  1
  Te  Te2  1  0.00000000  0.00000000  0.00000000  1
  Te  Te3  1  0.33285200  0.34241100  0.30170300  1
  Te  Te4  1  0.65758900  0.66714800  0.19829700  1
  Te  Te5  1  0.66714800  0.65758900  0.69829700  1
  O  O0  1  0.40952700  0.10794200  0.89474000  1
  O  O1  1  0.08988200  0.76149700  0.93833900  1
  O  O2  1  0.24157100  0.56399700  0.20462800  1
  O  O3  1  0.07521600  0.06124200  0.33660000  1
  O  O4  1  0.23850300  0.91011800  0.56166100  1
  O  O5  1  0.93875800  0.92478400  0.16340000  1
  O  O6  1  0.42726800  0.41283700  0.43774000  1
  O  O7  1  0.76309700  0.09070300  0.93596000  1
  O  O8  1  0.23690300  0.90929700  0.06404000  1
  O  O9  1  0.72347400  0.77901000  0.33061100  1
  O  O10  1  0.24336400  0.55010000  0.70004000  1
  O  O11  1  0.27652600  0.22099000  0.66938900  1
  O  O12  1  0.91011800  0.23850300  0.06166100  1
  O  O13  1  0.11177000  0.43879100  0.88977900  1
  O  O14  1  0.44990000  0.75663600  0.79996000  1
  O  O15  1  0.57273200  0.58716300  0.56226000  1
  O  O16  1  0.75663600  0.44990000  0.29996000  1
  O  O17  1  0.56120900  0.88823000  0.61022100  1
  O  O18  1  0.43600300  0.75842900  0.29537200  1
  O  O19  1  0.55010000  0.24336400  0.20004000  1
  O  O20  1  0.10794200  0.40952700  0.39474000  1
  O  O21  1  0.88823000  0.56120900  0.11022100  1
  O  O22  1  0.90929700  0.23690300  0.56404000  1
  O  O23  1  0.41283700  0.42726800  0.93774000  1
  O  O24  1  0.75842900  0.43600300  0.79537200  1
  O  O25  1  0.06124200  0.07521600  0.83660000  1
  O  O26  1  0.77901000  0.72347400  0.83061100  1
  O  O27  1  0.58716300  0.57273200  0.06226000  1
  O  O28  1  0.76149700  0.08988200  0.43833900  1
  O  O29  1  0.43879100  0.11177000  0.38977900  1
  O  O30  1  0.59047300  0.89205800  0.10526000  1
  O  O31  1  0.92478400  0.93875800  0.66340000  1
  O  O32  1  0.09070300  0.76309700  0.43596000  1
  O  O33  1  0.22099000  0.27652600  0.16938900  1
  O  O34  1  0.56399700  0.24157100  0.70462800  1
  O  O35  1  0.89205800  0.59047300  0.60526000  1
loop_
_geom_bond_atom_site_label_1
_geom_bond_atom_site_label_2
_geom_bond_distance
_geom_bond_site_symmetry_2
Co0 O10 1.967289 1_555
Co0 O26 2.021870 1_455
Co0 O31 2.052183 1_455
Co0 O1 2.102025 1_555
Co0 O13 2.395110 1_555
Co0 O35 2.571637 1_455
Co1 O19 1.967289 1_555
Co1 O9 2.021870 1_545
Co1 O5 2.052183 1_545
Co1 O28 2.102025 1_555
Co1 O29 2.395110 1_555
Co1 O30 2.571637 1_545
Co2 O18 1.987090 1_555
Co2 O29 2.053187 1_565
Co2 O17 2.055246 1_555
Co2 O4 2.101436 1_555
Co2 O9 2.344146 1_555
Co2 O15 2.484480 1_555
Co3 O24 1.987090 1_555
Co3 O13 2.053187 1_655
Co3 O21 2.055246 1_556
Co3 O12 2.101436 1_556
Co3 O26 2.344146 1_555
Co3 O27 2.484480 1_556
Co4 O2 1.987090 1_555
Co4 O21 2.053187 1_455
Co4 O13 2.055246 1_554
Co4 O1 2.101436 1_554
Co4 O33 2.344146 1_555
Co4 O23 2.484480 1_554
Co5 O24 2.095083 1_555
Co5 O34 2.095083 1_555
Co5 O25 2.117617 1_655
Co5 O31 2.117617 1_545
Co5 O22 2.182285 1_555
Co5 O7 2.182285 1_555
Co6 O18 2.095083 1_555
Co6 O2 2.095083 1_555
Co6 O3 2.117617 1_565
Co6 O5 2.117617 1_455
Co6 O8 2.182285 1_555
Co6 O32 2.182285 1_555
Co7 O34 1.987090 1_555
Co7 O17 2.053187 1_545
Co7 O29 2.055246 1_555
Co7 O28 2.101436 1_555
Co7 O11 2.344146 1_555
Co7 O6 2.484480 1_555
Co8 O16 1.967289 1_555
Co8 O33 2.021870 1_655
Co8 O3 2.052183 1_655
Co8 O12 2.102025 1_555
Co8 O21 2.395110 1_555
Co8 O20 2.571637 1_655
Co9 O14 1.967289 1_555
Co9 O11 2.021870 1_565
Co9 O25 2.052183 1_565
Co9 O4 2.102025 1_555
Co9 O17 2.395110 1_555
Co9 O0 2.571637 1_565
O0 Te0 1.972193 1_555
O0 Zn5 1.998702 1_545
O0 Zn2 2.016885 1_556
O1 Te2 1.979198 1_566
O1 Zn3 2.210955 1_555
O2 Te3 1.950326 1_555
O3 Te1 1.939631 1_555
O4 Te1 1.979198 1_565
O4 Zn1 2.210955 1_555
O5 Te2 1.939631 1_665
O6 Te3 1.964411 1_555
O6 Zn1 2.047005 1_555
O6 Zn7 2.054414 1_555
O7 Te2 1.975467 1_656
O7 Zn5 1.987624 1_545
O7 Zn4 2.155377 1_556
O8 Te2 1.975467 1_565
O8 Zn2 1.987624 1_565
O8 Zn3 2.155377 1_554
O9 Zn0 1.931286 1_555
O9 Te4 2.009931 1_555
O10 Zn1 1.944546 1_555
O10 Te0 1.945821 1_555
O11 Zn6 1.931286 1_555
O11 Te0 2.009931 1_555
O12 Te2 1.979198 1_655
O12 Zn4 2.210955 1_555
O13 Te0 1.965652 1_555
O14 Zn3 1.944546 1_555
O14 Te5 1.945821 1_555
O15 Te5 1.964411 1_555
O15 Zn7 2.047005 1_555
O15 Zn1 2.054414 1_555
O16 Zn7 1.944546 1_555
O16 Te4 1.945821 1_555
O17 Te5 1.965652 1_555
O18 Te4 1.950326 1_555
O19 Zn4 1.944546 1_555
O19 Te3 1.945821 1_555
O20 Te3 1.972193 1_555
O20 Zn0 1.998702 1_455
O20 Zn6 2.016885 1_555
O21 Te4 1.965652 1_555
O22 Te1 1.975467 1_655
O22 Zn6 1.987624 1_655
O22 Zn7 2.155377 1_555
O23 Te0 1.964411 1_555
O23 Zn4 2.047005 1_556
O23 Zn3 2.054414 1_555
O24 Te5 1.950326 1_555
O25 Te2 1.939631 1_556
O26 Zn5 1.931286 1_555
O26 Te5 2.009931 1_555
O27 Te4 1.964411 1_555
O27 Zn3 2.047005 1_554
O27 Zn4 2.054414 1_555
O28 Te1 1.979198 1_655
O28 Zn7 2.210955 1_555
O29 Te3 1.965652 1_555
O30 Te4 1.972193 1_555
O30 Zn2 1.998702 1_565
O30 Zn5 2.016885 1_554
O31 Te1 1.939631 1_665
O32 Te1 1.975467 1_565
O32 Zn0 1.987624 1_455
O32 Zn1 2.155377 1_555
O33 Zn2 1.931286 1_555
O33 Te3 2.009931 1_555
O34 Te0 1.950326 1_555
O35 Te5 1.972193 1_555
O35 Zn6 1.998702 1_655
O35 Zn0 2.016885 1_555
