# generated using pymatgen
data_Co4SbO8
_symmetry_space_group_name_H-M   'P 1'
_cell_length_a   5.91451741
_cell_length_b   5.91451741
_cell_length_c   5.83218060
_cell_angle_alpha   61.20194050
_cell_angle_beta   61.20194050
_cell_angle_gamma   60.80268422
_symmetry_Int_Tables_number   1
_chemical_formula_structural   Co4SbO8
_chemical_formula_sum   'Co4 Sb1 O8'
_cell_volume   147.72988481
_cell_formula_units_Z   1
loop_
 _symmetry_equiv_pos_site_id
 _symmetry_equiv_pos_as_xyz
  1  'x, y, z'
loop_
 _atom_site_type_symbol
 _atom_site_label
 _atom_site_symmetry_multiplicity
 _atom_site_fract_x
 _atom_site_fract_y
 _atom_site_fract_z
 _atom_site_occupancy
  Co  Co0  1  0.38198000  0.38198000  0.88877500  1
  Co  Co1  1  0.61802000  0.61802000  0.11122500  1
  Co  Co2  1  0.00000000  0.50000000  0.50000000  1
  Co  Co3  1  0.50000000  0.00000000  0.50000000  1
  Sb  Sb0  1  0.00000000  0.00000000  0.00000000  1
  O  O0  1  0.25595500  0.25595500  0.29389200  1
  O  O1  1  0.24162700  0.24162700  0.75423600  1
  O  O2  1  0.26246400  0.78296800  0.74064700  1
  O  O3  1  0.78296800  0.26246400  0.74064700  1
  O  O4  1  0.74404500  0.74404500  0.70610800  1
  O  O5  1  0.75837300  0.75837300  0.24576400  1
  O  O6  1  0.73753600  0.21703200  0.25935300  1
  O  O7  1  0.21703200  0.73753600  0.25935300  1
loop_
_geom_bond_atom_site_label_1
_geom_bond_atom_site_label_2
_geom_bond_distance
_geom_bond_site_symmetry_2
Co0 O0 1.960145 1_556
Co0 O3 1.962008 1_555
Co0 O2 1.962008 1_555
Co0 O1 1.980226 1_555
Co1 O4 1.960145 1_554
Co1 O6 1.962008 1_555
Co1 O7 1.962008 1_555
Co1 O5 1.980226 1_555
Co2 O4 1.899123 1_455
Co2 O0 1.899123 1_555
Co2 O7 1.927518 1_555
Co2 O3 1.927518 1_455
Co2 O5 2.074600 1_455
Co2 O1 2.074600 1_555
Co3 O4 1.899123 1_545
Co3 O0 1.899123 1_555
Co3 O6 1.927518 1_555
Co3 O2 1.927518 1_545
Co3 O5 2.074600 1_545
Co3 O1 2.074600 1_555
O1 Sb0 2.045654 1_556
O2 Sb0 2.002437 1_566
O3 Sb0 2.002437 1_656
O5 Sb0 2.045654 1_665
O6 Sb0 2.002437 1_655
O7 Sb0 2.002437 1_565
