# generated using pymatgen
data_Ce3SiI3
_symmetry_space_group_name_H-M   'P 1'
_cell_length_a   10.73687347
_cell_length_b   10.73687347
_cell_length_c   10.73687347
_cell_angle_alpha   109.47122063
_cell_angle_beta   109.47122063
_cell_angle_gamma   109.47122063
_symmetry_Int_Tables_number   1
_chemical_formula_structural   Ce3SiI3
_chemical_formula_sum   'Ce12 Si4 I12'
_cell_volume   952.82164659
_cell_formula_units_Z   4
loop_
 _symmetry_equiv_pos_site_id
 _symmetry_equiv_pos_as_xyz
  1  'x, y, z'
loop_
 _atom_site_type_symbol
 _atom_site_label
 _atom_site_symmetry_multiplicity
 _atom_site_fract_x
 _atom_site_fract_y
 _atom_site_fract_z
 _atom_site_occupancy
  Ce  Ce0  1  0.76554330  0.51554330  0.53108661  1
  Ce  Ce1  1  0.73445670  0.76554330  0.25000000  1
  Ce  Ce2  1  0.51554330  0.98445670  0.25000000  1
  Ce  Ce3  1  0.51554330  0.53108661  0.76554330  1
  Ce  Ce4  1  0.76554330  0.25000000  0.73445670  1
  Ce  Ce5  1  0.98445670  0.73445670  0.96891339  1
  Ce  Ce6  1  0.73445670  0.96891339  0.98445670  1
  Ce  Ce7  1  0.98445670  0.25000000  0.51554330  1
  Ce  Ce8  1  0.53108661  0.76554330  0.51554330  1
  Ce  Ce9  1  0.25000000  0.51554330  0.98445670  1
  Ce  Ce10  1  0.96891339  0.98445670  0.73445670  1
  Ce  Ce11  1  0.25000000  0.73445670  0.76554330  1
  Si  Si0  1  0.75000000  0.75000000  0.75000000  1
  Si  Si1  1  0.75000000  0.00000000  0.50000000  1
  Si  Si2  1  0.50000000  0.75000000  0.00000000  1
  Si  Si3  1  0.00000000  0.50000000  0.75000000  1
  I  I0  1  0.25905151  0.24094849  0.75000000  1
  I  I1  1  0.24094849  0.49094849  0.48189698  1
  I  I2  1  0.00905151  0.25905151  0.01810302  1
  I  I3  1  0.24094849  0.75000000  0.25905151  1
  I  I4  1  0.25905151  0.01810302  0.00905151  1
  I  I5  1  0.49094849  0.00905151  0.75000000  1
  I  I6  1  0.49094849  0.48189698  0.24094849  1
  I  I7  1  0.00905151  0.75000000  0.49094849  1
  I  I8  1  0.75000000  0.25905151  0.24094849  1
  I  I9  1  0.01810302  0.00905151  0.25905151  1
  I  I10  1  0.75000000  0.49094849  0.00905151  1
  I  I11  1  0.48189698  0.24094849  0.49094849  1
loop_
_geom_bond_atom_site_label_1
_geom_bond_atom_site_label_2
_geom_bond_distance
_geom_bond_site_symmetry_2
Ce0 Si0 2.913145 1_555
Ce0 Si3 2.913145 1_655
Ce0 I11 3.231881 1_555
Ce0 I7 3.231881 1_655
Ce0 I6 3.308167 1_555
Ce0 I8 3.308167 1_555
Ce1 Si1 2.913145 1_565
Ce1 Si2 2.913145 1_555
Ce1 I6 3.231881 1_555
Ce1 I9 3.231881 1_665
Ce1 I10 3.308167 1_555
Ce1 I7 3.308167 1_655
Ce2 Si1 2.913145 1_565
Ce2 Si2 2.913145 1_555
Ce2 I3 3.231881 1_555
Ce2 I8 3.231881 1_565
Ce2 I11 3.308167 1_565
Ce2 I4 3.308167 1_565
Ce3 Si0 2.913145 1_555
Ce3 Si2 2.913145 1_556
Ce3 I1 3.231881 1_555
Ce3 I10 3.231881 1_556
Ce3 I11 3.308167 1_555
Ce3 I0 3.308167 1_555
Ce4 Si3 2.913145 1_655
Ce4 Si1 2.913145 1_555
Ce4 I11 3.231881 1_555
Ce4 I2 3.231881 1_656
Ce4 I5 3.308167 1_555
Ce4 I10 3.308167 1_556
Ce5 Si0 2.913145 1_555
Ce5 Si3 2.913145 1_655
Ce5 I4 3.231881 1_666
Ce5 I10 3.231881 1_556
Ce5 I9 3.308167 1_666
Ce5 I3 3.308167 1_656
Ce6 Si2 2.913145 1_556
Ce6 Si0 2.913145 1_555
Ce6 I9 3.231881 1_666
Ce6 I5 3.231881 1_565
Ce6 I2 3.308167 1_666
Ce6 I8 3.308167 1_566
Ce7 Si3 2.913145 1_655
Ce7 Si1 2.913145 1_555
Ce7 I8 3.231881 1_555
Ce7 I0 3.231881 1_655
Ce7 I1 3.308167 1_655
Ce7 I9 3.308167 1_655
Ce8 Si1 2.913145 1_565
Ce8 Si0 2.913145 1_555
Ce8 I6 3.231881 1_555
Ce8 I5 3.231881 1_565
Ce8 I1 3.308167 1_555
Ce8 I3 3.308167 1_555
Ce9 Si2 2.913145 1_556
Ce9 Si3 2.913145 1_555
Ce9 I0 3.231881 1_555
Ce9 I3 3.231881 1_556
Ce9 I6 3.308167 1_556
Ce9 I2 3.308167 1_556
Ce10 Si1 2.913145 1_565
Ce10 Si0 2.913145 1_555
Ce10 I2 3.231881 1_666
Ce10 I7 3.231881 1_655
Ce10 I4 3.308167 1_666
Ce10 I0 3.308167 1_665
Ce11 Si2 2.913145 1_556
Ce11 Si3 2.913145 1_555
Ce11 I1 3.231881 1_555
Ce11 I4 3.231881 1_566
Ce11 I5 3.308167 1_565
Ce11 I7 3.308167 1_555
