# generated using pymatgen
data_CaMn8O13F3
_symmetry_space_group_name_H-M   'P 1'
_cell_length_a   7.05543167
_cell_length_b   5.77804891
_cell_length_c   6.92784635
_cell_angle_alpha   93.81479787
_cell_angle_beta   96.24800088
_cell_angle_gamma   85.87685879
_symmetry_Int_Tables_number   1
_chemical_formula_structural   CaMn8O13F3
_chemical_formula_sum   'Ca1 Mn8 O13 F3'
_cell_volume   279.52946219
_cell_formula_units_Z   1
loop_
 _symmetry_equiv_pos_site_id
 _symmetry_equiv_pos_as_xyz
  1  'x, y, z'
loop_
 _atom_site_type_symbol
 _atom_site_label
 _atom_site_symmetry_multiplicity
 _atom_site_fract_x
 _atom_site_fract_y
 _atom_site_fract_z
 _atom_site_occupancy
  Ca  Ca0  1  0.86612900  0.96769200  0.69969400  1
  Mn  Mn0  1  0.35484400  0.33298500  0.11651200  1
  Mn  Mn1  1  0.12424300  0.68696300  0.38231600  1
  Mn  Mn2  1  0.87285800  0.14760100  0.14111500  1
  Mn  Mn3  1  0.36867000  0.13997500  0.62366800  1
  Mn  Mn4  1  0.25405400  0.78877700  0.94858100  1
  Mn  Mn5  1  0.59331800  0.88278000  0.33427800  1
  Mn  Mn6  1  0.61655600  0.59763200  0.86784000  1
  Mn  Mn7  1  0.93716100  0.43775500  0.67112000  1
  O  O0  1  0.14559200  0.08426100  0.07008700  1
  O  O1  1  0.15183400  0.58440900  0.10869500  1
  O  O2  1  0.52082600  0.64086400  0.12559500  1
  O  O3  1  0.10283800  0.68856800  0.66257300  1
  O  O4  1  0.33276100  0.89477100  0.41531700  1
  O  O5  1  0.11243900  0.18257800  0.67034900  1
  O  O6  1  0.58486600  0.12643400  0.15725800  1
  O  O7  1  0.43919500  0.90982100  0.81560500  1
  O  O8  1  0.61072000  0.11561200  0.53889900  1
  O  O9  1  0.87832700  0.91075200  0.33904200  1
  O  O10  1  0.41330400  0.39947400  0.82965000  1
  O  O11  1  0.70364400  0.62342500  0.62365400  1
  O  O12  1  0.80776200  0.33468300  0.89804700  1
  F  F0  1  0.31889000  0.38181700  0.41787300  1
  F  F1  1  0.93080200  0.42636700  0.35530600  1
  F  F2  1  0.81837000  0.80924200  0.96692600  1
loop_
_geom_bond_atom_site_label_1
_geom_bond_atom_site_label_2
_geom_bond_distance
_geom_bond_site_symmetry_2
Ca0 O8 2.164939 1_565
Ca0 F2 2.187440 1_555
Ca0 O5 2.241373 1_665
Ca0 O3 2.259952 1_655
Ca0 O11 2.367629 1_555
Ca0 O12 2.482791 1_565
Ca0 O9 2.508328 1_555
Mn0 O6 1.950498 1_555
Mn0 O1 1.964511 1_555
Mn0 O0 2.118657 1_555
Mn0 O10 2.137760 1_554
Mn0 O2 2.192862 1_555
Mn1 O4 1.950045 1_555
Mn1 O3 1.963121 1_555
Mn1 O1 1.973983 1_555
Mn1 O9 2.094758 1_455
Mn2 O9 1.996284 1_545
Mn2 O0 2.039535 1_655
Mn2 O12 2.053669 1_554
Mn2 O6 2.059887 1_555
Mn3 O8 1.858466 1_555
Mn3 O5 1.867101 1_555
Mn3 O7 1.944305 1_545
Mn3 O4 1.963385 1_545
Mn3 O10 2.017201 1_555
Mn4 O7 1.877009 1_555
Mn4 O1 1.901540 1_556
Mn4 O0 1.992543 1_566
Mn4 O3 2.208072 1_555
Mn4 O2 2.276549 1_556
Mn4 O10 2.567606 1_555
Mn5 O8 1.888542 1_565
Mn5 O6 1.921278 1_565
Mn5 O4 1.975009 1_555
Mn5 O2 1.994623 1_555
Mn5 O9 2.025427 1_555
Mn5 O11 2.600574 1_555
Mn6 O11 1.880029 1_555
Mn6 O10 1.884306 1_555
Mn6 O12 1.964228 1_555
Mn6 O2 1.971337 1_556
Mn6 O7 2.148116 1_555
Mn7 O5 1.855123 1_655
Mn7 O11 1.910070 1_555
Mn7 O3 1.933954 1_655
Mn7 O12 2.043263 1_555
F0 Mn3 2.047976 1_555
F0 Mn0 2.128238 1_555
F0 Mn1 2.165950 1_555
F1 Mn1 2.089832 1_655
F1 Mn2 2.146644 1_555
F1 Mn7 2.180183 1_555
F2 Mn6 1.979788 1_555
F2 Mn2 2.262621 1_566
