# generated using pymatgen
data_Yb3(Bi7Te12)2
_symmetry_space_group_name_H-M   'P 1'
_cell_length_a   8.29500900
_cell_length_b   8.33818121
_cell_length_c   21.50188941
_cell_angle_alpha   97.86265761
_cell_angle_beta   97.12279512
_cell_angle_gamma   108.79345444
_symmetry_Int_Tables_number   1
_chemical_formula_structural   Yb3(Bi7Te12)2
_chemical_formula_sum   'Yb3 Bi14 Te24'
_cell_volume   1372.08073486
_cell_formula_units_Z   1
loop_
 _symmetry_equiv_pos_site_id
 _symmetry_equiv_pos_as_xyz
  1  'x, y, z'
loop_
 _atom_site_type_symbol
 _atom_site_label
 _atom_site_symmetry_multiplicity
 _atom_site_fract_x
 _atom_site_fract_y
 _atom_site_fract_z
 _atom_site_occupancy
  Yb  Yb0  1  0.17196400  0.79467000  0.04470000  1
  Yb  Yb1  1  0.97151100  0.33906900  0.20153400  1
  Yb  Yb2  1  0.77376800  0.52672500  0.92385500  1
  Bi  Bi0  1  0.48264400  0.17353500  0.38889200  1
  Bi  Bi1  1  0.51173300  0.40151000  0.11870300  1
  Bi  Bi2  1  0.84709400  0.47434700  0.71323200  1
  Bi  Bi3  1  0.86083700  0.69127500  0.43492500  1
  Bi  Bi4  1  0.53663700  0.67736000  0.28028600  1
  Bi  Bi5  1  0.17522100  0.92365300  0.25402900  1
  Bi  Bi6  1  0.73211700  0.99123300  0.08651000  1
  Bi  Bi7  1  0.62962700  0.97902100  0.88678200  1
  Bi  Bi8  1  0.17153300  0.01538100  0.77429600  1
  Bi  Bi9  1  0.88774700  0.97998600  0.63387900  1
  Bi  Bi10  1  0.52572900  0.23608300  0.57520300  1
  Bi  Bi11  1  0.98980300  0.25108800  0.43169600  1
  Bi  Bi12  1  0.19211100  0.32062100  0.94961700  1
  Bi  Bi13  1  0.34657400  0.57395900  0.75174600  1
  Te  Te0  1  0.79114000  0.66552100  0.16373500  1
  Te  Te1  1  0.30779700  0.66773200  0.16737000  1
  Te  Te2  1  0.10242900  0.97986500  0.50152000  1
  Te  Te3  1  0.89801900  0.41128900  0.05119000  1
  Te  Te4  1  0.26264500  0.28501000  0.29349400  1
  Te  Te5  1  0.62961200  0.99813700  0.49430600  1
  Te  Te6  1  0.83024500  0.95568100  0.32482400  1
  Te  Te7  1  0.11205000  0.10321700  0.12050500  1
  Te  Te8  1  0.45980700  0.32392500  0.83628400  1
  Te  Te9  1  0.58204200  0.08845600  0.21273300  1
  Te  Te10  1  0.62804100  0.62814900  0.63221000  1
  Te  Te11  1  0.95615100  0.32724400  0.84095600  1
  Te  Te12  1  0.17666700  0.31534500  0.66705700  1
  Te  Te13  1  0.44741600  0.45509900  0.45947900  1
  Te  Te14  1  0.25161100  0.75915700  0.37670700  1
  Te  Te15  1  0.82541100  0.45501800  0.32966900  1
  Te  Te16  1  0.91285100  0.42762400  0.54387000  1
  Te  Te17  1  0.93593000  0.93848100  0.96097900  1
  Te  Te18  1  0.46668400  0.61857300  0.99762300  1
  Te  Te19  1  0.79456400  0.77540800  0.79238400  1
  Te  Te20  1  0.60029200  0.10264500  0.70818000  1
  Te  Te21  1  0.18134500  0.82117800  0.66413500  1
  Te  Te22  1  0.25138000  0.74960800  0.87360900  1
  Te  Te23  1  0.49755200  0.13145400  0.99563300  1
loop_
_geom_bond_atom_site_label_1
_geom_bond_atom_site_label_2
_geom_bond_distance
_geom_bond_site_symmetry_2
Bi0 Te13 2.734579 1_555
Bi0 Te4 3.014636 1_555
Bi0 Te5 3.183246 1_545
Bi0 Te14 3.322783 1_545
Bi0 Bi5 3.513220 1_545
Bi0 Te15 3.553906 1_555
Bi1 Te0 2.593874 1_555
Bi1 Te23 3.195113 1_554
Bi1 Te1 3.332747 1_555
Bi1 Te18 3.417172 1_554
Bi1 Te7 3.453206 1_555
Bi2 Te19 3.017910 1_555
Bi2 Te10 3.051053 1_555
Bi2 Te20 3.094069 1_555
Bi2 Te11 3.299315 1_555
Bi3 Te2 2.663714 1_655
Bi3 Te15 2.707661 1_555
Bi3 Te16 3.503690 1_555
Bi3 Te14 3.523139 1_655
Bi4 Te6 2.721424 1_555
Bi4 Te1 2.865312 1_555
Bi4 Te4 3.401810 1_555
Bi4 Te0 3.482167 1_555
Bi4 Te14 3.495863 1_555
Bi5 Te4 2.839809 1_565
Bi5 Te1 3.188620 1_555
Bi5 Te14 3.221210 1_555
Bi5 Te0 3.384789 1_455
Bi5 Te6 3.469659 1_455
Bi5 Te7 3.473838 1_565
Bi5 Te9 3.486212 1_565
Bi6 Te7 2.946923 1_665
Bi6 Te23 3.181039 1_564
Bi6 Te9 3.234037 1_565
Bi6 Te18 3.328577 1_554
Bi6 Yb1 3.403037 1_565
Bi6 Te17 3.409267 1_554
Bi6 Te0 3.501666 1_555
Bi6 Te3 3.552386 1_565
Bi7 Te17 2.968294 1_555
Bi7 Te23 3.002145 1_565
Bi7 Te22 3.057447 1_555
Bi7 Te19 3.180650 1_555
Bi8 Te21 2.706044 1_545
Bi8 Te8 2.901884 1_555
Bi8 Te19 3.227388 1_445
Bi8 Te22 3.435012 1_545
Bi8 Bi9 3.505742 1_445
Bi9 Te12 2.963798 1_665
Bi9 Te10 3.021361 1_555
Bi9 Te21 3.166771 1_655
Bi9 Te20 3.369406 1_565
Bi9 Te5 3.514790 1_555
Bi9 Te2 3.539486 1_655
Bi10 Te5 2.869434 1_545
Bi10 Te10 3.125369 1_555
Bi10 Te20 3.266660 1_555
Bi10 Te16 3.292840 1_555
Bi10 Te13 3.399308 1_555
Bi10 Te2 3.502053 1_545
Bi11 Te16 2.899577 1_555
Bi11 Te6 2.948911 1_545
Bi11 Te2 3.191184 1_645
Bi11 Te15 3.366933 1_555
Bi11 Te13 3.557895 1_655
Bi11 Te5 3.591909 1_545
Bi12 Te18 2.737623 1_555
Bi12 Te11 2.874672 1_455
Bi12 Te17 3.272197 1_445
Bi12 Te8 3.491532 1_555
Bi12 Te23 3.502340 1_555
Bi13 Te12 2.506645 1_555
Bi13 Te22 3.137313 1_555
Bi13 Te8 3.226145 1_555
Bi13 Te21 3.452372 1_555
Bi13 Te19 3.487924 1_555
Te0 Te3 3.387503 1_555
Te0 Yb1 3.638167 1_555
Te1 Yb0 3.184672 1_555
Te1 Yb1 3.458972 1_455
Te3 Yb2 3.185193 1_554
Te3 Yb0 3.304902 1_655
Te3 Yb1 3.385985 1_555
Te4 Yb1 3.115446 1_455
Te7 Yb1 3.050473 1_455
Te7 Yb0 3.065948 1_545
Te8 Yb2 2.874477 1_555
Te9 Yb1 3.292810 1_555
Te11 Yb2 3.116334 1_555
Te15 Yb1 3.293694 1_555
Te17 Yb0 3.121072 1_656
Te17 Yb2 3.200373 1_555
Te18 Yb2 3.393746 1_555
Te18 Yb0 3.417178 1_556
Te19 Yb2 3.716835 1_555
Te22 Yb0 3.806685 1_556
Te23 Yb0 3.594940 1_546
