# generated using pymatgen
data_Cd2Bi2(TeSe)3
_symmetry_space_group_name_H-M   'P 1'
_cell_length_a   19.07894880
_cell_length_b   19.07894880
_cell_length_c   19.07894904
_cell_angle_alpha   12.79165811
_cell_angle_beta   12.79165811
_cell_angle_gamma   12.79165922
_symmetry_Int_Tables_number   1
_chemical_formula_structural   Cd2Bi2(TeSe)3
_chemical_formula_sum   'Cd2 Bi2 Te3 Se3'
_cell_volume   296.05669035
_cell_formula_units_Z   1
loop_
 _symmetry_equiv_pos_site_id
 _symmetry_equiv_pos_as_xyz
  1  'x, y, z'
loop_
 _atom_site_type_symbol
 _atom_site_label
 _atom_site_symmetry_multiplicity
 _atom_site_fract_x
 _atom_site_fract_y
 _atom_site_fract_z
 _atom_site_occupancy
  Cd  Cd0  1  0.69737100  0.69737100  0.69737100  1
  Cd  Cd1  1  0.19933500  0.19933500  0.19933500  1
  Bi  Bi0  1  0.80263200  0.80263200  0.80263200  1
  Bi  Bi1  1  0.30091300  0.30091300  0.30091300  1
  Te  Te0  1  0.39330000  0.39330000  0.39330000  1
  Te  Te1  1  0.89339500  0.89339500  0.89339500  1
  Te  Te2  1  0.10288300  0.10288300  0.10288300  1
  Se  Se0  1  0.60655800  0.60655800  0.60655800  1
  Se  Se1  1  0.00149800  0.00149800  0.00149800  1
  Se  Se2  1  0.50211500  0.50211500  0.50211500  1
loop_
_geom_bond_atom_site_label_1
_geom_bond_atom_site_label_2
_geom_bond_distance
_geom_bond_site_symmetry_2
Cd0 Se1 2.961583 1_665
Cd0 Se1 2.961583 1_566
Cd0 Se1 2.961583 1_656
Cd0 Te0 2.963364 1_556
Cd0 Te0 2.963364 1_655
Cd0 Te0 2.963364 1_565
Cd1 Te1 2.905230 1_445
Cd1 Te1 2.905230 1_454
Cd1 Te1 2.905230 1_544
Cd1 Se2 3.005049 1_554
Cd1 Se2 3.005049 1_455
Cd1 Se2 3.005049 1_545
Bi0 Se2 3.080966 1_655
Bi0 Se2 3.080966 1_565
Bi0 Se2 3.080966 1_556
Bi0 Te2 3.090118 1_566
Bi0 Te2 3.090118 1_656
Bi0 Te2 3.090118 1_665
Bi1 Se0 2.914226 1_554
Bi1 Se0 2.914226 1_545
Bi1 Se0 2.914226 1_455
Bi1 Se1 3.119182 1_655
Bi1 Se1 3.119182 1_565
Bi1 Se1 3.119182 1_556
