# generated using pymatgen
data_AgSNO3
_symmetry_space_group_name_H-M   'P 1'
_cell_length_a   10.77490600
_cell_length_b   10.77490572
_cell_length_c   5.24789400
_cell_angle_alpha   90.00000000
_cell_angle_beta   90.00000000
_cell_angle_gamma   120.00000085
_symmetry_Int_Tables_number   1
_chemical_formula_structural   AgSNO3
_chemical_formula_sum   'Ag6 S6 N6 O18'
_cell_volume   527.64600138
_cell_formula_units_Z   6
loop_
 _symmetry_equiv_pos_site_id
 _symmetry_equiv_pos_as_xyz
  1  'x, y, z'
loop_
 _atom_site_type_symbol
 _atom_site_label
 _atom_site_symmetry_multiplicity
 _atom_site_fract_x
 _atom_site_fract_y
 _atom_site_fract_z
 _atom_site_occupancy
  Ag  Ag0  1  0.56813300  0.64509000  0.50549800  1
  Ag  Ag1  1  0.07695600  0.43186700  0.50549800  1
  Ag  Ag2  1  0.35491000  0.92304400  0.50549800  1
  Ag  Ag3  1  0.92304400  0.35491000  0.00549800  1
  Ag  Ag4  1  0.64509000  0.56813300  0.00549800  1
  Ag  Ag5  1  0.43186700  0.07695600  0.00549800  1
  S  S0  1  0.70559500  0.20525800  0.51614100  1
  S  S1  1  0.49966400  0.29440500  0.51614100  1
  S  S2  1  0.79474200  0.50033600  0.51614100  1
  S  S3  1  0.50033600  0.79474200  0.01614100  1
  S  S4  1  0.20525800  0.70559500  0.01614100  1
  S  S5  1  0.29440500  0.49966400  0.01614100  1
  N  N0  1  0.54712800  0.17638000  0.61223300  1
  N  N1  1  0.62925200  0.45287200  0.61223300  1
  N  N2  1  0.82362000  0.37074800  0.61223300  1
  N  N3  1  0.37074800  0.82362000  0.11223300  1
  N  N4  1  0.17638000  0.54712800  0.11223300  1
  N  N5  1  0.45287200  0.62925200  0.11223300  1
  O  O0  1  0.70332400  0.19850300  0.23605500  1
  O  O1  1  0.49517900  0.29667600  0.23605500  1
  O  O2  1  0.80149700  0.50482100  0.23605500  1
  O  O3  1  0.50482100  0.80149700  0.73605500  1
  O  O4  1  0.19850300  0.70332400  0.73605500  1
  O  O5  1  0.29667600  0.49517900  0.73605500  1
  O  O6  1  0.73802900  0.10998600  0.65309700  1
  O  O7  1  0.37195700  0.26197100  0.65309700  1
  O  O8  1  0.89001400  0.62804300  0.65309700  1
  O  O9  1  0.62804300  0.89001400  0.15309700  1
  O  O10  1  0.10998600  0.73802900  0.15309700  1
  O  O11  1  0.26197100  0.37195700  0.15309700  1
  O  O12  1  0.81500500  0.77930200  0.04417600  1
  O  O13  1  0.96429600  0.18499500  0.04417600  1
  O  O14  1  0.22069800  0.03570400  0.04417600  1
  O  O15  1  0.03570400  0.22069800  0.54417600  1
  O  O16  1  0.77930200  0.81500500  0.54417600  1
  O  O17  1  0.18499500  0.96429600  0.54417600  1
loop_
_geom_bond_atom_site_label_1
_geom_bond_atom_site_label_2
_geom_bond_distance
_geom_bond_site_symmetry_2
Ag0 O16 2.098689 1_555
Ag0 N5 2.370420 1_555
Ag0 O3 2.432924 1_555
Ag0 N1 2.530014 1_555
Ag1 O15 2.098696 1_555
Ag1 N4 2.370422 1_555
Ag1 O5 2.432933 1_555
Ag1 N2 2.530004 1_455
Ag2 O17 2.098675 1_555
Ag2 N3 2.370425 1_555
Ag2 O4 2.432931 1_555
Ag2 N0 2.530006 1_565
Ag3 O13 2.098675 1_555
Ag3 N2 2.370425 1_554
Ag3 O0 2.432931 1_555
Ag3 N4 2.530006 1_655
Ag4 O12 2.098689 1_555
Ag4 N1 2.370420 1_554
Ag4 O2 2.432924 1_555
Ag4 N5 2.530014 1_555
Ag5 O14 2.098696 1_555
Ag5 N0 2.370422 1_554
Ag5 O1 2.432933 1_555
Ag5 N3 2.530003 1_545
N0 S0 1.653865 1_555
N0 S1 1.668373 1_555
N1 S1 1.653862 1_555
N1 S2 1.668383 1_555
N2 S2 1.653855 1_555
N2 S0 1.668380 1_555
N3 S3 1.653855 1_555
N3 S4 1.668380 1_555
N4 S4 1.653865 1_555
N4 S5 1.668373 1_555
N5 S5 1.653862 1_555
N5 S3 1.668383 1_555
O0 S0 1.471261 1_555
O1 S1 1.471261 1_555
O2 S2 1.471261 1_555
O3 S3 1.471261 1_556
O4 S4 1.471261 1_556
O5 S5 1.471261 1_556
O6 S0 1.432220 1_555
O7 S1 1.432229 1_555
O8 S2 1.432227 1_555
O9 S3 1.432227 1_555
O10 S4 1.432220 1_555
O11 S5 1.432229 1_555
