# generated using pymatgen
data_La4Al6O15
_symmetry_space_group_name_H-M   'P 1'
_cell_length_a   6.96468759
_cell_length_b   6.96468759
_cell_length_c   21.22585307
_cell_angle_alpha   86.98343271
_cell_angle_beta   86.98343271
_cell_angle_gamma   42.60128320
_symmetry_Int_Tables_number   1
_chemical_formula_structural   La4Al6O15
_chemical_formula_sum   'La8 Al12 O30'
_cell_volume   695.81569903
_cell_formula_units_Z   2
loop_
 _symmetry_equiv_pos_site_id
 _symmetry_equiv_pos_as_xyz
  1  'x, y, z'
loop_
 _atom_site_type_symbol
 _atom_site_label
 _atom_site_symmetry_multiplicity
 _atom_site_fract_x
 _atom_site_fract_y
 _atom_site_fract_z
 _atom_site_occupancy
  La  La0  1  0.67048000  0.05282700  0.79884500  1
  La  La1  1  0.64353000  0.06770000  0.60193600  1
  La  La2  1  0.05282700  0.67048000  0.29884500  1
  La  La3  1  0.06770000  0.64353000  0.10193600  1
  La  La4  1  0.93230000  0.35647000  0.89806400  1
  La  La5  1  0.94717300  0.32952000  0.70115500  1
  La  La6  1  0.35647000  0.93230000  0.39806400  1
  La  La7  1  0.32952000  0.94717300  0.20115500  1
  Al  Al0  1  0.20385500  0.62360400  0.91413300  1
  Al  Al1  1  0.19054600  0.64963100  0.69468600  1
  Al  Al2  1  0.65066500  0.02052200  0.97373200  1
  Al  Al3  1  0.62360400  0.20385500  0.41413300  1
  Al  Al4  1  0.64963100  0.19054600  0.19468600  1
  Al  Al5  1  0.02052200  0.65066500  0.47373200  1
  Al  Al6  1  0.97947800  0.34933500  0.52626800  1
  Al  Al7  1  0.35036900  0.80945400  0.80531400  1
  Al  Al8  1  0.37639600  0.79614500  0.58586700  1
  Al  Al9  1  0.34933500  0.97947800  0.02626800  1
  Al  Al10  1  0.80945400  0.35036900  0.30531400  1
  Al  Al11  1  0.79614500  0.37639600  0.08586700  1
  O  O0  1  0.13040200  0.80842100  0.62018600  1
  O  O1  1  0.55807200  0.27855000  0.91939800  1
  O  O2  1  0.54014600  0.30785200  0.69750200  1
  O  O3  1  0.01933000  0.74347500  0.98778800  1
  O  O4  1  0.80842100  0.13040200  0.12018600  1
  O  O5  1  0.27855000  0.55807200  0.41939800  1
  O  O6  1  0.01330100  0.62021100  0.86265800  1
  O  O7  1  0.30785200  0.54014600  0.19750200  1
  O  O8  1  0.74347500  0.01933000  0.48778800  1
  O  O9  1  0.91398700  0.68584700  0.70760900  1
  O  O10  1  0.10299100  0.48575900  0.55083800  1
  O  O11  1  0.51424100  0.89700900  0.94916200  1
  O  O12  1  0.62021100  0.01330100  0.36265800  1
  O  O13  1  0.68584700  0.91398700  0.20760900  1
  O  O14  1  0.31415300  0.08601300  0.79239100  1
  O  O15  1  0.37978900  0.98669900  0.63734200  1
  O  O16  1  0.48575900  0.10299100  0.05083800  1
  O  O17  1  0.89700900  0.51424100  0.44916200  1
  O  O18  1  0.08601300  0.31415300  0.29239100  1
  O  O19  1  0.25652500  0.98067000  0.51221200  1
  O  O20  1  0.69214800  0.45985400  0.80249800  1
  O  O21  1  0.98669900  0.37978900  0.13734200  1
  O  O22  1  0.72145000  0.44192800  0.58060200  1
  O  O23  1  0.19157900  0.86959800  0.87981400  1
  O  O24  1  0.12269800  0.87730200  0.75000000  1
  O  O25  1  0.98067000  0.25652500  0.01221200  1
  O  O26  1  0.45985400  0.69214800  0.30249800  1
  O  O27  1  0.44192800  0.72145000  0.08060200  1
  O  O28  1  0.86959800  0.19157900  0.37981400  1
  O  O29  1  0.87730200  0.12269800  0.25000000  1
loop_
_geom_bond_atom_site_label_1
_geom_bond_atom_site_label_2
_geom_bond_distance
_geom_bond_site_symmetry_2
La0 O14 2.327891 1_555
La0 O6 2.435954 1_645
La0 O2 2.456783 1_555
La0 O24 2.571102 1_645
La0 O9 2.636867 1_545
La0 O1 2.834201 1_555
La0 O20 2.952818 1_555
La1 O15 2.364908 1_545
La1 O2 2.420968 1_555
La1 O0 2.441182 1_645
La1 O8 2.455930 1_555
La1 O10 2.790564 1_555
La1 O9 2.845001 1_545
La1 O10 2.974440 1_645
La1 O22 3.037270 1_555
La2 O18 2.327891 1_555
La2 O12 2.435954 1_465
La2 O7 2.456783 1_555
La2 O29 2.571102 1_465
La2 O13 2.636867 1_455
La2 O5 2.834201 1_555
La2 O26 2.952818 1_555
La3 O21 2.364908 1_455
La3 O7 2.420968 1_555
La3 O4 2.441182 1_465
La3 O3 2.455930 1_554
La3 O16 2.790564 1_555
La3 O13 2.845001 1_455
La3 O16 2.974440 1_465
La3 O27 3.037270 1_555
La4 O6 2.364908 1_655
La4 O20 2.420968 1_555
La4 O23 2.441182 1_645
La4 O25 2.455930 1_556
La4 O11 2.790564 1_555
La4 O14 2.845001 1_655
La4 O11 2.974440 1_645
La4 O1 3.037270 1_555
La5 O9 2.327891 1_555
La5 O15 2.435954 1_645
La5 O20 2.456783 1_555
La5 O24 2.571102 1_645
La5 O14 2.636867 1_655
La5 O22 2.834201 1_555
La5 O2 2.952818 1_555
La6 O12 2.364908 1_565
La6 O26 2.420968 1_555
La6 O28 2.441182 1_465
La6 O19 2.455930 1_555
La6 O17 2.790564 1_555
La6 O18 2.845001 1_565
La6 O17 2.974440 1_465
La6 O5 3.037270 1_555
La7 O13 2.327891 1_555
La7 O21 2.435954 1_465
La7 O26 2.456783 1_555
La7 O29 2.571102 1_465
La7 O18 2.636867 1_565
La7 O27 2.834201 1_555
La7 O7 2.952818 1_555
Al0 O23 1.769973 1_555
Al0 O3 1.771777 1_555
Al0 O1 1.773893 1_555
Al0 O6 1.776841 1_555
Al1 O2 1.751046 1_555
Al1 O9 1.756515 1_455
Al1 O0 1.761474 1_555
Al1 O24 1.774982 1_555
Al2 O1 1.769038 1_555
Al2 O3 1.769550 1_645
Al2 O11 1.793712 1_545
Al2 O16 1.804865 1_556
Al3 O28 1.769973 1_555
Al3 O8 1.771777 1_555
Al3 O5 1.773893 1_555
Al3 O12 1.776841 1_555
Al4 O7 1.751046 1_555
Al4 O13 1.756515 1_545
Al4 O4 1.761474 1_555
Al4 O29 1.774982 1_555
Al5 O5 1.769038 1_555
Al5 O8 1.769550 1_465
Al5 O17 1.793712 1_455
Al5 O10 1.804865 1_555
Al6 O22 1.769038 1_555
Al6 O19 1.769550 1_645
Al6 O10 1.793712 1_655
Al6 O17 1.804865 1_555
Al7 O20 1.751046 1_555
Al7 O14 1.756515 1_565
Al7 O23 1.761474 1_555
Al7 O24 1.774982 1_555
Al8 O0 1.769973 1_555
Al8 O19 1.771777 1_555
Al8 O22 1.773893 1_555
Al8 O15 1.776841 1_555
Al9 O27 1.769038 1_555
Al9 O25 1.769550 1_465
Al9 O16 1.793712 1_565
Al9 O11 1.804865 1_554
Al10 O26 1.751046 1_555
Al10 O18 1.756515 1_655
Al10 O28 1.761474 1_555
Al10 O29 1.774982 1_555
Al11 O4 1.769973 1_555
Al11 O25 1.771777 1_555
Al11 O27 1.773893 1_555
Al11 O21 1.776841 1_555
