# generated using pymatgen
data_U2MnAl3
_symmetry_space_group_name_H-M   'P 1'
_cell_length_a   5.46082071
_cell_length_b   5.46082071
_cell_length_c   5.46082096
_cell_angle_alpha   55.11746293
_cell_angle_beta   55.11746293
_cell_angle_gamma   55.11745715
_symmetry_Int_Tables_number   1
_chemical_formula_structural   U2MnAl3
_chemical_formula_sum   'U2 Mn1 Al3'
_cell_volume   102.07384159
_cell_formula_units_Z   1
loop_
 _symmetry_equiv_pos_site_id
 _symmetry_equiv_pos_as_xyz
  1  'x, y, z'
loop_
 _atom_site_type_symbol
 _atom_site_label
 _atom_site_symmetry_multiplicity
 _atom_site_fract_x
 _atom_site_fract_y
 _atom_site_fract_z
 _atom_site_occupancy
  U  U0  1  0.14260100  0.14260100  0.14260100  1
  U  U1  1  0.85739900  0.85739900  0.85739900  1
  Mn  Mn0  1  0.50000000  0.50000000  0.50000000  1
  Al  Al0  1  0.50000000  0.00000000  0.50000000  1
  Al  Al1  1  0.00000000  0.50000000  0.50000000  1
  Al  Al2  1  0.50000000  0.50000000  0.00000000  1
loop_
_geom_bond_atom_site_label_1
_geom_bond_atom_site_label_2
_geom_bond_distance
_geom_bond_site_symmetry_2
U0 U1 2.992519 1_544
U0 U1 2.992519 1_454
U0 U1 2.992519 1_445
Mn0 U1 2.936315 1_545
Mn0 U1 2.936315 1_455
Mn0 U0 2.936315 1_655
Mn0 U0 2.936315 1_565
Mn0 U1 2.936315 1_554
Mn0 U0 2.936315 1_556
Al0 Al1 2.526490 1_555
Al0 Al1 2.526490 1_645
Al0 Al2 2.526490 1_555
Al0 Al2 2.526490 1_546
Al0 Mn0 2.730410 1_555
Al0 Mn0 2.730410 1_545
Al0 U1 3.017401 1_545
Al0 U0 3.017401 1_555
Al0 U0 3.206736 1_655
Al0 U1 3.206736 1_445
Al0 U0 3.206736 1_556
Al0 U1 3.206736 1_544
Al1 Al2 2.526490 1_555
Al1 Al2 2.526490 1_456
Al1 Mn0 2.730410 1_455
Al1 Mn0 2.730410 1_555
Al1 U1 3.017401 1_455
Al1 U0 3.017401 1_555
Al1 U0 3.206736 1_565
Al1 U1 3.206736 1_445
Al1 U0 3.206736 1_556
Al1 U1 3.206736 1_454
Al2 Mn0 2.730410 1_554
Al2 Mn0 2.730410 1_555
Al2 U1 3.017402 1_554
Al2 U0 3.017402 1_555
Al2 U0 3.206736 1_655
Al2 U0 3.206736 1_565
Al2 U1 3.206736 1_454
Al2 U1 3.206736 1_544
