# generated using pymatgen
data_Gd3Ge13Ru4
_symmetry_space_group_name_H-M   'P 1'
_cell_length_a   9.02390243
_cell_length_b   9.02390243
_cell_length_c   9.02390243
_cell_angle_alpha   90.00000000
_cell_angle_beta   90.00000000
_cell_angle_gamma   90.00000000
_symmetry_Int_Tables_number   1
_chemical_formula_structural   Gd3Ge13Ru4
_chemical_formula_sum   'Gd6 Ge26 Ru8'
_cell_volume   734.82372995
_cell_formula_units_Z   2
loop_
 _symmetry_equiv_pos_site_id
 _symmetry_equiv_pos_as_xyz
  1  'x, y, z'
loop_
 _atom_site_type_symbol
 _atom_site_label
 _atom_site_symmetry_multiplicity
 _atom_site_fract_x
 _atom_site_fract_y
 _atom_site_fract_z
 _atom_site_occupancy
  Gd  Gd0  1  -0.00000000  0.50000000  0.75000000  1
  Gd  Gd1  1  0.50000000  0.25000000  -0.00000000  1
  Gd  Gd2  1  0.75000000  0.00000000  0.50000000  1
  Gd  Gd3  1  -0.00000000  0.50000000  0.25000000  1
  Gd  Gd4  1  0.50000000  0.75000000  -0.00000000  1
  Gd  Gd5  1  0.25000000  0.00000000  0.50000000  1
  Ge  Ge0  1  0.50000000  0.50000000  0.50000000  1
  Ge  Ge1  1  -0.00000000  0.00000000  -0.00000000  1
  Ge  Ge2  1  0.79654882  0.35379265  0.50000000  1
  Ge  Ge3  1  0.64620735  0.50000000  0.79654882  1
  Ge  Ge4  1  0.50000000  0.20345118  0.64620735  1
  Ge  Ge5  1  0.20345118  0.64620735  0.50000000  1
  Ge  Ge6  1  0.35379265  0.50000000  0.20345118  1
  Ge  Ge7  1  0.50000000  0.79654882  0.35379265  1
  Ge  Ge8  1  0.79654882  0.64620735  0.50000000  1
  Ge  Ge9  1  0.64620735  0.50000000  0.20345118  1
  Ge  Ge10  1  0.20345118  0.35379265  0.50000000  1
  Ge  Ge11  1  0.35379265  0.50000000  0.79654882  1
  Ge  Ge12  1  0.50000000  0.79654882  0.64620735  1
  Ge  Ge13  1  0.50000000  0.20345118  0.35379265  1
  Ge  Ge14  1  0.29654882  0.00000000  0.85379265  1
  Ge  Ge15  1  0.14620735  0.29654882  -0.00000000  1
  Ge  Ge16  1  -0.00000000  0.14620735  0.70345118  1
  Ge  Ge17  1  0.70345118  0.00000000  0.14620735  1
  Ge  Ge18  1  0.85379265  0.70345118  -0.00000000  1
  Ge  Ge19  1  -0.00000000  0.85379265  0.29654882  1
  Ge  Ge20  1  0.29654882  0.00000000  0.14620735  1
  Ge  Ge21  1  0.14620735  0.70345118  -0.00000000  1
  Ge  Ge22  1  0.70345118  0.00000000  0.85379265  1
  Ge  Ge23  1  0.85379265  0.29654882  -0.00000000  1
  Ge  Ge24  1  -0.00000000  0.14620735  0.29654882  1
  Ge  Ge25  1  -0.00000000  0.85379265  0.70345118  1
  Ru  Ru0  1  0.75000000  0.25000000  0.75000000  1
  Ru  Ru1  1  0.25000000  0.75000000  0.25000000  1
  Ru  Ru2  1  0.75000000  0.75000000  0.25000000  1
  Ru  Ru3  1  0.25000000  0.25000000  0.75000000  1
  Ru  Ru4  1  0.25000000  0.75000000  0.75000000  1
  Ru  Ru5  1  0.75000000  0.25000000  0.25000000  1
  Ru  Ru6  1  0.25000000  0.25000000  0.25000000  1
  Ru  Ru7  1  0.75000000  0.75000000  0.75000000  1
loop_
_geom_bond_atom_site_label_1
_geom_bond_atom_site_label_2
_geom_bond_distance
_geom_bond_site_symmetry_2
Gd0 Ru4 3.190431 1_555
Gd0 Ru3 3.190431 1_555
Gd0 Ru0 3.190431 1_455
Gd0 Ru7 3.190431 1_455
Gd0 Ge18 3.193862 1_456
Gd0 Ge8 3.193862 1_455
Gd0 Ge10 3.193862 1_555
Gd0 Ge21 3.193862 1_556
Gd0 Ge2 3.193862 1_455
Gd0 Ge15 3.193862 1_556
Gd0 Ge5 3.193862 1_555
Gd0 Ge23 3.193862 1_456
Gd0 Ge16 3.220105 1_555
Gd0 Ge11 3.220105 1_555
Gd0 Ge25 3.220105 1_555
Gd0 Ge3 3.220105 1_455
Gd1 Ru6 3.190431 1_555
Gd1 Ru0 3.190431 1_554
Gd1 Ru3 3.190431 1_554
Gd1 Ru5 3.190431 1_555
Gd1 Ge22 3.193862 1_554
Gd1 Ge3 3.193862 1_554
Gd1 Ge9 3.193862 1_555
Gd1 Ge11 3.193862 1_554
Gd1 Ge17 3.193862 1_555
Gd1 Ge6 3.193862 1_555
Gd1 Ge14 3.193862 1_554
Gd1 Ge20 3.193862 1_555
Gd1 Ge15 3.220105 1_555
Gd1 Ge13 3.220105 1_555
Gd1 Ge4 3.220105 1_554
Gd1 Ge23 3.220105 1_555
Gd2 Ru2 3.190431 1_545
Gd2 Ru7 3.190431 1_545
Gd2 Ru0 3.190431 1_555
Gd2 Ru5 3.190431 1_555
Gd2 Ge25 3.193862 1_645
Gd2 Ge12 3.193862 1_545
Gd2 Ge13 3.193862 1_555
Gd2 Ge16 3.193862 1_655
Gd2 Ge19 3.193862 1_645
Gd2 Ge7 3.193862 1_545
Gd2 Ge24 3.193862 1_655
Gd2 Ge4 3.193862 1_555
Gd2 Ge17 3.220105 1_555
Gd2 Ge2 3.220105 1_555
Gd2 Ge8 3.220105 1_545
Gd2 Ge22 3.220105 1_555
Gd3 Ru5 3.190431 1_455
Gd3 Ru6 3.190431 1_555
Gd3 Ru1 3.190431 1_555
Gd3 Ru2 3.190431 1_455
Gd3 Ge18 3.193862 1_455
Gd3 Ge8 3.193862 1_455
Gd3 Ge10 3.193862 1_555
Gd3 Ge2 3.193862 1_455
Gd3 Ge15 3.193862 1_555
Gd3 Ge5 3.193862 1_555
Gd3 Ge21 3.193862 1_555
Gd3 Ge23 3.193862 1_455
Gd3 Ge6 3.220105 1_555
Gd3 Ge24 3.220105 1_555
Gd3 Ge9 3.220105 1_455
Gd3 Ge19 3.220105 1_555
Gd4 Ru1 3.190431 1_555
Gd4 Ru2 3.190431 1_555
Gd4 Ru7 3.190431 1_554
Gd4 Ru4 3.190431 1_554
Gd4 Ge3 3.193862 1_554
Gd4 Ge22 3.193862 1_564
Gd4 Ge9 3.193862 1_555
Gd4 Ge11 3.193862 1_554
Gd4 Ge14 3.193862 1_564
Gd4 Ge20 3.193862 1_565
Gd4 Ge17 3.193862 1_565
Gd4 Ge6 3.193862 1_555
Gd4 Ge7 3.220105 1_555
Gd4 Ge21 3.220105 1_555
Gd4 Ge12 3.220105 1_554
Gd4 Ge18 3.220105 1_555
Gd5 Ru3 3.190431 1_555
Gd5 Ru6 3.190431 1_555
Gd5 Ru1 3.190431 1_545
Gd5 Ru4 3.190431 1_545
Gd5 Ge25 3.193862 1_545
Gd5 Ge12 3.193862 1_545
Gd5 Ge13 3.193862 1_555
Gd5 Ge24 3.193862 1_555
Gd5 Ge19 3.193862 1_545
Gd5 Ge7 3.193862 1_545
Gd5 Ge16 3.193862 1_555
Gd5 Ge4 3.193862 1_555
Gd5 Ge10 3.220105 1_555
Gd5 Ge20 3.220105 1_555
Gd5 Ge14 3.220105 1_555
Gd5 Ge5 3.220105 1_545
Ge0 Ge4 2.983595 1_555
Ge0 Ge5 2.983595 1_555
Ge0 Ge9 2.983595 1_555
Ge0 Ge6 2.983595 1_555
Ge0 Ge13 2.983595 1_555
Ge0 Ge10 2.983595 1_555
Ge0 Ge3 2.983595 1_555
Ge0 Ge8 2.983595 1_555
Ge0 Ge7 2.983595 1_555
Ge0 Ge12 2.983595 1_555
Ge0 Ge2 2.983595 1_555
Ge0 Ge11 2.983595 1_555
Ge1 Ge14 2.983595 1_554
Ge1 Ge19 2.983595 1_545
Ge1 Ge23 2.983595 1_455
Ge1 Ge15 2.983595 1_555
Ge1 Ge20 2.983595 1_555
Ge1 Ge18 2.983595 1_445
Ge1 Ge25 2.983595 1_544
Ge1 Ge24 2.983595 1_555
Ge1 Ge16 2.983595 1_554
Ge1 Ge21 2.983595 1_545
Ge1 Ge17 2.983595 1_455
Ge1 Ge22 2.983595 1_454
Ge2 Ru5 2.478531 1_555
Ge2 Ru0 2.478531 1_555
Ge3 Ru0 2.478531 1_555
Ge3 Ru7 2.478531 1_555
Ge4 Ru3 2.478531 1_555
Ge4 Ru0 2.478531 1_555
Ge5 Ru4 2.478531 1_555
Ge5 Ru1 2.478531 1_555
Ge6 Ru6 2.478531 1_555
Ge6 Ru1 2.478531 1_555
Ge7 Ru2 2.478531 1_555
Ge7 Ru1 2.478531 1_555
Ge8 Ru2 2.478531 1_555
Ge8 Ru7 2.478531 1_555
Ge9 Ru5 2.478531 1_555
Ge9 Ru2 2.478531 1_555
Ge10 Ru3 2.478531 1_555
Ge10 Ru6 2.478531 1_555
Ge11 Ru3 2.478531 1_555
Ge11 Ru4 2.478531 1_555
Ge12 Ru7 2.478531 1_555
Ge12 Ru4 2.478531 1_555
Ge13 Ru5 2.478531 1_555
Ge13 Ru6 2.478531 1_555
Ge14 Ru3 2.478531 1_555
Ge14 Ru4 2.478531 1_545
Ge15 Ru6 2.478531 1_555
Ge15 Ru3 2.478531 1_554
Ge16 Ru3 2.478531 1_555
Ge16 Ru0 2.478531 1_455
Ge17 Ru5 2.478531 1_555
Ge17 Ru2 2.478531 1_545
Ge18 Ru2 2.478531 1_555
Ge18 Ru7 2.478531 1_554
Ge19 Ru2 2.478531 1_455
Ge19 Ru1 2.478531 1_555
Ge20 Ru6 2.478531 1_555
Ge20 Ru1 2.478531 1_545
Ge21 Ru4 2.478531 1_554
Ge21 Ru1 2.478531 1_555
Ge22 Ru0 2.478531 1_555
Ge22 Ru7 2.478531 1_545
Ge23 Ru5 2.478531 1_555
Ge23 Ru0 2.478531 1_554
Ge24 Ru5 2.478531 1_455
Ge24 Ru6 2.478531 1_555
Ge25 Ru4 2.478531 1_555
Ge25 Ru7 2.478531 1_455
