# generated using pymatgen
data_Ca7MgCo7CuO20
_symmetry_space_group_name_H-M   'P 1'
_cell_length_a   10.65636219
_cell_length_b   11.02252444
_cell_length_c   16.66030023
_cell_angle_alpha   109.19966415
_cell_angle_beta   108.98143116
_cell_angle_gamma   90.32132716
_symmetry_Int_Tables_number   1
_chemical_formula_structural   Ca7MgCo7CuO20
_chemical_formula_sum   'Ca28 Mg4 Co28 Cu4 O80'
_cell_volume   1733.64030928
_cell_formula_units_Z   4
loop_
 _symmetry_equiv_pos_site_id
 _symmetry_equiv_pos_as_xyz
  1  'x, y, z'
loop_
 _atom_site_type_symbol
 _atom_site_label
 _atom_site_symmetry_multiplicity
 _atom_site_fract_x
 _atom_site_fract_y
 _atom_site_fract_z
 _atom_site_occupancy
  Ca  Ca0  1  0.30212717  0.06237869  0.60964761  1
  Ca  Ca1  1  0.30582151  0.56182665  0.60821417  1
  Ca  Ca2  1  0.80785936  0.06839811  0.60866206  1
  Ca  Ca3  1  0.80469521  0.56542109  0.10687957  1
  Ca  Ca4  1  0.80518678  0.56381572  0.60850371  1
  Ca  Ca5  1  0.19475287  0.43108899  0.38967874  1
  Ca  Ca6  1  0.20487632  0.43868738  0.89177907  1
  Ca  Ca7  1  0.19376470  0.93368822  0.38685880  1
  Ca  Ca8  1  0.20017385  0.93660492  0.89641706  1
  Ca  Ca9  1  0.69617816  0.43567408  0.39170621  1
  Ca  Ca10  1  0.69250225  0.44182066  0.89004433  1
  Ca  Ca11  1  0.69522463  0.93506853  0.38932805  1
  Ca  Ca12  1  0.69493208  0.93694971  0.89428708  1
  Ca  Ca13  1  0.05105433  0.28919979  0.10993266  1
  Ca  Ca14  1  0.05903536  0.29653132  0.60831298  1
  Ca  Ca15  1  0.05673791  0.79051549  0.60808854  1
  Ca  Ca16  1  0.55467217  0.29092248  0.10878428  1
  Ca  Ca17  1  0.55649775  0.30305075  0.61115600  1
  Ca  Ca18  1  0.55708413  0.79138910  0.10655645  1
  Ca  Ca19  1  0.54948858  0.79020177  0.60869638  1
  Ca  Ca20  1  0.44724400  0.20392033  0.38650451  1
  Ca  Ca21  1  0.44552731  0.20701394  0.88892065  1
  Ca  Ca22  1  0.44300452  0.70324425  0.38525571  1
  Ca  Ca23  1  0.44727734  0.69798811  0.88914407  1
  Ca  Ca24  1  0.94740736  0.20329197  0.38842281  1
  Ca  Ca25  1  0.94450599  0.20659737  0.89163805  1
  Ca  Ca26  1  0.94389073  0.70657664  0.38937157  1
  Ca  Ca27  1  0.95104186  0.70686351  0.89816236  1
  Mg  Mg0  1  0.28542695  0.06894332  0.11355439  1
  Mg  Mg1  1  0.29784803  0.56728604  0.10546170  1
  Mg  Mg2  1  0.78589740  0.07336700  0.11247018  1
  Mg  Mg3  1  0.02874430  0.78791405  0.11409456  1
  Co  Co0  1  0.00840905  0.99928184  0.00557434  1
  Co  Co1  1  0.00448653  0.99965162  0.49878189  1
  Co  Co2  1  0.01088330  0.50440379  0.00518090  1
  Co  Co3  1  0.00503487  0.50026025  0.50017445  1
  Co  Co4  1  0.50534517  0.99675647  0.99973653  1
  Co  Co5  1  0.50586416  0.00178875  0.50136217  1
  Co  Co6  1  0.50907377  0.50331663  0.00347922  1
  Co  Co7  1  0.50373012  0.49992572  0.49904928  1
  Co  Co8  1  0.25886084  0.25209701  0.00501194  1
  Co  Co9  1  0.25589473  0.24792901  0.50003632  1
  Co  Co10  1  0.25873336  0.75254347  0.00512657  1
  Co  Co11  1  0.25277927  0.74878588  0.49845925  1
  Co  Co12  1  0.75665965  0.24904404  0.00090472  1
  Co  Co13  1  0.75510994  0.24959667  0.49842417  1
  Co  Co14  1  0.76154899  0.75600223  0.00369372  1
  Co  Co15  1  0.75348168  0.75099873  0.50012161  1
  Co  Co16  1  0.09866537  0.08380496  0.24045773  1
  Co  Co17  1  0.10863373  0.09261471  0.75230991  1
  Co  Co18  1  0.10907052  0.59662654  0.24942962  1
  Co  Co19  1  0.60176375  0.09223906  0.24663119  1
  Co  Co20  1  0.61348899  0.09472687  0.75033520  1
  Co  Co21  1  0.59963746  0.59063647  0.24297444  1
  Co  Co22  1  0.35616393  0.40164039  0.24412993  1
  Co  Co23  1  0.34476454  0.89597804  0.23792669  1
  Co  Co24  1  0.85658120  0.40113476  0.24869422  1
  Co  Co25  1  0.86524078  0.40864939  0.75119713  1
  Co  Co26  1  0.85449011  0.90823539  0.24401812  1
  Co  Co27  1  0.86136200  0.90511682  0.75491971  1
  Cu  Cu0  1  0.10540375  0.59928306  0.75279869  1
  Cu  Cu1  1  0.61470339  0.60754650  0.75509374  1
  Cu  Cu2  1  0.35894091  0.40715843  0.75060137  1
  Cu  Cu3  1  0.35601027  0.90075996  0.74999819  1
  O  O0  1  0.12408286  0.11848758  0.48476338  1
  O  O1  1  0.11787173  0.11479442  0.98506230  1
  O  O2  1  0.11981735  0.61783196  0.48039508  1
  O  O3  1  0.13124184  0.61554180  0.99330878  1
  O  O4  1  0.62089203  0.11843664  0.48106401  1
  O  O5  1  0.61989190  0.11857845  0.98767414  1
  O  O6  1  0.62093914  0.62347253  0.48766836  1
  O  O7  1  0.62349219  0.62224423  0.98519240  1
  O  O8  1  0.15422734  0.38677113  0.02968344  1
  O  O9  1  0.13425968  0.37898293  0.50963498  1
  O  O10  1  0.15274233  0.89199868  0.02739978  1
  O  O11  1  0.13426077  0.87628673  0.51076322  1
  O  O12  1  0.63749189  0.37842078  0.01448203  1
  O  O13  1  0.63666489  0.37813819  0.51226045  1
  O  O14  1  0.65748528  0.89493271  0.02830547  1
  O  O15  1  0.62879104  0.88373887  0.50883695  1
  O  O16  1  0.37677015  0.11147989  0.48627004  1
  O  O17  1  0.37085193  0.12605011  0.98525098  1
  O  O18  1  0.36753698  0.61677252  0.48139615  1
  O  O19  1  0.37630153  0.61985065  0.98789613  1
  O  O20  1  0.87107355  0.11809989  0.48321840  1
  O  O21  1  0.87141153  0.11344188  0.98984862  1
  O  O22  1  0.87084902  0.61572563  0.48436688  1
  O  O23  1  0.87457076  0.62040087  0.98784434  1
  O  O24  1  0.39134761  0.40434760  0.02786588  1
  O  O25  1  0.38172731  0.37484244  0.50459619  1
  O  O26  1  0.39123409  0.89756607  0.02364742  1
  O  O27  1  0.38464961  0.88188235  0.51476730  1
  O  O28  1  0.89569403  0.38738985  0.01681527  1
  O  O29  1  0.88424684  0.38083367  0.51116743  1
  O  O30  1  0.90809197  0.88741733  0.03486065  1
  O  O31  1  0.88155343  0.88155963  0.51039957  1
  O  O32  1  0.10339841  0.10236832  0.13687939  1
  O  O33  1  0.08780290  0.10375972  0.64272094  1
  O  O34  1  0.08879899  0.62323196  0.14406075  1
  O  O35  1  0.08312666  0.59306201  0.63390028  1
  O  O36  1  0.61083204  0.10984999  0.14555498  1
  O  O37  1  0.59514456  0.10779227  0.64057734  1
  O  O38  1  0.59775030  0.60159363  0.13675159  1
  O  O39  1  0.57595677  0.59338093  0.63497340  1
  O  O40  1  0.44622225  0.40133705  0.35639180  1
  O  O41  1  0.44511438  0.40807808  0.87151105  1
  O  O42  1  0.43087037  0.89514681  0.35065270  1
  O  O43  1  0.44687640  0.89662709  0.86677677  1
  O  O44  1  0.94318935  0.39714631  0.36041267  1
  O  O45  1  0.95990631  0.39697056  0.86110115  1
  O  O46  1  0.94544932  0.89720991  0.35301517  1
  O  O47  1  0.94313824  0.90076776  0.87036561  1
  O  O48  1  0.34272754  0.26436270  0.14311636  1
  O  O49  1  0.33475296  0.28750318  0.63367925  1
  O  O50  1  0.34370513  0.76742174  0.13530774  1
  O  O51  1  0.32402562  0.78443818  0.63014702  1
  O  O52  1  0.83839493  0.27259359  0.14266467  1
  O  O53  1  0.83857135  0.29101615  0.63688250  1
  O  O54  1  0.84197253  0.78357580  0.13665712  1
  O  O55  1  0.83973737  0.78838973  0.64559868  1
  O  O56  1  0.18720451  0.19915624  0.35268140  1
  O  O57  1  0.19863400  0.21716380  0.86206233  1
  O  O58  1  0.19481718  0.71333380  0.36194817  1
  O  O59  1  0.19488165  0.71481761  0.87525201  1
  O  O60  1  0.68416398  0.20970724  0.36036403  1
  O  O61  1  0.70318639  0.21751714  0.86034279  1
  O  O62  1  0.68117463  0.71055544  0.35379304  1
  O  O63  1  0.70288382  0.72111477  0.87495937  1
  O  O64  1  0.41198089  0.05912510  0.23401674  1
  O  O65  1  0.43571644  0.06615715  0.75053487  1
  O  O66  1  0.41043720  0.56202739  0.23176174  1
  O  O67  1  0.43411995  0.56816765  0.75021955  1
  O  O68  1  0.91289797  0.06884724  0.23524896  1
  O  O69  1  0.92562594  0.06755812  0.75174061  1
  O  O70  1  0.92723253  0.56250112  0.24728583  1
  O  O71  1  0.92300944  0.57368559  0.75340019  1
  O  O72  1  0.17669581  0.43441156  0.24795934  1
  O  O73  1  0.18193091  0.43740302  0.75042419  1
  O  O74  1  0.15743769  0.91612896  0.23334954  1
  O  O75  1  0.16654272  0.92885868  0.75261676  1
  O  O76  1  0.67567649  0.43334450  0.24911757  1
  O  O77  1  0.69150659  0.43581625  0.75207380  1
  O  O78  1  0.67500735  0.93222049  0.24777691  1
  O  O79  1  0.67841163  0.93166621  0.75149800  1
loop_
_geom_bond_atom_site_label_1
_geom_bond_atom_site_label_2
_geom_bond_distance
_geom_bond_site_symmetry_2
Ca0 O65 2.301979 1_555
Ca0 O49 2.384333 1_555
Ca0 O11 2.437336 1_545
Ca0 O27 2.466918 1_545
Ca0 O33 2.528434 1_555
Ca0 O0 2.569576 1_555
Ca0 O16 2.634616 1_555
Ca1 O67 2.292894 1_555
Ca1 O51 2.356019 1_555
Ca1 O9 2.435144 1_555
Ca1 O25 2.543464 1_555
Ca1 O35 2.550735 1_555
Ca1 O2 2.641445 1_555
Ca1 O18 2.646591 1_555
Ca1 O39 2.767369 1_555
Ca2 O69 2.307770 1_555
Ca2 O53 2.341249 1_555
Ca2 O31 2.484953 1_545
Ca2 O15 2.493114 1_545
Ca2 O37 2.500549 1_555
Ca2 O20 2.605085 1_555
Ca2 O4 2.611740 1_555
Ca2 O33 2.848435 1_655
Ca3 O70 2.289322 1_555
Ca3 O54 2.294027 1_555
Ca3 O38 2.421410 1_555
Ca3 O12 2.424997 1_555
Ca3 O28 2.464529 1_555
Ca3 O7 2.556005 1_554
Ca3 O23 2.569180 1_554
Ca3 O34 2.907638 1_655
Ca4 O71 2.295602 1_555
Ca4 O55 2.341054 1_555
Ca4 O13 2.431443 1_555
Ca4 O29 2.482763 1_555
Ca4 O6 2.579542 1_555
Ca4 O22 2.609500 1_555
Ca4 O39 2.623531 1_555
Ca4 O35 2.853019 1_655
Ca5 O72 2.318298 1_555
Ca5 O56 2.418890 1_555
Ca5 O2 2.432324 1_555
Ca5 O18 2.446342 1_555
Ca5 O9 2.515617 1_555
Ca5 O25 2.516516 1_555
Ca5 O44 2.565662 1_455
Ca5 O40 2.907428 1_555
Ca6 O73 2.282437 1_555
Ca6 O57 2.322352 1_555
Ca6 O19 2.416988 1_555
Ca6 O3 2.447211 1_555
Ca6 O45 2.500266 1_455
Ca6 O24 2.621902 1_556
Ca6 O41 2.697942 1_555
Ca6 O8 2.750524 1_556
Ca7 O58 2.326386 1_555
Ca7 O74 2.399524 1_555
Ca7 O0 2.445549 1_565
Ca7 O16 2.471423 1_565
Ca7 O46 2.519922 1_455
Ca7 O11 2.601869 1_555
Ca7 O27 2.645463 1_555
Ca7 O42 2.786292 1_555
Ca8 O75 2.276390 1_555
Ca8 O59 2.349980 1_555
Ca8 O1 2.400429 1_565
Ca8 O17 2.456117 1_565
Ca8 O26 2.574077 1_556
Ca8 O10 2.584511 1_556
Ca8 O47 2.636026 1_455
Ca8 O43 2.839685 1_555
Ca9 O76 2.305193 1_555
Ca9 O60 2.364377 1_555
Ca9 O22 2.420897 1_555
Ca9 O6 2.481856 1_555
Ca9 O40 2.531215 1_555
Ca9 O13 2.549555 1_555
Ca9 O29 2.559916 1_555
Ca9 O44 2.853158 1_555
Ca10 O77 2.274261 1_555
Ca10 O61 2.367630 1_555
Ca10 O7 2.389549 1_555
Ca10 O23 2.466777 1_555
Ca10 O41 2.562704 1_555
Ca10 O12 2.620864 1_556
Ca10 O28 2.717018 1_556
Ca11 O78 2.286837 1_555
Ca11 O62 2.339149 1_555
Ca11 O4 2.412926 1_565
Ca11 O20 2.450239 1_565
Ca11 O15 2.537511 1_555
Ca11 O31 2.559154 1_555
Ca11 O42 2.676457 1_555
Ca11 O46 2.923376 1_555
Ca12 O63 2.299322 1_555
Ca12 O79 2.308661 1_555
Ca12 O21 2.414569 1_565
Ca12 O5 2.418011 1_565
Ca12 O43 2.541599 1_555
Ca12 O14 2.572302 1_556
Ca12 O47 2.811904 1_555
Ca12 O30 2.887388 1_556
Ca13 O72 2.279202 1_555
Ca13 O32 2.282913 1_555
Ca13 O28 2.402640 1_455
Ca13 O8 2.457978 1_555
Ca13 O52 2.516218 1_455
Ca13 O21 2.517559 1_454
Ca13 O1 2.622799 1_554
Ca14 O73 2.296496 1_555
Ca14 O33 2.373103 1_555
Ca14 O29 2.449439 1_455
Ca14 O9 2.450132 1_555
Ca14 O53 2.548438 1_455
Ca14 O20 2.601521 1_455
Ca14 O0 2.618261 1_555
Ca14 O49 2.836265 1_555
Ca15 O75 2.285718 1_555
Ca15 O35 2.354710 1_555
Ca15 O11 2.465020 1_555
Ca15 O31 2.501949 1_455
Ca15 O22 2.563908 1_455
Ca15 O55 2.586030 1_455
Ca15 O2 2.623353 1_555
Ca15 O51 2.754965 1_555
Ca16 O76 2.279354 1_555
Ca16 O36 2.301317 1_555
Ca16 O24 2.452814 1_555
Ca16 O12 2.463031 1_555
Ca16 O17 2.500593 1_554
Ca16 O48 2.541075 1_555
Ca16 O5 2.563007 1_554
Ca16 O52 2.910732 1_555
Ca17 O77 2.289688 1_555
Ca17 O37 2.369495 1_555
Ca17 O13 2.436008 1_555
Ca17 O25 2.456869 1_555
Ca17 O49 2.523586 1_555
Ca17 O16 2.632244 1_555
Ca17 O4 2.718749 1_555
Ca17 O53 2.905232 1_555
Ca18 O78 2.275302 1_555
Ca18 O38 2.319048 1_555
Ca18 O26 2.428906 1_555
Ca18 O14 2.453406 1_555
Ca18 O19 2.493537 1_554
Ca18 O50 2.500927 1_555
Ca18 O7 2.555639 1_554
Ca18 O54 2.918285 1_555
Ca19 O79 2.321376 1_555
Ca19 O39 2.351380 1_555
Ca19 O27 2.414023 1_555
Ca19 O51 2.544817 1_555
Ca19 O18 2.555111 1_555
Ca19 O15 2.564763 1_555
Ca19 O6 2.569052 1_555
Ca19 O55 2.952415 1_555
Ca20 O40 2.387814 1_555
Ca20 O64 2.418257 1_555
Ca20 O4 2.427623 1_555
Ca20 O16 2.506431 1_555
Ca20 O25 2.525485 1_555
Ca20 O13 2.590534 1_555
Ca20 O56 2.638609 1_555
Ca20 O60 2.701778 1_555
Ca21 O65 2.285617 1_555
Ca21 O41 2.327642 1_555
Ca21 O17 2.402125 1_555
Ca21 O5 2.489190 1_555
Ca21 O57 2.530850 1_555
Ca21 O12 2.589139 1_556
Ca21 O24 2.827526 1_556
Ca21 O61 2.943146 1_555
Ca22 O42 2.362198 1_555
Ca22 O66 2.425163 1_555
Ca22 O18 2.440131 1_555
Ca22 O6 2.486069 1_555
Ca22 O58 2.553743 1_555
Ca22 O15 2.593613 1_555
Ca22 O27 2.647959 1_555
Ca22 O62 2.759306 1_555
Ca23 O67 2.243342 1_555
Ca23 O43 2.338486 1_555
Ca23 O7 2.392778 1_555
Ca23 O19 2.398923 1_555
Ca23 O59 2.636459 1_555
Ca23 O26 2.803664 1_556
Ca23 O63 2.826780 1_555
Ca23 O14 2.891761 1_556
Ca24 O44 2.329983 1_555
Ca24 O68 2.395766 1_555
Ca24 O20 2.416672 1_555
Ca24 O0 2.456700 1_655
Ca24 O9 2.561620 1_655
Ca24 O29 2.596646 1_555
Ca24 O60 2.695120 1_555
Ca24 O56 2.803543 1_655
Ca25 O69 2.272369 1_555
Ca25 O45 2.332730 1_555
Ca25 O1 2.458845 1_655
Ca25 O61 2.464129 1_555
Ca25 O21 2.502679 1_555
Ca25 O28 2.564155 1_556
Ca25 O8 2.798318 1_656
Ca25 O57 2.914157 1_655
Ca26 O70 2.325512 1_555
Ca26 O46 2.371860 1_555
Ca26 O2 2.432695 1_655
Ca26 O22 2.438948 1_555
Ca26 O11 2.550502 1_655
Ca26 O31 2.560250 1_555
Ca26 O62 2.670203 1_555
Ca26 O58 2.859939 1_655
Ca27 O71 2.293172 1_555
Ca27 O47 2.327515 1_555
Ca27 O23 2.350465 1_555
Ca27 O3 2.510865 1_655
Ca27 O63 2.558687 1_555
Ca27 O30 2.657841 1_556
Ca27 O10 2.733218 1_656
Ca27 O59 2.751353 1_655
Mg0 O64 2.059625 1_555
Mg0 O48 2.084958 1_555
Mg0 O32 2.110364 1_555
Mg0 O10 2.161245 1_545
Mg0 O1 2.502283 1_554
Mg0 O26 2.518892 1_545
Mg1 O66 2.075860 1_555
Mg1 O50 2.112075 1_555
Mg1 O8 2.225297 1_555
Mg1 O24 2.284836 1_555
Mg1 O3 2.330786 1_554
Mg1 O34 2.538302 1_555
Mg1 O19 2.584044 1_554
Mg2 O68 2.070068 1_555
Mg2 O52 2.113037 1_555
Mg2 O36 2.115989 1_555
Mg2 O14 2.148186 1_545
Mg2 O5 2.449349 1_554
Mg2 O30 2.636393 1_545
Mg2 O21 2.645578 1_554
Mg3 O74 2.045592 1_555
Mg3 O34 2.086872 1_555
Mg3 O30 2.112472 1_455
Mg3 O54 2.145311 1_455
Mg3 O23 2.386673 1_454
Mg3 O10 2.731826 1_555
Co0 O30 1.903008 1_455
Co0 O1 1.904581 1_564
Co0 O21 1.942153 1_464
Co0 O10 1.958481 1_555
Co0 O32 2.003241 1_565
Co0 O47 2.025008 1_454
Co1 O31 1.938941 1_455
Co1 O0 1.941825 1_565
Co1 O20 1.948517 1_465
Co1 O11 1.954839 1_555
Co1 O33 2.156248 1_565
Co1 O46 2.182439 1_455
Co2 O3 1.868581 1_554
Co2 O28 1.873321 1_455
Co2 O23 1.954232 1_454
Co2 O8 2.036143 1_555
Co2 O34 2.122101 1_555
Co2 O45 2.175843 1_454
Co3 O29 1.927721 1_455
Co3 O9 1.930330 1_555
Co3 O22 1.931262 1_455
Co3 O2 1.951789 1_555
Co3 O35 1.996975 1_555
Co3 O44 2.097762 1_455
Co4 O26 1.849165 1_556
Co4 O5 1.911054 1_565
Co4 O14 1.996119 1_556
Co4 O43 1.999911 1_555
Co4 O17 2.041440 1_565
Co4 O36 2.221572 1_566
Co5 O16 1.846930 1_555
Co5 O15 1.855857 1_545
Co5 O4 1.951416 1_555
Co5 O27 1.956490 1_545
Co5 O37 2.102253 1_555
Co5 O42 2.251161 1_545
Co6 O24 1.880611 1_555
Co6 O19 1.928720 1_554
Co6 O7 1.945325 1_554
Co6 O12 1.955876 1_555
Co6 O41 1.974745 1_554
Co6 O38 2.009489 1_555
Co7 O25 1.934316 1_555
Co7 O6 1.937863 1_555
Co7 O18 1.960633 1_555
Co7 O13 1.967255 1_555
Co7 O39 2.025992 1_555
Co7 O40 2.133433 1_555
Co8 O17 1.853721 1_554
Co8 O8 1.879144 1_555
Co8 O1 1.994247 1_554
Co8 O24 2.039117 1_555
Co8 O48 2.137131 1_555
Co8 O57 2.152176 1_554
Co9 O0 1.891998 1_555
Co9 O25 1.898306 1_555
Co9 O9 1.948407 1_555
Co9 O16 1.990194 1_555
Co9 O49 1.998455 1_555
Co9 O56 2.193231 1_555
Co10 O10 1.921771 1_555
Co10 O59 1.940359 1_554
Co10 O19 1.941552 1_554
Co10 O3 1.942263 1_554
Co10 O26 2.002744 1_555
Co10 O50 2.009376 1_555
Co11 O2 1.896213 1_555
Co11 O11 1.900282 1_555
Co11 O27 1.914986 1_555
Co11 O18 1.915127 1_555
Co11 O51 1.972385 1_555
Co11 O58 2.050766 1_555
Co12 O12 1.921576 1_555
Co12 O21 1.936303 1_554
Co12 O5 1.949301 1_554
Co12 O28 2.010995 1_555
Co12 O61 2.126961 1_554
Co12 O52 2.158704 1_555
Co13 O29 1.901833 1_555
Co13 O13 1.910041 1_555
Co13 O4 1.911050 1_555
Co13 O20 1.916853 1_555
Co13 O60 2.062846 1_555
Co13 O53 2.070925 1_555
Co14 O14 1.909138 1_555
Co14 O63 1.929061 1_554
Co14 O23 1.929205 1_554
Co14 O30 1.938795 1_555
Co14 O7 1.953170 1_554
Co14 O54 2.013272 1_555
Co15 O6 1.899775 1_555
Co15 O31 1.904429 1_555
Co15 O22 1.957923 1_555
Co15 O15 1.983682 1_555
Co15 O55 2.185987 1_555
Co15 O62 2.189763 1_555
Co16 O56 1.810512 1_555
Co16 O32 1.819617 1_555
Co16 O74 1.933763 1_545
Co16 O68 1.956713 1_455
Co17 O33 1.811639 1_555
Co17 O57 1.827934 1_555
Co17 O75 1.911908 1_545
Co17 O69 1.964648 1_455
Co18 O58 1.813924 1_555
Co18 O34 1.818512 1_555
Co18 O72 1.927190 1_555
Co18 O70 1.958452 1_455
Co19 O36 1.789802 1_555
Co19 O60 1.824588 1_555
Co19 O78 1.936098 1_545
Co19 O64 1.982990 1_555
Co20 O61 1.821773 1_555
Co20 O37 1.828582 1_555
Co20 O65 1.919912 1_555
Co20 O79 1.933282 1_545
Co21 O62 1.802580 1_555
Co21 O38 1.806738 1_555
Co21 O76 1.936874 1_555
Co21 O66 1.976982 1_555
Co22 O40 1.804331 1_555
Co22 O48 1.818859 1_555
Co22 O66 1.951403 1_555
Co22 O72 1.965727 1_555
Co23 O42 1.805407 1_555
Co23 O50 1.823420 1_555
Co23 O64 1.960641 1_565
Co23 O74 1.989257 1_555
Co24 O44 1.804114 1_555
Co24 O52 1.814808 1_555
Co24 O70 1.937771 1_555
Co24 O76 1.964009 1_555
Co25 O45 1.828060 1_555
Co25 O53 1.846275 1_555
Co25 O77 1.881064 1_555
Co25 O71 1.902189 1_555
Co26 O46 1.803697 1_555
Co26 O54 1.825211 1_555
Co26 O68 1.939017 1_565
Co26 O78 1.950559 1_555
Co27 O55 1.791114 1_555
Co27 O47 1.852513 1_555
Co27 O69 1.936476 1_565
Co27 O79 1.958276 1_555
Cu0 O35 1.894604 1_555
Cu0 O59 1.924872 1_555
Cu0 O73 1.959926 1_555
Cu0 O71 1.966190 1_455
Cu1 O39 1.859046 1_555
Cu1 O63 1.886766 1_555
Cu1 O67 1.940093 1_555
Cu1 O77 2.058392 1_555
Cu2 O49 1.892153 1_555
Cu2 O73 1.916582 1_555
Cu2 O41 1.919444 1_555
Cu2 O67 1.945844 1_555
Cu3 O43 1.886314 1_555
Cu3 O51 1.901483 1_555
Cu3 O65 2.003039 1_565
Cu3 O75 2.056637 1_555
