# generated using pymatgen
data_Li9Mn2Co5O16
_symmetry_space_group_name_H-M   'P 1'
_cell_length_a   19.42377542
_cell_length_b   19.42377542
_cell_length_c   5.18320574
_cell_angle_alpha   88.18402685
_cell_angle_beta   88.18402685
_cell_angle_gamma   8.55029315
_symmetry_Int_Tables_number   1
_chemical_formula_structural   Li9Mn2Co5O16
_chemical_formula_sum   'Li9 Mn2 Co5 O16'
_cell_volume   290.59730478
_cell_formula_units_Z   1
loop_
 _symmetry_equiv_pos_site_id
 _symmetry_equiv_pos_as_xyz
  1  'x, y, z'
loop_
 _atom_site_type_symbol
 _atom_site_label
 _atom_site_symmetry_multiplicity
 _atom_site_fract_x
 _atom_site_fract_y
 _atom_site_fract_z
 _atom_site_occupancy
  Li  Li0  1  0.43392900  0.43392900  0.20023600  1
  Li  Li1  1  0.31358200  0.31358200  0.55490900  1
  Li  Li2  1  0.18806300  0.18806300  0.93761700  1
  Li  Li3  1  0.06381500  0.06381500  0.30994600  1
  Li  Li4  1  0.93378800  0.93378800  0.69851900  1
  Li  Li5  1  0.81447200  0.81447200  0.05459100  1
  Li  Li6  1  0.68801000  0.68801000  0.43613200  1
  Li  Li7  1  0.56403400  0.56403400  0.80898500  1
  Li  Li8  1  0.87464600  0.87464600  0.37633400  1
  Mn  Mn0  1  0.99948200  0.99948200  0.00229300  1
  Mn  Mn1  1  0.49881200  0.49881200  0.50227500  1
  Co  Co0  1  0.75050900  0.75050900  0.74921800  1
  Co  Co1  1  0.62533600  0.62533600  0.12369500  1
  Co  Co2  1  0.37473300  0.37473300  0.87474400  1
  Co  Co3  1  0.25102800  0.25102800  0.24905900  1
  Co  Co4  1  0.12546500  0.12546500  0.62389300  1
  O  O0  1  0.47039800  0.47039800  0.87452200  1
  O  O1  1  0.34828200  0.34828200  0.16699200  1
  O  O2  1  0.22155600  0.22155600  0.59165500  1
  O  O3  1  0.09649300  0.09649300  0.96909900  1
  O  O4  1  0.96938100  0.96938100  0.37327300  1
  O  O5  1  0.84767300  0.84767300  0.73494700  1
  O  O6  1  0.72170500  0.72170500  0.09390800  1
  O  O7  1  0.59601400  0.59601400  0.46773600  1
  O  O8  1  0.40165100  0.40165100  0.58141900  1
  O  O9  1  0.27941600  0.27941600  0.90371800  1
  O  O10  1  0.15359100  0.15359100  0.27759900  1
  O  O11  1  0.02839900  0.02839900  0.62889300  1
  O  O12  1  0.90206400  0.90206400  0.01490500  1
  O  O13  1  0.78059000  0.78059000  0.40597300  1
  O  O14  1  0.65431400  0.65431400  0.78082300  1
  O  O15  1  0.52877000  0.52877000  0.13209100  1
loop_
_geom_bond_atom_site_label_1
_geom_bond_atom_site_label_2
_geom_bond_distance
_geom_bond_site_symmetry_2
Li0 O12 2.149086 1_545
Li0 O12 2.149086 1_455
Li0 O0 2.166691 1_554
Li0 O4 2.205789 1_455
Li0 O4 2.205789 1_545
Li0 O8 2.304377 1_555
Li1 O13 2.094939 1_455
Li1 O13 2.094939 1_545
Li1 O5 2.188587 1_545
Li1 O5 2.188587 1_455
Li1 O9 2.206454 1_555
Li1 O1 2.382851 1_555
Li2 O6 2.125670 1_456
Li2 O6 2.125670 1_546
Li2 O14 2.129309 1_545
Li2 O14 2.129309 1_455
Li2 O10 2.176956 1_556
Li2 O2 2.179719 1_555
Li3 O7 2.094344 1_455
Li3 O7 2.094344 1_545
Li3 O11 2.114518 1_555
Li3 O3 2.140465 1_554
Li3 O15 2.206609 1_455
Li3 O15 2.206609 1_545
Li4 O8 2.015683 1_565
Li4 O8 2.015683 1_655
Li4 O12 2.017804 1_556
Li4 O4 2.143707 1_555
Li4 O0 2.241093 1_655
Li4 O0 2.241093 1_565
Li5 O1 2.049404 1_655
Li5 O1 2.049404 1_565
Li5 O5 2.064890 1_554
Li5 O9 2.149405 1_654
Li5 O9 2.149405 1_564
Li5 O13 2.210879 1_555
Li6 O2 2.121754 1_565
Li6 O2 2.121754 1_655
Li6 O10 2.149264 1_655
Li6 O10 2.149264 1_565
Li6 O6 2.168674 1_555
Li6 O14 2.178924 1_555
Li7 O3 2.105431 1_565
Li7 O3 2.105431 1_655
Li7 O7 2.126993 1_555
Li7 O15 2.127334 1_556
Li7 O11 2.226112 1_655
Li7 O11 2.226112 1_565
Li8 O1 2.094639 1_655
Li8 O1 2.094639 1_565
Li8 O8 2.095639 1_565
Li8 O8 2.095639 1_655
Li8 O5 2.103193 1_555
Li8 O12 2.123958 1_555
Mn0 O0 1.962671 1_564
Mn0 O0 1.962671 1_654
Mn0 O15 1.971057 1_565
Mn0 O15 1.971057 1_655
Mn0 O11 2.205204 1_664
Mn0 O4 2.216909 1_555
Mn1 O11 1.972022 1_655
Mn1 O11 1.972022 1_565
Mn1 O4 1.972833 1_455
Mn1 O4 1.972833 1_545
Mn1 O0 2.190746 1_555
Mn1 O15 2.210640 1_555
Co0 O9 2.012198 1_565
Co0 O9 2.012198 1_655
Co0 O2 2.019861 1_655
Co0 O2 2.019861 1_565
Co0 O6 2.076140 1_556
Co0 O13 2.095576 1_555
Co1 O10 1.996640 1_655
Co1 O10 1.996640 1_565
Co1 O3 2.010995 1_564
Co1 O3 2.010995 1_654
Co1 O14 2.071659 1_554
Co1 O7 2.083627 1_555
Co2 O1 1.801643 1_556
Co2 O8 1.816082 1_555
Co2 O5 1.941350 1_545
Co2 O5 1.941350 1_455
Co2 O12 1.947898 1_456
Co2 O12 1.947898 1_546
Co3 O6 2.022813 1_545
Co3 O6 2.022813 1_455
Co3 O13 2.031948 1_455
Co3 O13 2.031948 1_545
Co3 O9 2.070825 1_554
Co3 O2 2.080376 1_555
Co4 O14 2.016191 1_545
Co4 O14 2.016191 1_455
Co4 O7 2.027834 1_455
Co4 O7 2.027834 1_545
Co4 O10 2.069931 1_555
Co4 O3 2.081720 1_555
