# generated using pymatgen
data_K3YN2
_symmetry_space_group_name_H-M   'P 1'
_cell_length_a   11.08359600
_cell_length_b   12.79823466
_cell_length_c   12.79823399
_cell_angle_alpha   90.00000008
_cell_angle_beta   125.26439055
_cell_angle_gamma   54.73561155
_symmetry_Int_Tables_number   1
_chemical_formula_structural   K3YN2
_chemical_formula_sum   'K24 Y8 N16'
_cell_volume   1048.14213399
_cell_formula_units_Z   8
loop_
 _symmetry_equiv_pos_site_id
 _symmetry_equiv_pos_as_xyz
  1  'x, y, z'
loop_
 _atom_site_type_symbol
 _atom_site_label
 _atom_site_symmetry_multiplicity
 _atom_site_fract_x
 _atom_site_fract_y
 _atom_site_fract_z
 _atom_site_occupancy
  K  K0  1  0.17992900  0.07362800  0.94857900  1
  K  K1  1  0.82007100  0.75355700  0.55142100  1
  K  K2  1  0.82007100  0.42637200  0.76865000  1
  K  K3  1  0.17992900  0.74644300  0.73135000  1
  K  K4  1  0.28277100  0.76865000  0.30497800  1
  K  K5  1  0.71722900  0.73135000  0.02220700  1
  K  K6  1  0.28277100  0.94857900  0.47779300  1
  K  K7  1  0.71722900  0.55142100  0.19502200  1
  K  K8  1  0.67281500  0.02220700  0.74644300  1
  K  K9  1  0.67281500  0.30497800  0.42637200  1
  K  K10  1  0.32718500  0.19502200  0.75355700  1
  K  K11  1  0.32718500  0.47779300  0.07362800  1
  K  K12  1  0.82007100  0.92637200  0.05142100  1
  K  K13  1  0.17992900  0.24644300  0.44857900  1
  K  K14  1  0.17992900  0.57362800  0.23135000  1
  K  K15  1  0.82007100  0.25355700  0.26865000  1
  K  K16  1  0.71722900  0.23135000  0.69502200  1
  K  K17  1  0.28277100  0.26865000  0.97779300  1
  K  K18  1  0.71722900  0.05142100  0.52220700  1
  K  K19  1  0.28277100  0.44857900  0.80497800  1
  K  K20  1  0.32718500  0.97779300  0.25355700  1
  K  K21  1  0.32718500  0.69502200  0.57362800  1
  K  K22  1  0.67281500  0.80497800  0.24644300  1
  K  K23  1  0.67281500  0.52220700  0.92637200  1
  Y  Y0  1  0.20707100  0.00000000  0.70707100  1
  Y  Y1  1  0.79292900  0.70707100  0.79292900  1
  Y  Y2  1  0.79292900  0.50000000  0.50000000  1
  Y  Y3  1  0.20707100  0.79292900  0.00000000  1
  Y  Y4  1  0.79292900  0.00000000  0.29292900  1
  Y  Y5  1  0.20707100  0.29292900  0.20707100  1
  Y  Y6  1  0.20707100  0.50000000  0.50000000  1
  Y  Y7  1  0.79292900  0.20707100  0.00000000  1
  N  N0  1  0.00000000  0.00000000  0.50000000  1
  N  N1  1  0.00000000  0.50000000  0.00000000  1
  N  N2  1  0.00000000  0.50000000  0.50000000  1
  N  N3  1  0.00000000  0.00000000  0.00000000  1
  N  N4  1  0.50000000  0.91469900  0.75000000  1
  N  N5  1  0.50000000  0.58530100  0.25000000  1
  N  N6  1  0.00000000  0.25000000  0.66469900  1
  N  N7  1  0.00000000  0.75000000  0.83530100  1
  N  N8  1  0.67060200  0.66469900  0.58530100  1
  N  N9  1  0.32939800  0.83530100  0.91469900  1
  N  N10  1  0.50000000  0.08530100  0.25000000  1
  N  N11  1  0.50000000  0.41469900  0.75000000  1
  N  N12  1  0.00000000  0.75000000  0.33530100  1
  N  N13  1  0.00000000  0.25000000  0.16469900  1
  N  N14  1  0.32939800  0.33530100  0.41469900  1
  N  N15  1  0.67060200  0.16469900  0.08530100  1
loop_
_geom_bond_atom_site_label_1
_geom_bond_atom_site_label_2
_geom_bond_distance
_geom_bond_site_symmetry_2
K0 N9 2.688996 1_545
K0 N6 2.950904 1_555
K0 N3 2.997246 1_556
K1 N8 2.688996 1_555
K1 N7 2.950904 1_655
K1 N2 2.997246 1_655
K2 N8 2.688996 1_555
K2 N6 2.950905 1_655
K2 N1 2.997246 1_656
K3 N9 2.688996 1_555
K3 N7 2.950905 1_555
K3 N0 2.997246 1_565
K4 N5 2.688996 1_555
K4 N8 2.950904 1_555
K4 N3 2.997246 1_565
K5 N4 2.688996 1_554
K5 N9 2.950905 1_554
K5 N1 2.997246 1_655
K6 N4 2.688996 1_555
K6 N8 2.950905 1_555
K6 N0 2.997246 1_565
K7 N5 2.688996 1_555
K7 N9 2.950905 1_554
K7 N2 2.997246 1_655
K8 N7 2.688996 1_645
K8 N4 2.950905 1_545
K8 N3 2.997246 1_656
K9 N6 2.688996 1_655
K9 N5 2.950905 1_555
K9 N0 2.997247 1_655
K10 N6 2.688996 1_555
K10 N4 2.950905 1_545
K10 N2 2.997246 1_555
K11 N7 2.688996 1_554
K11 N5 2.950904 1_555
K11 N1 2.997246 1_555
K12 N15 2.688996 1_565
K12 N12 2.950904 1_655
K12 N3 2.997246 1_665
K13 N14 2.688996 1_555
K13 N13 2.950904 1_555
K13 N2 2.997246 1_555
K14 N14 2.688996 1_555
K14 N12 2.950905 1_555
K14 N1 2.997246 1_555
K15 N15 2.688996 1_555
K15 N13 2.950905 1_655
K15 N0 2.997246 1_655
K16 N11 2.688996 1_555
K16 N14 2.950904 1_555
K16 N3 2.997246 1_656
K17 N10 2.688996 1_556
K17 N15 2.950905 1_556
K17 N1 2.997246 1_556
K18 N10 2.688996 1_555
K18 N14 2.950905 1_555
K18 N0 2.997246 1_655
K19 N11 2.688996 1_555
K19 N15 2.950905 1_556
K19 N2 2.997246 1_555
K20 N13 2.688996 1_565
K20 N10 2.950905 1_565
K20 N3 2.997246 1_565
K21 N12 2.688996 1_555
K21 N11 2.950905 1_555
K21 N0 2.997247 1_565
K22 N12 2.688996 1_655
K22 N10 2.950905 1_565
K22 N2 2.997246 1_655
K23 N13 2.688996 1_656
K23 N11 2.950904 1_555
K23 N1 2.997246 1_656
N0 Y4 2.295091 1_455
N0 Y0 2.295091 1_555
N1 Y1 2.295091 1_454
N1 Y5 2.295091 1_555
N2 Y2 2.295091 1_455
N2 Y6 2.295091 1_555
N3 Y3 2.295091 1_545
N3 Y7 2.295091 1_455
N4 Y0 2.425339 1_565
N4 Y1 2.425339 1_555
N5 Y2 2.425339 1_555
N5 Y3 2.425339 1_555
N6 Y2 2.425339 1_455
N6 Y0 2.425339 1_555
N7 Y3 2.425339 1_556
N7 Y1 2.425339 1_455
N8 Y1 2.425339 1_555
N8 Y2 2.425339 1_555
N9 Y3 2.425339 1_556
N9 Y0 2.425339 1_565
N10 Y4 2.425339 1_555
N10 Y5 2.425339 1_555
N11 Y6 2.425339 1_555
N11 Y7 2.425339 1_556
N12 Y6 2.425339 1_555
N12 Y4 2.425339 1_465
N13 Y7 2.425339 1_455
N13 Y5 2.425339 1_555
N14 Y5 2.425339 1_555
N14 Y6 2.425339 1_555
N15 Y7 2.425339 1_555
N15 Y4 2.425339 1_555
