# generated using pymatgen
data_LaP2H2(WO2)3
_symmetry_space_group_name_H-M   'P 1'
_cell_length_a   7.26786300
_cell_length_b   10.27388207
_cell_length_c   13.81889815
_cell_angle_alpha   94.27043978
_cell_angle_beta   90.00000000
_cell_angle_gamma   90.00000000
_symmetry_Int_Tables_number   1
_chemical_formula_structural   LaP2H2(WO2)3
_chemical_formula_sum   'La4 P8 H8 W12 O24'
_cell_volume   1028.98088957
_cell_formula_units_Z   4
loop_
 _symmetry_equiv_pos_site_id
 _symmetry_equiv_pos_as_xyz
  1  'x, y, z'
loop_
 _atom_site_type_symbol
 _atom_site_label
 _atom_site_symmetry_multiplicity
 _atom_site_fract_x
 _atom_site_fract_y
 _atom_site_fract_z
 _atom_site_occupancy
  La  La0  1  0.75199900  0.47014100  0.67724300  1
  La  La1  1  0.24800100  0.52985900  0.32275700  1
  La  La2  1  0.25199900  0.52985900  0.82275700  1
  La  La3  1  0.74800100  0.47014100  0.17724300  1
  P  P0  1  0.76190300  0.51771300  0.91326900  1
  P  P1  1  0.23809700  0.48228700  0.08673100  1
  P  P2  1  0.26190300  0.48228700  0.58673100  1
  P  P3  1  0.73809700  0.51771300  0.41326900  1
  P  P4  1  0.95374100  0.79856900  0.73481800  1
  P  P5  1  0.04625900  0.20143100  0.26518200  1
  P  P6  1  0.45374100  0.20143100  0.76518200  1
  P  P7  1  0.54625900  0.79856900  0.23481800  1
  H  H0  1  0.79466500  0.65102600  0.94381100  1
  H  H1  1  0.20533500  0.34897400  0.05618900  1
  H  H2  1  0.29466500  0.34897400  0.55618900  1
  H  H3  1  0.70533500  0.65102600  0.44381100  1
  H  H4  1  0.54714300  0.15895800  0.84708800  1
  H  H5  1  0.45285700  0.84104200  0.15291200  1
  H  H6  1  0.04714300  0.84104200  0.65291200  1
  H  H7  1  0.95285700  0.15895800  0.34708800  1
  W  W0  1  0.41676300  0.91532100  0.90746300  1
  W  W1  1  0.58323700  0.08467900  0.09253700  1
  W  W2  1  0.91676300  0.08467900  0.59253700  1
  W  W3  1  0.08323700  0.91532100  0.40746300  1
  W  W4  1  0.56390800  0.89018900  0.68866200  1
  W  W5  1  0.43609200  0.10981100  0.31133800  1
  W  W6  1  0.06390800  0.10981100  0.81133800  1
  W  W7  1  0.93609200  0.89018900  0.18866200  1
  W  W8  1  0.83924600  0.92227800  0.95550600  1
  W  W9  1  0.16075400  0.07772200  0.04449400  1
  W  W10  1  0.33924600  0.07772200  0.54449400  1
  W  W11  1  0.66075400  0.92227800  0.45550600  1
  O  O0  1  0.58701500  0.51456600  0.84850100  1
  O  O1  1  0.41298500  0.48543400  0.15149900  1
  O  O2  1  0.08701500  0.48543400  0.65149900  1
  O  O3  1  0.91298500  0.51456600  0.34850100  1
  O  O4  1  0.89150100  0.92713000  0.79593600  1
  O  O5  1  0.10849900  0.07287000  0.20406400  1
  O  O6  1  0.39150100  0.07287000  0.70406400  1
  O  O7  1  0.60849900  0.92713000  0.29593600  1
  O  O8  1  0.92118400  0.47008000  0.84376800  1
  O  O9  1  0.07881600  0.52992000  0.15623200  1
  O  O10  1  0.42118400  0.52992000  0.65623200  1
  O  O11  1  0.57881600  0.47008000  0.34376800  1
  O  O12  1  0.41900800  0.71913100  0.29393500  1
  O  O13  1  0.58099200  0.28086900  0.70606500  1
  O  O14  1  0.91900800  0.28086900  0.20606500  1
  O  O15  1  0.08099200  0.71913100  0.79393500  1
  O  O16  1  0.74722100  0.44424300  0.00482500  1
  O  O17  1  0.25277900  0.55575700  0.99517500  1
  O  O18  1  0.24722100  0.55575700  0.49517500  1
  O  O19  1  0.75277900  0.44424300  0.50482500  1
  O  O20  1  0.77620400  0.72487300  0.69788400  1
  O  O21  1  0.22379600  0.27512700  0.30211600  1
  O  O22  1  0.27620400  0.27512700  0.80211600  1
  O  O23  1  0.72379600  0.72487300  0.19788400  1
loop_
_geom_bond_atom_site_label_1
_geom_bond_atom_site_label_2
_geom_bond_distance
_geom_bond_site_symmetry_2
La0 O13 2.366426 1_555
La0 O19 2.377672 1_555
La0 O2 2.467401 1_655
La0 O10 2.503757 1_555
La0 O8 2.609147 1_555
La0 O20 2.617303 1_555
La0 O0 2.661959 1_555
La1 O12 2.366426 1_555
La1 O18 2.377672 1_555
La1 O3 2.467401 1_455
La1 O11 2.503757 1_555
La1 O9 2.609147 1_555
La1 O21 2.617303 1_555
La1 O1 2.661959 1_555
La2 O15 2.366426 1_555
La2 O17 2.377672 1_555
La2 O0 2.467401 1_555
La2 O8 2.503757 1_455
La2 O10 2.609147 1_555
La2 O22 2.617303 1_555
La2 O2 2.661959 1_555
La3 O14 2.366426 1_555
La3 O16 2.377672 1_555
La3 O1 2.467401 1_555
La3 O9 2.503757 1_655
La3 O11 2.609147 1_555
La3 O23 2.617303 1_555
La3 O3 2.661959 1_555
H0 P0 1.422904 1_555
H1 P1 1.422904 1_555
H2 P2 1.422904 1_555
H3 P3 1.422904 1_555
H4 P6 1.416287 1_555
H5 P7 1.416287 1_555
H6 P4 1.416287 1_455
H7 P5 1.416287 1_655
O0 P0 1.553512 1_555
O1 P1 1.553512 1_555
O2 P2 1.553512 1_555
O3 P3 1.553512 1_555
O4 P4 1.579992 1_555
O4 W8 2.241757 1_555
O4 W6 2.253538 1_665
O4 W4 2.815400 1_555
O5 P5 1.579992 1_555
O5 W9 2.241757 1_555
O5 W7 2.253538 1_445
O5 W5 2.815400 1_555
O6 P6 1.579992 1_555
O6 W10 2.241757 1_555
O6 W4 2.253538 1_545
O6 W6 2.815400 1_555
O7 P7 1.579992 1_555
O7 W11 2.241757 1_555
O7 W5 2.253538 1_565
O7 W7 2.815400 1_555
O8 P0 1.559495 1_555
O9 P1 1.559495 1_555
O10 P2 1.559495 1_555
O11 P3 1.559495 1_555
O12 P7 1.512642 1_555
O13 P6 1.512642 1_555
O14 P5 1.512642 1_655
O15 P4 1.512642 1_455
O16 P0 1.524503 1_554
O17 P1 1.524503 1_556
O18 P2 1.524503 1_555
O19 P3 1.524503 1_555
O20 P4 1.562409 1_555
O20 W4 2.305173 1_555
O21 P5 1.562409 1_555
O21 W5 2.305173 1_555
O22 P6 1.562409 1_555
O22 W6 2.305173 1_555
O23 P7 1.562409 1_555
O23 W7 2.305173 1_555
