# generated using pymatgen
data_Ca3Cd2
_symmetry_space_group_name_H-M   'P 1'
_cell_length_a   8.07054358
_cell_length_b   8.79460664
_cell_length_c   8.79460664
_cell_angle_alpha   89.99986423
_cell_angle_beta   90.00000000
_cell_angle_gamma   90.00000000
_symmetry_Int_Tables_number   1
_chemical_formula_structural   Ca3Cd2
_chemical_formula_sum   'Ca12 Cd8'
_cell_volume   624.21704829
_cell_formula_units_Z   4
loop_
 _symmetry_equiv_pos_site_id
 _symmetry_equiv_pos_as_xyz
  1  'x, y, z'
loop_
 _atom_site_type_symbol
 _atom_site_label
 _atom_site_symmetry_multiplicity
 _atom_site_fract_x
 _atom_site_fract_y
 _atom_site_fract_z
 _atom_site_occupancy
  Ca  Ca0  1  0.25626650  0.14540117  0.14540117  1
  Ca  Ca1  1  0.75626650  0.35459883  0.64540117  1
  Ca  Ca2  1  0.75626650  0.64540117  0.35459883  1
  Ca  Ca3  1  0.25626650  0.85459883  0.85459883  1
  Ca  Ca4  1  0.75609373  0.19928429  0.19928429  1
  Ca  Ca5  1  0.25609373  0.30071571  0.69928429  1
  Ca  Ca6  1  0.25609373  0.69928429  0.30071571  1
  Ca  Ca7  1  0.75609373  0.80071571  0.80071571  1
  Ca  Ca8  1  0.50640950  0.00000000  0.50000000  1
  Ca  Ca9  1  0.00640950  0.00000000  0.50000000  1
  Ca  Ca10  1  0.00640950  0.50000000  -0.00000000  1
  Ca  Ca11  1  0.50640950  0.50000000  -0.00000000  1
  Cd  Cd0  1  0.06308125  0.37606404  0.37606404  1
  Cd  Cd1  1  0.56308125  0.12393596  0.87606404  1
  Cd  Cd2  1  0.56308125  0.87606404  0.12393596  1
  Cd  Cd3  1  0.06308125  0.62393596  0.62393596  1
  Cd  Cd4  1  0.44914601  0.37604310  0.37604310  1
  Cd  Cd5  1  0.94914701  0.12395590  0.87604410  1
  Cd  Cd6  1  0.94914701  0.87604410  0.12395590  1
  Cd  Cd7  1  0.44914601  0.62395590  0.62395590  1
loop_
_geom_bond_atom_site_label_1
_geom_bond_atom_site_label_2
_geom_bond_distance
_geom_bond_site_symmetry_2
Ca0 Cd4 3.263742 1_555
Ca0 Cd0 3.265148 1_555
Ca0 Cd2 3.431883 1_545
Ca0 Cd1 3.431883 1_554
Ca0 Cd5 3.433770 1_454
Ca0 Cd6 3.433770 1_445
Ca1 Cd5 3.263750 1_555
Ca1 Cd1 3.265142 1_555
Ca1 Cd3 3.431883 1_655
Ca1 Cd0 3.431883 1_655
Ca1 Cd7 3.433775 1_555
Ca1 Cd4 3.433780 1_555
Ca2 Cd6 3.263750 1_555
Ca2 Cd2 3.265142 1_555
Ca2 Cd3 3.431883 1_655
Ca2 Cd0 3.431883 1_655
Ca2 Cd7 3.433775 1_555
Ca2 Cd4 3.433780 1_555
Ca3 Cd7 3.263753 1_555
Ca3 Cd3 3.265148 1_555
Ca3 Cd1 3.431883 1_565
Ca3 Cd2 3.431883 1_556
Ca3 Cd5 3.433770 1_465
Ca3 Cd6 3.433770 1_456
Ca4 Cd2 3.308466 1_545
Ca4 Cd1 3.308466 1_554
Ca4 Cd5 3.308737 1_554
Ca4 Cd6 3.308737 1_545
Ca4 Cd4 3.312068 1_555
Ca4 Cd0 3.312481 1_655
Ca5 Cd3 3.308464 1_555
Ca5 Cd0 3.308464 1_555
Ca5 Cd7 3.308730 1_555
Ca5 Cd4 3.308736 1_555
Ca5 Cd5 3.312067 1_455
Ca5 Cd1 3.312478 1_555
Ca6 Cd3 3.308464 1_555
Ca6 Cd0 3.308464 1_555
Ca6 Cd7 3.308730 1_555
Ca6 Cd4 3.308736 1_555
Ca6 Cd6 3.312067 1_455
Ca6 Cd2 3.312478 1_555
Ca7 Cd1 3.308466 1_565
Ca7 Cd2 3.308466 1_556
Ca7 Cd6 3.308737 1_556
Ca7 Cd5 3.308737 1_565
Ca7 Cd7 3.312076 1_555
Ca7 Cd3 3.312481 1_655
Ca8 Cd2 3.512222 1_545
Ca8 Cd1 3.512222 1_555
Ca8 Cd4 3.512726 1_555
Ca8 Cd7 3.512732 1_545
Ca9 Cd0 3.512217 1_555
Ca9 Cd3 3.512217 1_545
Ca9 Cd5 3.512735 1_455
Ca9 Cd6 3.512735 1_445
Ca10 Cd0 3.512217 1_555
Ca10 Cd3 3.512217 1_554
Ca10 Cd6 3.512735 1_455
Ca10 Cd5 3.512735 1_454
Ca11 Cd1 3.512222 1_554
Ca11 Cd2 3.512222 1_555
Ca11 Cd4 3.512726 1_555
Ca11 Cd7 3.512732 1_554
Cd0 Cd3 3.082899 1_555
Cd0 Cd4 3.115752 1_555
Cd1 Cd2 3.082891 1_546
Cd1 Cd5 3.115761 1_555
Cd2 Cd6 3.115761 1_555
Cd3 Cd7 3.115752 1_555
Cd4 Cd7 3.083407 1_555
Cd5 Cd6 3.083387 1_546
