# generated using pymatgen
data_Dy2(Ga3Co)3
_symmetry_space_group_name_H-M   'P 1'
_cell_length_a   7.36796493
_cell_length_b   7.36796493
_cell_length_c   9.40872800
_cell_angle_alpha   90.00000000
_cell_angle_beta   90.00000000
_cell_angle_gamma   119.84320304
_symmetry_Int_Tables_number   1
_chemical_formula_structural   Dy2(Ga3Co)3
_chemical_formula_sum   'Dy4 Ga18 Co6'
_cell_volume   443.03767661
_cell_formula_units_Z   2
loop_
 _symmetry_equiv_pos_site_id
 _symmetry_equiv_pos_as_xyz
  1  'x, y, z'
loop_
 _atom_site_type_symbol
 _atom_site_label
 _atom_site_symmetry_multiplicity
 _atom_site_fract_x
 _atom_site_fract_y
 _atom_site_fract_z
 _atom_site_occupancy
  Dy  Dy0  1  0.33174800  0.00328400  0.25000000  1
  Dy  Dy1  1  0.99671600  0.66825200  0.75000000  1
  Dy  Dy2  1  0.66825200  0.99671600  0.75000000  1
  Dy  Dy3  1  0.00328400  0.33174800  0.25000000  1
  Ga  Ga0  1  0.33398100  0.99999200  0.92779200  1
  Ga  Ga1  1  0.00000800  0.66601900  0.07220800  1
  Ga  Ga2  1  0.33398100  0.99999200  0.57220800  1
  Ga  Ga3  1  0.00000800  0.66601900  0.42779200  1
  Ga  Ga4  1  0.66601900  0.00000800  0.07220800  1
  Ga  Ga5  1  0.99999200  0.33398100  0.92779200  1
  Ga  Ga6  1  0.66601900  0.00000800  0.42779200  1
  Ga  Ga7  1  0.99999200  0.33398100  0.57220800  1
  Ga  Ga8  1  0.66559800  0.66559800  0.94255700  1
  Ga  Ga9  1  0.33440200  0.33440200  0.05744300  1
  Ga  Ga10  1  0.66559800  0.66559800  0.55744300  1
  Ga  Ga11  1  0.33440200  0.33440200  0.44255700  1
  Ga  Ga12  1  0.12098600  0.12098600  0.75000000  1
  Ga  Ga13  1  0.87901400  0.87901400  0.25000000  1
  Ga  Ga14  1  0.44970000  0.66432800  0.25000000  1
  Ga  Ga15  1  0.33567200  0.55030000  0.75000000  1
  Ga  Ga16  1  0.55030000  0.33567200  0.75000000  1
  Ga  Ga17  1  0.66432800  0.44970000  0.25000000  1
  Co  Co0  1  0.00000000  0.00000000  0.00000000  1
  Co  Co1  1  0.00000000  0.00000000  0.50000000  1
  Co  Co2  1  0.32860200  0.67139800  0.00000000  1
  Co  Co3  1  0.32860200  0.67139800  0.50000000  1
  Co  Co4  1  0.67139800  0.32860200  0.00000000  1
  Co  Co5  1  0.67139800  0.32860200  0.50000000  1
loop_
_geom_bond_atom_site_label_1
_geom_bond_atom_site_label_2
_geom_bond_distance
_geom_bond_site_symmetry_2
Dy0 Ga17 2.966756 1_555
Dy0 Ga3 2.983718 1_545
Dy0 Ga1 2.983718 1_545
Dy0 Ga4 2.987283 1_555
Dy0 Ga6 2.987283 1_555
Dy0 Ga13 2.987587 1_445
Dy0 Ga14 3.025308 1_545
Dy0 Ga9 3.031037 1_555
Dy0 Ga11 3.031037 1_555
Dy0 Ga0 3.031775 1_544
Dy0 Ga2 3.031775 1_545
Dy1 Ga16 2.966756 1_555
Dy1 Ga2 2.983718 1_655
Dy1 Ga0 2.983718 1_655
Dy1 Ga7 2.987283 1_555
Dy1 Ga5 2.987283 1_555
Dy1 Ga12 2.987587 1_665
Dy1 Ga15 3.025308 1_655
Dy1 Ga10 3.031037 1_555
Dy1 Ga8 3.031037 1_555
Dy1 Ga3 3.031775 1_655
Dy1 Ga1 3.031775 1_656
Dy2 Ga15 2.966756 1_555
Dy2 Ga7 2.983718 1_565
Dy2 Ga5 2.983718 1_565
Dy2 Ga0 2.987283 1_555
Dy2 Ga2 2.987283 1_555
Dy2 Ga12 2.987587 1_665
Dy2 Ga16 3.025308 1_565
Dy2 Ga8 3.031037 1_555
Dy2 Ga10 3.031037 1_555
Dy2 Ga6 3.031775 1_565
Dy2 Ga4 3.031775 1_566
Dy3 Ga14 2.966756 1_555
Dy3 Ga6 2.983718 1_455
Dy3 Ga4 2.983718 1_455
Dy3 Ga3 2.987283 1_555
Dy3 Ga1 2.987283 1_555
Dy3 Ga13 2.987587 1_445
Dy3 Ga17 3.025308 1_455
Dy3 Ga9 3.031037 1_555
Dy3 Ga11 3.031037 1_555
Dy3 Ga5 3.031775 1_454
Dy3 Ga7 3.031775 1_455
Ga0 Ga12 2.729141 1_565
Ga0 Ga16 2.744515 1_565
Ga0 Ga9 2.747971 1_566
Ga0 Ga4 2.798403 1_566
Ga0 Ga1 2.816031 1_556
Ga1 Ga13 2.729141 1_455
Ga1 Ga17 2.744515 1_455
Ga1 Ga8 2.747971 1_454
Ga1 Ga5 2.798403 1_454
Ga2 Ga6 2.798403 1_565
Ga2 Ga3 2.816031 1_555
Ga3 Ga7 2.798403 1_455
Ga4 Ga8 2.747971 1_544
Ga4 Ga5 2.816031 1_554
Ga5 Ga9 2.747971 1_656
Ga6 Ga7 2.816031 1_555
Ga8 Ga9 2.674216 1_556
Ga10 Ga11 2.674216 1_555
Ga10 Ga6 2.747971 1_565
Ga10 Ga3 2.747971 1_655
Ga10 Ga15 2.803197 1_555
Ga10 Ga16 2.803197 1_555
Ga11 Ga2 2.747971 1_545
Ga11 Ga7 2.747971 1_455
Ga11 Ga14 2.803197 1_555
Ga11 Ga17 2.803197 1_555
Ga12 Ga2 2.729141 1_545
Ga12 Ga7 2.729141 1_455
Ga12 Ga5 2.729141 1_455
Ga12 Ga15 2.743715 1_555
Ga12 Ga16 2.743715 1_555
Ga13 Ga3 2.729141 1_655
Ga13 Ga4 2.729141 1_565
Ga13 Ga6 2.729141 1_565
Ga13 Ga17 2.743715 1_555
Ga13 Ga14 2.743715 1_555
Ga14 Ga17 2.736850 1_555
Ga14 Ga4 2.744515 1_565
Ga14 Ga6 2.744515 1_565
Ga14 Ga9 2.803197 1_555
Ga15 Ga16 2.736850 1_555
Ga15 Ga7 2.744515 1_455
Ga15 Ga5 2.744515 1_455
Ga15 Ga8 2.803197 1_555
Ga16 Ga2 2.744515 1_545
Ga16 Ga8 2.803197 1_555
Ga17 Ga3 2.744515 1_655
Ga17 Ga9 2.803197 1_555
Co0 Ga13 2.516180 1_445
Co0 Ga12 2.516180 1_554
Co0 Ga9 2.528145 1_555
Co0 Ga8 2.528145 1_444
Co0 Ga5 2.552851 1_454
Co0 Ga1 2.552851 1_545
Co0 Ga4 2.552851 1_455
Co0 Ga0 2.552851 1_544
Co1 Ga13 2.516180 1_445
Co1 Ga12 2.516180 1_555
Co1 Ga10 2.528145 1_445
Co1 Ga11 2.528145 1_555
Co1 Ga6 2.552851 1_455
Co1 Ga2 2.552851 1_545
Co1 Ga7 2.552851 1_455
Co1 Ga3 2.552851 1_545
Co2 Ga0 2.495839 1_554
Co2 Ga1 2.495839 1_555
Co2 Ga14 2.525437 1_555
Co2 Ga15 2.525437 1_554
Co2 Ga5 2.552173 1_454
Co2 Ga4 2.552173 1_565
Co2 Ga8 2.562167 1_554
Co2 Ga9 2.562167 1_555
Co3 Ga3 2.495839 1_555
Co3 Ga2 2.495839 1_555
Co3 Ga14 2.525437 1_555
Co3 Ga15 2.525437 1_555
Co3 Ga7 2.552173 1_455
Co3 Ga6 2.552173 1_565
Co3 Ga10 2.562167 1_555
Co3 Ga11 2.562167 1_555
Co4 Ga5 2.495839 1_554
Co4 Ga4 2.495839 1_555
Co4 Ga17 2.525437 1_555
Co4 Ga16 2.525437 1_554
Co4 Ga1 2.552173 1_655
Co4 Ga0 2.552173 1_544
Co4 Ga8 2.562167 1_554
Co4 Ga9 2.562167 1_555
Co5 Ga6 2.495839 1_555
Co5 Ga7 2.495839 1_555
Co5 Ga16 2.525437 1_555
Co5 Ga17 2.525437 1_555
Co5 Ga3 2.552173 1_655
Co5 Ga2 2.552173 1_545
Co5 Ga10 2.562167 1_555
Co5 Ga11 2.562167 1_555
