# generated using pymatgen
data_TiAl
_symmetry_space_group_name_H-M   'P 1'
_cell_length_a   5.62150362
_cell_length_b   5.62150362
_cell_length_c   8.13284384
_cell_angle_alpha   90.00000000
_cell_angle_beta   90.00000000
_cell_angle_gamma   90.00000000
_symmetry_Int_Tables_number   1
_chemical_formula_structural   TiAl
_chemical_formula_sum   'Ti8 Al8'
_cell_volume   257.00846203
_cell_formula_units_Z   8
loop_
 _symmetry_equiv_pos_site_id
 _symmetry_equiv_pos_as_xyz
  1  'x, y, z'
loop_
 _atom_site_type_symbol
 _atom_site_label
 _atom_site_symmetry_multiplicity
 _atom_site_fract_x
 _atom_site_fract_y
 _atom_site_fract_z
 _atom_site_occupancy
  Ti  Ti0_0  1  0.25000000  0.25000000  0.25000000  1
  Ti  Ti0_1  1  0.25000000  0.25000000  0.75000000  1
  Ti  Ti0_2  1  0.25000000  0.75000000  0.25000000  1
  Ti  Ti0_3  1  0.25000000  0.75000000  0.75000000  1
  Ti  Ti0_4  1  0.75000000  0.25000000  0.25000000  1
  Ti  Ti0_5  1  0.75000000  0.25000000  0.75000000  1
  Ti  Ti0_6  1  0.75000000  0.75000000  0.25000000  1
  Ti  Ti0_7  1  0.75000000  0.75000000  0.75000000  1
  Al  Al0_0  1  0.00000000  0.00000000  0.00000000  1
  Al  Al0_1  1  0.00000000  0.00000000  0.50000000  1
  Al  Al0_2  1  0.00000000  0.50000000  0.00000000  1
  Al  Al0_3  1  0.00000000  0.50000000  0.50000000  1
  Al  Al0_4  1  0.50000000  0.00000000  0.00000000  1
  Al  Al0_5  1  0.50000000  0.00000000  0.50000000  1
  Al  Al0_6  1  0.50000000  0.50000000  0.00000000  1
  Al  Al0_7  1  0.50000000  0.50000000  0.50000000  1
loop_
_geom_bond_atom_site_label_1
_geom_bond_atom_site_label_2
_geom_bond_distance
_geom_bond_site_symmetry_2
Ti0_0 Ti0_2 2.810752 1_545
Ti0_0 Ti0_4 2.810752 1_455
Ti0_0 Ti0_2 2.810752 1_555
Ti0_0 Ti0_4 2.810752 1_555
Ti0_1 Ti0_3 2.810752 1_545
Ti0_1 Ti0_5 2.810752 1_455
Ti0_1 Ti0_5 2.810752 1_555
Ti0_1 Ti0_3 2.810752 1_555
Ti0_2 Ti0_6 2.810752 1_455
Ti0_2 Ti0_6 2.810752 1_555
Ti0_3 Ti0_7 2.810752 1_455
Ti0_3 Ti0_7 2.810752 1_555
Ti0_4 Ti0_6 2.810752 1_545
Ti0_4 Ti0_6 2.810752 1_555
Ti0_5 Ti0_7 2.810752 1_545
Ti0_5 Ti0_7 2.810752 1_555
Al0_0 Al0_2 2.810752 1_555
Al0_0 Al0_2 2.810752 1_545
Al0_0 Al0_4 2.810752 1_555
Al0_0 Al0_4 2.810752 1_455
Al0_0 Ti0_5 2.843257 1_454
Al0_0 Ti0_2 2.843257 1_545
Al0_0 Ti0_4 2.843257 1_455
Al0_0 Ti0_6 2.843257 1_445
Al0_0 Ti0_7 2.843257 1_444
Al0_0 Ti0_3 2.843257 1_544
Al0_0 Ti0_1 2.843257 1_554
Al0_0 Ti0_0 2.843257 1_555
Al0_1 Al0_5 2.810752 1_455
Al0_1 Al0_3 2.810752 1_555
Al0_1 Al0_3 2.810752 1_545
Al0_1 Al0_5 2.810752 1_555
Al0_1 Ti0_7 2.843257 1_445
Al0_1 Ti0_2 2.843257 1_545
Al0_1 Ti0_4 2.843257 1_455
Al0_1 Ti0_6 2.843257 1_445
Al0_1 Ti0_3 2.843257 1_545
Al0_1 Ti0_5 2.843257 1_455
Al0_1 Ti0_1 2.843257 1_555
Al0_1 Ti0_0 2.843257 1_555
Al0_2 Al0_6 2.810752 1_555
Al0_2 Al0_6 2.810752 1_455
Al0_2 Ti0_5 2.843257 1_454
Al0_2 Ti0_4 2.843257 1_455
Al0_2 Ti0_1 2.843257 1_554
Al0_2 Ti0_6 2.843257 1_455
Al0_2 Ti0_0 2.843257 1_555
Al0_2 Ti0_7 2.843257 1_454
Al0_2 Ti0_2 2.843257 1_555
Al0_2 Ti0_3 2.843257 1_554
Al0_3 Al0_7 2.810752 1_555
Al0_3 Al0_7 2.810752 1_455
Al0_3 Ti0_4 2.843257 1_455
Al0_3 Ti0_5 2.843257 1_455
Al0_3 Ti0_7 2.843257 1_455
Al0_3 Ti0_1 2.843257 1_555
Al0_3 Ti0_6 2.843257 1_455
Al0_3 Ti0_0 2.843257 1_555
Al0_3 Ti0_3 2.843257 1_555
Al0_3 Ti0_2 2.843257 1_555
Al0_4 Al0_6 2.810752 1_545
Al0_4 Al0_6 2.810752 1_555
Al0_4 Ti0_2 2.843257 1_545
Al0_4 Ti0_3 2.843257 1_544
Al0_4 Ti0_7 2.843257 1_544
Al0_4 Ti0_6 2.843257 1_545
Al0_4 Ti0_1 2.843257 1_554
Al0_4 Ti0_0 2.843257 1_555
Al0_4 Ti0_4 2.843257 1_555
Al0_4 Ti0_5 2.843257 1_554
Al0_5 Al0_7 2.810752 1_555
Al0_5 Al0_7 2.810752 1_545
Al0_5 Ti0_2 2.843257 1_545
Al0_5 Ti0_3 2.843257 1_545
Al0_5 Ti0_6 2.843257 1_545
Al0_5 Ti0_1 2.843257 1_555
Al0_5 Ti0_7 2.843257 1_545
Al0_5 Ti0_0 2.843257 1_555
Al0_5 Ti0_4 2.843257 1_555
Al0_5 Ti0_5 2.843257 1_555
Al0_6 Ti0_1 2.843257 1_554
Al0_6 Ti0_0 2.843257 1_555
Al0_6 Ti0_4 2.843257 1_555
Al0_6 Ti0_5 2.843257 1_554
Al0_6 Ti0_3 2.843257 1_554
Al0_6 Ti0_2 2.843257 1_555
Al0_6 Ti0_6 2.843257 1_555
Al0_6 Ti0_7 2.843257 1_554
Al0_7 Ti0_1 2.843257 1_555
Al0_7 Ti0_0 2.843257 1_555
Al0_7 Ti0_3 2.843257 1_555
Al0_7 Ti0_4 2.843257 1_555
Al0_7 Ti0_2 2.843257 1_555
Al0_7 Ti0_5 2.843257 1_555
Al0_7 Ti0_6 2.843257 1_555
Al0_7 Ti0_7 2.843257 1_555
