# generated using pymatgen
data_CaMnO2
_symmetry_space_group_name_H-M   'P 1'
_cell_length_a   3.33449500
_cell_length_b   8.59681327
_cell_length_c   8.79489825
_cell_angle_alpha   81.95947510
_cell_angle_beta   86.90523017
_cell_angle_gamma   82.64355295
_symmetry_Int_Tables_number   1
_chemical_formula_structural   CaMnO2
_chemical_formula_sum   'Ca4 Mn4 O8'
_cell_volume   247.41442852
_cell_formula_units_Z   4
loop_
 _symmetry_equiv_pos_site_id
 _symmetry_equiv_pos_as_xyz
  1  'x, y, z'
loop_
 _atom_site_type_symbol
 _atom_site_label
 _atom_site_symmetry_multiplicity
 _atom_site_fract_x
 _atom_site_fract_y
 _atom_site_fract_z
 _atom_site_occupancy
  Ca  Ca0  1  0.19404000  0.19755900  0.94947600  1
  Ca  Ca1  1  0.80596000  0.80244100  0.05052400  1
  Ca  Ca2  1  0.08022700  0.37820600  0.26520700  1
  Ca  Ca3  1  0.91977300  0.62179400  0.73479300  1
  Mn  Mn0  1  0.32152100  0.92683300  0.72821500  1
  Mn  Mn1  1  0.71392800  0.26813200  0.63337600  1
  Mn  Mn2  1  0.28607200  0.73186800  0.36662400  1
  Mn  Mn3  1  0.67847900  0.07316700  0.27178500  1
  O  O0  1  0.23244800  0.95046900  0.19132500  1
  O  O1  1  0.39074100  0.76136500  0.58146600  1
  O  O2  1  0.60925900  0.23863500  0.41853400  1
  O  O3  1  0.76755200  0.04953100  0.80867500  1
  O  O4  1  0.35420700  0.72581600  0.89908500  1
  O  O5  1  0.16170900  0.36789600  0.72449500  1
  O  O6  1  0.64579300  0.27418400  0.10091500  1
  O  O7  1  0.83829100  0.63210400  0.27550500  1
loop_
_geom_bond_atom_site_label_1
_geom_bond_atom_site_label_2
_geom_bond_distance
_geom_bond_site_symmetry_2
Ca0 O6 2.278856 1_556
Ca0 O6 2.285619 1_456
Ca0 O5 2.289802 1_555
Ca0 O3 2.503950 1_455
Ca0 O3 2.524281 1_555
Ca0 O0 2.783639 1_546
Ca1 O4 2.278856 1_554
Ca1 O4 2.285619 1_654
Ca1 O7 2.289802 1_555
Ca1 O0 2.503950 1_655
Ca1 O0 2.524281 1_555
Ca1 O3 2.783639 1_564
Ca2 O7 2.240479 1_455
Ca2 O2 2.350669 1_455
Ca2 O2 2.373224 1_555
Ca2 O6 2.430070 1_455
Ca2 O6 2.465649 1_555
Ca3 O5 2.240479 1_655
Ca3 O1 2.350669 1_655
Ca3 O1 2.373224 1_555
Ca3 O4 2.430070 1_655
Ca3 O4 2.465649 1_555
Mn0 O1 2.034670 1_555
Mn0 O4 2.121213 1_555
Mn0 O3 2.132979 1_565
Mn0 O3 2.143421 1_465
Mn1 O2 1.996068 1_555
Mn1 O5 2.063154 1_655
Mn1 O5 2.096890 1_555
Mn1 O3 2.252505 1_555
Mn2 O1 1.996068 1_555
Mn2 O7 2.063154 1_455
Mn2 O7 2.096890 1_555
Mn2 O0 2.252505 1_555
Mn3 O2 2.034670 1_555
Mn3 O6 2.121213 1_555
Mn3 O0 2.132979 1_545
Mn3 O0 2.143421 1_645
