# generated using pymatgen
data_BaMg6Sb
_symmetry_space_group_name_H-M   'P 1'
_cell_length_a   5.11738100
_cell_length_b   7.19318600
_cell_length_c   12.18852900
_cell_angle_alpha   90.00000000
_cell_angle_beta   90.00000000
_cell_angle_gamma   90.00000000
_symmetry_Int_Tables_number   1
_chemical_formula_structural   BaMg6Sb
_chemical_formula_sum   'Ba2 Mg12 Sb2'
_cell_volume   448.66308442
_cell_formula_units_Z   2
loop_
 _symmetry_equiv_pos_site_id
 _symmetry_equiv_pos_as_xyz
  1  'x, y, z'
loop_
 _atom_site_type_symbol
 _atom_site_label
 _atom_site_symmetry_multiplicity
 _atom_site_fract_x
 _atom_site_fract_y
 _atom_site_fract_z
 _atom_site_occupancy
  Ba  Ba0  1  0.00000000  0.50000000  0.32839100  1
  Ba  Ba1  1  0.00000000  0.00000000  0.82839100  1
  Mg  Mg0  1  0.00000000  0.25313500  0.07803400  1
  Mg  Mg1  1  0.00000000  0.74686500  0.07803400  1
  Mg  Mg2  1  0.00000000  0.50000000  0.84189300  1
  Mg  Mg3  1  0.50000000  0.28752700  0.93071800  1
  Mg  Mg4  1  0.50000000  0.71247300  0.93071800  1
  Mg  Mg5  1  0.50000000  0.50000000  0.66921300  1
  Mg  Mg6  1  0.00000000  0.75313500  0.57803400  1
  Mg  Mg7  1  0.00000000  0.24686500  0.57803400  1
  Mg  Mg8  1  0.00000000  0.00000000  0.34189300  1
  Mg  Mg9  1  0.50000000  0.78752700  0.43071800  1
  Mg  Mg10  1  0.50000000  0.21247300  0.43071800  1
  Mg  Mg11  1  0.50000000  0.00000000  0.16921300  1
  Sb  Sb0  1  0.50000000  0.50000000  0.14299900  1
  Sb  Sb1  1  0.50000000  0.00000000  0.64299900  1
loop_
_geom_bond_atom_site_label_1
_geom_bond_atom_site_label_2
_geom_bond_distance
_geom_bond_site_symmetry_2
Ba0 Sb0 3.413640 1_455
Ba0 Sb0 3.413640 1_555
Ba0 Mg9 3.518528 1_455
Ba0 Mg9 3.518528 1_555
Ba0 Mg10 3.518528 1_455
Ba0 Mg10 3.518528 1_555
Ba0 Mg1 3.530556 1_555
Ba0 Mg0 3.530556 1_555
Ba0 Mg6 3.545984 1_555
Ba0 Mg7 3.545984 1_555
Ba0 Mg8 3.600356 1_555
Ba0 Mg8 3.600356 1_565
Ba1 Sb1 3.413640 1_555
Ba1 Sb1 3.413640 1_455
Ba1 Mg4 3.518528 1_545
Ba1 Mg3 3.518528 1_455
Ba1 Mg4 3.518528 1_445
Ba1 Mg3 3.518528 1_555
Ba1 Mg7 3.530556 1_555
Ba1 Mg6 3.530556 1_545
Ba1 Mg1 3.545984 1_546
Ba1 Mg0 3.545984 1_556
Ba1 Mg2 3.600356 1_555
Ba1 Mg2 3.600356 1_545
Mg0 Sb0 3.213590 1_455
Mg0 Sb0 3.213590 1_555
Mg0 Mg11 3.331284 1_555
Mg0 Mg11 3.331284 1_455
Mg0 Mg2 3.381919 1_554
Mg1 Sb0 3.213590 1_455
Mg1 Sb0 3.213590 1_555
Mg1 Mg11 3.331284 1_465
Mg1 Mg11 3.331284 1_565
Mg1 Mg2 3.381919 1_554
Mg2 Mg3 3.170946 1_455
Mg2 Mg4 3.170946 1_455
Mg2 Mg3 3.170946 1_555
Mg2 Mg4 3.170946 1_555
Mg2 Mg5 3.313114 1_555
Mg2 Mg5 3.313114 1_455
Mg3 Sb0 3.005076 1_556
Mg4 Sb0 3.005076 1_556
Mg5 Mg6 3.331284 1_655
Mg5 Mg7 3.331284 1_555
Mg5 Mg7 3.331284 1_655
Mg5 Mg6 3.331284 1_555
Mg6 Sb1 3.213590 1_465
Mg6 Sb1 3.213590 1_565
Mg6 Mg8 3.381919 1_565
Mg7 Sb1 3.213590 1_455
Mg7 Sb1 3.213590 1_555
Mg7 Mg8 3.381919 1_555
Mg8 Mg9 3.170946 1_445
Mg8 Mg9 3.170946 1_545
Mg9 Sb1 3.005076 1_565
Mg10 Sb1 3.005076 1_555
Mg10 Mg8 3.170946 1_555
Mg10 Mg8 3.170946 1_655
Mg11 Mg8 3.313114 1_555
Mg11 Mg8 3.313114 1_655
