# generated using pymatgen
data_NaAg3
_symmetry_space_group_name_H-M   'P 1'
_cell_length_a   4.24419400
_cell_length_b   4.24419400
_cell_length_c   4.24419400
_cell_angle_alpha   90.00000000
_cell_angle_beta   90.00000000
_cell_angle_gamma   90.00000000
_symmetry_Int_Tables_number   1
_chemical_formula_structural   NaAg3
_chemical_formula_sum   'Na1 Ag3'
_cell_volume   76.45144198
_cell_formula_units_Z   1
loop_
 _symmetry_equiv_pos_site_id
 _symmetry_equiv_pos_as_xyz
  1  'x, y, z'
loop_
 _atom_site_type_symbol
 _atom_site_label
 _atom_site_symmetry_multiplicity
 _atom_site_fract_x
 _atom_site_fract_y
 _atom_site_fract_z
 _atom_site_occupancy
  Na  Na0  1  0.00000000  0.00000000  0.00000000  1
  Ag  Ag0  1  0.00000000  0.50000000  0.50000000  1
  Ag  Ag1  1  0.50000000  0.00000000  0.50000000  1
  Ag  Ag2  1  0.50000000  0.50000000  0.00000000  1
loop_
_geom_bond_atom_site_label_1
_geom_bond_atom_site_label_2
_geom_bond_distance
_geom_bond_site_symmetry_2
Ag0 Na0 3.001098 1_556
Ag0 Na0 3.001098 1_565
Ag0 Na0 3.001098 1_566
Ag0 Na0 3.001098 1_555
Ag1 Na0 3.001098 1_555
Ag1 Na0 3.001098 1_556
Ag1 Na0 3.001098 1_656
Ag1 Na0 3.001098 1_655
Ag2 Na0 3.001098 1_555
Ag2 Na0 3.001098 1_665
Ag2 Na0 3.001098 1_565
Ag2 Na0 3.001098 1_655
