# generated using pymatgen
data_PdPb
_symmetry_space_group_name_H-M   'P 1'
_cell_length_a   5.63472176
_cell_length_b   5.63596207
_cell_length_c   21.70300778
_cell_angle_alpha   95.84983913
_cell_angle_beta   95.81791493
_cell_angle_gamma   99.59849162
_symmetry_Int_Tables_number   1
_chemical_formula_structural   PdPb
_chemical_formula_sum   'Pd16 Pb16'
_cell_volume   671.09623419
_cell_formula_units_Z   16
loop_
 _symmetry_equiv_pos_site_id
 _symmetry_equiv_pos_as_xyz
  1  'x, y, z'
loop_
 _atom_site_type_symbol
 _atom_site_label
 _atom_site_symmetry_multiplicity
 _atom_site_fract_x
 _atom_site_fract_y
 _atom_site_fract_z
 _atom_site_occupancy
  Pd  Pd0  1  0.47672101  0.23723538  0.29182433  1
  Pd  Pd1  1  0.52327899  0.76276462  0.70817567  1
  Pd  Pd2  1  0.35778994  0.11833566  0.54218132  1
  Pd  Pd3  1  0.64221006  0.88166434  0.45781868  1
  Pd  Pd4  1  0.59439129  0.35939352  0.04433535  1
  Pd  Pd5  1  0.40560871  0.64060648  0.95566565  1
  Pd  Pd6  1  0.06786731  0.80144811  0.29367822  1
  Pd  Pd7  1  0.93213269  0.19855189  0.70632178  1
  Pd  Pd8  1  0.05250461  0.31621660  0.45611370  1
  Pd  Pd9  1  0.94749539  0.68378340  0.54388630  1
  Pd  Pd10  1  0.76354203  0.00122225  0.20859137  1
  Pd  Pd11  1  0.23645797  0.99877775  0.79140863  1
  Pd  Pd12  1  0.17252490  0.43552635  0.20549127  1
  Pd  Pd13  1  0.82747510  0.56447365  0.79450873  1
  Pd  Pd14  1  0.18343762  0.92128179  0.04119302  1
  Pd  Pd15  1  0.81656238  0.07871821  0.95880698  1
  Pb  Pb0  1  0.43514784  0.23324794  0.67970356  1
  Pb  Pb1  1  0.56485216  0.76675206  0.32029644  1
  Pb  Pb2  1  0.31546062  0.11196765  0.92678043  1
  Pb  Pb3  1  0.68453938  0.88803235  0.07321957  1
  Pb  Pb4  1  0.00400520  0.29871915  0.32254162  1
  Pb  Pb5  1  0.99599480  0.70128085  0.67745838  1
  Pb  Pb6  1  0.55586088  0.35347774  0.42983483  1
  Pb  Pb7  1  0.44413912  0.64652226  0.57016517  1
  Pb  Pb8  1  0.11605216  0.82062839  0.42763880  1
  Pb  Pb9  1  0.88394784  0.17937161  0.57236220  1
  Pb  Pb10  1  0.23488113  0.93792986  0.17684545  1
  Pb  Pb11  1  0.76511887  0.06207014  0.82315455  1
  Pb  Pb12  1  0.67472479  0.47084175  0.18055759  1
  Pb  Pb13  1  0.32527521  0.52915825  0.81944241  1
  Pb  Pb14  1  0.12047417  0.41705714  0.06966247  1
  Pb  Pb15  1  0.87952583  0.58294286  0.93033753  1
loop_
_geom_bond_atom_site_label_1
_geom_bond_atom_site_label_2
_geom_bond_distance
_geom_bond_site_symmetry_2
Pd0 Pd12 2.848192 1_555
Pd0 Pd10 2.909188 1_555
Pd0 Pd6 3.081124 1_545
Pd1 Pd13 2.848192 1_555
Pd1 Pd11 2.909188 1_555
Pd1 Pd7 3.081124 1_565
Pd2 Pd8 2.846929 1_555
Pd2 Pd3 2.917165 1_545
Pd2 Pd9 3.080910 1_445
Pd3 Pd9 2.846929 1_555
Pd3 Pd8 3.080910 1_665
Pd4 Pd5 2.848810 1_554
Pd8 Pd9 2.846617 1_455
Pd10 Pd6 2.836192 1_645
Pd10 Pd12 3.080664 1_655
Pd11 Pd7 2.836192 1_465
Pd11 Pd13 3.080664 1_455
Pd12 Pd6 2.844967 1_555
Pd13 Pd7 2.844967 1_555
Pd14 Pd5 2.836893 1_554
Pd14 Pd15 2.905782 1_464
Pd14 Pd4 3.080658 1_565
Pd15 Pd4 2.836907 1_556
Pd15 Pd5 3.080661 1_545
Pb0 Pd7 2.844594 1_555
Pb0 Pd1 2.893179 1_545
Pb0 Pd7 2.928423 1_455
Pb0 Pd1 2.932977 1_555
Pb0 Pd2 2.960681 1_555
Pb0 Pd11 3.096292 1_545
Pb0 Pd13 3.337508 1_555
Pb1 Pd6 2.844594 1_555
Pb1 Pd0 2.893179 1_565
Pb1 Pd6 2.928423 1_655
Pb1 Pd0 2.932977 1_555
Pb1 Pd3 2.960681 1_555
Pb1 Pd10 3.096292 1_565
Pb1 Pd12 3.337508 1_555
Pb2 Pd15 2.880261 1_555
Pb2 Pd5 2.904022 1_545
Pb2 Pd11 2.914605 1_545
Pb2 Pd14 2.919932 1_546
Pb2 Pd5 2.928786 1_555
Pb2 Pd4 2.941914 1_556
Pb2 Pd15 2.944118 1_455
Pb3 Pd14 2.880261 1_555
Pb3 Pd4 2.904015 1_565
Pb3 Pd10 2.914605 1_565
Pb3 Pd15 2.919932 1_564
Pb3 Pd4 2.928784 1_555
Pb3 Pd5 2.941898 1_554
Pb3 Pd14 2.944118 1_655
Pb4 Pd8 2.874065 1_555
Pb4 Pd0 2.877518 1_555
Pb4 Pd6 2.898381 1_545
Pb4 Pd10 2.912212 1_455
Pb4 Pd12 2.931496 1_555
Pb4 Pd0 2.932568 1_455
Pb4 Pd6 2.935526 1_555
Pb5 Pd9 2.874065 1_555
Pb5 Pd1 2.877518 1_555
Pb5 Pd7 2.898381 1_565
Pb5 Pd11 2.912212 1_655
Pb5 Pd13 2.931496 1_555
Pb5 Pd1 2.932568 1_655
Pb5 Pd7 2.935526 1_555
Pb6 Pd8 2.845614 1_655
Pb6 Pd3 2.894353 1_545
Pb6 Pd3 2.925013 1_555
Pb6 Pd8 2.927037 1_555
Pb6 Pd0 2.971755 1_555
Pb6 Pd2 3.108719 1_555
Pb6 Pd9 3.323479 1_555
Pb7 Pd9 2.845614 1_455
Pb7 Pd2 2.894353 1_565
Pb7 Pd2 2.925013 1_555
Pb7 Pd9 2.927037 1_555
Pb7 Pd1 2.971755 1_555
Pb7 Pd3 3.108719 1_555
Pb7 Pd8 3.323479 1_555
Pb8 Pd3 2.879408 1_455
Pb8 Pd6 2.881699 1_555
Pb8 Pd8 2.887588 1_565
Pb8 Pd9 2.915506 1_455
Pb8 Pd2 2.924297 1_565
Pb8 Pd3 2.925301 1_555
Pb8 Pd8 2.942009 1_555
Pb9 Pd2 2.879415 1_655
Pb9 Pd7 2.881677 1_555
Pb9 Pd9 2.887591 1_545
Pb9 Pd8 2.915526 1_655
Pb9 Pd3 2.924313 1_545
Pb9 Pd2 2.925303 1_555
Pb9 Pd9 2.942016 1_555
Pb10 Pd10 2.879648 1_465
Pb10 Pd12 2.896948 1_565
Pb10 Pd14 2.919240 1_555
Pb10 Pd6 2.923462 1_555
Pb10 Pd12 2.932380 1_555
Pb10 Pd0 2.935204 1_565
Pb10 Pd10 2.941935 1_565
Pb11 Pd11 2.879648 1_645
Pb11 Pd13 2.896948 1_545
Pb11 Pd15 2.919240 1_555
Pb11 Pd7 2.923462 1_555
Pb11 Pd13 2.932380 1_555
Pb11 Pd1 2.935204 1_545
Pb11 Pd11 2.941935 1_545
Pb12 Pd12 2.846170 1_655
Pb12 Pd10 2.886905 1_555
Pb12 Pd12 2.912823 1_555
Pb12 Pd4 2.931768 1_555
Pb12 Pd10 2.936772 1_565
Pb12 Pd0 3.084479 1_555
Pb12 Pd6 3.315855 1_655
Pb13 Pd13 2.846170 1_455
Pb13 Pd11 2.886905 1_555
Pb13 Pd13 2.912823 1_555
Pb13 Pd5 2.931789 1_555
Pb13 Pd11 2.936772 1_545
Pb13 Pd1 3.084479 1_555
Pb13 Pd7 3.315855 1_455
Pb14 Pd4 2.844175 1_555
Pb14 Pd14 2.887583 1_545
Pb14 Pd4 2.916675 1_455
Pb14 Pd12 2.922143 1_555
Pb14 Pd14 2.941012 1_555
Pb14 Pd15 3.081814 1_454
Pb14 Pd5 3.325053 1_554
Pb15 Pd5 2.844181 1_555
Pb15 Pd15 2.887583 1_565
Pb15 Pd5 2.916676 1_655
Pb15 Pd13 2.922143 1_555
Pb15 Pd15 2.941012 1_555
Pb15 Pd14 3.081814 1_656
Pb15 Pd4 3.325071 1_556
