# generated using pymatgen
data_Cr(FeTe2)2
_symmetry_space_group_name_H-M   'P 1'
_cell_length_a   3.97988151
_cell_length_b   6.65644290
_cell_length_c   5.71898010
_cell_angle_alpha   89.54376379
_cell_angle_beta   90.03957991
_cell_angle_gamma   89.84454685
_symmetry_Int_Tables_number   1
_chemical_formula_structural   Cr(FeTe2)2
_chemical_formula_sum   'Cr1 Fe2 Te4'
_cell_volume   151.50098664
_cell_formula_units_Z   1
loop_
 _symmetry_equiv_pos_site_id
 _symmetry_equiv_pos_as_xyz
  1  'x, y, z'
loop_
 _atom_site_type_symbol
 _atom_site_label
 _atom_site_symmetry_multiplicity
 _atom_site_fract_x
 _atom_site_fract_y
 _atom_site_fract_z
 _atom_site_occupancy
  Cr  Cr0  1  0.75000000  0.25000000  0.50000000  1
  Fe  Fe0  1  0.25000000  0.75000000  0.50000000  1
  Fe  Fe1  1  0.25000000  0.75000000  0.00000000  1
  Te  Te0  1  0.74879000  0.90697500  0.75621500  1
  Te  Te1  1  0.24948700  0.40834300  0.76388100  1
  Te  Te2  1  0.25051300  0.09165700  0.23611900  1
  Te  Te3  1  0.75121000  0.59302500  0.24378500  1
loop_
_geom_bond_atom_site_label_1
_geom_bond_atom_site_label_2
_geom_bond_distance
_geom_bond_site_symmetry_2
Cr0 Te3 2.703231 1_555
Cr0 Te0 2.703231 1_545
Cr0 Te2 2.715270 1_555
Cr0 Te1 2.715270 1_655
Cr0 Te2 2.715599 1_655
Cr0 Te1 2.715599 1_555
Fe0 Te3 2.685371 1_455
Fe0 Te0 2.685371 1_555
Fe0 Te3 2.689803 1_555
Fe0 Te0 2.689803 1_455
Fe0 Te1 2.719362 1_555
Fe0 Te2 2.719362 1_565
Fe1 Te3 2.639736 1_455
Fe1 Te0 2.639736 1_554
Fe1 Te3 2.641269 1_555
Fe1 Te0 2.641269 1_454
Fe1 Te1 2.654144 1_554
Fe1 Te2 2.654144 1_565
