# generated using pymatgen
data_SrSnHg2
_symmetry_space_group_name_H-M   'P 1'
_cell_length_a   12.85688199
_cell_length_b   12.85688199
_cell_length_c   12.85688199
_cell_angle_alpha   123.35080103
_cell_angle_beta   118.69257070
_cell_angle_gamma   88.28812418
_symmetry_Int_Tables_number   1
_chemical_formula_structural   SrSnHg2
_chemical_formula_sum   'Sr1 Sn1 Hg2'
_cell_volume   1475.67255157
_cell_formula_units_Z   1
loop_
 _symmetry_equiv_pos_site_id
 _symmetry_equiv_pos_as_xyz
  1  'x, y, z'
loop_
 _atom_site_type_symbol
 _atom_site_label
 _atom_site_symmetry_multiplicity
 _atom_site_fract_x
 _atom_site_fract_y
 _atom_site_fract_z
 _atom_site_occupancy
  Sr  Sr0  1  -0.00000000  -0.00000000  -0.00000000  1
  Sn  Sn0  1  -0.00000000  0.50000000  0.50000000  1
  Hg  Hg0  1  0.00000000  0.26745407  0.26745407  1
  Hg  Hg1  1  -0.00000000  0.73254593  0.73254593  1
loop_
_geom_bond_atom_site_label_1
_geom_bond_atom_site_label_2
_geom_bond_distance
_geom_bond_site_symmetry_2
Hg0 Sn0 2.837133 1_555
Hg0 Sr0 3.263023 1_555
Hg1 Sn0 2.837133 1_555
Hg1 Sr0 3.263023 1_566
