# generated using pymatgen
data_Zr5Ga3
_symmetry_space_group_name_H-M   'P 1'
_cell_length_a   8.08999735
_cell_length_b   8.08999597
_cell_length_c   5.76959481
_cell_angle_alpha   90.00001652
_cell_angle_beta   89.99998348
_cell_angle_gamma   119.99999182
_symmetry_Int_Tables_number   1
_chemical_formula_structural   Zr5Ga3
_chemical_formula_sum   'Zr10 Ga6'
_cell_volume   327.01875927
_cell_formula_units_Z   2
loop_
 _symmetry_equiv_pos_site_id
 _symmetry_equiv_pos_as_xyz
  1  'x, y, z'
loop_
 _atom_site_type_symbol
 _atom_site_label
 _atom_site_symmetry_multiplicity
 _atom_site_fract_x
 _atom_site_fract_y
 _atom_site_fract_z
 _atom_site_occupancy
  Zr  Zr0  1  0.66666700  0.33333300  0.00000000  1
  Zr  Zr1  1  0.33333300  0.66666700  0.00000000  1
  Zr  Zr2  1  0.33333300  0.66666700  0.50000000  1
  Zr  Zr3  1  0.66666700  0.33333300  0.50000000  1
  Zr  Zr4  1  0.75733280  0.75733280  0.75000000  1
  Zr  Zr5  1  0.24266720  0.00000000  0.75000000  1
  Zr  Zr6  1  0.00000000  0.24266720  0.75000000  1
  Zr  Zr7  1  0.24266720  0.24266720  0.25000000  1
  Zr  Zr8  1  0.75733280  -0.00000000  0.25000000  1
  Zr  Zr9  1  -0.00000000  0.75733280  0.25000000  1
  Ga  Ga0  1  0.39247542  0.39247542  0.75000000  1
  Ga  Ga1  1  0.60752458  0.00000000  0.75000000  1
  Ga  Ga2  1  0.00000000  0.60752458  0.75000000  1
  Ga  Ga3  1  0.60752458  0.60752458  0.25000000  1
  Ga  Ga4  1  0.39247542  -0.00000000  0.25000000  1
  Ga  Ga5  1  -0.00000000  0.39247542  0.25000000  1
loop_
_geom_bond_atom_site_label_1
_geom_bond_atom_site_label_2
_geom_bond_distance
_geom_bond_site_symmetry_2
Ga0 Zr5 2.775275 1_555
Ga0 Zr6 2.775275 1_555
Ga0 Zr1 2.879447 1_556
Ga0 Zr3 2.879447 1_555
Ga0 Zr2 2.879448 1_555
Ga0 Zr0 2.879448 1_556
Ga0 Zr4 2.951695 1_555
Ga0 Zr7 3.129037 1_556
Ga0 Zr7 3.129037 1_555
Ga1 Zr4 2.775274 1_545
Ga1 Zr6 2.775275 1_655
Ga1 Zr0 2.879440 1_556
Ga1 Zr3 2.879441 1_555
Ga1 Zr2 2.879443 1_545
Ga1 Zr1 2.879444 1_546
Ga1 Zr5 2.951695 1_555
Ga1 Zr8 3.129037 1_555
Ga1 Zr8 3.129038 1_556
Ga2 Zr4 2.775275 1_455
Ga2 Zr5 2.775275 1_565
Ga2 Zr2 2.879441 1_555
Ga2 Zr1 2.879441 1_556
Ga2 Zr0 2.879444 1_456
Ga2 Zr3 2.879444 1_455
Ga2 Zr6 2.951695 1_555
Ga2 Zr9 3.129037 1_556
Ga2 Zr9 3.129038 1_555
Ga3 Zr8 2.775275 1_565
Ga3 Zr9 2.775275 1_655
Ga3 Zr0 2.879447 1_555
Ga3 Zr2 2.879447 1_555
Ga3 Zr3 2.879448 1_555
Ga3 Zr1 2.879448 1_555
Ga3 Zr7 2.951695 1_555
Ga3 Zr4 3.129037 1_554
Ga3 Zr4 3.129037 1_555
Ga4 Zr7 2.775274 1_555
Ga4 Zr9 2.775275 1_545
Ga4 Zr1 2.879440 1_545
Ga4 Zr2 2.879441 1_545
Ga4 Zr3 2.879443 1_555
Ga4 Zr0 2.879444 1_555
Ga4 Zr8 2.951695 1_555
Ga4 Zr5 3.129037 1_555
Ga4 Zr5 3.129038 1_554
Ga5 Zr7 2.775275 1_555
Ga5 Zr8 2.775275 1_455
Ga5 Zr3 2.879441 1_455
Ga5 Zr0 2.879441 1_455
Ga5 Zr1 2.879444 1_555
Ga5 Zr2 2.879444 1_555
Ga5 Zr9 2.951695 1_555
Ga5 Zr6 3.129037 1_554
Ga5 Zr6 3.129038 1_555
