# generated using pymatgen
data_YSnPt2
_symmetry_space_group_name_H-M   'P 1'
_cell_length_a   4.83912099
_cell_length_b   4.83912099
_cell_length_c   8.28684900
_cell_angle_alpha   90.00000000
_cell_angle_beta   90.00000000
_cell_angle_gamma   120.00001359
_symmetry_Int_Tables_number   1
_chemical_formula_structural   YSnPt2
_chemical_formula_sum   'Y2 Sn2 Pt4'
_cell_volume   168.05558876
_cell_formula_units_Z   2
loop_
 _symmetry_equiv_pos_site_id
 _symmetry_equiv_pos_as_xyz
  1  'x, y, z'
loop_
 _atom_site_type_symbol
 _atom_site_label
 _atom_site_symmetry_multiplicity
 _atom_site_fract_x
 _atom_site_fract_y
 _atom_site_fract_z
 _atom_site_occupancy
  Y  Y0  1  0.00000000  0.00000000  0.00000000  1
  Y  Y1  1  0.00000000  0.00000000  0.50000000  1
  Sn  Sn0  1  0.66666700  0.33333300  0.75000000  1
  Sn  Sn1  1  0.33333300  0.66666700  0.25000000  1
  Pt  Pt0  1  0.66666700  0.33333300  0.41290900  1
  Pt  Pt1  1  0.33333300  0.66666700  0.58709100  1
  Pt  Pt2  1  0.33333300  0.66666700  0.91290900  1
  Pt  Pt3  1  0.66666700  0.33333300  0.08709100  1
loop_
_geom_bond_atom_site_label_1
_geom_bond_atom_site_label_2
_geom_bond_distance
_geom_bond_site_symmetry_2
Sn0 Y1 3.478171 1_655
Sn0 Y0 3.478171 1_656
Sn0 Y0 3.478174 1_666
Sn0 Y0 3.478174 1_556
Sn0 Y1 3.478174 1_665
Sn0 Y1 3.478174 1_555
Sn1 Y0 3.478171 1_565
Sn1 Y1 3.478171 1_565
Sn1 Y0 3.478174 1_665
Sn1 Y1 3.478174 1_665
Sn1 Y1 3.478174 1_555
Sn1 Y0 3.478174 1_555
Pt0 Pt3 2.700005 1_555
Pt0 Sn0 2.793422 1_555
Pt0 Y1 2.885576 1_655
Pt0 Y1 2.885579 1_665
Pt0 Y1 2.885579 1_555
Pt0 Sn1 3.102932 1_655
Pt0 Sn1 3.102932 1_545
Pt0 Sn1 3.102940 1_555
Pt1 Pt2 2.700005 1_555
Pt1 Sn1 2.793422 1_555
Pt1 Y1 2.885576 1_565
Pt1 Y1 2.885579 1_665
Pt1 Y1 2.885579 1_555
Pt1 Sn0 3.102932 1_455
Pt1 Sn0 3.102932 1_565
Pt1 Sn0 3.102940 1_555
Pt2 Sn1 2.793422 1_556
Pt2 Y0 2.885576 1_566
Pt2 Y0 2.885579 1_666
Pt2 Y0 2.885579 1_556
Pt2 Sn0 3.102932 1_455
Pt2 Sn0 3.102932 1_565
Pt2 Sn0 3.102940 1_555
Pt3 Sn0 2.793422 1_554
Pt3 Y0 2.885576 1_655
Pt3 Y0 2.885579 1_665
Pt3 Y0 2.885579 1_555
Pt3 Sn1 3.102932 1_655
Pt3 Sn1 3.102932 1_545
Pt3 Sn1 3.102940 1_555
