# generated using pymatgen
data_PtN2
_symmetry_space_group_name_H-M   'P 1'
_cell_length_a   3.22546111
_cell_length_b   3.22546111
_cell_length_c   7.80520700
_cell_angle_alpha   90.00000000
_cell_angle_beta   90.00000000
_cell_angle_gamma   119.99998169
_symmetry_Int_Tables_number   1
_chemical_formula_structural   PtN2
_chemical_formula_sum   'Pt2 N4'
_cell_volume   70.32322129
_cell_formula_units_Z   2
loop_
 _symmetry_equiv_pos_site_id
 _symmetry_equiv_pos_as_xyz
  1  'x, y, z'
loop_
 _atom_site_type_symbol
 _atom_site_label
 _atom_site_symmetry_multiplicity
 _atom_site_fract_x
 _atom_site_fract_y
 _atom_site_fract_z
 _atom_site_occupancy
  Pt  Pt0  1  0.66666700  0.33333300  0.25000000  1
  Pt  Pt1  1  0.33333300  0.66666700  0.75000000  1
  N  N0  1  0.00000000  0.00000000  0.42314300  1
  N  N1  1  0.00000000  0.00000000  0.57685700  1
  N  N2  1  0.00000000  0.00000000  0.92314300  1
  N  N3  1  0.00000000  0.00000000  0.07685700  1
loop_
_geom_bond_atom_site_label_1
_geom_bond_atom_site_label_2
_geom_bond_distance
_geom_bond_site_symmetry_2
N0 N1 1.199770 1_555
N0 Pt0 2.300910 1_455
N0 Pt0 2.300913 1_555
N0 Pt0 2.300913 1_445
N1 Pt1 2.300910 1_545
N1 Pt1 2.300913 1_445
N1 Pt1 2.300913 1_555
N2 N3 1.199770 1_556
N2 Pt1 2.300910 1_545
N2 Pt1 2.300913 1_555
N2 Pt1 2.300913 1_445
N3 Pt0 2.300910 1_455
N3 Pt0 2.300913 1_445
N3 Pt0 2.300913 1_555
