# generated using pymatgen
data_MnAl12Fe
_symmetry_space_group_name_H-M   'P 1'
_cell_length_a   4.89752323
_cell_length_b   4.89752323
_cell_length_c   8.70650745
_cell_angle_alpha   90.00000000
_cell_angle_beta   90.00000000
_cell_angle_gamma   98.55754129
_symmetry_Int_Tables_number   1
_chemical_formula_structural   MnAl12Fe
_chemical_formula_sum   'Mn1 Al12 Fe1'
_cell_volume   206.50702686
_cell_formula_units_Z   1
loop_
 _symmetry_equiv_pos_site_id
 _symmetry_equiv_pos_as_xyz
  1  'x, y, z'
loop_
 _atom_site_type_symbol
 _atom_site_label
 _atom_site_symmetry_multiplicity
 _atom_site_fract_x
 _atom_site_fract_y
 _atom_site_fract_z
 _atom_site_occupancy
  Mn  Mn0  1  0.53746209  0.53746209  0.75000000  1
  Al  Al0  1  0.97218759  0.60570842  0.25000000  1
  Al  Al1  1  0.39296034  0.02693063  0.75000000  1
  Al  Al2  1  0.02693063  0.39296034  0.75000000  1
  Al  Al3  1  0.60570842  0.97218759  0.25000000  1
  Al  Al4  1  0.67605643  0.32572015  0.49909345  1
  Al  Al5  1  0.67605643  0.32572015  0.00090655  1
  Al  Al6  1  0.32572015  0.67605643  0.49909345  1
  Al  Al7  1  0.32572015  0.67605643  0.00090655  1
  Al  Al8  1  0.14574935  0.14574935  0.40077749  1
  Al  Al9  1  0.85458766  0.85458766  0.59958725  1
  Al  Al10  1  0.14574935  0.14574935  0.09922251  1
  Al  Al11  1  0.85458766  0.85458766  0.90041275  1
  Fe  Fe0  1  0.46052374  0.46052374  0.25000000  1
loop_
_geom_bond_atom_site_label_1
_geom_bond_atom_site_label_2
_geom_bond_distance
_geom_bond_site_symmetry_2
Al0 Fe0 2.500955 1_555
Al0 Fe0 2.594535 1_655
Al0 Al6 2.764497 1_655
Al0 Al7 2.764497 1_655
Al0 Al4 2.845219 1_555
Al0 Al5 2.845219 1_555
Al1 Mn0 2.495181 1_555
Al1 Mn0 2.598502 1_545
Al1 Al2 2.717256 1_555
Al1 Al6 2.768593 1_545
Al1 Al7 2.768593 1_546
Al1 Al11 2.847220 1_545
Al1 Al9 2.847220 1_545
Al1 Al4 2.869139 1_555
Al1 Al5 2.869139 1_556
Al1 Al9 2.952495 1_445
Al1 Al11 2.952495 1_445
Al2 Mn0 2.495181 1_555
Al2 Mn0 2.598502 1_455
Al2 Al4 2.768593 1_455
Al2 Al5 2.768593 1_456
Al2 Al9 2.847220 1_455
Al2 Al7 2.869139 1_556
Al2 Al6 2.869139 1_555
Al2 Al9 2.952495 1_445
Al3 Fe0 2.500955 1_555
Al3 Fe0 2.594535 1_565
Al3 Al5 2.764497 1_565
Al3 Al4 2.764497 1_565
Al3 Al6 2.845219 1_555
Al3 Al7 2.845219 1_555
Al4 Fe0 2.541833 1_555
Al4 Mn0 2.552984 1_555
Al4 Al6 2.600754 1_555
Al4 Al8 2.721128 1_655
Al4 Al9 2.730288 1_545
Al4 Al9 2.750433 1_555
Al4 Al8 2.752041 1_555
Al5 Fe0 2.541833 1_555
Al5 Mn0 2.552984 1_554
Al5 Al7 2.600754 1_555
Al6 Fe0 2.541833 1_555
Al6 Mn0 2.552984 1_555
Al6 Al8 2.721128 1_565
Al6 Al9 2.730288 1_455
Al6 Al9 2.750433 1_555
Al6 Al8 2.752041 1_555
Al7 Fe0 2.541833 1_555
Al7 Mn0 2.552984 1_554
Al8 Fe0 2.401910 1_555
Al8 Al9 2.541218 1_445
Al9 Mn0 2.412781 1_555
Al10 Fe0 2.401910 1_555
Al10 Al11 2.541218 1_444
Al10 Al7 2.721128 1_545
Al10 Al5 2.721128 1_455
Al10 Al5 2.752041 1_555
Al10 Al7 2.752041 1_555
Al11 Mn0 2.412781 1_555
Al11 Al9 2.619139 1_555
Al11 Al7 2.730288 1_656
Al11 Al5 2.730288 1_566
Al11 Al7 2.750433 1_556
Al11 Al5 2.750433 1_556
Al11 Al2 2.847220 1_655
Al11 Al2 2.952495 1_665
