# generated using pymatgen
data_Ca6Si6H2O19
_symmetry_space_group_name_H-M   'P 1'
_cell_length_a   7.09382900
_cell_length_b   7.41624385
_cell_length_c   8.80672931
_cell_angle_alpha   102.07132620
_cell_angle_beta   90.09734146
_cell_angle_gamma   90.08336821
_symmetry_Int_Tables_number   1
_chemical_formula_structural   Ca6Si6H2O19
_chemical_formula_sum   'Ca6 Si6 H2 O19'
_cell_volume   453.07189017
_cell_formula_units_Z   1
loop_
 _symmetry_equiv_pos_site_id
 _symmetry_equiv_pos_as_xyz
  1  'x, y, z'
loop_
 _atom_site_type_symbol
 _atom_site_label
 _atom_site_symmetry_multiplicity
 _atom_site_fract_x
 _atom_site_fract_y
 _atom_site_fract_z
 _atom_site_occupancy
  Ca  Ca0  1  0.65583200  0.83785200  0.86607800  1
  Ca  Ca1  1  0.34416800  0.16214800  0.13392200  1
  Ca  Ca2  1  0.50000000  0.00000000  0.50000000  1
  Ca  Ca3  1  0.50000000  0.50000000  0.50000000  1
  Ca  Ca4  1  0.65251700  0.34373100  0.85642500  1
  Ca  Ca5  1  0.34748300  0.65626900  0.14357500  1
  Si  Si0  1  0.94338700  0.04508300  0.68153000  1
  Si  Si1  1  0.05661300  0.95491700  0.31847000  1
  Si  Si2  1  0.22648100  0.36464500  0.78949400  1
  Si  Si3  1  0.77351900  0.63535500  0.21050600  1
  Si  Si4  1  0.22868000  0.78181900  0.78992400  1
  Si  Si5  1  0.77132000  0.21818100  0.21007600  1
  H  H0  1  0.85868300  0.55012800  0.68501000  1
  H  H1  1  0.14131700  0.44987200  0.31499000  1
  O  O0  1  0.72285400  0.55377300  0.70010900  1
  O  O1  1  0.27714600  0.44622700  0.29989100  1
  O  O2  1  0.71840200  0.04878100  0.70186700  1
  O  O3  1  0.28159800  0.95121900  0.29813300  1
  O  O4  1  0.33015300  0.85949400  0.95764300  1
  O  O5  1  0.66984700  0.14050600  0.04235700  1
  O  O6  1  0.32583600  0.36841900  0.95742800  1
  O  O7  1  0.67416400  0.63158100  0.04257200  1
  O  O8  1  0.02487600  0.24722700  0.76888900  1
  O  O9  1  0.97512400  0.75277300  0.23111100  1
  O  O10  1  0.02733200  0.89077100  0.77215700  1
  O  O11  1  0.97266800  0.10922900  0.22784300  1
  O  O12  1  0.37866500  0.78718400  0.65236900  1
  O  O13  1  0.62133500  0.21281600  0.34763100  1
  O  O14  1  0.38046100  0.29164000  0.65455300  1
  O  O15  1  0.61953900  0.70836000  0.34544700  1
  O  O16  1  0.14465300  0.57202500  0.78431100  1
  O  O17  1  0.85534700  0.42797500  0.21568900  1
  O  O18  1  0.00000000  0.00000000  0.50000000  1
loop_
_geom_bond_atom_site_label_1
_geom_bond_atom_site_label_2
_geom_bond_distance
_geom_bond_site_symmetry_2
Ca0 O0 2.349116 1_555
Ca0 O2 2.383651 1_565
Ca0 O7 2.401547 1_556
Ca0 O4 2.442711 1_555
Ca0 O5 2.449363 1_566
Ca0 O12 2.690490 1_555
Ca0 O10 2.814864 1_655
Ca1 O1 2.349116 1_555
Ca1 O3 2.383651 1_545
Ca1 O6 2.401547 1_554
Ca1 O5 2.442711 1_555
Ca1 O4 2.449363 1_544
Ca1 O13 2.690490 1_555
Ca1 O11 2.814864 1_455
Ca2 O3 2.326320 1_545
Ca2 O2 2.326320 1_555
Ca2 O12 2.432752 1_545
Ca2 O13 2.432752 1_555
Ca2 O14 2.455130 1_555
Ca2 O15 2.455130 1_545
Ca3 O0 2.336389 1_555
Ca3 O1 2.336389 1_555
Ca3 O14 2.416464 1_555
Ca3 O15 2.416464 1_555
Ca3 O12 2.427248 1_555
Ca3 O13 2.427248 1_555
Ca4 O0 2.338283 1_555
Ca4 O2 2.369766 1_555
Ca4 O7 2.408881 1_556
Ca4 O5 2.449489 1_556
Ca4 O6 2.476953 1_555
Ca4 O14 2.594884 1_555
Ca4 O8 2.804538 1_655
Ca5 O1 2.338283 1_555
Ca5 O3 2.369766 1_555
Ca5 O6 2.408881 1_554
Ca5 O4 2.449489 1_554
Ca5 O7 2.476953 1_555
Ca5 O15 2.594884 1_555
Ca5 O9 2.804538 1_455
H0 O0 0.972545 1_555
H1 O1 0.972545 1_555
O2 Si0 1.605960 1_555
O3 Si1 1.605960 1_555
O4 Si4 1.634317 1_555
O5 Si5 1.634317 1_555
O6 Si2 1.632150 1_555
O7 Si3 1.632150 1_555
O8 Si0 1.639228 1_455
O8 Si2 1.663117 1_555
O9 Si1 1.639228 1_655
O9 Si3 1.663117 1_555
O10 Si0 1.638202 1_465
O10 Si4 1.665224 1_555
O11 Si1 1.638202 1_645
O11 Si5 1.665224 1_555
O12 Si4 1.620352 1_555
O13 Si5 1.620352 1_555
O14 Si2 1.623440 1_555
O15 Si3 1.623440 1_555
O16 Si2 1.654173 1_555
O16 Si4 1.656367 1_555
O17 Si3 1.654173 1_555
O17 Si5 1.656367 1_555
O18 Si1 1.614892 1_545
O18 Si0 1.614892 1_455
