# generated using pymatgen
data_UH16C3N4O11
_symmetry_space_group_name_H-M   'P 1'
_cell_length_a   7.26835292
_cell_length_b   7.26835292
_cell_length_c   12.82560340
_cell_angle_alpha   86.55383372
_cell_angle_beta   86.55383372
_cell_angle_gamma   81.07139130
_symmetry_Int_Tables_number   1
_chemical_formula_structural   UH16C3N4O11
_chemical_formula_sum   'U2 H32 C6 N8 O22'
_cell_volume   667.25592362
_cell_formula_units_Z   2
loop_
 _symmetry_equiv_pos_site_id
 _symmetry_equiv_pos_as_xyz
  1  'x, y, z'
loop_
 _atom_site_type_symbol
 _atom_site_label
 _atom_site_symmetry_multiplicity
 _atom_site_fract_x
 _atom_site_fract_y
 _atom_site_fract_z
 _atom_site_occupancy
  U  U0  1  0.80700700  0.19299300  0.25000000  1
  U  U1  1  0.19299300  0.80700700  0.75000000  1
  H  H0  1  0.91426000  0.73816600  0.41061100  1
  H  H1  1  0.26183400  0.08574000  0.08938900  1
  H  H2  1  0.08574000  0.26183400  0.58938900  1
  H  H3  1  0.73816600  0.91426000  0.91061100  1
  H  H4  1  0.94402100  0.72198000  0.27749500  1
  H  H5  1  0.27802000  0.05597900  0.22250500  1
  H  H6  1  0.05597900  0.27802000  0.72250500  1
  H  H7  1  0.72198000  0.94402100  0.77749500  1
  H  H8  1  0.95992300  0.52363300  0.36119200  1
  H  H9  1  0.47636700  0.04007700  0.13880800  1
  H  H10  1  0.04007700  0.47636700  0.63880800  1
  H  H11  1  0.52363300  0.95992300  0.86119200  1
  H  H12  1  0.12560200  0.66365200  0.34872600  1
  H  H13  1  0.33634800  0.87439800  0.15127400  1
  H  H14  1  0.87439800  0.33634800  0.65127400  1
  H  H15  1  0.66365200  0.12560200  0.84872600  1
  H  H16  1  0.08116000  0.64859800  0.03905100  1
  H  H17  1  0.35140200  0.91884000  0.46094900  1
  H  H18  1  0.91884000  0.35140200  0.96094900  1
  H  H19  1  0.64859800  0.08116000  0.53905100  1
  H  H20  1  0.19520500  0.42797300  0.02414800  1
  H  H21  1  0.57202700  0.80479500  0.47585200  1
  H  H22  1  0.80479500  0.57202700  0.97585200  1
  H  H23  1  0.42797300  0.19520500  0.52414800  1
  H  H24  1  0.27376800  0.56645400  0.10869600  1
  H  H25  1  0.43354600  0.72623200  0.39130400  1
  H  H26  1  0.72623200  0.43354600  0.89130400  1
  H  H27  1  0.56645400  0.27376800  0.60869600  1
  H  H28  1  0.29457900  0.61024200  0.97710200  1
  H  H29  1  0.38975800  0.70542100  0.52289800  1
  H  H30  1  0.70542100  0.38975800  0.02289800  1
  H  H31  1  0.61024200  0.29457900  0.47710200  1
  C  C0  1  0.50105900  0.49894100  0.25000000  1
  C  C1  1  0.49894100  0.50105900  0.75000000  1
  C  C2  1  0.08711300  0.16426000  0.40685300  1
  C  C3  1  0.83574000  0.91288700  0.09314700  1
  C  C4  1  0.91288700  0.83574000  0.59314700  1
  C  C5  1  0.16426000  0.08711300  0.90685300  1
  N  N0  1  0.98434600  0.66107200  0.34979400  1
  N  N1  1  0.33892800  0.01565400  0.15020600  1
  N  N2  1  0.01565400  0.33892800  0.65020600  1
  N  N3  1  0.66107200  0.98434600  0.84979400  1
  N  N4  1  0.21185900  0.56375000  0.03805800  1
  N  N5  1  0.43625000  0.78814100  0.46194200  1
  N  N6  1  0.78814100  0.43625000  0.96194200  1
  N  N7  1  0.56375000  0.21185900  0.53805800  1
  O  O0  1  0.54089200  0.39021000  0.17095800  1
  O  O1  1  0.60979000  0.45910800  0.32904200  1
  O  O2  1  0.45910800  0.60979000  0.82904200  1
  O  O3  1  0.39021000  0.54089200  0.67095800  1
  O  O4  1  0.93708100  0.29087400  0.40815400  1
  O  O5  1  0.70912600  0.06291900  0.09184600  1
  O  O6  1  0.06291900  0.70912600  0.59184600  1
  O  O7  1  0.29087400  0.93708100  0.90815400  1
  O  O8  1  0.10221000  0.05042800  0.33069100  1
  O  O9  1  0.94957200  0.89779000  0.16930900  1
  O  O10  1  0.89779000  0.94957200  0.66930900  1
  O  O11  1  0.05042800  0.10221000  0.83069100  1
  O  O12  1  0.36581500  0.63418500  0.25000000  1
  O  O13  1  0.63418500  0.36581500  0.75000000  1
  O  O14  1  0.20751200  0.15051700  0.47656400  1
  O  O15  1  0.84948300  0.79248800  0.02343600  1
  O  O16  1  0.79248800  0.84948300  0.52343600  1
  O  O17  1  0.15051700  0.20751200  0.97656400  1
  O  O18  1  0.95260400  0.34159800  0.17420900  1
  O  O19  1  0.65840200  0.04739600  0.32579100  1
  O  O20  1  0.04739600  0.65840200  0.82579100  1
  O  O21  1  0.34159800  0.95260400  0.67420900  1
loop_
_geom_bond_atom_site_label_1
_geom_bond_atom_site_label_2
_geom_bond_distance
_geom_bond_site_symmetry_2
H0 N0 1.047894 1_555
H1 N1 1.047894 1_555
H2 N2 1.047894 1_555
H3 N3 1.047894 1_555
H4 N0 1.041528 1_555
H5 N1 1.041528 1_555
H6 N2 1.041528 1_555
H7 N3 1.041528 1_555
H8 N0 1.041711 1_555
H9 N1 1.041711 1_555
H10 N2 1.041711 1_555
H11 N3 1.041711 1_555
H12 N0 1.029030 1_455
H13 N1 1.029030 1_565
H14 N2 1.029030 1_655
H15 N3 1.029030 1_545
H16 N4 1.049077 1_555
H17 N5 1.049077 1_555
H18 N6 1.049077 1_555
H19 N7 1.049077 1_555
H20 N4 1.039830 1_555
H21 N5 1.039830 1_555
H22 N6 1.039830 1_555
H23 N7 1.039830 1_555
H24 N4 1.038052 1_555
H25 N5 1.038052 1_555
H26 N6 1.038052 1_555
H27 N7 1.038052 1_555
H28 N4 1.030379 1_556
H29 N5 1.030379 1_555
H30 N6 1.030379 1_554
H31 N7 1.030379 1_555
C0 O12 1.277747 1_555
C0 O0 1.313815 1_555
C0 O1 1.313815 1_555
C1 O13 1.277747 1_555
C1 O2 1.313815 1_555
C1 O3 1.313815 1_555
C2 O14 1.277249 1_555
C2 O8 1.306470 1_555
C2 O4 1.313200 1_455
C3 O15 1.277249 1_555
C3 O9 1.306470 1_555
C3 O5 1.313200 1_565
C4 O16 1.277249 1_555
C4 O10 1.306470 1_555
C4 O6 1.313200 1_655
C5 O17 1.277249 1_555
C5 O11 1.306470 1_555
C5 O7 1.313200 1_545
O0 U0 2.454398 1_555
O1 U0 2.454398 1_555
O2 U1 2.454398 1_555
O3 U1 2.454398 1_555
O4 U0 2.475333 1_555
O5 U0 2.475333 1_555
O6 U1 2.475333 1_555
O7 U1 2.475333 1_555
O8 U0 2.489265 1_455
O9 U0 2.489265 1_565
O10 U1 2.489265 1_655
O11 U1 2.489265 1_545
O18 U0 1.826570 1_555
O19 U0 1.826570 1_555
O20 U1 1.826570 1_555
O21 U1 1.826570 1_555
