# generated using pymatgen
data_SmGeRu
_symmetry_space_group_name_H-M   'P 1'
_cell_length_a   4.30178986
_cell_length_b   4.30178986
_cell_length_c   6.69319899
_cell_angle_alpha   90.00000000
_cell_angle_beta   90.00000000
_cell_angle_gamma   90.00000000
_symmetry_Int_Tables_number   1
_chemical_formula_structural   SmGeRu
_chemical_formula_sum   'Sm2 Ge2 Ru2'
_cell_volume   123.86029781
_cell_formula_units_Z   2
loop_
 _symmetry_equiv_pos_site_id
 _symmetry_equiv_pos_as_xyz
  1  'x, y, z'
loop_
 _atom_site_type_symbol
 _atom_site_label
 _atom_site_symmetry_multiplicity
 _atom_site_fract_x
 _atom_site_fract_y
 _atom_site_fract_z
 _atom_site_occupancy
  Sm  Sm0  1  0.75000000  0.75000000  0.30920278  1
  Sm  Sm1  1  0.25000000  0.25000000  0.69079722  1
  Ge  Ge0  1  0.75000000  0.75000000  0.80275668  1
  Ge  Ge1  1  0.25000000  0.25000000  0.19724332  1
  Ru  Ru0  1  0.75000000  0.25000000  0.00000000  1
  Ru  Ru1  1  0.25000000  0.75000000  0.00000000  1
loop_
_geom_bond_atom_site_label_1
_geom_bond_atom_site_label_2
_geom_bond_distance
_geom_bond_site_symmetry_2
Ge0 Ru1 2.523737 1_656
Ge0 Ru1 2.523737 1_556
Ge0 Ru0 2.523737 1_566
Ge0 Ru0 2.523737 1_556
Ge0 Sm1 3.132770 1_565
Ge0 Sm1 3.132770 1_655
Ge0 Sm1 3.132770 1_665
Ge0 Sm1 3.132770 1_555
Ge0 Sm0 3.303454 1_555
Ge1 Ru0 2.523737 1_455
Ge1 Ru0 2.523737 1_555
Ge1 Ru1 2.523737 1_545
Ge1 Ru1 2.523737 1_555
Ge1 Sm0 3.132770 1_545
Ge1 Sm0 3.132770 1_455
Ge1 Sm0 3.132770 1_555
Ge1 Sm0 3.132770 1_445
Ge1 Sm1 3.303454 1_555
Ru0 Sm0 2.984863 1_555
Ru0 Sm0 2.984863 1_545
Ru0 Sm1 2.984863 1_554
Ru0 Sm1 2.984863 1_654
Ru1 Sm1 2.984863 1_564
Ru1 Sm0 2.984863 1_455
Ru1 Sm0 2.984863 1_555
Ru1 Sm1 2.984863 1_554
