# generated using pymatgen
data_YbAlNi
_symmetry_space_group_name_H-M   'P 1'
_cell_length_a   3.83926554
_cell_length_b   6.80387293
_cell_length_c   6.80387293
_cell_angle_alpha   119.99999553
_cell_angle_beta   90.00000000
_cell_angle_gamma   90.00000000
_symmetry_Int_Tables_number   1
_chemical_formula_structural   YbAlNi
_chemical_formula_sum   'Yb3 Al3 Ni3'
_cell_volume   153.91863023
_cell_formula_units_Z   3
loop_
 _symmetry_equiv_pos_site_id
 _symmetry_equiv_pos_as_xyz
  1  'x, y, z'
loop_
 _atom_site_type_symbol
 _atom_site_label
 _atom_site_symmetry_multiplicity
 _atom_site_fract_x
 _atom_site_fract_y
 _atom_site_fract_z
 _atom_site_occupancy
  Yb  Yb0  1  0.50000000  0.58396972  0.58396972  1
  Yb  Yb1  1  0.50000000  1.00000000  0.41603028  1
  Yb  Yb2  1  0.50000000  0.41603028  1.00000000  1
  Al  Al0  1  0.00000000  0.23654351  0.23654351  1
  Al  Al1  1  0.00000000  1.00000000  0.76345649  1
  Al  Al2  1  0.00000000  0.76345649  1.00000000  1
  Ni  Ni0  1  0.00000000  0.66666700  0.33333300  1
  Ni  Ni1  1  0.00000000  0.33333300  0.66666700  1
  Ni  Ni2  1  0.50000000  0.00000000  0.00000000  1
loop_
_geom_bond_atom_site_label_1
_geom_bond_atom_site_label_2
_geom_bond_distance
_geom_bond_site_symmetry_2
Al0 Ni2 2.505034 1_555
Al0 Ni2 2.505034 1_455
Al0 Ni0 2.659113 1_555
Al0 Ni1 2.659113 1_555
Al0 Al2 2.787583 1_544
Al0 Al1 2.787583 1_544
Al0 Yb0 3.045119 1_455
Al0 Yb0 3.045119 1_555
Al0 Yb1 3.119609 1_445
Al0 Yb2 3.119609 1_454
Al0 Yb2 3.119609 1_554
Al0 Yb1 3.119609 1_545
Al1 Ni2 2.505034 1_466
Al1 Ni2 2.505034 1_566
Al1 Ni1 2.659107 1_565
Al1 Ni0 2.659111 1_555
Al1 Al2 2.787583 1_555
Al1 Yb1 3.045119 1_455
Al1 Yb1 3.045119 1_555
Al1 Yb0 3.119609 1_455
Al1 Yb0 3.119609 1_555
Al1 Yb2 3.119609 1_465
Al1 Yb2 3.119609 1_565
Al2 Ni2 2.505034 1_466
Al2 Ni2 2.505034 1_566
Al2 Ni0 2.659107 1_556
Al2 Ni1 2.659111 1_555
Al2 Yb2 3.045119 1_555
Al2 Yb2 3.045119 1_455
Al2 Yb0 3.119609 1_455
Al2 Yb0 3.119609 1_555
Al2 Yb1 3.119609 1_456
Al2 Yb1 3.119609 1_556
Ni0 Yb1 2.805193 1_455
Ni0 Yb1 2.805193 1_555
Ni0 Yb2 2.805195 1_454
Ni0 Yb2 2.805195 1_554
Ni0 Yb0 2.805198 1_555
Ni0 Yb0 2.805198 1_455
Ni1 Yb2 2.805193 1_455
Ni1 Yb2 2.805193 1_555
Ni1 Yb1 2.805195 1_545
Ni1 Yb1 2.805195 1_445
Ni1 Yb0 2.805198 1_555
Ni1 Yb0 2.805198 1_455
Ni2 Yb2 2.830617 1_554
Ni2 Yb1 2.830617 1_545
Ni2 Yb0 2.830617 1_544
