# generated using pymatgen
data_Nd4In21Pd10
_symmetry_space_group_name_H-M   'P 1'
_cell_length_a   11.90520184
_cell_length_b   11.90520184
_cell_length_c   17.48899101
_cell_angle_alpha   56.89156468
_cell_angle_beta   56.89156468
_cell_angle_gamma   21.97591229
_symmetry_Int_Tables_number   1
_chemical_formula_structural   Nd4In21Pd10
_chemical_formula_sum   'Nd4 In21 Pd10'
_cell_volume   770.74153581
_cell_formula_units_Z   1
loop_
 _symmetry_equiv_pos_site_id
 _symmetry_equiv_pos_as_xyz
  1  'x, y, z'
loop_
 _atom_site_type_symbol
 _atom_site_label
 _atom_site_symmetry_multiplicity
 _atom_site_fract_x
 _atom_site_fract_y
 _atom_site_fract_z
 _atom_site_occupancy
  Nd  Nd0  1  0.22972900  0.22972900  0.67384300  1
  Nd  Nd1  1  0.77027100  0.77027100  0.32615700  1
  Nd  Nd2  1  0.87822200  0.87822200  0.83306500  1
  Nd  Nd3  1  0.12177800  0.12177800  0.16693500  1
  In  In0  1  0.50000000  0.50000000  0.00000000  1
  In  In1  1  0.11514700  0.11514700  0.94931600  1
  In  In2  1  0.88485300  0.88485300  0.05068400  1
  In  In3  1  0.45785200  0.45785200  0.86775900  1
  In  In4  1  0.54214800  0.54214800  0.13224100  1
  In  In5  1  0.06396500  0.06396500  0.70286600  1
  In  In6  1  0.93603500  0.93603500  0.29713400  1
  In  In7  1  0.36855300  0.36855300  0.70004200  1
  In  In8  1  0.63144700  0.63144700  0.29995800  1
  In  In9  1  0.98913800  0.98913800  0.59389700  1
  In  In10  1  0.01086200  0.01086200  0.40610300  1
  In  In11  1  0.74897900  0.74897900  0.79456500  1
  In  In12  1  0.25102100  0.25102100  0.20543500  1
  In  In13  1  0.61583000  0.61583000  0.79572300  1
  In  In14  1  0.38417000  0.38417000  0.20427700  1
  In  In15  1  0.60145300  0.60145300  0.50371500  1
  In  In16  1  0.39854700  0.39854700  0.49628500  1
  In  In17  1  0.20189500  0.20189500  0.49555300  1
  In  In18  1  0.79810500  0.79810500  0.50444700  1
  In  In19  1  0.70108000  0.70108000  0.99946300  1
  In  In20  1  0.29892000  0.29892000  0.00053700  1
  Pd  Pd0  1  0.25014200  0.25014200  0.88537800  1
  Pd  Pd1  1  0.74985800  0.74985800  0.11462200  1
  Pd  Pd2  1  0.02521100  0.02521100  0.88792600  1
  Pd  Pd3  1  0.97478900  0.97478900  0.11207400  1
  Pd  Pd4  1  0.65367700  0.65367700  0.61414300  1
  Pd  Pd5  1  0.34632300  0.34632300  0.38585700  1
  Pd  Pd6  1  0.86198000  0.86198000  0.60725900  1
  Pd  Pd7  1  0.13802000  0.13802000  0.39274100  1
  Pd  Pd8  1  0.49418200  0.49418200  0.68737700  1
  Pd  Pd9  1  0.50581800  0.50581800  0.31262300  1
loop_
_geom_bond_atom_site_label_1
_geom_bond_atom_site_label_2
_geom_bond_distance
_geom_bond_site_symmetry_2
Nd0 Pd4 3.385952 1_455
Nd0 Pd4 3.385952 1_545
Nd0 Pd6 3.472011 1_545
Nd0 Pd6 3.472011 1_455
Nd1 Pd5 3.385952 1_565
Nd1 Pd5 3.385952 1_655
Nd1 Pd7 3.472011 1_655
Nd1 Pd7 3.472011 1_565
Nd2 Pd8 3.361870 1_655
Nd2 Pd8 3.361870 1_565
Nd2 Pd0 3.449709 1_565
Nd2 Pd0 3.449709 1_655
Nd3 Pd9 3.361870 1_455
Nd3 Pd9 3.361870 1_545
Nd3 Pd1 3.449709 1_545
Nd3 Pd1 3.449709 1_455
In0 Pd3 2.837749 1_545
In0 Pd3 2.837749 1_455
In0 Pd2 2.837749 1_564
In0 Pd2 2.837749 1_654
In0 In4 2.975733 1_555
In0 In3 2.975733 1_554
In0 In14 3.054417 1_555
In0 In13 3.054417 1_554
In0 In1 3.244024 1_654
In0 In1 3.244024 1_564
In0 In2 3.244024 1_455
In0 In2 3.244024 1_545
In1 Pd0 2.698174 1_555
In1 Pd2 2.843142 1_555
In1 Pd3 2.910869 1_446
In1 In19 3.451531 1_455
In1 In19 3.451531 1_545
In1 In4 3.495782 1_546
In1 In4 3.495782 1_456
In1 In13 3.509591 1_455
In1 In13 3.509591 1_545
In1 Nd3 3.894308 1_556
In2 Pd1 2.698174 1_555
In2 Pd3 2.843142 1_555
In2 Pd2 2.910869 1_664
In2 In20 3.451531 1_655
In2 In20 3.451531 1_565
In2 In3 3.495782 1_654
In2 In3 3.495782 1_564
In2 Nd2 3.894308 1_554
In3 Pd8 2.773449 1_555
In3 Pd2 2.893154 1_565
In3 Pd2 2.893154 1_655
In3 Nd2 3.199743 1_455
In3 Nd2 3.199743 1_545
In3 In5 3.414293 1_565
In3 In5 3.414293 1_655
In4 Pd9 2.773449 1_555
In4 Pd3 2.893154 1_545
In4 Pd3 2.893154 1_455
In4 Nd3 3.199743 1_655
In4 Nd3 3.199743 1_565
In4 In6 3.414293 1_455
In4 In6 3.414293 1_545
In5 Pd2 2.834247 1_555
In5 Pd4 2.886683 1_455
In5 Pd4 2.886683 1_545
In5 Pd8 2.893903 1_455
In5 Pd8 2.893903 1_545
In5 In9 3.224939 1_445
In5 Nd2 3.610036 1_445
In5 Nd0 3.616792 1_555
In6 Pd3 2.834247 1_555
In6 Pd5 2.886683 1_655
In6 Pd5 2.886683 1_565
In6 Pd9 2.893903 1_565
In6 Pd9 2.893903 1_655
In6 Nd3 3.610036 1_665
In6 Nd1 3.616792 1_555
In7 Pd8 2.819205 1_555
In7 Pd6 2.843103 1_545
In7 Pd6 2.843103 1_455
In7 Pd0 2.860601 1_555
In7 In9 3.273631 1_455
In7 In9 3.273631 1_545
In7 Nd2 3.346283 1_545
In7 Nd2 3.346283 1_455
In7 Nd0 3.520455 1_555
In8 Pd9 2.819205 1_555
In8 Pd7 2.843103 1_565
In8 Pd7 2.843103 1_655
In8 Pd1 2.860601 1_555
In8 Nd3 3.346283 1_655
In8 Nd3 3.346283 1_565
In8 Nd1 3.520455 1_555
In9 Pd8 2.837306 1_565
In9 Pd8 2.837306 1_655
In9 Pd6 2.848773 1_555
In9 Pd7 3.295812 1_665
In9 Nd2 3.485579 1_555
In10 Pd9 2.837306 1_455
In10 Pd9 2.837306 1_545
In10 Pd7 2.848773 1_555
In10 In9 3.031294 1_445
In10 In16 3.149721 1_455
In10 In16 3.149721 1_545
In10 In6 3.224939 1_445
In10 In8 3.273631 1_455
In10 In8 3.273631 1_545
In10 Pd6 3.295812 1_445
In10 Nd3 3.485579 1_555
In11 Pd0 2.778552 1_655
In11 Pd0 2.778552 1_565
In11 Pd6 2.842262 1_555
In11 In13 3.100987 1_555
In11 In19 3.103208 1_555
In11 In7 3.248337 1_655
In11 In7 3.248337 1_565
In11 Nd0 3.296415 1_655
In11 Nd0 3.296415 1_565
In11 Nd2 3.441349 1_555
In12 Pd1 2.778552 1_455
In12 Pd1 2.778552 1_545
In12 Pd7 2.842262 1_555
In12 In14 3.100987 1_555
In12 In20 3.103208 1_555
In12 In8 3.248337 1_545
In12 In8 3.248337 1_455
In12 Nd1 3.296415 1_455
In12 Nd1 3.296415 1_545
In12 Nd3 3.441349 1_555
In13 Pd4 2.782268 1_555
In13 Pd2 2.904274 1_565
In13 Pd2 2.904274 1_655
In13 In3 3.169413 1_555
In13 Nd0 3.234982 1_565
In13 Nd0 3.234982 1_655
In13 In5 3.383332 1_655
In13 In5 3.383332 1_565
In14 Pd5 2.782268 1_555
In14 Pd3 2.904274 1_545
In14 Pd3 2.904274 1_455
In14 In4 3.169413 1_555
In14 Nd1 3.234982 1_455
In14 Nd1 3.234982 1_545
In14 In6 3.383332 1_455
In14 In6 3.383332 1_545
In14 In2 3.509591 1_455
In14 In2 3.509591 1_545
In15 Pd8 2.764324 1_555
In15 Pd7 2.792916 1_565
In15 Pd7 2.792916 1_655
In15 Pd4 2.800604 1_555
In15 In9 3.149721 1_455
In15 In9 3.149721 1_545
In15 In17 3.210658 1_565
In15 In17 3.210658 1_655
In15 In8 3.226429 1_555
In15 Nd1 3.402526 1_555
In16 Pd9 2.764324 1_555
In16 Pd6 2.792916 1_455
In16 Pd6 2.792916 1_545
In16 Pd5 2.800604 1_555
In16 In18 3.210658 1_545
In16 In18 3.210658 1_455
In16 In7 3.226429 1_555
In16 Nd0 3.402526 1_555
In17 Pd5 2.805266 1_555
In17 Pd4 2.849488 1_455
In17 Pd4 2.849488 1_545
In17 Pd7 2.906829 1_555
In17 In5 3.245204 1_555
In17 In18 3.258785 1_545
In17 In18 3.258785 1_455
In17 Nd1 3.348288 1_455
In17 Nd1 3.348288 1_545
In17 Nd0 3.521851 1_555
In18 Pd4 2.805266 1_555
In18 Pd5 2.849488 1_565
In18 Pd5 2.849488 1_655
In18 Pd6 2.906829 1_555
In18 In6 3.245204 1_555
In18 Nd0 3.348288 1_565
In18 Nd0 3.348288 1_655
In18 Nd1 3.521851 1_555
In19 Pd0 2.810488 1_655
In19 Pd0 2.810488 1_565
In19 Pd1 2.812745 1_556
In19 In4 3.097190 1_556
In19 In20 3.229114 1_566
In19 In20 3.229114 1_656
In19 Nd3 3.334931 1_656
In19 Nd3 3.334931 1_566
In19 Nd2 3.493336 1_555
In20 Pd1 2.810488 1_455
In20 Pd1 2.810488 1_545
In20 Pd0 2.812745 1_554
In20 In3 3.097190 1_554
In20 Nd2 3.334931 1_454
In20 Nd2 3.334931 1_544
In20 Nd3 3.493336 1_555
Pd4 Pd8 3.197639 1_555
Pd5 Pd9 3.197639 1_555
