# generated using pymatgen
data_Rb2BeNi2F14
_symmetry_space_group_name_H-M   'P 1'
_cell_length_a   6.13216361
_cell_length_b   9.07841140
_cell_length_c   12.83345500
_cell_angle_alpha   90.00000000
_cell_angle_beta   90.00000000
_cell_angle_gamma   94.52946034
_symmetry_Int_Tables_number   1
_chemical_formula_structural   Rb2BeNi2F14
_chemical_formula_sum   'Rb4 Be2 Ni4 F28'
_cell_volume   712.21103762
_cell_formula_units_Z   2
loop_
 _symmetry_equiv_pos_site_id
 _symmetry_equiv_pos_as_xyz
  1  'x, y, z'
loop_
 _atom_site_type_symbol
 _atom_site_label
 _atom_site_symmetry_multiplicity
 _atom_site_fract_x
 _atom_site_fract_y
 _atom_site_fract_z
 _atom_site_occupancy
  Rb  Rb0  1  0.78612500  0.65464700  0.18423000  1
  Rb  Rb1  1  0.21387500  0.34535300  0.81577000  1
  Rb  Rb2  1  0.21387500  0.84535300  0.68423000  1
  Rb  Rb3  1  0.78612500  0.15464700  0.31577000  1
  Be  Be0  1  0.50000000  0.00000000  0.00000000  1
  Be  Be1  1  0.50000000  0.50000000  0.50000000  1
  Ni  Ni0  1  0.74646200  0.61453000  0.86942200  1
  Ni  Ni1  1  0.25353800  0.38547000  0.13057800  1
  Ni  Ni2  1  0.25353800  0.88547000  0.36942200  1
  Ni  Ni3  1  0.74646200  0.11453000  0.63057800  1
  F  F0  1  0.48008400  0.62785800  0.81496500  1
  F  F1  1  0.51991600  0.37214200  0.18503500  1
  F  F2  1  0.51991600  0.87214200  0.31496500  1
  F  F3  1  0.48008400  0.12785800  0.68503500  1
  F  F4  1  0.74992000  0.94522600  0.55947000  1
  F  F5  1  0.25008000  0.05477400  0.44053000  1
  F  F6  1  0.25008000  0.55477400  0.05947000  1
  F  F7  1  0.74992000  0.44522600  0.94053000  1
  F  F8  1  0.32832700  0.91464400  0.91222200  1
  F  F9  1  0.67167300  0.08535600  0.08777800  1
  F  F10  1  0.67167300  0.58535600  0.41222200  1
  F  F11  1  0.32832700  0.41464400  0.58777800  1
  F  F12  1  0.83561900  0.75422500  0.96603500  1
  F  F13  1  0.16438100  0.24577500  0.03396500  1
  F  F14  1  0.16438100  0.74577500  0.46603500  1
  F  F15  1  0.83561900  0.25422500  0.53396500  1
  F  F16  1  0.52009000  0.64884200  0.57875300  1
  F  F17  1  0.47991000  0.35115800  0.42124700  1
  F  F18  1  0.47991000  0.85115800  0.07875300  1
  F  F19  1  0.52009000  0.14884200  0.92124700  1
  F  F20  1  0.71469700  0.96324300  0.91871000  1
  F  F21  1  0.28530300  0.03675700  0.08129000  1
  F  F22  1  0.28530300  0.53675700  0.41871000  1
  F  F23  1  0.71469700  0.46324300  0.58129000  1
  F  F24  1  0.95351800  0.61261200  0.77073800  1
  F  F25  1  0.04648200  0.38738800  0.22926200  1
  F  F26  1  0.04648200  0.88738800  0.27073800  1
  F  F27  1  0.95351800  0.11261200  0.72926200  1
loop_
_geom_bond_atom_site_label_1
_geom_bond_atom_site_label_2
_geom_bond_distance
_geom_bond_site_symmetry_2
Be0 F18 1.684108 1_545
Be0 F19 1.684108 1_554
Be0 F9 1.687853 1_555
Be0 F8 1.687853 1_544
Be0 F20 1.732742 1_544
Be0 F21 1.732742 1_555
Be1 F16 1.684108 1_555
Be1 F17 1.684108 1_555
Be1 F10 1.687853 1_555
Be1 F11 1.687853 1_555
Be1 F22 1.732742 1_555
Be1 F23 1.732742 1_555
F0 Ni0 1.789557 1_555
F0 Rb1 2.929397 1_555
F0 Rb2 3.144453 1_555
F1 Ni1 1.789557 1_555
F1 Rb0 2.929397 1_555
F1 Rb3 3.144453 1_555
F2 Ni2 1.789557 1_555
F2 Rb3 2.929397 1_565
F2 Rb0 3.144453 1_555
F3 Ni3 1.789557 1_555
F3 Rb2 2.929397 1_545
F3 Rb1 3.144453 1_555
F4 Ni3 1.789069 1_565
F4 Rb2 3.447801 1_655
F5 Ni2 1.789069 1_545
F5 Rb3 3.447801 1_455
F6 Ni1 1.789069 1_555
F6 Rb0 3.447801 1_455
F7 Ni0 1.789069 1_555
F7 Rb1 3.447801 1_655
F8 Rb2 3.062612 1_555
F9 Rb3 3.062612 1_555
F10 Rb0 3.062612 1_555
F11 Rb1 3.062612 1_555
F12 Ni0 1.826212 1_555
F12 Rb0 2.950781 1_556
F13 Ni1 1.826212 1_555
F13 Rb1 2.950781 1_554
F14 Ni2 1.826212 1_555
F14 Rb2 2.950781 1_555
F15 Ni3 1.826212 1_555
F15 Rb3 2.950781 1_555
F16 Rb2 3.011660 1_555
F17 Rb3 3.011660 1_555
F18 Rb0 3.011660 1_555
F19 Rb1 3.011660 1_555
F24 Ni0 1.794394 1_555
F24 Rb2 2.777253 1_655
F24 Rb1 3.062949 1_655
F25 Ni1 1.794394 1_555
F25 Rb3 2.777253 1_455
F25 Rb0 3.062949 1_455
F26 Ni2 1.794394 1_555
F26 Rb0 2.777253 1_455
F26 Rb3 3.062949 1_465
F27 Ni3 1.794394 1_555
F27 Rb1 2.777253 1_655
F27 Rb2 3.062949 1_645
