# generated using pymatgen
data_TmCdCu4
_symmetry_space_group_name_H-M   'P 1'
_cell_length_a   5.01705635
_cell_length_b   5.01705635
_cell_length_c   5.01705635
_cell_angle_alpha   60.00000000
_cell_angle_beta   60.00000000
_cell_angle_gamma   60.00000000
_symmetry_Int_Tables_number   1
_chemical_formula_structural   TmCdCu4
_chemical_formula_sum   'Tm1 Cd1 Cu4'
_cell_volume   89.29598663
_cell_formula_units_Z   1
loop_
 _symmetry_equiv_pos_site_id
 _symmetry_equiv_pos_as_xyz
  1  'x, y, z'
loop_
 _atom_site_type_symbol
 _atom_site_label
 _atom_site_symmetry_multiplicity
 _atom_site_fract_x
 _atom_site_fract_y
 _atom_site_fract_z
 _atom_site_occupancy
  Tm  Tm0  1  0.00000000  -0.00000000  0.00000000  1
  Cd  Cd0  1  0.25000000  0.25000000  0.25000000  1
  Cu  Cu0  1  0.62407912  0.62407912  0.62407912  1
  Cu  Cu1  1  0.62407912  0.62407912  0.12776364  1
  Cu  Cu2  1  0.62407912  0.12776364  0.62407912  1
  Cu  Cu3  1  0.12776364  0.62407912  0.62407912  1
loop_
_geom_bond_atom_site_label_1
_geom_bond_atom_site_label_2
_geom_bond_distance
_geom_bond_site_symmetry_2
Cd0 Cu2 2.939559 1_455
Cd0 Cu2 2.939559 1_554
Cd0 Cu1 2.939559 1_545
Cd0 Cu3 2.939559 1_554
Cd0 Cu3 2.939559 1_545
Cd0 Cu1 2.939559 1_455
Cd0 Cu0 2.939561 1_554
Cd0 Cu0 2.939561 1_455
Cd0 Cu0 2.939561 1_545
Cd0 Cu2 2.939563 1_555
Cd0 Cu3 2.939563 1_555
Cd0 Cu1 2.939563 1_555
Cd0 Tm0 3.072307 1_555
Cd0 Tm0 3.072307 1_556
Cd0 Tm0 3.072307 1_565
Cd0 Tm0 3.072307 1_655
Cu0 Cu3 2.490043 1_555
Cu0 Cu1 2.490043 1_555
Cu0 Cu2 2.490043 1_555
Cu0 Cu2 2.527014 1_565
Cu0 Cu3 2.527014 1_655
Cu0 Cu1 2.527014 1_556
Cu0 Tm0 2.943501 1_566
Cu0 Tm0 2.943501 1_665
Cu0 Tm0 2.943501 1_656
Cu1 Cu3 2.490043 1_555
Cu1 Cu2 2.490043 1_555
Cu1 Cu3 2.527014 1_654
Cu1 Cu2 2.527014 1_564
Cu1 Tm0 2.943499 1_665
Cu1 Tm0 2.943503 1_565
Cu1 Tm0 2.943503 1_655
Cu2 Cu3 2.490043 1_555
Cu2 Cu3 2.527014 1_645
Cu2 Tm0 2.943499 1_656
Cu2 Tm0 2.943503 1_556
Cu2 Tm0 2.943503 1_655
Cu3 Tm0 2.943499 1_566
Cu3 Tm0 2.943503 1_556
Cu3 Tm0 2.943503 1_565
