# generated using pymatgen
data_ErAsSe
_symmetry_space_group_name_H-M   'P 1'
_cell_length_a   3.88639300
_cell_length_b   3.89998600
_cell_length_c   17.46621700
_cell_angle_alpha   90.00000000
_cell_angle_beta   90.00000000
_cell_angle_gamma   90.00000000
_symmetry_Int_Tables_number   1
_chemical_formula_structural   ErAsSe
_chemical_formula_sum   'Er4 As4 Se4'
_cell_volume   264.73332526
_cell_formula_units_Z   4
loop_
 _symmetry_equiv_pos_site_id
 _symmetry_equiv_pos_as_xyz
  1  'x, y, z'
loop_
 _atom_site_type_symbol
 _atom_site_label
 _atom_site_symmetry_multiplicity
 _atom_site_fract_x
 _atom_site_fract_y
 _atom_site_fract_z
 _atom_site_occupancy
  Er  Er0  1  0.75000000  0.24069300  0.86096700  1
  Er  Er1  1  0.75000000  0.25930700  0.36096700  1
  Er  Er2  1  0.25000000  0.75930700  0.13903300  1
  Er  Er3  1  0.25000000  0.74069300  0.63903300  1
  As  As0  1  0.25000000  0.22346700  0.50082500  1
  As  As1  1  0.25000000  0.27653300  0.00082500  1
  As  As2  1  0.75000000  0.77653300  0.49917500  1
  As  As3  1  0.75000000  0.72346700  0.99917500  1
  Se  Se0  1  0.75000000  0.24207300  0.68782400  1
  Se  Se1  1  0.75000000  0.25792700  0.18782400  1
  Se  Se2  1  0.25000000  0.75792700  0.31217600  1
  Se  Se3  1  0.25000000  0.74207300  0.81217600  1
loop_
_geom_bond_atom_site_label_1
_geom_bond_atom_site_label_2
_geom_bond_distance
_geom_bond_site_symmetry_2
Er0 Se3 2.878152 1_645
Er0 Se3 2.878152 1_545
Er0 Se3 2.885436 1_555
Er0 Se3 2.885436 1_655
Er0 Se0 3.024158 1_555
Er1 Se2 2.878152 1_555
Er1 Se2 2.878152 1_655
Er1 Se2 2.885436 1_645
Er1 Se2 2.885436 1_545
Er1 Se1 3.024158 1_555
Er2 Se1 2.878152 1_465
Er2 Se1 2.878152 1_565
Er2 Se1 2.885436 1_455
Er2 Se1 2.885436 1_555
Er2 Se2 3.024158 1_555
Er3 Se0 2.878152 1_455
Er3 Se0 2.878152 1_555
Er3 Se0 2.885436 1_565
Er3 Se0 2.885436 1_465
Er3 Se3 3.024158 1_555
As0 As2 2.610559 1_445
As0 As2 2.610559 1_545
As0 As2 2.903321 1_455
As0 As2 2.903321 1_555
As0 Er3 3.061411 1_545
As0 Er1 3.124544 1_455
As0 Er1 3.124544 1_555
As0 Er3 3.145830 1_555
As1 As3 2.610559 1_554
As1 As3 2.610559 1_454
As1 As3 2.903321 1_544
As1 As3 2.903321 1_444
As1 Er2 3.061411 1_555
As1 Er0 3.124544 1_554
As1 Er0 3.124544 1_454
As1 Er2 3.145830 1_545
As2 Er1 3.061411 1_565
As2 Er3 3.124544 1_555
As2 Er3 3.124544 1_655
As2 Er1 3.145830 1_555
As3 Er0 3.061411 1_555
As3 Er2 3.124544 1_656
As3 Er2 3.124544 1_556
As3 Er0 3.145830 1_565
