# generated using pymatgen
data_Sr3CaSi8
_symmetry_space_group_name_H-M   'P 1'
_cell_length_a   6.51389311
_cell_length_b   6.51389311
_cell_length_c   6.51389302
_cell_angle_alpha   89.65407164
_cell_angle_beta   89.65407164
_cell_angle_gamma   89.65406170
_symmetry_Int_Tables_number   1
_chemical_formula_structural   Sr3CaSi8
_chemical_formula_sum   'Sr3 Ca1 Si8'
_cell_volume   276.37466211
_cell_formula_units_Z   1
loop_
 _symmetry_equiv_pos_site_id
 _symmetry_equiv_pos_as_xyz
  1  'x, y, z'
loop_
 _atom_site_type_symbol
 _atom_site_label
 _atom_site_symmetry_multiplicity
 _atom_site_fract_x
 _atom_site_fract_y
 _atom_site_fract_z
 _atom_site_occupancy
  Sr  Sr0  1  0.25112900  0.74887100  0.00000000  1
  Sr  Sr1  1  0.00000000  0.25112900  0.74887100  1
  Sr  Sr2  1  0.74887100  0.00000000  0.25112900  1
  Ca  Ca0  1  0.50000000  0.50000000  0.50000000  1
  Si  Si0  1  0.20487000  0.20487000  0.20487000  1
  Si  Si1  1  0.54681500  0.05135200  0.69998000  1
  Si  Si2  1  0.69998000  0.54681500  0.05135200  1
  Si  Si3  1  0.05135200  0.69998000  0.54681500  1
  Si  Si4  1  0.79513000  0.79513000  0.79513000  1
  Si  Si5  1  0.30002000  0.94864800  0.45318500  1
  Si  Si6  1  0.94864800  0.45318500  0.30002000  1
  Si  Si7  1  0.45318500  0.30002000  0.94864800  1
loop_
_geom_bond_atom_site_label_1
_geom_bond_atom_site_label_2
_geom_bond_distance
_geom_bond_site_symmetry_2
Ca0 Si5 3.206031 1_555
Ca0 Si3 3.206031 1_555
Ca0 Si1 3.206031 1_555
Ca0 Si6 3.206031 1_555
Ca0 Si2 3.206031 1_555
Ca0 Si7 3.206031 1_555
Ca0 Si0 3.349816 1_555
Ca0 Si4 3.349816 1_555
Si0 Si6 2.398548 1_455
Si0 Si5 2.398548 1_545
Si0 Si7 2.398548 1_554
Si0 Sr1 3.275171 1_554
Si0 Sr0 3.275171 1_545
Si0 Sr2 3.275171 1_455
Si1 Si7 2.372189 1_555
Si1 Si5 2.381906 1_545
Si1 Si4 2.398548 1_545
Si1 Sr2 3.217552 1_555
Si1 Sr1 3.251448 1_655
Si1 Sr0 3.371215 1_546
Si2 Si6 2.372189 1_555
Si2 Si7 2.381906 1_554
Si2 Si4 2.398548 1_554
Si2 Sr0 3.217552 1_555
Si2 Sr2 3.251448 1_565
Si2 Sr1 3.371214 1_654
Si3 Si5 2.372189 1_555
Si3 Si6 2.381906 1_455
Si3 Si4 2.398548 1_455
Si3 Sr1 3.217552 1_555
Si3 Sr0 3.251448 1_556
Si3 Sr2 3.371214 1_465
Si4 Sr2 3.275171 1_566
Si4 Sr0 3.275171 1_656
Si4 Sr1 3.275171 1_665
Si5 Sr2 3.217552 1_565
Si5 Sr0 3.251448 1_555
Si5 Sr1 3.371214 1_565
Si6 Sr1 3.217552 1_655
Si6 Sr2 3.251448 1_555
Si6 Sr0 3.371215 1_655
Si7 Sr0 3.217552 1_556
Si7 Sr1 3.251448 1_555
Si7 Sr2 3.371214 1_556
