# generated using pymatgen
data_CeNd3(Fe14B)2
_symmetry_space_group_name_H-M   'P 1'
_cell_length_a   8.75140877
_cell_length_b   8.75140877
_cell_length_c   12.09601200
_cell_angle_alpha   90.00000000
_cell_angle_beta   90.00000000
_cell_angle_gamma   90.04821237
_symmetry_Int_Tables_number   1
_chemical_formula_structural   CeNd3(Fe14B)2
_chemical_formula_sum   'Ce2 Nd6 Fe56 B4'
_cell_volume   926.39882448
_cell_formula_units_Z   2
loop_
 _symmetry_equiv_pos_site_id
 _symmetry_equiv_pos_as_xyz
  1  'x, y, z'
loop_
 _atom_site_type_symbol
 _atom_site_label
 _atom_site_symmetry_multiplicity
 _atom_site_fract_x
 _atom_site_fract_y
 _atom_site_fract_z
 _atom_site_occupancy
  Ce  Ce0  1  0.23173700  0.76826300  0.50000000  1
  Ce  Ce1  1  0.76826300  0.23173700  0.50000000  1
  Nd  Nd0  1  0.26808300  0.26808300  0.00000000  1
  Nd  Nd1  1  0.73191700  0.73191700  0.00000000  1
  Nd  Nd2  1  0.64191100  0.64191100  0.50000000  1
  Nd  Nd3  1  0.35808900  0.35808900  0.50000000  1
  Nd  Nd4  1  0.85850100  0.14149900  0.00000000  1
  Nd  Nd5  1  0.14149900  0.85850100  0.00000000  1
  Fe  Fe0  1  0.18264400  0.81735600  0.25448100  1
  Fe  Fe1  1  0.81735600  0.18264400  0.25448100  1
  Fe  Fe2  1  0.31722200  0.31722200  0.75406700  1
  Fe  Fe3  1  0.68277800  0.68277800  0.75406700  1
  Fe  Fe4  1  0.81735600  0.18264400  0.74551900  1
  Fe  Fe5  1  0.18264400  0.81735600  0.74551900  1
  Fe  Fe6  1  0.68277800  0.68277800  0.24593300  1
  Fe  Fe7  1  0.31722200  0.31722200  0.24593300  1
  Fe  Fe8  1  0.40186800  0.59813200  0.29531400  1
  Fe  Fe9  1  0.59813200  0.40186800  0.29531400  1
  Fe  Fe10  1  0.09787700  0.09787700  0.79484000  1
  Fe  Fe11  1  0.90212300  0.90212300  0.79484000  1
  Fe  Fe12  1  0.59813200  0.40186800  0.70468600  1
  Fe  Fe13  1  0.40186800  0.59813200  0.70468600  1
  Fe  Fe14  1  0.90212300  0.90212300  0.20516000  1
  Fe  Fe15  1  0.09787700  0.09787700  0.20516000  1
  Fe  Fe16  1  0.14002900  0.53758600  0.32393200  1
  Fe  Fe17  1  0.85997100  0.46241400  0.32393200  1
  Fe  Fe18  1  0.36035100  0.03695400  0.82370300  1
  Fe  Fe19  1  0.63964900  0.96304600  0.82370300  1
  Fe  Fe20  1  0.85997100  0.46241400  0.67606800  1
  Fe  Fe21  1  0.14002900  0.53758600  0.67606800  1
  Fe  Fe22  1  0.63964900  0.96304600  0.17629700  1
  Fe  Fe23  1  0.36035100  0.03695400  0.17629700  1
  Fe  Fe24  1  0.53758600  0.14002900  0.32393200  1
  Fe  Fe25  1  0.46241400  0.85997100  0.32393200  1
  Fe  Fe26  1  0.03695400  0.36035100  0.82370300  1
  Fe  Fe27  1  0.96304600  0.63964900  0.82370300  1
  Fe  Fe28  1  0.46241400  0.85997100  0.67606800  1
  Fe  Fe29  1  0.53758600  0.14002900  0.67606800  1
  Fe  Fe30  1  0.96304600  0.63964900  0.17629700  1
  Fe  Fe31  1  0.03695400  0.36035100  0.17629700  1
  Fe  Fe32  1  0.50000000  0.50000000  0.11399100  1
  Fe  Fe33  1  0.00000000  0.00000000  0.61367700  1
  Fe  Fe34  1  0.50000000  0.50000000  0.88600900  1
  Fe  Fe35  1  0.00000000  0.00000000  0.38632300  1
  Fe  Fe36  1  0.93273500  0.72442000  0.37284100  1
  Fe  Fe37  1  0.06726500  0.27558000  0.37284100  1
  Fe  Fe38  1  0.56753000  0.22430600  0.87261300  1
  Fe  Fe39  1  0.43247000  0.77569400  0.87261300  1
  Fe  Fe40  1  0.06726500  0.27558000  0.62715900  1
  Fe  Fe41  1  0.93273500  0.72442000  0.62715900  1
  Fe  Fe42  1  0.43247000  0.77569400  0.12738700  1
  Fe  Fe43  1  0.56753000  0.22430600  0.12738700  1
  Fe  Fe44  1  0.72442000  0.93273500  0.37284100  1
  Fe  Fe45  1  0.27558000  0.06726500  0.37284100  1
  Fe  Fe46  1  0.22430600  0.56753000  0.87261300  1
  Fe  Fe47  1  0.77569400  0.43247000  0.87261300  1
  Fe  Fe48  1  0.27558000  0.06726500  0.62715900  1
  Fe  Fe49  1  0.72442000  0.93273500  0.62715900  1
  Fe  Fe50  1  0.77569400  0.43247000  0.12738700  1
  Fe  Fe51  1  0.22430600  0.56753000  0.12738700  1
  Fe  Fe52  1  0.00000000  0.50000000  0.50000000  1
  Fe  Fe53  1  0.50000000  0.00000000  0.00000000  1
  Fe  Fe54  1  0.50000000  0.00000000  0.50000000  1
  Fe  Fe55  1  0.00000000  0.50000000  0.00000000  1
  B  B0  1  0.87399400  0.87399400  0.50000000  1
  B  B1  1  0.12600600  0.12600600  0.50000000  1
  B  B2  1  0.62599100  0.37400900  0.00000000  1
  B  B3  1  0.37400900  0.62599100  0.00000000  1
loop_
_geom_bond_atom_site_label_1
_geom_bond_atom_site_label_2
_geom_bond_distance
_geom_bond_site_symmetry_2
Ce0 Fe5 3.031369 1_555
Ce0 Fe0 3.031369 1_555
Ce0 Fe16 3.041785 1_555
Ce0 Fe21 3.041785 1_555
Ce0 Fe28 3.041785 1_555
Ce0 Fe25 3.041785 1_555
Ce0 Fe41 3.059149 1_455
Ce0 Fe36 3.059149 1_455
Ce0 Fe48 3.059149 1_565
Ce0 Fe45 3.059149 1_565
Ce0 Fe52 3.101044 1_555
Ce0 Fe54 3.101044 1_565
Ce0 Fe33 3.181733 1_565
Ce0 Fe35 3.181733 1_565
Ce0 Fe13 3.250738 1_555
Ce0 Fe8 3.250738 1_555
Ce0 Nd3 3.756942 1_555
Ce0 Nd2 3.756942 1_555
Ce1 Fe4 3.031369 1_555
Ce1 Fe1 3.031369 1_555
Ce1 Fe24 3.041785 1_555
Ce1 Fe29 3.041785 1_555
Ce1 Fe20 3.041785 1_555
Ce1 Fe17 3.041785 1_555
Ce1 Fe44 3.059149 1_545
Ce1 Fe49 3.059149 1_545
Ce1 Fe37 3.059149 1_655
Ce1 Fe40 3.059149 1_655
Ce1 Fe54 3.101044 1_555
Ce1 Fe52 3.101044 1_655
Ce1 Fe33 3.181733 1_655
Ce1 Fe35 3.181733 1_655
Ce1 Fe12 3.250738 1_555
Ce1 Fe9 3.250738 1_555
Ce1 Nd3 3.756942 1_555
Ce1 Nd2 3.756942 1_555
Nd2 Nd3 3.511205 1_555
Fe0 Fe25 2.614929 1_555
Fe0 Fe16 2.614929 1_555
Fe0 Fe15 2.633646 1_565
Fe0 Fe14 2.633646 1_455
Fe0 Fe23 2.645985 1_565
Fe0 Fe30 2.645985 1_455
Fe0 Fe51 2.697721 1_555
Fe0 Fe42 2.697721 1_555
Fe0 Fe45 2.737048 1_565
Fe0 Fe36 2.737048 1_455
Fe0 Fe8 2.758909 1_555
Fe0 Fe35 2.767180 1_565
Fe0 Nd5 3.120076 1_555
Fe1 Fe17 2.614929 1_555
Fe1 Fe24 2.614929 1_555
Fe1 Fe15 2.633646 1_655
Fe1 Fe14 2.633646 1_545
Fe1 Fe31 2.645985 1_655
Fe1 Fe22 2.645985 1_545
Fe1 Fe43 2.697721 1_555
Fe1 Fe50 2.697721 1_555
Fe1 Fe37 2.737048 1_655
Fe1 Fe44 2.737048 1_545
Fe1 Fe9 2.758909 1_555
Fe1 Fe35 2.767180 1_655
Fe1 Nd4 3.120076 1_555
Fe2 Fe26 2.620964 1_555
Fe2 Fe21 2.649323 1_555
Fe2 Fe29 2.649323 1_555
Fe2 Fe40 2.696848 1_555
Fe2 Fe48 2.696848 1_555
Fe2 Fe38 2.742056 1_555
Fe2 Fe46 2.742056 1_555
Fe2 Fe34 2.767677 1_555
Fe2 Nd0 3.036286 1_556
Fe2 Nd3 3.114506 1_555
Fe3 Fe49 2.696848 1_555
Fe3 Fe41 2.696848 1_555
Fe3 Fe47 2.742056 1_555
Fe3 Fe39 2.742056 1_555
Fe3 Fe34 2.767677 1_555
Fe3 Nd1 3.036286 1_556
Fe3 Nd2 3.114506 1_555
Fe4 Fe47 2.697721 1_555
Fe4 Fe40 2.737048 1_655
Fe4 Fe49 2.737048 1_545
Fe4 Nd4 3.120076 1_556
Fe5 Nd5 3.120076 1_556
Fe6 Fe8 2.635524 1_555
Fe6 Fe9 2.635524 1_555
Fe6 Nd1 3.036286 1_555
Fe6 Nd2 3.114506 1_555
Fe7 Fe8 2.635524 1_555
Fe7 Fe9 2.635524 1_555
Fe7 Nd0 3.036286 1_555
Fe7 Nd3 3.114506 1_555
Fe8 Fe9 2.430056 1_555
Fe8 Nd2 3.269317 1_555
Fe8 Nd3 3.269317 1_555
Fe9 Nd3 3.269317 1_555
Fe9 Nd2 3.269317 1_555
Fe10 Fe26 2.384219 1_555
Fe10 Fe18 2.384219 1_555
Fe10 Fe11 2.421703 1_445
Fe10 Fe33 2.503632 1_555
Fe10 Fe40 2.569991 1_555
Fe10 Fe48 2.569991 1_555
Fe10 Fe5 2.633646 1_545
Fe10 Fe4 2.633646 1_455
Fe10 Fe2 2.758005 1_555
Fe10 Nd0 3.254561 1_556
Fe10 Nd4 3.270171 1_456
Fe10 Nd5 3.270171 1_546
Fe11 Fe19 2.384219 1_555
Fe11 Fe27 2.384219 1_555
Fe11 Fe33 2.503632 1_665
Fe11 Fe49 2.569991 1_555
Fe11 Fe41 2.569991 1_555
Fe11 Fe5 2.633646 1_655
Fe11 Fe4 2.633646 1_565
Fe11 Fe3 2.758005 1_555
Fe11 Nd1 3.254561 1_556
Fe11 Nd5 3.270171 1_656
Fe11 Nd4 3.270171 1_566
Fe12 Fe20 2.376832 1_555
Fe12 Fe29 2.376832 1_555
Fe12 Fe13 2.430056 1_555
Fe12 Fe34 2.507348 1_555
Fe12 Fe47 2.571312 1_555
Fe12 Fe38 2.571312 1_555
Fe12 Fe3 2.635524 1_555
Fe12 Fe2 2.635524 1_555
Fe12 Fe4 2.758909 1_555
Fe12 Nd3 3.269317 1_555
Fe12 Nd2 3.269317 1_555
Fe13 Fe28 2.376832 1_555
Fe13 Fe21 2.376832 1_555
Fe13 Fe34 2.507348 1_555
Fe13 Fe39 2.571312 1_555
Fe13 Fe46 2.571312 1_555
Fe13 Fe3 2.635524 1_555
Fe13 Fe2 2.635524 1_555
Fe13 Fe5 2.758909 1_555
Fe13 Nd2 3.269317 1_555
Fe13 Nd3 3.269317 1_555
Fe14 Fe30 2.384219 1_555
Fe14 Fe22 2.384219 1_555
Fe14 Fe15 2.421703 1_665
Fe14 Fe35 2.503632 1_665
Fe14 Fe36 2.569991 1_555
Fe14 Fe44 2.569991 1_555
Fe14 Fe6 2.758005 1_555
Fe14 Nd1 3.254561 1_555
Fe14 Nd4 3.270171 1_565
Fe14 Nd5 3.270171 1_655
Fe15 Fe23 2.384219 1_555
Fe15 Fe31 2.384219 1_555
Fe15 Fe35 2.503632 1_555
Fe15 Fe45 2.569991 1_555
Fe15 Fe37 2.569991 1_555
Fe15 Fe7 2.758005 1_555
Fe15 Nd0 3.254561 1_555
Fe15 Nd4 3.270171 1_455
Fe15 Nd5 3.270171 1_545
Fe16 Fe8 2.376832 1_555
Fe16 Fe37 2.451637 1_555
Fe16 Fe52 2.478902 1_555
Fe16 Fe51 2.502878 1_555
Fe16 Fe36 2.513846 1_455
Fe16 Fe30 2.527474 1_455
Fe16 Fe31 2.531043 1_555
Fe16 Fe17 2.537122 1_455
Fe16 Fe7 2.649323 1_555
Fe16 Nd3 3.263443 1_555
Fe17 Fe9 2.376832 1_555
Fe17 Fe36 2.451637 1_555
Fe17 Fe52 2.478902 1_655
Fe17 Fe50 2.502878 1_555
Fe17 Fe37 2.513846 1_655
Fe17 Fe31 2.527474 1_655
Fe17 Fe30 2.531043 1_555
Fe17 Fe6 2.649323 1_555
Fe17 Nd2 3.263443 1_555
Fe18 Fe39 2.445071 1_545
Fe18 Fe53 2.479185 1_556
Fe18 Fe48 2.504613 1_555
Fe18 Fe38 2.514087 1_555
Fe18 Fe28 2.527474 1_545
Fe18 Fe19 2.528907 1_545
Fe18 Fe29 2.531043 1_555
Fe18 Fe2 2.620964 1_555
Fe18 Fe5 2.645985 1_545
Fe18 Nd0 3.048543 1_556
Fe18 Nd5 3.263383 1_546
Fe19 Fe38 2.445071 1_565
Fe19 Fe53 2.479185 1_566
Fe19 Fe49 2.504613 1_555
Fe19 Fe39 2.514087 1_555
Fe19 Fe29 2.527474 1_565
Fe19 Fe28 2.531043 1_555
Fe19 Fe3 2.620964 1_555
Fe19 Fe4 2.645985 1_565
Fe19 Nd1 3.048543 1_556
Fe19 Nd4 3.263383 1_566
Fe20 Fe41 2.451637 1_555
Fe20 Fe52 2.478902 1_655
Fe20 Fe47 2.502878 1_555
Fe20 Fe40 2.513846 1_655
Fe20 Fe26 2.527474 1_655
Fe20 Fe27 2.531043 1_555
Fe20 Fe21 2.537122 1_655
Fe20 Fe4 2.614929 1_555
Fe20 Fe3 2.649323 1_555
Fe20 Nd2 3.263443 1_555
Fe21 Fe40 2.451637 1_555
Fe21 Fe52 2.478902 1_555
Fe21 Fe46 2.502878 1_555
Fe21 Fe41 2.513846 1_455
Fe21 Fe27 2.527474 1_455
Fe21 Fe26 2.531043 1_555
Fe21 Fe5 2.614929 1_555
Fe21 Nd3 3.263443 1_555
Fe22 Fe43 2.445071 1_565
Fe22 Fe53 2.479185 1_565
Fe22 Fe44 2.504613 1_555
Fe22 Fe42 2.514087 1_555
Fe22 Fe24 2.527474 1_565
Fe22 Fe23 2.528907 1_565
Fe22 Fe25 2.531043 1_555
Fe22 Fe6 2.620964 1_555
Fe22 Nd1 3.048543 1_555
Fe22 Nd4 3.263383 1_565
Fe23 Fe42 2.445071 1_545
Fe23 Fe53 2.479185 1_555
Fe23 Fe45 2.504613 1_555
Fe23 Fe43 2.514087 1_555
Fe23 Fe25 2.527474 1_545
Fe23 Fe24 2.531043 1_555
Fe23 Fe7 2.620964 1_555
Fe23 Nd0 3.048543 1_555
Fe23 Nd5 3.263383 1_545
Fe24 Fe9 2.376832 1_555
Fe24 Fe45 2.451637 1_555
Fe24 Fe54 2.478902 1_555
Fe24 Fe43 2.502878 1_555
Fe24 Fe44 2.513846 1_545
Fe24 Fe25 2.537122 1_545
Fe24 Fe7 2.649323 1_555
Fe24 Nd3 3.263443 1_555
Fe25 Fe8 2.376832 1_555
Fe25 Fe44 2.451637 1_555
Fe25 Fe54 2.478902 1_565
Fe25 Fe42 2.502878 1_555
Fe25 Fe45 2.513846 1_565
Fe25 Fe6 2.649323 1_555
Fe25 Nd2 3.263443 1_555
Fe26 Fe47 2.445071 1_455
Fe26 Fe55 2.479185 1_556
Fe26 Fe40 2.504613 1_555
Fe26 Fe46 2.514087 1_555
Fe26 Fe27 2.528907 1_455
Fe26 Fe4 2.645985 1_455
Fe26 Nd0 3.048543 1_556
Fe26 Nd4 3.263383 1_456
Fe27 Fe46 2.445071 1_655
Fe27 Fe55 2.479185 1_656
Fe27 Fe41 2.504613 1_555
Fe27 Fe47 2.514087 1_555
Fe27 Fe3 2.620964 1_555
Fe27 Fe5 2.645985 1_655
Fe27 Nd1 3.048543 1_556
Fe27 Nd5 3.263383 1_656
Fe28 Fe49 2.451637 1_555
Fe28 Fe54 2.478902 1_565
Fe28 Fe39 2.502878 1_555
Fe28 Fe48 2.513846 1_565
Fe28 Fe29 2.537122 1_565
Fe28 Fe5 2.614929 1_555
Fe28 Fe3 2.649323 1_555
Fe28 Nd2 3.263443 1_555
Fe29 Fe48 2.451637 1_555
Fe29 Fe54 2.478902 1_555
Fe29 Fe38 2.502878 1_555
Fe29 Fe49 2.513846 1_545
Fe29 Fe4 2.614929 1_555
Fe29 Nd3 3.263443 1_555
Fe30 Fe51 2.445071 1_655
Fe30 Fe55 2.479185 1_655
Fe30 Fe36 2.504613 1_555
Fe30 Fe50 2.514087 1_555
Fe30 Fe31 2.528907 1_655
Fe30 Fe6 2.620964 1_555
Fe30 Nd1 3.048543 1_555
Fe30 Nd5 3.263383 1_655
Fe31 Fe50 2.445071 1_455
Fe31 Fe55 2.479185 1_555
Fe31 Fe37 2.504613 1_555
Fe31 Fe51 2.514087 1_555
Fe31 Fe7 2.620964 1_555
Fe31 Nd0 3.048543 1_555
Fe31 Nd4 3.263383 1_455
Fe32 Fe9 2.507348 1_555
Fe32 Fe8 2.507348 1_555
Fe32 Fe6 2.767677 1_555
Fe32 Fe7 2.767677 1_555
Fe32 Nd1 3.183208 1_555
Fe32 Nd0 3.183208 1_555
Fe33 Fe5 2.767180 1_545
Fe33 Fe4 2.767180 1_455
Fe34 Nd1 3.183208 1_556
Fe34 Nd0 3.183208 1_556
Fe36 Fe52 2.563501 1_655
Fe36 Fe6 2.696848 1_555
Fe36 Nd2 3.059694 1_555
Fe37 Fe52 2.563501 1_555
Fe37 Fe7 2.696848 1_555
Fe37 Nd3 3.059694 1_555
Fe38 Fe53 2.564166 1_556
Fe38 Fe4 2.697721 1_555
Fe38 Nd4 3.063779 1_556
Fe38 Nd0 3.064346 1_556
Fe39 Fe53 2.564166 1_566
Fe39 Fe5 2.697721 1_555
Fe39 Nd5 3.063779 1_556
Fe39 Nd1 3.064346 1_556
Fe40 Fe52 2.563501 1_555
Fe40 Nd3 3.059694 1_555
Fe41 Fe52 2.563501 1_655
Fe41 Fe5 2.737048 1_655
Fe41 Nd2 3.059694 1_555
Fe42 Fe53 2.564166 1_565
Fe42 Fe8 2.571312 1_555
Fe42 Fe6 2.742056 1_555
Fe42 Nd5 3.063779 1_555
Fe42 Nd1 3.064346 1_555
Fe43 Fe53 2.564166 1_555
Fe43 Fe9 2.571312 1_555
Fe43 Fe7 2.742056 1_555
Fe43 Nd4 3.063779 1_555
Fe43 Nd0 3.064346 1_555
Fe44 Fe54 2.563501 1_565
Fe44 Fe6 2.696848 1_555
Fe44 Nd2 3.059694 1_555
Fe45 Fe54 2.563501 1_555
Fe45 Fe7 2.696848 1_555
Fe45 Nd3 3.059694 1_555
Fe46 Fe55 2.564166 1_556
Fe46 Fe5 2.697721 1_555
Fe46 Nd5 3.063779 1_556
Fe46 Nd0 3.064346 1_556
Fe47 Fe55 2.564166 1_656
Fe47 Nd4 3.063779 1_556
Fe47 Nd1 3.064346 1_556
Fe48 Fe54 2.563501 1_555
Fe48 Fe5 2.737048 1_545
Fe48 Nd3 3.059694 1_555
Fe49 Fe54 2.563501 1_565
Fe49 Nd2 3.059694 1_555
Fe50 Fe55 2.564166 1_655
Fe50 Fe9 2.571312 1_555
Fe50 Fe6 2.742056 1_555
Fe50 Nd4 3.063779 1_555
Fe50 Nd1 3.064346 1_555
Fe51 Fe55 2.564166 1_555
Fe51 Fe8 2.571312 1_555
Fe51 Fe7 2.742056 1_555
Fe51 Nd5 3.063779 1_555
Fe51 Nd0 3.064346 1_555
Fe52 Nd3 3.371871 1_555
Fe52 Nd2 3.371871 1_455
Fe53 Nd0 3.103465 1_555
Fe53 Nd1 3.103465 1_545
Fe53 Nd4 3.371957 1_555
Fe53 Nd5 3.371957 1_545
Fe54 Nd3 3.371871 1_555
Fe54 Nd2 3.371871 1_545
Fe55 Nd0 3.103465 1_555
Fe55 Nd1 3.103465 1_455
Fe55 Nd5 3.371957 1_555
Fe55 Nd4 3.371957 1_455
B0 Fe33 2.078632 1_665
B0 Fe35 2.078632 1_665
B0 Fe49 2.084379 1_555
B0 Fe36 2.084379 1_555
B0 Fe44 2.084379 1_555
B0 Fe41 2.084379 1_555
B0 Nd2 2.871134 1_555
B1 Fe33 2.078632 1_555
B1 Fe35 2.078632 1_555
B1 Fe48 2.084379 1_555
B1 Fe45 2.084379 1_555
B1 Fe40 2.084379 1_555
B1 Fe37 2.084379 1_555
B1 Nd3 2.871134 1_555
B2 Fe32 2.081990 1_555
B2 Fe34 2.081990 1_554
B2 Fe47 2.085980 1_554
B2 Fe50 2.085980 1_555
B2 Fe43 2.085980 1_555
B2 Fe38 2.085980 1_554
B2 Nd4 2.878838 1_555
B3 Fe32 2.081990 1_555
B3 Fe34 2.081990 1_554
B3 Fe42 2.085980 1_555
B3 Fe39 2.085980 1_554
B3 Fe51 2.085980 1_555
B3 Fe46 2.085980 1_554
B3 Nd5 2.878838 1_555
