# generated using pymatgen
data_Dy3MnAlS7
_symmetry_space_group_name_H-M   'P 1'
_cell_length_a   9.54927858
_cell_length_b   9.54927858
_cell_length_c   6.12306000
_cell_angle_alpha   90.00000000
_cell_angle_beta   90.00000000
_cell_angle_gamma   120.00000399
_symmetry_Int_Tables_number   1
_chemical_formula_structural   Dy3MnAlS7
_chemical_formula_sum   'Dy6 Mn2 Al2 S14'
_cell_volume   483.54873918
_cell_formula_units_Z   2
loop_
 _symmetry_equiv_pos_site_id
 _symmetry_equiv_pos_as_xyz
  1  'x, y, z'
loop_
 _atom_site_type_symbol
 _atom_site_label
 _atom_site_symmetry_multiplicity
 _atom_site_fract_x
 _atom_site_fract_y
 _atom_site_fract_z
 _atom_site_occupancy
  Dy  Dy0  1  0.77582300  0.15082200  0.72636400  1
  Dy  Dy1  1  0.37499900  0.22417700  0.72636400  1
  Dy  Dy2  1  0.84917800  0.62500100  0.72636400  1
  Dy  Dy3  1  0.22417700  0.84917800  0.22636400  1
  Dy  Dy4  1  0.62500100  0.77582300  0.22636400  1
  Dy  Dy5  1  0.15082200  0.37499900  0.22636400  1
  Mn  Mn0  1  0.00000000  0.00000000  0.56585400  1
  Mn  Mn1  1  0.00000000  0.00000000  0.06585400  1
  Al  Al0  1  0.66666700  0.33333300  0.15561300  1
  Al  Al1  1  0.33333300  0.66666700  0.65561300  1
  S  S0  1  0.87426600  0.09514400  0.32164800  1
  S  S1  1  0.22087800  0.12573400  0.32164800  1
  S  S2  1  0.90485600  0.77912200  0.32164800  1
  S  S3  1  0.12573400  0.90485600  0.82164800  1
  S  S4  1  0.77912200  0.87426600  0.82164800  1
  S  S5  1  0.09514400  0.22087800  0.82164800  1
  S  S6  1  0.91035500  0.42859700  0.00078500  1
  S  S7  1  0.51824200  0.08964500  0.00078500  1
  S  S8  1  0.57140300  0.48175800  0.00078500  1
  S  S9  1  0.08964500  0.57140300  0.50078500  1
  S  S10  1  0.48175800  0.91035500  0.50078500  1
  S  S11  1  0.42859700  0.51824200  0.50078500  1
  S  S12  1  0.66666700  0.33333300  0.51822000  1
  S  S13  1  0.33333300  0.66666700  0.01822000  1
loop_
_geom_bond_atom_site_label_1
_geom_bond_atom_site_label_2
_geom_bond_distance
_geom_bond_site_symmetry_2
Dy0 S4 2.720108 1_545
Dy0 S12 2.750456 1_555
Dy0 S7 2.788891 1_556
Dy0 S0 2.794136 1_555
Dy0 S5 2.836573 1_655
Dy0 S6 2.846427 1_556
Dy0 S10 2.935641 1_545
Dy1 S5 2.720108 1_555
Dy1 S12 2.750464 1_555
Dy1 S8 2.788891 1_556
Dy1 S1 2.794136 1_555
Dy1 S3 2.836573 1_545
Dy1 S7 2.846427 1_556
Dy1 S11 2.935641 1_555
Dy2 S3 2.720108 1_655
Dy2 S12 2.750463 1_555
Dy2 S6 2.788891 1_556
Dy2 S2 2.794136 1_555
Dy2 S4 2.836573 1_555
Dy2 S8 2.846427 1_556
Dy2 S9 2.935641 1_655
Dy3 S1 2.720108 1_565
Dy3 S13 2.750456 1_555
Dy3 S10 2.788891 1_555
Dy3 S3 2.794136 1_554
Dy3 S2 2.836573 1_455
Dy3 S9 2.846427 1_555
Dy3 S7 2.935641 1_565
Dy4 S2 2.720108 1_555
Dy4 S13 2.750464 1_555
Dy4 S11 2.788891 1_555
Dy4 S4 2.794136 1_554
Dy4 S0 2.836573 1_565
Dy4 S10 2.846427 1_555
Dy4 S8 2.935641 1_555
Dy5 S0 2.720108 1_455
Dy5 S13 2.750463 1_555
Dy5 S9 2.788891 1_555
Dy5 S5 2.794136 1_554
Dy5 S1 2.836573 1_555
Dy5 S11 2.846427 1_555
Dy5 S6 2.935641 1_455
Mn0 S1 2.365131 1_555
Mn0 S2 2.365131 1_445
Mn0 S0 2.365131 1_455
Mn0 S4 2.410616 1_445
Mn0 S5 2.410616 1_555
Mn0 S3 2.410616 1_545
Mn1 S4 2.365131 1_444
Mn1 S5 2.365131 1_554
Mn1 S3 2.365131 1_544
Mn1 S1 2.410616 1_555
Mn1 S2 2.410616 1_445
Mn1 S0 2.410616 1_455
Al0 S12 2.220264 1_555
Al0 S6 2.241544 1_555
Al0 S7 2.241545 1_555
Al0 S8 2.241552 1_555
Al1 S13 2.220264 1_556
Al1 S9 2.241544 1_555
Al1 S10 2.241545 1_555
Al1 S11 2.241552 1_555
