# generated using pymatgen
data_LiFeOF2
_symmetry_space_group_name_H-M   'P 1'
_cell_length_a   5.14643000
_cell_length_b   5.53072605
_cell_length_c   8.93491499
_cell_angle_alpha   106.33940922
_cell_angle_beta   88.54316333
_cell_angle_gamma   117.19116670
_symmetry_Int_Tables_number   1
_chemical_formula_structural   LiFeOF2
_chemical_formula_sum   'Li4 Fe4 O4 F8'
_cell_volume   215.48667751
_cell_formula_units_Z   4
loop_
 _symmetry_equiv_pos_site_id
 _symmetry_equiv_pos_as_xyz
  1  'x, y, z'
loop_
 _atom_site_type_symbol
 _atom_site_label
 _atom_site_symmetry_multiplicity
 _atom_site_fract_x
 _atom_site_fract_y
 _atom_site_fract_z
 _atom_site_occupancy
  Li  Li0  1  0.02540700  0.41343600  0.67399800  1
  Li  Li1  1  0.97470000  0.61078900  0.32548200  1
  Li  Li2  1  0.45905800  0.13866200  0.79034100  1
  Li  Li3  1  0.30907800  0.12731100  0.42896100  1
  Fe  Fe0  1  0.73461900  0.87436200  0.58349300  1
  Fe  Fe1  1  0.23019800  0.32993200  0.09630600  1
  Fe  Fe2  1  0.53915000  0.89443900  0.16365700  1
  Fe  Fe3  1  0.76817600  0.60096700  0.92927800  1
  O  O0  1  0.76800600  0.55176500  0.72604700  1
  O  O1  1  0.28701600  0.01006900  0.21977400  1
  O  O2  1  0.64018000  0.63202400  0.10631200  1
  O  O3  1  0.80798200  0.24137500  0.04325800  1
  F  F0  1  0.79608700  0.85887100  0.37643000  1
  F  F1  1  0.73184100  0.26290200  0.48140500  1
  F  F2  1  0.20845000  0.80292900  0.96370400  1
  F  F3  1  0.30394900  0.73120100  0.53649800  1
  F  F4  1  0.30561400  0.36835100  0.88076400  1
  F  F5  1  0.16448200  0.11722700  0.61277600  1
  F  F6  1  0.71542200  0.96459000  0.78228200  1
  F  F7  1  0.23058400  0.46879400  0.27923400  1
loop_
_geom_bond_atom_site_label_1
_geom_bond_atom_site_label_2
_geom_bond_distance
_geom_bond_site_symmetry_2
Li0 O0 1.803089 1_455
Li3 O1 1.785598 1_555
Fe1 O2 1.988747 1_555
Fe1 O3 2.033511 1_455
Fe2 O1 1.699714 1_565
Fe2 O2 1.702052 1_555
Fe2 O3 2.326530 1_565
Fe3 O2 1.692044 1_556
Fe3 O0 1.758751 1_555
F0 Fe0 1.853664 1_555
F0 Li1 1.927366 1_555
F0 Li3 2.341626 1_665
F0 Fe2 2.444869 1_555
F1 Li3 1.969433 1_555
F1 Li0 2.028154 1_655
F2 Fe3 2.001342 1_455
F2 Fe2 2.281038 1_556
F3 Fe0 1.993018 1_555
F3 Li1 2.300895 1_455
F3 Li0 2.340040 1_555
F4 Li2 1.788026 1_555
F4 Fe1 2.005381 1_556
F4 Fe3 2.109436 1_555
F4 Li0 2.505602 1_555
F5 Li3 1.790453 1_555
F5 Fe0 1.970461 1_445
F5 Li0 2.010690 1_555
F5 Li2 2.163711 1_555
F6 Fe0 1.717838 1_555
F6 Li2 1.946742 1_565
F7 Fe1 1.598044 1_555
F7 Li1 1.804610 1_455
