# generated using pymatgen
data_Dy2Be2SiO7
_symmetry_space_group_name_H-M   'P 1'
_cell_length_a   7.34427100
_cell_length_b   7.34427100
_cell_length_c   4.79225500
_cell_angle_alpha   90.00000000
_cell_angle_beta   90.00000000
_cell_angle_gamma   90.00000000
_symmetry_Int_Tables_number   1
_chemical_formula_structural   Dy2Be2SiO7
_chemical_formula_sum   'Dy4 Be4 Si2 O14'
_cell_volume   258.48616704
_cell_formula_units_Z   2
loop_
 _symmetry_equiv_pos_site_id
 _symmetry_equiv_pos_as_xyz
  1  'x, y, z'
loop_
 _atom_site_type_symbol
 _atom_site_label
 _atom_site_symmetry_multiplicity
 _atom_site_fract_x
 _atom_site_fract_y
 _atom_site_fract_z
 _atom_site_occupancy
  Dy  Dy0  1  0.15867000  0.34133000  0.51040400  1
  Dy  Dy1  1  0.84133000  0.65867000  0.51040400  1
  Dy  Dy2  1  0.65867000  0.15867000  0.48959600  1
  Dy  Dy3  1  0.34133000  0.84133000  0.48959600  1
  Be  Be0  1  0.63603000  0.86397000  0.95900600  1
  Be  Be1  1  0.36397000  0.13603000  0.95900600  1
  Be  Be2  1  0.13603000  0.63603000  0.04099400  1
  Be  Be3  1  0.86397000  0.36397000  0.04099400  1
  Si  Si0  1  0.00000000  0.00000000  0.00000000  1
  Si  Si1  1  0.50000000  0.50000000  0.00000000  1
  O  O0  1  0.00000000  0.50000000  0.18418900  1
  O  O1  1  0.50000000  0.00000000  0.81581100  1
  O  O2  1  0.64048700  0.85951300  0.29126400  1
  O  O3  1  0.35951300  0.14048700  0.29126400  1
  O  O4  1  0.14048700  0.64048700  0.70873600  1
  O  O5  1  0.85951300  0.35951300  0.70873600  1
  O  O6  1  0.08090900  0.83662200  0.19969800  1
  O  O7  1  0.91909100  0.16337800  0.19969800  1
  O  O8  1  0.16337800  0.08090900  0.80030200  1
  O  O9  1  0.41909100  0.33662200  0.80030200  1
  O  O10  1  0.83662200  0.91909100  0.80030200  1
  O  O11  1  0.58090900  0.66337800  0.80030200  1
  O  O12  1  0.33662200  0.58090900  0.19969800  1
  O  O13  1  0.66337800  0.41909100  0.19969800  1
loop_
_geom_bond_atom_site_label_1
_geom_bond_atom_site_label_2
_geom_bond_distance
_geom_bond_site_symmetry_2
Dy0 O0 2.271529 1_555
Dy0 O3 2.335462 1_555
Dy0 O9 2.364170 1_555
Dy0 O8 2.364170 1_555
Dy0 O4 2.397584 1_555
Dy0 O5 2.397584 1_455
Dy0 O12 2.649733 1_555
Dy0 O7 2.649733 1_455
Dy1 O0 2.271529 1_655
Dy1 O2 2.335462 1_555
Dy1 O10 2.364170 1_555
Dy1 O11 2.364170 1_555
Dy1 O4 2.397584 1_655
Dy1 O5 2.397584 1_555
Dy1 O6 2.649733 1_655
Dy1 O13 2.649733 1_555
Dy2 O1 2.271529 1_555
Dy2 O5 2.335462 1_555
Dy2 O7 2.364170 1_555
Dy2 O13 2.364170 1_555
Dy2 O2 2.397584 1_545
Dy2 O3 2.397584 1_555
Dy2 O10 2.649733 1_545
Dy2 O9 2.649733 1_555
Dy3 O1 2.271529 1_565
Dy3 O4 2.335462 1_555
Dy3 O12 2.364170 1_555
Dy3 O6 2.364170 1_555
Dy3 O2 2.397584 1_555
Dy3 O3 2.397584 1_565
Dy3 O8 2.649733 1_565
Dy3 O11 2.649733 1_555
Be0 O1 1.570692 1_565
Be0 O2 1.592938 1_556
Be0 O10 1.706647 1_555
Be0 O11 1.706647 1_555
Be1 O1 1.570692 1_555
Be1 O3 1.592938 1_556
Be1 O9 1.706647 1_555
Be1 O8 1.706647 1_555
Be2 O0 1.570692 1_555
Be2 O4 1.592938 1_554
Be2 O6 1.706647 1_555
Be2 O12 1.706647 1_555
Be3 O0 1.570692 1_655
Be3 O5 1.592938 1_554
Be3 O13 1.706647 1_555
Be3 O7 1.706647 1_555
O6 Si0 1.645811 1_565
O7 Si0 1.645811 1_655
O8 Si0 1.645811 1_556
O9 Si1 1.645811 1_556
O10 Si0 1.645811 1_666
O11 Si1 1.645811 1_556
O12 Si1 1.645811 1_555
O13 Si1 1.645811 1_555
