# generated using pymatgen
data_DyYMn2O6
_symmetry_space_group_name_H-M   'P 1'
_cell_length_a   6.22942003
_cell_length_b   6.22942003
_cell_length_c   11.57240000
_cell_angle_alpha   90.00000000
_cell_angle_beta   90.00000000
_cell_angle_gamma   120.00000027
_symmetry_Int_Tables_number   1
_chemical_formula_structural   DyYMn2O6
_chemical_formula_sum   'Dy3 Y3 Mn6 O18'
_cell_volume   388.91016669
_cell_formula_units_Z   3
loop_
 _symmetry_equiv_pos_site_id
 _symmetry_equiv_pos_as_xyz
  1  'x, y, z'
loop_
 _atom_site_type_symbol
 _atom_site_label
 _atom_site_symmetry_multiplicity
 _atom_site_fract_x
 _atom_site_fract_y
 _atom_site_fract_z
 _atom_site_occupancy
  Dy  Dy0  1  0.33333300  0.66666700  0.23067200  1
  Dy  Dy1  1  0.66666700  0.33333300  0.77377600  1
  Dy  Dy2  1  0.66666700  0.33333300  0.27387300  1
  Y  Y0  1  0.33333300  0.66666700  0.73109900  1
  Y  Y1  1  0.00000000  0.00000000  0.73116000  1
  Y  Y2  1  0.00000000  0.00000000  0.23135300  1
  Mn  Mn0  1  0.66654900  0.66691800  0.49916100  1
  Mn  Mn1  1  0.33308200  0.99963100  0.49916100  1
  Mn  Mn2  1  0.00036900  0.33345100  0.49916100  1
  Mn  Mn3  1  0.66664800  0.99970500  0.99943700  1
  Mn  Mn4  1  0.00029500  0.66694300  0.99943700  1
  Mn  Mn5  1  0.33305700  0.33335200  0.99943700  1
  O  O0  1  0.66659700  0.97466400  0.83509400  1
  O  O1  1  0.02533600  0.69193300  0.83509400  1
  O  O2  1  0.30806700  0.33340300  0.83509400  1
  O  O3  1  0.66590700  0.69175600  0.33485100  1
  O  O4  1  0.30824400  0.97415100  0.33485100  1
  O  O5  1  0.02584900  0.33409300  0.33485100  1
  O  O6  1  0.66670600  0.64028600  0.66363200  1
  O  O7  1  0.35971400  0.02641900  0.66363200  1
  O  O8  1  0.97358100  0.33329400  0.66363200  1
  O  O9  1  0.66623300  0.02593900  0.16382500  1
  O  O10  1  0.97406100  0.64029400  0.16382500  1
  O  O11  1  0.35970600  0.33376700  0.16382500  1
  O  O12  1  0.66666700  0.33333300  0.97465400  1
  O  O13  1  0.66666700  0.33333300  0.47447400  1
  O  O14  1  0.33333300  0.66666700  0.51911300  1
  O  O15  1  0.00000000  0.00000000  0.51895700  1
  O  O16  1  0.00000000  0.00000000  0.01923700  1
  O  O17  1  0.33333300  0.66666700  0.01969700  1
loop_
_geom_bond_atom_site_label_1
_geom_bond_atom_site_label_2
_geom_bond_distance
_geom_bond_site_symmetry_2
Dy0 O10 2.294913 1_455
Dy0 O9 2.294916 1_565
Dy0 O11 2.294919 1_555
Dy0 O4 2.333710 1_555
Dy0 O5 2.333713 1_555
Dy0 O3 2.333715 1_555
Dy0 O17 2.441487 1_555
Dy1 O7 2.297933 1_555
Dy1 O6 2.297933 1_555
Dy1 O8 2.297933 1_555
Dy1 O12 2.324641 1_555
Dy1 O0 2.344067 1_545
Dy1 O1 2.344070 1_655
Dy1 O2 2.344073 1_555
Dy2 O9 2.298580 1_555
Dy2 O10 2.298583 1_555
Dy2 O11 2.298586 1_555
Dy2 O13 2.321435 1_555
Dy2 O5 2.343880 1_655
Dy2 O4 2.343883 1_545
Dy2 O3 2.343886 1_555
Mn0 O3 1.907912 1_555
Mn0 O6 1.910584 1_555
Mn0 O14 2.087768 1_555
Mn0 O15 2.088659 1_665
Mn0 O13 2.097951 1_555
Mn1 O4 1.907912 1_555
Mn1 O7 1.910583 1_565
Mn1 O14 2.087762 1_555
Mn1 O15 2.088659 1_565
Mn1 O13 2.097948 1_565
Mn2 O5 1.907912 1_555
Mn2 O8 1.910583 1_455
Mn2 O14 2.087765 1_555
Mn2 O15 2.088659 1_555
Mn2 O13 2.097945 1_455
Mn3 O0 1.908217 1_555
Mn3 O9 1.909483 1_566
Mn3 O16 2.088280 1_666
Mn3 O17 2.088698 1_556
Mn3 O12 2.097946 1_565
Mn4 O1 1.908217 1_555
Mn4 O10 1.909483 1_456
Mn4 O16 2.088280 1_566
Mn4 O17 2.088694 1_556
Mn4 O12 2.097949 1_455
Mn5 O2 1.908217 1_555
Mn5 O11 1.909483 1_556
Mn5 O16 2.088280 1_556
Mn5 O17 2.088701 1_556
Mn5 O12 2.097952 1_555
O0 Y0 2.335872 1_555
O0 Y1 2.336087 1_665
O1 Y0 2.335870 1_555
O1 Y1 2.336087 1_565
O2 Y0 2.335875 1_555
O2 Y1 2.336087 1_555
O3 Y2 2.335970 1_665
O4 Y2 2.335970 1_565
O5 Y2 2.335970 1_555
O6 Y1 2.300044 1_665
O6 Y0 2.300139 1_555
O7 Y1 2.300046 1_555
O7 Y0 2.300127 1_545
O8 Y1 2.300040 1_655
O8 Y0 2.300132 1_655
O9 Y2 2.301244 1_655
O10 Y2 2.301244 1_665
O11 Y2 2.301244 1_555
O14 Y0 2.453187 1_555
O15 Y1 2.455698 1_555
O16 Y2 2.454691 1_555
