# generated using pymatgen
data_MgMn4O8
_symmetry_space_group_name_H-M   'P 1'
_cell_length_a   6.08580700
_cell_length_b   6.09148400
_cell_length_c   10.09103691
_cell_angle_alpha   53.98235187
_cell_angle_beta   90.00000000
_cell_angle_gamma   90.00000000
_symmetry_Int_Tables_number   1
_chemical_formula_structural   MgMn4O8
_chemical_formula_sum   'Mg2 Mn8 O16'
_cell_volume   302.57810679
_cell_formula_units_Z   2
loop_
 _symmetry_equiv_pos_site_id
 _symmetry_equiv_pos_as_xyz
  1  'x, y, z'
loop_
 _atom_site_type_symbol
 _atom_site_label
 _atom_site_symmetry_multiplicity
 _atom_site_fract_x
 _atom_site_fract_y
 _atom_site_fract_z
 _atom_site_occupancy
  Mg  Mg0  1  0.24926800  0.12878900  0.12526800  1
  Mg  Mg1  1  0.75073200  0.12878900  0.62526800  1
  Mn  Mn0  1  0.49514600  0.50188900  0.74974700  1
  Mn  Mn1  1  0.99903400  0.50517600  0.24506100  1
  Mn  Mn2  1  0.00096600  0.50517600  0.74506100  1
  Mn  Mn3  1  0.50485400  0.50188900  0.24974700  1
  Mn  Mn4  1  0.23843900  0.99616200  0.50200500  1
  Mn  Mn5  1  0.76156100  0.99616200  0.00200500  1
  Mn  Mn6  1  0.24353600  0.50148400  0.50331600  1
  Mn  Mn7  1  0.75646400  0.50148400  0.00331600  1
  O  O0  1  0.22198600  0.73746000  0.73278200  1
  O  O1  1  0.77801400  0.73746000  0.23278200  1
  O  O2  1  0.23094500  0.29807700  0.73738300  1
  O  O3  1  0.76905500  0.29807700  0.23738300  1
  O  O4  1  0.45812700  0.71744800  0.51579900  1
  O  O5  1  0.97917700  0.70995500  0.01410600  1
  O  O6  1  0.02082300  0.70995500  0.51410600  1
  O  O7  1  0.54187300  0.71744800  0.01579900  1
  O  O8  1  0.24171300  0.71611400  0.25867500  1
  O  O9  1  0.75828700  0.71611400  0.75867500  1
  O  O10  1  0.23707000  0.26059200  0.26429900  1
  O  O11  1  0.76293000  0.26059200  0.76429900  1
  O  O12  1  0.47241300  0.27628300  0.49013500  1
  O  O13  1  0.97745700  0.27573600  0.98670300  1
  O  O14  1  0.02254300  0.27573600  0.48670300  1
  O  O15  1  0.52758700  0.27628300  0.99013500  1
loop_
_geom_bond_atom_site_label_1
_geom_bond_atom_site_label_2
_geom_bond_distance
_geom_bond_site_symmetry_2
Mg0 O10 1.985742 1_555
Mg0 O13 2.005179 1_454
Mg0 O15 2.023557 1_554
Mg0 O8 2.038052 1_545
Mg1 O11 1.985742 1_555
Mg1 O14 2.005179 1_655
Mg1 O12 2.023557 1_555
Mg1 O9 2.038052 1_545
Mn0 O4 1.924194 1_555
Mn0 O15 1.972643 1_555
Mn0 O2 2.079512 1_555
Mn0 O9 2.100913 1_555
Mn0 O0 2.136147 1_555
Mn0 O11 2.141042 1_555
Mn1 O5 1.892926 1_555
Mn1 O1 1.902764 1_555
Mn1 O3 1.916074 1_555
Mn1 O14 1.977795 1_655
Mn1 O10 2.003954 1_655
Mn1 O8 2.014630 1_655
Mn2 O6 1.892926 1_555
Mn2 O0 1.902764 1_555
Mn2 O2 1.916074 1_555
Mn2 O13 1.977795 1_455
Mn2 O11 2.003954 1_455
Mn2 O9 2.014630 1_455
Mn3 O7 1.924194 1_555
Mn3 O12 1.972643 1_555
Mn3 O3 2.079512 1_555
Mn3 O8 2.100913 1_555
Mn3 O1 2.136147 1_555
Mn3 O10 2.141042 1_555
Mn4 O0 1.897527 1_555
Mn4 O10 1.950480 1_565
Mn4 O14 2.083552 1_565
Mn4 O4 2.100338 1_555
Mn4 O6 2.134952 1_555
Mn4 O12 2.170982 1_565
Mn5 O1 1.897527 1_555
Mn5 O11 1.950480 1_564
Mn5 O13 2.083552 1_564
Mn5 O7 2.100338 1_555
Mn5 O5 2.134952 1_555
Mn5 O15 2.170982 1_564
Mn6 O6 1.903730 1_555
Mn6 O4 1.909696 1_555
Mn6 O2 1.917854 1_555
Mn6 O14 1.999762 1_555
Mn6 O8 2.001993 1_555
Mn6 O12 2.013533 1_555
Mn7 O5 1.903730 1_555
Mn7 O7 1.909696 1_555
Mn7 O3 1.917854 1_555
Mn7 O13 1.999762 1_554
Mn7 O9 2.001993 1_554
Mn7 O15 2.013533 1_554
