# generated using pymatgen
data_V3O5
_symmetry_space_group_name_H-M   'P 1'
_cell_length_a   5.18906077
_cell_length_b   5.74591077
_cell_length_c   7.09586869
_cell_angle_alpha   109.80228134
_cell_angle_beta   90.57332721
_cell_angle_gamma   62.62106441
_symmetry_Int_Tables_number   1
_chemical_formula_structural   V3O5
_chemical_formula_sum   'V6 O10'
_cell_volume   174.04930479
_cell_formula_units_Z   2
loop_
 _symmetry_equiv_pos_site_id
 _symmetry_equiv_pos_as_xyz
  1  'x, y, z'
loop_
 _atom_site_type_symbol
 _atom_site_label
 _atom_site_symmetry_multiplicity
 _atom_site_fract_x
 _atom_site_fract_y
 _atom_site_fract_z
 _atom_site_occupancy
  V  V0  1  0.86986200  0.76238700  0.22299000  1
  V  V1  1  0.86969800  0.75875400  0.72051800  1
  V  V2  1  0.13013800  0.23761600  0.77701000  1
  V  V3  1  0.13030300  0.24124300  0.27948200  1
  V  V4  1  0.49999400  0.50000700  0.49999900  1
  V  V5  1  0.50000200  0.49999800  0.00000000  1
  O  O0  1  0.70303200  0.49093000  0.74705400  1
  O  O1  1  0.29696800  0.50906900  0.25294600  1
  O  O2  1  0.15632300  0.89713600  0.66672700  1
  O  O3  1  0.47493800  0.87206000  0.16150700  1
  O  O4  1  0.84367500  0.10286500  0.33327300  1
  O  O5  1  0.52506300  0.12793800  0.83849300  1
  O  O6  1  0.06636900  0.66233000  0.94787500  1
  O  O7  1  0.76496800  0.65418900  0.43763000  1
  O  O8  1  0.93363400  0.33766800  0.05212500  1
  O  O9  1  0.23503300  0.34581100  0.56237000  1
loop_
_geom_bond_atom_site_label_1
_geom_bond_atom_site_label_2
_geom_bond_distance
_geom_bond_site_symmetry_2
O0 V4 2.039717 1_555
O0 V5 2.063542 1_556
O0 V2 2.075779 1_655
O0 V1 2.138989 1_555
O1 V4 2.039667 1_555
O1 V5 2.063544 1_555
O1 V0 2.075785 1_455
O1 V3 2.138996 1_555
O2 V2 1.782852 1_565
O2 V4 2.063299 1_555
O2 V1 2.072372 1_455
O3 V3 1.932987 1_565
O3 V0 1.941042 1_555
O3 V5 1.996967 1_555
O4 V0 1.782837 1_545
O4 V4 2.063353 1_555
O4 V3 2.072368 1_655
O5 V1 1.932990 1_545
O5 V2 1.941044 1_555
O5 V5 1.996964 1_556
O6 V0 1.980278 1_456
O6 V1 2.000952 1_455
O6 V5 2.087272 1_556
O6 V2 2.189858 1_555
O7 V0 1.992951 1_555
O7 V1 2.036429 1_555
O7 V4 2.066256 1_555
O7 V3 2.141132 1_655
O8 V2 1.980280 1_654
O8 V3 2.000950 1_655
O8 V5 2.087267 1_555
O8 V0 2.189877 1_555
O9 V2 1.992942 1_555
O9 V3 2.036431 1_555
O9 V4 2.066268 1_555
O9 V1 2.141123 1_455
