# generated using pymatgen
data_Ta3(CrSi)8
_symmetry_space_group_name_H-M   'P 1'
_cell_length_a   4.81201500
_cell_length_b   13.08823200
_cell_length_c   15.66958600
_cell_angle_alpha   90.00000000
_cell_angle_beta   90.00000000
_cell_angle_gamma   90.00000000
_symmetry_Int_Tables_number   1
_chemical_formula_structural   Ta3(CrSi)8
_chemical_formula_sum   'Ta12 Cr32 Si32'
_cell_volume   986.88257161
_cell_formula_units_Z   4
loop_
 _symmetry_equiv_pos_site_id
 _symmetry_equiv_pos_as_xyz
  1  'x, y, z'
loop_
 _atom_site_type_symbol
 _atom_site_label
 _atom_site_symmetry_multiplicity
 _atom_site_fract_x
 _atom_site_fract_y
 _atom_site_fract_z
 _atom_site_occupancy
  Ta  Ta0  1  0.25000000  0.56423400  0.30503100  1
  Ta  Ta1  1  0.25000000  0.06423400  0.19496900  1
  Ta  Ta2  1  0.75000000  0.43576600  0.69496900  1
  Ta  Ta3  1  0.75000000  0.93576600  0.80503100  1
  Ta  Ta4  1  0.25000000  0.86512300  0.45791500  1
  Ta  Ta5  1  0.25000000  0.36512300  0.04208500  1
  Ta  Ta6  1  0.75000000  0.13487700  0.54208500  1
  Ta  Ta7  1  0.75000000  0.63487700  0.95791500  1
  Ta  Ta8  1  0.25000000  0.75143900  0.02826600  1
  Ta  Ta9  1  0.25000000  0.25143900  0.47173400  1
  Ta  Ta10  1  0.75000000  0.24856100  0.97173400  1
  Ta  Ta11  1  0.75000000  0.74856100  0.52826600  1
  Cr  Cr0  1  0.99304800  0.86643300  0.17216900  1
  Cr  Cr1  1  0.50695200  0.36643300  0.32783100  1
  Cr  Cr2  1  0.49304800  0.13356700  0.82783100  1
  Cr  Cr3  1  0.00695200  0.63356700  0.67216900  1
  Cr  Cr4  1  0.00695200  0.13356700  0.82783100  1
  Cr  Cr5  1  0.49304800  0.63356700  0.67216900  1
  Cr  Cr6  1  0.50695200  0.86643300  0.17216900  1
  Cr  Cr7  1  0.99304800  0.36643300  0.32783100  1
  Cr  Cr8  1  0.01039100  0.56022200  0.12243800  1
  Cr  Cr9  1  0.48960900  0.06022200  0.37756200  1
  Cr  Cr10  1  0.51039100  0.43977800  0.87756200  1
  Cr  Cr11  1  0.98960900  0.93977800  0.62243800  1
  Cr  Cr12  1  0.98960900  0.43977800  0.87756200  1
  Cr  Cr13  1  0.51039100  0.93977800  0.62243800  1
  Cr  Cr14  1  0.48960900  0.56022200  0.12243800  1
  Cr  Cr15  1  0.01039100  0.06022200  0.37756200  1
  Cr  Cr16  1  0.25000000  0.63705100  0.84513000  1
  Cr  Cr17  1  0.25000000  0.13705100  0.65487000  1
  Cr  Cr18  1  0.75000000  0.36294900  0.15487000  1
  Cr  Cr19  1  0.75000000  0.86294900  0.34513000  1
  Cr  Cr20  1  0.25000000  0.95694300  0.90562200  1
  Cr  Cr21  1  0.25000000  0.45694300  0.59437800  1
  Cr  Cr22  1  0.75000000  0.04305700  0.09437800  1
  Cr  Cr23  1  0.75000000  0.54305700  0.40562200  1
  Cr  Cr24  1  0.25000000  0.62430000  0.50693300  1
  Cr  Cr25  1  0.25000000  0.12430000  0.99306700  1
  Cr  Cr26  1  0.75000000  0.37570000  0.49306700  1
  Cr  Cr27  1  0.75000000  0.87570000  0.00693300  1
  Cr  Cr28  1  0.25000000  0.81245600  0.75068900  1
  Cr  Cr29  1  0.25000000  0.31245600  0.74931100  1
  Cr  Cr30  1  0.75000000  0.18754400  0.24931100  1
  Cr  Cr31  1  0.75000000  0.68754400  0.25068900  1
  Si  Si0  1  0.99930500  0.71128600  0.38183000  1
  Si  Si1  1  0.50069500  0.21128500  0.11817000  1
  Si  Si2  1  0.49930500  0.28871400  0.61817000  1
  Si  Si3  1  0.00069500  0.78871400  0.88183000  1
  Si  Si4  1  0.00069500  0.28871400  0.61817000  1
  Si  Si5  1  0.49930500  0.78871400  0.88183000  1
  Si  Si6  1  0.50069500  0.71128600  0.38183000  1
  Si  Si7  1  0.99930500  0.21128500  0.11817000  1
  Si  Si8  1  0.25000000  0.70970800  0.19498900  1
  Si  Si9  1  0.25000000  0.20970800  0.30501100  1
  Si  Si10  1  0.75000000  0.29029200  0.80501100  1
  Si  Si11  1  0.75000000  0.79029200  0.69498900  1
  Si  Si12  1  0.25000000  0.91008200  0.30091700  1
  Si  Si13  1  0.25000000  0.41008200  0.19908300  1
  Si  Si14  1  0.75000000  0.08991800  0.69908300  1
  Si  Si15  1  0.75000000  0.58991800  0.80091700  1
  Si  Si16  1  0.25000000  0.55024400  0.98169300  1
  Si  Si17  1  0.25000000  0.05024400  0.51830700  1
  Si  Si18  1  0.75000000  0.44975600  0.01830700  1
  Si  Si19  1  0.75000000  0.94975600  0.48169300  1
  Si  Si20  1  0.25000000  0.95281500  0.05612900  1
  Si  Si21  1  0.25000000  0.45281500  0.44387100  1
  Si  Si22  1  0.75000000  0.04718500  0.94387100  1
  Si  Si23  1  0.75000000  0.54718500  0.55612900  1
  Si  Si24  1  0.25000000  0.77442700  0.60406700  1
  Si  Si25  1  0.25000000  0.27442700  0.89593300  1
  Si  Si26  1  0.75000000  0.22557300  0.39593300  1
  Si  Si27  1  0.75000000  0.72557300  0.10406700  1
  Si  Si28  1  0.25000000  0.99674600  0.75170800  1
  Si  Si29  1  0.25000000  0.49674600  0.74829200  1
  Si  Si30  1  0.75000000  0.00325400  0.24829200  1
  Si  Si31  1  0.75000000  0.50325400  0.25170800  1
loop_
_geom_bond_atom_site_label_1
_geom_bond_atom_site_label_2
_geom_bond_distance
_geom_bond_site_symmetry_2
Cr0 Si8 2.421638 1_655
Cr0 Si27 2.430125 1_555
Cr0 Si12 2.434176 1_655
Cr0 Si30 2.448964 1_565
Cr0 Si20 2.472502 1_655
Cr1 Si9 2.421638 1_555
Cr1 Si26 2.430125 1_555
Cr1 Si13 2.434176 1_555
Cr1 Si31 2.448964 1_555
Cr1 Si21 2.472502 1_555
Cr2 Si10 2.421638 1_555
Cr2 Si25 2.430125 1_555
Cr2 Si14 2.434176 1_555
Cr2 Si28 2.448964 1_545
Cr2 Si22 2.472502 1_555
Cr3 Si11 2.421638 1_455
Cr3 Si24 2.430125 1_555
Cr3 Si15 2.434176 1_455
Cr3 Si29 2.448964 1_555
Cr3 Si23 2.472502 1_455
Cr4 Si10 2.421638 1_455
Cr4 Si25 2.430125 1_555
Cr4 Si14 2.434176 1_455
Cr4 Si28 2.448964 1_545
Cr4 Si22 2.472502 1_455
Cr5 Si11 2.421638 1_555
Cr5 Si24 2.430125 1_555
Cr5 Si15 2.434176 1_555
Cr5 Si29 2.448964 1_555
Cr5 Si23 2.472502 1_555
Cr6 Si8 2.421638 1_555
Cr6 Si27 2.430125 1_555
Cr6 Si12 2.434176 1_555
Cr6 Si30 2.448964 1_565
Cr6 Si20 2.472502 1_555
Cr7 Si9 2.421638 1_655
Cr7 Si26 2.430125 1_555
Cr7 Si13 2.434176 1_655
Cr7 Si31 2.448964 1_555
Cr7 Si21 2.472502 1_655
Cr8 Si16 2.492053 1_554
Cr8 Si31 2.495805 1_455
Cr8 Si18 2.514515 1_455
Cr8 Si27 2.517229 1_455
Cr8 Si8 2.539636 1_555
Cr8 Si13 2.575518 1_555
Cr9 Si17 2.492053 1_555
Cr9 Si30 2.495805 1_555
Cr9 Si19 2.514515 1_545
Cr9 Si26 2.517229 1_555
Cr9 Si9 2.539636 1_555
Cr9 Si12 2.575518 1_545
Cr10 Cr12 2.306004 1_555
Cr10 Si18 2.492053 1_556
Cr10 Si29 2.495805 1_555
Cr10 Cr12 2.506011 1_455
Cr10 Si16 2.514515 1_555
Cr10 Si25 2.517229 1_555
Cr10 Si10 2.539636 1_555
Cr10 Si15 2.575518 1_555
Cr11 Cr13 2.306004 1_555
Cr11 Si19 2.492053 1_555
Cr11 Si28 2.495805 1_655
Cr11 Cr13 2.506011 1_655
Cr11 Si17 2.514515 1_665
Cr11 Si24 2.517229 1_655
Cr11 Si11 2.539636 1_555
Cr11 Si14 2.575518 1_565
Cr12 Si18 2.492053 1_556
Cr12 Si29 2.495805 1_655
Cr12 Si16 2.514515 1_655
Cr12 Si25 2.517229 1_655
Cr12 Si10 2.539636 1_555
Cr12 Si15 2.575518 1_555
Cr13 Si19 2.492053 1_555
Cr13 Si28 2.495805 1_555
Cr13 Si17 2.514515 1_565
Cr13 Si24 2.517229 1_555
Cr13 Si11 2.539636 1_555
Cr13 Si14 2.575518 1_565
Cr14 Cr8 2.306004 1_555
Cr14 Si16 2.492053 1_554
Cr14 Si31 2.495805 1_555
Cr14 Cr8 2.506011 1_655
Cr14 Si18 2.514515 1_555
Cr14 Si27 2.517229 1_555
Cr14 Si8 2.539636 1_555
Cr14 Si13 2.575518 1_555
Cr15 Cr9 2.306004 1_555
Cr15 Si17 2.492053 1_555
Cr15 Si30 2.495805 1_455
Cr15 Cr9 2.506011 1_455
Cr15 Si19 2.514515 1_445
Cr15 Si26 2.517229 1_455
Cr15 Si9 2.539636 1_555
Cr15 Si12 2.575518 1_545
Cr16 Si29 2.382162 1_555
Cr16 Si3 2.389586 1_555
Cr16 Si5 2.389586 1_555
Cr16 Si16 2.422798 1_555
Cr16 Si15 2.578642 1_555
Cr16 Si15 2.578642 1_455
Cr17 Si28 2.382162 1_545
Cr17 Si4 2.389586 1_555
Cr17 Si2 2.389586 1_555
Cr17 Si17 2.422798 1_555
Cr17 Si14 2.578642 1_455
Cr17 Si14 2.578642 1_555
Cr18 Si31 2.382162 1_555
Cr18 Si1 2.389597 1_555
Cr18 Si7 2.389597 1_555
Cr18 Si18 2.422798 1_555
Cr18 Si13 2.578642 1_555
Cr18 Si13 2.578642 1_655
Cr19 Si30 2.382162 1_565
Cr19 Si6 2.389586 1_555
Cr19 Si0 2.389586 1_555
Cr19 Si19 2.422798 1_555
Cr19 Si12 2.578642 1_555
Cr19 Si12 2.578642 1_655
Cr20 Si20 2.359001 1_556
Cr20 Si28 2.467391 1_555
Cr20 Si3 2.534992 1_555
Cr20 Si5 2.534992 1_555
Cr20 Si22 2.746471 1_465
Cr20 Si22 2.746471 1_565
Cr21 Si21 2.359001 1_555
Cr21 Si29 2.467391 1_555
Cr21 Si4 2.534992 1_555
Cr21 Si2 2.534992 1_555
Cr21 Si23 2.746471 1_455
Cr21 Si23 2.746471 1_555
Cr22 Si22 2.359001 1_554
Cr22 Si30 2.467391 1_555
Cr22 Si1 2.534980 1_555
Cr22 Si7 2.534980 1_555
Cr22 Si20 2.746471 1_545
Cr22 Si20 2.746471 1_645
Cr23 Si23 2.359001 1_555
Cr23 Si31 2.467391 1_555
Cr23 Si6 2.534992 1_555
Cr23 Si0 2.534992 1_555
Cr23 Si21 2.746471 1_555
Cr23 Si21 2.746471 1_655
Cr24 Si21 2.452334 1_555
Cr24 Si24 2.485449 1_555
Cr24 Si0 2.567930 1_455
Cr24 Si6 2.567930 1_555
Cr24 Si23 2.720628 1_455
Cr24 Si23 2.720628 1_555
Cr25 Si20 2.452334 1_546
Cr25 Si25 2.485449 1_555
Cr25 Si1 2.567924 1_556
Cr25 Si7 2.567924 1_456
Cr25 Si22 2.720628 1_555
Cr25 Si22 2.720628 1_455
Cr26 Si23 2.452334 1_555
Cr26 Si26 2.485449 1_555
Cr26 Si2 2.567930 1_555
Cr26 Si4 2.567930 1_655
Cr26 Si21 2.720628 1_555
Cr26 Si21 2.720628 1_655
Cr27 Si22 2.452334 1_564
Cr27 Si27 2.485449 1_555
Cr27 Si3 2.567930 1_654
Cr27 Si5 2.567930 1_554
Cr27 Si20 2.720628 1_655
Cr27 Si20 2.720628 1_555
Cr28 Si24 2.350802 1_555
Cr28 Si3 2.399679 1_555
Cr28 Si5 2.399679 1_555
Cr28 Si28 2.412083 1_555
Cr28 Si11 2.575810 1_555
Cr28 Si11 2.575810 1_455
Cr29 Si25 2.350802 1_555
Cr29 Si4 2.399679 1_555
Cr29 Si2 2.399679 1_555
Cr29 Si29 2.412083 1_555
Cr29 Si10 2.575810 1_555
Cr29 Si10 2.575810 1_455
Cr30 Si26 2.350802 1_555
Cr30 Si7 2.399677 1_555
Cr30 Si1 2.399677 1_555
Cr30 Si30 2.412083 1_555
Cr30 Si9 2.575810 1_655
Cr30 Si9 2.575810 1_555
Cr31 Si27 2.350802 1_555
Cr31 Si6 2.399679 1_555
Cr31 Si0 2.399679 1_555
Cr31 Si31 2.412083 1_555
Cr31 Si8 2.575810 1_555
Cr31 Si8 2.575810 1_655
Si0 Si6 2.399319 1_555
Si0 Si6 2.412696 1_655
Si0 Ta0 2.570554 1_655
Si0 Ta4 2.632615 1_655
Si0 Ta11 2.634833 1_555
Si1 Si7 2.399319 1_555
Si1 Si7 2.412696 1_455
Si1 Ta1 2.570544 1_555
Si1 Ta5 2.632625 1_555
Si1 Ta10 2.634835 1_554
Si2 Si4 2.399319 1_555
Si2 Si4 2.412696 1_655
Si2 Ta2 2.570554 1_555
Si2 Ta6 2.632615 1_555
Si2 Ta9 2.634833 1_555
Si3 Si5 2.399319 1_555
Si3 Si5 2.412696 1_455
Si3 Ta3 2.570554 1_455
Si3 Ta7 2.632615 1_455
Si3 Ta8 2.634833 1_556
Si4 Ta2 2.570554 1_455
Si4 Ta6 2.632615 1_455
Si4 Ta9 2.634833 1_555
Si5 Ta3 2.570554 1_555
Si5 Ta7 2.632615 1_555
Si5 Ta8 2.634833 1_556
Si6 Ta0 2.570554 1_555
Si6 Ta4 2.632615 1_555
Si6 Ta11 2.634833 1_555
Si7 Ta1 2.570544 1_655
Si7 Ta5 2.632625 1_655
Si7 Ta10 2.634835 1_554
Si8 Ta0 2.568747 1_555
Si8 Ta8 2.668965 1_555
Si9 Ta1 2.568747 1_555
Si9 Ta9 2.668965 1_555
Si10 Ta2 2.568747 1_555
Si10 Ta10 2.668965 1_555
Si11 Ta3 2.568747 1_555
Si11 Ta11 2.668965 1_555
Si12 Ta4 2.529489 1_555
Si12 Ta1 2.612806 1_565
Si13 Ta5 2.529489 1_555
Si13 Ta0 2.612806 1_555
Si14 Ta6 2.529489 1_555
Si14 Ta3 2.612806 1_545
Si15 Ta7 2.529489 1_555
Si15 Ta2 2.612806 1_555
Si16 Ta5 2.601152 1_556
Si16 Ta7 2.674825 1_455
Si16 Ta7 2.674825 1_555
Si16 Ta8 2.732541 1_556
Si17 Ta4 2.601152 1_545
Si17 Ta6 2.674825 1_455
Si17 Ta6 2.674825 1_555
Si17 Ta9 2.732541 1_555
Si18 Ta7 2.601152 1_554
Si18 Ta5 2.674825 1_655
Si18 Ta5 2.674825 1_555
Si18 Ta10 2.732541 1_554
Si19 Ta6 2.601152 1_565
Si19 Ta4 2.674825 1_555
Si19 Ta4 2.674825 1_655
Si19 Ta11 2.732541 1_555
Si20 Ta1 2.619095 1_565
Si20 Ta8 2.671573 1_555
Si21 Ta0 2.619095 1_555
Si21 Ta9 2.671573 1_555
Si22 Ta3 2.619095 1_545
Si22 Ta10 2.671573 1_555
Si23 Ta2 2.619095 1_555
Si23 Ta11 2.671573 1_555
Si24 Ta4 2.579503 1_555
Si24 Ta11 2.704493 1_455
Si24 Ta11 2.704493 1_555
Si25 Ta5 2.579503 1_556
Si25 Ta10 2.704493 1_455
Si25 Ta10 2.704493 1_555
Si26 Ta6 2.579503 1_555
Si26 Ta9 2.704493 1_655
Si26 Ta9 2.704493 1_555
Si27 Ta7 2.579503 1_554
Si27 Ta8 2.704493 1_655
Si27 Ta8 2.704493 1_555
Si28 Ta3 2.669084 1_455
Si28 Ta3 2.669084 1_555
Si29 Ta2 2.669084 1_455
Si29 Ta2 2.669084 1_555
Si30 Ta1 2.669084 1_655
Si30 Ta1 2.669084 1_555
Si31 Ta0 2.669084 1_655
Si31 Ta0 2.669084 1_555
