# generated using pymatgen
data_CaAl2Si3O13
_symmetry_space_group_name_H-M   'P 1'
_cell_length_a   9.74121613
_cell_length_b   9.74121613
_cell_length_c   9.72552223
_cell_angle_alpha   83.84856324
_cell_angle_beta   83.84856324
_cell_angle_gamma   139.79838859
_symmetry_Int_Tables_number   1
_chemical_formula_structural   CaAl2Si3O13
_chemical_formula_sum   'Ca2 Al4 Si6 O26'
_cell_volume   565.99539358
_cell_formula_units_Z   2
loop_
 _symmetry_equiv_pos_site_id
 _symmetry_equiv_pos_as_xyz
  1  'x, y, z'
loop_
 _atom_site_type_symbol
 _atom_site_label
 _atom_site_symmetry_multiplicity
 _atom_site_fract_x
 _atom_site_fract_y
 _atom_site_fract_z
 _atom_site_occupancy
  Ca  Ca0  1  0.25801000  0.04880400  0.44082100  1
  Ca  Ca1  1  0.04880400  0.25801000  0.94082100  1
  Al  Al0  1  0.18244000  0.62890200  0.41996000  1
  Al  Al1  1  0.62890200  0.18244000  0.91996000  1
  Al  Al2  1  0.38022900  0.31948500  0.05686400  1
  Al  Al3  1  0.31948500  0.38022900  0.55686400  1
  Si  Si0  1  0.64918900  0.89388400  0.48086500  1
  Si  Si1  1  0.89388400  0.64918900  0.98086500  1
  Si  Si2  1  0.13474600  0.30903300  0.29316400  1
  Si  Si3  1  0.30903300  0.13474600  0.79316400  1
  Si  Si4  1  0.21359900  0.88605200  0.17748600  1
  Si  Si5  1  0.88605200  0.21359900  0.67748600  1
  O  O0  1  0.41758300  0.96021400  0.07880000  1
  O  O1  1  0.96021400  0.41758300  0.57880000  1
  O  O2  1  0.14489700  0.76908500  0.34753900  1
  O  O3  1  0.76908500  0.14489700  0.84753900  1
  O  O4  1  0.28952900  0.10429900  0.18600400  1
  O  O5  1  0.10429900  0.28952900  0.68600400  1
  O  O6  1  0.66748200  0.56515900  0.01895700  1
  O  O7  1  0.56515900  0.66748200  0.51895700  1
  O  O8  1  0.22724200  0.34490100  0.12467100  1
  O  O9  1  0.34490100  0.22724200  0.62467100  1
  O  O10  1  0.24023200  0.28510200  0.40122000  1
  O  O11  1  0.28510200  0.24023200  0.90122000  1
  O  O12  1  0.86379400  0.06987400  0.33549500  1
  O  O13  1  0.06987400  0.86379400  0.83549500  1
  O  O14  1  0.18759200  0.50700800  0.30656000  1
  O  O15  1  0.50700800  0.18759200  0.80656000  1
  O  O16  1  0.99886400  0.72229600  0.11615300  1
  O  O17  1  0.72229600  0.99886400  0.61615300  1
  O  O18  1  0.44445800  0.83063100  0.45594700  1
  O  O19  1  0.83063100  0.44445800  0.95594700  1
  O  O20  1  0.61417500  0.20045300  0.36252400  1
  O  O21  1  0.20045300  0.61417500  0.86252400  1
  O  O22  1  0.72824300  0.83792200  0.07549700  1
  O  O23  1  0.83792200  0.72824300  0.57549700  1
  O  O24  1  0.72489900  0.19869700  0.17397400  1
  O  O25  1  0.19869700  0.72489900  0.67397400  1
loop_
_geom_bond_atom_site_label_1
_geom_bond_atom_site_label_2
_geom_bond_distance
_geom_bond_site_symmetry_2
Ca0 O2 2.370537 1_545
Ca0 O9 2.382827 1_555
Ca0 O4 2.413378 1_555
Ca0 O10 2.431044 1_555
Ca0 O20 2.482534 1_555
Ca0 O23 2.582124 1_445
Ca1 O3 2.370537 1_455
Ca1 O8 2.382827 1_556
Ca1 O5 2.413378 1_555
Ca1 O11 2.431044 1_555
Ca1 O21 2.482534 1_555
Ca1 O22 2.582124 1_446
Al0 O14 1.728751 1_555
Al0 O1 1.762040 1_455
Al0 O2 1.762529 1_555
Al0 O18 1.782093 1_555
Al1 O15 1.728751 1_555
Al1 O0 1.762040 1_546
Al1 O3 1.762529 1_555
Al1 O19 1.782093 1_555
Al2 O6 1.747436 1_555
Al2 O8 1.762130 1_555
Al2 O4 1.766598 1_555
Al2 O11 1.790058 1_554
Al3 O7 1.747436 1_555
Al3 O9 1.762130 1_555
Al3 O5 1.766598 1_555
Al3 O10 1.790058 1_555
O0 Si4 1.625212 1_555
O1 Si5 1.625212 1_555
O2 Si4 1.635689 1_555
O3 Si5 1.635689 1_555
O4 Si4 1.650029 1_545
O5 Si5 1.650029 1_455
O6 Si1 1.635074 1_554
O7 Si0 1.635074 1_555
O8 Si2 1.642914 1_555
O9 Si3 1.642914 1_555
O10 Si2 1.661162 1_555
O11 Si3 1.661162 1_555
O12 Si0 1.637268 1_545
O12 Si2 1.652889 1_655
O13 Si1 1.637268 1_455
O13 Si3 1.652889 1_565
O14 Si2 1.597768 1_555
O15 Si3 1.597768 1_555
O16 Si4 1.627939 1_655
O16 Si1 1.631206 1_554
O17 Si5 1.627939 1_565
O17 Si0 1.631206 1_555
O18 Si0 1.635301 1_555
O19 Si1 1.635301 1_555
O20 O24 2.034034 1_555
O21 O25 2.034034 1_555
