# generated using pymatgen
data_Ba2ZnSb2
_symmetry_space_group_name_H-M   'P 1'
_cell_length_a   7.03461276
_cell_length_b   7.26729743
_cell_length_c   8.75070885
_cell_angle_alpha   114.53445904
_cell_angle_beta   113.69984938
_cell_angle_gamma   90.00000000
_symmetry_Int_Tables_number   1
_chemical_formula_structural   Ba2ZnSb2
_chemical_formula_sum   'Ba4 Zn2 Sb4'
_cell_volume   365.08876354
_cell_formula_units_Z   2
loop_
 _symmetry_equiv_pos_site_id
 _symmetry_equiv_pos_as_xyz
  1  'x, y, z'
loop_
 _atom_site_type_symbol
 _atom_site_label
 _atom_site_symmetry_multiplicity
 _atom_site_fract_x
 _atom_site_fract_y
 _atom_site_fract_z
 _atom_site_occupancy
  Ba  Ba0  1  0.86332990  0.06717833  0.72666081  1
  Ba  Ba1  1  0.13667010  0.93282167  0.27333919  1
  Ba  Ba2  1  0.63667010  0.34051653  0.27333919  1
  Ba  Ba3  1  0.36332990  0.65948247  0.72666081  1
  Zn  Zn0  1  0.75000000  0.50000000  0.00000000  1
  Zn  Zn1  1  0.25000000  0.50000000  0.00000000  1
  Sb  Sb0  1  0.61020868  0.81500650  0.22041537  1
  Sb  Sb1  1  0.38979132  0.18499350  0.77958463  1
  Sb  Sb2  1  0.88979132  0.59459013  0.77958463  1
  Sb  Sb3  1  0.11020868  0.40540987  0.22041537  1
loop_
_geom_bond_atom_site_label_1
_geom_bond_atom_site_label_2
_geom_bond_distance
_geom_bond_site_symmetry_2
Ba0 Zn0 3.396374 1_556
Ba0 Zn1 3.396378 1_656
Ba0 Sb3 3.588070 1_656
Ba0 Sb1 3.599308 1_655
Ba0 Sb1 3.599315 1_555
Ba0 Sb0 3.615324 1_545
Ba0 Sb2 3.646386 1_545
Ba0 Sb2 3.660118 1_555
Ba1 Zn1 3.396374 1_555
Ba1 Zn0 3.396378 1_455
Ba1 Sb2 3.588070 1_454
Ba1 Sb0 3.599308 1_455
Ba1 Sb0 3.599315 1_555
Ba1 Sb1 3.615324 1_565
Ba1 Sb3 3.646386 1_565
Ba1 Sb3 3.660118 1_555
Ba2 Zn0 3.396379 1_555
Ba2 Zn1 3.396382 1_555
Ba2 Sb1 3.588070 1_554
Ba2 Sb3 3.599311 1_555
Ba2 Sb3 3.599318 1_655
Ba2 Sb2 3.615324 1_555
Ba2 Sb0 3.646372 1_545
Ba2 Sb0 3.660133 1_555
Ba3 Zn1 3.396374 1_556
Ba3 Zn0 3.396377 1_556
Ba3 Sb0 3.588069 1_556
Ba3 Sb2 3.599309 1_555
Ba3 Sb2 3.599316 1_455
Ba3 Sb3 3.615324 1_555
Ba3 Sb1 3.646379 1_565
Ba3 Sb1 3.660125 1_555
Sb0 Zn0 2.790288 1_555
Sb0 Zn1 2.790297 1_555
Sb1 Zn1 2.790288 1_556
Sb1 Zn0 2.790297 1_556
Sb2 Zn0 2.790284 1_556
Sb2 Zn1 2.790293 1_656
Sb3 Zn1 2.790284 1_555
Sb3 Zn0 2.790293 1_455
