# generated using pymatgen
data_Dy5Si3B
_symmetry_space_group_name_H-M   'P 1'
_cell_length_a   8.55250920
_cell_length_b   8.55250920
_cell_length_c   6.33655100
_cell_angle_alpha   90.00000000
_cell_angle_beta   90.00000000
_cell_angle_gamma   119.99999380
_symmetry_Int_Tables_number   1
_chemical_formula_structural   Dy5Si3B
_chemical_formula_sum   'Dy10 Si6 B2'
_cell_volume   401.39383082
_cell_formula_units_Z   2
loop_
 _symmetry_equiv_pos_site_id
 _symmetry_equiv_pos_as_xyz
  1  'x, y, z'
loop_
 _atom_site_type_symbol
 _atom_site_label
 _atom_site_symmetry_multiplicity
 _atom_site_fract_x
 _atom_site_fract_y
 _atom_site_fract_z
 _atom_site_occupancy
  Dy  Dy0  1  0.76019800  0.76019800  0.25000000  1
  Dy  Dy1  1  0.76019800  0.00000000  0.75000000  1
  Dy  Dy2  1  0.00000000  0.23980200  0.25000000  1
  Dy  Dy3  1  0.00000000  0.76019800  0.75000000  1
  Dy  Dy4  1  0.23980200  0.23980200  0.75000000  1
  Dy  Dy5  1  0.23980200  0.00000000  0.25000000  1
  Dy  Dy6  1  0.66666700  0.33333300  0.00000000  1
  Dy  Dy7  1  0.33333300  0.66666700  0.50000000  1
  Dy  Dy8  1  0.33333300  0.66666700  0.00000000  1
  Dy  Dy9  1  0.66666700  0.33333300  0.50000000  1
  Si  Si0  1  0.39898500  0.00000000  0.75000000  1
  Si  Si1  1  0.39898500  0.39898500  0.25000000  1
  Si  Si2  1  0.00000000  0.60101500  0.25000000  1
  Si  Si3  1  0.00000000  0.39898500  0.75000000  1
  Si  Si4  1  0.60101500  0.60101500  0.75000000  1
  Si  Si5  1  0.60101500  0.00000000  0.25000000  1
  B  B0  1  0.00000000  0.00000000  0.50000000  1
  B  B1  1  0.00000000  0.00000000  0.00000000  1
loop_
_geom_bond_atom_site_label_1
_geom_bond_atom_site_label_2
_geom_bond_distance
_geom_bond_site_symmetry_2
Dy0 Si2 2.975199 1_655
Dy0 Si5 2.975199 1_565
Dy0 Si1 3.089278 1_555
Dy0 Si4 3.448394 1_555
Dy0 Si4 3.448394 1_554
Dy1 Si4 2.975200 1_545
Dy1 Si3 2.975200 1_655
Dy1 Si0 3.089278 1_555
Dy1 Si5 3.448394 1_555
Dy1 Si5 3.448394 1_556
Dy2 Si1 2.975200 1_555
Dy2 Si5 2.975200 1_455
Dy2 Si2 3.089278 1_555
Dy2 Si3 3.448394 1_554
Dy2 Si3 3.448394 1_555
Dy3 Si4 2.975200 1_455
Dy3 Si0 2.975200 1_565
Dy3 Si3 3.089278 1_555
Dy3 Si2 3.448394 1_556
Dy3 Si2 3.448394 1_555
Dy4 Si0 2.975199 1_555
Dy4 Si3 2.975199 1_555
Dy4 Si4 3.089278 1_555
Dy4 Si1 3.448394 1_555
Dy4 Si1 3.448394 1_556
Dy5 Si1 2.975200 1_555
Dy5 Si2 2.975200 1_545
Dy5 Si5 3.089278 1_555
Dy5 Si0 3.448394 1_555
Dy5 Si0 3.448394 1_554
Dy6 Si5 3.057990 1_555
Dy6 Si3 3.057990 1_654
Dy6 Si2 3.057992 1_655
Dy6 Si0 3.057992 1_554
Dy6 Si4 3.057997 1_554
Dy6 Si1 3.057997 1_555
Dy7 Si2 3.057990 1_555
Dy7 Si0 3.057990 1_565
Dy7 Si5 3.057992 1_565
Dy7 Si3 3.057992 1_555
Dy7 Si4 3.057997 1_555
Dy7 Si1 3.057997 1_555
Dy8 Si2 3.057990 1_555
Dy8 Si0 3.057990 1_564
Dy8 Si5 3.057992 1_565
Dy8 Si3 3.057992 1_554
Dy8 Si4 3.057997 1_554
Dy8 Si1 3.057997 1_555
Dy9 Si5 3.057990 1_555
Dy9 Si3 3.057990 1_655
Dy9 Si2 3.057992 1_655
Dy9 Si0 3.057992 1_555
Dy9 Si4 3.057997 1_555
Dy9 Si1 3.057997 1_555
B0 Dy5 2.591471 1_555
B0 Dy2 2.591471 1_555
B0 Dy1 2.591471 1_455
B0 Dy3 2.591471 1_545
B0 Dy4 2.591471 1_555
B0 Dy0 2.591471 1_445
B1 Dy5 2.591471 1_555
B1 Dy2 2.591471 1_555
B1 Dy1 2.591471 1_454
B1 Dy3 2.591471 1_544
B1 Dy4 2.591471 1_554
B1 Dy0 2.591471 1_445
