# generated using pymatgen
data_Sr3Fe2O5
_symmetry_space_group_name_H-M   'P 1'
_cell_length_a   5.30533805
_cell_length_b   10.81023870
_cell_length_c   5.30533946
_cell_angle_alpha   98.33679389
_cell_angle_beta   79.53245109
_cell_angle_gamma   98.33667879
_symmetry_Int_Tables_number   1
_chemical_formula_structural   Sr3Fe2O5
_chemical_formula_sum   'Sr6 Fe4 O10'
_cell_volume   293.83679768
_cell_formula_units_Z   2
loop_
 _symmetry_equiv_pos_site_id
 _symmetry_equiv_pos_as_xyz
  1  'x, y, z'
loop_
 _atom_site_type_symbol
 _atom_site_label
 _atom_site_symmetry_multiplicity
 _atom_site_fract_x
 _atom_site_fract_y
 _atom_site_fract_z
 _atom_site_occupancy
  Sr  Sr0  1  0.50000000  0.00000200  0.00000000  1
  Sr  Sr1  1  0.00000100  0.00000200  0.50000100  1
  Sr  Sr2  1  0.59369400  0.37475800  0.09369100  1
  Sr  Sr3  1  0.09369100  0.37475800  0.59369400  1
  Sr  Sr4  1  0.90630700  0.62524500  0.40631000  1
  Sr  Sr5  1  0.40631000  0.62524600  0.90630700  1
  Fe  Fe0  1  0.54826000  0.19305300  0.54825700  1
  Fe  Fe1  1  0.95174100  0.80694900  0.95174300  1
  Fe  Fe2  1  0.04825200  0.19306400  0.04827100  1
  Fe  Fe3  1  0.45173600  0.80690600  0.45172100  1
  O  O0  1  0.50000200  0.00000100  0.49999900  1
  O  O1  1  0.00000000  0.00000200  0.00000100  1
  O  O2  1  0.70201700  0.80802700  0.70201300  1
  O  O3  1  0.20201500  0.80802700  0.20201900  1
  O  O4  1  0.29798400  0.19197700  0.29798500  1
  O  O5  1  0.79798700  0.19197700  0.79798600  1
  O  O6  1  0.59575900  0.38308900  0.59576200  1
  O  O7  1  0.09576000  0.38308800  0.09576000  1
  O  O8  1  0.40424100  0.61691500  0.40424100  1
  O  O9  1  0.90424100  0.61691500  0.90423900  1
loop_
_geom_bond_atom_site_label_1
_geom_bond_atom_site_label_2
_geom_bond_distance
_geom_bond_site_symmetry_2
Fe0 O6 2.017457 1_555
Fe0 O5 2.039010 1_555
Fe0 O4 2.039075 1_555
Fe0 O0 2.049475 1_555
Fe1 O9 2.017435 1_555
Fe1 O2 2.039006 1_555
Fe1 O3 2.039080 1_656
Fe1 O1 2.049486 1_666
Fe2 O7 2.017329 1_555
Fe2 O4 2.038993 1_555
Fe2 O5 2.039062 1_454
Fe2 O1 2.049581 1_555
Fe3 O8 2.016979 1_555
Fe3 O3 2.038970 1_555
Fe3 O2 2.039088 1_555
Fe3 O0 2.049931 1_565
O0 Sr1 2.652664 1_655
O0 Sr0 2.652668 1_555
O0 Sr0 2.652672 1_556
O0 Sr1 2.652674 1_555
O1 Sr0 2.652668 1_555
O1 Sr1 2.652669 1_554
O1 Sr0 2.652670 1_455
O1 Sr1 2.652671 1_555
O2 Sr4 2.577667 1_555
O2 Sr5 2.577681 1_555
O2 Sr1 2.651924 1_665
O2 Sr0 2.651937 1_566
O3 Sr4 2.577684 1_455
O3 Sr5 2.577690 1_554
O3 Sr1 2.651920 1_565
O3 Sr0 2.651941 1_565
O4 Sr3 2.577679 1_555
O4 Sr2 2.577687 1_555
O4 Sr1 2.651930 1_555
O4 Sr0 2.651931 1_555
O5 Sr3 2.577669 1_655
O5 Sr2 2.577670 1_556
O5 Sr1 2.651926 1_655
O5 Sr0 2.651935 1_556
O6 Sr3 2.654050 1_555
O6 Sr2 2.654064 1_555
O6 Sr2 2.654224 1_556
O6 Sr3 2.654236 1_655
O6 Sr5 3.080254 1_555
O6 Sr4 3.080260 1_555
O7 Sr2 2.654042 1_455
O7 Sr3 2.654042 1_554
O7 Sr2 2.654244 1_555
O7 Sr3 2.654245 1_555
O7 Sr4 3.080270 1_455
O7 Sr5 3.080284 1_554
O8 Sr5 2.654041 1_555
O8 Sr4 2.654042 1_555
O8 Sr4 2.654244 1_455
O8 Sr5 2.654247 1_554
O8 Sr2 3.080270 1_555
O8 Sr3 3.080275 1_555
O9 Sr5 2.654055 1_655
O9 Sr4 2.654066 1_556
O9 Sr4 2.654221 1_555
O9 Sr5 2.654231 1_555
O9 Sr3 3.080256 1_655
O9 Sr2 3.080267 1_556
