# generated using pymatgen
data_K2Cu(SO5)2
_symmetry_space_group_name_H-M   'P 1'
_cell_length_a   9.89554400
_cell_length_b   8.01011400
_cell_length_c   12.63521870
_cell_angle_alpha   87.35052664
_cell_angle_beta   90.00000000
_cell_angle_gamma   90.00000000
_symmetry_Int_Tables_number   1
_chemical_formula_structural   K2Cu(SO5)2
_chemical_formula_sum   'K8 Cu4 S8 O40'
_cell_volume   1000.45287713
_cell_formula_units_Z   4
loop_
 _symmetry_equiv_pos_site_id
 _symmetry_equiv_pos_as_xyz
  1  'x, y, z'
loop_
 _atom_site_type_symbol
 _atom_site_label
 _atom_site_symmetry_multiplicity
 _atom_site_fract_x
 _atom_site_fract_y
 _atom_site_fract_z
 _atom_site_occupancy
  K  K0  1  0.94422100  0.22169800  0.88652900  1
  K  K1  1  0.44422100  0.27830200  0.11347100  1
  K  K2  1  0.05577900  0.77830200  0.11347100  1
  K  K3  1  0.55577900  0.72169800  0.88652900  1
  K  K4  1  0.73430300  0.03184500  0.61117100  1
  K  K5  1  0.23430300  0.46815500  0.38882900  1
  K  K6  1  0.26569700  0.96815500  0.38882900  1
  K  K7  1  0.76569700  0.53184500  0.61117100  1
  Cu  Cu0  1  0.32061800  0.14502100  0.74057200  1
  Cu  Cu1  1  0.82061800  0.35497900  0.25942800  1
  Cu  Cu2  1  0.67938200  0.85497900  0.25942800  1
  Cu  Cu3  1  0.17938200  0.64502100  0.74057200  1
  S  S0  1  0.58282500  0.23558500  0.85737300  1
  S  S1  1  0.08282500  0.26441500  0.14262700  1
  S  S2  1  0.41717500  0.76441500  0.14262700  1
  S  S3  1  0.91717500  0.73558500  0.85737300  1
  S  S4  1  0.08102000  0.25897000  0.60678600  1
  S  S5  1  0.58102000  0.24103000  0.39321400  1
  S  S6  1  0.91898000  0.74103000  0.39321400  1
  S  S7  1  0.41898000  0.75897000  0.60678600  1
  O  O0  1  0.49298700  0.36351500  0.89768000  1
  O  O1  1  0.99298700  0.13648500  0.10232000  1
  O  O2  1  0.50701300  0.63648500  0.10232000  1
  O  O3  1  0.00701300  0.86351500  0.89768000  1
  O  O4  1  0.67456100  0.29775800  0.77239200  1
  O  O5  1  0.17456100  0.20224200  0.22760800  1
  O  O6  1  0.32543900  0.70224200  0.22760800  1
  O  O7  1  0.82543900  0.79775800  0.77239200  1
  O  O8  1  0.65434600  0.14162500  0.94271300  1
  O  O9  1  0.15434600  0.35837500  0.05728700  1
  O  O10  1  0.34565400  0.85837500  0.05728700  1
  O  O11  1  0.84565400  0.64162500  0.94271300  1
  O  O12  1  0.49500600  0.09763500  0.80109800  1
  O  O13  1  0.99500600  0.40236500  0.19890200  1
  O  O14  1  0.50499400  0.90236500  0.19890200  1
  O  O15  1  0.00499400  0.59763500  0.80109800  1
  O  O16  1  0.93488300  0.26101500  0.62838300  1
  O  O17  1  0.43488300  0.23898500  0.37161700  1
  O  O18  1  0.06511700  0.73898500  0.37161700  1
  O  O19  1  0.56511700  0.76101500  0.62838300  1
  O  O20  1  0.11748400  0.17174700  0.51270500  1
  O  O21  1  0.61748400  0.32825300  0.48729500  1
  O  O22  1  0.88251600  0.82825300  0.48729500  1
  O  O23  1  0.38251600  0.67174700  0.51270500  1
  O  O24  1  0.13451000  0.16572200  0.71058800  1
  O  O25  1  0.63451000  0.33427800  0.28941200  1
  O  O26  1  0.86549000  0.83427800  0.28941200  1
  O  O27  1  0.36549000  0.66572200  0.71058800  1
  O  O28  1  0.13882200  0.43098000  0.60330400  1
  O  O29  1  0.63882200  0.06902000  0.39669600  1
  O  O30  1  0.86117800  0.56902000  0.39669600  1
  O  O31  1  0.36117800  0.93098000  0.60330400  1
  O  O32  1  0.21933700  0.48363300  0.83509900  1
  O  O33  1  0.71933700  0.01636700  0.16490100  1
  O  O34  1  0.78066300  0.51636700  0.16490100  1
  O  O35  1  0.28066300  0.98363300  0.83509900  1
  O  O36  1  0.36945600  0.30851000  0.65244300  1
  O  O37  1  0.86945600  0.19149000  0.34755700  1
  O  O38  1  0.63054400  0.69149000  0.34755700  1
  O  O39  1  0.13054400  0.80851000  0.65244300  1
loop_
_geom_bond_atom_site_label_1
_geom_bond_atom_site_label_2
_geom_bond_distance
_geom_bond_site_symmetry_2
K0 O1 2.821502 1_556
K0 O3 2.932614 1_645
K0 O24 2.963257 1_655
K0 O8 3.016848 1_555
K0 O4 3.080628 1_555
K0 O15 3.208466 1_655
K0 O9 3.224212 1_656
K0 O16 3.263686 1_555
K1 O0 2.821502 1_554
K1 O2 2.932614 1_555
K1 O25 2.963257 1_555
K1 O9 3.016848 1_555
K1 O5 3.080628 1_555
K1 O14 3.208466 1_545
K1 O8 3.224212 1_554
K1 O17 3.263686 1_555
K2 O3 2.821502 1_554
K2 O1 2.932614 1_465
K2 O26 2.963257 1_455
K2 O10 3.016848 1_555
K2 O6 3.080628 1_555
K2 O13 3.208466 1_455
K2 O11 3.224212 1_454
K2 O18 3.263686 1_555
K3 O2 2.821502 1_556
K3 O0 2.932614 1_555
K3 O27 2.963257 1_555
K3 O11 3.016848 1_555
K3 O7 3.080628 1_555
K3 O12 3.208466 1_565
K3 O10 3.224212 1_556
K3 O19 3.263686 1_555
K4 O16 2.719106 1_555
K4 O22 2.737953 1_545
K4 O19 2.740947 1_545
K4 O7 2.850557 1_545
K4 O29 2.872377 1_555
K4 O21 3.013256 1_555
K4 O4 3.071991 1_555
K5 O17 2.719106 1_555
K5 O23 2.737953 1_555
K5 O18 2.740947 1_555
K5 O6 2.850557 1_555
K5 O28 2.872377 1_555
K5 O20 3.013256 1_555
K5 O5 3.071991 1_555
K6 O18 2.719106 1_555
K6 O20 2.737953 1_565
K6 O17 2.740947 1_565
K6 O5 2.850557 1_565
K6 O31 2.872377 1_555
K6 O23 3.013256 1_555
K6 O6 3.071991 1_555
K7 O19 2.719106 1_555
K7 O21 2.737953 1_555
K7 O16 2.740947 1_555
K7 O4 2.850557 1_555
K7 O30 2.872377 1_555
K7 O22 3.013256 1_555
K7 O7 3.071991 1_555
Cu0 O36 1.747470 1_555
Cu0 O35 1.763877 1_545
Cu0 O24 1.885963 1_555
Cu0 O12 1.918335 1_555
Cu0 O31 2.526594 1_545
Cu1 O37 1.747470 1_555
Cu1 O34 1.763877 1_555
Cu1 O25 1.885963 1_555
Cu1 O13 1.918335 1_555
Cu1 O30 2.526594 1_555
Cu2 O38 1.747470 1_555
Cu2 O33 1.763877 1_565
Cu2 O26 1.885963 1_555
Cu2 O14 1.918335 1_555
Cu2 O29 2.526594 1_565
Cu3 O39 1.747470 1_555
Cu3 O32 1.763877 1_555
Cu3 O27 1.885963 1_555
Cu3 O15 1.918335 1_555
Cu3 O28 2.526594 1_555
O0 S0 1.465611 1_555
O1 S1 1.465611 1_655
O2 S2 1.465611 1_555
O3 S3 1.465611 1_455
O4 S0 1.474987 1_555
O5 S1 1.474987 1_555
O6 S2 1.474987 1_555
O7 S3 1.474987 1_555
O8 S0 1.468001 1_555
O9 S1 1.468001 1_555
O10 S2 1.468001 1_555
O11 S3 1.468001 1_555
O12 S0 1.598259 1_555
O13 S1 1.598259 1_655
O14 S2 1.598259 1_555
O15 S3 1.598259 1_455
O16 S4 1.471858 1_655
O17 S5 1.471858 1_555
O18 S6 1.471858 1_455
O19 S7 1.471858 1_555
O20 S4 1.451966 1_555
O21 S5 1.451966 1_555
O22 S6 1.451966 1_555
O23 S7 1.451966 1_555
O24 S4 1.570890 1_555
O25 S5 1.570890 1_555
O26 S6 1.570890 1_555
O27 S7 1.570890 1_555
O28 S4 1.490598 1_555
O29 S5 1.490598 1_555
O30 S6 1.490598 1_555
O31 S7 1.490598 1_555
