# generated using pymatgen
data_Be3Cu
_symmetry_space_group_name_H-M   'P 1'
_cell_length_a   4.18719937
_cell_length_b   4.18719936
_cell_length_c   7.25115623
_cell_angle_alpha   73.22828492
_cell_angle_beta   89.99365657
_cell_angle_gamma   120.00645566
_symmetry_Int_Tables_number   1
_chemical_formula_structural   Be3Cu
_chemical_formula_sum   'Be9 Cu3'
_cell_volume   103.79788826
_cell_formula_units_Z   3
loop_
 _symmetry_equiv_pos_site_id
 _symmetry_equiv_pos_as_xyz
  1  'x, y, z'
loop_
 _atom_site_type_symbol
 _atom_site_label
 _atom_site_symmetry_multiplicity
 _atom_site_fract_x
 _atom_site_fract_y
 _atom_site_fract_z
 _atom_site_occupancy
  Be  Be0  1  0.43658220  0.37496537  0.18845143  1
  Be  Be1  1  0.93865194  0.37561215  0.68573691  1
  Be  Be2  1  0.43601595  0.87493298  0.18907260  1
  Be  Be3  1  0.93897993  0.87567177  0.68534990  1
  Be  Be4  1  0.18776654  0.37498834  0.43724612  1
  Be  Be5  1  0.68769331  0.37466759  0.93763910  1
  Be  Be6  1  0.93599541  0.37491045  0.18907260  1
  Be  Be7  1  0.43897833  0.37567117  0.68534990  1
  Be  Be8  1  0.87489212  0.74943273  0.37567616  1
  Cu  Cu0  1  0.37544590  0.75049130  0.87406281  1
  Cu  Cu1  1  0.99687417  0.99436807  0.00875776  1
  Cu  Cu2  1  0.50212720  0.00428608  0.49358671  1
loop_
_geom_bond_atom_site_label_1
_geom_bond_atom_site_label_2
_geom_bond_distance
_geom_bond_site_symmetry_2
Be0 Be4 2.083221 1_555
Be0 Be2 2.091255 1_545
Be0 Be6 2.091263 1_555
Be0 Be6 2.095946 1_455
Be0 Be2 2.095954 1_555
Be0 Be5 2.101272 1_554
Be0 Cu2 2.413330 1_555
Be0 Cu1 2.427239 1_445
Be0 Cu1 2.427243 1_555
Be0 Be8 2.453703 1_445
Be0 Be8 2.453710 1_555
Be0 Cu0 2.463519 1_554
Be1 Be4 2.083200 1_655
Be1 Be3 2.092355 1_555
Be1 Be7 2.092359 1_555
Be1 Be7 2.094844 1_655
Be1 Be3 2.094848 1_545
Be1 Be5 2.105202 1_555
Be1 Be8 2.441984 1_555
Be1 Cu0 2.457636 1_655
Be1 Cu0 2.457639 1_545
Be1 Cu2 2.471435 1_665
Be1 Cu2 2.471439 1_555
Be1 Cu1 2.515051 1_546
Be2 Be4 2.085701 1_555
Be2 Be6 2.093305 1_565
Be2 Be6 2.093486 1_455
Be2 Be5 2.098900 1_564
Be2 Cu2 2.405407 1_565
Be2 Cu1 2.425621 1_455
Be2 Cu1 2.433519 1_555
Be2 Be8 2.445681 1_455
Be2 Be8 2.457655 1_555
Be2 Cu0 2.471471 1_554
Be3 Be4 2.084077 1_665
Be3 Be7 2.093391 1_665
Be3 Be7 2.093400 1_555
Be3 Be5 2.105136 1_555
Be3 Be8 2.436579 1_555
Be3 Cu0 2.456007 1_655
Be3 Cu0 2.462390 1_555
Be3 Cu2 2.465913 1_665
Be3 Cu2 2.474495 1_565
Be3 Cu1 2.521398 1_556
Be4 Be7 2.084075 1_555
Be4 Be6 2.085701 1_455
Be4 Cu2 2.446745 1_555
Be4 Cu2 2.448470 1_565
Be4 Cu2 2.448473 1_455
Be4 Be8 2.453430 1_445
Be4 Be8 2.453430 1_555
Be4 Be8 2.454466 1_455
Be5 Be6 2.098902 1_556
Be5 Be7 2.105136 1_555
Be5 Cu0 2.455670 1_545
Be5 Cu0 2.455670 1_655
Be5 Cu0 2.457156 1_555
Be5 Cu1 2.462880 1_546
Be5 Cu1 2.467280 1_556
Be5 Cu1 2.467280 1_446
Be6 Cu2 2.405409 1_555
Be6 Cu1 2.425627 1_555
Be6 Cu1 2.433514 1_545
Be6 Be8 2.445688 1_555
Be6 Be8 2.457648 1_545
Be6 Cu0 2.471469 1_654
Be7 Be8 2.436581 1_555
Be7 Cu0 2.456010 1_545
Be7 Cu0 2.462387 1_555
Be7 Cu2 2.465916 1_555
Be7 Cu2 2.474492 1_565
Be7 Cu1 2.521398 1_446
Be8 Cu1 2.508468 1_555
Be8 Cu2 2.547816 1_665
Be8 Cu2 2.547820 1_555
Be8 Cu2 2.549150 1_565
Cu0 Cu1 2.585705 1_556
Cu0 Cu1 2.585705 1_446
Cu0 Cu1 2.589148 1_456
Cu0 Cu2 2.601156 1_565
