# generated using pymatgen
data_LaScSi
_symmetry_space_group_name_H-M   'P 1'
_cell_length_a   7.95953846
_cell_length_b   7.95953846
_cell_length_c   7.95953846
_cell_angle_alpha   145.37315472
_cell_angle_beta   145.37315472
_cell_angle_gamma   49.77878592
_symmetry_Int_Tables_number   1
_chemical_formula_structural   LaScSi
_chemical_formula_sum   'La2 Sc2 Si2'
_cell_volume   162.05069740
_cell_formula_units_Z   2
loop_
 _symmetry_equiv_pos_site_id
 _symmetry_equiv_pos_as_xyz
  1  'x, y, z'
loop_
 _atom_site_type_symbol
 _atom_site_label
 _atom_site_symmetry_multiplicity
 _atom_site_fract_x
 _atom_site_fract_y
 _atom_site_fract_z
 _atom_site_occupancy
  La  La0  1  0.14293500  0.14293500  0.00000000  1
  La  La1  1  0.85706500  0.85706500  0.00000000  1
  Sc  Sc0  1  0.39742500  0.39742500  0.00000000  1
  Sc  Sc1  1  0.60257500  0.60257500  0.00000000  1
  Si  Si0  1  0.50000000  0.00000000  0.50000000  1
  Si  Si1  1  0.00000000  0.50000000  0.50000000  1
loop_
_geom_bond_atom_site_label_1
_geom_bond_atom_site_label_2
_geom_bond_distance
_geom_bond_site_symmetry_2
La0 Si1 3.141863 1_544
La0 Si1 3.141863 1_555
La0 Si0 3.141863 1_555
La0 Si0 3.141863 1_454
La0 Sc1 3.400236 1_444
La0 Sc1 3.400236 1_545
La0 Sc1 3.400236 1_455
La0 Sc1 3.400236 1_556
La0 Sc0 3.674974 1_555
La1 Si1 3.141863 1_665
La1 Si1 3.141863 1_654
La1 Si0 3.141863 1_564
La1 Si0 3.141863 1_665
La1 Sc0 3.400236 1_655
La1 Sc0 3.400236 1_554
La1 Sc0 3.400236 1_666
La1 Sc0 3.400236 1_565
La1 Sc1 3.674974 1_555
Sc0 Si1 2.793749 1_554
Sc0 Si0 2.793749 1_554
Sc0 Si0 2.793749 1_565
Sc0 Si1 2.793749 1_655
Sc1 Si0 2.793749 1_565
Sc1 Si1 2.793749 1_554
Sc1 Si1 2.793749 1_655
Sc1 Si0 2.793749 1_554
