# generated using pymatgen
data_SrCa(SnO3)4
_symmetry_space_group_name_H-M   'P 1'
_cell_length_a   5.74046963
_cell_length_b   5.74046963
_cell_length_c   8.11818774
_cell_angle_alpha   90.00000000
_cell_angle_beta   90.00000000
_cell_angle_gamma   89.42539791
_symmetry_Int_Tables_number   1
_chemical_formula_structural   SrCa(SnO3)4
_chemical_formula_sum   'Sr1 Ca1 Sn4 O12'
_cell_volume   267.50511988
_cell_formula_units_Z   1
loop_
 _symmetry_equiv_pos_site_id
 _symmetry_equiv_pos_as_xyz
  1  'x, y, z'
loop_
 _atom_site_type_symbol
 _atom_site_label
 _atom_site_symmetry_multiplicity
 _atom_site_fract_x
 _atom_site_fract_y
 _atom_site_fract_z
 _atom_site_occupancy
  Sr  Sr0  1  0.02485206  0.97514794  0.50000000  1
  Ca  Ca0  1  0.47411762  0.52588238  0.00000000  1
  Sn  Sn0  1  0.51142924  0.01250788  0.24463869  1
  Sn  Sn1  1  0.51142924  0.01250788  0.75536131  1
  Sn  Sn2  1  0.98749212  0.48857076  0.75536131  1
  Sn  Sn3  1  0.98749212  0.48857076  0.24463869  1
  O  O0  1  0.20826740  0.20479406  0.26239578  1
  O  O1  1  0.79520594  0.79173260  0.26239578  1
  O  O2  1  0.79520594  0.79173260  0.73760422  1
  O  O3  1  0.20826740  0.20479406  0.73760422  1
  O  O4  1  0.27395004  0.72604996  0.27623438  1
  O  O5  1  0.69144751  0.30855249  0.19245109  1
  O  O6  1  0.69144751  0.30855249  0.80754891  1
  O  O7  1  0.27395004  0.72604996  0.72376562  1
  O  O8  1  0.48229826  0.92615522  0.00000000  1
  O  O9  1  0.55197097  0.03276820  0.50000000  1
  O  O10  1  0.07384478  0.51770174  0.00000000  1
  O  O11  1  0.96723180  0.44802903  0.50000000  1
loop_
_geom_bond_atom_site_label_1
_geom_bond_atom_site_label_2
_geom_bond_distance
_geom_bond_site_symmetry_2
Ca0 O10 2.298705 1_555
Ca0 O8 2.298705 1_555
Ca0 O5 2.350026 1_555
Ca0 O6 2.350026 1_554
Ca0 O7 2.764613 1_554
Ca0 O4 2.764613 1_555
O0 Sn0 2.056519 1_555
O0 Sn3 2.058941 1_455
O0 Sr0 2.568070 1_545
O1 Sn3 2.056519 1_555
O1 Sn0 2.058941 1_565
O1 Sr0 2.568070 1_655
O2 Sn2 2.056519 1_555
O2 Sn1 2.058941 1_565
O2 Sr0 2.568070 1_655
O3 Sn1 2.056519 1_555
O3 Sn2 2.058941 1_455
O3 Sr0 2.568070 1_545
O4 Sn0 2.161769 1_565
O4 Sn3 2.161769 1_455
O4 Sr0 2.710788 1_555
O5 Sn3 2.042227 1_555
O5 Sn0 2.042227 1_555
O6 Sn2 2.042227 1_555
O6 Sn1 2.042227 1_555
O7 Sn2 2.161769 1_455
O7 Sn1 2.161769 1_565
O7 Sr0 2.710788 1_555
O8 Sn0 2.054175 1_565
O8 Sn1 2.054175 1_564
O9 Sn1 2.089463 1_555
O9 Sn0 2.089463 1_555
O9 Sr0 2.731342 1_645
O9 Sr0 3.047230 1_545
O10 Sn3 2.054175 1_455
O10 Sn2 2.054175 1_454
O11 Sn2 2.089463 1_555
O11 Sn3 2.089463 1_555
O11 Sr0 2.731342 1_645
O11 Sr0 3.047230 1_655
