# generated using pymatgen
data_Th4P6O23
_symmetry_space_group_name_H-M   'P 1'
_cell_length_a   7.19651800
_cell_length_b   10.54887772
_cell_length_c   12.87770530
_cell_angle_alpha   89.50910634
_cell_angle_beta   90.00000000
_cell_angle_gamma   90.00000000
_symmetry_Int_Tables_number   1
_chemical_formula_structural   Th4P6O23
_chemical_formula_sum   'Th8 P12 O46'
_cell_volume   977.57754267
_cell_formula_units_Z   2
loop_
 _symmetry_equiv_pos_site_id
 _symmetry_equiv_pos_as_xyz
  1  'x, y, z'
loop_
 _atom_site_type_symbol
 _atom_site_label
 _atom_site_symmetry_multiplicity
 _atom_site_fract_x
 _atom_site_fract_y
 _atom_site_fract_z
 _atom_site_occupancy
  Th  Th0  1  0.25000000  0.02192900  0.68665400  1
  Th  Th1  1  0.25000000  0.50965300  0.41361700  1
  Th  Th2  1  0.25000000  0.97799300  0.18659700  1
  Th  Th3  1  0.25000000  0.49312500  0.91194400  1
  Th  Th4  1  0.75000000  0.97807100  0.31334600  1
  Th  Th5  1  0.75000000  0.02200700  0.81340300  1
  Th  Th6  1  0.75000000  0.49034700  0.58638300  1
  Th  Th7  1  0.75000000  0.50687500  0.08805600  1
  P  P0  1  0.95802200  0.72423200  0.75769200  1
  P  P1  1  0.25000000  0.62864900  0.13380200  1
  P  P2  1  0.25000000  0.12865600  0.91908200  1
  P  P3  1  0.25000000  0.37326500  0.63581800  1
  P  P4  1  0.25000000  0.87154600  0.42055600  1
  P  P5  1  0.45802200  0.27576800  0.24230800  1
  P  P6  1  0.54197800  0.72423200  0.75769200  1
  P  P7  1  0.75000000  0.12845400  0.57944400  1
  P  P8  1  0.75000000  0.37135100  0.86619800  1
  P  P9  1  0.75000000  0.62673500  0.36418200  1
  P  P10  1  0.75000000  0.87134400  0.08091800  1
  P  P11  1  0.04197800  0.27576800  0.24230800  1
  O  O0  1  0.02393200  0.86343300  0.74536000  1
  O  O1  1  0.05937800  0.34469600  0.34434600  1
  O  O2  1  0.05914200  0.65293800  0.84261500  1
  O  O3  1  0.08127600  0.08622200  0.85016800  1
  O  O4  1  0.08281300  0.91471600  0.35035800  1
  O  O5  1  0.08191200  0.58086000  0.06868000  1
  O  O6  1  0.08200800  0.42210600  0.57020000  1
  O  O7  1  0.25000000  0.24836300  0.19535700  1
  O  O8  1  0.25000000  0.57106200  0.24372700  1
  O  O9  1  0.25000000  0.05241100  0.02293900  1
  O  O10  1  0.25000000  0.22871700  0.64206600  1
  O  O11  1  0.25000000  0.72982800  0.44223100  1
  O  O12  1  0.25000000  0.77362600  0.14090600  1
  O  O13  1  0.25000000  0.42853800  0.74519900  1
  O  O14  1  0.25000000  0.94533300  0.52375000  1
  O  O15  1  0.25000000  0.26989500  0.93990900  1
  O  O16  1  0.41808800  0.58086000  0.06868000  1
  O  O17  1  0.41799200  0.42210600  0.57020000  1
  O  O18  1  0.41872400  0.08622200  0.85016800  1
  O  O19  1  0.41718700  0.91471600  0.35035800  1
  O  O20  1  0.44062200  0.34469600  0.34434600  1
  O  O21  1  0.44085800  0.65293800  0.84261500  1
  O  O22  1  0.52393200  0.13656700  0.25464000  1
  O  O23  1  0.47606800  0.86343300  0.74536000  1
  O  O24  1  0.55914200  0.34706200  0.15738500  1
  O  O25  1  0.55937800  0.65530400  0.65565400  1
  O  O26  1  0.58281300  0.08528400  0.64964200  1
  O  O27  1  0.58127600  0.91377800  0.14983200  1
  O  O28  1  0.58191200  0.41914000  0.93132000  1
  O  O29  1  0.58200800  0.57789400  0.42980000  1
  O  O30  1  0.75000000  0.73010500  0.06009100  1
  O  O31  1  0.75000000  0.05466700  0.47625000  1
  O  O32  1  0.75000000  0.22637400  0.85909400  1
  O  O33  1  0.75000000  0.27017200  0.55776900  1
  O  O34  1  0.75000000  0.57146200  0.25480100  1
  O  O35  1  0.75000000  0.75163700  0.80464300  1
  O  O36  1  0.75000000  0.77128300  0.35793400  1
  O  O37  1  0.75000000  0.94758900  0.97706100  1
  O  O38  1  0.75000000  0.42893800  0.75627300  1
  O  O39  1  0.91808800  0.41914000  0.93132000  1
  O  O40  1  0.91799200  0.57789400  0.42980000  1
  O  O41  1  0.91718700  0.08528400  0.64964200  1
  O  O42  1  0.91872400  0.91377800  0.14983200  1
  O  O43  1  0.94085800  0.34706200  0.15738500  1
  O  O44  1  0.94062200  0.65530400  0.65565400  1
  O  O45  1  0.97606800  0.13656700  0.25464000  1
loop_
_geom_bond_atom_site_label_1
_geom_bond_atom_site_label_2
_geom_bond_distance
_geom_bond_site_symmetry_2
O0 P0 1.549983 1_455
O0 Th0 2.447881 1_565
O0 Th5 2.734473 1_465
O1 P11 1.512409 1_555
O1 Th1 2.394205 1_555
O2 P0 1.508997 1_455
O2 Th3 2.345191 1_555
O3 P2 1.571337 1_555
O3 Th5 2.524308 1_455
O3 Th0 2.528380 1_555
O4 P4 1.570074 1_555
O4 Th2 2.513236 1_555
O4 Th4 2.530781 1_455
O5 P1 1.558178 1_555
O5 Th7 2.524579 1_455
O5 Th3 2.534908 1_554
O6 P3 1.560003 1_555
O6 Th6 2.504590 1_455
O6 Th1 2.519633 1_555
O7 P11 1.641112 1_555
O7 P5 1.641112 1_555
O7 Th2 2.855296 1_545
O8 P1 1.535632 1_555
O8 Th1 2.276356 1_555
O9 P2 1.554738 1_554
O9 Th2 2.242686 1_545
O10 P3 1.526252 1_555
O10 Th0 2.250924 1_555
O11 P4 1.518448 1_555
O11 Th1 2.354764 1_555
O12 P1 1.532861 1_555
O12 Th2 2.239554 1_555
O13 P3 1.529094 1_555
O13 Th3 2.258347 1_555
O14 P4 1.545822 1_555
O14 Th0 2.254507 1_565
O15 P2 1.516120 1_555
O15 Th3 2.379152 1_555
O16 P1 1.558178 1_555
O16 Th7 2.524579 1_555
O16 Th3 2.534908 1_554
O17 P3 1.560003 1_555
O17 Th6 2.504590 1_555
O17 Th1 2.519633 1_555
O18 P2 1.571337 1_555
O18 Th5 2.524308 1_555
O18 Th0 2.528380 1_555
O19 P4 1.570074 1_555
O19 Th2 2.513236 1_555
O19 Th4 2.530781 1_555
O20 P5 1.512409 1_555
O20 Th1 2.394205 1_555
O21 P6 1.508997 1_555
O21 Th3 2.345191 1_555
O22 P5 1.549983 1_555
O22 Th4 2.447881 1_545
O22 Th2 2.734473 1_545
O23 P6 1.549983 1_555
O23 Th0 2.447881 1_565
O23 Th5 2.734473 1_565
O24 P5 1.508997 1_555
O24 Th7 2.345191 1_555
O25 P6 1.512409 1_555
O25 Th6 2.394205 1_555
O26 P7 1.570074 1_555
O26 Th5 2.513236 1_555
O26 Th0 2.530781 1_555
O27 P10 1.571337 1_555
O27 Th2 2.524308 1_555
O27 Th4 2.528380 1_555
O28 P8 1.558178 1_555
O28 Th3 2.524579 1_555
O28 Th7 2.534908 1_556
O29 P9 1.560003 1_555
O29 Th1 2.504590 1_555
O29 Th6 2.519633 1_555
O30 P10 1.516120 1_555
O30 Th7 2.379152 1_555
O31 P7 1.545822 1_555
O31 Th4 2.254507 1_545
O32 P8 1.532861 1_555
O32 Th5 2.239554 1_555
O33 P7 1.518448 1_555
O33 Th6 2.354764 1_555
O34 P9 1.529094 1_555
O34 Th7 2.258347 1_555
O35 P6 1.641112 1_555
O35 P0 1.641112 1_555
O35 Th5 2.855296 1_565
O36 P9 1.526252 1_555
O36 Th4 2.250924 1_555
O37 P10 1.554738 1_556
O37 Th5 2.242686 1_565
O38 P8 1.535632 1_555
O38 Th6 2.276356 1_555
O39 P8 1.558178 1_555
O39 Th3 2.524579 1_655
O39 Th7 2.534908 1_556
O40 P9 1.560003 1_555
O40 Th1 2.504590 1_655
O40 Th6 2.519633 1_555
O41 P7 1.570074 1_555
O41 Th5 2.513236 1_555
O41 Th0 2.530781 1_655
O42 P10 1.571337 1_555
O42 Th2 2.524308 1_655
O42 Th4 2.528380 1_555
O43 P11 1.508997 1_655
O43 Th7 2.345191 1_555
O44 P0 1.512409 1_555
O44 Th6 2.394205 1_555
O45 P11 1.549983 1_655
O45 Th4 2.447881 1_545
O45 Th2 2.734473 1_645
