# generated using pymatgen
data_Na2CaMn3(SiO3)6
_symmetry_space_group_name_H-M   'P 1'
_cell_length_a   6.62458000
_cell_length_b   7.20496010
_cell_length_c   7.58951754
_cell_angle_alpha   100.85005079
_cell_angle_beta   94.01901816
_cell_angle_gamma   89.27859087
_symmetry_Int_Tables_number   1
_chemical_formula_structural   Na2CaMn3(SiO3)6
_chemical_formula_sum   'Na2 Ca1 Mn3 Si6 O18'
_cell_volume   354.89564221
_cell_formula_units_Z   1
loop_
 _symmetry_equiv_pos_site_id
 _symmetry_equiv_pos_as_xyz
  1  'x, y, z'
loop_
 _atom_site_type_symbol
 _atom_site_label
 _atom_site_symmetry_multiplicity
 _atom_site_fract_x
 _atom_site_fract_y
 _atom_site_fract_z
 _atom_site_occupancy
  Na  Na0  1  0.12878300  0.23452300  0.92027200  1
  Na  Na1  1  0.86763000  0.75430000  0.08065200  1
  Ca  Ca0  1  0.64743000  0.09249100  0.35049900  1
  Mn  Mn0  1  0.36165100  0.42296900  0.65164000  1
  Mn  Mn1  1  0.62707600  0.57817500  0.35118600  1
  Mn  Mn2  1  0.35138400  0.92228200  0.64662100  1
  Si  Si0  1  0.16060000  0.09181800  0.28694800  1
  Si  Si1  1  0.84707600  0.90385400  0.72532400  1
  Si  Si2  1  0.13952000  0.53451000  0.28864300  1
  Si  Si3  1  0.85558300  0.47102100  0.70504700  1
  Si  Si4  1  0.35303700  0.75675300  0.04406000  1
  Si  Si5  1  0.64484100  0.24350700  0.95139400  1
  O  O0  1  0.14532000  0.30409100  0.23395600  1
  O  O1  1  0.87216900  0.69768300  0.78090400  1
  O  O2  1  0.44205100  0.21260500  0.81472200  1
  O  O3  1  0.55868100  0.74566500  0.17668500  1
  O  O4  1  0.26648600  0.97392300  0.10242600  1
  O  O5  1  0.78307600  0.04502200  0.91434100  1
  O  O6  1  0.18783800  0.60481900  0.09587800  1
  O  O7  1  0.79043000  0.40167800  0.88919100  1
  O  O8  1  0.94931200  0.00169800  0.30022300  1
  O  O9  1  0.06943800  0.97041700  0.68510000  1
  O  O10  1  0.38202300  0.72130500  0.82658500  1
  O  O11  1  0.60967900  0.30908600  0.16205900  1
  O  O12  1  0.91920100  0.61035500  0.34605900  1
  O  O13  1  0.06473000  0.37712500  0.64877300  1
  O  O14  1  0.64728200  0.89471800  0.57980400  1
  O  O15  1  0.32958100  0.09379500  0.45756200  1
  O  O16  1  0.66319600  0.42402800  0.54874200  1
  O  O17  1  0.33489500  0.60578300  0.43470400  1
loop_
_geom_bond_atom_site_label_1
_geom_bond_atom_site_label_2
_geom_bond_distance
_geom_bond_site_symmetry_2
Na0 O2 2.269483 1_555
Na0 O0 2.333794 1_556
Na0 O9 2.367061 1_545
Na0 O13 2.478919 1_555
Na0 O7 2.548536 1_455
Na0 O4 2.650681 1_546
Na0 O5 2.674360 1_455
Na0 O6 2.768011 1_556
Na1 O3 2.225594 1_555
Na1 O1 2.236644 1_554
Na1 O8 2.242027 1_565
Na1 O6 2.372326 1_655
Na1 O12 2.435341 1_555
Na1 O5 2.676040 1_564
Na1 O7 2.714130 1_554
Ca0 O8 2.133761 1_555
Ca0 O11 2.307282 1_555
Ca0 O15 2.308769 1_555
Ca0 O14 2.448072 1_545
Ca0 O16 2.571337 1_555
Ca0 O3 2.649045 1_545
Mn0 O13 1.996554 1_555
Mn0 O2 2.169418 1_555
Mn0 O16 2.195833 1_555
Mn0 O17 2.290583 1_555
Mn0 O10 2.304169 1_555
Mn0 O15 2.548189 1_555
Mn1 O12 1.955899 1_555
Mn1 O3 1.979733 1_555
Mn1 O16 2.027003 1_555
Mn1 O17 2.074276 1_555
Mn1 O11 2.183391 1_555
Mn1 O14 2.591393 1_555
Mn2 O9 1.927735 1_555
Mn2 O14 2.056843 1_555
Mn2 O15 2.059312 1_565
Mn2 O10 2.168373 1_555
Mn2 O2 2.298573 1_565
Mn2 O17 2.529750 1_555
O0 Si2 1.634347 1_555
O0 Si0 1.653206 1_555
O1 Si1 1.622343 1_555
O1 Si3 1.628556 1_555
O2 Si5 1.629566 1_555
O3 Si4 1.646432 1_555
O4 Si4 1.650856 1_555
O4 Si0 1.688082 1_565
O5 Si1 1.672505 1_545
O5 Si5 1.677651 1_555
O6 Si4 1.674280 1_555
O6 Si2 1.687649 1_555
O7 Si3 1.655882 1_555
O7 Si5 1.657056 1_555
O8 Si0 1.567859 1_655
O9 Si1 1.621429 1_455
O10 Si4 1.646463 1_556
O11 Si5 1.612092 1_554
O12 Si2 1.611870 1_655
O13 Si3 1.584390 1_455
O14 Si1 1.657046 1_555
O15 Si0 1.649334 1_555
O16 Si3 1.671504 1_555
O17 Si2 1.664034 1_555
