# generated using pymatgen
data_Ba2CaCuAg2F14
_symmetry_space_group_name_H-M   'P 1'
_cell_length_a   7.63013425
_cell_length_b   7.63013425
_cell_length_c   15.37207202
_cell_angle_alpha   88.82407053
_cell_angle_beta   88.82407053
_cell_angle_gamma   42.88934617
_symmetry_Int_Tables_number   1
_chemical_formula_structural   Ba2CaCuAg2F14
_chemical_formula_sum   'Ba4 Ca2 Cu2 Ag4 F28'
_cell_volume   608.93834669
_cell_formula_units_Z   2
loop_
 _symmetry_equiv_pos_site_id
 _symmetry_equiv_pos_as_xyz
  1  'x, y, z'
loop_
 _atom_site_type_symbol
 _atom_site_label
 _atom_site_symmetry_multiplicity
 _atom_site_fract_x
 _atom_site_fract_y
 _atom_site_fract_z
 _atom_site_occupancy
  Ba  Ba0  1  0.73293700  0.88427300  0.62497800  1
  Ba  Ba1  1  0.88427300  0.73293700  0.12497800  1
  Ba  Ba2  1  0.26938500  0.11212500  0.37484200  1
  Ba  Ba3  1  0.11212500  0.26938500  0.87484200  1
  Ca  Ca0  1  0.41477800  0.58210400  0.75074600  1
  Ca  Ca1  1  0.58210400  0.41477800  0.25074600  1
  Cu  Cu0  1  0.50012900  0.50423900  0.00030400  1
  Cu  Cu1  1  0.50423900  0.50012900  0.50030400  1
  Ag  Ag0  1  0.84916200  0.90817900  0.87561200  1
  Ag  Ag1  1  0.14732600  0.09084100  0.12466200  1
  Ag  Ag2  1  0.90817900  0.84916200  0.37561200  1
  Ag  Ag3  1  0.09084100  0.14732600  0.62466200  1
  F  F0  1  0.93490900  0.10093800  0.34112500  1
  F  F1  1  0.58874500  0.13159300  0.46074400  1
  F  F2  1  0.41270500  0.86519100  0.53968300  1
  F  F3  1  0.16237900  0.35974500  0.59501500  1
  F  F4  1  0.52197400  0.38679600  0.61306700  1
  F  F5  1  0.61259800  0.48023800  0.88663300  1
  F  F6  1  0.13159300  0.58874500  0.96074400  1
  F  F7  1  0.89668600  0.06583500  0.15907000  1
  F  F8  1  0.04336300  0.62539900  0.77122400  1
  F  F9  1  0.84259400  0.63496600  0.40630600  1
  F  F10  1  0.56161600  0.18960100  0.78131200  1
  F  F11  1  0.63496600  0.84259400  0.90630600  1
  F  F12  1  0.18960100  0.56161600  0.28131200  1
  F  F13  1  0.43224200  0.80973800  0.22003800  1
  F  F14  1  0.38679600  0.52197300  0.11306700  1
  F  F15  1  0.95345900  0.37336900  0.22661900  1
  F  F16  1  0.30311300  0.85857300  0.00802000  1
  F  F17  1  0.06583500  0.89668600  0.65907000  1
  F  F18  1  0.68960700  0.15493000  0.98880500  1
  F  F19  1  0.85857300  0.30311300  0.50802000  1
  F  F20  1  0.86519100  0.41270500  0.03968300  1
  F  F21  1  0.80973800  0.43224200  0.72003800  1
  F  F22  1  0.62539900  0.04336300  0.27122400  1
  F  F23  1  0.15493000  0.68960700  0.48880500  1
  F  F24  1  0.48023800  0.61259800  0.38663300  1
  F  F25  1  0.10093800  0.93490900  0.84112500  1
  F  F26  1  0.37336900  0.95345900  0.72661900  1
  F  F27  1  0.35974500  0.16237900  0.09501500  1
loop_
_geom_bond_atom_site_label_1
_geom_bond_atom_site_label_2
_geom_bond_distance
_geom_bond_site_symmetry_2
Ba0 F17 2.672957 1_655
Ba0 F8 2.783240 1_655
Ba0 F3 2.786364 1_655
Ba0 F26 2.825347 1_555
Ba0 F1 2.832205 1_565
Ba0 F4 2.875025 1_565
Ba0 F2 2.893310 1_555
Ba0 F10 2.924013 1_565
Ba0 F3 3.032593 1_565
Ba0 F23 3.130235 1_655
Ba0 F21 3.352806 1_555
Ba1 F7 2.672957 1_565
Ba1 F22 2.783240 1_565
Ba1 F27 2.786364 1_565
Ba1 F15 2.825347 1_555
Ba1 F6 2.832205 1_654
Ba1 F14 2.875022 1_655
Ba1 F20 2.893310 1_555
Ba1 F12 2.924013 1_655
Ba1 F27 3.032593 1_655
Ba1 F18 3.130235 1_564
Ba1 F13 3.352806 1_555
Ba2 F0 2.676647 1_455
Ba2 F9 2.780553 1_455
Ba2 F22 2.821287 1_555
Ba2 F15 2.823774 1_455
Ba2 F2 2.839949 1_545
Ba2 F24 2.854217 1_545
Ba2 F1 2.893801 1_555
Ba2 F13 2.903979 1_545
Ba2 F9 3.049476 1_545
Ba2 F19 3.050529 1_455
Ba2 F12 3.312780 1_555
Ba3 F25 2.676647 1_545
Ba3 F11 2.780553 1_545
Ba3 F8 2.821287 1_555
Ba3 F26 2.823774 1_545
Ba3 F20 2.839949 1_456
Ba3 F5 2.854217 1_455
Ba3 F6 2.893801 1_555
Ba3 F21 2.903979 1_455
Ba3 F11 3.049476 1_455
Ba3 F16 3.050529 1_546
Ba3 F10 3.312780 1_555
Ca0 F25 2.341388 1_555
Ca0 F17 2.342388 1_555
Ca0 F10 2.343548 1_555
Ca0 F21 2.350829 1_555
Ca0 F5 2.364194 1_555
Ca0 F4 2.375139 1_555
Ca0 F8 2.614440 1_555
Ca0 F26 2.629802 1_555
Ca1 F0 2.341388 1_555
Ca1 F7 2.342388 1_555
Ca1 F12 2.343548 1_555
Ca1 F13 2.350829 1_555
Ca1 F24 2.364194 1_555
Ca1 F14 2.375140 1_555
Ca1 F22 2.614440 1_555
Ca1 F15 2.629802 1_555
Cu0 F5 1.882692 1_554
Cu0 F14 1.883459 1_555
Cu0 F18 1.894086 1_554
Cu0 F16 1.906242 1_555
Cu0 F20 2.411271 1_555
Cu0 F6 2.467796 1_554
Cu1 F24 1.882692 1_555
Cu1 F4 1.883457 1_555
Cu1 F23 1.894086 1_555
Cu1 F19 1.906242 1_555
Cu1 F2 2.411271 1_555
Cu1 F1 2.467796 1_555
Ag0 F11 2.073941 1_555
Ag0 F25 2.130987 1_655
Ag0 F6 2.141351 1_655
Ag0 F10 2.150616 1_565
Ag0 F18 2.177911 1_565
Ag0 F8 2.187612 1_655
Ag1 F27 2.094860 1_555
Ag1 F7 2.112469 1_455
Ag1 F20 2.146793 1_455
Ag1 F13 2.155259 1_545
Ag1 F15 2.159282 1_455
Ag1 F16 2.173653 1_545
Ag2 F9 2.073941 1_555
Ag2 F0 2.130987 1_565
Ag2 F1 2.141351 1_565
Ag2 F12 2.150616 1_655
Ag2 F23 2.177911 1_655
Ag2 F22 2.187612 1_565
Ag3 F3 2.094860 1_555
Ag3 F17 2.112469 1_545
Ag3 F2 2.146793 1_545
Ag3 F21 2.155259 1_455
Ag3 F26 2.159282 1_545
Ag3 F19 2.173653 1_455
