# generated using pymatgen
data_CsCuTeS3
_symmetry_space_group_name_H-M   'P 1'
_cell_length_a   9.19353100
_cell_length_b   9.19353100
_cell_length_c   9.19353100
_cell_angle_alpha   90.00000000
_cell_angle_beta   90.00000000
_cell_angle_gamma   90.00000000
_symmetry_Int_Tables_number   1
_chemical_formula_structural   CsCuTeS3
_chemical_formula_sum   'Cs4 Cu4 Te4 S12'
_cell_volume   777.04654625
_cell_formula_units_Z   4
loop_
 _symmetry_equiv_pos_site_id
 _symmetry_equiv_pos_as_xyz
  1  'x, y, z'
loop_
 _atom_site_type_symbol
 _atom_site_label
 _atom_site_symmetry_multiplicity
 _atom_site_fract_x
 _atom_site_fract_y
 _atom_site_fract_z
 _atom_site_occupancy
  Cs  Cs0  1  0.41761100  0.41761100  0.41761100  1
  Cs  Cs1  1  0.08238900  0.58238900  0.91761100  1
  Cs  Cs2  1  0.58238900  0.91761100  0.08238900  1
  Cs  Cs3  1  0.91761100  0.08238900  0.58238900  1
  Cu  Cu0  1  0.64656900  0.64656900  0.64656900  1
  Cu  Cu1  1  0.85343100  0.35343100  0.14656900  1
  Cu  Cu2  1  0.35343100  0.14656900  0.85343100  1
  Cu  Cu3  1  0.14656900  0.85343100  0.35343100  1
  Te  Te0  1  0.07094200  0.07094200  0.07094200  1
  Te  Te1  1  0.42905800  0.92905800  0.57094200  1
  Te  Te2  1  0.92905800  0.57094200  0.42905800  1
  Te  Te3  1  0.57094200  0.42905800  0.92905800  1
  S  S0  1  0.03217900  0.36287500  0.31136600  1
  S  S1  1  0.46782100  0.63712500  0.81136600  1
  S  S2  1  0.96782100  0.86287500  0.18863400  1
  S  S3  1  0.31136600  0.03217900  0.36287500  1
  S  S4  1  0.53217900  0.13712500  0.68863400  1
  S  S5  1  0.81136600  0.46782100  0.63712500  1
  S  S6  1  0.18863400  0.96782100  0.86287500  1
  S  S7  1  0.68863400  0.53217900  0.13712500  1
  S  S8  1  0.36287500  0.31136600  0.03217900  1
  S  S9  1  0.86287500  0.18863400  0.96782100  1
  S  S10  1  0.13712500  0.68863400  0.53217900  1
  S  S11  1  0.63712500  0.81136600  0.46782100  1
loop_
_geom_bond_atom_site_label_1
_geom_bond_atom_site_label_2
_geom_bond_distance
_geom_bond_site_symmetry_2
Cs0 Cu0 3.645850 1_555
Cs0 S8 3.709927 1_555
Cs0 S0 3.709927 1_555
Cs0 S3 3.709927 1_555
Cs0 S4 3.737277 1_555
Cs0 S10 3.737277 1_555
Cs0 S7 3.737277 1_555
Cs1 Cu1 3.645850 1_456
Cs1 S6 3.709927 1_555
Cs1 S10 3.709927 1_555
Cs1 S1 3.709927 1_555
Cs1 S8 3.737277 1_556
Cs1 S5 3.737277 1_455
Cs1 S2 3.737277 1_456
Cs2 Cu2 3.645850 1_564
Cs2 S2 3.709927 1_555
Cs2 S7 3.709927 1_555
Cs2 S11 3.709927 1_555
Cs2 S3 3.737277 1_565
Cs2 S1 3.737277 1_554
Cs2 S9 3.737277 1_564
Cs3 Cu3 3.645850 1_645
Cs3 S9 3.709927 1_555
Cs3 S4 3.709927 1_555
Cs3 S5 3.709927 1_555
Cs3 S0 3.737277 1_655
Cs3 S11 3.737277 1_545
Cs3 S6 3.737277 1_645
Cu0 S1 2.236847 1_555
Cu0 S11 2.236847 1_555
Cu0 S5 2.236847 1_555
Cu1 S7 2.236847 1_555
Cu1 S0 2.236847 1_655
Cu1 S9 2.236847 1_554
Cu2 S4 2.236847 1_555
Cu2 S8 2.236847 1_556
Cu2 S6 2.236847 1_545
Cu3 S10 2.236847 1_555
Cu3 S3 2.236847 1_565
Cu3 S2 2.236847 1_455
S0 Te2 2.393449 1_455
S1 Te3 2.393449 1_555
S2 Te0 2.393449 1_665
S3 Te1 2.393449 1_545
S4 Te1 2.393449 1_545
S5 Te2 2.393449 1_555
S6 Te0 2.393449 1_566
S7 Te3 2.393449 1_554
S8 Te3 2.393449 1_554
S9 Te0 2.393449 1_656
S10 Te2 2.393449 1_455
S11 Te1 2.393449 1_555
