# generated using pymatgen
data_Mn4CdS5
_symmetry_space_group_name_H-M   'P 1'
_cell_length_a   6.47210886
_cell_length_b   6.47210886
_cell_length_c   6.47210886
_cell_angle_alpha   99.59416808
_cell_angle_beta   99.59416808
_cell_angle_gamma   131.81005072
_symmetry_Int_Tables_number   1
_chemical_formula_structural   Mn4CdS5
_chemical_formula_sum   'Mn4 Cd1 S5'
_cell_volume   184.46412186
_cell_formula_units_Z   1
loop_
 _symmetry_equiv_pos_site_id
 _symmetry_equiv_pos_as_xyz
  1  'x, y, z'
loop_
 _atom_site_type_symbol
 _atom_site_label
 _atom_site_symmetry_multiplicity
 _atom_site_fract_x
 _atom_site_fract_y
 _atom_site_fract_z
 _atom_site_occupancy
  Mn  Mn0  1  0.39770600  0.80030000  0.19800500  1
  Mn  Mn1  1  0.80030000  0.60229400  0.40259400  1
  Mn  Mn2  1  0.19970000  0.39770600  0.59740600  1
  Mn  Mn3  1  0.60229400  0.19970000  0.80199500  1
  Cd  Cd0  1  0.00000000  0.00000000  0.00000000  1
  S  S0  1  0.30945900  0.10484400  0.41430300  1
  S  S1  1  0.10484400  0.69054100  0.79538500  1
  S  S2  1  0.50000000  0.50000000  0.00000000  1
  S  S3  1  0.69054100  0.89515600  0.58569700  1
  S  S4  1  0.89515600  0.30945900  0.20461500  1
loop_
_geom_bond_atom_site_label_1
_geom_bond_atom_site_label_2
_geom_bond_distance
_geom_bond_site_symmetry_2
Mn0 S3 2.571936 1_555
Mn0 S1 2.613196 1_554
Mn0 S4 2.643432 1_565
Mn0 S4 2.643438 1_455
Mn0 S0 2.649281 1_565
Mn0 S2 2.650718 1_555
Mn1 S4 2.571931 1_555
Mn1 S3 2.613201 1_555
Mn1 S0 2.643435 1_665
Mn1 S0 2.643435 1_555
Mn1 S1 2.649278 1_655
Mn1 S2 2.650721 1_555
Mn2 S1 2.571931 1_555
Mn2 S0 2.613201 1_555
Mn2 S3 2.643435 1_555
Mn2 S3 2.643435 1_445
Mn2 S4 2.649278 1_455
Mn2 S2 2.650721 1_556
Mn3 S0 2.571936 1_555
Mn3 S4 2.613196 1_556
Mn3 S1 2.643432 1_545
Mn3 S1 2.643438 1_655
Mn3 S3 2.649281 1_545
Mn3 S2 2.650718 1_556
Cd0 S2 2.642241 1_445
Cd0 S2 2.642241 1_555
Cd0 S3 2.730035 1_444
Cd0 S4 2.730035 1_455
Cd0 S0 2.730035 1_555
Cd0 S1 2.730035 1_544
