# generated using pymatgen
data_Sr3CeMn4O12
_symmetry_space_group_name_H-M   'P 1'
_cell_length_a   6.75077021
_cell_length_b   6.75077021
_cell_length_c   6.75077021
_cell_angle_alpha   109.47122063
_cell_angle_beta   109.47122063
_cell_angle_gamma   109.47122063
_symmetry_Int_Tables_number   1
_chemical_formula_structural   Sr3CeMn4O12
_chemical_formula_sum   'Sr3 Ce1 Mn4 O12'
_cell_volume   236.83074748
_cell_formula_units_Z   1
loop_
 _symmetry_equiv_pos_site_id
 _symmetry_equiv_pos_as_xyz
  1  'x, y, z'
loop_
 _atom_site_type_symbol
 _atom_site_label
 _atom_site_symmetry_multiplicity
 _atom_site_fract_x
 _atom_site_fract_y
 _atom_site_fract_z
 _atom_site_occupancy
  Sr  Sr0  1  0.50000000  0.50000000  0.00000000  1
  Sr  Sr1  1  0.00000000  0.50000000  0.50000000  1
  Sr  Sr2  1  0.50000000  0.00000000  0.50000000  1
  Ce  Ce0  1  0.00000000  0.00000000  0.00000000  1
  Mn  Mn0  1  0.00000000  0.00000000  0.50000000  1
  Mn  Mn1  1  0.50000000  0.50000000  0.50000000  1
  Mn  Mn2  1  0.50000000  0.00000000  0.00000000  1
  Mn  Mn3  1  0.00000000  0.50000000  0.00000000  1
  O  O0  1  0.51651700  0.75825900  0.75825900  1
  O  O1  1  0.00000000  0.24174100  0.75825900  1
  O  O2  1  0.00000000  0.75825900  0.24174100  1
  O  O3  1  0.48348300  0.24174100  0.24174100  1
  O  O4  1  0.75825900  0.00000000  0.24174100  1
  O  O5  1  0.24174100  0.48348300  0.24174100  1
  O  O6  1  0.24174100  0.00000000  0.75825900  1
  O  O7  1  0.75825900  0.51651700  0.75825900  1
  O  O8  1  0.75825900  0.75825900  0.51651700  1
  O  O9  1  0.24174100  0.24174100  0.48348300  1
  O  O10  1  0.24174100  0.75825900  0.00000000  1
  O  O11  1  0.75825900  0.24174100  0.00000000  1
loop_
_geom_bond_atom_site_label_1
_geom_bond_atom_site_label_2
_geom_bond_distance
_geom_bond_site_symmetry_2
Ce0 O10 2.664944 1_545
Ce0 O6 2.664944 1_554
Ce0 O2 2.664944 1_545
Ce0 O4 2.664944 1_455
Ce0 O1 2.664944 1_554
Ce0 O11 2.664944 1_455
Ce0 O5 2.664949 1_555
Ce0 O3 2.664949 1_555
Ce0 O8 2.664949 1_444
Ce0 O9 2.664949 1_555
Ce0 O7 2.664949 1_444
Ce0 O0 2.664949 1_444
Mn0 O9 1.950901 1_555
Mn0 O8 1.950901 1_445
Mn0 O6 1.950905 1_555
Mn0 O1 1.950905 1_555
Mn0 O2 1.950905 1_545
Mn0 O4 1.950905 1_455
Mn1 O8 1.950909 1_555
Mn1 O0 1.950909 1_555
Mn1 O7 1.950909 1_555
Mn1 O9 1.950909 1_555
Mn1 O5 1.950909 1_555
Mn1 O3 1.950909 1_555
Mn2 O3 1.950901 1_555
Mn2 O0 1.950901 1_544
Mn2 O11 1.950905 1_555
Mn2 O4 1.950905 1_555
Mn2 O10 1.950905 1_545
Mn2 O6 1.950905 1_554
Mn3 O5 1.950901 1_555
Mn3 O7 1.950901 1_454
Mn3 O2 1.950905 1_555
Mn3 O10 1.950905 1_555
Mn3 O1 1.950905 1_554
Mn3 O11 1.950905 1_455
O0 Sr0 2.757494 1_556
O0 Sr2 2.757494 1_565
O0 Sr1 2.847032 1_555
O1 Sr0 2.757494 1_556
O1 Sr2 2.757494 1_455
O1 Sr1 2.847037 1_555
O2 Sr2 2.757494 1_565
O2 Sr0 2.757494 1_455
O2 Sr1 2.847037 1_555
O3 Sr2 2.757494 1_555
O3 Sr0 2.757494 1_555
O3 Sr1 2.847032 1_655
O4 Sr0 2.757494 1_545
O4 Sr1 2.757494 1_655
O4 Sr2 2.847037 1_555
O5 Sr1 2.757494 1_555
O5 Sr0 2.757494 1_555
O5 Sr2 2.847032 1_565
O6 Sr0 2.757494 1_556
O6 Sr1 2.757494 1_545
O6 Sr2 2.847037 1_555
O7 Sr1 2.757494 1_655
O7 Sr0 2.757494 1_556
O7 Sr2 2.847032 1_555
O8 Sr1 2.757494 1_655
O8 Sr2 2.757494 1_565
O8 Sr0 2.847032 1_555
O9 Sr2 2.757494 1_555
O9 Sr1 2.757494 1_555
O9 Sr0 2.847032 1_556
O10 Sr2 2.757494 1_565
O10 Sr1 2.757494 1_554
O10 Sr0 2.847037 1_555
O11 Sr1 2.757494 1_655
O11 Sr2 2.757494 1_554
O11 Sr0 2.847037 1_555
