# generated using pymatgen
data_NaCa2ZrSi2O9
_symmetry_space_group_name_H-M   'P 1'
_cell_length_a   10.50741600
_cell_length_b   7.49931600
_cell_length_c   11.02514266
_cell_angle_alpha   69.81574155
_cell_angle_beta   90.00000000
_cell_angle_gamma   90.00000000
_symmetry_Int_Tables_number   1
_chemical_formula_structural   NaCa2ZrSi2O9
_chemical_formula_sum   'Na4 Ca8 Zr4 Si8 O36'
_cell_volume   815.41130583
_cell_formula_units_Z   4
loop_
 _symmetry_equiv_pos_site_id
 _symmetry_equiv_pos_as_xyz
  1  'x, y, z'
loop_
 _atom_site_type_symbol
 _atom_site_label
 _atom_site_symmetry_multiplicity
 _atom_site_fract_x
 _atom_site_fract_y
 _atom_site_fract_z
 _atom_site_occupancy
  Na  Na0  1  0.32738200  0.80831100  0.62903900  1
  Na  Na1  1  0.82738200  0.19168900  0.37096100  1
  Na  Na2  1  0.17034500  0.43389800  0.87091300  1
  Na  Na3  1  0.67034500  0.56610200  0.12908700  1
  Ca  Ca0  1  0.05468500  0.54241800  0.15141700  1
  Ca  Ca1  1  0.55468500  0.45758200  0.84858300  1
  Ca  Ca2  1  0.44825600  0.19912200  0.35312100  1
  Ca  Ca3  1  0.94825600  0.80087800  0.64687900  1
  Ca  Ca4  1  0.67964300  0.04778300  0.12590000  1
  Ca  Ca5  1  0.17964300  0.95221700  0.87410000  1
  Ca  Ca6  1  0.44359800  0.69809500  0.34794800  1
  Ca  Ca7  1  0.94359800  0.30190500  0.65205200  1
  Zr  Zr0  1  0.04677000  0.04191600  0.15447200  1
  Zr  Zr1  1  0.54677000  0.95808400  0.84552800  1
  Zr  Zr2  1  0.81079400  0.68942200  0.37553200  1
  Zr  Zr3  1  0.31079400  0.31057800  0.62446800  1
  Si  Si0  1  0.37405900  0.56068500  0.06269600  1
  Si  Si1  1  0.87405900  0.43931500  0.93730400  1
  Si  Si2  1  0.12727000  0.11579300  0.43330300  1
  Si  Si3  1  0.62727000  0.88420700  0.56669700  1
  Si  Si4  1  0.37358800  0.12641600  0.07130600  1
  Si  Si5  1  0.87358800  0.87358400  0.92869400  1
  Si  Si6  1  0.12789700  0.69758700  0.42568600  1
  Si  Si7  1  0.62789700  0.30241300  0.57431400  1
  O  O0  1  0.39002500  0.36203200  0.02629600  1
  O  O1  1  0.89002500  0.63796800  0.97370400  1
  O  O2  1  0.98763600  0.31227900  0.03283300  1
  O  O3  1  0.48763600  0.68772100  0.96716700  1
  O  O4  1  0.41078800  0.02097100  0.22089900  1
  O  O5  1  0.91078800  0.97902900  0.77910100  1
  O  O6  1  0.25302300  0.56778700  0.47497300  1
  O  O7  1  0.75302300  0.43221300  0.52502700  1
  O  O8  1  0.40671200  0.51594300  0.21325800  1
  O  O9  1  0.90671200  0.48405700  0.78674200  1
  O  O10  1  0.37292800  0.47544300  0.72955700  1
  O  O11  1  0.87292800  0.52455700  0.27044300  1
  O  O12  1  0.48812500  0.08335500  0.98156000  1
  O  O13  1  0.98812500  0.91664500  0.01844000  1
  O  O14  1  0.14540300  0.87930400  0.47833000  1
  O  O15  1  0.64540300  0.12069600  0.52167000  1
  O  O16  1  0.23097400  0.64333800  0.01860800  1
  O  O17  1  0.73097400  0.35666200  0.98139200  1
  O  O18  1  0.12182400  0.77099800  0.26767800  1
  O  O19  1  0.62182400  0.22900200  0.73232200  1
  O  O20  1  0.65226000  0.74035900  0.27124600  1
  O  O21  1  0.15226000  0.25964100  0.72875400  1
  O  O22  1  0.88162000  0.96157400  0.25466500  1
  O  O23  1  0.38162000  0.03842600  0.74533500  1
  O  O24  1  0.99222400  0.60588900  0.49059200  1
  O  O25  1  0.49222400  0.39411100  0.50940800  1
  O  O26  1  0.11251900  0.20047300  0.27386600  1
  O  O27  1  0.61251900  0.79952700  0.72613400  1
  O  O28  1  0.50043000  0.85616700  0.49234500  1
  O  O29  1  0.00043000  0.14383300  0.50765500  1
  O  O30  1  0.26146700  0.18198100  0.47998100  1
  O  O31  1  0.76146700  0.81801900  0.52001900  1
  O  O32  1  0.22782600  0.08714400  0.03496600  1
  O  O33  1  0.72782600  0.91285600  0.96503400  1
  O  O34  1  0.64392900  0.24287100  0.24725600  1
  O  O35  1  0.14392900  0.75712900  0.75274400  1
loop_
_geom_bond_atom_site_label_1
_geom_bond_atom_site_label_2
_geom_bond_distance
_geom_bond_site_symmetry_2
Na0 O28 2.309326 1_555
Na0 O35 2.315580 1_555
Na0 O10 2.404069 1_555
Na0 O14 2.467812 1_555
Na0 O23 2.544356 1_565
Na0 O30 2.802705 1_565
Na1 O29 2.309326 1_655
Na1 O34 2.315580 1_555
Na1 O11 2.404069 1_555
Na1 O15 2.467812 1_555
Na1 O22 2.544356 1_545
Na1 O31 2.802705 1_545
Na2 O35 2.338998 1_555
Na2 O21 2.369341 1_555
Na2 O2 2.565307 1_456
Na2 O10 2.592656 1_555
Na2 O32 2.674446 1_556
Na2 O16 2.699870 1_556
Na2 O0 2.813576 1_556
Na2 O9 2.904350 1_455
Na3 O34 2.338998 1_555
Na3 O20 2.369341 1_555
Na3 O3 2.565307 1_554
Na3 O11 2.592656 1_555
Na3 O33 2.674446 1_554
Na3 O17 2.699870 1_554
Na3 O1 2.813576 1_554
Na3 O8 2.904350 1_555
Ca0 O11 2.294786 1_455
Ca0 O16 2.320177 1_555
Ca0 O1 2.525259 1_454
Ca0 O26 2.525615 1_555
Ca0 O18 2.568151 1_555
Ca0 O2 2.596429 1_455
Ca0 O13 2.770442 1_455
Ca1 O10 2.294786 1_555
Ca1 O17 2.320177 1_555
Ca1 O0 2.525259 1_556
Ca1 O27 2.525615 1_555
Ca1 O19 2.568151 1_555
Ca1 O3 2.596429 1_555
Ca1 O12 2.770442 1_555
Ca2 O4 2.325725 1_555
Ca2 O34 2.330857 1_555
Ca2 O8 2.384360 1_555
Ca2 O30 2.387624 1_555
Ca2 O28 2.558741 1_545
Ca2 O25 2.656971 1_555
Ca2 O15 2.708510 1_555
Ca3 O5 2.325725 1_555
Ca3 O35 2.330857 1_655
Ca3 O9 2.384360 1_555
Ca3 O31 2.387624 1_555
Ca3 O29 2.558741 1_665
Ca3 O24 2.656971 1_555
Ca3 O14 2.708510 1_655
Ca4 O20 2.327317 1_545
Ca4 O34 2.328571 1_555
Ca4 O17 2.376580 1_554
Ca4 O33 2.379948 1_544
Ca4 O22 2.510775 1_545
Ca4 O12 2.521955 1_554
Ca5 O21 2.327317 1_565
Ca5 O35 2.328571 1_555
Ca5 O16 2.376580 1_556
Ca5 O32 2.379948 1_566
Ca5 O23 2.510775 1_565
Ca5 O13 2.521955 1_456
Ca6 O20 2.331881 1_555
Ca6 O28 2.366141 1_555
Ca6 O4 2.367132 1_565
Ca6 O8 2.370907 1_555
Ca6 O25 2.413788 1_555
Ca6 O6 2.445743 1_555
Ca7 O21 2.331881 1_655
Ca7 O29 2.366141 1_655
Ca7 O5 2.367132 1_545
Ca7 O9 2.370907 1_555
Ca7 O24 2.413788 1_555
Ca7 O7 2.445743 1_555
O0 Si4 1.671269 1_555
O0 Si0 1.679631 1_555
O1 Si5 1.671269 1_555
O1 Si1 1.679631 1_555
O2 Si1 1.657911 1_554
O2 Zr0 2.102164 1_655
O3 Si0 1.657911 1_556
O3 Zr1 2.102164 1_555
O4 Si4 1.611903 1_555
O5 Si5 1.611903 1_555
O6 Si6 1.614423 1_555
O6 Zr3 2.147503 1_555
O7 Si7 1.614423 1_555
O7 Zr2 2.147503 1_555
O8 Si0 1.612896 1_555
O9 Si1 1.612896 1_555
O10 Zr3 2.070216 1_555
O11 Zr2 2.070216 1_555
O12 Si4 1.658976 1_556
O12 Zr1 2.117518 1_545
O13 Si5 1.658976 1_554
O13 Zr0 2.117518 1_665
O14 Si6 1.665420 1_555
O14 Si2 1.679436 1_565
O15 Si7 1.665420 1_555
O15 Si3 1.679436 1_545
O16 Si0 1.634910 1_555
O17 Si1 1.634910 1_555
O18 Si6 1.637102 1_555
O18 Zr0 2.134857 1_565
O19 Si7 1.637102 1_555
O19 Zr1 2.134857 1_545
O20 Zr2 1.984850 1_555
O21 Zr3 1.984850 1_555
O22 Zr0 2.033526 1_665
O22 Zr2 2.149012 1_555
O23 Zr1 2.033526 1_545
O23 Zr3 2.149012 1_555
O24 Si6 1.636351 1_655
O24 Zr2 2.255543 1_555
O25 Si7 1.636351 1_555
O25 Zr3 2.255543 1_555
O26 Si2 1.657374 1_555
O26 Zr0 2.168877 1_555
O27 Si3 1.657374 1_555
O27 Zr1 2.168877 1_555
O28 Si3 1.615982 1_555
O29 Si2 1.615982 1_555
O30 Si2 1.635781 1_555
O30 Zr3 2.190078 1_555
O31 Si3 1.635781 1_555
O31 Zr2 2.190078 1_555
O32 Si4 1.635369 1_555
O32 Zr0 2.271978 1_555
O33 Si5 1.635369 1_555
O33 Zr1 2.271978 1_555
