# generated using pymatgen
data_Dy3CuSe6
_symmetry_space_group_name_H-M   'P 1'
_cell_length_a   7.09055900
_cell_length_b   7.74864200
_cell_length_c   17.08118700
_cell_angle_alpha   90.00000000
_cell_angle_beta   90.00000000
_cell_angle_gamma   90.00000000
_symmetry_Int_Tables_number   1
_chemical_formula_structural   Dy3CuSe6
_chemical_formula_sum   'Dy12 Cu4 Se24'
_cell_volume   938.47804826
_cell_formula_units_Z   4
loop_
 _symmetry_equiv_pos_site_id
 _symmetry_equiv_pos_as_xyz
  1  'x, y, z'
loop_
 _atom_site_type_symbol
 _atom_site_label
 _atom_site_symmetry_multiplicity
 _atom_site_fract_x
 _atom_site_fract_y
 _atom_site_fract_z
 _atom_site_occupancy
  Dy  Dy0  1  0.26511000  0.94084200  0.24714600  1
  Dy  Dy1  1  0.73489000  0.05915800  0.74714600  1
  Dy  Dy2  1  0.26511000  0.55915800  0.74714600  1
  Dy  Dy3  1  0.73489000  0.44084200  0.24714600  1
  Dy  Dy4  1  0.22748900  0.55510400  0.41193800  1
  Dy  Dy5  1  0.77251100  0.44489600  0.91193800  1
  Dy  Dy6  1  0.24469300  0.93917000  0.59145800  1
  Dy  Dy7  1  0.75530700  0.06083000  0.09145800  1
  Dy  Dy8  1  0.75530700  0.43917000  0.59145800  1
  Dy  Dy9  1  0.24469300  0.56083000  0.09145800  1
  Dy  Dy10  1  0.77251100  0.05510400  0.41193800  1
  Dy  Dy11  1  0.22748900  0.94489600  0.91193800  1
  Cu  Cu0  1  0.39657800  0.20711600  0.47637700  1
  Cu  Cu1  1  0.60342200  0.79288400  0.97637700  1
  Cu  Cu2  1  0.60342200  0.70711600  0.47637700  1
  Cu  Cu3  1  0.39657800  0.29288400  0.97637700  1
  Se  Se0  1  0.38721600  0.90853400  0.41595400  1
  Se  Se1  1  0.61278400  0.09146600  0.91595400  1
  Se  Se2  1  0.38351900  0.59342700  0.58043700  1
  Se  Se3  1  0.61648100  0.40657300  0.08043700  1
  Se  Se4  1  0.61648100  0.09342700  0.58043700  1
  Se  Se5  1  0.38351900  0.90657300  0.08043700  1
  Se  Se6  1  0.61278400  0.40853400  0.41595400  1
  Se  Se7  1  0.38721600  0.59146600  0.91595400  1
  Se  Se8  1  0.07623800  0.25012300  0.32055700  1
  Se  Se9  1  0.92376200  0.74987700  0.82055700  1
  Se  Se10  1  0.07468300  0.24696600  0.67679900  1
  Se  Se11  1  0.92531700  0.75303400  0.17679900  1
  Se  Se12  1  0.92531700  0.74696600  0.67679900  1
  Se  Se13  1  0.07468300  0.25303400  0.17679900  1
  Se  Se14  1  0.92376200  0.75012300  0.32055700  1
  Se  Se15  1  0.07623800  0.24987700  0.82055700  1
  Se  Se16  1  0.06394200  0.24961000  0.50084700  1
  Se  Se17  1  0.93605800  0.75039000  0.00084700  1
  Se  Se18  1  0.93605800  0.74961000  0.50084700  1
  Se  Se19  1  0.06394200  0.25039000  0.00084700  1
  Se  Se20  1  0.38174300  0.59862600  0.25148700  1
  Se  Se21  1  0.61825700  0.40137400  0.75148700  1
  Se  Se22  1  0.38174300  0.90137400  0.75148700  1
  Se  Se23  1  0.61825700  0.09862600  0.25148700  1
loop_
_geom_bond_atom_site_label_1
_geom_bond_atom_site_label_2
_geom_bond_distance
_geom_bond_site_symmetry_2
Dy0 Se20 2.778665 1_555
Dy0 Se23 2.787533 1_565
Dy0 Se5 2.980633 1_555
Dy0 Se8 3.018130 1_565
Dy0 Se13 3.019747 1_565
Dy0 Se0 3.021012 1_555
Dy0 Se11 3.060470 1_455
Dy0 Se14 3.100710 1_455
Dy1 Se21 2.778665 1_555
Dy1 Se22 2.787533 1_545
Dy1 Se4 2.980633 1_555
Dy1 Se9 3.018130 1_545
Dy1 Se12 3.019747 1_545
Dy1 Se1 3.021012 1_555
Dy1 Se10 3.060470 1_655
Dy1 Se15 3.100710 1_655
Dy2 Se22 2.778665 1_555
Dy2 Se21 2.787533 1_555
Dy2 Se2 2.980633 1_555
Dy2 Se15 3.018130 1_555
Dy2 Se10 3.019747 1_555
Dy2 Se7 3.021012 1_555
Dy2 Se12 3.060470 1_455
Dy2 Se9 3.100710 1_455
Dy3 Se23 2.778665 1_555
Dy3 Se20 2.787533 1_555
Dy3 Se3 2.980633 1_555
Dy3 Se14 3.018130 1_555
Dy3 Se11 3.019747 1_555
Dy3 Se6 3.021012 1_555
Dy3 Se13 3.060470 1_655
Dy3 Se8 3.100710 1_655
Dy4 Se6 2.959417 1_555
Dy4 Se0 2.964343 1_555
Dy4 Se20 2.970086 1_555
Dy4 Se18 2.974547 1_455
Dy4 Se8 3.028401 1_555
Dy4 Se16 3.042136 1_555
Dy4 Se14 3.059066 1_455
Dy4 Se2 3.097739 1_555
Dy5 Se7 2.959417 1_555
Dy5 Se1 2.964343 1_555
Dy5 Se21 2.970086 1_555
Dy5 Se19 2.974547 1_656
Dy5 Se9 3.028401 1_555
Dy5 Se17 3.042136 1_556
Dy5 Se15 3.059066 1_655
Dy5 Se3 3.097739 1_556
Dy6 Se2 2.860357 1_555
Dy6 Se4 2.900622 1_565
Dy6 Se22 2.915825 1_555
Dy6 Se10 3.044067 1_565
Dy6 Se18 3.056477 1_455
Dy6 Se12 3.077539 1_455
Dy6 Se16 3.134398 1_565
Dy6 Se0 3.172460 1_555
Dy7 Se3 2.860357 1_555
Dy7 Se5 2.900622 1_545
Dy7 Se23 2.915825 1_555
Dy7 Se11 3.044067 1_545
Dy7 Se19 3.056477 1_655
Dy7 Se13 3.077539 1_655
Dy7 Se17 3.134398 1_545
Dy7 Se1 3.172460 1_554
Dy8 Se4 2.860357 1_555
Dy8 Se2 2.900622 1_555
Dy8 Se21 2.915825 1_555
Dy8 Se12 3.044067 1_555
Dy8 Se16 3.056477 1_655
Dy8 Se10 3.077539 1_655
Dy8 Se18 3.134398 1_555
Dy8 Se6 3.172460 1_555
Dy9 Se5 2.860357 1_555
Dy9 Se3 2.900622 1_555
Dy9 Se20 2.915825 1_555
Dy9 Se13 3.044067 1_555
Dy9 Se17 3.056477 1_455
Dy9 Se11 3.077539 1_455
Dy9 Se19 3.134398 1_555
Dy9 Se7 3.172460 1_554
Dy10 Se0 2.959417 1_545
Dy10 Se6 2.964343 1_555
Dy10 Se23 2.970086 1_555
Dy10 Se16 2.974547 1_655
Dy10 Se14 3.028401 1_545
Dy10 Se18 3.042136 1_545
Dy10 Se8 3.059066 1_655
Dy10 Se4 3.097739 1_555
Dy11 Se1 2.959417 1_565
Dy11 Se7 2.964343 1_555
Dy11 Se22 2.970086 1_555
Dy11 Se17 2.974547 1_456
Dy11 Se15 3.028401 1_565
Dy11 Se19 3.042136 1_566
Dy11 Se9 3.059066 1_455
Dy11 Se5 3.097739 1_556
Cu0 Se16 2.417850 1_555
Cu0 Se6 2.418928 1_555
Cu0 Se4 2.523223 1_555
Cu0 Se0 2.534245 1_545
Cu0 Dy6 3.055250 1_545
Cu0 Dy10 3.115162 1_555
Cu0 Dy4 3.149561 1_555
Cu1 Se17 2.417850 1_556
Cu1 Se7 2.418928 1_555
Cu1 Se5 2.523223 1_556
Cu1 Se1 2.534245 1_565
Cu1 Dy7 3.055250 1_566
Cu1 Dy11 3.115162 1_555
Cu1 Dy5 3.149561 1_555
Cu2 Se18 2.417850 1_555
Cu2 Se0 2.418928 1_555
Cu2 Se2 2.523223 1_555
Cu2 Se6 2.534245 1_555
Cu2 Dy8 3.055250 1_555
Cu2 Dy4 3.115162 1_555
Cu2 Dy10 3.149561 1_565
Cu3 Se19 2.417850 1_556
Cu3 Se1 2.418928 1_555
Cu3 Se3 2.523223 1_556
Cu3 Se7 2.534245 1_555
Cu3 Dy9 3.055250 1_556
Cu3 Dy5 3.115162 1_555
Cu3 Dy11 3.149561 1_545
Se10 Se15 2.455686 1_555
Se10 Se16 3.006504 1_555
Se11 Se14 2.455686 1_555
Se11 Se17 3.006504 1_555
Se12 Se9 2.455686 1_555
Se12 Se18 3.006504 1_555
Se13 Se8 2.455686 1_555
Se13 Se19 3.006504 1_555
