# generated using pymatgen
data_CaAl2Si3O10
_symmetry_space_group_name_H-M   'P 1'
_cell_length_a   8.91484428
_cell_length_b   8.91484428
_cell_length_c   9.17853742
_cell_angle_alpha   83.96525128
_cell_angle_beta   83.96525128
_cell_angle_gamma   136.64545308
_symmetry_Int_Tables_number   1
_chemical_formula_structural   CaAl2Si3O10
_chemical_formula_sum   'Ca2 Al4 Si6 O20'
_cell_volume   480.06989957
_cell_formula_units_Z   2
loop_
 _symmetry_equiv_pos_site_id
 _symmetry_equiv_pos_as_xyz
  1  'x, y, z'
loop_
 _atom_site_type_symbol
 _atom_site_label
 _atom_site_symmetry_multiplicity
 _atom_site_fract_x
 _atom_site_fract_y
 _atom_site_fract_z
 _atom_site_occupancy
  Ca  Ca0  1  0.08410900  0.31738900  0.34963000  1
  Ca  Ca1  1  0.31738900  0.08410900  0.84963000  1
  Al  Al0  1  0.78355000  0.58684900  0.70561700  1
  Al  Al1  1  0.58684900  0.78355000  0.20561700  1
  Al  Al2  1  0.98724500  0.68083700  0.28256500  1
  Al  Al3  1  0.68083700  0.98724500  0.78256500  1
  Si  Si0  1  0.24483800  0.01790600  0.50293200  1
  Si  Si1  1  0.01790600  0.24483800  0.00293200  1
  Si  Si2  1  0.50489000  0.53254800  0.94837400  1
  Si  Si3  1  0.53254800  0.50489000  0.44837400  1
  Si  Si4  1  0.27005300  0.73646800  0.03874900  1
  Si  Si5  1  0.73646800  0.27005300  0.53874900  1
  O  O0  1  0.06085300  0.86625400  0.67264000  1
  O  O1  1  0.86625400  0.06085300  0.17264000  1
  O  O2  1  0.16766300  0.88950200  0.37341500  1
  O  O3  1  0.88950200  0.16766300  0.87341500  1
  O  O4  1  0.23566900  0.29071100  0.95471800  1
  O  O5  1  0.29071100  0.23566900  0.45471800  1
  O  O6  1  0.10946000  0.47304000  0.03693100  1
  O  O7  1  0.47304000  0.10946000  0.53693100  1
  O  O8  1  0.91365600  0.43608400  0.36986900  1
  O  O9  1  0.43608400  0.91365600  0.86986900  1
  O  O10  1  0.57909200  0.51049400  0.61416100  1
  O  O11  1  0.51049400  0.57909200  0.11416100  1
  O  O12  1  0.39698400  0.78329300  0.17018200  1
  O  O13  1  0.78329300  0.39698400  0.67018200  1
  O  O14  1  0.60935800  0.74429800  0.81765400  1
  O  O15  1  0.74429800  0.60935800  0.31765400  1
  O  O16  1  0.62382300  0.46038400  0.89838500  1
  O  O17  1  0.46038400  0.62382300  0.39838500  1
  O  O18  1  0.11724900  0.77405100  0.08337800  1
  O  O19  1  0.77405100  0.11724900  0.58337800  1
loop_
_geom_bond_atom_site_label_1
_geom_bond_atom_site_label_2
_geom_bond_distance
_geom_bond_site_symmetry_2
Ca0 O8 2.404897 1_455
Ca0 O17 2.482290 1_555
Ca0 O19 2.490581 1_455
Ca0 O1 2.574214 1_455
Ca0 O5 2.651514 1_555
Ca0 O12 2.914139 1_555
Ca0 O6 2.963829 1_555
Ca0 O11 2.979727 1_555
Ca1 O9 2.404897 1_545
Ca1 O16 2.482290 1_555
Ca1 O18 2.490581 1_546
Ca1 O0 2.574214 1_545
Ca1 O4 2.651514 1_555
Ca1 O13 2.914139 1_555
Ca1 O7 2.963829 1_555
Ca1 O10 2.979727 1_555
Al0 O13 1.755280 1_555
Al0 O10 1.768569 1_555
Al0 O0 1.771080 1_655
Al0 O16 1.773537 1_555
Al1 O12 1.755280 1_555
Al1 O11 1.768569 1_555
Al1 O1 1.771080 1_565
Al1 O17 1.773537 1_555
Al2 O2 1.731996 1_655
Al2 O15 1.733140 1_555
Al2 O18 1.791843 1_655
Al2 O8 1.809293 1_555
Al3 O3 1.731996 1_565
Al3 O14 1.733140 1_555
Al3 O19 1.791843 1_565
Al3 O9 1.809293 1_555
O0 Si0 1.655186 1_565
O1 Si1 1.655186 1_655
O2 Si0 1.584196 1_565
O3 Si1 1.584196 1_656
O4 Si1 1.660902 1_556
O4 Si2 1.682613 1_555
O5 Si0 1.660902 1_555
O5 Si3 1.682613 1_555
O6 Si1 1.635429 1_555
O6 Si4 1.639790 1_555
O7 Si0 1.635429 1_555
O7 Si5 1.639790 1_555
O8 Si5 1.640543 1_555
O9 Si4 1.640543 1_556
O10 Si3 1.615172 1_555
O11 Si2 1.615172 1_554
O12 Si4 1.617406 1_555
O13 Si5 1.617406 1_555
O14 Si2 1.613249 1_555
O15 Si3 1.613249 1_555
O16 Si2 1.643254 1_555
O17 Si3 1.643254 1_555
O18 Si4 1.646500 1_555
O19 Si5 1.646500 1_555
