# generated using pymatgen
data_ZrCrCuS4
_symmetry_space_group_name_H-M   'P 1'
_cell_length_a   6.94169900
_cell_length_b   7.19639100
_cell_length_c   12.41058300
_cell_angle_alpha   90.00000000
_cell_angle_beta   90.00000000
_cell_angle_gamma   90.00000000
_symmetry_Int_Tables_number   1
_chemical_formula_structural   ZrCrCuS4
_chemical_formula_sum   'Zr4 Cr4 Cu4 S16'
_cell_volume   619.97291026
_cell_formula_units_Z   4
loop_
 _symmetry_equiv_pos_site_id
 _symmetry_equiv_pos_as_xyz
  1  'x, y, z'
loop_
 _atom_site_type_symbol
 _atom_site_label
 _atom_site_symmetry_multiplicity
 _atom_site_fract_x
 _atom_site_fract_y
 _atom_site_fract_z
 _atom_site_occupancy
  Zr  Zr0  1  0.07398500  0.25000000  0.02344600  1
  Zr  Zr1  1  0.92601500  0.75000000  0.97655400  1
  Zr  Zr2  1  0.42601500  0.75000000  0.52344600  1
  Zr  Zr3  1  0.57398500  0.25000000  0.47655400  1
  Cr  Cr0  1  0.00387800  0.75000000  0.22950500  1
  Cr  Cr1  1  0.99612200  0.25000000  0.77049500  1
  Cr  Cr2  1  0.49612200  0.25000000  0.72950500  1
  Cr  Cr3  1  0.50387800  0.75000000  0.27049500  1
  Cu  Cu0  1  0.17674100  0.25000000  0.37935900  1
  Cu  Cu1  1  0.82325900  0.75000000  0.62064100  1
  Cu  Cu2  1  0.32325900  0.75000000  0.87935900  1
  Cu  Cu3  1  0.67674100  0.25000000  0.12064100  1
  S  S0  1  0.12607900  0.49812600  0.87197000  1
  S  S1  1  0.87392100  0.50187400  0.12803000  1
  S  S2  1  0.37392100  0.50187400  0.37197000  1
  S  S3  1  0.62607900  0.49812600  0.62803000  1
  S  S4  1  0.62607900  0.00187400  0.62803000  1
  S  S5  1  0.37392100  0.99812600  0.37197000  1
  S  S6  1  0.87392100  0.99812600  0.12803000  1
  S  S7  1  0.12607900  0.00187400  0.87197000  1
  S  S8  1  0.86679800  0.25000000  0.39210900  1
  S  S9  1  0.13320200  0.75000000  0.60789100  1
  S  S10  1  0.63320200  0.75000000  0.89210900  1
  S  S11  1  0.36679800  0.25000000  0.10789100  1
  S  S12  1  0.28714600  0.75000000  0.13502400  1
  S  S13  1  0.71285400  0.25000000  0.86497600  1
  S  S14  1  0.21285400  0.25000000  0.63502400  1
  S  S15  1  0.78714600  0.75000000  0.36497600  1
loop_
_geom_bond_atom_site_label_1
_geom_bond_atom_site_label_2
_geom_bond_distance
_geom_bond_site_symmetry_2
Cr0 S15 2.256140 1_455
Cr0 S12 2.289429 1_555
Cr0 S6 2.363944 1_455
Cr0 S1 2.363944 1_455
Cr1 S14 2.256140 1_655
Cr1 S13 2.289429 1_555
Cr1 S0 2.363944 1_655
Cr1 S7 2.363944 1_655
Cr2 S13 2.256140 1_555
Cr2 S14 2.289429 1_555
Cr2 S4 2.363944 1_555
Cr2 S3 2.363944 1_555
Cr3 S12 2.256140 1_555
Cr3 S15 2.289429 1_555
Cr3 S2 2.363944 1_555
Cr3 S5 2.363944 1_555
Cu0 S8 2.157342 1_455
Cu0 S5 2.273188 1_545
Cu0 S2 2.273188 1_555
Cu1 S9 2.157342 1_655
Cu1 S4 2.273188 1_565
Cu1 S3 2.273188 1_555
Cu2 S10 2.157342 1_555
Cu2 S7 2.273188 1_565
Cu2 S0 2.273188 1_555
Cu3 S11 2.157342 1_555
Cu3 S6 2.273188 1_545
Cu3 S1 2.273188 1_555
S0 Zr0 2.617866 1_556
S0 Zr1 2.626566 1_455
S1 Zr1 2.617866 1_554
S1 Zr0 2.626566 1_655
S2 Zr2 2.617866 1_555
S2 Zr3 2.626566 1_555
S3 Zr3 2.617866 1_555
S3 Zr2 2.626566 1_555
S4 Zr3 2.617866 1_555
S4 Zr2 2.626566 1_545
S5 Zr2 2.617866 1_555
S5 Zr3 2.626566 1_565
S6 Zr1 2.617866 1_554
S6 Zr0 2.626566 1_665
S7 Zr0 2.617866 1_556
S7 Zr1 2.626566 1_445
S8 Zr3 2.286891 1_555
S9 Zr2 2.286891 1_555
S10 Zr1 2.286891 1_555
S11 Zr0 2.286891 1_555
