# generated using pymatgen
data_Ir3(CO)8
_symmetry_space_group_name_H-M   'P 1'
_cell_length_a   9.83526300
_cell_length_b   9.87164270
_cell_length_c   15.90173659
_cell_angle_alpha   100.48610084
_cell_angle_beta   97.72507380
_cell_angle_gamma   119.19315676
_symmetry_Int_Tables_number   1
_chemical_formula_structural   Ir3(CO)8
_chemical_formula_sum   'Ir12 C32 O32'
_cell_volume   1279.70655040
_cell_formula_units_Z   4
loop_
 _symmetry_equiv_pos_site_id
 _symmetry_equiv_pos_as_xyz
  1  'x, y, z'
loop_
 _atom_site_type_symbol
 _atom_site_label
 _atom_site_symmetry_multiplicity
 _atom_site_fract_x
 _atom_site_fract_y
 _atom_site_fract_z
 _atom_site_occupancy
  Ir  Ir0  1  0.41469300  0.16721100  0.74925600  1
  Ir  Ir1  1  0.51701000  0.53843100  0.21405200  1
  Ir  Ir2  1  0.25154100  0.73144800  0.28559900  1
  Ir  Ir3  1  0.41784900  0.72476000  0.12177300  1
  Ir  Ir4  1  0.58530700  0.83278900  0.25074400  1
  Ir  Ir5  1  0.34849400  0.54270500  0.37836800  1
  Ir  Ir6  1  0.65150600  0.45729500  0.62163200  1
  Ir  Ir7  1  0.74845900  0.26855200  0.71440100  1
  Ir  Ir8  1  0.58215100  0.27524000  0.87822700  1
  Ir  Ir9  1  0.18210200  0.43313000  0.25098500  1
  Ir  Ir10  1  0.48299000  0.46156900  0.78594800  1
  Ir  Ir11  1  0.81789800  0.56687000  0.74901500  1
  C  C0  1  0.50003800  0.66106100  0.73976400  1
  C  C1  1  0.28641000  0.38813200  0.87314100  1
  C  C2  1  0.36872300  0.63406700  0.47639300  1
  C  C3  1  0.99662400  0.60359900  0.79469000  1
  C  C4  1  0.53395000  0.07138400  0.82265300  1
  C  C5  1  0.90134400  0.24232000  0.76083700  1
  C  C6  1  0.63127700  0.36593300  0.52360700  1
  C  C7  1  0.39365700  0.35985200  0.67737300  1
  C  C8  1  0.23808300  0.84136400  0.37300200  1
  C  C9  1  0.10005700  0.49013000  0.37158300  1
  C  C10  1  0.79766900  0.96421900  0.17034600  1
  C  C11  1  0.49996200  0.33893900  0.26023600  1
  C  C12  1  0.60634200  0.64014800  0.32262700  1
  C  C13  1  0.76191700  0.15863600  0.62699800  1
  C  C14  1  0.09865600  0.75768000  0.23916300  1
  C  C15  1  0.10303900  0.21156700  0.29350600  1
  C  C16  1  0.63346500  0.96842700  0.32894100  1
  C  C17  1  0.27015100  0.33215900  0.44692500  1
  C  C18  1  0.36653500  0.03157300  0.67105900  1
  C  C19  1  0.89994300  0.50987000  0.62841700  1
  C  C20  1  0.27557100  0.71864300  0.05367800  1
  C  C21  1  0.71359000  0.61186800  0.12685900  1
  C  C22  1  0.20233100  0.03578100  0.82965400  1
  C  C23  1  0.46605000  0.92861600  0.17734700  1
  C  C24  1  0.72984900  0.66784100  0.55307500  1
  C  C25  1  0.00337600  0.39640100  0.20531000  1
  C  C26  1  0.38912000  0.15584600  0.97682000  1
  C  C27  1  0.89696100  0.78843300  0.70649400  1
  C  C28  1  0.61088000  0.84415400  0.02318000  1
  C  C29  1  0.64157700  0.52762400  0.87112500  1
  C  C30  1  0.72442900  0.28135700  0.94632300  1
  C  C31  1  0.35842300  0.47237600  0.12887500  1
  O  O0  1  0.29341100  0.35806800  0.64420000  1
  O  O1  1  0.05817600  0.07627400  0.31723600  1
  O  O2  1  0.94182400  0.92372600  0.68276400  1
  O  O3  1  0.02983600  0.57944700  0.57310900  1
  O  O4  1  0.18596700  0.70899600  0.01312700  1
  O  O5  1  0.38984900  0.69711700  0.53307500  1
  O  O6  1  0.70658900  0.64193200  0.35580000  1
  O  O7  1  0.77367500  0.09434100  0.57378100  1
  O  O8  1  0.49583400  0.93685600  0.85488000  1
  O  O9  1  0.07424300  0.95785500  0.87947100  1
  O  O10  1  0.89407600  0.37318500  0.18043400  1
  O  O11  1  0.50487800  0.77749100  0.70947100  1
  O  O12  1  0.61015100  0.30288300  0.46692500  1
  O  O13  1  0.83327200  0.65964700  0.07103900  1
  O  O14  1  0.21529900  0.20089400  0.48691900  1
  O  O15  1  0.33761000  0.95616800  0.62004300  1
  O  O16  1  0.10592400  0.62681500  0.81956600  1
  O  O17  1  0.22632500  0.90565900  0.42621900  1
  O  O18  1  0.78470100  0.79910600  0.51308100  1
  O  O19  1  0.50416600  0.06314400  0.14512000  1
  O  O20  1  0.66239000  0.04383200  0.37995700  1
  O  O21  1  0.65754300  0.60110800  0.92602100  1
  O  O22  1  0.27077500  0.07729800  0.03464600  1
  O  O23  1  0.72922500  0.92270200  0.96535400  1
  O  O24  1  0.34245700  0.39889200  0.07397900  1
  O  O25  1  0.97016400  0.42055300  0.42689100  1
  O  O26  1  0.16672800  0.34035300  0.92896100  1
  O  O27  1  0.81403300  0.29100400  0.98687300  1
  O  O28  1  0.00993700  0.77836500  0.20969400  1
  O  O29  1  0.92575700  0.04214500  0.12052900  1
  O  O30  1  0.49512200  0.22250900  0.29052900  1
  O  O31  1  0.99006300  0.22163500  0.79030600  1
loop_
_geom_bond_atom_site_label_1
_geom_bond_atom_site_label_2
_geom_bond_distance
_geom_bond_site_symmetry_2
Ir0 Ir8 2.153681 1_555
Ir3 Ir4 2.153681 1_555
C0 O11 1.307536 1_555
C0 Ir10 2.164045 1_555
C1 O26 1.512488 1_555
C1 Ir10 2.430090 1_555
C2 O5 0.928587 1_555
C2 Ir5 1.585123 1_555
C3 O16 0.988413 1_655
C3 Ir11 1.639539 1_555
C4 O8 1.407297 1_545
C4 Ir8 1.834347 1_555
C4 Ir0 2.179231 1_555
C5 O31 1.058957 1_555
C5 Ir7 1.739040 1_555
C6 O12 0.928587 1_555
C6 Ir6 1.585123 1_555
C7 O0 1.044281 1_555
C7 Ir10 1.691639 1_555
C8 O17 1.017225 1_555
C8 Ir2 1.663490 1_555
C9 O25 1.594777 1_455
C10 O29 1.533326 1_565
C11 O30 1.307536 1_555
C11 Ir1 2.164045 1_555
C12 O6 1.044289 1_555
C12 Ir1 1.691638 1_555
C13 O7 1.017225 1_555
C13 Ir7 1.663490 1_555
C14 O28 1.058957 1_555
C14 Ir2 1.739040 1_555
C15 O1 1.331972 1_555
C16 O20 0.897057 1_565
C16 Ir4 1.476602 1_555
C17 O14 1.443907 1_555
C18 O15 0.897057 1_545
C18 Ir0 1.476602 1_555
C19 O3 1.594777 1_655
C20 O4 0.971870 1_555
C20 Ir3 1.618868 1_555
C21 O13 1.512488 1_555
C21 Ir1 2.430090 1_555
C22 O9 1.533326 1_545
C23 O19 1.407297 1_565
C23 Ir3 1.834347 1_555
C23 Ir4 2.179231 1_555
C24 O18 1.443907 1_555
C25 O10 0.988413 1_455
C25 Ir9 1.639539 1_555
C26 O22 1.571119 1_556
C26 Ir8 2.596431 1_555
C27 O2 1.331972 1_555
C28 O23 1.571119 1_554
C28 Ir3 2.596431 1_555
C29 O21 0.966661 1_555
C29 Ir10 1.676596 1_555
C29 Ir8 2.293753 1_555
C30 O27 0.971862 1_555
C30 Ir8 1.618876 1_555
C31 O24 0.966661 1_555
C31 Ir1 1.676596 1_555
C31 Ir3 2.293753 1_555
