# generated using pymatgen
data_Mo4H14N2O17
_symmetry_space_group_name_H-M   'P 1'
_cell_length_a   10.65312400
_cell_length_b   8.05270600
_cell_length_c   20.09716720
_cell_angle_alpha   90.00000000
_cell_angle_beta   114.73519985
_cell_angle_gamma   90.00000000
_symmetry_Int_Tables_number   1
_chemical_formula_structural   Mo4H14N2O17
_chemical_formula_sum   'Mo16 H56 N8 O68'
_cell_volume   1565.88438692
_cell_formula_units_Z   4
loop_
 _symmetry_equiv_pos_site_id
 _symmetry_equiv_pos_as_xyz
  1  'x, y, z'
loop_
 _atom_site_type_symbol
 _atom_site_label
 _atom_site_symmetry_multiplicity
 _atom_site_fract_x
 _atom_site_fract_y
 _atom_site_fract_z
 _atom_site_occupancy
  Mo  Mo0  1  0.92397600  0.45902900  0.84643100  1
  Mo  Mo1  1  0.92397600  0.04097100  0.34643100  1
  Mo  Mo2  1  0.07602400  0.54097100  0.15356900  1
  Mo  Mo3  1  0.07602400  0.95902900  0.65356900  1
  Mo  Mo4  1  0.65586300  0.41740900  0.88860600  1
  Mo  Mo5  1  0.65586300  0.08259100  0.38860600  1
  Mo  Mo6  1  0.34413700  0.58259100  0.11139400  1
  Mo  Mo7  1  0.34413700  0.91740900  0.61139400  1
  Mo  Mo8  1  0.71491600  0.32807800  0.05936600  1
  Mo  Mo9  1  0.71491600  0.17192200  0.55936600  1
  Mo  Mo10  1  0.28508400  0.67192200  0.94063400  1
  Mo  Mo11  1  0.28508400  0.82807800  0.44063400  1
  Mo  Mo12  1  0.98947500  0.28239500  0.01428300  1
  Mo  Mo13  1  0.98947500  0.21760500  0.51428300  1
  Mo  Mo14  1  0.01052500  0.71760500  0.98571700  1
  Mo  Mo15  1  0.01052500  0.78239500  0.48571700  1
  H  H0  1  0.87633800  0.15727700  0.18379800  1
  H  H1  1  0.87633800  0.34272300  0.68379800  1
  H  H2  1  0.12366200  0.84272300  0.81620200  1
  H  H3  1  0.12366200  0.65727700  0.31620200  1
  H  H4  1  0.78063000  0.01888500  0.12523200  1
  H  H5  1  0.78063000  0.48111500  0.62523200  1
  H  H6  1  0.21937000  0.98111500  0.87476800  1
  H  H7  1  0.21937000  0.51888500  0.37476800  1
  H  H8  1  0.39777100  0.89822200  0.76838200  1
  H  H9  1  0.39777100  0.60177800  0.26838200  1
  H  H10  1  0.60222900  0.10177800  0.23161800  1
  H  H11  1  0.60222900  0.39822200  0.73161800  1
  H  H12  1  0.45614200  0.06449600  0.81101900  1
  H  H13  1  0.45614200  0.43550400  0.31101900  1
  H  H14  1  0.54385800  0.93550400  0.18898100  1
  H  H15  1  0.54385800  0.56449600  0.68898100  1
  H  H16  1  0.20224900  0.24592700  0.85706900  1
  H  H17  1  0.20224900  0.25407300  0.35706900  1
  H  H18  1  0.79775100  0.75407300  0.14293100  1
  H  H19  1  0.79775100  0.74592700  0.64293100  1
  H  H20  1  0.36149900  0.20670200  0.88431400  1
  H  H21  1  0.36149900  0.29329800  0.38431400  1
  H  H22  1  0.63850100  0.79329800  0.11568600  1
  H  H23  1  0.63850100  0.70670200  0.61568600  1
  H  H24  1  0.41244900  0.05239000  0.02885100  1
  H  H25  1  0.41244900  0.44761000  0.52885100  1
  H  H26  1  0.58755100  0.94761000  0.97114900  1
  H  H27  1  0.58755100  0.55239000  0.47114900  1
  H  H28  1  0.26398800  0.02806800  0.03749000  1
  H  H29  1  0.26398800  0.47193200  0.53749000  1
  H  H30  1  0.73601200  0.97193200  0.96251000  1
  H  H31  1  0.73601200  0.52806800  0.46251000  1
  H  H32  1  0.38888500  0.15630400  0.09484000  1
  H  H33  1  0.38888500  0.34369600  0.59484000  1
  H  H34  1  0.61111500  0.84369600  0.90516000  1
  H  H35  1  0.61111500  0.65630400  0.40516000  1
  H  H36  1  0.29929200  0.20672900  0.00407300  1
  H  H37  1  0.29929200  0.29327100  0.50407300  1
  H  H38  1  0.70070800  0.79327100  0.99592700  1
  H  H39  1  0.70070800  0.70672900  0.49592700  1
  H  H40  1  0.63033000  0.95629700  0.78421500  1
  H  H41  1  0.63033000  0.54370300  0.28421500  1
  H  H42  1  0.36967000  0.04370300  0.21578500  1
  H  H43  1  0.36967000  0.45629700  0.71578500  1
  H  H44  1  0.74975200  0.10736600  0.80251000  1
  H  H45  1  0.74975200  0.39263400  0.30251000  1
  H  H46  1  0.25024800  0.89263400  0.19749000  1
  H  H47  1  0.25024800  0.60736600  0.69749000  1
  H  H48  1  0.69895200  0.99968300  0.72314200  1
  H  H49  1  0.69895200  0.50031700  0.22314200  1
  H  H50  1  0.30104800  0.00031700  0.27685800  1
  H  H51  1  0.30104800  0.49968300  0.77685800  1
  H  H52  1  0.79754800  0.90621500  0.80418400  1
  H  H53  1  0.79754800  0.59378500  0.30418400  1
  H  H54  1  0.20245200  0.09378500  0.19581600  1
  H  H55  1  0.20245200  0.40621500  0.69581600  1
  N  N0  1  0.34005600  0.11242900  0.04166500  1
  N  N1  1  0.34005600  0.38757100  0.54166500  1
  N  N2  1  0.65994400  0.88757100  0.95833500  1
  N  N3  1  0.65994400  0.61242900  0.45833500  1
  N  N4  1  0.71991600  0.99100600  0.77830800  1
  N  N5  1  0.71991600  0.50899400  0.27830800  1
  N  N6  1  0.28008400  0.00899400  0.22169200  1
  N  N7  1  0.28008400  0.49100600  0.72169200  1
  O  O0  1  0.06128400  0.38794000  0.80907400  1
  O  O1  1  0.06128400  0.11206000  0.30907400  1
  O  O2  1  0.93871600  0.61206000  0.19092600  1
  O  O3  1  0.93871600  0.88794000  0.69092600  1
  O  O4  1  0.93357700  0.29265700  0.77446700  1
  O  O5  1  0.93357700  0.20734300  0.27446700  1
  O  O6  1  0.06642300  0.70734300  0.22553300  1
  O  O7  1  0.06642300  0.79265700  0.72553300  1
  O  O8  1  0.83938100  0.62158600  0.78989600  1
  O  O9  1  0.83938100  0.87841400  0.28989600  1
  O  O10  1  0.16061900  0.37841400  0.21010400  1
  O  O11  1  0.16061900  0.12158600  0.71010400  1
  O  O12  1  0.75079200  0.33013400  0.83032000  1
  O  O13  1  0.75079200  0.16986600  0.33032000  1
  O  O14  1  0.24920800  0.66986600  0.16968000  1
  O  O15  1  0.24920800  0.83013400  0.66968000  1
  O  O16  1  0.02978900  0.27019900  0.93583000  1
  O  O17  1  0.02978900  0.22980100  0.43583000  1
  O  O18  1  0.97021100  0.72980100  0.06417000  1
  O  O19  1  0.97021100  0.77019900  0.56417000  1
  O  O20  1  0.59556800  0.60458500  0.84420500  1
  O  O21  1  0.59556800  0.89541500  0.34420500  1
  O  O22  1  0.40443200  0.39541500  0.15579500  1
  O  O23  1  0.40443200  0.10458500  0.65579500  1
  O  O24  1  0.51316800  0.28206500  0.85553200  1
  O  O25  1  0.51316800  0.21793500  0.35553200  1
  O  O26  1  0.48683200  0.71793500  0.14446800  1
  O  O27  1  0.48683200  0.78206500  0.64446800  1
  O  O28  1  0.65641600  0.48892000  0.98266800  1
  O  O29  1  0.65641600  0.01108000  0.48266800  1
  O  O30  1  0.34358400  0.51108000  0.01733200  1
  O  O31  1  0.34358400  0.98892000  0.51733200  1
  O  O32  1  0.79904500  0.22630600  0.97330500  1
  O  O33  1  0.79904500  0.27369400  0.47330500  1
  O  O34  1  0.20095500  0.77369400  0.02669500  1
  O  O35  1  0.20095500  0.72630600  0.52669500  1
  O  O36  1  0.58534500  0.17730700  0.02121500  1
  O  O37  1  0.58534500  0.32269300  0.52121500  1
  O  O38  1  0.41465500  0.82269300  0.97878500  1
  O  O39  1  0.41465500  0.67730700  0.47878500  1
  O  O40  1  0.68567100  0.42992300  0.12759500  1
  O  O41  1  0.68567100  0.07007700  0.62759500  1
  O  O42  1  0.31432900  0.57007700  0.87240500  1
  O  O43  1  0.31432900  0.92992300  0.37240500  1
  O  O44  1  0.83224800  0.12788900  0.13046100  1
  O  O45  1  0.83224800  0.37211100  0.63046100  1
  O  O46  1  0.16775200  0.87211100  0.86953900  1
  O  O47  1  0.16775200  0.62788900  0.36953900  1
  O  O48  1  0.91856900  0.39914900  0.08675000  1
  O  O49  1  0.91856900  0.10085100  0.58675000  1
  O  O50  1  0.08143100  0.60085100  0.91325000  1
  O  O51  1  0.08143100  0.89914900  0.41325000  1
  O  O52  1  0.07928400  0.11937000  0.07002900  1
  O  O53  1  0.07928400  0.38063000  0.57002900  1
  O  O54  1  0.92071600  0.88063000  0.92997100  1
  O  O55  1  0.92071600  0.61937000  0.42997100  1
  O  O56  1  0.12140800  0.47205900  0.06430100  1
  O  O57  1  0.12140800  0.02794100  0.56430100  1
  O  O58  1  0.87859200  0.52794100  0.93569900  1
  O  O59  1  0.87859200  0.97205900  0.43569900  1
  O  O60  1  0.47939800  0.94739700  0.80794100  1
  O  O61  1  0.47939800  0.55260300  0.30794100  1
  O  O62  1  0.52060200  0.05260300  0.19205900  1
  O  O63  1  0.52060200  0.44739700  0.69205900  1
  O  O64  1  0.27611500  0.16642400  0.88600600  1
  O  O65  1  0.27611500  0.33357600  0.38600600  1
  O  O66  1  0.72388500  0.83357600  0.11399400  1
  O  O67  1  0.72388500  0.66642400  0.61399400  1
loop_
_geom_bond_atom_site_label_1
_geom_bond_atom_site_label_2
_geom_bond_distance
_geom_bond_site_symmetry_2
Mo0 O8 1.720395 1_555
Mo0 O0 1.987474 1_655
Mo0 O4 2.005212 1_555
Mo0 O50 2.009029 1_655
Mo0 O12 2.021415 1_555
Mo0 O58 2.118048 1_555
Mo0 O16 2.261864 1_655
Mo1 O9 1.720395 1_545
Mo1 O1 1.987474 1_655
Mo1 O5 2.005212 1_555
Mo1 O51 2.009029 1_645
Mo1 O13 2.021415 1_555
Mo1 O59 2.118048 1_545
Mo1 O17 2.261864 1_655
Mo2 O10 1.720395 1_555
Mo2 O2 1.987474 1_455
Mo2 O6 2.005212 1_555
Mo2 O48 2.009029 1_455
Mo2 O14 2.021415 1_555
Mo2 O56 2.118048 1_555
Mo2 O18 2.261864 1_455
Mo3 O11 1.720395 1_565
Mo3 O3 1.987474 1_455
Mo3 O7 2.005212 1_555
Mo3 O49 2.009029 1_465
Mo3 O15 2.021415 1_555
Mo3 O57 2.118048 1_565
Mo3 O19 2.261864 1_455
Mo4 O20 1.732357 1_555
Mo4 O24 1.759243 1_555
Mo4 O12 1.969801 1_555
Mo4 O28 1.973794 1_555
Mo4 O32 2.327990 1_555
Mo4 O58 2.332100 1_555
Mo5 O21 1.732357 1_545
Mo5 O25 1.759243 1_555
Mo5 O13 1.969801 1_555
Mo5 O29 1.973794 1_555
Mo5 O33 2.327990 1_555
Mo5 O59 2.332100 1_545
Mo6 O22 1.732357 1_555
Mo6 O26 1.759243 1_555
Mo6 O14 1.969801 1_555
Mo6 O30 1.973794 1_555
Mo6 O34 2.327990 1_555
Mo6 O56 2.332100 1_555
Mo7 O23 1.732357 1_565
Mo7 O27 1.759243 1_555
Mo7 O15 1.969801 1_555
Mo7 O31 1.973794 1_555
Mo7 O35 2.327990 1_555
Mo7 O57 2.332100 1_565
Mo8 O40 1.734184 1_555
Mo8 O36 1.755448 1_555
Mo8 O28 1.907360 1_554
Mo8 O48 2.082819 1_555
Mo8 O44 2.169805 1_555
Mo8 O32 2.400741 1_554
Mo9 O41 1.734184 1_555
Mo9 O37 1.755448 1_555
Mo9 O29 1.907360 1_555
Mo9 O49 2.082819 1_555
Mo9 O45 2.169805 1_555
Mo9 O33 2.400741 1_555
Mo10 O42 1.734184 1_555
Mo10 O38 1.755448 1_555
Mo10 O30 1.907360 1_556
Mo10 O50 2.082819 1_555
Mo10 O46 2.169805 1_555
Mo10 O34 2.400741 1_556
Mo11 O43 1.734184 1_555
Mo11 O39 1.755448 1_555
Mo11 O31 1.907360 1_555
Mo11 O51 2.082819 1_555
Mo11 O47 2.169805 1_555
Mo11 O35 2.400741 1_555
Mo12 O52 1.731167 1_655
Mo12 O16 1.801855 1_654
Mo12 O32 1.897267 1_554
Mo12 O56 2.033773 1_655
Mo12 O48 2.120426 1_555
Mo12 O58 2.497628 1_554
Mo13 O53 1.731167 1_655
Mo13 O17 1.801855 1_655
Mo13 O33 1.897267 1_555
Mo13 O57 2.033773 1_655
Mo13 O49 2.120426 1_555
Mo13 O59 2.497628 1_545
Mo14 O54 1.731167 1_455
Mo14 O18 1.801855 1_456
Mo14 O34 1.897267 1_556
Mo14 O58 2.033773 1_455
Mo14 O50 2.120426 1_555
Mo14 O56 2.497628 1_556
Mo15 O55 1.731167 1_455
Mo15 O19 1.801855 1_455
Mo15 O35 1.897267 1_555
Mo15 O59 2.033773 1_455
Mo15 O51 2.120426 1_555
Mo15 O57 2.497628 1_565
H0 O44 1.002148 1_555
H0 O5 1.710234 1_555
H1 O45 1.002148 1_555
H1 O4 1.710234 1_555
H2 O46 1.002148 1_555
H2 O7 1.710234 1_555
H3 O47 1.002148 1_555
H3 O6 1.710234 1_555
H4 O44 1.017624 1_555
H4 O66 1.590272 1_545
H5 O45 1.017624 1_555
H5 O67 1.590272 1_555
H6 O46 1.017624 1_555
H6 O64 1.590272 1_565
H7 O47 1.017624 1_555
H7 O65 1.590272 1_555
H8 O60 0.983107 1_555
H9 O61 0.983107 1_555
H10 O62 0.983107 1_555
H11 O63 0.983107 1_555
H12 O60 0.983469 1_545
H13 O61 0.983469 1_555
H14 O62 0.983469 1_565
H15 O63 0.983469 1_555
H16 O64 0.992134 1_555
H17 O65 0.992134 1_555
H18 O66 0.992134 1_555
H19 O67 0.992134 1_555
H20 O64 0.979605 1_555
H21 O65 0.979605 1_555
H22 O66 0.979605 1_555
H23 O67 0.979605 1_555
H24 N0 1.030068 1_555
H25 N1 1.030068 1_555
H26 N2 1.030068 1_555
H27 N3 1.030068 1_555
H28 N0 1.033596 1_555
H29 N1 1.033596 1_555
H30 N2 1.033596 1_555
H31 N3 1.033596 1_555
H32 N0 1.035501 1_555
H33 N1 1.035501 1_555
H34 N2 1.035501 1_555
H35 N3 1.035501 1_555
H36 N0 1.030263 1_555
H37 N1 1.030263 1_555
H38 N2 1.030263 1_555
H39 N3 1.030263 1_555
H40 N4 1.047784 1_555
H41 N5 1.047784 1_555
H42 N6 1.047784 1_555
H43 N7 1.047784 1_555
H44 N4 1.042219 1_545
H45 N5 1.042219 1_555
H46 N6 1.042219 1_565
H47 N7 1.042219 1_555
H48 N4 1.037653 1_555
H49 N5 1.037653 1_555
H50 N6 1.037653 1_555
H51 N7 1.037653 1_555
H52 N4 1.029904 1_555
H53 N5 1.029904 1_555
H54 N6 1.029904 1_555
H55 N7 1.029904 1_555
O0 O4 1.459970 1_455
O1 O5 1.459970 1_455
O2 O6 1.459970 1_655
O3 O7 1.459970 1_655
