# generated using pymatgen
data_TeMoWSeS2
_symmetry_space_group_name_H-M   'P 1'
_cell_length_a   3.30848160
_cell_length_b   3.30848160
_cell_length_c   37.63905000
_cell_angle_alpha   90.00000000
_cell_angle_beta   90.00000000
_cell_angle_gamma   119.99999203
_symmetry_Int_Tables_number   1
_chemical_formula_structural   TeMoWSeS2
_chemical_formula_sum   'Te2 Mo2 W2 Se2 S4'
_cell_volume   356.80157908
_cell_formula_units_Z   2
loop_
 _symmetry_equiv_pos_site_id
 _symmetry_equiv_pos_as_xyz
  1  'x, y, z'
loop_
 _atom_site_type_symbol
 _atom_site_label
 _atom_site_symmetry_multiplicity
 _atom_site_fract_x
 _atom_site_fract_y
 _atom_site_fract_z
 _atom_site_occupancy
  Te  Te0  1  0.33333300  0.66666700  0.70868100  1
  Te  Te1  1  0.33333300  0.66666700  0.60639700  1
  Mo  Mo0  1  0.33333300  0.66666700  0.09391500  1
  Mo  Mo1  1  0.33333300  0.66666700  0.46963700  1
  W  W0  1  0.66666700  0.33333300  0.28179900  1
  W  W1  1  0.66666700  0.33333300  0.65756700  1
  Se  Se0  1  0.66666700  0.33333300  0.04928700  1
  Se  Se1  1  0.66666700  0.33333300  0.13856300  1
  S  S0  1  0.33333300  0.66666700  0.32255600  1
  S  S1  1  0.66666700  0.33333300  0.42906900  1
  S  S2  1  0.66666700  0.33333300  0.51022700  1
  S  S3  1  0.33333300  0.66666700  0.24105000  1
loop_
_geom_bond_atom_site_label_1
_geom_bond_atom_site_label_2
_geom_bond_distance
_geom_bond_site_symmetry_2
Te0 W1 2.711088 1_455
Te0 W1 2.711088 1_565
Te0 W1 2.711092 1_555
Te1 W1 2.712585 1_455
Te1 W1 2.712585 1_565
Te1 W1 2.712588 1_555
Mo0 Se0 2.543670 1_455
Mo0 Se0 2.543670 1_565
Mo0 Se0 2.543674 1_555
Mo0 Se1 2.544167 1_455
Mo0 Se1 2.544167 1_565
Mo0 Se1 2.544171 1_555
Mo1 S1 2.445450 1_455
Mo1 S1 2.445450 1_565
Mo1 S1 2.445454 1_555
Mo1 S2 2.445967 1_565
Mo1 S2 2.445967 1_455
Mo1 S2 2.445971 1_555
S0 W0 2.449898 1_455
S0 W0 2.449898 1_565
S0 W0 2.449902 1_555
S3 W0 2.449710 1_455
S3 W0 2.449710 1_565
S3 W0 2.449714 1_555
