# generated using pymatgen
data_AgCS2(O2F)3
_symmetry_space_group_name_H-M   'P 1'
_cell_length_a   26.50097600
_cell_length_b   5.32305900
_cell_length_c   5.66943084
_cell_angle_alpha   78.36596657
_cell_angle_beta   90.00000000
_cell_angle_gamma   90.00000000
_symmetry_Int_Tables_number   1
_chemical_formula_structural   AgCS2(O2F)3
_chemical_formula_sum   'Ag4 C4 S8 O24 F12'
_cell_volume   783.33472823
_cell_formula_units_Z   4
loop_
 _symmetry_equiv_pos_site_id
 _symmetry_equiv_pos_as_xyz
  1  'x, y, z'
loop_
 _atom_site_type_symbol
 _atom_site_label
 _atom_site_symmetry_multiplicity
 _atom_site_fract_x
 _atom_site_fract_y
 _atom_site_fract_z
 _atom_site_occupancy
  Ag  Ag0  1  0.19014700  0.71092000  0.11744200  1
  Ag  Ag1  1  0.69014700  0.28908000  0.38255800  1
  Ag  Ag2  1  0.80985300  0.28908000  0.88255800  1
  Ag  Ag3  1  0.30985300  0.71092000  0.61744200  1
  C  C0  1  0.05386600  0.24549800  0.78713900  1
  C  C1  1  0.55386600  0.75450200  0.71286100  1
  C  C2  1  0.94613400  0.75450200  0.21286100  1
  C  C3  1  0.44613400  0.24549800  0.28713900  1
  S  S0  1  0.11328400  0.43536700  0.69462500  1
  S  S1  1  0.61328400  0.56463300  0.80537500  1
  S  S2  1  0.88671600  0.56463300  0.30537500  1
  S  S3  1  0.38671600  0.43536700  0.19462500  1
  S  S4  1  0.19718400  0.13717800  0.52640800  1
  S  S5  1  0.69718400  0.86282200  0.97359200  1
  S  S6  1  0.80281600  0.86282200  0.47359200  1
  S  S7  1  0.30281600  0.13717800  0.02640800  1
  O  O0  1  0.22378800  0.93732100  0.69339500  1
  O  O1  1  0.72378800  0.06267900  0.80660500  1
  O  O2  1  0.77621200  0.06267900  0.30660500  1
  O  O3  1  0.27621200  0.93732100  0.19339500  1
  O  O4  1  0.15333400  0.21322100  0.74849200  1
  O  O5  1  0.65333400  0.78677900  0.75150800  1
  O  O6  1  0.84666600  0.78677900  0.25150800  1
  O  O7  1  0.34666600  0.21322100  0.24849200  1
  O  O8  1  0.16557300  0.05466900  0.34868400  1
  O  O9  1  0.66557300  0.94533100  0.15131600  1
  O  O10  1  0.83442700  0.94533100  0.65131600  1
  O  O11  1  0.33442700  0.05466900  0.84868400  1
  O  O12  1  0.10923500  0.54293400  0.44213300  1
  O  O13  1  0.60923500  0.45706600  0.05786700  1
  O  O14  1  0.89076500  0.45706600  0.55786700  1
  O  O15  1  0.39076500  0.54293400  0.94213300  1
  O  O16  1  0.11992700  0.59811600  0.86758900  1
  O  O17  1  0.61992700  0.40188400  0.63241100  1
  O  O18  1  0.88007300  0.40188400  0.13241100  1
  O  O19  1  0.38007300  0.59811600  0.36758900  1
  O  O20  1  0.22410800  0.37786000  0.44929900  1
  O  O21  1  0.72410800  0.62214000  0.05070100  1
  O  O22  1  0.77589200  0.62214000  0.55070100  1
  O  O23  1  0.27589200  0.37786000  0.94929900  1
  F  F0  1  0.04608900  0.08038900  0.63972300  1
  F  F1  1  0.54608900  0.91961100  0.86027700  1
  F  F2  1  0.95391100  0.91961100  0.36027700  1
  F  F3  1  0.45391100  0.08038900  0.13972300  1
  F  F4  1  0.05738700  0.11655300  0.01630000  1
  F  F5  1  0.55738700  0.88344700  0.48370000  1
  F  F6  1  0.94261300  0.88344700  0.98370000  1
  F  F7  1  0.44261300  0.11655300  0.51630000  1
  F  F8  1  0.01512700  0.41280000  0.76769100  1
  F  F9  1  0.51512700  0.58720000  0.73230900  1
  F  F10  1  0.98487300  0.58720000  0.23230900  1
  F  F11  1  0.48487300  0.41280000  0.26769100  1
loop_
_geom_bond_atom_site_label_1
_geom_bond_atom_site_label_2
_geom_bond_distance
_geom_bond_site_symmetry_2
Ag0 O20 2.479450 1_555
Ag0 O16 2.484571 1_554
Ag0 O8 2.541363 1_565
Ag0 O0 2.618849 1_554
Ag0 O3 2.655030 1_555
Ag1 O21 2.479450 1_555
Ag1 O17 2.484571 1_555
Ag1 O9 2.541363 1_545
Ag1 O1 2.618849 1_555
Ag1 O2 2.655030 1_555
Ag2 O22 2.479450 1_555
Ag2 O18 2.484571 1_556
Ag2 O10 2.541363 1_545
Ag2 O2 2.618849 1_556
Ag2 O1 2.655030 1_555
Ag3 O23 2.479450 1_555
Ag3 O19 2.484571 1_555
Ag3 O11 2.541363 1_565
Ag3 O3 2.618849 1_555
Ag3 O0 2.655030 1_555
C0 F4 1.344662 1_556
C0 F0 1.345241 1_555
C0 F8 1.348925 1_555
C1 F5 1.344662 1_555
C1 F1 1.345241 1_555
C1 F9 1.348925 1_555
C2 F6 1.344662 1_554
C2 F2 1.345241 1_555
C2 F10 1.348925 1_555
C3 F7 1.344662 1_555
C3 F3 1.345241 1_555
C3 F11 1.348925 1_555
O0 S4 1.455650 1_565
O1 S5 1.455650 1_545
O2 S6 1.455650 1_545
O3 S7 1.455650 1_565
O4 S0 1.572389 1_555
O4 S4 1.817996 1_555
O5 S1 1.572389 1_555
O5 S5 1.817996 1_555
O6 S2 1.572389 1_555
O6 S6 1.817996 1_555
O7 S3 1.572389 1_555
O7 S7 1.817996 1_555
O8 S4 1.445131 1_555
O9 S5 1.445131 1_554
O10 S6 1.445131 1_555
O11 S7 1.445131 1_556
O12 S0 1.434552 1_555
O13 S1 1.434552 1_554
O14 S2 1.434552 1_555
O15 S3 1.434552 1_556
O16 S0 1.444205 1_555
O17 S1 1.444205 1_555
O18 S2 1.444205 1_555
O19 S3 1.444205 1_555
O20 S4 1.454546 1_555
O21 S5 1.454546 1_554
O22 S6 1.454546 1_555
O23 S7 1.454546 1_556
