# generated using pymatgen
data_Cu4Au
_symmetry_space_group_name_H-M   'P 1'
_cell_length_a   21.23930029
_cell_length_b   21.23930029
_cell_length_c   21.23930054
_cell_angle_alpha   14.65500194
_cell_angle_beta   14.65500194
_cell_angle_gamma   14.65500778
_symmetry_Int_Tables_number   1
_chemical_formula_structural   Cu4Au
_chemical_formula_sum   'Cu32 Au8'
_cell_volume   534.00750241
_cell_formula_units_Z   8
loop_
 _symmetry_equiv_pos_site_id
 _symmetry_equiv_pos_as_xyz
  1  'x, y, z'
loop_
 _atom_site_type_symbol
 _atom_site_label
 _atom_site_symmetry_multiplicity
 _atom_site_fract_x
 _atom_site_fract_y
 _atom_site_fract_z
 _atom_site_occupancy
  Cu  Cu0_0  1  0.29712100  0.29712100  0.29712100  1
  Cu  Cu0_1  1  0.29712100  0.29712100  0.79712100  1
  Cu  Cu0_2  1  0.29712100  0.79712100  0.29712100  1
  Cu  Cu0_3  1  0.29712100  0.79712100  0.79712100  1
  Cu  Cu0_4  1  0.79712100  0.29712100  0.29712100  1
  Cu  Cu0_5  1  0.79712100  0.29712100  0.79712100  1
  Cu  Cu0_6  1  0.79712100  0.79712100  0.29712100  1
  Cu  Cu0_7  1  0.79712100  0.79712100  0.79712100  1
  Cu  Cu1_0  1  0.09897850  0.09897850  0.09897850  1
  Cu  Cu1_1  1  0.09897850  0.09897850  0.59897850  1
  Cu  Cu1_2  1  0.09897850  0.59897850  0.09897850  1
  Cu  Cu1_3  1  0.09897850  0.59897850  0.59897850  1
  Cu  Cu1_4  1  0.59897850  0.09897850  0.09897850  1
  Cu  Cu1_5  1  0.59897850  0.09897850  0.59897850  1
  Cu  Cu1_6  1  0.59897850  0.59897850  0.09897850  1
  Cu  Cu1_7  1  0.59897850  0.59897850  0.59897850  1
  Cu  Cu2_0  1  0.40102150  0.40102150  0.40102150  1
  Cu  Cu2_1  1  0.40102150  0.40102150  0.90102150  1
  Cu  Cu2_2  1  0.40102150  0.90102150  0.40102150  1
  Cu  Cu2_3  1  0.40102150  0.90102150  0.90102150  1
  Cu  Cu2_4  1  0.90102150  0.40102150  0.40102150  1
  Cu  Cu2_5  1  0.90102150  0.40102150  0.90102150  1
  Cu  Cu2_6  1  0.90102150  0.90102150  0.40102150  1
  Cu  Cu2_7  1  0.90102150  0.90102150  0.90102150  1
  Cu  Cu3_0  1  0.20287900  0.20287900  0.20287900  1
  Cu  Cu3_1  1  0.20287900  0.20287900  0.70287900  1
  Cu  Cu3_2  1  0.20287900  0.70287900  0.20287900  1
  Cu  Cu3_3  1  0.20287900  0.70287900  0.70287900  1
  Cu  Cu3_4  1  0.70287900  0.20287900  0.20287900  1
  Cu  Cu3_5  1  0.70287900  0.20287900  0.70287900  1
  Cu  Cu3_6  1  0.70287900  0.70287900  0.20287900  1
  Cu  Cu3_7  1  0.70287900  0.70287900  0.70287900  1
  Au  Au0_0  1  0.00000000  0.00000000  0.00000000  1
  Au  Au0_1  1  0.00000000  0.00000000  0.50000000  1
  Au  Au0_2  1  0.00000000  0.50000000  0.00000000  1
  Au  Au0_3  1  1.00000000  0.50000000  0.50000000  1
  Au  Au0_4  1  0.50000000  0.00000000  0.00000000  1
  Au  Au0_5  1  0.50000000  0.00000000  0.50000000  1
  Au  Au0_6  1  0.50000000  0.50000000  0.00000000  1
  Au  Au0_7  1  0.50000000  0.50000000  0.50000000  1
loop_
_geom_bond_atom_site_label_1
_geom_bond_atom_site_label_2
_geom_bond_distance
_geom_bond_site_symmetry_2
Cu0_0 Cu1_1 2.526081 1_555
Cu0_0 Cu1_4 2.526082 1_555
Cu0_0 Cu1_2 2.526082 1_555
Cu0_0 Cu0_3 2.708875 1_545
Cu0_0 Cu0_5 2.708875 1_554
Cu0_0 Cu0_5 2.708875 1_455
Cu0_0 Cu0_3 2.708875 1_554
Cu0_0 Cu0_6 2.708876 1_545
Cu0_0 Cu0_6 2.708876 1_455
Cu0_1 Cu1_0 2.526081 1_556
Cu0_1 Cu1_3 2.526082 1_555
Cu0_1 Cu1_5 2.526082 1_555
Cu0_1 Cu0_2 2.708875 1_555
Cu0_1 Cu0_4 2.708875 1_555
Cu0_1 Cu0_2 2.708875 1_546
Cu0_1 Cu0_4 2.708875 1_456
Cu0_1 Cu0_7 2.708876 1_545
Cu0_1 Cu0_7 2.708876 1_455
Cu0_2 Cu1_3 2.526081 1_555
Cu0_2 Cu1_6 2.526082 1_555
Cu0_2 Cu1_0 2.526082 1_565
Cu0_2 Cu0_7 2.708875 1_554
Cu0_2 Cu0_7 2.708875 1_455
Cu0_2 Cu0_4 2.708876 1_555
Cu0_2 Cu0_4 2.708876 1_465
Cu0_3 Cu1_2 2.526081 1_556
Cu0_3 Cu1_7 2.526082 1_555
Cu0_3 Cu1_1 2.526082 1_565
Cu0_3 Cu0_6 2.708875 1_555
Cu0_3 Cu0_6 2.708875 1_456
Cu0_3 Cu0_5 2.708876 1_555
Cu0_3 Cu0_5 2.708876 1_465
Cu0_4 Cu1_5 2.526081 1_555
Cu0_4 Cu1_6 2.526082 1_555
Cu0_4 Cu1_0 2.526082 1_655
Cu0_4 Cu0_7 2.708875 1_554
Cu0_4 Cu0_7 2.708875 1_545
Cu0_5 Cu1_4 2.526081 1_556
Cu0_5 Cu1_7 2.526082 1_555
Cu0_5 Cu1_1 2.526082 1_655
Cu0_5 Cu0_6 2.708875 1_555
Cu0_5 Cu0_6 2.708875 1_546
Cu0_6 Cu1_7 2.526081 1_555
Cu0_6 Cu1_4 2.526082 1_565
Cu0_6 Cu1_2 2.526082 1_655
Cu0_7 Cu1_6 2.526081 1_556
Cu0_7 Cu1_3 2.526082 1_655
Cu0_7 Cu1_5 2.526082 1_565
Cu1_0 Cu2_6 2.516911 1_445
Cu1_0 Cu2_3 2.516912 1_544
Cu1_0 Cu2_5 2.516912 1_454
Cu1_0 Cu1_5 2.708875 1_455
Cu1_0 Cu1_5 2.708875 1_554
Cu1_0 Cu1_3 2.708875 1_545
Cu1_0 Cu1_3 2.708875 1_554
Cu1_0 Cu1_6 2.708876 1_545
Cu1_0 Cu1_6 2.708876 1_455
Cu1_1 Cu2_7 2.516911 1_445
Cu1_1 Cu2_2 2.516912 1_545
Cu1_1 Cu2_4 2.516912 1_455
Cu1_1 Cu1_2 2.708875 1_555
Cu1_1 Cu1_4 2.708875 1_555
Cu1_1 Cu1_4 2.708875 1_456
Cu1_1 Cu1_2 2.708875 1_546
Cu1_1 Cu1_7 2.708876 1_545
Cu1_1 Cu1_7 2.708876 1_455
Cu1_2 Cu2_4 2.516911 1_455
Cu1_2 Cu2_7 2.516912 1_454
Cu1_2 Cu2_1 2.516912 1_554
Cu1_2 Cu1_7 2.708875 1_554
Cu1_2 Cu1_7 2.708875 1_455
Cu1_2 Cu1_4 2.708876 1_555
Cu1_2 Cu1_4 2.708876 1_465
Cu1_3 Cu2_5 2.516911 1_455
Cu1_3 Cu2_0 2.516912 1_555
Cu1_3 Cu2_6 2.516912 1_455
Cu1_3 Cu1_6 2.708875 1_456
Cu1_3 Cu1_6 2.708875 1_555
Cu1_3 Cu1_5 2.708876 1_555
Cu1_3 Cu1_5 2.708876 1_465
Cu1_4 Cu2_2 2.516911 1_545
Cu1_4 Cu2_7 2.516912 1_544
Cu1_4 Cu2_1 2.516912 1_554
Cu1_4 Cu1_7 2.708875 1_545
Cu1_4 Cu1_7 2.708875 1_554
Cu1_5 Cu2_3 2.516911 1_545
Cu1_5 Cu2_0 2.516912 1_555
Cu1_5 Cu2_6 2.516912 1_545
Cu1_5 Cu1_6 2.708875 1_555
Cu1_5 Cu1_6 2.708875 1_546
Cu1_6 Cu2_0 2.516911 1_555
Cu1_6 Cu2_3 2.516912 1_554
Cu1_6 Cu2_5 2.516912 1_554
Cu1_7 Cu2_1 2.516911 1_555
Cu1_7 Cu2_2 2.516912 1_555
Cu1_7 Cu2_4 2.516912 1_555
Cu2_0 Cu3_1 2.526081 1_555
Cu2_0 Cu3_4 2.526082 1_555
Cu2_0 Cu3_2 2.526082 1_555
Cu2_0 Cu2_5 2.708875 1_455
Cu2_0 Cu2_5 2.708875 1_554
Cu2_0 Cu2_3 2.708875 1_545
Cu2_0 Cu2_3 2.708875 1_554
Cu2_0 Cu2_6 2.708876 1_545
Cu2_0 Cu2_6 2.708876 1_455
Cu2_1 Cu3_0 2.526081 1_556
Cu2_1 Cu3_5 2.526082 1_555
Cu2_1 Cu3_3 2.526082 1_555
Cu2_1 Cu2_4 2.708875 1_555
Cu2_1 Cu2_2 2.708875 1_555
Cu2_1 Cu2_2 2.708875 1_546
Cu2_1 Cu2_4 2.708875 1_456
Cu2_1 Cu2_7 2.708876 1_545
Cu2_1 Cu2_7 2.708876 1_455
Cu2_2 Cu3_3 2.526081 1_555
Cu2_2 Cu3_6 2.526082 1_555
Cu2_2 Cu3_0 2.526082 1_565
Cu2_2 Cu2_7 2.708875 1_455
Cu2_2 Cu2_7 2.708875 1_554
Cu2_2 Cu2_4 2.708876 1_555
Cu2_2 Cu2_4 2.708876 1_465
Cu2_3 Cu3_2 2.526081 1_556
Cu2_3 Cu3_7 2.526082 1_555
Cu2_3 Cu3_1 2.526082 1_565
Cu2_3 Cu2_6 2.708875 1_555
Cu2_3 Cu2_6 2.708875 1_456
Cu2_3 Cu2_5 2.708876 1_465
Cu2_3 Cu2_5 2.708876 1_555
Cu2_4 Cu3_5 2.526081 1_555
Cu2_4 Cu3_6 2.526082 1_555
Cu2_4 Cu3_0 2.526082 1_655
Cu2_4 Cu2_7 2.708875 1_545
Cu2_4 Cu2_7 2.708875 1_554
Cu2_5 Cu3_4 2.526081 1_556
Cu2_5 Cu3_7 2.526082 1_555
Cu2_5 Cu3_1 2.526082 1_655
Cu2_5 Cu2_6 2.708875 1_555
Cu2_5 Cu2_6 2.708875 1_546
Cu2_6 Cu3_7 2.526081 1_555
Cu2_6 Cu3_2 2.526082 1_655
Cu2_6 Cu3_4 2.526082 1_565
Cu2_7 Cu3_6 2.526081 1_556
Cu2_7 Cu3_3 2.526082 1_655
Cu2_7 Cu3_5 2.526082 1_565
Cu3_0 Cu3_3 2.708875 1_554
Cu3_0 Cu3_5 2.708875 1_554
Cu3_0 Cu3_5 2.708875 1_455
Cu3_0 Cu3_3 2.708875 1_545
Cu3_0 Cu3_6 2.708876 1_455
Cu3_0 Cu3_6 2.708876 1_545
Cu3_1 Cu3_2 2.708875 1_555
Cu3_1 Cu3_4 2.708875 1_456
Cu3_1 Cu3_2 2.708875 1_546
Cu3_1 Cu3_4 2.708875 1_555
Cu3_1 Cu3_7 2.708876 1_455
Cu3_1 Cu3_7 2.708876 1_545
Cu3_2 Cu3_7 2.708875 1_455
Cu3_2 Cu3_7 2.708875 1_554
Cu3_2 Cu3_4 2.708876 1_465
Cu3_2 Cu3_4 2.708876 1_555
Cu3_3 Cu3_6 2.708875 1_456
Cu3_3 Cu3_6 2.708875 1_555
Cu3_3 Cu3_5 2.708876 1_555
Cu3_3 Cu3_5 2.708876 1_465
Cu3_4 Cu3_7 2.708875 1_554
Cu3_4 Cu3_7 2.708875 1_545
Cu3_5 Cu3_6 2.708875 1_546
Cu3_5 Cu3_6 2.708875 1_555
Au0_0 Au0_5 2.708875 1_455
Au0_0 Au0_3 2.708875 1_454
Au0_0 Au0_5 2.708875 1_554
Au0_0 Au0_3 2.708875 1_445
Au0_0 Au0_6 2.708876 1_545
Au0_0 Au0_6 2.708876 1_455
Au0_0 Cu3_1 2.766677 1_554
Au0_0 Cu0_6 2.766677 1_445
Au0_0 Cu3_2 2.766678 1_545
Au0_0 Cu3_4 2.766678 1_455
Au0_0 Cu0_3 2.766678 1_544
Au0_0 Cu0_5 2.766678 1_454
Au0_1 Au0_2 2.708875 1_546
Au0_1 Au0_4 2.708875 1_555
Au0_1 Au0_2 2.708875 1_555
Au0_1 Au0_4 2.708875 1_456
Au0_1 Au0_7 2.708876 1_545
Au0_1 Au0_7 2.708876 1_455
Au0_1 Cu3_0 2.766677 1_555
Au0_1 Cu0_7 2.766677 1_445
Au0_1 Cu3_3 2.766678 1_545
Au0_1 Cu3_5 2.766678 1_455
Au0_1 Cu0_4 2.766678 1_455
Au0_1 Cu0_2 2.766678 1_545
Au0_2 Au0_7 2.708875 1_455
Au0_2 Au0_7 2.708875 1_554
Au0_2 Au0_4 2.708876 1_555
Au0_2 Au0_4 2.708876 1_465
Au0_2 Cu3_3 2.766677 1_554
Au0_2 Cu0_4 2.766677 1_455
Au0_2 Cu3_0 2.766678 1_555
Au0_2 Cu3_6 2.766678 1_455
Au0_2 Cu0_1 2.766678 1_554
Au0_2 Cu0_7 2.766678 1_454
Au0_3 Au0_6 2.708875 1_556
Au0_3 Au0_6 2.708875 1_655
Au0_3 Au0_5 2.708876 1_655
Au0_3 Au0_5 2.708876 1_565
Au0_3 Cu3_2 2.766677 1_655
Au0_3 Cu0_5 2.766677 1_555
Au0_3 Cu3_1 2.766678 1_655
Au0_3 Cu3_7 2.766678 1_555
Au0_3 Cu0_0 2.766678 1_655
Au0_3 Cu0_6 2.766678 1_555
Au0_4 Au0_7 2.708875 1_545
Au0_4 Au0_7 2.708875 1_554
Au0_4 Cu3_5 2.766677 1_554
Au0_4 Cu0_2 2.766677 1_545
Au0_4 Cu3_6 2.766678 1_545
Au0_4 Cu3_0 2.766678 1_555
Au0_4 Cu0_1 2.766678 1_554
Au0_4 Cu0_7 2.766678 1_544
Au0_5 Au0_6 2.708875 1_555
Au0_5 Au0_6 2.708875 1_546
Au0_5 Cu3_4 2.766677 1_555
Au0_5 Cu0_3 2.766677 1_545
Au0_5 Cu3_1 2.766678 1_555
Au0_5 Cu3_7 2.766678 1_545
Au0_5 Cu0_0 2.766678 1_555
Au0_5 Cu0_6 2.766678 1_545
Au0_6 Cu3_7 2.766677 1_554
Au0_6 Cu0_0 2.766677 1_555
Au0_6 Cu3_2 2.766678 1_555
Au0_6 Cu3_4 2.766678 1_555
Au0_6 Cu0_3 2.766678 1_554
Au0_6 Cu0_5 2.766678 1_554
Au0_7 Cu3_6 2.766677 1_555
Au0_7 Cu0_1 2.766677 1_555
Au0_7 Cu3_3 2.766678 1_555
Au0_7 Cu3_5 2.766678 1_555
Au0_7 Cu0_4 2.766678 1_555
Au0_7 Cu0_2 2.766678 1_555
