# generated using pymatgen
data_HoCoC6(N3O2)2
_symmetry_space_group_name_H-M   'P 1'
_cell_length_a   7.37128600
_cell_length_b   7.46635832
_cell_length_c   12.95183600
_cell_angle_alpha   90.00000000
_cell_angle_beta   90.00000000
_cell_angle_gamma   119.57966804
_symmetry_Int_Tables_number   1
_chemical_formula_structural   HoCoC6(N3O2)2
_chemical_formula_sum   'Ho2 Co2 C12 N12 O8'
_cell_volume   619.92334805
_cell_formula_units_Z   2
loop_
 _symmetry_equiv_pos_site_id
 _symmetry_equiv_pos_as_xyz
  1  'x, y, z'
loop_
 _atom_site_type_symbol
 _atom_site_label
 _atom_site_symmetry_multiplicity
 _atom_site_fract_x
 _atom_site_fract_y
 _atom_site_fract_z
 _atom_site_occupancy
  Ho  Ho0  1  0.33485300  0.66970600  0.25000000  1
  Ho  Ho1  1  0.66514700  0.33029400  0.75000000  1
  Co  Co0  1  0.00000000  0.00000000  0.00000000  1
  Co  Co1  1  0.00000000  0.00000000  0.50000000  1
  C  C0  1  0.12562900  0.25125800  0.07202700  1
  C  C1  1  0.87437100  0.74874200  0.92797300  1
  C  C2  1  0.87437100  0.74874200  0.57202700  1
  C  C3  1  0.12562900  0.25125800  0.42797300  1
  C  C4  1  0.76939100  0.89899500  0.08731100  1
  C  C5  1  0.23060900  0.10100500  0.91268900  1
  C  C6  1  0.23060900  0.10100500  0.58731100  1
  C  C7  1  0.12960400  0.89899500  0.41268900  1
  C  C8  1  0.76939100  0.89899500  0.41268900  1
  C  C9  1  0.87039600  0.10100500  0.58731100  1
  C  C10  1  0.87039600  0.10100500  0.91268900  1
  C  C11  1  0.12960400  0.89899500  0.08731100  1
  N  N0  1  0.62190100  0.83059900  0.14041800  1
  N  N1  1  0.37809900  0.16940100  0.85958200  1
  N  N2  1  0.37809900  0.16940100  0.64041800  1
  N  N3  1  0.20869900  0.83059900  0.35958200  1
  N  N4  1  0.62190100  0.83059900  0.35958200  1
  N  N5  1  0.79130100  0.16940100  0.64041800  1
  N  N6  1  0.79130100  0.16940100  0.85958200  1
  N  N7  1  0.20869900  0.83059900  0.14041800  1
  N  N8  1  0.20174800  0.40349500  0.12060000  1
  N  N9  1  0.79825200  0.59650500  0.87940000  1
  N  N10  1  0.79825200  0.59650500  0.62060000  1
  N  N11  1  0.20174800  0.40349500  0.37940000  1
  O  O0  1  0.56694200  0.41112300  0.25000000  1
  O  O1  1  0.43305800  0.58887700  0.75000000  1
  O  O2  1  0.84418100  0.41112300  0.25000000  1
  O  O3  1  0.15581900  0.58887700  0.75000000  1
  O  O4  1  0.68004600  0.36009100  0.17092900  1
  O  O5  1  0.31995400  0.63990900  0.82907100  1
  O  O6  1  0.31995400  0.63990900  0.67092900  1
  O  O7  1  0.68004600  0.36009100  0.32907100  1
loop_
_geom_bond_atom_site_label_1
_geom_bond_atom_site_label_2
_geom_bond_distance
_geom_bond_site_symmetry_2
Ho0 N3 2.329180 1_555
Ho0 N7 2.329180 1_555
Ho0 N4 2.329185 1_555
Ho0 N0 2.329185 1_555
Ho0 N8 2.407666 1_555
Ho0 N11 2.407666 1_555
Ho0 O2 3.148848 1_455
Ho0 O0 3.148848 1_555
Ho1 N6 2.329180 1_555
Ho1 N5 2.329180 1_555
Ho1 N1 2.329185 1_555
Ho1 N2 2.329185 1_555
Ho1 N10 2.407666 1_555
Ho1 N9 2.407666 1_555
Ho1 O1 3.148848 1_555
Ho1 O3 3.148848 1_655
C0 N8 1.171726 1_555
C0 Co0 1.879365 1_555
C1 N9 1.171726 1_555
C1 Co0 1.879365 1_666
C2 N10 1.171726 1_555
C2 Co1 1.879365 1_665
C3 N11 1.171726 1_555
C3 Co1 1.879365 1_555
C4 N0 1.169511 1_555
C4 Co0 1.863197 1_665
C5 N1 1.169511 1_555
C5 Co0 1.863197 1_556
C6 N2 1.169511 1_555
C6 Co1 1.863197 1_555
C7 N3 1.169516 1_555
C7 Co1 1.863197 1_565
C8 N4 1.169511 1_555
C8 Co1 1.863197 1_665
C9 N5 1.169516 1_555
C9 Co1 1.863197 1_655
C10 N6 1.169516 1_555
C10 Co0 1.863197 1_656
C11 N7 1.169516 1_555
C11 Co0 1.863197 1_565
O0 O7 1.484151 1_555
O0 O4 1.484151 1_555
O1 O5 1.484151 1_555
O1 O6 1.484151 1_555
O2 O7 1.484146 1_555
O2 O4 1.484146 1_555
O3 O5 1.484146 1_555
O3 O6 1.484146 1_555
