# generated using pymatgen
data_Fe2O3
_symmetry_space_group_name_H-M   'P 1'
_cell_length_a   5.17954950
_cell_length_b   5.17954950
_cell_length_c   15.91706500
_cell_angle_alpha   90.00000000
_cell_angle_beta   90.00000000
_cell_angle_gamma   146.10755453
_symmetry_Int_Tables_number   1
_chemical_formula_structural   Fe2O3
_chemical_formula_sum   'Fe8 O12'
_cell_volume   238.12089666
_cell_formula_units_Z   4
loop_
 _symmetry_equiv_pos_site_id
 _symmetry_equiv_pos_as_xyz
  1  'x, y, z'
loop_
 _atom_site_type_symbol
 _atom_site_label
 _atom_site_symmetry_multiplicity
 _atom_site_fract_x
 _atom_site_fract_y
 _atom_site_fract_z
 _atom_site_occupancy
  Fe  Fe0  1  0.63469700  0.36530300  0.04739400  1
  Fe  Fe1  1  0.36530300  0.63469700  0.95260600  1
  Fe  Fe2  1  0.63469700  0.36530300  0.45260600  1
  Fe  Fe3  1  0.36530300  0.63469700  0.54739400  1
  Fe  Fe4  1  0.09620700  0.90379300  0.64729900  1
  Fe  Fe5  1  0.90379300  0.09620700  0.35270100  1
  Fe  Fe6  1  0.90379300  0.09620700  0.14729900  1
  Fe  Fe7  1  0.09620700  0.90379300  0.85270100  1
  O  O0  1  0.00000000  0.00000000  0.50000000  1
  O  O1  1  0.00000000  0.00000000  0.00000000  1
  O  O2  1  0.47129400  0.52870600  0.85251900  1
  O  O3  1  0.52870600  0.47129400  0.14748100  1
  O  O4  1  0.52870600  0.47129400  0.35251900  1
  O  O5  1  0.47129400  0.52870600  0.64748100  1
  O  O6  1  0.72811300  0.27188700  0.92749400  1
  O  O7  1  0.27188700  0.72811300  0.07250600  1
  O  O8  1  0.27188700  0.72811300  0.42749400  1
  O  O9  1  0.72811300  0.27188700  0.57250600  1
  O  O10  1  0.17944300  0.82055700  0.75000000  1
  O  O11  1  0.82055700  0.17944300  0.25000000  1
loop_
_geom_bond_atom_site_label_1
_geom_bond_atom_site_label_2
_geom_bond_distance
_geom_bond_site_symmetry_2
Fe0 O3 1.908157 1_555
Fe0 O7 2.070530 1_545
Fe0 O7 2.070530 1_655
Fe0 O6 2.121108 1_554
Fe0 O1 2.151708 1_555
Fe0 O1 2.151708 1_665
Fe1 O2 1.908157 1_555
Fe1 O6 2.070530 1_455
Fe1 O6 2.070530 1_565
Fe1 O7 2.121108 1_556
Fe1 O1 2.151708 1_556
Fe1 O1 2.151708 1_666
Fe2 O4 1.908157 1_555
Fe2 O8 2.070530 1_545
Fe2 O8 2.070530 1_655
Fe2 O9 2.121108 1_555
Fe2 O0 2.151708 1_555
Fe2 O0 2.151708 1_665
Fe3 O5 1.908157 1_555
Fe3 O9 2.070530 1_455
Fe3 O9 2.070530 1_565
Fe3 O8 2.121108 1_555
Fe3 O0 2.151708 1_555
Fe3 O0 2.151708 1_665
Fe4 O10 1.830997 1_555
Fe4 O5 1.952271 1_455
Fe4 O5 1.952271 1_565
Fe4 O9 2.324857 1_455
Fe4 O9 2.324857 1_565
Fe4 O0 2.530980 1_565
Fe5 O11 1.830997 1_555
Fe5 O4 1.952271 1_545
Fe5 O4 1.952271 1_655
Fe5 O8 2.324857 1_655
Fe5 O8 2.324857 1_545
Fe5 O0 2.530980 1_655
Fe6 O11 1.830997 1_555
Fe6 O3 1.952271 1_545
Fe6 O3 1.952271 1_655
Fe6 O7 2.324857 1_655
Fe6 O7 2.324857 1_545
Fe6 O1 2.530980 1_655
Fe7 O10 1.830997 1_555
Fe7 O2 1.952271 1_455
Fe7 O2 1.952271 1_565
Fe7 O6 2.324857 1_455
Fe7 O6 2.324857 1_565
Fe7 O1 2.530980 1_566
