# generated using pymatgen
data_Lu3Ga10Ni
_symmetry_space_group_name_H-M   'P 1'
_cell_length_a   8.08392847
_cell_length_b   8.08392847
_cell_length_c   9.86519212
_cell_angle_alpha   54.19434268
_cell_angle_beta   54.19434268
_cell_angle_gamma   29.82524357
_symmetry_Int_Tables_number   1
_chemical_formula_structural   Lu3Ga10Ni
_chemical_formula_sum   'Lu3 Ga10 Ni1'
_cell_volume   255.19736676
_cell_formula_units_Z   1
loop_
 _symmetry_equiv_pos_site_id
 _symmetry_equiv_pos_as_xyz
  1  'x, y, z'
loop_
 _atom_site_type_symbol
 _atom_site_label
 _atom_site_symmetry_multiplicity
 _atom_site_fract_x
 _atom_site_fract_y
 _atom_site_fract_z
 _atom_site_occupancy
  Lu  Lu0  1  0.68218200  0.68218200  0.32812400  1
  Lu  Lu1  1  0.31533700  0.31533700  0.68636200  1
  Lu  Lu2  1  0.00308400  0.00308400  0.99192800  1
  Ga  Ga0  1  0.83470800  0.83470800  0.44649600  1
  Ga  Ga1  1  0.15535100  0.15535100  0.58673400  1
  Ga  Ga2  1  0.84839600  0.84839600  0.87560600  1
  Ga  Ga3  1  0.15086600  0.15086600  0.12032200  1
  Ga  Ga4  1  0.99980100  0.99980100  0.50090000  1
  Ga  Ga5  1  0.50401200  0.50401200  0.70888900  1
  Ga  Ga6  1  0.50455900  0.50455900  0.28883800  1
  Ga  Ga7  1  0.34625400  0.34625400  0.27705600  1
  Ga  Ga8  1  0.65632800  0.65632800  0.94670600  1
  Ga  Ga9  1  0.34384500  0.34384500  0.03158400  1
  Ni  Ni0  1  0.65527700  0.65527700  0.71045400  1
loop_
_geom_bond_atom_site_label_1
_geom_bond_atom_site_label_2
_geom_bond_distance
_geom_bond_site_symmetry_2
Lu1 Ni0 3.149298 1_545
Lu1 Ni0 3.149298 1_455
Lu2 Ni0 3.114080 1_455
Lu2 Ni0 3.114080 1_545
Ga0 Ni0 2.408382 1_555
Ga0 Ga7 2.605658 1_565
Ga0 Ga7 2.605658 1_655
Ga0 Ga4 2.935483 1_555
Ga0 Ga6 2.964996 1_565
Ga0 Ga6 2.964996 1_655
Ga0 Lu1 3.025202 1_655
Ga0 Lu1 3.025202 1_565
Ga0 Lu0 3.226712 1_555
Ga1 Ni0 2.411614 1_545
Ga1 Ni0 2.411614 1_455
Ga1 Ga7 2.682484 1_555
Ga1 Ga5 2.814336 1_545
Ga1 Ga5 2.814336 1_455
Ga1 Ga4 3.019048 1_445
Ga1 Lu0 3.117289 1_545
Ga1 Lu0 3.117289 1_455
Ga1 Lu2 3.181728 1_555
Ga1 Lu1 3.191895 1_555
Ga2 Ga9 2.562860 1_656
Ga2 Ga9 2.562860 1_566
Ga2 Ga8 2.635877 1_555
Ga2 Ga5 2.846412 1_565
Ga2 Ga5 2.846412 1_655
Ga2 Ga4 2.944838 1_555
Ga2 Lu1 3.040998 1_655
Ga2 Lu1 3.040998 1_565
Ga2 Lu2 3.242769 1_665
Ga2 Lu0 3.554614 1_556
Ga3 Ga9 2.580798 1_555
Ga3 Ga8 2.663034 1_454
Ga3 Ga8 2.663034 1_544
Ga3 Ga6 2.777632 1_545
Ga3 Ga6 2.777632 1_455
Ga3 Ga4 2.989452 1_445
Ga3 Lu0 3.159793 1_545
Ga3 Lu0 3.159793 1_455
Ga3 Lu2 3.236699 1_554
Ga3 Lu1 3.407397 1_554
Ga4 Ga6 2.919201 1_655
Ga4 Ga6 2.919201 1_565
Ga4 Ga5 2.950558 1_565
Ga4 Ga5 2.950558 1_655
Ga4 Lu0 3.077564 1_655
Ga4 Lu0 3.077564 1_565
Ga4 Lu1 3.097793 1_565
Ga4 Lu1 3.097793 1_655
Ga5 Ni0 2.372640 1_555
Ga5 Ga9 2.598128 1_556
Ga5 Lu0 3.032743 1_555
Ga5 Lu1 3.087346 1_555
Ga5 Lu2 3.475007 1_565
Ga5 Lu2 3.475007 1_655
Ga6 Ga7 2.545300 1_555
Ga6 Ga8 2.706231 1_554
Ga6 Lu0 3.025468 1_555
Ga6 Lu1 3.175036 1_555
Ga6 Lu2 3.604116 1_654
Ga6 Lu2 3.604116 1_564
Ga7 Ga9 2.444598 1_555
Ga7 Lu0 3.096574 1_455
Ga7 Lu0 3.096574 1_545
Ga7 Lu2 3.146143 1_654
Ga7 Lu2 3.146143 1_564
Ga8 Ni0 2.340649 1_555
Ga8 Lu2 2.994281 1_565
Ga8 Lu2 2.994281 1_655
Ga8 Lu1 3.061050 1_655
Ga8 Lu1 3.061050 1_565
Ga9 Lu2 3.080879 1_564
Ga9 Lu2 3.080879 1_654
Ga9 Lu0 3.212239 1_455
Ga9 Lu0 3.212239 1_545
