# generated using pymatgen
data_K2H4IO5
_symmetry_space_group_name_H-M   'P 1'
_cell_length_a   5.49085263
_cell_length_b   7.62156883
_cell_length_c   10.32187002
_cell_angle_alpha   107.28383486
_cell_angle_beta   85.01119010
_cell_angle_gamma   111.48129226
_symmetry_Int_Tables_number   1
_chemical_formula_structural   K2H4IO5
_chemical_formula_sum   'K4 H8 I2 O10'
_cell_volume   383.68762510
_cell_formula_units_Z   2
loop_
 _symmetry_equiv_pos_site_id
 _symmetry_equiv_pos_as_xyz
  1  'x, y, z'
loop_
 _atom_site_type_symbol
 _atom_site_label
 _atom_site_symmetry_multiplicity
 _atom_site_fract_x
 _atom_site_fract_y
 _atom_site_fract_z
 _atom_site_occupancy
  K  K0  1  0.17144400  0.39938200  0.63582600  1
  K  K1  1  0.82855600  0.60061800  0.36417400  1
  K  K2  1  0.79655200  0.74694400  0.93763200  1
  K  K3  1  0.20344800  0.25305600  0.06236800  1
  H  H0  1  0.16605600  0.97513500  0.43228500  1
  H  H1  1  0.83394400  0.02486500  0.56771500  1
  H  H2  1  0.05013300  0.54656400  0.02214200  1
  H  H3  1  0.94986700  0.45343600  0.97785800  1
  H  H4  1  0.33709600  0.79594300  0.98858400  1
  H  H5  1  0.66290400  0.20405700  0.01141600  1
  H  H6  1  0.04626200  0.04322200  0.25106700  1
  H  H7  1  0.95373800  0.95677800  0.74893300  1
  I  I0  1  0.59094700  0.05731300  0.31671500  1
  I  I1  1  0.40905300  0.94268700  0.68328500  1
  O  O0  1  0.10945000  0.01403400  0.80918500  1
  O  O1  1  0.89055000  0.98596600  0.19081500  1
  O  O2  1  0.51280000  0.17133400  0.19944900  1
  O  O3  1  0.48720000  0.82866600  0.80055100  1
  O  O4  1  0.15668200  0.70814500  0.57453500  1
  O  O5  1  0.84331800  0.29185500  0.42546500  1
  O  O6  1  0.29564800  0.10866200  0.45387900  1
  O  O7  1  0.70435200  0.89133800  0.54612100  1
  O  O8  1  0.64462600  0.20582800  0.75177200  1
  O  O9  1  0.35537400  0.79417200  0.24822800  1
loop_
_geom_bond_atom_site_label_1
_geom_bond_atom_site_label_2
_geom_bond_distance
_geom_bond_site_symmetry_2
K0 O4 2.641568 1_555
K0 O5 2.678425 1_455
K0 O6 2.704245 1_555
K0 O8 3.049214 1_455
K0 O3 3.107124 1_555
K1 O5 2.641568 1_555
K1 O4 2.678425 1_655
K1 O7 2.704245 1_555
K1 O9 3.049214 1_655
K1 O2 3.107124 1_555
K2 O3 2.644196 1_555
K2 O1 2.670503 1_556
K2 O0 2.738518 1_665
K3 O2 2.644196 1_555
K3 O0 2.670503 1_554
K3 O1 2.738518 1_445
H0 O6 0.976794 1_565
H0 K1 2.690007 1_455
H1 O7 0.976794 1_545
H1 K0 2.690007 1_655
H2 H3 0.761980 1_454
H2 K2 2.755401 1_454
H2 K3 2.806623 1_555
H3 K3 2.755401 1_656
H3 K2 2.806623 1_555
H4 K2 2.668924 1_555
H4 K2 2.927173 1_455
H5 K3 2.668924 1_555
H5 K3 2.927173 1_655
H6 O1 0.982941 1_445
H6 K3 2.764747 1_555
H7 O0 0.982941 1_665
H7 K2 2.764747 1_555
I0 O2 1.841971 1_555
I0 O9 1.900451 1_545
I0 O5 1.907799 1_555
I0 O6 2.126723 1_555
I0 O1 2.134053 1_545
I1 O3 1.841971 1_555
I1 O8 1.900451 1_565
I1 O4 1.907799 1_555
I1 O7 2.126723 1_555
I1 O0 2.134053 1_565
