# generated using pymatgen
data_NaBeSi3O8
_symmetry_space_group_name_H-M   'P 1'
_cell_length_a   7.32404608
_cell_length_b   7.32404608
_cell_length_c   15.51460183
_cell_angle_alpha   76.16481613
_cell_angle_beta   76.16481613
_cell_angle_gamma   54.92005503
_symmetry_Int_Tables_number   1
_chemical_formula_structural   NaBeSi3O8
_chemical_formula_sum   'Na4 Be4 Si12 O32'
_cell_volume   655.85786107
_cell_formula_units_Z   4
loop_
 _symmetry_equiv_pos_site_id
 _symmetry_equiv_pos_as_xyz
  1  'x, y, z'
loop_
 _atom_site_type_symbol
 _atom_site_label
 _atom_site_symmetry_multiplicity
 _atom_site_fract_x
 _atom_site_fract_y
 _atom_site_fract_z
 _atom_site_occupancy
  Na  Na0  1  0.94554200  0.87490900  0.60943700  1
  Na  Na1  1  0.12509100  0.05445800  0.89056300  1
  Na  Na2  1  0.05445800  0.12509100  0.39056300  1
  Na  Na3  1  0.87490900  0.94554200  0.10943700  1
  Be  Be0  1  0.80367900  0.64661900  0.74278200  1
  Be  Be1  1  0.35338100  0.19632100  0.75721800  1
  Be  Be2  1  0.19632100  0.35338100  0.25721800  1
  Be  Be3  1  0.64661900  0.80367900  0.24278200  1
  Si  Si0  1  0.00601800  0.33626900  0.59202400  1
  Si  Si1  1  0.66373100  0.99398200  0.90797600  1
  Si  Si2  1  0.99398200  0.66373100  0.40797600  1
  Si  Si3  1  0.33626900  0.00601800  0.09202400  1
  Si  Si4  1  0.39344000  0.90634900  0.65743600  1
  Si  Si5  1  0.09365100  0.60656000  0.84256400  1
  Si  Si6  1  0.60656000  0.09365100  0.34256400  1
  Si  Si7  1  0.90634900  0.39344000  0.15743600  1
  Si  Si8  1  0.52922300  0.44084200  0.60647100  1
  Si  Si9  1  0.55915800  0.47077700  0.89352900  1
  Si  Si10  1  0.47077700  0.55915800  0.39352900  1
  Si  Si11  1  0.44084200  0.52922300  0.10647100  1
  O  O0  1  0.96503900  0.45350700  0.67641900  1
  O  O1  1  0.54649300  0.03496100  0.82358100  1
  O  O2  1  0.03496100  0.54649300  0.32358100  1
  O  O3  1  0.45350700  0.96503900  0.17641900  1
  O  O4  1  0.65310700  0.82677900  0.65920700  1
  O  O5  1  0.17322100  0.34689300  0.84079300  1
  O  O6  1  0.34689300  0.17322100  0.34079300  1
  O  O7  1  0.82677900  0.65310700  0.15920700  1
  O  O8  1  0.00000000  0.50000000  0.50000000  1
  O  O9  1  0.50000000  0.00000000  0.00000000  1
  O  O10  1  0.42681700  0.30358500  0.66596800  1
  O  O11  1  0.69641500  0.57318300  0.83403200  1
  O  O12  1  0.57318300  0.69641500  0.33403200  1
  O  O13  1  0.30358500  0.42681700  0.16596800  1
  O  O14  1  0.24514400  0.09324900  0.57640000  1
  O  O15  1  0.90675100  0.75485600  0.92360000  1
  O  O16  1  0.75485600  0.90675100  0.42360000  1
  O  O17  1  0.09324900  0.24514400  0.07640000  1
  O  O18  1  0.80954000  0.28361900  0.60195200  1
  O  O19  1  0.71638100  0.19046000  0.89804800  1
  O  O20  1  0.19046000  0.71638100  0.39804800  1
  O  O21  1  0.28361900  0.80954000  0.10195200  1
  O  O22  1  0.50000000  0.50000000  0.50000000  1
  O  O23  1  0.50000000  0.50000000  0.00000000  1
  O  O24  1  0.40610100  0.68179500  0.64605100  1
  O  O25  1  0.31820500  0.59389900  0.85394900  1
  O  O26  1  0.59389900  0.31820500  0.35394900  1
  O  O27  1  0.68179500  0.40610100  0.14605100  1
  O  O28  1  0.96067100  0.73860700  0.75477800  1
  O  O29  1  0.26139300  0.03932900  0.74522200  1
  O  O30  1  0.03932900  0.26139300  0.24522200  1
  O  O31  1  0.73860700  0.96067100  0.25477800  1
loop_
_geom_bond_atom_site_label_1
_geom_bond_atom_site_label_2
_geom_bond_distance
_geom_bond_site_symmetry_2
Na0 O28 2.238130 1_555
Na0 O4 2.292275 1_555
Na0 O18 2.535346 1_565
Na1 O29 2.238130 1_555
Na1 O5 2.292275 1_555
Na1 O19 2.535346 1_455
Na2 O30 2.238130 1_555
Na2 O6 2.292275 1_555
Na2 O20 2.535346 1_545
Na3 O31 2.238130 1_555
Na3 O7 2.292275 1_555
Na3 O21 2.535346 1_655
Be0 O11 1.581230 1_555
Be0 O0 1.627998 1_555
Be0 O4 1.682712 1_555
Be0 O28 1.692146 1_555
Be1 O10 1.581230 1_555
Be1 O1 1.627998 1_555
Be1 O5 1.682712 1_555
Be1 O29 1.692146 1_555
Be2 O13 1.581230 1_555
Be2 O2 1.627998 1_555
Be2 O6 1.682712 1_555
Be2 O30 1.692146 1_555
Be3 O12 1.581230 1_555
Be3 O3 1.627998 1_555
Be3 O7 1.682712 1_555
Be3 O31 1.692146 1_555
O0 Si0 1.610997 1_655
O1 Si1 1.610997 1_545
O2 Si2 1.610997 1_455
O3 Si3 1.610997 1_565
O4 Si4 1.643366 1_555
O5 Si5 1.643366 1_555
O6 Si6 1.643366 1_555
O7 Si7 1.643366 1_555
O8 Si2 1.621375 1_455
O8 Si0 1.621375 1_555
O9 Si1 1.621375 1_544
O9 Si3 1.621375 1_555
O10 Si8 1.586484 1_555
O11 Si9 1.586484 1_555
O12 Si10 1.586484 1_555
O13 Si11 1.586484 1_555
O14 Si0 1.647510 1_555
O14 Si4 1.659871 1_545
O15 Si1 1.647510 1_555
O15 Si5 1.659871 1_655
O16 Si2 1.647510 1_555
O16 Si6 1.659871 1_565
O17 Si3 1.647510 1_555
O17 Si7 1.659871 1_455
O18 Si0 1.657285 1_655
O18 Si8 1.672810 1_555
O19 Si1 1.657285 1_545
O19 Si9 1.672810 1_555
O20 Si2 1.657285 1_455
O20 Si10 1.672810 1_555
O21 Si3 1.657285 1_565
O21 Si11 1.672810 1_555
O22 Si8 1.637792 1_555
O22 Si10 1.637792 1_555
O23 Si11 1.637792 1_555
O23 Si9 1.637792 1_554
O24 Si4 1.643306 1_555
O24 Si8 1.651924 1_555
O25 Si5 1.643306 1_555
O25 Si9 1.651924 1_555
O26 Si6 1.643306 1_555
O26 Si10 1.651924 1_555
O27 Si7 1.643306 1_555
O27 Si11 1.651924 1_555
O28 Si5 1.631139 1_655
O29 Si4 1.631139 1_545
O30 Si7 1.631139 1_455
O31 Si6 1.631139 1_565
