# generated using pymatgen
data_Ce2(SbPd3)3
_symmetry_space_group_name_H-M   'P 1'
_cell_length_a   8.06233207
_cell_length_b   8.06233207
_cell_length_c   9.41288900
_cell_angle_alpha   90.00000000
_cell_angle_beta   90.00000000
_cell_angle_gamma   119.71044562
_symmetry_Int_Tables_number   1
_chemical_formula_structural   Ce2(SbPd3)3
_chemical_formula_sum   'Ce4 Sb6 Pd18'
_cell_volume   531.41610475
_cell_formula_units_Z   2
loop_
 _symmetry_equiv_pos_site_id
 _symmetry_equiv_pos_as_xyz
  1  'x, y, z'
loop_
 _atom_site_type_symbol
 _atom_site_label
 _atom_site_symmetry_multiplicity
 _atom_site_fract_x
 _atom_site_fract_y
 _atom_site_fract_z
 _atom_site_occupancy
  Ce  Ce0  1  0.32707200  0.01876100  0.75000000  1
  Ce  Ce1  1  0.67292800  0.98123900  0.25000000  1
  Ce  Ce2  1  0.01876100  0.32707200  0.75000000  1
  Ce  Ce3  1  0.98123900  0.67292800  0.25000000  1
  Sb  Sb0  1  0.00000000  0.00000000  0.50000000  1
  Sb  Sb1  1  0.67741400  0.32258600  0.00000000  1
  Sb  Sb2  1  0.32258600  0.67741400  0.50000000  1
  Sb  Sb3  1  0.32258600  0.67741400  0.00000000  1
  Sb  Sb4  1  0.00000000  0.00000000  0.00000000  1
  Sb  Sb5  1  0.67741400  0.32258600  0.50000000  1
  Pd  Pd0  1  0.33050800  0.33050800  0.96290500  1
  Pd  Pd1  1  0.44024600  0.63654000  0.75000000  1
  Pd  Pd2  1  0.55975400  0.36346000  0.25000000  1
  Pd  Pd3  1  0.63654000  0.44024600  0.75000000  1
  Pd  Pd4  1  0.00021100  0.34460800  0.08966200  1
  Pd  Pd5  1  0.99978900  0.65539200  0.58966200  1
  Pd  Pd6  1  0.34460800  0.00021100  0.41033800  1
  Pd  Pd7  1  0.65539200  0.99978900  0.91033800  1
  Pd  Pd8  1  0.99978900  0.65539200  0.91033800  1
  Pd  Pd9  1  0.00021100  0.34460800  0.41033800  1
  Pd  Pd10  1  0.65539200  0.99978900  0.58966200  1
  Pd  Pd11  1  0.85242700  0.85242700  0.75000000  1
  Pd  Pd12  1  0.33050800  0.33050800  0.53709500  1
  Pd  Pd13  1  0.66949200  0.66949200  0.03709500  1
  Pd  Pd14  1  0.34460800  0.00021100  0.08966200  1
  Pd  Pd15  1  0.66949200  0.66949200  0.46290500  1
  Pd  Pd16  1  0.14757300  0.14757300  0.25000000  1
  Pd  Pd17  1  0.36346000  0.55975400  0.25000000  1
loop_
_geom_bond_atom_site_label_1
_geom_bond_atom_site_label_2
_geom_bond_distance
_geom_bond_site_symmetry_2
Ce0 Pd3 3.060792 1_555
Ce0 Pd10 3.115973 1_545
Ce0 Pd7 3.115973 1_545
Ce0 Pd8 3.187547 1_445
Ce0 Pd5 3.187547 1_445
Ce0 Pd0 3.203934 1_555
Ce0 Pd12 3.203934 1_555
Ce0 Pd14 3.207087 1_556
Ce0 Pd6 3.207087 1_555
Ce0 Pd11 3.369798 1_445
Ce0 Sb4 3.481199 1_556
Ce0 Sb0 3.481199 1_555
Ce0 Sb1 3.557788 1_556
Ce0 Sb5 3.557788 1_555
Ce0 Sb3 3.607505 1_546
Ce0 Sb2 3.607505 1_545
Ce0 Pd1 3.621590 1_545
Ce1 Pd17 3.060792 1_555
Ce1 Pd6 3.115973 1_565
Ce1 Pd14 3.115973 1_565
Ce1 Pd4 3.187547 1_665
Ce1 Pd9 3.187547 1_665
Ce1 Pd15 3.203934 1_555
Ce1 Pd13 3.203934 1_555
Ce1 Pd7 3.207087 1_554
Ce1 Pd10 3.207087 1_555
Ce1 Pd16 3.369798 1_665
Ce1 Sb4 3.481199 1_665
Ce1 Sb0 3.481199 1_665
Ce1 Sb2 3.557788 1_555
Ce1 Sb3 3.557788 1_555
Ce1 Sb5 3.607505 1_565
Ce1 Sb1 3.607505 1_565
Ce1 Pd2 3.621590 1_565
Ce2 Pd1 3.060792 1_555
Ce2 Pd8 3.115973 1_455
Ce2 Pd5 3.115973 1_455
Ce2 Pd10 3.187547 1_445
Ce2 Pd7 3.187547 1_445
Ce2 Pd0 3.203934 1_555
Ce2 Pd12 3.203934 1_555
Ce2 Pd4 3.207087 1_556
Ce2 Pd9 3.207087 1_555
Ce2 Pd11 3.369798 1_445
Ce2 Sb4 3.481199 1_556
Ce2 Sb0 3.481199 1_555
Ce2 Sb2 3.557788 1_555
Ce2 Sb3 3.557788 1_556
Ce2 Sb1 3.607505 1_456
Ce2 Sb5 3.607505 1_455
Ce2 Pd3 3.621590 1_455
Ce3 Pd2 3.060792 1_555
Ce3 Pd9 3.115973 1_655
Ce3 Pd4 3.115973 1_655
Ce3 Pd6 3.187547 1_665
Ce3 Pd14 3.187547 1_665
Ce3 Pd13 3.203934 1_555
Ce3 Pd15 3.203934 1_555
Ce3 Pd5 3.207087 1_555
Ce3 Pd8 3.207087 1_554
Ce3 Pd16 3.369798 1_665
Ce3 Sb4 3.481199 1_665
Ce3 Sb0 3.481199 1_665
Ce3 Sb1 3.557788 1_555
Ce3 Sb5 3.557788 1_555
Ce3 Sb2 3.607505 1_655
Ce3 Sb3 3.607505 1_655
Ce3 Pd17 3.621590 1_655
Pd0 Sb4 2.699000 1_556
Pd0 Pd13 2.832394 1_556
Pd0 Sb1 2.850537 1_556
Pd0 Sb3 2.850537 1_556
Pd0 Pd3 2.953455 1_555
Pd0 Pd1 2.953455 1_555
Pd0 Pd4 2.971191 1_556
Pd0 Pd14 2.971191 1_556
Pd0 Pd16 3.081765 1_556
Pd0 Pd17 3.209804 1_556
Pd0 Pd2 3.209804 1_556
Pd1 Sb2 2.618394 1_555
Pd1 Sb3 2.618394 1_556
Pd1 Pd11 2.887800 1_555
Pd1 Pd12 2.953455 1_555
Pd1 Pd10 2.971205 1_555
Pd1 Pd7 2.971205 1_555
Pd1 Pd15 3.209804 1_555
Pd1 Pd13 3.209804 1_556
Pd2 Sb1 2.618394 1_555
Pd2 Sb5 2.618394 1_555
Pd2 Pd6 2.971205 1_555
Pd3 Sb1 2.618394 1_556
Pd3 Sb5 2.618394 1_555
Pd3 Pd8 2.971205 1_555
Pd3 Pd5 2.971205 1_555
Pd4 Sb1 2.656839 1_455
Pd4 Sb3 2.784668 1_555
Pd4 Sb4 2.902897 1_555
Pd4 Pd9 3.018488 1_555
Pd4 Pd8 3.022567 1_454
Pd4 Pd7 3.262759 1_444
Pd5 Sb2 2.656839 1_655
Pd5 Sb5 2.784668 1_555
Pd5 Sb0 2.902897 1_665
Pd5 Pd8 3.018488 1_555
Pd5 Pd9 3.022567 1_655
Pd5 Pd6 3.262759 1_665
Pd6 Sb2 2.656839 1_545
Pd6 Sb5 2.784668 1_555
Pd6 Sb0 2.902897 1_555
Pd7 Sb1 2.656839 1_566
Pd7 Sb3 2.784668 1_556
Pd7 Sb4 2.902897 1_666
Pd8 Sb3 2.656839 1_656
Pd8 Sb1 2.784668 1_556
Pd8 Sb4 2.902897 1_666
Pd9 Sb5 2.656839 1_455
Pd9 Sb2 2.784668 1_555
Pd9 Sb0 2.902897 1_555
Pd10 Sb5 2.656839 1_565
Pd10 Sb2 2.784668 1_555
Pd10 Pd11 2.843181 1_555
Pd10 Sb0 2.902897 1_665
Pd10 Pd15 2.971191 1_555
Pd10 Pd7 3.018488 1_555
Pd10 Pd6 3.022567 1_565
Pd10 Pd9 3.262759 1_665
Pd11 Sb0 2.639251 1_665
Pd11 Sb4 2.639251 1_666
Pd11 Pd7 2.843181 1_555
Pd11 Pd5 2.843181 1_555
Pd11 Pd8 2.843181 1_555
Pd11 Pd3 2.887800 1_555
Pd11 Pd15 3.081765 1_555
Pd11 Pd13 3.081765 1_556
Pd12 Sb0 2.699000 1_555
Pd12 Pd15 2.832394 1_555
Pd12 Sb5 2.850537 1_555
Pd12 Sb2 2.850537 1_555
Pd12 Pd3 2.953455 1_555
Pd12 Pd9 2.971191 1_555
Pd12 Pd6 2.971191 1_555
Pd12 Pd16 3.081765 1_555
Pd12 Pd2 3.209804 1_555
Pd12 Pd17 3.209804 1_555
Pd13 Sb4 2.699000 1_665
Pd13 Sb1 2.850537 1_555
Pd13 Sb3 2.850537 1_555
Pd13 Pd17 2.953455 1_555
Pd13 Pd2 2.953455 1_555
Pd13 Pd7 2.971191 1_554
Pd13 Pd8 2.971191 1_554
Pd13 Pd3 3.209804 1_554
Pd14 Sb3 2.656839 1_545
Pd14 Sb1 2.784668 1_555
Pd14 Pd16 2.843181 1_555
Pd14 Sb4 2.902897 1_555
Pd14 Pd2 2.971205 1_555
Pd14 Pd6 3.018488 1_555
Pd14 Pd7 3.022567 1_544
Pd14 Pd8 3.262759 1_444
Pd15 Sb0 2.699000 1_665
Pd15 Sb5 2.850537 1_555
Pd15 Sb2 2.850537 1_555
Pd15 Pd17 2.953455 1_555
Pd15 Pd2 2.953455 1_555
Pd15 Pd5 2.971191 1_555
Pd15 Pd3 3.209804 1_555
Pd16 Sb4 2.639251 1_555
Pd16 Sb0 2.639251 1_555
Pd16 Pd9 2.843181 1_555
Pd16 Pd6 2.843181 1_555
Pd16 Pd4 2.843181 1_555
Pd16 Pd17 2.887800 1_555
Pd16 Pd2 2.887800 1_555
Pd17 Sb2 2.618394 1_555
Pd17 Sb3 2.618394 1_555
Pd17 Pd4 2.971205 1_555
Pd17 Pd9 2.971205 1_555
