# generated using pymatgen
data_Mg(BiO2)2
_symmetry_space_group_name_H-M   'P 1'
_cell_length_a   6.83391127
_cell_length_b   6.83391127
_cell_length_c   6.83391127
_cell_angle_alpha   60.00000000
_cell_angle_beta   60.00000000
_cell_angle_gamma   60.00000000
_symmetry_Int_Tables_number   1
_chemical_formula_structural   Mg(BiO2)2
_chemical_formula_sum   'Mg2 Bi4 O8'
_cell_volume   225.67996668
_cell_formula_units_Z   2
loop_
 _symmetry_equiv_pos_site_id
 _symmetry_equiv_pos_as_xyz
  1  'x, y, z'
loop_
 _atom_site_type_symbol
 _atom_site_label
 _atom_site_symmetry_multiplicity
 _atom_site_fract_x
 _atom_site_fract_y
 _atom_site_fract_z
 _atom_site_occupancy
  Mg  Mg0  1  0.75000000  0.75000000  0.75000000  1
  Mg  Mg1  1  0.50000000  0.50000000  0.50000000  1
  Bi  Bi0  1  0.12500000  0.12500000  0.62500000  1
  Bi  Bi1  1  0.12500000  0.62500000  0.12500000  1
  Bi  Bi2  1  0.12500000  0.12500000  0.12500000  1
  Bi  Bi3  1  0.62500000  0.12500000  0.12500000  1
  O  O0  1  0.37558100  0.87325600  0.37558100  1
  O  O1  1  0.37558100  0.37558100  0.37558100  1
  O  O2  1  0.87325600  0.37558100  0.37558100  1
  O  O3  1  0.87441900  0.87441900  0.37674400  1
  O  O4  1  0.37674400  0.87441900  0.87441900  1
  O  O5  1  0.87441900  0.87441900  0.87441900  1
  O  O6  1  0.37558100  0.37558100  0.87325600  1
  O  O7  1  0.87441900  0.37674400  0.87441900  1
loop_
_geom_bond_atom_site_label_1
_geom_bond_atom_site_label_2
_geom_bond_distance
_geom_bond_site_symmetry_2
Mg0 O3 2.082718 1_555
Mg0 O4 2.082718 1_555
Mg0 O7 2.082718 1_555
Mg0 O5 2.082724 1_555
Mg1 O0 2.082718 1_555
Mg1 O6 2.082718 1_555
Mg1 O2 2.082718 1_555
Mg1 O1 2.082724 1_555
Bi0 O1 2.421781 1_555
Bi0 O5 2.421781 1_445
Bi0 O2 2.421786 1_455
Bi0 O7 2.421786 1_455
Bi0 O4 2.421786 1_545
Bi0 O0 2.421786 1_545
Bi1 O1 2.421781 1_555
Bi1 O5 2.421781 1_454
Bi1 O2 2.421786 1_455
Bi1 O3 2.421786 1_455
Bi1 O6 2.421786 1_554
Bi1 O4 2.421786 1_554
Bi2 O6 2.421781 1_554
Bi2 O0 2.421781 1_545
Bi2 O3 2.421781 1_445
Bi2 O2 2.421781 1_455
Bi2 O7 2.421781 1_454
Bi2 O4 2.421781 1_544
Bi3 O1 2.421781 1_555
Bi3 O5 2.421781 1_544
Bi3 O6 2.421786 1_554
Bi3 O7 2.421786 1_554
Bi3 O0 2.421786 1_545
Bi3 O3 2.421786 1_545
