# generated using pymatgen
data_Mg14NbSi
_symmetry_space_group_name_H-M   'P 1'
_cell_length_a   6.24838760
_cell_length_b   6.12083111
_cell_length_c   10.16608796
_cell_angle_alpha   90.00000000
_cell_angle_beta   90.00000000
_cell_angle_gamma   119.32697207
_symmetry_Int_Tables_number   1
_chemical_formula_structural   Mg14NbSi
_chemical_formula_sum   'Mg14 Nb1 Si1'
_cell_volume   338.97558039
_cell_formula_units_Z   1
loop_
 _symmetry_equiv_pos_site_id
 _symmetry_equiv_pos_as_xyz
  1  'x, y, z'
loop_
 _atom_site_type_symbol
 _atom_site_label
 _atom_site_symmetry_multiplicity
 _atom_site_fract_x
 _atom_site_fract_y
 _atom_site_fract_z
 _atom_site_occupancy
  Mg  Mg0  1  0.16639258  0.33319579  0.62500000  1
  Mg  Mg1  1  0.16688243  0.83344072  0.62500000  1
  Mg  Mg2  1  0.66696664  0.33551020  0.12500000  1
  Mg  Mg3  1  0.66452714  0.33179864  0.62500000  1
  Mg  Mg4  1  0.66696664  0.83145544  0.12500000  1
  Mg  Mg5  1  0.66452714  0.83272750  0.62500000  1
  Mg  Mg6  1  0.32940719  0.16381915  0.36716111  1
  Mg  Mg7  1  0.32940719  0.16381915  0.88283889  1
  Mg  Mg8  1  0.32940719  0.66558904  0.36716111  1
  Mg  Mg9  1  0.32940719  0.66558904  0.88283889  1
  Mg  Mg10  1  0.83890130  0.16945115  0.37212812  1
  Mg  Mg11  1  0.83890130  0.16945115  0.87787188  1
  Mg  Mg12  1  0.84106605  0.67053352  0.37272482  1
  Mg  Mg13  1  0.84106605  0.67053352  0.87727518  1
  Nb  Nb0  1  0.16203888  0.83101894  0.12500000  1
  Si  Si0  1  0.16413508  0.33206704  0.12500000  1
loop_
_geom_bond_atom_site_label_1
_geom_bond_atom_site_label_2
_geom_bond_distance
_geom_bond_site_symmetry_2
Mg0 Mg1 3.060417 1_545
Mg0 Mg1 3.060417 1_555
Mg0 Mg5 3.116735 1_555
Mg0 Mg3 3.116735 1_555
Mg0 Mg10 3.129118 1_455
Mg0 Mg11 3.129118 1_455
Mg0 Mg5 3.131670 1_445
Mg0 Mg3 3.131670 1_455
Mg0 Mg6 3.165042 1_555
Mg0 Mg7 3.165042 1_555
Mg0 Mg8 3.165048 1_555
Mg0 Mg9 3.165048 1_555
Mg1 Mg3 3.111617 1_565
Mg1 Mg5 3.111618 1_555
Mg1 Mg12 3.118935 1_455
Mg1 Mg13 3.118935 1_455
Mg1 Mg3 3.136774 1_455
Mg1 Mg5 3.136775 1_455
Mg1 Mg8 3.159051 1_555
Mg1 Mg9 3.159051 1_555
Mg1 Mg6 3.159057 1_565
Mg1 Mg7 3.159057 1_565
Mg2 Mg4 3.035597 1_555
Mg2 Mg7 3.072853 1_554
Mg2 Mg6 3.072853 1_555
Mg2 Mg4 3.085234 1_545
Mg2 Nb0 3.094712 1_655
Mg2 Si0 3.116878 1_655
Mg2 Si0 3.131618 1_555
Mg2 Nb0 3.153676 1_545
Mg3 Mg5 3.054730 1_545
Mg3 Mg5 3.066101 1_555
Mg3 Mg6 3.194301 1_555
Mg3 Mg7 3.194301 1_555
Mg4 Mg9 3.072853 1_554
Mg4 Mg8 3.072853 1_555
Mg4 Nb0 3.094713 1_655
Mg4 Si0 3.116877 1_665
Mg4 Si0 3.131618 1_555
Mg4 Nb0 3.153677 1_555
Mg5 Mg8 3.194301 1_555
Mg5 Mg9 3.194301 1_555
Mg6 Nb0 3.035937 1_545
Mg6 Si0 3.037983 1_555
Mg6 Mg8 3.049582 1_545
Mg6 Mg8 3.071249 1_555
Mg7 Nb0 3.035937 1_546
Mg7 Si0 3.037983 1_556
Mg7 Mg9 3.049582 1_545
Mg7 Mg9 3.071249 1_555
Mg8 Nb0 3.035931 1_555
Mg8 Si0 3.037989 1_555
Mg9 Nb0 3.035931 1_556
Mg9 Si0 3.037989 1_556
Mg10 Mg12 3.060444 1_555
Mg10 Mg12 3.060444 1_545
Mg10 Si0 3.074222 1_655
Mg10 Mg8 3.082315 1_655
Mg10 Mg6 3.082316 1_655
Mg10 Mg2 3.093332 1_555
Mg10 Mg4 3.093338 1_545
Mg10 Mg3 3.137477 1_555
Mg10 Mg5 3.137483 1_545
Mg10 Mg8 3.167177 1_545
Mg10 Mg6 3.167177 1_555
Mg11 Mg13 3.060444 1_555
Mg11 Mg13 3.060444 1_545
Mg11 Si0 3.074222 1_656
Mg11 Mg9 3.082315 1_655
Mg11 Mg7 3.082316 1_655
Mg11 Mg2 3.093332 1_556
Mg11 Mg4 3.093338 1_546
Mg11 Mg3 3.137477 1_555
Mg11 Mg5 3.137483 1_545
Mg11 Mg9 3.167177 1_545
Mg11 Mg7 3.167177 1_555
Mg12 Nb0 3.065884 1_655
Mg12 Mg6 3.066803 1_665
Mg12 Mg8 3.066803 1_655
Mg12 Mg4 3.089579 1_555
Mg12 Mg2 3.089585 1_555
Mg12 Mg5 3.138877 1_555
Mg12 Mg3 3.138883 1_555
Mg12 Mg6 3.182831 1_555
Mg12 Mg8 3.182832 1_555
Mg13 Nb0 3.065884 1_656
Mg13 Mg7 3.066803 1_665
Mg13 Mg9 3.066803 1_655
Mg13 Mg4 3.089579 1_556
Mg13 Mg2 3.089585 1_556
Mg13 Mg5 3.138877 1_555
Mg13 Mg3 3.138883 1_555
Mg13 Mg7 3.182831 1_555
Mg13 Mg9 3.182832 1_555
Nb0 Si0 3.060437 1_565
Nb0 Si0 3.060437 1_555
