# generated using pymatgen
data_MgCr2(PO5)2
_symmetry_space_group_name_H-M   'P 1'
_cell_length_a   6.68734087
_cell_length_b   6.68760495
_cell_length_c   8.70493957
_cell_angle_alpha   102.67526247
_cell_angle_beta   102.71344529
_cell_angle_gamma   115.35291494
_symmetry_Int_Tables_number   1
_chemical_formula_structural   MgCr2(PO5)2
_chemical_formula_sum   'Mg2 Cr4 P4 O20'
_cell_volume   320.72574800
_cell_formula_units_Z   2
loop_
 _symmetry_equiv_pos_site_id
 _symmetry_equiv_pos_as_xyz
  1  'x, y, z'
loop_
 _atom_site_type_symbol
 _atom_site_label
 _atom_site_symmetry_multiplicity
 _atom_site_fract_x
 _atom_site_fract_y
 _atom_site_fract_z
 _atom_site_occupancy
  Mg  Mg0  1  0.49335600  0.99336800  0.50000900  1
  Mg  Mg1  1  0.24331900  0.24332300  0.99998600  1
  Cr  Cr0  1  0.87095900  0.61967500  0.25050900  1
  Cr  Cr1  1  0.36923400  0.62049800  0.74951400  1
  Cr  Cr2  1  0.87046600  0.11922200  0.24951300  1
  Cr  Cr3  1  0.86972900  0.62093700  0.75048300  1
  P  P0  1  0.03674400  0.03762500  0.58457900  1
  P  P1  1  0.70226800  0.20315100  0.91543000  1
  P  P2  1  0.45310600  0.45220900  0.41544900  1
  P  P3  1  0.28763300  0.78678500  0.08454400  1
  O  O0  1  0.57815100  0.55371000  0.29920100  1
  O  O1  1  0.66396500  0.66675900  0.84071400  1
  O  O2  1  0.31061500  0.58833900  0.96974200  1
  O  O3  1  0.80363900  0.32806000  0.79919200  1
  O  O4  1  0.21326300  0.23520900  0.29578300  1
  O  O5  1  0.42706000  0.64916100  0.52926000  1
  O  O6  1  0.07515600  0.57597000  0.65926700  1
  O  O7  1  0.82597100  0.82392600  0.15919500  1
  O  O8  1  0.91676000  0.41515800  0.34080800  1
  O  O9  1  0.16746700  0.68937400  0.20421700  1
  O  O10  1  0.25453900  0.27903300  0.70081300  1
  O  O11  1  0.48511600  0.96318400  0.79576600  1
  O  O12  1  0.93945600  0.91755500  0.70421500  1
  O  O13  1  0.14782100  0.86993100  0.97074100  1
  O  O14  1  0.11995300  0.89783700  0.47077100  1
  O  O15  1  0.89920200  0.17705700  0.02926600  1
  O  O16  1  0.83828800  0.06066600  0.46975300  1
  O  O17  1  0.61853200  0.34084300  0.03022200  1
  O  O18  1  0.52895500  0.00448200  0.20081500  1
  O  O19  1  0.59088000  0.36855500  0.53024300  1
loop_
_geom_bond_atom_site_label_1
_geom_bond_atom_site_label_2
_geom_bond_distance
_geom_bond_site_symmetry_2
Mg0 O14 2.234058 1_555
Mg0 O5 2.234538 1_555
Mg0 O16 2.241217 1_565
Mg0 O19 2.241312 1_565
Mg0 O9 2.636479 1_555
Mg0 O11 2.636866 1_555
Mg0 O3 2.680303 1_565
Mg0 O18 2.681071 1_565
Mg1 O15 2.234141 1_456
Mg1 O13 2.234262 1_545
Mg1 O17 2.241239 1_556
Mg1 O2 2.241674 1_555
Mg1 O12 2.636060 1_445
Mg1 O4 2.636892 1_556
Mg1 O0 2.680776 1_556
Mg1 O10 2.681147 1_555
Cr0 O8 1.818504 1_555
Cr0 O7 1.819706 1_555
Cr0 O0 1.978904 1_555
Cr0 O9 1.988456 1_655
Cr0 O14 2.070316 1_655
Cr0 O17 2.077060 1_555
Cr1 O6 1.813603 1_555
Cr1 O1 1.814383 1_555
Cr1 O10 1.978592 1_555
Cr1 O11 1.987857 1_555
Cr1 O5 2.070376 1_555
Cr1 O2 2.077161 1_555
Cr2 O7 1.821820 1_545
Cr2 O8 1.822371 1_555
Cr2 O18 1.978538 1_555
Cr2 O4 1.988140 1_655
Cr2 O15 2.070329 1_555
Cr2 O16 2.077044 1_555
Cr3 O1 1.826322 1_555
Cr3 O6 1.826815 1_655
Cr3 O3 1.979145 1_555
Cr3 O12 1.988899 1_555
Cr3 O13 2.070004 1_655
Cr3 O19 2.076691 1_555
O0 P2 1.540074 1_555
O2 P3 1.563274 1_556
O3 P1 1.539178 1_555
O4 P2 1.539973 1_555
O5 P2 1.564120 1_555
O9 P3 1.540568 1_555
O10 P0 1.540224 1_555
O11 P1 1.540806 1_565
O12 P0 1.539623 1_665
O13 P3 1.563339 1_556
O14 P0 1.564202 1_565
O15 P1 1.563680 1_554
O16 P0 1.563009 1_655
O17 P1 1.563355 1_554
O18 P3 1.539698 1_545
O19 P2 1.562663 1_555
