# generated using pymatgen
data_Na2CuTe2
_symmetry_space_group_name_H-M   'P 1'
_cell_length_a   9.44065311
_cell_length_b   9.44065311
_cell_length_c   26.15016113
_cell_angle_alpha   90.00000000
_cell_angle_beta   90.00000000
_cell_angle_gamma   90.00000000
_symmetry_Int_Tables_number   1
_chemical_formula_structural   Na2CuTe2
_chemical_formula_sum   'Na2 Cu1 Te2'
_cell_volume   2330.65746026
_cell_formula_units_Z   1
loop_
 _symmetry_equiv_pos_site_id
 _symmetry_equiv_pos_as_xyz
  1  'x, y, z'
loop_
 _atom_site_type_symbol
 _atom_site_label
 _atom_site_symmetry_multiplicity
 _atom_site_fract_x
 _atom_site_fract_y
 _atom_site_fract_z
 _atom_site_occupancy
  Na  Na0  1  0.50000000  0.50000000  0.66877588  1
  Na  Na1  1  0.50000000  0.50000000  0.33122412  1
  Cu  Cu0  1  0.50000000  0.50000000  -0.00000000  1
  Te  Te0  1  0.50000000  0.50000000  0.22539904  1
  Te  Te1  1  0.50000000  0.50000000  0.77460096  1
loop_
_geom_bond_atom_site_label_1
_geom_bond_atom_site_label_2
_geom_bond_distance
_geom_bond_site_symmetry_2
Na0 Te1 2.767343 1_555
Na1 Te0 2.767343 1_555
