# generated using pymatgen
data_TbGa2Co3
_symmetry_space_group_name_H-M   'P 1'
_cell_length_a   4.05095800
_cell_length_b   8.74827705
_cell_length_c   8.74827783
_cell_angle_alpha   59.98753261
_cell_angle_beta   90.00000000
_cell_angle_gamma   90.00000000
_symmetry_Int_Tables_number   1
_chemical_formula_structural   TbGa2Co3
_chemical_formula_sum   'Tb3 Ga6 Co9'
_cell_volume   268.45957222
_cell_formula_units_Z   3
loop_
 _symmetry_equiv_pos_site_id
 _symmetry_equiv_pos_as_xyz
  1  'x, y, z'
loop_
 _atom_site_type_symbol
 _atom_site_label
 _atom_site_symmetry_multiplicity
 _atom_site_fract_x
 _atom_site_fract_y
 _atom_site_fract_z
 _atom_site_occupancy
  Tb  Tb0  1  0.50000000  0.33335000  0.33333400  1
  Tb  Tb1  1  0.50000000  0.66666600  0.66665000  1
  Tb  Tb2  1  0.00000000  0.00023100  0.99976900  1
  Ga  Ga0  1  0.00000000  0.49575900  0.50424100  1
  Ga  Ga1  1  0.00000000  0.50416100  0.99985800  1
  Ga  Ga2  1  0.00000000  0.00014200  0.49583900  1
  Ga  Ga3  1  0.50000000  0.72958000  0.27042000  1
  Ga  Ga4  1  0.50000000  0.27059900  0.99996000  1
  Ga  Ga5  1  0.50000000  0.00004000  0.72940100  1
  Co  Co0  1  0.00000000  0.18013300  0.18090300  1
  Co  Co1  1  0.00000000  0.18068400  0.63896400  1
  Co  Co2  1  0.00000000  0.63896400  0.18024000  1
  Co  Co3  1  0.00000000  0.81909700  0.81986700  1
  Co  Co4  1  0.00000000  0.36103600  0.81931600  1
  Co  Co5  1  0.00000000  0.81976000  0.36103600  1
  Co  Co6  1  0.50000000  0.29592700  0.70407300  1
  Co  Co7  1  0.50000000  0.70370400  0.99993200  1
  Co  Co8  1  0.50000000  0.00006800  0.29629600  1
loop_
_geom_bond_atom_site_label_1
_geom_bond_atom_site_label_2
_geom_bond_distance
_geom_bond_site_symmetry_2
Ga0 Ga3 2.878400 1_555
Ga0 Ga3 2.878400 1_455
Ga0 Tb1 3.237558 1_455
Ga0 Tb1 3.237558 1_555
Ga0 Tb0 3.237558 1_455
Ga0 Tb0 3.237558 1_555
Ga1 Ga4 2.876747 1_455
Ga1 Ga4 2.876747 1_555
Ga1 Tb1 3.236540 1_455
Ga1 Tb1 3.236540 1_555
Ga1 Tb0 3.238109 1_556
Ga1 Tb0 3.238109 1_456
Ga2 Ga5 2.876747 1_555
Ga2 Ga5 2.876747 1_455
Ga2 Tb0 3.236540 1_555
Ga2 Tb0 3.236540 1_455
Ga2 Tb1 3.238109 1_445
Ga2 Tb1 3.238109 1_545
Ga3 Tb2 3.115541 1_664
Ga3 Tb2 3.115541 1_564
Ga3 Tb0 3.226425 1_555
Ga3 Tb1 3.226426 1_555
Ga4 Tb2 3.114635 1_555
Ga4 Tb2 3.114635 1_655
Ga4 Tb1 3.225040 1_555
Ga4 Tb0 3.226245 1_556
Ga5 Tb2 3.114635 1_555
Ga5 Tb2 3.114635 1_655
Ga5 Tb0 3.225040 1_555
Ga5 Tb1 3.226245 1_545
Co0 Ga2 2.393808 1_555
Co0 Ga4 2.445683 1_554
Co0 Ga4 2.445683 1_454
Co0 Co8 2.451993 1_455
Co0 Co8 2.451993 1_555
Co0 Ga1 2.460206 1_554
Co0 Co5 2.729926 1_545
Co0 Tb2 2.735469 1_554
Co0 Co4 2.739122 1_554
Co0 Tb0 3.076610 1_555
Co0 Tb0 3.076610 1_455
Co1 Ga0 2.395155 1_555
Co1 Ga5 2.444415 1_455
Co1 Ga5 2.444415 1_555
Co1 Co6 2.453138 1_455
Co1 Co6 2.453138 1_555
Co1 Ga2 2.457783 1_555
Co1 Co4 2.732948 1_555
Co1 Tb2 2.733198 1_555
Co1 Co3 2.739122 1_545
Co1 Tb0 3.076178 1_555
Co1 Tb0 3.076178 1_455
Co2 Ga1 2.396369 1_554
Co2 Ga3 2.445205 1_555
Co2 Ga3 2.445205 1_455
Co2 Co7 2.453113 1_554
Co2 Co7 2.453113 1_454
Co2 Ga0 2.459935 1_555
Co2 Co3 2.729926 1_554
Co2 Tb2 2.736699 1_564
Co2 Co5 2.739676 1_555
Co2 Tb0 3.076087 1_555
Co2 Tb0 3.076087 1_455
Co3 Ga1 2.393808 1_555
Co3 Ga5 2.445683 1_465
Co3 Ga5 2.445683 1_565
Co3 Co7 2.451993 1_455
Co3 Co7 2.451993 1_555
Co3 Ga2 2.460206 1_565
Co3 Tb2 2.735469 1_565
Co3 Tb1 3.076610 1_455
Co3 Tb1 3.076610 1_555
Co4 Ga0 2.395155 1_555
Co4 Ga4 2.444415 1_455
Co4 Ga4 2.444415 1_555
Co4 Co6 2.453138 1_455
Co4 Co6 2.453138 1_555
Co4 Ga1 2.457783 1_555
Co4 Tb2 2.733198 1_555
Co4 Tb1 3.076178 1_455
Co4 Tb1 3.076178 1_555
Co5 Ga2 2.396369 1_565
Co5 Ga3 2.445205 1_555
Co5 Ga3 2.445205 1_455
Co5 Co8 2.453113 1_465
Co5 Co8 2.453113 1_565
Co5 Ga0 2.459935 1_555
Co5 Tb2 2.736699 1_564
Co5 Tb1 3.076087 1_455
Co5 Tb1 3.076087 1_555
Co6 Ga5 2.485089 1_555
Co6 Ga4 2.485090 1_555
Co6 Ga0 2.675363 1_555
Co6 Ga0 2.675363 1_655
Co6 Tb1 3.092593 1_555
Co6 Tb0 3.092593 1_555
Co6 Tb2 3.285078 1_555
Co6 Tb2 3.285078 1_655
Co7 Ga5 2.486786 1_565
Co7 Ga3 2.487268 1_556
Co7 Ga1 2.674138 1_655
Co7 Ga1 2.674138 1_555
Co7 Tb0 3.090454 1_556
Co7 Tb1 3.090476 1_555
Co7 Tb2 3.290627 1_665
Co7 Tb2 3.290627 1_565
Co8 Ga4 2.486786 1_554
Co8 Ga3 2.487268 1_545
Co8 Ga2 2.674138 1_655
Co8 Ga2 2.674138 1_555
Co8 Tb1 3.090454 1_545
Co8 Tb0 3.090476 1_555
Co8 Tb2 3.290627 1_554
Co8 Tb2 3.290627 1_654
