# generated using pymatgen
data_Rb4Te8O23
_symmetry_space_group_name_H-M   'P 1'
_cell_length_a   7.43106100
_cell_length_b   14.94265100
_cell_length_c   20.19134600
_cell_angle_alpha   90.00000000
_cell_angle_beta   90.00000000
_cell_angle_gamma   90.00000000
_symmetry_Int_Tables_number   1
_chemical_formula_structural   Rb4Te8O23
_chemical_formula_sum   'Rb16 Te32 O92'
_cell_volume   2242.04203386
_cell_formula_units_Z   4
loop_
 _symmetry_equiv_pos_site_id
 _symmetry_equiv_pos_as_xyz
  1  'x, y, z'
loop_
 _atom_site_type_symbol
 _atom_site_label
 _atom_site_symmetry_multiplicity
 _atom_site_fract_x
 _atom_site_fract_y
 _atom_site_fract_z
 _atom_site_occupancy
  Rb  Rb0  1  0.12310800  0.75541700  0.93739700  1
  Rb  Rb1  1  0.62310800  0.24458300  0.06260300  1
  Rb  Rb2  1  0.62310800  0.25541700  0.56260300  1
  Rb  Rb3  1  0.12310800  0.74458300  0.43739700  1
  Rb  Rb4  1  0.62230400  0.50580800  0.68654800  1
  Rb  Rb5  1  0.12230400  0.49419200  0.31345200  1
  Rb  Rb6  1  0.12230400  0.00580800  0.81345200  1
  Rb  Rb7  1  0.62230400  0.99419200  0.18654800  1
  Rb  Rb8  1  0.12152600  0.50390000  0.82385200  1
  Rb  Rb9  1  0.62152600  0.49610000  0.17614800  1
  Rb  Rb10  1  0.62152600  0.00390000  0.67614800  1
  Rb  Rb11  1  0.12152600  0.99610000  0.32385200  1
  Rb  Rb12  1  0.62240800  0.75103000  0.57113800  1
  Rb  Rb13  1  0.12240800  0.24897000  0.42886200  1
  Rb  Rb14  1  0.12240800  0.25103000  0.92886200  1
  Rb  Rb15  1  0.62240800  0.74897000  0.07113800  1
  Te  Te0  1  0.12287000  0.62394100  0.63525400  1
  Te  Te1  1  0.62287000  0.37605900  0.36474600  1
  Te  Te2  1  0.62287000  0.12394100  0.86474600  1
  Te  Te3  1  0.12287000  0.87605900  0.13525400  1
  Te  Te4  1  0.62360200  0.87206500  0.89142500  1
  Te  Te5  1  0.12360200  0.12793500  0.10857500  1
  Te  Te6  1  0.12360200  0.37206500  0.60857500  1
  Te  Te7  1  0.62360200  0.62793500  0.39142500  1
  Te  Te8  1  0.12056500  0.88277500  0.62892200  1
  Te  Te9  1  0.62056500  0.11722500  0.37107800  1
  Te  Te10  1  0.62056500  0.38277500  0.87107800  1
  Te  Te11  1  0.12056500  0.61722500  0.12892200  1
  Te  Te12  1  0.37143800  0.49967300  0.49943300  1
  Te  Te13  1  0.87143800  0.50032700  0.50056700  1
  Te  Te14  1  0.87143800  0.99967300  0.00056700  1
  Te  Te15  1  0.37143800  0.00032700  0.99943300  1
  Te  Te16  1  0.36824600  0.00047100  0.49981600  1
  Te  Te17  1  0.86824600  0.99952900  0.50018400  1
  Te  Te18  1  0.86824600  0.50047100  0.00018400  1
  Te  Te19  1  0.36824600  0.49952900  0.99981600  1
  Te  Te20  1  0.61805300  0.62842500  0.87743100  1
  Te  Te21  1  0.11805300  0.37157500  0.12256900  1
  Te  Te22  1  0.11805300  0.12842500  0.62256900  1
  Te  Te23  1  0.61805300  0.87157500  0.37743100  1
  Te  Te24  1  0.37109400  0.76256900  0.75629300  1
  Te  Te25  1  0.87109400  0.23743100  0.24370700  1
  Te  Te26  1  0.87109400  0.26256900  0.74370700  1
  Te  Te27  1  0.37109400  0.73743100  0.25629300  1
  Te  Te28  1  0.87172500  0.75966400  0.75640700  1
  Te  Te29  1  0.37172500  0.24033600  0.24359300  1
  Te  Te30  1  0.37172500  0.25966400  0.74359300  1
  Te  Te31  1  0.87172500  0.74033600  0.25640700  1
  O  O0  1  0.80787100  0.88021400  0.96819200  1
  O  O1  1  0.30787100  0.11978600  0.03180800  1
  O  O2  1  0.30787100  0.38021400  0.53180800  1
  O  O3  1  0.80787100  0.61978600  0.46819200  1
  O  O4  1  0.12136100  0.97381300  0.96821000  1
  O  O5  1  0.62136100  0.02618700  0.03179000  1
  O  O6  1  0.62136100  0.47381300  0.53179000  1
  O  O7  1  0.12136100  0.52618700  0.46821000  1
  O  O8  1  0.32242000  0.54801700  0.58721100  1
  O  O9  1  0.82242000  0.45198300  0.41278900  1
  O  O10  1  0.82242000  0.04801700  0.91278900  1
  O  O11  1  0.32242000  0.95198300  0.08721100  1
  O  O12  1  0.43538800  0.88146200  0.96657200  1
  O  O13  1  0.93538800  0.11853800  0.03342800  1
  O  O14  1  0.93538800  0.38146200  0.53342800  1
  O  O15  1  0.43538800  0.61853800  0.46657200  1
  O  O16  1  0.92090500  0.54877800  0.58824300  1
  O  O17  1  0.42090500  0.45122200  0.41175700  1
  O  O18  1  0.42090500  0.04877800  0.91175700  1
  O  O19  1  0.92090500  0.95122200  0.08824300  1
  O  O20  1  0.80720400  0.60518800  0.94208100  1
  O  O21  1  0.30720400  0.39481200  0.05791900  1
  O  O22  1  0.30720400  0.10518800  0.55791900  1
  O  O23  1  0.80720400  0.89481200  0.44208100  1
  O  O24  1  0.85093800  0.92288100  0.57484400  1
  O  O25  1  0.35093800  0.07711900  0.42515600  1
  O  O26  1  0.35093800  0.42288100  0.92515600  1
  O  O27  1  0.85093800  0.57711900  0.07484400  1
  O  O28  1  0.11866900  0.54376600  0.98940900  1
  O  O29  1  0.61866900  0.45623400  0.01059100  1
  O  O30  1  0.61866900  0.04376600  0.51059100  1
  O  O31  1  0.11866900  0.95623400  0.48940900  1
  O  O32  1  0.42656500  0.60430400  0.94109400  1
  O  O33  1  0.92656500  0.39569600  0.05890600  1
  O  O34  1  0.92656500  0.10430400  0.55890600  1
  O  O35  1  0.42656500  0.89569600  0.44109400  1
  O  O36  1  0.38874700  0.92464200  0.57443300  1
  O  O37  1  0.88874700  0.07535800  0.42556700  1
  O  O38  1  0.88874700  0.42464200  0.92556700  1
  O  O39  1  0.38874700  0.57535800  0.07443300  1
  O  O40  1  0.61725900  0.50837000  0.83855500  1
  O  O41  1  0.11725900  0.49163000  0.16144500  1
  O  O42  1  0.11725900  0.00837000  0.66144500  1
  O  O43  1  0.61725900  0.99163000  0.33855500  1
  O  O44  1  0.80650300  0.65251600  0.81237200  1
  O  O45  1  0.30650300  0.34748400  0.18762800  1
  O  O46  1  0.30650300  0.15251600  0.68762800  1
  O  O47  1  0.80650300  0.84748400  0.31237200  1
  O  O48  1  0.42964400  0.65529900  0.81331700  1
  O  O49  1  0.92964400  0.34470100  0.18668300  1
  O  O50  1  0.92964400  0.15529900  0.68668300  1
  O  O51  1  0.42964400  0.84470100  0.31331700  1
  O  O52  1  0.61838500  0.74774700  0.91909900  1
  O  O53  1  0.11838500  0.25225300  0.08090100  1
  O  O54  1  0.11838500  0.24774700  0.58090100  1
  O  O55  1  0.61838500  0.75225300  0.41909900  1
  O  O56  1  0.36926700  0.68448700  0.68202500  1
  O  O57  1  0.86926700  0.31551300  0.31797500  1
  O  O58  1  0.86926700  0.18448700  0.81797500  1
  O  O59  1  0.36926700  0.81551300  0.18202500  1
  O  O60  1  0.62226200  0.79480600  0.73450900  1
  O  O61  1  0.12226200  0.20519400  0.26549100  1
  O  O62  1  0.12226200  0.29480600  0.76549100  1
  O  O63  1  0.62226200  0.70519400  0.23450900  1
  O  O64  1  0.38171300  0.83958600  0.83206200  1
  O  O65  1  0.88171300  0.16041400  0.16793800  1
  O  O66  1  0.88171300  0.33958600  0.66793800  1
  O  O67  1  0.38171300  0.66041400  0.33206200  1
  O  O68  1  0.12205900  0.72533300  0.78032100  1
  O  O69  1  0.62205900  0.27466700  0.21967900  1
  O  O70  1  0.62205900  0.22533300  0.71967900  1
  O  O71  1  0.12205900  0.77466700  0.28032100  1
  O  O72  1  0.30290400  0.86792400  0.70363900  1
  O  O73  1  0.80290400  0.13207600  0.29636100  1
  O  O74  1  0.80290400  0.36792400  0.79636100  1
  O  O75  1  0.30290400  0.63207600  0.20363900  1
  O  O76  1  0.87506900  0.67900100  0.68339900  1
  O  O77  1  0.37506900  0.32099900  0.31660100  1
  O  O78  1  0.37506900  0.17900100  0.81660100  1
  O  O79  1  0.87506900  0.82099900  0.18339900  1
  O  O80  1  0.86527700  0.83508000  0.83315100  1
  O  O81  1  0.36527700  0.16492000  0.16684900  1
  O  O82  1  0.36527700  0.33508000  0.66684900  1
  O  O83  1  0.86527700  0.66492000  0.33315100  1
  O  O84  1  0.93394400  0.86341500  0.70113400  1
  O  O85  1  0.43394400  0.13658500  0.29886600  1
  O  O86  1  0.43394400  0.36341500  0.79886600  1
  O  O87  1  0.93394400  0.63658500  0.20113400  1
  O  O88  1  0.12030000  0.72133700  0.57839100  1
  O  O89  1  0.62030000  0.27866300  0.42160900  1
  O  O90  1  0.62030000  0.22133700  0.92160900  1
  O  O91  1  0.12030000  0.77866300  0.07839100  1
loop_
_geom_bond_atom_site_label_1
_geom_bond_atom_site_label_2
_geom_bond_distance
_geom_bond_site_symmetry_2
O0 Te14 1.958774 1_556
O0 Te4 2.071820 1_555
O0 Rb0 3.058041 1_655
O0 Rb15 3.172711 1_556
O1 Te15 1.958774 1_554
O1 Te5 2.071820 1_555
O1 Rb1 3.058041 1_555
O1 Rb14 3.172711 1_554
O2 Te12 1.958774 1_555
O2 Te6 2.071820 1_555
O2 Rb2 3.058041 1_555
O2 Rb13 3.172711 1_555
O3 Te13 1.958774 1_555
O3 Te7 2.071820 1_555
O3 Rb3 3.058041 1_655
O3 Rb12 3.172711 1_555
O4 Te15 2.001957 1_565
O4 Te14 2.006322 1_456
O4 Rb6 3.161142 1_565
O4 Rb0 3.322217 1_555
O5 Te14 2.001957 1_545
O5 Te15 2.006322 1_554
O5 Rb7 3.161142 1_545
O5 Rb1 3.322217 1_555
O6 Te13 2.001957 1_555
O6 Te12 2.006322 1_555
O6 Rb4 3.161142 1_555
O6 Rb2 3.322217 1_555
O7 Te12 2.001957 1_555
O7 Te13 2.006322 1_455
O7 Rb5 3.161142 1_555
O7 Rb3 3.322217 1_555
O8 Te12 1.948274 1_555
O8 Te0 2.104045 1_555
O8 Rb4 3.063795 1_555
O9 Te13 1.948274 1_555
O9 Te1 2.104045 1_555
O9 Rb5 3.063795 1_655
O10 Te14 1.948274 1_546
O10 Te2 2.104045 1_555
O10 Rb6 3.063795 1_655
O11 Te15 1.948274 1_564
O11 Te3 2.104045 1_555
O11 Rb7 3.063795 1_555
O12 Te15 1.954690 1_565
O12 Te4 2.068366 1_555
O12 Rb0 3.046218 1_555
O12 Rb15 3.210711 1_556
O13 Te14 1.954690 1_545
O13 Te5 2.068366 1_655
O13 Rb1 3.046218 1_555
O13 Rb14 3.210711 1_654
O14 Te13 1.954690 1_555
O14 Te6 2.068366 1_655
O14 Rb2 3.046218 1_555
O14 Rb13 3.210711 1_655
O15 Te12 1.954690 1_555
O15 Te7 2.068366 1_555
O15 Rb3 3.046218 1_555
O15 Rb12 3.210711 1_555
O16 Te13 1.947622 1_555
O16 Te0 2.101163 1_655
O16 Rb4 3.045613 1_555
O17 Te12 1.947622 1_555
O17 Te1 2.101163 1_555
O17 Rb5 3.045613 1_555
O18 Te15 1.947622 1_555
O18 Te2 2.101163 1_555
O18 Rb6 3.045613 1_555
O19 Te14 1.947622 1_555
O19 Te3 2.101163 1_655
O19 Rb7 3.045613 1_555
O20 Te20 1.949422 1_555
O20 Te18 2.007622 1_556
O20 Rb0 3.249450 1_655
O21 Te21 1.949422 1_555
O21 Te19 2.007622 1_554
O21 Rb1 3.249450 1_555
O22 Te22 1.949422 1_555
O22 Te16 2.007622 1_555
O22 Rb2 3.249450 1_555
O23 Te23 1.949422 1_555
O23 Te17 2.007622 1_555
O23 Rb3 3.249450 1_655
O24 Te17 1.897584 1_555
O24 Te8 2.359212 1_655
O24 Rb10 2.925034 1_565
O24 Rb12 3.079563 1_555
O25 Te16 1.897584 1_555
O25 Te9 2.359212 1_555
O25 Rb11 2.925034 1_545
O25 Rb13 3.079563 1_555
O26 Te19 1.897584 1_555
O26 Te10 2.359212 1_555
O26 Rb8 2.925034 1_555
O26 Rb14 3.079563 1_555
O27 Te18 1.897584 1_555
O27 Te11 2.359212 1_655
O27 Rb9 2.925034 1_555
O27 Rb15 3.079563 1_555
O28 Te19 1.980081 1_555
O28 Te18 1.982132 1_456
O28 Rb0 3.332597 1_555
O28 Rb8 3.395549 1_555
O29 Te18 1.980081 1_555
O29 Te19 1.982132 1_554
O29 Rb1 3.332597 1_555
O29 Rb9 3.395549 1_555
O30 Te17 1.980081 1_545
O30 Te16 1.982132 1_555
O30 Rb2 3.332597 1_555
O30 Rb10 3.395549 1_555
O31 Te16 1.980081 1_565
O31 Te17 1.982132 1_455
O31 Rb3 3.332597 1_555
O31 Rb11 3.395549 1_555
O32 Te20 1.951175 1_555
O32 Te19 2.011167 1_555
O32 Rb0 3.192072 1_555
O33 Te21 1.951175 1_655
O33 Te18 2.011167 1_555
O33 Rb1 3.192072 1_555
O34 Te22 1.951175 1_655
O34 Te17 2.011167 1_545
O34 Rb2 3.192072 1_555
O35 Te23 1.951175 1_555
O35 Te16 2.011167 1_565
O35 Rb3 3.192072 1_555
O36 Te16 1.891293 1_565
O36 Te8 2.360803 1_555
O36 Rb10 2.934750 1_565
O36 Rb12 3.122392 1_555
O37 Te17 1.891293 1_545
O37 Te9 2.360803 1_555
O37 Rb11 2.934750 1_645
O37 Rb13 3.122392 1_655
O38 Te18 1.891293 1_556
O38 Te10 2.360803 1_555
O38 Rb8 2.934750 1_655
O38 Rb14 3.122392 1_655
O39 Te19 1.891293 1_554
O39 Te11 2.360803 1_555
O39 Rb9 2.934750 1_555
O39 Rb15 3.122392 1_555
O40 Te20 1.958166 1_555
O40 Te10 1.988447 1_555
O40 Rb4 3.069694 1_555
O41 Te21 1.958166 1_555
O41 Te11 1.988447 1_555
O41 Rb5 3.069694 1_555
O42 Te22 1.958166 1_555
O42 Te8 1.988447 1_545
O42 Rb6 3.069694 1_555
O43 Te23 1.958166 1_555
O43 Te9 1.988447 1_565
O43 Rb7 3.069694 1_555
O44 Te20 1.953531 1_555
O44 Te28 2.018729 1_555
O44 Rb8 3.235025 1_655
O45 Te21 1.953531 1_555
O45 Te29 2.018729 1_555
O45 Rb9 3.235025 1_555
O46 Te22 1.953531 1_555
O46 Te30 2.018729 1_555
O46 Rb10 3.235025 1_555
O47 Te23 1.953531 1_555
O47 Te31 2.018729 1_555
O47 Rb11 3.235025 1_655
O48 Te20 1.948675 1_555
O48 Te24 2.020962 1_555
O48 Rb8 3.225791 1_555
O49 Te21 1.948675 1_655
O49 Te25 2.020962 1_555
O49 Rb9 3.225791 1_555
O50 Te22 1.948675 1_655
O50 Te26 2.020962 1_555
O50 Rb10 3.225791 1_555
O51 Te23 1.948675 1_555
O51 Te27 2.020962 1_555
O51 Rb11 3.225791 1_555
O52 Te4 1.940248 1_555
O52 Te20 1.971520 1_555
O52 Rb15 3.070072 1_556
O53 Te5 1.940248 1_555
O53 Te21 1.971520 1_555
O53 Rb14 3.070072 1_554
O54 Te6 1.940248 1_555
O54 Te22 1.971520 1_555
O54 Rb13 3.070072 1_555
O55 Te7 1.940248 1_555
O55 Te23 1.971520 1_555
O55 Rb12 3.070072 1_555
O56 Te24 1.900055 1_555
O56 Te0 2.250084 1_555
O56 Rb12 3.088719 1_555
O56 Rb4 3.266889 1_555
O57 Te25 1.900055 1_555
O57 Te1 2.250084 1_555
O57 Rb13 3.088719 1_655
O57 Rb5 3.266889 1_655
O58 Te26 1.900055 1_555
O58 Te2 2.250084 1_555
O58 Rb14 3.088719 1_655
O58 Rb6 3.266889 1_655
O59 Te27 1.900055 1_555
O59 Te3 2.250084 1_555
O59 Rb15 3.088719 1_555
O59 Rb7 3.266889 1_555
O60 Te28 1.976796 1_555
O60 Te24 1.977150 1_555
O60 Rb10 3.339254 1_565
O60 Rb12 3.362912 1_555
O61 Te29 1.976796 1_555
O61 Te25 1.977150 1_455
O61 Rb11 3.339254 1_545
O61 Rb13 3.362912 1_555
O62 Te30 1.976796 1_555
O62 Te26 1.977150 1_455
O62 Rb8 3.339254 1_555
O62 Rb14 3.362912 1_555
O63 Te31 1.976796 1_555
O63 Te27 1.977150 1_555
O63 Rb9 3.339254 1_555
O63 Rb15 3.362912 1_555
O64 Te24 1.916033 1_555
O64 Te4 2.214318 1_555
O64 Rb0 3.130225 1_555
O64 Rb6 3.166451 1_565
O65 Te25 1.916033 1_555
O65 Te5 2.214318 1_655
O65 Rb1 3.130225 1_555
O65 Rb7 3.166451 1_545
O66 Te26 1.916033 1_555
O66 Te6 2.214318 1_655
O66 Rb2 3.130225 1_555
O66 Rb4 3.166451 1_555
O67 Te27 1.916033 1_555
O67 Te7 2.214318 1_555
O67 Rb3 3.130225 1_555
O67 Rb5 3.166451 1_555
O68 Te28 1.989179 1_455
O68 Te24 1.992401 1_555
O68 Rb0 3.203285 1_555
O68 Rb8 3.423551 1_555
O69 Te29 1.989179 1_555
O69 Te25 1.992401 1_555
O69 Rb1 3.203285 1_555
O69 Rb9 3.423551 1_555
O70 Te30 1.989179 1_555
O70 Te26 1.992401 1_555
O70 Rb2 3.203285 1_555
O70 Rb10 3.423551 1_555
O71 Te31 1.989179 1_455
O71 Te27 1.992401 1_555
O71 Rb3 3.203285 1_555
O71 Rb11 3.423551 1_555
O72 Te24 1.966071 1_555
O72 Te8 2.039897 1_555
O72 Rb10 3.168990 1_565
O72 Rb6 3.310958 1_565
O73 Te25 1.966071 1_555
O73 Te9 2.039897 1_555
O73 Rb11 3.168990 1_645
O73 Rb7 3.310958 1_545
O74 Te26 1.966071 1_555
O74 Te10 2.039897 1_555
O74 Rb8 3.168990 1_655
O74 Rb4 3.310958 1_555
O75 Te27 1.966071 1_555
O75 Te11 2.039897 1_555
O75 Rb9 3.168990 1_555
O75 Rb5 3.310958 1_555
O76 Te28 1.904329 1_555
O76 Te0 2.238917 1_655
O76 Rb12 3.133930 1_555
O76 Rb4 3.198382 1_555
O77 Te29 1.904329 1_555
O77 Te1 2.238917 1_555
O77 Rb13 3.133930 1_555
O77 Rb5 3.198382 1_555
O78 Te30 1.904329 1_555
O78 Te2 2.238917 1_555
O78 Rb14 3.133930 1_555
O78 Rb6 3.198382 1_555
O79 Te31 1.904329 1_555
O79 Te3 2.238917 1_655
O79 Rb15 3.133930 1_555
O79 Rb7 3.198382 1_555
O80 Te28 1.916607 1_555
O80 Te4 2.217013 1_555
O80 Rb0 3.085183 1_655
O80 Rb6 3.211619 1_665
O81 Te29 1.916607 1_555
O81 Te5 2.217013 1_555
O81 Rb1 3.085183 1_555
O81 Rb7 3.211619 1_545
O82 Te30 1.916607 1_555
O82 Te6 2.217013 1_555
O82 Rb2 3.085183 1_555
O82 Rb4 3.211619 1_555
O83 Te31 1.916607 1_555
O83 Te7 2.217013 1_555
O83 Rb3 3.085183 1_655
O83 Rb5 3.211619 1_655
O84 Te28 1.965397 1_555
O84 Te8 2.032932 1_655
O84 Rb10 3.170339 1_565
O84 Rb6 3.410217 1_665
O85 Te29 1.965397 1_555
O85 Te9 2.032932 1_555
O85 Rb11 3.170339 1_545
O85 Rb7 3.410217 1_545
O86 Te30 1.965397 1_555
O86 Te10 2.032932 1_555
O86 Rb8 3.170339 1_555
O86 Rb4 3.410217 1_555
O87 Te31 1.965397 1_555
O87 Te11 2.032932 1_655
O87 Rb9 3.170339 1_555
O87 Rb5 3.410217 1_655
O88 Te0 1.853820 1_555
O88 Te8 2.619206 1_555
O88 Rb3 2.868047 1_555
O89 Te1 1.853820 1_555
O89 Te9 2.619206 1_555
O89 Rb2 2.868047 1_555
O90 Te2 1.853820 1_555
O90 Te10 2.619206 1_555
O90 Rb1 2.868047 1_556
O91 Te3 1.853820 1_555
O91 Te11 2.619206 1_555
O91 Rb0 2.868047 1_554
