# generated using pymatgen
data_CaTi2O4
_symmetry_space_group_name_H-M   'P 1'
_cell_length_a   7.69212091
_cell_length_b   7.69212091
_cell_length_c   9.81514789
_cell_angle_alpha   50.40834486
_cell_angle_beta   50.40834486
_cell_angle_gamma   22.72846938
_symmetry_Int_Tables_number   1
_chemical_formula_structural   CaTi2O4
_chemical_formula_sum   'Ca2 Ti4 O8'
_cell_volume   170.50397211
_cell_formula_units_Z   2
loop_
 _symmetry_equiv_pos_site_id
 _symmetry_equiv_pos_as_xyz
  1  'x, y, z'
loop_
 _atom_site_type_symbol
 _atom_site_label
 _atom_site_symmetry_multiplicity
 _atom_site_fract_x
 _atom_site_fract_y
 _atom_site_fract_z
 _atom_site_occupancy
  Ca  Ca0  1  0.64610300  0.64610300  0.86059000  1
  Ca  Ca1  1  0.35389700  0.35389700  0.13941000  1
  Ti  Ti0  1  0.36365000  0.36365000  0.81245000  1
  Ti  Ti1  1  0.85701000  0.85701000  0.47470400  1
  Ti  Ti2  1  0.14299000  0.14299000  0.52529600  1
  Ti  Ti3  1  0.63635000  0.63635000  0.18755000  1
  O  O0  1  0.14978400  0.14978400  0.31545000  1
  O  O1  1  0.53274300  0.53274300  0.67505700  1
  O  O2  1  0.46725700  0.46725700  0.32494300  1
  O  O3  1  0.85021600  0.85021600  0.68455000  1
  O  O4  1  0.83018300  0.83018300  0.98777800  1
  O  O5  1  0.22372700  0.22372700  0.63042700  1
  O  O6  1  0.16981700  0.16981700  0.01222200  1
  O  O7  1  0.77627300  0.77627300  0.36957300  1
loop_
_geom_bond_atom_site_label_1
_geom_bond_atom_site_label_2
_geom_bond_distance
_geom_bond_site_symmetry_2
Ca0 O6 2.309187 1_656
Ca0 O6 2.309187 1_566
Ca0 O5 2.309301 1_655
Ca0 O5 2.309301 1_565
Ca0 O3 2.355273 1_555
Ca1 O4 2.309187 1_454
Ca1 O4 2.309187 1_544
Ca1 O7 2.309301 1_545
Ca1 O7 2.309301 1_455
Ca1 O0 2.355273 1_555
O0 Ti2 1.994578 1_555
O0 Ti3 2.060343 1_545
O0 Ti3 2.060343 1_455
O1 Ti0 1.962522 1_555
O1 Ti2 2.011272 1_565
O1 Ti2 2.011272 1_655
O2 Ti3 1.962522 1_555
O2 Ti1 2.011272 1_545
O2 Ti1 2.011272 1_455
O3 Ti1 1.994578 1_555
O3 Ti0 2.060343 1_565
O3 Ti0 2.060343 1_655
O4 Ti0 2.093846 1_655
O4 Ti0 2.093846 1_565
O4 Ti3 2.222354 1_556
O5 Ti2 2.044816 1_555
O5 Ti1 2.163315 1_455
O5 Ti1 2.163315 1_545
O6 Ti3 2.093846 1_545
O6 Ti3 2.093846 1_455
O6 Ti0 2.222354 1_554
O7 Ti1 2.044816 1_555
O7 Ti2 2.163315 1_565
O7 Ti2 2.163315 1_655
