# generated using pymatgen
data_Ag2S
_symmetry_space_group_name_H-M   'P 1'
_cell_length_a   4.33345009
_cell_length_b   6.93261907
_cell_length_c   7.29687512
_cell_angle_alpha   90.00000000
_cell_angle_beta   90.00000000
_cell_angle_gamma   90.00000000
_symmetry_Int_Tables_number   1
_chemical_formula_structural   Ag2S
_chemical_formula_sum   'Ag8 S4'
_cell_volume   219.21388061
_cell_formula_units_Z   4
loop_
 _symmetry_equiv_pos_site_id
 _symmetry_equiv_pos_as_xyz
  1  'x, y, z'
loop_
 _atom_site_type_symbol
 _atom_site_label
 _atom_site_symmetry_multiplicity
 _atom_site_fract_x
 _atom_site_fract_y
 _atom_site_fract_z
 _atom_site_occupancy
  Ag  Ag0  1  0.00805365  0.77395280  0.64230075  1
  Ag  Ag1  1  0.49194635  0.22604720  0.14230075  1
  Ag  Ag2  1  0.99194635  0.27395280  0.85769925  1
  Ag  Ag3  1  0.50805365  0.72604720  0.35769925  1
  Ag  Ag4  1  0.84573508  0.88815392  0.04371944  1
  Ag  Ag5  1  0.65426492  0.11184608  0.54371944  1
  Ag  Ag6  1  0.15426492  0.38815392  0.45628056  1
  Ag  Ag7  1  0.34573508  0.61184608  0.95628056  1
  S  S0  1  0.12200601  0.00369636  0.34295608  1
  S  S1  1  0.37799399  0.99630364  0.84295608  1
  S  S2  1  0.87799399  0.50369636  0.15704392  1
  S  S3  1  0.62200601  0.49630364  0.65704392  1
loop_
_geom_bond_atom_site_label_1
_geom_bond_atom_site_label_2
_geom_bond_distance
_geom_bond_site_symmetry_2
Ag0 S3 2.552493 1_455
Ag0 S1 2.662684 1_555
Ag0 S0 2.748035 1_565
Ag1 S2 2.552493 1_555
Ag1 S0 2.662684 1_555
Ag1 S1 2.748035 1_544
Ag2 S1 2.552493 1_645
Ag2 S3 2.662684 1_555
Ag2 S2 2.748035 1_556
Ag3 S0 2.552493 1_565
Ag3 S2 2.662684 1_555
Ag3 S3 2.748035 1_555
Ag4 S1 2.610874 1_554
Ag4 S0 2.615829 1_665
Ag4 S2 2.794126 1_555
Ag4 S1 2.833413 1_654
Ag5 S0 2.610874 1_655
Ag5 S1 2.615829 1_545
Ag5 S3 2.794126 1_555
Ag5 S0 2.833413 1_555
Ag6 S3 2.610874 1_555
Ag6 S2 2.615829 1_455
Ag6 S0 2.794126 1_555
Ag6 S3 2.833413 1_455
Ag7 S2 2.610874 1_456
Ag7 S3 2.615829 1_555
Ag7 S1 2.794126 1_555
Ag7 S2 2.833413 1_556
