# generated using pymatgen
data_Mn6Si7
_symmetry_space_group_name_H-M   'P 1'
_cell_length_a   4.85019741
_cell_length_b   4.85019700
_cell_length_c   8.40871672
_cell_angle_alpha   73.23763081
_cell_angle_beta   73.23763357
_cell_angle_gamma   59.99999598
_symmetry_Int_Tables_number   1
_chemical_formula_structural   Mn6Si7
_chemical_formula_sum   'Mn6 Si7'
_cell_volume   161.53030867
_cell_formula_units_Z   1
loop_
 _symmetry_equiv_pos_site_id
 _symmetry_equiv_pos_as_xyz
  1  'x, y, z'
loop_
 _atom_site_type_symbol
 _atom_site_label
 _atom_site_symmetry_multiplicity
 _atom_site_fract_x
 _atom_site_fract_y
 _atom_site_fract_z
 _atom_site_occupancy
  Mn  Mn0  1  0.83458200  0.83458200  0.49625300  1
  Mn  Mn1  1  0.16541800  0.16541800  0.50374700  1
  Mn  Mn2  1  0.66221800  0.66221800  0.01334700  1
  Mn  Mn3  1  0.33778200  0.33778200  0.98665300  1
  Mn  Mn4  1  0.54923500  0.54923500  0.35229400  1
  Mn  Mn5  1  0.45076500  0.45076500  0.64770600  1
  Si  Si0  1  0.00000000  0.00000000  0.00000000  1
  Si  Si1  1  0.91442100  0.91442100  0.74936500  1
  Si  Si2  1  0.42179300  0.91442100  0.74936500  1
  Si  Si3  1  0.91442100  0.42179300  0.74936500  1
  Si  Si4  1  0.08557900  0.08557900  0.25063500  1
  Si  Si5  1  0.57820700  0.08557900  0.25063500  1
  Si  Si6  1  0.08557900  0.57820700  0.25063500  1
loop_
_geom_bond_atom_site_label_1
_geom_bond_atom_site_label_2
_geom_bond_distance
_geom_bond_site_symmetry_2
Mn0 Si5 2.410629 1_565
Mn0 Si6 2.410629 1_655
Mn0 Si4 2.410632 1_665
Mn0 Si3 2.435256 1_555
Mn0 Si2 2.435257 1_555
Mn0 Si1 2.435259 1_555
Mn1 Si2 2.410629 1_545
Mn1 Si3 2.410629 1_455
Mn1 Si1 2.410632 1_445
Mn1 Si6 2.435256 1_555
Mn1 Si5 2.435257 1_555
Mn1 Si4 2.435259 1_555
Mn2 Si1 2.506756 1_554
Mn2 Si2 2.506758 1_554
Mn2 Si3 2.506758 1_554
Mn2 Mn4 2.687425 1_555
Mn2 Si0 2.802259 1_665
Mn2 Si0 2.802263 1_655
Mn2 Si0 2.802263 1_565
Mn2 Mn3 2.808247 1_564
Mn2 Mn3 2.808247 1_654
Mn2 Mn3 2.808255 1_554
Mn2 Si5 3.069393 1_565
Mn2 Si6 3.069393 1_655
Mn2 Si4 3.069394 1_655
Mn2 Si4 3.069395 1_565
Mn2 Si5 3.069396 1_555
Mn2 Si6 3.069397 1_555
Mn3 Si4 2.506756 1_556
Mn3 Si5 2.506758 1_556
Mn3 Si6 2.506758 1_556
Mn3 Mn5 2.687425 1_555
Mn3 Si0 2.802259 1_556
Mn3 Si0 2.802263 1_566
Mn3 Si0 2.802263 1_656
Mn3 Si2 3.069393 1_545
Mn3 Si3 3.069393 1_455
Mn3 Si1 3.069394 1_455
Mn3 Si1 3.069395 1_545
Mn3 Si2 3.069396 1_555
Mn3 Si3 3.069397 1_555
Mn4 Mn5 2.342247 1_555
Mn4 Si5 2.555621 1_555
Mn4 Si6 2.555621 1_555
Mn4 Si4 2.555623 1_565
Mn4 Si4 2.555623 1_655
Mn4 Si5 2.555626 1_565
Mn4 Si6 2.555626 1_655
Mn5 Si2 2.555621 1_555
Mn5 Si3 2.555621 1_555
Mn5 Si1 2.555623 1_545
Mn5 Si1 2.555623 1_455
Mn5 Si2 2.555626 1_545
Mn5 Si3 2.555626 1_455
Si0 Si3 2.442878 1_454
Si0 Si6 2.442878 1_545
Si0 Si4 2.442878 1_555
Si0 Si1 2.442878 1_444
Si0 Si2 2.442878 1_544
Si0 Si5 2.442878 1_455
Si1 Si3 2.389343 1_555
Si1 Si2 2.389343 1_555
Si1 Si3 2.460854 1_565
Si1 Si2 2.460854 1_655
Si2 Si3 2.389343 1_555
Si2 Si3 2.460854 1_465
Si4 Si6 2.389343 1_555
Si4 Si5 2.389343 1_555
Si4 Si6 2.460854 1_545
Si4 Si5 2.460854 1_455
Si5 Si6 2.389343 1_555
Si5 Si6 2.460854 1_645
