# generated using pymatgen
data_Mg3Si4
_symmetry_space_group_name_H-M   'P 1'
_cell_length_a   9.59231919
_cell_length_b   9.76781420
_cell_length_c   5.69848741
_cell_angle_alpha   136.00122504
_cell_angle_beta   127.49573349
_cell_angle_gamma   48.27242288
_symmetry_Int_Tables_number   1
_chemical_formula_structural   Mg3Si4
_chemical_formula_sum   'Mg6 Si8'
_cell_volume   267.96889667
_cell_formula_units_Z   2
loop_
 _symmetry_equiv_pos_site_id
 _symmetry_equiv_pos_as_xyz
  1  'x, y, z'
loop_
 _atom_site_type_symbol
 _atom_site_label
 _atom_site_symmetry_multiplicity
 _atom_site_fract_x
 _atom_site_fract_y
 _atom_site_fract_z
 _atom_site_occupancy
  Mg  Mg0  1  0.38819045  0.97856285  0.96742066  1
  Mg  Mg1  1  0.62087188  0.50205293  0.39315889  1
  Mg  Mg2  1  0.72207984  0.14090368  0.68625408  1
  Mg  Mg3  1  0.98947122  0.05748915  0.39548503  1
  Mg  Mg4  1  0.06901456  0.33233065  0.40314092  1
  Mg  Mg5  1  0.12980118  0.77162840  0.73619276  1
  Si  Si0  1  0.08024149  0.38574168  0.99008462  1
  Si  Si1  1  0.60644639  0.09715749  0.95928582  1
  Si  Si2  1  0.83073863  0.74138189  0.89217534  1
  Si  Si3  1  0.18833782  0.62233737  0.10238318  1
  Si  Si4  1  0.40265645  0.38748701  0.35830478  1
  Si  Si5  1  0.55639010  0.59319778  0.97733183  1
  Si  Si6  1  0.80430584  0.69892481  0.23332476  1
  Si  Si7  1  0.36522115  0.94441631  0.41267633  1
loop_
_geom_bond_atom_site_label_1
_geom_bond_atom_site_label_2
_geom_bond_distance
_geom_bond_site_symmetry_2
Mg0 Si7 2.808194 1_555
Mg0 Si4 2.914857 1_566
Mg0 Si7 2.931476 1_556
Mg0 Si0 2.940569 1_565
Mg0 Si5 2.980895 1_555
Mg0 Si1 3.025056 1_565
Mg0 Si6 3.125249 1_556
Mg0 Mg5 3.290357 1_555
Mg1 Si5 2.703312 1_554
Mg1 Si2 2.708387 1_555
Mg1 Si4 2.822314 1_555
Mg1 Si1 2.831517 1_554
Mg1 Si3 3.046731 1_555
Mg1 Si5 3.125146 1_555
Mg1 Si7 3.198707 1_555
Mg2 Si1 2.742626 1_555
Mg2 Si6 2.799307 1_545
Mg2 Si5 2.848656 1_555
Mg2 Si4 2.891861 1_555
Mg2 Mg5 3.119341 1_645
Mg3 Si0 2.648358 1_655
Mg3 Si3 2.714168 1_645
Mg3 Si1 2.863599 1_554
Mg3 Si2 2.877348 1_544
Mg3 Si7 2.940593 1_645
Mg3 Mg5 3.127956 1_644
Mg4 Si3 2.781411 1_556
Mg4 Si0 2.823871 1_554
Mg4 Si7 2.865301 1_545
Mg4 Si2 2.921038 1_455
Mg4 Si0 2.931985 1_555
Mg4 Si6 3.177516 1_455
Mg5 Si6 2.756078 1_455
Mg5 Si4 2.780300 1_555
Mg5 Si7 2.814922 1_556
Mg5 Si3 2.942405 1_556
Mg5 Si5 2.962545 1_555
Mg5 Si3 3.047628 1_555
Mg5 Si0 3.062435 1_554
Si0 Si6 2.423359 1_456
Si0 Si4 2.467073 1_556
Si0 Si3 2.660803 1_556
Si0 Si2 2.863948 1_455
Si1 Si4 2.405873 1_556
Si1 Si2 2.447154 1_545
Si1 Si7 2.533284 1_545
Si2 Si6 2.432183 1_556
Si2 Si3 2.499083 1_656
Si3 Si4 2.549687 1_555
Si4 Si5 2.463639 1_555
Si5 Si6 2.393401 1_556
Si5 Si7 2.491116 1_556
