# generated using pymatgen
data_NaNbO3
_symmetry_space_group_name_H-M   'P 1'
_cell_length_a   7.90732000
_cell_length_b   7.95266300
_cell_length_c   15.94020100
_cell_angle_alpha   90.00000000
_cell_angle_beta   90.00000000
_cell_angle_gamma   90.00000000
_symmetry_Int_Tables_number   1
_chemical_formula_structural   NaNbO3
_chemical_formula_sum   'Na16 Nb16 O48'
_cell_volume   1002.38760375
_cell_formula_units_Z   16
loop_
 _symmetry_equiv_pos_site_id
 _symmetry_equiv_pos_as_xyz
  1  'x, y, z'
loop_
 _atom_site_type_symbol
 _atom_site_label
 _atom_site_symmetry_multiplicity
 _atom_site_fract_x
 _atom_site_fract_y
 _atom_site_fract_z
 _atom_site_occupancy
  Na  Na0  1  0.50000000  0.50000000  0.87648900  1
  Na  Na1  1  0.00000000  0.00000000  0.12351100  1
  Na  Na2  1  0.50000000  0.50000000  0.62697600  1
  Na  Na3  1  0.00000000  0.00000000  0.37302400  1
  Na  Na4  1  0.50000000  0.50000000  0.37918500  1
  Na  Na5  1  0.00000000  0.00000000  0.62081500  1
  Na  Na6  1  0.50000000  0.50000000  0.12640700  1
  Na  Na7  1  0.00000000  0.00000000  0.87359300  1
  Na  Na8  1  0.50000000  0.00000000  0.87036700  1
  Na  Na9  1  0.00000000  0.50000000  0.12963300  1
  Na  Na10  1  0.50000000  0.00000000  0.62289400  1
  Na  Na11  1  0.00000000  0.50000000  0.37710600  1
  Na  Na12  1  0.50000000  0.00000000  0.37414100  1
  Na  Na13  1  0.00000000  0.50000000  0.62585900  1
  Na  Na14  1  0.50000000  0.00000000  0.12233100  1
  Na  Na15  1  0.00000000  0.50000000  0.87766900  1
  Nb  Nb0  1  0.25000000  0.25000000  0.00000000  1
  Nb  Nb1  1  0.75000000  0.25000000  0.00000000  1
  Nb  Nb2  1  0.25000000  0.75000000  0.00000000  1
  Nb  Nb3  1  0.75000000  0.75000000  0.00000000  1
  Nb  Nb4  1  0.24976400  0.24855800  0.75019000  1
  Nb  Nb5  1  0.75023600  0.24855800  0.75019000  1
  Nb  Nb6  1  0.24976400  0.75144200  0.75019000  1
  Nb  Nb7  1  0.75023600  0.75144200  0.75019000  1
  Nb  Nb8  1  0.25023600  0.25144200  0.24981000  1
  Nb  Nb9  1  0.74976400  0.25144200  0.24981000  1
  Nb  Nb10  1  0.25023600  0.74855800  0.24981000  1
  Nb  Nb11  1  0.74976400  0.74855800  0.24981000  1
  Nb  Nb12  1  0.25000000  0.25000000  0.50000000  1
  Nb  Nb13  1  0.75000000  0.25000000  0.50000000  1
  Nb  Nb14  1  0.25000000  0.75000000  0.50000000  1
  Nb  Nb15  1  0.75000000  0.75000000  0.50000000  1
  O  O0  1  0.50000000  0.24837600  0.01756500  1
  O  O1  1  0.50000000  0.75162400  0.01756500  1
  O  O2  1  0.00000000  0.25162400  0.98243500  1
  O  O3  1  0.00000000  0.74837600  0.98243500  1
  O  O4  1  0.50000000  0.21200600  0.73594400  1
  O  O5  1  0.50000000  0.78799400  0.73594400  1
  O  O6  1  0.00000000  0.28799400  0.26405600  1
  O  O7  1  0.00000000  0.71200600  0.26405600  1
  O  O8  1  0.50000000  0.29242100  0.51396000  1
  O  O9  1  0.50000000  0.70757900  0.51396000  1
  O  O10  1  0.00000000  0.20757900  0.48604000  1
  O  O11  1  0.00000000  0.79242100  0.48604000  1
  O  O12  1  0.50000000  0.21073500  0.23440800  1
  O  O13  1  0.50000000  0.78926500  0.23440800  1
  O  O14  1  0.00000000  0.28926500  0.76559200  1
  O  O15  1  0.00000000  0.71073500  0.76559200  1
  O  O16  1  0.28376700  0.23472100  0.87511800  1
  O  O17  1  0.71623300  0.23472100  0.87511800  1
  O  O18  1  0.28376700  0.76527900  0.87511800  1
  O  O19  1  0.71623300  0.76527900  0.87511800  1
  O  O20  1  0.21623300  0.26527900  0.12488200  1
  O  O21  1  0.78376700  0.26527900  0.12488200  1
  O  O22  1  0.21623300  0.73472100  0.12488200  1
  O  O23  1  0.78376700  0.73472100  0.12488200  1
  O  O24  1  0.22155800  0.24952100  0.62511300  1
  O  O25  1  0.77844200  0.24952100  0.62511300  1
  O  O26  1  0.22155800  0.75047900  0.62511300  1
  O  O27  1  0.77844200  0.75047900  0.62511300  1
  O  O28  1  0.27844200  0.25047900  0.37488700  1
  O  O29  1  0.72155800  0.25047900  0.37488700  1
  O  O30  1  0.27844200  0.74952100  0.37488700  1
  O  O31  1  0.72155800  0.74952100  0.37488700  1
  O  O32  1  0.25442200  0.50000000  0.99062300  1
  O  O33  1  0.74557800  0.50000000  0.99062300  1
  O  O34  1  0.24557800  0.00000000  0.00937700  1
  O  O35  1  0.75442200  0.00000000  0.00937700  1
  O  O36  1  0.28682700  0.50000000  0.75064200  1
  O  O37  1  0.71317300  0.50000000  0.75064200  1
  O  O38  1  0.21317300  0.00000000  0.24935800  1
  O  O39  1  0.78682700  0.00000000  0.24935800  1
  O  O40  1  0.20684500  0.50000000  0.49873800  1
  O  O41  1  0.79315500  0.50000000  0.49873800  1
  O  O42  1  0.29315500  0.00000000  0.50126200  1
  O  O43  1  0.70684500  0.00000000  0.50126200  1
  O  O44  1  0.29304200  0.50000000  0.25155000  1
  O  O45  1  0.70695800  0.50000000  0.25155000  1
  O  O46  1  0.20695800  0.00000000  0.74845000  1
  O  O47  1  0.79304200  0.00000000  0.74845000  1
loop_
_geom_bond_atom_site_label_1
_geom_bond_atom_site_label_2
_geom_bond_distance
_geom_bond_site_symmetry_2
Na0 O37 2.620206 1_555
Na0 O36 2.620206 1_555
Na0 O32 2.660969 1_555
Na0 O33 2.660969 1_555
Na0 O18 2.715640 1_555
Na0 O19 2.715640 1_555
Na0 O17 2.715640 1_555
Na0 O16 2.715640 1_555
Na1 O38 2.620206 1_555
Na1 O39 2.620206 1_455
Na1 O34 2.660969 1_555
Na1 O35 2.660969 1_455
Na1 O20 2.715640 1_555
Na1 O22 2.715640 1_545
Na1 O21 2.715640 1_455
Na1 O23 2.715640 1_445
Na2 O9 2.443472 1_555
Na2 O8 2.443472 1_555
Na2 O37 2.593686 1_555
Na2 O36 2.593686 1_555
Na2 O4 2.874480 1_555
Na2 O5 2.874480 1_555
Na3 O10 2.443472 1_555
Na3 O11 2.443472 1_545
Na3 O38 2.593686 1_555
Na3 O39 2.593686 1_455
Na3 O6 2.874480 1_555
Na3 O7 2.874480 1_545
Na4 O45 2.611011 1_555
Na4 O44 2.611011 1_555
Na4 O29 2.647947 1_555
Na4 O31 2.647947 1_555
Na4 O30 2.647947 1_555
Na4 O28 2.647947 1_555
Na4 O9 2.709341 1_555
Na4 O8 2.709341 1_555
Na5 O46 2.611011 1_555
Na5 O47 2.611011 1_455
Na5 O26 2.647947 1_545
Na5 O24 2.647947 1_555
Na5 O25 2.647947 1_455
Na5 O27 2.647947 1_445
Na5 O10 2.709341 1_555
Na5 O11 2.709341 1_545
Na6 O45 2.580179 1_555
Na6 O44 2.580179 1_555
Na6 O1 2.648476 1_555
Na6 O0 2.648476 1_555
Na6 O13 2.873278 1_555
Na6 O12 2.873278 1_555
Na6 O33 2.907846 1_554
Na6 O32 2.907846 1_554
Na6 O23 2.918870 1_555
Na6 O21 2.918870 1_555
Na6 O22 2.918870 1_555
Na6 O20 2.918870 1_555
Na7 O46 2.580179 1_555
Na7 O47 2.580179 1_455
Na7 O2 2.648476 1_555
Na7 O3 2.648476 1_545
Na7 O14 2.873278 1_555
Na7 O15 2.873278 1_545
Na7 O34 2.907846 1_556
Na7 O35 2.907846 1_456
Na7 O16 2.918870 1_555
Na7 O17 2.918870 1_455
Na7 O18 2.918870 1_545
Na7 O19 2.918870 1_445
Na8 O16 2.532517 1_555
Na8 O17 2.532517 1_555
Na8 O18 2.532517 1_545
Na8 O19 2.532517 1_545
Na8 O5 2.726523 1_545
Na8 O4 2.726523 1_555
Na9 O22 2.532517 1_555
Na9 O20 2.532517 1_555
Na9 O23 2.532517 1_455
Na9 O21 2.532517 1_455
Na9 O7 2.726523 1_555
Na9 O6 2.726523 1_555
Na10 O5 2.467789 1_545
Na10 O4 2.467789 1_555
Na10 O43 2.536582 1_555
Na10 O42 2.536582 1_555
Na10 O8 2.902285 1_555
Na10 O9 2.902285 1_545
Na11 O7 2.467789 1_555
Na11 O6 2.467789 1_555
Na11 O40 2.536582 1_555
Na11 O41 2.536582 1_455
Na11 O11 2.902285 1_555
Na11 O10 2.902285 1_555
Na12 O43 2.604071 1_555
Na12 O42 2.604071 1_555
Na12 O31 2.652803 1_545
Na12 O29 2.652803 1_555
Na12 O28 2.652803 1_555
Na12 O30 2.652803 1_545
Na12 O12 2.787444 1_555
Na12 O13 2.787444 1_545
Na13 O40 2.604071 1_555
Na13 O41 2.604071 1_455
Na13 O24 2.652803 1_555
Na13 O26 2.652803 1_555
Na13 O25 2.652803 1_455
Na13 O27 2.652803 1_455
Na13 O14 2.787444 1_555
Na13 O15 2.787444 1_555
Na14 O12 2.449560 1_555
Na14 O13 2.449560 1_545
Na14 O0 2.586597 1_555
Na14 O1 2.586597 1_545
Na14 O35 2.699844 1_555
Na14 O34 2.699844 1_555
Na15 O15 2.449560 1_555
Na15 O14 2.449560 1_555
Na15 O3 2.586597 1_555
Na15 O2 2.586597 1_555
Na15 O32 2.699844 1_555
Na15 O33 2.699844 1_455
Nb0 O34 1.994083 1_555
Nb0 O32 1.994083 1_554
Nb0 O0 1.996602 1_555
Nb0 O2 1.996602 1_554
Nb0 O20 2.012143 1_555
Nb0 O16 2.012143 1_554
Nb1 O35 1.994083 1_555
Nb1 O33 1.994083 1_554
Nb1 O0 1.996602 1_555
Nb1 O2 1.996602 1_654
Nb1 O21 2.012143 1_555
Nb1 O17 2.012143 1_554
Nb2 O34 1.994083 1_565
Nb2 O32 1.994083 1_554
Nb2 O1 1.996602 1_555
Nb2 O3 1.996602 1_554
Nb2 O22 2.012143 1_555
Nb2 O18 2.012143 1_554
Nb3 O35 1.994083 1_565
Nb3 O33 1.994083 1_554
Nb3 O1 1.996602 1_555
Nb3 O3 1.996602 1_654
Nb3 O23 2.012143 1_555
Nb3 O19 2.012143 1_554
Nb4 O46 2.005660 1_555
Nb4 O24 2.006203 1_555
Nb4 O16 2.012458 1_555
Nb4 O4 2.012785 1_555
Nb4 O14 2.016323 1_555
Nb4 O36 2.021009 1_555
Nb5 O47 2.005660 1_555
Nb5 O25 2.006203 1_555
Nb5 O17 2.012458 1_555
Nb5 O4 2.012785 1_555
Nb5 O14 2.016323 1_655
Nb5 O37 2.021009 1_555
Nb6 O46 2.005660 1_565
Nb6 O26 2.006203 1_555
Nb6 O18 2.012458 1_555
Nb6 O5 2.012785 1_555
Nb6 O15 2.016323 1_555
Nb6 O36 2.021009 1_555
Nb7 O47 2.005660 1_565
Nb7 O27 2.006203 1_555
Nb7 O19 2.012458 1_555
Nb7 O5 2.012785 1_555
Nb7 O15 2.016323 1_655
Nb7 O37 2.021009 1_555
Nb8 O44 2.005660 1_555
Nb8 O28 2.006203 1_555
Nb8 O20 2.012458 1_555
Nb8 O6 2.012785 1_555
Nb8 O12 2.016323 1_555
Nb8 O38 2.021009 1_555
Nb9 O45 2.005660 1_555
Nb9 O29 2.006203 1_555
Nb9 O21 2.012458 1_555
Nb9 O6 2.012785 1_655
Nb9 O12 2.016323 1_555
Nb9 O39 2.021009 1_555
Nb10 O44 2.005660 1_555
Nb10 O30 2.006203 1_555
Nb10 O22 2.012458 1_555
Nb10 O7 2.012785 1_555
Nb10 O13 2.016323 1_555
Nb10 O38 2.021009 1_565
Nb11 O45 2.005660 1_555
Nb11 O31 2.006203 1_555
Nb11 O23 2.012458 1_555
Nb11 O7 2.012785 1_655
Nb11 O13 2.016323 1_555
Nb11 O39 2.021009 1_565
Nb12 O24 2.006971 1_555
Nb12 O28 2.006971 1_555
Nb12 O40 2.017338 1_555
Nb12 O42 2.017338 1_555
Nb12 O8 2.017718 1_555
Nb12 O10 2.017718 1_555
Nb13 O25 2.006971 1_555
Nb13 O29 2.006971 1_555
Nb13 O41 2.017338 1_555
Nb13 O43 2.017338 1_555
Nb13 O8 2.017718 1_555
Nb13 O10 2.017718 1_655
Nb14 O26 2.006971 1_555
Nb14 O30 2.006971 1_555
Nb14 O40 2.017338 1_555
Nb14 O42 2.017338 1_565
Nb14 O11 2.017718 1_555
Nb14 O9 2.017718 1_555
Nb15 O27 2.006971 1_555
Nb15 O31 2.006971 1_555
Nb15 O41 2.017338 1_555
Nb15 O43 2.017338 1_565
Nb15 O11 2.017718 1_655
Nb15 O9 2.017718 1_555
