# generated using pymatgen
data_Zr2InNi2
_symmetry_space_group_name_H-M   'P 1'
_cell_length_a   3.31752734
_cell_length_b   7.18367423
_cell_length_c   7.18367423
_cell_angle_alpha   90.00000000
_cell_angle_beta   90.00000000
_cell_angle_gamma   90.00000000
_symmetry_Int_Tables_number   1
_chemical_formula_structural   Zr2InNi2
_chemical_formula_sum   'Zr4 In2 Ni4'
_cell_volume   171.20158042
_cell_formula_units_Z   2
loop_
 _symmetry_equiv_pos_site_id
 _symmetry_equiv_pos_as_xyz
  1  'x, y, z'
loop_
 _atom_site_type_symbol
 _atom_site_label
 _atom_site_symmetry_multiplicity
 _atom_site_fract_x
 _atom_site_fract_y
 _atom_site_fract_z
 _atom_site_occupancy
  Zr  Zr0  1  0.50000000  0.66762385  0.16762385  1
  Zr  Zr1  1  0.50000000  0.83237615  0.66762385  1
  Zr  Zr2  1  0.50000000  0.16762385  0.33237615  1
  Zr  Zr3  1  0.50000000  0.33237615  0.83237615  1
  In  In0  1  -0.00000000  0.00000000  0.00000000  1
  In  In1  1  -0.00000000  0.50000000  0.50000000  1
  Ni  Ni0  1  0.00000000  0.37523800  0.12476200  1
  Ni  Ni1  1  -0.00000000  0.87523800  0.37523800  1
  Ni  Ni2  1  -0.00000000  0.12476200  0.62476200  1
  Ni  Ni3  1  0.00000000  0.62476200  0.87523800  1
loop_
_geom_bond_atom_site_label_1
_geom_bond_atom_site_label_2
_geom_bond_distance
_geom_bond_site_symmetry_2
In0 Ni1 2.840679 1_545
In0 Ni0 2.840679 1_555
In0 Ni2 2.840679 1_554
In0 Ni3 2.840679 1_544
In0 Zr1 3.146826 1_444
In0 Zr0 3.146826 1_445
In0 Zr0 3.146826 1_545
In0 Zr3 3.146826 1_454
In0 Zr2 3.146826 1_555
In0 Zr3 3.146826 1_554
In0 Zr1 3.146826 1_544
In0 Zr2 3.146826 1_455
In1 Ni3 2.840679 1_555
In1 Ni2 2.840679 1_555
In1 Ni1 2.840679 1_555
In1 Ni0 2.840679 1_555
In1 Zr3 3.146826 1_455
In1 Zr0 3.146826 1_455
In1 Zr2 3.146826 1_555
In1 Zr1 3.146826 1_555
In1 Zr3 3.146826 1_555
In1 Zr1 3.146826 1_455
In1 Zr0 3.146826 1_555
In1 Zr2 3.146826 1_455
Ni0 Ni3 2.534977 1_554
Ni0 Zr2 2.683326 1_555
Ni0 Zr2 2.683326 1_455
Ni0 Zr3 2.694068 1_454
Ni0 Zr3 2.694068 1_554
Ni0 Zr0 2.694068 1_555
Ni0 Zr0 2.694068 1_455
Ni1 Ni2 2.534977 1_565
Ni1 Zr0 2.683326 1_455
Ni1 Zr0 2.683326 1_555
Ni1 Zr2 2.694068 1_465
Ni1 Zr2 2.694068 1_565
Ni1 Zr1 2.694068 1_555
Ni1 Zr1 2.694068 1_455
Ni2 Zr3 2.683326 1_455
Ni2 Zr3 2.683326 1_555
Ni2 Zr2 2.694068 1_455
Ni2 Zr2 2.694068 1_555
Ni2 Zr1 2.694068 1_545
Ni2 Zr1 2.694068 1_445
Ni3 Zr1 2.683326 1_555
Ni3 Zr1 2.683326 1_455
Ni3 Zr3 2.694068 1_455
Ni3 Zr3 2.694068 1_555
Ni3 Zr0 2.694068 1_456
Ni3 Zr0 2.694068 1_556
