# generated using pymatgen
data_Gd6Mg23C
_symmetry_space_group_name_H-M   'P 1'
_cell_length_a   10.08011122
_cell_length_b   10.08011122
_cell_length_c   10.08011122
_cell_angle_alpha   60.00000000
_cell_angle_beta   60.00000000
_cell_angle_gamma   60.00000000
_symmetry_Int_Tables_number   1
_chemical_formula_structural   Gd6Mg23C
_chemical_formula_sum   'Gd6 Mg23 C1'
_cell_volume   724.23744344
_cell_formula_units_Z   1
loop_
 _symmetry_equiv_pos_site_id
 _symmetry_equiv_pos_as_xyz
  1  'x, y, z'
loop_
 _atom_site_type_symbol
 _atom_site_label
 _atom_site_symmetry_multiplicity
 _atom_site_fract_x
 _atom_site_fract_y
 _atom_site_fract_z
 _atom_site_occupancy
  Gd  Gd0  1  0.82001000  0.82001000  0.17999000  1
  Gd  Gd1  1  0.17999000  0.82001000  0.17999000  1
  Gd  Gd2  1  0.82001000  0.17999000  0.17999000  1
  Gd  Gd3  1  0.17999000  0.17999000  0.82001000  1
  Gd  Gd4  1  0.82001000  0.17999000  0.82001000  1
  Gd  Gd5  1  0.17999000  0.82001000  0.82001000  1
  Mg  Mg0  1  0.83099800  0.83099800  0.50700500  1
  Mg  Mg1  1  0.83099800  0.50700500  0.83099800  1
  Mg  Mg2  1  0.50700500  0.83099800  0.83099800  1
  Mg  Mg3  1  0.83099800  0.83099800  0.83099800  1
  Mg  Mg4  1  0.16900200  0.16900200  0.49299500  1
  Mg  Mg5  1  0.16900200  0.49299500  0.16900200  1
  Mg  Mg6  1  0.49299500  0.16900200  0.16900200  1
  Mg  Mg7  1  0.16900200  0.16900200  0.16900200  1
  Mg  Mg8  1  0.62032100  0.62032100  0.13903800  1
  Mg  Mg9  1  0.62032100  0.13903800  0.62032100  1
  Mg  Mg10  1  0.13903800  0.62032100  0.62032100  1
  Mg  Mg11  1  0.62032100  0.62032100  0.62032100  1
  Mg  Mg12  1  0.37967900  0.37967900  0.86096200  1
  Mg  Mg13  1  0.37967900  0.86096200  0.37967900  1
  Mg  Mg14  1  0.86096200  0.37967900  0.37967900  1
  Mg  Mg15  1  0.37967900  0.37967900  0.37967900  1
  Mg  Mg16  1  0.00000000  0.00000000  0.50000000  1
  Mg  Mg17  1  0.50000000  0.00000000  0.50000000  1
  Mg  Mg18  1  0.00000000  0.50000000  0.50000000  1
  Mg  Mg19  1  0.50000000  0.50000000  0.00000000  1
  Mg  Mg20  1  0.00000000  0.50000000  0.00000000  1
  Mg  Mg21  1  0.50000000  0.00000000  0.00000000  1
  Mg  Mg22  1  0.50000000  0.50000000  0.50000000  1
  C  C0  1  0.00000000  0.00000000  0.00000000  1
loop_
_geom_bond_atom_site_label_1
_geom_bond_atom_site_label_2
_geom_bond_distance
_geom_bond_site_symmetry_2
Gd0 Mg0 3.410707 1_555
Gd0 Mg6 3.410712 1_565
Gd0 Mg5 3.410712 1_655
Gd0 Mg3 3.410717 1_554
Gd0 Mg18 3.700963 1_655
Gd0 Mg20 3.700963 1_655
Gd0 Mg17 3.700963 1_565
Gd0 Mg21 3.700963 1_565
Gd0 Mg8 3.739972 1_555
Gd0 Mg11 3.739979 1_555
Gd0 Mg13 3.739981 1_555
Gd0 Mg14 3.739981 1_555
Gd1 Mg5 3.410707 1_555
Gd1 Mg2 3.410712 1_554
Gd1 Mg0 3.410712 1_455
Gd1 Mg7 3.410717 1_565
Gd1 Mg16 3.700963 1_565
Gd1 Mg21 3.700963 1_565
Gd1 Mg18 3.700963 1_555
Gd1 Mg19 3.700963 1_555
Gd1 Mg13 3.739972 1_555
Gd1 Mg15 3.739979 1_555
Gd1 Mg8 3.739981 1_555
Gd1 Mg10 3.739981 1_555
Gd2 Mg6 3.410707 1_555
Gd2 Mg0 3.410712 1_545
Gd2 Mg1 3.410712 1_554
Gd2 Mg7 3.410717 1_655
Gd2 Mg16 3.700963 1_655
Gd2 Mg17 3.700963 1_555
Gd2 Mg20 3.700963 1_655
Gd2 Mg19 3.700963 1_555
Gd2 Mg14 3.739972 1_555
Gd2 Mg15 3.739979 1_555
Gd2 Mg8 3.739981 1_555
Gd2 Mg9 3.739981 1_555
Gd3 Mg4 3.410707 1_555
Gd3 Mg1 3.410712 1_455
Gd3 Mg2 3.410712 1_545
Gd3 Mg7 3.410717 1_556
Gd3 Mg20 3.700963 1_556
Gd3 Mg21 3.700963 1_556
Gd3 Mg17 3.700963 1_555
Gd3 Mg18 3.700963 1_555
Gd3 Mg12 3.739972 1_555
Gd3 Mg15 3.739979 1_555
Gd3 Mg9 3.739981 1_555
Gd3 Mg10 3.739981 1_555
Gd4 Mg1 3.410707 1_555
Gd4 Mg4 3.410712 1_655
Gd4 Mg6 3.410712 1_556
Gd4 Mg3 3.410717 1_545
Gd4 Mg16 3.700963 1_655
Gd4 Mg19 3.700963 1_556
Gd4 Mg18 3.700963 1_655
Gd4 Mg21 3.700963 1_556
Gd4 Mg9 3.739972 1_555
Gd4 Mg11 3.739979 1_555
Gd4 Mg14 3.739981 1_555
Gd4 Mg12 3.739981 1_555
Gd5 Mg2 3.410707 1_555
Gd5 Mg4 3.410712 1_565
Gd5 Mg5 3.410712 1_556
Gd5 Mg3 3.410717 1_455
Gd5 Mg19 3.700963 1_556
Gd5 Mg17 3.700963 1_565
Gd5 Mg20 3.700963 1_556
Gd5 Mg16 3.700963 1_565
Gd5 Mg10 3.739972 1_555
Gd5 Mg11 3.739979 1_555
Gd5 Mg13 3.739981 1_555
Gd5 Mg12 3.739981 1_555
Mg0 Mg18 2.910446 1_655
Mg0 Mg17 2.910446 1_565
Mg0 Mg16 2.910454 1_665
Mg0 Mg11 3.159576 1_555
Mg0 Mg10 3.159593 1_655
Mg0 Mg9 3.159593 1_565
Mg0 Mg3 3.265885 1_555
Mg0 Mg1 3.265885 1_555
Mg0 Mg2 3.265885 1_555
Mg1 Mg18 2.910446 1_655
Mg1 Mg19 2.910446 1_556
Mg1 Mg20 2.910454 1_656
Mg1 Mg11 3.159576 1_555
Mg1 Mg8 3.159593 1_556
Mg1 Mg10 3.159593 1_655
Mg1 Mg3 3.265885 1_555
Mg1 Mg2 3.265885 1_555
Mg2 Mg21 2.910454 1_566
Mg2 Mg8 3.159593 1_556
Mg2 Mg9 3.159593 1_565
Mg2 Mg3 3.265885 1_555
Mg3 Mg9 3.159583 1_565
Mg3 Mg8 3.159583 1_556
Mg4 Mg5 3.265885 1_555
Mg4 Mg6 3.265885 1_555
Mg4 Mg7 3.265885 1_555
Mg5 Mg6 3.265885 1_555
Mg5 Mg7 3.265885 1_555
Mg6 Mg7 3.265885 1_555
Mg10 Mg22 2.970853 1_555
Mg10 Mg16 3.126799 1_565
Mg10 Mg20 3.126799 1_556
Mg10 Mg18 3.126807 1_555
Mg10 Mg3 3.159583 1_455
Mg10 Mg13 3.430441 1_555
Mg10 Mg12 3.430441 1_555
Mg10 Mg15 3.430455 1_555
Mg11 Mg22 2.970861 1_555
Mg11 Mg19 3.126799 1_556
Mg11 Mg18 3.126799 1_655
Mg11 Mg17 3.126799 1_565
Mg11 Mg2 3.159576 1_555
Mg11 Mg13 3.430455 1_555
Mg11 Mg14 3.430455 1_555
Mg11 Mg12 3.430455 1_555
Mg12 Mg22 2.970853 1_555
Mg12 Mg21 3.126799 1_556
Mg12 Mg20 3.126799 1_556
Mg12 Mg19 3.126807 1_556
Mg12 Mg7 3.159583 1_556
Mg12 Mg6 3.159593 1_556
Mg12 Mg5 3.159593 1_556
Mg12 Mg9 3.430441 1_555
Mg13 Mg22 2.970853 1_555
Mg13 Mg21 3.126799 1_565
Mg13 Mg16 3.126799 1_565
Mg13 Mg17 3.126807 1_565
Mg13 Mg7 3.159583 1_565
Mg13 Mg4 3.159593 1_565
Mg13 Mg6 3.159593 1_565
Mg13 Mg8 3.430441 1_555
Mg14 Mg22 2.970853 1_555
Mg14 Mg20 3.126799 1_655
Mg14 Mg16 3.126799 1_655
Mg14 Mg18 3.126807 1_655
Mg14 Mg7 3.159583 1_655
Mg14 Mg5 3.159593 1_655
Mg14 Mg4 3.159593 1_655
Mg14 Mg8 3.430441 1_555
Mg14 Mg9 3.430441 1_555
Mg15 Mg22 2.970861 1_555
Mg15 Mg19 3.126799 1_555
Mg15 Mg17 3.126799 1_555
Mg15 Mg18 3.126799 1_555
Mg15 Mg5 3.159576 1_555
Mg15 Mg6 3.159576 1_555
Mg15 Mg4 3.159576 1_555
Mg15 Mg9 3.430455 1_555
Mg15 Mg8 3.430455 1_555
Mg16 Mg7 2.910449 1_555
Mg16 Mg3 2.910449 1_445
Mg16 Mg4 2.910454 1_555
Mg16 Mg9 3.126799 1_455
Mg17 Mg2 2.910446 1_545
Mg17 Mg6 2.910446 1_555
Mg17 Mg4 2.910446 1_555
Mg17 Mg9 3.126807 1_555
Mg18 Mg5 2.910446 1_555
Mg18 Mg4 2.910446 1_555
Mg19 Mg2 2.910446 1_554
Mg19 Mg6 2.910446 1_555
Mg19 Mg5 2.910446 1_555
Mg19 Mg8 3.126807 1_555
Mg20 Mg3 2.910449 1_454
Mg20 Mg7 2.910449 1_555
Mg20 Mg5 2.910454 1_555
Mg20 Mg8 3.126799 1_455
Mg21 Mg3 2.910449 1_544
Mg21 Mg7 2.910449 1_555
Mg21 Mg6 2.910454 1_555
Mg21 Mg9 3.126799 1_554
Mg21 Mg8 3.126799 1_545
Mg22 Mg8 2.970853 1_555
Mg22 Mg9 2.970853 1_555
C0 Gd0 2.565835 1_445
C0 Gd5 2.565835 1_544
C0 Gd4 2.565835 1_454
C0 Gd2 2.565835 1_455
C0 Gd3 2.565835 1_554
C0 Gd1 2.565835 1_545
