# generated using pymatgen
data_Zr2Cu
_symmetry_space_group_name_H-M   'P 1'
_cell_length_a   6.44334391
_cell_length_b   6.44334465
_cell_length_c   12.07101847
_cell_angle_alpha   105.47946449
_cell_angle_beta   105.47947106
_cell_angle_gamma   89.99999058
_symmetry_Int_Tables_number   1
_chemical_formula_structural   Zr2Cu
_chemical_formula_sum   'Zr16 Cu8'
_cell_volume   464.07997485
_cell_formula_units_Z   8
loop_
 _symmetry_equiv_pos_site_id
 _symmetry_equiv_pos_as_xyz
  1  'x, y, z'
loop_
 _atom_site_type_symbol
 _atom_site_label
 _atom_site_symmetry_multiplicity
 _atom_site_fract_x
 _atom_site_fract_y
 _atom_site_fract_z
 _atom_site_occupancy
  Zr  Zr0_0  1  0.17313722  0.17313722  0.34627495  1
  Zr  Zr0_1  1  0.17313722  0.17313722  0.84627495  1
  Zr  Zr0_2  1  0.17313722  0.67313722  0.34627495  1
  Zr  Zr0_3  1  0.17313722  0.67313722  0.84627495  1
  Zr  Zr0_4  1  0.67313722  0.17313722  0.34627495  1
  Zr  Zr0_5  1  0.67313722  0.17313722  0.84627495  1
  Zr  Zr0_6  1  0.67313722  0.67313722  0.34627495  1
  Zr  Zr0_7  1  0.67313722  0.67313722  0.84627495  1
  Zr  Zr1_0  1  0.32686278  0.32686278  0.15372506  1
  Zr  Zr1_1  1  0.32686278  0.32686278  0.65372506  1
  Zr  Zr1_2  1  0.32686278  0.82686278  0.15372505  1
  Zr  Zr1_3  1  0.32686278  0.82686278  0.65372505  1
  Zr  Zr1_4  1  0.82686278  0.32686278  0.15372505  1
  Zr  Zr1_5  1  0.82686278  0.32686278  0.65372505  1
  Zr  Zr1_6  1  0.82686278  0.82686278  0.15372505  1
  Zr  Zr1_7  1  0.82686278  0.82686278  0.65372505  1
  Cu  Cu0_0  1  0.00000000  0.00000000  0.00000000  1
  Cu  Cu0_1  1  0.00000000  0.00000000  0.50000000  1
  Cu  Cu0_2  1  0.00000000  0.50000000  0.00000000  1
  Cu  Cu0_3  1  0.00000000  0.50000000  0.50000000  1
  Cu  Cu0_4  1  0.50000000  0.00000000  0.00000000  1
  Cu  Cu0_5  1  0.50000000  0.00000000  0.50000000  1
  Cu  Cu0_6  1  0.50000000  0.50000000  0.00000000  1
  Cu  Cu0_7  1  0.50000000  0.50000000  0.50000000  1
loop_
_geom_bond_atom_site_label_1
_geom_bond_atom_site_label_2
_geom_bond_distance
_geom_bond_site_symmetry_2
Zr0_0 Zr1_6 3.134037 1_445
Zr0_0 Zr1_4 3.134040 1_455
Zr0_0 Zr1_2 3.134040 1_545
Zr0_0 Zr1_0 3.134043 1_555
Zr0_0 Zr0_4 3.221672 1_455
Zr0_0 Zr0_4 3.221672 1_555
Zr0_0 Zr0_2 3.221672 1_545
Zr0_0 Zr0_2 3.221672 1_555
Zr0_1 Zr1_7 3.134037 1_445
Zr0_1 Zr1_5 3.134040 1_455
Zr0_1 Zr1_3 3.134040 1_545
Zr0_1 Zr1_1 3.134043 1_555
Zr0_1 Zr0_5 3.221672 1_455
Zr0_1 Zr0_5 3.221672 1_555
Zr0_1 Zr0_3 3.221672 1_555
Zr0_1 Zr0_3 3.221672 1_545
Zr0_2 Zr1_4 3.134037 1_455
Zr0_2 Zr1_6 3.134040 1_455
Zr0_2 Zr1_0 3.134040 1_555
Zr0_2 Zr1_2 3.134043 1_555
Zr0_2 Zr0_6 3.221672 1_455
Zr0_2 Zr0_6 3.221672 1_555
Zr0_3 Zr1_5 3.134037 1_455
Zr0_3 Zr1_7 3.134040 1_455
Zr0_3 Zr1_1 3.134040 1_555
Zr0_3 Zr1_3 3.134043 1_555
Zr0_3 Zr0_7 3.221672 1_555
Zr0_3 Zr0_7 3.221672 1_455
Zr0_4 Zr1_2 3.134037 1_545
Zr0_4 Zr1_0 3.134040 1_555
Zr0_4 Zr1_6 3.134040 1_545
Zr0_4 Zr1_4 3.134043 1_555
Zr0_4 Zr0_6 3.221672 1_555
Zr0_4 Zr0_6 3.221672 1_545
Zr0_5 Zr1_3 3.134037 1_545
Zr0_5 Zr1_1 3.134040 1_555
Zr0_5 Zr1_7 3.134040 1_545
Zr0_5 Zr1_5 3.134043 1_555
Zr0_5 Zr0_7 3.221672 1_555
Zr0_5 Zr0_7 3.221672 1_545
Zr0_6 Zr1_0 3.134037 1_555
Zr0_6 Zr1_2 3.134040 1_555
Zr0_6 Zr1_4 3.134040 1_555
Zr0_6 Zr1_6 3.134043 1_555
Zr0_7 Zr1_1 3.134037 1_555
Zr0_7 Zr1_3 3.134040 1_555
Zr0_7 Zr1_5 3.134040 1_555
Zr0_7 Zr1_7 3.134043 1_555
Zr1_0 Zr1_4 3.221672 1_555
Zr1_0 Zr1_4 3.221672 1_455
Zr1_0 Zr1_2 3.221672 1_545
Zr1_0 Zr1_2 3.221672 1_555
Zr1_1 Zr1_5 3.221672 1_455
Zr1_1 Zr1_5 3.221672 1_555
Zr1_1 Zr1_3 3.221672 1_545
Zr1_1 Zr1_3 3.221672 1_555
Zr1_2 Zr1_6 3.221672 1_455
Zr1_2 Zr1_6 3.221672 1_555
Zr1_3 Zr1_7 3.221672 1_555
Zr1_3 Zr1_7 3.221672 1_455
Zr1_4 Zr1_6 3.221672 1_555
Zr1_4 Zr1_6 3.221672 1_545
Zr1_5 Zr1_7 3.221672 1_555
Zr1_5 Zr1_7 3.221672 1_545
Cu0_0 Zr0_1 2.853479 1_554
Cu0_0 Zr1_6 2.853479 1_445
Cu0_0 Zr0_5 2.853481 1_454
Cu0_0 Zr1_2 2.853481 1_545
Cu0_0 Zr1_4 2.853481 1_455
Cu0_0 Zr0_3 2.853481 1_544
Cu0_0 Zr0_7 2.853484 1_444
Cu0_0 Zr1_0 2.853484 1_555
Cu0_1 Zr0_0 2.853479 1_555
Cu0_1 Zr1_7 2.853479 1_445
Cu0_1 Zr0_4 2.853481 1_455
Cu0_1 Zr1_3 2.853481 1_545
Cu0_1 Zr1_5 2.853481 1_455
Cu0_1 Zr0_2 2.853481 1_545
Cu0_1 Zr0_6 2.853484 1_445
Cu0_1 Zr1_1 2.853484 1_555
Cu0_2 Zr0_3 2.853479 1_554
Cu0_2 Zr1_4 2.853479 1_455
Cu0_2 Zr0_7 2.853481 1_454
Cu0_2 Zr1_0 2.853481 1_555
Cu0_2 Zr1_6 2.853481 1_455
Cu0_2 Zr0_1 2.853481 1_554
Cu0_2 Zr1_2 2.853484 1_555
Cu0_2 Zr0_5 2.853484 1_454
Cu0_3 Zr1_5 2.853479 1_455
Cu0_3 Zr0_2 2.853479 1_555
Cu0_3 Zr0_6 2.853481 1_455
Cu0_3 Zr1_1 2.853481 1_555
Cu0_3 Zr0_0 2.853481 1_555
Cu0_3 Zr1_7 2.853481 1_455
Cu0_3 Zr0_4 2.853484 1_455
Cu0_3 Zr1_3 2.853484 1_555
Cu0_4 Zr0_5 2.853479 1_554
Cu0_4 Zr1_2 2.853479 1_545
Cu0_4 Zr0_1 2.853481 1_554
Cu0_4 Zr1_6 2.853481 1_545
Cu0_4 Zr0_7 2.853481 1_544
Cu0_4 Zr1_0 2.853481 1_555
Cu0_4 Zr0_3 2.853484 1_544
Cu0_4 Zr1_4 2.853484 1_555
Cu0_5 Zr1_3 2.853479 1_545
Cu0_5 Zr0_4 2.853479 1_555
Cu0_5 Zr1_7 2.853481 1_545
Cu0_5 Zr0_0 2.853481 1_555
Cu0_5 Zr1_1 2.853481 1_555
Cu0_5 Zr0_6 2.853481 1_545
Cu0_5 Zr0_2 2.853484 1_545
Cu0_5 Zr1_5 2.853484 1_555
Cu0_6 Zr0_7 2.853479 1_554
Cu0_6 Zr1_0 2.853479 1_555
Cu0_6 Zr0_3 2.853481 1_554
Cu0_6 Zr1_4 2.853481 1_555
Cu0_6 Zr0_5 2.853481 1_554
Cu0_6 Zr1_2 2.853481 1_555
Cu0_6 Zr0_1 2.853484 1_554
Cu0_6 Zr1_6 2.853484 1_555
Cu0_7 Zr0_6 2.853479 1_555
Cu0_7 Zr1_1 2.853479 1_555
Cu0_7 Zr0_2 2.853481 1_555
Cu0_7 Zr1_5 2.853481 1_555
Cu0_7 Zr1_3 2.853481 1_555
Cu0_7 Zr0_4 2.853481 1_555
Cu0_7 Zr1_7 2.853484 1_555
Cu0_7 Zr0_0 2.853484 1_555
