# generated using pymatgen
data_Li6ReN4
_symmetry_space_group_name_H-M   'P 1'
_cell_length_a   6.73989300
_cell_length_b   6.73989300
_cell_length_c   4.87796200
_cell_angle_alpha   90.00000000
_cell_angle_beta   90.00000000
_cell_angle_gamma   90.00000000
_symmetry_Int_Tables_number   1
_chemical_formula_structural   Li6ReN4
_chemical_formula_sum   'Li12 Re2 N8'
_cell_volume   221.58707083
_cell_formula_units_Z   2
loop_
 _symmetry_equiv_pos_site_id
 _symmetry_equiv_pos_as_xyz
  1  'x, y, z'
loop_
 _atom_site_type_symbol
 _atom_site_label
 _atom_site_symmetry_multiplicity
 _atom_site_fract_x
 _atom_site_fract_y
 _atom_site_fract_z
 _atom_site_occupancy
  Li  Li0  1  0.00000000  0.50000000  0.60132800  1
  Li  Li1  1  0.50000000  0.00000000  0.89867200  1
  Li  Li2  1  0.50000000  0.00000000  0.39867200  1
  Li  Li3  1  0.00000000  0.50000000  0.10132800  1
  Li  Li4  1  0.21172800  0.21172800  0.50000000  1
  Li  Li5  1  0.78827200  0.78827200  0.50000000  1
  Li  Li6  1  0.71172800  0.71172800  0.00000000  1
  Li  Li7  1  0.28827200  0.28827200  0.00000000  1
  Li  Li8  1  0.78827200  0.21172800  0.50000000  1
  Li  Li9  1  0.21172800  0.78827200  0.50000000  1
  Li  Li10  1  0.28827200  0.71172800  0.00000000  1
  Li  Li11  1  0.71172800  0.28827200  0.00000000  1
  Re  Re0  1  0.50000000  0.50000000  0.50000000  1
  Re  Re1  1  0.00000000  0.00000000  0.00000000  1
  N  N0  1  0.25323600  0.50000000  0.31605300  1
  N  N1  1  0.74676400  0.50000000  0.31605300  1
  N  N2  1  0.75323600  0.00000000  0.18394700  1
  N  N3  1  0.24676400  0.00000000  0.18394700  1
  N  N4  1  0.50000000  0.25323600  0.68394700  1
  N  N5  1  0.50000000  0.74676400  0.68394700  1
  N  N6  1  0.00000000  0.75323600  0.81605300  1
  N  N7  1  0.00000000  0.24676400  0.81605300  1
loop_
_geom_bond_atom_site_label_1
_geom_bond_atom_site_label_2
_geom_bond_distance
_geom_bond_site_symmetry_2
Li0 N6 2.002548 1_555
Li0 N7 2.002548 1_555
Li0 N0 2.202170 1_555
Li0 N1 2.202170 1_455
Li1 N4 2.002548 1_555
Li1 N5 2.002548 1_545
Li1 N2 2.202170 1_556
Li1 N3 2.202170 1_556
Li2 N2 2.002548 1_555
Li2 N3 2.002548 1_555
Li2 N4 2.202170 1_555
Li2 N5 2.202170 1_545
Li3 N0 2.002548 1_555
Li3 N1 2.002548 1_455
Li3 N6 2.202170 1_554
Li3 N7 2.202170 1_554
Li4 N7 2.113997 1_555
Li4 N3 2.113997 1_555
Li4 N0 2.158318 1_555
Li4 N4 2.158318 1_555
Li5 N6 2.113997 1_655
Li5 N2 2.113997 1_565
Li5 N5 2.158318 1_555
Li5 N1 2.158318 1_555
Li6 N1 2.113997 1_555
Li6 N5 2.113997 1_554
Li6 N2 2.158318 1_565
Li6 N6 2.158318 1_654
Li7 N4 2.113997 1_554
Li7 N0 2.113997 1_555
Li7 N3 2.158318 1_555
Li7 N7 2.158318 1_554
Li8 N7 2.113997 1_655
Li8 N2 2.113997 1_555
Li8 N4 2.158318 1_555
Li8 N1 2.158318 1_555
Li9 N6 2.113997 1_555
Li9 N3 2.113997 1_565
Li9 N0 2.158318 1_555
Li9 N5 2.158318 1_555
Li10 N0 2.113997 1_555
Li10 N5 2.113997 1_554
Li10 N6 2.158318 1_554
Li10 N3 2.158318 1_565
Li11 N4 2.113997 1_554
Li11 N1 2.113997 1_555
Li11 N2 2.158318 1_555
Li11 N7 2.158318 1_654
N0 Re0 1.889771 1_555
N1 Re0 1.889771 1_555
N2 Re1 1.889771 1_655
N3 Re1 1.889771 1_555
N4 Re0 1.889771 1_555
N5 Re0 1.889771 1_555
N6 Re1 1.889771 1_566
N7 Re1 1.889771 1_556
