# generated using pymatgen
data_Li4Fe3Cu2Sn3O16
_symmetry_space_group_name_H-M   'P 1'
_cell_length_a   6.13270535
_cell_length_b   6.11704471
_cell_length_c   9.68025558
_cell_angle_alpha   89.99981909
_cell_angle_beta   89.85532398
_cell_angle_gamma   119.91621094
_symmetry_Int_Tables_number   1
_chemical_formula_structural   Li4Fe3Cu2Sn3O16
_chemical_formula_sum   'Li4 Fe3 Cu2 Sn3 O16'
_cell_volume   314.75702122
_cell_formula_units_Z   1
loop_
 _symmetry_equiv_pos_site_id
 _symmetry_equiv_pos_as_xyz
  1  'x, y, z'
loop_
 _atom_site_type_symbol
 _atom_site_label
 _atom_site_symmetry_multiplicity
 _atom_site_fract_x
 _atom_site_fract_y
 _atom_site_fract_z
 _atom_site_occupancy
  Li  Li0  1  0.33972700  0.66988100  0.88941400  1
  Li  Li1  1  0.97995900  0.98997800  0.99258400  1
  Li  Li2  1  0.98529200  0.99266800  0.50009400  1
  Li  Li3  1  0.66865400  0.33435500  0.39573600  1
  Fe  Fe0  1  0.66378700  0.83190800  0.21298800  1
  Fe  Fe1  1  0.83172200  0.66171900  0.71254000  1
  Fe  Fe2  1  0.83172300  0.17003000  0.71254400  1
  Cu  Cu0  1  0.33894300  0.66947500  0.48948300  1
  Cu  Cu1  1  0.67509800  0.33757700  0.98460300  1
  Sn  Sn0  1  0.17104500  0.83171500  0.21335800  1
  Sn  Sn1  1  0.17103900  0.33933500  0.21335300  1
  Sn  Sn2  1  0.34246700  0.17124700  0.71275400  1
  O  O0  1  0.15925700  0.83089200  0.59943800  1
  O  O1  1  0.03577800  0.51789100  0.34539300  1
  O  O2  1  0.34119700  0.67060700  0.09641500  1
  O  O3  1  0.99361100  0.99681200  0.31584200  1
  O  O4  1  0.99173800  0.99585900  0.80842700  1
  O  O5  1  0.15925100  0.32838300  0.59944500  1
  O  O6  1  0.48620500  0.96068100  0.34408000  1
  O  O7  1  0.48620300  0.52553800  0.34407400  1
  O  O8  1  0.32281500  0.16141500  0.09403700  1
  O  O9  1  0.66852400  0.83428800  0.60703700  1
  O  O10  1  0.52867100  0.48660200  0.84321500  1
  O  O11  1  0.52867000  0.04209000  0.84320700  1
  O  O12  1  0.67887300  0.33948200  0.60040600  1
  O  O13  1  0.83097700  0.67142800  0.10036800  1
  O  O14  1  0.95779600  0.47889000  0.83664100  1
  O  O15  1  0.83097500  0.15955600  0.10036100  1
loop_
_geom_bond_atom_site_label_1
_geom_bond_atom_site_label_2
_geom_bond_distance
_geom_bond_site_symmetry_2
Li0 O2 2.003861 1_556
Li0 O11 2.022987 1_565
Li0 O10 2.023063 1_555
Li0 O14 2.094907 1_455
Li1 O4 1.783604 1_555
Li1 O13 1.984876 1_556
Li1 O15 1.984913 1_566
Li1 O8 2.072761 1_666
Li2 O3 1.784026 1_555
Li2 O9 1.974013 1_555
Li2 O5 2.024896 1_665
Li2 O0 2.024995 1_655
Li3 O12 1.982161 1_555
Li3 O1 2.010020 1_655
Li3 O7 2.043968 1_555
Li3 O6 2.044145 1_545
Fe0 O3 2.018714 1_555
Fe0 O15 2.049750 1_565
Fe0 O13 2.049832 1_555
Fe0 O2 2.055492 1_555
Fe0 O6 2.065338 1_555
Fe0 O7 2.065344 1_555
Fe1 O4 2.001554 1_555
Fe1 O12 2.025950 1_555
Fe1 O14 2.039348 1_555
Fe1 O10 2.050374 1_555
Fe1 O9 2.053786 1_555
Fe1 O0 2.054234 1_655
Fe2 O4 2.001765 1_545
Fe2 O12 2.026275 1_555
Fe2 O14 2.039126 1_555
Fe2 O11 2.050311 1_555
Fe2 O9 2.053679 1_545
Fe2 O5 2.054189 1_655
Cu0 O6 2.087771 1_555
Cu0 O7 2.087791 1_555
Cu0 O9 2.091826 1_555
Cu0 O5 2.097963 1_555
Cu0 O0 2.097998 1_555
Cu0 O1 2.134374 1_555
Cu1 O14 2.072936 1_555
Cu1 O10 2.081679 1_555
Cu1 O11 2.081864 1_555
Cu1 O13 2.097216 1_556
Cu1 O15 2.097403 1_556
Cu1 O8 2.148770 1_556
O0 Sn2 2.114989 1_565
O1 Sn0 2.100745 1_555
O1 Sn1 2.100763 1_555
O2 Sn0 2.088398 1_555
O2 Sn1 2.088406 1_555
O3 Sn1 2.068512 1_665
O3 Sn0 2.068547 1_655
O4 Sn2 2.079268 1_665
O5 Sn2 2.114953 1_555
O6 Sn0 2.109683 1_555
O7 Sn1 2.109695 1_555
O8 Sn1 2.095224 1_555
O8 Sn0 2.095251 1_545
O10 Sn2 2.104795 1_555
O11 Sn2 2.104777 1_555
O12 Sn2 2.090227 1_555
O13 Sn0 2.116370 1_655
O15 Sn1 2.116361 1_655
