# generated using pymatgen
data_Na2Si2O5
_symmetry_space_group_name_H-M   'P 1'
_cell_length_a   4.87434123
_cell_length_b   6.38774965
_cell_length_c   15.42711994
_cell_angle_alpha   90.00000000
_cell_angle_beta   90.00000000
_cell_angle_gamma   90.00000000
_symmetry_Int_Tables_number   1
_chemical_formula_structural   Na2Si2O5
_chemical_formula_sum   'Na8 Si8 O20'
_cell_volume   480.33990927
_cell_formula_units_Z   4
loop_
 _symmetry_equiv_pos_site_id
 _symmetry_equiv_pos_as_xyz
  1  'x, y, z'
loop_
 _atom_site_type_symbol
 _atom_site_label
 _atom_site_symmetry_multiplicity
 _atom_site_fract_x
 _atom_site_fract_y
 _atom_site_fract_z
 _atom_site_occupancy
  Na  Na0  1  0.73965299  0.59762401  0.44095321  1
  Na  Na1  1  0.73965299  0.40237599  0.05904679  1
  Na  Na2  1  0.76034701  0.09762401  0.55904679  1
  Na  Na3  1  0.76034701  0.90237599  0.94095321  1
  Na  Na4  1  0.26034701  0.40237599  0.55904679  1
  Na  Na5  1  0.26034701  0.59762401  0.94095321  1
  Na  Na6  1  0.23965299  0.90237599  0.44095321  1
  Na  Na7  1  0.23965299  0.09762401  0.05904679  1
  Si  Si0  1  0.79628115  0.60375897  0.65619651  1
  Si  Si1  1  0.79628115  0.39624103  0.84380349  1
  Si  Si2  1  0.70371885  0.10375897  0.34380349  1
  Si  Si3  1  0.70371885  0.89624103  0.15619651  1
  Si  Si4  1  0.20371885  0.39624103  0.34380349  1
  Si  Si5  1  0.20371885  0.60375897  0.15619651  1
  Si  Si6  1  0.29628115  0.89624103  0.65619651  1
  Si  Si7  1  0.29628115  0.10375897  0.84380349  1
  O  O0  1  0.23747950  0.95019897  0.92257069  1
  O  O1  1  0.23747950  0.04980103  0.57742931  1
  O  O2  1  0.26252050  0.45019897  0.07742931  1
  O  O3  1  0.26252050  0.54980103  0.42257069  1
  O  O4  1  0.76252050  0.04980103  0.07742931  1
  O  O5  1  0.76252050  0.95019897  0.42257069  1
  O  O6  1  0.73747950  0.54980103  0.92257069  1
  O  O7  1  0.73747950  0.45019897  0.57742931  1
  O  O8  1  0.62019434  0.17691195  0.84882128  1
  O  O9  1  0.62019434  0.82308805  0.65117872  1
  O  O10  1  0.87980566  0.67691195  0.15117872  1
  O  O11  1  0.87980566  0.32308805  0.34882128  1
  O  O12  1  0.37980566  0.82308805  0.15117872  1
  O  O13  1  0.37980566  0.17691195  0.34882128  1
  O  O14  1  0.12019434  0.32308805  0.84882128  1
  O  O15  1  0.12019434  0.67691195  0.65117872  1
  O  O16  1  0.73722487  0.50000000  0.75000000  1
  O  O17  1  0.76277513  -0.00000000  0.25000000  1
  O  O18  1  0.26277513  0.50000000  0.25000000  1
  O  O19  1  0.23722487  -0.00000000  0.75000000  1
loop_
_geom_bond_atom_site_label_1
_geom_bond_atom_site_label_2
_geom_bond_distance
_geom_bond_site_symmetry_2
Na0 O5 2.272680 1_555
Na0 O7 2.306466 1_555
Na0 O11 2.358437 1_555
Na0 O3 2.362764 1_555
Na0 O3 2.582495 1_655
Na1 O4 2.272680 1_555
Na1 O6 2.306466 1_554
Na1 O10 2.358437 1_555
Na1 O2 2.362764 1_555
Na1 O2 2.582495 1_655
Na2 O7 2.272680 1_555
Na2 O5 2.306466 1_545
Na2 O9 2.358437 1_545
Na2 O1 2.362764 1_655
Na2 O1 2.582495 1_555
Na3 O6 2.272680 1_555
Na3 O4 2.306466 1_566
Na3 O8 2.358437 1_565
Na3 O0 2.362764 1_655
Na3 O0 2.582495 1_555
Na4 O1 2.272680 1_555
Na4 O3 2.306466 1_555
Na4 O15 2.358437 1_555
Na4 O7 2.362764 1_555
Na4 O7 2.582495 1_455
Na5 O0 2.272680 1_555
Na5 O2 2.306466 1_556
Na5 O14 2.358437 1_555
Na5 O6 2.362764 1_555
Na5 O6 2.582495 1_455
Na6 O3 2.272680 1_555
Na6 O1 2.306466 1_565
Na6 O13 2.358437 1_565
Na6 O5 2.362764 1_455
Na6 O5 2.582495 1_555
Na7 O2 2.272680 1_555
Na7 O0 2.306466 1_544
Na7 O12 2.358437 1_545
Na7 O4 2.362764 1_455
Na7 O4 2.582495 1_555
O0 Si7 1.587738 1_565
O1 Si6 1.587738 1_545
O2 Si5 1.587738 1_555
O3 Si4 1.587738 1_555
O4 Si3 1.587738 1_545
O5 Si2 1.587738 1_565
O6 Si1 1.587738 1_555
O7 Si0 1.587738 1_555
O8 Si1 1.644852 1_555
O8 Si7 1.648380 1_555
O9 Si0 1.644852 1_555
O9 Si6 1.648380 1_555
O10 Si3 1.644852 1_555
O10 Si5 1.648380 1_655
O11 Si2 1.644852 1_555
O11 Si4 1.648380 1_655
O12 Si5 1.644852 1_555
O12 Si3 1.648380 1_555
O13 Si4 1.644852 1_555
O13 Si2 1.648380 1_555
O14 Si7 1.644852 1_555
O14 Si1 1.648380 1_455
O15 Si6 1.644852 1_555
O15 Si0 1.648380 1_455
O16 Si1 1.617498 1_555
O16 Si0 1.617498 1_555
O17 Si2 1.617498 1_555
O17 Si3 1.617498 1_545
O18 Si4 1.617498 1_555
O18 Si5 1.617498 1_555
O19 Si7 1.617498 1_555
O19 Si6 1.617498 1_545
