# generated using pymatgen
data_NaMg6Cr
_symmetry_space_group_name_H-M   'P 1'
_cell_length_a   5.13717900
_cell_length_b   6.42705800
_cell_length_c   10.98115000
_cell_angle_alpha   90.00000000
_cell_angle_beta   90.00000000
_cell_angle_gamma   90.00000000
_symmetry_Int_Tables_number   1
_chemical_formula_structural   NaMg6Cr
_chemical_formula_sum   'Na2 Mg12 Cr2'
_cell_volume   362.56405182
_cell_formula_units_Z   2
loop_
 _symmetry_equiv_pos_site_id
 _symmetry_equiv_pos_as_xyz
  1  'x, y, z'
loop_
 _atom_site_type_symbol
 _atom_site_label
 _atom_site_symmetry_multiplicity
 _atom_site_fract_x
 _atom_site_fract_y
 _atom_site_fract_z
 _atom_site_occupancy
  Na  Na0  1  0.50000000  0.00000000  0.83385600  1
  Na  Na1  1  0.50000000  0.50000000  0.33385600  1
  Mg  Mg0  1  0.50000000  0.25017900  0.58329100  1
  Mg  Mg1  1  0.50000000  0.74982100  0.58329100  1
  Mg  Mg2  1  0.00000000  0.23904300  0.41528400  1
  Mg  Mg3  1  0.00000000  0.76095700  0.41528400  1
  Mg  Mg4  1  0.00000000  0.00000000  0.66434300  1
  Mg  Mg5  1  0.00000000  0.00000000  0.17118200  1
  Mg  Mg6  1  0.50000000  0.75017900  0.08329100  1
  Mg  Mg7  1  0.50000000  0.24982100  0.08329100  1
  Mg  Mg8  1  0.00000000  0.73904300  0.91528400  1
  Mg  Mg9  1  0.00000000  0.26095700  0.91528400  1
  Mg  Mg10  1  0.00000000  0.50000000  0.16434300  1
  Mg  Mg11  1  0.00000000  0.50000000  0.67118200  1
  Cr  Cr0  1  0.50000000  0.00000000  0.33347400  1
  Cr  Cr1  1  0.50000000  0.50000000  0.83347400  1
loop_
_geom_bond_atom_site_label_1
_geom_bond_atom_site_label_2
_geom_bond_distance
_geom_bond_site_symmetry_2
Mg0 Mg4 3.158357 1_555
Mg0 Mg4 3.158357 1_655
Mg0 Mg2 3.163300 1_555
Mg0 Mg2 3.163300 1_655
Mg0 Na1 3.174992 1_555
Mg0 Mg11 3.179175 1_655
Mg0 Mg11 3.179175 1_555
Mg0 Na0 3.186863 1_555
Mg0 Mg1 3.211228 1_555
Mg0 Mg1 3.215830 1_545
Mg1 Mg4 3.158357 1_665
Mg1 Mg4 3.158357 1_565
Mg1 Mg3 3.163300 1_555
Mg1 Mg3 3.163300 1_655
Mg1 Na1 3.174992 1_555
Mg1 Mg11 3.179175 1_655
Mg1 Mg11 3.179175 1_555
Mg1 Na0 3.186863 1_565
Mg2 Mg3 3.072686 1_545
Mg2 Mg5 3.089586 1_555
Mg2 Mg4 3.136929 1_555
Mg2 Na1 3.195332 1_555
Mg2 Na1 3.195332 1_455
Mg2 Mg3 3.354372 1_555
Mg3 Mg5 3.089586 1_565
Mg3 Mg4 3.136929 1_565
Mg3 Na1 3.195332 1_455
Mg3 Na1 3.195332 1_555
Mg4 Na0 3.172166 1_455
Mg4 Na0 3.172166 1_555
Mg4 Mg9 3.225895 1_555
Mg4 Mg8 3.225895 1_545
Mg5 Mg7 3.179175 1_555
Mg5 Mg7 3.179175 1_455
Mg5 Mg6 3.179175 1_545
Mg5 Mg6 3.179175 1_445
Mg5 Mg9 3.272515 1_554
Mg5 Mg8 3.272515 1_544
Mg6 Mg8 3.163300 1_654
Mg6 Mg8 3.163300 1_554
Mg6 Na0 3.174992 1_564
Mg6 Na1 3.186863 1_555
Mg6 Mg7 3.211228 1_565
Mg6 Mg7 3.215830 1_555
Mg7 Mg9 3.163300 1_554
Mg7 Mg9 3.163300 1_654
Mg7 Na0 3.174992 1_554
Mg7 Na1 3.186863 1_555
Mg8 Mg9 3.072686 1_555
Mg8 Na0 3.195332 1_565
Mg8 Na0 3.195332 1_465
Mg8 Mg9 3.354372 1_565
Mg9 Na0 3.195332 1_555
Mg9 Na0 3.195332 1_455
Mg10 Mg9 3.136929 1_554
Mg10 Mg8 3.136929 1_554
Mg10 Mg6 3.158357 1_455
Mg10 Mg6 3.158357 1_555
Mg10 Mg7 3.158357 1_455
Mg10 Mg7 3.158357 1_555
Mg10 Na1 3.172166 1_455
Mg10 Na1 3.172166 1_555
Mg10 Mg5 3.214406 1_565
Mg10 Mg5 3.214406 1_555
Mg10 Mg3 3.225895 1_555
Mg10 Mg2 3.225895 1_555
Mg11 Mg9 3.089586 1_555
Mg11 Mg8 3.089586 1_555
Mg11 Mg4 3.214406 1_555
Mg11 Mg4 3.214406 1_565
Mg11 Mg3 3.272515 1_555
Mg11 Mg2 3.272515 1_555
Cr0 Mg2 3.124911 1_555
Cr0 Mg2 3.124911 1_655
Cr0 Mg3 3.124911 1_645
Cr0 Mg3 3.124911 1_545
Cr0 Mg5 3.126295 1_655
Cr0 Mg5 3.126295 1_555
Cr0 Mg0 3.179774 1_555
Cr0 Mg1 3.179774 1_545
Cr0 Mg7 3.182081 1_555
Cr0 Mg6 3.182081 1_545
Cr0 Na1 3.213532 1_555
Cr0 Na1 3.213532 1_545
Cr1 Mg8 3.124911 1_555
Cr1 Mg8 3.124911 1_655
Cr1 Mg9 3.124911 1_555
Cr1 Mg9 3.124911 1_655
Cr1 Mg11 3.126295 1_555
Cr1 Mg11 3.126295 1_655
Cr1 Mg6 3.179774 1_556
Cr1 Mg7 3.179774 1_556
Cr1 Mg0 3.182081 1_555
Cr1 Mg1 3.182081 1_555
Cr1 Na0 3.213532 1_555
Cr1 Na0 3.213532 1_565
