# generated using pymatgen
data_Dy2Te5
_symmetry_space_group_name_H-M   'P 1'
_cell_length_a   22.07414813
_cell_length_b   22.07414813
_cell_length_c   4.37370100
_cell_angle_alpha   90.00000000
_cell_angle_beta   90.00000000
_cell_angle_gamma   168.63554223
_symmetry_Int_Tables_number   1
_chemical_formula_structural   Dy2Te5
_chemical_formula_sum   'Dy4 Te10'
_cell_volume   419.94430640
_cell_formula_units_Z   2
loop_
 _symmetry_equiv_pos_site_id
 _symmetry_equiv_pos_as_xyz
  1  'x, y, z'
loop_
 _atom_site_type_symbol
 _atom_site_label
 _atom_site_symmetry_multiplicity
 _atom_site_fract_x
 _atom_site_fract_y
 _atom_site_fract_z
 _atom_site_occupancy
  Dy  Dy0  1  0.09802900  0.90197100  0.75000000  1
  Dy  Dy1  1  0.90197100  0.09802900  0.25000000  1
  Dy  Dy2  1  0.30731500  0.69268500  0.75000000  1
  Dy  Dy3  1  0.69268500  0.30731500  0.25000000  1
  Te  Te0  1  0.95843000  0.04157000  0.75000000  1
  Te  Te1  1  0.04157000  0.95843000  0.25000000  1
  Te  Te2  1  0.54177400  0.45822600  0.75000000  1
  Te  Te3  1  0.45822600  0.54177400  0.25000000  1
  Te  Te4  1  0.74999700  0.25000300  0.75000000  1
  Te  Te5  1  0.25000300  0.74999700  0.25000000  1
  Te  Te6  1  0.17246800  0.82753200  0.75000000  1
  Te  Te7  1  0.82753200  0.17246800  0.25000000  1
  Te  Te8  1  0.37989600  0.62010400  0.75000000  1
  Te  Te9  1  0.62010400  0.37989600  0.25000000  1
loop_
_geom_bond_atom_site_label_1
_geom_bond_atom_site_label_2
_geom_bond_distance
_geom_bond_site_symmetry_2
Dy0 Te9 3.240306 1_566
Dy0 Te9 3.240306 1_456
Dy0 Te9 3.240306 1_565
Dy0 Te9 3.240306 1_455
Dy0 Te6 3.270207 1_555
Dy0 Te2 3.299152 1_565
Dy0 Te2 3.299152 1_455
Dy0 Te1 3.306706 1_556
Dy0 Te1 3.306706 1_555
Dy1 Te8 3.240306 1_655
Dy1 Te8 3.240306 1_544
Dy1 Te8 3.240306 1_545
Dy1 Te8 3.240306 1_654
Dy1 Te7 3.270207 1_555
Dy1 Te3 3.299152 1_655
Dy1 Te3 3.299152 1_545
Dy1 Te0 3.306706 1_554
Dy1 Te0 3.306706 1_555
Dy2 Te8 3.188582 1_555
Dy2 Te7 3.216820 1_565
Dy2 Te7 3.216820 1_455
Dy2 Te7 3.216820 1_566
Dy2 Te7 3.216820 1_456
Dy2 Te4 3.334277 1_455
Dy2 Te4 3.334277 1_565
Dy2 Te5 3.334907 1_556
Dy2 Te5 3.334907 1_555
Dy3 Te9 3.188582 1_555
Dy3 Te6 3.216820 1_544
Dy3 Te6 3.216820 1_545
Dy3 Te6 3.216820 1_655
Dy3 Te6 3.216820 1_654
Dy3 Te5 3.334277 1_545
Dy3 Te5 3.334277 1_655
Dy3 Te4 3.334907 1_554
Dy3 Te4 3.334907 1_555
Te0 Te3 3.091793 1_656
Te0 Te3 3.091793 1_545
Te0 Te3 3.091793 1_546
Te0 Te3 3.091793 1_655
Te1 Te2 3.091793 1_564
Te1 Te2 3.091793 1_565
Te1 Te2 3.091793 1_455
Te1 Te2 3.091793 1_454
Te4 Te5 3.091780 1_656
Te4 Te5 3.091780 1_545
Te4 Te5 3.091780 1_546
Te4 Te5 3.091780 1_655
