# generated using pymatgen
data_TmInAu
_symmetry_space_group_name_H-M   'P 1'
_cell_length_a   7.60299472
_cell_length_b   7.60299852
_cell_length_c   3.97173729
_cell_angle_alpha   90.00000000
_cell_angle_beta   90.00000000
_cell_angle_gamma   120.00001237
_symmetry_Int_Tables_number   1
_chemical_formula_structural   TmInAu
_chemical_formula_sum   'Tm3 In3 Au3'
_cell_volume   198.82943895
_cell_formula_units_Z   3
loop_
 _symmetry_equiv_pos_site_id
 _symmetry_equiv_pos_as_xyz
  1  'x, y, z'
loop_
 _atom_site_type_symbol
 _atom_site_label
 _atom_site_symmetry_multiplicity
 _atom_site_fract_x
 _atom_site_fract_y
 _atom_site_fract_z
 _atom_site_occupancy
  Tm  Tm0  1  0.40425358  0.40425358  0.50000000  1
  Tm  Tm1  1  0.59574642  1.00000000  0.50000000  1
  Tm  Tm2  1  0.00000000  0.59574642  0.50000000  1
  In  In0  1  0.73913097  0.73913097  0.00000000  1
  In  In1  1  0.26086903  0.00000000  0.00000000  1
  In  In2  1  1.00000000  0.26086903  0.00000000  1
  Au  Au0  1  0.66666700  0.33333300  -0.00000000  1
  Au  Au1  1  0.33333300  0.66666700  0.00000000  1
  Au  Au2  1  -0.00000000  -0.00000000  0.50000000  1
loop_
_geom_bond_atom_site_label_1
_geom_bond_atom_site_label_2
_geom_bond_distance
_geom_bond_site_symmetry_2
In0 Tm0 3.228955 1_555
In0 Tm0 3.228955 1_554
In0 Tm2 3.350839 1_655
In0 Tm2 3.350839 1_654
In0 Tm1 3.350839 1_554
In0 Tm1 3.350839 1_555
In0 In1 3.435325 1_665
In0 In2 3.435326 1_565
In1 Tm1 3.228955 1_544
In1 Tm1 3.228955 1_545
In1 Tm2 3.350839 1_544
In1 Tm2 3.350839 1_545
In1 Tm0 3.350839 1_554
In1 Tm0 3.350839 1_555
In1 In2 3.435326 1_455
In2 Tm2 3.228956 1_655
In2 Tm2 3.228956 1_654
In2 Tm0 3.350838 1_655
In2 Tm0 3.350838 1_654
In2 Tm1 3.350838 1_545
In2 Tm1 3.350838 1_544
Au0 In2 2.850024 1_555
Au0 In1 2.850028 1_555
Au0 In0 2.850032 1_555
Au0 Tm1 3.048068 1_544
Au0 Tm1 3.048068 1_545
Au0 Tm2 3.048069 1_655
Au0 Tm2 3.048069 1_654
Au0 Tm0 3.048073 1_555
Au0 Tm0 3.048073 1_554
Au1 In1 2.850025 1_565
Au1 In2 2.850029 1_455
Au1 In0 2.850031 1_555
Au1 Tm2 3.048067 1_554
Au1 Tm2 3.048067 1_555
Au1 Tm1 3.048069 1_555
Au1 Tm1 3.048069 1_554
Au1 Tm0 3.048073 1_555
Au1 Tm0 3.048073 1_554
Au2 In1 2.806687 1_555
Au2 In1 2.806687 1_556
Au2 In0 2.806687 1_445
Au2 In0 2.806687 1_446
Au2 In2 2.806688 1_455
Au2 In2 2.806688 1_456
Au2 Tm1 3.073538 1_445
Au2 Tm0 3.073538 1_555
Au2 Tm2 3.073539 1_545
