# generated using pymatgen
data_Li5Mn3O8
_symmetry_space_group_name_H-M   'P 1'
_cell_length_a   5.88015006
_cell_length_b   5.88015006
_cell_length_c   5.16563589
_cell_angle_alpha   71.56786123
_cell_angle_beta   71.56786123
_cell_angle_gamma   58.54965346
_symmetry_Int_Tables_number   1
_chemical_formula_structural   Li5Mn3O8
_chemical_formula_sum   'Li5 Mn3 O8'
_cell_volume   142.00697832
_cell_formula_units_Z   1
loop_
 _symmetry_equiv_pos_site_id
 _symmetry_equiv_pos_as_xyz
  1  'x, y, z'
loop_
 _atom_site_type_symbol
 _atom_site_label
 _atom_site_symmetry_multiplicity
 _atom_site_fract_x
 _atom_site_fract_y
 _atom_site_fract_z
 _atom_site_occupancy
  Li  Li0  1  0.50000000  0.00000000  0.00000000  1
  Li  Li1  1  0.00000000  0.50000000  0.00000000  1
  Li  Li2  1  0.74722800  0.74722800  0.50740400  1
  Li  Li3  1  0.25277200  0.25277200  0.49259600  1
  Li  Li4  1  0.50000000  0.50000000  0.00000000  1
  Mn  Mn0  1  0.00000000  0.00000000  0.00000000  1
  Mn  Mn1  1  0.25294200  0.74705800  0.50000000  1
  Mn  Mn2  1  0.74705800  0.25294200  0.50000000  1
  O  O0  1  0.34741000  0.86677600  0.74230900  1
  O  O1  1  0.86677600  0.34741000  0.74230900  1
  O  O2  1  0.61543800  0.61543800  0.28134300  1
  O  O3  1  0.11914000  0.11914000  0.27711200  1
  O  O4  1  0.65259000  0.13322400  0.25769100  1
  O  O5  1  0.13322400  0.65259000  0.25769100  1
  O  O6  1  0.88086000  0.88086000  0.72288800  1
  O  O7  1  0.38456200  0.38456200  0.71865700  1
loop_
_geom_bond_atom_site_label_1
_geom_bond_atom_site_label_2
_geom_bond_distance
_geom_bond_site_symmetry_2
Li0 O3 2.127212 1_555
Li0 O6 2.127212 1_544
Li0 O7 2.151790 1_554
Li0 O2 2.151790 1_545
Li0 O4 2.310592 1_555
Li0 O0 2.310592 1_544
Li1 O3 2.127212 1_555
Li1 O6 2.127212 1_454
Li1 O7 2.151790 1_554
Li1 O2 2.151790 1_455
Li1 O5 2.310592 1_555
Li1 O1 2.310592 1_454
Li2 O6 2.055340 1_555
Li2 O2 2.082281 1_555
Li2 O4 2.099923 1_565
Li2 O5 2.099923 1_655
Li2 O1 2.122398 1_555
Li2 O0 2.122398 1_555
Li3 O3 2.055340 1_555
Li3 O7 2.082281 1_555
Li3 O0 2.099923 1_545
Li3 O1 2.099923 1_455
Li3 O4 2.122398 1_555
Li3 O5 2.122398 1_555
Li4 O1 2.036877 1_554
Li4 O0 2.036877 1_554
Li4 O5 2.036877 1_555
Li4 O4 2.036877 1_555
Li4 O2 2.182225 1_555
Li4 O7 2.182225 1_554
Mn0 O4 1.956690 1_455
Mn0 O5 1.956690 1_545
Mn0 O1 1.956690 1_454
Mn0 O0 1.956690 1_544
Mn0 O3 2.193420 1_555
Mn0 O6 2.193420 1_444
Mn1 O2 1.930556 1_555
Mn1 O7 1.930556 1_555
Mn1 O0 1.943130 1_555
Mn1 O5 1.943130 1_555
Mn1 O6 1.978666 1_455
Mn1 O3 1.978666 1_565
Mn2 O2 1.930556 1_555
Mn2 O7 1.930556 1_555
Mn2 O1 1.943130 1_555
Mn2 O4 1.943130 1_555
Mn2 O6 1.978666 1_545
Mn2 O3 1.978666 1_655
