# generated using pymatgen
data_Sr2InN2
_symmetry_space_group_name_H-M   'P 1'
_cell_length_a   6.58915089
_cell_length_b   12.02408233
_cell_length_c   12.91074800
_cell_angle_alpha   90.00000000
_cell_angle_beta   90.00000000
_cell_angle_gamma   24.15873853
_symmetry_Int_Tables_number   1
_chemical_formula_structural   Sr2InN2
_chemical_formula_sum   'Sr8 In4 N8'
_cell_volume   418.63789225
_cell_formula_units_Z   4
loop_
 _symmetry_equiv_pos_site_id
 _symmetry_equiv_pos_as_xyz
  1  'x, y, z'
loop_
 _atom_site_type_symbol
 _atom_site_label
 _atom_site_symmetry_multiplicity
 _atom_site_fract_x
 _atom_site_fract_y
 _atom_site_fract_z
 _atom_site_occupancy
  Sr  Sr0  1  0.00000000  0.46280900  0.85809200  1
  Sr  Sr1  1  0.00000000  0.53719100  0.14190800  1
  Sr  Sr2  1  0.00000000  0.03719100  0.35809200  1
  Sr  Sr3  1  0.00000000  0.96280900  0.64190800  1
  Sr  Sr4  1  0.00000000  0.14104600  0.95056400  1
  Sr  Sr5  1  0.00000000  0.85895400  0.04943600  1
  Sr  Sr6  1  0.00000000  0.35895400  0.45056400  1
  Sr  Sr7  1  0.00000000  0.64104600  0.54943600  1
  In  In0  1  0.00000000  0.26323600  0.67897500  1
  In  In1  1  0.00000000  0.73676400  0.32102500  1
  In  In2  1  0.00000000  0.23676300  0.17897500  1
  In  In3  1  0.00000000  0.76323600  0.82102500  1
  N  N0  1  0.00000000  0.43756200  0.63911000  1
  N  N1  1  0.00000000  0.56243800  0.36089000  1
  N  N2  1  0.00000000  0.06243800  0.13911000  1
  N  N3  1  0.00000000  0.93756200  0.86089000  1
  N  N4  1  0.00000000  0.15383200  0.55063200  1
  N  N5  1  0.00000000  0.84616800  0.44936800  1
  N  N6  1  0.00000000  0.34616800  0.05063200  1
  N  N7  1  0.00000000  0.65383200  0.94936800  1
loop_
_geom_bond_atom_site_label_1
_geom_bond_atom_site_label_2
_geom_bond_distance
_geom_bond_site_symmetry_2
In0 N4 2.115693 1_555
In0 N0 2.158375 1_555
In1 N5 2.115693 1_555
In1 N1 2.158375 1_555
In2 N6 2.115701 1_555
In2 N2 2.158363 1_555
In3 N7 2.115693 1_555
In3 N3 2.158375 1_555
N0 Sr6 2.611332 1_555
N0 Sr7 2.706804 1_555
N0 Sr3 2.713989 1_645
N0 Sr3 2.713989 1_455
N0 Sr0 2.843473 1_555
N1 Sr7 2.611332 1_555
N1 Sr6 2.706804 1_555
N1 Sr2 2.713989 1_465
N1 Sr2 2.713989 1_655
N1 Sr1 2.843473 1_555
N2 Sr4 2.611332 1_554
N2 Sr5 2.706804 1_545
N2 Sr1 2.713989 1_455
N2 Sr1 2.713989 1_645
N2 Sr2 2.843473 1_555
N3 Sr5 2.611332 1_556
N3 Sr4 2.706804 1_565
N3 Sr0 2.713989 1_655
N3 Sr0 2.713989 1_465
N3 Sr3 2.843473 1_555
N4 Sr3 2.581543 1_545
N4 Sr7 2.701139 1_455
N4 Sr7 2.701139 1_645
N4 Sr6 2.784293 1_555
N4 Sr2 2.854188 1_555
N5 Sr2 2.581543 1_565
N5 Sr6 2.701139 1_655
N5 Sr6 2.701139 1_465
N5 Sr7 2.784293 1_555
N5 Sr3 2.854188 1_555
N6 Sr1 2.581543 1_555
N6 Sr5 2.701139 1_645
N6 Sr5 2.701139 1_455
N6 Sr4 2.784293 1_554
N6 Sr0 2.854188 1_554
N7 Sr0 2.581543 1_555
N7 Sr4 2.701139 1_465
N7 Sr4 2.701139 1_655
N7 Sr5 2.784293 1_556
N7 Sr1 2.854188 1_556
