# generated using pymatgen
data_Fe3NiSb2(PO4)6
_symmetry_space_group_name_H-M   'P 1'
_cell_length_a   8.79340581
_cell_length_b   8.79340581
_cell_length_c   8.79340582
_cell_angle_alpha   59.35217441
_cell_angle_beta   59.35217441
_cell_angle_gamma   59.35217615
_symmetry_Int_Tables_number   1
_chemical_formula_structural   Fe3NiSb2(PO4)6
_chemical_formula_sum   'Fe3 Ni1 Sb2 P6 O24'
_cell_volume   473.70107526
_cell_formula_units_Z   1
loop_
 _symmetry_equiv_pos_site_id
 _symmetry_equiv_pos_as_xyz
  1  'x, y, z'
loop_
 _atom_site_type_symbol
 _atom_site_label
 _atom_site_symmetry_multiplicity
 _atom_site_fract_x
 _atom_site_fract_y
 _atom_site_fract_z
 _atom_site_occupancy
  Fe  Fe0  1  0.14792000  0.14792000  0.14792000  1
  Fe  Fe1  1  0.35104000  0.35104000  0.35104000  1
  Fe  Fe2  1  0.64929900  0.64929900  0.64929900  1
  Ni  Ni0  1  0.85128500  0.85128500  0.85128500  1
  Sb  Sb0  1  0.99523700  0.99523700  0.99523700  1
  Sb  Sb1  1  0.49790600  0.49790600  0.49790600  1
  P  P0  1  0.45896600  0.74950700  0.04172200  1
  P  P1  1  0.74950700  0.04172200  0.45896600  1
  P  P2  1  0.04172200  0.45896600  0.74950700  1
  P  P3  1  0.95892600  0.54125400  0.25236000  1
  P  P4  1  0.25236000  0.95892600  0.54125400  1
  P  P5  1  0.54125400  0.25236000  0.95892600  1
  O  O0  1  0.50471100  0.30931700  0.11448900  1
  O  O1  1  0.11448900  0.50471100  0.30931700  1
  O  O2  1  0.26176300  0.91511200  0.06019600  1
  O  O3  1  0.30931700  0.11448900  0.50471100  1
  O  O4  1  0.60887600  0.80705100  0.01327500  1
  O  O5  1  0.43386100  0.58409900  0.23676900  1
  O  O6  1  0.91511200  0.06019600  0.26176300  1
  O  O7  1  0.58409900  0.23676900  0.43386100  1
  O  O8  1  0.99496500  0.38854600  0.19037500  1
  O  O9  1  0.23676900  0.43386100  0.58409900  1
  O  O10  1  0.94124500  0.73851800  0.08686100  1
  O  O11  1  0.19037500  0.99496500  0.38854600  1
  O  O12  1  0.80705100  0.01327500  0.60887600  1
  O  O13  1  0.06019600  0.26176300  0.91511200  1
  O  O14  1  0.76543400  0.56191500  0.41527400  1
  O  O15  1  0.01327500  0.60887600  0.80705100  1
  O  O16  1  0.41527400  0.76543400  0.56191500  1
  O  O17  1  0.08686100  0.94124500  0.73851800  1
  O  O18  1  0.56191500  0.41527400  0.76543400  1
  O  O19  1  0.38854600  0.19037500  0.99496500  1
  O  O20  1  0.69270900  0.88629200  0.49292700  1
  O  O21  1  0.73851800  0.08686100  0.94124500  1
  O  O22  1  0.88629200  0.49292700  0.69270900  1
  O  O23  1  0.49292700  0.69270900  0.88629200  1
loop_
_geom_bond_atom_site_label_1
_geom_bond_atom_site_label_2
_geom_bond_distance
_geom_bond_site_symmetry_2
Fe0 O19 1.953836 1_554
Fe0 O11 1.953837 1_545
Fe0 O8 1.953837 1_455
Fe0 O6 2.126372 1_455
Fe0 O13 2.126372 1_554
Fe0 O2 2.126372 1_545
Fe1 O3 1.922056 1_555
Fe1 O0 1.922056 1_555
Fe1 O1 1.922056 1_555
Fe1 O5 2.101461 1_555
Fe1 O9 2.101461 1_555
Fe1 O7 2.101461 1_555
Fe2 O20 1.932308 1_555
Fe2 O23 1.932309 1_555
Fe2 O22 1.932309 1_555
Fe2 O18 2.130197 1_555
Fe2 O14 2.130198 1_555
Fe2 O16 2.130198 1_555
Ni0 O4 1.977087 1_556
Ni0 O12 1.977087 1_565
Ni0 O15 1.977087 1_655
Ni0 O17 2.162625 1_655
Ni0 O10 2.162625 1_556
Ni0 O21 2.162625 1_565
O0 P5 1.520394 1_554
O1 P3 1.520394 1_455
O2 P0 1.591702 1_555
O2 Sb0 2.363584 1_454
O3 P4 1.520394 1_545
O4 P0 1.507030 1_555
O5 P0 1.582391 1_555
O5 Sb1 2.296392 1_555
O6 P1 1.591702 1_555
O6 Sb0 2.363584 1_544
O7 P1 1.582391 1_555
O7 Sb1 2.296392 1_555
O8 P3 1.528705 1_555
O9 P2 1.582391 1_555
O9 Sb1 2.296392 1_555
O10 P3 1.591552 1_555
O10 Sb0 2.195215 1_554
O11 P4 1.528705 1_555
O12 P1 1.507030 1_555
O13 P2 1.591702 1_555
O13 Sb0 2.363584 1_445
O14 P3 1.563769 1_555
O14 Sb1 2.359921 1_555
O15 P2 1.507030 1_555
O16 P4 1.563769 1_555
O16 Sb1 2.359921 1_555
O17 P4 1.591552 1_555
O17 Sb0 2.195215 1_455
O18 P5 1.563769 1_555
O18 Sb1 2.359921 1_555
O19 P5 1.528705 1_555
O20 P1 1.527881 1_565
O21 P5 1.591553 1_555
O21 Sb0 2.195215 1_545
O22 P2 1.527881 1_655
O23 P0 1.527881 1_556
