# generated using pymatgen
data_Li3Co2O5
_symmetry_space_group_name_H-M   'P 1'
_cell_length_a   2.94310200
_cell_length_b   5.07411137
_cell_length_c   12.01685322
_cell_angle_alpha   95.11874760
_cell_angle_beta   94.45288031
_cell_angle_gamma   91.22957791
_symmetry_Int_Tables_number   1
_chemical_formula_structural   Li3Co2O5
_chemical_formula_sum   'Li6 Co4 O10'
_cell_volume   178.12718415
_cell_formula_units_Z   2
loop_
 _symmetry_equiv_pos_site_id
 _symmetry_equiv_pos_as_xyz
  1  'x, y, z'
loop_
 _atom_site_type_symbol
 _atom_site_label
 _atom_site_symmetry_multiplicity
 _atom_site_fract_x
 _atom_site_fract_y
 _atom_site_fract_z
 _atom_site_occupancy
  Li  Li0  1  0.50000000  0.00000000  0.50000000  1
  Li  Li1  1  0.91069000  0.79843800  0.30099400  1
  Li  Li2  1  0.30506800  0.59985100  0.10138000  1
  Li  Li3  1  0.69493200  0.40014900  0.89862000  1
  Li  Li4  1  0.08931000  0.20156200  0.69900600  1
  Li  Li5  1  0.00000000  0.50000000  0.50000000  1
  Co  Co0  1  0.59327500  0.68789200  0.69089100  1
  Co  Co1  1  0.40672500  0.31210800  0.30910900  1
  Co  Co2  1  0.80383600  0.10956600  0.10155400  1
  Co  Co3  1  0.19616400  0.89043400  0.89844600  1
  O  O0  1  0.01809800  0.84422600  0.60703900  1
  O  O1  1  0.44587600  0.61715900  0.38985400  1
  O  O2  1  0.82450100  0.43683800  0.20545900  1
  O  O3  1  0.24192200  0.23437400  0.00264500  1
  O  O4  1  0.64124000  0.01131300  0.79916200  1
  O  O5  1  0.98190200  0.15577400  0.39296100  1
  O  O6  1  0.35876000  0.98868700  0.20083800  1
  O  O7  1  0.75807800  0.76562600  0.99735500  1
  O  O8  1  0.17549900  0.56316200  0.79454100  1
  O  O9  1  0.55412400  0.38284100  0.61014600  1
loop_
_geom_bond_atom_site_label_1
_geom_bond_atom_site_label_2
_geom_bond_distance
_geom_bond_site_symmetry_2
Li0 O0 2.129062 1_645
Li0 O5 2.129062 1_455
Li0 O5 2.169647 1_555
Li0 O0 2.169647 1_545
Li0 O1 2.246351 1_545
Li0 O9 2.246351 1_555
Li1 O5 2.035439 1_565
Li1 O1 2.050810 1_555
Li1 O2 2.075510 1_555
Li1 O1 2.107976 1_655
Li1 O6 2.125699 1_655
Li1 O6 2.233858 1_555
Li2 O3 2.107058 1_555
Li2 O7 2.108564 1_554
Li2 O2 2.127783 1_555
Li2 O2 2.158218 1_455
Li2 O7 2.189762 1_454
Li2 O6 2.209670 1_555
Li3 O7 2.107058 1_555
Li3 O3 2.108564 1_556
Li3 O8 2.127783 1_555
Li3 O8 2.158218 1_655
Li3 O3 2.189762 1_656
Li3 O4 2.209670 1_555
Li4 O0 2.035439 1_545
Li4 O9 2.050810 1_555
Li4 O8 2.075510 1_555
Li4 O9 2.107976 1_455
Li4 O4 2.125699 1_455
Li4 O4 2.233858 1_555
Li5 O9 2.050365 1_455
Li5 O1 2.050365 1_555
Li5 O0 2.071850 1_555
Li5 O5 2.071850 1_455
Li5 O1 2.147516 1_455
Li5 O9 2.147516 1_555
Co0 O9 1.748607 1_555
Co0 O0 1.871770 1_655
Co0 O8 1.951621 1_555
Co0 O4 1.996595 1_565
Co0 O0 2.108453 1_555
Co0 O8 2.178066 1_655
Co1 O1 1.748607 1_555
Co1 O5 1.871770 1_455
Co1 O2 1.951621 1_555
Co1 O6 1.996595 1_545
Co1 O5 2.108453 1_555
Co1 O2 2.178066 1_455
Co2 O3 1.952786 1_655
Co2 O6 1.963228 1_545
Co2 O2 1.983495 1_555
Co2 O7 2.050728 1_544
Co2 O6 2.082783 1_645
Co2 O3 2.103037 1_555
Co3 O7 1.952786 1_455
Co3 O4 1.963228 1_565
Co3 O8 1.983495 1_555
Co3 O3 2.050728 1_566
Co3 O4 2.082783 1_465
Co3 O7 2.103037 1_555
