# generated using pymatgen
data_Te4Mo2WSe2
_symmetry_space_group_name_H-M   'P 1'
_cell_length_a   3.47535276
_cell_length_b   3.47535276
_cell_length_c   32.06502900
_cell_angle_alpha   90.00000000
_cell_angle_beta   90.00000000
_cell_angle_gamma   120.00001452
_symmetry_Int_Tables_number   1
_chemical_formula_structural   Te4Mo2WSe2
_chemical_formula_sum   'Te4 Mo2 W1 Se2'
_cell_volume   335.39763268
_cell_formula_units_Z   1
loop_
 _symmetry_equiv_pos_site_id
 _symmetry_equiv_pos_as_xyz
  1  'x, y, z'
loop_
 _atom_site_type_symbol
 _atom_site_label
 _atom_site_symmetry_multiplicity
 _atom_site_fract_x
 _atom_site_fract_y
 _atom_site_fract_z
 _atom_site_occupancy
  Te  Te0  1  0.00000000  0.00000000  0.40447800  1
  Te  Te1  1  0.33333300  0.66666700  0.05819000  1
  Te  Te2  1  0.33333300  0.66666700  0.17308300  1
  Te  Te3  1  0.00000000  0.00000000  0.28957000  1
  Mo  Mo0  1  0.00000000  0.00000000  0.11560200  1
  Mo  Mo1  1  0.33333300  0.66666700  0.34699000  1
  W  W0  1  0.00000000  0.00000000  0.57830400  1
  Se  Se0  1  0.33333300  0.66666700  0.52749300  1
  Se  Se1  1  0.33333300  0.66666700  0.62913100  1
loop_
_geom_bond_atom_site_label_1
_geom_bond_atom_site_label_2
_geom_bond_distance
_geom_bond_site_symmetry_2
Mo0 Te1 2.723049 1_545
Mo0 Te1 2.723051 1_555
Mo0 Te1 2.723051 1_445
Mo0 Te2 2.724545 1_545
Mo0 Te2 2.724547 1_555
Mo0 Te2 2.724547 1_445
Mo1 Te3 2.723222 1_565
Mo1 Te3 2.723224 1_555
Mo1 Te3 2.723224 1_665
Mo1 Te0 2.724697 1_565
Mo1 Te0 2.724699 1_665
Mo1 Te0 2.724699 1_555
Se0 W0 2.584665 1_565
Se0 W0 2.584667 1_555
Se0 W0 2.584667 1_665
Se1 W0 2.584989 1_565
Se1 W0 2.584991 1_665
Se1 W0 2.584991 1_555
