# generated using pymatgen
data_CsReS2
_symmetry_space_group_name_H-M   'P 1'
_cell_length_a   11.51478700
_cell_length_b   11.85120700
_cell_length_c   21.20945500
_cell_angle_alpha   90.00000000
_cell_angle_beta   90.00000000
_cell_angle_gamma   90.00000000
_symmetry_Int_Tables_number   1
_chemical_formula_structural   CsReS2
_chemical_formula_sum   'Cs24 Re24 S48'
_cell_volume   2894.32970341
_cell_formula_units_Z   24
loop_
 _symmetry_equiv_pos_site_id
 _symmetry_equiv_pos_as_xyz
  1  'x, y, z'
loop_
 _atom_site_type_symbol
 _atom_site_label
 _atom_site_symmetry_multiplicity
 _atom_site_fract_x
 _atom_site_fract_y
 _atom_site_fract_z
 _atom_site_occupancy
  Cs  Cs0  1  0.00440100  0.64282800  0.15867200  1
  Cs  Cs1  1  0.49559900  0.14282800  0.34132800  1
  Cs  Cs2  1  0.99559900  0.35717200  0.65867200  1
  Cs  Cs3  1  0.50440100  0.85717200  0.84132800  1
  Cs  Cs4  1  0.99559900  0.35717200  0.84132800  1
  Cs  Cs5  1  0.50440100  0.85717200  0.65867200  1
  Cs  Cs6  1  0.00440100  0.64282800  0.34132800  1
  Cs  Cs7  1  0.49559900  0.14282800  0.15867200  1
  Cs  Cs8  1  0.26759900  0.91712300  0.07083200  1
  Cs  Cs9  1  0.23240100  0.41712300  0.42916800  1
  Cs  Cs10  1  0.73240100  0.08287700  0.57083200  1
  Cs  Cs11  1  0.76759900  0.58287700  0.92916800  1
  Cs  Cs12  1  0.73240100  0.08287700  0.92916800  1
  Cs  Cs13  1  0.76759900  0.58287700  0.57083200  1
  Cs  Cs14  1  0.26759900  0.91712300  0.42916800  1
  Cs  Cs15  1  0.23240100  0.41712300  0.07083200  1
  Cs  Cs16  1  0.80572600  0.86577800  0.07891600  1
  Cs  Cs17  1  0.69427400  0.36577800  0.42108400  1
  Cs  Cs18  1  0.19427400  0.13422200  0.57891600  1
  Cs  Cs19  1  0.30572600  0.63422200  0.92108400  1
  Cs  Cs20  1  0.19427400  0.13422200  0.92108400  1
  Cs  Cs21  1  0.30572600  0.63422200  0.57891600  1
  Cs  Cs22  1  0.80572600  0.86577800  0.42108400  1
  Cs  Cs23  1  0.69427400  0.36577800  0.07891600  1
  Re  Re0  1  0.85853900  0.23024800  0.25000000  1
  Re  Re1  1  0.64146100  0.73024800  0.25000000  1
  Re  Re2  1  0.14146100  0.76975200  0.75000000  1
  Re  Re3  1  0.35853900  0.26975200  0.75000000  1
  Re  Re4  1  0.41891200  0.78652900  0.25000000  1
  Re  Re5  1  0.08108800  0.28652900  0.25000000  1
  Re  Re6  1  0.58108800  0.21347100  0.75000000  1
  Re  Re7  1  0.91891200  0.71347100  0.75000000  1
  Re  Re8  1  0.36155800  0.56957900  0.25000000  1
  Re  Re9  1  0.13844200  0.06957900  0.25000000  1
  Re  Re10  1  0.63844200  0.43042100  0.75000000  1
  Re  Re11  1  0.86155800  0.93042100  0.75000000  1
  Re  Re12  1  0.91657600  0.01396200  0.25000000  1
  Re  Re13  1  0.58342400  0.51396200  0.25000000  1
  Re  Re14  1  0.08342400  0.98603800  0.75000000  1
  Re  Re15  1  0.41657600  0.48603800  0.75000000  1
  Re  Re16  1  0.99891400  0.15138500  0.16027600  1
  Re  Re17  1  0.50108600  0.65138500  0.33972400  1
  Re  Re18  1  0.00108600  0.84861500  0.66027600  1
  Re  Re19  1  0.49891400  0.34861500  0.83972400  1
  Re  Re20  1  0.00108600  0.84861500  0.83972400  1
  Re  Re21  1  0.49891400  0.34861500  0.66027600  1
  Re  Re22  1  0.99891400  0.15138500  0.33972400  1
  Re  Re23  1  0.50108600  0.65138500  0.16027600  1
  S  S0  1  0.05091500  0.95068400  0.16995900  1
  S  S1  1  0.44908500  0.45068400  0.33004100  1
  S  S2  1  0.94908500  0.04931600  0.66995900  1
  S  S3  1  0.55091500  0.54931600  0.83004100  1
  S  S4  1  0.94908500  0.04931600  0.83004100  1
  S  S5  1  0.55091500  0.54931600  0.66995900  1
  S  S6  1  0.05091500  0.95068400  0.33004100  1
  S  S7  1  0.44908500  0.45068400  0.16995900  1
  S  S8  1  0.29625900  0.70073500  0.33035500  1
  S  S9  1  0.20374100  0.20073500  0.16964500  1
  S  S10  1  0.70374100  0.29926500  0.83035500  1
  S  S11  1  0.79625900  0.79926500  0.66964500  1
  S  S12  1  0.70374100  0.29926500  0.66964500  1
  S  S13  1  0.79625900  0.79926500  0.83035500  1
  S  S14  1  0.29625900  0.70073500  0.16964500  1
  S  S15  1  0.20374100  0.20073500  0.33035500  1
  S  S16  1  0.94576700  0.34875900  0.16951000  1
  S  S17  1  0.55423300  0.84875900  0.33049000  1
  S  S18  1  0.05423300  0.65124100  0.66951000  1
  S  S19  1  0.44576700  0.15124100  0.83049000  1
  S  S20  1  0.05423300  0.65124100  0.83049000  1
  S  S21  1  0.44576700  0.15124100  0.66951000  1
  S  S22  1  0.94576700  0.34875900  0.33049000  1
  S  S23  1  0.55423300  0.84875900  0.16951000  1
  S  S24  1  0.79404200  0.09865300  0.16917000  1
  S  S25  1  0.70595800  0.59865300  0.33083000  1
  S  S26  1  0.20595800  0.90134700  0.66917000  1
  S  S27  1  0.29404200  0.40134700  0.83083000  1
  S  S28  1  0.20595800  0.90134700  0.83083000  1
  S  S29  1  0.29404200  0.40134700  0.66917000  1
  S  S30  1  0.79404200  0.09865300  0.33083000  1
  S  S31  1  0.70595800  0.59865300  0.16917000  1
  S  S32  1  0.50025600  0.66065500  0.04658200  1
  S  S33  1  0.99974400  0.16065500  0.45341800  1
  S  S34  1  0.49974400  0.33934500  0.54658200  1
  S  S35  1  0.00025600  0.83934500  0.95341800  1
  S  S36  1  0.49974400  0.33934500  0.95341800  1
  S  S37  1  0.00025600  0.83934500  0.54658200  1
  S  S38  1  0.50025600  0.66065500  0.45341800  1
  S  S39  1  0.99974400  0.16065500  0.04658200  1
  S  S40  1  0.83583600  0.81814600  0.25000000  1
  S  S41  1  0.66416400  0.31814600  0.25000000  1
  S  S42  1  0.16416400  0.18185400  0.75000000  1
  S  S43  1  0.33583600  0.68185400  0.75000000  1
  S  S44  1  0.33162500  0.97762900  0.25000000  1
  S  S45  1  0.16837500  0.47762900  0.25000000  1
  S  S46  1  0.66837500  0.02237100  0.75000000  1
  S  S47  1  0.83162500  0.52237100  0.75000000  1
loop_
_geom_bond_atom_site_label_1
_geom_bond_atom_site_label_2
_geom_bond_distance
_geom_bond_site_symmetry_2
Cs0 S45 3.339171 1_555
Cs0 S14 3.437923 1_555
Cs0 S40 3.440413 1_455
Cs0 S31 3.483280 1_455
Cs0 S16 3.557304 1_455
Cs0 S0 3.695331 1_555
Cs1 S44 3.339171 1_545
Cs1 S15 3.437923 1_555
Cs1 S41 3.440413 1_555
Cs1 S30 3.483280 1_555
Cs1 S17 3.557304 1_545
Cs1 S1 3.695331 1_555
Cs2 S47 3.339171 1_555
Cs2 S12 3.437923 1_555
Cs2 S42 3.440413 1_655
Cs2 S29 3.483280 1_655
Cs2 S18 3.557304 1_655
Cs2 S2 3.695331 1_555
Cs3 S46 3.339171 1_565
Cs3 S13 3.437923 1_555
Cs3 S43 3.440413 1_555
Cs3 S28 3.483280 1_555
Cs3 S19 3.557304 1_565
Cs3 S3 3.695331 1_555
Cs4 S47 3.339171 1_555
Cs4 S10 3.437923 1_555
Cs4 S42 3.440413 1_655
Cs4 S27 3.483280 1_655
Cs4 S20 3.557304 1_655
Cs4 S4 3.695331 1_555
Cs5 S46 3.339171 1_565
Cs5 S11 3.437923 1_555
Cs5 S43 3.440413 1_555
Cs5 S26 3.483280 1_555
Cs5 S21 3.557304 1_565
Cs5 S5 3.695331 1_555
Cs6 S45 3.339171 1_555
Cs6 S8 3.437923 1_555
Cs6 S40 3.440413 1_455
Cs6 S25 3.483280 1_455
Cs6 S22 3.557304 1_455
Cs6 S6 3.695331 1_555
Cs7 S44 3.339171 1_545
Cs7 S9 3.437923 1_555
Cs7 S41 3.440413 1_555
Cs7 S24 3.483280 1_555
Cs7 S23 3.557304 1_545
Cs7 S7 3.695331 1_555
Cs8 S0 3.286911 1_555
Cs8 S14 3.328304 1_555
Cs8 S23 3.991262 1_555
Cs9 S1 3.286911 1_555
Cs9 S15 3.328304 1_555
Cs9 S22 3.991262 1_455
Cs10 S2 3.286911 1_555
Cs10 S12 3.328304 1_555
Cs10 S21 3.991262 1_555
Cs11 S3 3.286911 1_555
Cs11 S13 3.328304 1_555
Cs11 S20 3.991262 1_655
Cs12 S4 3.286911 1_555
Cs12 S10 3.328304 1_555
Cs12 S19 3.991262 1_555
Cs13 S5 3.286911 1_555
Cs13 S11 3.328304 1_555
Cs13 S18 3.991262 1_655
Cs14 S6 3.286911 1_555
Cs14 S8 3.328304 1_555
Cs14 S17 3.991262 1_555
Cs15 S7 3.286911 1_555
Cs15 S9 3.328304 1_555
Cs15 S16 3.991262 1_455
Cs16 S24 3.361425 1_565
Cs16 S23 3.481209 1_555
Cs16 S35 3.492920 1_654
Cs16 S0 3.565416 1_655
Cs16 S40 3.688576 1_555
Cs16 S31 3.873766 1_555
Cs17 S25 3.361425 1_555
Cs17 S22 3.481209 1_555
Cs17 S34 3.492920 1_555
Cs17 S1 3.565416 1_555
Cs17 S41 3.688576 1_555
Cs17 S30 3.873766 1_555
Cs18 S26 3.361425 1_545
Cs18 S21 3.481209 1_555
Cs18 S33 3.492920 1_455
Cs18 S2 3.565416 1_455
Cs18 S42 3.688576 1_555
Cs18 S29 3.873766 1_555
Cs19 S27 3.361425 1_555
Cs19 S20 3.481209 1_555
Cs19 S32 3.492920 1_556
Cs19 S3 3.565416 1_555
Cs19 S43 3.688576 1_555
Cs19 S28 3.873766 1_555
Cs20 S28 3.361425 1_545
Cs20 S19 3.481209 1_555
Cs20 S39 3.492920 1_456
Cs20 S4 3.565416 1_455
Cs20 S42 3.688576 1_555
Cs20 S27 3.873766 1_555
Cs21 S29 3.361425 1_555
Cs21 S18 3.481209 1_555
Cs21 S38 3.492920 1_555
Cs21 S5 3.565416 1_555
Cs21 S43 3.688576 1_555
Cs21 S26 3.873766 1_555
Cs22 S30 3.361425 1_565
Cs22 S17 3.481209 1_555
Cs22 S37 3.492920 1_655
Cs22 S6 3.565416 1_655
Cs22 S40 3.688576 1_555
Cs22 S25 3.873766 1_555
Cs23 S31 3.361425 1_555
Cs23 S16 3.481209 1_555
Cs23 S36 3.492920 1_554
Cs23 S7 3.565416 1_555
Cs23 S41 3.688576 1_555
Cs23 S24 3.873766 1_555
Re0 S16 2.428130 1_555
Re0 S22 2.428130 1_555
Re0 S30 2.433683 1_555
Re0 S24 2.433683 1_555
Re0 S41 2.468727 1_555
Re1 S23 2.428130 1_555
Re1 S17 2.428130 1_555
Re1 S31 2.433683 1_555
Re1 S25 2.433683 1_555
Re1 S40 2.468727 1_555
Re2 S20 2.428130 1_555
Re2 S18 2.428130 1_555
Re2 S28 2.433683 1_555
Re2 S26 2.433683 1_555
Re2 S43 2.468727 1_555
Re3 S21 2.428130 1_555
Re3 S19 2.428130 1_555
Re3 S29 2.433683 1_555
Re3 S27 2.433683 1_555
Re3 S42 2.468727 1_555
Re4 S17 2.426155 1_555
Re4 S23 2.426155 1_555
Re4 S14 2.435786 1_555
Re4 S8 2.435786 1_555
Re4 S44 2.477776 1_555
Re5 S22 2.426155 1_455
Re5 S16 2.426155 1_455
Re5 S15 2.435786 1_555
Re5 S9 2.435786 1_555
Re5 S45 2.477776 1_555
Re6 S21 2.426155 1_555
Re6 S19 2.426155 1_555
Re6 S10 2.435786 1_555
Re6 S12 2.435786 1_555
Re6 S46 2.477776 1_555
Re7 S18 2.426155 1_655
Re7 S20 2.426155 1_655
Re7 S13 2.435786 1_555
Re7 S11 2.435786 1_555
Re7 S47 2.477776 1_555
Re8 S1 2.425515 1_555
Re8 S7 2.425515 1_555
Re8 S8 2.426103 1_555
Re8 S14 2.426103 1_555
Re8 S45 2.477037 1_555
Re9 S6 2.425515 1_545
Re9 S0 2.425515 1_545
Re9 S15 2.426103 1_555
Re9 S9 2.426103 1_555
Re9 S44 2.477037 1_545
Re10 S3 2.425515 1_555
Re10 S5 2.425515 1_555
Re10 S12 2.426103 1_555
Re10 S10 2.426103 1_555
Re10 S47 2.477037 1_555
Re11 S4 2.425515 1_565
Re11 S2 2.425515 1_565
Re11 S11 2.426103 1_555
Re11 S13 2.426103 1_555
Re11 S46 2.477037 1_565
Re12 S6 2.416023 1_645
Re12 S0 2.416023 1_645
Re12 S30 2.436640 1_555
Re12 S24 2.436640 1_555
Re12 S40 2.499959 1_545
Re13 S1 2.416023 1_555
Re13 S7 2.416023 1_555
Re13 S25 2.436640 1_555
Re13 S31 2.436640 1_555
Re13 S41 2.499959 1_555
Re14 S4 2.416023 1_465
Re14 S2 2.416023 1_465
Re14 S28 2.436640 1_555
Re14 S26 2.436640 1_555
Re14 S42 2.499959 1_565
Re15 S3 2.416023 1_555
Re15 S5 2.416023 1_555
Re15 S27 2.436640 1_555
Re15 S29 2.436640 1_555
Re15 S43 2.499959 1_555
Re16 S39 2.413908 1_555
Re16 S16 2.425769 1_555
Re16 S9 2.438084 1_655
Re16 S24 2.447710 1_555
Re16 S0 2.461343 1_645
Re17 S38 2.413908 1_555
Re17 S17 2.425769 1_555
Re17 S8 2.438084 1_555
Re17 S25 2.447710 1_555
Re17 S1 2.461343 1_555
Re18 S37 2.413908 1_555
Re18 S18 2.425769 1_555
Re18 S11 2.438084 1_455
Re18 S26 2.447710 1_555
Re18 S2 2.461343 1_465
Re19 S36 2.413908 1_555
Re19 S19 2.425769 1_555
Re19 S10 2.438084 1_555
Re19 S27 2.447710 1_555
Re19 S3 2.461343 1_555
Re20 S35 2.413908 1_555
Re20 S20 2.425769 1_555
Re20 S13 2.438084 1_455
Re20 S28 2.447710 1_555
Re20 S4 2.461343 1_465
Re21 S34 2.413908 1_555
Re21 S21 2.425769 1_555
Re21 S12 2.438084 1_555
Re21 S29 2.447710 1_555
Re21 S5 2.461343 1_555
Re22 S33 2.413908 1_555
Re22 S22 2.425769 1_555
Re22 S15 2.438084 1_655
Re22 S30 2.447710 1_555
Re22 S6 2.461343 1_645
Re23 S32 2.413908 1_555
Re23 S23 2.425769 1_555
Re23 S14 2.438084 1_555
Re23 S31 2.447710 1_555
Re23 S7 2.461343 1_555
