# generated using pymatgen
data_NbTe4Os
_symmetry_space_group_name_H-M   'P 1'
_cell_length_a   3.77892700
_cell_length_b   12.61730300
_cell_length_c   13.65790500
_cell_angle_alpha   90.00000000
_cell_angle_beta   90.00000000
_cell_angle_gamma   90.00000000
_symmetry_Int_Tables_number   1
_chemical_formula_structural   NbTe4Os
_chemical_formula_sum   'Nb4 Te16 Os4'
_cell_volume   651.20709354
_cell_formula_units_Z   4
loop_
 _symmetry_equiv_pos_site_id
 _symmetry_equiv_pos_as_xyz
  1  'x, y, z'
loop_
 _atom_site_type_symbol
 _atom_site_label
 _atom_site_symmetry_multiplicity
 _atom_site_fract_x
 _atom_site_fract_y
 _atom_site_fract_z
 _atom_site_occupancy
  Nb  Nb0  1  0.50000000  0.94114000  0.50587000  1
  Nb  Nb1  1  0.00000000  0.05886000  0.00587000  1
  Nb  Nb2  1  0.50000000  0.72462400  0.98951900  1
  Nb  Nb3  1  0.00000000  0.27537600  0.48951900  1
  Te  Te0  1  0.50000000  0.93352600  0.89514100  1
  Te  Te1  1  0.00000000  0.06647400  0.39514100  1
  Te  Te2  1  0.50000000  0.80289700  0.35425900  1
  Te  Te3  1  0.00000000  0.19710300  0.85425900  1
  Te  Te4  1  0.50000000  0.65229300  0.59124600  1
  Te  Te5  1  0.00000000  0.34770700  0.09124600  1
  Te  Te6  1  0.50000000  0.58320700  0.13751900  1
  Te  Te7  1  0.00000000  0.41679300  0.63751900  1
  Te  Te8  1  0.50000000  0.43489000  0.89985800  1
  Te  Te9  1  0.00000000  0.56511000  0.39985800  1
  Te  Te10  1  0.50000000  0.32474100  0.34752300  1
  Te  Te11  1  0.00000000  0.67525900  0.84752300  1
  Te  Te12  1  0.50000000  0.14991500  0.60341400  1
  Te  Te13  1  0.00000000  0.85008500  0.10341400  1
  Te  Te14  1  0.50000000  0.10886400  0.14763100  1
  Te  Te15  1  0.00000000  0.89113600  0.64763100  1
  Os  Os0  1  0.50000000  0.45507100  0.50268700  1
  Os  Os1  1  0.00000000  0.54492900  0.00268700  1
  Os  Os2  1  0.50000000  0.23688200  0.98933500  1
  Os  Os3  1  0.00000000  0.76311800  0.48933500  1
loop_
_geom_bond_atom_site_label_1
_geom_bond_atom_site_label_2
_geom_bond_distance
_geom_bond_site_symmetry_2
Nb0 Te2 2.707429 1_555
Nb0 Te15 2.777919 1_555
Nb0 Te15 2.777919 1_655
Nb0 Te1 2.891013 1_665
Nb0 Te1 2.891013 1_565
Nb0 Os3 2.943857 1_555
Nb0 Os3 2.943857 1_655
Nb0 Te12 2.951910 1_565
Nb1 Te3 2.707429 1_554
Nb1 Te14 2.777919 1_555
Nb1 Te14 2.777919 1_455
Nb1 Te0 2.891013 1_544
Nb1 Te0 2.891013 1_444
Nb1 Os2 2.943857 1_454
Nb1 Os2 2.943857 1_554
Nb1 Te13 2.951910 1_545
Nb2 Te6 2.696232 1_556
Nb2 Te11 2.778339 1_555
Nb2 Te11 2.778339 1_655
Nb2 Te13 2.914736 1_656
Nb2 Te13 2.914736 1_556
Nb2 Te0 2.934088 1_555
Nb2 Os1 2.956842 1_656
Nb2 Os1 2.956842 1_556
Nb3 Te7 2.696232 1_555
Nb3 Te10 2.778339 1_455
Nb3 Te10 2.778339 1_555
Nb3 Te12 2.914736 1_455
Nb3 Te12 2.914736 1_555
Nb3 Te1 2.934088 1_555
Nb3 Os0 2.956842 1_555
Nb3 Os0 2.956842 1_455
Os0 Te7 2.682263 1_555
Os0 Te7 2.682263 1_655
Os0 Te10 2.682381 1_555
Os0 Te9 2.733155 1_555
Os0 Te9 2.733155 1_655
Os0 Te4 2.766794 1_555
Os1 Te6 2.682263 1_555
Os1 Te6 2.682263 1_455
Os1 Te11 2.682381 1_554
Os1 Te8 2.733155 1_554
Os1 Te8 2.733155 1_454
Os1 Te5 2.766794 1_555
Os2 Te3 2.688023 1_655
Os2 Te3 2.688023 1_555
Os2 Te14 2.698743 1_556
Os2 Te5 2.731796 1_556
Os2 Te5 2.731796 1_656
Os2 Te8 2.781203 1_555
Os3 Te2 2.688023 1_455
Os3 Te2 2.688023 1_555
Os3 Te15 2.698743 1_555
Os3 Te4 2.731796 1_455
Os3 Te4 2.731796 1_555
Os3 Te9 2.781203 1_555
