# generated using pymatgen
data_Li4AlNi3O8
_symmetry_space_group_name_H-M   'P 1'
_cell_length_a   19.28430010
_cell_length_b   19.28430010
_cell_length_c   19.28429992
_cell_angle_alpha   8.56341627
_cell_angle_beta   8.56341627
_cell_angle_gamma   8.56341657
_symmetry_Int_Tables_number   1
_chemical_formula_structural   Li4AlNi3O8
_chemical_formula_sum   'Li4 Al1 Ni3 O8'
_cell_volume   137.96299549
_cell_formula_units_Z   1
loop_
 _symmetry_equiv_pos_site_id
 _symmetry_equiv_pos_as_xyz
  1  'x, y, z'
loop_
 _atom_site_type_symbol
 _atom_site_label
 _atom_site_symmetry_multiplicity
 _atom_site_fract_x
 _atom_site_fract_y
 _atom_site_fract_z
 _atom_site_occupancy
  Li  Li0  1  0.62528500  0.62528500  0.62528500  1
  Li  Li1  1  0.87504800  0.87504800  0.87504800  1
  Li  Li2  1  0.37471500  0.37471500  0.37471500  1
  Li  Li3  1  0.12495200  0.12495200  0.12495200  1
  Al  Al0  1  0.00000000  0.00000000  0.00000000  1
  Ni  Ni0  1  0.74992200  0.74992200  0.74992200  1
  Ni  Ni1  1  0.50000000  0.50000000  0.50000000  1
  Ni  Ni2  1  0.25007800  0.25007800  0.25007800  1
  O  O0  1  0.93553300  0.93553300  0.93553300  1
  O  O1  1  0.18559300  0.18559300  0.18559300  1
  O  O2  1  0.68416800  0.68416800  0.68416800  1
  O  O3  1  0.43567200  0.43567200  0.43567200  1
  O  O4  1  0.31583200  0.31583200  0.31583200  1
  O  O5  1  0.56432800  0.56432800  0.56432800  1
  O  O6  1  0.06446700  0.06446700  0.06446700  1
  O  O7  1  0.81440700  0.81440700  0.81440700  1
loop_
_geom_bond_atom_site_label_1
_geom_bond_atom_site_label_2
_geom_bond_distance
_geom_bond_site_symmetry_2
Li0 O0 2.129407 1_554
Li0 O0 2.129407 1_455
Li0 O0 2.129407 1_545
Li0 O4 2.158336 1_556
Li0 O4 2.158336 1_565
Li0 O4 2.158336 1_655
Li1 O5 2.112514 1_556
Li1 O5 2.112515 1_565
Li1 O5 2.112515 1_655
Li1 O1 2.118753 1_665
Li1 O1 2.118753 1_656
Li1 O1 2.118753 1_566
Li2 O6 2.129407 1_556
Li2 O6 2.129407 1_565
Li2 O6 2.129407 1_655
Li2 O2 2.158336 1_554
Li2 O2 2.158336 1_455
Li2 O2 2.158336 1_545
Li3 O3 2.112514 1_554
Li3 O3 2.112515 1_455
Li3 O3 2.112515 1_545
Li3 O7 2.118753 1_445
Li3 O7 2.118753 1_454
Li3 O7 2.118753 1_544
Al0 O2 1.944600 1_445
Al0 O4 1.944600 1_554
Al0 O2 1.944601 1_454
Al0 O4 1.944601 1_545
Al0 O2 1.944601 1_544
Al0 O4 1.944601 1_455
Ni0 O6 1.984094 1_665
Ni0 O6 1.984094 1_566
Ni0 O6 1.984094 1_656
Ni0 O3 1.993425 1_556
Ni0 O3 1.993425 1_565
Ni0 O3 1.993425 1_655
Ni1 O1 1.988446 1_556
Ni1 O7 1.988446 1_554
Ni1 O1 1.988446 1_565
Ni1 O1 1.988446 1_655
Ni1 O7 1.988446 1_545
Ni1 O7 1.988446 1_455
Ni2 O0 1.984094 1_445
Ni2 O0 1.984094 1_544
Ni2 O0 1.984094 1_454
Ni2 O5 1.993425 1_554
Ni2 O5 1.993425 1_545
Ni2 O5 1.993425 1_455
