# generated using pymatgen
data_Co3Sb4(OF)6
_symmetry_space_group_name_H-M   'P 1'
_cell_length_a   8.31271100
_cell_length_b   8.31271100
_cell_length_c   8.31271100
_cell_angle_alpha   90.00000000
_cell_angle_beta   90.00000000
_cell_angle_gamma   90.00000000
_symmetry_Int_Tables_number   1
_chemical_formula_structural   Co3Sb4(OF)6
_chemical_formula_sum   'Co6 Sb8 O12 F12'
_cell_volume   574.41800750
_cell_formula_units_Z   2
loop_
 _symmetry_equiv_pos_site_id
 _symmetry_equiv_pos_as_xyz
  1  'x, y, z'
loop_
 _atom_site_type_symbol
 _atom_site_label
 _atom_site_symmetry_multiplicity
 _atom_site_fract_x
 _atom_site_fract_y
 _atom_site_fract_z
 _atom_site_occupancy
  Co  Co0  1  0.50000000  0.00000000  0.50000000  1
  Co  Co1  1  0.00000000  0.50000000  0.50000000  1
  Co  Co2  1  0.50000000  0.50000000  0.00000000  1
  Co  Co3  1  0.00000000  0.50000000  0.00000000  1
  Co  Co4  1  0.50000000  0.00000000  0.00000000  1
  Co  Co5  1  0.00000000  0.00000000  0.50000000  1
  Sb  Sb0  1  0.15875200  0.15875200  0.84124800  1
  Sb  Sb1  1  0.65875200  0.65875200  0.34124800  1
  Sb  Sb2  1  0.34124800  0.34124800  0.34124800  1
  Sb  Sb3  1  0.84124800  0.84124800  0.84124800  1
  Sb  Sb4  1  0.65875200  0.34124800  0.65875200  1
  Sb  Sb5  1  0.15875200  0.84124800  0.15875200  1
  Sb  Sb6  1  0.34124800  0.65875200  0.65875200  1
  Sb  Sb7  1  0.84124800  0.15875200  0.15875200  1
  O  O0  1  0.00000000  0.24893000  0.00000000  1
  O  O1  1  0.50000000  0.74893000  0.50000000  1
  O  O2  1  0.75107000  0.00000000  0.00000000  1
  O  O3  1  0.25107000  0.50000000  0.50000000  1
  O  O4  1  0.00000000  0.00000000  0.24893000  1
  O  O5  1  0.50000000  0.50000000  0.74893000  1
  O  O6  1  0.00000000  0.75107000  0.00000000  1
  O  O7  1  0.50000000  0.25107000  0.50000000  1
  O  O8  1  0.24893000  0.00000000  0.00000000  1
  O  O9  1  0.74893000  0.50000000  0.50000000  1
  O  O10  1  0.00000000  0.00000000  0.75107000  1
  O  O11  1  0.50000000  0.50000000  0.25107000  1
  F  F0  1  0.00000000  0.50000000  0.75000000  1
  F  F1  1  0.50000000  0.00000000  0.25000000  1
  F  F2  1  0.00000000  0.25000000  0.50000000  1
  F  F3  1  0.50000000  0.75000000  0.00000000  1
  F  F4  1  0.25000000  0.00000000  0.50000000  1
  F  F5  1  0.75000000  0.50000000  0.00000000  1
  F  F6  1  0.50000000  0.00000000  0.75000000  1
  F  F7  1  0.00000000  0.50000000  0.25000000  1
  F  F8  1  0.25000000  0.50000000  0.00000000  1
  F  F9  1  0.75000000  0.00000000  0.50000000  1
  F  F10  1  0.50000000  0.25000000  0.00000000  1
  F  F11  1  0.00000000  0.75000000  0.50000000  1
loop_
_geom_bond_atom_site_label_1
_geom_bond_atom_site_label_2
_geom_bond_distance
_geom_bond_site_symmetry_2
Co0 F9 2.078178 1_555
Co0 F6 2.078178 1_555
Co0 F4 2.078178 1_555
Co0 F1 2.078178 1_555
Co0 O1 2.087072 1_545
Co0 O7 2.087072 1_555
Co1 F0 2.078178 1_555
Co1 F7 2.078178 1_555
Co1 F2 2.078178 1_555
Co1 F11 2.078178 1_555
Co1 O3 2.087072 1_555
Co1 O9 2.087072 1_455
Co2 F5 2.078178 1_555
Co2 F3 2.078178 1_555
Co2 F10 2.078178 1_555
Co2 F8 2.078178 1_555
Co2 O5 2.087072 1_554
Co2 O11 2.087072 1_555
Co3 F7 2.078178 1_555
Co3 F8 2.078178 1_555
Co3 F5 2.078178 1_455
Co3 F0 2.078178 1_554
Co3 O0 2.087072 1_555
Co3 O6 2.087072 1_555
Co4 F6 2.078178 1_554
Co4 F10 2.078178 1_555
Co4 F3 2.078178 1_545
Co4 F1 2.078178 1_555
Co4 O8 2.087072 1_555
Co4 O2 2.087072 1_555
Co5 F4 2.078178 1_555
Co5 F2 2.078178 1_555
Co5 F11 2.078178 1_545
Co5 F9 2.078178 1_455
Co5 O4 2.087072 1_555
Co5 O10 2.087072 1_555
O0 Sb0 2.011203 1_554
O0 Sb7 2.011203 1_455
O1 Sb6 2.011203 1_555
O1 Sb1 2.011203 1_555
O2 Sb7 2.011203 1_555
O2 Sb3 2.011203 1_544
O3 Sb6 2.011203 1_555
O3 Sb2 2.011203 1_555
O4 Sb5 2.011203 1_545
O4 Sb7 2.011203 1_455
O5 Sb6 2.011203 1_555
O5 Sb4 2.011203 1_555
O6 Sb3 2.011203 1_454
O6 Sb5 2.011203 1_555
O7 Sb4 2.011203 1_555
O7 Sb2 2.011203 1_555
O8 Sb5 2.011203 1_545
O8 Sb0 2.011203 1_554
O9 Sb1 2.011203 1_555
O9 Sb4 2.011203 1_555
O10 Sb3 2.011203 1_445
O10 Sb0 2.011203 1_555
O11 Sb1 2.011203 1_555
O11 Sb2 2.011203 1_555
