# generated using pymatgen
data_Tm3Ga8Ag3
_symmetry_space_group_name_H-M   'P 1'
_cell_length_a   4.36009900
_cell_length_b   8.26204067
_cell_length_c   8.26204067
_cell_angle_alpha   70.55916471
_cell_angle_beta   74.70058142
_cell_angle_gamma   74.70058142
_symmetry_Int_Tables_number   1
_chemical_formula_structural   Tm3Ga8Ag3
_chemical_formula_sum   'Tm3 Ga8 Ag3'
_cell_volume   265.59199718
_cell_formula_units_Z   1
loop_
 _symmetry_equiv_pos_site_id
 _symmetry_equiv_pos_as_xyz
  1  'x, y, z'
loop_
 _atom_site_type_symbol
 _atom_site_label
 _atom_site_symmetry_multiplicity
 _atom_site_fract_x
 _atom_site_fract_y
 _atom_site_fract_z
 _atom_site_occupancy
  Tm  Tm0  1  0.50000000  0.50000000  0.50000000  1
  Tm  Tm1  1  0.20417800  0.79582200  0.79582200  1
  Tm  Tm2  1  0.79582200  0.20417800  0.20417800  1
  Ga  Ga0  1  0.35801700  0.36104100  0.92292500  1
  Ga  Ga1  1  0.64198300  0.63895900  0.07707500  1
  Ga  Ga2  1  0.35801700  0.92292500  0.36104100  1
  Ga  Ga3  1  0.64198300  0.07707500  0.63895900  1
  Ga  Ga4  1  0.15720600  0.47319400  0.21239400  1
  Ga  Ga5  1  0.84279400  0.52680600  0.78760600  1
  Ga  Ga6  1  0.15720600  0.21239400  0.47319400  1
  Ga  Ga7  1  0.84279400  0.78760600  0.52680600  1
  Ag  Ag0  1  0.50000000  0.00000000  0.00000000  1
  Ag  Ag1  1  0.00000000  0.81221200  0.18778800  1
  Ag  Ag2  1  0.00000000  0.18778800  0.81221200  1
loop_
_geom_bond_atom_site_label_1
_geom_bond_atom_site_label_2
_geom_bond_distance
_geom_bond_site_symmetry_2
Tm0 Tm1 3.776240 1_555
Tm0 Tm2 3.776240 1_555
Ga0 Ga5 2.618127 1_555
Ga0 Ga5 2.618127 1_455
Ga0 Ga4 2.699438 1_556
Ga0 Tm2 3.123093 1_556
Ga0 Tm2 3.123093 1_456
Ga0 Tm0 3.236361 1_555
Ga0 Tm1 3.323484 1_555
Ga1 Ga4 2.618127 1_555
Ga1 Ga4 2.618127 1_655
Ga1 Ga5 2.699438 1_554
Ga1 Tm1 3.123093 1_554
Ga1 Tm1 3.123093 1_654
Ga1 Tm0 3.236361 1_555
Ga1 Tm2 3.323484 1_555
Ga2 Ga7 2.618127 1_555
Ga2 Ga7 2.618127 1_455
Ga2 Ga6 2.699438 1_565
Ga2 Tm2 3.123093 1_565
Ga2 Tm2 3.123093 1_465
Ga2 Tm0 3.236361 1_555
Ga2 Tm1 3.323484 1_555
Ga3 Ga6 2.618127 1_555
Ga3 Ga6 2.618127 1_655
Ga3 Ga7 2.699438 1_545
Ga3 Tm1 3.123093 1_545
Ga3 Tm1 3.123093 1_645
Ga3 Tm0 3.236361 1_555
Ga3 Tm2 3.323484 1_555
Ga4 Ga6 2.489013 1_555
Ga4 Tm2 3.071225 1_455
Ga4 Tm2 3.071225 1_555
Ga4 Tm0 3.213806 1_555
Ga4 Tm0 3.213806 1_455
Ga4 Tm1 3.577974 1_554
Ga5 Ga7 2.489013 1_555
Ga5 Tm1 3.071225 1_655
Ga5 Tm1 3.071225 1_555
Ga5 Tm0 3.213806 1_555
Ga5 Tm0 3.213806 1_655
Ga5 Tm2 3.577974 1_556
Ga6 Tm2 3.071225 1_455
Ga6 Tm2 3.071225 1_555
Ga6 Tm0 3.213806 1_555
Ga6 Tm0 3.213806 1_455
Ga6 Tm1 3.577974 1_545
Ga7 Tm1 3.071225 1_655
Ga7 Tm1 3.071225 1_555
Ga7 Tm0 3.213806 1_555
Ga7 Tm0 3.213806 1_655
Ga7 Tm2 3.577974 1_565
Ag0 Ga2 2.766899 1_545
Ag0 Ga0 2.766899 1_554
Ag0 Ga1 2.766899 1_545
Ag0 Ga3 2.766899 1_554
Ag0 Ag2 2.822164 1_654
Ag0 Ag1 2.822164 1_645
Ag0 Ag1 2.822164 1_545
Ag0 Ag2 2.822164 1_554
Ag0 Tm2 3.397917 1_555
Ag0 Tm1 3.397917 1_544
Ag0 Tm2 3.397918 1_455
Ag0 Tm1 3.397918 1_644
Ag1 Ga4 2.652914 1_555
Ag1 Ga7 2.652914 1_455
Ag1 Ga1 2.850727 1_455
Ag1 Ga2 2.850727 1_555
Ag1 Ga1 2.850727 1_555
Ag1 Ga2 2.850727 1_455
Ag1 Tm1 3.163103 1_554
Ag1 Tm2 3.163103 1_465
Ag2 Ga6 2.652914 1_555
Ag2 Ga5 2.652914 1_455
Ag2 Ga3 2.850727 1_455
Ag2 Ga0 2.850727 1_555
Ag2 Ga3 2.850727 1_555
Ag2 Ga0 2.850727 1_455
Ag2 Tm1 3.163103 1_545
Ag2 Tm2 3.163103 1_456
