# generated using pymatgen
data_Sm3W(ClO2)3
_symmetry_space_group_name_H-M   'P 1'
_cell_length_a   9.27214242
_cell_length_b   9.27214242
_cell_length_c   5.36696700
_cell_angle_alpha   90.00000000
_cell_angle_beta   90.00000000
_cell_angle_gamma   120.00000297
_symmetry_Int_Tables_number   1
_chemical_formula_structural   Sm3W(ClO2)3
_chemical_formula_sum   'Sm6 W2 Cl6 O12'
_cell_volume   399.59471054
_cell_formula_units_Z   2
loop_
 _symmetry_equiv_pos_site_id
 _symmetry_equiv_pos_as_xyz
  1  'x, y, z'
loop_
 _atom_site_type_symbol
 _atom_site_label
 _atom_site_symmetry_multiplicity
 _atom_site_fract_x
 _atom_site_fract_y
 _atom_site_fract_z
 _atom_site_occupancy
  Sm  Sm0  1  0.40465000  0.09072500  0.25000000  1
  Sm  Sm1  1  0.59535000  0.90927500  0.75000000  1
  Sm  Sm2  1  0.90927500  0.31392600  0.25000000  1
  Sm  Sm3  1  0.09072500  0.68607400  0.75000000  1
  Sm  Sm4  1  0.68607400  0.59535000  0.25000000  1
  Sm  Sm5  1  0.31392600  0.40465000  0.75000000  1
  W  W0  1  0.33333300  0.66666700  0.25000000  1
  W  W1  1  0.66666700  0.33333300  0.75000000  1
  Cl  Cl0  1  0.19081300  0.23986600  0.25000000  1
  Cl  Cl1  1  0.80918700  0.76013400  0.75000000  1
  Cl  Cl2  1  0.76013400  0.95094600  0.25000000  1
  Cl  Cl3  1  0.23986600  0.04905400  0.75000000  1
  Cl  Cl4  1  0.04905400  0.80918700  0.25000000  1
  Cl  Cl5  1  0.95094600  0.19081300  0.75000000  1
  O  O0  1  0.15747600  0.52187400  0.01505200  1
  O  O1  1  0.84252400  0.47812600  0.98494800  1
  O  O2  1  0.47812600  0.63560100  0.01505200  1
  O  O3  1  0.84252400  0.47812600  0.51505200  1
  O  O4  1  0.52187400  0.36439900  0.98494800  1
  O  O5  1  0.15747600  0.52187400  0.48494800  1
  O  O6  1  0.36439900  0.84252400  0.01505200  1
  O  O7  1  0.52187400  0.36439900  0.51505200  1
  O  O8  1  0.63560100  0.15747600  0.98494800  1
  O  O9  1  0.47812600  0.63560100  0.48494800  1
  O  O10  1  0.63560100  0.15747600  0.51505200  1
  O  O11  1  0.36439900  0.84252400  0.48494800  1
loop_
_geom_bond_atom_site_label_1
_geom_bond_atom_site_label_2
_geom_bond_distance
_geom_bond_site_symmetry_2
Cl0 Sm0 2.930073 1_555
Cl0 Sm2 3.013079 1_455
Cl0 Sm5 3.015709 1_555
Cl0 Sm5 3.015709 1_554
Cl1 Sm1 2.930073 1_555
Cl1 Sm3 3.013079 1_655
Cl1 Sm4 3.015709 1_555
Cl1 Sm4 3.015709 1_556
Cl2 Sm2 2.930090 1_565
Cl2 Sm4 3.013060 1_555
Cl2 Sm1 3.015710 1_555
Cl2 Sm1 3.015710 1_554
Cl3 Sm3 2.930090 1_545
Cl3 Sm5 3.013060 1_555
Cl3 Sm0 3.015710 1_556
Cl3 Sm0 3.015710 1_555
Cl4 Sm4 2.930088 1_455
Cl4 Sm0 3.013066 1_565
Cl4 Sm3 3.015710 1_554
Cl4 Sm3 3.015710 1_555
Cl5 Sm5 2.930088 1_655
Cl5 Sm1 3.013066 1_545
Cl5 Sm2 3.015710 1_555
Cl5 Sm2 3.015710 1_556
O0 W0 1.965219 1_555
O0 Sm3 2.380528 1_554
O0 Sm2 2.483267 1_455
O0 Sm5 2.624118 1_554
O1 W1 1.965219 1_555
O1 Sm2 2.380528 1_556
O1 Sm3 2.483267 1_655
O1 Sm4 2.624118 1_556
O2 W0 1.965228 1_555
O2 Sm5 2.380528 1_554
O2 Sm4 2.483257 1_555
O2 Sm1 2.624118 1_554
O3 W1 1.965219 1_555
O3 Sm2 2.380528 1_555
O3 Sm3 2.483267 1_655
O3 Sm4 2.624118 1_555
O4 W1 1.965228 1_555
O4 Sm4 2.380528 1_556
O4 Sm5 2.483257 1_555
O4 Sm0 2.624118 1_556
O5 W0 1.965219 1_555
O5 Sm3 2.380528 1_555
O5 Sm2 2.483267 1_455
O5 Sm5 2.624118 1_555
O6 W0 1.965214 1_555
O6 Sm1 2.380528 1_554
O6 Sm0 2.483273 1_565
O6 Sm3 2.624118 1_554
O7 W1 1.965228 1_555
O7 Sm4 2.380528 1_555
O7 Sm5 2.483257 1_555
O7 Sm0 2.624118 1_555
O8 W1 1.965214 1_555
O8 Sm0 2.380528 1_556
O8 Sm1 2.483273 1_545
O8 Sm2 2.624118 1_556
O9 W0 1.965228 1_555
O9 Sm5 2.380528 1_555
O9 Sm4 2.483257 1_555
O9 Sm1 2.624118 1_555
O10 W1 1.965214 1_555
O10 Sm0 2.380528 1_555
O10 Sm1 2.483273 1_545
O10 Sm2 2.624118 1_555
O11 W0 1.965214 1_555
O11 Sm1 2.380528 1_555
O11 Sm0 2.483273 1_565
O11 Sm3 2.624118 1_555
