# generated using pymatgen
data_HfMg6Zn
_symmetry_space_group_name_H-M   'P 1'
_cell_length_a   4.93340500
_cell_length_b   6.26369300
_cell_length_c   11.05585100
_cell_angle_alpha   90.00000000
_cell_angle_beta   90.00000000
_cell_angle_gamma   90.00000000
_symmetry_Int_Tables_number   1
_chemical_formula_structural   HfMg6Zn
_chemical_formula_sum   'Hf2 Mg12 Zn2'
_cell_volume   341.64054844
_cell_formula_units_Z   2
loop_
 _symmetry_equiv_pos_site_id
 _symmetry_equiv_pos_as_xyz
  1  'x, y, z'
loop_
 _atom_site_type_symbol
 _atom_site_label
 _atom_site_symmetry_multiplicity
 _atom_site_fract_x
 _atom_site_fract_y
 _atom_site_fract_z
 _atom_site_occupancy
  Hf  Hf0  1  0.00000000  0.50000000  0.17655700  1
  Hf  Hf1  1  0.00000000  0.00000000  0.67655700  1
  Mg  Mg0  1  0.50000000  0.74702500  0.08397200  1
  Mg  Mg1  1  0.50000000  0.25297500  0.08397200  1
  Mg  Mg2  1  0.50000000  0.00000000  0.33157600  1
  Mg  Mg3  1  0.00000000  0.25507800  0.41971400  1
  Mg  Mg4  1  0.00000000  0.74492200  0.41971400  1
  Mg  Mg5  1  0.00000000  0.00000000  0.16683300  1
  Mg  Mg6  1  0.50000000  0.24702500  0.58397200  1
  Mg  Mg7  1  0.50000000  0.75297500  0.58397200  1
  Mg  Mg8  1  0.50000000  0.50000000  0.83157600  1
  Mg  Mg9  1  0.00000000  0.75507800  0.91971400  1
  Mg  Mg10  1  0.00000000  0.24492200  0.91971400  1
  Mg  Mg11  1  0.00000000  0.50000000  0.66683300  1
  Zn  Zn0  1  0.50000000  0.50000000  0.31766200  1
  Zn  Zn1  1  0.50000000  0.00000000  0.81766200  1
loop_
_geom_bond_atom_site_label_1
_geom_bond_atom_site_label_2
_geom_bond_distance
_geom_bond_site_symmetry_2
Hf0 Zn0 2.918618 1_455
Hf0 Zn0 2.918618 1_555
Hf0 Mg1 3.086502 1_555
Hf0 Mg1 3.086502 1_455
Hf0 Mg0 3.086502 1_455
Hf0 Mg0 3.086502 1_555
Hf0 Mg3 3.095240 1_555
Hf0 Mg4 3.095240 1_555
Hf0 Mg5 3.133691 1_565
Hf0 Mg5 3.133691 1_555
Hf0 Mg9 3.258247 1_554
Hf0 Mg10 3.258247 1_554
Hf1 Zn1 2.918618 1_555
Hf1 Zn1 2.918618 1_455
Hf1 Mg7 3.086502 1_545
Hf1 Mg7 3.086502 1_445
Hf1 Mg6 3.086502 1_555
Hf1 Mg6 3.086502 1_455
Hf1 Mg9 3.095240 1_545
Hf1 Mg10 3.095240 1_555
Hf1 Mg11 3.133691 1_555
Hf1 Mg11 3.133691 1_545
Hf1 Mg3 3.258247 1_555
Hf1 Mg4 3.258247 1_545
Mg0 Zn0 3.011529 1_555
Mg0 Mg9 3.063505 1_654
Mg0 Mg9 3.063505 1_554
Mg0 Mg5 3.071593 1_665
Mg0 Mg5 3.071593 1_565
Mg0 Mg1 3.094578 1_555
Mg0 Mg2 3.163002 1_565
Mg0 Mg1 3.169115 1_565
Mg0 Mg8 3.190725 1_554
Mg0 Zn1 3.343595 1_564
Mg1 Zn0 3.011529 1_555
Mg1 Mg10 3.063505 1_654
Mg1 Mg10 3.063505 1_554
Mg1 Mg5 3.071593 1_555
Mg1 Mg5 3.071593 1_655
Mg1 Mg2 3.163002 1_555
Mg1 Mg8 3.190725 1_554
Mg1 Zn1 3.343595 1_554
Mg2 Mg5 3.066272 1_555
Mg2 Mg5 3.066272 1_655
Mg2 Mg4 3.096272 1_545
Mg2 Mg3 3.096272 1_655
Mg2 Mg4 3.096272 1_645
Mg2 Mg3 3.096272 1_555
Mg2 Zn0 3.135622 1_545
Mg2 Zn0 3.135622 1_555
Mg2 Mg6 3.190725 1_555
Mg2 Mg7 3.190725 1_545
Mg3 Mg6 3.063505 1_455
Mg3 Mg6 3.063505 1_555
Mg3 Mg4 3.068232 1_555
Mg3 Zn0 3.116269 1_555
Mg3 Zn0 3.116269 1_455
Mg3 Mg4 3.195461 1_545
Mg3 Mg5 3.220143 1_555
Mg4 Mg7 3.063505 1_555
Mg4 Mg7 3.063505 1_455
Mg4 Zn0 3.116269 1_455
Mg4 Zn0 3.116269 1_555
Mg4 Mg5 3.220143 1_565
Mg5 Mg9 3.133360 1_544
Mg6 Zn1 3.011529 1_555
Mg6 Mg7 3.094578 1_545
Mg6 Mg8 3.163002 1_555
Mg6 Mg7 3.169115 1_555
Mg6 Zn0 3.343595 1_555
Mg7 Zn1 3.011529 1_565
Mg7 Mg8 3.163002 1_555
Mg7 Zn0 3.343595 1_555
Mg8 Mg9 3.096272 1_555
Mg8 Mg9 3.096272 1_655
Mg8 Zn1 3.135622 1_565
Mg8 Zn1 3.135622 1_555
Mg9 Zn1 3.116269 1_465
Mg9 Zn1 3.116269 1_565
Mg10 Mg9 3.068232 1_545
Mg10 Mg8 3.096272 1_555
Mg10 Mg8 3.096272 1_455
Mg10 Zn1 3.116269 1_455
Mg10 Zn1 3.116269 1_555
Mg10 Mg5 3.133360 1_556
Mg10 Mg9 3.195461 1_555
Mg10 Mg11 3.220143 1_555
Mg11 Mg8 3.066272 1_455
Mg11 Mg8 3.066272 1_555
Mg11 Mg6 3.071593 1_455
Mg11 Mg6 3.071593 1_555
Mg11 Mg7 3.071593 1_455
Mg11 Mg7 3.071593 1_555
Mg11 Mg4 3.133360 1_555
Mg11 Mg3 3.133360 1_555
Mg11 Mg9 3.220143 1_555
