# generated using pymatgen
data_Th(SO4)2
_symmetry_space_group_name_H-M   'P 1'
_cell_length_a   9.23509100
_cell_length_b   9.64414500
_cell_length_c   13.82739100
_cell_angle_alpha   90.00000000
_cell_angle_beta   90.00000000
_cell_angle_gamma   90.00000000
_symmetry_Int_Tables_number   1
_chemical_formula_structural   Th(SO4)2
_chemical_formula_sum   'Th8 S16 O64'
_cell_volume   1231.53044962
_cell_formula_units_Z   8
loop_
 _symmetry_equiv_pos_site_id
 _symmetry_equiv_pos_as_xyz
  1  'x, y, z'
loop_
 _atom_site_type_symbol
 _atom_site_label
 _atom_site_symmetry_multiplicity
 _atom_site_fract_x
 _atom_site_fract_y
 _atom_site_fract_z
 _atom_site_occupancy
  Th  Th0  1  0.78040000  0.03550800  0.10313800  1
  Th  Th1  1  0.71960000  0.53550800  0.89686200  1
  Th  Th2  1  0.28040000  0.96449200  0.39686200  1
  Th  Th3  1  0.21960000  0.46449200  0.60313800  1
  Th  Th4  1  0.21960000  0.96449200  0.89686200  1
  Th  Th5  1  0.28040000  0.46449200  0.10313800  1
  Th  Th6  1  0.71960000  0.03550800  0.60313800  1
  Th  Th7  1  0.78040000  0.53550800  0.39686200  1
  S  S0  1  0.99519000  0.72272800  0.05810700  1
  S  S1  1  0.50481000  0.22272800  0.94189300  1
  S  S2  1  0.49519000  0.27727200  0.44189300  1
  S  S3  1  0.00481000  0.77727200  0.55810700  1
  S  S4  1  0.00481000  0.27727200  0.94189300  1
  S  S5  1  0.49519000  0.77727200  0.05810700  1
  S  S6  1  0.50481000  0.72272800  0.55810700  1
  S  S7  1  0.99519000  0.22272800  0.44189300  1
  S  S8  1  0.82118500  0.89635200  0.84386800  1
  S  S9  1  0.67881500  0.39635200  0.15613200  1
  S  S10  1  0.32118500  0.10364800  0.65613200  1
  S  S11  1  0.17881500  0.60364800  0.34386800  1
  S  S12  1  0.17881500  0.10364800  0.15613200  1
  S  S13  1  0.32118500  0.60364800  0.84386800  1
  S  S14  1  0.67881500  0.89635200  0.34386800  1
  S  S15  1  0.82118500  0.39635200  0.65613200  1
  O  O0  1  0.89507400  0.80385900  0.11950500  1
  O  O1  1  0.60492600  0.30385900  0.88049500  1
  O  O2  1  0.39507400  0.19614100  0.38049500  1
  O  O3  1  0.10492600  0.69614100  0.61950500  1
  O  O4  1  0.10492600  0.19614100  0.88049500  1
  O  O5  1  0.39507400  0.69614100  0.11950500  1
  O  O6  1  0.60492600  0.80385900  0.61950500  1
  O  O7  1  0.89507400  0.30385900  0.38049500  1
  O  O8  1  0.91535300  0.64335700  0.98343200  1
  O  O9  1  0.58464700  0.14335700  0.01656800  1
  O  O10  1  0.41535300  0.35664300  0.51656800  1
  O  O11  1  0.08464700  0.85664300  0.48343200  1
  O  O12  1  0.08464700  0.35664300  0.01656800  1
  O  O13  1  0.41535300  0.85664300  0.98343200  1
  O  O14  1  0.58464700  0.64335700  0.48343200  1
  O  O15  1  0.91535300  0.14335700  0.51656800  1
  O  O16  1  0.08024800  0.62479500  0.11812400  1
  O  O17  1  0.41975200  0.12479500  0.88187600  1
  O  O18  1  0.58024800  0.37520500  0.38187600  1
  O  O19  1  0.91975200  0.87520500  0.61812400  1
  O  O20  1  0.91975200  0.37520500  0.88187600  1
  O  O21  1  0.58024800  0.87520500  0.11812400  1
  O  O22  1  0.41975200  0.62479500  0.61812400  1
  O  O23  1  0.08024800  0.12479500  0.38187600  1
  O  O24  1  0.09644600  0.82113300  0.00948400  1
  O  O25  1  0.40355400  0.32113300  0.99051600  1
  O  O26  1  0.59644600  0.17886700  0.49051600  1
  O  O27  1  0.90355400  0.67886700  0.50948400  1
  O  O28  1  0.90355400  0.17886700  0.99051600  1
  O  O29  1  0.59644600  0.67886700  0.00948400  1
  O  O30  1  0.40355400  0.82113300  0.50948400  1
  O  O31  1  0.09644600  0.32113300  0.49051600  1
  O  O32  1  0.77402700  0.92783700  0.94414000  1
  O  O33  1  0.72597300  0.42783700  0.05586000  1
  O  O34  1  0.27402700  0.07216300  0.55586000  1
  O  O35  1  0.22597300  0.57216300  0.44414000  1
  O  O36  1  0.22597300  0.07216300  0.05586000  1
  O  O37  1  0.27402700  0.57216300  0.94414000  1
  O  O38  1  0.72597300  0.92783700  0.44414000  1
  O  O39  1  0.77402700  0.42783700  0.55586000  1
  O  O40  1  0.74773500  0.99013700  0.77461500  1
  O  O41  1  0.75226500  0.49013700  0.22538500  1
  O  O42  1  0.24773500  0.00986300  0.72538500  1
  O  O43  1  0.25226500  0.50986300  0.27461500  1
  O  O44  1  0.25226500  0.00986300  0.22538500  1
  O  O45  1  0.24773500  0.50986300  0.77461500  1
  O  O46  1  0.75226500  0.99013700  0.27461500  1
  O  O47  1  0.74773500  0.49013700  0.72538500  1
  O  O48  1  0.78037600  0.75106500  0.82035500  1
  O  O49  1  0.71962400  0.25106500  0.17964500  1
  O  O50  1  0.28037600  0.24893500  0.67964500  1
  O  O51  1  0.21962400  0.74893500  0.32035500  1
  O  O52  1  0.21962400  0.24893500  0.17964500  1
  O  O53  1  0.28037600  0.74893500  0.82035500  1
  O  O54  1  0.71962400  0.75106500  0.32035500  1
  O  O55  1  0.78037600  0.25106500  0.67964500  1
  O  O56  1  0.98026600  0.91522300  0.83560000  1
  O  O57  1  0.51973400  0.41522300  0.16440000  1
  O  O58  1  0.48026600  0.08477700  0.66440000  1
  O  O59  1  0.01973400  0.58477700  0.33560000  1
  O  O60  1  0.01973400  0.08477700  0.16440000  1
  O  O61  1  0.48026600  0.58477700  0.83560000  1
  O  O62  1  0.51973400  0.91522300  0.33560000  1
  O  O63  1  0.98026600  0.41522300  0.66440000  1
loop_
_geom_bond_atom_site_label_1
_geom_bond_atom_site_label_2
_geom_bond_distance
_geom_bond_site_symmetry_2
O0 S0 1.479127 1_555
O0 Th0 2.482692 1_565
O1 S1 1.479127 1_555
O1 Th1 2.482692 1_555
O2 S2 1.479127 1_555
O2 Th2 2.482692 1_545
O3 S3 1.479127 1_555
O3 Th3 2.482692 1_555
O4 S4 1.479127 1_555
O4 Th4 2.482692 1_545
O5 S5 1.479127 1_555
O5 Th5 2.482692 1_555
O6 S6 1.479127 1_555
O6 Th6 2.482692 1_565
O7 S7 1.479127 1_555
O7 Th7 2.482692 1_555
O8 S0 1.481800 1_556
O8 Th1 2.404758 1_555
O9 S1 1.481800 1_554
O9 Th0 2.404758 1_555
O10 S2 1.481800 1_555
O10 Th3 2.404758 1_555
O11 S3 1.481800 1_555
O11 Th2 2.404758 1_555
O12 S4 1.481800 1_554
O12 Th5 2.404758 1_555
O13 S5 1.481800 1_556
O13 Th4 2.404758 1_555
O14 S6 1.481800 1_555
O14 Th7 2.404758 1_555
O15 S7 1.481800 1_555
O15 Th6 2.404758 1_555
O16 S0 1.482491 1_455
O16 Th5 2.418610 1_555
O17 S1 1.482491 1_555
O17 Th4 2.418610 1_545
O18 S2 1.482491 1_555
O18 Th7 2.418610 1_555
O19 S3 1.482491 1_655
O19 Th6 2.418610 1_565
O20 S4 1.482491 1_655
O20 Th1 2.418610 1_555
O21 S5 1.482491 1_555
O21 Th0 2.418610 1_565
O22 S6 1.482491 1_555
O22 Th3 2.418610 1_555
O23 S7 1.482491 1_455
O23 Th2 2.418610 1_545
O24 S0 1.492353 1_455
O24 Th4 2.372791 1_554
O25 S1 1.492353 1_555
O25 Th5 2.372791 1_556
O26 S2 1.492353 1_555
O26 Th6 2.372791 1_555
O27 S3 1.492353 1_655
O27 Th7 2.372791 1_555
O28 S4 1.492353 1_655
O28 Th0 2.372791 1_556
O29 S5 1.492353 1_555
O29 Th1 2.372791 1_554
O30 S6 1.492353 1_555
O30 Th2 2.372791 1_555
O31 S7 1.492353 1_455
O31 Th3 2.372791 1_555
O32 S8 1.484672 1_555
O32 Th0 2.432129 1_566
O33 S9 1.484672 1_555
O33 Th1 2.432129 1_554
O34 S10 1.484672 1_555
O34 Th2 2.432129 1_545
O35 S11 1.484672 1_555
O35 Th3 2.432129 1_555
O36 S12 1.484672 1_555
O36 Th4 2.432129 1_544
O37 S13 1.484672 1_555
O37 Th5 2.432129 1_556
O38 S14 1.484672 1_555
O38 Th6 2.432129 1_565
O39 S15 1.484672 1_555
O39 Th7 2.432129 1_555
O40 S8 1.481610 1_555
O40 Th6 2.425076 1_565
O41 S9 1.481610 1_555
O41 Th7 2.425076 1_555
O42 S10 1.481610 1_555
O42 Th4 2.425076 1_545
O43 S11 1.481610 1_555
O43 Th5 2.425076 1_555
O44 S12 1.481610 1_555
O44 Th2 2.425076 1_545
O45 S13 1.481610 1_555
O45 Th3 2.425076 1_555
O46 S14 1.481610 1_555
O46 Th0 2.425076 1_565
O47 S15 1.481610 1_555
O47 Th1 2.425076 1_555
O48 S8 1.486948 1_555
O48 Th1 2.399132 1_555
O49 S9 1.486948 1_555
O49 Th0 2.399132 1_555
O50 S10 1.486948 1_555
O50 Th3 2.399132 1_555
O51 S11 1.486948 1_555
O51 Th2 2.399132 1_555
O52 S12 1.486948 1_555
O52 Th5 2.399132 1_555
O53 S13 1.486948 1_555
O53 Th4 2.399132 1_555
O54 S14 1.486948 1_555
O54 Th7 2.399132 1_555
O55 S15 1.486948 1_555
O55 Th6 2.399132 1_555
O56 S8 1.484765 1_555
O56 Th4 2.414258 1_655
O57 S9 1.484765 1_555
O57 Th5 2.414258 1_555
O58 S10 1.484765 1_555
O58 Th6 2.414258 1_555
O59 S11 1.484765 1_555
O59 Th7 2.414258 1_455
O60 S12 1.484765 1_555
O60 Th0 2.414258 1_455
O61 S13 1.484765 1_555
O61 Th1 2.414258 1_555
O62 S14 1.484765 1_555
O62 Th2 2.414258 1_555
O63 S15 1.484765 1_555
O63 Th3 2.414258 1_655
