# generated using pymatgen
data_NaV2O4
_symmetry_space_group_name_H-M   'P 1'
_cell_length_a   5.15391826
_cell_length_b   5.99694438
_cell_length_c   11.48109315
_cell_angle_alpha   89.76330074
_cell_angle_beta   89.88832199
_cell_angle_gamma   90.14106862
_symmetry_Int_Tables_number   1
_chemical_formula_structural   NaV2O4
_chemical_formula_sum   'Na4 V8 O16'
_cell_volume   354.85010027
_cell_formula_units_Z   4
loop_
 _symmetry_equiv_pos_site_id
 _symmetry_equiv_pos_as_xyz
  1  'x, y, z'
loop_
 _atom_site_type_symbol
 _atom_site_label
 _atom_site_symmetry_multiplicity
 _atom_site_fract_x
 _atom_site_fract_y
 _atom_site_fract_z
 _atom_site_occupancy
  Na  Na0  1  0.02900700  0.74822700  0.25022800  1
  Na  Na1  1  0.96893200  0.24789000  0.74980800  1
  Na  Na2  1  0.35057000  0.75072800  0.75014000  1
  Na  Na3  1  0.64801200  0.25201300  0.25113000  1
  V  V0  1  0.00772200  0.25009400  0.49165100  1
  V  V1  1  0.99196900  0.74992600  0.50828500  1
  V  V2  1  0.50128600  0.49637300  0.00111200  1
  V  V3  1  0.49765900  0.00541900  0.99916300  1
  V  V4  1  0.00236000  0.24711900  0.00883700  1
  V  V5  1  0.99736300  0.74700100  0.99057100  1
  V  V6  1  0.49993600  0.99989100  0.49998300  1
  V  V7  1  0.49986100  0.50008300  0.50014400  1
  O  O0  1  0.33420100  0.25035400  0.09341500  1
  O  O1  1  0.32166400  0.25069900  0.40766800  1
  O  O2  1  0.67811600  0.74939200  0.59258900  1
  O  O3  1  0.67848300  0.75083800  0.91033300  1
  O  O4  1  0.30921500  0.75106800  0.08264800  1
  O  O5  1  0.31233100  0.75050500  0.41661000  1
  O  O6  1  0.68754800  0.24934100  0.58312100  1
  O  O7  1  0.67918300  0.25201200  0.91354600  1
  O  O8  1  0.15716800  0.00168100  0.59298900  1
  O  O9  1  0.15732700  0.00203600  0.90494600  1
  O  O10  1  0.15705500  0.49743100  0.59318000  1
  O  O11  1  0.15178700  0.48957300  0.90748700  1
  O  O12  1  0.84250700  0.99809200  0.40668900  1
  O  O13  1  0.84254000  0.50282300  0.40688600  1
  O  O14  1  0.84942400  0.00838600  0.09256400  1
  O  O15  1  0.84677200  0.50100300  0.09427900  1
loop_
_geom_bond_atom_site_label_1
_geom_bond_atom_site_label_2
_geom_bond_distance
_geom_bond_site_symmetry_2
Na0 O4 2.403429 1_555
Na0 O5 2.406759 1_555
Na0 O13 2.507752 1_455
Na0 O15 2.511495 1_455
Na0 O12 2.533505 1_455
Na0 O14 2.560804 1_465
Na1 O7 2.398811 1_555
Na1 O6 2.403419 1_555
Na1 O9 2.506225 1_655
Na1 O11 2.507526 1_655
Na1 O10 2.525291 1_655
Na1 O8 2.526875 1_655
Na2 O2 2.471871 1_555
Na2 O3 2.500194 1_555
Na2 O9 2.538659 1_565
Na2 O8 2.550643 1_565
Na2 O10 2.563541 1_555
Na2 O11 2.593723 1_555
Na3 O0 2.430269 1_555
Na3 O1 2.459095 1_555
Na3 O15 2.546562 1_555
Na3 O13 2.546976 1_555
Na3 O12 2.550563 1_545
Na3 O14 2.559000 1_555
O0 V4 1.968461 1_555
O0 V2 2.004639 1_555
O0 V3 2.013435 1_554
O1 V0 1.881917 1_555
O1 V7 2.053667 1_555
O1 V6 2.056021 1_545
O2 V1 1.883410 1_555
O2 V7 2.053287 1_555
O2 V6 2.056173 1_555
O3 V5 1.885768 1_555
O3 V2 2.055556 1_556
O3 V3 2.062926 1_565
O4 V5 1.925637 1_454
O4 V3 2.040986 1_564
O4 V2 2.050570 1_555
O5 V1 1.956321 1_455
O5 V6 2.023895 1_555
O5 V7 2.026848 1_555
O6 V0 1.954240 1_655
O6 V6 2.022911 1_545
O6 V7 2.025655 1_555
O7 V4 1.994791 1_656
O7 V3 2.001492 1_555
O7 V2 2.003504 1_556
O8 V1 1.989742 1_445
O8 V0 2.039855 1_555
O8 V6 2.062532 1_545
O9 V5 1.990853 1_445
O9 V4 2.058481 1_556
O9 V3 2.062665 1_555
O10 V1 1.991011 1_455
O10 V0 2.040435 1_555
O10 V7 2.062798 1_555
O11 V5 1.985415 1_455
O11 V4 2.009521 1_556
O11 V2 2.099834 1_556
O12 V0 1.992363 1_665
O12 V1 2.040492 1_555
O12 V6 2.063373 1_555
O13 V0 1.991563 1_655
O13 V1 2.038741 1_555
O13 V7 2.063557 1_555
O14 V4 1.890804 1_655
O14 V5 2.104100 1_544
O14 V3 2.108239 1_554
O15 V4 1.984616 1_655
O15 V5 2.042712 1_554
O15 V2 2.079165 1_555
