# generated using pymatgen
data_Pr(AlFe)6
_symmetry_space_group_name_H-M   'P 1'
_cell_length_a   6.64210023
_cell_length_b   6.65344568
_cell_length_c   6.65374540
_cell_angle_alpha   135.96637512
_cell_angle_beta   98.07149270
_cell_angle_gamma   98.09790536
_symmetry_Int_Tables_number   1
_chemical_formula_structural   Pr(AlFe)6
_chemical_formula_sum   'Pr1 Al6 Fe6'
_cell_volume   189.45916170
_cell_formula_units_Z   1
loop_
 _symmetry_equiv_pos_site_id
 _symmetry_equiv_pos_as_xyz
  1  'x, y, z'
loop_
 _atom_site_type_symbol
 _atom_site_label
 _atom_site_symmetry_multiplicity
 _atom_site_fract_x
 _atom_site_fract_y
 _atom_site_fract_z
 _atom_site_occupancy
  Pr  Pr0  1  -0.00000000  -0.00000000  0.00000000  1
  Al  Al0  1  0.34951620  0.34954147  0.00000910  1
  Al  Al1  1  0.65048380  0.65045853  -0.00000910  1
  Al  Al2  1  0.65916106  0.00004822  0.65943284  1
  Al  Al3  1  0.34083894  -0.00004822  0.34056716  1
  Al  Al4  1  0.79525117  0.29514089  0.50014891  1
  Al  Al5  1  0.20474883  0.70485911  0.49985109  1
  Fe  Fe0  1  0.50000000  -0.00000000  0.00000000  1
  Fe  Fe1  1  0.50000000  0.50000000  0.50000000  1
  Fe  Fe2  1  -0.00000000  -0.00000000  0.50000000  1
  Fe  Fe3  1  -0.00000000  0.50000000  0.00000000  1
  Fe  Fe4  1  0.23947191  0.49989004  0.73953595  1
  Fe  Fe5  1  0.76052809  0.50010996  0.26046405  1
loop_
_geom_bond_atom_site_label_1
_geom_bond_atom_site_label_2
_geom_bond_distance
_geom_bond_site_symmetry_2
Al0 Fe5 2.619986 1_555
Al0 Al1 2.622518 1_555
Al0 Fe4 2.623304 1_554
Al0 Fe3 2.654503 1_555
Al0 Fe2 2.655457 1_554
Al0 Fe0 2.657526 1_555
Al0 Fe1 2.657927 1_555
Al0 Al5 2.794247 1_555
Al0 Al5 2.795112 1_544
Al0 Pr0 3.045787 1_555
Al1 Fe4 2.619986 1_554
Al1 Fe5 2.623304 1_555
Al1 Fe3 2.654503 1_655
Al1 Fe2 2.655457 1_665
Al1 Fe0 2.657526 1_565
Al1 Fe1 2.657927 1_554
Al1 Al4 2.794247 1_554
Al1 Al4 2.795112 1_565
Al1 Pr0 3.045787 1_665
Al2 Fe3 2.631461 1_656
Al2 Fe2 2.631474 1_655
Al2 Fe0 2.631774 1_556
Al2 Fe1 2.632777 1_545
Al2 Fe5 2.645218 1_556
Al2 Fe5 2.645956 1_545
Al2 Al3 2.776641 1_555
Al2 Al5 2.919944 1_545
Al2 Al4 2.925102 1_555
Al2 Pr0 2.969981 1_656
Al3 Fe3 2.631461 1_545
Al3 Fe2 2.631474 1_555
Al3 Fe0 2.631774 1_555
Al3 Fe1 2.632777 1_555
Al3 Fe4 2.645218 1_544
Al3 Fe4 2.645956 1_555
Al3 Al4 2.919944 1_555
Al3 Al5 2.925102 1_545
Al3 Pr0 2.969981 1_555
Al4 Fe2 2.540785 1_655
Al4 Fe1 2.541289 1_555
Al4 Fe3 2.541306 1_656
Al4 Fe0 2.542184 1_555
Al4 Fe4 2.743453 1_655
Al4 Fe5 2.751173 1_555
Al4 Pr0 3.067123 1_655
Al4 Pr0 3.067662 1_666
Al5 Fe2 2.540785 1_565
Al5 Fe1 2.541289 1_555
Al5 Fe3 2.541306 1_555
Al5 Fe0 2.542184 1_566
Al5 Fe5 2.743453 1_455
Al5 Fe4 2.751173 1_555
Al5 Pr0 3.067123 1_566
Al5 Pr0 3.067662 1_555
Fe0 Fe1 2.494291 1_555
Fe0 Fe1 2.494291 1_544
Fe0 Fe5 2.512737 1_555
Fe0 Fe4 2.512737 1_544
Fe0 Pr0 3.321050 1_655
Fe0 Pr0 3.321050 1_555
Fe1 Fe5 2.512075 1_555
Fe1 Fe4 2.512075 1_555
Fe1 Pr0 3.321984 1_666
Fe1 Pr0 3.321984 1_555
Fe2 Fe3 2.494291 1_545
Fe2 Fe3 2.494291 1_556
Fe2 Fe5 2.511571 1_445
Fe2 Fe4 2.511571 1_555
Fe2 Pr0 3.326873 1_555
Fe2 Pr0 3.326873 1_556
Fe3 Fe4 2.511196 1_554
Fe3 Fe5 2.511196 1_455
Fe3 Pr0 3.326723 1_555
Fe3 Pr0 3.326723 1_565
Fe4 Pr0 3.252529 1_566
Fe4 Pr0 3.253413 1_555
Fe5 Pr0 3.252529 1_655
Fe5 Pr0 3.253413 1_666
