# generated using pymatgen
data_Li9Mn2Co5O16
_symmetry_space_group_name_H-M   'P 1'
_cell_length_a   5.10778200
_cell_length_b   5.90009953
_cell_length_c   10.07709320
_cell_angle_alpha   90.95863870
_cell_angle_beta   99.61163005
_cell_angle_gamma   105.91057561
_symmetry_Int_Tables_number   1
_chemical_formula_structural   Li9Mn2Co5O16
_chemical_formula_sum   'Li9 Mn2 Co5 O16'
_cell_volume   287.32739887
_cell_formula_units_Z   1
loop_
 _symmetry_equiv_pos_site_id
 _symmetry_equiv_pos_as_xyz
  1  'x, y, z'
loop_
 _atom_site_type_symbol
 _atom_site_label
 _atom_site_symmetry_multiplicity
 _atom_site_fract_x
 _atom_site_fract_y
 _atom_site_fract_z
 _atom_site_occupancy
  Li  Li0  1  0.50294900  0.12928900  0.87813600  1
  Li  Li1  1  0.50663900  0.61908500  0.88039200  1
  Li  Li2  1  0.49698500  0.37419600  0.62555900  1
  Li  Li3  1  0.49472400  0.86952800  0.62948600  1
  Li  Li4  1  0.50301500  0.62580400  0.37444100  1
  Li  Li5  1  0.50527600  0.13047200  0.37051400  1
  Li  Li6  1  0.49705100  0.87071100  0.12186400  1
  Li  Li7  1  0.49336100  0.38091500  0.11960800  1
  Li  Li8  1  0.00000000  0.50000000  0.00000000  1
  Mn  Mn0  1  0.00000000  0.00000000  0.00000000  1
  Mn  Mn1  1  0.00000000  0.50000000  0.50000000  1
  Co  Co0  1  0.99462300  0.25554400  0.75735900  1
  Co  Co1  1  0.99936400  0.74196200  0.75521900  1
  Co  Co2  1  0.00000000  0.00000000  0.50000000  1
  Co  Co3  1  0.00537700  0.74445600  0.24264100  1
  Co  Co4  1  0.00063600  0.25803800  0.24478100  1
  O  O0  1  0.22001700  0.81994500  0.92863100  1
  O  O1  1  0.23118800  0.28564800  0.93812900  1
  O  O2  1  0.21056400  0.05861200  0.67718900  1
  O  O3  1  0.22962600  0.55214200  0.67969800  1
  O  O4  1  0.22692300  0.32608900  0.43125900  1
  O  O5  1  0.22108500  0.79883200  0.44664000  1
  O  O6  1  0.23803600  0.57286300  0.19527600  1
  O  O7  1  0.23526700  0.05786500  0.17820100  1
  O  O8  1  0.76196400  0.42713700  0.80472400  1
  O  O9  1  0.76473300  0.94213500  0.82179900  1
  O  O10  1  0.77307700  0.67391100  0.56874100  1
  O  O11  1  0.77891500  0.20116800  0.55336000  1
  O  O12  1  0.78943600  0.94138800  0.32281100  1
  O  O13  1  0.77037400  0.44785800  0.32030200  1
  O  O14  1  0.77998300  0.18005500  0.07136900  1
  O  O15  1  0.76881200  0.71435200  0.06187100  1
loop_
_geom_bond_atom_site_label_1
_geom_bond_atom_site_label_2
_geom_bond_distance
_geom_bond_site_symmetry_2
Li0 O1 2.026583 1_555
Li0 O9 2.090836 1_545
Li0 O8 2.116939 1_555
Li0 O0 2.123463 1_545
Li0 O14 2.170644 1_556
Li0 O2 2.263877 1_555
Li1 O15 2.046642 1_556
Li1 O9 2.153926 1_555
Li1 O8 2.162814 1_555
Li1 O0 2.225685 1_555
Li1 O3 2.226981 1_555
Li1 O1 2.232132 1_555
Li2 O8 2.030376 1_555
Li2 O3 2.068946 1_555
Li2 O10 2.092808 1_555
Li2 O2 2.161257 1_555
Li2 O4 2.163760 1_555
Li2 O11 2.185471 1_555
Li3 O5 2.077782 1_555
Li3 O3 2.113400 1_555
Li3 O9 2.144063 1_555
Li3 O2 2.164520 1_565
Li3 O10 2.212439 1_555
Li3 O11 2.321444 1_565
Li4 O6 2.030376 1_555
Li4 O13 2.068946 1_555
Li4 O4 2.092808 1_555
Li4 O12 2.161257 1_555
Li4 O10 2.163760 1_555
Li4 O5 2.185471 1_555
Li5 O11 2.077782 1_555
Li5 O13 2.113400 1_555
Li5 O7 2.144063 1_555
Li5 O12 2.164520 1_545
Li5 O4 2.212439 1_555
Li5 O5 2.321444 1_545
Li6 O15 2.026583 1_555
Li6 O7 2.090836 1_565
Li6 O6 2.116939 1_555
Li6 O14 2.123463 1_565
Li6 O0 2.170644 1_554
Li6 O12 2.263877 1_555
Li7 O1 2.046642 1_554
Li7 O7 2.153926 1_555
Li7 O6 2.162814 1_555
Li7 O14 2.225685 1_555
Li7 O13 2.226981 1_555
Li7 O15 2.232132 1_555
Li8 O1 2.102593 1_554
Li8 O15 2.102593 1_455
Li8 O6 2.102742 1_555
Li8 O8 2.102742 1_454
Li8 O0 2.120334 1_554
Li8 O14 2.120334 1_455
Mn0 O14 1.951314 1_455
Mn0 O0 1.951314 1_544
Mn0 O15 1.952800 1_445
Mn0 O1 1.952800 1_554
Mn0 O7 1.954294 1_555
Mn0 O9 1.954294 1_444
Mn1 O10 1.942310 1_455
Mn1 O4 1.942310 1_555
Mn1 O5 1.953426 1_555
Mn1 O11 1.953426 1_455
Mn1 O3 1.955425 1_555
Mn1 O13 1.955425 1_455
Co0 O8 1.870271 1_555
Co0 O1 1.986559 1_655
Co0 O2 2.046484 1_655
Co0 O3 2.079298 1_655
Co0 O9 2.079461 1_545
Co0 O11 2.137898 1_555
Co1 O0 1.888582 1_655
Co1 O10 2.005836 1_555
Co1 O8 2.041477 1_555
Co1 O3 2.051663 1_655
Co1 O9 2.073476 1_555
Co1 O2 2.121288 1_665
Co2 O2 1.897008 1_555
Co2 O12 1.897008 1_445
Co2 O11 1.972154 1_455
Co2 O5 1.972154 1_545
Co2 O4 2.148248 1_555
Co2 O10 2.148248 1_445
Co3 O6 1.870271 1_555
Co3 O15 1.986559 1_455
Co3 O12 2.046484 1_455
Co3 O13 2.079298 1_455
Co3 O7 2.079461 1_565
Co3 O5 2.137898 1_555
Co4 O14 1.888582 1_455
Co4 O4 2.005836 1_555
Co4 O6 2.041477 1_555
Co4 O13 2.051663 1_455
Co4 O7 2.073476 1_555
Co4 O12 2.121288 1_445
