# generated using pymatgen
data_CaSc4(FeO3)4
_symmetry_space_group_name_H-M   'P 1'
_cell_length_a   5.17266290
_cell_length_b   5.45789172
_cell_length_c   8.99952003
_cell_angle_alpha   87.07920150
_cell_angle_beta   92.87399881
_cell_angle_gamma   92.49237336
_symmetry_Int_Tables_number   1
_chemical_formula_structural   CaSc4(FeO3)4
_chemical_formula_sum   'Ca1 Sc4 Fe4 O12'
_cell_volume   253.21027122
_cell_formula_units_Z   1
loop_
 _symmetry_equiv_pos_site_id
 _symmetry_equiv_pos_as_xyz
  1  'x, y, z'
loop_
 _atom_site_type_symbol
 _atom_site_label
 _atom_site_symmetry_multiplicity
 _atom_site_fract_x
 _atom_site_fract_y
 _atom_site_fract_z
 _atom_site_occupancy
  Ca  Ca0  1  0.38398700  0.17515600  0.08964400  1
  Sc  Sc0  1  0.00047900  0.92911100  0.69898100  1
  Sc  Sc1  1  0.43730100  0.40051800  0.74781700  1
  Sc  Sc2  1  0.56826400  0.61895600  0.27325200  1
  Sc  Sc3  1  0.92778500  0.10580800  0.28325200  1
  Fe  Fe0  1  0.96529700  0.59706800  0.01167800  1
  Fe  Fe1  1  0.05574200  0.52248800  0.46597800  1
  Fe  Fe2  1  0.53053200  0.84627600  0.87787100  1
  Fe  Fe3  1  0.48403700  0.02790500  0.50126100  1
  O  O0  1  0.20783900  0.43441300  0.28260700  1
  O  O1  1  0.19763900  0.22404500  0.57323500  1
  O  O2  1  0.22127100  0.05869000  0.86718900  1
  O  O3  1  0.28638900  0.70982400  0.60640000  1
  O  O4  1  0.31912700  0.53957100  0.94289700  1
  O  O5  1  0.31000800  0.93930000  0.30827500  1
  O  O6  1  0.65809600  0.09989800  0.70659900  1
  O  O7  1  0.74905400  0.37184200  0.14027800  1
  O  O8  1  0.72131800  0.32428700  0.42471000  1
  O  O9  1  0.74583900  0.87193600  0.11704100  1
  O  O10  1  0.80130100  0.81853700  0.43917000  1
  O  O11  1  0.79119400  0.62187100  0.79186700  1
loop_
_geom_bond_atom_site_label_1
_geom_bond_atom_site_label_2
_geom_bond_distance
_geom_bond_site_symmetry_2
Ca0 O7 2.170995 1_555
Ca0 O2 2.243796 1_554
Ca0 O5 2.334396 1_545
Ca0 O4 2.357641 1_554
Ca0 O0 2.523753 1_555
Ca0 O9 2.546483 1_545
Fe0 O7 1.991711 1_555
Fe0 O4 2.003692 1_654
Fe0 O11 2.132434 1_554
Fe0 O9 2.199859 1_555
Fe1 O0 1.953793 1_555
Fe1 O3 1.985000 1_555
Fe1 O1 1.999095 1_555
Fe1 O8 2.028380 1_455
Fe1 O10 2.124767 1_455
Fe2 O2 2.011681 1_565
Fe2 O4 2.036062 1_555
Fe2 O11 2.064459 1_555
Fe2 O6 2.128953 1_565
Fe2 O9 2.381097 1_556
Fe3 O5 1.987857 1_545
Fe3 O1 2.016193 1_555
Fe3 O6 2.063081 1_555
Fe3 O8 2.096736 1_555
Fe3 O10 2.152061 1_545
Fe3 O3 2.174774 1_545
O0 Sc2 2.083549 1_555
O0 Sc3 2.255876 1_455
O1 Sc0 2.167768 1_545
O1 Sc1 2.188175 1_555
O2 Sc0 1.990370 1_545
O2 Sc1 2.370293 1_555
O3 Sc0 2.166324 1_555
O3 Sc1 2.207941 1_555
O4 Sc1 2.077406 1_555
O5 Sc3 2.208242 1_465
O5 Sc2 2.289614 1_555
O6 Sc0 2.042645 1_645
O6 Sc1 2.097984 1_555
O7 Sc3 2.103721 1_555
O7 Sc2 2.124168 1_555
O8 Sc3 2.141252 1_555
O8 Sc2 2.202350 1_555
O9 Sc2 2.132570 1_555
O9 Sc3 2.168289 1_565
O10 Sc3 2.152653 1_565
O10 Sc2 2.177213 1_555
O10 Sc0 2.596326 1_655
O11 Sc0 2.114866 1_655
O11 Sc1 2.179768 1_555
