# generated using pymatgen
data_Ti2AlCr
_symmetry_space_group_name_H-M   'P 1'
_cell_length_a   3.12537803
_cell_length_b   3.12537803
_cell_length_c   6.13075923
_cell_angle_alpha   90.00000000
_cell_angle_beta   90.00000000
_cell_angle_gamma   90.00000000
_symmetry_Int_Tables_number   1
_chemical_formula_structural   Ti2AlCr
_chemical_formula_sum   'Ti2 Al1 Cr1'
_cell_volume   59.88518155
_cell_formula_units_Z   1
loop_
 _symmetry_equiv_pos_site_id
 _symmetry_equiv_pos_as_xyz
  1  'x, y, z'
loop_
 _atom_site_type_symbol
 _atom_site_label
 _atom_site_symmetry_multiplicity
 _atom_site_fract_x
 _atom_site_fract_y
 _atom_site_fract_z
 _atom_site_occupancy
  Ti  Ti0  1  0.50000000  0.50000000  0.27580514  1
  Ti  Ti1  1  0.50000000  0.50000000  0.72419486  1
  Al  Al0  1  -0.00000000  0.00000000  0.00000000  1
  Cr  Cr0  1  -0.00000000  0.00000000  0.50000000  1
loop_
_geom_bond_atom_site_label_1
_geom_bond_atom_site_label_2
_geom_bond_distance
_geom_bond_site_symmetry_2
Ti0 Ti1 2.748969 1_555
Al0 Ti1 2.782646 1_444
Al0 Ti0 2.782646 1_545
Al0 Ti1 2.782646 1_454
Al0 Ti0 2.782646 1_445
Al0 Ti1 2.782646 1_544
Al0 Ti0 2.782646 1_455
Al0 Ti1 2.782646 1_554
Al0 Ti0 2.782646 1_555
Cr0 Ti1 2.602538 1_545
Cr0 Ti0 2.602538 1_545
Cr0 Ti1 2.602538 1_455
Cr0 Ti0 2.602538 1_445
Cr0 Ti1 2.602538 1_445
Cr0 Ti1 2.602538 1_555
Cr0 Ti0 2.602538 1_455
Cr0 Ti0 2.602538 1_555
