# generated using pymatgen
data_YLu(BIr)8
_symmetry_space_group_name_H-M   'P 1'
_cell_length_a   5.39752700
_cell_length_b   5.39752700
_cell_length_c   7.45430100
_cell_angle_alpha   90.00000000
_cell_angle_beta   90.00000000
_cell_angle_gamma   90.00000000
_symmetry_Int_Tables_number   1
_chemical_formula_structural   YLu(BIr)8
_chemical_formula_sum   'Y1 Lu1 B8 Ir8'
_cell_volume   217.16837030
_cell_formula_units_Z   1
loop_
 _symmetry_equiv_pos_site_id
 _symmetry_equiv_pos_as_xyz
  1  'x, y, z'
loop_
 _atom_site_type_symbol
 _atom_site_label
 _atom_site_symmetry_multiplicity
 _atom_site_fract_x
 _atom_site_fract_y
 _atom_site_fract_z
 _atom_site_occupancy
  Y  Y0  1  0.00000000  0.00000000  0.50000000  1
  Lu  Lu0  1  0.50000000  0.50000000  0.00000000  1
  B  B0  1  0.32714300  0.00000000  0.15310900  1
  B  B1  1  0.67285700  0.00000000  0.15310900  1
  B  B2  1  0.50000000  0.82774800  0.65355500  1
  B  B3  1  0.50000000  0.17225200  0.65355500  1
  B  B4  1  0.17225200  0.50000000  0.34644500  1
  B  B5  1  0.82774800  0.50000000  0.34644500  1
  B  B6  1  0.00000000  0.67285700  0.84689100  1
  B  B7  1  0.00000000  0.32714300  0.84689100  1
  Ir  Ir0  1  0.75073500  0.00000000  0.85684400  1
  Ir  Ir1  1  0.24926500  0.00000000  0.85684400  1
  Ir  Ir2  1  0.50000000  0.25152900  0.35359300  1
  Ir  Ir3  1  0.50000000  0.74847100  0.35359300  1
  Ir  Ir4  1  0.74847100  0.50000000  0.64640700  1
  Ir  Ir5  1  0.25152900  0.50000000  0.64640700  1
  Ir  Ir6  1  0.00000000  0.24926500  0.14315600  1
  Ir  Ir7  1  0.00000000  0.75073500  0.14315600  1
loop_
_geom_bond_atom_site_label_1
_geom_bond_atom_site_label_2
_geom_bond_distance
_geom_bond_site_symmetry_2
B0 B1 1.866001 1_555
B0 Ir6 2.221163 1_555
B0 Ir7 2.221163 1_545
B0 Ir2 2.224207 1_555
B0 Ir3 2.224207 1_545
B0 Ir1 2.248096 1_554
B0 Lu0 3.075130 1_545
B0 Lu0 3.075130 1_555
B0 Y0 3.131204 1_555
B1 Ir6 2.221163 1_655
B1 Ir7 2.221163 1_645
B1 Ir2 2.224207 1_555
B1 Ir3 2.224207 1_545
B1 Ir0 2.248096 1_554
B1 Lu0 3.075130 1_545
B1 Lu0 3.075130 1_555
B1 Y0 3.131204 1_655
B2 B3 1.859470 1_565
B2 Ir4 2.220569 1_555
B2 Ir5 2.220569 1_555
B2 Ir0 2.234352 1_565
B2 Ir1 2.234352 1_565
B2 Ir3 2.276582 1_555
B2 Y0 3.075377 1_565
B2 Y0 3.075377 1_665
B2 Lu0 3.130303 1_556
B3 Ir5 2.220569 1_555
B3 Ir4 2.220569 1_555
B3 Ir0 2.234352 1_555
B3 Ir1 2.234352 1_555
B3 Ir2 2.276582 1_555
B3 Y0 3.075377 1_655
B3 Y0 3.075377 1_555
B3 Lu0 3.130303 1_556
B4 B5 1.859470 1_455
B4 Ir2 2.220569 1_555
B4 Ir3 2.220569 1_555
B4 Ir7 2.234352 1_555
B4 Ir6 2.234352 1_555
B4 Ir5 2.276582 1_555
B4 Y0 3.075377 1_565
B4 Y0 3.075377 1_555
B4 Lu0 3.130303 1_555
B5 Ir2 2.220569 1_555
B5 Ir3 2.220569 1_555
B5 Ir7 2.234352 1_655
B5 Ir6 2.234352 1_655
B5 Ir4 2.276582 1_555
B5 Y0 3.075377 1_665
B5 Y0 3.075377 1_655
B5 Lu0 3.130303 1_555
B6 B7 1.866001 1_555
B6 Ir1 2.221163 1_565
B6 Ir0 2.221163 1_465
B6 Ir5 2.224207 1_555
B6 Ir4 2.224207 1_455
B6 Ir7 2.248096 1_556
B6 Lu0 3.075130 1_456
B6 Lu0 3.075130 1_556
B6 Y0 3.131204 1_565
B7 Ir1 2.221163 1_555
B7 Ir0 2.221163 1_455
B7 Ir5 2.224207 1_555
B7 Ir4 2.224207 1_455
B7 Ir6 2.248096 1_556
B7 Lu0 3.075130 1_456
B7 Lu0 3.075130 1_556
B7 Y0 3.131204 1_555
Ir0 Y0 2.980916 1_655
Ir0 Lu0 3.202131 1_556
Ir0 Lu0 3.202131 1_546
Ir1 Y0 2.980916 1_555
Ir1 Lu0 3.202131 1_556
Ir1 Lu0 3.202131 1_546
Ir2 Lu0 2.957365 1_555
Ir2 Y0 3.212097 1_555
Ir2 Y0 3.212097 1_655
Ir3 Lu0 2.957365 1_555
Ir3 Y0 3.212097 1_565
Ir3 Y0 3.212097 1_665
Ir4 Lu0 2.957365 1_556
Ir4 Y0 3.212097 1_665
Ir4 Y0 3.212097 1_655
Ir5 Lu0 2.957365 1_556
Ir5 Y0 3.212097 1_555
Ir5 Y0 3.212097 1_565
Ir6 Y0 2.980916 1_555
Ir6 Lu0 3.202131 1_455
Ir6 Lu0 3.202131 1_555
Ir7 Y0 2.980916 1_565
Ir7 Lu0 3.202131 1_555
Ir7 Lu0 3.202131 1_455
