# generated using pymatgen
data_Gd2Be2SiO7
_symmetry_space_group_name_H-M   'P 1'
_cell_length_a   7.40644400
_cell_length_b   7.40644400
_cell_length_c   4.83773400
_cell_angle_alpha   90.00000000
_cell_angle_beta   90.00000000
_cell_angle_gamma   90.00000000
_symmetry_Int_Tables_number   1
_chemical_formula_structural   Gd2Be2SiO7
_chemical_formula_sum   'Gd4 Be4 Si2 O14'
_cell_volume   265.37589522
_cell_formula_units_Z   2
loop_
 _symmetry_equiv_pos_site_id
 _symmetry_equiv_pos_as_xyz
  1  'x, y, z'
loop_
 _atom_site_type_symbol
 _atom_site_label
 _atom_site_symmetry_multiplicity
 _atom_site_fract_x
 _atom_site_fract_y
 _atom_site_fract_z
 _atom_site_occupancy
  Gd  Gd0  1  0.15969900  0.34030100  0.50826500  1
  Gd  Gd1  1  0.84030100  0.65969900  0.50826500  1
  Gd  Gd2  1  0.65969900  0.15969900  0.49173500  1
  Gd  Gd3  1  0.34030100  0.84030100  0.49173500  1
  Be  Be0  1  0.63573000  0.86427000  0.96070400  1
  Be  Be1  1  0.36427000  0.13573000  0.96070400  1
  Be  Be2  1  0.13573000  0.63573000  0.03929600  1
  Be  Be3  1  0.86427000  0.36427000  0.03929600  1
  Si  Si0  1  0.00000000  0.00000000  0.00000000  1
  Si  Si1  1  0.50000000  0.50000000  0.00000000  1
  O  O0  1  0.00000000  0.50000000  0.17939800  1
  O  O1  1  0.50000000  0.00000000  0.82060200  1
  O  O2  1  0.64056300  0.85943700  0.28917000  1
  O  O3  1  0.35943700  0.14056300  0.28917000  1
  O  O4  1  0.14056300  0.64056300  0.71083000  1
  O  O5  1  0.85943700  0.35943700  0.71083000  1
  O  O6  1  0.07930000  0.83616000  0.19524200  1
  O  O7  1  0.92070000  0.16384000  0.19524200  1
  O  O8  1  0.16384000  0.07930000  0.80475800  1
  O  O9  1  0.42070000  0.33616000  0.80475800  1
  O  O10  1  0.83616000  0.92070000  0.80475800  1
  O  O11  1  0.57930000  0.66384000  0.80475800  1
  O  O12  1  0.33616000  0.57930000  0.19524200  1
  O  O13  1  0.66384000  0.42070000  0.19524200  1
loop_
_geom_bond_atom_site_label_1
_geom_bond_atom_site_label_2
_geom_bond_distance
_geom_bond_site_symmetry_2
Gd0 O0 2.308512 1_555
Gd0 O3 2.345289 1_555
Gd0 O9 2.407311 1_555
Gd0 O8 2.407311 1_555
Gd0 O4 2.434341 1_555
Gd0 O5 2.434341 1_455
Gd0 O12 2.671078 1_555
Gd0 O7 2.671078 1_455
Gd1 O0 2.308512 1_655
Gd1 O2 2.345289 1_555
Gd1 O10 2.407311 1_555
Gd1 O11 2.407311 1_555
Gd1 O5 2.434341 1_555
Gd1 O4 2.434341 1_655
Gd1 O13 2.671078 1_555
Gd1 O6 2.671078 1_655
Gd2 O1 2.308512 1_555
Gd2 O5 2.345289 1_555
Gd2 O7 2.407311 1_555
Gd2 O13 2.407311 1_555
Gd2 O3 2.434341 1_555
Gd2 O2 2.434341 1_545
Gd2 O10 2.671078 1_545
Gd2 O9 2.671078 1_555
Gd3 O1 2.308512 1_565
Gd3 O4 2.345289 1_555
Gd3 O12 2.407311 1_555
Gd3 O6 2.407311 1_555
Gd3 O2 2.434341 1_555
Gd3 O3 2.434341 1_565
Gd3 O8 2.671078 1_565
Gd3 O11 2.671078 1_555
Be0 O1 1.574974 1_565
Be0 O2 1.589837 1_556
Be0 O10 1.716828 1_555
Be0 O11 1.716828 1_555
Be1 O1 1.574974 1_555
Be1 O3 1.589837 1_556
Be1 O8 1.716828 1_555
Be1 O9 1.716828 1_555
Be2 O0 1.574974 1_555
Be2 O4 1.589837 1_554
Be2 O6 1.716828 1_555
Be2 O12 1.716828 1_555
Be3 O0 1.574974 1_655
Be3 O5 1.589837 1_554
Be3 O7 1.716828 1_555
Be3 O13 1.716828 1_555
O6 Si0 1.646088 1_565
O7 Si0 1.646088 1_655
O8 Si0 1.646088 1_556
O9 Si1 1.646088 1_556
O10 Si0 1.646088 1_666
O11 Si1 1.646088 1_556
O12 Si1 1.646088 1_555
O13 Si1 1.646088 1_555
