# generated using pymatgen
data_Ta3ZnFe3(O6F)2
_symmetry_space_group_name_H-M   'P 1'
_cell_length_a   3.16586400
_cell_length_b   4.76900089
_cell_length_c   19.13805546
_cell_angle_alpha   88.18482338
_cell_angle_beta   90.00000000
_cell_angle_gamma   90.00000000
_symmetry_Int_Tables_number   1
_chemical_formula_structural   Ta3ZnFe3(O6F)2
_chemical_formula_sum   'Ta3 Zn1 Fe3 O12 F2'
_cell_volume   288.80152707
_cell_formula_units_Z   1
loop_
 _symmetry_equiv_pos_site_id
 _symmetry_equiv_pos_as_xyz
  1  'x, y, z'
loop_
 _atom_site_type_symbol
 _atom_site_label
 _atom_site_symmetry_multiplicity
 _atom_site_fract_x
 _atom_site_fract_y
 _atom_site_fract_z
 _atom_site_occupancy
  Ta  Ta0  1  0.50000000  0.45885600  0.12827700  1
  Ta  Ta1  1  0.50000000  0.65294000  0.39538400  1
  Ta  Ta2  1  0.50000000  0.47786700  0.88340700  1
  Zn  Zn0  1  0.00000000  0.95962300  0.24919500  1
  Fe  Fe0  1  0.00000000  0.96471000  0.00913600  1
  Fe  Fe1  1  0.50000000  0.58175300  0.64687300  1
  Fe  Fe2  1  0.00000000  0.06536200  0.74426100  1
  O  O0  1  0.50000000  0.23213800  0.70203700  1
  O  O1  1  0.50000000  0.18413700  0.19946700  1
  O  O2  1  0.50000000  0.76576900  0.04376300  1
  O  O3  1  0.50000000  0.28331800  0.38752000  1
  O  O4  1  0.50000000  0.78555000  0.29978900  1
  O  O5  1  0.50000000  0.18613300  0.94815400  1
  O  O6  1  0.00000000  0.27266900  0.07442800  1
  O  O7  1  0.00000000  0.65971000  0.16378300  1
  O  O8  1  0.00000000  0.32670200  0.82652400  1
  O  O9  1  0.00000000  0.76127800  0.44185100  1
  O  O10  1  0.00000000  0.74984200  0.68085900  1
  O  O11  1  0.00000000  0.68383500  0.92054800  1
  F  F0  1  0.50000000  0.83191600  0.80348500  1
  F  F1  1  0.50000000  0.52989500  0.55475900  1
loop_
_geom_bond_atom_site_label_1
_geom_bond_atom_site_label_2
_geom_bond_distance
_geom_bond_site_symmetry_2
Fe0 O2 1.950675 1_455
Fe0 O2 1.950675 1_555
Fe0 O6 1.958218 1_565
Fe0 O11 2.193741 1_554
Fe0 O5 2.214663 1_564
Fe0 O5 2.214663 1_464
Fe1 O10 1.898512 1_555
Fe1 O10 1.898512 1_655
Fe1 O0 1.944992 1_555
Fe2 O0 1.936633 1_555
Fe2 O0 1.936633 1_455
Fe2 O10 1.962690 1_545
Fe2 O8 2.038685 1_555
O1 Ta0 1.860003 1_555
O1 Zn0 2.119732 1_645
O1 Zn0 2.119732 1_545
O2 Ta0 2.146728 1_555
O3 Ta1 1.773884 1_555
O4 Ta1 1.916698 1_555
O4 Zn0 2.020261 1_555
O4 Zn0 2.020261 1_655
O5 Ta2 1.833546 1_555
O6 Ta0 2.100981 1_455
O6 Ta0 2.100981 1_555
O7 Ta0 1.981457 1_555
O7 Ta0 1.981457 1_455
O7 Zn0 2.205858 1_555
O8 Ta2 2.064028 1_555
O8 Ta2 2.064028 1_455
O9 Ta1 1.895404 1_555
O9 Ta1 1.895404 1_455
O11 Ta2 2.004991 1_555
O11 Ta2 2.004991 1_455
F0 Fe2 2.224826 1_665
F0 Fe2 2.224826 1_565
F0 Ta2 2.242056 1_555
F1 Fe1 1.787887 1_555
