# generated using pymatgen
data_La3InGe
_symmetry_space_group_name_H-M   'P 1'
_cell_length_a   12.38399439
_cell_length_b   11.95846731
_cell_length_c   11.94275084
_cell_angle_alpha   62.40709727
_cell_angle_beta   58.85955349
_cell_angle_gamma   58.73628554
_symmetry_Int_Tables_number   1
_chemical_formula_structural   La3InGe
_chemical_formula_sum   'La24 In8 Ge8'
_cell_volume   1247.25424978
_cell_formula_units_Z   8
loop_
 _symmetry_equiv_pos_site_id
 _symmetry_equiv_pos_as_xyz
  1  'x, y, z'
loop_
 _atom_site_type_symbol
 _atom_site_label
 _atom_site_symmetry_multiplicity
 _atom_site_fract_x
 _atom_site_fract_y
 _atom_site_fract_z
 _atom_site_occupancy
  La  La0  1  0.64325202  0.35670355  0.35670341  1
  La  La1  1  0.13918477  0.86078895  0.86079910  1
  La  La2  1  0.34892604  0.65112886  0.65103435  1
  La  La3  1  0.85536757  0.14454096  0.14469429  1
  La  La4  1  0.70143444  0.06370337  0.66835117  1
  La  La5  1  0.56660613  0.66833888  0.06361176  1
  La  La6  1  0.07013043  0.56098928  0.16000844  1
  La  La7  1  0.20895002  0.16012096  0.56090454  1
  La  La8  1  0.83982766  0.79118838  0.92988334  1
  La  La9  1  0.43900331  0.93001088  0.79107043  1
  La  La10  1  0.33157193  0.43340987  0.29864600  1
  La  La11  1  0.93635800  0.29858451  0.43343242  1
  La  La12  1  0.30095022  0.93530958  0.33748644  1
  La  La13  1  0.42619710  0.33746194  0.93517842  1
  La  La14  1  0.93544543  0.43637951  0.83187841  1
  La  La15  1  0.79633996  0.83190463  0.43646366  1
  La  La16  1  0.16809293  0.20364167  0.06475964  1
  La  La17  1  0.56349882  0.06469731  0.20366665  1
  La  La18  1  0.66257837  0.57367206  0.69885631  1
  La  La19  1  0.06478452  0.69888086  0.57382433  1
  La  La20  1  0.66328518  0.66859215  0.33669007  1
  La  La21  1  0.33163492  0.33679355  0.66855272  1
  La  La22  1  0.83155709  0.16835952  0.83327193  1
  La  La23  1  0.16665856  0.83336112  0.16851337  1
  In  In0  1  0.50032204  0.99958539  0.99974072  1
  In  In1  1  0.00044199  0.49954060  0.49973013  1
  In  In2  1  0.62066392  0.37923251  0.02572984  1
  In  In3  1  0.97422874  0.02561629  0.37944418  1
  In  In4  1  0.52904315  0.12182131  0.47099953  1
  In  In5  1  0.87822759  0.47108198  0.12181002  1
  In  In6  1  0.37683909  0.62328640  0.97157812  1
  In  In7  1  0.02837793  0.97171350  0.62314092  1
  Ge  Ge0  1  0.12087082  0.12034801  0.87916530  1
  Ge  Ge1  1  0.87957731  0.87915150  0.12028204  1
  Ge  Ge2  1  0.37944786  0.62033231  0.38381594  1
  Ge  Ge3  1  0.61638463  0.38370052  0.62029662  1
  Ge  Ge4  1  0.75053918  0.74949150  0.74951555  1
  Ge  Ge5  1  0.25038274  0.24956137  0.24964183  1
  Ge  Ge6  1  0.48026565  0.87695706  0.51965831  1
  Ge  Ge7  1  0.12304695  0.51971941  0.87687175  1
loop_
_geom_bond_atom_site_label_1
_geom_bond_atom_site_label_2
_geom_bond_distance
_geom_bond_site_symmetry_2
In0 La5 3.379388 1_556
In0 La4 3.380897 1_565
In0 La17 3.392568 1_566
In0 La16 3.393431 1_566
In0 La12 3.428436 1_556
In0 La13 3.429128 1_565
In0 La8 3.465030 1_555
In0 La9 3.466016 1_555
In1 La10 3.378808 1_555
In1 La11 3.379919 1_455
In1 La14 3.392160 1_455
In1 La15 3.394507 1_455
In1 La19 3.428611 1_555
In1 La18 3.429239 1_455
In1 La7 3.464353 1_555
In1 La6 3.467083 1_555
In2 In6 3.029474 1_554
In2 La3 3.233204 1_555
In2 La22 3.284473 1_554
In2 La5 3.367334 1_555
In2 La10 3.367531 1_555
In2 La13 3.414893 1_554
In2 La18 3.415208 1_554
In2 La17 3.601133 1_555
In2 La14 3.603945 1_554
In2 La0 3.981685 1_555
In3 In7 3.027815 1_645
In3 La3 3.232805 1_555
In3 La23 3.283296 1_645
In3 La4 3.365720 1_555
In3 La11 3.367369 1_555
In3 La19 3.413977 1_645
In3 La12 3.414289 1_645
In3 La15 3.600963 1_545
In3 La16 3.602993 1_655
In3 La0 3.982574 1_555
In4 La0 3.213739 1_555
In4 La15 3.338863 1_545
In4 La17 3.339285 1_555
In4 La9 3.352659 1_545
In4 La7 3.353380 1_555
In4 La21 3.358804 1_555
In4 La4 3.569676 1_555
In4 La10 3.569937 1_555
In4 La3 3.932191 1_555
In5 La0 3.215885 1_555
In5 La16 3.339341 1_655
In5 La14 3.339470 1_554
In5 La6 3.352570 1_655
In5 La8 3.353080 1_554
In5 La20 3.357674 1_555
In5 La11 3.569565 1_555
In5 La5 3.570276 1_555
In5 La3 3.934728 1_555
In6 La1 3.216972 1_555
In6 La23 3.312459 1_556
In6 La18 3.342545 1_555
In6 La13 3.343433 1_555
In6 La5 3.399344 1_556
In6 La10 3.401138 1_556
In6 La9 3.547288 1_555
In6 La6 3.548178 1_556
In6 La2 3.867003 1_555
In7 La1 3.217093 1_555
In7 La22 3.310566 1_465
In7 La12 3.340999 1_555
In7 La19 3.342721 1_555
In7 La11 3.399095 1_465
In7 La4 3.400163 1_465
In7 La7 3.548025 1_565
In7 La8 3.548472 1_455
In7 La2 3.867168 1_555
Ge0 La1 3.095558 1_545
Ge0 La3 3.166894 1_456
Ge0 La14 3.198609 1_455
Ge0 La16 3.199611 1_556
Ge0 La9 3.230000 1_545
Ge0 La7 3.230893 1_555
Ge0 La23 3.614055 1_546
Ge0 La22 3.615426 1_455
Ge0 La21 3.745651 1_555
Ge1 La1 3.095293 1_654
Ge1 La3 3.166398 1_565
Ge1 La17 3.199563 1_565
Ge1 La15 3.200444 1_555
Ge1 La8 3.229604 1_554
Ge1 La6 3.230527 1_655
Ge1 La22 3.613243 1_564
Ge1 La23 3.616126 1_655
Ge1 La20 3.742519 1_555
Ge2 La0 3.142917 1_555
Ge2 La2 3.187430 1_555
Ge2 La19 3.200971 1_555
Ge2 La12 3.203723 1_555
Ge2 La10 3.238573 1_555
Ge2 La5 3.241243 1_555
Ge2 La21 3.568076 1_555
Ge2 La20 3.572659 1_555
Ge2 La23 3.744010 1_555
Ge3 La0 3.141922 1_555
Ge3 La2 3.188772 1_555
Ge3 La18 3.201088 1_555
Ge3 La13 3.203064 1_555
Ge3 La4 3.238742 1_555
Ge3 La11 3.238805 1_555
Ge3 La21 3.568414 1_555
Ge3 La20 3.570117 1_555
Ge3 La22 3.744506 1_555
Ge4 La8 3.184685 1_555
Ge4 La9 3.187249 1_555
Ge4 La19 3.193720 1_655
Ge4 La18 3.195390 1_555
Ge4 La15 3.200702 1_555
Ge4 La14 3.201462 1_555
Ge4 La5 3.207227 1_556
Ge4 La4 3.208120 1_565
Ge5 La7 3.184257 1_555
Ge5 La6 3.185586 1_555
Ge5 La12 3.193700 1_545
Ge5 La13 3.195472 1_554
Ge5 La16 3.201036 1_555
Ge5 La17 3.201471 1_555
Ge5 La10 3.206558 1_555
Ge5 La11 3.206571 1_455
Ge6 In4 3.028776 1_565
Ge6 La20 3.190647 1_555
Ge6 La2 3.224106 1_555
Ge6 La17 3.297660 1_565
Ge6 La15 3.299014 1_555
Ge6 La7 3.320005 1_565
Ge6 La9 3.320515 1_555
Ge6 La12 3.483342 1_555
Ge6 La18 3.484146 1_555
Ge7 In5 3.027992 1_456
Ge7 La21 3.190157 1_555
Ge7 La2 3.225188 1_555
Ge7 La14 3.296977 1_455
Ge7 La16 3.298825 1_556
Ge7 La6 3.320463 1_556
Ge7 La8 3.321190 1_455
Ge7 La19 3.481768 1_555
Ge7 La13 3.483420 1_555
