# generated using pymatgen
data_Ho2TiCuO6
_symmetry_space_group_name_H-M   'P 1'
_cell_length_a   3.59571501
_cell_length_b   3.59517252
_cell_length_c   11.36305700
_cell_angle_alpha   90.00000130
_cell_angle_beta   90.00022248
_cell_angle_gamma   119.99517939
_symmetry_Int_Tables_number   1
_chemical_formula_structural   Ho2TiCuO6
_chemical_formula_sum   'Ho2 Ti1 Cu1 O6'
_cell_volume   127.21898031
_cell_formula_units_Z   1
loop_
 _symmetry_equiv_pos_site_id
 _symmetry_equiv_pos_as_xyz
  1  'x, y, z'
loop_
 _atom_site_type_symbol
 _atom_site_label
 _atom_site_symmetry_multiplicity
 _atom_site_fract_x
 _atom_site_fract_y
 _atom_site_fract_z
 _atom_site_occupancy
  Ho  Ho0  1  0.99997700  0.99998600  0.27066500  1
  Ho  Ho1  1  0.99994200  0.99996900  0.72506000  1
  Ti  Ti0  1  0.66672800  0.33336500  0.99819300  1
  Cu  Cu0  1  0.33362200  0.66681000  0.49783100  1
  O  O0  1  0.66665500  0.33332500  0.16225400  1
  O  O1  1  0.33334100  0.66667200  0.66667400  1
  O  O2  1  0.00003800  0.00002100  0.99825900  1
  O  O3  1  0.99969500  0.99985000  0.49787600  1
  O  O4  1  0.33337800  0.66669000  0.32922400  1
  O  O5  1  0.66662200  0.33331100  0.83396400  1
loop_
_geom_bond_atom_site_label_1
_geom_bond_atom_site_label_2
_geom_bond_distance
_geom_bond_site_symmetry_2
Ho0 O4 2.179912 1_655
Ho0 O4 2.179919 1_555
Ho0 O4 2.179928 1_665
Ho0 O0 2.413770 1_555
Ho0 O0 2.413774 1_565
Ho0 O0 2.414092 1_665
Ho0 O3 2.581812 1_555
Ho1 O1 2.179313 1_655
Ho1 O1 2.179320 1_555
Ho1 O1 2.179329 1_665
Ho1 O5 2.416630 1_555
Ho1 O5 2.416646 1_565
Ho1 O5 2.416951 1_665
Ho1 O3 2.581505 1_555
Cu0 O4 1.915891 1_555
Cu0 O1 1.918573 1_555
Cu0 O3 2.074239 1_555
Cu0 O3 2.076689 1_445
Cu0 O3 2.076716 1_455
O0 Ti0 1.864235 1_554
O2 Ti0 2.075741 1_455
O2 Ti0 2.075742 1_445
O2 Ti0 2.076161 1_555
O5 Ti0 1.866144 1_555
