# generated using pymatgen
data_Y3(SiNi)2
_symmetry_space_group_name_H-M   'P 1'
_cell_length_a   8.97018018
_cell_length_b   8.97018018
_cell_length_c   8.97018018
_cell_angle_alpha   153.85370817
_cell_angle_beta   153.45167210
_cell_angle_gamma   37.60564552
_symmetry_Int_Tables_number   1
_chemical_formula_structural   Y3(SiNi)2
_chemical_formula_sum   'Y3 Si2 Ni2'
_cell_volume   141.94508841
_cell_formula_units_Z   1
loop_
 _symmetry_equiv_pos_site_id
 _symmetry_equiv_pos_as_xyz
  1  'x, y, z'
loop_
 _atom_site_type_symbol
 _atom_site_label
 _atom_site_symmetry_multiplicity
 _atom_site_fract_x
 _atom_site_fract_y
 _atom_site_fract_z
 _atom_site_occupancy
  Y  Y0  1  0.18069300  0.68069300  0.50000000  1
  Y  Y1  1  0.81930700  0.31930700  0.50000000  1
  Y  Y2  1  0.00000000  0.00000000  0.00000000  1
  Si  Si0  1  0.36225100  0.86225100  0.50000000  1
  Si  Si1  1  0.63774900  0.13774900  0.50000000  1
  Ni  Ni0  1  0.43039600  0.43039600  0.00000000  1
  Ni  Ni1  1  0.56960400  0.56960400  0.00000000  1
loop_
_geom_bond_atom_site_label_1
_geom_bond_atom_site_label_2
_geom_bond_distance
_geom_bond_site_symmetry_2
Si0 Y1 2.981767 1_555
Si0 Y1 2.981767 1_465
Si0 Y1 2.981767 1_454
Si0 Y1 2.981767 1_566
Si0 Y0 3.083389 1_555
Si0 Y2 3.116870 1_565
Si0 Y2 3.116870 1_666
Si1 Y0 2.981767 1_645
Si1 Y0 2.981767 1_544
Si1 Y0 2.981767 1_656
Si1 Y0 2.981767 1_555
Si1 Y1 3.083389 1_555
Si1 Y2 3.116870 1_656
Si1 Y2 3.116870 1_555
Ni0 Si0 2.335856 1_544
Ni0 Si0 2.335856 1_555
Ni0 Ni1 2.364162 1_555
Ni0 Y1 2.793115 1_555
Ni0 Y1 2.793115 1_454
Ni0 Y2 3.123516 1_655
Ni0 Y2 3.123516 1_554
Ni0 Y2 3.123516 1_565
Ni0 Y2 3.123516 1_666
Ni1 Si1 2.335856 1_565
Ni1 Si1 2.335856 1_554
Ni1 Y0 2.793115 1_554
Ni1 Y0 2.793115 1_655
Ni1 Y2 3.123516 1_655
Ni1 Y2 3.123516 1_554
Ni1 Y2 3.123516 1_565
Ni1 Y2 3.123516 1_666
