# generated using pymatgen
data_Na(YbSe2)3
_symmetry_space_group_name_H-M   'P 1'
_cell_length_a   10.63867527
_cell_length_b   11.32990431
_cell_length_c   56.90470732
_cell_angle_alpha   90.00000000
_cell_angle_beta   90.00000000
_cell_angle_gamma   118.00154724
_symmetry_Int_Tables_number   1
_chemical_formula_structural   Na(YbSe2)3
_chemical_formula_sum   'Na1 Yb3 Se6'
_cell_volume   6056.06711677
_cell_formula_units_Z   1
loop_
 _symmetry_equiv_pos_site_id
 _symmetry_equiv_pos_as_xyz
  1  'x, y, z'
loop_
 _atom_site_type_symbol
 _atom_site_label
 _atom_site_symmetry_multiplicity
 _atom_site_fract_x
 _atom_site_fract_y
 _atom_site_fract_z
 _atom_site_occupancy
  Na  Na0  1  -0.00000000  -0.00000000  0.00000000  1
  Yb  Yb0  1  -0.00000000  -0.00000000  0.50000000  1
  Yb  Yb1  1  0.50000000  0.50000000  0.00000000  1
  Yb  Yb2  1  -0.00000000  0.50000000  0.00000000  1
  Se  Se0  1  -0.00000000  -0.00000000  0.75763317  1
  Se  Se1  1  -0.00000000  -0.00000000  0.24236683  1
  Se  Se2  1  0.74862384  0.73376715  0.00000000  1
  Se  Se3  1  0.25137616  0.26623285  -0.00000000  1
  Se  Se4  1  0.01485669  0.26623285  0.00000000  1
  Se  Se5  1  0.98514331  0.73376715  0.00000000  1
loop_
_geom_bond_atom_site_label_1
_geom_bond_atom_site_label_2
_geom_bond_distance
_geom_bond_site_symmetry_2
Na0 Se2 2.945494 1_445
Na0 Se3 2.945494 1_555
Na0 Se5 2.945494 1_445
Na0 Se4 2.945494 1_555
Se2 Se5 2.516254 1_555
Se2 Yb1 2.726340 1_555
Se3 Se4 2.516254 1_555
Se3 Yb1 2.726340 1_555
Se4 Yb2 2.726340 1_555
Se5 Yb2 2.726340 1_655
