# generated using pymatgen
data_Li3MnV(PO4)3
_symmetry_space_group_name_H-M   'P 1'
_cell_length_a   8.37598800
_cell_length_b   8.78706187
_cell_length_c   12.63026662
_cell_angle_alpha   91.09618207
_cell_angle_beta   91.93560907
_cell_angle_gamma   90.80202453
_symmetry_Int_Tables_number   1
_chemical_formula_structural   Li3MnV(PO4)3
_chemical_formula_sum   'Li12 Mn4 V4 P12 O48'
_cell_volume   928.79153772
_cell_formula_units_Z   4
loop_
 _symmetry_equiv_pos_site_id
 _symmetry_equiv_pos_as_xyz
  1  'x, y, z'
loop_
 _atom_site_type_symbol
 _atom_site_label
 _atom_site_symmetry_multiplicity
 _atom_site_fract_x
 _atom_site_fract_y
 _atom_site_fract_z
 _atom_site_occupancy
  Li  Li0  1  0.00008600  0.99981700  0.99691000  1
  Li  Li1  1  0.00172500  0.89401500  0.75474500  1
  Li  Li2  1  0.99678900  0.98960300  0.50248700  1
  Li  Li3  1  0.98803900  0.10479700  0.24240000  1
  Li  Li4  1  0.28682400  0.18989700  0.95474600  1
  Li  Li5  1  0.28904600  0.81359500  0.45189800  1
  Li  Li6  1  0.50361600  0.49619000  0.99793200  1
  Li  Li7  1  0.50141900  0.60777700  0.74518000  1
  Li  Li8  1  0.51044200  0.50522400  0.49738400  1
  Li  Li9  1  0.49774300  0.39946500  0.25162700  1
  Li  Li10  1  0.71461800  0.18006000  0.55083000  1
  Li  Li11  1  0.70947300  0.80854500  0.04605800  1
  Mn  Mn0  1  0.21023600  0.50018000  0.85361000  1
  Mn  Mn1  1  0.71636300  0.99860600  0.35585600  1
  Mn  Mn2  1  0.78863400  0.49647600  0.64677700  1
  Mn  Mn3  1  0.78868000  0.50129500  0.14595800  1
  V  V0  1  0.21207600  0.49790200  0.35727800  1
  V  V1  1  0.28494400  0.00274900  0.64133400  1
  V  V2  1  0.28484800  0.99869400  0.14313700  1
  V  V3  1  0.71621800  0.00246600  0.85720800  1
  P  P0  1  0.00099900  0.20129100  0.75023700  1
  P  P1  1  0.00053300  0.79582000  0.25076200  1
  P  P2  1  0.15795000  0.64250100  0.60417400  1
  P  P3  1  0.15774000  0.35688900  0.10806200  1
  P  P4  1  0.34197400  0.85563900  0.89632400  1
  P  P5  1  0.35068800  0.14430300  0.39763300  1
  P  P6  1  0.50157900  0.29716800  0.75236700  1
  P  P7  1  0.50293400  0.70806400  0.25043900  1
  P  P8  1  0.65296000  0.85431000  0.60410200  1
  P  P9  1  0.65986200  0.14942800  0.10102800  1
  P  P10  1  0.84067100  0.64398100  0.89267100  1
  P  P11  1  0.83084700  0.35317600  0.39427600  1
  O  O0  1  0.00731500  0.57449300  0.89388700  1
  O  O1  1  0.00081400  0.41670100  0.39173700  1
  O  O2  1  0.07077300  0.09016300  0.66561400  1
  O  O3  1  0.06961200  0.90413100  0.16611600  1
  O  O4  1  0.13032400  0.29761000  0.81155200  1
  O  O5  1  0.12611000  0.70200200  0.31000800  1
  O  O6  1  0.13993300  0.81973000  0.59131500  1
  O  O7  1  0.13559700  0.17835000  0.09710000  1
  O  O8  1  0.25882600  0.60036400  0.70208200  1
  O  O9  1  0.24701700  0.94333200  0.98240000  1
  O  O10  1  0.25041600  0.59217100  0.50431700  1
  O  O11  1  0.24885100  0.40221600  0.21306900  1
  O  O12  1  0.25071700  0.05600300  0.47956800  1
  O  O13  1  0.26820000  0.90736700  0.78960100  1
  O  O14  1  0.26256200  0.40329800  0.01512300  1
  O  O15  1  0.27922000  0.09491600  0.28783100  1
  O  O16  1  0.33360400  0.67964400  0.90958800  1
  O  O17  1  0.34593200  0.32016500  0.41326200  1
  O  O18  1  0.38117500  0.20105400  0.68632000  1
  O  O19  1  0.38675800  0.80550700  0.18732800  1
  O  O20  1  0.42813700  0.40946500  0.83570000  1
  O  O21  1  0.43055500  0.60187200  0.33470200  1
  O  O22  1  0.47462900  0.90056800  0.59014900  1
  O  O23  1  0.47952500  0.10717400  0.09326600  1
  O  O24  1  0.52239200  0.89313600  0.90912500  1
  O  O25  1  0.52989000  0.10365400  0.41072000  1
  O  O26  1  0.57781200  0.40369300  0.66748500  1
  O  O27  1  0.57552600  0.59843900  0.16483800  1
  O  O28  1  0.61672700  0.19926900  0.81555200  1
  O  O29  1  0.62494000  0.80666200  0.31499800  1
  O  O30  1  0.64914900  0.67996200  0.58603400  1
  O  O31  1  0.66039800  0.32605000  0.08703700  1
  O  O32  1  0.72120700  0.89944400  0.71646000  1
  O  O33  1  0.73680400  0.59688900  0.98604600  1
  O  O34  1  0.74363900  0.09925100  0.20400700  1
  O  O35  1  0.75711600  0.94511500  0.52757000  1
  O  O36  1  0.74741800  0.60280300  0.78856100  1
  O  O37  1  0.73792600  0.39785300  0.49450300  1
  O  O38  1  0.75198000  0.06439300  0.01250200  1
  O  O39  1  0.73112500  0.39770100  0.29637300  1
  O  O40  1  0.86569700  0.82214400  0.90605900  1
  O  O41  1  0.85410000  0.17393500  0.40327400  1
  O  O42  1  0.87336300  0.28939200  0.69001900  1
  O  O43  1  0.87113800  0.70214500  0.18813800  1
  O  O44  1  0.93523600  0.09217700  0.83564800  1
  O  O45  1  0.93164900  0.90690800  0.33606000  1
  O  O46  1  0.98765700  0.57750500  0.60634700  1
  O  O47  1  0.98995700  0.42326000  0.10557400  1
loop_
_geom_bond_atom_site_label_1
_geom_bond_atom_site_label_2
_geom_bond_distance
_geom_bond_site_symmetry_2
Li0 O9 2.146772 1_555
Li0 O38 2.176185 1_466
Li0 O40 2.194580 1_455
Li0 O44 2.258989 1_465
Li0 O7 2.264477 1_566
Li0 O3 2.368909 1_556
Li1 O44 2.093749 1_465
Li1 O2 2.159348 1_565
Li1 O13 2.261344 1_555
Li1 O40 2.350015 1_455
Li1 O32 2.384126 1_455
Li1 O6 2.481527 1_555
Li2 O35 2.075804 1_555
Li2 O6 2.224333 1_655
Li2 O12 2.227381 1_665
Li2 O45 2.257691 1_555
Li2 O2 2.288791 1_665
Li2 O41 2.377576 1_565
Li3 O34 2.087426 1_555
Li3 O3 2.125427 1_645
Li3 O45 2.177053 1_545
Li3 O7 2.342947 1_655
Li3 O41 2.425295 1_555
Li3 O15 2.489671 1_655
Li4 O14 2.026203 1_556
Li4 O9 2.223475 1_545
Li4 O7 2.237115 1_556
Li4 O4 2.413538 1_555
Li4 O23 2.466823 1_556
Li5 O10 2.091597 1_555
Li5 O12 2.181874 1_565
Li5 O6 2.193245 1_555
Li5 O5 2.401208 1_555
Li5 O22 2.404517 1_555
Li6 O33 2.144041 1_555
Li6 O14 2.186387 1_556
Li6 O20 2.240138 1_555
Li6 O31 2.290348 1_556
Li6 O27 2.332507 1_556
Li6 O16 2.428419 1_555
Li7 O8 2.085573 1_555
Li7 O36 2.115393 1_555
Li7 O26 2.143717 1_555
Li7 O20 2.194118 1_555
Li7 O30 2.483668 1_555
Li7 O16 2.618839 1_555
Li8 O37 2.139095 1_555
Li8 O30 2.181153 1_555
Li8 O21 2.319618 1_555
Li8 O10 2.322037 1_555
Li8 O17 2.333264 1_555
Li8 O26 2.394915 1_555
Li9 O39 2.016793 1_555
Li9 O11 2.125340 1_555
Li9 O21 2.139496 1_555
Li9 O27 2.184634 1_555
Li9 O17 2.544624 1_555
Li9 O31 2.599686 1_555
Li10 O37 2.063428 1_555
Li10 O35 2.116485 1_545
Li10 O41 2.232957 1_555
Li10 O42 2.350143 1_555
Li10 O25 2.391004 1_555
Li11 O33 2.013854 1_554
Li11 O40 2.239008 1_554
Li11 O38 2.320521 1_565
Li11 O43 2.421459 1_555
Li11 O24 2.428548 1_554
Mn0 O0 1.910710 1_555
Mn0 O4 1.950648 1_555
Mn0 O16 1.979095 1_555
Mn0 O20 2.019755 1_555
Mn0 O8 2.170355 1_555
Mn0 O14 2.257148 1_556
Mn1 O29 1.897692 1_555
Mn1 O25 1.964877 1_565
Mn1 O41 1.982792 1_565
Mn1 O45 2.006696 1_555
Mn1 O34 2.145103 1_565
Mn1 O35 2.243790 1_555
Mn2 O46 1.893365 1_555
Mn2 O26 1.962233 1_555
Mn2 O42 2.039878 1_555
Mn2 O36 2.045906 1_555
Mn2 O37 2.121575 1_555
Mn2 O30 2.143038 1_555
Mn3 O47 1.910406 1_555
Mn3 O43 1.944399 1_555
Mn3 O31 1.983788 1_555
Mn3 O27 2.009158 1_555
Mn3 O39 2.187680 1_555
Mn3 O33 2.233729 1_554
O0 P10 1.531050 1_455
O1 P11 1.523447 1_455
O1 V0 1.964261 1_555
O2 P0 1.567061 1_555
O2 V1 1.992189 1_555
O3 P1 1.564885 1_555
O3 V2 2.006852 1_555
O4 P0 1.543381 1_555
O5 P1 1.529905 1_555
O5 V0 2.034558 1_555
O6 P2 1.577658 1_555
O6 V1 2.077331 1_565
O7 P3 1.580068 1_555
O7 V2 2.105779 1_545
O8 P2 1.528363 1_555
O9 P4 1.565824 1_555
O9 V2 2.091175 1_556
O10 P2 1.562159 1_555
O10 V0 2.032650 1_555
O11 P3 1.550134 1_555
O11 V0 2.026295 1_555
O12 P5 1.563710 1_555
O12 V1 2.115746 1_555
O13 P4 1.542862 1_555
O13 V1 2.074477 1_565
O14 P3 1.546928 1_555
O15 P5 1.543885 1_555
O15 V2 2.001191 1_545
O16 P4 1.559567 1_555
O17 P5 1.555352 1_555
O17 V0 2.057647 1_555
O18 P6 1.522695 1_555
O18 V1 1.975032 1_555
O19 P7 1.520680 1_555
O19 V2 1.991594 1_555
O20 P6 1.575085 1_555
O21 P7 1.560975 1_555
O21 V0 2.064748 1_555
O22 P8 1.558643 1_555
O22 V1 1.958444 1_565
O23 P9 1.549833 1_555
O23 V2 2.003278 1_545
O24 P4 1.544630 1_555
O24 V3 2.010213 1_565
O25 P5 1.551900 1_555
O26 P6 1.581505 1_555
O27 P7 1.577175 1_555
O28 P6 1.518095 1_555
O28 V3 2.001835 1_555
O29 P7 1.533530 1_555
O30 P8 1.544313 1_555
O31 P9 1.565333 1_555
O32 P8 1.554108 1_555
O32 V3 1.981391 1_565
O33 P10 1.548188 1_555
O34 P9 1.532139 1_555
O35 P8 1.548903 1_555
O36 P10 1.540967 1_555
O37 P11 1.555140 1_555
O38 P9 1.564055 1_555
O38 V3 2.036627 1_554
O39 P11 1.528944 1_555
O40 P10 1.581678 1_555
O40 V3 2.121245 1_565
O41 P11 1.595438 1_555
O42 P0 1.520352 1_655
O43 P1 1.539482 1_655
O44 P0 1.565681 1_655
O44 V3 2.015539 1_555
O45 P1 1.569686 1_655
O46 P2 1.530331 1_655
O47 P3 1.528654 1_655
