# generated using pymatgen
data_Mg5Si6
_symmetry_space_group_name_H-M   'P 1'
_cell_length_a   5.21722600
_cell_length_b   5.88731924
_cell_length_c   13.66759676
_cell_angle_alpha   84.37642243
_cell_angle_beta   85.28698788
_cell_angle_gamma   84.50506003
_symmetry_Int_Tables_number   1
_chemical_formula_structural   Mg5Si6
_chemical_formula_sum   'Mg10 Si12'
_cell_volume   414.74245690
_cell_formula_units_Z   2
loop_
 _symmetry_equiv_pos_site_id
 _symmetry_equiv_pos_as_xyz
  1  'x, y, z'
loop_
 _atom_site_type_symbol
 _atom_site_label
 _atom_site_symmetry_multiplicity
 _atom_site_fract_x
 _atom_site_fract_y
 _atom_site_fract_z
 _atom_site_occupancy
  Mg  Mg0  1  0.92228200  0.31317700  0.97723600  1
  Mg  Mg1  1  0.94022400  0.31018800  0.39345200  1
  Mg  Mg2  1  0.63433100  0.70285900  0.27925500  1
  Mg  Mg3  1  0.18458400  0.20095500  0.72981100  1
  Mg  Mg4  1  0.69839400  0.50456700  0.77201100  1
  Mg  Mg5  1  0.94480700  0.80528600  0.07536500  1
  Mg  Mg6  1  0.44969100  0.23163900  0.52143400  1
  Mg  Mg7  1  0.38056800  0.71283800  0.60920900  1
  Mg  Mg8  1  0.41493400  0.93740400  0.91841900  1
  Mg  Mg9  1  0.40413600  0.11590800  0.12381700  1
  Si  Si0  1  0.46584100  0.64156100  0.08688200  1
  Si  Si1  1  0.41987000  0.41004000  0.95401400  1
  Si  Si2  1  0.96317200  0.03572500  0.57145600  1
  Si  Si3  1  0.81618400  0.79922600  0.45429800  1
  Si  Si4  1  0.87849900  0.17014900  0.19880500  1
  Si  Si5  1  0.92315200  0.91329000  0.86767600  1
  Si  Si6  1  0.91609100  0.47140000  0.57717400  1
  Si  Si7  1  0.18094100  0.51349900  0.22782500  1
  Si  Si8  1  0.46887600  0.21694300  0.31988500  1
  Si  Si9  1  0.18183700  0.58832300  0.81832400  1
  Si  Si10  1  0.67899800  0.00639200  0.71883900  1
  Si  Si11  1  0.12895800  0.89500300  0.30844400  1
loop_
_geom_bond_atom_site_label_1
_geom_bond_atom_site_label_2
_geom_bond_distance
_geom_bond_site_symmetry_2
Mg0 Si1 2.666754 1_555
Mg0 Si1 2.697768 1_655
Mg0 Si9 2.902125 1_655
Mg0 Si5 2.910772 1_545
Mg0 Si4 3.058648 1_556
Mg1 Si7 2.724710 1_655
Mg1 Si6 2.759385 1_555
Mg1 Si2 2.790092 1_555
Mg1 Si8 2.851792 1_555
Mg1 Si11 2.863887 1_645
Mg1 Si8 2.877836 1_655
Mg1 Si4 2.912460 1_555
Mg1 Mg6 3.025835 1_555
Mg1 Mg2 3.053350 1_555
Mg1 Si3 3.069807 1_555
Mg1 Si3 3.154954 1_545
Mg1 Mg6 3.272409 1_655
Mg2 Si3 2.772689 1_555
Mg2 Si11 2.781200 1_555
Mg2 Si7 2.874732 1_555
Mg2 Si0 2.905613 1_555
Mg2 Si11 2.985781 1_655
Mg2 Si7 3.014120 1_655
Mg2 Si8 3.052898 1_555
Mg2 Mg5 3.141503 1_555
Mg2 Si8 3.156573 1_565
Mg2 Si4 3.201315 1_565
Mg2 Mg9 3.273619 1_565
Mg3 Si9 2.682587 1_555
Mg3 Si10 2.718906 1_555
Mg3 Si5 2.770147 1_445
Mg3 Si2 2.829074 1_455
Mg3 Si6 2.872549 1_455
Mg3 Si10 2.994934 1_455
Mg3 Mg6 3.058846 1_555
Mg4 Si9 2.726381 1_555
Mg4 Si9 2.750853 1_655
Mg4 Si1 2.810463 1_555
Mg4 Si6 2.825217 1_555
Mg4 Si10 2.966635 1_565
Mg4 Si10 3.102746 1_555
Mg5 Si0 2.750487 1_555
Mg5 Si0 2.807506 1_655
Mg5 Si4 2.837656 1_565
Mg5 Si7 2.850577 1_655
Mg5 Si5 2.856568 1_554
Mg6 Si8 2.757819 1_555
Mg6 Si2 2.891645 1_455
Mg6 Si2 2.920477 1_555
Mg6 Si6 3.071265 1_455
Mg6 Si6 3.109191 1_555
Mg6 Mg7 3.161380 1_555
Mg6 Si10 3.161432 1_555
Mg6 Si3 3.196267 1_545
Mg6 Mg7 3.212481 1_545
Mg7 Si2 2.796711 1_465
Mg7 Si9 3.004845 1_555
Mg7 Si6 3.006733 1_455
Mg7 Si10 3.010378 1_565
Mg7 Si3 3.020968 1_555
Mg7 Si6 3.029627 1_555
Mg8 Si5 2.678909 1_555
Mg8 Si5 2.732330 1_455
Mg8 Si0 2.762519 1_556
Mg8 Si1 2.874207 1_565
Mg8 Si10 2.962469 1_565
Mg8 Si9 2.979473 1_555
Mg8 Si1 3.093154 1_555
Mg9 Si1 2.756764 1_554
Mg9 Si4 2.812411 1_555
Mg9 Si4 2.847373 1_455
Mg9 Si8 2.854598 1_555
Mg9 Si0 2.869612 1_545
Mg9 Si7 2.951936 1_555
Mg9 Si11 3.039605 1_545
Mg9 Si0 3.129454 1_555
Si0 Si1 2.415057 1_554
Si0 Si7 2.438865 1_555
Si1 Si9 2.414672 1_555
Si2 Si3 2.435982 1_545
Si2 Si6 2.561430 1_555
Si3 Si6 2.476498 1_555
Si4 Si8 2.603286 1_555
Si4 Si7 2.757545 1_655
Si5 Si9 2.354896 1_655
Si7 Si8 2.503167 1_555
Si10 Si2 2.403269 1_555
Si10 Si5 2.476842 1_545
Si11 Si4 2.453085 1_465
Si11 Si3 2.525086 1_455
Si11 Si7 2.579071 1_555
Si11 Si8 2.740311 1_565
