# generated using pymatgen
data_Cs2Ca2(SO4)3
_symmetry_space_group_name_H-M   'P 1'
_cell_length_a   10.85273900
_cell_length_b   10.85273900
_cell_length_c   10.85273900
_cell_angle_alpha   90.00000000
_cell_angle_beta   90.00000000
_cell_angle_gamma   90.00000000
_symmetry_Int_Tables_number   1
_chemical_formula_structural   Cs2Ca2(SO4)3
_chemical_formula_sum   'Cs8 Ca8 S12 O48'
_cell_volume   1278.25669500
_cell_formula_units_Z   4
loop_
 _symmetry_equiv_pos_site_id
 _symmetry_equiv_pos_as_xyz
  1  'x, y, z'
loop_
 _atom_site_type_symbol
 _atom_site_label
 _atom_site_symmetry_multiplicity
 _atom_site_fract_x
 _atom_site_fract_y
 _atom_site_fract_z
 _atom_site_occupancy
  Cs  Cs0  1  0.04745400  0.04745400  0.04745400  1
  Cs  Cs1  1  0.45254600  0.95254600  0.54745400  1
  Cs  Cs2  1  0.95254600  0.54745400  0.45254600  1
  Cs  Cs3  1  0.54745400  0.45254600  0.95254600  1
  Cs  Cs4  1  0.81675500  0.81675500  0.81675500  1
  Cs  Cs5  1  0.68324500  0.18324500  0.31675500  1
  Cs  Cs6  1  0.18324500  0.31675500  0.68324500  1
  Cs  Cs7  1  0.31675500  0.68324500  0.18324500  1
  Ca  Ca0  1  0.33480700  0.33480700  0.33480700  1
  Ca  Ca1  1  0.16519300  0.66519300  0.83480700  1
  Ca  Ca2  1  0.66519300  0.83480700  0.16519300  1
  Ca  Ca3  1  0.83480700  0.16519300  0.66519300  1
  Ca  Ca4  1  0.59889300  0.59889300  0.59889300  1
  Ca  Ca5  1  0.90110700  0.40110700  0.09889300  1
  Ca  Ca6  1  0.40110700  0.09889300  0.90110700  1
  Ca  Ca7  1  0.09889300  0.90110700  0.40110700  1
  S  S0  1  0.01731800  0.21644300  0.37579400  1
  S  S1  1  0.48268200  0.78355700  0.87579400  1
  S  S2  1  0.98268200  0.71644300  0.12420600  1
  S  S3  1  0.37579400  0.01731800  0.21644300  1
  S  S4  1  0.51731800  0.28355700  0.62420600  1
  S  S5  1  0.87579400  0.48268200  0.78355700  1
  S  S6  1  0.12420600  0.98268200  0.71644300  1
  S  S7  1  0.62420600  0.51731800  0.28355700  1
  S  S8  1  0.21644300  0.37579400  0.01731800  1
  S  S9  1  0.71644300  0.12420600  0.98268200  1
  S  S10  1  0.28355700  0.62420600  0.51731800  1
  S  S11  1  0.78355700  0.87579400  0.48268200  1
  O  O0  1  0.00792700  0.08679000  0.33239300  1
  O  O1  1  0.49207300  0.91321000  0.83239300  1
  O  O2  1  0.99207300  0.58679000  0.16760700  1
  O  O3  1  0.33239300  0.00792700  0.08679000  1
  O  O4  1  0.50792700  0.41321000  0.66760700  1
  O  O5  1  0.83239300  0.49207300  0.91321000  1
  O  O6  1  0.16760700  0.99207300  0.58679000  1
  O  O7  1  0.66760700  0.50792700  0.41321000  1
  O  O8  1  0.08679000  0.33239300  0.00792700  1
  O  O9  1  0.58679000  0.16760700  0.99207300  1
  O  O10  1  0.41321000  0.66760700  0.50792700  1
  O  O11  1  0.91321000  0.83239300  0.49207300  1
  O  O12  1  0.26619500  0.50779300  0.44575700  1
  O  O13  1  0.23380500  0.49220700  0.94575700  1
  O  O14  1  0.73380500  0.00779300  0.05424300  1
  O  O15  1  0.44575700  0.26619500  0.50779300  1
  O  O16  1  0.76619500  0.99220700  0.55424300  1
  O  O17  1  0.94575700  0.23380500  0.49220700  1
  O  O18  1  0.05424300  0.73380500  0.00779300  1
  O  O19  1  0.55424300  0.76619500  0.99220700  1
  O  O20  1  0.50779300  0.44575700  0.26619500  1
  O  O21  1  0.00779300  0.05424300  0.73380500  1
  O  O22  1  0.99220700  0.55424300  0.76619500  1
  O  O23  1  0.49220700  0.94575700  0.23380500  1
  O  O24  1  0.03700500  0.79854800  0.21980200  1
  O  O25  1  0.46299500  0.20145200  0.71980200  1
  O  O26  1  0.96299500  0.29854800  0.28019800  1
  O  O27  1  0.21980200  0.03700500  0.79854800  1
  O  O28  1  0.53700500  0.70145200  0.78019800  1
  O  O29  1  0.71980200  0.46299500  0.20145200  1
  O  O30  1  0.28019800  0.96299500  0.29854800  1
  O  O31  1  0.78019800  0.53700500  0.70145200  1
  O  O32  1  0.79854800  0.21980200  0.03700500  1
  O  O33  1  0.29854800  0.28019800  0.96299500  1
  O  O34  1  0.70145200  0.78019800  0.53700500  1
  O  O35  1  0.20145200  0.71980200  0.46299500  1
  O  O36  1  0.14767200  0.24972000  0.40024500  1
  O  O37  1  0.35232800  0.75028000  0.90024500  1
  O  O38  1  0.85232800  0.74972000  0.09975500  1
  O  O39  1  0.40024500  0.14767200  0.24972000  1
  O  O40  1  0.64767200  0.25028000  0.59975500  1
  O  O41  1  0.90024500  0.35232800  0.75028000  1
  O  O42  1  0.09975500  0.85232800  0.74972000  1
  O  O43  1  0.59975500  0.64767200  0.25028000  1
  O  O44  1  0.24972000  0.40024500  0.14767200  1
  O  O45  1  0.74972000  0.09975500  0.85232800  1
  O  O46  1  0.25028000  0.59975500  0.64767200  1
  O  O47  1  0.75028000  0.90024500  0.35232800  1
loop_
_geom_bond_atom_site_label_1
_geom_bond_atom_site_label_2
_geom_bond_distance
_geom_bond_site_symmetry_2
Cs0 O8 3.151033 1_555
Cs0 O3 3.151033 1_555
Cs0 O0 3.151033 1_555
Cs0 O24 3.287631 1_545
Cs0 O27 3.287631 1_554
Cs0 O32 3.287631 1_455
Cs0 O18 3.431848 1_545
Cs0 O14 3.431848 1_455
Cs0 O21 3.431848 1_554
Cs1 O1 3.151033 1_555
Cs1 O6 3.151033 1_555
Cs1 O10 3.151033 1_555
Cs1 O25 3.287631 1_565
Cs1 O30 3.287631 1_555
Cs1 O34 3.287631 1_555
Cs1 O16 3.431848 1_555
Cs1 O15 3.431848 1_565
Cs1 O23 3.431848 1_555
Cs2 O11 3.151033 1_555
Cs2 O2 3.151033 1_555
Cs2 O7 3.151033 1_555
Cs2 O35 3.287631 1_655
Cs2 O26 3.287631 1_555
Cs2 O31 3.287631 1_555
Cs2 O22 3.431848 1_555
Cs2 O12 3.431848 1_655
Cs2 O17 3.431848 1_555
Cs3 O5 3.151033 1_555
Cs3 O9 3.151033 1_555
Cs3 O4 3.151033 1_555
Cs3 O29 3.287631 1_556
Cs3 O33 3.287631 1_555
Cs3 O28 3.287631 1_555
Cs3 O19 3.431848 1_555
Cs3 O20 3.431848 1_556
Cs3 O13 3.431848 1_555
Cs4 O45 3.179836 1_565
Cs4 O42 3.179836 1_655
Cs4 O38 3.179836 1_556
Cs4 O28 3.307705 1_555
Cs4 O34 3.307705 1_555
Cs4 O31 3.307705 1_555
Cs4 O14 3.428105 1_566
Cs4 O18 3.428105 1_656
Cs4 O21 3.428105 1_665
Cs4 O16 3.470370 1_555
Cs4 O22 3.470370 1_555
Cs4 O19 3.470370 1_555
Cs4 O1 3.679807 1_555
Cs4 O5 3.679807 1_555
Cs4 O11 3.679807 1_555
Cs5 O40 3.179836 1_555
Cs5 O47 3.179836 1_545
Cs5 O39 3.179836 1_555
Cs5 O26 3.307705 1_555
Cs5 O29 3.307705 1_555
Cs5 O32 3.307705 1_555
Cs5 O16 3.428105 1_545
Cs5 O15 3.428105 1_555
Cs5 O23 3.428105 1_545
Cs5 O17 3.470370 1_555
Cs5 O20 3.470370 1_555
Cs5 O14 3.470370 1_555
Cs5 O9 3.679807 1_554
Cs5 O0 3.679807 1_655
Cs5 O7 3.679807 1_555
Cs6 O46 3.179836 1_555
Cs6 O41 3.179836 1_455
Cs6 O36 3.179836 1_555
Cs6 O33 3.307705 1_555
Cs6 O25 3.307705 1_555
Cs6 O27 3.307705 1_555
Cs6 O22 3.428105 1_455
Cs6 O12 3.428105 1_555
Cs6 O17 3.428105 1_455
Cs6 O13 3.470370 1_555
Cs6 O15 3.470370 1_555
Cs6 O21 3.470370 1_555
Cs6 O4 3.679807 1_555
Cs6 O6 3.679807 1_545
Cs6 O8 3.679807 1_556
Cs7 O43 3.179836 1_555
Cs7 O37 3.179836 1_554
Cs7 O44 3.179836 1_555
Cs7 O30 3.307705 1_555
Cs7 O35 3.307705 1_555
Cs7 O24 3.307705 1_555
Cs7 O19 3.428105 1_554
Cs7 O20 3.428105 1_555
Cs7 O13 3.428105 1_554
Cs7 O23 3.470370 1_555
Cs7 O12 3.470370 1_555
Cs7 O18 3.470370 1_555
Cs7 O10 3.679807 1_555
Cs7 O3 3.679807 1_565
Cs7 O2 3.679807 1_455
Ca0 O44 2.341312 1_555
Ca0 O36 2.341312 1_555
Ca0 O39 2.341312 1_555
Ca0 O20 2.351357 1_555
Ca0 O12 2.351357 1_555
Ca0 O15 2.351357 1_555
Ca1 O46 2.341312 1_555
Ca1 O42 2.341312 1_555
Ca1 O37 2.341312 1_555
Ca1 O22 2.351357 1_455
Ca1 O18 2.351357 1_556
Ca1 O13 2.351357 1_555
Ca2 O43 2.341312 1_555
Ca2 O38 2.341312 1_555
Ca2 O47 2.341312 1_555
Ca2 O19 2.351357 1_554
Ca2 O14 2.351357 1_565
Ca2 O23 2.351357 1_555
Ca3 O40 2.341312 1_555
Ca3 O45 2.341312 1_555
Ca3 O41 2.341312 1_555
Ca3 O16 2.351357 1_545
Ca3 O21 2.351357 1_655
Ca3 O17 2.351357 1_555
Ca4 O34 2.358317 1_555
Ca4 O31 2.358317 1_555
Ca4 O28 2.358317 1_555
Ca4 O10 2.364667 1_555
Ca4 O7 2.364667 1_555
Ca4 O4 2.364667 1_555
Ca5 O26 2.358317 1_555
Ca5 O32 2.358317 1_555
Ca5 O29 2.358317 1_555
Ca5 O8 2.364667 1_655
Ca5 O2 2.364667 1_555
Ca5 O5 2.364667 1_554
Ca6 O33 2.358317 1_555
Ca6 O27 2.358317 1_555
Ca6 O25 2.358317 1_555
Ca6 O3 2.364667 1_556
Ca6 O9 2.364667 1_555
Ca6 O1 2.364667 1_545
Ca7 O30 2.358317 1_555
Ca7 O24 2.358317 1_555
Ca7 O35 2.358317 1_555
Ca7 O0 2.364667 1_565
Ca7 O6 2.364667 1_555
Ca7 O11 2.364667 1_455
O0 S0 1.487330 1_555
O1 S1 1.487330 1_555
O2 S2 1.487330 1_555
O3 S3 1.487330 1_555
O4 S4 1.487330 1_555
O5 S5 1.487330 1_555
O6 S6 1.487330 1_555
O7 S7 1.487330 1_555
O8 S8 1.487330 1_555
O9 S9 1.487330 1_555
O10 S10 1.487330 1_555
O11 S11 1.487330 1_555
O12 S10 1.494939 1_555
O13 S8 1.494939 1_556
O14 S9 1.494939 1_554
O15 S4 1.494939 1_555
O16 S11 1.494939 1_555
O17 S0 1.494939 1_655
O18 S2 1.494939 1_455
O19 S1 1.494939 1_555
O20 S7 1.494939 1_555
O21 S6 1.494939 1_545
O22 S5 1.494939 1_555
O23 S3 1.494939 1_565
O24 S2 1.489272 1_455
O25 S4 1.489272 1_555
O26 S0 1.489272 1_655
O27 S6 1.489272 1_545
O28 S1 1.489272 1_555
O29 S7 1.489272 1_555
O30 S3 1.489272 1_565
O31 S5 1.489272 1_555
O32 S9 1.489272 1_554
O33 S8 1.489272 1_556
O34 S11 1.489272 1_555
O35 S10 1.489272 1_555
O36 S0 1.483986 1_555
O37 S1 1.483986 1_555
O38 S2 1.483986 1_555
O39 S3 1.483986 1_555
O40 S4 1.483986 1_555
O41 S5 1.483986 1_555
O42 S6 1.483986 1_555
O43 S7 1.483986 1_555
O44 S8 1.483986 1_555
O45 S9 1.483986 1_555
O46 S10 1.483986 1_555
O47 S11 1.483986 1_555
