# generated using pymatgen
data_KSrMg14
_symmetry_space_group_name_H-M   'P 1'
_cell_length_a   6.83141056
_cell_length_b   6.83140993
_cell_length_c   10.51214215
_cell_angle_alpha   90.00000000
_cell_angle_beta   90.00000000
_cell_angle_gamma   120.00000306
_symmetry_Int_Tables_number   1
_chemical_formula_structural   KSrMg14
_chemical_formula_sum   'K1 Sr1 Mg14'
_cell_volume   424.85680288
_cell_formula_units_Z   1
loop_
 _symmetry_equiv_pos_site_id
 _symmetry_equiv_pos_as_xyz
  1  'x, y, z'
loop_
 _atom_site_type_symbol
 _atom_site_label
 _atom_site_symmetry_multiplicity
 _atom_site_fract_x
 _atom_site_fract_y
 _atom_site_fract_z
 _atom_site_occupancy
  K  K0  1  0.16666700  0.33333300  0.12500000  1
  Sr  Sr0  1  0.16666700  0.33333300  0.62500000  1
  Mg  Mg0  1  0.17310320  0.83655110  0.12500000  1
  Mg  Mg1  1  0.17771842  0.83885871  0.62500000  1
  Mg  Mg2  1  0.66344890  0.32689680  0.12500000  1
  Mg  Mg3  1  0.66114129  0.32228158  0.62500000  1
  Mg  Mg4  1  0.66344890  0.83655110  0.12500000  1
  Mg  Mg5  1  0.66114129  0.83885871  0.62500000  1
  Mg  Mg6  1  0.34485071  0.15514929  0.37574719  1
  Mg  Mg7  1  0.34485071  0.15514929  0.87425281  1
  Mg  Mg8  1  0.34485071  0.68970242  0.37574719  1
  Mg  Mg9  1  0.34485071  0.68970242  0.87425281  1
  Mg  Mg10  1  0.81029758  0.15514929  0.37574719  1
  Mg  Mg11  1  0.81029758  0.15514929  0.87425281  1
  Mg  Mg12  1  0.83333300  0.66666700  0.37600847  1
  Mg  Mg13  1  0.83333300  0.66666700  0.87399153  1
loop_
_geom_bond_atom_site_label_1
_geom_bond_atom_site_label_2
_geom_bond_distance
_geom_bond_site_symmetry_2
K0 Mg6 3.375349 1_555
K0 Mg7 3.375349 1_554
K0 Mg9 3.375356 1_554
K0 Mg8 3.375356 1_555
K0 Mg10 3.375356 1_455
K0 Mg11 3.375356 1_454
K0 Mg0 3.415917 1_555
K0 Mg4 3.415917 1_555
K0 Mg4 3.415917 1_445
K0 Mg0 3.415917 1_545
K0 Mg2 3.415918 1_455
K0 Mg2 3.415918 1_555
Mg0 Mg9 3.241587 1_554
Mg0 Mg8 3.241587 1_555
Mg0 Mg7 3.241594 1_564
Mg0 Mg6 3.241594 1_565
Mg0 Mg13 3.317087 1_454
Mg0 Mg12 3.317087 1_455
Mg0 Mg2 3.349752 1_565
Mg0 Mg4 3.349753 1_555
Mg0 Mg2 3.481657 1_455
Mg0 Mg4 3.481658 1_455
Mg1 Mg8 3.220338 1_555
Mg1 Mg9 3.220338 1_555
Mg1 Mg7 3.220345 1_565
Mg1 Mg6 3.220345 1_565
Mg1 Mg3 3.302460 1_565
Mg1 Mg5 3.302460 1_555
Mg1 Mg12 3.316948 1_455
Mg1 Mg13 3.316948 1_455
Mg1 Sr0 3.416331 1_555
Mg1 Sr0 3.416331 1_565
Mg1 Mg3 3.528950 1_455
Mg1 Mg5 3.528950 1_455
Mg2 Mg7 3.241594 1_554
Mg2 Mg6 3.241594 1_555
Mg2 Mg4 3.349752 1_545
Mg2 Mg4 3.481657 1_555
Mg3 Mg6 3.220345 1_555
Mg3 Mg7 3.220345 1_555
Mg3 Mg5 3.302460 1_545
Mg3 Sr0 3.416331 1_655
Mg3 Sr0 3.416331 1_555
Mg3 Mg5 3.528950 1_555
Mg4 Mg8 3.241594 1_555
Mg4 Mg9 3.241594 1_554
Mg5 Mg8 3.220345 1_555
Mg5 Mg9 3.220345 1_555
Mg5 Sr0 3.416331 1_555
Mg5 Sr0 3.416331 1_665
Mg6 Mg8 3.179658 1_545
Mg6 Sr0 3.363096 1_555
Mg7 Mg9 3.179658 1_545
Mg7 Sr0 3.363096 1_555
Mg8 Sr0 3.363103 1_555
Mg9 Sr0 3.363103 1_555
Mg10 Mg8 3.179658 1_545
Mg10 Mg6 3.179659 1_555
Mg10 Mg3 3.220338 1_555
Mg10 Mg5 3.220345 1_545
Mg10 Mg2 3.241587 1_555
Mg10 Mg4 3.241594 1_545
Mg10 Sr0 3.363103 1_655
Mg10 Mg12 3.418424 1_555
Mg10 Mg12 3.418424 1_545
Mg11 Mg9 3.179658 1_545
Mg11 Mg7 3.179659 1_555
Mg11 Mg3 3.220338 1_555
Mg11 Mg5 3.220345 1_545
Mg11 Mg2 3.241587 1_556
Mg11 Mg4 3.241594 1_546
Mg11 Sr0 3.363103 1_655
Mg11 Mg13 3.418424 1_555
Mg11 Mg13 3.418424 1_545
Mg12 Mg5 3.316940 1_555
Mg12 Mg3 3.316948 1_555
Mg12 Mg4 3.317080 1_555
Mg12 Mg2 3.317087 1_555
Mg12 Mg6 3.418424 1_555
Mg12 Mg6 3.418424 1_665
Mg12 Mg8 3.418424 1_555
Mg12 Mg8 3.418424 1_655
Mg13 Mg5 3.316940 1_555
Mg13 Mg3 3.316948 1_555
Mg13 Mg4 3.317080 1_556
Mg13 Mg2 3.317087 1_556
Mg13 Mg7 3.418424 1_555
Mg13 Mg7 3.418424 1_665
Mg13 Mg9 3.418424 1_555
Mg13 Mg9 3.418424 1_655
