# generated using pymatgen
data_V(CdN)4
_symmetry_space_group_name_H-M   'P 1'
_cell_length_a   5.82295573
_cell_length_b   5.82384493
_cell_length_c   9.47102868
_cell_angle_alpha   66.17253782
_cell_angle_beta   90.64571994
_cell_angle_gamma   71.15711517
_symmetry_Int_Tables_number   1
_chemical_formula_structural   V(CdN)4
_chemical_formula_sum   'V2 Cd8 N8'
_cell_volume   274.30792882
_cell_formula_units_Z   2
loop_
 _symmetry_equiv_pos_site_id
 _symmetry_equiv_pos_as_xyz
  1  'x, y, z'
loop_
 _atom_site_type_symbol
 _atom_site_label
 _atom_site_symmetry_multiplicity
 _atom_site_fract_x
 _atom_site_fract_y
 _atom_site_fract_z
 _atom_site_occupancy
  V  V0  1  0.66730187  0.89164357  0.77520793  1
  V  V1  1  0.33269813  0.10835643  0.22479207  1
  Cd  Cd0  1  0.78357094  0.58886256  0.19528960  1
  Cd  Cd1  1  0.21642906  0.41113744  0.80471040  1
  Cd  Cd2  1  0.75839120  0.24157551  0.99984182  1
  Cd  Cd3  1  0.24160880  0.75842449  0.00015818  1
  Cd  Cd4  1  0.68382454  0.51660728  0.61799817  1
  Cd  Cd5  1  0.31617546  0.48339272  0.38200183  1
  Cd  Cd6  1  0.13626812  0.06364688  0.61833257  1
  Cd  Cd7  1  0.86373188  0.93635312  0.38166743  1
  N  N0  1  0.89639078  0.79831176  0.65536570  1
  N  N1  1  0.10360922  0.20168824  0.34463430  1
  N  N2  1  0.81930516  0.86436535  0.95472489  1
  N  N3  1  0.18069484  0.13563465  0.04527511  1
  N  N4  1  0.48228755  0.66761628  0.81446696  1
  N  N5  1  0.51771245  0.33238372  0.18553304  1
  N  N6  1  0.54525281  0.75958319  0.34466481  1
  N  N7  1  0.45474719  0.24041681  0.65533519  1
loop_
_geom_bond_atom_site_label_1
_geom_bond_atom_site_label_2
_geom_bond_distance
_geom_bond_site_symmetry_2
Cd0 N2 2.254207 1_554
Cd0 N6 2.281506 1_555
Cd0 N1 2.281940 1_655
Cd0 N5 2.497634 1_555
Cd1 N3 2.254207 1_556
Cd1 N7 2.281506 1_555
Cd1 N0 2.281940 1_455
Cd1 N4 2.497634 1_555
Cd2 N2 2.322267 1_545
Cd2 N3 2.322584 1_656
Cd2 N4 2.379820 1_555
Cd2 N5 2.380134 1_556
Cd3 N3 2.322267 1_565
Cd3 N2 2.322584 1_454
Cd3 N5 2.379820 1_555
Cd3 N4 2.380134 1_554
Cd4 N7 2.329934 1_555
Cd4 N6 2.368689 1_555
Cd4 N0 2.473834 1_555
Cd4 N4 2.513528 1_555
Cd5 N6 2.329934 1_555
Cd5 N7 2.368689 1_555
Cd5 N1 2.473834 1_555
Cd5 N5 2.513528 1_555
Cd6 N0 2.330082 1_445
Cd6 N1 2.368197 1_555
Cd6 N7 2.476258 1_555
Cd6 N4 2.506407 1_545
Cd7 N1 2.330082 1_665
Cd7 N0 2.368197 1_555
Cd7 N6 2.476258 1_555
Cd7 N5 2.506407 1_565
N0 V0 1.851340 1_555
N1 V1 1.851340 1_555
N2 V0 1.832045 1_555
N3 V1 1.832045 1_555
N4 V0 1.877803 1_555
N5 V1 1.877803 1_555
N6 V1 1.851433 1_565
N7 V0 1.851433 1_545
