# generated using pymatgen
data_U2Si5Os3
_symmetry_space_group_name_H-M   'P 1'
_cell_length_a   8.11579186
_cell_length_b   8.11579186
_cell_length_c   5.76524983
_cell_angle_alpha   70.35241682
_cell_angle_beta   70.35241682
_cell_angle_gamma   92.87610760
_symmetry_Int_Tables_number   1
_chemical_formula_structural   U2Si5Os3
_chemical_formula_sum   'U4 Si10 Os6'
_cell_volume   331.05146403
_cell_formula_units_Z   2
loop_
 _symmetry_equiv_pos_site_id
 _symmetry_equiv_pos_as_xyz
  1  'x, y, z'
loop_
 _atom_site_type_symbol
 _atom_site_label
 _atom_site_symmetry_multiplicity
 _atom_site_fract_x
 _atom_site_fract_y
 _atom_site_fract_z
 _atom_site_occupancy
  U  U0  1  0.86853100  0.59520700  0.76094200  1
  U  U1  1  0.40479300  0.13146900  0.73905800  1
  U  U2  1  0.13146900  0.40479300  0.23905800  1
  U  U3  1  0.59520700  0.86853100  0.26094200  1
  Si  Si0  1  0.06324200  0.26274600  0.83626400  1
  Si  Si1  1  0.73725400  0.93675800  0.66373600  1
  Si  Si2  1  0.93675800  0.73725400  0.16373600  1
  Si  Si3  1  0.26274600  0.06324200  0.33626400  1
  Si  Si4  1  0.20446200  0.79553800  0.75000000  1
  Si  Si5  1  0.79553800  0.20446200  0.25000000  1
  Si  Si6  1  0.51596200  0.48403800  0.75000000  1
  Si  Si7  1  0.48403800  0.51596200  0.25000000  1
  Si  Si8  1  0.77635200  0.22364800  0.75000000  1
  Si  Si9  1  0.22364800  0.77635200  0.25000000  1
  Os  Os0  1  0.25339900  0.54344200  0.63714800  1
  Os  Os1  1  0.45655800  0.74660100  0.86285200  1
  Os  Os2  1  0.74660100  0.45655800  0.36285200  1
  Os  Os3  1  0.54344200  0.25339900  0.13714800  1
  Os  Os4  1  0.99959100  0.00040900  0.75000000  1
  Os  Os5  1  0.00040900  0.99959100  0.25000000  1
loop_
_geom_bond_atom_site_label_1
_geom_bond_atom_site_label_2
_geom_bond_distance
_geom_bond_site_symmetry_2
Si0 Si5 2.507358 1_456
Si0 Si8 2.565124 1_455
Si0 U1 2.964147 1_555
Si0 U2 3.078128 1_555
Si0 U2 3.103086 1_556
Si0 U0 3.172905 1_455
Si1 Si5 2.507358 1_565
Si1 Si8 2.565124 1_565
Si1 U0 2.964147 1_555
Si1 U3 3.078128 1_556
Si1 U3 3.103086 1_555
Si1 U1 3.172905 1_565
Si2 Si4 2.507358 1_654
Si2 Si9 2.565124 1_655
Si2 U3 2.964147 1_555
Si2 U0 3.078128 1_555
Si2 U0 3.103086 1_554
Si2 U2 3.172905 1_655
Si3 Si4 2.507358 1_545
Si3 Si9 2.565124 1_545
Si3 U2 2.964147 1_555
Si3 U1 3.078128 1_554
Si3 U1 3.103086 1_555
Si3 U3 3.172905 1_545
Si4 U0 3.074225 1_455
Si4 U1 3.074225 1_565
Si4 U3 3.321564 1_555
Si4 U2 3.321564 1_556
Si5 U3 3.074225 1_545
Si5 U2 3.074225 1_655
Si5 U1 3.321564 1_555
Si5 U0 3.321564 1_554
Si6 U0 2.984301 1_555
Si6 U1 2.984301 1_555
Si6 U2 3.280757 1_556
Si6 U3 3.280757 1_555
Si7 U2 2.984301 1_555
Si7 U3 2.984301 1_555
Si7 U1 3.280757 1_555
Si7 U0 3.280757 1_554
Si8 U1 3.096793 1_555
Si8 U0 3.096793 1_555
Si8 U3 3.177785 1_546
Si8 U2 3.177785 1_655
Si9 U2 3.096793 1_555
Si9 U3 3.096793 1_555
Si9 U0 3.177785 1_455
Si9 U1 3.177785 1_564
Os0 Si4 2.360067 1_555
Os0 Si0 2.363548 1_555
Os0 Si6 2.453768 1_555
Os0 Si7 2.470307 1_555
Os0 Si9 2.486811 1_555
Os0 U2 3.039841 1_556
Os0 U0 3.045716 1_455
Os0 U2 3.265735 1_555
Os0 U3 3.275948 1_555
Os1 Si4 2.360067 1_555
Os1 Si1 2.363548 1_555
Os1 Si6 2.453768 1_555
Os1 Si7 2.470307 1_556
Os1 Si9 2.486811 1_556
Os1 U3 3.039841 1_555
Os1 U1 3.045716 1_565
Os1 U3 3.265735 1_556
Os1 U2 3.275948 1_556
Os2 Si5 2.360067 1_555
Os2 Si2 2.363548 1_555
Os2 Si7 2.453768 1_555
Os2 Si6 2.470307 1_555
Os2 Si8 2.486811 1_555
Os2 U0 3.039841 1_554
Os2 U2 3.045716 1_655
Os2 U0 3.265735 1_555
Os2 U1 3.275948 1_555
Os3 Si5 2.360067 1_555
Os3 Si3 2.363548 1_555
Os3 Si7 2.453768 1_555
Os3 Si6 2.470307 1_554
Os3 Si8 2.486811 1_554
Os3 U1 3.039841 1_555
Os3 U3 3.045716 1_545
Os3 U1 3.265735 1_554
Os3 U0 3.275948 1_554
Os4 Si4 2.409670 1_645
Os4 Si0 2.412796 1_655
Os4 Si1 2.412796 1_545
Os4 Si3 2.481515 1_655
Os4 Si2 2.481515 1_546
Os4 Si8 2.625712 1_555
Os4 U1 3.378485 1_655
Os4 U0 3.378485 1_545
Os4 U3 3.408789 1_546
Os4 U2 3.408789 1_655
Os5 Si5 2.409670 1_465
Os5 Si3 2.412796 1_565
Os5 Si2 2.412796 1_455
Os5 Si0 2.481515 1_564
Os5 Si1 2.481515 1_455
Os5 Si9 2.625712 1_555
Os5 U3 3.378485 1_455
Os5 U2 3.378485 1_565
Os5 U0 3.408789 1_455
Os5 U1 3.408789 1_564
