# generated using pymatgen
data_CaTiBi(PO4)3
_symmetry_space_group_name_H-M   'P 1'
_cell_length_a   9.08497427
_cell_length_b   9.08497506
_cell_length_c   9.08497465
_cell_angle_alpha   59.87919901
_cell_angle_beta   59.87919978
_cell_angle_gamma   59.87920316
_symmetry_Int_Tables_number   1
_chemical_formula_structural   CaTiBi(PO4)3
_chemical_formula_sum   'Ca2 Ti2 Bi2 P6 O24'
_cell_volume   528.76679170
_cell_formula_units_Z   2
loop_
 _symmetry_equiv_pos_site_id
 _symmetry_equiv_pos_as_xyz
  1  'x, y, z'
loop_
 _atom_site_type_symbol
 _atom_site_label
 _atom_site_symmetry_multiplicity
 _atom_site_fract_x
 _atom_site_fract_y
 _atom_site_fract_z
 _atom_site_occupancy
  Ca  Ca0  1  0.99769600  0.99769600  0.99769600  1
  Ca  Ca1  1  0.49769600  0.49769600  0.49769600  1
  Ti  Ti0  1  0.15228500  0.15228500  0.15228500  1
  Ti  Ti1  1  0.65228500  0.65228500  0.65228500  1
  Bi  Bi0  1  0.34821800  0.34821800  0.34821800  1
  Bi  Bi1  1  0.84821800  0.84821800  0.84821800  1
  P  P0  1  0.04097300  0.43961900  0.76860300  1
  P  P1  1  0.43961900  0.76860300  0.04097300  1
  P  P2  1  0.76860300  0.04097300  0.43961900  1
  P  P3  1  0.26860300  0.93961900  0.54097300  1
  P  P4  1  0.54097300  0.26860300  0.93961900  1
  P  P5  1  0.93961900  0.54097300  0.26860300  1
  O  O0  1  0.07399300  0.52033600  0.33533200  1
  O  O1  1  0.33533200  0.07399300  0.52033600  1
  O  O2  1  0.04687800  0.25742200  0.92710600  1
  O  O3  1  0.52033600  0.33533200  0.07399300  1
  O  O4  1  0.02033600  0.57399300  0.83533200  1
  O  O5  1  0.22062500  0.42380300  0.60968700  1
  O  O6  1  0.25742200  0.92710600  0.04687800  1
  O  O7  1  0.42380300  0.60968700  0.22062500  1
  O  O8  1  0.21196700  0.00613900  0.36931600  1
  O  O9  1  0.60968700  0.22062500  0.42380300  1
  O  O10  1  0.10968700  0.92380300  0.72062500  1
  O  O11  1  0.36931600  0.21196700  0.00613900  1
  O  O12  1  0.57399300  0.83533200  0.02033600  1
  O  O13  1  0.92710600  0.04687800  0.25742200  1
  O  O14  1  0.42710600  0.75742200  0.54687800  1
  O  O15  1  0.83533200  0.02033600  0.57399300  1
  O  O16  1  0.54687800  0.42710600  0.75742200  1
  O  O17  1  0.72062500  0.10968700  0.92380300  1
  O  O18  1  0.75742200  0.54687800  0.42710600  1
  O  O19  1  0.00613900  0.36931600  0.21196700  1
  O  O20  1  0.50613900  0.71196700  0.86931600  1
  O  O21  1  0.92380300  0.72062500  0.10968700  1
  O  O22  1  0.71196700  0.86931600  0.50613900  1
  O  O23  1  0.86931600  0.50613900  0.71196700  1
loop_
_geom_bond_atom_site_label_1
_geom_bond_atom_site_label_2
_geom_bond_distance
_geom_bond_site_symmetry_2
Ca0 O6 2.330335 1_656
Ca0 O13 2.330335 1_566
Ca0 O2 2.330336 1_665
Ca0 O17 2.502421 1_565
Ca0 O21 2.502421 1_556
Ca0 O10 2.502421 1_655
Ca1 O18 2.330335 1_555
Ca1 O16 2.330335 1_555
Ca1 O14 2.330336 1_555
Ca1 O5 2.502421 1_555
Ca1 O7 2.502421 1_555
Ca1 O9 2.502421 1_555
Bi0 O3 2.205596 1_555
Bi0 O0 2.205596 1_555
Bi0 O1 2.205596 1_555
Bi0 O9 2.352143 1_555
Bi0 O7 2.352143 1_555
Bi0 O5 2.352143 1_555
Bi1 O12 2.205596 1_556
Bi1 O15 2.205596 1_565
Bi1 O4 2.205596 1_655
Bi1 O10 2.352143 1_655
Bi1 O21 2.352143 1_556
Bi1 O17 2.352143 1_565
O0 P5 1.513925 1_455
O1 P3 1.513925 1_545
O2 P0 1.553218 1_555
O2 Ti0 2.258642 1_556
O3 P4 1.513925 1_554
O4 P0 1.513925 1_555
O5 P0 1.541674 1_555
O6 P1 1.553218 1_555
O6 Ti0 2.258643 1_565
O7 P1 1.541674 1_555
O8 P3 1.615355 1_545
O8 Ti0 1.915079 1_555
O9 P2 1.541674 1_555
O10 P3 1.541674 1_555
O11 P4 1.615355 1_554
O11 Ti0 1.915079 1_555
O12 P1 1.513925 1_555
O13 P2 1.553218 1_555
O13 Ti0 2.258642 1_655
O14 P3 1.553218 1_555
O14 Ti1 2.258642 1_555
O15 P2 1.513925 1_555
O16 P4 1.553218 1_555
O16 Ti1 2.258642 1_555
O17 P4 1.541674 1_555
O18 P5 1.553218 1_555
O18 Ti1 2.258643 1_555
O19 P5 1.615355 1_455
O19 Ti0 1.915079 1_555
O20 P1 1.615355 1_556
O20 Ti1 1.915079 1_555
O21 P5 1.541674 1_555
O22 P2 1.615355 1_565
O22 Ti1 1.915079 1_555
O23 P0 1.615355 1_655
O23 Ti1 1.915079 1_555
