# generated using pymatgen
data_Ce(MnAl2)4
_symmetry_space_group_name_H-M   'P 1'
_cell_length_a   5.17139008
_cell_length_b   6.80055467
_cell_length_c   6.80055570
_cell_angle_alpha   81.68786154
_cell_angle_beta   67.65279909
_cell_angle_gamma   67.65279913
_symmetry_Int_Tables_number   1
_chemical_formula_structural   Ce(MnAl2)4
_chemical_formula_sum   'Ce1 Mn4 Al8'
_cell_volume   204.58914790
_cell_formula_units_Z   1
loop_
 _symmetry_equiv_pos_site_id
 _symmetry_equiv_pos_as_xyz
  1  'x, y, z'
loop_
 _atom_site_type_symbol
 _atom_site_label
 _atom_site_symmetry_multiplicity
 _atom_site_fract_x
 _atom_site_fract_y
 _atom_site_fract_z
 _atom_site_occupancy
  Ce  Ce0  1  0.00000000  0.00000000  0.00000000  1
  Mn  Mn0  1  0.00000000  0.00000000  0.50000000  1
  Mn  Mn1  1  0.50000000  0.00000000  0.50000000  1
  Mn  Mn2  1  0.00000000  0.50000000  0.00000000  1
  Mn  Mn3  1  0.50000000  0.50000000  0.00000000  1
  Al  Al0  1  0.34362186  0.65637814  0.65637814  1
  Al  Al1  1  0.00000000  0.34362186  0.65637814  1
  Al  Al2  1  -0.00000000  0.65637814  0.34362186  1
  Al  Al3  1  0.65637814  0.34362186  0.34362186  1
  Al  Al4  1  0.27320394  0.22679606  0.22679606  1
  Al  Al5  1  0.50000000  0.77320394  0.22679606  1
  Al  Al6  1  0.50000000  0.22679606  0.77320394  1
  Al  Al7  1  0.72679606  0.77320394  0.77320394  1
loop_
_geom_bond_atom_site_label_1
_geom_bond_atom_site_label_2
_geom_bond_distance
_geom_bond_site_symmetry_2
Ce0 Mn2 3.400277 1_545
Ce0 Mn2 3.400277 1_555
Ce0 Mn3 3.400277 1_545
Ce0 Mn3 3.400277 1_455
Ce0 Mn1 3.400278 1_455
Ce0 Mn1 3.400278 1_554
Ce0 Mn0 3.400278 1_554
Ce0 Mn0 3.400278 1_555
Mn0 Mn1 2.585695 1_455
Mn0 Mn1 2.585695 1_555
Mn2 Mn3 2.585695 1_455
Mn2 Mn3 2.585695 1_555
Al0 Mn1 2.703737 1_565
Al0 Mn0 2.703737 1_565
Al0 Mn2 2.703737 1_556
Al0 Mn3 2.703737 1_556
Al0 Al3 2.782010 1_555
Al0 Al7 2.786704 1_455
Al0 Al7 2.786704 1_555
Al0 Al6 2.800125 1_555
Al0 Al5 2.800125 1_555
Al0 Ce0 3.056563 1_566
Al1 Mn0 2.703737 1_555
Al1 Mn1 2.703737 1_555
Al1 Mn3 2.703737 1_456
Al1 Mn2 2.703737 1_556
Al1 Al2 2.782010 1_555
Al1 Al6 2.786704 1_455
Al1 Al6 2.786704 1_555
Al1 Al7 2.800125 1_455
Al1 Al4 2.800125 1_555
Al1 Ce0 3.056564 1_556
Al2 Mn0 2.703737 1_565
Al2 Mn1 2.703737 1_465
Al2 Mn3 2.703737 1_555
Al2 Mn2 2.703737 1_555
Al2 Al5 2.786704 1_555
Al2 Al5 2.786704 1_455
Al2 Al4 2.800125 1_555
Al2 Al7 2.800125 1_455
Al2 Ce0 3.056564 1_565
Al3 Mn1 2.703737 1_555
Al3 Mn0 2.703737 1_655
Al3 Mn2 2.703737 1_655
Al3 Mn3 2.703737 1_555
Al3 Al4 2.786704 1_655
Al3 Al4 2.786704 1_555
Al3 Al5 2.800125 1_555
Al3 Al6 2.800125 1_555
Al3 Ce0 3.056563 1_655
Al4 Mn3 2.580557 1_555
Al4 Mn0 2.580557 1_555
Al4 Mn2 2.580557 1_555
Al4 Mn1 2.580557 1_555
Al4 Al5 2.853009 1_545
Al4 Al6 2.853009 1_554
Al4 Ce0 3.279581 1_655
Al4 Ce0 3.279581 1_555
Al5 Mn3 2.580557 1_555
Al5 Mn2 2.580557 1_655
Al5 Mn0 2.580557 1_565
Al5 Mn1 2.580557 1_565
Al5 Al7 2.853009 1_554
Al5 Ce0 3.279581 1_665
Al5 Ce0 3.279581 1_565
Al6 Mn3 2.580557 1_556
Al6 Mn2 2.580557 1_556
Al6 Mn0 2.580557 1_655
Al6 Mn1 2.580557 1_555
Al6 Al7 2.853009 1_545
Al6 Ce0 3.279581 1_556
Al6 Ce0 3.279581 1_656
Al7 Mn3 2.580557 1_556
Al7 Mn0 2.580557 1_665
Al7 Mn2 2.580557 1_656
Al7 Mn1 2.580557 1_565
Al7 Ce0 3.279581 1_566
Al7 Ce0 3.279581 1_666
