# generated using pymatgen
data_Pr2(CoCu)5
_symmetry_space_group_name_H-M   'P 1'
_cell_length_a   4.05638700
_cell_length_b   5.11456600
_cell_length_c   8.65917400
_cell_angle_alpha   90.00000000
_cell_angle_beta   90.00000000
_cell_angle_gamma   90.00000000
_symmetry_Int_Tables_number   1
_chemical_formula_structural   Pr2(CoCu)5
_chemical_formula_sum   'Pr2 Co5 Cu5'
_cell_volume   179.64893049
_cell_formula_units_Z   1
loop_
 _symmetry_equiv_pos_site_id
 _symmetry_equiv_pos_as_xyz
  1  'x, y, z'
loop_
 _atom_site_type_symbol
 _atom_site_label
 _atom_site_symmetry_multiplicity
 _atom_site_fract_x
 _atom_site_fract_y
 _atom_site_fract_z
 _atom_site_occupancy
  Pr  Pr0  1  0.00000000  0.50000000  0.00000000  1
  Pr  Pr1  1  0.00000000  0.00000000  0.50000000  1
  Co  Co0  1  0.00000000  0.50000000  0.33772300  1
  Co  Co1  1  0.00000000  0.00000000  0.85029400  1
  Co  Co2  1  0.00000000  0.00000000  0.14970600  1
  Co  Co3  1  0.00000000  0.50000000  0.66227700  1
  Co  Co4  1  0.50000000  0.00000000  0.00000000  1
  Cu  Cu0  1  0.50000000  0.50000000  0.50000000  1
  Cu  Cu1  1  0.50000000  0.75016900  0.24780100  1
  Cu  Cu2  1  0.50000000  0.24983100  0.75219900  1
  Cu  Cu3  1  0.50000000  0.24983100  0.24780100  1
  Cu  Cu4  1  0.50000000  0.75016900  0.75219900  1
loop_
_geom_bond_atom_site_label_1
_geom_bond_atom_site_label_2
_geom_bond_distance
_geom_bond_site_symmetry_2
Co0 Cu0 2.467410 1_455
Co0 Cu0 2.467410 1_555
Co0 Cu1 2.521309 1_455
Co0 Cu1 2.521309 1_555
Co0 Cu3 2.521309 1_455
Co0 Cu3 2.521309 1_555
Co0 Co3 2.810370 1_555
Co0 Pr1 2.917917 1_565
Co0 Pr1 2.917917 1_555
Co0 Pr0 2.924402 1_555
Co0 Co2 3.031553 1_555
Co0 Co2 3.031553 1_565
Co1 Co4 2.407081 1_456
Co1 Co4 2.407081 1_556
Co1 Cu4 2.543187 1_445
Co1 Cu2 2.543187 1_455
Co1 Cu4 2.543187 1_545
Co1 Cu2 2.543187 1_555
Co1 Co2 2.592661 1_556
Co1 Pr0 2.867084 1_546
Co1 Pr0 2.867084 1_556
Co1 Co3 3.031553 1_555
Co1 Co3 3.031553 1_545
Co1 Pr1 3.033257 1_555
Co2 Co4 2.407081 1_455
Co2 Co4 2.407081 1_555
Co2 Cu1 2.543187 1_445
Co2 Cu3 2.543187 1_455
Co2 Cu1 2.543187 1_545
Co2 Cu3 2.543187 1_555
Co2 Pr0 2.867084 1_545
Co2 Pr0 2.867084 1_555
Co2 Pr1 3.033257 1_555
Co3 Cu0 2.467410 1_455
Co3 Cu0 2.467410 1_555
Co3 Cu2 2.521309 1_455
Co3 Cu4 2.521309 1_455
Co3 Cu2 2.521309 1_555
Co3 Cu4 2.521309 1_555
Co3 Pr1 2.917917 1_565
Co3 Pr1 2.917917 1_555
Co3 Pr0 2.924402 1_556
Co4 Cu3 2.497392 1_555
Co4 Cu2 2.497392 1_554
Co4 Cu1 2.497392 1_545
Co4 Cu4 2.497392 1_544
Co4 Pr0 3.263934 1_645
Co4 Pr0 3.263934 1_555
Co4 Pr0 3.263934 1_655
Co4 Pr0 3.263934 1_545
Cu0 Cu2 2.531061 1_555
Cu0 Cu4 2.531061 1_555
Cu0 Cu3 2.531061 1_555
Cu0 Cu1 2.531061 1_555
Cu0 Pr1 3.263934 1_555
Cu0 Pr1 3.263934 1_665
Cu0 Pr1 3.263934 1_655
Cu0 Pr1 3.263934 1_565
Cu1 Cu3 2.555554 1_565
Cu1 Cu3 2.559012 1_555
Cu1 Pr0 3.217912 1_555
Cu1 Pr0 3.217912 1_655
Cu1 Pr1 3.242749 1_665
Cu1 Pr1 3.242749 1_565
Cu2 Cu4 2.555554 1_545
Cu2 Cu4 2.559012 1_555
Cu2 Pr0 3.217912 1_656
Cu2 Pr0 3.217912 1_556
Cu2 Pr1 3.242749 1_655
Cu2 Pr1 3.242749 1_555
Cu3 Pr0 3.217912 1_555
Cu3 Pr0 3.217912 1_655
Cu3 Pr1 3.242749 1_555
Cu3 Pr1 3.242749 1_655
Cu4 Pr0 3.217912 1_656
Cu4 Pr0 3.217912 1_556
Cu4 Pr1 3.242749 1_565
Cu4 Pr1 3.242749 1_665
