# generated using pymatgen
data_MgSb2O5
_symmetry_space_group_name_H-M   'P 1'
_cell_length_a   4.00398400
_cell_length_b   5.54853749
_cell_length_c   12.95467000
_cell_angle_alpha   90.00000000
_cell_angle_beta   90.00000000
_cell_angle_gamma   111.15021704
_symmetry_Int_Tables_number   1
_chemical_formula_structural   MgSb2O5
_chemical_formula_sum   'Mg2 Sb4 O10'
_cell_volume   268.41708721
_cell_formula_units_Z   2
loop_
 _symmetry_equiv_pos_site_id
 _symmetry_equiv_pos_as_xyz
  1  'x, y, z'
loop_
 _atom_site_type_symbol
 _atom_site_label
 _atom_site_symmetry_multiplicity
 _atom_site_fract_x
 _atom_site_fract_y
 _atom_site_fract_z
 _atom_site_occupancy
  Mg  Mg0  1  0.90684800  0.81369400  0.75000000  1
  Mg  Mg1  1  0.09315300  0.18630700  0.25000000  1
  Sb  Sb0  1  0.20465200  0.40930200  0.60654700  1
  Sb  Sb1  1  0.79534900  0.59069900  0.39345200  1
  Sb  Sb2  1  0.79534900  0.59069900  0.10654800  1
  Sb  Sb3  1  0.20465200  0.40930200  0.89345300  1
  O  O0  1  0.69605100  0.39210100  0.25000000  1
  O  O1  1  0.30395000  0.60790000  0.75000000  1
  O  O2  1  0.24364300  0.48728700  0.08890700  1
  O  O3  1  0.75635900  0.51271400  0.91109300  1
  O  O4  1  0.75635900  0.51271400  0.58890700  1
  O  O5  1  0.24364300  0.48728700  0.41109200  1
  O  O6  1  0.02749700  0.05499200  0.63541500  1
  O  O7  1  0.97250300  0.94500700  0.36458500  1
  O  O8  1  0.02749700  0.05499200  0.86458500  1
  O  O9  1  0.97250300  0.94500700  0.13541600  1
loop_
_geom_bond_atom_site_label_1
_geom_bond_atom_site_label_2
_geom_bond_distance
_geom_bond_site_symmetry_2
Mg0 O8 1.939751 1_665
Mg0 O6 1.939751 1_665
Mg0 O1 2.267608 1_655
Mg0 O1 2.267616 1_555
Mg0 O3 2.604035 1_555
Mg0 O4 2.604035 1_555
Mg1 O9 1.939748 1_445
Mg1 O7 1.939758 1_445
Mg1 O0 2.267608 1_455
Mg1 O0 2.267616 1_555
Mg1 O5 2.604024 1_555
Mg1 O2 2.604035 1_555
O0 Sb1 2.123610 1_555
O0 Sb2 2.123610 1_555
O1 Sb3 2.123621 1_555
O1 Sb0 2.123621 1_555
O2 Sb2 2.084842 1_555
O2 Sb2 2.084842 1_455
O2 Sb3 2.564000 1_554
O3 Sb3 2.084837 1_655
O3 Sb3 2.084845 1_555
O3 Sb2 2.564012 1_556
O4 Sb0 2.084837 1_655
O4 Sb0 2.084845 1_555
O4 Sb1 2.564012 1_555
O5 Sb1 2.084841 1_555
O5 Sb1 2.084841 1_455
O5 Sb0 2.564012 1_555
O6 Sb0 1.871226 1_555
O7 Sb1 1.871213 1_555
O8 Sb3 1.871226 1_555
O9 Sb2 1.871216 1_555
