# generated using pymatgen
data_Li7Mn2(CoO4)3
_symmetry_space_group_name_H-M   'P 1'
_cell_length_a   5.01268868
_cell_length_b   5.01276725
_cell_length_c   19.48653761
_cell_angle_alpha   86.87627988
_cell_angle_beta   86.92233522
_cell_angle_gamma   118.94853630
_symmetry_Int_Tables_number   1
_chemical_formula_structural   Li7Mn2(CoO4)3
_chemical_formula_sum   'Li14 Mn4 Co6 O24'
_cell_volume   426.03123725
_cell_formula_units_Z   2
loop_
 _symmetry_equiv_pos_site_id
 _symmetry_equiv_pos_as_xyz
  1  'x, y, z'
loop_
 _atom_site_type_symbol
 _atom_site_label
 _atom_site_symmetry_multiplicity
 _atom_site_fract_x
 _atom_site_fract_y
 _atom_site_fract_z
 _atom_site_occupancy
  Li  Li0  1  0.58834500  0.92013800  0.25000100  1
  Li  Li1  1  0.07913000  0.41223300  0.74988900  1
  Li  Li2  1  0.95695800  0.28438600  0.13732600  1
  Li  Li3  1  0.44973000  0.79199800  0.63763700  1
  Li  Li4  1  0.20811800  0.54875400  0.36253600  1
  Li  Li5  1  0.71698900  0.04524400  0.86261500  1
  Li  Li6  1  0.29160100  0.94270600  0.13477300  1
  Li  Li7  1  0.80319000  0.46130100  0.63643400  1
  Li  Li8  1  0.53823600  0.19559500  0.36352800  1
  Li  Li9  1  0.05742400  0.70858600  0.86515700  1
  Li  Li10  1  0.63165100  0.64039900  0.13672700  1
  Li  Li11  1  0.11405700  0.13132900  0.63580700  1
  Li  Li12  1  0.86757600  0.88368200  0.36420700  1
  Li  Li13  1  0.36141800  0.36970700  0.86334400  1
  Mn  Mn0  1  0.49842000  0.50051000  0.50003600  1
  Mn  Mn1  1  0.66853700  0.33190500  0.00000400  1
  Mn  Mn2  1  0.16196500  0.83699100  0.50003400  1
  Mn  Mn3  1  0.00515900  0.99543800  0.99995500  1
  Co  Co0  1  0.33418800  0.66647600  0.99995500  1
  Co  Co1  1  0.83303000  0.16583800  0.50002500  1
  Co  Co2  1  0.25423400  0.24928700  0.25003600  1
  Co  Co3  1  0.75045700  0.74604000  0.75003800  1
  Co  Co4  1  0.91209400  0.58251600  0.24996400  1
  Co  Co5  1  0.41682200  0.08855800  0.75002500  1
  O  O0  1  0.64600800  0.97138000  0.05307500  1
  O  O1  1  0.13835300  0.47850600  0.55319900  1
  O  O2  1  0.52024000  0.86064400  0.44683700  1
  O  O3  1  0.02907000  0.35468000  0.94685000  1
  O  O4  1  0.90489200  0.26071500  0.30746300  1
  O  O5  1  0.41802600  0.75579600  0.80588000  1
  O  O6  1  0.24590400  0.58287500  0.19406600  1
  O  O7  1  0.73875300  0.09520200  0.69250400  1
  O  O8  1  0.01036200  0.67534300  0.05604000  1
  O  O9  1  0.47545600  0.13962400  0.55186400  1
  O  O10  1  0.30718600  0.30963000  0.05279000  1
  O  O11  1  0.84209800  0.84173700  0.55684700  1
  O  O12  1  0.85919900  0.52360300  0.44819800  1
  O  O13  1  0.32523200  0.99047200  0.94389000  1
  O  O14  1  0.15703200  0.15686900  0.44320600  1
  O  O15  1  0.69083600  0.69343500  0.94712400  1
  O  O16  1  0.20182700  0.88924700  0.30590100  1
  O  O17  1  0.70059700  0.37836800  0.80769300  1
  O  O18  1  0.57708800  0.55180800  0.30767100  1
  O  O19  1  0.08222700  0.05116700  0.80730000  1
  O  O20  1  0.62351600  0.30076500  0.19240100  1
  O  O21  1  0.10928000  0.79747400  0.69407000  1
  O  O22  1  0.95020700  0.91894800  0.19265300  1
  O  O23  1  0.44728300  0.42209300  0.69242700  1
loop_
_geom_bond_atom_site_label_1
_geom_bond_atom_site_label_2
_geom_bond_distance
_geom_bond_site_symmetry_2
Li0 O22 2.081502 1_555
Li0 O18 2.083580 1_555
Li0 O20 2.085925 1_565
Li0 O16 2.104517 1_555
Li0 O4 2.112572 1_565
Li0 O6 2.141314 1_555
Li1 O17 2.082263 1_455
Li1 O19 2.082329 1_555
Li1 O23 2.084627 1_555
Li1 O21 2.099073 1_555
Li1 O7 2.112068 1_455
Li1 O5 2.148003 1_555
Li2 O6 1.952810 1_655
Li2 O20 1.975371 1_555
Li2 O22 2.059135 1_545
Li2 O10 2.294213 1_655
Li2 O8 2.351526 1_655
Li2 O0 2.403078 1_545
Li3 O7 1.940092 1_565
Li3 O21 1.992375 1_555
Li3 O23 2.083055 1_555
Li3 O9 2.299720 1_565
Li3 O11 2.357760 1_555
Li3 O1 2.407531 1_555
Li4 O4 1.940702 1_455
Li4 O16 1.995678 1_555
Li4 O18 2.079066 1_555
Li4 O12 2.304667 1_455
Li4 O14 2.351367 1_555
Li4 O2 2.403898 1_555
Li5 O5 1.954775 1_545
Li5 O17 1.971836 1_555
Li5 O19 2.060740 1_655
Li5 O15 2.296880 1_545
Li5 O13 2.353030 1_545
Li5 O3 2.398294 1_655
Li6 O22 1.948246 1_455
Li6 O6 1.996357 1_555
Li6 O8 2.182849 1_555
Li6 O20 2.186374 1_565
Li6 O0 2.266142 1_555
Li6 O10 2.338507 1_565
Li7 O7 1.958501 1_555
Li7 O23 1.959632 1_555
Li7 O21 2.084149 1_655
Li7 O1 2.238907 1_655
Li7 O11 2.316286 1_555
Li7 O9 2.455760 1_555
Li8 O18 1.959557 1_555
Li8 O4 1.960323 1_555
Li8 O16 2.085025 1_545
Li8 O2 2.236809 1_545
Li8 O14 2.321477 1_555
Li8 O12 2.456442 1_555
Li9 O19 1.950093 1_565
Li9 O5 1.997383 1_555
Li9 O17 2.178106 1_455
Li9 O13 2.184902 1_555
Li9 O3 2.263950 1_555
Li9 O15 2.338854 1_455
Li10 O20 1.950366 1_555
Li10 O22 1.970145 1_555
Li10 O6 2.064862 1_555
Li10 O0 2.234311 1_555
Li10 O8 2.331135 1_655
Li10 O10 2.457736 1_555
Li11 O21 1.959980 1_545
Li11 O23 2.036707 1_555
Li11 O7 2.053744 1_455
Li11 O11 2.210462 1_445
Li11 O1 2.259041 1_555
Li11 O9 2.358120 1_555
Li12 O16 1.961087 1_655
Li12 O18 2.031895 1_555
Li12 O4 2.058514 1_565
Li12 O14 2.212804 1_665
Li12 O2 2.263059 1_555
Li12 O12 2.352830 1_555
Li13 O17 1.947822 1_555
Li13 O19 1.972777 1_555
Li13 O5 2.068368 1_555
Li13 O3 2.236754 1_555
Li13 O13 2.328247 1_545
Li13 O15 2.451449 1_555
Mn0 O9 1.972986 1_555
Mn0 O12 1.973018 1_555
Mn0 O1 1.984215 1_555
Mn0 O2 1.984527 1_555
Mn0 O11 2.162817 1_555
Mn0 O14 2.163311 1_555
Mn1 O0 1.983566 1_545
Mn1 O3 1.984535 1_654
Mn1 O10 1.985724 1_555
Mn1 O15 1.986614 1_554
Mn1 O13 2.154349 1_544
Mn1 O8 2.154601 1_655
Mn2 O14 1.909408 1_565
Mn2 O11 1.909521 1_455
Mn2 O9 1.954616 1_565
Mn2 O12 1.954751 1_455
Mn2 O2 1.973461 1_555
Mn2 O1 1.973465 1_555
Mn3 O13 1.903101 1_555
Mn3 O8 1.903205 1_556
Mn3 O10 1.966846 1_566
Mn3 O15 1.967021 1_455
Mn3 O3 1.975539 1_565
Mn3 O0 1.975668 1_456
Co0 O13 1.927648 1_555
Co0 O8 1.927683 1_556
Co0 O15 1.956413 1_555
Co0 O10 1.956536 1_556
Co0 O0 1.970830 1_556
Co0 O3 1.971065 1_555
Co1 O11 1.936080 1_545
Co1 O14 1.936160 1_655
Co1 O9 1.952825 1_555
Co1 O12 1.952964 1_555
Co1 O1 1.974268 1_655
Co1 O2 1.974420 1_545
Co2 O16 1.951303 1_545
Co2 O6 1.965007 1_555
Co2 O20 2.009299 1_555
Co2 O18 2.045766 1_555
Co2 O4 2.053226 1_455
Co2 O22 2.063198 1_445
Co3 O21 1.949596 1_655
Co3 O5 1.962977 1_555
Co3 O17 2.004948 1_555
Co3 O23 2.049322 1_555
Co3 O7 2.053397 1_565
Co3 O19 2.067165 1_665
Co4 O22 1.894145 1_555
Co4 O4 1.897673 1_555
Co4 O18 1.906916 1_555
Co4 O20 1.927330 1_555
Co4 O6 1.946158 1_655
Co4 O16 1.962774 1_655
Co5 O19 1.888315 1_555
Co5 O23 1.899572 1_555
Co5 O7 1.900348 1_555
Co5 O17 1.935414 1_555
Co5 O5 1.944145 1_545
Co5 O21 1.967459 1_545
