# generated using pymatgen
data_ZrPb7N6
_symmetry_space_group_name_H-M   'P 1'
_cell_length_a   12.72619400
_cell_length_b   7.32880800
_cell_length_c   13.33826700
_cell_angle_alpha   90.00000000
_cell_angle_beta   90.00000000
_cell_angle_gamma   90.00000000
_symmetry_Int_Tables_number   1
_chemical_formula_structural   ZrPb7N6
_chemical_formula_sum   'Zr4 Pb28 N24'
_cell_volume   1244.03125102
_cell_formula_units_Z   4
loop_
 _symmetry_equiv_pos_site_id
 _symmetry_equiv_pos_as_xyz
  1  'x, y, z'
loop_
 _atom_site_type_symbol
 _atom_site_label
 _atom_site_symmetry_multiplicity
 _atom_site_fract_x
 _atom_site_fract_y
 _atom_site_fract_z
 _atom_site_occupancy
  Zr  Zr0  1  0.00000000  0.83478700  0.75000000  1
  Zr  Zr1  1  0.50000000  0.66521300  0.25000000  1
  Zr  Zr2  1  0.00000000  0.16521300  0.25000000  1
  Zr  Zr3  1  0.50000000  0.33478700  0.75000000  1
  Pb  Pb0  1  0.00453300  0.76748900  0.02526800  1
  Pb  Pb1  1  0.49546700  0.73251100  0.52526800  1
  Pb  Pb2  1  0.50453300  0.73251100  0.97473200  1
  Pb  Pb3  1  0.99546700  0.76748900  0.47473200  1
  Pb  Pb4  1  0.99546700  0.23251100  0.97473200  1
  Pb  Pb5  1  0.50453300  0.26748900  0.47473200  1
  Pb  Pb6  1  0.49546700  0.26748900  0.02526800  1
  Pb  Pb7  1  0.00453300  0.23251100  0.52526800  1
  Pb  Pb8  1  0.21661900  0.81079600  0.61633700  1
  Pb  Pb9  1  0.28338100  0.68920400  0.11633700  1
  Pb  Pb10  1  0.71661900  0.68920400  0.38366300  1
  Pb  Pb11  1  0.78338100  0.81079600  0.88366300  1
  Pb  Pb12  1  0.78338100  0.18920400  0.38366300  1
  Pb  Pb13  1  0.71661900  0.31079600  0.88366300  1
  Pb  Pb14  1  0.28338100  0.31079600  0.61633700  1
  Pb  Pb15  1  0.21661900  0.18920400  0.11633700  1
  Pb  Pb16  1  0.26354100  0.52217300  0.85943100  1
  Pb  Pb17  1  0.23645900  0.97782700  0.35943100  1
  Pb  Pb18  1  0.76354100  0.97782700  0.14056900  1
  Pb  Pb19  1  0.73645900  0.52217300  0.64056900  1
  Pb  Pb20  1  0.73645900  0.47782700  0.14056900  1
  Pb  Pb21  1  0.76354100  0.02217300  0.64056900  1
  Pb  Pb22  1  0.23645900  0.02217300  0.85943100  1
  Pb  Pb23  1  0.26354100  0.47782700  0.35943100  1
  Pb  Pb24  1  0.00000000  0.41263800  0.75000000  1
  Pb  Pb25  1  0.50000000  0.08736200  0.25000000  1
  Pb  Pb26  1  0.00000000  0.58736200  0.25000000  1
  Pb  Pb27  1  0.50000000  0.91263800  0.75000000  1
  N  N0  1  0.11960500  0.64441000  0.76653000  1
  N  N1  1  0.38039500  0.85559000  0.26653000  1
  N  N2  1  0.61960500  0.85559000  0.23347000  1
  N  N3  1  0.88039500  0.64441000  0.73347000  1
  N  N4  1  0.88039500  0.35559000  0.23347000  1
  N  N5  1  0.61960500  0.14441000  0.73347000  1
  N  N6  1  0.38039500  0.14441000  0.76653000  1
  N  N7  1  0.11960500  0.35559000  0.26653000  1
  N  N8  1  0.17903500  0.71372300  0.45618700  1
  N  N9  1  0.32096500  0.78627700  0.95618700  1
  N  N10  1  0.67903500  0.78627700  0.54381300  1
  N  N11  1  0.82096500  0.71372300  0.04381300  1
  N  N12  1  0.82096500  0.28627700  0.54381300  1
  N  N13  1  0.67903500  0.21372300  0.04381300  1
  N  N14  1  0.32096500  0.21372300  0.45618700  1
  N  N15  1  0.17903500  0.28627700  0.95618700  1
  N  N16  1  0.45551900  0.45483500  0.61077200  1
  N  N17  1  0.04448100  0.04516500  0.11077200  1
  N  N18  1  0.95551900  0.04516500  0.38922800  1
  N  N19  1  0.54448100  0.45483500  0.88922800  1
  N  N20  1  0.54448100  0.54516500  0.38922800  1
  N  N21  1  0.95551900  0.95483500  0.88922800  1
  N  N22  1  0.04448100  0.95483500  0.61077200  1
  N  N23  1  0.45551900  0.54516500  0.11077200  1
loop_
_geom_bond_atom_site_label_1
_geom_bond_atom_site_label_2
_geom_bond_distance
_geom_bond_site_symmetry_2
N0 Zr0 2.076568 1_555
N0 Pb24 2.291448 1_555
N0 Pb16 2.386074 1_555
N0 Pb8 2.650380 1_555
N1 Zr1 2.076568 1_555
N1 Pb25 2.291448 1_565
N1 Pb17 2.386074 1_555
N1 Pb9 2.650380 1_555
N2 Zr1 2.076568 1_555
N2 Pb25 2.291448 1_565
N2 Pb18 2.386074 1_555
N2 Pb10 2.650380 1_555
N3 Zr0 2.076568 1_655
N3 Pb24 2.291448 1_655
N3 Pb19 2.386074 1_555
N3 Pb11 2.650380 1_555
N4 Zr2 2.076568 1_655
N4 Pb26 2.291448 1_655
N4 Pb20 2.386074 1_555
N4 Pb12 2.650380 1_555
N5 Zr3 2.076568 1_555
N5 Pb27 2.291448 1_545
N5 Pb21 2.386074 1_555
N5 Pb13 2.650380 1_555
N6 Zr3 2.076568 1_555
N6 Pb27 2.291448 1_545
N6 Pb22 2.386074 1_555
N6 Pb14 2.650380 1_555
N7 Zr2 2.076568 1_555
N7 Pb26 2.291448 1_555
N7 Pb23 2.386074 1_555
N7 Pb15 2.650380 1_555
N8 Pb8 2.301723 1_555
N8 Pb3 2.381999 1_455
N8 Pb23 2.410598 1_555
N8 Pb17 2.438445 1_555
N9 Pb9 2.301723 1_556
N9 Pb2 2.381999 1_555
N9 Pb22 2.410598 1_565
N9 Pb16 2.438445 1_555
N10 Pb10 2.301723 1_555
N10 Pb1 2.381999 1_555
N10 Pb21 2.410598 1_565
N10 Pb19 2.438445 1_555
N11 Pb11 2.301723 1_554
N11 Pb0 2.381999 1_655
N11 Pb20 2.410598 1_555
N11 Pb18 2.438445 1_555
N12 Pb12 2.301723 1_555
N12 Pb7 2.381999 1_655
N12 Pb19 2.410598 1_555
N12 Pb21 2.438445 1_555
N13 Pb13 2.301723 1_554
N13 Pb6 2.381999 1_555
N13 Pb18 2.410598 1_545
N13 Pb20 2.438445 1_555
N14 Pb14 2.301723 1_555
N14 Pb5 2.381999 1_555
N14 Pb17 2.410598 1_545
N14 Pb23 2.438445 1_555
N15 Pb15 2.301723 1_556
N15 Pb4 2.381999 1_455
N15 Pb16 2.410598 1_555
N15 Pb22 2.438445 1_555
N16 Zr3 2.131473 1_555
N16 Pb5 2.359411 1_555
N16 Pb1 2.387573 1_555
N16 Pb14 2.432873 1_555
N17 Zr2 2.131473 1_555
N17 Pb4 2.359411 1_454
N17 Pb0 2.387573 1_545
N17 Pb15 2.432873 1_555
N18 Zr2 2.131473 1_655
N18 Pb7 2.359411 1_655
N18 Pb3 2.387573 1_545
N18 Pb12 2.432873 1_555
N19 Zr3 2.131473 1_555
N19 Pb6 2.359411 1_556
N19 Pb2 2.387573 1_555
N19 Pb13 2.432873 1_555
N20 Zr1 2.131473 1_555
N20 Pb1 2.359411 1_555
N20 Pb5 2.387573 1_555
N20 Pb10 2.432873 1_555
N21 Zr0 2.131473 1_655
N21 Pb0 2.359411 1_656
N21 Pb4 2.387573 1_565
N21 Pb11 2.432873 1_555
N22 Zr0 2.131473 1_555
N22 Pb3 2.359411 1_455
N22 Pb7 2.387573 1_565
N22 Pb8 2.432873 1_555
N23 Zr1 2.131473 1_555
N23 Pb2 2.359411 1_554
N23 Pb6 2.387573 1_555
N23 Pb9 2.432873 1_555
