# generated using pymatgen
data_K5Na3Ta4Nb4O24
_symmetry_space_group_name_H-M   'P 1'
_cell_length_a   8.04647990
_cell_length_b   8.04647990
_cell_length_c   8.04587300
_cell_angle_alpha   89.99981369
_cell_angle_beta   89.99981369
_cell_angle_gamma   90.00027189
_symmetry_Int_Tables_number   1
_chemical_formula_structural   K5Na3Ta4Nb4O24
_chemical_formula_sum   'K5 Na3 Ta4 Nb4 O24'
_cell_volume   520.93679575
_cell_formula_units_Z   1
loop_
 _symmetry_equiv_pos_site_id
 _symmetry_equiv_pos_as_xyz
  1  'x, y, z'
loop_
 _atom_site_type_symbol
 _atom_site_label
 _atom_site_symmetry_multiplicity
 _atom_site_fract_x
 _atom_site_fract_y
 _atom_site_fract_z
 _atom_site_occupancy
  K  K0  1  0.74991400  0.74991400  0.25008900  1
  K  K1  1  0.25008400  0.74991000  0.25009400  1
  K  K2  1  0.74991000  0.25008400  0.25009400  1
  K  K3  1  0.25008700  0.25008700  0.25009700  1
  K  K4  1  0.25008700  0.25008700  0.74991400  1
  Na  Na0  1  0.74998700  0.74998700  0.74998700  1
  Na  Na1  1  0.25001500  0.74998600  0.74998700  1
  Na  Na2  1  0.74998600  0.25001500  0.74998700  1
  Ta  Ta0  1  0.99976100  0.99976100  0.99928200  1
  Ta  Ta1  1  0.99975500  0.99975500  0.50072600  1
  Ta  Ta2  1  0.50024300  0.99975500  0.99926400  1
  Ta  Ta3  1  0.99975500  0.50024300  0.99926400  1
  Nb  Nb0  1  0.50023100  0.99976600  0.50069200  1
  Nb  Nb1  1  0.99976600  0.50023100  0.50069200  1
  Nb  Nb2  1  0.50023200  0.50023200  0.99929600  1
  Nb  Nb3  1  0.50024000  0.50024000  0.50071900  1
  O  O0  1  0.99993200  0.75015500  0.99852600  1
  O  O1  1  0.99993800  0.75106900  0.50146700  1
  O  O2  1  0.50006600  0.75106900  0.99853000  1
  O  O3  1  0.50006300  0.75015100  0.50145500  1
  O  O4  1  0.99929100  0.24984200  0.99915300  1
  O  O5  1  0.99929000  0.24891900  0.50084000  1
  O  O6  1  0.50070800  0.24891800  0.99916100  1
  O  O7  1  0.50070400  0.24984400  0.50082900  1
  O  O8  1  0.75015500  0.99993200  0.99852600  1
  O  O9  1  0.75106900  0.99993800  0.50146700  1
  O  O10  1  0.24984200  0.99929100  0.99915300  1
  O  O11  1  0.24891900  0.99929000  0.50084000  1
  O  O12  1  0.75106900  0.50006600  0.99853000  1
  O  O13  1  0.75015100  0.50006300  0.50145500  1
  O  O14  1  0.24891800  0.50070800  0.99916100  1
  O  O15  1  0.24984400  0.50070400  0.50082900  1
  O  O16  1  0.99993000  0.99993000  0.24983300  1
  O  O17  1  0.99930400  0.99930400  0.75015000  1
  O  O18  1  0.50006800  0.99993100  0.24890800  1
  O  O19  1  0.50069500  0.99930500  0.75105500  1
  O  O20  1  0.99993100  0.50006800  0.24890800  1
  O  O21  1  0.99930500  0.50069500  0.75105500  1
  O  O22  1  0.50006500  0.50006500  0.24983600  1
  O  O23  1  0.50069000  0.50069000  0.75014700  1
loop_
_geom_bond_atom_site_label_1
_geom_bond_atom_site_label_2
_geom_bond_distance
_geom_bond_site_symmetry_2
K0 O22 2.843136 1_555
K0 O18 2.844104 1_555
K0 O20 2.844104 1_555
K0 O16 2.845036 1_555
K0 O3 2.851685 1_555
K0 O13 2.851685 1_555
K0 O9 2.852759 1_555
K0 O1 2.852759 1_555
K0 O12 2.852794 1_554
K0 O2 2.852794 1_554
K0 O0 2.853757 1_554
K0 O8 2.853757 1_554
K1 O22 2.843878 1_555
K1 O15 2.844426 1_555
K1 O20 2.844842 1_455
K1 O18 2.844898 1_555
K1 O11 2.845500 1_555
K1 O14 2.845557 1_554
K1 O16 2.845858 1_455
K1 O10 2.846594 1_554
K1 O3 2.852392 1_555
K1 O1 2.853414 1_455
K1 O2 2.853573 1_554
K1 O0 2.854555 1_454
K2 O22 2.843878 1_555
K2 O7 2.844426 1_555
K2 O18 2.844842 1_545
K2 O20 2.844898 1_555
K2 O5 2.845500 1_555
K2 O6 2.845557 1_554
K2 O16 2.845858 1_545
K2 O4 2.846594 1_554
K2 O13 2.852392 1_555
K2 O9 2.853414 1_545
K2 O12 2.853573 1_554
K2 O8 2.854555 1_544
K3 O22 2.844604 1_555
K3 O20 2.845663 1_455
K3 O18 2.845663 1_545
K3 O16 2.846641 1_445
K3 O7 2.852433 1_555
K3 O15 2.852433 1_555
K3 O5 2.853526 1_455
K3 O11 2.853526 1_545
K3 O6 2.853623 1_554
K3 O14 2.853623 1_554
K3 O4 2.854658 1_454
K3 O10 2.854658 1_544
K4 O7 2.843068 1_555
K4 O15 2.843068 1_555
K4 O6 2.844033 1_555
K4 O14 2.844033 1_555
K4 O11 2.844057 1_545
K4 O5 2.844057 1_455
K4 O10 2.844963 1_545
K4 O4 2.844963 1_455
K4 O23 2.851716 1_555
K4 O21 2.852791 1_455
K4 O19 2.852791 1_545
K4 O17 2.853764 1_445
Na0 O13 2.835985 1_555
Na0 O3 2.835985 1_555
Na0 O12 2.836034 1_555
Na0 O2 2.836034 1_555
Na0 O9 2.836075 1_555
Na0 O1 2.836075 1_555
Na0 O0 2.836144 1_555
Na0 O8 2.836144 1_555
Na0 O23 2.836854 1_555
Na0 O19 2.836971 1_555
Na0 O21 2.836971 1_555
Na0 O17 2.837082 1_555
Na1 O15 2.835882 1_555
Na1 O11 2.835949 1_555
Na1 O14 2.835955 1_555
Na1 O10 2.836059 1_555
Na1 O3 2.836683 1_555
Na1 O2 2.836785 1_555
Na1 O1 2.836803 1_455
Na1 O0 2.836923 1_455
Na1 O23 2.844713 1_555
Na1 O19 2.844871 1_555
Na1 O21 2.844884 1_455
Na1 O17 2.845043 1_455
Na2 O7 2.835882 1_555
Na2 O5 2.835949 1_555
Na2 O6 2.835955 1_555
Na2 O4 2.836059 1_555
Na2 O13 2.836683 1_555
Na2 O12 2.836785 1_555
Na2 O9 2.836803 1_545
Na2 O8 2.836923 1_545
Na2 O23 2.844713 1_555
Na2 O21 2.844871 1_555
Na2 O19 2.844884 1_545
Na2 O17 2.845043 1_545
Nb0 O3 2.008532 1_555
Nb0 O7 2.012251 1_565
Nb0 O19 2.014396 1_555
Nb0 O9 2.018373 1_555
Nb0 O11 2.022181 1_555
Nb0 O18 2.025823 1_555
Nb1 O13 2.008532 1_555
Nb1 O15 2.012251 1_655
Nb1 O21 2.014396 1_555
Nb1 O1 2.018373 1_555
Nb1 O5 2.022181 1_555
Nb1 O20 2.025823 1_555
Nb2 O23 2.004628 1_555
Nb2 O22 2.015814 1_556
Nb2 O12 2.018365 1_555
Nb2 O2 2.018365 1_555
Nb2 O14 2.022197 1_555
Nb2 O6 2.022197 1_555
Nb3 O23 2.006873 1_555
Nb3 O3 2.010913 1_555
Nb3 O13 2.010913 1_555
Nb3 O15 2.014810 1_555
Nb3 O7 2.014810 1_555
Nb3 O22 2.018574 1_555
O0 Ta0 2.008459 1_555
O0 Ta3 2.010921 1_555
O1 Ta1 2.001056 1_555
O2 Ta2 2.001056 1_555
O4 Ta0 2.012276 1_545
O4 Ta3 2.014850 1_555
O5 Ta1 2.004897 1_545
O6 Ta2 2.004889 1_545
O8 Ta0 2.008459 1_555
O8 Ta2 2.010921 1_555
O9 Ta1 2.001056 1_555
O10 Ta0 2.012276 1_455
O10 Ta2 2.014850 1_555
O11 Ta1 2.004897 1_455
O12 Ta3 2.001056 1_555
O14 Ta3 2.004889 1_455
O16 Ta0 2.015902 1_554
O16 Ta1 2.018654 1_555
O17 Ta0 2.004491 1_555
O17 Ta1 2.006840 1_555
O18 Ta2 2.008605 1_554
O19 Ta2 1.997065 1_555
O20 Ta3 2.008605 1_554
O21 Ta3 1.997065 1_555
