# generated using pymatgen
data_Gd(SiNi5)2
_symmetry_space_group_name_H-M   'P 1'
_cell_length_a   6.18273982
_cell_length_b   6.18273982
_cell_length_c   6.18273982
_cell_angle_alpha   134.93391255
_cell_angle_beta   100.03692926
_cell_angle_gamma   96.85900024
_symmetry_Int_Tables_number   1
_chemical_formula_structural   Gd(SiNi5)2
_chemical_formula_sum   'Gd1 Si2 Ni10'
_cell_volume   154.45971501
_cell_formula_units_Z   1
loop_
 _symmetry_equiv_pos_site_id
 _symmetry_equiv_pos_as_xyz
  1  'x, y, z'
loop_
 _atom_site_type_symbol
 _atom_site_label
 _atom_site_symmetry_multiplicity
 _atom_site_fract_x
 _atom_site_fract_y
 _atom_site_fract_z
 _atom_site_occupancy
  Gd  Gd0  1  0.00000000  0.00000000  0.00000000  1
  Si  Si0  1  0.24726000  0.74726000  0.50000000  1
  Si  Si1  1  0.75274000  0.25274000  0.50000000  1
  Ni  Ni0  1  0.64368700  0.64368700  0.00000000  1
  Ni  Ni1  1  0.35631300  0.35631300  0.00000000  1
  Ni  Ni2  1  0.34784900  0.00000000  0.34784900  1
  Ni  Ni3  1  0.65215100  0.00000000  0.65215100  1
  Ni  Ni4  1  0.80450400  0.50000000  0.30450400  1
  Ni  Ni5  1  0.19549600  0.50000000  0.69549600  1
  Ni  Ni6  1  0.50000000  0.50000000  0.50000000  1
  Ni  Ni7  1  0.50000000  0.00000000  0.00000000  1
  Ni  Ni8  1  0.00000000  0.50000000  0.00000000  1
  Ni  Ni9  1  0.00000000  0.00000000  0.50000000  1
loop_
_geom_bond_atom_site_label_1
_geom_bond_atom_site_label_2
_geom_bond_distance
_geom_bond_site_symmetry_2
Gd0 Ni2 2.763773 1_555
Gd0 Ni3 2.763773 1_454
Gd0 Ni4 2.833087 1_455
Gd0 Ni4 2.833087 1_444
Gd0 Ni5 2.833087 1_544
Gd0 Ni5 2.833087 1_555
Gd0 Ni1 2.923550 1_555
Gd0 Ni0 2.923550 1_445
Gd0 Ni8 3.091370 1_555
Gd0 Ni6 3.091370 1_444
Gd0 Ni9 3.091370 1_554
Gd0 Ni7 3.091370 1_455
Gd0 Ni7 3.091370 1_555
Gd0 Ni9 3.091370 1_555
Gd0 Ni8 3.091370 1_545
Gd0 Ni6 3.091370 1_555
Gd0 Si1 3.119232 1_444
Gd0 Si1 3.119232 1_455
Gd0 Si0 3.119232 1_544
Gd0 Si0 3.119232 1_555
Ni0 Ni1 2.357905 1_555
Ni0 Ni9 2.471809 1_665
Ni0 Ni6 2.471809 1_554
Ni0 Ni8 2.471809 1_655
Ni0 Ni7 2.471809 1_565
Ni0 Si1 2.532654 1_565
Ni0 Si1 2.532654 1_554
Ni0 Ni5 2.691346 1_554
Ni0 Ni4 2.691346 1_555
Ni0 Ni3 2.909475 1_565
Ni0 Ni3 2.909475 1_554
Ni0 Ni2 2.909475 1_554
Ni0 Ni2 2.909475 1_565
Ni1 Ni9 2.471809 1_554
Ni1 Ni6 2.471809 1_555
Ni1 Ni7 2.471809 1_555
Ni1 Ni8 2.471809 1_555
Ni1 Si0 2.532654 1_544
Ni1 Si0 2.532654 1_555
Ni1 Ni4 2.691346 1_555
Ni1 Ni5 2.691346 1_554
Ni1 Ni3 2.909475 1_565
Ni1 Ni3 2.909475 1_554
Ni1 Ni2 2.909475 1_554
Ni1 Ni2 2.909475 1_565
Ni2 Si0 2.400371 1_545
Ni2 Si1 2.400371 1_555
Ni2 Ni3 2.417778 1_555
Ni2 Ni7 2.493085 1_555
Ni2 Ni8 2.493085 1_545
Ni2 Ni9 2.493085 1_555
Ni2 Ni6 2.493085 1_555
Ni2 Ni5 2.660639 1_555
Ni2 Ni5 2.660639 1_544
Ni3 Si0 2.400371 1_545
Ni3 Si1 2.400371 1_555
Ni3 Ni8 2.493085 1_656
Ni3 Ni9 2.493085 1_655
Ni3 Ni7 2.493085 1_556
Ni3 Ni6 2.493085 1_545
Ni3 Ni4 2.660639 1_545
Ni3 Ni4 2.660639 1_556
Ni4 Ni9 2.408026 1_665
Ni4 Ni6 2.408026 1_555
Ni4 Ni8 2.408026 1_655
Ni4 Ni7 2.408026 1_555
Ni4 Si1 2.555109 1_555
Ni4 Si0 2.555109 1_655
Ni5 Ni9 2.408026 1_555
Ni5 Ni6 2.408026 1_555
Ni5 Ni7 2.408026 1_566
Ni5 Ni8 2.408026 1_556
Ni5 Si1 2.555109 1_455
Ni5 Si0 2.555109 1_555
Ni6 Si0 2.312886 1_555
Ni6 Si1 2.312886 1_555
Ni6 Ni7 2.369326 1_555
Ni6 Ni7 2.369326 1_566
Ni7 Si1 2.312886 1_555
Ni7 Si0 2.312886 1_544
Ni8 Si1 2.312886 1_454
Ni8 Si0 2.312886 1_555
Ni8 Ni9 2.369326 1_554
Ni8 Ni9 2.369326 1_565
Ni9 Si1 2.312886 1_455
Ni9 Si0 2.312886 1_545
