# generated using pymatgen
data_Mg30SnCO32
_symmetry_space_group_name_H-M   'P 1'
_cell_length_a   8.55576000
_cell_length_b   8.55576000
_cell_length_c   8.64473100
_cell_angle_alpha   90.00000000
_cell_angle_beta   90.00000000
_cell_angle_gamma   90.00000000
_symmetry_Int_Tables_number   1
_chemical_formula_structural   Mg30SnCO32
_chemical_formula_sum   'Mg30 Sn1 C1 O32'
_cell_volume   632.80320616
_cell_formula_units_Z   1
loop_
 _symmetry_equiv_pos_site_id
 _symmetry_equiv_pos_as_xyz
  1  'x, y, z'
loop_
 _atom_site_type_symbol
 _atom_site_label
 _atom_site_symmetry_multiplicity
 _atom_site_fract_x
 _atom_site_fract_y
 _atom_site_fract_z
 _atom_site_occupancy
  Mg  Mg0  1  0.00000000  0.50000000  0.00000000  1
  Mg  Mg1  1  0.00000000  0.50000000  0.50000000  1
  Mg  Mg2  1  0.50000000  0.00000000  0.00000000  1
  Mg  Mg3  1  0.50000000  0.00000000  0.50000000  1
  Mg  Mg4  1  0.50000000  0.50000000  0.00000000  1
  Mg  Mg5  1  0.50000000  0.50000000  0.50000000  1
  Mg  Mg6  1  0.00000000  0.25145800  0.25720900  1
  Mg  Mg7  1  0.00000000  0.25145800  0.74279100  1
  Mg  Mg8  1  0.00000000  0.74854200  0.25720900  1
  Mg  Mg9  1  0.00000000  0.74854200  0.74279100  1
  Mg  Mg10  1  0.50000000  0.24984900  0.25107000  1
  Mg  Mg11  1  0.50000000  0.24984900  0.74893000  1
  Mg  Mg12  1  0.50000000  0.75015100  0.25107000  1
  Mg  Mg13  1  0.50000000  0.75015100  0.74893000  1
  Mg  Mg14  1  0.25145800  0.00000000  0.25720900  1
  Mg  Mg15  1  0.25145800  0.00000000  0.74279100  1
  Mg  Mg16  1  0.24984900  0.50000000  0.25107000  1
  Mg  Mg17  1  0.24984900  0.50000000  0.74893000  1
  Mg  Mg18  1  0.74854200  0.00000000  0.25720900  1
  Mg  Mg19  1  0.74854200  0.00000000  0.74279100  1
  Mg  Mg20  1  0.75015100  0.50000000  0.25107000  1
  Mg  Mg21  1  0.75015100  0.50000000  0.74893000  1
  Mg  Mg22  1  0.25420400  0.25420400  0.00000000  1
  Mg  Mg23  1  0.24784800  0.24784800  0.50000000  1
  Mg  Mg24  1  0.25420400  0.74579600  0.00000000  1
  Mg  Mg25  1  0.24784800  0.75215200  0.50000000  1
  Mg  Mg26  1  0.74579600  0.25420400  0.00000000  1
  Mg  Mg27  1  0.75215200  0.24784800  0.50000000  1
  Mg  Mg28  1  0.74579600  0.74579600  0.00000000  1
  Mg  Mg29  1  0.75215200  0.75215200  0.50000000  1
  Sn  Sn0  1  0.00000000  0.00000000  0.00000000  1
  C  C0  1  0.00000000  0.00000000  0.50000000  1
  O  O0  1  0.26433500  0.00000000  0.00000000  1
  O  O1  1  0.25705400  0.00000000  0.50000000  1
  O  O2  1  0.25218200  0.50000000  0.00000000  1
  O  O3  1  0.25037400  0.50000000  0.50000000  1
  O  O4  1  0.73566500  0.00000000  0.00000000  1
  O  O5  1  0.74294600  0.00000000  0.50000000  1
  O  O6  1  0.74781800  0.50000000  0.00000000  1
  O  O7  1  0.74962600  0.50000000  0.50000000  1
  O  O8  1  0.24906600  0.24906600  0.24978400  1
  O  O9  1  0.24906600  0.24906600  0.75021600  1
  O  O10  1  0.24906600  0.75093400  0.24978400  1
  O  O11  1  0.24906600  0.75093400  0.75021600  1
  O  O12  1  0.75093400  0.24906600  0.24978400  1
  O  O13  1  0.75093400  0.24906600  0.75021600  1
  O  O14  1  0.75093400  0.75093400  0.24978400  1
  O  O15  1  0.75093400  0.75093400  0.75021600  1
  O  O16  1  0.00000000  0.00000000  0.24455700  1
  O  O17  1  0.00000000  0.00000000  0.75544300  1
  O  O18  1  0.00000000  0.50000000  0.25191000  1
  O  O19  1  0.00000000  0.50000000  0.74809000  1
  O  O20  1  0.50000000  0.00000000  0.25191000  1
  O  O21  1  0.50000000  0.00000000  0.74809000  1
  O  O22  1  0.50000000  0.50000000  0.25005200  1
  O  O23  1  0.50000000  0.50000000  0.74994800  1
  O  O24  1  0.00000000  0.26433500  0.00000000  1
  O  O25  1  0.00000000  0.25705400  0.50000000  1
  O  O26  1  0.00000000  0.73566500  0.00000000  1
  O  O27  1  0.00000000  0.74294600  0.50000000  1
  O  O28  1  0.50000000  0.25218200  0.00000000  1
  O  O29  1  0.50000000  0.25037400  0.50000000  1
  O  O30  1  0.50000000  0.74781800  0.00000000  1
  O  O31  1  0.50000000  0.74962600  0.50000000  1
loop_
_geom_bond_atom_site_label_1
_geom_bond_atom_site_label_2
_geom_bond_distance
_geom_bond_site_symmetry_2
Mg0 O24 2.016293 1_555
Mg0 O26 2.016293 1_555
Mg0 O2 2.157609 1_555
Mg0 O6 2.157609 1_455
Mg0 O19 2.177694 1_554
Mg0 O18 2.177694 1_555
Mg1 O27 2.078588 1_555
Mg1 O25 2.078588 1_555
Mg1 O3 2.142140 1_555
Mg1 O7 2.142140 1_455
Mg1 O18 2.144671 1_555
Mg1 O19 2.144671 1_555
Mg2 O0 2.016293 1_555
Mg2 O4 2.016293 1_555
Mg2 O28 2.157609 1_555
Mg2 O30 2.157609 1_545
Mg2 O21 2.177694 1_554
Mg2 O20 2.177694 1_555
Mg3 O1 2.078588 1_555
Mg3 O5 2.078588 1_555
Mg3 O31 2.142140 1_545
Mg3 O29 2.142140 1_555
Mg3 O20 2.144671 1_555
Mg3 O21 2.144671 1_555
Mg4 O30 2.120271 1_555
Mg4 O6 2.120271 1_555
Mg4 O2 2.120271 1_555
Mg4 O28 2.120271 1_555
Mg4 O22 2.161632 1_555
Mg4 O23 2.161632 1_554
Mg5 O3 2.135740 1_555
Mg5 O29 2.135740 1_555
Mg5 O7 2.135740 1_555
Mg5 O31 2.135740 1_555
Mg5 O23 2.160733 1_555
Mg5 O22 2.160733 1_555
Mg6 O25 2.099409 1_555
Mg6 O18 2.126959 1_555
Mg6 O8 2.132014 1_555
Mg6 O12 2.132014 1_455
Mg6 O16 2.154193 1_555
Mg6 O24 2.226230 1_555
Mg7 O25 2.099409 1_555
Mg7 O19 2.126959 1_555
Mg7 O9 2.132014 1_555
Mg7 O13 2.132014 1_455
Mg7 O17 2.154193 1_555
Mg7 O24 2.226230 1_556
Mg8 O27 2.099409 1_555
Mg8 O18 2.126959 1_555
Mg8 O10 2.132014 1_555
Mg8 O14 2.132014 1_455
Mg8 O16 2.154193 1_565
Mg8 O26 2.226230 1_555
Mg9 O27 2.099409 1_555
Mg9 O19 2.126959 1_555
Mg9 O11 2.132014 1_555
Mg9 O15 2.132014 1_455
Mg9 O17 2.154193 1_565
Mg9 O26 2.226230 1_556
Mg10 O20 2.137660 1_555
Mg10 O22 2.140250 1_555
Mg10 O12 2.146970 1_555
Mg10 O8 2.146970 1_555
Mg10 O29 2.151938 1_555
Mg10 O28 2.170524 1_555
Mg11 O21 2.137660 1_555
Mg11 O23 2.140250 1_555
Mg11 O13 2.146970 1_555
Mg11 O9 2.146970 1_555
Mg11 O29 2.151938 1_555
Mg11 O28 2.170524 1_556
Mg12 O20 2.137660 1_565
Mg12 O22 2.140250 1_555
Mg12 O14 2.146970 1_555
Mg12 O10 2.146970 1_555
Mg12 O31 2.151938 1_555
Mg12 O30 2.170524 1_555
Mg13 O21 2.137660 1_565
Mg13 O23 2.140250 1_555
Mg13 O15 2.146970 1_555
Mg13 O11 2.146970 1_555
Mg13 O31 2.151938 1_555
Mg13 O30 2.170524 1_556
Mg14 O1 2.099409 1_555
Mg14 O20 2.126959 1_555
Mg14 O8 2.132014 1_555
Mg14 O10 2.132014 1_545
Mg14 O16 2.154193 1_555
Mg14 O0 2.226230 1_555
Mg15 O1 2.099409 1_555
Mg15 O21 2.126959 1_555
Mg15 O9 2.132014 1_555
Mg15 O11 2.132014 1_545
Mg15 O17 2.154193 1_555
Mg15 O0 2.226230 1_556
Mg16 O18 2.137660 1_555
Mg16 O22 2.140250 1_555
Mg16 O10 2.146970 1_555
Mg16 O8 2.146970 1_555
Mg16 O3 2.151938 1_555
Mg16 O2 2.170524 1_555
Mg17 O19 2.137660 1_555
Mg17 O23 2.140250 1_555
Mg17 O11 2.146970 1_555
Mg17 O9 2.146970 1_555
Mg17 O3 2.151938 1_555
Mg17 O2 2.170524 1_556
Mg18 O5 2.099409 1_555
Mg18 O20 2.126959 1_555
Mg18 O12 2.132014 1_555
Mg18 O14 2.132014 1_545
Mg18 O16 2.154193 1_655
Mg18 O4 2.226230 1_555
Mg19 O5 2.099409 1_555
Mg19 O21 2.126959 1_555
Mg19 O13 2.132014 1_555
Mg19 O15 2.132014 1_545
Mg19 O17 2.154193 1_655
Mg19 O4 2.226230 1_556
Mg20 O18 2.137660 1_655
Mg20 O22 2.140250 1_555
Mg20 O14 2.146970 1_555
Mg20 O12 2.146970 1_555
Mg20 O7 2.151938 1_555
Mg20 O6 2.170524 1_555
Mg21 O19 2.137660 1_655
Mg21 O23 2.140250 1_555
Mg21 O15 2.146970 1_555
Mg21 O13 2.146970 1_555
Mg21 O7 2.151938 1_555
Mg21 O6 2.170524 1_556
Mg22 O2 2.103043 1_555
Mg22 O28 2.103043 1_555
Mg22 O8 2.160210 1_555
Mg22 O9 2.160210 1_554
Mg22 O0 2.176635 1_555
Mg22 O24 2.176635 1_555
Mg23 O1 2.121990 1_555
Mg23 O25 2.121990 1_555
Mg23 O29 2.157460 1_555
Mg23 O3 2.157460 1_555
Mg23 O9 2.163100 1_555
Mg23 O8 2.163100 1_555
Mg24 O2 2.103043 1_555
Mg24 O30 2.103043 1_555
Mg24 O10 2.160210 1_555
Mg24 O11 2.160210 1_554
Mg24 O0 2.176635 1_565
Mg24 O26 2.176635 1_555
Mg25 O27 2.121990 1_555
Mg25 O1 2.121990 1_565
Mg25 O3 2.157460 1_555
Mg25 O31 2.157460 1_555
Mg25 O11 2.163100 1_555
Mg25 O10 2.163100 1_555
Mg26 O28 2.103043 1_555
Mg26 O6 2.103043 1_555
Mg26 O12 2.160210 1_555
Mg26 O13 2.160210 1_554
Mg26 O24 2.176635 1_655
Mg26 O4 2.176635 1_555
Mg27 O5 2.121990 1_555
Mg27 O25 2.121990 1_655
Mg27 O29 2.157460 1_555
Mg27 O7 2.157460 1_555
Mg27 O13 2.163100 1_555
Mg27 O12 2.163100 1_555
Mg28 O6 2.103043 1_555
Mg28 O30 2.103043 1_555
Mg28 O14 2.160210 1_555
Mg28 O15 2.160210 1_554
Mg28 O26 2.176635 1_655
Mg28 O4 2.176635 1_565
Mg29 O27 2.121990 1_655
Mg29 O5 2.121990 1_565
Mg29 O31 2.157460 1_555
Mg29 O7 2.157460 1_555
Mg29 O15 2.163100 1_555
Mg29 O14 2.163100 1_555
O0 Sn0 2.261587 1_555
O4 Sn0 2.261587 1_655
O16 Sn0 2.114129 1_555
O17 Sn0 2.114129 1_556
O24 Sn0 2.261587 1_555
O26 Sn0 2.261587 1_565
