# generated using pymatgen
data_Be3Bi(RhO2)9
_symmetry_space_group_name_H-M   'P 1'
_cell_length_a   9.62718419
_cell_length_b   9.62718419
_cell_length_c   9.62718475
_cell_angle_alpha   110.00856101
_cell_angle_beta   110.00856101
_cell_angle_gamma   110.00855841
_symmetry_Int_Tables_number   1
_chemical_formula_structural   Be3Bi(RhO2)9
_chemical_formula_sum   'Be6 Bi2 Rh18 O36'
_cell_volume   672.86065457
_cell_formula_units_Z   2
loop_
 _symmetry_equiv_pos_site_id
 _symmetry_equiv_pos_as_xyz
  1  'x, y, z'
loop_
 _atom_site_type_symbol
 _atom_site_label
 _atom_site_symmetry_multiplicity
 _atom_site_fract_x
 _atom_site_fract_y
 _atom_site_fract_z
 _atom_site_occupancy
  Be  Be0  1  0.74888500  0.41738100  0.08371500  1
  Be  Be1  1  0.41738100  0.08371500  0.74888500  1
  Be  Be2  1  0.08371500  0.74888500  0.41738100  1
  Be  Be3  1  0.91628500  0.25111500  0.58261900  1
  Be  Be4  1  0.58261900  0.91628500  0.25111500  1
  Be  Be5  1  0.25111500  0.58261900  0.91628500  1
  Bi  Bi0  1  0.74999900  0.74999900  0.74999900  1
  Bi  Bi1  1  0.25000100  0.25000100  0.25000100  1
  Rh  Rh0  1  0.88114300  0.51588200  0.85273300  1
  Rh  Rh1  1  0.21192400  0.85054000  0.18161900  1
  Rh  Rh2  1  0.54971100  0.18723600  0.51923100  1
  Rh  Rh3  1  0.18161900  0.21192400  0.85054000  1
  Rh  Rh4  1  0.51923100  0.54971100  0.18723600  1
  Rh  Rh5  1  0.85273300  0.88114300  0.51588200  1
  Rh  Rh6  1  0.18723600  0.51923100  0.54971100  1
  Rh  Rh7  1  0.51588200  0.85273300  0.88114300  1
  Rh  Rh8  1  0.85054000  0.18161900  0.21192400  1
  Rh  Rh9  1  0.45028900  0.81276400  0.48076900  1
  Rh  Rh10  1  0.78807600  0.14946000  0.81838100  1
  Rh  Rh11  1  0.11885700  0.48411800  0.14726700  1
  Rh  Rh12  1  0.14726700  0.11885700  0.48411800  1
  Rh  Rh13  1  0.48076900  0.45028900  0.81276400  1
  Rh  Rh14  1  0.81838100  0.78807600  0.14946000  1
  Rh  Rh15  1  0.14946000  0.81838100  0.78807600  1
  Rh  Rh16  1  0.48411800  0.14726700  0.11885700  1
  Rh  Rh17  1  0.81276400  0.48076900  0.45028900  1
  O  O0  1  0.85462800  0.39796300  0.99607700  1
  O  O1  1  0.52449500  0.06606200  0.66260300  1
  O  O2  1  0.18845200  0.73164200  0.32829000  1
  O  O3  1  0.66260300  0.52449500  0.06606200  1
  O  O4  1  0.32829000  0.18845200  0.73164200  1
  O  O5  1  0.99607700  0.85462800  0.39796300  1
  O  O6  1  0.73164200  0.32829000  0.18845200  1
  O  O7  1  0.39796300  0.99607700  0.85462800  1
  O  O8  1  0.06606200  0.66260300  0.52449500  1
  O  O9  1  0.81154800  0.26835800  0.67171000  1
  O  O10  1  0.47550500  0.93393800  0.33739700  1
  O  O11  1  0.14537200  0.60203700  0.00392300  1
  O  O12  1  0.00392300  0.14537200  0.60203700  1
  O  O13  1  0.67171000  0.81154800  0.26835800  1
  O  O14  1  0.33739700  0.47550500  0.93393800  1
  O  O15  1  0.93393800  0.33739700  0.47550500  1
  O  O16  1  0.60203700  0.00392300  0.14537200  1
  O  O17  1  0.26835800  0.67171000  0.81154800  1
  O  O18  1  0.97052300  0.04738300  0.24292100  1
  O  O19  1  0.62562500  0.70970700  0.91428700  1
  O  O20  1  0.29657200  0.37359000  0.56954500  1
  O  O21  1  0.56954500  0.29657200  0.37359000  1
  O  O22  1  0.24292100  0.97052300  0.04738300  1
  O  O23  1  0.91428700  0.62562500  0.70970700  1
  O  O24  1  0.70970700  0.91428700  0.62562500  1
  O  O25  1  0.37359000  0.56954500  0.29657200  1
  O  O26  1  0.04738300  0.24292100  0.97052300  1
  O  O27  1  0.70342800  0.62641000  0.43045500  1
  O  O28  1  0.37437500  0.29029300  0.08571300  1
  O  O29  1  0.02947700  0.95261700  0.75707900  1
  O  O30  1  0.08571300  0.37437500  0.29029300  1
  O  O31  1  0.75707900  0.02947700  0.95261700  1
  O  O32  1  0.43045500  0.70342800  0.62641000  1
  O  O33  1  0.95261700  0.75707900  0.02947700  1
  O  O34  1  0.62641000  0.43045500  0.70342800  1
  O  O35  1  0.29029300  0.08571300  0.37437500  1
loop_
_geom_bond_atom_site_label_1
_geom_bond_atom_site_label_2
_geom_bond_distance
_geom_bond_site_symmetry_2
Be0 O6 1.545590 1_555
Be0 O3 1.546528 1_555
Be0 O0 1.546993 1_554
Be1 O4 1.545589 1_555
Be1 O1 1.546528 1_555
Be1 O7 1.546994 1_545
Be2 O2 1.545590 1_555
Be2 O8 1.546528 1_555
Be2 O5 1.546993 1_455
Be3 O9 1.545590 1_555
Be3 O15 1.546528 1_555
Be3 O12 1.546993 1_655
Be4 O13 1.545589 1_555
Be4 O10 1.546528 1_555
Be4 O16 1.546994 1_565
Be5 O17 1.545590 1_555
Be5 O14 1.546528 1_555
Be5 O11 1.546993 1_556
Bi0 O23 2.341727 1_555
Bi0 O24 2.341727 1_555
Bi0 O19 2.341727 1_555
Bi0 O31 2.690882 1_565
Bi0 O29 2.690882 1_655
Bi0 O33 2.690882 1_556
Bi0 O32 2.695676 1_555
Bi0 O34 2.695676 1_555
Bi0 O27 2.695676 1_555
Bi1 O30 2.341727 1_555
Bi1 O35 2.341727 1_555
Bi1 O28 2.341727 1_555
Bi1 O22 2.690882 1_545
Bi1 O18 2.690882 1_455
Bi1 O26 2.690882 1_554
Bi1 O21 2.695676 1_555
Bi1 O25 2.695676 1_555
Bi1 O20 2.695676 1_555
O0 Rh0 2.091202 1_555
O0 Rh10 2.112069 1_555
O0 Rh11 2.115093 1_656
O1 Rh2 2.112421 1_555
O1 Rh10 2.123780 1_555
O1 Rh9 2.133570 1_545
O2 Rh11 2.104999 1_555
O2 Rh9 2.110700 1_555
O2 Rh1 2.121914 1_555
O3 Rh4 2.112421 1_555
O3 Rh14 2.123780 1_555
O3 Rh13 2.133570 1_554
O4 Rh12 2.104999 1_555
O4 Rh13 2.110700 1_555
O4 Rh3 2.121914 1_555
O5 Rh5 2.091202 1_555
O5 Rh14 2.112069 1_555
O5 Rh12 2.115093 1_665
O6 Rh16 2.104999 1_555
O6 Rh17 2.110700 1_555
O6 Rh8 2.121914 1_555
O7 Rh7 2.091202 1_555
O7 Rh15 2.112069 1_555
O7 Rh16 2.115093 1_566
O8 Rh6 2.112421 1_555
O8 Rh15 2.123780 1_555
O8 Rh17 2.133570 1_455
O9 Rh0 2.104999 1_555
O9 Rh2 2.110700 1_555
O9 Rh10 2.121914 1_555
O10 Rh9 2.112421 1_555
O10 Rh1 2.123780 1_555
O10 Rh2 2.133570 1_565
O11 Rh11 2.091202 1_555
O11 Rh1 2.112069 1_555
O11 Rh0 2.115093 1_454
O12 Rh12 2.091202 1_555
O12 Rh3 2.112069 1_555
O12 Rh5 2.115093 1_445
O13 Rh5 2.104999 1_555
O13 Rh4 2.110700 1_555
O13 Rh14 2.121914 1_555
O14 Rh13 2.112421 1_555
O14 Rh3 2.123780 1_555
O14 Rh4 2.133570 1_556
O15 Rh17 2.112421 1_555
O15 Rh8 2.123780 1_555
O15 Rh6 2.133570 1_655
O16 Rh16 2.091202 1_555
O16 Rh8 2.112069 1_555
O16 Rh7 2.115093 1_544
O17 Rh7 2.104999 1_555
O17 Rh6 2.110700 1_555
O17 Rh15 2.121914 1_555
O18 Rh8 2.035417 1_555
O18 Rh12 2.040152 1_655
O18 Rh14 2.060523 1_545
O19 Rh14 2.033874 1_556
O19 Rh13 2.037364 1_555
O19 Rh7 2.044379 1_555
O20 Rh12 2.038420 1_555
O20 Rh6 2.041072 1_555
O20 Rh13 2.062002 1_555
O21 Rh16 2.038420 1_555
O21 Rh2 2.041072 1_555
O21 Rh17 2.062002 1_555
O22 Rh1 2.035417 1_555
O22 Rh16 2.040152 1_565
O22 Rh15 2.060524 1_554
O23 Rh15 2.033874 1_655
O23 Rh17 2.037364 1_555
O23 Rh0 2.044379 1_555
O24 Rh10 2.033874 1_565
O24 Rh9 2.037364 1_555
O24 Rh5 2.044379 1_555
O25 Rh11 2.038420 1_555
O25 Rh4 2.041072 1_555
O25 Rh9 2.062002 1_555
O26 Rh3 2.035417 1_555
O26 Rh11 2.040152 1_556
O26 Rh10 2.060523 1_455
O27 Rh5 2.038420 1_555
O27 Rh17 2.041072 1_555
O27 Rh4 2.062002 1_555
O28 Rh3 2.033874 1_554
O28 Rh4 2.037364 1_555
O28 Rh16 2.044379 1_555
O29 Rh15 2.035417 1_555
O29 Rh5 2.040152 1_455
O29 Rh3 2.060523 1_565
O30 Rh8 2.033874 1_455
O30 Rh6 2.037364 1_555
O30 Rh11 2.044379 1_555
O31 Rh10 2.035417 1_555
O31 Rh7 2.040152 1_545
O31 Rh8 2.060524 1_556
O32 Rh7 2.038420 1_555
O32 Rh9 2.041072 1_555
O32 Rh6 2.062002 1_555
O33 Rh14 2.035417 1_555
O33 Rh0 2.040152 1_554
O33 Rh1 2.060523 1_655
O34 Rh0 2.038420 1_555
O34 Rh13 2.041072 1_555
O34 Rh2 2.062002 1_555
O35 Rh1 2.033874 1_545
O35 Rh2 2.037364 1_555
O35 Rh12 2.044379 1_555
