# generated using pymatgen
data_TcP2H18(C3Br)2
_symmetry_space_group_name_H-M   'P 1'
_cell_length_a   10.64404905
_cell_length_b   10.64404905
_cell_length_c   17.93048528
_cell_angle_alpha   67.92156559
_cell_angle_beta   67.92156559
_cell_angle_gamma   55.38191335
_symmetry_Int_Tables_number   1
_chemical_formula_structural   TcP2H18(C3Br)2
_chemical_formula_sum   'Tc4 P8 H72 C24 Br8'
_cell_volume   1513.69432027
_cell_formula_units_Z   4
loop_
 _symmetry_equiv_pos_site_id
 _symmetry_equiv_pos_as_xyz
  1  'x, y, z'
loop_
 _atom_site_type_symbol
 _atom_site_label
 _atom_site_symmetry_multiplicity
 _atom_site_fract_x
 _atom_site_fract_y
 _atom_site_fract_z
 _atom_site_occupancy
  Tc  Tc0  1  0.82266300  0.17733700  0.75000000  1
  Tc  Tc1  1  0.17733700  0.82266300  0.25000000  1
  Tc  Tc2  1  0.60163400  0.39836600  0.75000000  1
  Tc  Tc3  1  0.39836600  0.60163400  0.25000000  1
  P  P0  1  0.79533800  0.03653300  0.68038700  1
  P  P1  1  0.96346700  0.20466200  0.81961300  1
  P  P2  1  0.20466200  0.96346700  0.31961300  1
  P  P3  1  0.03653300  0.79533800  0.18038700  1
  P  P4  1  0.65614900  0.56965100  0.62077500  1
  P  P5  1  0.43034900  0.34385100  0.87922500  1
  P  P6  1  0.34385100  0.43034900  0.37922500  1
  P  P7  1  0.56965100  0.65614900  0.12077500  1
  H  H0  1  0.07530700  0.85569200  0.64696800  1
  H  H1  1  0.14430800  0.92469300  0.85303200  1
  H  H2  1  0.92469300  0.14430800  0.35303200  1
  H  H3  1  0.85569200  0.07530700  0.14696800  1
  H  H4  1  0.96238000  0.78756700  0.63839000  1
  H  H5  1  0.21243300  0.03762000  0.86161000  1
  H  H6  1  0.03762000  0.21243300  0.36161000  1
  H  H7  1  0.78756700  0.96238000  0.13839000  1
  H  H8  1  0.97901100  0.77108200  0.73782400  1
  H  H9  1  0.22891800  0.02098900  0.76217600  1
  H  H10  1  0.02098900  0.22891800  0.26217600  1
  H  H11  1  0.77108200  0.97901100  0.23782400  1
  H  H12  1  0.64000000  0.93066800  0.79050000  1
  H  H13  1  0.06933200  0.36000000  0.70950000  1
  H  H14  1  0.36000000  0.06933200  0.20950000  1
  H  H15  1  0.93066800  0.64000000  0.29050000  1
  H  H16  1  0.66871100  0.89746900  0.69304500  1
  H  H17  1  0.10253100  0.33128900  0.80695500  1
  H  H18  1  0.33128900  0.10253100  0.30695500  1
  H  H19  1  0.89746900  0.66871100  0.19304500  1
  H  H20  1  0.52996800  0.08769600  0.71566700  1
  H  H21  1  0.91230400  0.47003200  0.78433300  1
  H  H22  1  0.47003200  0.91230400  0.28433300  1
  H  H23  1  0.08769600  0.52996800  0.21566700  1
  H  H24  1  0.86757200  0.14605500  0.53639300  1
  H  H25  1  0.85394500  0.13242800  0.96360700  1
  H  H26  1  0.13242800  0.85394500  0.46360700  1
  H  H27  1  0.14605500  0.86757200  0.03639300  1
  H  H28  1  0.66171800  0.21273700  0.56853300  1
  H  H29  1  0.78726300  0.33828200  0.93146700  1
  H  H30  1  0.33828200  0.78726300  0.43146700  1
  H  H31  1  0.21273700  0.66171800  0.06853300  1
  H  H32  1  0.79708600  0.01916200  0.54933200  1
  H  H33  1  0.98083800  0.20291400  0.95066800  1
  H  H34  1  0.20291400  0.98083800  0.45066800  1
  H  H35  1  0.01916200  0.79708600  0.04933200  1
  H  H36  1  0.78844800  0.65024700  0.66098800  1
  H  H37  1  0.34975300  0.21155200  0.83901200  1
  H  H38  1  0.21155200  0.34975300  0.33901200  1
  H  H39  1  0.65024700  0.78844800  0.16098800  1
  H  H40  1  0.79151200  0.71714300  0.55201300  1
  H  H41  1  0.28285700  0.20848800  0.94798700  1
  H  H42  1  0.20848800  0.28285700  0.44798700  1
  H  H43  1  0.71714300  0.79151200  0.05201300  1
  H  H44  1  0.92014700  0.51710200  0.59274300  1
  H  H45  1  0.48289800  0.07985300  0.90725700  1
  H  H46  1  0.07985300  0.48289800  0.40725700  1
  H  H47  1  0.51710200  0.92014700  0.09274300  1
  H  H48  1  0.62070600  0.49983000  0.51896800  1
  H  H49  1  0.50017000  0.37929400  0.98103200  1
  H  H50  1  0.37929400  0.50017000  0.48103200  1
  H  H51  1  0.49983000  0.62070600  0.01896800  1
  H  H52  1  0.82298000  0.42918400  0.51096600  1
  H  H53  1  0.57081600  0.17702000  0.98903400  1
  H  H54  1  0.17702000  0.57081600  0.48903400  1
  H  H55  1  0.42918400  0.82298000  0.01096600  1
  H  H56  1  0.69683700  0.63171000  0.47249700  1
  H  H57  1  0.36829000  0.30316300  0.02750300  1
  H  H58  1  0.30316300  0.36829000  0.52750300  1
  H  H59  1  0.63171000  0.69683700  0.97249700  1
  H  H60  1  0.44086700  0.80998500  0.66591800  1
  H  H61  1  0.19001500  0.55913300  0.83408200  1
  H  H62  1  0.55913300  0.19001500  0.33408200  1
  H  H63  1  0.80998500  0.44086700  0.16591800  1
  H  H64  1  0.38995100  0.75840400  0.60164300  1
  H  H65  1  0.24159600  0.61004900  0.89835700  1
  H  H66  1  0.61004900  0.24159600  0.39835700  1
  H  H67  1  0.75840400  0.38995100  0.10164300  1
  H  H68  1  0.51379600  0.84322900  0.55659200  1
  H  H69  1  0.15677100  0.48620400  0.94340800  1
  H  H70  1  0.48620400  0.15677100  0.44340800  1
  H  H71  1  0.84322900  0.51379600  0.05659200  1
  C  C0  1  0.97081100  0.84374100  0.67552500  1
  C  C1  1  0.15625900  0.02918900  0.82447500  1
  C  C2  1  0.02918900  0.15625900  0.32447500  1
  C  C3  1  0.84374100  0.97081100  0.17552500  1
  C  C4  1  0.64297200  0.98292800  0.72470400  1
  C  C5  1  0.01707200  0.35702800  0.77529600  1
  C  C6  1  0.35702800  0.01707200  0.27529600  1
  C  C7  1  0.98292800  0.64297200  0.22470400  1
  C  C8  1  0.77889100  0.11172800  0.57270100  1
  C  C9  1  0.88827200  0.22110900  0.92729900  1
  C  C10  1  0.22110900  0.88827200  0.42729900  1
  C  C11  1  0.11172800  0.77889100  0.07270100  1
  C  C12  1  0.80402400  0.61864500  0.60538900  1
  C  C13  1  0.38135500  0.19597600  0.89461100  1
  C  C14  1  0.19597600  0.38135500  0.39461100  1
  C  C15  1  0.61864500  0.80402400  0.10538900  1
  C  C16  1  0.70361900  0.52785700  0.52091600  1
  C  C17  1  0.47214300  0.29638100  0.97908400  1
  C  C18  1  0.29638100  0.47214300  0.47908400  1
  C  C19  1  0.52785700  0.70361900  0.02091600  1
  C  C20  1  0.48242800  0.76457200  0.61062100  1
  C  C21  1  0.23542800  0.51757200  0.88937900  1
  C  C22  1  0.51757200  0.23542800  0.38937900  1
  C  C23  1  0.76457200  0.48242800  0.11062100  1
  Br  Br0  1  0.03876300  0.18017500  0.62328600  1
  Br  Br1  1  0.81982500  0.96123700  0.87671400  1
  Br  Br2  1  0.96123700  0.81982500  0.37671400  1
  Br  Br3  1  0.18017500  0.03876300  0.12328600  1
  Br  Br4  1  0.41434700  0.42473600  0.68106200  1
  Br  Br5  1  0.57526400  0.58565300  0.81893800  1
  Br  Br6  1  0.58565300  0.57526400  0.31893800  1
  Br  Br7  1  0.42473600  0.41434700  0.18106200  1
loop_
_geom_bond_atom_site_label_1
_geom_bond_atom_site_label_2
_geom_bond_distance
_geom_bond_site_symmetry_2
Tc0 Tc2 2.186558 1_555
Tc1 Tc3 2.186558 1_555
P0 Tc0 2.462366 1_555
P1 Tc0 2.462366 1_555
P2 Tc1 2.462366 1_555
P3 Tc1 2.462366 1_555
P4 Tc2 2.458661 1_555
P5 Tc2 2.458661 1_555
P6 Tc3 2.458661 1_555
P7 Tc3 2.458661 1_555
C0 H0 1.095055 1_655
C0 H8 1.095764 1_555
C0 H4 1.101857 1_555
C0 P0 1.834226 1_565
C1 H1 1.095055 1_545
C1 H9 1.095764 1_555
C1 H5 1.101857 1_555
C1 P1 1.834226 1_455
C2 H2 1.095055 1_455
C2 H10 1.095764 1_555
C2 H6 1.101857 1_555
C2 P2 1.834226 1_545
C3 H3 1.095055 1_565
C3 H11 1.095764 1_555
C3 H7 1.101857 1_555
C3 P3 1.834226 1_655
C4 H12 1.095831 1_555
C4 H20 1.096929 1_565
C4 H16 1.101287 1_555
C4 P0 1.824541 1_565
C5 H13 1.095831 1_555
C5 H21 1.096929 1_455
C5 H17 1.101287 1_555
C5 P1 1.824541 1_455
C6 H14 1.095831 1_555
C6 H22 1.096929 1_545
C6 H18 1.101287 1_555
C6 P2 1.824541 1_545
C7 H15 1.095831 1_555
C7 H23 1.096929 1_655
C7 H19 1.101287 1_555
C7 P3 1.824541 1_655
C8 H24 1.095175 1_555
C8 H28 1.096871 1_555
C8 H32 1.102905 1_555
C8 P0 1.825546 1_555
C9 H25 1.095175 1_555
C9 H29 1.096871 1_555
C9 H33 1.102905 1_555
C9 P1 1.825546 1_555
C10 H26 1.095175 1_555
C10 H30 1.096871 1_555
C10 H34 1.102905 1_555
C10 P2 1.825546 1_555
C11 H27 1.095175 1_555
C11 H31 1.096871 1_555
C11 H35 1.102905 1_555
C11 P3 1.825546 1_555
C12 H36 1.094967 1_555
C12 H44 1.096817 1_555
C12 H40 1.102608 1_555
C12 P4 1.823060 1_555
C13 H37 1.094967 1_555
C13 H45 1.096817 1_555
C13 H41 1.102608 1_555
C13 P5 1.823060 1_555
C14 H38 1.094967 1_555
C14 H46 1.096817 1_555
C14 H42 1.102608 1_555
C14 P6 1.823060 1_555
C15 H39 1.094967 1_555
C15 H47 1.096817 1_555
C15 H43 1.102608 1_555
C15 P7 1.823060 1_555
C16 H48 1.095088 1_555
C16 H52 1.096996 1_555
C16 H56 1.102670 1_555
C16 P4 1.822759 1_555
C17 H49 1.095088 1_555
C17 H53 1.096996 1_555
C17 H57 1.102670 1_556
C17 P5 1.822759 1_555
C18 H50 1.095088 1_555
C18 H54 1.096996 1_555
C18 H58 1.102670 1_555
C18 P6 1.822759 1_555
C19 H51 1.095088 1_555
C19 H55 1.096996 1_555
C19 H59 1.102670 1_554
C19 P7 1.822759 1_555
C20 H64 1.095272 1_555
C20 H60 1.095458 1_555
C20 H68 1.102571 1_555
C20 P4 1.834951 1_555
C21 H65 1.095272 1_555
C21 H61 1.095458 1_555
C21 H69 1.102571 1_555
C21 P5 1.834951 1_555
C22 H66 1.095272 1_555
C22 H62 1.095458 1_555
C22 H70 1.102571 1_555
C22 P6 1.834951 1_555
C23 H67 1.095272 1_555
C23 H63 1.095458 1_555
C23 H71 1.102571 1_555
C23 P7 1.834951 1_555
Br0 Tc0 2.559793 1_455
Br1 Tc0 2.559793 1_565
Br2 Tc1 2.559793 1_655
Br3 Tc1 2.559793 1_545
Br4 Tc2 2.556670 1_555
Br5 Tc2 2.556670 1_555
Br6 Tc3 2.556670 1_555
Br7 Tc3 2.556670 1_555
