# generated using pymatgen
data_Li6MnV3(PO4)6
_symmetry_space_group_name_H-M   'P 1'
_cell_length_a   8.74650600
_cell_length_b   8.54965200
_cell_length_c   14.73718875
_cell_angle_alpha   55.54756090
_cell_angle_beta   90.00000000
_cell_angle_gamma   90.00000000
_symmetry_Int_Tables_number   1
_chemical_formula_structural   Li6MnV3(PO4)6
_chemical_formula_sum   'Li12 Mn2 V6 P12 O48'
_cell_volume   908.73853648
_cell_formula_units_Z   2
loop_
 _symmetry_equiv_pos_site_id
 _symmetry_equiv_pos_as_xyz
  1  'x, y, z'
loop_
 _atom_site_type_symbol
 _atom_site_label
 _atom_site_symmetry_multiplicity
 _atom_site_fract_x
 _atom_site_fract_y
 _atom_site_fract_z
 _atom_site_occupancy
  Li  Li0  1  0.73567500  0.71849000  0.34670300  1
  Li  Li1  1  0.16398400  0.38863300  0.69163800  1
  Li  Li2  1  0.47069300  0.00328400  0.17805400  1
  Li  Li3  1  0.97001100  0.99703000  0.32230100  1
  Li  Li4  1  0.66428800  0.61094800  0.80876600  1
  Li  Li5  1  0.23788500  0.28067600  0.15408300  1
  Li  Li6  1  0.26432500  0.71849000  0.84670300  1
  Li  Li7  1  0.83601600  0.38863300  0.19163800  1
  Li  Li8  1  0.52930700  0.00328400  0.67805400  1
  Li  Li9  1  0.02998900  0.99703000  0.82230100  1
  Li  Li10  1  0.33571200  0.61094800  0.30876600  1
  Li  Li11  1  0.76211500  0.28067600  0.65408300  1
  Mn  Mn0  1  0.72088600  0.64728300  0.60586800  1
  Mn  Mn1  1  0.27911400  0.64728300  0.10586800  1
  V  V0  1  0.22287100  0.34763900  0.89567700  1
  V  V1  1  0.78560400  0.13620500  0.10883600  1
  V  V2  1  0.28553800  0.86519900  0.39070800  1
  V  V3  1  0.21439600  0.13620500  0.60883600  1
  V  V4  1  0.77712900  0.34763900  0.39567700  1
  V  V5  1  0.71446200  0.86519900  0.89070800  1
  P  P0  1  0.99966500  0.55104400  0.49012900  1
  P  P1  1  0.86765500  0.26414800  0.84969700  1
  P  P2  1  0.13960100  0.96886500  0.14673200  1
  P  P3  1  0.36797000  0.73356900  0.65163000  1
  P  P4  1  0.64065900  0.03222900  0.35179200  1
  P  P5  1  0.50179500  0.45052000  0.00868900  1
  P  P6  1  0.00033500  0.55104400  0.99012900  1
  P  P7  1  0.86039900  0.96886500  0.64673200  1
  P  P8  1  0.13234500  0.26414800  0.34969700  1
  P  P9  1  0.35934100  0.03222900  0.85179200  1
  P  P10  1  0.63203000  0.73356900  0.15163000  1
  P  P11  1  0.49820500  0.45052000  0.50868900  1
  O  O0  1  0.35834700  0.15584800  0.89599500  1
  O  O1  1  0.37754300  0.60620700  0.44430000  1
  O  O2  1  0.58203100  0.45275900  0.60047100  1
  O  O3  1  0.67047500  0.86969300  0.18840100  1
  O  O4  1  0.88785600  0.51827300  0.58306300  1
  O  O5  1  0.04483300  0.29216400  0.83159400  1
  O  O6  1  0.83029700  0.16656400  0.97160700  1
  O  O7  1  0.25627100  0.88470700  0.24557100  1
  O  O8  1  0.98070600  0.98751600  0.18714100  1
  O  O9  1  0.07315500  0.75042400  0.43371100  1
  O  O10  1  0.77858100  0.45068500  0.77909300  1
  O  O11  1  0.20041700  0.17450800  0.06188100  1
  O  O12  1  0.70201000  0.82829100  0.43412000  1
  O  O13  1  0.27952300  0.54601500  0.72483300  1
  O  O14  1  0.57442100  0.24950300  0.06483900  1
  O  O15  1  0.47991200  0.01673100  0.31236300  1
  O  O16  1  0.32892600  0.82852500  0.53056200  1
  O  O17  1  0.75573600  0.12128600  0.25170200  1
  O  O18  1  0.54699200  0.70982300  0.66766500  1
  O  O19  1  0.38978100  0.48246200  0.91789000  1
  O  O20  1  0.08579200  0.54378400  0.90111600  1
  O  O21  1  0.17076600  0.12872900  0.31245100  1
  O  O22  1  0.86194700  0.84580900  0.60236100  1
  O  O23  1  0.88081500  0.39393000  0.05596600  1
  O  O24  1  0.62245700  0.60620700  0.94430000  1
  O  O25  1  0.64165300  0.15584800  0.39599500  1
  O  O26  1  0.32952500  0.86969300  0.68840100  1
  O  O27  1  0.41796900  0.45275900  0.10047100  1
  O  O28  1  0.11214400  0.51827300  0.08306300  1
  O  O29  1  0.95516700  0.29216400  0.33159400  1
  O  O30  1  0.74372900  0.88470700  0.74557100  1
  O  O31  1  0.16970300  0.16656400  0.47160700  1
  O  O32  1  0.01929400  0.98751600  0.68714100  1
  O  O33  1  0.92684500  0.75042400  0.93371100  1
  O  O34  1  0.22141900  0.45068500  0.27909300  1
  O  O35  1  0.79958300  0.17450800  0.56188100  1
  O  O36  1  0.29799000  0.82829100  0.93412000  1
  O  O37  1  0.72047700  0.54601500  0.22483300  1
  O  O38  1  0.42557900  0.24950300  0.56483900  1
  O  O39  1  0.52008800  0.01673100  0.81236300  1
  O  O40  1  0.24426400  0.12128600  0.75170200  1
  O  O41  1  0.67107400  0.82852500  0.03056200  1
  O  O42  1  0.45300800  0.70982300  0.16766500  1
  O  O43  1  0.61021900  0.48246200  0.41789000  1
  O  O44  1  0.82923400  0.12872900  0.81245100  1
  O  O45  1  0.91420800  0.54378400  0.40111700  1
  O  O46  1  0.11918500  0.39393000  0.55596600  1
  O  O47  1  0.13805300  0.84580900  0.10236100  1
loop_
_geom_bond_atom_site_label_1
_geom_bond_atom_site_label_2
_geom_bond_distance
_geom_bond_site_symmetry_2
Li0 O45 1.989296 1_555
Li0 O43 1.995375 1_555
Li0 O12 1.998998 1_555
Li0 O3 2.006651 1_555
Li1 O13 1.953423 1_555
Li1 O46 2.012667 1_555
Li1 O5 2.023792 1_555
Li1 O40 2.052291 1_555
Li2 O14 2.016025 1_555
Li2 O3 2.045509 1_545
Li2 O15 2.048161 1_555
Li2 O7 2.096135 1_545
Li3 O9 2.009530 1_655
Li3 O8 2.041143 1_555
Li3 O21 2.046258 1_665
Li3 O17 2.114937 1_565
Li4 O10 1.935439 1_555
Li4 O24 2.008350 1_555
Li4 O18 2.025409 1_555
Li4 O30 2.088536 1_555
Li5 O27 1.988608 1_555
Li5 O28 2.006463 1_555
Li5 O21 2.012183 1_555
Li5 O11 2.042829 1_555
Li6 O20 1.989296 1_555
Li6 O19 1.995375 1_555
Li6 O36 1.998998 1_555
Li6 O26 2.006651 1_555
Li7 O37 1.953423 1_555
Li7 O23 2.012667 1_555
Li7 O29 2.023792 1_555
Li7 O17 2.052291 1_555
Li8 O38 2.016025 1_555
Li8 O26 2.045509 1_545
Li8 O39 2.048161 1_555
Li8 O30 2.096135 1_545
Li9 O33 2.009530 1_455
Li9 O32 2.041143 1_555
Li9 O44 2.046258 1_465
Li9 O40 2.114937 1_565
Li10 O34 1.935439 1_555
Li10 O1 2.008350 1_555
Li10 O42 2.025409 1_555
Li10 O7 2.088536 1_555
Li11 O2 1.988608 1_555
Li11 O4 2.006463 1_555
Li11 O44 2.012183 1_555
Li11 O35 2.042829 1_555
Mn0 O4 1.970213 1_555
Mn0 O18 1.994892 1_555
Mn0 O22 2.075230 1_555
Mn0 O12 2.096833 1_555
Mn0 O2 2.096887 1_555
Mn0 O10 2.177606 1_555
Mn1 O28 1.970213 1_555
Mn1 O42 1.994892 1_555
Mn1 O47 2.075230 1_555
Mn1 O36 2.096833 1_554
Mn1 O27 2.096887 1_555
Mn1 O34 2.177606 1_555
O0 P9 1.523306 1_555
O0 V0 2.020936 1_555
O1 P11 1.535219 1_555
O1 V2 2.048348 1_555
O2 P11 1.548151 1_555
O3 P10 1.573136 1_555
O3 V1 2.134919 1_565
O4 P0 1.573677 1_555
O5 P1 1.567731 1_455
O5 V0 2.012102 1_555
O6 P1 1.527971 1_555
O6 V1 1.927754 1_556
O7 P2 1.579534 1_555
O7 V2 2.065104 1_555
O8 P2 1.555309 1_655
O8 V1 2.049373 1_565
O9 P0 1.551331 1_455
O9 V2 2.027718 1_555
O10 P1 1.534780 1_555
O11 P2 1.565334 1_545
O11 V0 2.031476 1_554
O12 P4 1.551320 1_565
O13 P3 1.541523 1_555
O13 V0 2.151670 1_555
O14 P5 1.559758 1_555
O14 V1 2.014923 1_555
O15 P4 1.555339 1_555
O15 V2 2.051680 1_545
O16 P3 1.523220 1_555
O16 V2 1.938837 1_555
O17 P4 1.580459 1_555
O17 V1 2.052694 1_555
O18 P3 1.579418 1_555
O19 P5 1.552919 1_556
O19 V0 1.998511 1_555
O20 P6 1.541261 1_555
O20 V0 2.099585 1_555
O21 P8 1.572810 1_555
O21 V2 2.115230 1_545
O22 P7 1.520871 1_555
O23 P6 1.537519 1_654
O23 V1 2.052634 1_555
O24 P5 1.535219 1_556
O24 V5 2.048348 1_555
O25 P4 1.523306 1_555
O25 V4 2.020936 1_555
O26 P3 1.573136 1_555
O26 V3 2.134919 1_565
O27 P5 1.548151 1_555
O28 P6 1.573677 1_554
O29 P8 1.567731 1_655
O29 V4 2.012102 1_555
O30 P7 1.579534 1_555
O30 V5 2.065104 1_555
O31 P8 1.527971 1_555
O31 V3 1.927754 1_555
O32 P7 1.555309 1_455
O32 V3 2.049373 1_565
O33 P6 1.551331 1_655
O33 V5 2.027718 1_555
O34 P8 1.534780 1_555
O35 P7 1.565334 1_545
O35 V4 2.031476 1_555
O36 P9 1.551320 1_565
O37 P10 1.541523 1_555
O37 V4 2.151670 1_555
O38 P11 1.559758 1_555
O38 V3 2.014923 1_555
O39 P9 1.555339 1_555
O39 V5 2.051680 1_545
O40 P9 1.580459 1_555
O40 V3 2.052694 1_555
O41 P10 1.523220 1_555
O41 V5 1.938837 1_554
O42 P10 1.579418 1_555
O43 P11 1.552919 1_555
O43 V4 1.998511 1_555
O44 P1 1.572810 1_555
O44 V5 2.115230 1_545
O45 P0 1.541248 1_555
O45 V4 2.099592 1_555
O46 P0 1.537519 1_455
O46 V3 2.052634 1_555
O47 P2 1.520871 1_555
