# generated using pymatgen
data_RbHfC(OF)4
_symmetry_space_group_name_H-M   'P 1'
_cell_length_a   8.07466300
_cell_length_b   7.07273800
_cell_length_c   15.62913287
_cell_angle_alpha   65.53840693
_cell_angle_beta   90.00000000
_cell_angle_gamma   90.00000000
_symmetry_Int_Tables_number   1
_chemical_formula_structural   RbHfC(OF)4
_chemical_formula_sum   'Rb4 Hf4 C4 O16 F16'
_cell_volume   812.46062243
_cell_formula_units_Z   4
loop_
 _symmetry_equiv_pos_site_id
 _symmetry_equiv_pos_as_xyz
  1  'x, y, z'
loop_
 _atom_site_type_symbol
 _atom_site_label
 _atom_site_symmetry_multiplicity
 _atom_site_fract_x
 _atom_site_fract_y
 _atom_site_fract_z
 _atom_site_occupancy
  Rb  Rb0  1  0.69496000  0.41209800  0.09762000  1
  Rb  Rb1  1  0.19496000  0.58790200  0.40238000  1
  Rb  Rb2  1  0.30504000  0.58790200  0.90238000  1
  Rb  Rb3  1  0.80504000  0.41209800  0.59762000  1
  Hf  Hf0  1  0.34048300  0.93089700  0.08502900  1
  Hf  Hf1  1  0.84048300  0.06910300  0.41497100  1
  Hf  Hf2  1  0.65951700  0.06910300  0.91497100  1
  Hf  Hf3  1  0.15951700  0.93089700  0.58502900  1
  C  C0  1  0.00054000  0.11157100  0.99616900  1
  C  C1  1  0.50054000  0.88842900  0.50383100  1
  C  C2  1  0.99946000  0.88842900  0.00383100  1
  C  C3  1  0.49946000  0.11157100  0.49616900  1
  O  O0  1  0.59852200  0.76029800  0.27317300  1
  O  O1  1  0.09852200  0.23970200  0.22682700  1
  O  O2  1  0.40147800  0.23970200  0.72682700  1
  O  O3  1  0.90147800  0.76029800  0.77317300  1
  O  O4  1  0.13012000  0.16748600  0.02505000  1
  O  O5  1  0.63012000  0.83251400  0.47495000  1
  O  O6  1  0.86988000  0.83251400  0.97495000  1
  O  O7  1  0.36988000  0.16748600  0.52505000  1
  O  O8  1  0.12826700  0.78149900  0.03816200  1
  O  O9  1  0.62826700  0.21850100  0.46183800  1
  O  O10  1  0.87173300  0.21850100  0.96183800  1
  O  O11  1  0.37173300  0.78149900  0.53816200  1
  O  O12  1  0.22904700  0.30412000  0.24518500  1
  O  O13  1  0.72904700  0.69588000  0.25481500  1
  O  O14  1  0.77095300  0.69588000  0.75481500  1
  O  O15  1  0.27095300  0.30412000  0.74518500  1
  F  F0  1  0.23515200  0.82508900  0.20954400  1
  F  F1  1  0.73515200  0.17491100  0.29045600  1
  F  F2  1  0.76484800  0.17491100  0.79045600  1
  F  F3  1  0.26484800  0.82508900  0.70954400  1
  F  F4  1  0.41477100  0.17665900  0.10339800  1
  F  F5  1  0.91477100  0.82334100  0.39660200  1
  F  F6  1  0.58522900  0.82334100  0.89660200  1
  F  F7  1  0.08522900  0.17665900  0.60339800  1
  F  F8  1  0.42750800  0.65039600  0.11521100  1
  F  F9  1  0.92750800  0.34960400  0.38478900  1
  F  F10  1  0.57249200  0.34960400  0.88478900  1
  F  F11  1  0.07249200  0.65039600  0.61521100  1
  F  F12  1  0.38533900  0.03782900  0.94081100  1
  F  F13  1  0.88533900  0.96217100  0.55918900  1
  F  F14  1  0.61466100  0.96217100  0.05918900  1
  F  F15  1  0.11466100  0.03782900  0.44081100  1
loop_
_geom_bond_atom_site_label_1
_geom_bond_atom_site_label_2
_geom_bond_distance
_geom_bond_site_symmetry_2
Hf0 O8 2.287002 1_555
Hf0 O4 2.294559 1_565
Hf1 O9 2.287002 1_555
Hf1 O5 2.294559 1_545
Hf2 O10 2.287002 1_555
Hf2 O6 2.294559 1_545
Hf3 O11 2.287002 1_555
Hf3 O7 2.294559 1_565
C0 O4 1.266001 1_556
C0 O10 1.267106 1_455
C1 O5 1.266001 1_555
C1 O11 1.267106 1_555
C2 O6 1.266001 1_554
C2 O8 1.267106 1_655
C3 O7 1.266001 1_555
C3 O9 1.267106 1_555
O0 O13 1.228400 1_555
O1 O12 1.228400 1_555
O4 Rb2 3.129071 1_554
O5 Rb3 3.129071 1_555
O6 Rb0 3.129071 1_556
O7 Rb1 3.129071 1_555
O8 Rb2 3.289728 1_554
O9 Rb3 3.289728 1_555
O10 Rb0 3.289728 1_556
O11 Rb1 3.289728 1_555
O14 O3 1.228400 1_555
O15 O2 1.228400 1_555
F0 Hf0 1.965825 1_555
F0 Rb1 2.795663 1_555
F1 Hf1 1.965825 1_555
F1 Rb0 2.795663 1_555
F2 Hf2 1.965825 1_555
F2 Rb3 2.795663 1_555
F3 Hf3 1.965825 1_555
F3 Rb2 2.795663 1_555
F4 Hf0 1.968983 1_545
F4 Rb0 2.788387 1_555
F4 Rb2 3.398198 1_554
F5 Hf1 1.968983 1_565
F5 Rb1 2.788387 1_655
F5 Rb3 3.398198 1_555
F6 Hf2 1.968983 1_565
F6 Rb2 2.788387 1_555
F6 Rb0 3.398198 1_556
F7 Hf3 1.968983 1_545
F7 Rb3 2.788387 1_455
F7 Rb1 3.398198 1_555
F8 Hf0 1.969052 1_555
F8 Rb0 2.822018 1_555
F9 Hf1 1.969052 1_555
F9 Rb1 2.822018 1_655
F10 Hf2 1.969052 1_555
F10 Rb2 2.822018 1_555
F11 Hf3 1.969052 1_555
F11 Rb3 2.822018 1_455
F12 Hf0 2.090915 1_546
F12 Hf2 2.244856 1_555
F13 Hf1 2.090915 1_565
F13 Hf3 2.244856 1_655
F14 Hf2 2.090915 1_564
F14 Hf0 2.244856 1_555
F15 Hf3 2.090915 1_545
F15 Hf1 2.244856 1_455
