# generated using pymatgen
data_Fe(ClO2)2
_symmetry_space_group_name_H-M   'P 1'
_cell_length_a   6.81630400
_cell_length_b   5.27459600
_cell_length_c   8.19617649
_cell_angle_alpha   52.87398314
_cell_angle_beta   90.00000000
_cell_angle_gamma   90.00000000
_symmetry_Int_Tables_number   1
_chemical_formula_structural   Fe(ClO2)2
_chemical_formula_sum   'Fe2 Cl4 O8'
_cell_volume   234.95064053
_cell_formula_units_Z   2
loop_
 _symmetry_equiv_pos_site_id
 _symmetry_equiv_pos_as_xyz
  1  'x, y, z'
loop_
 _atom_site_type_symbol
 _atom_site_label
 _atom_site_symmetry_multiplicity
 _atom_site_fract_x
 _atom_site_fract_y
 _atom_site_fract_z
 _atom_site_occupancy
  Fe  Fe0  1  0.00000000  0.00000000  0.00000000  1
  Fe  Fe1  1  0.50000000  0.00000000  0.50000000  1
  Cl  Cl0  1  0.25905800  0.64065900  0.34686000  1
  Cl  Cl1  1  0.74094200  0.35934100  0.65314000  1
  Cl  Cl2  1  0.75905800  0.35934100  0.15314000  1
  Cl  Cl3  1  0.24094200  0.64065900  0.84686000  1
  O  O0  1  0.07672500  0.88633300  0.80382200  1
  O  O1  1  0.92327500  0.11366700  0.19617800  1
  O  O2  1  0.57672500  0.11366700  0.69617800  1
  O  O3  1  0.42327500  0.88633300  0.30382200  1
  O  O4  1  0.83786900  0.60049500  0.19251400  1
  O  O5  1  0.16213100  0.39950500  0.80748600  1
  O  O6  1  0.33786900  0.39950500  0.30748600  1
  O  O7  1  0.66213100  0.60049500  0.69251400  1
loop_
_geom_bond_atom_site_label_1
_geom_bond_atom_site_label_2
_geom_bond_distance
_geom_bond_site_symmetry_2
Fe0 O4 2.034146 1_445
Fe0 O5 2.034146 1_554
Fe0 O1 2.093333 1_455
Fe0 O0 2.093333 1_544
Fe1 O7 2.034146 1_545
Fe1 O6 2.034146 1_555
Fe1 O2 2.093333 1_555
Fe1 O3 2.093333 1_545
Cl0 O3 1.582648 1_555
Cl0 O6 1.583101 1_555
Cl0 Fe0 2.878927 1_565
Cl1 O2 1.582648 1_555
Cl1 O7 1.583101 1_555
Cl1 Fe0 2.878927 1_656
Cl2 O1 1.582648 1_555
Cl2 O4 1.583101 1_555
Cl2 Fe1 2.878927 1_555
Cl3 O0 1.582648 1_555
Cl3 O5 1.583101 1_555
Cl3 Fe1 2.878927 1_565
