# generated using pymatgen
data_ZrO2
_symmetry_space_group_name_H-M   'P 1'
_cell_length_a   5.09812992
_cell_length_b   5.27144050
_cell_length_c   10.09309041
_cell_angle_alpha   90.00000000
_cell_angle_beta   90.00000000
_cell_angle_gamma   90.00000000
_symmetry_Int_Tables_number   1
_chemical_formula_structural   ZrO2
_chemical_formula_sum   'Zr8 O16'
_cell_volume   271.24664250
_cell_formula_units_Z   8
loop_
 _symmetry_equiv_pos_site_id
 _symmetry_equiv_pos_as_xyz
  1  'x, y, z'
loop_
 _atom_site_type_symbol
 _atom_site_label
 _atom_site_symmetry_multiplicity
 _atom_site_fract_x
 _atom_site_fract_y
 _atom_site_fract_z
 _atom_site_occupancy
  Zr  Zr0  1  0.75305001  0.96589942  0.61554916  1
  Zr  Zr1  1  0.24694999  0.53410058  0.11554916  1
  Zr  Zr2  1  0.74694999  0.46589942  0.38445084  1
  Zr  Zr3  1  0.25305001  0.03410058  0.88445084  1
  Zr  Zr4  1  0.24694999  0.03410058  0.38445084  1
  Zr  Zr5  1  0.75305001  0.46589942  0.88445084  1
  Zr  Zr6  1  0.25305001  0.53410058  0.61554916  1
  Zr  Zr7  1  0.74694999  0.96589942  0.11554916  1
  O  O0  1  0.62780946  0.62528853  0.71007951  1
  O  O1  1  0.37219054  0.87471147  0.21007951  1
  O  O2  1  0.87219054  0.12528853  0.28992049  1
  O  O3  1  0.12780946  0.37471147  0.78992049  1
  O  O4  1  0.37219054  0.37471147  0.28992049  1
  O  O5  1  0.62780946  0.12528853  0.78992049  1
  O  O6  1  0.12780946  0.87471147  0.71007951  1
  O  O7  1  0.87219054  0.62528853  0.21007951  1
  O  O8  1  0.99745835  0.26122845  0.52240795  1
  O  O9  1  0.00254165  0.23877155  0.02240795  1
  O  O10  1  0.50254165  0.76122845  0.47759205  1
  O  O11  1  0.49745835  0.73877155  0.97759205  1
  O  O12  1  0.00254165  0.73877155  0.47759205  1
  O  O13  1  0.99745835  0.76122845  0.97759205  1
  O  O14  1  0.49745835  0.23877155  0.52240795  1
  O  O15  1  0.50254165  0.26122845  0.02240795  1
loop_
_geom_bond_atom_site_label_1
_geom_bond_atom_site_label_2
_geom_bond_distance
_geom_bond_site_symmetry_2
O0 Zr5 2.052081 1_555
O0 Zr0 2.131160 1_555
O0 Zr6 2.188987 1_555
O1 Zr4 2.052081 1_565
O1 Zr1 2.131160 1_555
O1 Zr7 2.188987 1_555
O2 Zr7 2.052081 1_545
O2 Zr2 2.131160 1_555
O2 Zr4 2.188987 1_655
O3 Zr6 2.052081 1_555
O3 Zr3 2.131160 1_555
O3 Zr5 2.188987 1_455
O4 Zr1 2.052081 1_555
O4 Zr4 2.131160 1_555
O4 Zr2 2.188987 1_555
O5 Zr0 2.052081 1_545
O5 Zr5 2.131160 1_555
O5 Zr3 2.188987 1_555
O6 Zr3 2.052081 1_565
O6 Zr6 2.131160 1_555
O6 Zr0 2.188987 1_455
O7 Zr2 2.052081 1_555
O7 Zr7 2.131160 1_555
O7 Zr1 2.188987 1_655
O8 Zr6 2.156559 1_655
O8 Zr2 2.175755 1_555
O8 Zr0 2.204539 1_545
O8 Zr4 2.233865 1_655
O9 Zr7 2.156559 1_445
O9 Zr3 2.175755 1_554
O9 Zr1 2.204539 1_555
O9 Zr5 2.233865 1_454
O10 Zr4 2.156559 1_565
O10 Zr0 2.175755 1_555
O10 Zr2 2.204539 1_555
O10 Zr6 2.233865 1_555
O11 Zr5 2.156559 1_555
O11 Zr1 2.175755 1_556
O11 Zr3 2.204539 1_565
O11 Zr7 2.233865 1_556
O12 Zr2 2.156559 1_455
O12 Zr6 2.175755 1_555
O12 Zr4 2.204539 1_565
O12 Zr0 2.233865 1_455
O13 Zr3 2.156559 1_665
O13 Zr7 2.175755 1_556
O13 Zr5 2.204539 1_555
O13 Zr1 2.233865 1_656
O14 Zr0 2.156559 1_545
O14 Zr4 2.175755 1_555
O14 Zr6 2.204539 1_555
O14 Zr2 2.233865 1_555
O15 Zr1 2.156559 1_555
O15 Zr5 2.175755 1_554
O15 Zr7 2.204539 1_545
O15 Zr3 2.233865 1_554
