# generated using pymatgen
data_YbGa4Ni
_symmetry_space_group_name_H-M   'P 1'
_cell_length_a   7.73506720
_cell_length_b   7.73506720
_cell_length_c   6.51617047
_cell_angle_alpha   90.00000000
_cell_angle_beta   90.00000000
_cell_angle_gamma   149.77419796
_symmetry_Int_Tables_number   1
_chemical_formula_structural   YbGa4Ni
_chemical_formula_sum   'Yb2 Ga8 Ni2'
_cell_volume   196.26446982
_cell_formula_units_Z   2
loop_
 _symmetry_equiv_pos_site_id
 _symmetry_equiv_pos_as_xyz
  1  'x, y, z'
loop_
 _atom_site_type_symbol
 _atom_site_label
 _atom_site_symmetry_multiplicity
 _atom_site_fract_x
 _atom_site_fract_y
 _atom_site_fract_z
 _atom_site_occupancy
  Yb  Yb0  1  0.62212801  0.37787199  0.75000000  1
  Yb  Yb1  1  0.37787199  0.62212801  0.25000000  1
  Ga  Ga0  1  0.18469241  0.81530759  0.44889619  1
  Ga  Ga1  1  0.81530759  0.18469241  0.55110381  1
  Ga  Ga2  1  0.00000000  0.00000000  0.00000000  1
  Ga  Ga3  1  0.00000000  0.00000000  0.50000000  1
  Ga  Ga4  1  0.56859269  0.43140731  0.25000000  1
  Ga  Ga5  1  0.43140731  0.56859269  0.75000000  1
  Ga  Ga6  1  0.18469241  0.81530759  0.05110381  1
  Ga  Ga7  1  0.81530759  0.18469241  0.94889619  1
  Ni  Ni0  1  0.72436641  0.27563359  0.25000000  1
  Ni  Ni1  1  0.27563359  0.72436641  0.75000000  1
loop_
_geom_bond_atom_site_label_1
_geom_bond_atom_site_label_2
_geom_bond_distance
_geom_bond_site_symmetry_2
Ga0 Ni1 2.386286 1_555
Ga0 Ni0 2.469394 1_565
Ga0 Ni0 2.469394 1_455
Ga0 Ga6 2.592083 1_555
Ga0 Ga3 2.778424 1_565
Ga0 Ga1 2.883759 1_565
Ga0 Ga1 2.883759 1_455
Ga0 Ga4 2.958618 1_565
Ga0 Ga4 2.958618 1_455
Ga0 Yb0 2.964762 1_565
Ga0 Yb0 2.964762 1_455
Ga0 Yb1 3.162884 1_555
Ga1 Ni0 2.386286 1_555
Ga1 Ni1 2.469394 1_655
Ga1 Ni1 2.469394 1_545
Ga1 Ga7 2.592083 1_555
Ga1 Ga3 2.778424 1_655
Ga1 Ga5 2.958618 1_655
Ga1 Ga5 2.958618 1_545
Ga1 Yb1 2.964762 1_655
Ga1 Yb1 2.964762 1_545
Ga1 Yb0 3.162884 1_555
Ga2 Ga6 2.778424 1_545
Ga2 Ga7 2.778424 1_454
Ga2 Ga5 2.787532 1_554
Ga2 Ga4 2.787532 1_555
Ga2 Ga4 2.787532 1_445
Ga2 Ga5 2.787532 1_444
Ga2 Yb0 3.169828 1_554
Ga2 Yb1 3.169828 1_555
Ga2 Yb1 3.169828 1_445
Ga2 Yb0 3.169828 1_444
Ga3 Ga5 2.787532 1_555
Ga3 Ga4 2.787532 1_555
Ga3 Ga4 2.787532 1_445
Ga3 Ga5 2.787532 1_445
Ga3 Yb0 3.169828 1_555
Ga3 Yb1 3.169828 1_555
Ga3 Yb1 3.169828 1_445
Ga3 Yb0 3.169828 1_445
Ga4 Ni0 2.326494 1_555
Ga4 Yb1 2.848430 1_555
Ga4 Ga6 2.958618 1_545
Ga4 Ga6 2.958618 1_655
Ga4 Yb0 3.354759 1_555
Ga4 Yb0 3.354759 1_554
Ga5 Ni1 2.326494 1_555
Ga5 Yb0 2.848430 1_555
Ga5 Ga7 2.958618 1_455
Ga5 Ga7 2.958618 1_565
Ga5 Yb1 3.354759 1_556
Ga5 Yb1 3.354759 1_555
Ga6 Ni1 2.386286 1_554
Ga6 Ni0 2.469394 1_565
Ga6 Ni0 2.469394 1_455
Ga6 Ga7 2.883759 1_564
Ga6 Ga7 2.883759 1_454
Ga6 Yb0 2.964762 1_564
Ga6 Yb0 2.964762 1_454
Ga6 Yb1 3.162884 1_555
Ga7 Ni0 2.386286 1_556
Ga7 Ni1 2.469394 1_655
Ga7 Ni1 2.469394 1_545
Ga7 Yb1 2.964762 1_656
Ga7 Yb1 2.964762 1_546
Ga7 Yb0 3.162884 1_555
Ni0 Yb1 3.053389 1_545
Ni0 Yb1 3.053389 1_655
Ni1 Yb0 3.053389 1_565
Ni1 Yb0 3.053389 1_455
