# generated using pymatgen
data_RbRuN2
_symmetry_space_group_name_H-M   'P 1'
_cell_length_a   5.94339200
_cell_length_b   11.87818000
_cell_length_c   16.70933700
_cell_angle_alpha   90.00000000
_cell_angle_beta   90.00000000
_cell_angle_gamma   90.00000000
_symmetry_Int_Tables_number   1
_chemical_formula_structural   RbRuN2
_chemical_formula_sum   'Rb16 Ru16 N32'
_cell_volume   1179.62371698
_cell_formula_units_Z   16
loop_
 _symmetry_equiv_pos_site_id
 _symmetry_equiv_pos_as_xyz
  1  'x, y, z'
loop_
 _atom_site_type_symbol
 _atom_site_label
 _atom_site_symmetry_multiplicity
 _atom_site_fract_x
 _atom_site_fract_y
 _atom_site_fract_z
 _atom_site_occupancy
  Rb  Rb0  1  0.25052700  0.00368500  0.43640500  1
  Rb  Rb1  1  0.75052700  0.49631500  0.56359500  1
  Rb  Rb2  1  0.74947300  0.50368500  0.06359500  1
  Rb  Rb3  1  0.24947300  0.99631500  0.93640500  1
  Rb  Rb4  1  0.74947300  0.99631500  0.56359500  1
  Rb  Rb5  1  0.24947300  0.50368500  0.43640500  1
  Rb  Rb6  1  0.25052700  0.49631500  0.93640500  1
  Rb  Rb7  1  0.75052700  0.00368500  0.06359500  1
  Rb  Rb8  1  0.31487700  0.25532700  0.31298600  1
  Rb  Rb9  1  0.81487700  0.24467300  0.68701400  1
  Rb  Rb10  1  0.68512300  0.75532700  0.18701400  1
  Rb  Rb11  1  0.18512300  0.74467300  0.81298600  1
  Rb  Rb12  1  0.68512300  0.74467300  0.68701400  1
  Rb  Rb13  1  0.18512300  0.75532700  0.31298600  1
  Rb  Rb14  1  0.31487700  0.24467300  0.81298600  1
  Rb  Rb15  1  0.81487700  0.25532700  0.18701400  1
  Ru  Ru0  1  0.74945000  0.00471600  0.31248000  1
  Ru  Ru1  1  0.24945000  0.49528400  0.68752000  1
  Ru  Ru2  1  0.25055000  0.50471600  0.18752000  1
  Ru  Ru3  1  0.75055000  0.99528400  0.81248000  1
  Ru  Ru4  1  0.25055000  0.99528400  0.68752000  1
  Ru  Ru5  1  0.75055000  0.50471600  0.31248000  1
  Ru  Ru6  1  0.74945000  0.49528400  0.81248000  1
  Ru  Ru7  1  0.24945000  0.00471600  0.18752000  1
  Ru  Ru8  1  0.79061500  0.25914400  0.43762400  1
  Ru  Ru9  1  0.29061500  0.24085600  0.56237600  1
  Ru  Ru10  1  0.20938500  0.75914400  0.06237600  1
  Ru  Ru11  1  0.70938500  0.74085600  0.93762400  1
  Ru  Ru12  1  0.20938500  0.74085600  0.56237600  1
  Ru  Ru13  1  0.70938500  0.75914400  0.43762400  1
  Ru  Ru14  1  0.79061500  0.24085600  0.93762400  1
  Ru  Ru15  1  0.29061500  0.25914400  0.06237600  1
  N  N0  1  0.08275700  0.27156300  0.48067500  1
  N  N1  1  0.58275700  0.22843700  0.51932500  1
  N  N2  1  0.91724300  0.77156300  0.01932500  1
  N  N3  1  0.41724300  0.72843700  0.98067500  1
  N  N4  1  0.91724300  0.72843700  0.51932500  1
  N  N5  1  0.41724300  0.77156300  0.48067500  1
  N  N6  1  0.08275700  0.22843700  0.98067500  1
  N  N7  1  0.58275700  0.27156300  0.01932500  1
  N  N8  1  0.70428200  0.39877200  0.39408800  1
  N  N9  1  0.20428200  0.10122800  0.60591200  1
  N  N10  1  0.29571800  0.89877200  0.10591200  1
  N  N11  1  0.79571800  0.60122800  0.89408800  1
  N  N12  1  0.29571800  0.60122800  0.60591200  1
  N  N13  1  0.79571800  0.89877200  0.39408800  1
  N  N14  1  0.70428200  0.10122800  0.89408800  1
  N  N15  1  0.20428200  0.39877200  0.10591200  1
  N  N16  1  0.78047900  0.14859500  0.35775900  1
  N  N17  1  0.28047900  0.35140500  0.64224100  1
  N  N18  1  0.21952100  0.64859500  0.14224100  1
  N  N19  1  0.71952100  0.85140500  0.85775900  1
  N  N20  1  0.21952100  0.85140500  0.64224100  1
  N  N21  1  0.71952100  0.64859500  0.35775900  1
  N  N22  1  0.78047900  0.35140500  0.85775900  1
  N  N23  1  0.28047900  0.14859500  0.14224100  1
  N  N24  1  0.54073200  0.48618000  0.22962900  1
  N  N25  1  0.04073200  0.01382000  0.77037100  1
  N  N26  1  0.45926800  0.98618000  0.27037100  1
  N  N27  1  0.95926800  0.51382000  0.72962900  1
  N  N28  1  0.45926800  0.51382000  0.77037100  1
  N  N29  1  0.95926800  0.98618000  0.22962900  1
  N  N30  1  0.54073200  0.01382000  0.72962900  1
  N  N31  1  0.04073200  0.48618000  0.27037100  1
loop_
_geom_bond_atom_site_label_1
_geom_bond_atom_site_label_2
_geom_bond_distance
_geom_bond_site_symmetry_2
N0 Ru9 1.876937 1_555
N0 Ru8 1.885210 1_455
N0 Rb5 3.021766 1_555
N0 Rb8 3.129134 1_555
N1 Ru8 1.876937 1_555
N1 Ru9 1.885210 1_555
N1 Rb4 3.021766 1_545
N1 Rb9 3.129134 1_555
N2 Ru11 1.876937 1_554
N2 Ru10 1.885210 1_655
N2 Rb7 3.021766 1_565
N2 Rb10 3.129134 1_555
N3 Ru10 1.876937 1_556
N3 Ru11 1.885210 1_555
N3 Rb6 3.021766 1_555
N3 Rb11 3.129134 1_555
N4 Ru13 1.876937 1_555
N4 Ru12 1.885210 1_655
N4 Rb1 3.021766 1_555
N4 Rb12 3.129134 1_555
N5 Ru12 1.876937 1_555
N5 Ru13 1.885210 1_555
N5 Rb0 3.021766 1_565
N5 Rb13 3.129134 1_555
N6 Ru15 1.876937 1_556
N6 Ru14 1.885210 1_455
N6 Rb3 3.021766 1_545
N6 Rb14 3.129134 1_555
N7 Ru14 1.876937 1_554
N7 Ru15 1.885210 1_555
N7 Rb2 3.021766 1_555
N7 Rb15 3.129134 1_555
N8 Ru5 1.875818 1_555
N8 Ru8 1.882336 1_555
N8 Rb5 3.059366 1_555
N8 Rb1 3.072487 1_555
N8 Rb8 3.177421 1_555
N9 Ru4 1.875818 1_545
N9 Ru9 1.882336 1_555
N9 Rb4 3.059366 1_445
N9 Rb0 3.072487 1_555
N9 Rb9 3.177421 1_455
N10 Ru7 1.875818 1_565
N10 Ru10 1.882336 1_555
N10 Rb7 3.059366 1_565
N10 Rb3 3.072487 1_554
N10 Rb10 3.177421 1_555
N11 Ru6 1.875818 1_555
N11 Ru11 1.882336 1_555
N11 Rb6 3.059366 1_655
N11 Rb2 3.072487 1_556
N11 Rb11 3.177421 1_655
N12 Ru1 1.875818 1_555
N12 Ru12 1.882336 1_555
N12 Rb1 3.059366 1_555
N12 Rb5 3.072487 1_555
N12 Rb12 3.177421 1_555
N13 Ru0 1.875818 1_565
N13 Ru13 1.882336 1_555
N13 Rb0 3.059366 1_665
N13 Rb4 3.072487 1_555
N13 Rb13 3.177421 1_655
N14 Ru3 1.875818 1_545
N14 Ru14 1.882336 1_555
N14 Rb3 3.059366 1_545
N14 Rb7 3.072487 1_556
N14 Rb14 3.177421 1_555
N15 Ru2 1.875818 1_555
N15 Ru15 1.882336 1_555
N15 Rb2 3.059366 1_455
N15 Rb6 3.072487 1_554
N15 Rb15 3.177421 1_455
N16 Ru8 1.873174 1_555
N16 Ru0 1.878078 1_555
N16 Rb15 3.128719 1_555
N16 Rb8 3.134432 1_555
N16 Rb8 3.500687 1_655
N17 Ru9 1.873174 1_555
N17 Ru1 1.878078 1_555
N17 Rb14 3.128719 1_555
N17 Rb9 3.134432 1_455
N17 Rb9 3.500687 1_555
N18 Ru10 1.873174 1_555
N18 Ru2 1.878078 1_555
N18 Rb13 3.128719 1_555
N18 Rb10 3.134432 1_555
N18 Rb10 3.500687 1_455
N19 Ru11 1.873174 1_555
N19 Ru3 1.878078 1_555
N19 Rb12 3.128719 1_555
N19 Rb11 3.134432 1_655
N19 Rb11 3.500687 1_555
N20 Ru12 1.873174 1_555
N20 Ru4 1.878078 1_555
N20 Rb11 3.128719 1_555
N20 Rb12 3.134432 1_555
N20 Rb12 3.500687 1_455
N21 Ru13 1.873174 1_555
N21 Ru5 1.878078 1_555
N21 Rb10 3.128719 1_555
N21 Rb13 3.134432 1_655
N21 Rb13 3.500687 1_555
N22 Ru14 1.873174 1_555
N22 Ru6 1.878078 1_555
N22 Rb9 3.128719 1_555
N22 Rb14 3.134432 1_555
N22 Rb14 3.500687 1_655
N23 Ru15 1.873174 1_555
N23 Ru7 1.878078 1_555
N23 Rb8 3.128719 1_555
N23 Rb15 3.134432 1_455
N23 Rb15 3.500687 1_555
N24 Ru2 1.875638 1_555
N24 Ru5 1.876189 1_555
N24 Rb2 3.046184 1_555
N24 Rb15 3.268182 1_555
N24 Rb8 3.355753 1_555
N24 Rb10 3.385877 1_555
N25 Ru3 1.875638 1_445
N25 Ru4 1.876189 1_545
N25 Rb3 3.046184 1_545
N25 Rb14 3.268182 1_555
N25 Rb9 3.355753 1_455
N25 Rb11 3.385877 1_545
N26 Ru0 1.875638 1_565
N26 Ru7 1.876189 1_565
N26 Rb0 3.046184 1_565
N26 Rb13 3.268182 1_555
N26 Rb10 3.355753 1_555
N26 Rb8 3.385877 1_565
N27 Ru1 1.875638 1_655
N27 Ru6 1.876189 1_555
N27 Rb1 3.046184 1_555
N27 Rb12 3.268182 1_555
N27 Rb11 3.355753 1_655
N27 Rb9 3.385877 1_555
N28 Ru6 1.875638 1_555
N28 Ru1 1.876189 1_555
N28 Rb6 3.046184 1_555
N28 Rb11 3.268182 1_555
N28 Rb12 3.355753 1_555
N28 Rb14 3.385877 1_555
N29 Ru7 1.875638 1_665
N29 Ru0 1.876189 1_565
N29 Rb7 3.046184 1_565
N29 Rb10 3.268182 1_555
N29 Rb13 3.355753 1_655
N29 Rb15 3.385877 1_565
N30 Ru4 1.875638 1_545
N30 Ru3 1.876189 1_545
N30 Rb4 3.046184 1_545
N30 Rb9 3.268182 1_555
N30 Rb14 3.355753 1_555
N30 Rb12 3.385877 1_545
N31 Ru5 1.875638 1_455
N31 Ru2 1.876189 1_555
N31 Rb5 3.046184 1_555
N31 Rb8 3.268182 1_555
N31 Rb15 3.355753 1_455
N31 Rb13 3.385877 1_555
