# generated using pymatgen
data_Li9Mn2Co5O16
_symmetry_space_group_name_H-M   'P 1'
_cell_length_a   5.95028100
_cell_length_b   6.43543561
_cell_length_c   8.09922874
_cell_angle_alpha   89.05893503
_cell_angle_beta   89.26357396
_cell_angle_gamma   66.49508706
_symmetry_Int_Tables_number   1
_chemical_formula_structural   Li9Mn2Co5O16
_chemical_formula_sum   'Li9 Mn2 Co5 O16'
_cell_volume   284.36218316
_cell_formula_units_Z   1
loop_
 _symmetry_equiv_pos_site_id
 _symmetry_equiv_pos_as_xyz
  1  'x, y, z'
loop_
 _atom_site_type_symbol
 _atom_site_label
 _atom_site_symmetry_multiplicity
 _atom_site_fract_x
 _atom_site_fract_y
 _atom_site_fract_z
 _atom_site_occupancy
  Li  Li0  1  0.73518500  0.50918000  0.00017600  1
  Li  Li1  1  0.11472300  0.25983100  0.25928500  1
  Li  Li2  1  0.38678100  0.73973800  0.74120300  1
  Li  Li3  1  0.01973600  0.98751100  0.50000100  1
  Li  Li4  1  0.63067000  0.25795200  0.26202200  1
  Li  Li5  1  0.26537900  0.49161800  0.00118300  1
  Li  Li6  1  0.86807500  0.74217000  0.73718900  1
  Li  Li7  1  0.47959000  0.01311900  0.49943700  1
  Li  Li8  1  0.75117400  0.49825400  0.50028400  1
  Mn  Mn0  1  0.99858300  0.00163000  0.99863000  1
  Mn  Mn1  1  0.49970900  0.99974900  0.00105700  1
  Co  Co0  1  0.39055100  0.73885600  0.25208300  1
  Co  Co1  1  0.11210200  0.26050700  0.74720600  1
  Co  Co2  1  0.87553500  0.74499500  0.25297800  1
  Co  Co3  1  0.24930300  0.50084300  0.49962600  1
  Co  Co4  1  0.62043300  0.25632500  0.74736200  1
  O  O0  1  0.15732700  0.22324800  0.99068300  1
  O  O1  1  0.48760700  0.99182500  0.23981900  1
  O  O2  1  0.74224400  0.48168700  0.75223700  1
  O  O3  1  0.36866800  0.73528700  0.48562200  1
  O  O4  1  0.98889400  0.98775900  0.23901500  1
  O  O5  1  0.61471400  0.23961000  0.99018000  1
  O  O6  1  0.22866600  0.49566500  0.73763900  1
  O  O7  1  0.92214900  0.72083800  0.48492800  1
  O  O8  1  0.38343800  0.75805800  0.01203000  1
  O  O9  1  0.76511600  0.51313100  0.24916700  1
  O  O10  1  0.01241700  0.01031700  0.75832600  1
  O  O11  1  0.57859700  0.27848900  0.51526100  1
  O  O12  1  0.26807300  0.50663300  0.26182400  1
  O  O13  1  0.84097500  0.78097700  0.00819700  1
  O  O14  1  0.51064500  0.00986800  0.76181700  1
  O  O15  1  0.13294300  0.26432800  0.51353300  1
loop_
_geom_bond_atom_site_label_1
_geom_bond_atom_site_label_2
_geom_bond_distance
_geom_bond_site_symmetry_2
Li0 O2 2.017218 1_554
Li0 O9 2.028229 1_555
Li0 O8 2.069071 1_555
Li0 O13 2.083978 1_555
Li0 O5 2.127906 1_554
Li0 O0 2.452384 1_654
Li1 O15 2.064739 1_555
Li1 O9 2.070395 1_455
Li1 O12 2.124437 1_555
Li1 O4 2.170590 1_445
Li1 O0 2.192578 1_554
Li1 O1 2.206801 1_545
Li2 O3 2.075456 1_555
Li2 O2 2.106587 1_555
Li2 O6 2.129339 1_555
Li2 O14 2.151237 1_565
Li2 O8 2.197998 1_556
Li2 O10 2.217974 1_565
Li3 O7 2.025058 1_455
Li3 O3 2.066604 1_555
Li3 O10 2.098457 1_565
Li3 O4 2.124005 1_455
Li3 O15 2.145877 1_565
Li3 O11 2.547634 1_465
Li4 O11 2.068851 1_555
Li4 O9 2.094698 1_555
Li4 O12 2.112349 1_555
Li4 O4 2.155383 1_545
Li4 O1 2.206151 1_545
Li4 O5 2.212086 1_554
Li5 O5 2.066367 1_554
Li5 O0 2.072524 1_554
Li5 O8 2.099662 1_555
Li5 O12 2.115345 1_555
Li5 O6 2.147120 1_554
Li5 O13 2.469185 1_455
Li6 O7 2.062472 1_555
Li6 O2 2.092270 1_555
Li6 O6 2.098869 1_655
Li6 O14 2.146807 1_565
Li6 O13 2.209749 1_556
Li6 O10 2.222727 1_665
Li7 O11 2.022772 1_555
Li7 O15 2.054569 1_555
Li7 O1 2.108103 1_545
Li7 O14 2.134498 1_555
Li7 O3 2.143538 1_545
Li7 O7 2.556303 1_545
Li8 O9 2.036716 1_555
Li8 O2 2.042774 1_555
Li8 O11 2.054020 1_555
Li8 O7 2.062913 1_555
Li8 O15 2.170549 1_655
Li8 O3 2.180111 1_555
Mn0 O10 1.947787 1_655
Mn0 O4 1.948679 1_546
Mn0 O13 1.989633 1_546
Mn0 O0 2.000104 1_655
Mn0 O5 2.185792 1_555
Mn0 O8 2.202377 1_646
Mn1 O5 1.922324 1_564
Mn1 O1 1.934795 1_555
Mn1 O8 1.938557 1_555
Mn1 O14 1.938812 1_564
Mn1 O13 1.956753 1_555
Mn1 O0 1.972153 1_564
Co0 O3 1.894684 1_555
Co0 O12 1.906342 1_555
Co0 O1 1.933081 1_555
Co0 O8 1.946073 1_555
Co0 O9 2.120238 1_555
Co0 O4 2.288282 1_455
Co1 O15 1.895436 1_555
Co1 O6 1.899815 1_555
Co1 O10 1.925604 1_555
Co1 O0 1.991291 1_555
Co1 O2 2.090922 1_455
Co1 O14 2.277999 1_555
Co2 O9 1.855578 1_555
Co2 O7 1.897289 1_555
Co2 O4 1.934249 1_555
Co2 O13 1.995941 1_555
Co2 O1 2.222339 1_555
Co2 O12 2.226320 1_655
Co3 O7 1.900030 1_455
Co3 O3 1.908068 1_555
Co3 O15 1.908339 1_555
Co3 O11 1.914897 1_555
Co3 O12 1.928424 1_555
Co3 O6 1.930640 1_555
Co4 O2 1.863167 1_555
Co4 O11 1.894996 1_555
Co4 O14 1.942795 1_555
Co4 O5 1.968412 1_555
Co4 O6 2.224738 1_555
Co4 O10 2.238246 1_655
