# generated using pymatgen
data_CeNiSn2
_symmetry_space_group_name_H-M   'P 1'
_cell_length_a   9.41292040
_cell_length_b   9.41292040
_cell_length_c   4.50774467
_cell_angle_alpha   90.00000000
_cell_angle_beta   90.00000000
_cell_angle_gamma   152.55403509
_symmetry_Int_Tables_number   1
_chemical_formula_structural   CeNiSn2
_chemical_formula_sum   'Ce2 Ni2 Sn4'
_cell_volume   184.08821198
_cell_formula_units_Z   2
loop_
 _symmetry_equiv_pos_site_id
 _symmetry_equiv_pos_as_xyz
  1  'x, y, z'
loop_
 _atom_site_type_symbol
 _atom_site_label
 _atom_site_symmetry_multiplicity
 _atom_site_fract_x
 _atom_site_fract_y
 _atom_site_fract_z
 _atom_site_occupancy
  Ce  Ce0  1  0.61030512  0.38969488  0.25000000  1
  Ce  Ce1  1  0.38969657  0.61030343  0.75000000  1
  Ni  Ni0  1  0.81851450  0.18148550  0.25000000  1
  Ni  Ni1  1  0.18148029  0.81851971  0.75000000  1
  Sn  Sn0  1  0.95313032  0.04686968  0.25000000  1
  Sn  Sn1  1  0.04687215  0.95312785  0.75000000  1
  Sn  Sn2  1  0.24949513  0.75050487  0.25000000  1
  Sn  Sn3  1  0.75050590  0.24949410  0.75000000  1
loop_
_geom_bond_atom_site_label_1
_geom_bond_atom_site_label_2
_geom_bond_distance
_geom_bond_site_symmetry_2
Ce0 Sn1 3.378175 1_544
Ce0 Sn1 3.378175 1_545
Ce0 Sn1 3.378175 1_654
Ce0 Sn1 3.378175 1_655
Ce0 Sn2 3.386183 1_545
Ce0 Sn2 3.386183 1_655
Ce0 Sn3 3.413841 1_555
Ce0 Sn3 3.413841 1_554
Ce0 Ni1 3.429379 1_654
Ce0 Ni1 3.429379 1_655
Ce0 Ni1 3.429379 1_544
Ce0 Ni1 3.429379 1_545
Ce0 Sn0 3.639913 1_565
Ce0 Sn0 3.639913 1_455
Ce1 Sn0 3.378180 1_456
Ce1 Sn0 3.378180 1_565
Ce1 Sn0 3.378180 1_455
Ce1 Sn0 3.378180 1_566
Ce1 Sn3 3.386192 1_565
Ce1 Sn3 3.386192 1_455
Ce1 Sn2 3.413850 1_555
Ce1 Sn2 3.413850 1_556
Ce1 Ni0 3.429426 1_456
Ce1 Ni0 3.429426 1_566
Ce1 Ni0 3.429426 1_455
Ce1 Ni0 3.429426 1_565
Ce1 Sn1 3.639924 1_655
Ce1 Sn1 3.639924 1_545
Ni0 Sn0 2.461913 1_555
Ni0 Sn2 2.565075 1_655
Ni0 Sn2 2.565075 1_545
Ni0 Sn3 2.574278 1_555
Ni0 Sn3 2.574278 1_554
Ni1 Sn1 2.461773 1_555
Ni1 Sn3 2.565131 1_455
Ni1 Sn3 2.565131 1_565
Ni1 Sn2 2.574333 1_556
Ni1 Sn2 2.574333 1_555
Sn0 Sn1 2.831798 1_644
Sn0 Sn1 2.831798 1_645
