# generated using pymatgen
data_CrIn3
_symmetry_space_group_name_H-M   'P 1'
_cell_length_a   6.22535425
_cell_length_b   6.22535425
_cell_length_c   5.33915900
_cell_angle_alpha   90.00000000
_cell_angle_beta   90.00000000
_cell_angle_gamma   120.00000265
_symmetry_Int_Tables_number   1
_chemical_formula_structural   CrIn3
_chemical_formula_sum   'Cr2 In6'
_cell_volume   179.19736275
_cell_formula_units_Z   2
loop_
 _symmetry_equiv_pos_site_id
 _symmetry_equiv_pos_as_xyz
  1  'x, y, z'
loop_
 _atom_site_type_symbol
 _atom_site_label
 _atom_site_symmetry_multiplicity
 _atom_site_fract_x
 _atom_site_fract_y
 _atom_site_fract_z
 _atom_site_occupancy
  Cr  Cr0  1  0.33333300  0.66666700  0.75000000  1
  Cr  Cr1  1  0.66666700  0.33333300  0.25000000  1
  In  In0  1  0.17006300  0.34012600  0.25000000  1
  In  In1  1  0.65987400  0.82993700  0.25000000  1
  In  In2  1  0.17006300  0.82993700  0.25000000  1
  In  In3  1  0.82993700  0.65987400  0.75000000  1
  In  In4  1  0.34012600  0.17006300  0.75000000  1
  In  In5  1  0.82993700  0.17006300  0.75000000  1
loop_
_geom_bond_atom_site_label_1
_geom_bond_atom_site_label_2
_geom_bond_distance
_geom_bond_site_symmetry_2
Cr0 In3 3.112889 1_455
Cr0 In4 3.112889 1_565
Cr0 In5 3.112892 1_455
Cr0 In5 3.112892 1_565
Cr0 In4 3.112896 1_555
Cr0 In3 3.112896 1_555
Cr0 In2 3.197803 1_555
Cr0 In2 3.197803 1_556
Cr0 In0 3.197806 1_556
Cr0 In0 3.197806 1_555
Cr0 In1 3.197806 1_555
Cr0 In1 3.197806 1_556
Cr1 In1 3.112889 1_545
Cr1 In0 3.112889 1_655
Cr1 In2 3.112892 1_545
Cr1 In2 3.112892 1_655
Cr1 In1 3.112896 1_555
Cr1 In0 3.112896 1_555
Cr1 In5 3.197803 1_555
Cr1 In5 3.197803 1_554
Cr1 In4 3.197806 1_555
Cr1 In3 3.197806 1_554
Cr1 In3 3.197806 1_555
Cr1 In4 3.197806 1_554
In0 In1 3.049247 1_555
In0 In2 3.049247 1_555
In0 In1 3.176107 1_445
In0 In2 3.176107 1_545
In0 In5 3.238705 1_455
In0 In5 3.238705 1_454
In0 In4 3.238705 1_555
In0 In4 3.238705 1_554
In1 In2 3.049247 1_555
In1 In2 3.176107 1_655
In1 In5 3.238705 1_564
In1 In5 3.238705 1_565
In1 In3 3.238705 1_554
In1 In3 3.238705 1_555
In2 In3 3.238705 1_455
In2 In3 3.238705 1_454
In2 In4 3.238705 1_565
In2 In4 3.238705 1_564
In3 In4 3.049247 1_555
In3 In5 3.049247 1_555
In3 In4 3.176107 1_665
In3 In5 3.176107 1_565
In4 In5 3.049247 1_555
In4 In5 3.176107 1_455
