# generated using pymatgen
data_MgTi(Si2O5)2
_symmetry_space_group_name_H-M   'P 1'
_cell_length_a   7.33754600
_cell_length_b   7.33754600
_cell_length_c   15.02054500
_cell_angle_alpha   90.00000000
_cell_angle_beta   90.00000000
_cell_angle_gamma   90.00000000
_symmetry_Int_Tables_number   1
_chemical_formula_structural   MgTi(Si2O5)2
_chemical_formula_sum   'Mg4 Ti4 Si16 O40'
_cell_volume   808.69985373
_cell_formula_units_Z   4
loop_
 _symmetry_equiv_pos_site_id
 _symmetry_equiv_pos_as_xyz
  1  'x, y, z'
loop_
 _atom_site_type_symbol
 _atom_site_label
 _atom_site_symmetry_multiplicity
 _atom_site_fract_x
 _atom_site_fract_y
 _atom_site_fract_z
 _atom_site_occupancy
  Mg  Mg0  1  0.25000000  0.75000000  0.50000000  1
  Mg  Mg1  1  0.75000000  0.25000000  0.50000000  1
  Mg  Mg2  1  0.75000000  0.25000000  0.00000000  1
  Mg  Mg3  1  0.25000000  0.75000000  0.00000000  1
  Ti  Ti0  1  0.25000000  0.25000000  0.57029500  1
  Ti  Ti1  1  0.75000000  0.75000000  0.92970500  1
  Ti  Ti2  1  0.75000000  0.75000000  0.42970500  1
  Ti  Ti3  1  0.25000000  0.25000000  0.07029500  1
  Si  Si0  1  0.90931900  0.49033800  0.64595700  1
  Si  Si1  1  0.59068100  0.00966200  0.64595700  1
  Si  Si2  1  0.99033800  0.40931900  0.85404300  1
  Si  Si3  1  0.49033800  0.59068100  0.64595700  1
  Si  Si4  1  0.00966200  0.90931900  0.64595700  1
  Si  Si5  1  0.09068100  0.99033800  0.85404300  1
  Si  Si6  1  0.40931900  0.50966200  0.85404300  1
  Si  Si7  1  0.50966200  0.09068100  0.85404300  1
  Si  Si8  1  0.09068100  0.50966200  0.35404300  1
  Si  Si9  1  0.40931900  0.99033800  0.35404300  1
  Si  Si10  1  0.00966200  0.59068100  0.14595700  1
  Si  Si11  1  0.50966200  0.40931900  0.35404300  1
  Si  Si12  1  0.99033800  0.09068100  0.35404300  1
  Si  Si13  1  0.90931900  0.00966200  0.14595700  1
  Si  Si14  1  0.59068100  0.49033800  0.14595700  1
  Si  Si15  1  0.49033800  0.90931900  0.14595700  1
  O  O0  1  0.97959900  0.33820900  0.57534400  1
  O  O1  1  0.52040100  0.16179100  0.57534400  1
  O  O2  1  0.83820900  0.47959900  0.92465600  1
  O  O3  1  0.33820900  0.52040100  0.57534400  1
  O  O4  1  0.16179100  0.97959900  0.57534400  1
  O  O5  1  0.02040100  0.83820900  0.92465600  1
  O  O6  1  0.47959900  0.66179100  0.92465600  1
  O  O7  1  0.66179100  0.02040100  0.92465600  1
  O  O8  1  0.02040100  0.66179100  0.42465600  1
  O  O9  1  0.47959900  0.83820900  0.42465600  1
  O  O10  1  0.16179100  0.52040100  0.07534400  1
  O  O11  1  0.66179100  0.47959900  0.42465600  1
  O  O12  1  0.83820900  0.02040100  0.42465600  1
  O  O13  1  0.97959900  0.16179100  0.07534400  1
  O  O14  1  0.52040100  0.33820900  0.07534400  1
  O  O15  1  0.00020400  0.31049700  0.37364200  1
  O  O16  1  0.33820900  0.97959900  0.07534400  1
  O  O17  1  0.50020400  0.81049700  0.62635800  1
  O  O18  1  0.18950300  0.49979600  0.87364200  1
  O  O19  1  0.68950300  0.50020400  0.62635800  1
  O  O20  1  0.81049700  0.99979600  0.62635800  1
  O  O21  1  0.00020400  0.18950300  0.87364200  1
  O  O22  1  0.49979600  0.31049700  0.87364200  1
  O  O23  1  0.31049700  0.00020400  0.87364200  1
  O  O24  1  0.44045400  0.94045400  0.25000000  1
  O  O25  1  0.55954600  0.44045400  0.25000000  1
  O  O26  1  0.94045400  0.05954700  0.25000000  1
  O  O27  1  0.05954700  0.55954600  0.25000000  1
  O  O28  1  0.55954600  0.05954700  0.75000000  1
  O  O29  1  0.44045400  0.55954600  0.75000000  1
  O  O30  1  0.05954700  0.94045400  0.75000000  1
  O  O31  1  0.94045400  0.44045400  0.75000000  1
  O  O32  1  0.68950300  0.99979600  0.12635800  1
  O  O33  1  0.50020400  0.68950300  0.12635800  1
  O  O34  1  0.99979600  0.81049700  0.12635800  1
  O  O35  1  0.18950300  0.00020400  0.37364200  1
  O  O36  1  0.31049700  0.49979600  0.37364200  1
  O  O37  1  0.81049700  0.50020400  0.12635800  1
  O  O38  1  0.49979600  0.18950300  0.37364200  1
  O  O39  1  0.99979600  0.68950300  0.62635800  1
loop_
_geom_bond_atom_site_label_1
_geom_bond_atom_site_label_2
_geom_bond_distance
_geom_bond_site_symmetry_2
Mg0 O3 2.130228 1_555
Mg0 O4 2.130228 1_555
Mg0 O9 2.130228 1_555
Mg0 O8 2.130228 1_555
Mg1 O1 2.130228 1_555
Mg1 O0 2.130228 1_555
Mg1 O12 2.130228 1_555
Mg1 O11 2.130228 1_555
Mg2 O2 2.130228 1_554
Mg2 O7 2.130228 1_554
Mg2 O13 2.130228 1_555
Mg2 O14 2.130228 1_555
Mg3 O6 2.130228 1_554
Mg3 O5 2.130228 1_554
Mg3 O16 2.130228 1_555
Mg3 O10 2.130228 1_555
O0 Si0 1.623860 1_555
O0 Ti0 2.088358 1_655
O1 Si1 1.623860 1_555
O1 Ti0 2.088358 1_555
O2 Si2 1.623860 1_555
O2 Ti1 2.088358 1_555
O3 Si3 1.623860 1_555
O3 Ti0 2.088358 1_555
O4 Si4 1.623860 1_555
O4 Ti0 2.088358 1_565
O5 Si5 1.623860 1_555
O5 Ti1 2.088358 1_455
O6 Si6 1.623860 1_555
O6 Ti1 2.088358 1_555
O7 Si7 1.623860 1_555
O7 Ti1 2.088358 1_545
O8 Si8 1.623860 1_555
O8 Ti2 2.088358 1_455
O9 Si9 1.623860 1_555
O9 Ti2 2.088358 1_555
O10 Si10 1.623860 1_555
O10 Ti3 2.088358 1_555
O11 Si11 1.623860 1_555
O11 Ti2 2.088358 1_555
O12 Si12 1.623860 1_555
O12 Ti2 2.088358 1_545
O13 Si13 1.623860 1_555
O13 Ti3 2.088358 1_655
O14 Si14 1.623860 1_555
O14 Ti3 2.088358 1_555
O15 Si8 1.631882 1_555
O15 Si12 1.641153 1_455
O16 Si15 1.623860 1_555
O16 Ti3 2.088358 1_565
O17 Si1 1.631882 1_565
O17 Si3 1.641153 1_555
O18 Si2 1.631882 1_455
O18 Si6 1.641153 1_555
O19 Si3 1.631882 1_555
O19 Si0 1.641153 1_555
O20 Si4 1.631882 1_655
O20 Si1 1.641153 1_565
O21 Si5 1.631882 1_545
O21 Si2 1.641153 1_455
O22 Si6 1.631882 1_555
O22 Si7 1.641153 1_555
O23 Si7 1.631882 1_555
O23 Si5 1.641153 1_545
O24 Si15 1.621251 1_555
O24 Si9 1.621251 1_555
O25 Si14 1.621251 1_555
O25 Si11 1.621251 1_555
O26 Si12 1.621250 1_555
O26 Si13 1.621253 1_555
O27 Si8 1.621250 1_555
O27 Si10 1.621253 1_555
O28 Si7 1.621250 1_555
O28 Si1 1.621253 1_555
O29 Si6 1.621251 1_555
O29 Si3 1.621251 1_555
O30 Si5 1.621250 1_555
O30 Si4 1.621253 1_555
O31 Si0 1.621251 1_555
O31 Si2 1.621251 1_555
O32 Si15 1.631882 1_555
O32 Si13 1.641153 1_565
O33 Si14 1.631882 1_555
O33 Si15 1.641153 1_555
O34 Si13 1.631882 1_565
O34 Si10 1.641153 1_655
O35 Si12 1.631882 1_455
O35 Si9 1.641153 1_545
O36 Si11 1.631882 1_555
O36 Si8 1.641153 1_555
O37 Si10 1.631882 1_655
O37 Si14 1.641153 1_555
O38 Si9 1.631882 1_545
O38 Si11 1.641153 1_555
O39 Si0 1.631882 1_555
O39 Si4 1.641153 1_655
