# generated using pymatgen
data_Th2CuTc
_symmetry_space_group_name_H-M   'P 1'
_cell_length_a   5.05637776
_cell_length_b   5.05637776
_cell_length_c   5.05637776
_cell_angle_alpha   60.00000000
_cell_angle_beta   60.00000000
_cell_angle_gamma   60.00000000
_symmetry_Int_Tables_number   1
_chemical_formula_structural   Th2CuTc
_chemical_formula_sum   'Th2 Cu1 Tc1'
_cell_volume   91.41206898
_cell_formula_units_Z   1
loop_
 _symmetry_equiv_pos_site_id
 _symmetry_equiv_pos_as_xyz
  1  'x, y, z'
loop_
 _atom_site_type_symbol
 _atom_site_label
 _atom_site_symmetry_multiplicity
 _atom_site_fract_x
 _atom_site_fract_y
 _atom_site_fract_z
 _atom_site_occupancy
  Th  Th0  1  0.25000000  0.25000000  0.25000000  1
  Th  Th1  1  0.75000000  0.75000000  0.75000000  1
  Cu  Cu0  1  0.50000000  0.50000000  0.50000000  1
  Tc  Tc0  1  0.00000000  0.00000000  0.00000000  1
loop_
_geom_bond_atom_site_label_1
_geom_bond_atom_site_label_2
_geom_bond_distance
_geom_bond_site_symmetry_2
Cu0 Th0 3.096386 1_655
Cu0 Th1 3.096386 1_545
Cu0 Th0 3.096386 1_565
Cu0 Th1 3.096386 1_455
Cu0 Th1 3.096386 1_554
Cu0 Th0 3.096386 1_555
Cu0 Th0 3.096386 1_556
Cu0 Th1 3.096386 1_555
Tc0 Th0 3.096386 1_455
Tc0 Th1 3.096386 1_544
Tc0 Th1 3.096386 1_454
Tc0 Th0 3.096386 1_545
Tc0 Th0 3.096386 1_555
Tc0 Th1 3.096386 1_445
Tc0 Th1 3.096386 1_444
Tc0 Th0 3.096386 1_554
