# generated using pymatgen
data_Pr12Co6Pb
_symmetry_space_group_name_H-M   'P 1'
_cell_length_a   8.74516390
_cell_length_b   8.74516390
_cell_length_c   8.74516390
_cell_angle_alpha   109.47122063
_cell_angle_beta   109.47122063
_cell_angle_gamma   109.47122063
_symmetry_Int_Tables_number   1
_chemical_formula_structural   Pr12Co6Pb
_chemical_formula_sum   'Pr12 Co6 Pb1'
_cell_volume   514.85148393
_cell_formula_units_Z   1
loop_
 _symmetry_equiv_pos_site_id
 _symmetry_equiv_pos_as_xyz
  1  'x, y, z'
loop_
 _atom_site_type_symbol
 _atom_site_label
 _atom_site_symmetry_multiplicity
 _atom_site_fract_x
 _atom_site_fract_y
 _atom_site_fract_z
 _atom_site_occupancy
  Pr  Pr0  1  0.80605965  0.69216072  0.49822037  1
  Pr  Pr1  1  0.19394035  0.30783928  0.50177963  1
  Pr  Pr2  1  0.19394035  0.69216072  0.88610106  1
  Pr  Pr3  1  0.80605965  0.30783928  0.11389894  1
  Pr  Pr4  1  0.69216072  0.49822037  0.80605965  1
  Pr  Pr5  1  0.30783928  0.50177963  0.19394035  1
  Pr  Pr6  1  0.69216072  0.88610106  0.19394035  1
  Pr  Pr7  1  0.30783928  0.11389894  0.80605965  1
  Pr  Pr8  1  0.49822037  0.80605965  0.69216072  1
  Pr  Pr9  1  0.50177963  0.19394035  0.30783928  1
  Pr  Pr10  1  0.11389894  0.80605965  0.30783928  1
  Pr  Pr11  1  0.88610106  0.19394035  0.69216072  1
  Co  Co0  1  0.89235879  0.39235879  0.50000000  1
  Co  Co1  1  0.10764121  0.60764121  0.50000000  1
  Co  Co2  1  0.39235879  0.50000000  0.89235879  1
  Co  Co3  1  0.60764121  0.50000000  0.10764121  1
  Co  Co4  1  0.50000000  0.89235879  0.39235879  1
  Co  Co5  1  0.50000000  0.10764121  0.60764121  1
  Pb  Pb0  1  0.00000000  0.00000000  -0.00000000  1
loop_
_geom_bond_atom_site_label_1
_geom_bond_atom_site_label_2
_geom_bond_distance
_geom_bond_site_symmetry_2
Co0 Co1 2.173932 1_655
Co0 Pr9 2.789248 1_555
Co0 Pr11 2.789248 1_555
Co0 Pr3 2.963483 1_555
Co0 Pr2 2.963484 1_655
Co0 Pr1 2.963484 1_655
Co0 Pr0 2.963484 1_555
Co1 Pr8 2.789248 1_555
Co1 Pr10 2.789248 1_555
Co1 Pr2 2.963483 1_555
Co1 Pr3 2.963484 1_455
Co1 Pr0 2.963484 1_455
Co1 Pr1 2.963484 1_555
Co2 Co3 2.173932 1_556
Co2 Pr1 2.789248 1_555
Co2 Pr2 2.789248 1_555
Co2 Pr7 2.963483 1_555
Co2 Pr6 2.963484 1_556
Co2 Pr5 2.963484 1_556
Co2 Pr4 2.963484 1_555
Co3 Pr0 2.789248 1_555
Co3 Pr3 2.789248 1_555
Co3 Pr6 2.963483 1_555
Co3 Pr7 2.963484 1_554
Co3 Pr4 2.963484 1_554
Co3 Pr5 2.963484 1_555
Co4 Co5 2.173932 1_565
Co4 Pr5 2.789248 1_555
Co4 Pr6 2.789248 1_555
Co4 Pr10 2.963483 1_555
Co4 Pr11 2.963484 1_565
Co4 Pr9 2.963484 1_565
Co4 Pr8 2.963484 1_555
Co5 Pr4 2.789248 1_555
Co5 Pr7 2.789248 1_555
Co5 Pr11 2.963483 1_555
Co5 Pr10 2.963484 1_545
Co5 Pr8 2.963484 1_545
Co5 Pr9 2.963484 1_555
Pb0 Pr4 3.674050 1_444
Pb0 Pr8 3.674050 1_444
Pb0 Pr0 3.674050 1_444
Pb0 Pr5 3.674050 1_555
Pb0 Pr1 3.674050 1_555
Pb0 Pr9 3.674050 1_555
Pb0 Pr2 3.674050 1_544
Pb0 Pr3 3.674050 1_455
Pb0 Pr11 3.674050 1_454
Pb0 Pr6 3.674050 1_445
Pb0 Pr10 3.674050 1_545
Pb0 Pr7 3.674050 1_554
