# generated using pymatgen
data_LiNi9O13
_symmetry_space_group_name_H-M   'P 1'
_cell_length_a   2.88879513
_cell_length_b   5.18667436
_cell_length_c   16.17249807
_cell_angle_alpha   98.83317444
_cell_angle_beta   90.04291686
_cell_angle_gamma   106.16216132
_symmetry_Int_Tables_number   1
_chemical_formula_structural   LiNi9O13
_chemical_formula_sum   'Li1 Ni9 O13'
_cell_volume   229.73753380
_cell_formula_units_Z   1
loop_
 _symmetry_equiv_pos_site_id
 _symmetry_equiv_pos_as_xyz
  1  'x, y, z'
loop_
 _atom_site_type_symbol
 _atom_site_label
 _atom_site_symmetry_multiplicity
 _atom_site_fract_x
 _atom_site_fract_y
 _atom_site_fract_z
 _atom_site_occupancy
  Li  Li0  1  0.43337300  0.86545700  0.31542200  1
  Ni  Ni0  1  0.49435500  0.99219200  0.51630200  1
  Ni  Ni1  1  0.64497700  0.28638600  0.04197300  1
  Ni  Ni2  1  0.34660700  0.69045900  0.95189700  1
  Ni  Ni3  1  0.73759500  0.47957800  0.43514600  1
  Ni  Ni4  1  0.24923900  0.50055700  0.60690000  1
  Ni  Ni5  1  0.92305300  0.84198400  0.11731300  1
  Ni  Ni6  1  0.06001400  0.11690900  0.87833800  1
  Ni  Ni7  1  0.11399400  0.23065400  0.24045800  1
  Ni  Ni8  1  0.00386300  0.00861800  0.67770700  1
  O  O0  1  0.99624300  0.98739600  0.99368900  1
  O  O1  1  0.91405600  0.82708400  0.23595800  1
  O  O2  1  0.12159400  0.24373300  0.77664400  1
  O  O3  1  0.29300000  0.58236000  0.06523100  1
  O  O4  1  0.69211900  0.38530900  0.92457100  1
  O  O5  1  0.58459400  0.16875900  0.15403400  1
  O  O6  1  0.43474200  0.86268700  0.85152600  1
  O  O7  1  0.63930000  0.28240100  0.31755900  1
  O  O8  1  0.39575700  0.79168500  0.70720800  1
  O  O9  1  0.35672100  0.71817800  0.41569000  1
  O  O10  1  0.61116400  0.22434800  0.62831000  1
  O  O11  1  0.13306600  0.26998700  0.48385300  1
  O  O12  1  0.88307500  0.76827800  0.56843900  1
loop_
_geom_bond_atom_site_label_1
_geom_bond_atom_site_label_2
_geom_bond_distance
_geom_bond_site_symmetry_2
Li0 O9 1.883850 1_555
Li0 O1 1.922007 1_455
Li0 O1 1.922849 1_555
Li0 O7 2.071844 1_565
Ni0 O9 1.949305 1_555
Ni0 O10 1.986986 1_565
Ni0 O12 2.083090 1_455
Ni0 O12 2.084724 1_555
Ni0 O11 2.123500 1_565
Ni0 O11 2.123548 1_665
Ni1 O5 1.991957 1_555
Ni1 O4 2.036534 1_554
Ni1 O3 2.055273 1_555
Ni1 O3 2.055294 1_655
Ni1 O0 2.129484 1_444
Ni1 O0 2.132993 1_544
Ni2 O6 1.953730 1_555
Ni2 O3 1.991365 1_556
Ni2 O4 2.088497 1_555
Ni2 O4 2.095945 1_455
Ni2 O0 2.098170 1_455
Ni2 O0 2.102379 1_555
Ni3 O9 1.928098 1_655
Ni3 O9 1.928265 1_555
Ni3 O7 1.995779 1_555
Ni3 O11 2.014987 1_555
Ni3 O11 2.015049 1_655
Ni3 O12 2.392223 1_555
Ni4 O8 1.995423 1_555
Ni4 O10 2.061805 1_555
Ni4 O10 2.062301 1_455
Ni4 O12 2.125069 1_455
Ni4 O12 2.125843 1_555
Ni4 O11 2.132484 1_555
Ni5 O1 1.932068 1_555
Ni5 O3 2.029545 1_655
Ni5 O3 2.029878 1_555
Ni5 O5 2.182522 1_665
Ni5 O5 2.189877 1_565
Ni5 O0 2.232872 1_554
Ni6 O2 1.853846 1_555
Ni6 O6 1.920053 1_445
Ni6 O6 1.928268 1_545
Ni6 O4 2.023482 1_555
Ni6 O4 2.032651 1_455
Ni6 O0 2.069251 1_445
Ni7 O7 1.896651 1_555
Ni7 O7 1.900515 1_455
Ni7 O5 1.995274 1_455
Ni7 O1 2.000105 1_445
Ni7 O5 2.003188 1_555
Ni8 O2 1.825375 1_555
Ni8 O8 1.909275 1_445
Ni8 O8 1.910096 1_545
Ni8 O12 1.969478 1_445
Ni8 O10 2.037593 1_555
Ni8 O10 2.038855 1_455
