# generated using pymatgen
data_AsPRh4
_symmetry_space_group_name_H-M   'P 1'
_cell_length_a   6.87245539
_cell_length_b   6.87245539
_cell_length_c   6.87245551
_cell_angle_alpha   33.49186608
_cell_angle_beta   33.49186608
_cell_angle_gamma   33.49186106
_symmetry_Int_Tables_number   1
_chemical_formula_structural   AsPRh4
_chemical_formula_sum   'As1 P1 Rh4'
_cell_volume   88.02877473
_cell_formula_units_Z   1
loop_
 _symmetry_equiv_pos_site_id
 _symmetry_equiv_pos_as_xyz
  1  'x, y, z'
loop_
 _atom_site_type_symbol
 _atom_site_label
 _atom_site_symmetry_multiplicity
 _atom_site_fract_x
 _atom_site_fract_y
 _atom_site_fract_z
 _atom_site_occupancy
  As  As0  1  0.50000000  0.50000000  0.50000000  1
  P  P0  1  0.00000000  0.00000000  -0.00000000  1
  Rh  Rh0  1  0.62780276  0.62780276  0.62780276  1
  Rh  Rh1  1  0.12165766  0.12165766  0.12165766  1
  Rh  Rh2  1  0.87834234  0.87834234  0.87834234  1
  Rh  Rh3  1  0.37219724  0.37219724  0.37219724  1
loop_
_geom_bond_atom_site_label_1
_geom_bond_atom_site_label_2
_geom_bond_distance
_geom_bond_site_symmetry_2
As0 Rh2 2.448222 1_545
As0 Rh2 2.448222 1_455
As0 Rh1 2.448222 1_655
As0 Rh1 2.448222 1_565
As0 Rh2 2.448222 1_554
As0 Rh1 2.448222 1_556
As0 Rh3 2.484848 1_555
As0 Rh0 2.484848 1_555
P0 Rh1 2.365370 1_555
P0 Rh2 2.365370 1_444
P0 Rh3 2.408102 1_545
P0 Rh0 2.408102 1_454
P0 Rh0 2.408102 1_544
P0 Rh3 2.408102 1_455
P0 Rh0 2.408102 1_445
P0 Rh3 2.408102 1_554
