# generated using pymatgen
data_CrCu(WO4)2
_symmetry_space_group_name_H-M   'P 1'
_cell_length_a   5.04665985
_cell_length_b   7.42814845
_cell_length_c   7.42902523
_cell_angle_alpha   101.61225490
_cell_angle_beta   90.52997260
_cell_angle_gamma   90.53709245
_symmetry_Int_Tables_number   1
_chemical_formula_structural   CrCu(WO4)2
_chemical_formula_sum   'Cr2 Cu2 W4 O16'
_cell_volume   272.76460449
_cell_formula_units_Z   2
loop_
 _symmetry_equiv_pos_site_id
 _symmetry_equiv_pos_as_xyz
  1  'x, y, z'
loop_
 _atom_site_type_symbol
 _atom_site_label
 _atom_site_symmetry_multiplicity
 _atom_site_fract_x
 _atom_site_fract_y
 _atom_site_fract_z
 _atom_site_occupancy
  Cr  Cr0  1  0.75045300  0.82405300  0.17600000  1
  Cr  Cr1  1  0.24985800  0.17603500  0.82422500  1
  Cu  Cu0  1  0.74877500  0.33629200  0.66366500  1
  Cu  Cu1  1  0.25007500  0.66419800  0.33635300  1
  W  W0  1  0.24481800  0.66512700  0.83704900  1
  W  W1  1  0.74475400  0.83702300  0.66524900  1
  W  W2  1  0.75524400  0.33478200  0.16296000  1
  W  W3  1  0.25532000  0.16304400  0.33478400  1
  O  O0  1  0.41472700  0.70145300  0.06374400  1
  O  O1  1  0.58546000  0.29847400  0.93618000  1
  O  O2  1  0.08565700  0.93623700  0.29856100  1
  O  O3  1  0.91454400  0.06370600  0.70144800  1
  O  O4  1  0.91954900  0.80352300  0.92378600  1
  O  O5  1  0.08052500  0.19635900  0.07621000  1
  O  O6  1  0.58064600  0.07621800  0.19645300  1
  O  O7  1  0.41944800  0.92374700  0.80352500  1
  O  O8  1  0.89067600  0.57111400  0.18415500  1
  O  O9  1  0.10930800  0.42879900  0.81574700  1
  O  O10  1  0.60965400  0.81573600  0.42880800  1
  O  O11  1  0.39049100  0.18421400  0.57118600  1
  O  O12  1  0.56055600  0.59448200  0.69422200  1
  O  O13  1  0.43945300  0.40548300  0.30567700  1
  O  O14  1  0.93942500  0.30572600  0.40551700  1
  O  O15  1  0.06058300  0.69417900  0.59449500  1
loop_
_geom_bond_atom_site_label_1
_geom_bond_atom_site_label_2
_geom_bond_distance
_geom_bond_site_symmetry_2
Cr0 O2 2.006188 1_655
Cr0 O0 2.008646 1_555
Cr0 O8 2.025970 1_555
Cr0 O10 2.026479 1_555
Cr0 O4 2.044322 1_554
Cr0 O6 2.045474 1_565
Cr1 O1 2.006984 1_555
Cr1 O3 2.007574 1_455
Cr1 O9 2.025857 1_555
Cr1 O11 2.027567 1_555
Cr1 O5 2.043455 1_556
Cr1 O7 2.045638 1_545
Cu0 O12 2.120121 1_555
Cu0 O14 2.125588 1_555
Cu0 O11 2.154943 1_555
Cu0 O9 2.164532 1_655
Cu0 O1 2.261057 1_555
Cu0 O3 2.265992 1_555
Cu1 O15 2.123166 1_555
Cu1 O13 2.126197 1_555
Cu1 O10 2.158536 1_555
Cu1 O8 2.161040 1_455
Cu1 O2 2.259705 1_555
Cu1 O0 2.262964 1_555
O0 W0 1.852119 1_554
O1 W2 1.852392 1_556
O2 W3 1.852061 1_565
O3 W1 1.851551 1_545
O4 W0 1.987756 1_655
O4 W1 2.166625 1_555
O5 W2 1.987921 1_455
O5 W3 2.166466 1_555
O6 W3 1.987924 1_555
O6 W2 2.166087 1_555
O7 W1 1.987479 1_555
O7 W0 2.166597 1_555
O8 W2 1.854180 1_555
O9 W0 1.854208 1_555
O10 W1 1.854522 1_555
O11 W3 1.854477 1_555
O12 W0 1.939852 1_555
O12 W1 2.069963 1_555
O13 W2 1.939735 1_555
O13 W3 2.069428 1_555
O14 W3 1.940083 1_655
O14 W2 2.070499 1_555
O15 W1 1.940435 1_455
O15 W0 2.070591 1_555
