# generated using pymatgen
data_BaY2NiO5
_symmetry_space_group_name_H-M   'P 1'
_cell_length_a   3.80304591
_cell_length_b   5.81773960
_cell_length_c   6.70056399
_cell_angle_alpha   115.72951023
_cell_angle_beta   106.48626614
_cell_angle_gamma   90.00000003
_symmetry_Int_Tables_number   1
_chemical_formula_structural   BaY2NiO5
_chemical_formula_sum   'Ba1 Y2 Ni1 O5'
_cell_volume   126.75256459
_cell_formula_units_Z   1
loop_
 _symmetry_equiv_pos_site_id
 _symmetry_equiv_pos_as_xyz
  1  'x, y, z'
loop_
 _atom_site_type_symbol
 _atom_site_label
 _atom_site_symmetry_multiplicity
 _atom_site_fract_x
 _atom_site_fract_y
 _atom_site_fract_z
 _atom_site_occupancy
  O  O0  1  0.35063049  0.11007699  0.70126141  1
  O  O1  1  0.64937009  0.88992403  0.29873939  1
  O  O2  1  0.64936881  0.40881542  0.29873881  1
  O  O3  1  0.35063137  0.59118366  0.70125970  1
  O  O4  1  0.00000022  0.49999974  0.99999980  1
  Ni  Ni0  1  0.50000120  0.49999974  0.00000077  1
  Y  Y0  1  0.79666966  0.29667047  0.59334038  1
  Y  Y1  1  0.20333092  0.70333054  0.40666042  1
  Ba  Ba0  1  0.00000000  0.00000000  0.00000000  1
loop_
_geom_bond_atom_site_label_1
_geom_bond_atom_site_label_2
_geom_bond_distance
_geom_bond_site_symmetry_2
O0 Y1 2.264225 1_545
O0 Y0 2.440612 1_555
O0 Y0 2.440614 1_455
O1 Y0 2.264225 1_565
O1 Y1 2.440612 1_555
O1 Y1 2.440614 1_655
O2 Y0 2.264227 1_555
O2 Y1 2.440611 1_555
O2 Y1 2.440619 1_655
O3 Y1 2.264220 1_555
O3 Y0 2.440603 1_555
O3 Y0 2.440615 1_455
O4 Y0 2.329709 1_455
O4 Y1 2.329716 1_556
Ni0 O4 1.901521 1_654
Ni0 O4 1.901525 1_554
Ni0 O2 2.210782 1_555
Ni0 O0 2.210787 1_554
Ni0 O1 2.210791 1_555
Ni0 O3 2.210800 1_554
Ba0 O4 2.908869 1_554
Ba0 O4 2.908871 1_544
Ba0 O2 2.970366 1_555
Ba0 O0 2.970367 1_554
Ba0 O1 2.970368 1_445
Ba0 O0 2.970368 1_454
Ba0 O2 2.970369 1_455
Ba0 O3 2.970369 1_444
Ba0 O1 2.970370 1_545
Ba0 O3 2.970377 1_544
