# generated using pymatgen
data_PrAlGe
_symmetry_space_group_name_H-M   'P 1'
_cell_length_a   4.30094777
_cell_length_b   4.30094851
_cell_length_c   7.94912357
_cell_angle_alpha   105.69577861
_cell_angle_beta   105.69578411
_cell_angle_gamma   90.00001068
_symmetry_Int_Tables_number   1
_chemical_formula_structural   PrAlGe
_chemical_formula_sum   'Pr2 Al2 Ge2'
_cell_volume   135.85694853
_cell_formula_units_Z   2
loop_
 _symmetry_equiv_pos_site_id
 _symmetry_equiv_pos_as_xyz
  1  'x, y, z'
loop_
 _atom_site_type_symbol
 _atom_site_label
 _atom_site_symmetry_multiplicity
 _atom_site_fract_x
 _atom_site_fract_y
 _atom_site_fract_z
 _atom_site_occupancy
  Pr  Pr0  1  0.33340632  0.83340632  0.66681464  1
  Pr  Pr1  1  0.58340632  0.58340632  0.16681464  1
  Al  Al0  1  0.91721200  0.41721200  0.83442501  1
  Al  Al1  1  0.16721200  0.16721200  0.33442501  1
  Ge  Ge0  1  0.00087968  0.00087968  0.00176036  1
  Ge  Ge1  1  0.75087968  0.25087968  0.50176036  1
loop_
_geom_bond_atom_site_label_1
_geom_bond_atom_site_label_2
_geom_bond_distance
_geom_bond_site_symmetry_2
Al0 Ge1 2.443206 1_555
Al0 Ge0 2.476874 1_656
Al0 Ge0 2.476874 1_666
Al0 Pr1 3.253294 1_656
Al0 Pr1 3.253296 1_556
Al0 Pr0 3.280913 1_655
Al0 Pr0 3.280917 1_555
Al0 Pr0 3.280917 1_645
Al0 Pr0 3.280919 1_545
Al1 Ge0 2.443206 1_555
Al1 Ge1 2.476874 1_455
Al1 Ge1 2.476874 1_555
Al1 Pr0 3.253294 1_555
Al1 Pr0 3.253296 1_545
Al1 Pr1 3.280913 1_555
Al1 Pr1 3.280917 1_455
Al1 Pr1 3.280917 1_545
Al1 Pr1 3.280919 1_445
Ge0 Pr0 3.267404 1_544
Ge0 Pr0 3.267407 1_444
Ge0 Pr1 3.273916 1_555
Ge0 Pr1 3.273919 1_545
Ge0 Pr1 3.273920 1_455
Ge0 Pr1 3.273922 1_445
Ge1 Pr1 3.267404 1_555
Ge1 Pr1 3.267407 1_545
Ge1 Pr0 3.273916 1_655
Ge1 Pr0 3.273919 1_645
Ge1 Pr0 3.273920 1_555
Ge1 Pr0 3.273922 1_545
