# generated using pymatgen
data_Mg14CoNi
_symmetry_space_group_name_H-M   'P 1'
_cell_length_a   6.19547678
_cell_length_b   6.19547678
_cell_length_c   9.59758500
_cell_angle_alpha   90.00000000
_cell_angle_beta   90.00000000
_cell_angle_gamma   118.30920999
_symmetry_Int_Tables_number   1
_chemical_formula_structural   Mg14CoNi
_chemical_formula_sum   'Mg14 Co1 Ni1'
_cell_volume   324.33366409
_cell_formula_units_Z   1
loop_
 _symmetry_equiv_pos_site_id
 _symmetry_equiv_pos_as_xyz
  1  'x, y, z'
loop_
 _atom_site_type_symbol
 _atom_site_label
 _atom_site_symmetry_multiplicity
 _atom_site_fract_x
 _atom_site_fract_y
 _atom_site_fract_z
 _atom_site_occupancy
  Mg  Mg0  1  0.66215900  0.33784100  0.50000000  1
  Mg  Mg1  1  0.16198000  0.83802000  0.50000000  1
  Mg  Mg2  1  0.63812000  0.86441600  0.00000000  1
  Mg  Mg3  1  0.66874100  0.83278800  0.50000000  1
  Mg  Mg4  1  0.13558400  0.36188000  0.00000000  1
  Mg  Mg5  1  0.16721200  0.33125900  0.50000000  1
  Mg  Mg6  1  0.84389600  0.65434000  0.21080700  1
  Mg  Mg7  1  0.84389600  0.65434000  0.78919300  1
  Mg  Mg8  1  0.34566000  0.15610400  0.21080700  1
  Mg  Mg9  1  0.34566000  0.15610400  0.78919300  1
  Mg  Mg10  1  0.83177100  0.16822900  0.24706800  1
  Mg  Mg11  1  0.83177100  0.16822900  0.75293200  1
  Mg  Mg12  1  0.33271000  0.66729000  0.24784900  1
  Mg  Mg13  1  0.33271000  0.66729000  0.75215100  1
  Co  Co0  1  0.67878900  0.32121100  0.00000000  1
  Ni  Ni0  1  0.17934800  0.82065200  0.00000000  1
loop_
_geom_bond_atom_site_label_1
_geom_bond_atom_site_label_2
_geom_bond_distance
_geom_bond_site_symmetry_2
Mg0 Mg10 3.024687 1_555
Mg0 Mg11 3.024687 1_555
Mg0 Mg3 3.047306 1_555
Mg0 Mg5 3.047306 1_555
Mg0 Mg5 3.148587 1_655
Mg0 Mg3 3.148587 1_545
Mg0 Mg1 3.176566 1_655
Mg0 Mg1 3.176566 1_545
Mg0 Mg7 3.274508 1_555
Mg0 Mg8 3.274508 1_555
Mg0 Mg9 3.274508 1_555
Mg0 Mg6 3.274508 1_555
Mg1 Mg13 3.025799 1_555
Mg1 Mg12 3.025799 1_555
Mg1 Mg3 3.040613 1_455
Mg1 Mg5 3.040613 1_565
Mg1 Mg5 3.155127 1_555
Mg1 Mg3 3.155127 1_555
Mg1 Mg6 3.279524 1_455
Mg1 Mg9 3.279524 1_565
Mg1 Mg7 3.279524 1_455
Mg1 Mg8 3.279524 1_565
Mg2 Ni0 2.724208 1_555
Mg3 Mg5 3.166851 1_665
Mg3 Mg5 3.186279 1_555
Mg3 Mg7 3.352831 1_555
Mg3 Mg6 3.352831 1_555
Mg4 Ni0 2.724208 1_555
Mg5 Mg9 3.352831 1_555
Mg5 Mg8 3.352831 1_555
Mg6 Ni0 2.728258 1_655
Mg7 Ni0 2.728258 1_656
Mg8 Ni0 2.728258 1_545
Mg9 Ni0 2.728258 1_546
Mg10 Mg5 3.039935 1_655
Mg10 Mg3 3.039935 1_545
Mg11 Mg5 3.039935 1_655
Mg11 Mg3 3.039935 1_545
Mg12 Ni0 2.884491 1_555
Mg12 Mg3 3.036034 1_555
Mg12 Mg5 3.036034 1_555
Mg13 Ni0 2.884491 1_556
Mg13 Mg3 3.036034 1_555
Mg13 Mg5 3.036034 1_555
Co0 Mg4 2.719636 1_655
Co0 Mg2 2.719636 1_545
Co0 Mg9 2.719766 1_554
Co0 Mg7 2.719766 1_554
Co0 Mg8 2.719766 1_555
Co0 Mg6 2.719766 1_555
Co0 Mg11 2.876023 1_554
Co0 Mg10 2.876023 1_555
