# generated using pymatgen
data_TmRe2
_symmetry_space_group_name_H-M   'P 1'
_cell_length_a   5.40472016
_cell_length_b   5.40472016
_cell_length_c   8.76124700
_cell_angle_alpha   90.00000000
_cell_angle_beta   90.00000000
_cell_angle_gamma   120.00000190
_symmetry_Int_Tables_number   1
_chemical_formula_structural   TmRe2
_chemical_formula_sum   'Tm4 Re8'
_cell_volume   221.63736168
_cell_formula_units_Z   4
loop_
 _symmetry_equiv_pos_site_id
 _symmetry_equiv_pos_as_xyz
  1  'x, y, z'
loop_
 _atom_site_type_symbol
 _atom_site_label
 _atom_site_symmetry_multiplicity
 _atom_site_fract_x
 _atom_site_fract_y
 _atom_site_fract_z
 _atom_site_occupancy
  Tm  Tm0  1  0.66666700  0.33333400  0.56294700  1
  Tm  Tm1  1  0.33333300  0.66666600  0.43705300  1
  Tm  Tm2  1  0.33333300  0.66666600  0.06294700  1
  Tm  Tm3  1  0.66666700  0.33333400  0.93705300  1
  Re  Re0  1  0.00000000  0.00000000  0.50000000  1
  Re  Re1  1  0.00000000  0.00000000  0.00000000  1
  Re  Re2  1  0.17185600  0.34371200  0.75000000  1
  Re  Re3  1  0.17185600  0.82814300  0.75000000  1
  Re  Re4  1  0.65628700  0.82814300  0.75000000  1
  Re  Re5  1  0.82814400  0.65628800  0.25000000  1
  Re  Re6  1  0.82814400  0.17185700  0.25000000  1
  Re  Re7  1  0.34371300  0.17185700  0.25000000  1
loop_
_geom_bond_atom_site_label_1
_geom_bond_atom_site_label_2
_geom_bond_distance
_geom_bond_site_symmetry_2
Re0 Re5 2.717657 1_445
Re0 Re2 2.717657 1_555
Re0 Re7 2.717660 1_555
Re0 Re4 2.717660 1_445
Re0 Re3 2.717660 1_545
Re0 Re6 2.717660 1_455
Re0 Tm0 3.168774 1_445
Re0 Tm1 3.168774 1_555
Re0 Tm1 3.168778 1_445
Re0 Tm0 3.168778 1_555
Re0 Tm1 3.168778 1_545
Re0 Tm0 3.168778 1_455
Re1 Re5 2.717657 1_445
Re1 Re2 2.717657 1_554
Re1 Re4 2.717660 1_444
Re1 Re7 2.717660 1_555
Re1 Re3 2.717660 1_544
Re1 Re6 2.717660 1_455
Re1 Tm3 3.168774 1_444
Re1 Tm2 3.168774 1_555
Re1 Tm2 3.168778 1_445
Re1 Tm3 3.168778 1_554
Re1 Tm3 3.168778 1_454
Re1 Tm2 3.168778 1_545
Re2 Re4 2.618214 1_555
Re2 Re3 2.618214 1_555
Re2 Re4 2.786506 1_445
Re2 Re3 2.786506 1_545
Re2 Tm1 3.130897 1_555
Re2 Tm2 3.130897 1_556
Re2 Tm3 3.160828 1_455
Re2 Tm0 3.160828 1_455
Re2 Tm0 3.160828 1_555
Re2 Tm3 3.160828 1_555
Re3 Re4 2.618214 1_555
Re3 Re4 2.786506 1_455
Re3 Tm1 3.130897 1_555
Re3 Tm2 3.130897 1_556
Re3 Tm0 3.160823 1_455
Re3 Tm3 3.160823 1_455
Re3 Tm3 3.160833 1_565
Re3 Tm0 3.160833 1_565
Re4 Tm1 3.130897 1_555
Re4 Tm2 3.130897 1_556
Re4 Tm3 3.160823 1_555
Re4 Tm0 3.160823 1_555
Re4 Tm3 3.160833 1_565
Re4 Tm0 3.160833 1_565
Re5 Re7 2.618214 1_555
Re5 Re6 2.618214 1_555
Re5 Re7 2.786506 1_665
Re5 Re6 2.786506 1_565
Re5 Tm3 3.130897 1_554
Re5 Tm0 3.130897 1_555
Re5 Tm1 3.160828 1_655
Re5 Tm2 3.160828 1_655
Re5 Tm1 3.160828 1_555
Re5 Tm2 3.160828 1_555
Re6 Re7 2.618214 1_555
Re6 Re7 2.786506 1_655
Re6 Tm3 3.130897 1_554
Re6 Tm0 3.130897 1_555
Re6 Tm2 3.160823 1_655
Re6 Tm1 3.160823 1_655
Re6 Tm2 3.160833 1_545
Re6 Tm1 3.160833 1_545
Re7 Tm0 3.130897 1_555
Re7 Tm3 3.130897 1_554
Re7 Tm1 3.160823 1_555
Re7 Tm2 3.160823 1_555
Re7 Tm2 3.160833 1_545
Re7 Tm1 3.160833 1_545
