# generated using pymatgen
data_Yb3Mg
_symmetry_space_group_name_H-M   'P 1'
_cell_length_a   6.86151461
_cell_length_b   6.86151461
_cell_length_c   5.49347541
_cell_angle_alpha   90.00000000
_cell_angle_beta   90.00000000
_cell_angle_gamma   120.00000265
_symmetry_Int_Tables_number   1
_chemical_formula_structural   Yb3Mg
_chemical_formula_sum   'Yb6 Mg2'
_cell_volume   223.98440913
_cell_formula_units_Z   2
loop_
 _symmetry_equiv_pos_site_id
 _symmetry_equiv_pos_as_xyz
  1  'x, y, z'
loop_
 _atom_site_type_symbol
 _atom_site_label
 _atom_site_symmetry_multiplicity
 _atom_site_fract_x
 _atom_site_fract_y
 _atom_site_fract_z
 _atom_site_occupancy
  Yb  Yb0  1  0.16905235  0.33810469  0.25000000  1
  Yb  Yb1  1  0.16905235  0.83094765  0.25000000  1
  Yb  Yb2  1  0.66189531  0.83094765  0.25000000  1
  Yb  Yb3  1  0.33810469  0.16905235  0.75000000  1
  Yb  Yb4  1  0.83094765  0.16905235  0.75000000  1
  Yb  Yb5  1  0.83094765  0.66189531  0.75000000  1
  Mg  Mg0  1  0.66666700  0.33333300  0.25000000  1
  Mg  Mg1  1  0.33333300  0.66666700  0.75000000  1
loop_
_geom_bond_atom_site_label_1
_geom_bond_atom_site_label_2
_geom_bond_distance
_geom_bond_site_symmetry_2
Yb0 Yb2 3.381649 1_555
Yb0 Yb1 3.381649 1_555
Yb0 Yb4 3.403095 1_455
Yb0 Yb4 3.403095 1_454
Yb0 Yb3 3.403095 1_555
Yb0 Yb3 3.403095 1_554
Yb0 Yb2 3.479865 1_445
Yb0 Yb1 3.479865 1_545
Yb1 Yb2 3.381649 1_555
Yb1 Yb5 3.403095 1_454
Yb1 Yb3 3.403095 1_564
Yb1 Yb3 3.403095 1_565
Yb1 Yb5 3.403095 1_455
Yb1 Yb2 3.479865 1_455
Yb2 Yb4 3.403095 1_565
Yb2 Yb4 3.403095 1_564
Yb2 Yb5 3.403095 1_555
Yb2 Yb5 3.403095 1_554
Yb3 Yb5 3.381649 1_555
Yb3 Yb4 3.381649 1_555
Yb3 Yb5 3.479865 1_445
Yb3 Yb4 3.479865 1_455
Yb4 Yb5 3.381649 1_555
Yb4 Yb5 3.479865 1_545
Mg0 Yb4 3.369926 1_554
Mg0 Yb4 3.369926 1_555
Mg0 Yb3 3.369930 1_554
Mg0 Yb3 3.369930 1_555
Mg0 Yb5 3.369930 1_554
Mg0 Yb5 3.369930 1_555
Mg0 Yb2 3.430871 1_545
Mg0 Yb0 3.430871 1_655
Mg0 Yb1 3.430874 1_545
Mg0 Yb1 3.430874 1_655
Mg0 Yb2 3.430878 1_555
Mg0 Yb0 3.430878 1_555
Mg1 Yb1 3.369926 1_556
Mg1 Yb1 3.369926 1_555
Mg1 Yb0 3.369930 1_555
Mg1 Yb0 3.369930 1_556
Mg1 Yb2 3.369930 1_556
Mg1 Yb2 3.369930 1_555
Mg1 Yb5 3.430871 1_455
Mg1 Yb3 3.430871 1_565
Mg1 Yb4 3.430874 1_455
Mg1 Yb4 3.430874 1_565
Mg1 Yb3 3.430878 1_555
Mg1 Yb5 3.430878 1_555
