# generated using pymatgen
data_CeSe2
_symmetry_space_group_name_H-M   'P 1'
_cell_length_a   14.73350470
_cell_length_b   14.88939365
_cell_length_c   17.29485657
_cell_angle_alpha   63.93557709
_cell_angle_beta   65.32858210
_cell_angle_gamma   90.00994588
_symmetry_Int_Tables_number   1
_chemical_formula_structural   CeSe2
_chemical_formula_sum   'Ce16 Se32'
_cell_volume   3017.73015933
_cell_formula_units_Z   16
loop_
 _symmetry_equiv_pos_site_id
 _symmetry_equiv_pos_as_xyz
  1  'x, y, z'
loop_
 _atom_site_type_symbol
 _atom_site_label
 _atom_site_symmetry_multiplicity
 _atom_site_fract_x
 _atom_site_fract_y
 _atom_site_fract_z
 _atom_site_occupancy
  Ce  Ce0  1  0.70448673  0.63164986  0.68776121  1
  Ce  Ce1  1  0.89299612  0.86825498  0.31328538  1
  Ce  Ce2  1  0.79531790  0.31785034  0.31294327  1
  Ce  Ce3  1  0.60756662  0.18197507  0.68673399  1
  Ce  Ce4  1  0.29539327  0.36857014  0.31247879  1
  Ce  Ce5  1  0.10688388  0.13196502  0.68695462  1
  Ce  Ce6  1  0.20456210  0.68236966  0.68729673  1
  Ce  Ce7  1  0.39231338  0.81824493  0.31350601  1
  Ce  Ce8  1  0.31912852  0.89154487  0.81212288  1
  Ce  Ce9  1  0.63002550  0.60904613  0.18729654  1
  Ce  Ce10  1  0.18168486  0.70537721  0.18695088  1
  Ce  Ce11  1  0.86844416  0.79541924  0.81345455  1
  Ce  Ce12  1  0.68075148  0.10867513  0.18811712  1
  Ce  Ce13  1  0.36985450  0.39117387  0.81294346  1
  Ce  Ce14  1  0.81819514  0.29484279  0.81328912  1
  Ce  Ce15  1  0.13143584  0.20480076  0.18678545  1
  Se  Se0  1  0.73693384  0.76235199  0.75014416  1
  Se  Se1  1  0.98703432  0.73773802  0.24991329  1
  Se  Se2  1  0.76327184  0.51280818  0.25014363  1
  Se  Se3  1  0.51278920  0.98756924  0.75044251  1
  Se  Se4  1  0.26294616  0.23786801  0.25009584  1
  Se  Se5  1  0.01284568  0.26248198  0.75032671  1
  Se  Se6  1  0.23660816  0.48741182  0.75009637  1
  Se  Se7  1  0.48709080  0.01265076  0.24979749  1
  Se  Se8  1  0.83184924  0.49711923  0.69686374  1
  Se  Se9  1  0.02880889  0.00337873  0.30273157  1
  Se  Se10  1  0.66906757  0.19419387  0.30252605  1
  Se  Se11  1  0.47083813  0.30649833  0.69788786  1
  Se  Se12  1  0.16803076  0.50310077  0.30337626  1
  Se  Se13  1  0.97107111  0.99684127  0.69750843  1
  Se  Se14  1  0.33081243  0.80602613  0.69771395  1
  Se  Se15  1  0.52904187  0.69372167  0.30235214  1
  Se  Se16  1  0.19382966  0.02805955  0.80319381  1
  Se  Se17  1  0.49626843  0.47217722  0.19758451  1
  Se  Se18  1  0.30590226  0.83093599  0.19738157  1
  Se  Se19  1  0.00383188  0.66950569  0.80265965  1
  Se  Se20  1  0.80605034  0.97216045  0.19704619  1
  Se  Se21  1  0.50361157  0.52804278  0.80265549  1
  Se  Se22  1  0.69397774  0.16928401  0.80285843  1
  Se  Se23  1  0.99604812  0.33071431  0.19758035  1
  Se  Se24  1  0.74150525  0.75048155  0.49949492  1
  Se  Se25  1  0.75776578  0.24979609  0.50038405  1
  Se  Se26  1  0.25837475  0.24973845  0.50074508  1
  Se  Se27  1  0.24211422  0.75042391  0.49985595  1
  Se  Se28  1  0.24966806  0.74094869  0.00060481  1
  Se  Se29  1  0.75010584  0.75878087  0.99962972  1
  Se  Se30  1  0.75021194  0.25927131  0.99963519  1
  Se  Se31  1  0.24977416  0.24143913  0.00061028  1
loop_
_geom_bond_atom_site_label_1
_geom_bond_atom_site_label_2
_geom_bond_distance
_geom_bond_site_symmetry_2
Ce0 Se0 2.730408 1_555
Ce0 Se21 2.735426 1_555
Ce0 Se24 2.735752 1_555
Ce0 Se8 2.743932 1_555
Ce1 Se9 2.730583 1_665
Ce1 Se24 2.731924 1_555
Ce1 Se20 2.737417 1_555
Ce1 Se1 2.739026 1_555
Ce2 Se10 2.729918 1_555
Ce2 Se25 2.730890 1_555
Ce2 Se2 2.736217 1_555
Ce2 Se23 2.738969 1_555
Ce3 Se3 2.730211 1_545
Ce3 Se25 2.736628 1_555
Ce3 Se22 2.737016 1_555
Ce3 Se11 2.743019 1_555
Ce4 Se4 2.730408 1_555
Ce4 Se17 2.735426 1_555
Ce4 Se26 2.735752 1_555
Ce4 Se12 2.743932 1_555
Ce5 Se13 2.730583 1_445
Ce5 Se26 2.731924 1_555
Ce5 Se16 2.737417 1_555
Ce5 Se5 2.739026 1_555
Ce6 Se14 2.729918 1_555
Ce6 Se27 2.730890 1_555
Ce6 Se6 2.736217 1_555
Ce6 Se19 2.738969 1_555
Ce7 Se7 2.730211 1_565
Ce7 Se27 2.736628 1_555
Ce7 Se18 2.737016 1_555
Ce7 Se15 2.743019 1_555
Ce8 Se3 2.727773 1_555
Ce8 Se28 2.737205 1_556
Ce8 Se14 2.737872 1_555
Ce8 Se16 2.743522 1_565
Ce9 Se17 2.730496 1_555
Ce9 Se29 2.735138 1_554
Ce9 Se15 2.737965 1_555
Ce9 Se2 2.739069 1_555
Ce10 Se18 2.729071 1_555
Ce10 Se28 2.734106 1_555
Ce10 Se1 2.738090 1_455
Ce10 Se12 2.738273 1_555
Ce11 Se0 2.727671 1_555
Ce11 Se29 2.733956 1_555
Ce11 Se13 2.735707 1_555
Ce11 Se19 2.743463 1_655
Ce12 Se7 2.727773 1_555
Ce12 Se30 2.737205 1_554
Ce12 Se10 2.737872 1_555
Ce12 Se20 2.743522 1_545
Ce13 Se21 2.730496 1_555
Ce13 Se31 2.735138 1_556
Ce13 Se11 2.737965 1_555
Ce13 Se6 2.739069 1_555
Ce14 Se22 2.729071 1_555
Ce14 Se30 2.734106 1_555
Ce14 Se5 2.738090 1_655
Ce14 Se8 2.738273 1_555
Ce15 Se4 2.727671 1_555
Ce15 Se31 2.733956 1_555
Ce15 Se9 2.735707 1_555
Ce15 Se23 2.743463 1_455
