# generated using pymatgen
data_ScCdNi4
_symmetry_space_group_name_H-M   'P 1'
_cell_length_a   4.82324749
_cell_length_b   4.82323888
_cell_length_c   4.82324103
_cell_angle_alpha   59.99992619
_cell_angle_beta   59.99998526
_cell_angle_gamma   59.99999020
_symmetry_Int_Tables_number   1
_chemical_formula_structural   ScCdNi4
_chemical_formula_sum   'Sc1 Cd1 Ni4'
_cell_volume   79.34178444
_cell_formula_units_Z   1
loop_
 _symmetry_equiv_pos_site_id
 _symmetry_equiv_pos_as_xyz
  1  'x, y, z'
loop_
 _atom_site_type_symbol
 _atom_site_label
 _atom_site_symmetry_multiplicity
 _atom_site_fract_x
 _atom_site_fract_y
 _atom_site_fract_z
 _atom_site_occupancy
  Sc  Sc0  1  0.25000100  0.24999900  0.25000000  1
  Cd  Cd0  1  0.00000000  -0.00000000  0.00000000  1
  Ni  Ni0  1  0.62555216  0.62555316  0.12334053  1
  Ni  Ni1  1  0.62555216  0.12334053  0.62555316  1
  Ni  Ni2  1  0.12334053  0.62555316  0.62555316  1
  Ni  Ni3  1  0.62555216  0.62555316  0.62555316  1
loop_
_geom_bond_atom_site_label_1
_geom_bond_atom_site_label_2
_geom_bond_distance
_geom_bond_site_symmetry_2
Cd0 Ni2 2.826742 1_554
Cd0 Ni2 2.826744 1_545
Cd0 Ni1 2.826744 1_554
Cd0 Ni0 2.826744 1_545
Cd0 Ni0 2.826745 1_455
Cd0 Ni3 2.826745 1_544
Cd0 Ni2 2.826745 1_544
Cd0 Ni1 2.826746 1_455
Cd0 Ni3 2.826746 1_454
Cd0 Ni3 2.826746 1_445
Cd0 Ni0 2.826751 1_445
Cd0 Ni1 2.826751 1_454
Cd0 Sc0 2.953618 1_554
Cd0 Sc0 2.953620 1_455
Cd0 Sc0 2.953621 1_545
Cd0 Sc0 2.953621 1_555
Ni0 Ni1 2.400945 1_564
Ni0 Ni3 2.400948 1_554
Ni0 Ni2 2.400952 1_654
Ni0 Ni1 2.422289 1_555
Ni0 Ni2 2.422291 1_555
Ni0 Ni3 2.422293 1_555
Ni0 Sc0 2.829016 1_565
Ni0 Sc0 2.829018 1_555
Ni0 Sc0 2.829032 1_655
Ni1 Ni3 2.400947 1_545
Ni1 Ni2 2.400952 1_645
Ni1 Ni2 2.422291 1_555
Ni1 Ni3 2.422291 1_555
Ni1 Sc0 2.829016 1_555
Ni1 Sc0 2.829019 1_556
Ni1 Sc0 2.829029 1_655
Ni2 Ni3 2.400957 1_455
Ni2 Ni3 2.422291 1_555
Ni2 Sc0 2.829016 1_565
Ni2 Sc0 2.829021 1_556
Ni2 Sc0 2.829023 1_555
Ni3 Sc0 2.829013 1_565
Ni3 Sc0 2.829017 1_556
Ni3 Sc0 2.829029 1_655
