# generated using pymatgen
data_Yb3Nb
_symmetry_space_group_name_H-M   'P 1'
_cell_length_a   6.00521333
_cell_length_b   6.00521333
_cell_length_c   6.00521333
_cell_angle_alpha   130.58882418
_cell_angle_beta   130.58882418
_cell_angle_gamma   72.46717068
_symmetry_Int_Tables_number   1
_chemical_formula_structural   Yb3Nb
_chemical_formula_sum   'Yb3 Nb1'
_cell_volume   122.05947842
_cell_formula_units_Z   1
loop_
 _symmetry_equiv_pos_site_id
 _symmetry_equiv_pos_as_xyz
  1  'x, y, z'
loop_
 _atom_site_type_symbol
 _atom_site_label
 _atom_site_symmetry_multiplicity
 _atom_site_fract_x
 _atom_site_fract_y
 _atom_site_fract_z
 _atom_site_occupancy
  Yb  Yb0  1  0.75000000  0.25000000  0.50000000  1
  Yb  Yb1  1  0.25000000  0.75000000  0.50000000  1
  Yb  Yb2  1  0.50000000  0.50000000  0.00000000  1
  Nb  Nb0  1  0.00000000  0.00000000  0.00000000  1
loop_
_geom_bond_atom_site_label_1
_geom_bond_atom_site_label_2
_geom_bond_distance
_geom_bond_site_symmetry_2
Yb0 Yb2 3.487905 1_556
Yb0 Yb2 3.487905 1_555
Yb0 Yb2 3.487905 1_656
Yb0 Yb2 3.487905 1_545
Yb0 Yb1 3.549553 1_544
Yb0 Yb1 3.549553 1_645
Yb0 Yb1 3.549553 1_555
Yb0 Yb1 3.549553 1_656
Yb1 Yb2 3.487905 1_455
Yb1 Yb2 3.487905 1_556
Yb1 Yb2 3.487905 1_555
Yb1 Yb2 3.487905 1_566
Nb0 Yb0 3.487905 1_444
Nb0 Yb1 3.487905 1_545
Nb0 Yb1 3.487905 1_555
Nb0 Yb0 3.487905 1_455
Nb0 Yb1 3.487905 1_444
Nb0 Yb1 3.487905 1_544
Nb0 Yb0 3.487905 1_555
Nb0 Yb0 3.487905 1_454
Nb0 Yb2 3.549553 1_556
Nb0 Yb2 3.549553 1_545
Nb0 Yb2 3.549553 1_444
Nb0 Yb2 3.549553 1_455
