# generated using pymatgen
data_MnH16C4S4(N4Cl)2
_symmetry_space_group_name_H-M   'P 1'
_cell_length_a   13.82257000
_cell_length_b   13.82257000
_cell_length_c   9.76592600
_cell_angle_alpha   90.00000000
_cell_angle_beta   90.00000000
_cell_angle_gamma   90.00000000
_symmetry_Int_Tables_number   1
_chemical_formula_structural   MnH16C4S4(N4Cl)2
_chemical_formula_sum   'Mn4 H64 C16 S16 N32 Cl8'
_cell_volume   1865.91143007
_cell_formula_units_Z   4
loop_
 _symmetry_equiv_pos_site_id
 _symmetry_equiv_pos_as_xyz
  1  'x, y, z'
loop_
 _atom_site_type_symbol
 _atom_site_label
 _atom_site_symmetry_multiplicity
 _atom_site_fract_x
 _atom_site_fract_y
 _atom_site_fract_z
 _atom_site_occupancy
  Mn  Mn0  1  0.75000000  0.25000000  0.25000000  1
  Mn  Mn1  1  0.25000000  0.75000000  0.25000000  1
  Mn  Mn2  1  0.25000000  0.25000000  0.75000000  1
  Mn  Mn3  1  0.75000000  0.75000000  0.75000000  1
  H  H0  1  0.75088300  0.95077800  0.48324000  1
  H  H1  1  0.24911700  0.04922200  0.48324000  1
  H  H2  1  0.54922200  0.25088300  0.98324000  1
  H  H3  1  0.45077800  0.74911700  0.98324000  1
  H  H4  1  0.74911700  0.54922200  0.01676000  1
  H  H5  1  0.25088300  0.45077800  0.01676000  1
  H  H6  1  0.95077800  0.24911700  0.51676000  1
  H  H7  1  0.04922200  0.75088300  0.51676000  1
  H  H8  1  0.75097900  0.07768000  0.46627800  1
  H  H9  1  0.24902100  0.92232000  0.46627800  1
  H  H10  1  0.42232000  0.25097900  0.96627800  1
  H  H11  1  0.57768000  0.74902100  0.96627800  1
  H  H12  1  0.74902100  0.42232000  0.03372200  1
  H  H13  1  0.25097900  0.57768000  0.03372200  1
  H  H14  1  0.07768000  0.24902100  0.53372200  1
  H  H15  1  0.92232000  0.75097900  0.53372200  1
  H  H16  1  0.66830800  0.85528100  0.32793600  1
  H  H17  1  0.33169200  0.14471900  0.32793600  1
  H  H18  1  0.64471900  0.16830800  0.82793600  1
  H  H19  1  0.35528100  0.83169200  0.82793600  1
  H  H20  1  0.83169200  0.64471900  0.17206400  1
  H  H21  1  0.16830800  0.35528100  0.17206400  1
  H  H22  1  0.85528100  0.33169200  0.67206400  1
  H  H23  1  0.14471900  0.66830800  0.67206400  1
  H  H24  1  0.60371600  0.91197200  0.19478900  1
  H  H25  1  0.39628400  0.08802800  0.19478900  1
  H  H26  1  0.58802800  0.10371600  0.69478900  1
  H  H27  1  0.41197200  0.89628400  0.69478900  1
  H  H28  1  0.89628400  0.58802800  0.30521100  1
  H  H29  1  0.10371600  0.41197200  0.30521100  1
  H  H30  1  0.91197200  0.39628400  0.80521100  1
  H  H31  1  0.08802800  0.60371600  0.80521100  1
  H  H32  1  0.13775100  0.12603200  0.10272600  1
  H  H33  1  0.86224900  0.87396800  0.10272600  1
  H  H34  1  0.37396800  0.63775100  0.60272600  1
  H  H35  1  0.62603200  0.36224900  0.60272600  1
  H  H36  1  0.36224900  0.37396800  0.39727400  1
  H  H37  1  0.63775100  0.62603200  0.39727400  1
  H  H38  1  0.12603200  0.86224900  0.89727400  1
  H  H39  1  0.87396800  0.13775100  0.89727400  1
  H  H40  1  0.08053500  0.04868100  0.22050700  1
  H  H41  1  0.91946500  0.95131900  0.22050700  1
  H  H42  1  0.45131900  0.58053500  0.72050700  1
  H  H43  1  0.54868100  0.41946500  0.72050700  1
  H  H44  1  0.41946500  0.45131900  0.27949300  1
  H  H45  1  0.58053500  0.54868100  0.27949300  1
  H  H46  1  0.04868100  0.91946500  0.77949300  1
  H  H47  1  0.95131900  0.08053500  0.77949300  1
  H  H48  1  0.05401800  0.25505900  0.00910000  1
  H  H49  1  0.94598200  0.74494100  0.00910000  1
  H  H50  1  0.24494100  0.55401800  0.50910000  1
  H  H51  1  0.75505900  0.44598200  0.50910000  1
  H  H52  1  0.44598200  0.24494100  0.49090000  1
  H  H53  1  0.55401800  0.75505900  0.49090000  1
  H  H54  1  0.25505900  0.94598200  0.99090000  1
  H  H55  1  0.74494100  0.05401800  0.99090000  1
  H  H56  1  0.94037400  0.28607600  0.07608200  1
  H  H57  1  0.05962600  0.71392400  0.07608200  1
  H  H58  1  0.21392400  0.44037400  0.57608200  1
  H  H59  1  0.78607600  0.55962600  0.57608200  1
  H  H60  1  0.55962600  0.21392400  0.42391800  1
  H  H61  1  0.44037400  0.78607600  0.42391800  1
  H  H62  1  0.28607600  0.05962600  0.92391800  1
  H  H63  1  0.71392400  0.94037400  0.92391800  1
  C  C0  1  0.99946400  0.16472900  0.15957300  1
  C  C1  1  0.00053600  0.83527100  0.15957300  1
  C  C2  1  0.33527100  0.49946400  0.65957300  1
  C  C3  1  0.66472900  0.50053600  0.65957300  1
  C  C4  1  0.50053600  0.33527100  0.34042700  1
  C  C5  1  0.49946400  0.66472900  0.34042700  1
  C  C6  1  0.16472900  0.00053600  0.84042700  1
  C  C7  1  0.83527100  0.99946400  0.84042700  1
  C  C8  1  0.67557400  0.00462100  0.31850300  1
  C  C9  1  0.32442600  0.99537900  0.31850300  1
  C  C10  1  0.49537900  0.17557400  0.81850300  1
  C  C11  1  0.50462100  0.82442600  0.81850300  1
  C  C12  1  0.82442600  0.49537900  0.18149700  1
  C  C13  1  0.17557400  0.50462100  0.18149700  1
  C  C14  1  0.00462100  0.32442600  0.68149700  1
  C  C15  1  0.99537900  0.67557400  0.68149700  1
  S  S0  1  0.90522500  0.13678500  0.26671200  1
  S  S1  1  0.09477500  0.86321500  0.26671200  1
  S  S2  1  0.36321500  0.40522500  0.76671200  1
  S  S3  1  0.63678500  0.59477500  0.76671200  1
  S  S4  1  0.59477500  0.36321500  0.23328800  1
  S  S5  1  0.40522500  0.63678500  0.23328800  1
  S  S6  1  0.13678500  0.09477500  0.73328800  1
  S  S7  1  0.86321500  0.90522500  0.73328800  1
  S  S8  1  0.63847900  0.10303100  0.22468400  1
  S  S9  1  0.36152100  0.89696900  0.22468400  1
  S  S10  1  0.39696900  0.13847900  0.72468400  1
  S  S11  1  0.60303100  0.86152100  0.72468400  1
  S  S12  1  0.86152100  0.39696900  0.27531600  1
  S  S13  1  0.13847900  0.60303100  0.27531600  1
  S  S14  1  0.10303100  0.36152100  0.77531600  1
  S  S15  1  0.89696900  0.63847900  0.77531600  1
  N  N0  1  0.72958000  0.01130800  0.43153000  1
  N  N1  1  0.27042000  0.98869200  0.43153000  1
  N  N2  1  0.48869200  0.22958000  0.93153000  1
  N  N3  1  0.51130800  0.77042000  0.93153000  1
  N  N4  1  0.77042000  0.48869200  0.06847000  1
  N  N5  1  0.22958000  0.51130800  0.06847000  1
  N  N6  1  0.01130800  0.27042000  0.56847000  1
  N  N7  1  0.98869200  0.72958000  0.56847000  1
  N  N8  1  0.64912300  0.91646100  0.27573800  1
  N  N9  1  0.35087700  0.08353900  0.27573800  1
  N  N10  1  0.58353900  0.14912300  0.77573800  1
  N  N11  1  0.41646100  0.85087700  0.77573800  1
  N  N12  1  0.85087700  0.58353900  0.22426200  1
  N  N13  1  0.14912300  0.41646100  0.22426200  1
  N  N14  1  0.91646100  0.35087700  0.72426200  1
  N  N15  1  0.08353900  0.64912300  0.72426200  1
  N  N16  1  0.07941100  0.10999800  0.16231800  1
  N  N17  1  0.92058900  0.89000200  0.16231800  1
  N  N18  1  0.39000200  0.57941100  0.66231800  1
  N  N19  1  0.60999800  0.42058900  0.66231800  1
  N  N20  1  0.42058900  0.39000200  0.33768200  1
  N  N21  1  0.57941100  0.60999800  0.33768200  1
  N  N22  1  0.10999800  0.92058900  0.83768200  1
  N  N23  1  0.89000200  0.07941100  0.83768200  1
  N  N24  1  0.99699900  0.23924400  0.07163300  1
  N  N25  1  0.00300100  0.76075600  0.07163300  1
  N  N26  1  0.26075600  0.49699900  0.57163300  1
  N  N27  1  0.73924400  0.50300100  0.57163300  1
  N  N28  1  0.50300100  0.26075600  0.42836700  1
  N  N29  1  0.49699900  0.73924400  0.42836700  1
  N  N30  1  0.23924400  0.00300100  0.92836700  1
  N  N31  1  0.76075600  0.99699900  0.92836700  1
  Cl  Cl0  1  0.74724600  0.25578400  0.98550800  1
  Cl  Cl1  1  0.25275400  0.74421600  0.98550800  1
  Cl  Cl2  1  0.24421600  0.24724600  0.48550800  1
  Cl  Cl3  1  0.75578400  0.75275400  0.48550800  1
  Cl  Cl4  1  0.75275400  0.24421600  0.51449200  1
  Cl  Cl5  1  0.24724600  0.75578400  0.51449200  1
  Cl  Cl6  1  0.25578400  0.25275400  0.01449200  1
  Cl  Cl7  1  0.74421600  0.74724600  0.01449200  1
loop_
_geom_bond_atom_site_label_1
_geom_bond_atom_site_label_2
_geom_bond_distance
_geom_bond_site_symmetry_2
Mn0 S12 2.562092 1_555
Mn0 S8 2.562092 1_555
Mn0 S0 2.660687 1_555
Mn0 S4 2.660687 1_555
Mn1 S9 2.562092 1_555
Mn1 S13 2.562092 1_555
Mn1 S1 2.660687 1_555
Mn1 S5 2.660687 1_555
Mn2 S14 2.562092 1_555
Mn2 S10 2.562092 1_555
Mn2 S2 2.660687 1_555
Mn2 S6 2.660687 1_555
Mn3 S11 2.562092 1_555
Mn3 S15 2.562092 1_555
Mn3 S3 2.660687 1_555
Mn3 S7 2.660687 1_555
H0 N0 1.020668 1_565
H1 N1 1.020668 1_545
H2 N2 1.020668 1_555
H3 N3 1.020668 1_555
H4 N4 1.020668 1_555
H5 N5 1.020668 1_555
H6 N6 1.020668 1_655
H7 N7 1.020668 1_455
H8 N0 1.021924 1_555
H9 N1 1.021924 1_555
H10 N2 1.021924 1_555
H11 N3 1.021924 1_555
H12 N4 1.021924 1_555
H13 N5 1.021924 1_555
H14 N6 1.021924 1_555
H15 N7 1.021924 1_555
H16 N8 1.022414 1_555
H17 N9 1.022414 1_555
H18 N10 1.022414 1_555
H19 N11 1.022414 1_555
H20 N12 1.022414 1_555
H21 N13 1.022414 1_555
H22 N14 1.022414 1_555
H23 N15 1.022414 1_555
H24 N8 1.011306 1_555
H25 N9 1.011306 1_555
H26 N10 1.011306 1_555
H27 N11 1.011306 1_555
H28 N12 1.011306 1_555
H29 N13 1.011306 1_555
H30 N14 1.011306 1_555
H31 N15 1.011306 1_555
H32 N16 1.018875 1_555
H33 N17 1.018875 1_555
H34 N18 1.018875 1_555
H35 N19 1.018875 1_555
H36 N20 1.018875 1_555
H37 N21 1.018875 1_555
H38 N22 1.018875 1_555
H39 N23 1.018875 1_555
H40 N16 1.020552 1_555
H41 N17 1.020552 1_555
H42 N18 1.020552 1_555
H43 N19 1.020552 1_555
H44 N20 1.020552 1_555
H45 N21 1.020552 1_555
H46 N22 1.020552 1_555
H47 N23 1.020552 1_555
H48 N24 1.020741 1_455
H49 N25 1.020741 1_655
H50 N26 1.020741 1_555
H51 N27 1.020741 1_555
H52 N28 1.020741 1_555
H53 N29 1.020741 1_555
H54 N30 1.020741 1_565
H55 N31 1.020741 1_545
H56 N24 1.016641 1_555
H57 N25 1.016641 1_555
H58 N26 1.016641 1_555
H59 N27 1.016641 1_555
H60 N28 1.016641 1_555
H61 N29 1.016641 1_555
H62 N30 1.016641 1_555
H63 N31 1.016641 1_555
C0 N16 1.339490 1_655
C0 N24 1.341492 1_555
C0 S0 1.714875 1_555
C1 N17 1.339490 1_455
C1 N25 1.341492 1_555
C1 S1 1.714875 1_555
C2 N18 1.339490 1_555
C2 N26 1.341492 1_555
C2 S2 1.714875 1_555
C3 N19 1.339490 1_555
C3 N27 1.341492 1_555
C3 S3 1.714875 1_555
C4 N20 1.339490 1_555
C4 N28 1.341492 1_555
C4 S4 1.714875 1_555
C5 N21 1.339490 1_555
C5 N29 1.341492 1_555
C5 S5 1.714875 1_555
C6 N22 1.339490 1_545
C6 N30 1.341492 1_555
C6 S6 1.714875 1_555
C7 N23 1.339490 1_565
C7 N31 1.341492 1_555
C7 S7 1.714875 1_555
C8 N0 1.335744 1_555
C8 N8 1.339060 1_545
C8 S8 1.718356 1_555
C9 N1 1.335744 1_555
C9 N9 1.339060 1_565
C9 S9 1.718356 1_555
C10 N2 1.335744 1_555
C10 N10 1.339060 1_555
C10 S10 1.718356 1_555
C11 N3 1.335744 1_555
C11 N11 1.339060 1_555
C11 S11 1.718356 1_555
C12 N4 1.335744 1_555
C12 N12 1.339060 1_555
C12 S12 1.718356 1_555
C13 N5 1.335744 1_555
C13 N13 1.339060 1_555
C13 S13 1.718356 1_555
C14 N6 1.335744 1_555
C14 N14 1.339060 1_455
C14 S14 1.718356 1_555
C15 N7 1.335744 1_555
C15 N15 1.339060 1_655
C15 S15 1.718356 1_555
Cl0 Mn0 2.584527 1_556
Cl1 Mn1 2.584527 1_556
Cl2 Mn2 2.584527 1_555
Cl3 Mn3 2.584527 1_555
Cl4 Mn0 2.584527 1_555
Cl5 Mn1 2.584527 1_555
Cl6 Mn2 2.584527 1_554
Cl7 Mn3 2.584527 1_554
