# generated using pymatgen
data_ErMn4(FeSn3)2
_symmetry_space_group_name_H-M   'P 1'
_cell_length_a   5.46451946
_cell_length_b   5.46451946
_cell_length_c   9.04125900
_cell_angle_alpha   90.00000000
_cell_angle_beta   90.00000000
_cell_angle_gamma   120.19721706
_symmetry_Int_Tables_number   1
_chemical_formula_structural   ErMn4(FeSn3)2
_chemical_formula_sum   'Er1 Mn4 Fe2 Sn6'
_cell_volume   233.34419014
_cell_formula_units_Z   1
loop_
 _symmetry_equiv_pos_site_id
 _symmetry_equiv_pos_as_xyz
  1  'x, y, z'
loop_
 _atom_site_type_symbol
 _atom_site_label
 _atom_site_symmetry_multiplicity
 _atom_site_fract_x
 _atom_site_fract_y
 _atom_site_fract_z
 _atom_site_occupancy
  Er  Er0  1  0.50000000  0.50000000  0.99981600  1
  Mn  Mn0  1  0.00000000  0.00000000  0.75285700  1
  Mn  Mn1  1  0.00000000  0.50000000  0.24664400  1
  Mn  Mn2  1  0.50000000  0.00000000  0.24664400  1
  Mn  Mn3  1  0.00000000  0.00000000  0.24723100  1
  Fe  Fe0  1  0.00000000  0.50000000  0.75274000  1
  Fe  Fe1  1  0.50000000  0.00000000  0.75274000  1
  Sn  Sn0  1  0.16746700  0.83253300  0.99979600  1
  Sn  Sn1  1  0.83253300  0.16746700  0.99979600  1
  Sn  Sn2  1  0.16664600  0.83335400  0.50126500  1
  Sn  Sn3  1  0.83335400  0.16664600  0.50126500  1
  Sn  Sn4  1  0.50000000  0.50000000  0.66545200  1
  Sn  Sn5  1  0.50000000  0.50000000  0.33378300  1
loop_
_geom_bond_atom_site_label_1
_geom_bond_atom_site_label_2
_geom_bond_distance
_geom_bond_site_symmetry_2
Er0 Sn5 3.019482 1_556
Er0 Sn4 3.023072 1_555
Er0 Sn0 3.150489 1_555
Er0 Sn1 3.150489 1_555
Er0 Sn1 3.152481 1_455
Er0 Sn1 3.152481 1_565
Er0 Sn0 3.152481 1_545
Er0 Sn0 3.152481 1_655
Er0 Fe1 3.529229 1_555
Er0 Fe0 3.529229 1_555
Er0 Fe0 3.529229 1_655
Er0 Fe1 3.529229 1_565
Mn0 Sn1 2.738985 1_455
Mn0 Sn0 2.738985 1_545
Mn0 Sn3 2.768941 1_455
Mn0 Sn2 2.768941 1_545
Mn0 Sn4 2.836420 1_445
Mn0 Sn4 2.836420 1_555
Mn1 Sn1 2.729034 1_454
Mn1 Sn0 2.729034 1_554
Mn1 Sn2 2.788993 1_555
Mn1 Sn3 2.788993 1_455
Mn1 Sn5 2.843580 1_555
Mn1 Sn5 2.843580 1_455
Mn2 Sn0 2.729034 1_544
Mn2 Sn1 2.729034 1_554
Mn2 Sn2 2.788993 1_545
Mn2 Sn3 2.788993 1_555
Mn2 Sn5 2.843580 1_555
Mn2 Sn5 2.843580 1_545
Mn3 Sn0 2.742641 1_544
Mn3 Sn1 2.742641 1_454
Mn3 Sn3 2.787107 1_455
Mn3 Sn2 2.787107 1_545
Mn3 Sn5 2.834281 1_555
Mn3 Sn5 2.834281 1_445
Fe0 Fe1 2.724111 1_565
Fe0 Fe1 2.724111 1_455
Fe0 Sn1 2.730572 1_455
Fe0 Sn0 2.730572 1_555
Fe0 Mn0 2.732260 1_565
Fe0 Mn0 2.732260 1_555
Fe0 Sn2 2.765561 1_555
Fe0 Sn3 2.765561 1_455
Fe0 Sn4 2.843953 1_455
Fe0 Sn4 2.843953 1_555
Fe1 Sn0 2.730572 1_545
Fe1 Sn1 2.730572 1_555
Fe1 Mn0 2.732260 1_655
Fe1 Mn0 2.732260 1_555
Fe1 Sn2 2.765561 1_545
Fe1 Sn3 2.765561 1_555
Fe1 Sn4 2.843953 1_545
Fe1 Sn4 2.843953 1_555
Sn4 Sn5 2.998705 1_555
