# generated using pymatgen
data_Na2H(CO2)2
_symmetry_space_group_name_H-M   'P 1'
_cell_length_a   3.32641200
_cell_length_b   7.32699400
_cell_length_c   9.34384400
_cell_angle_alpha   90.00000000
_cell_angle_beta   90.00000000
_cell_angle_gamma   90.00000000
_symmetry_Int_Tables_number   1
_chemical_formula_structural   Na2H(CO2)2
_chemical_formula_sum   'Na4 H2 C4 O8'
_cell_volume   227.73377943
_cell_formula_units_Z   2
loop_
 _symmetry_equiv_pos_site_id
 _symmetry_equiv_pos_as_xyz
  1  'x, y, z'
loop_
 _atom_site_type_symbol
 _atom_site_label
 _atom_site_symmetry_multiplicity
 _atom_site_fract_x
 _atom_site_fract_y
 _atom_site_fract_z
 _atom_site_occupancy
  Na  Na0  1  0.41186100  0.38149400  0.23902300  1
  Na  Na1  1  0.41186100  0.61850600  0.76097700  1
  Na  Na2  1  0.58813900  0.11850600  0.73902300  1
  Na  Na3  1  0.58813900  0.88149400  0.26097700  1
  H  H0  1  0.18638100  0.00000000  0.50000000  1
  H  H1  1  0.81361900  0.50000000  0.00000000  1
  C  C0  1  0.06701100  0.10151700  0.02500700  1
  C  C1  1  0.06701100  0.89848300  0.97499300  1
  C  C2  1  0.93298900  0.39848300  0.52500700  1
  C  C3  1  0.93298900  0.60151700  0.47499300  1
  O  O0  1  0.16158900  0.78170600  0.06823000  1
  O  O1  1  0.16158900  0.21829400  0.93177000  1
  O  O2  1  0.83841100  0.71829400  0.56823000  1
  O  O3  1  0.83841100  0.28170600  0.43177000  1
  O  O4  1  0.98822600  0.13202700  0.15655500  1
  O  O5  1  0.98822600  0.86797300  0.84344500  1
  O  O6  1  0.01177400  0.36797300  0.65655500  1
  O  O7  1  0.01177400  0.63202700  0.34344500  1
loop_
_geom_bond_atom_site_label_1
_geom_bond_atom_site_label_2
_geom_bond_distance
_geom_bond_site_symmetry_2
Na0 O3 2.406531 1_555
Na0 O4 2.433226 1_455
Na0 O7 2.468359 1_555
Na0 O3 2.723388 1_455
Na0 O4 2.758722 1_555
Na0 O7 2.881644 1_655
Na1 O2 2.406531 1_555
Na1 O5 2.433226 1_455
Na1 O6 2.468359 1_555
Na1 O2 2.723388 1_455
Na1 O5 2.758722 1_555
Na1 O6 2.881644 1_655
Na2 O1 2.406531 1_555
Na2 O6 2.433226 1_655
Na2 O5 2.468359 1_545
Na2 O1 2.723388 1_655
Na2 O6 2.758722 1_555
Na2 O5 2.881644 1_445
Na3 O0 2.406531 1_555
Na3 O7 2.433226 1_655
Na3 O4 2.468359 1_565
Na3 O0 2.723388 1_655
Na3 O7 2.758722 1_555
Na3 O4 2.881644 1_465
C0 O1 1.260970 1_554
C0 O4 1.276518 1_455
C1 O0 1.260970 1_556
C1 O5 1.276518 1_455
C2 O3 1.260970 1_555
C2 O6 1.276518 1_655
C3 O2 1.260970 1_555
C3 O7 1.276518 1_655
