# generated using pymatgen
data_Sr3Eu
_symmetry_space_group_name_H-M   'P 1'
_cell_length_a   8.51997284
_cell_length_b   8.51995604
_cell_length_c   6.94458404
_cell_angle_alpha   90.00000000
_cell_angle_beta   90.00000000
_cell_angle_gamma   119.99964704
_symmetry_Int_Tables_number   1
_chemical_formula_structural   Sr3Eu
_chemical_formula_sum   'Sr6 Eu2'
_cell_volume   436.57008984
_cell_formula_units_Z   2
loop_
 _symmetry_equiv_pos_site_id
 _symmetry_equiv_pos_as_xyz
  1  'x, y, z'
loop_
 _atom_site_type_symbol
 _atom_site_label
 _atom_site_symmetry_multiplicity
 _atom_site_fract_x
 _atom_site_fract_y
 _atom_site_fract_z
 _atom_site_occupancy
  Sr  Sr0  1  0.16791040  0.33580628  0.25000000  1
  Sr  Sr1  1  0.66418805  0.83209450  0.25000000  1
  Sr  Sr2  1  0.16791167  0.83210290  0.25000000  1
  Sr  Sr3  1  0.83208823  0.66419120  0.75000000  1
  Sr  Sr4  1  0.33581146  0.16790523  0.75000000  1
  Sr  Sr5  1  0.83208633  0.16789727  0.75000000  1
  Eu  Eu0  1  0.33335673  0.66668006  0.75000000  1
  Eu  Eu1  1  0.66664714  0.33332255  0.25000000  1
loop_
_geom_bond_atom_site_label_1
_geom_bond_atom_site_label_2
_geom_bond_distance
_geom_bond_site_symmetry_2
Sr0 Sr1 4.228336 1_555
Sr0 Sr2 4.228420 1_555
Sr0 Sr4 4.265662 1_555
Sr0 Sr4 4.265662 1_554
Sr0 Sr5 4.265766 1_455
Sr0 Sr5 4.265766 1_454
Sr0 Sr2 4.291536 1_545
Sr0 Sr1 4.291674 1_445
Sr1 Sr2 4.228297 1_555
Sr1 Sr3 4.265668 1_554
Sr1 Sr3 4.265668 1_555
Sr1 Sr5 4.265671 1_564
Sr1 Sr5 4.265671 1_565
Sr1 Sr2 4.291676 1_655
Sr2 Sr4 4.265670 1_565
Sr2 Sr4 4.265670 1_564
Sr2 Sr3 4.265763 1_455
Sr2 Sr3 4.265763 1_454
Sr3 Sr4 4.228322 1_555
Sr3 Sr5 4.228394 1_555
Sr3 Sr5 4.291562 1_565
Sr3 Sr4 4.291688 1_665
Sr4 Sr5 4.228282 1_555
Sr4 Sr5 4.291691 1_455
Eu0 Sr1 4.244472 1_555
Eu0 Sr1 4.244472 1_556
Eu0 Sr2 4.244619 1_556
Eu0 Sr2 4.244619 1_555
Eu0 Sr0 4.244650 1_555
Eu0 Sr0 4.244650 1_556
Eu0 Sr5 4.259818 1_565
Eu0 Sr3 4.259821 1_555
Eu0 Sr4 4.259998 1_565
Eu0 Sr4 4.260035 1_555
Eu0 Sr3 4.260231 1_455
Eu0 Sr5 4.260271 1_455
Eu1 Sr4 4.244491 1_555
Eu1 Sr4 4.244491 1_554
Eu1 Sr5 4.244604 1_555
Eu1 Sr5 4.244604 1_554
Eu1 Sr3 4.244628 1_555
Eu1 Sr3 4.244628 1_554
Eu1 Sr0 4.259843 1_555
Eu1 Sr2 4.259853 1_545
Eu1 Sr1 4.260004 1_545
Eu1 Sr1 4.260029 1_555
Eu1 Sr0 4.260208 1_655
Eu1 Sr2 4.260236 1_655
