# generated using pymatgen
data_Sm(Cd10Pd)2
_symmetry_space_group_name_H-M   'P 1'
_cell_length_a   11.11146842
_cell_length_b   11.11146981
_cell_length_c   11.11146981
_cell_angle_alpha   60.00000000
_cell_angle_beta   59.99999587
_cell_angle_gamma   59.99999587
_symmetry_Int_Tables_number   1
_chemical_formula_structural   Sm(Cd10Pd)2
_chemical_formula_sum   'Sm2 Cd40 Pd4'
_cell_volume   970.06191088
_cell_formula_units_Z   2
loop_
 _symmetry_equiv_pos_site_id
 _symmetry_equiv_pos_as_xyz
  1  'x, y, z'
loop_
 _atom_site_type_symbol
 _atom_site_label
 _atom_site_symmetry_multiplicity
 _atom_site_fract_x
 _atom_site_fract_y
 _atom_site_fract_z
 _atom_site_occupancy
  Sm  Sm0  1  0.50000007  0.49999998  0.49999998  1
  Sm  Sm1  1  0.74999993  0.75000002  0.75000002  1
  Cd  Cd0  1  0.56850437  0.30239629  0.30239629  1
  Cd  Cd1  1  0.30239653  0.56850421  0.82670391  1
  Cd  Cd2  1  0.30239653  0.82670391  0.56850421  1
  Cd  Cd3  1  0.82670380  0.30239642  0.30239642  1
  Cd  Cd4  1  0.30239653  0.30239634  0.56850421  1
  Cd  Cd5  1  0.56850437  0.82670406  0.30239629  1
  Cd  Cd6  1  0.82670380  0.56850436  0.30239642  1
  Cd  Cd7  1  0.30239653  0.30239634  0.82670391  1
  Cd  Cd8  1  0.30239653  0.56850421  0.30239634  1
  Cd  Cd9  1  0.82670380  0.30239642  0.56850436  1
  Cd  Cd10  1  0.56850437  0.30239629  0.82670406  1
  Cd  Cd11  1  0.30239653  0.82670391  0.30239634  1
  Cd  Cd12  1  0.68149563  0.94760371  0.94760371  1
  Cd  Cd13  1  0.94760347  0.68149579  0.42329609  1
  Cd  Cd14  1  0.94760347  0.42329609  0.68149579  1
  Cd  Cd15  1  0.42329620  0.94760358  0.94760358  1
  Cd  Cd16  1  0.94760347  0.94760366  0.68149579  1
  Cd  Cd17  1  0.68149563  0.42329594  0.94760371  1
  Cd  Cd18  1  0.42329620  0.68149564  0.94760358  1
  Cd  Cd19  1  0.94760347  0.94760366  0.42329609  1
  Cd  Cd20  1  0.94760347  0.68149579  0.94760366  1
  Cd  Cd21  1  0.42329620  0.94760358  0.68149564  1
  Cd  Cd22  1  0.68149563  0.94760371  0.42329594  1
  Cd  Cd23  1  0.94760347  0.42329609  0.94760366  1
  Cd  Cd24  1  0.86223179  0.86223227  0.13776797  1
  Cd  Cd25  1  0.13776790  0.13776794  0.86223208  1
  Cd  Cd26  1  0.86223179  0.13776797  0.86223227  1
  Cd  Cd27  1  0.13776790  0.86223208  0.13776794  1
  Cd  Cd28  1  0.13776790  0.86223208  0.86223208  1
  Cd  Cd29  1  0.86223179  0.13776797  0.13776797  1
  Cd  Cd30  1  0.38776821  0.38776773  0.11223203  1
  Cd  Cd31  1  0.11223210  0.11223206  0.38776792  1
  Cd  Cd32  1  0.38776821  0.11223203  0.38776773  1
  Cd  Cd33  1  0.11223210  0.38776792  0.11223206  1
  Cd  Cd34  1  0.11223210  0.38776792  0.38776792  1
  Cd  Cd35  1  0.38776821  0.11223203  0.11223203  1
  Cd  Cd36  1  0.12500000  0.62500000  0.62500000  1
  Cd  Cd37  1  0.62500000  0.12500000  0.62500000  1
  Cd  Cd38  1  0.62500000  0.62500000  0.12500000  1
  Cd  Cd39  1  0.62500000  0.62500000  0.62500000  1
  Pd  Pd0  1  0.62500000  0.12500000  0.12500000  1
  Pd  Pd1  1  0.12500000  0.62500000  0.12500000  1
  Pd  Pd2  1  0.12500000  0.12500000  0.62500000  1
  Pd  Pd3  1  0.12500000  0.12500000  0.12500000  1
loop_
_geom_bond_atom_site_label_1
_geom_bond_atom_site_label_2
_geom_bond_distance
_geom_bond_site_symmetry_2
Cd0 Cd3 2.868976 1_555
Cd0 Cd4 2.956849 1_555
Cd0 Cd8 2.956849 1_555
Cd0 Cd29 2.958063 1_555
Cd0 Pd0 3.094417 1_555
Cd0 Cd32 3.119564 1_555
Cd0 Cd30 3.119564 1_555
Cd0 Cd17 3.219247 1_554
Cd0 Cd22 3.219247 1_545
Cd0 Cd38 3.328052 1_555
Cd0 Cd37 3.328052 1_555
Cd0 Sm0 3.420476 1_555
Cd1 Cd2 2.868978 1_555
Cd1 Cd10 2.956849 1_555
Cd1 Cd7 2.956850 1_555
Cd1 Cd28 2.958063 1_555
Cd1 Pd1 3.094409 1_556
Cd1 Cd30 3.119558 1_556
Cd1 Cd33 3.119563 1_556
Cd1 Cd18 3.219231 1_555
Cd1 Cd20 3.219251 1_455
Cd1 Cd39 3.328050 1_555
Cd1 Cd36 3.328062 1_555
Cd1 Sm0 3.420483 1_555
Cd2 Cd5 2.956849 1_555
Cd2 Cd28 2.958063 1_555
Cd2 Pd2 3.094409 1_565
Cd2 Cd32 3.119558 1_565
Cd2 Cd31 3.119563 1_565
Cd2 Cd21 3.219231 1_555
Cd2 Cd39 3.328050 1_555
Cd2 Cd36 3.328062 1_555
Cd2 Sm0 3.420483 1_555
Cd3 Cd9 2.956850 1_555
Cd3 Cd6 2.956850 1_555
Cd3 Pd3 3.094414 1_655
Cd3 Cd31 3.119558 1_655
Cd3 Cd33 3.119558 1_655
Cd3 Cd37 3.328055 1_555
Cd3 Cd38 3.328055 1_555
Cd3 Sm0 3.420477 1_555
Cd4 Cd7 2.868978 1_555
Cd4 Cd8 2.956850 1_555
Cd4 Pd2 3.094419 1_555
Cd4 Sm0 3.420474 1_555
Cd5 Cd6 2.868976 1_555
Cd5 Pd0 3.094407 1_565
Cd5 Sm0 3.420485 1_555
Cd6 Cd9 2.956850 1_555
Cd6 Pd1 3.094409 1_655
Cd6 Sm0 3.420482 1_555
Cd7 Pd3 3.094414 1_556
Cd7 Sm0 3.420479 1_555
Cd8 Pd1 3.094419 1_555
Cd8 Sm0 3.420474 1_555
Cd9 Pd2 3.094409 1_655
Cd9 Sm0 3.420482 1_555
Cd10 Cd9 2.868976 1_555
Cd10 Cd7 2.956849 1_555
Cd10 Cd26 2.958059 1_555
Cd10 Pd0 3.094407 1_556
Cd10 Cd30 3.119555 1_556
Cd10 Cd35 3.119560 1_556
Cd10 Cd17 3.219229 1_555
Cd10 Cd12 3.219247 1_545
Cd10 Cd39 3.328052 1_555
Cd10 Cd37 3.328062 1_555
Cd10 Sm0 3.420485 1_555
Cd11 Cd8 2.868978 1_555
Cd11 Cd5 2.956849 1_555
Cd11 Cd2 2.956850 1_555
Cd11 Cd27 2.958073 1_555
Cd11 Pd3 3.094414 1_565
Cd11 Cd31 3.119557 1_565
Cd11 Cd35 3.119558 1_565
Cd11 Cd15 3.219249 1_554
Cd11 Cd19 3.219251 1_455
Cd11 Cd38 3.328055 1_555
Cd11 Cd36 3.328057 1_555
Cd11 Sm0 3.420479 1_555
Cd12 Cd15 2.868976 1_555
Cd12 Cd16 2.956849 1_555
Cd12 Cd20 2.956849 1_555
Cd12 Cd35 2.958063 1_566
Cd12 Pd0 3.094417 1_566
Cd12 Cd26 3.119564 1_565
Cd12 Cd24 3.119564 1_556
Cd12 Cd5 3.219247 1_556
Cd12 Cd37 3.328052 1_565
Cd12 Cd38 3.328052 1_556
Cd12 Sm1 3.420476 1_555
Cd13 Cd14 2.868978 1_555
Cd13 Cd22 2.956849 1_555
Cd13 Cd19 2.956850 1_555
Cd13 Cd34 2.958063 1_655
Cd13 Pd1 3.094409 1_655
Cd13 Cd24 3.119558 1_555
Cd13 Cd27 3.119563 1_655
Cd13 Cd6 3.219231 1_555
Cd13 Cd8 3.219251 1_655
Cd13 Cd39 3.328050 1_555
Cd13 Cd36 3.328062 1_655
Cd13 Sm1 3.420483 1_555
Cd14 Cd17 2.956849 1_555
Cd14 Cd23 2.956850 1_555
Cd14 Cd34 2.958063 1_655
Cd14 Pd2 3.094409 1_655
Cd14 Cd26 3.119558 1_555
Cd14 Cd25 3.119563 1_655
Cd14 Cd9 3.219231 1_555
Cd14 Cd4 3.219251 1_655
Cd14 Cd39 3.328050 1_555
Cd14 Cd36 3.328062 1_655
Cd14 Sm1 3.420483 1_555
Cd15 Cd18 2.956850 1_555
Cd15 Cd21 2.956850 1_555
Cd15 Cd35 2.958072 1_566
Cd15 Pd3 3.094414 1_566
Cd15 Cd25 3.119558 1_565
Cd15 Cd27 3.119558 1_556
Cd15 Cd7 3.219249 1_565
Cd15 Cd37 3.328055 1_565
Cd15 Cd38 3.328055 1_556
Cd15 Sm1 3.420477 1_555
Cd16 Cd19 2.868978 1_555
Cd16 Cd20 2.956850 1_555
Cd16 Cd31 2.958067 1_665
Cd16 Pd2 3.094419 1_665
Cd16 Cd28 3.119567 1_655
Cd16 Cd26 3.119567 1_565
Cd16 Cd9 3.219249 1_565
Cd16 Cd2 3.219251 1_655
Cd16 Cd37 3.328050 1_565
Cd16 Cd36 3.328052 1_655
Cd16 Sm1 3.420474 1_555
Cd17 Cd18 2.868976 1_555
Cd17 Cd23 2.956849 1_555
Cd17 Cd30 2.958059 1_556
Cd17 Pd0 3.094407 1_556
Cd17 Cd26 3.119555 1_555
Cd17 Cd29 3.119560 1_556
Cd17 Cd39 3.328052 1_555
Cd17 Cd38 3.328062 1_556
Cd17 Sm1 3.420485 1_555
Cd18 Cd21 2.956850 1_555
Cd18 Cd30 2.958063 1_556
Cd18 Pd1 3.094409 1_556
Cd18 Cd28 3.119558 1_555
Cd18 Cd27 3.119563 1_556
Cd18 Cd8 3.219249 1_556
Cd18 Cd39 3.328051 1_555
Cd18 Cd38 3.328060 1_556
Cd18 Sm1 3.420482 1_555
Cd19 Cd22 2.956849 1_555
Cd19 Cd31 2.958073 1_665
Cd19 Pd3 3.094414 1_665
Cd19 Cd27 3.119557 1_655
Cd19 Cd29 3.119558 1_565
Cd19 Cd3 3.219249 1_565
Cd19 Cd37 3.328055 1_565
Cd19 Cd36 3.328057 1_655
Cd19 Sm1 3.420479 1_555
Cd20 Cd23 2.868978 1_555
Cd20 Cd33 2.958067 1_656
Cd20 Pd1 3.094419 1_656
Cd20 Cd28 3.119567 1_655
Cd20 Cd24 3.119567 1_556
Cd20 Cd6 3.219249 1_556
Cd20 Cd38 3.328050 1_556
Cd20 Cd36 3.328052 1_655
Cd20 Sm1 3.420474 1_555
Cd21 Cd22 2.868976 1_555
Cd21 Cd32 2.958063 1_565
Cd21 Pd2 3.094409 1_565
Cd21 Cd28 3.119558 1_555
Cd21 Cd25 3.119563 1_565
Cd21 Cd4 3.219249 1_565
Cd21 Cd39 3.328051 1_555
Cd21 Cd37 3.328060 1_565
Cd21 Sm1 3.420482 1_555
Cd22 Cd32 2.958059 1_565
Cd22 Pd0 3.094407 1_565
Cd22 Cd24 3.119555 1_555
Cd22 Cd29 3.119560 1_565
Cd22 Cd5 3.219229 1_555
Cd22 Cd39 3.328052 1_555
Cd22 Cd37 3.328062 1_565
Cd22 Sm1 3.420485 1_555
Cd23 Cd33 2.958073 1_656
Cd23 Pd3 3.094414 1_656
Cd23 Cd25 3.119557 1_655
Cd23 Cd29 3.119558 1_556
Cd23 Cd3 3.219249 1_556
Cd23 Cd7 3.219251 1_655
Cd23 Cd38 3.328055 1_556
Cd23 Cd36 3.328057 1_655
Cd23 Sm1 3.420479 1_555
Cd24 Pd0 2.785101 1_565
Cd24 Pd1 2.785106 1_655
Cd24 Cd5 2.958059 1_555
Cd24 Cd6 2.958063 1_555
Cd24 Cd26 3.061607 1_564
Cd24 Cd29 3.061607 1_565
Cd24 Cd28 3.061610 1_654
Cd24 Cd27 3.061610 1_655
Cd25 Pd3 2.785104 1_556
Cd25 Pd2 2.785104 1_555
Cd25 Cd4 2.958067 1_555
Cd25 Cd7 2.958073 1_555
Cd25 Cd27 3.061608 1_546
Cd25 Cd28 3.061608 1_545
Cd25 Cd29 3.061610 1_456
Cd25 Cd26 3.061610 1_455
Cd26 Pd0 2.785101 1_556
Cd26 Pd2 2.785106 1_655
Cd26 Cd9 2.958063 1_555
Cd26 Cd29 3.061607 1_556
Cd26 Cd28 3.061610 1_645
Cd27 Pd3 2.785104 1_565
Cd27 Pd1 2.785104 1_555
Cd27 Cd8 2.958067 1_555
Cd27 Cd28 3.061608 1_554
Cd27 Cd29 3.061610 1_465
Cd28 Pd1 2.785104 1_556
Cd28 Pd2 2.785104 1_565
Cd29 Pd0 2.785101 1_555
Cd29 Pd3 2.785106 1_655
Cd29 Cd3 2.958072 1_555
Cd30 Pd0 2.785101 1_555
Cd30 Pd1 2.785106 1_555
Cd30 Cd35 3.061607 1_555
Cd30 Cd32 3.061607 1_555
Cd30 Cd34 3.061610 1_555
Cd30 Cd33 3.061610 1_555
Cd30 Cd8 3.119567 1_555
Cd31 Pd2 2.785104 1_555
Cd31 Pd3 2.785104 1_555
Cd31 Cd34 3.061608 1_555
Cd31 Cd33 3.061608 1_555
Cd31 Cd35 3.061610 1_555
Cd31 Cd32 3.061610 1_555
Cd31 Cd9 3.119563 1_455
Cd32 Pd0 2.785101 1_555
Cd32 Pd2 2.785106 1_555
Cd32 Cd35 3.061607 1_555
Cd32 Cd34 3.061610 1_555
Cd32 Cd5 3.119555 1_545
Cd32 Cd4 3.119567 1_555
Cd33 Pd1 2.785104 1_555
Cd33 Pd3 2.785104 1_555
Cd33 Cd34 3.061608 1_555
Cd33 Cd35 3.061610 1_555
Cd33 Cd7 3.119557 1_554
Cd33 Cd6 3.119563 1_455
Cd34 Pd1 2.785104 1_555
Cd34 Pd2 2.785104 1_555
Cd34 Cd9 3.119558 1_455
Cd34 Cd6 3.119558 1_455
Cd34 Cd4 3.119567 1_555
Cd34 Cd8 3.119567 1_555
Cd35 Pd0 2.785101 1_555
Cd35 Pd3 2.785106 1_555
Cd35 Cd7 3.119558 1_554
Cd35 Cd5 3.119560 1_545
Cd36 Cd8 3.328052 1_555
Cd36 Cd4 3.328052 1_555
Cd36 Cd7 3.328057 1_555
Cd36 Sm1 3.402179 1_455
Cd36 Sm0 3.402179 1_555
Cd37 Cd4 3.328050 1_555
Cd37 Cd7 3.328055 1_555
Cd37 Cd9 3.328060 1_555
Cd37 Sm0 3.402179 1_555
Cd37 Sm1 3.402179 1_545
Cd38 Cd8 3.328050 1_555
Cd38 Cd6 3.328060 1_555
Cd38 Cd5 3.328062 1_555
Cd38 Sm0 3.402179 1_555
Cd38 Sm1 3.402179 1_554
Cd39 Cd9 3.328051 1_555
Cd39 Cd6 3.328051 1_555
Cd39 Cd5 3.328052 1_555
Cd39 Sm1 3.402179 1_555
Cd39 Sm0 3.402179 1_555
