# generated using pymatgen
data_LaMg6Mo
_symmetry_space_group_name_H-M   'P 1'
_cell_length_a   5.16558800
_cell_length_b   6.01607700
_cell_length_c   11.82569200
_cell_angle_alpha   90.00000000
_cell_angle_beta   90.00000000
_cell_angle_gamma   90.00000000
_symmetry_Int_Tables_number   1
_chemical_formula_structural   LaMg6Mo
_chemical_formula_sum   'La2 Mg12 Mo2'
_cell_volume   367.50200624
_cell_formula_units_Z   2
loop_
 _symmetry_equiv_pos_site_id
 _symmetry_equiv_pos_as_xyz
  1  'x, y, z'
loop_
 _atom_site_type_symbol
 _atom_site_label
 _atom_site_symmetry_multiplicity
 _atom_site_fract_x
 _atom_site_fract_y
 _atom_site_fract_z
 _atom_site_occupancy
  La  La0  1  0.50000000  0.00000000  0.17432700  1
  La  La1  1  0.50000000  0.50000000  0.67432700  1
  Mg  Mg0  1  0.50000000  0.24993100  0.42217700  1
  Mg  Mg1  1  0.50000000  0.75006900  0.42217700  1
  Mg  Mg2  1  0.00000000  0.73352600  0.08304500  1
  Mg  Mg3  1  0.00000000  0.26647400  0.08304500  1
  Mg  Mg4  1  0.00000000  0.00000000  0.34099000  1
  Mg  Mg5  1  0.00000000  0.50000000  0.30914400  1
  Mg  Mg6  1  0.50000000  0.74993100  0.92217700  1
  Mg  Mg7  1  0.50000000  0.25006900  0.92217700  1
  Mg  Mg8  1  0.00000000  0.23352600  0.58304500  1
  Mg  Mg9  1  0.00000000  0.76647400  0.58304500  1
  Mg  Mg10  1  0.00000000  0.50000000  0.84099000  1
  Mg  Mg11  1  0.00000000  0.00000000  0.80914400  1
  Mo  Mo0  1  0.50000000  0.50000000  0.16509100  1
  Mo  Mo1  1  0.50000000  0.00000000  0.66509100  1
loop_
_geom_bond_atom_site_label_1
_geom_bond_atom_site_label_2
_geom_bond_distance
_geom_bond_site_symmetry_2
La0 Mo0 3.010021 1_555
La0 Mo0 3.010021 1_545
La0 Mg3 3.225850 1_555
La0 Mg2 3.225850 1_645
La0 Mg2 3.225850 1_545
La0 Mg3 3.225850 1_655
La0 Mg4 3.248891 1_555
La0 Mg4 3.248891 1_655
La0 Mg1 3.294173 1_545
La0 Mg0 3.294173 1_555
La0 Mg7 3.339872 1_554
La0 Mg6 3.339872 1_544
La1 Mo1 3.010021 1_565
La1 Mo1 3.010021 1_555
La1 Mg9 3.225850 1_555
La1 Mg9 3.225850 1_655
La1 Mg8 3.225850 1_555
La1 Mg8 3.225850 1_655
La1 Mg10 3.248891 1_555
La1 Mg10 3.248891 1_655
La1 Mg7 3.294173 1_555
La1 Mg6 3.294173 1_555
La1 Mg1 3.339872 1_555
La1 Mg0 3.339872 1_555
Mg0 Mg1 3.007208 1_545
Mg0 Mg1 3.008869 1_555
Mg0 Mg4 3.139017 1_655
Mg0 Mg4 3.139017 1_555
Mg0 Mg8 3.209299 1_555
Mg0 Mg8 3.209299 1_655
Mg0 Mo1 3.242346 1_555
Mg0 Mg5 3.274278 1_555
Mg0 Mg5 3.274278 1_655
Mg0 Mo0 3.392088 1_555
Mg1 Mg4 3.139017 1_665
Mg1 Mg4 3.139017 1_565
Mg1 Mg9 3.209299 1_555
Mg1 Mg9 3.209299 1_655
Mg1 Mo1 3.242346 1_565
Mg1 Mg5 3.274278 1_555
Mg1 Mg5 3.274278 1_655
Mg1 Mo0 3.392088 1_555
Mg2 Mg3 2.809821 1_555
Mg2 Mg5 3.020407 1_555
Mg2 Mo0 3.096124 1_455
Mg2 Mo0 3.096124 1_555
Mg2 Mg3 3.206256 1_565
Mg2 Mg6 3.209299 1_454
Mg2 Mg6 3.209299 1_554
Mg2 Mg4 3.445987 1_565
Mg3 Mg5 3.020407 1_555
Mg3 Mo0 3.096124 1_455
Mg3 Mo0 3.096124 1_555
Mg3 Mg7 3.209299 1_554
Mg3 Mg7 3.209299 1_454
Mg3 Mg4 3.445987 1_555
Mg4 Mg5 3.031522 1_555
Mg4 Mg5 3.031522 1_545
Mg4 Mg8 3.188651 1_555
Mg4 Mg9 3.188651 1_545
Mg5 Mo0 3.093999 1_455
Mg5 Mo0 3.093999 1_555
Mg6 Mg7 3.007208 1_555
Mg6 Mg7 3.008869 1_565
Mg6 Mo0 3.242346 1_556
Mg6 Mo1 3.392088 1_565
Mg7 Mo0 3.242346 1_556
Mg7 Mo1 3.392088 1_555
Mg8 Mg9 2.809821 1_545
Mg8 Mo1 3.096124 1_555
Mg8 Mo1 3.096124 1_455
Mg8 Mg9 3.206256 1_555
Mg9 Mo1 3.096124 1_565
Mg9 Mo1 3.096124 1_465
Mg10 Mg11 3.031522 1_565
Mg10 Mg11 3.031522 1_555
Mg10 Mg6 3.139017 1_455
Mg10 Mg6 3.139017 1_555
Mg10 Mg7 3.139017 1_455
Mg10 Mg7 3.139017 1_555
Mg10 Mg2 3.188651 1_556
Mg10 Mg3 3.188651 1_556
Mg10 Mg9 3.445987 1_555
Mg10 Mg8 3.445987 1_555
Mg11 Mg8 3.020407 1_555
Mg11 Mg9 3.020407 1_545
Mg11 Mo1 3.093999 1_455
Mg11 Mo1 3.093999 1_555
Mg11 Mg6 3.274278 1_445
Mg11 Mg6 3.274278 1_545
Mg11 Mg7 3.274278 1_455
Mg11 Mg7 3.274278 1_555
