# generated using pymatgen
data_NaSrAlF6
_symmetry_space_group_name_H-M   'P 1'
_cell_length_a   5.40400600
_cell_length_b   9.52999100
_cell_length_c   18.61233600
_cell_angle_alpha   90.00000000
_cell_angle_beta   90.00000000
_cell_angle_gamma   90.00000000
_symmetry_Int_Tables_number   1
_chemical_formula_structural   NaSrAlF6
_chemical_formula_sum   'Na8 Sr8 Al8 F48'
_cell_volume   958.53769650
_cell_formula_units_Z   8
loop_
 _symmetry_equiv_pos_site_id
 _symmetry_equiv_pos_as_xyz
  1  'x, y, z'
loop_
 _atom_site_type_symbol
 _atom_site_label
 _atom_site_symmetry_multiplicity
 _atom_site_fract_x
 _atom_site_fract_y
 _atom_site_fract_z
 _atom_site_occupancy
  Na  Na0  1  0.25557100  0.86814900  0.31316100  1
  Na  Na1  1  0.74442900  0.36814900  0.68683900  1
  Na  Na2  1  0.24442900  0.86814900  0.81316100  1
  Na  Na3  1  0.75557100  0.36814900  0.18683900  1
  Na  Na4  1  0.76015800  0.77258400  0.43337300  1
  Na  Na5  1  0.23984200  0.27258400  0.56662700  1
  Na  Na6  1  0.73984200  0.77258400  0.93337300  1
  Na  Na7  1  0.26015800  0.27258400  0.06662700  1
  Sr  Sr0  1  0.24798400  0.63991000  0.13272900  1
  Sr  Sr1  1  0.75201600  0.13991000  0.86727100  1
  Sr  Sr2  1  0.25201600  0.63991000  0.63272900  1
  Sr  Sr3  1  0.74798400  0.13991000  0.36727100  1
  Sr  Sr4  1  0.24875300  0.50247300  0.38371600  1
  Sr  Sr5  1  0.75124700  0.00247300  0.61628400  1
  Sr  Sr6  1  0.25124700  0.50247300  0.88371600  1
  Sr  Sr7  1  0.74875300  0.00247300  0.11628400  1
  Al  Al0  1  0.24129000  0.89919500  0.99335100  1
  Al  Al1  1  0.75871000  0.39919500  0.00664900  1
  Al  Al2  1  0.25871000  0.89919500  0.49335100  1
  Al  Al3  1  0.74129000  0.39919500  0.50664900  1
  Al  Al4  1  0.75185600  0.74134800  0.25470200  1
  Al  Al5  1  0.24814400  0.24134800  0.74529700  1
  Al  Al6  1  0.74814400  0.74134800  0.75470300  1
  Al  Al7  1  0.25185600  0.24134800  0.24529800  1
  F  F0  1  0.46788100  0.17416700  0.17918700  1
  F  F1  1  0.53211900  0.67416700  0.82081300  1
  F  F2  1  0.03211900  0.17416700  0.67918700  1
  F  F3  1  0.96788100  0.67416700  0.32081300  1
  F  F4  1  0.55151000  0.46310600  0.07632000  1
  F  F5  1  0.44849000  0.96310600  0.92368000  1
  F  F6  1  0.94849000  0.46310600  0.57632000  1
  F  F7  1  0.05151000  0.96310600  0.42368000  1
  F  F8  1  0.98637600  0.14923900  0.20784600  1
  F  F9  1  0.01362400  0.64923900  0.79215400  1
  F  F10  1  0.51362400  0.14923900  0.70784600  1
  F  F11  1  0.48637600  0.64923900  0.29215400  1
  F  F12  1  0.33094100  0.74930700  0.43318400  1
  F  F13  1  0.66905900  0.24930700  0.56681600  1
  F  F14  1  0.16905900  0.74930700  0.93318400  1
  F  F15  1  0.83094100  0.24930700  0.06681600  1
  F  F16  1  0.31395700  0.10133000  0.30849100  1
  F  F17  1  0.32058200  0.04012200  0.05451000  1
  F  F18  1  0.68604300  0.60133000  0.69150900  1
  F  F19  1  0.81395700  0.60133000  0.19150900  1
  F  F20  1  0.52908500  0.99367300  0.46007800  1
  F  F21  1  0.47091500  0.49367300  0.53992200  1
  F  F22  1  0.97091500  0.99367300  0.96007800  1
  F  F23  1  0.02908500  0.49367300  0.03992200  1
  F  F24  1  0.00178000  0.83949600  0.21117300  1
  F  F25  1  0.99822000  0.33949600  0.78882700  1
  F  F26  1  0.49821900  0.83949600  0.71117300  1
  F  F27  1  0.50178000  0.33949600  0.28882700  1
  F  F28  1  0.19526800  0.39072300  0.18408400  1
  F  F29  1  0.80473200  0.89072300  0.81591600  1
  F  F30  1  0.30473200  0.39072300  0.68408400  1
  F  F31  1  0.69526800  0.89072300  0.31591600  1
  F  F32  1  0.53291600  0.82189500  0.18989300  1
  F  F33  1  0.46708400  0.32189500  0.81010700  1
  F  F34  1  0.96708400  0.82189500  0.68989300  1
  F  F35  1  0.03291600  0.32189500  0.31010700  1
  F  F36  1  0.02934500  0.82249000  0.06084200  1
  F  F37  1  0.97065500  0.32249000  0.93915800  1
  F  F38  1  0.47065500  0.82249000  0.56084200  1
  F  F39  1  0.52934500  0.32249000  0.43915800  1
  F  F40  1  0.99018500  0.29699100  0.46467200  1
  F  F41  1  0.00981500  0.79699100  0.53532800  1
  F  F42  1  0.50981500  0.29699100  0.96467200  1
  F  F43  1  0.49018500  0.79699100  0.03532800  1
  F  F44  1  0.82058200  0.54012200  0.44549000  1
  F  F45  1  0.17941800  0.04012200  0.55451000  1
  F  F46  1  0.67941800  0.54012200  0.94549000  1
  F  F47  1  0.18604300  0.10133000  0.80849100  1
loop_
_geom_bond_atom_site_label_1
_geom_bond_atom_site_label_2
_geom_bond_distance
_geom_bond_site_symmetry_2
Al0 F17 1.811932 1_566
Al0 F5 1.818311 1_555
Al0 F22 1.824563 1_455
Al0 F43 1.835266 1_556
Al0 F36 1.850443 1_556
Al0 F14 1.856567 1_555
Al1 F46 1.811932 1_554
Al1 F4 1.818311 1_555
Al1 F23 1.824563 1_655
Al1 F42 1.835266 1_554
Al1 F37 1.850443 1_554
Al1 F15 1.856567 1_555
Al2 F45 1.811932 1_565
Al2 F7 1.818311 1_555
Al2 F20 1.824563 1_555
Al2 F41 1.835266 1_555
Al2 F38 1.850443 1_555
Al2 F12 1.856567 1_555
Al3 F44 1.811932 1_555
Al3 F6 1.818311 1_555
Al3 F21 1.824563 1_555
Al3 F40 1.835266 1_555
Al3 F39 1.850443 1_555
Al3 F13 1.856567 1_555
Al4 F19 1.810122 1_555
Al4 F3 1.812955 1_555
Al4 F11 1.820624 1_555
Al4 F24 1.831764 1_655
Al4 F31 1.848803 1_555
Al4 F32 1.855832 1_555
Al5 F47 1.810134 1_555
Al5 F2 1.812942 1_555
Al5 F10 1.820617 1_555
Al5 F25 1.831772 1_455
Al5 F30 1.848792 1_555
Al5 F33 1.855844 1_555
Al6 F18 1.810134 1_555
Al6 F1 1.812942 1_555
Al6 F9 1.820617 1_655
Al6 F26 1.831776 1_555
Al6 F29 1.848792 1_555
Al6 F34 1.855844 1_555
Al7 F16 1.810122 1_555
Al7 F0 1.812955 1_555
Al7 F8 1.820624 1_455
Al7 F27 1.831764 1_555
Al7 F28 1.848803 1_555
Al7 F35 1.855832 1_555
F0 Na3 2.419670 1_555
F0 Sr7 2.520281 1_555
F0 Na7 2.555154 1_555
F1 Na2 2.419670 1_555
F1 Sr6 2.520281 1_555
F1 Na6 2.555154 1_555
F2 Na1 2.419670 1_455
F2 Sr5 2.520281 1_455
F2 Na5 2.555154 1_555
F3 Na0 2.419670 1_655
F3 Sr4 2.520281 1_655
F3 Na4 2.555154 1_555
F4 Na7 2.410014 1_555
F4 Na3 2.503255 1_555
F4 Sr0 2.575221 1_555
F5 Na6 2.410014 1_555
F5 Na2 2.503255 1_555
F5 Sr1 2.575221 1_565
F6 Na5 2.410014 1_655
F6 Na1 2.503255 1_555
F6 Sr2 2.575221 1_655
F7 Na4 2.410014 1_455
F7 Na0 2.503255 1_555
F7 Sr3 2.575221 1_465
F8 Na3 2.461876 1_555
F8 Sr7 2.551371 1_555
F9 Na2 2.461876 1_555
F9 Sr6 2.551371 1_555
F10 Na1 2.461876 1_555
F10 Sr5 2.551371 1_555
F11 Na0 2.461876 1_555
F11 Sr4 2.551371 1_555
F12 Na4 2.330077 1_555
F12 Na0 2.537507 1_555
F12 Sr4 2.564843 1_555
F13 Na5 2.330077 1_555
F13 Na1 2.537507 1_555
F13 Sr5 2.564843 1_555
F14 Na6 2.330077 1_455
F14 Na2 2.537507 1_555
F14 Sr6 2.564843 1_555
F15 Na7 2.330077 1_655
F15 Na3 2.537507 1_555
F15 Sr7 2.564843 1_555
F16 Na0 2.246183 1_545
F16 Sr3 2.614074 1_555
F17 Na7 2.250624 1_555
F17 Sr7 2.608549 1_555
F18 Na1 2.246183 1_555
F18 Sr2 2.614074 1_555
F19 Na3 2.246183 1_555
F19 Sr0 2.614074 1_655
F20 Na4 2.499140 1_555
F20 Sr3 2.515016 1_565
F21 Na5 2.499140 1_555
F21 Sr2 2.515016 1_555
F22 Na6 2.499140 1_555
F22 Sr1 2.515016 1_565
F23 Na7 2.499140 1_555
F23 Sr0 2.515016 1_555
F24 Na0 2.357719 1_555
F24 Sr7 2.720503 1_465
F24 Sr0 2.742203 1_555
F25 Na1 2.357719 1_555
F25 Sr6 2.720503 1_655
F25 Sr1 2.742203 1_555
F26 Na2 2.357716 1_555
F26 Sr5 2.720506 1_565
F26 Sr2 2.742201 1_555
F27 Na3 2.357719 1_555
F27 Sr4 2.720503 1_555
F27 Sr3 2.742203 1_555
F28 Na3 2.386395 1_455
F28 Na7 2.483905 1_555
F28 Sr0 2.575697 1_555
F29 Na2 2.386395 1_655
F29 Na6 2.483905 1_555
F29 Sr1 2.575697 1_565
F30 Na1 2.386395 1_555
F30 Na5 2.483905 1_555
F30 Sr2 2.575697 1_555
F31 Na0 2.386395 1_555
F31 Na4 2.483905 1_555
F31 Sr3 2.575697 1_565
F32 Sr7 2.489773 1_565
F32 Sr0 2.551618 1_555
F32 Na0 2.775692 1_555
F33 Sr6 2.489773 1_555
F33 Sr1 2.551618 1_555
F33 Na1 2.775692 1_555
F34 Sr5 2.489773 1_565
F34 Sr2 2.551618 1_655
F34 Na2 2.775692 1_655
F35 Sr4 2.489773 1_555
F35 Sr3 2.551618 1_455
F35 Na3 2.775692 1_455
F36 Sr0 2.492741 1_555
F36 Sr7 2.511194 1_465
F37 Sr1 2.492741 1_555
F37 Sr6 2.511194 1_655
F38 Sr2 2.492741 1_555
F38 Sr5 2.511194 1_565
F39 Sr3 2.492741 1_555
F39 Sr4 2.511194 1_555
F40 Na5 2.339929 1_655
F40 Sr3 2.690821 1_555
F40 Sr4 2.838583 1_655
F41 Na4 2.339929 1_455
F41 Sr2 2.690821 1_555
F41 Sr5 2.838583 1_465
F42 Na7 2.339929 1_556
F42 Sr1 2.690821 1_555
F42 Sr6 2.838583 1_555
F43 Na6 2.339929 1_554
F43 Sr0 2.690821 1_555
F43 Sr7 2.838583 1_565
F44 Na4 2.250624 1_555
F44 Sr4 2.608549 1_655
F45 Na5 2.250624 1_555
F45 Sr5 2.608549 1_455
F46 Na6 2.250624 1_555
F46 Sr6 2.608549 1_555
F47 Na2 2.246183 1_545
F47 Sr1 2.614074 1_455
