# generated using pymatgen
data_UClO5
_symmetry_space_group_name_H-M   'P 1'
_cell_length_a   10.98204000
_cell_length_b   5.38691800
_cell_length_c   20.99543634
_cell_angle_alpha   90.00000000
_cell_angle_beta   115.82833565
_cell_angle_gamma   90.00000000
_symmetry_Int_Tables_number   1
_chemical_formula_structural   UClO5
_chemical_formula_sum   'U8 Cl8 O40'
_cell_volume   1117.99716271
_cell_formula_units_Z   8
loop_
 _symmetry_equiv_pos_site_id
 _symmetry_equiv_pos_as_xyz
  1  'x, y, z'
loop_
 _atom_site_type_symbol
 _atom_site_label
 _atom_site_symmetry_multiplicity
 _atom_site_fract_x
 _atom_site_fract_y
 _atom_site_fract_z
 _atom_site_occupancy
  U  U0  1  0.63203600  0.69837700  0.66764100  1
  U  U1  1  0.63203600  0.80162300  0.16764100  1
  U  U2  1  0.36796400  0.30162300  0.33235900  1
  U  U3  1  0.36796400  0.19837700  0.83235900  1
  U  U4  1  0.87409100  0.42337000  0.83607000  1
  U  U5  1  0.87409100  0.07663000  0.33607000  1
  U  U6  1  0.12590900  0.57663000  0.16393000  1
  U  U7  1  0.12590900  0.92337000  0.66393000  1
  Cl  Cl0  1  0.37795500  0.52673800  0.56865400  1
  Cl  Cl1  1  0.37795500  0.97326200  0.06865400  1
  Cl  Cl2  1  0.62204500  0.47326200  0.43134600  1
  Cl  Cl3  1  0.62204500  0.02673800  0.93134600  1
  Cl  Cl4  1  0.13058800  0.58563900  0.93583300  1
  Cl  Cl5  1  0.13058800  0.91436100  0.43583300  1
  Cl  Cl6  1  0.86941200  0.41436100  0.06416700  1
  Cl  Cl7  1  0.86941200  0.08563900  0.56416700  1
  O  O0  1  0.69369600  0.55039100  0.60775700  1
  O  O1  1  0.69369600  0.94960900  0.10775700  1
  O  O2  1  0.30630400  0.44960900  0.39224300  1
  O  O3  1  0.30630400  0.05039100  0.89224300  1
  O  O4  1  0.53337200  0.82862200  0.71144200  1
  O  O5  1  0.53337200  0.67137800  0.21144200  1
  O  O6  1  0.46662800  0.17137800  0.28855800  1
  O  O7  1  0.46662800  0.32862200  0.78855800  1
  O  O8  1  0.68625800  0.99640400  0.64553000  1
  O  O9  1  0.68625800  0.50359600  0.14553000  1
  O  O10  1  0.31374200  0.00359600  0.35447000  1
  O  O11  1  0.31374200  0.49640400  0.85447000  1
  O  O12  1  0.44444400  0.78959300  0.56233300  1
  O  O13  1  0.44444400  0.71040700  0.06233300  1
  O  O14  1  0.55555600  0.21040700  0.43766700  1
  O  O15  1  0.55555600  0.28959300  0.93766700  1
  O  O16  1  0.97338600  0.29711700  0.79208000  1
  O  O17  1  0.97338600  0.20288300  0.29208000  1
  O  O18  1  0.02661400  0.70288300  0.20792000  1
  O  O19  1  0.02661400  0.79711700  0.70792000  1
  O  O20  1  0.81429600  0.56610200  0.89724800  1
  O  O21  1  0.81429600  0.93389800  0.39724800  1
  O  O22  1  0.18570400  0.43389800  0.10275200  1
  O  O23  1  0.18570400  0.06610200  0.60275200  1
  O  O24  1  0.06338300  0.32325600  0.94079900  1
  O  O25  1  0.06338300  0.17674400  0.44079900  1
  O  O26  1  0.93661700  0.67674400  0.05920100  1
  O  O27  1  0.93661700  0.82325600  0.55920100  1
  O  O28  1  0.81681100  0.12533100  0.85649300  1
  O  O29  1  0.81681100  0.37466900  0.35649300  1
  O  O30  1  0.18318900  0.87466900  0.14350700  1
  O  O31  1  0.18318900  0.62533100  0.64350700  1
  O  O32  1  0.85192200  0.71419500  0.78073300  1
  O  O33  1  0.85192200  0.78580500  0.28073300  1
  O  O34  1  0.14807800  0.28580500  0.21926700  1
  O  O35  1  0.14807800  0.21419500  0.71926700  1
  O  O36  1  0.65498100  0.41018300  0.72402200  1
  O  O37  1  0.65498100  0.08981700  0.22402200  1
  O  O38  1  0.34501900  0.58981700  0.27597800  1
  O  O39  1  0.34501900  0.91018300  0.77597800  1
loop_
_geom_bond_atom_site_label_1
_geom_bond_atom_site_label_2
_geom_bond_distance
_geom_bond_site_symmetry_2
Cl0 O12 1.624874 1_555
Cl1 O13 1.624874 1_555
Cl2 O14 1.624874 1_555
Cl3 O15 1.624874 1_555
Cl4 O24 1.618777 1_555
Cl5 O25 1.618777 1_565
Cl6 O26 1.618777 1_555
Cl7 O27 1.618777 1_545
O0 U0 1.848425 1_555
O1 U1 1.848425 1_555
O2 U2 1.848425 1_555
O3 U3 1.848425 1_555
O4 U0 1.838549 1_555
O5 U1 1.838549 1_555
O6 U2 1.838549 1_555
O7 U3 1.838549 1_555
O8 U0 1.840767 1_555
O9 U1 1.840767 1_555
O10 U2 1.840767 1_555
O11 U3 1.840767 1_555
O12 U0 2.324894 1_555
O13 U1 2.324894 1_555
O14 U2 2.324894 1_555
O15 U3 2.324894 1_555
O16 U4 1.839090 1_555
O17 U5 1.839090 1_555
O18 U6 1.839090 1_555
O19 U7 1.839090 1_555
O20 U4 1.845858 1_555
O21 U5 1.845858 1_565
O22 U6 1.845858 1_555
O23 U7 1.845858 1_545
O24 U4 2.337574 1_455
O25 U5 2.337574 1_455
O26 U6 2.337574 1_655
O27 U7 2.337574 1_655
O28 U4 1.841810 1_555
O29 U5 1.841810 1_555
O30 U6 1.841810 1_555
O31 U7 1.841810 1_555
O32 U4 1.901850 1_555
O32 U0 2.545634 1_555
O33 U5 1.901850 1_565
O33 U1 2.545634 1_555
O34 U6 1.901850 1_555
O34 U2 2.545634 1_555
O35 U7 1.901850 1_545
O35 U3 2.545634 1_555
O36 U0 1.901321 1_555
O36 U4 2.529216 1_555
O37 U1 1.901321 1_545
O37 U5 2.529216 1_555
O38 U2 1.901321 1_555
O38 U6 2.529216 1_555
O39 U3 1.901321 1_565
O39 U7 2.529216 1_555
