# generated using pymatgen
data_La3Nd11(Si3O13)3
_symmetry_space_group_name_H-M   'P 1'
_cell_length_a   9.66238040
_cell_length_b   9.66238040
_cell_length_c   21.40191500
_cell_angle_alpha   90.00000000
_cell_angle_beta   90.00000000
_cell_angle_gamma   120.00000272
_symmetry_Int_Tables_number   1
_chemical_formula_structural   La3Nd11(Si3O13)3
_chemical_formula_sum   'La6 Nd22 Si18 O78'
_cell_volume   1730.41996438
_cell_formula_units_Z   2
loop_
 _symmetry_equiv_pos_site_id
 _symmetry_equiv_pos_as_xyz
  1  'x, y, z'
loop_
 _atom_site_type_symbol
 _atom_site_label
 _atom_site_symmetry_multiplicity
 _atom_site_fract_x
 _atom_site_fract_y
 _atom_site_fract_z
 _atom_site_occupancy
  La  La0  1  0.66666700  0.33333300  0.84172100  1
  La  La1  1  0.33333300  0.66666700  0.34172100  1
  La  La2  1  0.33333300  0.66666700  0.16897500  1
  La  La3  1  0.66666700  0.33333300  0.66897500  1
  La  La4  1  0.66666700  0.33333300  0.50174400  1
  La  La5  1  0.33333300  0.66666700  0.00174400  1
  Nd  Nd0  1  0.24558100  0.23049300  0.91858500  1
  Nd  Nd1  1  0.76950700  0.01508800  0.91858500  1
  Nd  Nd2  1  0.98491200  0.75441900  0.91858500  1
  Nd  Nd3  1  0.75441900  0.76950700  0.41858500  1
  Nd  Nd4  1  0.23049300  0.98491200  0.41858500  1
  Nd  Nd5  1  0.01508800  0.24558100  0.41858500  1
  Nd  Nd6  1  0.76026800  0.76972000  0.08224700  1
  Nd  Nd7  1  0.23028000  0.99054800  0.08224700  1
  Nd  Nd8  1  0.00945200  0.23973200  0.08224700  1
  Nd  Nd9  1  0.23973200  0.23028000  0.58224700  1
  Nd  Nd10  1  0.76972000  0.00945200  0.58224700  1
  Nd  Nd11  1  0.99054800  0.76026800  0.58224700  1
  Nd  Nd12  1  0.66666700  0.33333300  0.15635800  1
  Nd  Nd13  1  0.33333300  0.66666700  0.65635800  1
  Nd  Nd14  1  0.33333300  0.66666700  0.83200700  1
  Nd  Nd15  1  0.66666700  0.33333300  0.33200700  1
  Nd  Nd16  1  0.24279000  0.23174900  0.24956200  1
  Nd  Nd17  1  0.76825100  0.01104100  0.24956200  1
  Nd  Nd18  1  0.98895900  0.75721000  0.24956200  1
  Nd  Nd19  1  0.75721000  0.76825100  0.74956200  1
  Nd  Nd20  1  0.23174900  0.98895900  0.74956200  1
  Nd  Nd21  1  0.01104100  0.24279000  0.74956200  1
  Si  Si0  1  0.40043700  0.37238800  0.74984800  1
  Si  Si1  1  0.62761200  0.02804900  0.74984800  1
  Si  Si2  1  0.97195100  0.59956300  0.74984800  1
  Si  Si3  1  0.59956300  0.62761200  0.24984800  1
  Si  Si4  1  0.37238800  0.97195100  0.24984800  1
  Si  Si5  1  0.02804900  0.40043700  0.24984800  1
  Si  Si6  1  0.39913100  0.37004900  0.08365200  1
  Si  Si7  1  0.62995100  0.02908200  0.08365200  1
  Si  Si8  1  0.97091800  0.60086900  0.08365200  1
  Si  Si9  1  0.60086900  0.62995100  0.58365200  1
  Si  Si10  1  0.37004900  0.97091800  0.58365200  1
  Si  Si11  1  0.02908200  0.39913100  0.58365200  1
  Si  Si12  1  0.60333200  0.63453700  0.91488100  1
  Si  Si13  1  0.36546300  0.96879500  0.91488100  1
  Si  Si14  1  0.03120500  0.39666800  0.91488100  1
  Si  Si15  1  0.39666800  0.36546300  0.41488100  1
  Si  Si16  1  0.63453700  0.03120500  0.41488100  1
  Si  Si17  1  0.96879500  0.60333200  0.41488100  1
  O  O0  1  0.46513300  0.16076500  0.91035200  1
  O  O1  1  0.83923500  0.30436900  0.91035200  1
  O  O2  1  0.69563100  0.53486700  0.91035200  1
  O  O3  1  0.53486700  0.83923500  0.41035200  1
  O  O4  1  0.16076500  0.69563100  0.41035200  1
  O  O5  1  0.30436900  0.46513300  0.41035200  1
  O  O6  1  0.51694200  0.83089800  0.08488200  1
  O  O7  1  0.16910200  0.68604400  0.08488200  1
  O  O8  1  0.31395600  0.48305800  0.08488200  1
  O  O9  1  0.48305800  0.16910200  0.58488200  1
  O  O10  1  0.83089800  0.31395600  0.58488200  1
  O  O11  1  0.68604400  0.51694200  0.58488200  1
  O  O12  1  0.25505700  0.88835000  0.85143000  1
  O  O13  1  0.11165000  0.36670700  0.85143000  1
  O  O14  1  0.63329300  0.74494300  0.85143000  1
  O  O15  1  0.74494300  0.11165000  0.35143000  1
  O  O16  1  0.88835000  0.63329300  0.35143000  1
  O  O17  1  0.36670700  0.25505700  0.35143000  1
  O  O18  1  0.74247600  0.09929600  0.14745100  1
  O  O19  1  0.90070400  0.64318100  0.14745100  1
  O  O20  1  0.35681900  0.25752400  0.14745100  1
  O  O21  1  0.25752400  0.90070400  0.64745100  1
  O  O22  1  0.09929600  0.35681900  0.64745100  1
  O  O23  1  0.64318100  0.74247600  0.64745100  1
  O  O24  1  0.16508000  0.67289200  0.74815400  1
  O  O25  1  0.32710800  0.49218800  0.74815400  1
  O  O26  1  0.50781200  0.83492000  0.74815400  1
  O  O27  1  0.83492000  0.32710800  0.24815400  1
  O  O28  1  0.67289200  0.50781200  0.24815400  1
  O  O29  1  0.49218800  0.16508000  0.24815400  1
  O  O30  1  0.24064400  0.91412000  0.97431500  1
  O  O31  1  0.08588000  0.32652400  0.97431500  1
  O  O32  1  0.67347600  0.75935600  0.97431500  1
  O  O33  1  0.75935600  0.08588000  0.47431500  1
  O  O34  1  0.91412000  0.67347600  0.47431500  1
  O  O35  1  0.32652400  0.24064400  0.47431500  1
  O  O36  1  0.76111700  0.06602700  0.02772100  1
  O  O37  1  0.93397300  0.69509000  0.02772100  1
  O  O38  1  0.30491000  0.23888300  0.02772100  1
  O  O39  1  0.23888300  0.93397300  0.52772100  1
  O  O40  1  0.06602700  0.30491000  0.52772100  1
  O  O41  1  0.69509000  0.76111700  0.52772100  1
  O  O42  1  0.33830800  0.25267500  0.81088900  1
  O  O43  1  0.74732500  0.08563300  0.81088900  1
  O  O44  1  0.91436700  0.66169200  0.81088900  1
  O  O45  1  0.66169200  0.74732500  0.31088900  1
  O  O46  1  0.25267500  0.91436700  0.31088900  1
  O  O47  1  0.08563300  0.33830800  0.31088900  1
  O  O48  1  0.65617700  0.74903400  0.18897800  1
  O  O49  1  0.25096600  0.90714300  0.18897800  1
  O  O50  1  0.09285700  0.34382300  0.18897800  1
  O  O51  1  0.34382300  0.25096600  0.68897800  1
  O  O52  1  0.74903400  0.09285700  0.68897800  1
  O  O53  1  0.90714300  0.65617700  0.68897800  1
  O  O54  1  0.00000000  0.00000000  0.75029300  1
  O  O55  1  0.00000000  0.00000000  0.25029300  1
  O  O56  1  0.52819000  0.12575700  0.75093500  1
  O  O57  1  0.87424300  0.40243300  0.75093500  1
  O  O58  1  0.59756700  0.47181000  0.75093500  1
  O  O59  1  0.47181000  0.87424300  0.25093500  1
  O  O60  1  0.12575700  0.59756700  0.25093500  1
  O  O61  1  0.40243300  0.52819000  0.25093500  1
  O  O62  1  0.88835700  0.40811200  0.08297700  1
  O  O63  1  0.59188800  0.48024400  0.08297700  1
  O  O64  1  0.51975600  0.11164300  0.08297700  1
  O  O65  1  0.11164300  0.59188800  0.58297700  1
  O  O66  1  0.40811200  0.51975600  0.58297700  1
  O  O67  1  0.48024400  0.88835700  0.58297700  1
  O  O68  1  0.12268100  0.59348000  0.92142900  1
  O  O69  1  0.40652000  0.52920100  0.92142900  1
  O  O70  1  0.47079900  0.87731900  0.92142900  1
  O  O71  1  0.87731900  0.40652000  0.42142900  1
  O  O72  1  0.59348000  0.47079900  0.42142900  1
  O  O73  1  0.52920100  0.12268100  0.42142900  1
  O  O74  1  0.00000000  0.00000000  0.90837500  1
  O  O75  1  0.00000000  0.00000000  0.40837500  1
  O  O76  1  0.00000000  0.00000000  0.09685400  1
  O  O77  1  0.00000000  0.00000000  0.59685400  1
loop_
_geom_bond_atom_site_label_1
_geom_bond_atom_site_label_2
_geom_bond_distance
_geom_bond_site_symmetry_2
La0 O1 2.341522 1_555
La0 O0 2.341531 1_555
La0 O2 2.341537 1_555
La0 O57 2.627665 1_555
La0 O56 2.627666 1_555
La0 O58 2.627671 1_555
La0 O43 2.938759 1_555
La0 O44 2.938765 1_555
La0 O42 2.938768 1_555
La1 O4 2.341522 1_555
La1 O3 2.341531 1_555
La1 O5 2.341537 1_555
La1 O60 2.627665 1_555
La1 O59 2.627666 1_555
La1 O61 2.627671 1_555
La1 O46 2.938759 1_555
La1 O47 2.938765 1_555
La1 O45 2.938768 1_555
La2 O7 2.467670 1_555
La2 O6 2.467674 1_555
La2 O8 2.467677 1_555
La2 O60 2.491238 1_555
La2 O59 2.491239 1_555
La2 O61 2.491245 1_555
La2 O49 2.839875 1_555
La2 O50 2.839881 1_555
La2 O48 2.839884 1_555
La3 O10 2.467670 1_555
La3 O9 2.467674 1_555
La3 O11 2.467677 1_555
La3 O57 2.491238 1_555
La3 O56 2.491239 1_555
La3 O58 2.491245 1_555
La3 O52 2.839875 1_555
La3 O53 2.839881 1_555
La3 O51 2.839884 1_555
La4 O10 2.452803 1_555
La4 O9 2.452807 1_555
La4 O11 2.452810 1_555
La4 O71 2.481567 1_555
La4 O73 2.481568 1_555
La4 O72 2.481573 1_555
La5 O7 2.452803 1_555
La5 O6 2.452807 1_555
La5 O8 2.452810 1_555
La5 O68 2.481567 1_554
La5 O70 2.481568 1_554
La5 O69 2.481573 1_554
Nd0 O74 2.313808 1_555
Nd0 O38 2.396729 1_556
Nd0 O42 2.443199 1_555
Nd0 O31 2.469115 1_555
Nd0 O69 2.502794 1_555
Nd0 O0 2.532697 1_555
Nd0 O13 2.678773 1_555
Nd1 O74 2.313808 1_655
Nd1 O36 2.396729 1_556
Nd1 O43 2.443199 1_555
Nd1 O32 2.469115 1_545
Nd1 O70 2.502794 1_545
Nd1 O1 2.532706 1_555
Nd1 O14 2.678773 1_545
Nd2 O74 2.313808 1_665
Nd2 O37 2.396729 1_556
Nd2 O44 2.443199 1_555
Nd2 O30 2.469115 1_655
Nd2 O68 2.502794 1_655
Nd2 O2 2.532703 1_555
Nd2 O12 2.678773 1_655
Nd3 O75 2.313808 1_665
Nd3 O41 2.396729 1_555
Nd3 O45 2.443199 1_555
Nd3 O34 2.469115 1_555
Nd3 O72 2.502794 1_555
Nd3 O3 2.532697 1_555
Nd3 O16 2.678773 1_555
Nd4 O75 2.313808 1_565
Nd4 O39 2.396729 1_555
Nd4 O46 2.443199 1_555
Nd4 O35 2.469115 1_565
Nd4 O73 2.502794 1_565
Nd4 O4 2.532706 1_555
Nd4 O17 2.678773 1_565
Nd5 O75 2.313808 1_555
Nd5 O40 2.396729 1_555
Nd5 O47 2.443199 1_555
Nd5 O33 2.469115 1_455
Nd5 O71 2.502794 1_455
Nd5 O5 2.532703 1_555
Nd5 O15 2.678773 1_455
Nd6 O76 2.293500 1_665
Nd6 O37 2.430870 1_555
Nd6 O63 2.433094 1_555
Nd6 O32 2.442377 1_554
Nd6 O48 2.463387 1_555
Nd6 O19 2.634902 1_555
Nd6 O6 2.696316 1_555
Nd7 O76 2.293500 1_565
Nd7 O38 2.430870 1_565
Nd7 O64 2.433095 1_565
Nd7 O30 2.442377 1_554
Nd7 O49 2.463387 1_555
Nd7 O20 2.634909 1_565
Nd7 O7 2.696316 1_555
Nd8 O76 2.293500 1_555
Nd8 O36 2.430870 1_455
Nd8 O62 2.433087 1_455
Nd8 O31 2.442377 1_554
Nd8 O50 2.463387 1_555
Nd8 O18 2.634909 1_455
Nd8 O8 2.696316 1_555
Nd9 O77 2.293500 1_555
Nd9 O40 2.430870 1_555
Nd9 O66 2.433094 1_555
Nd9 O35 2.442377 1_555
Nd9 O51 2.463387 1_555
Nd9 O22 2.634902 1_555
Nd9 O9 2.696316 1_555
Nd10 O77 2.293500 1_655
Nd10 O41 2.430870 1_545
Nd10 O67 2.433095 1_545
Nd10 O33 2.442377 1_555
Nd10 O52 2.463387 1_555
Nd10 O23 2.634909 1_545
Nd10 O10 2.696316 1_555
Nd11 O77 2.293500 1_665
Nd11 O39 2.430870 1_655
Nd11 O65 2.433087 1_655
Nd11 O34 2.442377 1_555
Nd11 O53 2.463387 1_555
Nd11 O21 2.634909 1_655
Nd11 O11 2.696316 1_555
Nd12 O64 2.455440 1_555
Nd12 O62 2.455440 1_555
Nd12 O63 2.455440 1_555
Nd12 O27 2.569840 1_555
Nd12 O29 2.569843 1_555
Nd12 O28 2.569846 1_555
Nd12 O18 2.709805 1_555
Nd12 O19 2.709818 1_555
Nd12 O20 2.709824 1_555
Nd13 O67 2.455440 1_555
Nd13 O65 2.455440 1_555
Nd13 O66 2.455440 1_555
Nd13 O24 2.569840 1_555
Nd13 O26 2.569843 1_555
Nd13 O25 2.569846 1_555
Nd13 O21 2.709805 1_555
Nd13 O22 2.709818 1_555
Nd13 O23 2.709824 1_555
Nd14 O24 2.442340 1_555
Nd14 O26 2.442343 1_555
Nd14 O25 2.442347 1_555
Nd14 O68 2.620346 1_555
Nd14 O70 2.620347 1_555
Nd14 O69 2.620352 1_555
Nd14 O12 2.636853 1_555
Nd14 O13 2.636859 1_555
Nd14 O14 2.636862 1_555
Nd15 O27 2.442340 1_555
Nd15 O29 2.442343 1_555
Nd15 O28 2.442347 1_555
Nd15 O71 2.620346 1_555
Nd15 O73 2.620347 1_555
Nd15 O72 2.620352 1_555
Nd15 O15 2.636853 1_555
Nd15 O16 2.636859 1_555
Nd15 O17 2.636862 1_555
Nd16 O55 2.294502 1_555
Nd16 O20 2.403626 1_555
Nd16 O17 2.442912 1_555
Nd16 O61 2.483207 1_555
Nd16 O50 2.553714 1_555
Nd16 O47 2.579177 1_555
Nd16 O29 2.788412 1_555
Nd17 O55 2.294502 1_655
Nd17 O18 2.403630 1_555
Nd17 O15 2.442912 1_555
Nd17 O59 2.483207 1_545
Nd17 O48 2.553713 1_545
Nd17 O45 2.579177 1_545
Nd17 O27 2.788412 1_555
Nd18 O55 2.294502 1_665
Nd18 O19 2.403627 1_555
Nd18 O16 2.442912 1_555
Nd18 O60 2.483207 1_655
Nd18 O49 2.553713 1_655
Nd18 O46 2.579177 1_655
Nd18 O28 2.788412 1_555
Nd19 O54 2.294502 1_665
Nd19 O23 2.403626 1_555
Nd19 O14 2.442912 1_555
Nd19 O58 2.483207 1_555
Nd19 O53 2.553714 1_555
Nd19 O44 2.579177 1_555
Nd19 O26 2.788412 1_555
Nd20 O54 2.294502 1_565
Nd20 O21 2.403630 1_555
Nd20 O12 2.442912 1_555
Nd20 O56 2.483207 1_565
Nd20 O51 2.553713 1_565
Nd20 O42 2.579177 1_565
Nd20 O24 2.788412 1_555
Nd21 O54 2.294502 1_555
Nd21 O22 2.403627 1_555
Nd21 O13 2.442912 1_555
Nd21 O57 2.483207 1_455
Nd21 O52 2.553713 1_455
Nd21 O43 2.579177 1_455
Nd21 O25 2.788412 1_555
O0 Si13 1.609695 1_545
O1 Si14 1.609695 1_655
O2 Si12 1.609687 1_555
O3 Si16 1.609695 1_565
O4 Si17 1.609695 1_455
O5 Si15 1.609687 1_555
O6 Si7 1.664028 1_565
O7 Si8 1.664028 1_455
O8 Si6 1.664029 1_555
O9 Si10 1.664028 1_545
O10 Si11 1.664028 1_655
O11 Si9 1.664029 1_555
O12 Si13 1.660451 1_555
O13 Si14 1.660451 1_555
O14 Si12 1.660451 1_555
O15 Si16 1.660451 1_555
O16 Si17 1.660451 1_555
O17 Si15 1.660451 1_555
O18 Si7 1.664075 1_555
O19 Si8 1.664079 1_555
O20 Si6 1.664074 1_555
O21 Si10 1.664075 1_555
O22 Si11 1.664079 1_555
O23 Si9 1.664074 1_555
O24 Si2 1.632001 1_455
O25 Si0 1.632001 1_555
O26 Si1 1.632001 1_565
O27 Si5 1.632001 1_655
O28 Si3 1.632001 1_555
O29 Si4 1.632001 1_545
O30 Si13 1.647570 1_555
O31 Si14 1.647570 1_555
O32 Si12 1.647570 1_555
O33 Si16 1.647570 1_555
O34 Si17 1.647570 1_555
O35 Si15 1.647570 1_555
O36 Si7 1.647462 1_555
O37 Si8 1.647462 1_555
O38 Si6 1.647462 1_555
O39 Si10 1.647462 1_555
O40 Si11 1.647462 1_555
O41 Si9 1.647462 1_555
O42 Si0 1.646401 1_555
O43 Si1 1.646401 1_555
O44 Si2 1.646401 1_555
O45 Si3 1.646401 1_555
O46 Si4 1.646401 1_555
O47 Si5 1.646401 1_555
O48 Si3 1.652582 1_555
O49 Si4 1.652582 1_555
O50 Si5 1.652582 1_555
O51 Si0 1.652582 1_555
O52 Si1 1.652582 1_555
O53 Si2 1.652582 1_555
O56 Si1 1.649742 1_555
O57 Si2 1.649742 1_555
O58 Si0 1.649742 1_555
O59 Si4 1.649742 1_555
O60 Si5 1.649742 1_555
O61 Si3 1.649742 1_555
O62 Si8 1.618545 1_555
O63 Si6 1.618545 1_555
O64 Si7 1.618537 1_555
O65 Si11 1.618545 1_555
O66 Si9 1.618545 1_555
O67 Si10 1.618537 1_555
O68 Si14 1.654204 1_555
O69 Si12 1.654204 1_555
O70 Si13 1.654204 1_555
O71 Si17 1.654204 1_555
O72 Si15 1.654204 1_555
O73 Si16 1.654204 1_555
