# generated using pymatgen
data_CaC2O5
_symmetry_space_group_name_H-M   'P 1'
_cell_length_a   5.71460002
_cell_length_b   9.91576372
_cell_length_c   18.25943100
_cell_angle_alpha   90.00000000
_cell_angle_beta   90.00000000
_cell_angle_gamma   97.41317236
_symmetry_Int_Tables_number   1
_chemical_formula_structural   CaC2O5
_chemical_formula_sum   'Ca8 C16 O40'
_cell_volume   1026.01557318
_cell_formula_units_Z   8
loop_
 _symmetry_equiv_pos_site_id
 _symmetry_equiv_pos_as_xyz
  1  'x, y, z'
loop_
 _atom_site_type_symbol
 _atom_site_label
 _atom_site_symmetry_multiplicity
 _atom_site_fract_x
 _atom_site_fract_y
 _atom_site_fract_z
 _atom_site_occupancy
  Ca  Ca0  1  0.64920400  0.50039000  0.37522700  1
  Ca  Ca1  1  0.14920400  0.00039000  0.12477300  1
  Ca  Ca2  1  0.35079600  0.49961100  0.62477300  1
  Ca  Ca3  1  0.85079600  0.99961100  0.87522700  1
  Ca  Ca4  1  0.87412500  0.99570800  0.37335800  1
  Ca  Ca5  1  0.37412500  0.49570800  0.12664200  1
  Ca  Ca6  1  0.12587500  0.00429200  0.62664200  1
  Ca  Ca7  1  0.62587500  0.50429200  0.87335800  1
  C  C0  1  0.72691100  0.75347800  0.74400500  1
  C  C1  1  0.22691100  0.25347800  0.75599500  1
  C  C2  1  0.27308900  0.24652200  0.25599500  1
  C  C3  1  0.77308900  0.74652200  0.24400500  1
  C  C4  1  0.73993800  0.75371400  0.00808900  1
  C  C5  1  0.23993800  0.25371400  0.49191100  1
  C  C6  1  0.26006200  0.24628600  0.99191100  1
  C  C7  1  0.76006200  0.74628600  0.50808900  1
  C  C8  1  0.18263600  0.67619700  0.37523000  1
  C  C9  1  0.68263600  0.17619700  0.12477000  1
  C  C10  1  0.81736400  0.32380300  0.62477000  1
  C  C11  1  0.31736400  0.82380300  0.87523000  1
  C  C12  1  0.34025700  0.81862800  0.37980700  1
  C  C13  1  0.84025700  0.31862800  0.12019300  1
  C  C14  1  0.65974300  0.18137200  0.62019300  1
  C  C15  1  0.15974300  0.68137200  0.87980700  1
  O  O0  1  0.66687900  0.63685900  0.24259900  1
  O  O1  1  0.16687900  0.13685900  0.25740100  1
  O  O2  1  0.33312100  0.36314100  0.75740100  1
  O  O3  1  0.83312100  0.86314100  0.74259900  1
  O  O4  1  0.36308600  0.35659300  0.98827100  1
  O  O5  1  0.86308600  0.85659300  0.51172900  1
  O  O6  1  0.63691400  0.64340700  0.01172900  1
  O  O7  1  0.13691400  0.14340700  0.48827100  1
  O  O8  1  0.12513000  0.14244300  0.75607400  1
  O  O9  1  0.62513000  0.64244300  0.74392600  1
  O  O10  1  0.87487000  0.85755700  0.24392600  1
  O  O11  1  0.37487000  0.35755700  0.25607400  1
  O  O12  1  0.84660500  0.86330100  0.00621400  1
  O  O13  1  0.34660500  0.36330100  0.49378600  1
  O  O14  1  0.15339500  0.13669900  0.99378600  1
  O  O15  1  0.65339500  0.63669900  0.50621400  1
  O  O16  1  0.71767300  0.42940800  0.62892000  1
  O  O17  1  0.21767300  0.92940800  0.87108000  1
  O  O18  1  0.28232700  0.57059200  0.37108000  1
  O  O19  1  0.78232700  0.07059200  0.12892000  1
  O  O20  1  0.96050800  0.67840800  0.37619300  1
  O  O21  1  0.46050800  0.17840800  0.12380700  1
  O  O22  1  0.03949200  0.32159200  0.62380700  1
  O  O23  1  0.53949200  0.82159200  0.87619300  1
  O  O24  1  0.56219200  0.81693700  0.37568200  1
  O  O25  1  0.06219200  0.31693700  0.12431800  1
  O  O26  1  0.43780800  0.18306300  0.62431800  1
  O  O27  1  0.93780800  0.68306300  0.87568200  1
  O  O28  1  0.23976800  0.92335000  0.38740500  1
  O  O29  1  0.73976800  0.42335000  0.11259500  1
  O  O30  1  0.76023200  0.07665000  0.61259500  1
  O  O31  1  0.26023200  0.57665000  0.88740500  1
  O  O32  1  0.72894100  0.17280900  0.35878600  1
  O  O33  1  0.22894100  0.67280900  0.14121400  1
  O  O34  1  0.27105900  0.82719100  0.64121400  1
  O  O35  1  0.77105900  0.32719100  0.85878600  1
  O  O36  1  0.76421300  0.31421600  0.37857200  1
  O  O37  1  0.26421300  0.81421600  0.12142800  1
  O  O38  1  0.23578700  0.68578400  0.62142800  1
  O  O39  1  0.73578700  0.18578400  0.87857200  1
loop_
_geom_bond_atom_site_label_1
_geom_bond_atom_site_label_2
_geom_bond_distance
_geom_bond_site_symmetry_2
Ca0 O36 2.038797 1_555
Ca0 O18 2.294001 1_555
Ca0 O20 2.338936 1_555
Ca0 O15 2.745819 1_555
Ca0 O0 2.769613 1_555
Ca0 O11 2.936696 1_555
Ca0 O13 2.986290 1_555
Ca1 O37 2.038797 1_545
Ca1 O19 2.294001 1_455
Ca1 O21 2.338936 1_555
Ca1 O14 2.745819 1_554
Ca1 O1 2.769613 1_555
Ca1 O10 2.936696 1_445
Ca1 O12 2.986290 1_445
Ca2 O38 2.038788 1_555
Ca2 O16 2.294006 1_555
Ca2 O22 2.338943 1_555
Ca2 O13 2.745824 1_555
Ca2 O2 2.769618 1_555
Ca2 O9 2.936692 1_555
Ca2 O15 2.986287 1_555
Ca3 O39 2.038788 1_565
Ca3 O17 2.294006 1_655
Ca3 O23 2.338943 1_555
Ca3 O12 2.745824 1_556
Ca3 O3 2.769618 1_555
Ca3 O8 2.936692 1_665
Ca3 O14 2.986287 1_665
Ca4 O32 2.054014 1_565
Ca4 O28 2.309428 1_655
Ca4 O24 2.346542 1_555
Ca4 O10 2.731944 1_555
Ca4 O7 2.869705 1_665
Ca4 O5 2.875403 1_555
Ca4 O1 2.938800 1_665
Ca5 O33 2.054014 1_555
Ca5 O29 2.309428 1_555
Ca5 O25 2.346542 1_555
Ca5 O11 2.731944 1_555
Ca5 O6 2.869705 1_555
Ca5 O4 2.875403 1_554
Ca5 O0 2.938800 1_555
Ca6 O34 2.054014 1_545
Ca6 O30 2.309428 1_455
Ca6 O26 2.346542 1_555
Ca6 O8 2.731944 1_555
Ca6 O5 2.869705 1_445
Ca6 O7 2.875403 1_555
Ca6 O3 2.938800 1_445
Ca7 O35 2.054014 1_555
Ca7 O31 2.309428 1_555
Ca7 O27 2.346542 1_555
Ca7 O9 2.731944 1_555
Ca7 O4 2.869705 1_555
Ca7 O6 2.875403 1_556
Ca7 O2 2.938800 1_555
C0 O3 1.175227 1_555
C0 O9 1.176966 1_555
C1 O2 1.175227 1_555
C1 O8 1.176966 1_555
C2 O1 1.175227 1_555
C2 O11 1.176966 1_555
C3 O0 1.175227 1_555
C3 O10 1.176966 1_555
C4 O6 1.175251 1_555
C4 O12 1.175838 1_555
C5 O7 1.175251 1_555
C5 O13 1.175838 1_555
C6 O4 1.175251 1_555
C6 O14 1.175838 1_555
C7 O5 1.175251 1_555
C7 O15 1.175838 1_555
C8 O18 1.257285 1_555
C8 O20 1.272509 1_455
C9 O19 1.257285 1_555
C9 O21 1.272509 1_555
C10 O16 1.257285 1_555
C10 O22 1.272509 1_655
C11 O17 1.257285 1_555
C11 O23 1.272509 1_555
C12 O28 1.257443 1_555
C12 O24 1.272773 1_555
C13 O29 1.257443 1_555
C13 O25 1.272773 1_655
C14 O30 1.257443 1_555
C14 O26 1.272773 1_555
C15 O31 1.257443 1_555
C15 O27 1.272773 1_455
O32 O36 1.436757 1_555
O33 O37 1.436757 1_555
O34 O38 1.436757 1_555
O35 O39 1.436757 1_555
