# generated using pymatgen
data_AlV2C
_symmetry_space_group_name_H-M   'P 1'
_cell_length_a   5.77519785
_cell_length_b   5.77519785
_cell_length_c   26.20964622
_cell_angle_alpha   90.00000000
_cell_angle_beta   90.00000000
_cell_angle_gamma   119.99999324
_symmetry_Int_Tables_number   1
_chemical_formula_structural   AlV2C
_chemical_formula_sum   'Al16 V32 C16'
_cell_volume   757.05172680
_cell_formula_units_Z   16
loop_
 _symmetry_equiv_pos_site_id
 _symmetry_equiv_pos_as_xyz
  1  'x, y, z'
loop_
 _atom_site_type_symbol
 _atom_site_label
 _atom_site_symmetry_multiplicity
 _atom_site_fract_x
 _atom_site_fract_y
 _atom_site_fract_z
 _atom_site_occupancy
  Al  Al0_0  1  0.33333350  0.16666650  0.37500000  1
  Al  Al0_1  1  0.33333350  0.16666650  0.87500000  1
  Al  Al0_2  1  0.33333350  0.66666650  0.37500000  1
  Al  Al0_3  1  0.33333350  0.66666650  0.87500000  1
  Al  Al0_4  1  0.83333350  0.16666650  0.37500000  1
  Al  Al0_5  1  0.83333350  0.16666650  0.87500000  1
  Al  Al0_6  1  0.83333350  0.66666650  0.37500000  1
  Al  Al0_7  1  0.83333350  0.66666650  0.87500000  1
  Al  Al1_0  1  0.16666650  0.33333350  0.12500000  1
  Al  Al1_1  1  0.16666650  0.33333350  0.62500000  1
  Al  Al1_2  1  0.16666650  0.83333350  0.12500000  1
  Al  Al1_3  1  0.16666650  0.83333350  0.62500000  1
  Al  Al1_4  1  0.66666650  0.33333350  0.12500000  1
  Al  Al1_5  1  0.66666650  0.33333350  0.62500000  1
  Al  Al1_6  1  0.66666650  0.83333350  0.12500000  1
  Al  Al1_7  1  0.66666650  0.83333350  0.62500000  1
  V  V0_0  1  0.33333350  0.16666650  0.20680789  1
  V  V0_1  1  0.33333350  0.16666650  0.70680789  1
  V  V0_2  1  0.33333350  0.66666650  0.20680789  1
  V  V0_3  1  0.33333350  0.66666650  0.70680789  1
  V  V0_4  1  0.83333350  0.16666650  0.20680789  1
  V  V0_5  1  0.83333350  0.16666650  0.70680789  1
  V  V0_6  1  0.83333350  0.66666650  0.20680789  1
  V  V0_7  1  0.83333350  0.66666650  0.70680789  1
  V  V1_0  1  0.16666650  0.33333350  0.29319211  1
  V  V1_1  1  0.16666650  0.33333350  0.79319211  1
  V  V1_2  1  0.16666650  0.83333350  0.29319211  1
  V  V1_3  1  0.16666650  0.83333350  0.79319211  1
  V  V1_4  1  0.66666650  0.33333350  0.29319211  1
  V  V1_5  1  0.66666650  0.33333350  0.79319211  1
  V  V1_6  1  0.66666650  0.83333350  0.29319211  1
  V  V1_7  1  0.66666650  0.83333350  0.79319211  1
  V  V2_0  1  0.16666650  0.33333350  0.45680789  1
  V  V2_1  1  0.16666650  0.33333350  0.95680789  1
  V  V2_2  1  0.16666650  0.83333350  0.45680789  1
  V  V2_3  1  0.16666650  0.83333350  0.95680789  1
  V  V2_4  1  0.66666650  0.33333350  0.45680789  1
  V  V2_5  1  0.66666650  0.33333350  0.95680789  1
  V  V2_6  1  0.66666650  0.83333350  0.45680789  1
  V  V2_7  1  0.66666650  0.83333350  0.95680789  1
  V  V3_0  1  0.33333350  0.16666650  0.04319211  1
  V  V3_1  1  0.33333350  0.16666650  0.54319211  1
  V  V3_2  1  0.33333350  0.66666650  0.04319211  1
  V  V3_3  1  0.33333350  0.66666650  0.54319211  1
  V  V3_4  1  0.83333350  0.16666650  0.04319211  1
  V  V3_5  1  0.83333350  0.16666650  0.54319211  1
  V  V3_6  1  0.83333350  0.66666650  0.04319211  1
  V  V3_7  1  0.83333350  0.66666650  0.54319211  1
  C  C0_0  1  0.00000000  0.00000000  0.00000000  1
  C  C0_1  1  0.00000000  0.00000000  0.50000000  1
  C  C0_2  1  0.00000000  0.50000000  0.00000000  1
  C  C0_3  1  0.00000000  0.50000000  0.50000000  1
  C  C0_4  1  0.50000000  0.00000000  0.00000000  1
  C  C0_5  1  0.50000000  0.00000000  0.50000000  1
  C  C0_6  1  0.50000000  0.50000000  0.00000000  1
  C  C0_7  1  0.50000000  0.50000000  0.50000000  1
  C  C1_0  1  0.00000000  0.00000000  0.25000000  1
  C  C1_1  1  0.00000000  0.00000000  0.75000000  1
  C  C1_2  1  0.00000000  0.50000000  0.25000000  1
  C  C1_3  1  0.00000000  0.50000000  0.75000000  1
  C  C1_4  1  0.50000000  0.00000000  0.25000000  1
  C  C1_5  1  0.50000000  0.00000000  0.75000000  1
  C  C1_6  1  0.50000000  0.50000000  0.25000000  1
  C  C1_7  1  0.50000000  0.50000000  0.75000000  1
loop_
_geom_bond_atom_site_label_1
_geom_bond_atom_site_label_2
_geom_bond_distance
_geom_bond_site_symmetry_2
Al0_0 V2_4 2.716028 1_555
Al0_0 V2_2 2.716028 1_545
Al0_0 V1_4 2.716028 1_555
Al0_0 V1_2 2.716028 1_545
Al0_0 V2_0 2.716031 1_555
Al0_0 V1_0 2.716031 1_555
Al0_0 Al0_2 2.887599 1_555
Al0_0 Al0_4 2.887599 1_455
Al0_0 Al0_4 2.887599 1_555
Al0_0 Al0_2 2.887599 1_545
Al0_0 Al0_6 2.887599 1_555
Al0_0 Al0_6 2.887599 1_445
Al0_1 V2_3 2.716028 1_545
Al0_1 V2_5 2.716028 1_555
Al0_1 V1_3 2.716028 1_545
Al0_1 V1_5 2.716028 1_555
Al0_1 V2_1 2.716031 1_555
Al0_1 V1_1 2.716031 1_555
Al0_1 Al0_5 2.887599 1_455
Al0_1 Al0_3 2.887599 1_555
Al0_1 Al0_5 2.887599 1_555
Al0_1 Al0_3 2.887599 1_545
Al0_1 Al0_7 2.887599 1_555
Al0_1 Al0_7 2.887599 1_445
Al0_2 V2_0 2.716028 1_555
Al0_2 V2_6 2.716028 1_555
Al0_2 V1_0 2.716028 1_555
Al0_2 V1_6 2.716028 1_555
Al0_2 V2_2 2.716031 1_555
Al0_2 V1_2 2.716031 1_555
Al0_2 Al0_6 2.887599 1_455
Al0_2 Al0_6 2.887599 1_555
Al0_2 Al0_4 2.887599 1_565
Al0_2 Al0_4 2.887599 1_455
Al0_3 V2_1 2.716028 1_555
Al0_3 V2_7 2.716028 1_555
Al0_3 V1_1 2.716028 1_555
Al0_3 V1_7 2.716028 1_555
Al0_3 V2_3 2.716031 1_555
Al0_3 V1_3 2.716031 1_555
Al0_3 Al0_7 2.887599 1_455
Al0_3 Al0_7 2.887599 1_555
Al0_3 Al0_5 2.887599 1_455
Al0_3 Al0_5 2.887599 1_565
Al0_4 V2_0 2.716028 1_655
Al0_4 V2_6 2.716028 1_545
Al0_4 V1_0 2.716028 1_655
Al0_4 V1_6 2.716028 1_545
Al0_4 V2_4 2.716031 1_555
Al0_4 V1_4 2.716031 1_555
Al0_4 Al0_6 2.887599 1_555
Al0_4 Al0_6 2.887599 1_545
Al0_5 V2_1 2.716028 1_655
Al0_5 V2_7 2.716028 1_545
Al0_5 V1_1 2.716028 1_655
Al0_5 V1_7 2.716028 1_545
Al0_5 V2_5 2.716031 1_555
Al0_5 V1_5 2.716031 1_555
Al0_5 Al0_7 2.887599 1_555
Al0_5 Al0_7 2.887599 1_545
Al0_6 V2_4 2.716028 1_555
Al0_6 V2_2 2.716028 1_655
Al0_6 V1_4 2.716028 1_555
Al0_6 V1_2 2.716028 1_655
Al0_6 V2_6 2.716031 1_555
Al0_6 V1_6 2.716031 1_555
Al0_7 V2_5 2.716028 1_555
Al0_7 V2_3 2.716028 1_655
Al0_7 V1_5 2.716028 1_555
Al0_7 V1_3 2.716028 1_655
Al0_7 V2_7 2.716031 1_555
Al0_7 V1_7 2.716031 1_555
Al1_0 V3_2 2.716028 1_555
Al1_0 V3_4 2.716028 1_455
Al1_0 V0_2 2.716028 1_555
Al1_0 V0_4 2.716028 1_455
Al1_0 V3_0 2.716031 1_555
Al1_0 V0_0 2.716031 1_555
Al1_0 Al1_4 2.887599 1_455
Al1_0 Al1_4 2.887599 1_555
Al1_0 Al1_2 2.887599 1_555
Al1_0 Al1_2 2.887599 1_545
Al1_0 Al1_6 2.887599 1_555
Al1_0 Al1_6 2.887599 1_445
Al1_1 V0_5 2.716028 1_455
Al1_1 V0_3 2.716028 1_555
Al1_1 V3_5 2.716028 1_455
Al1_1 V3_3 2.716028 1_555
Al1_1 V0_1 2.716031 1_555
Al1_1 V3_1 2.716031 1_555
Al1_1 Al1_5 2.887599 1_455
Al1_1 Al1_3 2.887599 1_555
Al1_1 Al1_3 2.887599 1_545
Al1_1 Al1_5 2.887599 1_555
Al1_1 Al1_7 2.887599 1_555
Al1_1 Al1_7 2.887599 1_445
Al1_2 V3_0 2.716028 1_565
Al1_2 V3_6 2.716028 1_455
Al1_2 V0_6 2.716028 1_455
Al1_2 V0_0 2.716028 1_565
Al1_2 V3_2 2.716031 1_555
Al1_2 V0_2 2.716031 1_555
Al1_2 Al1_6 2.887599 1_455
Al1_2 Al1_6 2.887599 1_555
Al1_2 Al1_4 2.887599 1_565
Al1_2 Al1_4 2.887599 1_455
Al1_3 V0_7 2.716028 1_455
Al1_3 V0_1 2.716028 1_565
Al1_3 V3_1 2.716028 1_565
Al1_3 V3_7 2.716028 1_455
Al1_3 V0_3 2.716031 1_555
Al1_3 V3_3 2.716031 1_555
Al1_3 Al1_7 2.887599 1_455
Al1_3 Al1_7 2.887599 1_555
Al1_3 Al1_5 2.887599 1_565
Al1_3 Al1_5 2.887599 1_455
Al1_4 V3_6 2.716028 1_555
Al1_4 V3_0 2.716028 1_555
Al1_4 V0_0 2.716028 1_555
Al1_4 V0_6 2.716028 1_555
Al1_4 V3_4 2.716031 1_555
Al1_4 V0_4 2.716031 1_555
Al1_4 Al1_6 2.887599 1_555
Al1_4 Al1_6 2.887599 1_545
Al1_5 V0_7 2.716028 1_555
Al1_5 V0_1 2.716028 1_555
Al1_5 V3_7 2.716028 1_555
Al1_5 V3_1 2.716028 1_555
Al1_5 V0_5 2.716031 1_555
Al1_5 V3_5 2.716031 1_555
Al1_5 Al1_7 2.887599 1_555
Al1_5 Al1_7 2.887599 1_545
Al1_6 V3_2 2.716028 1_555
Al1_6 V3_4 2.716028 1_565
Al1_6 V0_2 2.716028 1_555
Al1_6 V0_4 2.716028 1_565
Al1_6 V3_6 2.716031 1_555
Al1_6 V0_6 2.716031 1_555
Al1_7 V0_5 2.716028 1_565
Al1_7 V0_3 2.716028 1_555
Al1_7 V3_3 2.716028 1_555
Al1_7 V3_5 2.716028 1_565
Al1_7 V0_7 2.716031 1_555
Al1_7 V3_7 2.716031 1_555
C0_0 V3_4 2.015178 1_455
C0_0 V2_3 2.015178 1_544
C0_0 V2_1 2.015180 1_554
C0_0 V3_0 2.015180 1_555
C0_0 V2_7 2.015180 1_444
C0_0 V3_6 2.015180 1_445
C0_1 V3_5 2.015178 1_455
C0_1 V2_2 2.015178 1_545
C0_1 V2_0 2.015180 1_555
C0_1 V2_6 2.015180 1_445
C0_1 V3_1 2.015180 1_555
C0_1 V3_7 2.015180 1_445
C0_2 V3_6 2.015178 1_455
C0_2 V2_1 2.015178 1_554
C0_2 V3_4 2.015180 1_455
C0_2 V2_5 2.015180 1_454
C0_2 V2_3 2.015180 1_554
C0_2 V3_2 2.015180 1_555
C0_3 V3_7 2.015178 1_455
C0_3 V2_0 2.015178 1_555
C0_3 V2_2 2.015180 1_555
C0_3 V3_3 2.015180 1_555
C0_3 V2_4 2.015180 1_455
C0_3 V3_5 2.015180 1_455
C0_4 V3_0 2.015178 1_555
C0_4 V2_7 2.015178 1_544
C0_4 V2_5 2.015180 1_554
C0_4 V2_3 2.015180 1_544
C0_4 V3_4 2.015180 1_555
C0_4 V3_2 2.015180 1_545
C0_5 V3_1 2.015178 1_555
C0_5 V2_6 2.015178 1_545
C0_5 V2_4 2.015180 1_555
C0_5 V2_2 2.015180 1_545
C0_5 V3_5 2.015180 1_555
C0_5 V3_3 2.015180 1_545
C0_6 V3_2 2.015178 1_555
C0_6 V2_5 2.015178 1_554
C0_6 V2_7 2.015180 1_554
C0_6 V3_0 2.015180 1_555
C0_6 V2_1 2.015180 1_554
C0_6 V3_6 2.015180 1_555
C0_7 V3_3 2.015178 1_555
C0_7 V2_4 2.015178 1_555
C0_7 V3_1 2.015180 1_555
C0_7 V2_6 2.015180 1_555
C0_7 V2_0 2.015180 1_555
C0_7 V3_7 2.015180 1_555
C1_0 V0_4 2.015178 1_455
C1_0 V1_2 2.015178 1_545
C1_0 V0_0 2.015180 1_555
C1_0 V1_0 2.015180 1_555
C1_0 V1_6 2.015180 1_445
C1_0 V0_6 2.015180 1_445
C1_1 V1_3 2.015178 1_545
C1_1 V0_5 2.015178 1_455
C1_1 V1_1 2.015180 1_555
C1_1 V1_7 2.015180 1_445
C1_1 V0_1 2.015180 1_555
C1_1 V0_7 2.015180 1_445
C1_2 V0_6 2.015178 1_455
C1_2 V1_0 2.015178 1_555
C1_2 V0_2 2.015180 1_555
C1_2 V0_4 2.015180 1_455
C1_2 V1_4 2.015180 1_455
C1_2 V1_2 2.015180 1_555
C1_3 V1_1 2.015178 1_555
C1_3 V0_7 2.015178 1_455
C1_3 V1_5 2.015180 1_455
C1_3 V1_3 2.015180 1_555
C1_3 V0_3 2.015180 1_555
C1_3 V0_5 2.015180 1_455
C1_4 V0_0 2.015178 1_555
C1_4 V1_6 2.015178 1_545
C1_4 V1_4 2.015180 1_555
C1_4 V0_4 2.015180 1_555
C1_4 V1_2 2.015180 1_545
C1_4 V0_2 2.015180 1_545
C1_5 V0_1 2.015178 1_555
C1_5 V1_7 2.015178 1_545
C1_5 V1_5 2.015180 1_555
C1_5 V1_3 2.015180 1_545
C1_5 V0_5 2.015180 1_555
C1_5 V0_3 2.015180 1_545
C1_6 V0_2 2.015178 1_555
C1_6 V1_4 2.015178 1_555
C1_6 V0_0 2.015180 1_555
C1_6 V1_6 2.015180 1_555
C1_6 V0_6 2.015180 1_555
C1_6 V1_0 2.015180 1_555
C1_7 V1_5 2.015178 1_555
C1_7 V0_3 2.015178 1_555
C1_7 V1_7 2.015180 1_555
C1_7 V1_1 2.015180 1_555
C1_7 V0_1 2.015180 1_555
C1_7 V0_7 2.015180 1_555
