# generated using pymatgen
data_CoH15Br2(N3O)2
_symmetry_space_group_name_H-M   'P 1'
_cell_length_a   7.25532034
_cell_length_b   7.25532034
_cell_length_c   11.48388117
_cell_angle_alpha   86.26295206
_cell_angle_beta   86.26295206
_cell_angle_gamma   78.94298084
_symmetry_Int_Tables_number   1
_chemical_formula_structural   CoH15Br2(N3O)2
_chemical_formula_sum   'Co2 H30 Br4 N12 O4'
_cell_volume   591.16761184
_cell_formula_units_Z   2
loop_
 _symmetry_equiv_pos_site_id
 _symmetry_equiv_pos_as_xyz
  1  'x, y, z'
loop_
 _atom_site_type_symbol
 _atom_site_label
 _atom_site_symmetry_multiplicity
 _atom_site_fract_x
 _atom_site_fract_y
 _atom_site_fract_z
 _atom_site_occupancy
  Co  Co0  1  0.71216100  0.28798900  0.24988000  1
  Co  Co1  1  0.28798900  0.71216100  0.74988000  1
  H  H0  1  0.03018400  0.41589200  0.27718700  1
  H  H1  1  0.58665400  0.96956200  0.22024800  1
  H  H2  1  0.96956200  0.58665400  0.72024800  1
  H  H3  1  0.41589200  0.03018400  0.77718700  1
  H  H4  1  0.91212500  0.54786000  0.17151300  1
  H  H5  1  0.45447700  0.08565500  0.32686500  1
  H  H6  1  0.08565500  0.45447700  0.82686500  1
  H  H7  1  0.54786000  0.91212500  0.67151300  1
  H  H8  1  0.74100900  0.43970400  0.03517600  1
  H  H9  1  0.56203700  0.25795200  0.46455900  1
  H  H10  1  0.25795200  0.56203700  0.96455900  1
  H  H11  1  0.43970400  0.74100900  0.53517600  1
  H  H12  1  0.84506500  0.57667900  0.31072700  1
  H  H13  1  0.42418700  0.15466000  0.18849500  1
  H  H14  1  0.15466000  0.42418700  0.68849500  1
  H  H15  1  0.57667900  0.84506500  0.81072700  1
  H  H16  1  0.59502500  0.28914300  0.03834700  1
  H  H17  1  0.71276100  0.40428800  0.46124000  1
  H  H18  1  0.40428800  0.71276100  0.96124000  1
  H  H19  1  0.28914300  0.59502500  0.53834700  1
  H  H20  1  0.82522500  0.21208000  0.02906700  1
  H  H21  1  0.79021700  0.17361100  0.46877700  1
  H  H22  1  0.17361100  0.79021700  0.96877700  1
  H  H23  1  0.21208000  0.82522500  0.52906700  1
  H  H24  1  0.98626500  0.03236300  0.17174400  1
  H  H25  1  0.03236300  0.98626500  0.67174400  1
  H  H26  1  0.89466100  0.95247900  0.29832700  1
  H  H27  1  0.95247900  0.89466100  0.79832700  1
  H  H28  1  0.03966100  0.10015500  0.29952900  1
  H  H29  1  0.10015500  0.03966100  0.79952900  1
  Br  Br0  1  0.19894900  0.20963700  0.47943600  1
  Br  Br1  1  0.78630700  0.79586400  0.00868000  1
  Br  Br2  1  0.79586400  0.78630700  0.50868000  1
  Br  Br3  1  0.20963700  0.19894900  0.97943600  1
  N  N0  1  0.49684300  0.50155200  0.24950300  1
  N  N1  1  0.50155200  0.49684300  0.74950300  1
  N  N2  1  0.89884800  0.47720500  0.25148300  1
  N  N3  1  0.52468000  0.10015000  0.24677000  1
  N  N4  1  0.10015000  0.52468000  0.74677000  1
  N  N5  1  0.47720500  0.89884800  0.75148300  1
  N  N6  1  0.93305300  0.06830300  0.25394100  1
  N  N7  1  0.06830300  0.93305300  0.75394100  1
  N  N8  1  0.72040200  0.30865300  0.06707100  1
  N  N9  1  0.69254600  0.27914100  0.43238900  1
  N  N10  1  0.27914100  0.69254600  0.93238900  1
  N  N11  1  0.30865300  0.72040200  0.56707100  1
  O  O0  1  0.36475800  0.49621000  0.18744700  1
  O  O1  1  0.50156400  0.63355000  0.31159800  1
  O  O2  1  0.63355000  0.50156400  0.81159800  1
  O  O3  1  0.49621000  0.36475800  0.68744700  1
loop_
_geom_bond_atom_site_label_1
_geom_bond_atom_site_label_2
_geom_bond_distance
_geom_bond_site_symmetry_2
Co0 N0 1.978101 1_555
Co0 N6 2.032578 1_555
Co0 N9 2.089092 1_555
Co0 N8 2.092701 1_555
Co0 N3 2.105364 1_555
Co0 N2 2.106979 1_555
Co1 N1 1.978101 1_555
Co1 N7 2.032578 1_555
Co1 N10 2.089092 1_555
Co1 N11 2.092701 1_555
Co1 N4 2.105364 1_555
Co1 N5 2.106979 1_555
H0 N2 1.024679 1_455
H1 N3 1.024196 1_565
H2 N4 1.024196 1_655
H3 N5 1.024679 1_545
H4 N2 1.030291 1_555
H5 N3 1.031210 1_555
H6 N4 1.031210 1_555
H7 N5 1.030291 1_555
H8 N8 1.030804 1_555
H9 N9 1.029339 1_555
H10 N10 1.029339 1_555
H11 N11 1.030804 1_555
H12 N2 1.028297 1_555
H13 N3 1.026825 1_555
H14 N4 1.026825 1_555
H15 N5 1.028297 1_555
H16 N8 1.025134 1_555
H17 N9 1.025839 1_555
H18 N10 1.025839 1_555
H19 N11 1.025134 1_555
H20 N8 1.025674 1_555
H21 N9 1.025567 1_555
H22 N10 1.025567 1_555
H23 N11 1.025674 1_555
H24 N6 1.026662 1_555
H25 N7 1.026662 1_555
H26 N6 1.029086 1_565
H27 N7 1.029086 1_655
H28 N6 1.030955 1_455
H29 N7 1.030955 1_545
N0 O1 1.237589 1_555
N0 O0 1.238794 1_555
N1 O2 1.237589 1_555
N1 O3 1.238794 1_555
