# generated using pymatgen
data_GdCu2
_symmetry_space_group_name_H-M   'P 1'
_cell_length_a   4.30344967
_cell_length_b   5.44952432
_cell_length_c   5.44942768
_cell_angle_alpha   78.31667868
_cell_angle_beta   66.74318282
_cell_angle_gamma   66.74361951
_symmetry_Int_Tables_number   1
_chemical_formula_structural   GdCu2
_chemical_formula_sum   'Gd2 Cu4'
_cell_volume   107.70953982
_cell_formula_units_Z   2
loop_
 _symmetry_equiv_pos_site_id
 _symmetry_equiv_pos_as_xyz
  1  'x, y, z'
loop_
 _atom_site_type_symbol
 _atom_site_label
 _atom_site_symmetry_multiplicity
 _atom_site_fract_x
 _atom_site_fract_y
 _atom_site_fract_z
 _atom_site_occupancy
  Gd  Gd0  1  0.54336593  0.70663580  0.20663035  1
  Gd  Gd1  1  0.45663407  0.29336420  0.79336965  1
  Cu  Cu0  1  0.16499416  0.28101502  0.38899767  1
  Cu  Cu1  1  0.83500584  0.71898498  0.61100233  1
  Cu  Cu2  1  0.83500333  0.11100210  0.21899224  1
  Cu  Cu3  1  0.16499667  0.88899790  0.78100776  1
loop_
_geom_bond_atom_site_label_1
_geom_bond_atom_site_label_2
_geom_bond_distance
_geom_bond_site_symmetry_2
Cu0 Cu2 2.481719 1_455
Cu0 Cu2 2.481720 1_555
Cu0 Cu1 2.512545 1_455
Cu0 Cu3 2.697961 1_545
Cu0 Gd1 2.957418 1_455
Cu0 Gd1 2.957421 1_555
Cu0 Gd1 2.979316 1_554
Cu0 Gd0 3.064892 1_545
Cu0 Gd0 3.128860 1_555
Cu0 Gd0 3.128870 1_455
Cu1 Cu3 2.481719 1_655
Cu1 Cu3 2.481720 1_555
Cu1 Cu2 2.697961 1_565
Cu1 Gd0 2.957418 1_655
Cu1 Gd0 2.957421 1_555
Cu1 Gd0 2.979316 1_556
Cu1 Gd1 3.064892 1_565
Cu1 Gd1 3.128860 1_555
Cu1 Gd1 3.128870 1_655
Cu2 Cu3 2.512579 1_644
Cu2 Gd0 2.957428 1_645
Cu2 Gd0 2.957437 1_545
Cu2 Gd0 2.979405 1_555
Cu2 Gd1 3.064824 1_555
Cu2 Gd1 3.128838 1_554
Cu2 Gd1 3.128841 1_654
Cu3 Gd1 2.957428 1_465
Cu3 Gd1 2.957437 1_565
Cu3 Gd1 2.979405 1_555
Cu3 Gd0 3.064824 1_555
Cu3 Gd0 3.128838 1_556
Cu3 Gd0 3.128841 1_456
