# generated using pymatgen
data_Mn4Ga3Cu2
_symmetry_space_group_name_H-M   'P 1'
_cell_length_a   4.19964949
_cell_length_b   4.19964949
_cell_length_c   15.94312200
_cell_angle_alpha   90.00000000
_cell_angle_beta   90.00000000
_cell_angle_gamma   119.99999199
_symmetry_Int_Tables_number   1
_chemical_formula_structural   Mn4Ga3Cu2
_chemical_formula_sum   'Mn8 Ga6 Cu4'
_cell_volume   243.51747187
_cell_formula_units_Z   2
loop_
 _symmetry_equiv_pos_site_id
 _symmetry_equiv_pos_as_xyz
  1  'x, y, z'
loop_
 _atom_site_type_symbol
 _atom_site_label
 _atom_site_symmetry_multiplicity
 _atom_site_fract_x
 _atom_site_fract_y
 _atom_site_fract_z
 _atom_site_occupancy
  Mn  Mn0  1  0.66666700  0.33333300  0.66691100  1
  Mn  Mn1  1  0.66666700  0.33333300  0.33308900  1
  Mn  Mn2  1  0.33333300  0.66666700  0.08282700  1
  Mn  Mn3  1  0.33333300  0.66666700  0.74778300  1
  Mn  Mn4  1  0.33333300  0.66666700  0.41402500  1
  Mn  Mn5  1  0.33333300  0.66666700  0.25221700  1
  Mn  Mn6  1  0.33333300  0.66666700  0.91717300  1
  Mn  Mn7  1  0.33333300  0.66666700  0.58597500  1
  Ga  Ga0  1  0.00000000  0.00000000  0.00000000  1
  Ga  Ga1  1  0.00000000  0.00000000  0.66699000  1
  Ga  Ga2  1  0.00000000  0.00000000  0.33301000  1
  Ga  Ga3  1  0.66666700  0.33333300  0.16764600  1
  Ga  Ga4  1  0.66666700  0.33333300  0.83235400  1
  Ga  Ga5  1  0.66666700  0.33333300  0.50000000  1
  Cu  Cu0  1  0.00000000  0.00000000  0.16808900  1
  Cu  Cu1  1  0.00000000  0.00000000  0.83191100  1
  Cu  Cu2  1  0.00000000  0.00000000  0.50000000  1
  Cu  Cu3  1  0.66666700  0.33333300  0.00000000  1
loop_
_geom_bond_atom_site_label_1
_geom_bond_atom_site_label_2
_geom_bond_distance
_geom_bond_site_symmetry_2
Mn0 Mn3 2.746168 1_545
Mn0 Mn3 2.746168 1_655
Mn0 Mn3 2.746174 1_555
Mn0 Mn7 2.746647 1_545
Mn0 Mn7 2.746647 1_655
Mn0 Mn7 2.746653 1_555
Mn1 Mn5 2.746168 1_545
Mn1 Mn5 2.746168 1_655
Mn1 Mn5 2.746174 1_555
Mn1 Mn4 2.746647 1_545
Mn1 Mn4 2.746647 1_655
Mn1 Mn4 2.746653 1_555
Mn2 Mn6 2.641042 1_554
Mn2 Mn5 2.700605 1_555
Mn3 Mn7 2.579725 1_555
Mn3 Mn6 2.700605 1_555
Mn4 Mn5 2.579725 1_555
Mn4 Mn7 2.741420 1_555
Ga0 Mn2 2.760939 1_545
Ga0 Mn6 2.760939 1_544
Ga0 Mn6 2.760942 1_554
Ga0 Mn2 2.760942 1_555
Ga0 Mn2 2.760942 1_445
Ga0 Mn6 2.760942 1_444
Ga1 Mn0 2.424667 1_455
Ga1 Mn0 2.424670 1_555
Ga1 Mn0 2.424670 1_445
Ga1 Mn3 2.745576 1_545
Ga1 Mn3 2.745580 1_555
Ga1 Mn3 2.745580 1_445
Ga1 Mn7 2.747239 1_545
Ga1 Mn7 2.747242 1_555
Ga1 Mn7 2.747242 1_445
Ga2 Mn1 2.424667 1_455
Ga2 Mn1 2.424670 1_555
Ga2 Mn1 2.424670 1_445
Ga2 Mn5 2.745576 1_545
Ga2 Mn5 2.745580 1_445
Ga2 Mn5 2.745580 1_555
Ga2 Mn4 2.747239 1_545
Ga2 Mn4 2.747242 1_555
Ga2 Mn4 2.747242 1_445
Ga3 Mn1 2.637678 1_555
Ga3 Mn5 2.774345 1_545
Ga3 Mn5 2.774345 1_655
Ga3 Mn5 2.774351 1_555
Ga3 Mn2 2.776269 1_545
Ga3 Mn2 2.776269 1_655
Ga3 Mn2 2.776275 1_555
Ga4 Mn0 2.637678 1_555
Ga4 Mn3 2.774345 1_545
Ga4 Mn3 2.774345 1_655
Ga4 Mn3 2.774351 1_555
Ga4 Mn6 2.776269 1_545
Ga4 Mn6 2.776269 1_655
Ga4 Mn6 2.776275 1_555
Ga5 Mn1 2.661082 1_555
Ga5 Mn0 2.661082 1_555
Ga5 Mn7 2.785292 1_545
Ga5 Mn4 2.785292 1_545
Ga5 Mn7 2.785292 1_655
Ga5 Mn4 2.785292 1_655
Ga5 Mn7 2.785298 1_555
Ga5 Mn4 2.785298 1_555
Cu0 Ga3 2.424677 1_455
Cu0 Ga3 2.424680 1_555
Cu0 Ga3 2.424680 1_445
Cu0 Ga2 2.629356 1_555
Cu0 Ga0 2.679863 1_555
Cu0 Mn5 2.770919 1_545
Cu0 Mn5 2.770923 1_555
Cu0 Mn5 2.770923 1_445
Cu0 Mn2 2.779716 1_545
Cu0 Mn2 2.779719 1_555
Cu0 Mn2 2.779719 1_445
Cu1 Ga4 2.424677 1_455
Cu1 Ga4 2.424680 1_555
Cu1 Ga4 2.424680 1_445
Cu1 Ga1 2.629356 1_555
Cu1 Ga0 2.679863 1_556
Cu1 Mn3 2.770919 1_545
Cu1 Mn3 2.770923 1_555
Cu1 Mn3 2.770923 1_445
Cu1 Mn6 2.779716 1_545
Cu1 Mn6 2.779719 1_555
Cu1 Mn6 2.779719 1_445
Cu2 Ga5 2.424666 1_455
Cu2 Ga5 2.424670 1_445
Cu2 Ga5 2.424670 1_555
Cu2 Ga1 2.662342 1_555
Cu2 Ga2 2.662342 1_555
Cu2 Mn7 2.785292 1_545
Cu2 Mn4 2.785292 1_545
Cu2 Mn7 2.785296 1_555
Cu2 Mn4 2.785296 1_445
Cu2 Mn7 2.785296 1_445
Cu2 Mn4 2.785296 1_555
Cu3 Ga0 2.424666 1_655
Cu3 Ga0 2.424670 1_555
Cu3 Ga0 2.424670 1_665
Cu3 Ga4 2.672801 1_554
Cu3 Ga3 2.672801 1_555
Cu3 Mn6 2.760939 1_544
Cu3 Mn2 2.760939 1_545
Cu3 Mn6 2.760939 1_654
Cu3 Mn2 2.760939 1_655
Cu3 Mn6 2.760945 1_554
Cu3 Mn2 2.760945 1_555
