# generated using pymatgen
data_RbO2
_symmetry_space_group_name_H-M   'P 1'
_cell_length_a   4.08842973
_cell_length_b   4.08843111
_cell_length_c   4.50401697
_cell_angle_alpha   116.99191547
_cell_angle_beta   116.99191686
_cell_angle_gamma   90.00000592
_symmetry_Int_Tables_number   1
_chemical_formula_structural   RbO2
_chemical_formula_sum   'Rb1 O2'
_cell_volume   57.73070741
_cell_formula_units_Z   1
loop_
 _symmetry_equiv_pos_site_id
 _symmetry_equiv_pos_as_xyz
  1  'x, y, z'
loop_
 _atom_site_type_symbol
 _atom_site_label
 _atom_site_symmetry_multiplicity
 _atom_site_fract_x
 _atom_site_fract_y
 _atom_site_fract_z
 _atom_site_occupancy
  Rb  Rb0  1  -0.00000000  -0.00000000  -0.00000000  1
  O  O0  1  0.40279149  0.40279149  0.80558097  1
  O  O1  1  0.59720851  0.59720851  0.19441903  1
loop_
_geom_bond_atom_site_label_1
_geom_bond_atom_site_label_2
_geom_bond_distance
_geom_bond_site_symmetry_2
O0 O1 1.342958 1_556
O0 Rb0 2.782293 1_555
O0 Rb0 2.967909 1_666
O0 Rb0 2.967914 1_656
O0 Rb0 2.967915 1_566
O0 Rb0 2.967920 1_556
O1 Rb0 2.782293 1_666
O1 Rb0 2.967909 1_555
O1 Rb0 2.967914 1_565
O1 Rb0 2.967915 1_655
O1 Rb0 2.967920 1_665
