# generated using pymatgen
data_Ba4ScTi4BiO15
_symmetry_space_group_name_H-M   'P 1'
_cell_length_a   14.53013532
_cell_length_b   14.53013532
_cell_length_c   4.04014100
_cell_angle_alpha   90.00000000
_cell_angle_beta   90.00000000
_cell_angle_gamma   157.20603308
_symmetry_Int_Tables_number   1
_chemical_formula_structural   Ba4ScTi4BiO15
_chemical_formula_sum   'Ba4 Sc1 Ti4 Bi1 O15'
_cell_volume   330.45795556
_cell_formula_units_Z   1
loop_
 _symmetry_equiv_pos_site_id
 _symmetry_equiv_pos_as_xyz
  1  'x, y, z'
loop_
 _atom_site_type_symbol
 _atom_site_label
 _atom_site_symmetry_multiplicity
 _atom_site_fract_x
 _atom_site_fract_y
 _atom_site_fract_z
 _atom_site_occupancy
  Ba  Ba0  1  0.60023400  0.39976600  0.00000000  1
  Ba  Ba1  1  0.20018500  0.79981500  0.00000000  1
  Ba  Ba2  1  0.79981500  0.20018500  0.00000000  1
  Ba  Ba3  1  0.39976600  0.60023400  0.00000000  1
  Sc  Sc0  1  0.50000000  0.50000000  0.50000000  1
  Ti  Ti0  1  0.09978600  0.90021400  0.50000000  1
  Ti  Ti1  1  0.70002000  0.29998000  0.50000000  1
  Ti  Ti2  1  0.29998000  0.70002000  0.50000000  1
  Ti  Ti3  1  0.90021400  0.09978600  0.50000000  1
  Bi  Bi0  1  0.00000000  0.00000000  0.00000000  1
  O  O0  1  0.90166100  0.09833900  0.00000000  1
  O  O1  1  0.50000000  0.50000000  0.00000000  1
  O  O2  1  0.09833900  0.90166100  0.00000000  1
  O  O3  1  0.70004800  0.29995200  0.00000000  1
  O  O4  1  0.29995200  0.70004800  0.00000000  1
  O  O5  1  0.10207800  0.40236500  0.50000000  1
  O  O6  1  0.72062700  0.82061900  0.50000000  1
  O  O7  1  0.27937300  0.17938100  0.50000000  1
  O  O8  1  0.89792200  0.59763500  0.50000000  1
  O  O9  1  0.50000000  0.00000000  0.50000000  1
  O  O10  1  0.17938100  0.27937300  0.50000000  1
  O  O11  1  0.82061900  0.72062700  0.50000000  1
  O  O12  1  0.40236500  0.10207800  0.50000000  1
  O  O13  1  0.00000000  0.50000000  0.50000000  1
  O  O14  1  0.59763500  0.89792200  0.50000000  1
loop_
_geom_bond_atom_site_label_1
_geom_bond_atom_site_label_2
_geom_bond_distance
_geom_bond_site_symmetry_2
Ba0 O3 2.843426 1_555
Ba0 O12 2.850735 1_555
Ba0 O12 2.850735 1_554
Ba0 O8 2.850735 1_554
Ba0 O8 2.850735 1_555
Ba0 O1 2.855391 1_555
Ba0 O2 2.871745 1_545
Ba0 O2 2.871745 1_655
Ba0 O7 2.922997 1_554
Ba0 O7 2.922997 1_555
Ba0 O11 2.922997 1_554
Ba0 O11 2.922997 1_555
Ba1 O4 2.842087 1_555
Ba1 O13 2.855785 1_555
Ba1 O13 2.855785 1_554
Ba1 O9 2.855785 1_564
Ba1 O9 2.855785 1_565
Ba1 O8 2.865424 1_454
Ba1 O8 2.865424 1_455
Ba1 O12 2.865424 1_564
Ba1 O12 2.865424 1_565
Ba1 O3 2.871241 1_455
Ba1 O3 2.871241 1_565
Ba1 O2 2.901312 1_555
Ba2 O3 2.842087 1_555
Ba2 O9 2.855785 1_555
Ba2 O9 2.855785 1_554
Ba2 O13 2.855785 1_655
Ba2 O13 2.855785 1_654
Ba2 O14 2.865424 1_544
Ba2 O14 2.865424 1_545
Ba2 O5 2.865424 1_655
Ba2 O5 2.865424 1_654
Ba2 O4 2.871241 1_545
Ba2 O4 2.871241 1_655
Ba2 O0 2.901312 1_555
Ba3 O4 2.843426 1_555
Ba3 O5 2.850735 1_554
Ba3 O5 2.850735 1_555
Ba3 O14 2.850735 1_555
Ba3 O14 2.850735 1_554
Ba3 O1 2.855391 1_555
Ba3 O0 2.871745 1_455
Ba3 O0 2.871745 1_565
Ba3 O10 2.922997 1_554
Ba3 O10 2.922997 1_555
Ba3 O6 2.922997 1_555
Ba3 O6 2.922997 1_554
Bi0 O6 2.800743 1_444
Bi0 O11 2.800743 1_444
Bi0 O11 2.800743 1_445
Bi0 O6 2.800743 1_445
Bi0 O7 2.800743 1_554
Bi0 O10 2.800743 1_554
Bi0 O7 2.800743 1_555
Bi0 O10 2.800743 1_555
Bi0 O0 2.801407 1_455
Bi0 O2 2.801407 1_545
Bi0 O1 2.871238 1_555
Bi0 O1 2.871238 1_445
O0 Ti3 2.020491 1_555
O0 Ti3 2.020491 1_554
O1 Sc0 2.020071 1_555
O1 Sc0 2.020071 1_554
O2 Ti0 2.020491 1_554
O2 Ti0 2.020491 1_555
O3 Ti1 2.020071 1_554
O3 Ti1 2.020071 1_555
O4 Ti2 2.020071 1_555
O4 Ti2 2.020071 1_554
O5 Ti2 2.010805 1_555
O5 Ti3 2.038558 1_455
O6 Ti3 1.935664 1_565
O6 Sc0 2.107971 1_555
O7 Ti0 1.935664 1_545
O7 Sc0 2.107971 1_555
O8 Ti1 2.010805 1_555
O8 Ti0 2.038558 1_655
O9 Ti2 2.021927 1_545
O9 Ti1 2.021927 1_555
O10 Ti3 1.935664 1_455
O10 Sc0 2.107971 1_555
O11 Ti0 1.935664 1_655
O11 Sc0 2.107971 1_555
O12 Ti1 2.010805 1_555
O12 Ti0 2.038558 1_545
O13 Ti1 2.021927 1_455
O13 Ti2 2.021927 1_555
O14 Ti2 2.010805 1_555
O14 Ti3 2.038558 1_565
