# generated using pymatgen
data_Ba3GaN3
_symmetry_space_group_name_H-M   'P 1'
_cell_length_a   8.07993471
_cell_length_b   8.07993866
_cell_length_c   5.79138710
_cell_angle_alpha   90.00000000
_cell_angle_beta   90.00000000
_cell_angle_gamma   119.99993704
_symmetry_Int_Tables_number   1
_chemical_formula_structural   Ba3GaN3
_chemical_formula_sum   'Ba6 Ga2 N6'
_cell_volume   327.43825479
_cell_formula_units_Z   2
loop_
 _symmetry_equiv_pos_site_id
 _symmetry_equiv_pos_as_xyz
  1  'x, y, z'
loop_
 _atom_site_type_symbol
 _atom_site_label
 _atom_site_symmetry_multiplicity
 _atom_site_fract_x
 _atom_site_fract_y
 _atom_site_fract_z
 _atom_site_occupancy
  Ba  Ba0  1  0.93079760  0.63808824  0.25000000  1
  Ba  Ba1  1  0.70729063  0.06920240  0.25000000  1
  Ba  Ba2  1  0.36191276  0.29270937  0.25000000  1
  Ba  Ba3  1  0.06920240  0.36191176  0.75000000  1
  Ba  Ba4  1  0.29270937  0.93079760  0.75000000  1
  Ba  Ba5  1  0.63808724  0.70729063  0.75000000  1
  Ga  Ga0  1  0.66666600  0.33333300  0.75000000  1
  Ga  Ga1  1  0.33333400  0.66666700  0.25000000  1
  N  N0  1  0.89082624  0.58167250  0.75000000  1
  N  N1  1  0.69084626  0.10917376  0.75000000  1
  N  N2  1  0.41832650  0.30915374  0.75000000  1
  N  N3  1  0.10917376  0.41832750  0.25000000  1
  N  N4  1  0.30915374  0.89082724  0.25000000  1
  N  N5  1  0.58167250  0.69084626  0.25000000  1
loop_
_geom_bond_atom_site_label_1
_geom_bond_atom_site_label_2
_geom_bond_distance
_geom_bond_site_symmetry_2
Ba0 N4 2.696874 1_655
Ba0 N3 2.790947 1_655
Ba0 N0 2.924024 1_555
Ba0 N0 2.924024 1_554
Ba0 N5 3.056425 1_555
Ba1 N5 2.696872 1_545
Ba1 N4 2.790949 1_545
Ba1 N1 2.924024 1_554
Ba1 N1 2.924024 1_555
Ba1 N3 3.056429 1_655
Ba2 N3 2.696877 1_555
Ba2 N5 2.790950 1_555
Ba2 N2 2.924022 1_555
Ba2 N2 2.924022 1_554
Ba2 N4 3.056417 1_545
Ba3 N1 2.696872 1_455
Ba3 N0 2.790947 1_455
Ba3 N3 2.924024 1_555
Ba3 N3 2.924024 1_556
Ba3 N2 3.056417 1_555
Ba4 N2 2.696874 1_565
Ba4 N1 2.790948 1_565
Ba4 N4 2.924023 1_555
Ba4 N4 2.924023 1_556
Ba4 N0 3.056429 1_455
Ba5 N0 2.696877 1_555
Ba5 N2 2.790950 1_555
Ba5 N5 2.924023 1_555
Ba5 N5 2.924023 1_556
Ba5 N1 3.056425 1_565
Ga0 N1 1.916364 1_555
Ga0 N2 1.916367 1_555
Ga0 N0 1.916369 1_555
Ga1 N5 1.916359 1_555
Ga1 N3 1.916369 1_555
Ga1 N4 1.916372 1_555
