# generated using pymatgen
data_BaInGa
_symmetry_space_group_name_H-M   'P 1'
_cell_length_a   6.44899969
_cell_length_b   6.44899969
_cell_length_c   8.37832760
_cell_angle_alpha   49.93569142
_cell_angle_beta   49.93569142
_cell_angle_gamma   46.87074344
_symmetry_Int_Tables_number   1
_chemical_formula_structural   BaInGa
_chemical_formula_sum   'Ba2 In2 Ga2'
_cell_volume   181.23106320
_cell_formula_units_Z   2
loop_
 _symmetry_equiv_pos_site_id
 _symmetry_equiv_pos_as_xyz
  1  'x, y, z'
loop_
 _atom_site_type_symbol
 _atom_site_label
 _atom_site_symmetry_multiplicity
 _atom_site_fract_x
 _atom_site_fract_y
 _atom_site_fract_z
 _atom_site_occupancy
  Ba  Ba0  1  0.74878200  0.74878200  0.69923700  1
  Ba  Ba1  1  0.25121800  0.25121800  0.30076300  1
  In  In0  1  0.57450500  0.57450500  0.25837300  1
  In  In1  1  0.42549500  0.42549500  0.74162700  1
  Ga  Ga0  1  0.06726400  0.06726400  0.08582600  1
  Ga  Ga1  1  0.93273600  0.93273600  0.91417400  1
loop_
_geom_bond_atom_site_label_1
_geom_bond_atom_site_label_2
_geom_bond_distance
_geom_bond_site_symmetry_2
Ba0 Ga0 3.452824 1_656
Ba0 Ga0 3.452824 1_566
Ba0 In1 3.481369 1_565
Ba0 In1 3.481369 1_655
Ba0 In0 3.555801 1_556
Ba0 In1 3.585585 1_555
Ba0 Ga0 3.666237 1_665
Ba0 Ga1 3.671797 1_555
Ba0 Ga1 3.789466 1_455
Ba0 Ga1 3.789466 1_545
Ba0 In0 3.886378 1_565
Ba0 In0 3.886378 1_655
Ba0 Ba1 4.194067 1_655
Ba0 Ba1 4.194067 1_565
Ba0 Ba1 4.293595 1_556
Ba0 Ba1 4.318347 1_665
Ba1 Ga1 3.452824 1_544
Ba1 Ga1 3.452824 1_454
Ba1 In0 3.481369 1_455
Ba1 In0 3.481369 1_545
Ba1 In1 3.555801 1_554
Ba1 In0 3.585585 1_555
Ba1 Ga1 3.666237 1_445
Ba1 Ga0 3.671797 1_555
Ba1 Ga0 3.789466 1_565
Ba1 Ga0 3.789466 1_655
Ba1 In1 3.886378 1_545
Ba1 In1 3.886378 1_455
In0 In1 3.079865 1_555
Ga0 Ga1 2.795552 1_444
Ga0 In0 2.974823 1_455
Ga0 In0 2.974823 1_545
Ga0 In1 3.022512 1_554
Ga1 In1 2.974823 1_565
Ga1 In1 2.974823 1_655
Ga1 In0 3.022512 1_556
