# generated using pymatgen
data_GaAs
_symmetry_space_group_name_H-M   'P 1'
_cell_length_a   12.96934715
_cell_length_b   13.63101490
_cell_length_c   13.18272457
_cell_angle_alpha   87.61451738
_cell_angle_beta   88.34906229
_cell_angle_gamma   89.35110935
_symmetry_Int_Tables_number   1
_chemical_formula_structural   GaAs
_chemical_formula_sum   'Ga50 As50'
_cell_volume   2327.40696357
_cell_formula_units_Z   50
loop_
 _symmetry_equiv_pos_site_id
 _symmetry_equiv_pos_as_xyz
  1  'x, y, z'
loop_
 _atom_site_type_symbol
 _atom_site_label
 _atom_site_symmetry_multiplicity
 _atom_site_fract_x
 _atom_site_fract_y
 _atom_site_fract_z
 _atom_site_occupancy
  Ga  Ga0  1  0.51664554  0.45544856  0.93827361  1
  Ga  Ga1  1  0.29919319  0.62125282  0.10041775  1
  Ga  Ga2  1  0.63660864  0.40790337  0.21921948  1
  Ga  Ga3  1  0.05081116  0.87106004  0.91871206  1
  Ga  Ga4  1  0.80110256  0.71747013  0.04990895  1
  Ga  Ga5  1  0.13153869  0.37263698  0.66882411  1
  Ga  Ga6  1  0.58189142  0.26098294  0.40503486  1
  Ga  Ga7  1  0.02719478  0.64495125  0.80520950  1
  Ga  Ga8  1  0.90866498  0.04236174  0.65704396  1
  Ga  Ga9  1  0.97731034  0.62615393  -0.00030147  1
  Ga  Ga10  1  0.02135160  0.30704585  0.03805874  1
  Ga  Ga11  1  0.09902029  0.50241507  0.08491657  1
  Ga  Ga12  1  0.44172820  0.25092502  0.55852813  1
  Ga  Ga13  1  0.91887167  0.13193011  0.05839012  1
  Ga  Ga14  1  0.65760039  0.76021369  0.59946822  1
  Ga  Ga15  1  0.81337006  0.11432320  0.81941524  1
  Ga  Ga16  1  0.89127862  0.41215739  0.39706543  1
  Ga  Ga17  1  0.23137787  0.05796303  0.42088315  1
  Ga  Ga18  1  0.48920139  0.51991987  0.74652505  1
  Ga  Ga19  1  0.24655237  0.27477794  0.49570635  1
  Ga  Ga20  1  0.76871288  0.02760858  0.99515001  1
  Ga  Ga21  1  0.92734413  0.53752263  0.68217264  1
  Ga  Ga22  1  0.38715940  0.12605614  0.72601034  1
  Ga  Ga23  1  0.22996766  0.47571150  0.52792379  1
  Ga  Ga24  1  0.47482658  0.44368649  0.49042014  1
  Ga  Ga25  1  0.25193572  0.25701482  0.16539553  1
  Ga  Ga26  1  0.00427776  0.18142728  0.86540893  1
  Ga  Ga27  1  0.98258608  0.80657023  0.12994927  1
  Ga  Ga28  1  0.03401682  0.07599996  0.38924078  1
  Ga  Ga29  1  0.65794113  0.92112250  0.33071163  1
  Ga  Ga30  1  0.78052267  0.79291880  0.43172002  1
  Ga  Ga31  1  0.64482738  0.41051839  0.59500356  1
  Ga  Ga32  1  0.80548997  0.70038684  0.25579493  1
  Ga  Ga33  1  0.53342442  0.67220232  0.47310013  1
  Ga  Ga34  1  0.78090796  0.91146624  0.16249211  1
  Ga  Ga35  1  0.27639452  0.75992240  0.34328366  1
  Ga  Ga36  1  0.56114087  0.33280703  0.77235540  1
  Ga  Ga37  1  0.80419151  0.61612987  0.85573232  1
  Ga  Ga38  1  0.83703734  0.47709891  0.05413333  1
  Ga  Ga39  1  0.23942303  0.47812520  0.33502408  1
  Ga  Ga40  1  0.51097481  0.67253694  0.11256430  1
  Ga  Ga41  1  0.42244396  0.99974949  0.54593020  1
  Ga  Ga42  1  0.58740052  0.12633800  0.77983125  1
  Ga  Ga43  1  0.42306446  0.65162903  0.91539996  1
  Ga  Ga44  1  0.65862237  0.94579297  0.84799792  1
  Ga  Ga45  1  0.79767406  0.03678280  0.41347231  1
  Ga  Ga46  1  0.12771285  0.00993993  0.09512117  1
  Ga  Ga47  1  0.07889030  0.93806924  0.69160647  1
  Ga  Ga48  1  0.36956637  0.80403626  0.52733804  1
  Ga  Ga49  1  0.63607842  0.76101386  0.93540987  1
  As  As0  1  0.13047469  0.02467481  0.85857615  1
  As  As1  1  0.47122843  0.88368572  0.29980520  1
  As  As2  1  0.35317503  0.29719590  0.79761359  1
  As  As3  1  0.82439841  0.29333704  0.12863748  1
  As  As4  1  0.06261008  0.19922392  0.65534668  1
  As  As5  1  0.27018447  0.89334454  0.15301608  1
  As  As6  1  0.91061365  0.41989898  0.86166518  1
  As  As7  1  0.44919608  0.65298556  0.30104139  1
  As  As8  1  0.74539244  0.19585576  0.31004396  1
  As  As9  1  0.37526729  0.05130689  0.12963436  1
  As  As10  1  0.76294069  0.29951955  0.82454844  1
  As  As11  1  0.16285911  0.73194101  0.97575931  1
  As  As12  1  0.74219346  0.91272782  0.66917367  1
  As  As13  1  0.57358048  0.85478830  0.13267465  1
  As  As14  1  0.22360231  0.10173618  0.61534042  1
  As  As15  1  0.05185969  0.24851700  0.46913412  1
  As  As16  1  0.11434796  0.37131153  0.22749716  1
  As  As17  1  0.62794019  0.99916479  0.54114955  1
  As  As18  1  0.62486574  0.08759441  0.22442626  1
  As  As19  1  0.94841109  0.27403560  0.27453412  1
  As  As20  1  0.79877748  0.51376915  0.25830980  1
  As  As21  1  0.06243048  0.85990974  0.34584146  1
  As  As22  1  0.38376861  0.57743055  0.59423741  1
  As  As23  1  0.86130260  0.86567662  0.92453580  1
  As  As24  1  0.83535564  0.19304393  0.54709897  1
  As  As25  1  0.22778339  0.67551912  0.80616313  1
  As  As26  1  0.68732727  0.53604978  0.44351080  1
  As  As27  1  0.33405429  0.20764918  0.33291576  1
  As  As28  1  0.24774848  0.83196283  0.70045482  1
  As  As29  1  0.97671436  0.00351116  0.21963432  1
  As  As30  1  0.47004222  0.07311289  0.35073938  1
  As  As31  1  0.94139206  0.91625082  0.48546303  1
  As  As32  1  0.44016414  0.46991629  0.30265768  1
  As  As33  1  0.93437218  0.80751959  0.75419638  1
  As  As34  1  0.24305413  0.14349927  0.02451875  1
  As  As35  1  0.25187698  0.47646840  0.95666706  1
  As  As36  1  0.64722642  0.17150191  0.59179634  1
  As  As37  1  0.49372580  0.96933138  0.00251861  1
  As  As38  1  0.36805469  0.38899814  0.07567013  1
  As  As39  1  0.63513355  0.52923402  0.05787419  1
  As  As40  1  0.34461410  0.84363135  0.98192363  1
  As  As41  1  0.12759881  0.34947800  0.86538216  1
  As  As42  1  0.74452886  0.58649597  0.61622134  1
  As  As43  1  0.01977705  0.47538023  0.52713705  1
  As  As44  1  0.61458947  0.66257928  0.76923204  1
  As  As45  1  0.30779696  0.95609784  0.82483613  1
  As  As46  1  0.82091062  0.34693972  0.64893096  1
  As  As47  1  0.45817694  0.27036483  0.95176034  1
  As  As48  1  0.16223875  0.63103393  0.24762006  1
  As  As49  1  0.98938572  0.69528513  0.32834183  1
loop_
_geom_bond_atom_site_label_1
_geom_bond_atom_site_label_2
_geom_bond_distance
_geom_bond_site_symmetry_2
Ga0 Ga18 2.673657 1_555
Ga0 Ga36 2.849838 1_555
Ga0 Ga43 2.931796 1_555
Ga4 Ga9 2.669658 1_555
Ga7 Ga9 2.628929 1_456
Ga10 Ga13 2.744851 1_455
Ga10 Ga26 2.919459 1_554
Ga10 Ga11 2.953269 1_555
Ga11 Ga9 2.546124 1_455
Ga12 Ga6 2.681097 1_555
Ga12 Ga19 2.697925 1_555
Ga12 Ga24 2.775120 1_555
Ga12 Ga22 2.810176 1_555
Ga13 Ga20 2.600902 1_554
Ga13 Ga26 2.804608 1_654
Ga14 Ga33 2.678199 1_555
Ga14 Ga30 2.713185 1_555
Ga15 Ga20 2.609551 1_555
Ga15 Ga8 2.658246 1_555
Ga15 Ga26 2.742003 1_655
Ga17 Ga28 2.612462 1_555
Ga18 Ga36 2.717316 1_555
Ga19 Ga23 2.794030 1_555
Ga20 Ga34 2.668631 1_546
Ga20 Ga44 2.724186 1_545
Ga21 Ga7 2.610331 1_655
Ga21 Ga37 2.981413 1_555
Ga23 Ga39 2.541228 1_555
Ga23 Ga5 2.596253 1_555
Ga24 Ga31 2.658389 1_555
Ga27 Ga9 3.059905 1_555
Ga29 Ga30 2.686969 1_555
Ga29 Ga45 2.698505 1_565
Ga29 Ga34 2.700775 1_555
Ga30 Ga32 2.695419 1_555
Ga31 Ga36 2.727619 1_555
Ga33 Ga48 2.861755 1_555
Ga35 Ga48 2.831206 1_555
Ga36 Ga42 2.829061 1_555
Ga37 Ga9 2.989269 1_556
Ga38 Ga9 2.799971 1_555
Ga42 Ga44 2.744006 1_545
Ga44 Ga49 2.740983 1_555
Ga47 Ga8 2.652456 1_465
As0 Ga3 2.438047 1_545
As0 As45 2.507486 1_545
As0 Ga47 2.646728 1_545
As0 Ga26 2.679675 1_555
As1 Ga29 2.528323 1_555
As1 As13 2.581353 1_555
As1 As30 2.694638 1_565
As1 Ga35 3.080946 1_555
As2 As47 2.490764 1_555
As2 Ga22 2.581337 1_555
As2 Ga36 2.754222 1_555
As3 Ga38 2.657268 1_555
As3 Ga13 2.691210 1_555
As3 Ga10 2.793197 1_655
As3 As8 2.856504 1_555
As3 Ga2 3.114146 1_555
As4 Ga5 2.551516 1_555
As4 Ga26 2.850814 1_555
As4 Ga8 2.940881 1_455
As5 Ga46 2.537008 1_565
As5 As9 2.564295 1_565
As5 Ga35 3.038743 1_555
As6 Ga21 2.806980 1_555
As6 Ga38 2.822140 1_556
As6 Ga37 2.995166 1_555
As6 Ga10 3.111415 1_656
As7 Ga33 2.570093 1_555
As7 Ga40 2.592575 1_555
As7 Ga35 2.716463 1_555
As8 Ga6 2.598004 1_555
As8 Ga45 2.606589 1_555
As10 As46 2.475676 1_555
As10 Ga15 2.603706 1_555
As10 As6 2.606154 1_555
As10 Ga36 2.753173 1_555
As11 Ga3 2.480975 1_555
As11 As25 2.513768 1_555
As11 Ga9 2.822562 1_456
As11 As40 2.825542 1_555
As11 Ga1 2.829137 1_556
As12 As17 2.524141 1_555
As12 Ga14 2.576578 1_555
As12 Ga44 2.620181 1_555
As12 Ga8 2.802214 1_565
As13 As37 2.509410 1_555
As13 Ga40 2.648409 1_555
As13 Ga34 2.848651 1_555
As13 Ga49 3.030714 1_554
As13 Ga29 3.035411 1_555
As14 As4 2.517070 1_555
As14 Ga22 2.640548 1_555
As14 Ga17 2.654933 1_555
As14 Ga19 2.796187 1_555
As14 Ga41 3.051070 1_545
As14 Ga47 3.051195 1_545
As15 As4 2.525310 1_555
As15 Ga19 2.590083 1_555
As15 Ga28 2.631594 1_555
As16 Ga25 2.498143 1_555
As16 Ga11 2.549493 1_555
As16 As19 2.587178 1_455
As16 Ga39 2.668016 1_555
As16 Ga10 2.972919 1_555
As17 As36 2.486010 1_565
As17 Ga41 2.664011 1_555
As17 Ga45 2.771640 1_565
As17 Ga29 3.025398 1_555
As18 As8 2.487497 1_555
As18 As30 2.575375 1_555
As18 Ga29 2.654105 1_545
As19 As3 2.545924 1_555
As19 Ga16 2.618307 1_555
As19 As8 2.870293 1_555
As20 Ga32 2.545067 1_555
As20 Ga16 2.565433 1_555
As20 Ga2 2.639056 1_555
As20 Ga38 2.787511 1_555
As20 As26 2.826776 1_555
As21 As49 2.467803 1_455
As21 As31 2.523034 1_455
As21 As29 2.760732 1_465
As21 Ga28 3.040199 1_565
As21 Ga35 3.077655 1_555
As21 Ga27 3.171761 1_455
As22 Ga18 2.552943 1_555
As22 Ga24 2.580136 1_555
As22 Ga23 2.632401 1_555
As22 Ga33 2.773571 1_555
As23 Ga3 2.458620 1_655
As23 As33 2.564663 1_555
As23 Ga4 2.665679 1_556
As23 Ga20 2.688364 1_565
As23 Ga44 3.019341 1_555
As24 As36 2.511092 1_555
As24 As46 2.539450 1_555
As24 Ga8 2.647778 1_555
As24 Ga45 2.874780 1_555
As25 As28 2.510138 1_555
As25 Ga7 2.639785 1_555
As25 Ga43 2.957465 1_555
As26 As42 2.538939 1_555
As26 Ga31 2.625561 1_555
As26 Ga33 2.740821 1_555
As27 As30 2.538419 1_555
As27 Ga25 2.541569 1_555
As27 Ga19 2.594261 1_555
As27 Ga17 2.656462 1_555
As28 As45 2.548063 1_555
As28 Ga47 2.613512 1_555
As28 Ga48 2.774913 1_555
As29 Ga46 2.518687 1_655
As29 Ga28 2.612292 1_655
As29 Ga13 2.810282 1_555
As29 Ga34 2.975175 1_545
As29 Ga27 2.977343 1_545
As30 Ga41 2.776770 1_545
As30 Ga6 3.077522 1_555
As31 Ga45 2.641405 1_565
As31 Ga28 2.745051 1_665
As31 Ga30 2.818667 1_555
As31 Ga8 2.916030 1_565
As32 As7 2.498669 1_555
As32 Ga24 2.538395 1_555
As32 Ga39 2.627938 1_555
As32 Ga2 2.877953 1_555
As33 Ga7 2.583447 1_655
As33 Ga47 2.687887 1_655
As33 Ga3 2.847618 1_655
As34 Ga25 2.472256 1_555
As34 Ga46 2.501757 1_555
As34 As9 2.526426 1_555
As35 As38 2.468356 1_556
As35 Ga11 2.598916 1_556
As35 As41 2.718603 1_555
As35 Ga1 2.875483 1_556
As36 Ga42 2.626499 1_555
As36 Ga6 2.848526 1_555
As36 Ga12 2.903454 1_555
As37 As9 2.526982 1_565
As37 As40 2.625537 1_554
As37 Ga44 2.934927 1_554
As38 Ga25 2.585594 1_555
As38 As47 2.591608 1_554
As38 Ga0 2.741672 1_554
As39 Ga0 2.483051 1_554
As39 Ga40 2.628203 1_555
As39 Ga2 2.639776 1_555
As39 Ga38 2.705115 1_555
As40 As5 2.542655 1_556
As40 As45 2.577342 1_555
As40 Ga43 2.955211 1_555
As41 Ga5 2.596358 1_555
As41 Ga10 2.672597 1_556
As41 Ga26 2.808604 1_555
As41 As6 2.964143 1_455
As42 Ga14 2.614832 1_555
As42 Ga21 2.618730 1_555
As42 Ga31 2.766083 1_555
As42 As44 2.814770 1_555
As43 Ga21 2.512300 1_455
As43 Ga16 2.603926 1_455
As43 Ga23 2.726409 1_555
As43 Ga5 2.728257 1_555
As44 Ga18 2.581416 1_555
As44 Ga14 2.605323 1_555
As44 Ga49 2.639205 1_555
As44 Ga37 2.795379 1_555
As45 Ga22 2.801660 1_565
As46 Ga31 2.543444 1_555
As46 Ga21 3.009497 1_555
As47 Ga0 2.640032 1_555
As47 Ga36 2.788784 1_555
As48 Ga39 2.548190 1_555
As48 Ga1 2.599214 1_555
As48 As49 2.611647 1_455
As48 Ga35 2.686990 1_555
As48 Ga11 2.965364 1_555
As49 Ga32 2.594199 1_555
As49 Ga27 2.971352 1_555
