# generated using pymatgen
data_NiAgO2
_symmetry_space_group_name_H-M   'P 1'
_cell_length_a   2.99916300
_cell_length_b   2.99916295
_cell_length_c   12.31512700
_cell_angle_alpha   90.00000000
_cell_angle_beta   90.00000000
_cell_angle_gamma   120.00001160
_symmetry_Int_Tables_number   1
_chemical_formula_structural   NiAgO2
_chemical_formula_sum   'Ni2 Ag2 O4'
_cell_volume   95.93334941
_cell_formula_units_Z   2
loop_
 _symmetry_equiv_pos_site_id
 _symmetry_equiv_pos_as_xyz
  1  'x, y, z'
loop_
 _atom_site_type_symbol
 _atom_site_label
 _atom_site_symmetry_multiplicity
 _atom_site_fract_x
 _atom_site_fract_y
 _atom_site_fract_z
 _atom_site_occupancy
  Ni  Ni0  1  0.00000000  0.00000000  0.50000000  1
  Ni  Ni1  1  0.00000000  0.00000000  0.00000000  1
  Ag  Ag0  1  0.66666600  0.33333200  0.75000000  1
  Ag  Ag1  1  0.33333400  0.66666700  0.25000000  1
  O  O0  1  0.33333400  0.66666700  0.41806200  1
  O  O1  1  0.66666600  0.33333200  0.91806200  1
  O  O2  1  0.66666600  0.33333200  0.58193800  1
  O  O3  1  0.33333400  0.66666700  0.08193800  1
loop_
_geom_bond_atom_site_label_1
_geom_bond_atom_site_label_2
_geom_bond_distance
_geom_bond_site_symmetry_2
Ni0 O0 2.004135 1_445
Ni0 O2 2.004135 1_555
Ni0 O2 2.004135 1_455
Ni0 O0 2.004137 1_555
Ni0 O0 2.004137 1_545
Ni0 O2 2.004139 1_445
Ni1 O3 2.004135 1_445
Ni1 O1 2.004135 1_554
Ni1 O1 2.004135 1_454
Ni1 O3 2.004137 1_555
Ni1 O3 2.004137 1_545
Ni1 O1 2.004139 1_444
Ag0 O1 2.069705 1_555
Ag0 O2 2.069705 1_555
Ag1 O0 2.069705 1_555
Ag1 O3 2.069705 1_555
