# generated using pymatgen
data_MgMnO2
_symmetry_space_group_name_H-M   'P 1'
_cell_length_a   3.09869100
_cell_length_b   7.59289700
_cell_length_c   7.61633581
_cell_angle_alpha   70.57445797
_cell_angle_beta   90.00000000
_cell_angle_gamma   90.00000000
_symmetry_Int_Tables_number   1
_chemical_formula_structural   MgMnO2
_chemical_formula_sum   'Mg4 Mn4 O8'
_cell_volume   168.99655840
_cell_formula_units_Z   4
loop_
 _symmetry_equiv_pos_site_id
 _symmetry_equiv_pos_as_xyz
  1  'x, y, z'
loop_
 _atom_site_type_symbol
 _atom_site_label
 _atom_site_symmetry_multiplicity
 _atom_site_fract_x
 _atom_site_fract_y
 _atom_site_fract_z
 _atom_site_occupancy
  Mg  Mg0  1  0.25000000  0.43854200  0.18270500  1
  Mg  Mg1  1  0.75000000  0.56145800  0.81729500  1
  Mg  Mg2  1  0.75000000  0.80986800  0.06222700  1
  Mg  Mg3  1  0.25000000  0.19013200  0.93777300  1
  Mn  Mn0  1  0.75000000  0.31475700  0.56295400  1
  Mn  Mn1  1  0.75000000  0.06348500  0.30555400  1
  Mn  Mn2  1  0.25000000  0.93651500  0.69444600  1
  Mn  Mn3  1  0.25000000  0.68524300  0.43704600  1
  O  O0  1  0.75000000  0.80563900  0.57114500  1
  O  O1  1  0.75000000  0.06399500  0.82413900  1
  O  O2  1  0.25000000  0.93600500  0.17586100  1
  O  O3  1  0.25000000  0.19436100  0.42885500  1
  O  O4  1  0.25000000  0.43769600  0.69989400  1
  O  O5  1  0.75000000  0.31833200  0.05582500  1
  O  O6  1  0.75000000  0.56230400  0.30010600  1
  O  O7  1  0.25000000  0.68166800  0.94417500  1
loop_
_geom_bond_atom_site_label_1
_geom_bond_atom_site_label_2
_geom_bond_distance
_geom_bond_site_symmetry_2
Mg0 O7 2.116020 1_554
Mg0 O3 2.154105 1_555
Mg0 O6 2.154523 1_455
Mg0 O6 2.154523 1_555
Mg0 O5 2.180395 1_555
Mg0 O5 2.180395 1_455
Mg1 O5 2.116020 1_556
Mg1 O0 2.154105 1_555
Mg1 O4 2.154523 1_555
Mg1 O4 2.154523 1_655
Mg1 O7 2.180395 1_555
Mg1 O7 2.180395 1_655
Mg2 O6 2.133208 1_555
Mg2 O2 2.148988 1_555
Mg2 O2 2.148988 1_655
Mg2 O1 2.164272 1_564
Mg2 O7 2.176828 1_654
Mg2 O7 2.176828 1_554
Mg3 O4 2.133208 1_555
Mg3 O1 2.148988 1_455
Mg3 O1 2.148988 1_555
Mg3 O2 2.164272 1_546
Mg3 O5 2.176828 1_456
Mg3 O5 2.176828 1_556
Mn0 O3 2.213669 1_555
Mn0 O3 2.213669 1_655
Mn0 O4 2.237683 1_555
Mn0 O4 2.237683 1_655
Mn0 O6 2.244493 1_555
Mn0 O1 2.250131 1_555
Mn1 O3 2.211474 1_555
Mn1 O3 2.211474 1_655
Mn1 O5 2.216733 1_555
Mn1 O2 2.224653 1_545
Mn1 O2 2.224653 1_645
Mn1 O0 2.300125 1_545
Mn2 O0 2.211474 1_555
Mn2 O0 2.211474 1_455
Mn2 O7 2.216733 1_555
Mn2 O1 2.224653 1_565
Mn2 O1 2.224653 1_465
Mn2 O3 2.300125 1_565
Mn3 O0 2.213669 1_455
Mn3 O0 2.213669 1_555
Mn3 O6 2.237683 1_555
Mn3 O6 2.237683 1_455
Mn3 O4 2.244493 1_555
Mn3 O2 2.250131 1_555
