# generated using pymatgen
data_Pr5(C2Br)3
_symmetry_space_group_name_H-M   'P 1'
_cell_length_a   3.93498562
_cell_length_b   11.63162637
_cell_length_c   14.01974560
_cell_angle_alpha   79.80498043
_cell_angle_beta   81.94104415
_cell_angle_gamma   80.37070865
_symmetry_Int_Tables_number   1
_chemical_formula_structural   Pr5(C2Br)3
_chemical_formula_sum   'Pr10 C12 Br6'
_cell_volume   618.60116292
_cell_formula_units_Z   2
loop_
 _symmetry_equiv_pos_site_id
 _symmetry_equiv_pos_as_xyz
  1  'x, y, z'
loop_
 _atom_site_type_symbol
 _atom_site_label
 _atom_site_symmetry_multiplicity
 _atom_site_fract_x
 _atom_site_fract_y
 _atom_site_fract_z
 _atom_site_occupancy
  Pr  Pr0  1  0.49996150  0.89594720  0.10519859  1
  Pr  Pr1  1  0.50002410  0.10407821  0.89479070  1
  Pr  Pr2  1  0.49833634  0.60647507  0.39726230  1
  Pr  Pr3  1  0.50164902  0.39352184  0.60276526  1
  Pr  Pr4  1  0.83904058  0.67481495  0.64677863  1
  Pr  Pr5  1  0.16095289  0.32517437  0.35323956  1
  Pr  Pr6  1  0.17322073  0.53818482  0.11604392  1
  Pr  Pr7  1  0.82678549  0.46179507  0.88393750  1
  Pr  Pr8  1  0.83548127  0.22779883  0.10143623  1
  Pr  Pr9  1  0.16452535  0.77221072  0.89853558  1
  C  C0  1  0.96512472  0.53519941  0.53478142  1
  C  C1  1  0.03486460  0.46479427  0.46523541  1
  C  C2  1  0.62819590  0.70979999  0.03306988  1
  C  C3  1  0.37180135  0.29020120  0.96691615  1
  C  C4  1  0.69782770  0.38832483  0.21664503  1
  C  C5  1  0.30217327  0.61166473  0.78335499  1
  C  C6  1  0.30206477  0.37940914  0.01578519  1
  C  C7  1  0.69793815  0.62058109  0.98419611  1
  C  C8  1  0.96431712  0.04796510  0.02176897  1
  C  C9  1  0.03568046  0.95204505  0.97821362  1
  C  C10  1  0.62932783  0.47449797  0.26757897  1
  C  C11  1  0.37066323  0.52549549  0.73243062  1
  Br  Br0  1  0.66681314  0.17798905  0.48726776  1
  Br  Br1  1  0.33318334  0.82200418  0.51275641  1
  Br  Br2  1  0.32857705  0.08967652  0.25099332  1
  Br  Br3  1  0.67144601  0.91034186  0.74900293  1
  Br  Br4  1  0.98400427  0.76922735  0.26225120  1
  Br  Br5  1  0.01601982  0.23078368  0.73776076  1
loop_
_geom_bond_atom_site_label_1
_geom_bond_atom_site_label_2
_geom_bond_distance
_geom_bond_site_symmetry_2
C0 C1 1.352427 1_655
C0 Pr4 2.400732 1_555
C0 Pr3 2.629133 1_555
C0 Pr3 2.631656 1_655
C0 Pr2 2.772849 1_655
C0 Pr2 2.774158 1_555
C1 Pr5 2.400756 1_555
C1 Pr2 2.629124 1_555
C1 Pr2 2.631629 1_455
C1 Pr3 2.772929 1_455
C1 Pr3 2.774255 1_555
C2 C7 1.313573 1_554
C2 Pr0 2.496351 1_555
C2 Pr9 2.729512 1_654
C2 Pr9 2.729564 1_554
C2 Pr6 2.886653 1_555
C2 Pr6 2.895296 1_655
C3 C6 1.313423 1_556
C3 Pr1 2.496072 1_555
C3 Pr8 2.729352 1_456
C3 Pr8 2.729440 1_556
C3 Pr7 2.886510 1_555
C3 Pr7 2.895174 1_455
C4 Pr8 2.621559 1_555
C4 Pr5 2.748956 1_555
C4 Pr5 2.749672 1_655
C4 Pr6 2.829821 1_655
C4 Pr6 2.833961 1_555
C5 Pr9 2.621460 1_555
C5 Pr4 2.748797 1_555
C5 Pr4 2.749504 1_455
C5 Pr7 2.829801 1_455
C5 Pr7 2.833893 1_555
C6 Pr6 2.459551 1_555
C6 Pr7 2.750122 1_554
C6 Pr7 2.752369 1_454
C6 Pr8 2.763704 1_455
C6 Pr8 2.770609 1_555
C7 Pr7 2.459648 1_555
C7 Pr6 2.750157 1_556
C7 Pr6 2.752393 1_656
C7 Pr9 2.763896 1_655
C7 Pr9 2.770753 1_555
C8 C9 1.335969 1_644
C8 Pr8 2.488672 1_555
C8 Pr1 2.652297 1_554
C8 Pr1 2.652465 1_654
C8 Pr0 2.753721 1_545
C8 Pr0 2.765788 1_645
C9 Pr9 2.488764 1_555
C9 Pr0 2.652328 1_556
C9 Pr0 2.652502 1_456
C9 Pr1 2.753787 1_565
C9 Pr1 2.765860 1_465
C10 C4 1.302405 1_555
C10 Pr2 2.527523 1_555
C10 Pr5 2.750955 1_555
C10 Pr5 2.754206 1_655
C10 Pr6 2.888098 1_655
C10 Pr6 2.889739 1_555
C11 C5 1.302280 1_555
C11 Pr3 2.527293 1_555
C11 Pr4 2.750902 1_555
C11 Pr4 2.754127 1_455
C11 Pr7 2.887865 1_455
C11 Pr7 2.889476 1_555
Br0 Pr5 3.031999 1_655
Br0 Pr5 3.032148 1_555
Br0 Pr3 3.150597 1_555
Br1 Pr4 3.031996 1_455
Br1 Pr4 3.032105 1_555
Br1 Pr2 3.150531 1_555
Br2 Pr8 3.106074 1_455
Br2 Pr8 3.108554 1_555
Br2 Pr0 3.232045 1_545
Br2 Pr5 3.242481 1_555
Br3 Pr9 3.105834 1_655
Br3 Pr9 3.108478 1_555
Br3 Pr1 3.232037 1_565
Br3 Pr4 3.242608 1_555
Br4 Pr0 3.120308 1_555
Br4 Pr0 3.121146 1_655
Br4 Pr2 3.121924 1_555
Br4 Pr2 3.128339 1_655
Br4 Pr6 3.582016 1_655
Br5 Pr1 3.119947 1_555
Br5 Pr1 3.120997 1_455
Br5 Pr3 3.121639 1_555
Br5 Pr3 3.128243 1_455
Br5 Pr7 3.581431 1_455
