# generated using pymatgen
data_Zn(NiO2)2
_symmetry_space_group_name_H-M   'P 1'
_cell_length_a   5.75848835
_cell_length_b   5.75846068
_cell_length_c   5.75849165
_cell_angle_alpha   119.01985767
_cell_angle_beta   119.02083559
_cell_angle_gamma   91.70301720
_symmetry_Int_Tables_number   1
_chemical_formula_structural   Zn(NiO2)2
_chemical_formula_sum   'Zn2 Ni4 O8'
_cell_volume   136.95985794
_cell_formula_units_Z   2
loop_
 _symmetry_equiv_pos_site_id
 _symmetry_equiv_pos_as_xyz
  1  'x, y, z'
loop_
 _atom_site_type_symbol
 _atom_site_label
 _atom_site_symmetry_multiplicity
 _atom_site_fract_x
 _atom_site_fract_y
 _atom_site_fract_z
 _atom_site_occupancy
  Zn  Zn0  1  0.75000201  0.25001919  0.50000443  1
  Zn  Zn1  1  -0.00000201  0.99998081  -0.00000443  1
  Ni  Ni0  1  0.87500000  0.62500000  0.25000000  1
  Ni  Ni1  1  0.37500000  0.62500000  0.75000000  1
  Ni  Ni2  1  0.37500000  0.12500000  0.75000000  1
  Ni  Ni3  1  0.37500000  0.62500000  0.25000000  1
  O  O0  1  0.13373919  0.88199897  0.29523820  1
  O  O1  1  0.11798062  0.41321891  0.25174266  1
  O  O2  1  0.16146788  0.86623633  0.74823898  1
  O  O3  1  0.16323099  0.41151281  0.79524906  1
  O  O4  1  0.58853212  0.38376367  0.75176102  1
  O  O5  1  0.63201938  0.83678109  0.24825734  1
  O  O6  1  0.58676901  0.83848719  0.70475094  1
  O  O7  1  0.61626081  0.36800103  0.20476180  1
loop_
_geom_bond_atom_site_label_1
_geom_bond_atom_site_label_2
_geom_bond_distance
_geom_bond_site_symmetry_2
Ni0 O1 1.882764 1_655
Ni0 O5 1.882764 1_555
Ni0 O7 1.896382 1_555
Ni0 O0 1.896382 1_655
Ni0 O4 2.070614 1_554
Ni0 O2 2.070614 1_655
Ni1 O4 1.882793 1_555
Ni1 O2 1.882793 1_555
Ni1 O6 1.896393 1_555
Ni1 O3 1.896393 1_555
Ni1 O5 2.070681 1_556
Ni1 O1 2.070681 1_555
Ni2 O7 1.882859 1_556
Ni2 O0 1.882859 1_545
Ni2 O4 1.896510 1_555
Ni2 O2 1.896510 1_545
Ni2 O6 2.070717 1_545
Ni2 O3 2.070717 1_555
Ni3 O3 1.882803 1_554
Ni3 O6 1.882803 1_555
Ni3 O1 1.896547 1_555
Ni3 O5 1.896547 1_555
Ni3 O0 2.070624 1_555
Ni3 O7 2.070624 1_555
O0 Zn1 1.956165 1_555
O1 Zn1 1.956284 1_545
O2 Zn1 1.956180 1_556
O3 Zn0 1.956243 1_455
O4 Zn0 1.956180 1_555
O5 Zn0 1.956284 1_565
O6 Zn1 1.956243 1_656
O7 Zn0 1.956165 1_555
