# generated using pymatgen
data_Co7W6
_symmetry_space_group_name_H-M   'P 1'
_cell_length_a   4.58499016
_cell_length_b   4.58499100
_cell_length_c   17.18873949
_cell_angle_alpha   82.33551419
_cell_angle_beta   82.33551313
_cell_angle_gamma   60.00000115
_symmetry_Int_Tables_number   1
_chemical_formula_structural   Co7W6
_chemical_formula_sum   'Co7 W6'
_cell_volume   309.19988986
_cell_formula_units_Z   1
loop_
 _symmetry_equiv_pos_site_id
 _symmetry_equiv_pos_as_xyz
  1  'x, y, z'
loop_
 _atom_site_type_symbol
 _atom_site_label
 _atom_site_symmetry_multiplicity
 _atom_site_fract_x
 _atom_site_fract_y
 _atom_site_fract_z
 _atom_site_occupancy
  Co  Co0  1  0.00000000  0.00000000  0.00000000  1
  Co  Co1  1  0.45398100  0.95321100  0.63959700  1
  Co  Co2  1  0.95321100  0.45398100  0.63959700  1
  Co  Co3  1  0.95321100  0.95321100  0.63959700  1
  Co  Co4  1  0.54601900  0.04678900  0.36040300  1
  Co  Co5  1  0.04678900  0.54601900  0.36040300  1
  Co  Co6  1  0.04678900  0.04678900  0.36040300  1
  W  W0  1  0.82751300  0.82751300  0.51746100  1
  W  W1  1  0.17248700  0.17248700  0.48253900  1
  W  W2  1  0.66665000  0.66665000  0.00005000  1
  W  W3  1  0.33335000  0.33335000  0.99995000  1
  W  W4  1  0.52784600  0.52784600  0.41646300  1
  W  W5  1  0.47215400  0.47215400  0.58353700  1
loop_
_geom_bond_atom_site_label_1
_geom_bond_atom_site_label_2
_geom_bond_distance
_geom_bond_site_symmetry_2
Co0 W3 2.647145 1_454
Co0 W2 2.647145 1_545
Co0 W2 2.647146 1_445
Co0 W3 2.647146 1_554
Co0 W3 2.647146 1_544
Co0 W2 2.647146 1_455
Co1 Co3 2.288965 1_555
Co1 Co2 2.288965 1_555
Co1 Co3 2.296026 1_455
Co1 Co2 2.296026 1_465
Co1 W0 2.459523 1_555
Co1 W5 2.482344 1_565
Co1 W5 2.482349 1_555
Co1 W1 2.978656 1_565
Co2 Co3 2.288965 1_555
Co2 Co3 2.296026 1_545
Co2 W0 2.459523 1_555
Co2 W5 2.482344 1_655
Co2 W5 2.482348 1_555
Co2 W1 2.978656 1_655
Co3 W0 2.459523 1_555
Co3 W5 2.482346 1_655
Co3 W5 2.482346 1_565
Co3 W1 2.978656 1_665
Co4 Co6 2.288965 1_555
Co4 Co5 2.288965 1_555
Co4 Co6 2.296026 1_655
Co4 Co5 2.296026 1_645
Co4 W1 2.459523 1_555
Co4 W4 2.482344 1_545
Co4 W4 2.482349 1_555
Co4 W0 2.978656 1_545
Co5 Co6 2.288965 1_555
Co5 Co6 2.296026 1_565
Co5 W1 2.459523 1_555
Co5 W4 2.482344 1_455
Co5 W4 2.482348 1_555
Co5 W0 2.978656 1_455
Co6 W1 2.459523 1_555
Co6 W4 2.482346 1_455
Co6 W4 2.482346 1_545
Co6 W0 2.978656 1_445
W0 W1 2.712776 1_565
W0 W1 2.712776 1_665
W0 W1 2.712776 1_655
W0 W5 2.875193 1_655
W0 W5 2.875193 1_565
W0 W5 2.875197 1_555
W0 W4 3.154311 1_555
W0 W4 3.154315 1_655
W0 W4 3.154315 1_565
W1 W4 2.875193 1_455
W1 W4 2.875193 1_545
W1 W4 2.875197 1_555
W1 W5 3.154311 1_555
W1 W5 3.154315 1_455
W1 W5 3.154315 1_545
W2 W3 2.647146 1_654
W2 W3 2.647146 1_554
W2 W3 2.647146 1_564
W4 W5 2.837531 1_555
