# generated using pymatgen
data_BaYbCo4O7
_symmetry_space_group_name_H-M   'P 1'
_cell_length_a   6.25765945
_cell_length_b   6.25109511
_cell_length_c   10.23977864
_cell_angle_alpha   90.03288603
_cell_angle_beta   90.00444377
_cell_angle_gamma   119.95676612
_symmetry_Int_Tables_number   1
_chemical_formula_structural   BaYbCo4O7
_chemical_formula_sum   'Ba2 Yb2 Co8 O14'
_cell_volume   347.03890057
_cell_formula_units_Z   2
loop_
 _symmetry_equiv_pos_site_id
 _symmetry_equiv_pos_as_xyz
  1  'x, y, z'
loop_
 _atom_site_type_symbol
 _atom_site_label
 _atom_site_symmetry_multiplicity
 _atom_site_fract_x
 _atom_site_fract_y
 _atom_site_fract_z
 _atom_site_occupancy
  Ba  Ba0  1  0.66643800  0.33334200  0.49251500  1
  Ba  Ba1  1  0.33274300  0.66639800  0.00327700  1
  Yb  Yb0  1  0.66660200  0.33312000  0.86743000  1
  Yb  Yb1  1  0.33327000  0.66670300  0.37654900  1
  Co  Co0  1  0.16436800  0.83166700  0.68358200  1
  Co  Co1  1  0.82766200  0.65181900  0.17844200  1
  Co  Co2  1  0.82382600  0.17207100  0.17846200  1
  Co  Co3  1  0.99992500  0.99979600  0.92839800  1
  Co  Co4  1  0.66710900  0.83524100  0.68334100  1
  Co  Co5  1  0.16882900  0.33334500  0.68336400  1
  Co  Co6  1  0.34807900  0.17593300  0.17830800  1
  Co  Co7  1  0.99987400  0.99995000  0.42520200  1
  O  O0  1  0.69024400  0.85110700  0.50401300  1
  O  O1  1  0.49100300  0.51268500  0.73585700  1
  O  O2  1  0.84519700  0.67437400  0.99390100  1
  O  O3  1  0.50396200  0.50040700  0.24631700  1
  O  O4  1  0.14877500  0.83933600  0.50435600  1
  O  O5  1  0.02232000  0.50933300  0.73667800  1
  O  O6  1  0.99937500  0.00033000  0.73985400  1
  O  O7  1  0.48707000  0.97782500  0.73582600  1
  O  O8  1  0.49965000  0.00352200  0.24631100  1
  O  O9  1  0.32557200  0.17045900  0.99371000  1
  O  O10  1  0.99615100  0.49602100  0.24664500  1
  O  O11  1  0.16188700  0.30975500  0.50413700  1
  O  O12  1  0.00034500  0.00027300  0.24102400  1
  O  O13  1  0.82972500  0.15518900  0.99390200  1
loop_
_geom_bond_atom_site_label_1
_geom_bond_atom_site_label_2
_geom_bond_distance
_geom_bond_site_symmetry_2
Ba0 O10 3.088362 1_555
Ba0 O11 3.088634 1_555
Ba0 O8 3.088768 1_555
Ba0 O3 3.089159 1_555
Ba0 O0 3.093886 1_545
Ba0 O4 3.097509 1_655
Ba0 O1 3.145997 1_555
Ba0 O7 3.149873 1_545
Ba0 O5 3.157506 1_655
Ba0 O0 3.166963 1_555
Ba0 O4 3.170891 1_545
Ba0 O11 3.178769 1_655
Ba1 O2 3.077588 1_454
Ba1 O9 3.079502 1_554
Ba1 O8 3.085543 1_565
Ba1 O13 3.086642 1_564
Ba1 O3 3.087228 1_555
Ba1 O10 3.089414 1_455
Ba1 O9 3.175146 1_564
Ba1 O13 3.175398 1_454
Ba1 O2 3.183615 1_554
Ba1 O5 3.206428 1_554
Ba1 O1 3.217173 1_554
Ba1 O7 3.217390 1_554
Co0 O7 1.831790 1_555
Co0 O5 1.832573 1_555
Co0 O4 1.839742 1_555
Co0 O6 1.896354 1_465
Co1 O3 1.888979 1_555
Co1 O10 1.890514 1_555
Co1 O2 1.894101 1_554
Co1 O12 1.992630 1_665
Co2 O10 1.889047 1_555
Co2 O8 1.890622 1_555
Co2 O13 1.894127 1_554
Co2 O12 1.992292 1_655
Co3 O2 1.886831 1_555
Co3 O13 1.886900 1_565
Co3 O9 1.888336 1_665
Co3 O6 1.930659 1_565
Co4 O1 1.830686 1_555
Co4 O7 1.831649 1_555
Co4 O0 1.840822 1_555
Co4 O6 1.891875 1_565
Co5 O1 1.830890 1_555
Co5 O5 1.831797 1_555
Co5 O11 1.839847 1_555
Co5 O6 1.894591 1_455
Co6 O8 1.888839 1_555
Co6 O3 1.890207 1_555
Co6 O9 1.894491 1_554
Co6 O12 1.991960 1_555
Co7 O4 1.862334 1_655
Co7 O11 1.862498 1_665
Co7 O0 1.863275 1_555
Co7 O12 1.885945 1_665
O0 Yb1 2.334201 1_555
O1 Yb0 2.348591 1_555
O2 Yb0 2.256630 1_555
O3 Yb1 2.259960 1_555
O4 Yb1 2.335175 1_555
O5 Yb0 2.348244 1_455
O7 Yb0 2.348478 1_565
O8 Yb1 2.260477 1_545
O9 Yb0 2.257205 1_555
O10 Yb1 2.260124 1_655
O11 Yb1 2.334418 1_555
O13 Yb0 2.256450 1_555
