# generated using pymatgen
data_KUVO6
_symmetry_space_group_name_H-M   'P 1'
_cell_length_a   8.24549600
_cell_length_b   7.15717500
_cell_length_c   10.83928201
_cell_angle_alpha   76.79679924
_cell_angle_beta   90.00000000
_cell_angle_gamma   90.00000000
_symmetry_Int_Tables_number   1
_chemical_formula_structural   KUVO6
_chemical_formula_sum   'K4 U4 V4 O24'
_cell_volume   622.76529202
_cell_formula_units_Z   4
loop_
 _symmetry_equiv_pos_site_id
 _symmetry_equiv_pos_as_xyz
  1  'x, y, z'
loop_
 _atom_site_type_symbol
 _atom_site_label
 _atom_site_symmetry_multiplicity
 _atom_site_fract_x
 _atom_site_fract_y
 _atom_site_fract_z
 _atom_site_occupancy
  K  K0  1  0.68066300  0.46989400  0.82622700  1
  K  K1  1  0.18066300  0.53010600  0.67377300  1
  K  K2  1  0.31933700  0.53010600  0.17377300  1
  K  K3  1  0.81933700  0.46989400  0.32622700  1
  U  U0  1  0.49543300  0.00946100  0.67848700  1
  U  U1  1  0.99543300  0.99053900  0.82151300  1
  U  U2  1  0.50456700  0.99053900  0.32151300  1
  U  U3  1  0.00456700  0.00946100  0.17848700  1
  V  V0  1  0.64249700  0.88105900  0.97437900  1
  V  V1  1  0.14249700  0.11894100  0.52562100  1
  V  V2  1  0.35750300  0.11894100  0.02562100  1
  V  V3  1  0.85750300  0.88105900  0.47437900  1
  O  O0  1  0.56236000  0.26037200  0.64302100  1
  O  O1  1  0.06236000  0.73962800  0.85697900  1
  O  O2  1  0.43764000  0.73962800  0.35697900  1
  O  O3  1  0.93764000  0.26037200  0.14302100  1
  O  O4  1  0.43532300  0.75462800  0.71367100  1
  O  O5  1  0.93532300  0.24537200  0.78632900  1
  O  O6  1  0.56467700  0.24537200  0.28632900  1
  O  O7  1  0.06467700  0.75462800  0.21367100  1
  O  O8  1  0.60881000  0.64890600  0.02398900  1
  O  O9  1  0.10881000  0.35109400  0.47601100  1
  O  O10  1  0.39119000  0.35109400  0.97601100  1
  O  O11  1  0.89119000  0.64890600  0.52398900  1
  O  O12  1  0.71969500  0.90383100  0.80875000  1
  O  O13  1  0.21969500  0.09616900  0.69125000  1
  O  O14  1  0.28030500  0.09616900  0.19125000  1
  O  O15  1  0.78030500  0.90383100  0.30875000  1
  O  O16  1  0.84392200  0.94282900  0.01715100  1
  O  O17  1  0.34392200  0.05717100  0.48284900  1
  O  O18  1  0.15607800  0.05717100  0.98284900  1
  O  O19  1  0.65607800  0.94282900  0.51715100  1
  O  O20  1  0.45908800  0.02106300  0.89078400  1
  O  O21  1  0.95908800  0.97893700  0.60921600  1
  O  O22  1  0.54091200  0.97893700  0.10921600  1
  O  O23  1  0.04091200  0.02106300  0.39078400  1
loop_
_geom_bond_atom_site_label_1
_geom_bond_atom_site_label_2
_geom_bond_distance
_geom_bond_site_symmetry_2
K0 O5 2.737865 1_555
K0 O8 2.800383 1_556
K0 O10 2.902640 1_555
K0 O0 2.916182 1_555
K0 O4 2.932240 1_555
K0 O12 3.084877 1_555
K1 O4 2.737865 1_555
K1 O9 2.800383 1_555
K1 O11 2.902640 1_455
K1 O1 2.916182 1_555
K1 O5 2.932240 1_455
K1 O13 3.084877 1_555
K2 O7 2.737865 1_555
K2 O10 2.800383 1_554
K2 O8 2.902640 1_555
K2 O2 2.916182 1_555
K2 O6 2.932240 1_555
K2 O14 3.084877 1_555
K3 O6 2.737865 1_555
K3 O11 2.800383 1_555
K3 O9 2.902640 1_655
K3 O3 2.916182 1_555
K3 O7 2.932240 1_655
K3 O15 3.084877 1_555
O0 U0 1.833549 1_555
O1 U1 1.833549 1_455
O2 U2 1.833549 1_555
O3 U3 1.833549 1_655
O4 U0 1.843884 1_565
O5 U1 1.843884 1_545
O6 U2 1.843884 1_545
O7 U3 1.843884 1_565
O8 V0 1.648922 1_554
O9 V1 1.648922 1_555
O10 V2 1.648922 1_556
O11 V3 1.648922 1_555
O12 V0 1.876480 1_555
O12 U0 2.344550 1_565
O12 U1 2.369119 1_555
O13 V1 1.876480 1_555
O13 U1 2.344550 1_445
O13 U0 2.369119 1_555
O14 V2 1.876480 1_555
O14 U2 2.344550 1_545
O14 U3 2.369119 1_555
O15 V3 1.876480 1_555
O15 U3 2.344550 1_665
O15 U2 2.369119 1_555
O16 V0 1.806223 1_554
O16 U3 2.328335 1_665
O16 U1 2.417306 1_554
O17 V1 1.806223 1_555
O17 U2 2.328335 1_545
O17 U0 2.417306 1_555
O18 V2 1.806223 1_556
O18 U1 2.328335 1_445
O18 U3 2.417306 1_556
O19 V3 1.806223 1_555
O19 U0 2.328335 1_565
O19 U2 2.417306 1_555
O20 V0 1.922860 1_545
O20 V2 1.948369 1_556
O20 U0 2.340784 1_555
O21 V1 1.922860 1_665
O21 V3 1.948369 1_555
O21 U1 2.340784 1_555
O22 V2 1.922860 1_565
O22 V0 1.948369 1_554
O22 U2 2.340784 1_555
O23 V3 1.922860 1_445
O23 V1 1.948369 1_555
O23 U3 2.340784 1_555
