# generated using pymatgen
data_Cr2S2BrCl
_symmetry_space_group_name_H-M   'P 1'
_cell_length_a   3.50363700
_cell_length_b   4.75044800
_cell_length_c   8.17269600
_cell_angle_alpha   90.00000000
_cell_angle_beta   90.00000000
_cell_angle_gamma   90.00000000
_symmetry_Int_Tables_number   1
_chemical_formula_structural   Cr2S2BrCl
_chemical_formula_sum   'Cr2 S2 Br1 Cl1'
_cell_volume   136.02508856
_cell_formula_units_Z   1
loop_
 _symmetry_equiv_pos_site_id
 _symmetry_equiv_pos_as_xyz
  1  'x, y, z'
loop_
 _atom_site_type_symbol
 _atom_site_label
 _atom_site_symmetry_multiplicity
 _atom_site_fract_x
 _atom_site_fract_y
 _atom_site_fract_z
 _atom_site_occupancy
  Cr  Cr0  1  0.00000000  0.50000000  0.12447100  1
  Cr  Cr1  1  0.50000000  0.00000000  0.86790100  1
  S  S0  1  0.50000000  0.50000000  0.92632400  1
  S  S1  1  0.00000000  0.00000000  0.06710200  1
  Br  Br0  1  0.50000000  0.50000000  0.34479400  1
  Cl  Cl0  1  0.00000000  0.00000000  0.66940900  1
loop_
_geom_bond_atom_site_label_1
_geom_bond_atom_site_label_2
_geom_bond_distance
_geom_bond_site_symmetry_2
Cr0 S0 2.385646 1_554
Cr0 S0 2.385646 1_454
Cr0 S1 2.421057 1_555
Cr0 S1 2.421057 1_565
Cr1 S1 2.391502 1_656
Cr1 S1 2.391502 1_556
Cr1 S0 2.422740 1_555
Cr1 S0 2.422740 1_545
Br0 Cr0 2.512200 1_655
Br0 Cr0 2.512200 1_555
Cl0 Cr1 2.387561 1_555
Cl0 Cr1 2.387561 1_455
