# generated using pymatgen
data_CsV2(PO6)2
_symmetry_space_group_name_H-M   'P 1'
_cell_length_a   7.29271399
_cell_length_b   8.34452066
_cell_length_c   18.16955700
_cell_angle_alpha   90.00000000
_cell_angle_beta   90.00000000
_cell_angle_gamma   114.12864920
_symmetry_Int_Tables_number   1
_chemical_formula_structural   CsV2(PO6)2
_chemical_formula_sum   'Cs4 V8 P8 O48'
_cell_volume   1009.08930235
_cell_formula_units_Z   4
loop_
 _symmetry_equiv_pos_site_id
 _symmetry_equiv_pos_as_xyz
  1  'x, y, z'
loop_
 _atom_site_type_symbol
 _atom_site_label
 _atom_site_symmetry_multiplicity
 _atom_site_fract_x
 _atom_site_fract_y
 _atom_site_fract_z
 _atom_site_occupancy
  Cs  Cs0  1  0.65898700  0.02883300  0.37257000  1
  Cs  Cs1  1  0.15898700  0.52883300  0.12743000  1
  Cs  Cs2  1  0.34101300  0.97116700  0.62743000  1
  Cs  Cs3  1  0.84101300  0.47116700  0.87257000  1
  V  V0  1  0.66769000  0.52396700  0.37503200  1
  V  V1  1  0.16769000  0.02396700  0.12496800  1
  V  V2  1  0.33231000  0.47603300  0.62496800  1
  V  V3  1  0.83231000  0.97603300  0.87503200  1
  V  V4  1  0.15906200  0.51339000  0.35837100  1
  V  V5  1  0.65906200  0.01339000  0.14162900  1
  V  V6  1  0.84093800  0.48661000  0.64162900  1
  V  V7  1  0.34093800  0.98661000  0.85837100  1
  P  P0  1  0.73248300  0.73890900  0.53054800  1
  P  P1  1  0.23248300  0.23890900  0.96945200  1
  P  P2  1  0.26751700  0.26109100  0.46945200  1
  P  P3  1  0.76751700  0.76109100  0.03054800  1
  P  P4  1  0.52546500  0.32113100  0.21242300  1
  P  P5  1  0.02546500  0.82113100  0.28757700  1
  P  P6  1  0.47453500  0.67886900  0.78757700  1
  P  P7  1  0.97453500  0.17886900  0.71242300  1
  O  O0  1  0.80116600  0.69301100  0.30324800  1
  O  O1  1  0.30116600  0.19301100  0.19675200  1
  O  O2  1  0.19883400  0.30698900  0.69675200  1
  O  O3  1  0.69883400  0.80698900  0.80324800  1
  O  O4  1  0.54783700  0.34390500  0.29733100  1
  O  O5  1  0.04783700  0.84390500  0.20266900  1
  O  O6  1  0.45216300  0.65609500  0.70266900  1
  O  O7  1  0.95216300  0.15609500  0.79733100  1
  O  O8  1  0.86375400  0.47459600  0.39267200  1
  O  O9  1  0.36375400  0.97459600  0.10732800  1
  O  O10  1  0.13624600  0.52540400  0.60732800  1
  O  O11  1  0.63624600  0.02540400  0.89267200  1
  O  O12  1  0.41845700  0.58689800  0.35500800  1
  O  O13  1  0.91845700  0.08689800  0.14499200  1
  O  O14  1  0.58154300  0.41310200  0.64499200  1
  O  O15  1  0.08154300  0.91310200  0.85500800  1
  O  O16  1  0.49039600  0.36396500  0.44308600  1
  O  O17  1  0.99039600  0.86396500  0.05691400  1
  O  O18  1  0.50960400  0.63603500  0.55691400  1
  O  O19  1  0.00960400  0.13603500  0.94308600  1
  O  O20  1  0.73395000  0.71463100  0.44579300  1
  O  O21  1  0.23395000  0.21463100  0.05420700  1
  O  O22  1  0.26605000  0.28536900  0.55420700  1
  O  O23  1  0.76605000  0.78536900  0.94579300  1
  O  O24  1  0.07204900  0.38404100  0.28704100  1
  O  O25  1  0.57204900  0.88404100  0.21295900  1
  O  O26  1  0.92795100  0.61595900  0.71295900  1
  O  O27  1  0.42795100  0.11595900  0.78704100  1
  O  O28  1  0.12925100  0.33865900  0.43341700  1
  O  O29  1  0.62925100  0.83865900  0.06658300  1
  O  O30  1  0.87074900  0.66134100  0.56658300  1
  O  O31  1  0.37074900  0.16134100  0.93341700  1
  O  O32  1  0.24239700  0.69119300  0.44848000  1
  O  O33  1  0.74239700  0.19119300  0.05152000  1
  O  O34  1  0.75760300  0.30880700  0.55152000  1
  O  O35  1  0.25760300  0.80880700  0.94848000  1
  O  O36  1  0.16336600  0.73375800  0.31562200  1
  O  O37  1  0.66336600  0.23375800  0.18437800  1
  O  O38  1  0.83663400  0.26624200  0.68437800  1
  O  O39  1  0.33663400  0.76624200  0.81562200  1
  O  O40  1  0.79993900  0.93558800  0.54590000  1
  O  O41  1  0.29993900  0.43558800  0.95410000  1
  O  O42  1  0.20006100  0.06441200  0.45410000  1
  O  O43  1  0.70006100  0.56441200  0.04590000  1
  O  O44  1  0.57618900  0.50161300  0.17776800  1
  O  O45  1  0.07618900  0.00161300  0.32223200  1
  O  O46  1  0.42381100  0.49838700  0.82223200  1
  O  O47  1  0.92381100  0.99838700  0.67776800  1
loop_
_geom_bond_atom_site_label_1
_geom_bond_atom_site_label_2
_geom_bond_distance
_geom_bond_site_symmetry_2
Cs0 O25 3.105775 1_545
Cs0 O20 3.180399 1_545
Cs0 O45 3.272635 1_655
Cs0 O4 3.343733 1_555
Cs0 O12 3.389615 1_545
Cs0 O8 3.414391 1_555
Cs0 O32 3.474493 1_545
Cs0 O40 3.497745 1_545
Cs0 O28 3.524031 1_655
Cs0 O0 3.590243 1_545
Cs0 O36 3.594621 1_545
Cs0 O24 3.602064 1_655
Cs0 O16 3.712785 1_555
Cs0 O42 3.781022 1_555
Cs1 O24 3.105775 1_555
Cs1 O21 3.180399 1_555
Cs1 O44 3.272635 1_555
Cs1 O5 3.343733 1_555
Cs1 O13 3.389615 1_455
Cs1 O9 3.414391 1_555
Cs1 O33 3.474493 1_455
Cs1 O41 3.497745 1_554
Cs1 O29 3.524031 1_555
Cs1 O1 3.590243 1_555
Cs1 O37 3.594621 1_455
Cs1 O25 3.602064 1_555
Cs1 O17 3.712785 1_455
Cs1 O43 3.781022 1_455
Cs2 O27 3.105775 1_565
Cs2 O22 3.180399 1_565
Cs2 O47 3.272635 1_455
Cs2 O6 3.343733 1_555
Cs2 O14 3.389615 1_565
Cs2 O10 3.414391 1_555
Cs2 O34 3.474493 1_565
Cs2 O42 3.497745 1_565
Cs2 O30 3.524031 1_455
Cs2 O2 3.590243 1_565
Cs2 O38 3.594621 1_565
Cs2 O26 3.602064 1_455
Cs2 O18 3.712785 1_555
Cs2 O40 3.781022 1_555
Cs3 O26 3.105775 1_555
Cs3 O23 3.180399 1_555
Cs3 O46 3.272635 1_555
Cs3 O7 3.343733 1_555
Cs3 O15 3.389615 1_655
Cs3 O11 3.414391 1_555
Cs3 O35 3.474493 1_655
Cs3 O43 3.497745 1_556
Cs3 O31 3.524031 1_555
Cs3 O3 3.590243 1_555
Cs3 O39 3.594621 1_655
Cs3 O27 3.602064 1_555
Cs3 O19 3.712785 1_655
Cs3 O41 3.781022 1_655
O0 P5 1.571613 1_655
O0 V0 1.875059 1_555
O1 P4 1.571613 1_555
O1 V1 1.875059 1_555
O2 P7 1.571613 1_455
O2 V2 1.875059 1_555
O3 P6 1.571613 1_555
O3 V3 1.875059 1_555
O4 P4 1.554810 1_555
O4 V0 1.985199 1_555
O5 P5 1.554810 1_555
O5 V1 1.985199 1_565
O6 P6 1.554810 1_555
O6 V2 1.985199 1_555
O7 P7 1.554810 1_555
O7 V3 1.985199 1_545
O8 V0 1.672869 1_555
O8 V4 2.135700 1_655
O9 V1 1.672869 1_565
O9 V5 2.135700 1_565
O10 V2 1.672869 1_555
O10 V6 2.135700 1_455
O11 V3 1.672869 1_545
O11 V7 2.135700 1_545
O12 V4 1.734883 1_555
O12 V0 2.119456 1_555
O13 V5 1.734883 1_555
O13 V1 2.119456 1_655
O14 V6 1.734883 1_555
O14 V2 2.119456 1_555
O15 V7 1.734883 1_555
O15 V3 2.119456 1_455
O16 P2 1.570845 1_555
O16 V0 1.889956 1_555
O17 P3 1.570845 1_555
O17 V1 1.889956 1_665
O18 P0 1.570845 1_555
O18 V2 1.889956 1_555
O19 P1 1.570845 1_555
O19 V3 1.889956 1_445
O20 P0 1.553836 1_555
O20 V0 1.946598 1_555
O21 P1 1.553836 1_554
O21 V1 1.946598 1_555
O22 P2 1.553836 1_555
O22 V2 1.946598 1_555
O23 P3 1.553836 1_556
O23 V3 1.946598 1_555
O24 V4 1.639333 1_555
O25 V5 1.639333 1_565
O26 V6 1.639333 1_555
O27 V7 1.639333 1_545
O28 P2 1.548541 1_555
O28 V4 1.942494 1_555
O29 P3 1.548541 1_555
O29 V5 1.942494 1_565
O30 P0 1.548541 1_555
O30 V6 1.942494 1_555
O31 P1 1.548541 1_555
O31 V7 1.942494 1_545
O32 V4 2.124621 1_555
O33 V5 2.124621 1_555
O34 V6 2.124621 1_555
O35 V7 2.124621 1_555
O36 P5 1.549859 1_555
O36 V4 1.984574 1_555
O37 P4 1.549859 1_555
O37 V5 1.984574 1_555
O38 P7 1.549859 1_555
O38 V6 1.984574 1_555
O39 P6 1.549859 1_555
O39 V7 1.984574 1_555
O40 P0 1.534028 1_555
O41 P1 1.534028 1_555
O42 P2 1.534028 1_555
O43 P3 1.534028 1_555
O44 P4 1.531661 1_555
O45 P5 1.531661 1_545
O46 P6 1.531661 1_555
O47 P7 1.531661 1_565
