# generated using pymatgen
data_Mg5Sn
_symmetry_space_group_name_H-M   'P 1'
_cell_length_a   5.59396672
_cell_length_b   5.59396672
_cell_length_c   5.03009021
_cell_angle_alpha   90.00000000
_cell_angle_beta   90.00000000
_cell_angle_gamma   120.00000590
_symmetry_Int_Tables_number   1
_chemical_formula_structural   Mg5Sn
_chemical_formula_sum   'Mg5 Sn1'
_cell_volume   136.31578098
_cell_formula_units_Z   1
loop_
 _symmetry_equiv_pos_site_id
 _symmetry_equiv_pos_as_xyz
  1  'x, y, z'
loop_
 _atom_site_type_symbol
 _atom_site_label
 _atom_site_symmetry_multiplicity
 _atom_site_fract_x
 _atom_site_fract_y
 _atom_site_fract_z
 _atom_site_occupancy
  Mg  Mg0  1  0.00000000  0.33453356  -0.00000000  1
  Mg  Mg1  1  0.66546644  0.66546644  0.00000000  1
  Mg  Mg2  1  0.33453356  0.00000000  0.00000000  1
  Mg  Mg3  1  0.66666700  0.33333300  0.50000000  1
  Mg  Mg4  1  0.33333300  0.66666700  0.50000000  1
  Sn  Sn0  1  -0.00000000  0.00000000  0.50000000  1
loop_
_geom_bond_atom_site_label_1
_geom_bond_atom_site_label_2
_geom_bond_distance
_geom_bond_site_symmetry_2
Mg0 Mg3 3.128883 1_455
Mg0 Mg3 3.128883 1_454
Mg0 Mg4 3.128884 1_555
Mg0 Mg4 3.128884 1_554
Mg0 Sn0 3.134881 1_555
Mg0 Sn0 3.134881 1_554
Mg0 Mg2 3.223879 1_565
Mg0 Mg2 3.223879 1_455
Mg0 Mg1 3.223879 1_555
Mg0 Mg1 3.223879 1_455
Mg0 Mg1 3.241307 1_445
Mg0 Mg2 3.241307 1_555
Mg1 Mg3 3.128886 1_555
Mg1 Mg4 3.128886 1_555
Mg1 Mg3 3.128886 1_554
Mg1 Mg4 3.128886 1_554
Mg1 Sn0 3.134880 1_664
Mg1 Sn0 3.134880 1_665
Mg1 Mg2 3.223879 1_555
Mg1 Mg2 3.223879 1_565
Mg1 Mg2 3.241307 1_665
Mg2 Mg4 3.128883 1_545
Mg2 Mg4 3.128883 1_544
Mg2 Mg3 3.128884 1_554
Mg2 Mg3 3.128884 1_555
Mg2 Sn0 3.134881 1_555
Mg2 Sn0 3.134881 1_554
Mg3 Mg4 3.229675 1_545
Mg3 Mg4 3.229675 1_655
Mg3 Sn0 3.229675 1_655
Mg3 Sn0 3.229680 1_665
Mg3 Sn0 3.229680 1_555
Mg3 Mg4 3.229685 1_555
Mg4 Sn0 3.229675 1_565
Mg4 Sn0 3.229680 1_665
Mg4 Sn0 3.229680 1_555
