# generated using pymatgen
data_UFeB4
_symmetry_space_group_name_H-M   'P 1'
_cell_length_a   3.37539600
_cell_length_b   5.87307400
_cell_length_c   11.38120300
_cell_angle_alpha   90.00000000
_cell_angle_beta   90.00000000
_cell_angle_gamma   90.00000000
_symmetry_Int_Tables_number   1
_chemical_formula_structural   UFeB4
_chemical_formula_sum   'U4 Fe4 B16'
_cell_volume   225.62040476
_cell_formula_units_Z   4
loop_
 _symmetry_equiv_pos_site_id
 _symmetry_equiv_pos_as_xyz
  1  'x, y, z'
loop_
 _atom_site_type_symbol
 _atom_site_label
 _atom_site_symmetry_multiplicity
 _atom_site_fract_x
 _atom_site_fract_y
 _atom_site_fract_z
 _atom_site_occupancy
  U  U0  1  0.00000000  0.62742000  0.34956900  1
  U  U1  1  0.00000000  0.37258000  0.65043100  1
  U  U2  1  0.00000000  0.12742000  0.15043100  1
  U  U3  1  0.00000000  0.87258000  0.84956900  1
  Fe  Fe0  1  0.00000000  0.63478300  0.08889100  1
  Fe  Fe1  1  0.00000000  0.36521700  0.91110900  1
  Fe  Fe2  1  0.00000000  0.13478300  0.41110900  1
  Fe  Fe3  1  0.00000000  0.86521700  0.58889100  1
  B  B0  1  0.50000000  0.78373800  0.18678200  1
  B  B1  1  0.50000000  0.21626200  0.81321800  1
  B  B2  1  0.50000000  0.28373800  0.31321800  1
  B  B3  1  0.50000000  0.71626200  0.68678200  1
  B  B4  1  0.50000000  0.86497200  0.03408600  1
  B  B5  1  0.50000000  0.13502800  0.96591400  1
  B  B6  1  0.50000000  0.36497200  0.46591400  1
  B  B7  1  0.50000000  0.63502800  0.53408600  1
  B  B8  1  0.50000000  0.88636200  0.45428100  1
  B  B9  1  0.50000000  0.11363800  0.54571900  1
  B  B10  1  0.50000000  0.38636200  0.04571900  1
  B  B11  1  0.50000000  0.61363800  0.95428100  1
  B  B12  1  0.50000000  0.97576100  0.30872800  1
  B  B13  1  0.50000000  0.02423900  0.69127200  1
  B  B14  1  0.50000000  0.47576100  0.19127200  1
  B  B15  1  0.50000000  0.52423900  0.80872800  1
loop_
_geom_bond_atom_site_label_1
_geom_bond_atom_site_label_2
_geom_bond_distance
_geom_bond_site_symmetry_2
B0 B12 1.788323 1_555
B0 B4 1.802163 1_555
B0 B14 1.809493 1_555
B0 Fe0 2.203383 1_655
B0 Fe0 2.203383 1_555
B0 U2 2.663402 1_565
B0 U2 2.663402 1_665
B0 U0 2.669029 1_655
B0 U0 2.669029 1_555
B1 B13 1.788323 1_555
B1 B5 1.802163 1_555
B1 B15 1.809493 1_555
B1 Fe1 2.203383 1_555
B1 Fe1 2.203383 1_655
B1 U3 2.663402 1_545
B1 U3 2.663402 1_645
B1 U1 2.669029 1_555
B1 U1 2.669029 1_655
B2 B6 1.802163 1_555
B2 Fe2 2.203383 1_555
B2 Fe2 2.203383 1_655
B2 U0 2.663402 1_555
B2 U0 2.663402 1_655
B2 U2 2.669029 1_655
B2 U2 2.669029 1_555
B3 B7 1.802163 1_555
B3 Fe3 2.203383 1_655
B3 Fe3 2.203383 1_555
B3 U1 2.663402 1_555
B3 U1 2.663402 1_655
B3 U3 2.669029 1_555
B3 U3 2.669029 1_655
B4 B5 1.765665 1_564
B4 Fe0 2.250570 1_655
B4 Fe0 2.250570 1_555
B4 U2 2.641501 1_665
B4 U2 2.641501 1_565
B4 U3 2.694518 1_654
B4 U3 2.694518 1_554
B5 Fe1 2.250570 1_555
B5 Fe1 2.250570 1_655
B5 U3 2.641501 1_545
B5 U3 2.641501 1_645
B5 U2 2.694518 1_556
B5 U2 2.694518 1_656
B6 B9 1.733161 1_555
B6 B7 1.765665 1_555
B6 Fe2 2.250570 1_555
B6 Fe2 2.250570 1_655
B6 U0 2.641501 1_655
B6 U0 2.641501 1_555
B6 U1 2.694518 1_655
B6 U1 2.694518 1_555
B7 B8 1.733161 1_555
B7 Fe3 2.250570 1_655
B7 Fe3 2.250570 1_555
B7 U1 2.641501 1_555
B7 U1 2.641501 1_655
B7 U0 2.694518 1_655
B7 U0 2.694518 1_555
B8 B9 1.692548 1_565
B8 Fe3 2.282727 1_555
B8 Fe3 2.282727 1_655
B8 Fe2 2.284385 1_665
B8 Fe2 2.284385 1_565
B8 U0 2.565420 1_555
B8 U0 2.565420 1_655
B9 Fe2 2.282727 1_655
B9 Fe2 2.282727 1_555
B9 Fe3 2.284385 1_545
B9 Fe3 2.284385 1_645
B9 U1 2.565420 1_555
B9 U1 2.565420 1_655
B10 B11 1.692548 1_554
B10 B5 1.733161 1_554
B10 B14 1.737784 1_555
B10 Fe1 2.282727 1_654
B10 Fe1 2.282727 1_554
B10 Fe0 2.284385 1_555
B10 Fe0 2.284385 1_655
B10 U2 2.565420 1_555
B10 U2 2.565420 1_655
B11 B4 1.733161 1_556
B11 B15 1.737784 1_555
B11 Fe0 2.282727 1_556
B11 Fe0 2.282727 1_656
B11 Fe1 2.284385 1_555
B11 Fe1 2.284385 1_655
B11 U3 2.565420 1_655
B11 U3 2.565420 1_555
B12 B8 1.737784 1_555
B12 B2 1.809493 1_565
B12 Fe2 2.253512 1_565
B12 Fe2 2.253512 1_665
B12 U2 2.624401 1_565
B12 U2 2.624401 1_665
B12 U0 2.692548 1_555
B12 U0 2.692548 1_655
B13 B9 1.737784 1_555
B13 B3 1.809493 1_545
B13 Fe3 2.253512 1_545
B13 Fe3 2.253512 1_645
B13 U3 2.624401 1_545
B13 U3 2.624401 1_645
B13 U1 2.692548 1_655
B13 U1 2.692548 1_555
B14 B2 1.788323 1_555
B14 Fe0 2.253512 1_555
B14 Fe0 2.253512 1_655
B14 U0 2.624401 1_655
B14 U0 2.624401 1_555
B14 U2 2.692548 1_555
B14 U2 2.692548 1_655
B15 B3 1.788323 1_555
B15 Fe1 2.253512 1_555
B15 Fe1 2.253512 1_655
B15 U1 2.624401 1_555
B15 U1 2.624401 1_655
B15 U3 2.692548 1_555
B15 U3 2.692548 1_655
