# generated using pymatgen
data_Li4Zn(PS4)2
_symmetry_space_group_name_H-M   'P 1'
_cell_length_a   5.78430500
_cell_length_b   6.23957908
_cell_length_c   10.19738913
_cell_angle_alpha   79.85876685
_cell_angle_beta   73.96717925
_cell_angle_gamma   62.53240826
_symmetry_Int_Tables_number   1
_chemical_formula_structural   Li4Zn(PS4)2
_chemical_formula_sum   'Li4 Zn1 P2 S8'
_cell_volume   313.33831383
_cell_formula_units_Z   1
loop_
 _symmetry_equiv_pos_site_id
 _symmetry_equiv_pos_as_xyz
  1  'x, y, z'
loop_
 _atom_site_type_symbol
 _atom_site_label
 _atom_site_symmetry_multiplicity
 _atom_site_fract_x
 _atom_site_fract_y
 _atom_site_fract_z
 _atom_site_occupancy
  Li  Li0  1  0.23032200  0.26712300  0.24002800  1
  Li  Li1  1  0.50153700  0.48767000  0.50987700  1
  Li  Li2  1  0.99386100  0.01637600  0.99245800  1
  Li  Li3  1  0.86814100  0.88469100  0.35638000  1
  Zn  Zn0  1  0.76721900  0.73451500  0.75903600  1
  P  P0  1  0.14335900  0.11695400  0.62315000  1
  P  P1  1  0.60975700  0.62911700  0.12956000  1
  S  S0  1  0.23805700  0.91927700  0.16766600  1
  S  S1  1  0.76733200  0.39640200  0.68122900  1
  S  S2  1  0.31695400  0.03663000  0.78662500  1
  S  S3  1  0.77634500  0.56200100  0.29697400  1
  S  S4  1  0.38037800  0.19652100  0.45200500  1
  S  S5  1  0.88349900  0.69546500  0.96624800  1
  S  S6  1  0.07150400  0.83922000  0.57836200  1
  S  S7  1  0.57673800  0.34303900  0.08540000  1
loop_
_geom_bond_atom_site_label_1
_geom_bond_atom_site_label_2
_geom_bond_distance
_geom_bond_site_symmetry_2
Li0 S7 2.364974 1_555
Li0 S3 2.386414 1_455
Li0 S0 2.390265 1_545
Li0 S4 2.443013 1_555
Li1 S3 2.423748 1_555
Li1 S4 2.433122 1_555
Li1 S6 2.456249 1_555
Li1 S1 2.463141 1_555
Li2 S7 2.398880 1_556
Li2 S0 2.403701 1_646
Li2 S2 2.423209 1_655
Li2 S5 2.439308 1_545
Li3 S3 2.509248 1_555
Li3 S0 2.516632 1_655
Li3 S4 2.604056 1_565
Li3 S6 2.743184 1_655
P0 S4 2.042800 1_555
P0 S2 2.050503 1_555
P0 S1 2.067712 1_455
P0 S6 2.105338 1_545
P1 S7 2.017568 1_555
P1 S0 2.060780 1_555
P1 S3 2.074376 1_555
P1 S5 2.087416 1_554
S1 Zn0 2.380796 1_555
S2 Zn0 2.380932 1_545
S5 Zn0 2.330060 1_555
S6 Zn0 2.401000 1_455
