# generated using pymatgen
data_Ba3SbI3
_symmetry_space_group_name_H-M   'P 1'
_cell_length_a   12.30369011
_cell_length_b   12.30303973
_cell_length_c   12.30253666
_cell_angle_alpha   109.47037666
_cell_angle_beta   109.47482847
_cell_angle_gamma   109.47332688
_symmetry_Int_Tables_number   1
_chemical_formula_structural   Ba3SbI3
_chemical_formula_sum   'Ba12 Sb4 I12'
_cell_volume   1433.48938703
_cell_formula_units_Z   4
loop_
 _symmetry_equiv_pos_site_id
 _symmetry_equiv_pos_as_xyz
  1  'x, y, z'
loop_
 _atom_site_type_symbol
 _atom_site_label
 _atom_site_symmetry_multiplicity
 _atom_site_fract_x
 _atom_site_fract_y
 _atom_site_fract_z
 _atom_site_occupancy
  Ba  Ba0  1  0.48716134  0.49357815  0.24357702  1
  Ba  Ba1  1  0.74999816  0.24357884  0.25641453  1
  Ba  Ba2  1  0.74999814  0.00641721  0.49357676  1
  Ba  Ba3  1  0.24357940  0.48716143  0.49357690  1
  Ba  Ba4  1  0.25641706  0.74999802  0.24357730  1
  Ba  Ba5  1  0.01283537  0.25641698  0.00641535  1
  Ba  Ba6  1  0.00641735  0.01283440  0.25641549  1
  Ba  Ba7  1  0.49357962  0.74999736  0.00641508  1
  Ba  Ba8  1  0.49357950  0.24357889  0.48715978  1
  Ba  Ba9  1  0.00641718  0.49357910  0.74999597  1
  Ba  Ba10  1  0.25641698  0.00641674  0.01283236  1
  Ba  Ba11  1  0.24357992  0.25641644  0.74999622  1
  Sb  Sb0  1  0.24999976  0.24999593  0.24999803  1
  Sb  Sb1  1  0.49999284  -0.00000206  0.24999395  1
  Sb  Sb2  1  0.00000196  0.25000118  0.49999880  1
  Sb  Sb3  1  0.24999679  0.49999760  0.99999339  1
  I  I0  1  0.24999843  0.74933113  0.75066323  1
  I  I1  1  0.49880338  0.49922272  0.74925163  1
  I  I2  1  0.00114119  0.75076333  0.00078742  1
  I  I3  1  0.75071224  0.24998388  0.74938059  1
  I  I4  1  0.00075507  0.00134461  0.75074770  1
  I  I5  1  0.25000317  0.00066461  0.49933420  1
  I  I6  1  0.74924173  0.49874666  0.49922822  1
  I  I7  1  0.49939684  0.25001214  0.00072399  1
  I  I8  1  0.74934069  0.75065503  0.24999608  1
  I  I9  1  0.75074588  0.00074486  0.00133370  1
  I  I10  1  0.00064372  0.49931901  0.24996208  1
  I  I11  1  0.49924627  0.74924580  0.49865325  1
loop_
_geom_bond_atom_site_label_1
_geom_bond_atom_site_label_2
_geom_bond_distance
_geom_bond_site_symmetry_2
Ba0 Sb3 3.461498 1_554
Ba0 Sb0 3.461613 1_555
Ba0 I11 3.544089 1_555
Ba0 I7 3.544145 1_555
Ba0 I6 3.641624 1_555
Ba0 I8 3.643699 1_555
Ba1 Sb2 3.461488 1_655
Ba1 Sb1 3.461622 1_555
Ba1 I9 3.544185 1_555
Ba1 I6 3.544769 1_555
Ba1 I7 3.642762 1_555
Ba1 I10 3.643710 1_655
Ba2 Sb1 3.461510 1_555
Ba2 Sb2 3.461623 1_655
Ba2 I3 3.544136 1_555
Ba2 I8 3.544332 1_545
Ba2 I4 3.644709 1_655
Ba2 I11 3.644848 1_545
Ba3 Sb0 3.461583 1_555
Ba3 Sb2 3.461583 1_555
Ba3 I10 3.544389 1_555
Ba3 I1 3.545251 1_555
Ba3 I11 3.642537 1_555
Ba3 I0 3.643650 1_555
Ba4 Sb3 3.461566 1_554
Ba4 Sb1 3.461568 1_565
Ba4 I11 3.544041 1_555
Ba4 I2 3.545383 1_555
Ba4 I5 3.643666 1_565
Ba4 I10 3.643697 1_555
Ba5 Sb0 3.461502 1_555
Ba5 Sb3 3.461608 1_554
Ba5 I10 3.544028 1_555
Ba5 I4 3.544092 1_554
Ba5 I9 3.642581 1_455
Ba5 I3 3.642759 1_454
Ba6 Sb2 3.461587 1_555
Ba6 Sb0 3.461596 1_555
Ba6 I9 3.544030 1_455
Ba6 I5 3.544154 1_555
Ba6 I2 3.640744 1_545
Ba6 I8 3.643690 1_445
Ba7 Sb3 3.461580 1_554
Ba7 Sb1 3.461581 1_565
Ba7 I0 3.544078 1_554
Ba7 I8 3.544231 1_555
Ba7 I9 3.644823 1_565
Ba7 I1 3.645983 1_554
Ba8 Sb0 3.461446 1_555
Ba8 Sb1 3.461554 1_555
Ba8 I5 3.544222 1_555
Ba8 I6 3.544859 1_555
Ba8 I1 3.641363 1_555
Ba8 I3 3.644333 1_555
Ba9 Sb3 3.461423 1_555
Ba9 Sb2 3.461530 1_555
Ba9 I0 3.544216 1_555
Ba9 I3 3.544341 1_455
Ba9 I6 3.645518 1_455
Ba9 I2 3.646635 1_556
Ba10 Sb1 3.461429 1_555
Ba10 Sb0 3.461569 1_555
Ba10 I7 3.544330 1_555
Ba10 I2 3.545720 1_545
Ba10 I4 3.642387 1_554
Ba10 I0 3.643640 1_544
Ba11 Sb2 3.461434 1_555
Ba11 Sb3 3.461541 1_555
Ba11 I4 3.544118 1_555
Ba11 I1 3.545088 1_555
Ba11 I5 3.643670 1_555
Ba11 I7 3.644357 1_556
