# generated using pymatgen
data_Na3TmTi2Nb2O12
_symmetry_space_group_name_H-M   'P 1'
_cell_length_a   5.41280000
_cell_length_b   5.58085976
_cell_length_c   7.74043631
_cell_angle_alpha   89.86080262
_cell_angle_beta   89.97848198
_cell_angle_gamma   89.32371079
_symmetry_Int_Tables_number   1
_chemical_formula_structural   Na3TmTi2Nb2O12
_chemical_formula_sum   'Na3 Tm1 Ti2 Nb2 O12'
_cell_volume   233.80670941
_cell_formula_units_Z   1
loop_
 _symmetry_equiv_pos_site_id
 _symmetry_equiv_pos_as_xyz
  1  'x, y, z'
loop_
 _atom_site_type_symbol
 _atom_site_label
 _atom_site_symmetry_multiplicity
 _atom_site_fract_x
 _atom_site_fract_y
 _atom_site_fract_z
 _atom_site_occupancy
  Na  Na0  1  0.48948300  0.53608400  0.74866700  1
  Na  Na1  1  0.00533400  0.02575800  0.74954500  1
  Na  Na2  1  0.50870700  0.46084400  0.24990000  1
  Tm  Tm0  1  0.98858500  0.93151900  0.25027700  1
  Ti  Ti0  1  0.48937700  0.98407000  0.00682300  1
  Ti  Ti1  1  0.00318800  0.47841500  0.49347500  1
  Nb  Nb0  1  0.49364300  0.99459600  0.51041200  1
  Nb  Nb1  1  0.00318600  0.47807300  0.98975200  1
  O  O0  1  0.57117400  0.98297800  0.75313500  1
  O  O1  1  0.91600400  0.48466100  0.74734600  1
  O  O2  1  0.39311200  0.02769700  0.24670000  1
  O  O3  1  0.07943800  0.53509500  0.25304800  1
  O  O4  1  0.20430900  0.80364700  0.97368800  1
  O  O5  1  0.29430900  0.30361800  0.53869200  1
  O  O6  1  0.80914000  0.20579100  0.44304900  1
  O  O7  1  0.71883700  0.73327500  0.05494900  1
  O  O8  1  0.80620300  0.20352200  0.05789200  1
  O  O9  1  0.72310400  0.72968600  0.44563000  1
  O  O10  1  0.20168700  0.80127600  0.52726900  1
  O  O11  1  0.30117800  0.29939500  0.95975100  1
loop_
_geom_bond_atom_site_label_1
_geom_bond_atom_site_label_2
_geom_bond_distance
_geom_bond_site_symmetry_2
Na0 O1 2.323099 1_555
Na0 O11 2.339520 1_555
Na0 O5 2.341941 1_555
Na0 O0 2.538401 1_555
Na0 O10 2.736634 1_555
Na0 O4 2.757235 1_555
Na0 O9 2.878577 1_555
Na0 O7 2.901707 1_556
Na1 O0 2.365066 1_445
Na1 O10 2.374223 1_545
Na1 O4 2.380342 1_545
Na1 O1 2.600720 1_455
Na1 O5 2.749190 1_555
Na1 O11 2.759637 1_555
Na1 O6 2.780418 1_455
Na1 O8 2.797650 1_456
Na2 O3 2.355516 1_555
Na2 O7 2.431205 1_555
Na2 O9 2.438574 1_555
Na2 O2 2.504318 1_555
Na2 O8 2.611167 1_555
Na2 O6 2.615841 1_555
Na2 O5 2.669483 1_555
Na2 O11 2.674560 1_554
Nb0 O0 1.926006 1_555
Nb0 O10 1.928157 1_555
Nb0 O9 1.984843 1_555
Nb0 O5 2.035698 1_565
Nb0 O2 2.119798 1_565
Nb0 O6 2.149713 1_565
Nb1 O11 1.900747 1_555
Nb1 O1 1.935089 1_455
Nb1 O8 1.948584 1_456
Nb1 O3 2.105245 1_556
Nb1 O4 2.132491 1_555
Nb1 O7 2.145511 1_456
O0 Ti0 2.012797 1_556
O1 Ti1 2.021057 1_655
O2 Ti0 1.943397 1_545
O2 Tm0 2.260742 1_445
O3 Ti1 1.932202 1_555
O3 Tm0 2.260762 1_455
O4 Ti0 1.870505 1_556
O4 Tm0 2.538138 1_456
O5 Ti1 1.876082 1_555
O6 Ti1 1.900363 1_655
O6 Tm0 2.342601 1_545
O7 Ti0 1.896625 1_555
O7 Tm0 2.385322 1_555
O8 Ti0 2.156294 1_545
O8 Tm0 2.334782 1_545
O9 Ti1 2.085595 1_655
O9 Tm0 2.376665 1_555
O10 Ti1 2.125482 1_555
O10 Tm0 2.535793 1_455
O11 Ti0 2.054789 1_546
