# generated using pymatgen
data_TmTa5Ag2O15
_symmetry_space_group_name_H-M   'P 1'
_cell_length_a   12.59018500
_cell_length_b   12.59018500
_cell_length_c   3.91530500
_cell_angle_alpha   90.00000000
_cell_angle_beta   90.00000000
_cell_angle_gamma   90.00000000
_symmetry_Int_Tables_number   1
_chemical_formula_structural   TmTa5Ag2O15
_chemical_formula_sum   'Tm2 Ta10 Ag4 O30'
_cell_volume   620.62579527
_cell_formula_units_Z   2
loop_
 _symmetry_equiv_pos_site_id
 _symmetry_equiv_pos_as_xyz
  1  'x, y, z'
loop_
 _atom_site_type_symbol
 _atom_site_label
 _atom_site_symmetry_multiplicity
 _atom_site_fract_x
 _atom_site_fract_y
 _atom_site_fract_z
 _atom_site_occupancy
  Tm  Tm0  1  0.00000000  0.00000000  0.50000000  1
  Tm  Tm1  1  0.50000000  0.50000000  0.50000000  1
  Ta  Ta0  1  0.50000000  0.00000000  0.00000000  1
  Ta  Ta1  1  0.00000000  0.50000000  0.00000000  1
  Ta  Ta2  1  0.21035300  0.07864300  0.00000000  1
  Ta  Ta3  1  0.78964700  0.92135700  0.00000000  1
  Ta  Ta4  1  0.07864300  0.78964700  0.00000000  1
  Ta  Ta5  1  0.71035300  0.42135700  0.00000000  1
  Ta  Ta6  1  0.92135700  0.21035300  0.00000000  1
  Ta  Ta7  1  0.28964700  0.57864300  0.00000000  1
  Ta  Ta8  1  0.57864300  0.71035300  0.00000000  1
  Ta  Ta9  1  0.42135700  0.28964700  0.00000000  1
  Ag  Ag0  1  0.67181500  0.17181500  0.50000000  1
  Ag  Ag1  1  0.32818500  0.82818500  0.50000000  1
  Ag  Ag2  1  0.17181500  0.32818500  0.50000000  1
  Ag  Ag3  1  0.82818500  0.67181500  0.50000000  1
  O  O0  1  0.18667400  0.07926500  0.50000000  1
  O  O1  1  0.81332600  0.92073500  0.50000000  1
  O  O2  1  0.07926500  0.81332600  0.50000000  1
  O  O3  1  0.68667400  0.42073500  0.50000000  1
  O  O4  1  0.92073500  0.18667400  0.50000000  1
  O  O5  1  0.31332600  0.57926500  0.50000000  1
  O  O6  1  0.57926500  0.68667400  0.50000000  1
  O  O7  1  0.42073500  0.31332600  0.50000000  1
  O  O8  1  0.22487700  0.72487700  0.00000000  1
  O  O9  1  0.77512300  0.27512300  0.00000000  1
  O  O10  1  0.72487700  0.77512300  0.00000000  1
  O  O11  1  0.27512300  0.22487700  0.00000000  1
  O  O12  1  0.50000000  0.00000000  0.50000000  1
  O  O13  1  0.00000000  0.50000000  0.50000000  1
  O  O14  1  0.05646300  0.12944000  0.00000000  1
  O  O15  1  0.94353700  0.87056000  0.00000000  1
  O  O16  1  0.12944000  0.94353700  0.00000000  1
  O  O17  1  0.55646300  0.37056000  0.00000000  1
  O  O18  1  0.87056000  0.05646300  0.00000000  1
  O  O19  1  0.44353700  0.62944000  0.00000000  1
  O  O20  1  0.62944000  0.55646300  0.00000000  1
  O  O21  1  0.37056000  0.44353700  0.00000000  1
  O  O22  1  0.34083400  0.99895500  0.00000000  1
  O  O23  1  0.65916600  0.00104500  0.00000000  1
  O  O24  1  0.99895500  0.65916600  0.00000000  1
  O  O25  1  0.84083400  0.50104500  0.00000000  1
  O  O26  1  0.00104500  0.34083400  0.00000000  1
  O  O27  1  0.15916600  0.49895500  0.00000000  1
  O  O28  1  0.49895500  0.84083400  0.00000000  1
  O  O29  1  0.50104500  0.15916600  0.00000000  1
loop_
_geom_bond_atom_site_label_1
_geom_bond_atom_site_label_2
_geom_bond_distance
_geom_bond_site_symmetry_2
Ag0 O9 2.686237 1_555
Ag0 O9 2.686237 1_556
Ag1 O8 2.686237 1_556
Ag1 O8 2.686237 1_555
Ag2 O11 2.686237 1_556
Ag2 O11 2.686237 1_555
Ag3 O10 2.686237 1_556
Ag3 O10 2.686237 1_555
O0 Ta2 1.980238 1_555
O0 Ta2 1.980238 1_556
O0 Tm0 2.553360 1_555
O1 Ta3 1.980238 1_555
O1 Ta3 1.980238 1_556
O1 Tm0 2.553360 1_665
O2 Ta4 1.980238 1_555
O2 Ta4 1.980238 1_556
O2 Tm0 2.553360 1_565
O3 Ta5 1.980238 1_556
O3 Ta5 1.980238 1_555
O3 Tm1 2.553360 1_555
O4 Ta6 1.980238 1_555
O4 Ta6 1.980238 1_556
O4 Tm0 2.553360 1_655
O5 Ta7 1.980238 1_555
O5 Ta7 1.980238 1_556
O5 Tm1 2.553360 1_555
O6 Ta8 1.980238 1_555
O6 Ta8 1.980238 1_556
O6 Tm1 2.553360 1_555
O7 Ta9 1.980238 1_556
O7 Ta9 1.980238 1_555
O7 Tm1 2.553360 1_555
O8 Ta4 2.013624 1_555
O8 Ta7 2.013624 1_555
O9 Ta6 2.013624 1_555
O9 Ta5 2.013624 1_555
O10 Ta8 2.013624 1_555
O10 Ta3 2.013624 1_555
O11 Ta9 2.013624 1_555
O11 Ta2 2.013624 1_555
O12 Ta0 1.957653 1_556
O12 Ta0 1.957653 1_555
O13 Ta1 1.957653 1_556
O13 Ta1 1.957653 1_555
O14 Ta6 1.982726 1_455
O14 Ta2 2.040327 1_555
O14 Tm0 2.644539 1_554
O14 Tm0 2.644539 1_555
O15 Ta4 1.982726 1_655
O15 Ta3 2.040327 1_555
O15 Tm0 2.644539 1_665
O15 Tm0 2.644539 1_664
O16 Ta2 1.982726 1_565
O16 Ta4 2.040327 1_555
O16 Tm0 2.644539 1_565
O16 Tm0 2.644539 1_564
O17 Ta9 1.982726 1_555
O17 Ta5 2.040327 1_555
O17 Tm1 2.644539 1_555
O17 Tm1 2.644539 1_554
O18 Ta3 1.982726 1_545
O18 Ta6 2.040327 1_555
O18 Tm0 2.644539 1_655
O18 Tm0 2.644539 1_654
O19 Ta8 1.982726 1_555
O19 Ta7 2.040327 1_555
O19 Tm1 2.644539 1_555
O19 Tm1 2.644539 1_554
O20 Ta5 1.982726 1_555
O20 Ta8 2.040327 1_555
O20 Tm1 2.644539 1_555
O20 Tm1 2.644539 1_554
O21 Ta7 1.982726 1_555
O21 Ta9 2.040327 1_555
O21 Tm1 2.644539 1_555
O21 Tm1 2.644539 1_554
O22 Ta2 1.924918 1_565
O22 Ta0 2.003973 1_565
O23 Ta3 1.924918 1_545
O23 Ta0 2.003973 1_555
O24 Ta4 1.924918 1_655
O24 Ta1 2.003973 1_655
O25 Ta5 1.924918 1_555
O25 Ta1 2.003973 1_655
O26 Ta6 1.924918 1_455
O26 Ta1 2.003973 1_555
O27 Ta7 1.924918 1_555
O27 Ta1 2.003973 1_555
O28 Ta8 1.924918 1_555
O28 Ta0 2.003973 1_565
O29 Ta9 1.924918 1_555
O29 Ta0 2.003973 1_555
