# generated using pymatgen
data_KEuV4O12
_symmetry_space_group_name_H-M   'P 1'
_cell_length_a   5.69256970
_cell_length_b   5.69256970
_cell_length_c   7.38506530
_cell_angle_alpha   90.00000000
_cell_angle_beta   90.00000000
_cell_angle_gamma   98.87168017
_symmetry_Int_Tables_number   1
_chemical_formula_structural   KEuV4O12
_chemical_formula_sum   'K1 Eu1 V4 O12'
_cell_volume   236.45250370
_cell_formula_units_Z   1
loop_
 _symmetry_equiv_pos_site_id
 _symmetry_equiv_pos_as_xyz
  1  'x, y, z'
loop_
 _atom_site_type_symbol
 _atom_site_label
 _atom_site_symmetry_multiplicity
 _atom_site_fract_x
 _atom_site_fract_y
 _atom_site_fract_z
 _atom_site_occupancy
  K  K0  1  0.98270975  0.01729025  0.00000000  1
  Eu  Eu0  1  0.45765028  0.54234972  0.50000000  1
  V  V0  1  0.47163779  0.03636512  0.24925018  1
  V  V1  1  0.47163779  0.03636512  0.75074982  1
  V  V2  1  0.96363488  0.52836221  0.75074982  1
  V  V3  1  0.96363488  0.52836221  0.24925018  1
  O  O0  1  0.28344668  0.23118095  0.26103364  1
  O  O1  1  0.76881905  0.71655332  0.26103364  1
  O  O2  1  0.76881905  0.71655332  0.73896636  1
  O  O3  1  0.28344668  0.23118095  0.73896636  1
  O  O4  1  0.26527694  0.73472306  0.25115844  1
  O  O5  1  0.75454396  0.24545604  0.26602472  1
  O  O6  1  0.75454396  0.24545604  0.73397528  1
  O  O7  1  0.26527694  0.73472306  0.74884156  1
  O  O8  1  0.50195841  0.00350607  0.00000000  1
  O  O9  1  0.50897657  -0.03419248  0.50000000  1
  O  O10  1  -0.00350607  0.49804159  0.00000000  1
  O  O11  1  0.03419248  0.49102343  0.50000000  1
loop_
_geom_bond_atom_site_label_1
_geom_bond_atom_site_label_2
_geom_bond_distance
_geom_bond_site_symmetry_2
K0 O10 2.725712 1_655
K0 O8 2.725712 1_555
K0 O3 2.736170 1_654
K0 O0 2.736170 1_655
K0 O2 2.736170 1_544
K0 O1 2.736170 1_545
K0 O6 2.784612 1_554
K0 O5 2.784612 1_555
K0 O8 2.968973 1_655
K0 O10 2.968973 1_645
K0 O4 3.068091 1_645
K0 O7 3.068091 1_644
Eu0 O9 2.383053 1_565
Eu0 O11 2.383053 1_555
Eu0 O4 2.479025 1_555
Eu0 O7 2.479025 1_555
Eu0 O1 2.587224 1_555
Eu0 O2 2.587224 1_555
Eu0 O0 2.587224 1_555
Eu0 O3 2.587224 1_555
O0 V0 1.658787 1_555
O1 V3 1.658787 1_555
O2 V2 1.658787 1_555
O3 V1 1.658787 1_555
O4 V0 1.925226 1_565
O4 V3 1.925226 1_455
O5 V0 1.853218 1_555
O5 V3 1.853218 1_555
O6 V1 1.853218 1_555
O6 V2 1.853218 1_555
O7 V1 1.925226 1_565
O7 V2 1.925226 1_455
O8 V0 1.860919 1_555
O8 V1 1.860919 1_554
O9 V0 1.913639 1_555
O9 V1 1.913639 1_555
O10 V2 1.860919 1_454
O10 V3 1.860919 1_455
O11 V3 1.913639 1_455
O11 V2 1.913639 1_455
