# generated using pymatgen
data_La3NbGa5O14
_symmetry_space_group_name_H-M   'P 1'
_cell_length_a   8.32263806
_cell_length_b   8.32263806
_cell_length_c   5.24665200
_cell_angle_alpha   90.00000000
_cell_angle_beta   90.00000000
_cell_angle_gamma   120.00000045
_symmetry_Int_Tables_number   1
_chemical_formula_structural   La3NbGa5O14
_chemical_formula_sum   'La3 Nb1 Ga5 O14'
_cell_volume   314.72765436
_cell_formula_units_Z   1
loop_
 _symmetry_equiv_pos_site_id
 _symmetry_equiv_pos_as_xyz
  1  'x, y, z'
loop_
 _atom_site_type_symbol
 _atom_site_label
 _atom_site_symmetry_multiplicity
 _atom_site_fract_x
 _atom_site_fract_y
 _atom_site_fract_z
 _atom_site_occupancy
  La  La0  1  0.57513700  0.00000000  0.00000000  1
  La  La1  1  0.00000000  0.57513700  0.00000000  1
  La  La2  1  0.42486300  0.42486300  0.00000000  1
  Nb  Nb0  1  0.00000000  0.00000000  0.00000000  1
  Ga  Ga0  1  0.33333300  0.66666700  0.52936500  1
  Ga  Ga1  1  0.66666700  0.33333300  0.47063500  1
  Ga  Ga2  1  0.24333200  0.00000000  0.50000000  1
  Ga  Ga3  1  0.00000000  0.24333200  0.50000000  1
  Ga  Ga4  1  0.75666800  0.75666800  0.50000000  1
  O  O0  1  0.14626700  0.22424700  0.24195800  1
  O  O1  1  0.77575300  0.92202000  0.24195800  1
  O  O2  1  0.22424700  0.14626700  0.75804200  1
  O  O3  1  0.07798000  0.85373300  0.24195800  1
  O  O4  1  0.92202000  0.77575300  0.75804200  1
  O  O5  1  0.85373300  0.07798000  0.75804200  1
  O  O6  1  0.33333300  0.66666700  0.18184600  1
  O  O7  1  0.66666700  0.33333300  0.81815400  1
  O  O8  1  0.45761000  0.14630200  0.30195300  1
  O  O9  1  0.85369800  0.31130800  0.30195300  1
  O  O10  1  0.14630200  0.45761000  0.69804700  1
  O  O11  1  0.68869200  0.54239000  0.30195300  1
  O  O12  1  0.31130800  0.85369800  0.69804700  1
  O  O13  1  0.54239000  0.68869200  0.69804700  1
loop_
_geom_bond_atom_site_label_1
_geom_bond_atom_site_label_2
_geom_bond_distance
_geom_bond_site_symmetry_2
La0 O5 2.429836 1_554
La0 O1 2.429836 1_545
La0 O12 2.477935 1_544
La0 O8 2.477935 1_555
La0 O7 2.659605 1_554
La0 O6 2.659607 1_545
La0 O9 2.930999 1_555
La0 O13 2.930999 1_544
La1 O3 2.429836 1_555
La1 O4 2.429836 1_454
La1 O9 2.477935 1_455
La1 O10 2.477935 1_554
La1 O6 2.659605 1_555
La1 O7 2.659607 1_454
La1 O12 2.930999 1_554
La1 O11 2.930999 1_455
La2 O0 2.429836 1_555
La2 O2 2.429836 1_554
La2 O11 2.477935 1_555
La2 O13 2.477935 1_554
La2 O6 2.659612 1_555
La2 O7 2.659612 1_554
La2 O8 2.930999 1_555
La2 O10 2.930999 1_554
Nb0 O0 2.074773 1_555
Nb0 O2 2.074773 1_554
Nb0 O1 2.074773 1_445
Nb0 O4 2.074773 1_444
Nb0 O3 2.074773 1_545
Nb0 O5 2.074773 1_454
Ga0 O6 1.823311 1_555
Ga0 O12 1.877542 1_555
Ga0 O10 1.877546 1_555
Ga0 O13 1.877549 1_555
Ga1 O7 1.823311 1_555
Ga1 O9 1.877542 1_555
Ga1 O8 1.877546 1_555
Ga1 O11 1.877549 1_555
Ga2 O3 1.879734 1_545
Ga2 O2 1.879734 1_555
Ga2 O8 1.889764 1_555
Ga2 O12 1.889764 1_545
Ga3 O5 1.879734 1_455
Ga3 O0 1.879734 1_555
Ga3 O10 1.889764 1_555
Ga3 O9 1.889764 1_455
Ga4 O4 1.879734 1_555
Ga4 O1 1.879734 1_555
Ga4 O13 1.889764 1_555
Ga4 O11 1.889764 1_555
