# generated using pymatgen
data_SmInNi
_symmetry_space_group_name_H-M   'P 1'
_cell_length_a   7.91607037
_cell_length_b   7.91607080
_cell_length_c   3.65976700
_cell_angle_alpha   90.00000000
_cell_angle_beta   90.00000000
_cell_angle_gamma   119.38400578
_symmetry_Int_Tables_number   1
_chemical_formula_structural   SmInNi
_chemical_formula_sum   'Sm3 In3 Ni3'
_cell_volume   199.83234943
_cell_formula_units_Z   3
loop_
 _symmetry_equiv_pos_site_id
 _symmetry_equiv_pos_as_xyz
  1  'x, y, z'
loop_
 _atom_site_type_symbol
 _atom_site_label
 _atom_site_symmetry_multiplicity
 _atom_site_fract_x
 _atom_site_fract_y
 _atom_site_fract_z
 _atom_site_occupancy
  Sm  Sm0  1  0.33730200  0.33730200  0.50000000  1
  Sm  Sm1  1  0.66553400  0.00170200  0.50000000  1
  Sm  Sm2  1  0.00170200  0.66553400  0.50000000  1
  In  In0  1  0.66893100  0.66893100  0.00000000  1
  In  In1  1  0.33149200  0.00034500  0.00000000  1
  In  In2  1  0.00034500  0.33149200  0.00000000  1
  Ni  Ni0  1  0.99814800  0.99814800  0.00000000  1
  Ni  Ni1  1  0.66514300  0.33150200  0.00000000  1
  Ni  Ni2  1  0.33150200  0.66514300  0.00000000  1
loop_
_geom_bond_atom_site_label_1
_geom_bond_atom_site_label_2
_geom_bond_distance
_geom_bond_site_symmetry_2
In0 Ni0 2.630332 1_555
In0 Ni2 2.656527 1_555
In0 Ni1 2.656527 1_555
In0 Sm2 3.218373 1_654
In0 Sm2 3.218373 1_655
In0 Sm1 3.218373 1_564
In0 Sm1 3.218373 1_565
In0 Sm0 3.220073 1_555
In0 Sm0 3.220073 1_554
In1 Ni0 2.630285 1_445
In1 Ni2 2.653522 1_545
In1 Ni1 2.655850 1_555
In1 Sm1 3.211392 1_554
In1 Sm1 3.211392 1_555
In1 Sm0 3.216379 1_554
In1 Sm0 3.216379 1_555
In1 Sm2 3.224672 1_545
In1 Sm2 3.224672 1_544
In2 Ni0 2.630285 1_445
In2 Ni1 2.653521 1_455
In2 Ni2 2.655850 1_555
In2 Sm2 3.211392 1_555
In2 Sm2 3.211392 1_554
In2 Sm0 3.216379 1_554
In2 Sm0 3.216379 1_555
In2 Sm1 3.224672 1_455
In2 Sm1 3.224672 1_454
Ni0 Sm1 3.217860 1_564
Ni0 Sm1 3.217860 1_565
Ni0 Sm2 3.217860 1_655
Ni0 Sm2 3.217860 1_654
Ni0 Sm0 3.269722 1_664
Ni0 Sm0 3.269722 1_665
Ni1 Sm1 3.189400 1_554
Ni1 Sm1 3.189400 1_555
Ni1 Sm0 3.194157 1_555
Ni1 Sm0 3.194157 1_554
Ni1 Sm2 3.244266 1_654
Ni1 Sm2 3.244266 1_655
Ni2 Sm2 3.189400 1_555
Ni2 Sm2 3.189400 1_554
Ni2 Sm0 3.194157 1_554
Ni2 Sm0 3.194157 1_555
Ni2 Sm1 3.244266 1_565
Ni2 Sm1 3.244266 1_564
