# generated using pymatgen
data_Sr6Nb7O21
_symmetry_space_group_name_H-M   'P 1'
_cell_length_a   7.00910254
_cell_length_b   9.04917501
_cell_length_c   9.04796925
_cell_angle_alpha   113.56939261
_cell_angle_beta   104.93282877
_cell_angle_gamma   104.97752634
_symmetry_Int_Tables_number   1
_chemical_formula_structural   Sr6Nb7O21
_chemical_formula_sum   'Sr6 Nb7 O21'
_cell_volume   463.97926188
_cell_formula_units_Z   1
loop_
 _symmetry_equiv_pos_site_id
 _symmetry_equiv_pos_as_xyz
  1  'x, y, z'
loop_
 _atom_site_type_symbol
 _atom_site_label
 _atom_site_symmetry_multiplicity
 _atom_site_fract_x
 _atom_site_fract_y
 _atom_site_fract_z
 _atom_site_occupancy
  Sr  Sr0  1  0.56234133  0.28108367  0.42253964  1
  Sr  Sr1  1  0.13991444  0.57699078  0.85763591  1
  Sr  Sr2  1  0.71578800  0.85836705  0.28037871  1
  Sr  Sr3  1  0.28137858  0.14151640  0.71879344  1
  Sr  Sr4  1  0.85820868  0.42334114  0.14174193  1
  Sr  Sr5  1  0.43422613  0.71887885  0.57704420  1
  Nb  Nb0  1  0.06859538  0.28380875  0.42573581  1
  Nb  Nb1  1  0.64268788  0.57428217  0.85754505  1
  Nb  Nb2  1  0.21231858  0.85793912  0.28337010  1
  Nb  Nb3  1  0.78506473  0.14256187  0.71636880  1
  Nb  Nb4  1  0.35473683  0.42597616  0.14189647  1
  Nb  Nb5  1  0.92904074  0.71677581  0.57380944  1
  Nb  Nb6  1  0.49860215  0.00011346  0.99970301  1
  O  O0  1  0.55904300  0.78010275  0.92728568  1
  O  O1  1  0.77937588  0.14737470  0.21985921  1
  O  O2  1  0.14254947  0.07219289  0.36934890  1
  O  O3  1  0.35327836  0.42901672  0.64442470  1
  O  O4  1  0.70752803  0.35508796  0.78514193  1
  O  O5  1  0.77530818  0.63101127  0.70325488  1
  O  O6  1  0.92532227  0.70409802  0.07290746  1
  O  O7  1  0.28928154  0.64512454  0.21576281  1
  O  O8  1  0.36441743  0.92836929  0.14707316  1
  O  O9  1  0.49927916  0.00084533  0.49935414  1
  O  O10  1  0.92464955  0.21922085  0.57269299  1
  O  O11  1  0.85445465  0.92820071  0.63000298  1
  O  O12  1  0.07102375  0.29576291  0.92780498  1
  O  O13  1  0.49726293  0.50038481  0.99916495  1
  O  O14  1  0.43907616  0.22058340  0.07164305  1
  O  O15  1  0.64509945  0.57179819  0.35430832  1
  O  O16  1  0.99968220  0.50071914  0.49920341  1
  O  O17  1  0.07486901  0.78385921  0.42911149  1
  O  O18  1  0.21752912  0.85298714  0.78028630  1
  O  O19  1  0.63181409  0.07065705  0.85126171  1
  O  O20  1  0.22317433  0.36809091  0.29597246  1
loop_
_geom_bond_atom_site_label_1
_geom_bond_atom_site_label_2
_geom_bond_distance
_geom_bond_site_symmetry_2
Nb0 O1 2.006150 1_455
Nb0 O2 2.015950 1_555
Nb0 O20 2.019572 1_555
Nb0 O10 2.033628 1_455
Nb0 O16 2.034717 1_455
Nb0 O3 2.038143 1_555
Nb1 O0 2.006492 1_555
Nb1 O5 2.017843 1_555
Nb1 O6 2.019532 1_556
Nb1 O13 2.033255 1_555
Nb1 O3 2.034659 1_555
Nb1 O4 2.037229 1_555
Nb2 O8 2.004605 1_555
Nb2 O6 2.017184 1_455
Nb2 O2 2.020711 1_565
Nb2 O7 2.034407 1_555
Nb2 O17 2.035742 1_555
Nb2 O9 2.036076 1_565
Nb3 O19 2.004075 1_555
Nb3 O12 2.016355 1_655
Nb3 O11 2.020214 1_545
Nb3 O4 2.034375 1_555
Nb3 O9 2.035664 1_555
Nb3 O10 2.038187 1_555
Nb4 O14 2.006182 1_555
Nb4 O20 2.016184 1_555
Nb4 O12 2.018276 1_554
Nb4 O13 2.032672 1_554
Nb4 O15 2.035882 1_555
Nb4 O7 2.039177 1_555
Nb5 O18 2.005358 1_655
Nb5 O11 2.016994 1_555
Nb5 O5 2.019959 1_555
Nb5 O17 2.032696 1_655
Nb5 O16 2.034833 1_555
Nb5 O15 2.038627 1_555
Nb6 O8 2.026580 1_546
Nb6 O19 2.026591 1_555
Nb6 O0 2.026895 1_545
Nb6 O14 2.027252 1_556
Nb6 O18 2.027279 1_545
Nb6 O1 2.029275 1_556
O0 Sr1 2.781046 1_555
O0 Sr2 2.809738 1_556
O0 Sr5 2.833956 1_555
O1 Sr0 2.784908 1_555
O1 Sr4 2.817951 1_555
O1 Sr2 2.829616 1_545
O2 Sr3 2.801754 1_555
O2 Sr2 2.803773 1_445
O2 Sr0 2.851340 1_555
O3 Sr1 2.864813 1_555
O3 Sr5 2.874315 1_555
O3 Sr0 2.889734 1_555
O3 Sr3 2.893502 1_555
O4 Sr3 2.860331 1_555
O4 Sr4 2.867087 1_556
O4 Sr0 2.901350 1_555
O4 Sr1 2.902390 1_655
O5 Sr0 2.806655 1_555
O5 Sr5 2.820163 1_555
O5 Sr1 2.841316 1_655
O6 Sr4 2.804031 1_555
O6 Sr1 2.826931 1_654
O6 Sr2 2.830984 1_555
O7 Sr2 2.866613 1_555
O7 Sr1 2.880311 1_554
O7 Sr4 2.890218 1_455
O7 Sr5 2.890725 1_555
O8 Sr2 2.794262 1_555
O8 Sr0 2.809177 1_565
O8 Sr1 2.841738 1_554
O9 Sr0 2.845663 1_555
O9 Sr5 2.865433 1_545
O9 Sr2 2.899776 1_545
O9 Sr3 2.905451 1_555
O10 Sr0 2.858832 1_555
O10 Sr1 2.863597 1_655
O10 Sr2 2.903134 1_545
O10 Sr3 2.905566 1_655
O11 Sr2 2.801840 1_555
O11 Sr3 2.803750 1_665
O11 Sr5 2.855885 1_555
O12 Sr4 2.809939 1_456
O12 Sr1 2.815601 1_555
O12 Sr3 2.843984 1_555
O13 Sr2 2.854686 1_556
O13 Sr3 2.857373 1_555
O13 Sr1 2.889329 1_555
O13 Sr4 2.915407 1_556
O14 Sr4 2.778863 1_555
O14 Sr3 2.805706 1_554
O14 Sr0 2.842173 1_555
O15 Sr4 2.861199 1_555
O15 Sr2 2.882983 1_555
O15 Sr0 2.886684 1_555
O15 Sr5 2.902475 1_555
O16 Sr4 2.848052 1_555
O16 Sr1 2.859466 1_655
O16 Sr5 2.888710 1_655
O16 Sr0 2.912115 1_555
O17 Sr5 2.852892 1_555
O17 Sr3 2.877365 1_565
O17 Sr4 2.886263 1_455
O17 Sr2 2.908129 1_455
O18 Sr5 2.787258 1_555
O18 Sr1 2.813402 1_555
O18 Sr3 2.830729 1_565
O19 Sr3 2.791468 1_555
O19 Sr5 2.800255 1_545
O19 Sr4 2.852410 1_556
O20 Sr0 2.805025 1_555
O20 Sr5 2.812527 1_555
O20 Sr4 2.849628 1_455
