# generated using pymatgen
data_SrSmAl3O7
_symmetry_space_group_name_H-M   'P 1'
_cell_length_a   7.89166872
_cell_length_b   7.89166872
_cell_length_c   5.21431400
_cell_angle_alpha   90.00000000
_cell_angle_beta   90.00000000
_cell_angle_gamma   90.59595451
_symmetry_Int_Tables_number   1
_chemical_formula_structural   SrSmAl3O7
_chemical_formula_sum   'Sr2 Sm2 Al6 O14'
_cell_volume   324.72174988
_cell_formula_units_Z   2
loop_
 _symmetry_equiv_pos_site_id
 _symmetry_equiv_pos_as_xyz
  1  'x, y, z'
loop_
 _atom_site_type_symbol
 _atom_site_label
 _atom_site_symmetry_multiplicity
 _atom_site_fract_x
 _atom_site_fract_y
 _atom_site_fract_z
 _atom_site_occupancy
  Sr  Sr0  1  0.16198900  0.83801100  0.49022100  1
  Sr  Sr1  1  0.83801100  0.16198900  0.49022100  1
  Sm  Sm0  1  0.66150100  0.66150100  0.51451500  1
  Sm  Sm1  1  0.33849900  0.33849900  0.51451500  1
  Al  Al0  1  0.50000000  0.00000000  0.99608400  1
  Al  Al1  1  0.00000000  0.50000000  0.99608400  1
  Al  Al2  1  0.36013000  0.63987000  0.04089500  1
  Al  Al3  1  0.85339100  0.85339100  0.96066000  1
  Al  Al4  1  0.63987000  0.36013000  0.04089500  1
  Al  Al5  1  0.14660900  0.14660900  0.96066000  1
  O  O0  1  0.37235000  0.62765000  0.70476300  1
  O  O1  1  0.84412100  0.84412100  0.29446400  1
  O  O2  1  0.62765000  0.37235000  0.70476300  1
  O  O3  1  0.15587900  0.15587900  0.29446400  1
  O  O4  1  0.41910400  0.83360500  0.18857800  1
  O  O5  1  0.90534900  0.65936600  0.80086600  1
  O  O6  1  0.58089600  0.16639500  0.18857800  1
  O  O7  1  0.09465100  0.34063400  0.80086600  1
  O  O8  1  0.34063400  0.09465100  0.80086600  1
  O  O9  1  0.83360500  0.41910400  0.18857800  1
  O  O10  1  0.65936600  0.90534900  0.80086600  1
  O  O11  1  0.16639500  0.58089600  0.18857800  1
  O  O12  1  0.00000000  0.00000000  0.83896000  1
  O  O13  1  0.50000000  0.50000000  0.20005800  1
loop_
_geom_bond_atom_site_label_1
_geom_bond_atom_site_label_2
_geom_bond_distance
_geom_bond_site_symmetry_2
Al0 O6 1.766891 1_556
Al0 O4 1.766891 1_546
Al0 O8 1.787562 1_555
Al0 O10 1.787562 1_545
Al1 O11 1.766891 1_556
Al1 O9 1.766891 1_456
Al1 O7 1.787562 1_555
Al1 O5 1.787562 1_455
Al2 O0 1.758051 1_554
Al2 O4 1.769834 1_555
Al2 O11 1.769834 1_555
Al2 O13 1.775079 1_555
Al3 O1 1.743599 1_556
Al3 O12 1.747025 1_665
Al3 O5 1.794423 1_555
Al3 O10 1.794423 1_555
Al4 O2 1.758051 1_554
Al4 O9 1.769834 1_555
Al4 O6 1.769834 1_555
Al4 O13 1.775079 1_555
Al5 O3 1.743599 1_556
Al5 O12 1.747025 1_555
Al5 O7 1.794423 1_555
Al5 O8 1.794423 1_555
O0 Sm0 2.499953 1_555
O0 Sm1 2.499953 1_555
O0 Sr0 2.611638 1_555
O1 Sm0 2.329664 1_555
O1 Sr1 2.709126 1_565
O1 Sr0 2.709126 1_655
O2 Sm0 2.499953 1_555
O2 Sm1 2.499953 1_555
O2 Sr1 2.611638 1_555
O3 Sm1 2.329664 1_555
O3 Sr1 2.709126 1_455
O3 Sr0 2.709126 1_545
O4 Sr0 2.567816 1_555
O4 Sm0 2.906269 1_555
O5 Sm0 2.435892 1_555
O5 Sr0 2.941739 1_655
O6 Sr1 2.567816 1_555
O6 Sm1 2.906269 1_555
O7 Sm1 2.435892 1_555
O7 Sr1 2.941739 1_455
O8 Sm1 2.435892 1_555
O8 Sr0 2.941739 1_545
O9 Sr1 2.567816 1_555
O9 Sm0 2.906269 1_555
O10 Sm0 2.435892 1_555
O10 Sr1 2.941739 1_565
O11 Sr0 2.567816 1_555
O11 Sm1 2.906269 1_555
O12 Sr0 2.570822 1_545
O12 Sr1 2.570822 1_455
O13 Sm0 2.429715 1_555
O13 Sm1 2.429715 1_555
