# generated using pymatgen
data_BN
_symmetry_space_group_name_H-M   'P 1'
_cell_length_a   10.60492501
_cell_length_b   10.05024163
_cell_length_c   10.59016908
_cell_angle_alpha   91.56163350
_cell_angle_beta   86.51291682
_cell_angle_gamma   89.18909351
_symmetry_Int_Tables_number   1
_chemical_formula_structural   BN
_chemical_formula_sum   'B50 N50'
_cell_volume   1126.07240005
_cell_formula_units_Z   50
loop_
 _symmetry_equiv_pos_site_id
 _symmetry_equiv_pos_as_xyz
  1  'x, y, z'
loop_
 _atom_site_type_symbol
 _atom_site_label
 _atom_site_symmetry_multiplicity
 _atom_site_fract_x
 _atom_site_fract_y
 _atom_site_fract_z
 _atom_site_occupancy
  B  B0  1  0.45194600  0.88582200  0.50864300  1
  B  B1  1  0.01561500  0.98749900  0.15823600  1
  B  B2  1  0.61450100  0.05583800  0.08901500  1
  B  B3  1  0.17134700  0.02040600  0.13315200  1
  B  B4  1  0.01025500  0.03127800  0.81961000  1
  B  B5  1  0.66154500  0.10741100  0.31869800  1
  B  B6  1  0.38634200  0.42304800  0.36906400  1
  B  B7  1  0.52542300  0.33623900  0.62627300  1
  B  B8  1  0.84542400  0.60761000  0.06362800  1
  B  B9  1  0.47488100  0.67516500  0.63865100  1
  B  B10  1  0.66126000  0.70138200  0.74751900  1
  B  B11  1  0.02321900  0.90583900  0.46831500  1
  B  B12  1  0.42185300  0.87280600  0.84004800  1
  B  B13  1  0.52655200  0.90955500  0.93071000  1
  B  B14  1  0.54234100  0.10241300  0.54001200  1
  B  B15  1  0.65739600  0.94491700  0.66809200  1
  B  B16  1  0.83582100  0.04981400  0.76640700  1
  B  B17  1  0.34998600  0.06166200  0.13565000  1
  B  B18  1  0.20335700  0.72557300  0.40436100  1
  B  B19  1  0.09686500  0.51565900  0.32404700  1
  B  B20  1  0.81659800  0.77066700  0.55008400  1
  B  B21  1  0.93274300  0.28904100  0.79047600  1
  B  B22  1  0.57104800  0.41781600  0.82746300  1
  B  B23  1  0.16543900  0.86547900  0.86617200  1
  B  B24  1  0.41372500  0.24028600  0.74055100  1
  B  B25  1  0.23864700  0.09397600  0.90413400  1
  B  B26  1  0.06168300  0.37275100  0.36818300  1
  B  B27  1  0.97534200  0.44434500  0.92866300  1
  B  B28  1  0.68382000  0.45424300  0.03897000  1
  B  B29  1  0.97572400  0.13134900  0.37037100  1
  B  B30  1  0.68413600  0.51305600  0.60147000  1
  B  B31  1  0.84147200  0.05824800  0.17191600  1
  B  B32  1  0.62992100  0.54725800  0.91661300  1
  B  B33  1  0.22838300  0.15976200  0.69871600  1
  B  B34  1  0.65854600  0.29449600  0.98576700  1
  B  B35  1  0.27280300  0.95430400  0.35796400  1
  B  B36  1  0.07136700  0.78004500  0.28499000  1
  B  B37  1  0.87563900  0.80542000  0.74512200  1
  B  B38  1  0.88761300  0.54683900  0.72003200  1
  B  B39  1  0.38265400  0.74128400  0.75333100  1
  B  B40  1  0.66798600  0.30857400  0.44002200  1
  B  B41  1  0.07167300  0.16527900  0.51756000  1
  B  B42  1  0.99803600  0.68057900  0.88969400  1
  B  B43  1  0.89488900  0.84189900  0.10764200  1
  B  B44  1  0.69680100  0.78146900  0.99246700  1
  B  B45  1  0.65992500  0.15813300  0.84788000  1
  B  B46  1  0.04312700  0.37150200  0.11231500  1
  B  B47  1  0.76573500  0.42630000  0.23860200  1
  B  B48  1  0.34077500  0.66554000  0.45918900  1
  B  B49  1  0.45762800  0.21392400  0.22688000  1
  N  N0  1  0.90117800  0.97885600  0.06849600  1
  N  N1  1  0.02630700  0.33693200  0.99431800  1
  N  N2  1  0.73118400  0.72918800  0.44137400  1
  N  N3  1  0.73967600  0.35753500  0.33618300  1
  N  N4  1  0.36181200  0.52772700  0.43964200  1
  N  N5  1  0.93904100  0.09467400  0.24956100  1
  N  N6  1  0.05855500  0.41550000  0.23274000  1
  N  N7  1  0.61691500  0.90737900  0.01368900  1
  N  N8  1  0.70192500  0.05639300  0.74832700  1
  N  N9  1  0.70245500  0.06733000  0.20072700  1
  N  N10  1  0.74316700  0.80911400  0.67983500  1
  N  N11  1  0.19236100  0.54951100  0.68276900  1
  N  N12  1  0.00211900  0.04801300  0.47705900  1
  N  N13  1  0.46545800  0.37529100  0.75278700  1
  N  N14  1  0.48023100  0.10126800  0.15148600  1
  N  N15  1  0.11811900  0.65329200  0.32758200  1
  N  N16  1  0.59563700  0.61484900  0.65899600  1
  N  N17  1  0.09125600  0.76713000  0.90794400  1
  N  N18  1  0.93411900  0.42415500  0.79564100  1
  N  N19  1  0.95147300  0.57762500  0.98177700  1
  N  N20  1  0.92709100  0.15527200  0.79674600  1
  N  N21  1  0.30011400  0.83041400  0.82020500  1
  N  N22  1  0.20469000  0.46484900  0.74685300  1
  N  N23  1  0.92915900  0.81611300  0.50602900  1
  N  N24  1  0.26320000  0.07346200  0.03321000  1
  N  N25  1  0.13295900  0.01112600  0.85805800  1
  N  N26  1  0.55946600  0.96010800  0.57845000  1
  N  N27  1  0.65657100  0.68530600  0.88608000  1
  N  N28  1  0.26346400  0.00984000  0.23218000  1
  N  N29  1  0.81301300  0.53490400  0.61726500  1
  N  N30  1  0.15848400  0.18178600  0.60831000  1
  N  N31  1  0.64844500  0.14909700  0.98465600  1
  N  N32  1  0.62589600  0.38974800  0.54970100  1
  N  N33  1  0.65733100  0.30772800  0.84720800  1
  N  N34  1  0.02728900  0.25521600  0.42202800  1
  N  N35  1  0.91668000  0.93611300  0.77506800  1
  N  N36  1  0.30797500  0.16499300  0.80063900  1
  N  N37  1  0.41943700  0.31858000  0.29213200  1
  N  N38  1  0.43552000  0.74130700  0.52475900  1
  N  N39  1  0.92609000  0.67673300  0.77250200  1
  N  N40  1  0.36327900  0.70600400  0.14475900  1
  N  N41  1  0.47488600  0.20164600  0.61547600  1
  N  N42  1  0.79805300  0.74682600  0.07006800  1
  N  N43  1  0.99607600  0.83510800  0.19708600  1
  N  N44  1  0.14970400  0.86417400  0.39245200  1
  N  N45  1  0.68862100  0.70070500  0.35028400  1
  N  N46  1  0.37866700  0.96145200  0.43027900  1
  N  N47  1  0.45454700  0.65031600  0.14735200  1
  N  N48  1  0.77340000  0.49771700  0.12847000  1
  N  N49  1  0.62835500  0.16161000  0.43527600  1
loop_
_geom_bond_atom_site_label_1
_geom_bond_atom_site_label_2
_geom_bond_distance
_geom_bond_site_symmetry_2
B0 N46 1.402317 1_555
B0 N38 1.478521 1_555
B0 N26 1.581336 1_555
B1 N0 1.588186 1_455
B1 N5 1.605602 1_465
B1 N43 1.609615 1_455
B2 N31 1.499033 1_554
B2 N9 1.553318 1_555
B2 N14 1.588789 1_555
B2 N7 1.671758 1_545
B3 N28 1.480938 1_555
B3 N24 1.507797 1_555
B4 N25 1.400568 1_555
B4 N35 1.476908 1_445
B4 N20 1.549424 1_455
B5 N9 1.346481 1_555
B5 N49 1.360091 1_555
B6 N4 1.287974 1_555
B6 N37 1.340696 1_555
B7 N32 1.420201 1_555
B7 N41 1.466161 1_555
B7 N13 1.488001 1_555
B8 N19 1.401637 1_554
B8 N42 1.478307 1_555
B8 N48 1.508697 1_555
B9 N16 1.439638 1_555
B9 N38 1.472405 1_555
B10 N16 1.473624 1_555
B10 N27 1.478535 1_555
B10 N10 1.560054 1_555
B11 N23 1.401548 1_455
B11 N12 1.442765 1_565
B11 N44 1.566758 1_555
B12 N21 1.391451 1_555
B13 N7 1.339373 1_556
B14 N41 1.418405 1_555
B14 N26 1.509148 1_545
B14 N49 1.531186 1_555
B15 N26 1.458230 1_555
B15 N8 1.487313 1_565
B15 N10 1.641196 1_555
B16 N35 1.427265 1_545
B16 N8 1.445136 1_555
B16 N20 1.487189 1_555
B17 N28 1.444524 1_555
B17 N14 1.460990 1_555
B17 N24 1.470858 1_555
B18 N15 1.442833 1_555
B18 N44 1.508608 1_555
B19 N15 1.404493 1_555
B19 N6 1.455907 1_555
B20 N23 1.345550 1_555
B20 N2 1.559183 1_555
B20 N10 1.573599 1_555
B21 N20 1.349853 1_555
B21 N18 1.357860 1_555
B22 N33 1.453399 1_555
B22 N13 1.471332 1_555
B23 N17 1.339814 1_555
B23 N25 1.504954 1_565
B23 N21 1.514200 1_555
B24 N13 1.476113 1_555
B24 N41 1.478614 1_555
B24 N36 1.482800 1_555
B25 N24 1.426871 1_556
B25 N36 1.486847 1_555
B25 N25 1.502813 1_555
B26 N34 1.370099 1_555
B26 N6 1.510650 1_555
B27 N1 1.418113 1_655
B27 N19 1.451458 1_555
B27 N18 1.509518 1_555
B28 N48 1.445841 1_555
B29 N5 1.401056 1_555
B29 N12 1.462805 1_655
B29 N34 1.471940 1_655
B30 N29 1.406574 1_555
B30 N16 1.472374 1_555
B30 N32 1.497887 1_555
B31 N5 1.406627 1_555
B31 N0 1.445967 1_545
B31 N9 1.488233 1_555
B32 N27 1.460748 1_555
B33 N30 1.268213 1_555
B33 N36 1.410415 1_555
B34 N31 1.466507 1_555
B34 N33 1.477800 1_555
B35 N46 1.398548 1_555
B35 N28 1.466550 1_565
B35 N44 1.628385 1_555
B36 N43 1.384334 1_455
B36 N15 1.453524 1_555
B36 N44 1.668125 1_555
B37 N35 1.423216 1_555
B37 N39 1.436236 1_555
B37 N10 1.603469 1_555
B38 N29 1.387451 1_555
B38 N39 1.477373 1_555
B38 N18 1.577756 1_555
B39 N21 1.392119 1_555
B40 N3 1.402782 1_555
B40 N32 1.445303 1_555
B40 N49 1.541706 1_555
B41 N30 1.379118 1_555
B41 N12 1.467162 1_555
B41 N34 1.468955 1_555
B42 N17 1.345266 1_655
B42 N39 1.495772 1_555
B42 N19 1.508745 1_555
B43 N0 1.449574 1_555
B43 N43 1.475974 1_555
B43 N42 1.477394 1_555
B44 N42 1.435943 1_556
B44 N7 1.516749 1_556
B44 N27 1.547971 1_555
B45 N31 1.451619 1_555
B45 N8 1.492199 1_555
B45 N33 1.503547 1_555
B46 N1 1.311204 1_554
B46 N6 1.358469 1_555
B47 N3 1.277303 1_555
B47 N48 1.384855 1_555
B48 N4 1.407482 1_555
B48 N38 1.466047 1_555
B49 N37 1.289247 1_555
B49 N14 1.377186 1_555
N2 N45 1.121529 1_555
N11 N22 1.113903 1_555
N40 N47 1.113348 1_555
