# generated using pymatgen
data_Rb2MgH4
_symmetry_space_group_name_H-M   'P 1'
_cell_length_a   8.21214500
_cell_length_b   8.80249500
_cell_length_c   10.49252900
_cell_angle_alpha   90.00000000
_cell_angle_beta   90.00000000
_cell_angle_gamma   90.00000000
_symmetry_Int_Tables_number   1
_chemical_formula_structural   Rb2MgH4
_chemical_formula_sum   'Rb8 Mg4 H16'
_cell_volume   758.47727676
_cell_formula_units_Z   4
loop_
 _symmetry_equiv_pos_site_id
 _symmetry_equiv_pos_as_xyz
  1  'x, y, z'
loop_
 _atom_site_type_symbol
 _atom_site_label
 _atom_site_symmetry_multiplicity
 _atom_site_fract_x
 _atom_site_fract_y
 _atom_site_fract_z
 _atom_site_occupancy
  Rb  Rb0  1  0.25000000  0.49136000  0.75331400  1
  Rb  Rb1  1  0.25000000  0.99136000  0.74668600  1
  Rb  Rb2  1  0.25000000  0.74312600  0.34082600  1
  Rb  Rb3  1  0.25000000  0.24312600  0.15917400  1
  Rb  Rb4  1  0.75000000  0.75687400  0.84082600  1
  Rb  Rb5  1  0.75000000  0.25687400  0.65917400  1
  Rb  Rb6  1  0.75000000  0.00864000  0.25331400  1
  Rb  Rb7  1  0.75000000  0.50864000  0.24668600  1
  Mg  Mg0  1  0.25000000  0.74344900  0.99440000  1
  Mg  Mg1  1  0.25000000  0.24344900  0.50560000  1
  Mg  Mg2  1  0.75000000  0.75655100  0.49440000  1
  Mg  Mg3  1  0.75000000  0.25655100  0.00560000  1
  H  H0  1  0.08450200  0.74370500  0.87007600  1
  H  H1  1  0.08450200  0.24370500  0.62992400  1
  H  H2  1  0.25000000  0.06633200  0.41192300  1
  H  H3  1  0.25000000  0.41957400  0.41083600  1
  H  H4  1  0.25000000  0.91957400  0.08916400  1
  H  H5  1  0.25000000  0.56633200  0.08807700  1
  H  H6  1  0.41549800  0.74370500  0.87007600  1
  H  H7  1  0.41549800  0.24370500  0.62992400  1
  H  H8  1  0.58450200  0.75629500  0.37007600  1
  H  H9  1  0.58450200  0.25629500  0.12992400  1
  H  H10  1  0.75000000  0.43366800  0.91192300  1
  H  H11  1  0.75000000  0.08042600  0.91083600  1
  H  H12  1  0.75000000  0.58042600  0.58916400  1
  H  H13  1  0.75000000  0.93366800  0.58807700  1
  H  H14  1  0.91549800  0.75629500  0.37007600  1
  H  H15  1  0.91549800  0.25629500  0.12992400  1
loop_
_geom_bond_atom_site_label_1
_geom_bond_atom_site_label_2
_geom_bond_distance
_geom_bond_site_symmetry_2
H0 Mg0 1.883823 1_555
H0 Rb4 2.766500 1_455
H0 Rb1 2.876740 1_555
H0 Rb0 2.877863 1_555
H1 Mg1 1.883823 1_555
H1 Rb5 2.766500 1_455
H1 Rb0 2.876740 1_555
H1 Rb1 2.877863 1_545
H2 Mg1 1.843045 1_555
H2 Rb2 2.941196 1_545
H2 Rb3 3.074870 1_555
H3 Mg1 1.841796 1_555
H3 Rb2 2.941273 1_555
H3 Rb3 3.063493 1_555
H4 Mg0 1.841796 1_554
H4 Rb3 2.941273 1_565
H4 Rb2 3.063493 1_555
H5 Mg0 1.843045 1_554
H5 Rb3 2.941196 1_555
H5 Rb2 3.074870 1_555
H6 Mg0 1.883823 1_555
H6 Rb4 2.766500 1_555
H6 Rb1 2.876740 1_555
H6 Rb0 2.877863 1_555
H7 Mg1 1.883823 1_555
H7 Rb5 2.766500 1_555
H7 Rb0 2.876740 1_555
H7 Rb1 2.877863 1_545
H8 Mg2 1.883823 1_555
H8 Rb2 2.766500 1_555
H8 Rb7 2.876740 1_555
H8 Rb6 2.877863 1_565
H9 Mg3 1.883823 1_555
H9 Rb3 2.766500 1_555
H9 Rb6 2.876740 1_555
H9 Rb7 2.877863 1_555
H10 Mg3 1.843045 1_556
H10 Rb4 2.941196 1_555
H10 Rb5 3.074870 1_555
H11 Mg3 1.841796 1_556
H11 Rb4 2.941273 1_545
H11 Rb5 3.063493 1_555
H12 Mg2 1.841796 1_555
H12 Rb5 2.941273 1_555
H12 Rb4 3.063493 1_555
H13 Mg2 1.843045 1_555
H13 Rb5 2.941196 1_565
H13 Rb4 3.074870 1_555
H14 Mg2 1.883823 1_555
H14 Rb2 2.766500 1_655
H14 Rb7 2.876740 1_555
H14 Rb6 2.877863 1_565
H15 Mg3 1.883823 1_555
H15 Rb3 2.766500 1_655
H15 Rb6 2.876740 1_555
H15 Rb7 2.877863 1_555
