# generated using pymatgen
data_LaZnSbO
_symmetry_space_group_name_H-M   'P 1'
_cell_length_a   4.24629500
_cell_length_b   4.24629500
_cell_length_c   9.66609500
_cell_angle_alpha   90.00000000
_cell_angle_beta   90.00000000
_cell_angle_gamma   90.00000000
_symmetry_Int_Tables_number   1
_chemical_formula_structural   LaZnSbO
_chemical_formula_sum   'La2 Zn2 Sb2 O2'
_cell_volume   174.28956413
_cell_formula_units_Z   2
loop_
 _symmetry_equiv_pos_site_id
 _symmetry_equiv_pos_as_xyz
  1  'x, y, z'
loop_
 _atom_site_type_symbol
 _atom_site_label
 _atom_site_symmetry_multiplicity
 _atom_site_fract_x
 _atom_site_fract_y
 _atom_site_fract_z
 _atom_site_occupancy
  La  La0  1  0.00000000  0.50000000  0.88069200  1
  La  La1  1  0.50000000  0.00000000  0.11930800  1
  Zn  Zn0  1  0.00000000  0.00000000  0.50000000  1
  Zn  Zn1  1  0.50000000  0.50000000  0.50000000  1
  Sb  Sb0  1  0.50000000  0.00000000  0.68015000  1
  Sb  Sb1  1  0.00000000  0.50000000  0.31985000  1
  O  O0  1  0.50000000  0.50000000  0.00000000  1
  O  O1  1  0.00000000  0.00000000  0.00000000  1
loop_
_geom_bond_atom_site_label_1
_geom_bond_atom_site_label_2
_geom_bond_distance
_geom_bond_site_symmetry_2
La0 O0 2.416138 1_456
La0 O1 2.416138 1_566
La0 O1 2.416138 1_556
La0 O0 2.416138 1_556
La0 Sb0 3.573952 1_565
La0 Sb0 3.573952 1_455
La0 Sb0 3.573952 1_465
La0 Sb0 3.573952 1_555
La1 O1 2.416138 1_655
La1 O1 2.416138 1_555
La1 O0 2.416138 1_545
La1 O0 2.416138 1_555
La1 Sb1 3.573952 1_655
La1 Sb1 3.573952 1_555
La1 Sb1 3.573952 1_545
La1 Sb1 3.573952 1_645
Sb0 Zn1 2.745914 1_545
Sb0 Zn0 2.745914 1_655
Sb0 Zn0 2.745914 1_555
Sb0 Zn1 2.745914 1_555
Sb1 Zn0 2.745914 1_565
Sb1 Zn1 2.745914 1_555
Sb1 Zn0 2.745914 1_555
Sb1 Zn1 2.745914 1_455
