# generated using pymatgen
data_HfPbO3
_symmetry_space_group_name_H-M   'P 1'
_cell_length_a   5.81973500
_cell_length_b   11.47525400
_cell_length_c   9.21014800
_cell_angle_alpha   90.00000000
_cell_angle_beta   90.00000000
_cell_angle_gamma   90.00000000
_symmetry_Int_Tables_number   1
_chemical_formula_structural   HfPbO3
_chemical_formula_sum   'Hf8 Pb8 O24'
_cell_volume   615.08073675
_cell_formula_units_Z   8
loop_
 _symmetry_equiv_pos_site_id
 _symmetry_equiv_pos_as_xyz
  1  'x, y, z'
loop_
 _atom_site_type_symbol
 _atom_site_label
 _atom_site_symmetry_multiplicity
 _atom_site_fract_x
 _atom_site_fract_y
 _atom_site_fract_z
 _atom_site_occupancy
  Hf  Hf0  1  0.75382400  0.37722500  0.21659500  1
  Hf  Hf1  1  0.24617600  0.62277500  0.21659500  1
  Hf  Hf2  1  0.25382400  0.12277500  0.78340400  1
  Hf  Hf3  1  0.74617600  0.87722500  0.78340400  1
  Hf  Hf4  1  0.24617600  0.62277500  0.78340400  1
  Hf  Hf5  1  0.75382400  0.37722500  0.78340400  1
  Hf  Hf6  1  0.74617600  0.87722500  0.21659500  1
  Hf  Hf7  1  0.25382400  0.12277500  0.21659500  1
  Pb  Pb0  1  0.25653600  0.36361600  0.00000000  1
  Pb  Pb1  1  0.74346400  0.63638400  0.00000000  1
  Pb  Pb2  1  0.75653600  0.13638400  0.00000000  1
  Pb  Pb3  1  0.24346400  0.86361600  0.00000000  1
  Pb  Pb4  1  0.24971500  0.39069000  0.50000000  1
  Pb  Pb5  1  0.75028500  0.60931000  0.50000000  1
  Pb  Pb6  1  0.74971500  0.10931000  0.50000000  1
  Pb  Pb7  1  0.25028500  0.89069000  0.50000000  1
  O  O0  1  0.76204500  0.40642800  0.00000000  1
  O  O1  1  0.23795500  0.59357200  0.00000000  1
  O  O2  1  0.26204500  0.09357200  0.00000000  1
  O  O3  1  0.73795500  0.90642800  0.00000000  1
  O  O4  1  0.50210900  0.25058800  0.50000000  1
  O  O5  1  0.49789100  0.74941200  0.50000000  1
  O  O6  1  0.00210900  0.24941200  0.50000000  1
  O  O7  1  0.99789100  0.75058800  0.50000000  1
  O  O8  1  0.51031600  0.24788300  0.17936000  1
  O  O9  1  0.48968400  0.75211700  0.17936000  1
  O  O10  1  0.01031600  0.25211700  0.82064000  1
  O  O11  1  0.98968400  0.74788300  0.82064000  1
  O  O12  1  0.48968400  0.75211700  0.82064000  1
  O  O13  1  0.51031600  0.24788300  0.82064000  1
  O  O14  1  0.98968400  0.74788300  0.17936000  1
  O  O15  1  0.01031600  0.25211700  0.17936000  1
  O  O16  1  0.50000000  0.00000000  0.26626500  1
  O  O17  1  0.00000000  0.50000000  0.73373500  1
  O  O18  1  0.50000000  0.00000000  0.73373500  1
  O  O19  1  0.00000000  0.50000000  0.26626500  1
  O  O20  1  0.50000000  0.50000000  0.25171300  1
  O  O21  1  0.00000000  0.00000000  0.74828700  1
  O  O22  1  0.50000000  0.50000000  0.74828700  1
  O  O23  1  0.00000000  0.00000000  0.25171300  1
loop_
_geom_bond_atom_site_label_1
_geom_bond_atom_site_label_2
_geom_bond_distance
_geom_bond_site_symmetry_2
Hf0 O0 2.023389 1_555
Hf0 O19 2.060770 1_655
Hf0 O20 2.066792 1_555
Hf0 O8 2.080594 1_555
Hf0 O15 2.099259 1_655
Hf1 O1 2.023389 1_555
Hf1 O19 2.060770 1_555
Hf1 O20 2.066792 1_555
Hf1 O9 2.080594 1_555
Hf1 O14 2.099259 1_455
Hf2 O2 2.023398 1_556
Hf2 O18 2.060768 1_555
Hf2 O21 2.066790 1_555
Hf2 O10 2.080596 1_555
Hf2 O13 2.099260 1_555
Hf3 O3 2.023398 1_556
Hf3 O18 2.060768 1_565
Hf3 O21 2.066790 1_665
Hf3 O11 2.080596 1_555
Hf3 O12 2.099260 1_555
Hf4 O1 2.023398 1_556
Hf4 O17 2.060768 1_555
Hf4 O22 2.066790 1_555
Hf4 O12 2.080596 1_555
Hf4 O11 2.099260 1_455
Hf5 O0 2.023398 1_556
Hf5 O17 2.060768 1_655
Hf5 O22 2.066790 1_555
Hf5 O13 2.080596 1_555
Hf5 O10 2.099260 1_655
Hf6 O3 2.023389 1_555
Hf6 O16 2.060770 1_565
Hf6 O23 2.066792 1_665
Hf6 O14 2.080594 1_555
Hf6 O9 2.099259 1_555
Hf7 O2 2.023389 1_555
Hf7 O16 2.060770 1_555
Hf7 O23 2.066792 1_555
Hf7 O15 2.080594 1_555
Hf7 O8 2.099259 1_555
O0 Pb1 2.641018 1_555
O1 Pb0 2.641018 1_555
O2 Pb3 2.641018 1_545
O3 Pb2 2.641018 1_565
O4 Pb6 2.169050 1_555
O4 Pb4 2.177679 1_555
O5 Pb7 2.169050 1_555
O5 Pb5 2.177679 1_555
O6 Pb4 2.169050 1_555
O6 Pb6 2.177679 1_455
O7 Pb5 2.169050 1_555
O7 Pb7 2.177679 1_655
O8 Pb2 2.533624 1_555
O8 Pb0 2.583402 1_555
O9 Pb3 2.533624 1_555
O9 Pb1 2.583402 1_555
O10 Pb0 2.533624 1_556
O10 Pb2 2.583402 1_456
O11 Pb1 2.533624 1_556
O11 Pb3 2.583402 1_656
O12 Pb3 2.533624 1_556
O12 Pb1 2.583402 1_556
O13 Pb2 2.533624 1_556
O13 Pb0 2.583402 1_556
O14 Pb1 2.533624 1_555
O14 Pb3 2.583402 1_655
O15 Pb0 2.533624 1_555
O15 Pb2 2.583402 1_455
