# generated using pymatgen
data_Mg9Si5
_symmetry_space_group_name_H-M   'P 1'
_cell_length_a   6.97849600
_cell_length_b   7.52356659
_cell_length_c   12.63418257
_cell_angle_alpha   90.75842168
_cell_angle_beta   105.19081314
_cell_angle_gamma   117.62475548
_symmetry_Int_Tables_number   1
_chemical_formula_structural   Mg9Si5
_chemical_formula_sum   'Mg18 Si10'
_cell_volume   560.09503733
_cell_formula_units_Z   2
loop_
 _symmetry_equiv_pos_site_id
 _symmetry_equiv_pos_as_xyz
  1  'x, y, z'
loop_
 _atom_site_type_symbol
 _atom_site_label
 _atom_site_symmetry_multiplicity
 _atom_site_fract_x
 _atom_site_fract_y
 _atom_site_fract_z
 _atom_site_occupancy
  Mg  Mg0  1  0.10616100  0.78063200  0.64665600  1
  Mg  Mg1  1  0.63377100  0.04309900  0.57470500  1
  Mg  Mg2  1  0.00237000  0.36459200  0.49269900  1
  Mg  Mg3  1  0.15293200  0.76178600  0.41024400  1
  Mg  Mg4  1  0.49790200  0.65671700  0.64034400  1
  Mg  Mg5  1  0.52896700  0.36851200  0.41118400  1
  Mg  Mg6  1  0.75837900  0.08369700  0.10862100  1
  Mg  Mg7  1  0.28334300  0.93803700  0.93040200  1
  Mg  Mg8  1  0.96449200  0.69796600  0.10085300  1
  Mg  Mg9  1  0.02768900  0.37084100  0.96511100  1
  Mg  Mg10  1  0.38346300  0.28005000  0.10694300  1
  Mg  Mg11  1  0.46721100  0.62791900  0.90732600  1
  Mg  Mg12  1  0.48606600  0.99480200  0.28179100  1
  Mg  Mg13  1  0.61020300  0.04401800  0.80505600  1
  Mg  Mg14  1  0.19451600  0.46668100  0.25332400  1
  Mg  Mg15  1  0.82491500  0.59459400  0.82626300  1
  Mg  Mg16  1  0.70736800  0.71765400  0.25868800  1
  Mg  Mg17  1  0.32619100  0.23670000  0.69897800  1
  Si  Si0  1  0.11368500  0.06179600  0.28059800  1
  Si  Si1  1  0.97388100  0.99430700  0.46097600  1
  Si  Si2  1  0.93670100  0.98858700  0.76066500  1
  Si  Si3  1  0.93175600  0.97043300  0.95702100  1
  Si  Si4  1  0.79190200  0.39861000  0.27226800  1
  Si  Si5  1  0.03447700  0.36138500  0.74680900  1
  Si  Si6  1  0.36923800  0.71193500  0.09844000  1
  Si  Si7  1  0.60477700  0.32724800  0.94597500  1
  Si  Si8  1  0.73362300  0.41216700  0.62515200  1
  Si  Si9  1  0.55403500  0.74521800  0.43265800  1
loop_
_geom_bond_atom_site_label_1
_geom_bond_atom_site_label_2
_geom_bond_distance
_geom_bond_site_symmetry_2
Mg0 Si8 2.728358 1_455
Mg0 Si2 2.910322 1_455
Mg0 Si1 3.046468 1_455
Mg1 Si8 2.554991 1_555
Mg1 Si9 2.601300 1_545
Mg1 Si2 2.895467 1_545
Mg1 Si5 2.957638 1_655
Mg1 Si1 3.227062 1_545
Mg2 Si1 2.715926 1_445
Mg2 Si4 2.864013 1_455
Mg2 Si8 2.949109 1_455
Mg2 Si5 3.160380 1_555
Mg3 Si1 2.729389 1_455
Mg3 Si9 2.799957 1_555
Mg3 Si4 2.835581 1_455
Mg3 Si0 2.879015 1_565
Mg4 Si9 2.797305 1_555
Mg4 Si2 2.879512 1_555
Mg4 Si8 3.015098 1_555
Mg5 Si8 2.640764 1_555
Mg5 Si9 2.762559 1_555
Mg5 Si0 2.763586 1_555
Mg5 Si4 2.794881 1_555
Mg6 Si6 2.824510 1_545
Mg6 Si3 2.825946 1_544
Mg6 Si0 2.908790 1_655
Mg6 Si4 3.007614 1_555
Mg6 Si7 3.081555 1_554
Mg7 Si3 2.679038 1_455
Mg7 Si7 2.703176 1_565
Mg7 Si6 2.852110 1_556
Mg7 Si2 2.958264 1_455
Mg8 Si6 2.785643 1_655
Mg8 Si3 2.805696 1_554
Mg8 Si7 2.949238 1_554
Mg8 Si0 3.112453 1_665
Mg8 Si4 3.192786 1_555
Mg9 Si6 2.685764 1_556
Mg9 Si7 2.757256 1_455
Mg9 Si3 2.760342 1_445
Mg9 Si5 2.771397 1_555
Mg10 Si4 2.784875 1_555
Mg10 Si7 2.793548 1_554
Mg10 Si3 2.982479 1_444
Mg10 Si0 3.232255 1_555
Mg11 Si6 2.814725 1_556
Mg11 Si7 2.841599 1_555
Mg11 Si5 2.884518 1_555
Mg11 Si3 2.947468 1_555
Mg12 Si6 2.798326 1_555
Mg12 Si9 2.798396 1_555
Mg12 Si4 2.816149 1_565
Mg12 Si0 2.863852 1_565
Mg13 Si2 2.687852 1_545
Mg13 Si7 2.778795 1_555
Mg13 Si3 2.819648 1_545
Mg13 Si5 3.105073 1_655
Mg14 Si4 2.689780 1_455
Mg14 Si9 2.799854 1_555
Mg14 Si6 2.824922 1_555
Mg14 Si0 2.872685 1_555
Mg15 Si8 2.644643 1_555
Mg15 Si7 2.669450 1_555
Mg15 Si2 2.888173 1_555
Mg15 Si3 2.925130 1_555
Mg15 Si5 3.054035 1_655
Mg16 Si6 2.658694 1_555
Mg16 Si4 2.722155 1_555
Mg16 Si9 2.728611 1_555
Mg16 Si0 2.753514 1_665
Mg16 Si1 2.846291 1_555
Mg17 Si5 2.791056 1_555
Mg17 Si2 2.814827 1_445
Mg17 Si8 2.939130 1_555
Mg17 Si7 3.085114 1_555
Mg17 Si1 3.199178 1_445
Si0 Si1 2.672005 1_445
Si1 Si9 2.562289 1_555
Si2 Si3 2.494728 1_555
Si2 Si5 2.581433 1_665
Si5 Si8 2.446350 1_455
