# generated using pymatgen
data_Li9Mn2Co5O16
_symmetry_space_group_name_H-M   'P 1'
_cell_length_a   3.00781900
_cell_length_b   9.91508048
_cell_length_c   10.31500718
_cell_angle_alpha   73.22722699
_cell_angle_beta   82.59020051
_cell_angle_gamma   87.49900360
_symmetry_Int_Tables_number   1
_chemical_formula_structural   Li9Mn2Co5O16
_chemical_formula_sum   'Li9 Mn2 Co5 O16'
_cell_volume   292.06851139
_cell_formula_units_Z   1
loop_
 _symmetry_equiv_pos_site_id
 _symmetry_equiv_pos_as_xyz
  1  'x, y, z'
loop_
 _atom_site_type_symbol
 _atom_site_label
 _atom_site_symmetry_multiplicity
 _atom_site_fract_x
 _atom_site_fract_y
 _atom_site_fract_z
 _atom_site_occupancy
  Li  Li0  1  0.68013300  0.43911700  0.13040300  1
  Li  Li1  1  0.18353500  0.93885500  0.12595300  1
  Li  Li2  1  0.06485400  0.31835700  0.37629500  1
  Li  Li3  1  0.55591200  0.81057000  0.37111600  1
  Li  Li4  1  0.44408800  0.18943000  0.62888400  1
  Li  Li5  1  0.93514600  0.68164300  0.62370500  1
  Li  Li6  1  0.81646500  0.06114500  0.87404700  1
  Li  Li7  1  0.31986700  0.56088300  0.86959700  1
  Li  Li8  1  0.50000000  0.50000000  0.50000000  1
  Mn  Mn0  1  0.75777400  0.74819300  0.00354500  1
  Mn  Mn1  1  0.24222600  0.25180700  0.99645500  1
  Co  Co0  1  0.10772200  0.61791000  0.26220700  1
  Co  Co1  1  0.61755800  0.12523700  0.25077600  1
  Co  Co2  1  0.00000000  0.00000000  0.50000000  1
  Co  Co3  1  0.89227800  0.38209000  0.73779300  1
  Co  Co4  1  0.38244200  0.87476300  0.74922400  1
  O  O0  1  0.18393200  0.59796500  0.07780100  1
  O  O1  1  0.67284700  0.10010000  0.06708600  1
  O  O2  1  0.55649600  0.47943900  0.31033400  1
  O  O3  1  0.09809700  0.97908800  0.31573300  1
  O  O4  1  0.95994700  0.34394000  0.58265000  1
  O  O5  1  0.47314300  0.85147900  0.56500400  1
  O  O6  1  0.31708300  0.22951200  0.81477700  1
  O  O7  1  0.85899800  0.72688600  0.81874300  1
  O  O8  1  0.14100200  0.27311400  0.18125700  1
  O  O9  1  0.68291700  0.77048800  0.18522300  1
  O  O10  1  0.52685700  0.14852100  0.43499600  1
  O  O11  1  0.04005300  0.65606000  0.41735000  1
  O  O12  1  0.90190300  0.02091200  0.68426700  1
  O  O13  1  0.44350400  0.52056100  0.68966600  1
  O  O14  1  0.32715300  0.89990000  0.93291400  1
  O  O15  1  0.81606800  0.40203500  0.92219900  1
loop_
_geom_bond_atom_site_label_1
_geom_bond_atom_site_label_2
_geom_bond_distance
_geom_bond_site_symmetry_2
Li0 O2 1.995015 1_555
Li0 O8 2.096654 1_655
Li0 O0 2.124384 1_555
Li0 O0 2.138748 1_655
Li0 O8 2.264751 1_555
Li0 O15 2.265122 1_554
Li1 O3 2.090287 1_555
Li1 O1 2.122586 1_565
Li1 O14 2.123233 1_554
Li1 O1 2.179487 1_465
Li1 O9 2.195633 1_455
Li1 O9 2.201298 1_555
Li2 O2 2.126024 1_555
Li2 O10 2.134865 1_555
Li2 O8 2.166600 1_555
Li2 O2 2.186276 1_455
Li2 O4 2.196826 1_455
Li2 O10 2.284174 1_455
Li3 O9 2.053841 1_555
Li3 O11 2.063419 1_655
Li3 O3 2.113185 1_555
Li3 O5 2.134780 1_555
Li3 O11 2.139348 1_555
Li3 O3 2.285662 1_655
Li4 O6 2.053841 1_555
Li4 O4 2.063419 1_455
Li4 O12 2.113185 1_555
Li4 O10 2.134780 1_555
Li4 O4 2.139348 1_555
Li4 O12 2.285662 1_455
Li5 O13 2.126024 1_555
Li5 O5 2.134865 1_555
Li5 O7 2.166600 1_555
Li5 O13 2.186276 1_655
Li5 O11 2.196826 1_655
Li5 O5 2.284174 1_655
Li6 O12 2.090287 1_555
Li6 O14 2.122586 1_545
Li6 O1 2.123233 1_556
Li6 O14 2.179487 1_645
Li6 O6 2.195633 1_655
Li6 O6 2.201298 1_555
Li7 O13 1.995015 1_555
Li7 O7 2.096654 1_455
Li7 O15 2.124384 1_555
Li7 O15 2.138748 1_455
Li7 O7 2.264751 1_555
Li7 O0 2.265122 1_556
Li8 O2 2.009821 1_555
Li8 O13 2.009821 1_555
Li8 O11 2.095477 1_555
Li8 O4 2.095477 1_555
Li8 O11 2.204659 1_655
Li8 O4 2.204659 1_455
Mn0 O9 1.933233 1_555
Mn0 O7 1.961676 1_554
Mn0 O0 1.968887 1_655
Mn0 O14 1.977844 1_554
Mn0 O14 2.235361 1_654
Mn0 O0 2.238165 1_555
Mn1 O6 1.933233 1_555
Mn1 O8 1.961676 1_556
Mn1 O15 1.968887 1_455
Mn1 O1 1.977844 1_556
Mn1 O1 2.235361 1_456
Mn1 O15 2.238165 1_555
Co0 O11 1.733236 1_555
Co0 O2 1.889764 1_555
Co0 O0 1.952052 1_555
Co0 O9 1.987835 1_455
Co0 O2 2.115031 1_455
Co0 O9 2.256794 1_555
Co1 O10 1.962800 1_555
Co1 O1 1.966614 1_555
Co1 O3 2.035806 1_645
Co1 O8 2.047802 1_555
Co1 O3 2.087391 1_545
Co1 O8 2.108613 1_655
Co2 O12 1.954542 1_455
Co2 O3 1.954542 1_545
Co2 O10 2.033906 1_455
Co2 O5 2.033906 1_545
Co2 O5 2.118748 1_445
Co2 O10 2.118748 1_555
Co3 O4 1.733236 1_555
Co3 O13 1.889764 1_555
Co3 O15 1.952052 1_555
Co3 O6 1.987835 1_655
Co3 O13 2.115031 1_655
Co3 O6 2.256794 1_555
Co4 O5 1.962800 1_555
Co4 O14 1.966614 1_555
Co4 O12 2.035806 1_465
Co4 O7 2.047802 1_555
Co4 O12 2.087391 1_565
Co4 O7 2.108613 1_455
