# generated using pymatgen
data_Mg5Si9
_symmetry_space_group_name_H-M   'P 1'
_cell_length_a   7.58703300
_cell_length_b   7.63989933
_cell_length_c   10.00979381
_cell_angle_alpha   101.18645074
_cell_angle_beta   88.86816547
_cell_angle_gamma   119.33898421
_symmetry_Int_Tables_number   1
_chemical_formula_structural   Mg5Si9
_chemical_formula_sum   'Mg10 Si18'
_cell_volume   494.25257664
_cell_formula_units_Z   2
loop_
 _symmetry_equiv_pos_site_id
 _symmetry_equiv_pos_as_xyz
  1  'x, y, z'
loop_
 _atom_site_type_symbol
 _atom_site_label
 _atom_site_symmetry_multiplicity
 _atom_site_fract_x
 _atom_site_fract_y
 _atom_site_fract_z
 _atom_site_occupancy
  Mg  Mg0  1  0.99375400  0.30653100  0.29731300  1
  Mg  Mg1  1  0.13682700  0.48900200  0.61082400  1
  Mg  Mg2  1  0.31386200  0.78995300  0.38586600  1
  Mg  Mg3  1  0.49580300  0.35394300  0.66754700  1
  Mg  Mg4  1  0.44705800  0.46055500  0.39405200  1
  Mg  Mg5  1  0.91081900  0.70985900  0.55088000  1
  Mg  Mg6  1  0.70909400  0.23665300  0.89333400  1
  Mg  Mg7  1  0.09652500  0.64074600  0.05717800  1
  Mg  Mg8  1  0.23283300  0.02492100  0.93167700  1
  Mg  Mg9  1  0.57722000  0.94864800  0.13131400  1
  Si  Si0  1  0.61644800  0.57900900  0.96905300  1
  Si  Si1  1  0.00714200  0.20679000  0.02100800  1
  Si  Si2  1  0.33148500  0.92286000  0.67411200  1
  Si  Si3  1  0.75914700  0.86450100  0.35162300  1
  Si  Si4  1  0.70663200  0.13561300  0.60972000  1
  Si  Si5  1  0.28987600  0.05298300  0.24913800  1
  Si  Si6  1  0.26072700  0.41964900  0.86674800  1
  Si  Si7  1  0.83930500  0.58794500  0.26485700  1
  Si  Si8  1  0.02693300  0.13439900  0.69188900  1
  Si  Si9  1  0.11042700  0.09847500  0.45519300  1
  Si  Si10  1  0.91148100  0.87820100  0.12997100  1
  Si  Si11  1  0.80698800  0.88650300  0.82517200  1
  Si  Si12  1  0.89958000  0.62142100  0.81295700  1
  Si  Si13  1  0.34214600  0.52028600  0.15329800  1
  Si  Si14  1  0.43684300  0.78331400  0.85238600  1
  Si  Si15  1  0.52567000  0.33201300  0.13094900  1
  Si  Si16  1  0.64596400  0.24114100  0.40922100  1
  Si  Si17  1  0.56949100  0.77422500  0.61289200  1
loop_
_geom_bond_atom_site_label_1
_geom_bond_atom_site_label_2
_geom_bond_distance
_geom_bond_site_symmetry_2
Mg0 Si16 2.697340 1_555
Mg0 Si1 2.736312 1_655
Mg0 Si9 2.866435 1_655
Mg0 Si13 2.874830 1_655
Mg0 Si7 2.975900 1_555
Mg0 Si3 3.106757 1_545
Mg0 Si10 3.133180 1_545
Mg1 Si8 2.702911 1_555
Mg1 Si2 2.827425 1_555
Mg1 Si17 2.915472 1_555
Mg1 Si6 2.972681 1_555
Mg1 Si9 2.998673 1_555
Mg1 Si14 3.029204 1_555
Mg1 Si12 3.033753 1_455
Mg1 Si4 3.049075 1_455
Mg1 Mg5 3.068579 1_455
Mg2 Si5 2.716568 1_565
Mg2 Si2 2.849425 1_555
Mg2 Si13 2.874468 1_555
Mg2 Si17 3.073856 1_555
Mg2 Si16 3.079734 1_565
Mg2 Si3 3.162253 1_555
Mg2 Mg5 3.288232 1_455
Mg3 Si6 2.785201 1_555
Mg3 Si4 2.807021 1_555
Mg3 Si2 2.909022 1_545
Mg3 Si12 2.926890 1_555
Mg3 Si16 2.950944 1_555
Mg3 Si0 3.075082 1_555
Mg3 Si8 3.131223 1_555
Mg3 Si17 3.135631 1_555
Mg3 Si9 3.149625 1_555
Mg3 Mg5 3.371757 1_555
Mg4 Si17 2.695605 1_555
Mg4 Si13 2.740046 1_555
Mg4 Si16 2.774392 1_555
Mg4 Si15 2.786477 1_555
Mg4 Si5 2.810515 1_555
Mg4 Si9 2.867310 1_555
Mg4 Si3 2.935813 1_555
Mg4 Si7 2.995687 1_555
Mg4 Mg5 3.311066 1_555
Mg5 Si7 2.808973 1_555
Mg5 Si12 2.822785 1_555
Mg5 Si17 2.898187 1_555
Mg5 Si2 2.939924 1_655
Mg5 Si9 2.943751 1_665
Mg5 Si8 2.959904 1_665
Mg5 Si3 3.005895 1_555
Mg5 Si11 3.082026 1_555
Mg5 Si16 3.156377 1_555
Mg6 Si1 2.744388 1_656
Mg6 Si4 2.791658 1_555
Mg6 Si12 2.843536 1_555
Mg6 Si15 2.883580 1_556
Mg6 Si14 2.983656 1_545
Mg6 Si0 2.986826 1_555
Mg6 Si11 3.064671 1_545
Mg6 Si2 3.201096 1_545
Mg7 Si13 2.709329 1_555
Mg7 Si7 2.772432 1_455
Mg7 Si10 2.781293 1_455
Mg7 Si12 2.831726 1_454
Mg7 Si6 2.959360 1_554
Mg7 Si1 2.987210 1_555
Mg7 Si5 2.999817 1_565
Mg7 Si14 3.155407 1_554
Mg8 Si1 2.729684 1_556
Mg8 Si2 2.744240 1_545
Mg8 Si15 2.769581 1_556
Mg8 Si12 2.892632 1_445
Mg8 Si14 2.935253 1_545
Mg8 Si11 3.007331 1_445
Mg8 Si10 3.022341 1_446
Mg8 Si6 3.113062 1_555
Mg8 Si5 3.167055 1_556
Mg9 Si14 2.820628 1_554
Mg9 Si5 2.831205 1_565
Mg9 Si10 2.838097 1_555
Mg9 Si13 2.912675 1_555
Mg9 Si3 2.953215 1_555
Mg9 Si16 3.083370 1_565
Mg9 Si0 3.118729 1_554
Mg9 Si15 3.139748 1_565
Mg9 Si1 3.185411 1_665
Si0 Si6 2.494055 1_555
Si0 Si10 2.555348 1_556
Si0 Si15 2.555428 1_556
Si0 Si12 2.557847 1_555
Si0 Si13 2.681070 1_556
Si0 Si11 2.754166 1_555
Si1 Si6 2.553698 1_554
Si1 Si11 2.598352 1_444
Si1 Si13 2.624302 1_555
Si1 Si10 2.695193 1_445
Si2 Si4 2.637992 1_565
Si3 Si9 2.468755 1_665
Si3 Si7 2.472787 1_555
Si4 Si8 2.585758 1_655
Si5 Si9 2.510626 1_555
Si6 Si8 2.411169 1_555
Si8 Si9 2.439030 1_555
Si10 Si3 2.477819 1_555
Si10 Si7 2.642500 1_555
Si10 Si5 2.684873 1_665
Si11 Si12 2.429937 1_555
Si11 Si8 2.438609 1_665
Si11 Si17 2.535179 1_555
Si11 Si14 2.542798 1_555
Si13 Si15 2.425549 1_555
Si13 Si6 2.819364 1_554
Si14 Si6 2.456577 1_555
Si14 Si2 2.567023 1_555
Si14 Si17 2.583260 1_555
Si15 Si7 2.414906 1_555
Si15 Si5 2.510410 1_555
Si16 Si4 2.432630 1_555
Si16 Si5 2.721124 1_555
Si17 Si4 2.433950 1_565
Si17 Si2 2.573226 1_555
