# generated using pymatgen
data_RbSc(SO4)2
_symmetry_space_group_name_H-M   'P 1'
_cell_length_a   5.05963487
_cell_length_b   5.05963487
_cell_length_c   8.76850900
_cell_angle_alpha   90.00000000
_cell_angle_beta   90.00000000
_cell_angle_gamma   119.99998517
_symmetry_Int_Tables_number   1
_chemical_formula_structural   RbSc(SO4)2
_chemical_formula_sum   'Rb1 Sc1 S2 O8'
_cell_volume   194.39934706
_cell_formula_units_Z   1
loop_
 _symmetry_equiv_pos_site_id
 _symmetry_equiv_pos_as_xyz
  1  'x, y, z'
loop_
 _atom_site_type_symbol
 _atom_site_label
 _atom_site_symmetry_multiplicity
 _atom_site_fract_x
 _atom_site_fract_y
 _atom_site_fract_z
 _atom_site_occupancy
  Rb  Rb0  1  0.00000000  0.00000000  0.50000000  1
  Sc  Sc0  1  0.00000000  0.00000000  0.00000000  1
  S  S0  1  0.33333300  0.66666700  0.21059800  1
  S  S1  1  0.66666700  0.33333300  0.78940200  1
  O  O0  1  0.09596100  0.36174200  0.15137800  1
  O  O1  1  0.63825800  0.73421900  0.15137800  1
  O  O2  1  0.36174200  0.09596100  0.84862200  1
  O  O3  1  0.26578100  0.90403900  0.15137800  1
  O  O4  1  0.73421900  0.63825800  0.84862200  1
  O  O5  1  0.90403900  0.26578100  0.84862200  1
  O  O6  1  0.33333300  0.66666700  0.37682500  1
  O  O7  1  0.66666700  0.33333300  0.62317500  1
loop_
_geom_bond_atom_site_label_1
_geom_bond_atom_site_label_2
_geom_bond_distance
_geom_bond_site_symmetry_2
O0 S0 1.496464 1_555
O0 Sc0 2.111611 1_555
O0 Rb0 3.470105 1_555
O1 S0 1.496465 1_555
O1 Sc0 2.111611 1_665
O1 Rb0 3.470105 1_665
O2 S1 1.496464 1_555
O2 Sc0 2.111611 1_556
O2 Rb0 3.470105 1_555
O3 S0 1.496460 1_555
O3 Sc0 2.111611 1_565
O3 Rb0 3.470105 1_565
O4 S1 1.496465 1_555
O4 Sc0 2.111611 1_666
O4 Rb0 3.470105 1_665
O5 S1 1.496460 1_555
O5 Sc0 2.111611 1_656
O5 Rb0 3.470105 1_655
O6 S0 1.457563 1_555
O6 Rb0 3.114453 1_565
O6 Rb0 3.114457 1_665
O6 Rb0 3.114457 1_555
O7 S1 1.457563 1_555
O7 Rb0 3.114453 1_655
O7 Rb0 3.114457 1_555
O7 Rb0 3.114457 1_665
