# generated using pymatgen
data_LiMn3H6(SeO3)8
_symmetry_space_group_name_H-M   'P 1'
_cell_length_a   8.27320890
_cell_length_b   8.27320890
_cell_length_c   8.27320892
_cell_angle_alpha   86.15427362
_cell_angle_beta   86.15427362
_cell_angle_gamma   86.15427910
_symmetry_Int_Tables_number   1
_chemical_formula_structural   LiMn3H6(SeO3)8
_chemical_formula_sum   'Li1 Mn3 H6 Se8 O24'
_cell_volume   562.60598877
_cell_formula_units_Z   1
loop_
 _symmetry_equiv_pos_site_id
 _symmetry_equiv_pos_as_xyz
  1  'x, y, z'
loop_
 _atom_site_type_symbol
 _atom_site_label
 _atom_site_symmetry_multiplicity
 _atom_site_fract_x
 _atom_site_fract_y
 _atom_site_fract_z
 _atom_site_occupancy
  Li  Li0  1  0.00000000  0.00000000  0.00000000  1
  Mn  Mn0  1  0.00000000  0.50000000  0.50000000  1
  Mn  Mn1  1  0.50000000  0.00000000  0.50000000  1
  Mn  Mn2  1  0.50000000  0.50000000  0.00000000  1
  H  H0  1  0.07496400  0.99798500  0.65471900  1
  H  H1  1  0.65471900  0.07496400  0.99798500  1
  H  H2  1  0.99798500  0.65471900  0.07496400  1
  H  H3  1  0.92503600  0.00201500  0.34528100  1
  H  H4  1  0.34528100  0.92503600  0.00201500  1
  H  H5  1  0.00201500  0.34528100  0.92503600  1
  Se  Se0  1  0.33002200  0.33002200  0.33002200  1
  Se  Se1  1  0.66997800  0.66997800  0.66997800  1
  Se  Se2  1  0.84255800  0.16755100  0.62915500  1
  Se  Se3  1  0.62915500  0.84255800  0.16755100  1
  Se  Se4  1  0.16755100  0.62915500  0.84255800  1
  Se  Se5  1  0.15744200  0.83244900  0.37084500  1
  Se  Se6  1  0.37084500  0.15744200  0.83244900  1
  Se  Se7  1  0.83244900  0.37084500  0.15744200  1
  O  O0  1  0.23274800  0.48496800  0.43831500  1
  O  O1  1  0.43831500  0.23274800  0.48496800  1
  O  O2  1  0.48496800  0.43831500  0.23274800  1
  O  O3  1  0.76725200  0.51503200  0.56168500  1
  O  O4  1  0.56168500  0.76725200  0.51503200  1
  O  O5  1  0.51503200  0.56168500  0.76725200  1
  O  O6  1  0.77623100  0.04888900  0.49136200  1
  O  O7  1  0.49136200  0.77623100  0.04888900  1
  O  O8  1  0.04888900  0.49136200  0.77623100  1
  O  O9  1  0.22376900  0.95111100  0.50863800  1
  O  O10  1  0.50863800  0.22376900  0.95111100  1
  O  O11  1  0.95111100  0.50863800  0.22376900  1
  O  O12  1  0.98820000  0.26695400  0.50702700  1
  O  O13  1  0.50702700  0.98820000  0.26695400  1
  O  O14  1  0.26695400  0.50702700  0.98820000  1
  O  O15  1  0.01180000  0.73304600  0.49297300  1
  O  O16  1  0.49297300  0.01180000  0.73304600  1
  O  O17  1  0.73304600  0.49297300  0.01180000  1
  O  O18  1  0.98543700  0.03202600  0.73746900  1
  O  O19  1  0.73746900  0.98543700  0.03202600  1
  O  O20  1  0.03202600  0.73746900  0.98543700  1
  O  O21  1  0.01456300  0.96797400  0.26253100  1
  O  O22  1  0.26253100  0.01456300  0.96797400  1
  O  O23  1  0.96797400  0.26253100  0.01456300  1
loop_
_geom_bond_atom_site_label_1
_geom_bond_atom_site_label_2
_geom_bond_distance
_geom_bond_site_symmetry_2
Li0 O22 2.180783 1_554
Li0 O19 2.180783 1_445
Li0 O21 2.180783 1_545
Li0 O18 2.180783 1_454
Li0 O23 2.180783 1_455
Li0 O20 2.180783 1_544
Mn0 O15 1.933829 1_555
Mn0 O12 1.933829 1_455
Mn0 O0 1.956607 1_555
Mn0 O3 1.956607 1_455
Mn0 O8 2.342986 1_555
Mn0 O11 2.342986 1_455
Mn1 O16 1.933829 1_555
Mn1 O13 1.933829 1_545
Mn1 O1 1.956607 1_555
Mn1 O4 1.956607 1_545
Mn1 O6 2.342986 1_555
Mn1 O9 2.342986 1_545
Mn2 O17 1.933829 1_555
Mn2 O14 1.933829 1_554
Mn2 O2 1.956607 1_555
Mn2 O5 1.956607 1_554
Mn2 O7 2.342986 1_555
Mn2 O10 2.342986 1_554
H0 O18 1.013147 1_465
H0 O9 1.710510 1_555
H1 O19 1.013147 1_546
H1 O10 1.710510 1_555
H2 O20 1.013147 1_654
H2 O11 1.710510 1_555
H3 O21 1.013147 1_645
H3 O6 1.710510 1_555
H4 O22 1.013147 1_564
H4 O7 1.710510 1_555
H5 O23 1.013147 1_456
H5 O8 1.710510 1_555
O0 Se0 1.735676 1_555
O1 Se0 1.735676 1_555
O2 Se0 1.735676 1_555
O3 Se1 1.735676 1_555
O4 Se1 1.735676 1_555
O5 Se1 1.735676 1_555
O6 Se2 1.694329 1_555
O7 Se3 1.694329 1_555
O8 Se4 1.694329 1_555
O9 Se5 1.694329 1_555
O10 Se6 1.694329 1_555
O11 Se7 1.694329 1_555
O12 Se2 1.734128 1_555
O13 Se3 1.734128 1_555
O14 Se4 1.734128 1_555
O15 Se5 1.734128 1_555
O16 Se6 1.734128 1_555
O17 Se7 1.734128 1_555
O18 Se2 1.812999 1_555
O19 Se3 1.812999 1_555
O20 Se4 1.812999 1_555
O21 Se5 1.812999 1_555
O22 Se6 1.812999 1_555
O23 Se7 1.812999 1_555
