# generated using pymatgen
data_Rb3PS4
_symmetry_space_group_name_H-M   'P 1'
_cell_length_a   9.33089909
_cell_length_b   9.34414820
_cell_length_c   11.04828373
_cell_angle_alpha   90.00000000
_cell_angle_beta   90.00000000
_cell_angle_gamma   90.00000000
_symmetry_Int_Tables_number   1
_chemical_formula_structural   Rb3PS4
_chemical_formula_sum   'Rb12 P4 S16'
_cell_volume   963.29216811
_cell_formula_units_Z   4
loop_
 _symmetry_equiv_pos_site_id
 _symmetry_equiv_pos_as_xyz
  1  'x, y, z'
loop_
 _atom_site_type_symbol
 _atom_site_label
 _atom_site_symmetry_multiplicity
 _atom_site_fract_x
 _atom_site_fract_y
 _atom_site_fract_z
 _atom_site_occupancy
  Rb  Rb0  1  0.15489384  0.08762535  0.75000000  1
  Rb  Rb1  1  0.34510616  0.58762535  0.25000000  1
  Rb  Rb2  1  0.65489384  0.41237465  0.75000000  1
  Rb  Rb3  1  0.84510616  0.91237465  0.25000000  1
  Rb  Rb4  1  0.95815272  0.70568760  0.95934334  1
  Rb  Rb5  1  0.54184728  0.20568760  0.04065666  1
  Rb  Rb6  1  0.45815272  0.79431240  0.54065666  1
  Rb  Rb7  1  0.04184728  0.29431240  0.45934334  1
  Rb  Rb8  1  0.04184728  0.29431240  0.04065666  1
  Rb  Rb9  1  0.45815272  0.79431240  0.95934334  1
  Rb  Rb10  1  0.54184728  0.20568760  0.45934334  1
  Rb  Rb11  1  0.95815272  0.70568760  0.54065666  1
  P  P0  1  0.22382305  0.51964961  0.75000000  1
  P  P1  1  0.27617695  0.01964961  0.25000000  1
  P  P2  1  0.72382305  0.98035039  0.75000000  1
  P  P3  1  0.77617695  0.48035039  0.25000000  1
  S  S0  1  0.20854183  0.73796284  0.75000000  1
  S  S1  1  0.29145817  0.23796284  0.25000000  1
  S  S2  1  0.70854183  0.76203716  0.75000000  1
  S  S3  1  0.79145817  0.26203716  0.25000000  1
  S  S4  1  0.67062165  0.54393487  0.40299621  1
  S  S5  1  0.82937835  0.04393487  0.59700379  1
  S  S6  1  0.17062165  0.95606513  0.09700379  1
  S  S7  1  0.32937835  0.45606513  0.90299621  1
  S  S8  1  0.97776222  0.56913727  0.25000000  1
  S  S9  1  0.52223778  0.06913727  0.75000000  1
  S  S10  1  0.47776222  0.93086273  0.25000000  1
  S  S11  1  0.02223778  0.43086273  0.75000000  1
  S  S12  1  0.67062165  0.54393487  0.09700379  1
  S  S13  1  0.82937835  0.04393487  0.90299621  1
  S  S14  1  0.17062165  0.95606513  0.40299621  1
  S  S15  1  0.32937835  0.45606513  0.59700379  1
loop_
_geom_bond_atom_site_label_1
_geom_bond_atom_site_label_2
_geom_bond_distance
_geom_bond_site_symmetry_2
Rb0 S0 3.305423 1_545
Rb0 S9 3.432000 1_555
Rb0 S11 3.437830 1_555
Rb0 S5 3.499921 1_455
Rb0 S13 3.499921 1_455
Rb1 S1 3.305423 1_555
Rb1 S8 3.432000 1_455
Rb1 S10 3.437830 1_555
Rb1 S4 3.499921 1_555
Rb1 S12 3.499921 1_555
Rb2 S2 3.305423 1_555
Rb2 S11 3.432000 1_655
Rb2 S9 3.437830 1_555
Rb2 S15 3.499921 1_555
Rb2 S7 3.499921 1_555
Rb3 S3 3.305423 1_565
Rb3 S10 3.432000 1_555
Rb3 S8 3.437830 1_555
Rb3 S6 3.499921 1_655
Rb3 S14 3.499921 1_655
Rb4 S0 3.301355 1_655
Rb4 S2 3.324358 1_555
Rb4 S6 3.423032 1_656
Rb4 S12 3.434488 1_556
Rb4 S13 3.438161 1_565
Rb4 S8 3.460302 1_556
Rb4 S11 3.507371 1_655
Rb5 S1 3.301355 1_555
Rb5 S3 3.324358 1_555
Rb5 S7 3.423032 1_554
Rb5 S13 3.434488 1_554
Rb5 S12 3.438161 1_555
Rb5 S9 3.460302 1_554
Rb5 S10 3.507371 1_545
Rb6 S2 3.301355 1_555
Rb6 S0 3.324358 1_555
Rb6 S4 3.423032 1_555
Rb6 S14 3.434488 1_555
Rb6 S15 3.438161 1_555
Rb6 S10 3.460302 1_555
Rb6 S9 3.507371 1_565
Rb7 S3 3.301355 1_455
Rb7 S1 3.324358 1_555
Rb7 S5 3.423032 1_455
Rb7 S15 3.434488 1_555
Rb7 S14 3.438161 1_545
Rb7 S11 3.460302 1_555
Rb7 S8 3.507371 1_455
Rb8 S3 3.301355 1_455
Rb8 S1 3.324358 1_555
Rb8 S13 3.423032 1_454
Rb8 S7 3.434488 1_554
Rb8 S6 3.438161 1_545
Rb8 S11 3.460302 1_554
Rb8 S8 3.507371 1_455
Rb9 S2 3.301355 1_555
Rb9 S0 3.324358 1_555
Rb9 S12 3.423032 1_556
Rb9 S6 3.434488 1_556
Rb9 S7 3.438161 1_555
Rb9 S10 3.460302 1_556
Rb9 S9 3.507371 1_565
Rb10 S1 3.301355 1_555
Rb10 S3 3.324358 1_555
Rb10 S15 3.423032 1_555
Rb10 S5 3.434488 1_555
Rb10 S4 3.438161 1_555
Rb10 S9 3.460302 1_555
Rb10 S10 3.507371 1_545
Rb11 S0 3.301355 1_655
Rb11 S2 3.324358 1_555
Rb11 S14 3.423032 1_655
Rb11 S4 3.434488 1_555
Rb11 S5 3.438161 1_565
Rb11 S8 3.460302 1_555
Rb11 S11 3.507371 1_655
P0 S7 2.044591 1_555
P0 S15 2.044591 1_555
P0 S0 2.044928 1_555
P0 S11 2.055810 1_555
P1 S14 2.044591 1_545
P1 S6 2.044591 1_545
P1 S1 2.044928 1_555
P1 S10 2.055810 1_545
P2 S5 2.044591 1_565
P2 S13 2.044591 1_565
P2 S2 2.044928 1_555
P2 S9 2.055810 1_565
P3 S4 2.044591 1_555
P3 S12 2.044591 1_555
P3 S3 2.044928 1_555
P3 S8 2.055810 1_555
