# generated using pymatgen
data_RbYb2Cl7
_symmetry_space_group_name_H-M   'P 1'
_cell_length_a   7.54207000
_cell_length_b   10.59684000
_cell_length_c   14.16209000
_cell_angle_alpha   90.00000000
_cell_angle_beta   90.00000000
_cell_angle_gamma   90.00000000
_symmetry_Int_Tables_number   1
_chemical_formula_structural   RbYb2Cl7
_chemical_formula_sum   'Rb4 Yb8 Cl28'
_cell_volume   1131.86410148
_cell_formula_units_Z   4
loop_
 _symmetry_equiv_pos_site_id
 _symmetry_equiv_pos_as_xyz
  1  'x, y, z'
loop_
 _atom_site_type_symbol
 _atom_site_label
 _atom_site_symmetry_multiplicity
 _atom_site_fract_x
 _atom_site_fract_y
 _atom_site_fract_z
 _atom_site_occupancy
  Rb  Rb0  1  0.75000000  0.92405800  0.22551900  1
  Rb  Rb1  1  0.25000000  0.07594200  0.77448100  1
  Rb  Rb2  1  0.25000000  0.57594200  0.72551900  1
  Rb  Rb3  1  0.75000000  0.42405800  0.27448100  1
  Yb  Yb0  1  0.75000000  0.76849600  0.57088100  1
  Yb  Yb1  1  0.25000000  0.23150400  0.42911900  1
  Yb  Yb2  1  0.25000000  0.73150400  0.07088100  1
  Yb  Yb3  1  0.75000000  0.26849600  0.92911900  1
  Yb  Yb4  1  0.75000000  0.79083800  0.82815800  1
  Yb  Yb5  1  0.25000000  0.20916200  0.17184200  1
  Yb  Yb6  1  0.25000000  0.70916200  0.32815800  1
  Yb  Yb7  1  0.75000000  0.29083800  0.67184200  1
  Cl  Cl0  1  0.00063700  0.83630400  0.69738300  1
  Cl  Cl1  1  0.99936300  0.16369600  0.30261700  1
  Cl  Cl2  1  0.99936300  0.66369600  0.19738300  1
  Cl  Cl3  1  0.50063700  0.16369600  0.30261700  1
  Cl  Cl4  1  0.00063700  0.33630400  0.80261700  1
  Cl  Cl5  1  0.49936300  0.83630400  0.69738300  1
  Cl  Cl6  1  0.49936300  0.33630400  0.80261700  1
  Cl  Cl7  1  0.50063700  0.66369600  0.19738300  1
  Cl  Cl8  1  0.00211800  0.84753800  0.43947700  1
  Cl  Cl9  1  0.99788200  0.15246200  0.56052300  1
  Cl  Cl10  1  0.99788200  0.65246200  0.93947700  1
  Cl  Cl11  1  0.50211800  0.15246200  0.56052300  1
  Cl  Cl12  1  0.00211800  0.34753800  0.06052300  1
  Cl  Cl13  1  0.49788200  0.84753800  0.43947700  1
  Cl  Cl14  1  0.49788200  0.34753800  0.06052300  1
  Cl  Cl15  1  0.50211800  0.65246200  0.93947700  1
  Cl  Cl16  1  0.99821300  0.89651300  0.97827700  1
  Cl  Cl17  1  0.00178700  0.10348700  0.02172300  1
  Cl  Cl18  1  0.00178700  0.60348700  0.47827700  1
  Cl  Cl19  1  0.49821300  0.10348700  0.02172300  1
  Cl  Cl20  1  0.99821300  0.39651300  0.52172300  1
  Cl  Cl21  1  0.50178700  0.89651300  0.97827700  1
  Cl  Cl22  1  0.50178700  0.39651300  0.52172300  1
  Cl  Cl23  1  0.49821300  0.60348700  0.47827700  1
  Cl  Cl24  1  0.75000000  0.56889500  0.69241900  1
  Cl  Cl25  1  0.25000000  0.43110500  0.30758100  1
  Cl  Cl26  1  0.25000000  0.93110500  0.19241900  1
  Cl  Cl27  1  0.75000000  0.06889500  0.80758100  1
loop_
_geom_bond_atom_site_label_1
_geom_bond_atom_site_label_2
_geom_bond_distance
_geom_bond_site_symmetry_2
Cl0 Yb4 2.689893 1_455
Cl0 Yb0 2.701707 1_455
Cl0 Rb1 3.343328 1_565
Cl0 Rb2 3.362739 1_555
Cl1 Yb5 2.689893 1_655
Cl1 Yb1 2.701707 1_655
Cl1 Rb0 3.343328 1_545
Cl1 Rb3 3.362739 1_555
Cl2 Yb6 2.689893 1_655
Cl2 Yb2 2.701707 1_655
Cl2 Rb3 3.343328 1_555
Cl2 Rb0 3.362739 1_555
Cl3 Yb5 2.689893 1_555
Cl3 Yb1 2.701707 1_555
Cl3 Rb0 3.343328 1_545
Cl3 Rb3 3.362739 1_555
Cl4 Yb7 2.689893 1_455
Cl4 Yb3 2.701707 1_455
Cl4 Rb2 3.343328 1_555
Cl4 Rb1 3.362739 1_555
Cl5 Yb4 2.689893 1_555
Cl5 Yb0 2.701707 1_555
Cl5 Rb1 3.343328 1_565
Cl5 Rb2 3.362739 1_555
Cl6 Yb7 2.689893 1_555
Cl6 Yb3 2.701707 1_555
Cl6 Rb2 3.343328 1_555
Cl6 Rb1 3.362739 1_555
Cl7 Yb6 2.689893 1_555
Cl7 Yb2 2.701707 1_555
Cl7 Rb3 3.343328 1_555
Cl7 Rb0 3.362739 1_555
Cl8 Yb0 2.789335 1_455
Cl8 Yb6 2.851447 1_555
Cl8 Rb0 3.668057 1_455
Cl9 Yb1 2.789335 1_655
Cl9 Yb7 2.851447 1_555
Cl9 Rb1 3.668057 1_655
Cl10 Yb2 2.789335 1_656
Cl10 Yb4 2.851447 1_555
Cl10 Rb2 3.668057 1_655
Cl11 Yb1 2.789335 1_555
Cl11 Yb7 2.851447 1_555
Cl11 Rb1 3.668057 1_555
Cl12 Yb3 2.789335 1_454
Cl12 Yb5 2.851447 1_555
Cl12 Rb3 3.668057 1_455
Cl13 Yb0 2.789335 1_555
Cl13 Yb6 2.851447 1_555
Cl13 Rb0 3.668057 1_555
Cl14 Yb3 2.789335 1_554
Cl14 Yb5 2.851447 1_555
Cl14 Rb3 3.668057 1_555
Cl15 Yb2 2.789335 1_556
Cl15 Yb4 2.851447 1_555
Cl15 Rb2 3.668057 1_555
Cl16 Cl17 2.278100 1_666
Cl16 Yb2 2.895451 1_656
Cl16 Yb4 3.046047 1_555
Cl17 Yb3 2.895451 1_454
Cl17 Yb5 3.046047 1_555
Cl18 Cl20 2.278100 1_455
Cl18 Yb0 2.895451 1_455
Cl18 Yb6 3.046047 1_555
Cl19 Cl21 2.278100 1_544
Cl19 Yb3 2.895451 1_554
Cl19 Yb5 3.046047 1_555
Cl20 Yb1 2.895451 1_655
Cl20 Yb7 3.046047 1_555
Cl21 Yb2 2.895451 1_556
Cl21 Yb4 3.046047 1_555
Cl22 Cl23 2.278100 1_555
Cl22 Yb1 2.895451 1_555
Cl22 Yb7 3.046047 1_555
Cl23 Yb0 2.895451 1_555
Cl23 Yb6 3.046047 1_555
Cl24 Yb0 2.726987 1_555
Cl24 Yb7 2.960901 1_555
Cl24 Yb4 3.037570 1_555
Cl25 Yb1 2.726987 1_555
Cl25 Yb6 2.960901 1_555
Cl25 Yb5 3.037570 1_555
Cl26 Yb2 2.726987 1_555
Cl26 Yb5 2.960901 1_565
Cl26 Yb6 3.037570 1_555
Cl27 Yb3 2.726987 1_555
Cl27 Yb4 2.960901 1_545
Cl27 Yb7 3.037570 1_555
