# generated using pymatgen
data_KIn(WO3)4
_symmetry_space_group_name_H-M   'P 1'
_cell_length_a   5.51095638
_cell_length_b   5.51095638
_cell_length_c   7.90907375
_cell_angle_alpha   90.00000000
_cell_angle_beta   90.00000000
_cell_angle_gamma   88.92189024
_symmetry_Int_Tables_number   1
_chemical_formula_structural   KIn(WO3)4
_chemical_formula_sum   'K1 In1 W4 O12'
_cell_volume   240.16111065
_cell_formula_units_Z   1
loop_
 _symmetry_equiv_pos_site_id
 _symmetry_equiv_pos_as_xyz
  1  'x, y, z'
loop_
 _atom_site_type_symbol
 _atom_site_label
 _atom_site_symmetry_multiplicity
 _atom_site_fract_x
 _atom_site_fract_y
 _atom_site_fract_z
 _atom_site_occupancy
  K  K0  1  0.98988707  0.01011293  -0.00000000  1
  In  In0  1  0.51721512  0.48278488  0.50000000  1
  W  W0  1  0.50151085  0.00103816  0.24877212  1
  W  W1  1  0.50151085  0.00103816  0.75122788  1
  W  W2  1  0.99896184  0.49848915  0.75122788  1
  W  W3  1  0.99896184  0.49848915  0.24877212  1
  O  O0  1  0.20500581  0.20773992  0.25834809  1
  O  O1  1  0.79226008  0.79499419  0.25834809  1
  O  O2  1  0.79226008  0.79499419  0.74165191  1
  O  O3  1  0.20500581  0.20773992  0.74165191  1
  O  O4  1  0.31158177  0.68841823  0.31071275  1
  O  O5  1  0.69825966  0.30174034  0.21167865  1
  O  O6  1  0.69825966  0.30174034  0.78832135  1
  O  O7  1  0.31158177  0.68841823  0.68928725  1
  O  O8  1  0.47566978  0.94594387  -0.00000000  1
  O  O9  1  0.52020234  0.08799044  0.50000000  1
  O  O10  1  0.05405613  0.52433022  -0.00000000  1
  O  O11  1  0.91200956  0.47979766  0.50000000  1
loop_
_geom_bond_atom_site_label_1
_geom_bond_atom_site_label_2
_geom_bond_distance
_geom_bond_site_symmetry_2
K0 O2 2.610602 1_544
K0 O1 2.610602 1_545
K0 O3 2.610602 1_654
K0 O0 2.610602 1_655
K0 O8 2.693778 1_645
K0 O10 2.693778 1_645
K0 O6 2.805624 1_554
K0 O5 2.805624 1_555
K0 O8 2.862404 1_545
K0 O10 2.862404 1_655
In0 O11 2.175447 1_555
In0 O9 2.175447 1_555
In0 O7 2.182061 1_555
In0 O4 2.182061 1_555
In0 O6 2.674600 1_555
In0 O5 2.674600 1_555
O0 W3 1.947823 1_455
O0 W0 1.975687 1_555
O1 W0 1.947823 1_565
O1 W3 1.975687 1_555
O2 W1 1.947823 1_565
O2 W2 1.975687 1_555
O3 W2 1.947823 1_455
O3 W1 1.975687 1_555
O4 W3 2.090831 1_455
O4 W0 2.090831 1_565
O5 W3 2.018787 1_555
O5 W0 2.018787 1_555
O6 W1 2.018787 1_555
O6 W2 2.018787 1_555
O7 W1 2.090831 1_565
O7 W2 2.090831 1_455
O8 W1 1.996340 1_564
O8 W0 1.996340 1_565
O9 W0 2.046993 1_555
O9 W1 2.046993 1_555
O10 W2 1.996340 1_454
O10 W3 1.996340 1_455
O11 W3 2.046993 1_555
O11 W2 2.046993 1_555
