# generated using pymatgen
data_CsMg6V
_symmetry_space_group_name_H-M   'P 1'
_cell_length_a   5.33220100
_cell_length_b   6.77352000
_cell_length_c   11.91677300
_cell_angle_alpha   90.00000000
_cell_angle_beta   90.00000000
_cell_angle_gamma   90.00000000
_symmetry_Int_Tables_number   1
_chemical_formula_structural   CsMg6V
_chemical_formula_sum   'Cs2 Mg12 V2'
_cell_volume   430.40726776
_cell_formula_units_Z   2
loop_
 _symmetry_equiv_pos_site_id
 _symmetry_equiv_pos_as_xyz
  1  'x, y, z'
loop_
 _atom_site_type_symbol
 _atom_site_label
 _atom_site_symmetry_multiplicity
 _atom_site_fract_x
 _atom_site_fract_y
 _atom_site_fract_z
 _atom_site_occupancy
  Cs  Cs0  1  0.00000000  0.00000000  0.16163000  1
  Cs  Cs1  1  0.00000000  0.50000000  0.66163000  1
  Mg  Mg0  1  0.50000000  0.71997300  0.07422600  1
  Mg  Mg1  1  0.50000000  0.28002700  0.07422600  1
  Mg  Mg2  1  0.50000000  0.50000000  0.33343000  1
  Mg  Mg3  1  0.00000000  0.23354500  0.41151000  1
  Mg  Mg4  1  0.00000000  0.76645500  0.41151000  1
  Mg  Mg5  1  0.00000000  0.50000000  0.17247300  1
  Mg  Mg6  1  0.50000000  0.21997300  0.57422600  1
  Mg  Mg7  1  0.50000000  0.78002700  0.57422600  1
  Mg  Mg8  1  0.50000000  0.00000000  0.83343000  1
  Mg  Mg9  1  0.00000000  0.73354500  0.91151000  1
  Mg  Mg10  1  0.00000000  0.26645500  0.91151000  1
  Mg  Mg11  1  0.00000000  0.00000000  0.67247300  1
  V  V0  1  0.50000000  0.00000000  0.36099100  1
  V  V1  1  0.50000000  0.50000000  0.86099100  1
loop_
_geom_bond_atom_site_label_1
_geom_bond_atom_site_label_2
_geom_bond_distance
_geom_bond_site_symmetry_2
Cs0 Mg3 3.371876 1_555
Cs0 Mg4 3.371876 1_545
Cs0 Mg5 3.389224 1_555
Cs0 Mg5 3.389224 1_545
Cs0 Mg1 3.433759 1_555
Cs0 Mg1 3.433759 1_455
Cs0 Mg0 3.433759 1_445
Cs0 Mg0 3.433759 1_545
Cs0 Mg10 3.484474 1_554
Cs0 Mg9 3.484474 1_544
Cs0 V0 3.571027 1_455
Cs0 V0 3.571027 1_555
Cs1 Mg9 3.371876 1_555
Cs1 Mg10 3.371876 1_555
Cs1 Mg11 3.389224 1_555
Cs1 Mg11 3.389224 1_565
Cs1 Mg7 3.433759 1_455
Cs1 Mg7 3.433759 1_555
Cs1 Mg6 3.433759 1_455
Cs1 Mg6 3.433759 1_555
Cs1 Mg3 3.484474 1_555
Cs1 Mg4 3.484474 1_555
Cs1 V1 3.571027 1_455
Cs1 V1 3.571027 1_555
Mg0 V1 2.945696 1_554
Mg0 Mg1 2.979983 1_555
Mg0 Mg5 3.270919 1_655
Mg0 Mg5 3.270919 1_555
Mg0 Mg9 3.297947 1_554
Mg0 Mg9 3.297947 1_654
Mg0 Mg2 3.429464 1_555
Mg0 Mg8 3.439742 1_564
Mg1 V1 2.945696 1_554
Mg1 Mg5 3.270919 1_655
Mg1 Mg5 3.270919 1_555
Mg1 Mg10 3.297947 1_554
Mg1 Mg10 3.297947 1_654
Mg1 Mg2 3.429464 1_555
Mg1 Mg8 3.439742 1_554
Mg2 Mg5 3.284380 1_555
Mg2 Mg5 3.284380 1_655
Mg2 Mg3 3.351312 1_655
Mg2 Mg3 3.351312 1_555
Mg2 Mg4 3.351312 1_555
Mg2 Mg4 3.351312 1_655
Mg2 V0 3.402648 1_565
Mg2 V0 3.402648 1_555
Mg2 Mg7 3.439742 1_555
Mg2 Mg6 3.439742 1_555
Mg3 V0 3.158006 1_455
Mg3 V0 3.158006 1_555
Mg3 Mg4 3.163843 1_545
Mg3 Mg6 3.297947 1_455
Mg3 Mg6 3.297947 1_555
Mg3 Mg5 3.372192 1_555
Mg4 V0 3.158006 1_465
Mg4 V0 3.158006 1_565
Mg4 Mg7 3.297947 1_455
Mg4 Mg7 3.297947 1_555
Mg4 Mg5 3.372192 1_555
Mg5 Mg9 3.489063 1_554
Mg6 V0 2.945696 1_555
Mg6 Mg7 2.979983 1_545
Mg6 Mg8 3.429464 1_555
Mg7 V0 2.945696 1_565
Mg7 Mg8 3.429464 1_565
Mg8 Mg9 3.351312 1_645
Mg8 Mg9 3.351312 1_545
Mg8 V1 3.402648 1_545
Mg8 V1 3.402648 1_555
Mg9 V1 3.158006 1_455
Mg9 V1 3.158006 1_555
Mg10 V1 3.158006 1_455
Mg10 V1 3.158006 1_555
Mg10 Mg9 3.163843 1_555
Mg10 Mg8 3.351312 1_455
Mg10 Mg8 3.351312 1_555
Mg10 Mg11 3.372192 1_555
Mg10 Mg5 3.489063 1_556
Mg11 Mg6 3.270919 1_455
Mg11 Mg6 3.270919 1_555
Mg11 Mg7 3.270919 1_445
Mg11 Mg7 3.270919 1_545
Mg11 Mg8 3.284380 1_455
Mg11 Mg8 3.284380 1_555
Mg11 Mg9 3.372192 1_545
Mg11 Mg3 3.489063 1_555
Mg11 Mg4 3.489063 1_545
