# generated using pymatgen
data_Ho5BiAu2
_symmetry_space_group_name_H-M   'P 1'
_cell_length_a   8.64660582
_cell_length_b   8.64660582
_cell_length_c   8.64660582
_cell_angle_alpha   124.39973002
_cell_angle_beta   124.39973002
_cell_angle_gamma   82.53467049
_symmetry_Int_Tables_number   1
_chemical_formula_structural   Ho5BiAu2
_chemical_formula_sum   'Ho10 Bi2 Au4'
_cell_volume   422.76897240
_cell_formula_units_Z   2
loop_
 _symmetry_equiv_pos_site_id
 _symmetry_equiv_pos_as_xyz
  1  'x, y, z'
loop_
 _atom_site_type_symbol
 _atom_site_label
 _atom_site_symmetry_multiplicity
 _atom_site_fract_x
 _atom_site_fract_y
 _atom_site_fract_z
 _atom_site_occupancy
  Ho  Ho0  1  0.00000000  0.00000000  0.00000000  1
  Ho  Ho1  1  0.50000000  0.50000000  0.00000000  1
  Ho  Ho2  1  0.01477510  0.51477510  0.80830918  1
  Ho  Ho3  1  0.70646592  0.20646592  0.19169082  1
  Ho  Ho4  1  0.51477510  0.70646592  0.50000000  1
  Ho  Ho5  1  0.20646592  0.01477510  0.50000000  1
  Ho  Ho6  1  0.98522490  0.48522490  0.19169082  1
  Ho  Ho7  1  0.29353408  0.79353408  0.80830918  1
  Ho  Ho8  1  0.48522490  0.29353408  0.50000000  1
  Ho  Ho9  1  0.79353408  0.98522490  0.50000000  1
  Bi  Bi0  1  0.75000000  0.75000000  0.00000000  1
  Bi  Bi1  1  0.25000000  0.25000000  0.00000000  1
  Au  Au0  1  0.63830895  0.13830895  0.77661591  1
  Au  Au1  1  0.36169105  0.86169105  0.22338409  1
  Au  Au2  1  0.13830895  0.36169105  0.50000000  1
  Au  Au3  1  0.86169105  0.63830895  0.50000000  1
loop_
_geom_bond_atom_site_label_1
_geom_bond_atom_site_label_2
_geom_bond_distance
_geom_bond_site_symmetry_2
Ho0 Ho6 3.550863 1_455
Ho0 Ho8 3.550863 1_555
Ho0 Ho7 3.550863 1_544
Ho0 Ho3 3.550863 1_455
Ho0 Ho5 3.550863 1_555
Ho0 Ho9 3.550863 1_444
Ho0 Ho4 3.550863 1_444
Ho0 Ho2 3.550863 1_544
Ho1 Ho8 3.550863 1_554
Ho1 Ho2 3.550863 1_554
Ho1 Ho5 3.550863 1_554
Ho1 Ho3 3.550863 1_555
Ho1 Ho7 3.550863 1_554
Ho1 Ho9 3.550863 1_555
Ho1 Ho6 3.550863 1_555
Ho1 Ho4 3.550863 1_555
Ho2 Ho3 3.516618 1_455
Ho2 Ho6 3.612550 1_456
Ho2 Ho7 3.623386 1_555
Ho2 Ho9 3.801743 1_445
Ho2 Ho8 3.801743 1_455
Ho3 Ho7 3.612550 1_544
Ho3 Ho6 3.623386 1_555
Ho3 Ho9 3.801743 1_545
Ho3 Ho8 3.801743 1_555
Ho4 Ho5 3.516618 1_565
Ho4 Ho8 3.612550 1_555
Ho4 Ho9 3.623386 1_555
Ho4 Ho7 3.801743 1_555
Ho4 Ho6 3.801743 1_455
Ho5 Ho9 3.612550 1_445
Ho5 Ho8 3.623386 1_555
Ho5 Ho7 3.801743 1_545
Ho5 Ho6 3.801743 1_445
Ho6 Ho7 3.516618 1_655
Ho8 Ho9 3.516618 1_545
Bi0 Ho1 3.249569 1_555
Bi0 Ho0 3.249569 1_665
Bi0 Ho4 3.375482 1_554
Bi0 Ho9 3.375482 1_555
Bi0 Ho7 3.375482 1_554
Bi0 Ho3 3.375482 1_565
Bi0 Ho8 3.375482 1_554
Bi0 Ho5 3.375482 1_665
Bi0 Ho2 3.375482 1_654
Bi0 Ho6 3.375482 1_555
Bi1 Ho0 3.249569 1_555
Bi1 Ho1 3.249569 1_555
Bi1 Ho2 3.375482 1_554
Bi1 Ho4 3.375482 1_555
Bi1 Ho6 3.375482 1_455
Bi1 Ho9 3.375482 1_444
Bi1 Ho5 3.375482 1_554
Bi1 Ho3 3.375482 1_555
Bi1 Ho7 3.375482 1_544
Bi1 Ho8 3.375482 1_555
Au0 Ho8 2.977000 1_555
Au0 Ho9 2.977000 1_545
Au0 Ho5 2.977016 1_555
Au0 Ho4 2.977016 1_545
Au0 Ho6 2.980910 1_556
Au0 Ho3 2.980926 1_556
Au0 Ho1 3.123182 1_556
Au0 Ho0 3.123182 1_656
Au0 Au1 3.155120 1_545
Au1 Ho5 2.977000 1_565
Au1 Ho4 2.977000 1_555
Au1 Ho9 2.977016 1_555
Au1 Ho8 2.977016 1_565
Au1 Ho2 2.980910 1_554
Au1 Ho7 2.980926 1_554
Au1 Ho0 3.123182 1_565
Au1 Ho1 3.123182 1_555
Au2 Ho6 2.977014 1_455
Au2 Ho3 2.977014 1_455
Au2 Ho7 2.977014 1_555
Au2 Ho2 2.977014 1_555
Au2 Ho8 2.980909 1_555
Au2 Ho5 2.980909 1_555
Au2 Ho0 3.123177 1_555
Au2 Ho1 3.123177 1_556
Au2 Au3 3.155142 1_455
Au3 Ho6 2.977014 1_555
Au3 Ho3 2.977014 1_555
Au3 Ho7 2.977014 1_655
Au3 Ho2 2.977014 1_655
Au3 Ho9 2.980909 1_555
Au3 Ho4 2.980909 1_555
Au3 Ho0 3.123177 1_666
Au3 Ho1 3.123177 1_555
