# generated using pymatgen
data_LuSnPd
_symmetry_space_group_name_H-M   'P 1'
_cell_length_a   7.50696976
_cell_length_b   7.50696976
_cell_length_c   3.82858584
_cell_angle_alpha   90.00000000
_cell_angle_beta   90.00000000
_cell_angle_gamma   119.99999633
_symmetry_Int_Tables_number   1
_chemical_formula_structural   LuSnPd
_chemical_formula_sum   'Lu3 Sn3 Pd3'
_cell_volume   186.85226632
_cell_formula_units_Z   3
loop_
 _symmetry_equiv_pos_site_id
 _symmetry_equiv_pos_as_xyz
  1  'x, y, z'
loop_
 _atom_site_type_symbol
 _atom_site_label
 _atom_site_symmetry_multiplicity
 _atom_site_fract_x
 _atom_site_fract_y
 _atom_site_fract_z
 _atom_site_occupancy
  Lu  Lu0  1  0.40176317  0.40176317  0.50000000  1
  Lu  Lu1  1  0.59823683  -0.00000000  0.50000000  1
  Lu  Lu2  1  -0.00000000  0.59823683  0.50000000  1
  Sn  Sn0  1  0.73538713  0.73538713  -0.00000000  1
  Sn  Sn1  1  0.26461287  -0.00000000  0.00000000  1
  Sn  Sn2  1  -0.00000000  0.26461287  0.00000000  1
  Pd  Pd0  1  0.66666700  0.33333300  0.00000000  1
  Pd  Pd1  1  0.33333300  0.66666700  0.00000000  1
  Pd  Pd2  1  -0.00000000  -0.00000000  0.50000000  1
loop_
_geom_bond_atom_site_label_1
_geom_bond_atom_site_label_2
_geom_bond_distance
_geom_bond_site_symmetry_2
Lu0 Pd1 2.984058 1_555
Lu0 Pd1 2.984058 1_556
Lu0 Pd0 2.984058 1_555
Lu0 Pd0 2.984058 1_556
Lu0 Pd2 3.016024 1_555
Lu0 Sn0 3.152311 1_555
Lu0 Sn0 3.152311 1_556
Lu0 Sn1 3.273486 1_555
Lu0 Sn1 3.273486 1_556
Lu0 Sn2 3.273486 1_555
Lu0 Sn2 3.273486 1_556
Lu1 Pd0 2.984052 1_555
Lu1 Pd0 2.984052 1_556
Lu1 Pd1 2.984054 1_545
Lu1 Pd1 2.984054 1_546
Lu1 Pd2 3.016024 1_655
Lu1 Sn1 3.152311 1_555
Lu1 Sn1 3.152311 1_556
Lu1 Sn0 3.273486 1_546
Lu1 Sn0 3.273486 1_545
Lu1 Sn2 3.273486 1_656
Lu1 Sn2 3.273486 1_655
Lu2 Pd1 2.984052 1_555
Lu2 Pd1 2.984052 1_556
Lu2 Pd0 2.984054 1_455
Lu2 Pd0 2.984054 1_456
Lu2 Pd2 3.016024 1_565
Lu2 Sn2 3.152311 1_556
Lu2 Sn2 3.152311 1_555
Lu2 Sn0 3.273486 1_455
Lu2 Sn0 3.273486 1_456
Lu2 Sn1 3.273486 1_566
Lu2 Sn1 3.273486 1_565
Pd0 Sn2 2.796183 1_655
Pd0 Sn1 2.796188 1_555
Pd0 Sn0 2.796190 1_555
Pd1 Sn1 2.796183 1_565
Pd1 Sn2 2.796188 1_555
Pd1 Sn0 2.796190 1_555
Pd2 Sn1 2.758707 1_555
Pd2 Sn2 2.758707 1_556
Pd2 Sn1 2.758707 1_556
Pd2 Sn2 2.758707 1_555
Pd2 Sn0 2.758707 1_446
Pd2 Sn0 2.758707 1_445
