# generated using pymatgen
data_Mg149Br
_symmetry_space_group_name_H-M   'P 1'
_cell_length_a   15.90790382
_cell_length_b   15.90791048
_cell_length_c   15.60400746
_cell_angle_alpha   90.00000000
_cell_angle_beta   90.00000000
_cell_angle_gamma   120.00001384
_symmetry_Int_Tables_number   1
_chemical_formula_structural   Mg149Br
_chemical_formula_sum   'Mg149 Br1'
_cell_volume   3419.73785142
_cell_formula_units_Z   1
loop_
 _symmetry_equiv_pos_site_id
 _symmetry_equiv_pos_as_xyz
  1  'x, y, z'
loop_
 _atom_site_type_symbol
 _atom_site_label
 _atom_site_symmetry_multiplicity
 _atom_site_fract_x
 _atom_site_fract_y
 _atom_site_fract_z
 _atom_site_occupancy
  Mg  Mg0  1  0.20440246  0.00101804  -0.00000000  1
  Mg  Mg1  1  0.79661558  0.00101804  -0.00000000  1
  Mg  Mg2  1  0.40083163  0.20041582  -0.00000000  1
  Mg  Mg3  1  0.79958418  0.20041582  -0.00000000  1
  Mg  Mg4  1  0.60045926  0.20091952  -0.00000000  1
  Mg  Mg5  1  0.20440246  0.20338442  -0.00000000  1
  Mg  Mg6  1  0.99898196  0.20338442  -0.00000000  1
  Mg  Mg7  1  0.60045926  0.39953974  -0.00000000  1
  Mg  Mg8  1  0.79908048  0.39954074  -0.00000000  1
  Mg  Mg9  1  0.20000309  0.40000519  -0.00000000  1
  Mg  Mg10  1  0.40120037  0.40168020  -0.00000000  1
  Mg  Mg11  1  0.00047983  0.40168020  -0.00000000  1
  Mg  Mg12  1  0.59831980  0.59879963  -0.00000000  1
  Mg  Mg13  1  0.00047983  0.59879963  -0.00000000  1
  Mg  Mg14  1  0.79958418  0.59916837  -0.00000000  1
  Mg  Mg15  1  0.20099990  0.60049945  -0.00000000  1
  Mg  Mg16  1  0.39949955  0.60049945  -0.00000000  1
  Mg  Mg17  1  0.79661558  0.79559754  -0.00000000  1
  Mg  Mg18  1  0.99898196  0.79559754  -0.00000000  1
  Mg  Mg19  1  0.39949955  0.79900010  -0.00000000  1
  Mg  Mg20  1  0.59999481  0.79999691  -0.00000000  1
  Mg  Mg21  1  0.20000309  0.79999691  -0.00000000  1
  Mg  Mg22  1  0.59831980  0.99952117  -0.00000000  1
  Mg  Mg23  1  0.40120037  0.99952117  -0.00000000  1
  Mg  Mg24  1  0.66666700  0.33333300  0.16606018  1
  Mg  Mg25  1  0.46640568  0.13335446  0.16624659  1
  Mg  Mg26  1  0.66694878  0.13335446  0.16624659  1
  Mg  Mg27  1  0.46640568  0.33305122  0.16624659  1
  Mg  Mg28  1  0.86664654  0.33305122  0.16624659  1
  Mg  Mg29  1  0.66694878  0.53359432  0.16624659  1
  Mg  Mg30  1  0.86664654  0.53359432  0.16624659  1
  Mg  Mg31  1  0.26659506  0.53319012  0.16641554  1
  Mg  Mg32  1  0.46680988  0.73340494  0.16641554  1
  Mg  Mg33  1  0.26659506  0.73340494  0.16641554  1
  Mg  Mg34  1  0.26668659  0.33333162  0.16659793  1
  Mg  Mg35  1  0.06664502  0.33333162  0.16659793  1
  Mg  Mg36  1  0.66666838  0.73331341  0.16659793  1
  Mg  Mg37  1  0.06664502  0.73331341  0.16659793  1
  Mg  Mg38  1  0.66666838  0.93335498  0.16659793  1
  Mg  Mg39  1  0.26668659  0.93335498  0.16659793  1
  Mg  Mg40  1  0.86703764  0.13296236  0.16696440  1
  Mg  Mg41  1  0.26592471  0.13296236  0.16696440  1
  Mg  Mg42  1  0.86703764  0.73407529  0.16696440  1
  Mg  Mg43  1  0.46648480  0.53351520  0.16688863  1
  Mg  Mg44  1  0.06703040  0.53351520  0.16688863  1
  Mg  Mg45  1  0.46648480  0.93296960  0.16688863  1
  Mg  Mg46  1  0.06750591  0.13501181  0.17001128  1
  Mg  Mg47  1  0.86498819  0.93249409  0.17001128  1
  Mg  Mg48  1  0.06750591  0.93249409  0.17001128  1
  Mg  Mg49  1  0.00000000  0.00000000  0.33214667  1
  Mg  Mg50  1  0.80003498  0.19996502  0.33277905  1
  Mg  Mg51  1  0.39993105  0.19996502  0.33277905  1
  Mg  Mg52  1  0.80003498  0.60006995  0.33277905  1
  Mg  Mg53  1  0.60015618  0.20031237  0.33289548  1
  Mg  Mg54  1  0.79968763  0.39984382  0.33289548  1
  Mg  Mg55  1  0.60015618  0.39984382  0.33289548  1
  Mg  Mg56  1  0.19991977  0.39983853  0.33284431  1
  Mg  Mg57  1  0.19991977  0.80008023  0.33284431  1
  Mg  Mg58  1  0.60016047  0.80008023  0.33284431  1
  Mg  Mg59  1  0.20019829  0.60009864  0.33313474  1
  Mg  Mg60  1  0.39990136  0.60009864  0.33313474  1
  Mg  Mg61  1  0.39990136  0.79980171  0.33313474  1
  Mg  Mg62  1  0.40027181  0.00001053  0.33348903  1
  Mg  Mg63  1  0.59973872  0.00001053  0.33348903  1
  Mg  Mg64  1  0.40027181  0.40026128  0.33348903  1
  Mg  Mg65  1  -0.00000953  0.40026128  0.33348903  1
  Mg  Mg66  1  -0.00000953  0.59972919  0.33348903  1
  Mg  Mg67  1  0.59973872  0.59972919  0.33348903  1
  Mg  Mg68  1  0.79948862  0.00008143  0.33449879  1
  Mg  Mg69  1  0.20059281  0.00008143  0.33449879  1
  Mg  Mg70  1  0.20059281  0.20051138  0.33449879  1
  Mg  Mg71  1  0.99991857  0.20051138  0.33449879  1
  Mg  Mg72  1  0.79948862  0.79940719  0.33449879  1
  Mg  Mg73  1  0.99991857  0.79940719  0.33449879  1
  Mg  Mg74  1  0.06652587  0.13305174  0.50000000  1
  Mg  Mg75  1  0.26710919  0.13355410  0.50000000  1
  Mg  Mg76  1  0.86644590  0.13355510  0.50000000  1
  Mg  Mg77  1  0.46665690  0.13340111  0.50000000  1
  Mg  Mg78  1  0.66674422  0.13340111  0.50000000  1
  Mg  Mg79  1  0.46665690  0.33325578  0.50000000  1
  Mg  Mg80  1  0.86659889  0.33325678  0.50000000  1
  Mg  Mg81  1  0.66666700  0.33333300  0.50000000  1
  Mg  Mg82  1  0.06712878  0.33371342  0.50000000  1
  Mg  Mg83  1  0.26658464  0.33371342  0.50000000  1
  Mg  Mg84  1  0.66674422  0.53334310  0.50000000  1
  Mg  Mg85  1  0.86659889  0.53334310  0.50000000  1
  Mg  Mg86  1  0.06668882  0.53334441  0.50000000  1
  Mg  Mg87  1  0.46665559  0.53334441  0.50000000  1
  Mg  Mg88  1  0.26666655  0.53333310  0.50000000  1
  Mg  Mg89  1  0.86644590  0.73289081  0.50000000  1
  Mg  Mg90  1  0.46666690  0.73333345  0.50000000  1
  Mg  Mg91  1  0.26666655  0.73333345  0.50000000  1
  Mg  Mg92  1  0.66628658  0.73341536  0.50000000  1
  Mg  Mg93  1  0.06712878  0.73341536  0.50000000  1
  Mg  Mg94  1  0.26658464  0.93287122  0.50000000  1
  Mg  Mg95  1  0.66628658  0.93287122  0.50000000  1
  Mg  Mg96  1  0.46665559  0.93331118  0.50000000  1
  Mg  Mg97  1  0.86694826  0.93347413  0.50000000  1
  Mg  Mg98  1  0.06652587  0.93347413  0.50000000  1
  Mg  Mg99  1  0.79948862  0.00008143  0.66550021  1
  Mg  Mg100  1  0.20059281  0.00008143  0.66550021  1
  Mg  Mg101  1  0.20059281  0.20051138  0.66550021  1
  Mg  Mg102  1  0.99991857  0.20051138  0.66550021  1
  Mg  Mg103  1  0.79948862  0.79940719  0.66550021  1
  Mg  Mg104  1  0.99991857  0.79940719  0.66550021  1
  Mg  Mg105  1  0.40027181  0.00001053  0.66651097  1
  Mg  Mg106  1  0.59973872  0.00001053  0.66651097  1
  Mg  Mg107  1  0.40027181  0.40026128  0.66651097  1
  Mg  Mg108  1  -0.00000953  0.40026128  0.66651097  1
  Mg  Mg109  1  -0.00000953  0.59972919  0.66651097  1
  Mg  Mg110  1  0.59973872  0.59972919  0.66651097  1
  Mg  Mg111  1  0.20019829  0.60009864  0.66686426  1
  Mg  Mg112  1  0.39990136  0.60009864  0.66686426  1
  Mg  Mg113  1  0.39990136  0.79980171  0.66686426  1
  Mg  Mg114  1  0.19991977  0.39983853  0.66715569  1
  Mg  Mg115  1  0.19991977  0.80008023  0.66715569  1
  Mg  Mg116  1  0.60016047  0.80008023  0.66715569  1
  Mg  Mg117  1  0.60015618  0.20031237  0.66710452  1
  Mg  Mg118  1  0.79968763  0.39984382  0.66710452  1
  Mg  Mg119  1  0.60015618  0.39984382  0.66710452  1
  Mg  Mg120  1  0.80003498  0.19996502  0.66722095  1
  Mg  Mg121  1  0.39993105  0.19996502  0.66722095  1
  Mg  Mg122  1  0.80003498  0.60006995  0.66722095  1
  Mg  Mg123  1  0.00000000  0.00000000  0.66785233  1
  Mg  Mg124  1  0.06750591  0.13501181  0.82998872  1
  Mg  Mg125  1  0.86498819  0.93249409  0.82998872  1
  Mg  Mg126  1  0.06750591  0.93249409  0.82998872  1
  Mg  Mg127  1  0.46648480  0.53351520  0.83311237  1
  Mg  Mg128  1  0.06703040  0.53351520  0.83311237  1
  Mg  Mg129  1  0.46648480  0.93296960  0.83311237  1
  Mg  Mg130  1  0.86703764  0.13296236  0.83303560  1
  Mg  Mg131  1  0.26592471  0.13296236  0.83303560  1
  Mg  Mg132  1  0.86703764  0.73407529  0.83303560  1
  Mg  Mg133  1  0.26668659  0.33333162  0.83340307  1
  Mg  Mg134  1  0.06664502  0.33333162  0.83340307  1
  Mg  Mg135  1  0.66666838  0.73331341  0.83340307  1
  Mg  Mg136  1  0.06664502  0.73331341  0.83340307  1
  Mg  Mg137  1  0.66666838  0.93335498  0.83340307  1
  Mg  Mg138  1  0.26668659  0.93335498  0.83340307  1
  Mg  Mg139  1  0.26659506  0.53319012  0.83358446  1
  Mg  Mg140  1  0.46680988  0.73340494  0.83358446  1
  Mg  Mg141  1  0.26659506  0.73340494  0.83358446  1
  Mg  Mg142  1  0.46640568  0.13335446  0.83375441  1
  Mg  Mg143  1  0.66694878  0.13335446  0.83375441  1
  Mg  Mg144  1  0.46640568  0.33305122  0.83375441  1
  Mg  Mg145  1  0.86664654  0.33305122  0.83375441  1
  Mg  Mg146  1  0.66694878  0.53359432  0.83375441  1
  Mg  Mg147  1  0.86664654  0.53359432  0.83375441  1
  Mg  Mg148  1  0.66666700  0.33333300  0.83393982  1
  Br  Br0  1  0.00000000  0.00000000  -0.00000000  1
loop_
_geom_bond_atom_site_label_1
_geom_bond_atom_site_label_2
_geom_bond_distance
_geom_bond_site_symmetry_2
Mg0 Mg23 3.142616 1_545
Mg0 Mg2 3.148654 1_555
Mg0 Mg138 3.156675 1_544
Mg0 Mg39 3.156688 1_545
Mg0 Mg21 3.163414 1_545
Mg0 Mg41 3.177560 1_555
Mg0 Mg131 3.177560 1_554
Mg1 Mg22 3.142632 1_545
Mg1 Mg3 3.148656 1_555
Mg1 Mg137 3.156674 1_544
Mg1 Mg38 3.156687 1_545
Mg1 Mg20 3.163406 1_545
Mg1 Mg40 3.177560 1_555
Mg1 Mg130 3.177560 1_554
Mg2 Mg5 3.148654 1_555
Mg2 Mg7 3.171658 1_555
Mg2 Mg4 3.171658 1_555
Mg2 Mg27 3.173088 1_555
Mg2 Mg25 3.173088 1_555
Mg2 Mg23 3.198751 1_545
Mg2 Mg41 3.200301 1_555
Mg3 Mg6 3.148654 1_555
Mg3 Mg4 3.171674 1_555
Mg3 Mg8 3.171675 1_555
Mg3 Mg40 3.200301 1_555
Mg4 Mg7 3.159633 1_555
Mg4 Mg8 3.159647 1_555
Mg5 Mg9 3.163399 1_555
Mg6 Mg9 3.163405 1_655
Mg7 Mg8 3.159639 1_555
Mg10 Mg12 3.135757 1_555
Mg10 Mg5 3.142624 1_555
Mg10 Mg127 3.174944 1_554
Mg10 Mg43 3.174956 1_555
Mg10 Mg16 3.176414 1_555
Mg10 Mg144 3.182709 1_554
Mg10 Mg27 3.182722 1_555
Mg10 Mg7 3.186953 1_555
Mg10 Mg9 3.187388 1_555
Mg10 Mg133 3.192535 1_554
Mg10 Mg34 3.192547 1_555
Mg10 Mg2 3.198767 1_555
Mg11 Mg13 3.135758 1_555
Mg11 Mg6 3.142625 1_455
Mg11 Mg128 3.174944 1_554
Mg11 Mg44 3.174956 1_555
Mg11 Mg15 3.176412 1_555
Mg11 Mg145 3.182701 1_454
Mg11 Mg28 3.182714 1_455
Mg11 Mg8 3.186961 1_455
Mg11 Mg9 3.187403 1_555
Mg11 Mg134 3.192535 1_554
Mg11 Mg35 3.192548 1_555
Mg11 Mg3 3.198766 1_455
Mg12 Mg17 3.142624 1_555
Mg12 Mg127 3.174943 1_554
Mg12 Mg43 3.174956 1_555
Mg12 Mg16 3.176420 1_555
Mg12 Mg146 3.182709 1_554
Mg12 Mg29 3.182722 1_555
Mg12 Mg7 3.186962 1_555
Mg12 Mg20 3.187389 1_555
Mg12 Mg135 3.192535 1_554
Mg12 Mg36 3.192548 1_555
Mg12 Mg14 3.198765 1_555
Mg13 Mg18 3.142625 1_455
Mg13 Mg44 3.174956 1_555
Mg13 Mg15 3.176420 1_555
Mg13 Mg147 3.182701 1_454
Mg13 Mg30 3.182714 1_455
Mg13 Mg8 3.186953 1_455
Mg13 Mg21 3.187395 1_555
Mg13 Mg136 3.192535 1_554
Mg13 Mg37 3.192548 1_555
Mg13 Mg14 3.198766 1_455
Mg14 Mg18 3.148654 1_555
Mg14 Mg17 3.148655 1_555
Mg14 Mg8 3.171660 1_555
Mg14 Mg7 3.171674 1_555
Mg14 Mg146 3.173074 1_554
Mg14 Mg147 3.173083 1_554
Mg14 Mg29 3.173087 1_555
Mg14 Mg30 3.173096 1_555
Mg14 Mg42 3.200301 1_555
Mg15 Mg16 3.157713 1_555
Mg15 Mg19 3.157721 1_555
Mg15 Mg31 3.177385 1_555
Mg15 Mg33 3.177393 1_555
Mg15 Mg9 3.181546 1_555
Mg15 Mg21 3.181546 1_555
Mg15 Mg44 3.191853 1_555
Mg16 Mg19 3.157731 1_555
Mg16 Mg31 3.177385 1_555
Mg16 Mg32 3.177393 1_555
Mg16 Mg9 3.181537 1_555
Mg16 Mg20 3.181553 1_555
Mg16 Mg43 3.191854 1_555
Mg17 Mg36 3.156687 1_555
Mg17 Mg20 3.163397 1_555
Mg17 Mg42 3.177560 1_555
Mg18 Mg37 3.156687 1_655
Mg18 Mg21 3.163413 1_655
Mg18 Mg42 3.177560 1_555
Mg19 Mg22 3.176428 1_555
Mg19 Mg23 3.176429 1_555
Mg19 Mg33 3.177385 1_555
Mg19 Mg32 3.177393 1_555
Mg19 Mg21 3.181529 1_555
Mg19 Mg20 3.181560 1_555
Mg19 Mg45 3.191854 1_555
Mg20 Mg32 3.179584 1_555
Mg20 Mg36 3.183277 1_555
Mg20 Mg38 3.183285 1_555
Mg20 Mg22 3.187421 1_555
Mg21 Mg33 3.179576 1_555
Mg21 Mg37 3.183284 1_555
Mg21 Mg39 3.183285 1_555
Mg21 Mg23 3.187403 1_555
Mg22 Mg23 3.135757 1_555
Mg22 Mg45 3.174956 1_555
Mg22 Mg26 3.182714 1_565
Mg22 Mg4 3.186946 1_565
Mg22 Mg38 3.192556 1_555
Mg22 Mg3 3.198758 1_565
Mg23 Mg45 3.174964 1_555
Mg23 Mg25 3.182714 1_565
Mg23 Mg4 3.186945 1_565
Mg23 Mg39 3.192547 1_555
Mg24 Mg8 3.168927 1_555
Mg24 Mg4 3.168927 1_555
Mg24 Mg7 3.168935 1_555
Mg24 Mg26 3.183486 1_555
Mg24 Mg25 3.183492 1_555
Mg24 Mg27 3.183500 1_555
Mg24 Mg28 3.183500 1_555
Mg24 Mg30 3.183500 1_555
Mg24 Mg29 3.183502 1_555
Mg24 Mg54 3.183632 1_555
Mg24 Mg53 3.183632 1_555
Mg24 Mg55 3.183640 1_555
Mg25 Mg27 3.176758 1_555
Mg25 Mg39 3.179349 1_545
Mg25 Mg51 3.180282 1_555
Mg25 Mg4 3.184368 1_555
Mg25 Mg41 3.186138 1_555
Mg25 Mg53 3.187057 1_555
Mg25 Mg45 3.188350 1_545
Mg25 Mg26 3.190220 1_555
Mg25 Mg62 3.191402 1_555
Mg26 Mg3 3.173087 1_555
Mg26 Mg28 3.176765 1_555
Mg26 Mg38 3.179351 1_545
Mg26 Mg50 3.180290 1_555
Mg26 Mg4 3.184376 1_555
Mg26 Mg40 3.186137 1_555
Mg26 Mg53 3.187057 1_555
Mg26 Mg45 3.188348 1_545
Mg26 Mg63 3.191402 1_555
Mg27 Mg34 3.179349 1_555
Mg27 Mg51 3.180290 1_555
Mg27 Mg7 3.184368 1_555
Mg27 Mg41 3.186137 1_555
Mg27 Mg55 3.187057 1_555
Mg27 Mg43 3.188350 1_555
Mg27 Mg29 3.190220 1_555
Mg27 Mg64 3.191402 1_555
Mg28 Mg3 3.173088 1_555
Mg28 Mg35 3.179333 1_655
Mg28 Mg50 3.180290 1_555
Mg28 Mg8 3.184384 1_555
Mg28 Mg40 3.186131 1_555
Mg28 Mg54 3.187065 1_555
Mg28 Mg44 3.188340 1_655
Mg28 Mg30 3.190222 1_555
Mg28 Mg65 3.191402 1_655
Mg29 Mg30 3.176773 1_555
Mg29 Mg36 3.179351 1_555
Mg29 Mg52 3.180290 1_555
Mg29 Mg7 3.184376 1_555
Mg29 Mg42 3.186137 1_555
Mg29 Mg55 3.187057 1_555
Mg29 Mg43 3.188348 1_555
Mg29 Mg67 3.191410 1_555
Mg30 Mg37 3.179341 1_655
Mg30 Mg52 3.180298 1_555
Mg30 Mg8 3.184368 1_555
Mg30 Mg42 3.186147 1_555
Mg30 Mg54 3.187057 1_555
Mg30 Mg44 3.188332 1_655
Mg30 Mg66 3.191402 1_655
Mg31 Mg43 3.177253 1_555
Mg31 Mg44 3.177253 1_555
Mg31 Mg9 3.179584 1_555
Mg31 Mg35 3.180059 1_555
Mg31 Mg34 3.180061 1_555
Mg31 Mg56 3.181078 1_555
Mg31 Mg59 3.184413 1_555
Mg31 Mg60 3.184421 1_555
Mg31 Mg32 3.184998 1_555
Mg31 Mg33 3.184999 1_555
Mg32 Mg45 3.177254 1_555
Mg32 Mg43 3.177254 1_555
Mg32 Mg36 3.180059 1_555
Mg32 Mg38 3.180059 1_555
Mg32 Mg58 3.181070 1_555
Mg32 Mg61 3.184413 1_555
Mg32 Mg60 3.184422 1_555
Mg32 Mg33 3.184998 1_555
Mg33 Mg45 3.177253 1_555
Mg33 Mg44 3.177253 1_555
Mg33 Mg37 3.180060 1_555
Mg33 Mg39 3.180061 1_555
Mg33 Mg57 3.181070 1_555
Mg33 Mg61 3.184421 1_555
Mg33 Mg59 3.184422 1_555
Mg34 Mg5 3.156688 1_555
Mg34 Mg46 3.162171 1_555
Mg34 Mg56 3.178136 1_555
Mg34 Mg41 3.181419 1_555
Mg34 Mg43 3.181444 1_555
Mg34 Mg35 3.182242 1_555
Mg34 Mg9 3.183277 1_555
Mg34 Mg64 3.188827 1_555
Mg34 Mg70 3.195665 1_555
Mg35 Mg6 3.156688 1_455
Mg35 Mg46 3.162172 1_555
Mg35 Mg56 3.178144 1_555
Mg35 Mg40 3.181417 1_455
Mg35 Mg44 3.181445 1_555
Mg35 Mg9 3.183284 1_555
Mg35 Mg65 3.188819 1_555
Mg35 Mg71 3.195665 1_455
Mg36 Mg47 3.162171 1_555
Mg36 Mg58 3.178144 1_555
Mg36 Mg42 3.181417 1_555
Mg36 Mg43 3.181444 1_555
Mg36 Mg38 3.182243 1_555
Mg36 Mg67 3.188820 1_555
Mg36 Mg72 3.195664 1_555
Mg37 Mg48 3.162172 1_555
Mg37 Mg57 3.178144 1_555
Mg37 Mg42 3.181417 1_455
Mg37 Mg44 3.181445 1_555
Mg37 Mg39 3.182242 1_555
Mg37 Mg66 3.188820 1_555
Mg37 Mg73 3.195665 1_455
Mg38 Mg47 3.162171 1_555
Mg38 Mg58 3.178144 1_555
Mg38 Mg40 3.181417 1_565
Mg38 Mg45 3.181444 1_555
Mg38 Mg63 3.188827 1_565
Mg38 Mg68 3.195664 1_565
Mg39 Mg48 3.162170 1_555
Mg39 Mg57 3.178144 1_555
Mg39 Mg41 3.181419 1_565
Mg39 Mg45 3.181444 1_555
Mg39 Mg62 3.188827 1_565
Mg39 Mg69 3.195665 1_565
Mg40 Mg46 3.173211 1_655
Mg40 Mg47 3.173212 1_545
Mg40 Mg6 3.177560 1_555
Mg40 Mg50 3.178482 1_555
Mg40 Mg71 3.191502 1_555
Mg40 Mg68 3.191503 1_555
Mg41 Mg46 3.173210 1_555
Mg41 Mg48 3.173210 1_545
Mg41 Mg5 3.177560 1_555
Mg41 Mg51 3.178490 1_555
Mg41 Mg70 3.191503 1_555
Mg41 Mg69 3.191503 1_555
Mg42 Mg48 3.173210 1_655
Mg42 Mg47 3.173212 1_555
Mg42 Mg52 3.178482 1_555
Mg42 Mg73 3.191502 1_555
Mg42 Mg72 3.191503 1_555
Mg43 Mg60 3.177282 1_555
Mg43 Mg67 3.182495 1_555
Mg43 Mg64 3.182495 1_555
Mg44 Mg59 3.177289 1_555
Mg44 Mg65 3.182495 1_555
Mg44 Mg66 3.182495 1_555
Mg45 Mg61 3.177290 1_555
Mg45 Mg63 3.182495 1_565
Mg45 Mg62 3.182495 1_565
Mg46 Mg49 3.140119 1_555
Mg46 Mg70 3.154320 1_555
Mg46 Mg71 3.154320 1_455
Mg47 Mg49 3.140119 1_665
Mg47 Mg72 3.154320 1_555
Mg47 Mg68 3.154320 1_565
Mg48 Mg49 3.140119 1_565
Mg48 Mg69 3.154320 1_565
Mg48 Mg73 3.154320 1_455
Mg49 Mg69 3.190575 1_555
Mg49 Mg70 3.190575 1_555
Mg49 Mg72 3.190575 1_445
Mg49 Mg68 3.190575 1_455
Mg49 Mg73 3.190576 1_445
Mg49 Mg71 3.190576 1_455
Mg49 Mg97 3.196880 1_445
Mg49 Mg98 3.196881 1_545
Mg49 Mg74 3.196881 1_555
Mg50 Mg71 3.175506 1_555
Mg50 Mg68 3.175507 1_555
Mg50 Mg53 3.182420 1_555
Mg50 Mg54 3.182421 1_555
Mg50 Mg63 3.183598 1_555
Mg50 Mg65 3.183606 1_655
Mg50 Mg76 3.186974 1_555
Mg50 Mg78 3.190695 1_555
Mg50 Mg80 3.190703 1_555
Mg51 Mg69 3.175514 1_555
Mg51 Mg70 3.175522 1_555
Mg51 Mg53 3.182403 1_555
Mg51 Mg55 3.182412 1_555
Mg51 Mg62 3.183591 1_555
Mg51 Mg64 3.183607 1_555
Mg51 Mg75 3.186981 1_555
Mg51 Mg77 3.190687 1_555
Mg51 Mg79 3.190695 1_555
Mg52 Mg73 3.175506 1_555
Mg52 Mg72 3.175507 1_555
Mg52 Mg55 3.182419 1_555
Mg52 Mg54 3.182421 1_555
Mg52 Mg66 3.183606 1_655
Mg52 Mg67 3.183606 1_555
Mg52 Mg89 3.186974 1_555
Mg52 Mg84 3.190695 1_555
Mg52 Mg85 3.190695 1_555
Mg53 Mg54 3.174127 1_555
Mg53 Mg55 3.174128 1_555
Mg53 Mg62 3.183081 1_555
Mg53 Mg63 3.183082 1_555
Mg53 Mg81 3.187068 1_555
Mg53 Mg77 3.190865 1_555
Mg53 Mg78 3.190866 1_555
Mg54 Mg55 3.174127 1_555
Mg54 Mg66 3.183096 1_655
Mg54 Mg65 3.183097 1_655
Mg54 Mg81 3.187068 1_555
Mg54 Mg80 3.190858 1_555
Mg54 Mg85 3.190865 1_555
Mg55 Mg64 3.183080 1_555
Mg55 Mg67 3.183098 1_555
Mg55 Mg81 3.187076 1_555
Mg55 Mg79 3.190865 1_555
Mg55 Mg84 3.190865 1_555
Mg56 Mg70 3.176350 1_555
Mg56 Mg71 3.176357 1_455
Mg56 Mg60 3.183509 1_555
Mg56 Mg59 3.183510 1_555
Mg56 Mg64 3.183840 1_555
Mg56 Mg65 3.183840 1_555
Mg56 Mg83 3.185899 1_555
Mg56 Mg82 3.185906 1_555
Mg56 Mg88 3.191479 1_555
Mg57 Mg73 3.176365 1_455
Mg57 Mg69 3.176366 1_565
Mg57 Mg61 3.183509 1_555
Mg57 Mg59 3.183510 1_555
Mg57 Mg66 3.183832 1_555
Mg57 Mg62 3.183848 1_565
Mg57 Mg93 3.185906 1_555
Mg57 Mg94 3.185907 1_555
Mg57 Mg91 3.191471 1_555
Mg58 Mg72 3.176365 1_555
Mg58 Mg68 3.176365 1_565
Mg58 Mg61 3.183493 1_555
Mg58 Mg60 3.183501 1_555
Mg58 Mg67 3.183833 1_555
Mg58 Mg63 3.183849 1_565
Mg58 Mg92 3.185906 1_555
Mg58 Mg95 3.185907 1_555
Mg58 Mg90 3.191471 1_555
Mg59 Mg60 3.176857 1_555
Mg59 Mg61 3.176857 1_555
Mg59 Mg65 3.181949 1_555
Mg59 Mg66 3.181957 1_555
Mg59 Mg88 3.185706 1_555
Mg59 Mg91 3.185714 1_555
Mg59 Mg86 3.187895 1_555
Mg60 Mg61 3.176859 1_555
Mg60 Mg67 3.181941 1_555
Mg60 Mg64 3.181950 1_555
Mg60 Mg88 3.185714 1_555
Mg60 Mg90 3.185714 1_555
Mg60 Mg87 3.187887 1_555
Mg61 Mg63 3.181957 1_565
Mg61 Mg62 3.181966 1_565
Mg61 Mg90 3.185706 1_555
Mg61 Mg91 3.185714 1_555
Mg61 Mg96 3.187895 1_555
Mg62 Mg63 3.173100 1_555
Mg62 Mg69 3.177077 1_555
Mg62 Mg96 3.179992 1_545
Mg62 Mg77 3.182439 1_555
Mg62 Mg94 3.184800 1_545
Mg63 Mg68 3.177077 1_555
Mg63 Mg96 3.179992 1_545
Mg63 Mg78 3.182439 1_555
Mg63 Mg95 3.184800 1_545
Mg64 Mg67 3.173108 1_555
Mg64 Mg70 3.177077 1_555
Mg64 Mg87 3.179992 1_555
Mg64 Mg79 3.182439 1_555
Mg64 Mg83 3.184800 1_555
Mg65 Mg66 3.173118 1_555
Mg65 Mg71 3.177071 1_455
Mg65 Mg86 3.179992 1_555
Mg65 Mg80 3.182447 1_455
Mg65 Mg82 3.184792 1_555
Mg66 Mg73 3.177071 1_455
Mg66 Mg86 3.179992 1_555
Mg66 Mg85 3.182447 1_455
Mg66 Mg93 3.184792 1_555
Mg67 Mg72 3.177070 1_555
Mg67 Mg87 3.179992 1_555
Mg67 Mg84 3.182447 1_555
Mg67 Mg92 3.184792 1_555
Mg68 Mg95 3.168094 1_545
Mg68 Mg76 3.170250 1_555
Mg68 Mg97 3.175003 1_545
Mg68 Mg71 3.188420 1_555
Mg68 Mg72 3.192308 1_545
Mg69 Mg94 3.168094 1_545
Mg69 Mg75 3.170242 1_555
Mg69 Mg98 3.175003 1_545
Mg69 Mg70 3.188422 1_555
Mg69 Mg73 3.192307 1_445
Mg70 Mg83 3.168094 1_555
Mg70 Mg75 3.170250 1_555
Mg70 Mg74 3.175003 1_555
Mg70 Mg71 3.192307 1_455
Mg71 Mg82 3.168094 1_655
Mg71 Mg76 3.170242 1_555
Mg71 Mg74 3.175003 1_655
Mg72 Mg92 3.168094 1_555
Mg72 Mg89 3.170250 1_555
Mg72 Mg97 3.175003 1_555
Mg72 Mg73 3.188420 1_555
Mg73 Mg93 3.168094 1_655
Mg73 Mg89 3.170242 1_555
Mg73 Mg98 3.175003 1_655
Mg74 Mg97 3.174861 1_445
Mg74 Mg98 3.174863 1_545
Mg74 Mg76 3.186864 1_455
Mg74 Mg75 3.186872 1_555
Mg74 Mg83 3.187322 1_555
Mg74 Mg82 3.187323 1_555
Mg75 Mg77 3.175603 1_555
Mg75 Mg79 3.175611 1_555
Mg75 Mg98 3.186864 1_545
Mg75 Mg94 3.188281 1_545
Mg75 Mg83 3.188297 1_555
Mg76 Mg99 3.170238 1_555
Mg76 Mg78 3.175611 1_555
Mg76 Mg80 3.175620 1_555
Mg76 Mg97 3.186873 1_545
Mg76 Mg82 3.188280 1_655
Mg76 Mg95 3.188296 1_545
Mg77 Mg79 3.179270 1_555
Mg77 Mg81 3.181120 1_555
Mg77 Mg78 3.182970 1_555
Mg77 Mg96 3.183002 1_545
Mg77 Mg94 3.186376 1_545
Mg78 Mg80 3.179277 1_555
Mg78 Mg81 3.181113 1_555
Mg78 Mg96 3.183001 1_545
Mg78 Mg95 3.186378 1_545
Mg79 Mg81 3.181127 1_555
Mg79 Mg84 3.182970 1_555
Mg79 Mg87 3.183002 1_555
Mg79 Mg83 3.186377 1_555
Mg80 Mg81 3.181104 1_555
Mg80 Mg85 3.182955 1_555
Mg80 Mg86 3.182993 1_655
Mg80 Mg82 3.186384 1_655
Mg81 Mg85 3.181120 1_555
Mg81 Mg84 3.181129 1_555
Mg82 Mg83 3.172925 1_555
Mg82 Mg88 3.174879 1_555
Mg82 Mg86 3.179217 1_555
Mg83 Mg88 3.174881 1_555
Mg83 Mg87 3.179216 1_555
Mg84 Mg89 3.175611 1_555
Mg84 Mg85 3.179269 1_555
Mg84 Mg87 3.183001 1_555
Mg84 Mg92 3.186378 1_555
Mg85 Mg89 3.175605 1_555
Mg85 Mg86 3.183001 1_655
Mg85 Mg93 3.186376 1_655
Mg86 Mg93 3.179217 1_555
Mg86 Mg88 3.181316 1_555
Mg86 Mg91 3.181316 1_555
Mg87 Mg92 3.179216 1_555
Mg87 Mg88 3.181316 1_555
Mg87 Mg90 3.181318 1_555
Mg88 Mg90 3.181586 1_555
Mg88 Mg91 3.181588 1_555
Mg89 Mg98 3.186864 1_655
Mg89 Mg97 3.186873 1_555
Mg89 Mg93 3.188280 1_655
Mg89 Mg92 3.188296 1_555
Mg90 Mg95 3.174879 1_555
Mg90 Mg92 3.174879 1_555
Mg90 Mg96 3.181318 1_555
Mg90 Mg91 3.181586 1_555
Mg91 Mg93 3.174879 1_555
Mg91 Mg94 3.174881 1_555
Mg91 Mg96 3.181316 1_555
Mg92 Mg95 3.172926 1_555
Mg92 Mg97 3.187322 1_555
Mg93 Mg94 3.172925 1_555
Mg93 Mg98 3.187323 1_555
Mg94 Mg96 3.179216 1_555
Mg94 Mg98 3.187322 1_555
Mg95 Mg99 3.168081 1_565
Mg95 Mg96 3.179216 1_555
Mg95 Mg97 3.187322 1_555
Mg97 Mg98 3.174861 1_655
Mg97 Mg99 3.174991 1_565
Mg100 Mg126 3.154332 1_545
Mg100 Mg94 3.168081 1_545
Mg100 Mg75 3.170230 1_555
Mg100 Mg98 3.174990 1_545
Mg100 Mg121 3.175514 1_555
Mg100 Mg115 3.176366 1_545
Mg100 Mg105 3.177078 1_555
Mg100 Mg101 3.188422 1_555
Mg100 Mg123 3.190575 1_555
Mg100 Mg131 3.191515 1_555
Mg100 Mg104 3.192307 1_445
Mg100 Mg138 3.195690 1_545
Mg101 Mg124 3.154332 1_555
Mg101 Mg83 3.168081 1_555
Mg101 Mg75 3.170237 1_555
Mg101 Mg74 3.174990 1_555
Mg101 Mg121 3.175522 1_555
Mg101 Mg114 3.176350 1_555
Mg101 Mg107 3.177078 1_555
Mg101 Mg123 3.190575 1_555
Mg101 Mg131 3.191515 1_555
Mg101 Mg102 3.192307 1_455
Mg101 Mg133 3.195690 1_555
Mg102 Mg124 3.154333 1_655
Mg102 Mg82 3.168081 1_655
Mg102 Mg76 3.170229 1_555
Mg102 Mg74 3.174991 1_655
Mg102 Mg120 3.175506 1_555
Mg102 Mg114 3.176357 1_655
Mg102 Mg108 3.177071 1_655
Mg102 Mg99 3.188420 1_555
Mg102 Mg123 3.190576 1_655
Mg102 Mg130 3.191515 1_555
Mg102 Mg134 3.195690 1_655
Mg103 Mg125 3.154333 1_555
Mg103 Mg92 3.168081 1_555
Mg103 Mg89 3.170237 1_555
Mg103 Mg97 3.174991 1_555
Mg103 Mg122 3.175507 1_555
Mg103 Mg116 3.176365 1_555
Mg103 Mg110 3.177070 1_555
Mg103 Mg104 3.188420 1_555
Mg103 Mg123 3.190575 1_665
Mg103 Mg132 3.191515 1_555
Mg103 Mg99 3.192308 1_565
Mg103 Mg135 3.195690 1_555
Mg104 Mg126 3.154333 1_655
Mg104 Mg93 3.168081 1_655
Mg104 Mg89 3.170229 1_555
Mg104 Mg98 3.174991 1_655
Mg104 Mg122 3.175506 1_555
Mg104 Mg115 3.176365 1_655
Mg104 Mg109 3.177071 1_655
Mg104 Mg123 3.190576 1_665
Mg104 Mg132 3.191515 1_555
Mg104 Mg136 3.195690 1_655
Mg105 Mg106 3.173100 1_555
Mg105 Mg96 3.179992 1_545
Mg105 Mg113 3.181966 1_545
Mg105 Mg77 3.182439 1_555
Mg105 Mg129 3.182508 1_545
Mg105 Mg117 3.183081 1_555
Mg105 Mg121 3.183591 1_555
Mg105 Mg115 3.183848 1_545
Mg105 Mg94 3.184800 1_545
Mg105 Mg138 3.188840 1_545
Mg105 Mg142 3.191415 1_555
Mg106 Mg99 3.177078 1_555
Mg106 Mg96 3.179992 1_545
Mg106 Mg113 3.181957 1_545
Mg106 Mg78 3.182439 1_555
Mg106 Mg129 3.182507 1_545
Mg106 Mg117 3.183082 1_555
Mg106 Mg120 3.183598 1_555
Mg106 Mg116 3.183849 1_545
Mg106 Mg95 3.184800 1_545
Mg106 Mg137 3.188840 1_545
Mg106 Mg143 3.191415 1_555
Mg107 Mg110 3.173108 1_555
Mg107 Mg87 3.179992 1_555
Mg107 Mg112 3.181950 1_555
Mg107 Mg79 3.182439 1_555
Mg107 Mg127 3.182508 1_555
Mg107 Mg119 3.183080 1_555
Mg107 Mg121 3.183607 1_555
Mg107 Mg114 3.183840 1_555
Mg107 Mg83 3.184800 1_555
Mg107 Mg133 3.188840 1_555
Mg107 Mg144 3.191415 1_555
Mg108 Mg109 3.173118 1_555
Mg108 Mg86 3.179992 1_555
Mg108 Mg111 3.181949 1_555
Mg108 Mg80 3.182447 1_455
Mg108 Mg128 3.182508 1_555
Mg108 Mg118 3.183097 1_455
Mg108 Mg120 3.183606 1_455
Mg108 Mg114 3.183840 1_555
Mg108 Mg82 3.184792 1_555
Mg108 Mg134 3.188832 1_555
Mg108 Mg145 3.191415 1_455
Mg109 Mg86 3.179992 1_555
Mg109 Mg111 3.181957 1_555
Mg109 Mg85 3.182447 1_455
Mg109 Mg128 3.182508 1_555
Mg109 Mg118 3.183096 1_455
Mg109 Mg122 3.183606 1_455
Mg109 Mg115 3.183832 1_555
Mg109 Mg93 3.184792 1_555
Mg109 Mg136 3.188832 1_555
Mg109 Mg147 3.191415 1_455
Mg110 Mg87 3.179992 1_555
Mg110 Mg112 3.181941 1_555
Mg110 Mg84 3.182447 1_555
Mg110 Mg127 3.182507 1_555
Mg110 Mg119 3.183098 1_555
Mg110 Mg122 3.183606 1_555
Mg110 Mg116 3.183833 1_555
Mg110 Mg92 3.184792 1_555
Mg110 Mg135 3.188832 1_555
Mg110 Mg146 3.191423 1_555
Mg111 Mg112 3.176857 1_555
Mg111 Mg113 3.176857 1_555
Mg111 Mg128 3.177315 1_555
Mg111 Mg115 3.183510 1_555
Mg111 Mg114 3.183510 1_555
Mg111 Mg139 3.184426 1_555
Mg111 Mg141 3.184434 1_555
Mg111 Mg88 3.185694 1_555
Mg111 Mg91 3.185702 1_555
Mg111 Mg86 3.187882 1_555
Mg112 Mg113 3.176859 1_555
Mg112 Mg127 3.177307 1_555
Mg112 Mg116 3.183501 1_555
Mg112 Mg114 3.183509 1_555
Mg112 Mg139 3.184434 1_555
Mg112 Mg140 3.184434 1_555
Mg112 Mg88 3.185701 1_555
Mg112 Mg90 3.185702 1_555
Mg112 Mg87 3.187874 1_555
Mg113 Mg129 3.177315 1_555
Mg113 Mg116 3.183493 1_555
Mg113 Mg115 3.183509 1_555
Mg113 Mg140 3.184426 1_555
Mg113 Mg141 3.184434 1_555
Mg113 Mg90 3.185694 1_555
Mg113 Mg91 3.185701 1_555
Mg113 Mg96 3.187882 1_555
Mg114 Mg133 3.178149 1_555
Mg114 Mg134 3.178156 1_555
Mg114 Mg139 3.181078 1_555
Mg114 Mg83 3.185899 1_555
Mg114 Mg82 3.185906 1_555
Mg114 Mg88 3.191479 1_555
Mg115 Mg136 3.178156 1_555
Mg115 Mg138 3.178157 1_555
Mg115 Mg141 3.181070 1_555
Mg115 Mg93 3.185906 1_555
Mg115 Mg94 3.185907 1_555
Mg115 Mg91 3.191471 1_555
Mg116 Mg99 3.176365 1_565
Mg116 Mg135 3.178157 1_555
Mg116 Mg137 3.178157 1_555
Mg116 Mg140 3.181070 1_555
Mg116 Mg92 3.185906 1_555
Mg116 Mg95 3.185907 1_555
Mg116 Mg90 3.191471 1_555
Mg117 Mg118 3.174127 1_555
Mg117 Mg119 3.174128 1_555
Mg117 Mg121 3.182403 1_555
Mg117 Mg120 3.182420 1_555
Mg117 Mg148 3.183632 1_555
Mg117 Mg81 3.187068 1_555
Mg117 Mg142 3.187069 1_555
Mg117 Mg143 3.187070 1_555
Mg117 Mg77 3.190865 1_555
Mg117 Mg78 3.190866 1_555
Mg118 Mg119 3.174127 1_555
Mg118 Mg122 3.182421 1_555
Mg118 Mg120 3.182421 1_555
Mg118 Mg148 3.183632 1_555
Mg118 Mg81 3.187068 1_555
Mg118 Mg147 3.187070 1_555
Mg118 Mg145 3.187078 1_555
Mg118 Mg80 3.190858 1_555
Mg118 Mg85 3.190865 1_555
Mg119 Mg121 3.182412 1_555
Mg119 Mg122 3.182419 1_555
Mg119 Mg148 3.183640 1_555
Mg119 Mg144 3.187069 1_555
Mg119 Mg146 3.187070 1_555
Mg119 Mg81 3.187076 1_555
Mg119 Mg79 3.190865 1_555
Mg119 Mg84 3.190865 1_555
Mg120 Mg99 3.175507 1_555
Mg120 Mg130 3.178482 1_555
Mg120 Mg143 3.180302 1_555
Mg120 Mg145 3.180303 1_555
Mg120 Mg76 3.186974 1_555
Mg120 Mg78 3.190695 1_555
Mg120 Mg80 3.190703 1_555
Mg121 Mg131 3.178490 1_555
Mg121 Mg142 3.180295 1_555
Mg121 Mg144 3.180303 1_555
Mg121 Mg75 3.186981 1_555
Mg121 Mg77 3.190687 1_555
Mg121 Mg79 3.190695 1_555
Mg122 Mg132 3.178482 1_555
Mg122 Mg146 3.180302 1_555
Mg122 Mg147 3.180311 1_555
Mg122 Mg89 3.186974 1_555
Mg122 Mg84 3.190695 1_555
Mg122 Mg85 3.190695 1_555
Mg123 Mg125 3.140131 1_445
Mg123 Mg124 3.140132 1_555
Mg123 Mg126 3.140132 1_545
Mg123 Mg99 3.190575 1_455
Mg123 Mg97 3.196867 1_445
Mg123 Mg98 3.196868 1_545
Mg123 Mg74 3.196868 1_555
Mg124 Mg133 3.162171 1_555
Mg124 Mg134 3.162172 1_555
Mg124 Mg131 3.173210 1_555
Mg124 Mg130 3.173211 1_455
Mg125 Mg99 3.154333 1_565
Mg125 Mg135 3.162171 1_555
Mg125 Mg137 3.162171 1_555
Mg125 Mg132 3.173212 1_555
Mg125 Mg130 3.173212 1_565
Mg126 Mg138 3.162171 1_555
Mg126 Mg136 3.162172 1_555
Mg126 Mg132 3.173210 1_455
Mg126 Mg131 3.173210 1_565
Mg127 Mg139 3.177253 1_555
Mg127 Mg140 3.177254 1_555
Mg127 Mg135 3.181444 1_555
Mg127 Mg133 3.181444 1_555
Mg127 Mg146 3.188348 1_555
Mg127 Mg144 3.188350 1_555
Mg127 Mg16 3.191841 1_556
Mg128 Mg13 3.174944 1_556
Mg128 Mg139 3.177253 1_555
Mg128 Mg141 3.177253 1_555
Mg128 Mg134 3.181445 1_555
Mg128 Mg136 3.181445 1_555
Mg128 Mg147 3.188332 1_455
Mg128 Mg145 3.188340 1_455
Mg128 Mg15 3.191840 1_556
Mg129 Mg22 3.174943 1_556
Mg129 Mg23 3.174951 1_556
Mg129 Mg141 3.177253 1_555
Mg129 Mg140 3.177254 1_555
Mg129 Mg137 3.181444 1_555
Mg129 Mg138 3.181444 1_555
Mg129 Mg143 3.188348 1_565
Mg129 Mg142 3.188350 1_565
Mg129 Mg19 3.191841 1_556
Mg130 Mg6 3.177560 1_556
Mg130 Mg137 3.181417 1_545
Mg130 Mg134 3.181417 1_655
Mg130 Mg145 3.186131 1_555
Mg130 Mg143 3.186137 1_555
Mg130 Mg99 3.191515 1_555
Mg130 Mg3 3.200301 1_556
Mg131 Mg5 3.177560 1_556
Mg131 Mg133 3.181419 1_555
Mg131 Mg138 3.181419 1_545
Mg131 Mg144 3.186137 1_555
Mg131 Mg142 3.186138 1_555
Mg131 Mg2 3.200301 1_556
Mg132 Mg18 3.177560 1_556
Mg132 Mg17 3.177560 1_556
Mg132 Mg135 3.181417 1_555
Mg132 Mg136 3.181417 1_655
Mg132 Mg146 3.186137 1_555
Mg132 Mg147 3.186147 1_555
Mg132 Mg14 3.200301 1_556
Mg133 Mg5 3.156675 1_556
Mg133 Mg144 3.179349 1_555
Mg133 Mg139 3.180061 1_555
Mg133 Mg134 3.182242 1_555
Mg133 Mg9 3.183264 1_556
Mg134 Mg6 3.156675 1_456
Mg134 Mg145 3.179333 1_455
Mg134 Mg139 3.180059 1_555
Mg134 Mg9 3.183272 1_556
Mg135 Mg17 3.156674 1_556
Mg135 Mg146 3.179351 1_555
Mg135 Mg140 3.180059 1_555
Mg135 Mg137 3.182243 1_555
Mg135 Mg20 3.183264 1_556
Mg136 Mg18 3.156675 1_456
Mg136 Mg147 3.179341 1_455
Mg136 Mg141 3.180059 1_555
Mg136 Mg138 3.182242 1_555
Mg136 Mg21 3.183272 1_556
Mg137 Mg143 3.179351 1_565
Mg137 Mg140 3.180059 1_555
Mg137 Mg20 3.183272 1_556
Mg137 Mg22 3.192543 1_556
Mg137 Mg99 3.195690 1_565
Mg138 Mg142 3.179349 1_565
Mg138 Mg141 3.180061 1_555
Mg138 Mg21 3.183272 1_556
Mg138 Mg23 3.192534 1_556
Mg139 Mg16 3.177385 1_556
Mg139 Mg15 3.177385 1_556
Mg139 Mg9 3.179584 1_556
Mg139 Mg140 3.184998 1_555
Mg139 Mg141 3.184999 1_555
Mg140 Mg16 3.177393 1_556
Mg140 Mg19 3.177393 1_556
Mg140 Mg20 3.179584 1_556
Mg140 Mg141 3.184998 1_555
Mg141 Mg19 3.177385 1_556
Mg141 Mg15 3.177393 1_556
Mg141 Mg21 3.179576 1_556
Mg142 Mg2 3.173075 1_556
Mg142 Mg144 3.176758 1_555
Mg142 Mg23 3.182701 1_546
Mg142 Mg148 3.183492 1_555
Mg142 Mg4 3.184355 1_556
Mg142 Mg143 3.190220 1_555
Mg143 Mg3 3.173074 1_556
Mg143 Mg145 3.176765 1_555
Mg143 Mg22 3.182701 1_546
Mg143 Mg148 3.183486 1_555
Mg143 Mg4 3.184364 1_556
Mg144 Mg2 3.173075 1_556
Mg144 Mg148 3.183500 1_555
Mg144 Mg7 3.184355 1_556
Mg144 Mg146 3.190220 1_555
Mg145 Mg3 3.173075 1_556
Mg145 Mg148 3.183500 1_555
Mg145 Mg8 3.184372 1_556
Mg145 Mg147 3.190222 1_555
Mg146 Mg147 3.176773 1_555
Mg146 Mg148 3.183502 1_555
Mg146 Mg7 3.184364 1_556
Mg147 Mg148 3.183500 1_555
Mg147 Mg8 3.184356 1_556
Mg148 Mg8 3.168927 1_556
Mg148 Mg4 3.168927 1_556
Mg148 Mg7 3.168935 1_556
Br0 Mg125 3.239952 1_444
Br0 Mg47 3.239952 1_445
Br0 Mg46 3.239952 1_555
Br0 Mg124 3.239952 1_554
Br0 Mg126 3.239953 1_544
Br0 Mg48 3.239953 1_545
Br0 Mg5 3.243548 1_555
Br0 Mg0 3.243548 1_555
Br0 Mg17 3.243548 1_445
Br0 Mg1 3.243548 1_455
Br0 Mg18 3.243549 1_445
Br0 Mg6 3.243549 1_455
