# generated using pymatgen
data_V(Cr7S10)2
_symmetry_space_group_name_H-M   'P 1'
_cell_length_a   6.55060089
_cell_length_b   6.55060089
_cell_length_c   27.05386466
_cell_angle_alpha   87.28885945
_cell_angle_beta   87.28885945
_cell_angle_gamma   30.66772495
_symmetry_Int_Tables_number   1
_chemical_formula_structural   V(Cr7S10)2
_chemical_formula_sum   'V1 Cr14 S20'
_cell_volume   591.40987123
_cell_formula_units_Z   1
loop_
 _symmetry_equiv_pos_site_id
 _symmetry_equiv_pos_as_xyz
  1  'x, y, z'
loop_
 _atom_site_type_symbol
 _atom_site_label
 _atom_site_symmetry_multiplicity
 _atom_site_fract_x
 _atom_site_fract_y
 _atom_site_fract_z
 _atom_site_occupancy
  V  V0  1  0.00000000  0.00000000  0.00000000  1
  Cr  Cr0  1  0.59057000  0.59057000  0.85621300  1
  Cr  Cr1  1  0.39192100  0.39192100  0.65606500  1
  Cr  Cr2  1  0.19205500  0.19205500  0.45614000  1
  Cr  Cr3  1  0.99209900  0.99210000  0.25627600  1
  Cr  Cr4  1  0.79836000  0.79836000  0.05449900  1
  Cr  Cr5  1  0.20164000  0.20164000  0.94550100  1
  Cr  Cr6  1  0.00790100  0.00790100  0.74372400  1
  Cr  Cr7  1  0.80794500  0.80794500  0.54386000  1
  Cr  Cr8  1  0.60807900  0.60807900  0.34393500  1
  Cr  Cr9  1  0.40943000  0.40943000  0.14378700  1
  Cr  Cr10  1  0.79962700  0.79962700  0.80068900  1
  Cr  Cr11  1  0.59987800  0.59987800  0.59994100  1
  Cr  Cr12  1  0.40012200  0.40012200  0.40005900  1
  Cr  Cr13  1  0.20037300  0.20037300  0.19931100  1
  S  S0  1  0.03315800  0.03315800  0.91088500  1
  S  S1  1  0.83503400  0.83503400  0.71065100  1
  S  S2  1  0.63512100  0.63512100  0.51061600  1
  S  S3  1  0.43499500  0.43499500  0.31074000  1
  S  S4  1  0.23790900  0.23790900  0.10941900  1
  S  S5  1  0.76209100  0.76209100  0.89058100  1
  S  S6  1  0.56500500  0.56500500  0.68926000  1
  S  S7  1  0.36487900  0.36487900  0.48938400  1
  S  S8  1  0.16496600  0.16496600  0.28934900  1
  S  S9  1  0.96684200  0.96684200  0.08911500  1
  S  S10  1  0.43750700  0.43750700  0.80406200  1
  S  S11  1  0.23783400  0.23783400  0.60422800  1
  S  S12  1  0.03804400  0.03804400  0.40431200  1
  S  S13  1  0.83867900  0.83867900  0.20387500  1
  S  S14  1  0.63787900  0.63787900  0.00567800  1
  S  S15  1  0.36212100  0.36212100  0.99432200  1
  S  S16  1  0.16132100  0.16132100  0.79612500  1
  S  S17  1  0.96195600  0.96195600  0.59568800  1
  S  S18  1  0.76216600  0.76216600  0.39577200  1
  S  S19  1  0.56249300  0.56249300  0.19593800  1
loop_
_geom_bond_atom_site_label_1
_geom_bond_atom_site_label_2
_geom_bond_distance
_geom_bond_site_symmetry_2
Cr0 S0 2.368412 1_565
Cr0 S0 2.368412 1_655
Cr0 S5 2.399717 1_555
Cr0 S10 2.449145 1_555
Cr0 S16 2.509960 1_655
Cr0 S16 2.509960 1_565
Cr1 S1 2.365174 1_455
Cr1 S1 2.365174 1_545
Cr1 S6 2.404498 1_555
Cr1 S11 2.454545 1_555
Cr1 S17 2.511982 1_455
Cr1 S17 2.511982 1_545
Cr2 S2 2.363524 1_455
Cr2 S2 2.363524 1_545
Cr2 S7 2.402006 1_555
Cr2 S12 2.453607 1_555
Cr2 S18 2.512136 1_545
Cr2 S18 2.512136 1_455
Cr3 S3 2.363916 1_565
Cr3 S3 2.363918 1_655
Cr3 S8 2.400569 1_665
Cr3 S13 2.456999 1_555
Cr3 S19 2.512768 1_565
Cr3 S19 2.512771 1_655
Cr4 S9 2.367300 1_555
Cr4 S4 2.383354 1_565
Cr4 S4 2.383354 1_655
Cr4 S14 2.473573 1_555
Cr4 S15 2.484256 1_654
Cr4 S15 2.484256 1_564
Cr5 S0 2.367300 1_555
Cr5 S5 2.383354 1_455
Cr5 S5 2.383354 1_545
Cr5 S15 2.473573 1_555
Cr5 S14 2.484256 1_546
Cr5 S14 2.484256 1_456
Cr6 S6 2.363915 1_545
Cr6 S6 2.363915 1_455
Cr6 S1 2.400575 1_445
Cr6 S16 2.456993 1_555
Cr6 S10 2.512772 1_545
Cr6 S10 2.512772 1_455
Cr7 S7 2.363524 1_565
Cr7 S7 2.363524 1_655
Cr7 S2 2.402006 1_555
Cr7 S17 2.453607 1_555
Cr7 S11 2.512136 1_565
Cr7 S11 2.512136 1_655
Cr8 S8 2.365174 1_655
Cr8 S8 2.365174 1_565
Cr8 S3 2.404498 1_555
Cr8 S18 2.454545 1_555
Cr8 S12 2.511982 1_565
Cr8 S12 2.511982 1_655
Cr9 S9 2.368412 1_545
Cr9 S9 2.368412 1_455
Cr9 S4 2.399717 1_555
Cr9 S19 2.449145 1_555
Cr9 S13 2.509960 1_455
Cr9 S13 2.509960 1_545
Cr10 S5 2.454801 1_555
Cr10 S1 2.454940 1_555
Cr10 S10 2.461609 1_565
Cr10 S10 2.461609 1_655
Cr10 S16 2.467953 1_565
Cr10 S16 2.467953 1_655
Cr11 S6 2.434914 1_555
Cr11 S2 2.435696 1_555
Cr11 S17 2.463809 1_455
Cr11 S17 2.463809 1_545
Cr11 S11 2.464189 1_565
Cr11 S11 2.464189 1_655
Cr12 S3 2.434914 1_555
Cr12 S7 2.435696 1_555
Cr12 S12 2.463809 1_655
Cr12 S12 2.463809 1_565
Cr12 S18 2.464189 1_545
Cr12 S18 2.464189 1_455
Cr13 S4 2.454801 1_555
Cr13 S8 2.454940 1_555
Cr13 S19 2.461609 1_545
Cr13 S19 2.461609 1_455
Cr13 S13 2.467953 1_455
Cr13 S13 2.467953 1_545
S0 V0 2.426706 1_556
S9 V0 2.426706 1_665
S14 V0 2.466861 1_655
S14 V0 2.466861 1_565
S15 V0 2.466861 1_566
S15 V0 2.466861 1_656
