# generated using pymatgen
data_TlBiPbS3
_symmetry_space_group_name_H-M   'P 1'
_cell_length_a   7.58872298
_cell_length_b   7.58872298
_cell_length_c   7.58872298
_cell_angle_alpha   148.22878850
_cell_angle_beta   133.70362926
_cell_angle_gamma   57.24243169
_symmetry_Int_Tables_number   1
_chemical_formula_structural   TlBiPbS3
_chemical_formula_sum   'Tl1 Bi1 Pb1 S3'
_cell_volume   165.11322969
_cell_formula_units_Z   1
loop_
 _symmetry_equiv_pos_site_id
 _symmetry_equiv_pos_as_xyz
  1  'x, y, z'
loop_
 _atom_site_type_symbol
 _atom_site_label
 _atom_site_symmetry_multiplicity
 _atom_site_fract_x
 _atom_site_fract_y
 _atom_site_fract_z
 _atom_site_occupancy
  Tl  Tl0  1  0.00492600  0.00492600  0.00000000  1
  Bi  Bi0  1  0.33752700  0.33752700  0.00000000  1
  Pb  Pb0  1  0.66900700  0.66900700  0.00000000  1
  S  S0  1  0.48064200  0.98064200  0.50000000  1
  S  S1  1  0.19134800  0.69134800  0.50000000  1
  S  S2  1  0.81655000  0.31655000  0.50000000  1
loop_
_geom_bond_atom_site_label_1
_geom_bond_atom_site_label_2
_geom_bond_distance
_geom_bond_site_symmetry_2
Bi0 S0 2.819597 1_544
Bi0 S0 2.819597 1_555
Bi0 S1 2.847360 1_544
Bi0 S1 2.847360 1_555
Bi0 S2 2.996269 1_454
Bi0 S2 2.996269 1_555
Pb0 S2 2.859820 1_565
Pb0 S2 2.859820 1_554
Pb0 S1 2.998019 1_655
Pb0 S1 2.998019 1_554
S0 Tl0 3.000699 1_666
S0 Tl0 3.000699 1_565
S1 Tl0 3.237785 1_566
S1 Tl0 3.237785 1_555
S2 Tl0 3.257797 1_666
S2 Tl0 3.257797 1_655
