# generated using pymatgen
data_Mn2FeCoP2
_symmetry_space_group_name_H-M   'P 1'
_cell_length_a   3.50383000
_cell_length_b   5.80346400
_cell_length_c   6.66619000
_cell_angle_alpha   90.00000000
_cell_angle_beta   90.00000000
_cell_angle_gamma   90.00000000
_symmetry_Int_Tables_number   1
_chemical_formula_structural   Mn2FeCoP2
_chemical_formula_sum   'Mn4 Fe2 Co2 P4'
_cell_volume   135.55264907
_cell_formula_units_Z   2
loop_
 _symmetry_equiv_pos_site_id
 _symmetry_equiv_pos_as_xyz
  1  'x, y, z'
loop_
 _atom_site_type_symbol
 _atom_site_label
 _atom_site_symmetry_multiplicity
 _atom_site_fract_x
 _atom_site_fract_y
 _atom_site_fract_z
 _atom_site_occupancy
  Mn  Mn0  1  0.50000000  0.52792600  0.57917800  1
  Mn  Mn1  1  0.50000000  0.02792600  0.42082200  1
  Mn  Mn2  1  0.00000000  0.47102100  0.92048300  1
  Mn  Mn3  1  0.00000000  0.97102100  0.07951700  1
  Fe  Fe0  1  0.00000000  0.35466400  0.31201700  1
  Fe  Fe1  1  0.00000000  0.85466400  0.68798300  1
  Co  Co0  1  0.50000000  0.64759400  0.18377600  1
  Co  Co1  1  0.50000000  0.14759400  0.81622400  1
  P  P0  1  0.50000000  0.26734100  0.12726100  1
  P  P1  1  0.50000000  0.76734100  0.87273900  1
  P  P2  1  0.00000000  0.73145400  0.37653700  1
  P  P3  1  0.00000000  0.23145400  0.62346300  1
loop_
_geom_bond_atom_site_label_1
_geom_bond_atom_site_label_2
_geom_bond_distance
_geom_bond_site_symmetry_2
Mn0 P1 2.400025 1_555
Mn0 P3 2.473196 1_555
Mn0 P3 2.473196 1_655
Mn0 P2 2.507816 1_655
Mn0 P2 2.507816 1_555
Mn1 P0 2.400025 1_555
Mn1 P2 2.473196 1_645
Mn1 P2 2.473196 1_545
Mn1 P3 2.507816 1_555
Mn1 P3 2.507816 1_655
Mn2 P3 2.419370 1_555
Mn2 P1 2.475441 1_555
Mn2 P1 2.475441 1_455
Mn2 P0 2.523191 1_556
Mn2 P0 2.523191 1_456
Mn3 P2 2.419370 1_555
Mn3 P0 2.475441 1_565
Mn3 P0 2.475441 1_465
Mn3 P1 2.523191 1_554
Mn3 P1 2.523191 1_454
Fe0 P3 2.195842 1_555
Fe0 P0 2.200662 1_555
Fe0 P0 2.200662 1_455
Fe0 P2 2.228585 1_555
Fe0 Mn2 2.695979 1_554
Fe0 Mn3 2.712798 1_545
Fe1 P2 2.195842 1_555
Fe1 P1 2.200662 1_555
Fe1 P1 2.200662 1_455
Fe1 P3 2.228585 1_565
Fe1 Mn3 2.695979 1_556
Fe1 Mn2 2.712798 1_555
Co0 P1 2.186795 1_554
Co0 P2 2.226486 1_655
Co0 P2 2.226486 1_555
Co0 P0 2.238712 1_555
Co0 Mn3 2.659955 1_555
Co0 Mn3 2.659955 1_655
Co0 Mn2 2.683259 1_654
Co0 Mn2 2.683259 1_554
Co1 P0 2.186795 1_556
Co1 P3 2.226486 1_555
Co1 P3 2.226486 1_655
Co1 P1 2.238712 1_545
Co1 Mn2 2.659955 1_655
Co1 Mn2 2.659955 1_555
Co1 Mn3 2.683259 1_546
Co1 Mn3 2.683259 1_646
