# generated using pymatgen
data_NaYAu2
_symmetry_space_group_name_H-M   'P 1'
_cell_length_a   11.86938292
_cell_length_b   11.86938292
_cell_length_c   11.86938292
_cell_angle_alpha   123.24430106
_cell_angle_beta   118.93683028
_cell_angle_gamma   88.16306420
_symmetry_Int_Tables_number   1
_chemical_formula_structural   NaYAu2
_chemical_formula_sum   'Na1 Y1 Au2'
_cell_volume   1160.13678537
_cell_formula_units_Z   1
loop_
 _symmetry_equiv_pos_site_id
 _symmetry_equiv_pos_as_xyz
  1  'x, y, z'
loop_
 _atom_site_type_symbol
 _atom_site_label
 _atom_site_symmetry_multiplicity
 _atom_site_fract_x
 _atom_site_fract_y
 _atom_site_fract_z
 _atom_site_occupancy
  Na  Na0  1  0.00000000  0.00000000  0.00000000  1
  Y  Y0  1  0.00000000  0.50000000  0.50000000  1
  Au  Au0  1  0.00000000  0.25645700  0.25645700  1
  Au  Au1  1  0.00000000  0.74354300  0.74354300  1
loop_
_geom_bond_atom_site_label_1
_geom_bond_atom_site_label_2
_geom_bond_distance
_geom_bond_site_symmetry_2
Au0 Y0 2.747812 1_555
Au0 Na0 2.893517 1_555
Au1 Y0 2.747812 1_555
Au1 Na0 2.893517 1_566
