# generated using pymatgen
data_SrCo2(AsO4)2
_symmetry_space_group_name_H-M   'P 1'
_cell_length_a   5.74589571
_cell_length_b   7.21185258
_cell_length_c   9.57477719
_cell_angle_alpha   111.64982980
_cell_angle_beta   101.36074275
_cell_angle_gamma   98.80361424
_symmetry_Int_Tables_number   1
_chemical_formula_structural   SrCo2(AsO4)2
_chemical_formula_sum   'Sr2 Co4 As4 O16'
_cell_volume   350.28205899
_cell_formula_units_Z   2
loop_
 _symmetry_equiv_pos_site_id
 _symmetry_equiv_pos_as_xyz
  1  'x, y, z'
loop_
 _atom_site_type_symbol
 _atom_site_label
 _atom_site_symmetry_multiplicity
 _atom_site_fract_x
 _atom_site_fract_y
 _atom_site_fract_z
 _atom_site_occupancy
  Sr  Sr0  1  0.25457000  0.20328100  0.45099700  1
  Sr  Sr1  1  0.75274100  0.79754200  0.55135900  1
  Co  Co0  1  0.52029500  0.61865800  0.84745100  1
  Co  Co1  1  0.47867000  0.38708100  0.16074800  1
  Co  Co2  1  0.85578500  0.14011900  0.94251200  1
  Co  Co3  1  0.13919700  0.85920600  0.05603300  1
  As  As0  1  0.34306300  0.02235300  0.80114100  1
  As  As1  1  0.65675100  0.97979000  0.20132000  1
  As  As2  1  0.89550700  0.42059900  0.74064900  1
  As  As3  1  0.10404000  0.57762000  0.25509800  1
  O  O0  1  0.87018800  0.59932700  0.91649100  1
  O  O1  1  0.12575300  0.39678500  0.07932900  1
  O  O2  1  0.52619000  0.26066300  0.93974900  1
  O  O3  1  0.47521300  0.73817300  0.06623400  1
  O  O4  1  0.10002800  0.93975400  0.86501700  1
  O  O5  1  0.89598100  0.05846300  0.13315500  1
  O  O6  1  0.55938200  0.87376400  0.80128800  1
  O  O7  1  0.43678600  0.12451800  0.19831800  1
  O  O8  1  0.82820200  0.17867100  0.73560500  1
  O  O9  1  0.16142900  0.82025100  0.26103600  1
  O  O10  1  0.17674100  0.47134200  0.70470700  1
  O  O11  1  0.83003500  0.52497700  0.29799300  1
  O  O12  1  0.22959200  0.99077600  0.61449200  1
  O  O13  1  0.77156900  0.01455500  0.38842700  1
  O  O14  1  0.66553200  0.45738000  0.61508900  1
  O  O15  1  0.34676000  0.54435200  0.37576300  1
loop_
_geom_bond_atom_site_label_1
_geom_bond_atom_site_label_2
_geom_bond_distance
_geom_bond_site_symmetry_2
Co0 O10 2.029086 1_555
Co0 O0 2.031877 1_555
Co0 O6 2.035503 1_555
Co0 O3 2.036678 1_556
Co0 O14 2.473507 1_555
Co1 O11 2.041508 1_555
Co1 O7 2.042090 1_555
Co1 O1 2.045872 1_555
Co1 O2 2.064856 1_554
Co1 O15 2.292204 1_555
Co2 O1 2.019893 1_656
Co2 O8 2.079264 1_555
Co2 O5 2.097806 1_556
Co2 O6 2.143276 1_545
Co2 O2 2.200953 1_555
Co2 O4 2.201809 1_645
Co3 O0 2.034428 1_454
Co3 O9 2.065707 1_555
Co3 O4 2.096398 1_554
Co3 O7 2.144352 1_565
Co3 O5 2.191246 1_465
Co3 O3 2.236865 1_555
As0 O12 1.692916 1_545
As0 O4 1.740591 1_545
As0 O2 1.742285 1_555
As0 O6 1.761072 1_545
As1 O13 1.691127 1_565
As1 O5 1.739353 1_565
As1 O3 1.745401 1_555
As1 O7 1.760487 1_565
As2 O8 1.708792 1_555
As2 O14 1.725841 1_555
As2 O10 1.730497 1_655
As2 O0 1.752103 1_555
As3 O9 1.707754 1_555
As3 O11 1.725807 1_455
As3 O15 1.734808 1_555
As3 O1 1.749783 1_555
O4 Sr1 2.965278 1_455
O5 Sr0 3.020477 1_655
O6 Sr1 2.743506 1_555
O7 Sr0 2.727280 1_555
O8 Sr1 2.571215 1_545
O9 Sr0 2.584944 1_565
O10 Sr0 2.658167 1_555
O11 Sr1 2.668220 1_555
O12 Sr0 2.571243 1_565
O12 Sr1 2.715114 1_455
O13 Sr1 2.590572 1_545
O13 Sr0 2.738728 1_655
O14 Sr0 2.547934 1_555
O14 Sr1 2.736850 1_555
O15 Sr1 2.547215 1_555
O15 Sr0 2.812258 1_555
