# generated using pymatgen
data_Mg14ZrB
_symmetry_space_group_name_H-M   'P 1'
_cell_length_a   6.29679528
_cell_length_b   6.29679478
_cell_length_c   9.99349936
_cell_angle_alpha   90.00000000
_cell_angle_beta   90.00000000
_cell_angle_gamma   120.00000262
_symmetry_Int_Tables_number   1
_chemical_formula_structural   Mg14ZrB
_chemical_formula_sum   'Mg14 Zr1 B1'
_cell_volume   343.15262275
_cell_formula_units_Z   1
loop_
 _symmetry_equiv_pos_site_id
 _symmetry_equiv_pos_as_xyz
  1  'x, y, z'
loop_
 _atom_site_type_symbol
 _atom_site_label
 _atom_site_symmetry_multiplicity
 _atom_site_fract_x
 _atom_site_fract_y
 _atom_site_fract_z
 _atom_site_occupancy
  Mg  Mg0  1  0.17700389  0.83850144  0.12500000  1
  Mg  Mg1  1  0.16164130  0.83082015  0.62500000  1
  Mg  Mg2  1  0.66149856  0.32299611  0.12500000  1
  Mg  Mg3  1  0.66917985  0.33835870  0.62500000  1
  Mg  Mg4  1  0.66149856  0.83850144  0.12500000  1
  Mg  Mg5  1  0.66917985  0.83082015  0.62500000  1
  Mg  Mg6  1  0.32361375  0.17638625  0.38607883  1
  Mg  Mg7  1  0.32361375  0.17638625  0.86392117  1
  Mg  Mg8  1  0.32361375  0.64722850  0.38607883  1
  Mg  Mg9  1  0.32361375  0.64722850  0.86392117  1
  Mg  Mg10  1  0.85277150  0.17638625  0.38607883  1
  Mg  Mg11  1  0.85277150  0.17638625  0.86392117  1
  Mg  Mg12  1  0.83333300  0.66666700  0.36573203  1
  Mg  Mg13  1  0.83333300  0.66666700  0.88426797  1
  Zr  Zr0  1  0.16666700  0.33333300  0.12500000  1
  B  B0  1  0.16666700  0.33333300  0.62500000  1
loop_
_geom_bond_atom_site_label_1
_geom_bond_atom_site_label_2
_geom_bond_distance
_geom_bond_site_symmetry_2
Mg0 Mg12 3.049576 1_455
Mg0 Mg13 3.049576 1_454
Mg0 Mg2 3.050764 1_565
Mg0 Mg4 3.050764 1_555
Mg0 Zr0 3.148902 1_555
Mg0 Zr0 3.148902 1_565
Mg0 Mg8 3.197198 1_555
Mg0 Mg9 3.197198 1_554
Mg0 Mg7 3.197204 1_564
Mg0 Mg6 3.197204 1_565
Mg0 Mg2 3.246031 1_455
Mg0 Mg4 3.246032 1_455
Mg1 Mg8 3.042467 1_555
Mg1 Mg9 3.042467 1_555
Mg1 Mg7 3.042473 1_565
Mg1 Mg6 3.042473 1_565
Mg1 Mg3 3.100929 1_455
Mg1 Mg5 3.100929 1_455
Mg1 Mg12 3.149368 1_455
Mg1 Mg13 3.149368 1_455
Mg1 Mg3 3.195866 1_565
Mg1 Mg5 3.195866 1_555
Mg2 Mg4 3.050764 1_545
Mg2 Zr0 3.148902 1_655
Mg2 Zr0 3.148902 1_555
Mg2 Mg7 3.197204 1_554
Mg2 Mg6 3.197204 1_555
Mg2 Mg4 3.246031 1_555
Mg3 Mg6 3.042474 1_555
Mg3 Mg7 3.042474 1_555
Mg3 Mg5 3.100929 1_555
Mg3 Mg5 3.195866 1_545
Mg4 Zr0 3.148902 1_555
Mg4 Zr0 3.148902 1_665
Mg4 Mg8 3.197204 1_555
Mg4 Mg9 3.197204 1_554
Mg5 Mg9 3.042473 1_555
Mg5 Mg8 3.042473 1_555
Mg6 Mg8 2.964797 1_555
Mg6 Zr0 3.120471 1_555
Mg6 Mg8 3.331998 1_545
Mg7 Mg9 2.964797 1_555
Mg7 Zr0 3.120471 1_556
Mg7 Mg9 3.331998 1_545
Mg8 Zr0 3.120477 1_555
Mg9 Zr0 3.120477 1_556
Mg10 Mg8 2.964797 1_655
Mg10 Mg6 2.964797 1_655
Mg10 Mg3 3.042467 1_555
Mg10 Mg5 3.042473 1_545
Mg10 Zr0 3.120477 1_655
Mg10 Mg12 3.156737 1_545
Mg10 Mg12 3.156737 1_555
Mg10 Mg2 3.197198 1_555
Mg10 Mg4 3.197204 1_545
Mg10 Mg8 3.331998 1_545
Mg10 Mg6 3.331998 1_555
Mg11 Mg9 2.964797 1_655
Mg11 Mg7 2.964797 1_655
Mg11 Mg3 3.042467 1_555
Mg11 Mg5 3.042473 1_545
Mg11 Zr0 3.120477 1_656
Mg11 Mg13 3.156737 1_545
Mg11 Mg13 3.156737 1_555
Mg11 Mg2 3.197198 1_556
Mg11 Mg4 3.197204 1_546
Mg11 Mg9 3.331998 1_545
Mg11 Mg7 3.331998 1_555
Mg12 Mg4 3.049569 1_555
Mg12 Mg2 3.049576 1_555
Mg12 Mg5 3.149362 1_555
Mg12 Mg3 3.149368 1_555
Mg12 Mg6 3.156737 1_665
Mg12 Mg6 3.156737 1_555
Mg12 Mg8 3.156737 1_655
Mg12 Mg8 3.156737 1_555
Mg13 Mg4 3.049569 1_556
Mg13 Mg2 3.049576 1_556
Mg13 Mg5 3.149362 1_555
Mg13 Mg3 3.149368 1_555
Mg13 Mg7 3.156737 1_665
Mg13 Mg7 3.156737 1_555
Mg13 Mg9 3.156737 1_555
Mg13 Mg9 3.156737 1_655
B0 Mg6 2.937839 1_555
B0 Mg7 2.937839 1_555
B0 Mg8 2.937845 1_555
B0 Mg9 2.937845 1_555
B0 Mg10 2.937845 1_455
B0 Mg11 2.937845 1_455
