# generated using pymatgen
data_Tm4(Al8Pd3)3
_symmetry_space_group_name_H-M   'P 1'
_cell_length_a   7.47994473
_cell_length_b   7.49512609
_cell_length_c   13.04178475
_cell_angle_alpha   84.57341927
_cell_angle_beta   79.04744756
_cell_angle_gamma   59.92992547
_symmetry_Int_Tables_number   1
_chemical_formula_structural   Tm4(Al8Pd3)3
_chemical_formula_sum   'Tm4 Al24 Pd9'
_cell_volume   621.23241248
_cell_formula_units_Z   1
loop_
 _symmetry_equiv_pos_site_id
 _symmetry_equiv_pos_as_xyz
  1  'x, y, z'
loop_
 _atom_site_type_symbol
 _atom_site_label
 _atom_site_symmetry_multiplicity
 _atom_site_fract_x
 _atom_site_fract_y
 _atom_site_fract_z
 _atom_site_occupancy
  Tm  Tm0  1  0.39385674  0.16832715  0.80830486  1
  Tm  Tm1  1  0.60614017  0.83167130  0.19170063  1
  Tm  Tm2  1  0.73371170  0.49836432  0.80828073  1
  Tm  Tm3  1  0.26628825  0.50162956  0.19172440  1
  Al  Al0  1  0.68406642  0.83363398  0.94449786  1
  Al  Al1  1  0.31593587  0.16636084  0.05550559  1
  Al  Al2  1  0.14605311  0.83301261  0.56185328  1
  Al  Al3  1  0.85394378  0.16698996  0.43814334  1
  Al  Al4  1  0.47952677  0.16667599  0.55986767  1
  Al  Al5  1  0.52047476  0.83332495  0.44013033  1
  Al  Al6  1  0.21781285  0.16533054  0.32816946  1
  Al  Al7  1  0.78219075  0.83466789  0.67182711  1
  Al  Al8  1  0.43637660  0.50682930  0.67203321  1
  Al  Al9  1  0.56363091  0.49316188  0.32796466  1
  Al  Al10  1  0.10907706  0.15964774  0.67070629  1
  Al  Al11  1  0.89090947  0.84035331  0.32929178  1
  Al  Al12  1  0.35277827  0.49941669  0.94452756  1
  Al  Al13  1  0.64722272  0.50058302  0.05547518  1
  Al  Al14  1  0.01518214  0.16761467  0.95432355  1
  Al  Al15  1  0.98482264  0.83240411  0.04567201  1
  Al  Al16  1  0.18694749  0.49977442  0.44021936  1
  Al  Al17  1  0.81304711  0.50022955  0.55977985  1
  Al  Al18  1  0.73313226  0.16392951  0.18344846  1
  Al  Al19  1  0.26686342  0.83606691  0.81655123  1
  Al  Al20  1  0.06157090  0.63020085  0.81513284  1
  Al  Al21  1  0.93842841  0.36979801  0.18486515  1
  Al  Al22  1  0.85480195  0.04213016  0.81636523  1
  Al  Al23  1  0.14520571  0.95786039  0.18363546  1
  Pd  Pd0  1  0.11995672  0.49173805  0.63892505  1
  Pd  Pd1  1  0.88004429  0.50825293  0.36107308  1
  Pd  Pd2  1  0.65649389  0.17169953  0.99988809  1
  Pd  Pd3  1  0.34351280  0.82830701  0.00011492  1
  Pd  Pd4  1  0.53781773  0.16684240  0.36114033  1
  Pd  Pd5  1  0.46218413  0.83315759  0.63885729  1
  Pd  Pd6  1  0.77812686  0.17520208  0.63824112  1
  Pd  Pd7  1  0.22187814  0.82480633  0.36175588  1
  Pd  Pd8  1  -0.00001479  0.50000447  0.00000715  1
loop_
_geom_bond_atom_site_label_1
_geom_bond_atom_site_label_2
_geom_bond_distance
_geom_bond_site_symmetry_2
Al0 Pd3 2.531977 1_556
Al0 Pd8 2.597537 1_656
Al0 Pd2 2.598201 1_565
Al0 Al20 2.739779 1_655
Al0 Al22 2.749652 1_565
Al0 Al15 2.811921 1_556
Al0 Al1 2.860756 1_566
Al0 Al13 2.873419 1_556
Al0 Tm2 3.044185 1_555
Al0 Tm0 3.053740 1_565
Al0 Tm1 3.165354 1_556
Al1 Pd2 2.532052 1_554
Al1 Pd8 2.597651 1_555
Al1 Pd3 2.598103 1_545
Al1 Al21 2.739763 1_455
Al1 Al23 2.749634 1_545
Al1 Al14 2.811889 1_554
Al1 Al12 2.873450 1_554
Al1 Tm3 3.044186 1_555
Al1 Tm1 3.053729 1_545
Al1 Tm0 3.165328 1_554
Al2 Pd7 2.562926 1_555
Al2 Pd5 2.739572 1_555
Al2 Pd6 2.740884 1_465
Al2 Pd0 2.744226 1_555
Al2 Al7 2.819740 1_455
Al2 Al8 2.821098 1_555
Al2 Al5 2.946217 1_555
Al2 Al3 2.955982 1_465
Al3 Pd6 2.562931 1_555
Al3 Pd4 2.739540 1_555
Al3 Pd7 2.740890 1_645
Al3 Pd1 2.744154 1_555
Al3 Al6 2.819770 1_655
Al3 Al9 2.821018 1_555
Al3 Al4 2.946199 1_555
Al4 Pd4 2.545162 1_555
Al4 Pd6 2.657122 1_555
Al4 Pd0 2.662231 1_555
Al4 Pd5 2.667207 1_545
Al4 Al7 2.893616 1_545
Al4 Al8 2.906088 1_555
Al4 Al5 2.926472 1_545
Al4 Tm0 3.181113 1_555
Al5 Pd5 2.545157 1_555
Al5 Pd7 2.657078 1_555
Al5 Pd1 2.662261 1_555
Al5 Pd4 2.667203 1_565
Al5 Al6 2.893612 1_565
Al5 Al9 2.906134 1_555
Al5 Tm1 3.181017 1_555
Al6 Pd4 2.516674 1_555
Al6 Pd7 2.534308 1_545
Al6 Pd1 2.542174 1_455
Al6 Tm1 3.075197 1_545
Al6 Tm3 3.077959 1_555
Al7 Pd5 2.516676 1_555
Al7 Pd6 2.534386 1_565
Al7 Pd0 2.542193 1_655
Al7 Tm0 3.075274 1_565
Al7 Tm2 3.078052 1_555
Al8 Pd6 2.513704 1_555
Al8 Pd5 2.539293 1_555
Al8 Pd0 2.542999 1_555
Al8 Tm0 3.072075 1_555
Al8 Tm2 3.073567 1_555
Al9 Pd7 2.513776 1_555
Al9 Pd4 2.539250 1_555
Al9 Pd1 2.542952 1_555
Al9 Tm1 3.072040 1_555
Al9 Tm3 3.073538 1_555
Al10 Pd0 2.523662 1_555
Al10 Pd6 2.533899 1_455
Al10 Pd5 2.536768 1_545
Al10 Al2 2.813365 1_545
Al10 Al22 2.826901 1_455
Al10 Al19 2.829293 1_545
Al10 Al17 2.892512 1_455
Al10 Al4 2.894873 1_555
Al10 Tm2 3.058063 1_455
Al10 Tm0 3.061953 1_555
Al11 Pd1 2.523683 1_555
Al11 Pd7 2.534056 1_655
Al11 Pd4 2.536704 1_565
Al11 Al3 2.813398 1_565
Al11 Al23 2.826949 1_655
Al11 Al18 2.829251 1_565
Al11 Al16 2.892535 1_655
Al11 Al5 2.894775 1_555
Al11 Tm3 3.058080 1_655
Al11 Tm1 3.061828 1_555
Al12 Pd2 2.532089 1_555
Al12 Pd8 2.598193 1_556
Al12 Pd3 2.598975 1_556
Al12 Al20 2.738154 1_555
Al12 Al19 2.747994 1_555
Al12 Al15 2.811317 1_456
Al12 Al13 2.859562 1_556
Al12 Tm0 3.044852 1_555
Al12 Tm2 3.054917 1_555
Al12 Tm3 3.165294 1_556
Al13 Pd3 2.532093 1_555
Al13 Pd8 2.597993 1_655
Al13 Pd2 2.598903 1_554
Al13 Al21 2.738099 1_555
Al13 Al18 2.747994 1_555
Al13 Al14 2.811301 1_654
Al13 Tm1 3.044855 1_555
Al13 Tm3 3.054954 1_555
Al13 Tm2 3.165263 1_554
Al14 Pd8 2.558457 1_556
Al14 Pd3 2.620461 1_546
Al14 Pd2 2.620624 1_455
Al14 Al15 2.772377 1_446
Al14 Al19 2.796213 1_545
Al14 Al22 2.798540 1_455
Al14 Tm2 3.099397 1_455
Al14 Tm0 3.100480 1_555
Al15 Pd8 2.558577 1_655
Al15 Pd2 2.620379 1_564
Al15 Pd3 2.620591 1_655
Al15 Al18 2.796150 1_565
Al15 Al23 2.798476 1_655
Al15 Tm3 3.099541 1_655
Al15 Tm1 3.100645 1_555
Al16 Pd0 2.545142 1_555
Al16 Pd4 2.659652 1_555
Al16 Pd1 2.661048 1_455
Al16 Pd7 2.667400 1_555
Al16 Al9 2.896689 1_555
Al16 Al6 2.908096 1_555
Al16 Al4 2.922825 1_555
Al16 Al17 2.930449 1_455
Al16 Al2 2.940696 1_555
Al16 Tm3 3.181854 1_555
Al17 Pd1 2.545154 1_555
Al17 Pd5 2.659607 1_555
Al17 Pd0 2.661041 1_655
Al17 Pd6 2.667324 1_555
Al17 Al8 2.896640 1_555
Al17 Al7 2.908070 1_555
Al17 Al5 2.922802 1_555
Al17 Al3 2.940718 1_555
Al17 Tm2 3.181931 1_555
Al18 Pd4 2.489249 1_555
Al18 Pd2 2.554345 1_554
Al18 Al23 2.667855 1_645
Al18 Al21 2.670196 1_555
Al18 Al9 2.843481 1_555
Al18 Tm1 3.065382 1_545
Al18 Tm3 3.108565 1_555
Al19 Pd5 2.489295 1_555
Al19 Pd3 2.554433 1_556
Al19 Al22 2.667775 1_465
Al19 Al20 2.670160 1_555
Al19 Al8 2.843514 1_555
Al19 Tm0 3.065411 1_565
Al19 Tm2 3.108600 1_555
Al20 Pd0 2.482816 1_555
Al20 Pd8 2.561491 1_556
Al20 Al22 2.671968 1_465
Al20 Al8 2.817470 1_555
Al20 Al7 2.818101 1_455
Al20 Tm0 3.085669 1_555
Al20 Tm2 3.086563 1_455
Al21 Pd1 2.482796 1_555
Al21 Pd8 2.561293 1_655
Al21 Al23 2.672021 1_645
Al21 Al9 2.817433 1_555
Al21 Al6 2.818107 1_655
Al21 Tm1 3.085669 1_555
Al21 Tm3 3.086561 1_655
Al22 Pd6 2.493012 1_555
Al22 Pd2 2.553241 1_555
Al22 Al7 2.838309 1_545
Al22 Tm2 3.064148 1_555
Al22 Tm0 3.105506 1_555
Al23 Pd7 2.492936 1_555
Al23 Pd3 2.553192 1_555
Al23 Al6 2.838293 1_565
Al23 Tm3 3.064138 1_555
Al23 Tm1 3.105457 1_555
Pd0 Tm2 3.268004 1_455
Pd0 Tm0 3.268517 1_555
Pd1 Tm3 3.267959 1_655
Pd1 Tm1 3.268479 1_555
Pd2 Tm0 3.468397 1_555
Pd2 Tm3 3.472161 1_556
Pd2 Tm2 3.504886 1_555
Pd2 Tm1 3.506128 1_546
Pd3 Tm1 3.468351 1_555
Pd3 Tm2 3.472160 1_554
Pd3 Tm3 3.504990 1_555
Pd3 Tm0 3.506040 1_564
Pd4 Tm1 3.284748 1_545
Pd4 Tm3 3.294350 1_555
Pd5 Tm0 3.284800 1_565
Pd5 Tm2 3.294433 1_555
Pd6 Tm2 3.290072 1_555
Pd6 Tm0 3.299688 1_555
Pd7 Tm3 3.290092 1_555
Pd7 Tm1 3.299557 1_555
Pd8 Tm2 3.484554 1_454
Pd8 Tm3 3.484572 1_555
Pd8 Tm1 3.485166 1_455
Pd8 Tm0 3.485336 1_554
