# generated using pymatgen
data_Si4Ir3
_symmetry_space_group_name_H-M   'P 1'
_cell_length_a   3.70380703
_cell_length_b   5.81779004
_cell_length_c   18.92930819
_cell_angle_alpha   90.00000000
_cell_angle_beta   90.00000000
_cell_angle_gamma   90.00000000
_symmetry_Int_Tables_number   1
_chemical_formula_structural   Si4Ir3
_chemical_formula_sum   'Si16 Ir12'
_cell_volume   407.88819622
_cell_formula_units_Z   4
loop_
 _symmetry_equiv_pos_site_id
 _symmetry_equiv_pos_as_xyz
  1  'x, y, z'
loop_
 _atom_site_type_symbol
 _atom_site_label
 _atom_site_symmetry_multiplicity
 _atom_site_fract_x
 _atom_site_fract_y
 _atom_site_fract_z
 _atom_site_occupancy
  Si  Si0  1  0.25000000  0.97373575  0.45033173  1
  Si  Si1  1  0.75000000  0.02626425  0.54966827  1
  Si  Si2  1  0.75000000  0.47373575  0.04966827  1
  Si  Si3  1  0.25000000  0.52626425  0.95033173  1
  Si  Si4  1  0.25000000  0.07741000  0.90912518  1
  Si  Si5  1  0.75000000  0.92259000  0.09087482  1
  Si  Si6  1  0.75000000  0.57741000  0.59087482  1
  Si  Si7  1  0.25000000  0.42259000  0.40912518  1
  Si  Si8  1  0.25000000  0.71671576  0.26982659  1
  Si  Si9  1  0.75000000  0.28328424  0.73017341  1
  Si  Si10  1  0.75000000  0.21671576  0.23017341  1
  Si  Si11  1  0.25000000  0.78328424  0.76982659  1
  Si  Si12  1  0.25000000  0.38780907  0.14362770  1
  Si  Si13  1  0.75000000  0.61219093  0.85637230  1
  Si  Si14  1  0.75000000  0.88780907  0.35637230  1
  Si  Si15  1  0.25000000  0.11219093  0.64362770  1
  Ir  Ir0  1  0.25000000  0.39353363  0.82624364  1
  Ir  Ir1  1  0.75000000  0.60646637  0.17375636  1
  Ir  Ir2  1  0.75000000  0.89353363  0.67375636  1
  Ir  Ir3  1  0.25000000  0.10646637  0.32624364  1
  Ir  Ir4  1  0.25000000  0.49948459  0.67620713  1
  Ir  Ir5  1  0.75000000  0.50051541  0.32379287  1
  Ir  Ir6  1  0.75000000  -0.00051541  0.82379287  1
  Ir  Ir7  1  0.25000000  0.00051541  0.17620713  1
  Ir  Ir8  1  0.25000000  0.30355911  0.53133448  1
  Ir  Ir9  1  0.75000000  0.69644089  0.46866552  1
  Ir  Ir10  1  0.75000000  0.80355911  0.96866552  1
  Ir  Ir11  1  0.25000000  0.19644089  0.03133448  1
loop_
_geom_bond_atom_site_label_1
_geom_bond_atom_site_label_2
_geom_bond_distance
_geom_bond_site_symmetry_2
Ir0 Si13 2.317984 1_455
Ir0 Si13 2.317984 1_555
Ir0 Si4 2.417407 1_555
Ir0 Si3 2.472576 1_555
Ir0 Si11 2.506389 1_555
Ir0 Si9 2.673584 1_555
Ir0 Si9 2.673584 1_455
Ir1 Si12 2.317984 1_655
Ir1 Si12 2.317984 1_555
Ir1 Si5 2.417407 1_555
Ir1 Si2 2.472576 1_555
Ir1 Si10 2.506389 1_555
Ir1 Si8 2.673584 1_555
Ir1 Si8 2.673584 1_655
Ir2 Si15 2.317984 1_565
Ir2 Si15 2.317984 1_665
Ir2 Si6 2.417407 1_555
Ir2 Si1 2.472576 1_565
Ir2 Si9 2.506389 1_565
Ir2 Si11 2.673584 1_555
Ir2 Si11 2.673584 1_655
Ir3 Si14 2.317984 1_545
Ir3 Si14 2.317984 1_445
Ir3 Si7 2.417407 1_555
Ir3 Si0 2.472576 1_545
Ir3 Si8 2.506389 1_545
Ir3 Si10 2.673584 1_455
Ir3 Si10 2.673584 1_555
Ir4 Si15 2.336066 1_555
Ir4 Si11 2.422108 1_555
Ir4 Si9 2.460728 1_555
Ir4 Si9 2.460728 1_455
Ir4 Si6 2.498842 1_555
Ir4 Si6 2.498842 1_455
Ir5 Si14 2.336066 1_555
Ir5 Si10 2.422108 1_555
Ir5 Si8 2.460728 1_655
Ir5 Si8 2.460728 1_555
Ir5 Si7 2.498842 1_555
Ir5 Si7 2.498842 1_655
Ir6 Si13 2.336066 1_545
Ir6 Si9 2.422108 1_555
Ir6 Si11 2.460728 1_645
Ir6 Si11 2.460728 1_545
Ir6 Si4 2.498842 1_655
Ir6 Si4 2.498842 1_555
Ir7 Si12 2.336066 1_555
Ir7 Si8 2.422108 1_545
Ir7 Si10 2.460728 1_455
Ir7 Si10 2.460728 1_555
Ir7 Si5 2.498842 1_445
Ir7 Si5 2.498842 1_545
Ir8 Si15 2.399550 1_555
Ir8 Si7 2.414763 1_555
Ir8 Si0 2.456226 1_545
Ir8 Si1 2.480432 1_455
Ir8 Si1 2.480432 1_555
Ir8 Si6 2.690374 1_455
Ir8 Si6 2.690374 1_555
Ir9 Si14 2.399550 1_555
Ir9 Si6 2.414763 1_555
Ir9 Si1 2.456226 1_565
Ir9 Si0 2.480432 1_555
Ir9 Si0 2.480432 1_655
Ir9 Si7 2.690374 1_555
Ir9 Si7 2.690374 1_655
Ir10 Si13 2.399550 1_555
Ir10 Si5 2.414763 1_556
Ir10 Si2 2.456226 1_556
Ir10 Si3 2.480432 1_555
Ir10 Si3 2.480432 1_655
Ir10 Si4 2.690374 1_565
Ir10 Si4 2.690374 1_665
Ir11 Si12 2.399550 1_555
Ir11 Si4 2.414763 1_554
Ir11 Si3 2.456226 1_554
Ir11 Si2 2.480432 1_555
Ir11 Si2 2.480432 1_455
Ir11 Si5 2.690374 1_445
Ir11 Si5 2.690374 1_545
