# generated using pymatgen
data_Bi2I4O13
_symmetry_space_group_name_H-M   'P 1'
_cell_length_a   5.71268028
_cell_length_b   12.32999328
_cell_length_c   16.87531327
_cell_angle_alpha   89.99939149
_cell_angle_beta   89.99997228
_cell_angle_gamma   89.99919948
_symmetry_Int_Tables_number   1
_chemical_formula_structural   Bi2I4O13
_chemical_formula_sum   'Bi8 I16 O52'
_cell_volume   1188.65166300
_cell_formula_units_Z   4
loop_
 _symmetry_equiv_pos_site_id
 _symmetry_equiv_pos_as_xyz
  1  'x, y, z'
loop_
 _atom_site_type_symbol
 _atom_site_label
 _atom_site_symmetry_multiplicity
 _atom_site_fract_x
 _atom_site_fract_y
 _atom_site_fract_z
 _atom_site_occupancy
  Bi  Bi0  1  0.23512837  0.48793200  0.29819090  1
  Bi  Bi1  1  0.26489861  0.51207112  0.79818715  1
  Bi  Bi2  1  0.73510632  0.01206724  0.70181337  1
  Bi  Bi3  1  0.76488006  0.98792673  0.20180936  1
  Bi  Bi4  1  0.28499147  0.15355509  0.82546903  1
  Bi  Bi5  1  0.21499894  0.84645559  0.32547077  1
  Bi  Bi6  1  0.78499899  0.34645281  0.17452288  1
  Bi  Bi7  1  0.71498903  0.65355376  0.67454066  1
  I  I0  1  0.12058849  0.45175983  0.57225466  1
  I  I1  1  0.37937998  0.54822728  0.07227993  1
  I  I2  1  0.62060734  0.04823992  0.42773214  1
  I  I3  1  0.87942445  0.95175399  0.92773040  1
  I  I4  1  0.23704900  0.16734689  0.58871280  1
  I  I5  1  0.26292470  0.83264834  0.08871408  1
  I  I6  1  0.73709452  0.33265117  0.41128435  1
  I  I7  1  0.76300093  0.66734580  0.91129031  1
  I  I8  1  0.68643304  0.32870174  0.73681174  1
  I  I9  1  0.81358867  0.67130334  0.23680794  1
  I  I10  1  0.18640845  0.17132023  0.26318666  1
  I  I11  1  0.31354190  0.82870451  0.76319754  1
  I  I12  1  0.06272120  0.85855521  0.53063663  1
  I  I13  1  0.43721656  0.14142146  0.03063468  1
  I  I14  1  0.56279381  0.64141481  0.46936830  1
  I  I15  1  0.93720951  0.35857937  0.96936000  1
  O  O0  1  0.06100235  0.83252529  0.94302594  1
  O  O1  1  0.43904920  0.16748875  0.44303104  1
  O  O2  1  0.56095163  0.66747792  0.05697384  1
  O  O3  1  0.93901856  0.33252853  0.55697373  1
  O  O4  1  0.03868129  0.49215636  0.94045725  1
  O  O5  1  0.46131856  0.50783921  0.44045826  1
  O  O6  1  0.53868469  0.00784516  0.05953672  1
  O  O7  1  0.96131462  0.99213206  0.55954188  1
  O  O8  1  0.63451636  0.16794902  0.76310989  1
  O  O9  1  0.86547236  0.83204684  0.26311264  1
  O  O10  1  0.13455244  0.33205662  0.23687588  1
  O  O11  1  0.36547095  0.66794947  0.73689490  1
  O  O12  1  0.19318521  0.28216360  0.93976921  1
  O  O13  1  0.30681214  0.71783534  0.43977766  1
  O  O14  1  0.69319432  0.21784119  0.06021244  1
  O  O15  1  0.80674173  0.78215662  0.56023492  1
  O  O16  1  0.10154290  0.84676327  0.68497931  1
  O  O17  1  0.39838437  0.15324059  0.18497442  1
  O  O18  1  0.60155807  0.65322346  0.31501823  1
  O  O19  1  0.89844199  0.34676178  0.81502671  1
  O  O20  1  0.41449710  0.33124467  0.79784612  1
  O  O21  1  0.08553813  0.66875563  0.29784040  1
  O  O22  1  0.91449684  0.16876274  0.20213505  1
  O  O23  1  0.58548180  0.83124915  0.70216273  1
  O  O24  1  0.08051942  0.46376683  0.67933587  1
  O  O25  1  0.41951767  0.53625228  0.17935613  1
  O  O26  1  0.58049347  0.03624745  0.32065564  1
  O  O27  1  0.91948278  0.96375323  0.82065291  1
  O  O28  1  0.09111640  0.15438811  0.68506399  1
  O  O29  1  0.40880037  0.84562051  0.18507402  1
  O  O30  1  0.59120599  0.34562284  0.31493137  1
  O  O31  1  0.90889572  0.65439480  0.81493787  1
  O  O32  1  0.04175505  0.36844248  0.07359043  1
  O  O33  1  0.45824798  0.63155014  0.57359514  1
  O  O34  1  0.54175576  0.13154973  0.92640057  1
  O  O35  1  0.95819774  0.86842609  0.42640373  1
  O  O36  1  0.47655902  0.07062314  0.60194852  1
  O  O37  1  0.02339706  0.92936960  0.10193865  1
  O  O38  1  0.97664158  0.42937247  0.39806909  1
  O  O39  1  0.52346750  0.57062537  0.89805915  1
  O  O40  1  0.59427382  0.48350886  0.72499010  1
  O  O41  1  0.90577336  0.51649411  0.22498114  1
  O  O42  1  0.09426338  0.01649901  0.27500380  1
  O  O43  1  0.40571159  0.98351073  0.77501593  1
  O  O44  1  0.09450565  0.05555237  0.94889939  1
  O  O45  1  0.40551747  0.94445454  0.44891070  1
  O  O46  1  0.59447992  0.44444433  0.05109693  1
  O  O47  1  0.90549182  0.55556083  0.55110025  1
  O  O48  1  0.40010268  0.29087889  0.60880036  1
  O  O49  1  0.09986113  0.70912218  0.10879970  1
  O  O50  1  0.90015356  0.20911775  0.39120360  1
  O  O51  1  0.59993215  0.79086983  0.89120857  1
loop_
_geom_bond_atom_site_label_1
_geom_bond_atom_site_label_2
_geom_bond_distance
_geom_bond_site_symmetry_2
Bi0 O10 2.257139 1_555
Bi0 O41 2.278233 1_455
Bi0 O25 2.342230 1_555
Bi0 O38 2.354288 1_455
Bi0 O21 2.387712 1_555
Bi0 O30 2.701178 1_555
Bi0 O5 2.737481 1_555
Bi1 O11 2.256970 1_555
Bi1 O40 2.278216 1_555
Bi1 O24 2.342404 1_555
Bi1 O39 2.354499 1_555
Bi1 O20 2.387761 1_555
Bi1 O31 2.700995 1_455
Bi1 O4 2.737597 1_555
Bi2 O8 2.257070 1_555
Bi2 O43 2.278351 1_545
Bi2 O27 2.342239 1_545
Bi2 O36 2.354318 1_555
Bi2 O23 2.387740 1_545
Bi2 O28 2.701034 1_655
Bi2 O7 2.737617 1_545
Bi3 O9 2.257087 1_555
Bi3 O42 2.278258 1_665
Bi3 O26 2.342394 1_565
Bi3 O37 2.354295 1_655
Bi3 O22 2.387930 1_565
Bi3 O29 2.701195 1_555
Bi3 O6 2.737577 1_565
Bi4 O8 2.264025 1_555
Bi4 O34 2.264112 1_555
Bi4 O20 2.358972 1_555
Bi4 O43 2.365675 1_545
Bi4 O12 2.551498 1_555
Bi4 O28 2.615478 1_555
Bi4 O44 2.642513 1_555
Bi5 O9 2.264042 1_455
Bi5 O35 2.264218 1_455
Bi5 O21 2.359044 1_555
Bi5 O42 2.365759 1_565
Bi5 O13 2.551657 1_555
Bi5 O29 2.615172 1_555
Bi5 O45 2.642717 1_555
Bi6 O32 2.264074 1_655
Bi6 O10 2.264119 1_655
Bi6 O22 2.358908 1_555
Bi6 O41 2.365781 1_555
Bi6 O14 2.551661 1_555
Bi6 O30 2.615331 1_555
Bi6 O46 2.642456 1_555
Bi7 O11 2.263951 1_555
Bi7 O33 2.264210 1_555
Bi7 O23 2.359028 1_555
Bi7 O40 2.365652 1_555
Bi7 O15 2.551447 1_555
Bi7 O31 2.615435 1_555
Bi7 O47 2.642637 1_555
I0 O47 1.809790 1_455
I0 O3 1.817607 1_455
I0 O24 1.827477 1_555
I1 O46 1.809746 1_555
I1 O2 1.817861 1_555
I1 O25 1.827408 1_555
I2 O45 1.809732 1_545
I2 O1 1.817762 1_555
I2 O26 1.827417 1_555
I3 O44 1.809785 1_665
I3 O0 1.817614 1_655
I3 O27 1.827397 1_555
I4 O48 1.817302 1_555
I4 O36 1.828724 1_555
I4 O28 1.834192 1_555
I5 O49 1.817258 1_555
I5 O37 1.828759 1_555
I5 O29 1.834193 1_555
I6 O50 1.817289 1_555
I6 O38 1.828845 1_555
I6 O30 1.834117 1_555
I7 O51 1.817218 1_555
I7 O39 1.828816 1_555
I7 O31 1.834105 1_555
I8 O19 1.805160 1_555
I8 O20 1.864172 1_555
I8 O40 1.990061 1_555
I8 O8 2.052693 1_555
I9 O18 1.805211 1_555
I9 O21 1.864220 1_655
I9 O41 1.990138 1_555
I9 O9 2.052589 1_555
I10 O17 1.805024 1_555
I10 O22 1.864222 1_455
I10 O42 1.990213 1_555
I10 O10 2.052487 1_555
I11 O16 1.805152 1_555
I11 O23 1.864196 1_555
I11 O43 1.990079 1_555
I11 O11 2.052749 1_555
I12 O15 1.809770 1_455
I12 O7 1.812769 1_455
I12 O35 1.861531 1_455
I13 O14 1.809808 1_555
I13 O6 1.812851 1_555
I13 O34 1.861581 1_554
I13 O44 2.618500 1_554
I14 O13 1.809864 1_555
I14 O5 1.812917 1_555
I14 O33 1.861471 1_555
I14 O47 2.618306 1_555
I15 O12 1.809812 1_655
I15 O4 1.812884 1_655
I15 O32 1.861529 1_656
I15 O46 2.618550 1_556
