# generated using pymatgen
data_RbYMg30O32
_symmetry_space_group_name_H-M   'P 1'
_cell_length_a   8.67514900
_cell_length_b   8.67514900
_cell_length_c   8.66151900
_cell_angle_alpha   90.00000000
_cell_angle_beta   90.00000000
_cell_angle_gamma   90.00000000
_symmetry_Int_Tables_number   1
_chemical_formula_structural   RbYMg30O32
_chemical_formula_sum   'Rb1 Y1 Mg30 O32'
_cell_volume   651.85041731
_cell_formula_units_Z   1
loop_
 _symmetry_equiv_pos_site_id
 _symmetry_equiv_pos_as_xyz
  1  'x, y, z'
loop_
 _atom_site_type_symbol
 _atom_site_label
 _atom_site_symmetry_multiplicity
 _atom_site_fract_x
 _atom_site_fract_y
 _atom_site_fract_z
 _atom_site_occupancy
  Rb  Rb0  1  0.50000000  0.50000000  0.00000000  1
  Y  Y0  1  0.00000000  0.00000000  0.00000000  1
  Mg  Mg0  1  0.50000000  0.00000000  0.00000000  1
  Mg  Mg1  1  0.00000000  0.50000000  0.00000000  1
  Mg  Mg2  1  0.00000000  0.00000000  0.50000000  1
  Mg  Mg3  1  0.50000000  0.00000000  0.50000000  1
  Mg  Mg4  1  0.00000000  0.50000000  0.50000000  1
  Mg  Mg5  1  0.50000000  0.50000000  0.50000000  1
  Mg  Mg6  1  0.25451700  0.25451700  0.00000000  1
  Mg  Mg7  1  0.74548300  0.25451700  0.00000000  1
  Mg  Mg8  1  0.25451700  0.74548300  0.00000000  1
  Mg  Mg9  1  0.74548300  0.74548300  0.00000000  1
  Mg  Mg10  1  0.25137700  0.25137700  0.50000000  1
  Mg  Mg11  1  0.74862300  0.25137700  0.50000000  1
  Mg  Mg12  1  0.25137700  0.74862300  0.50000000  1
  Mg  Mg13  1  0.74862300  0.74862300  0.50000000  1
  Mg  Mg14  1  0.25723800  0.00000000  0.25640700  1
  Mg  Mg15  1  0.74276200  0.00000000  0.25640700  1
  Mg  Mg16  1  0.24837700  0.50000000  0.25373300  1
  Mg  Mg17  1  0.75162300  0.50000000  0.25373300  1
  Mg  Mg18  1  0.25723800  0.00000000  0.74359300  1
  Mg  Mg19  1  0.74276200  0.00000000  0.74359300  1
  Mg  Mg20  1  0.24837700  0.50000000  0.74626700  1
  Mg  Mg21  1  0.75162300  0.50000000  0.74626700  1
  Mg  Mg22  1  0.00000000  0.25723800  0.25640700  1
  Mg  Mg23  1  0.50000000  0.24837700  0.25373300  1
  Mg  Mg24  1  0.00000000  0.74276200  0.25640700  1
  Mg  Mg25  1  0.50000000  0.75162300  0.25373300  1
  Mg  Mg26  1  0.00000000  0.25723800  0.74359300  1
  Mg  Mg27  1  0.50000000  0.24837700  0.74626700  1
  Mg  Mg28  1  0.00000000  0.74276200  0.74359300  1
  Mg  Mg29  1  0.50000000  0.75162300  0.74626700  1
  O  O0  1  0.00000000  0.00000000  0.25925300  1
  O  O1  1  0.50000000  0.00000000  0.25715500  1
  O  O2  1  0.00000000  0.50000000  0.25715500  1
  O  O3  1  0.50000000  0.50000000  0.27898600  1
  O  O4  1  0.00000000  0.00000000  0.74074700  1
  O  O5  1  0.50000000  0.00000000  0.74284500  1
  O  O6  1  0.00000000  0.50000000  0.74284500  1
  O  O7  1  0.50000000  0.50000000  0.72101400  1
  O  O8  1  0.24958500  0.24958500  0.24926000  1
  O  O9  1  0.75041500  0.24958500  0.24926000  1
  O  O10  1  0.24958500  0.75041500  0.24926000  1
  O  O11  1  0.75041500  0.75041500  0.24926000  1
  O  O12  1  0.24958500  0.24958500  0.75074000  1
  O  O13  1  0.75041500  0.24958500  0.75074000  1
  O  O14  1  0.24958500  0.75041500  0.75074000  1
  O  O15  1  0.75041500  0.75041500  0.75074000  1
  O  O16  1  0.25508200  0.00000000  0.00000000  1
  O  O17  1  0.74491800  0.00000000  0.00000000  1
  O  O18  1  0.22176500  0.50000000  0.00000000  1
  O  O19  1  0.77823500  0.50000000  0.00000000  1
  O  O20  1  0.24925300  0.00000000  0.50000000  1
  O  O21  1  0.75074700  0.00000000  0.50000000  1
  O  O22  1  0.24411100  0.50000000  0.50000000  1
  O  O23  1  0.75588900  0.50000000  0.50000000  1
  O  O24  1  0.00000000  0.25508200  0.00000000  1
  O  O25  1  0.50000000  0.22176500  0.00000000  1
  O  O26  1  0.00000000  0.74491800  0.00000000  1
  O  O27  1  0.50000000  0.77823500  0.00000000  1
  O  O28  1  0.00000000  0.24925300  0.50000000  1
  O  O29  1  0.50000000  0.24411100  0.50000000  1
  O  O30  1  0.00000000  0.75074700  0.50000000  1
  O  O31  1  0.50000000  0.75588900  0.50000000  1
loop_
_geom_bond_atom_site_label_1
_geom_bond_atom_site_label_2
_geom_bond_distance
_geom_bond_site_symmetry_2
Mg0 O25 1.923844 1_555
Mg0 O27 1.923844 1_545
Mg0 O17 2.124700 1_555
Mg0 O16 2.124700 1_555
Mg0 O1 2.227353 1_555
Mg0 O5 2.227353 1_554
Mg1 O19 1.923844 1_455
Mg1 O18 1.923844 1_555
Mg1 O26 2.124700 1_555
Mg1 O24 2.124700 1_555
Mg1 O6 2.227353 1_554
Mg1 O2 2.227353 1_555
Mg2 O0 2.085235 1_555
Mg2 O4 2.085235 1_555
Mg2 O30 2.162307 1_545
Mg2 O21 2.162307 1_455
Mg2 O20 2.162307 1_555
Mg2 O28 2.162307 1_555
Mg3 O1 2.103407 1_555
Mg3 O5 2.103407 1_555
Mg3 O31 2.117699 1_545
Mg3 O29 2.117699 1_555
Mg3 O20 2.175268 1_555
Mg3 O21 2.175268 1_555
Mg4 O6 2.103407 1_555
Mg4 O2 2.103407 1_555
Mg4 O23 2.117699 1_455
Mg4 O22 2.117699 1_555
Mg4 O28 2.175268 1_555
Mg4 O30 2.175268 1_555
Mg5 O3 1.914317 1_555
Mg5 O7 1.914317 1_555
Mg5 O23 2.219875 1_555
Mg5 O22 2.219875 1_555
Mg5 O29 2.219875 1_555
Mg5 O31 2.219875 1_555
Mg6 O25 2.148472 1_555
Mg6 O18 2.148472 1_555
Mg6 O8 2.159818 1_555
Mg6 O12 2.159818 1_554
Mg6 O24 2.207978 1_555
Mg6 O16 2.207978 1_555
Mg7 O19 2.148472 1_555
Mg7 O25 2.148472 1_555
Mg7 O9 2.159818 1_555
Mg7 O13 2.159818 1_554
Mg7 O24 2.207978 1_655
Mg7 O17 2.207978 1_555
Mg8 O18 2.148472 1_555
Mg8 O27 2.148472 1_555
Mg8 O10 2.159818 1_555
Mg8 O14 2.159818 1_554
Mg8 O26 2.207978 1_555
Mg8 O16 2.207978 1_565
Mg9 O19 2.148472 1_555
Mg9 O27 2.148472 1_555
Mg9 O11 2.159818 1_555
Mg9 O15 2.159818 1_554
Mg9 O17 2.207978 1_565
Mg9 O26 2.207978 1_655
Mg10 O29 2.157762 1_555
Mg10 O22 2.157762 1_555
Mg10 O12 2.171901 1_555
Mg10 O8 2.171901 1_555
Mg10 O20 2.180811 1_555
Mg10 O28 2.180811 1_555
Mg11 O23 2.157762 1_555
Mg11 O29 2.157762 1_555
Mg11 O13 2.171901 1_555
Mg11 O9 2.171901 1_555
Mg11 O28 2.180811 1_655
Mg11 O21 2.180811 1_555
Mg12 O31 2.157762 1_555
Mg12 O22 2.157762 1_555
Mg12 O10 2.171901 1_555
Mg12 O14 2.171901 1_555
Mg12 O20 2.180811 1_565
Mg12 O30 2.180811 1_555
Mg13 O31 2.157762 1_555
Mg13 O23 2.157762 1_555
Mg13 O11 2.171901 1_555
Mg13 O15 2.171901 1_555
Mg13 O21 2.180811 1_565
Mg13 O30 2.180811 1_655
Mg14 O1 2.106006 1_555
Mg14 O20 2.111022 1_555
Mg14 O10 2.167089 1_545
Mg14 O8 2.167089 1_555
Mg14 O16 2.220953 1_555
Mg14 O0 2.231714 1_555
Mg15 O1 2.106006 1_555
Mg15 O21 2.111022 1_555
Mg15 O11 2.167089 1_545
Mg15 O9 2.167089 1_555
Mg15 O17 2.220953 1_555
Mg15 O0 2.231714 1_655
Mg16 O22 2.133367 1_555
Mg16 O2 2.154911 1_555
Mg16 O8 2.172758 1_555
Mg16 O10 2.172758 1_555
Mg16 O3 2.193798 1_555
Mg16 O18 2.209806 1_555
Mg17 O23 2.133367 1_555
Mg17 O2 2.154911 1_655
Mg17 O9 2.172758 1_555
Mg17 O11 2.172758 1_555
Mg17 O3 2.193798 1_555
Mg17 O19 2.209806 1_555
Mg18 O5 2.106006 1_555
Mg18 O20 2.111022 1_555
Mg18 O14 2.167089 1_545
Mg18 O12 2.167089 1_555
Mg18 O16 2.220953 1_556
Mg18 O4 2.231714 1_555
Mg19 O5 2.106006 1_555
Mg19 O21 2.111022 1_555
Mg19 O15 2.167089 1_545
Mg19 O13 2.167089 1_555
Mg19 O17 2.220953 1_556
Mg19 O4 2.231714 1_655
Mg20 O22 2.133367 1_555
Mg20 O6 2.154911 1_555
Mg20 O12 2.172758 1_555
Mg20 O14 2.172758 1_555
Mg20 O7 2.193798 1_555
Mg20 O18 2.209806 1_556
Mg21 O23 2.133367 1_555
Mg21 O6 2.154911 1_655
Mg21 O13 2.172758 1_555
Mg21 O15 2.172758 1_555
Mg21 O7 2.193798 1_555
Mg21 O19 2.209806 1_556
Mg22 O2 2.106006 1_555
Mg22 O28 2.111022 1_555
Mg22 O9 2.167089 1_455
Mg22 O8 2.167089 1_555
Mg22 O24 2.220953 1_555
Mg22 O0 2.231714 1_555
Mg23 O29 2.133367 1_555
Mg23 O1 2.154911 1_555
Mg23 O8 2.172758 1_555
Mg23 O9 2.172758 1_555
Mg23 O3 2.193798 1_555
Mg23 O25 2.209806 1_555
Mg24 O2 2.106006 1_555
Mg24 O30 2.111022 1_555
Mg24 O11 2.167089 1_455
Mg24 O10 2.167089 1_555
Mg24 O26 2.220953 1_555
Mg24 O0 2.231714 1_565
Mg25 O31 2.133367 1_555
Mg25 O1 2.154911 1_565
Mg25 O10 2.172758 1_555
Mg25 O11 2.172758 1_555
Mg25 O3 2.193798 1_555
Mg25 O27 2.209806 1_555
Mg26 O6 2.106006 1_555
Mg26 O28 2.111022 1_555
Mg26 O13 2.167089 1_455
Mg26 O12 2.167089 1_555
Mg26 O24 2.220953 1_556
Mg26 O4 2.231714 1_555
Mg27 O29 2.133367 1_555
Mg27 O5 2.154911 1_555
Mg27 O12 2.172758 1_555
Mg27 O13 2.172758 1_555
Mg27 O7 2.193798 1_555
Mg27 O25 2.209806 1_556
Mg28 O6 2.106006 1_555
Mg28 O30 2.111022 1_555
Mg28 O15 2.167089 1_455
Mg28 O14 2.167089 1_555
Mg28 O26 2.220953 1_556
Mg28 O4 2.231714 1_565
Mg29 O31 2.133367 1_555
Mg29 O5 2.154911 1_565
Mg29 O14 2.172758 1_555
Mg29 O15 2.172758 1_555
Mg29 O7 2.193798 1_555
Mg29 O27 2.209806 1_556
O0 Y0 2.245525 1_555
O3 Rb0 2.416443 1_555
O4 Y0 2.245525 1_556
O7 Rb0 2.416443 1_556
O16 Y0 2.212874 1_555
O17 Y0 2.212874 1_655
O18 Rb0 2.413730 1_555
O19 Rb0 2.413730 1_555
O24 Y0 2.212874 1_555
O25 Rb0 2.413730 1_555
O26 Y0 2.212874 1_565
O27 Rb0 2.413730 1_555
