# generated using pymatgen
data_SrLa2(CoO3)3
_symmetry_space_group_name_H-M   'P 1'
_cell_length_a   5.51694358
_cell_length_b   5.47684104
_cell_length_c   6.69727280
_cell_angle_alpha   90.41073221
_cell_angle_beta   89.10173501
_cell_angle_gamma   119.75220496
_symmetry_Int_Tables_number   1
_chemical_formula_structural   SrLa2(CoO3)3
_chemical_formula_sum   'Sr1 La2 Co3 O9'
_cell_volume   175.66402180
_cell_formula_units_Z   1
loop_
 _symmetry_equiv_pos_site_id
 _symmetry_equiv_pos_as_xyz
  1  'x, y, z'
loop_
 _atom_site_type_symbol
 _atom_site_label
 _atom_site_symmetry_multiplicity
 _atom_site_fract_x
 _atom_site_fract_y
 _atom_site_fract_z
 _atom_site_occupancy
  Sr  Sr0  1  0.66712600  0.33284600  0.83375000  1
  La  La0  1  0.33271500  0.66411300  0.17179800  1
  La  La1  1  0.00009300  0.00140800  0.50233100  1
  Co  Co0  1  0.33186800  0.66682000  0.67368900  1
  Co  Co1  1  0.00043000  0.99799500  0.99987200  1
  Co  Co2  1  0.66706000  0.33322500  0.33212500  1
  O  O0  1  0.67770200  0.83469600  0.83409800  1
  O  O1  1  0.32128400  0.15906800  0.17010100  1
  O  O2  1  0.00541600  0.51165100  0.48895500  1
  O  O3  1  0.49288200  0.00509500  0.48868200  1
  O  O4  1  0.16452400  0.32134400  0.83289400  1
  O  O5  1  0.83443800  0.66928200  0.17115100  1
  O  O6  1  0.49149000  0.51434200  0.49376600  1
  O  O7  1  0.17082300  0.82960100  0.83353700  1
  O  O8  1  0.84214800  0.15851600  0.17324800  1
loop_
_geom_bond_atom_site_label_1
_geom_bond_atom_site_label_2
_geom_bond_distance
_geom_bond_site_symmetry_2
La0 O2 2.622635 1_555
La0 O6 2.624407 1_555
La0 O3 2.671427 1_565
La0 O1 2.735249 1_555
La0 O1 2.742740 1_565
La0 O8 2.748472 1_455
La0 O5 2.753974 1_555
La0 O5 2.763195 1_455
La0 O7 2.765440 1_554
La0 O8 2.770996 1_565
La0 O0 2.782257 1_554
La0 O4 2.795170 1_554
La1 O8 2.681169 1_455
La1 O1 2.687314 1_555
La1 O4 2.687790 1_555
La1 O0 2.688403 1_445
La1 O2 2.697849 1_545
La1 O3 2.708834 1_555
La1 O5 2.723841 1_445
La1 O6 2.750725 1_445
La1 O7 2.769113 1_545
La1 O6 2.771899 1_555
La1 O2 2.782137 1_555
La1 O3 2.811249 1_455
Co0 O7 1.863579 1_555
Co0 O6 1.899235 1_555
Co0 O4 1.957966 1_555
Co0 O0 1.987153 1_555
Co0 O2 2.008055 1_555
Co0 O3 2.030205 1_565
Co1 O8 1.897159 1_466
Co1 O4 1.900475 1_565
Co1 O0 1.915694 1_455
Co1 O1 1.926231 1_566
Co1 O5 1.938029 1_456
Co1 O7 1.946318 1_555
Co2 O3 1.879853 1_555
Co2 O5 1.926896 1_555
Co2 O2 1.943956 1_655
Co2 O8 1.962481 1_555
Co2 O1 1.992605 1_555
Co2 O6 1.999856 1_555
O0 Sr0 2.720055 1_555
O0 Sr0 2.757727 1_565
O1 Sr0 2.777460 1_554
O2 Sr0 2.803186 1_455
O3 Sr0 2.790090 1_555
O4 Sr0 2.742207 1_555
O4 Sr0 2.775833 1_455
O5 Sr0 2.769649 1_554
O6 Sr0 2.858173 1_555
O7 Sr0 2.757474 1_565
O7 Sr0 2.760498 1_455
O8 Sr0 2.833493 1_554
