# generated using pymatgen
data_Pu2ReB6
_symmetry_space_group_name_H-M   'P 1'
_cell_length_a   3.65408500
_cell_length_b   9.29840700
_cell_length_c   11.42667600
_cell_angle_alpha   90.00000000
_cell_angle_beta   90.00000000
_cell_angle_gamma   90.00000000
_symmetry_Int_Tables_number   1
_chemical_formula_structural   Pu2ReB6
_chemical_formula_sum   'Pu8 Re4 B24'
_cell_volume   388.24610776
_cell_formula_units_Z   4
loop_
 _symmetry_equiv_pos_site_id
 _symmetry_equiv_pos_as_xyz
  1  'x, y, z'
loop_
 _atom_site_type_symbol
 _atom_site_label
 _atom_site_symmetry_multiplicity
 _atom_site_fract_x
 _atom_site_fract_y
 _atom_site_fract_z
 _atom_site_occupancy
  Pu  Pu0  1  0.00000000  0.33328500  0.40889100  1
  Pu  Pu1  1  0.00000000  0.66671500  0.59110900  1
  Pu  Pu2  1  0.00000000  0.83328500  0.09110900  1
  Pu  Pu3  1  0.00000000  0.16671500  0.90889100  1
  Pu  Pu4  1  0.00000000  0.95311500  0.38959100  1
  Pu  Pu5  1  0.00000000  0.04688500  0.61040900  1
  Pu  Pu6  1  0.00000000  0.45311500  0.11040900  1
  Pu  Pu7  1  0.00000000  0.54688500  0.88959100  1
  Re  Re0  1  0.00000000  0.64338300  0.31975000  1
  Re  Re1  1  0.00000000  0.35661700  0.68025000  1
  Re  Re2  1  0.00000000  0.14338300  0.18025000  1
  Re  Re3  1  0.00000000  0.85661700  0.81975000  1
  B  B0  1  0.50000000  0.55229900  0.43194400  1
  B  B1  1  0.50000000  0.44770100  0.56805600  1
  B  B2  1  0.50000000  0.05229900  0.06805600  1
  B  B3  1  0.50000000  0.94770100  0.93194400  1
  B  B4  1  0.50000000  0.74408500  0.42208600  1
  B  B5  1  0.50000000  0.25591500  0.57791400  1
  B  B6  1  0.50000000  0.24408500  0.07791400  1
  B  B7  1  0.50000000  0.75591500  0.92208600  1
  B  B8  1  0.50000000  0.80010800  0.27150200  1
  B  B9  1  0.50000000  0.19989200  0.72849800  1
  B  B10  1  0.50000000  0.30010800  0.22849800  1
  B  B11  1  0.50000000  0.69989200  0.77150200  1
  B  B12  1  0.50000000  0.64108100  0.18783800  1
  B  B13  1  0.50000000  0.35891900  0.81216200  1
  B  B14  1  0.50000000  0.14108100  0.31216200  1
  B  B15  1  0.50000000  0.85891900  0.68783800  1
  B  B16  1  0.50000000  0.98647500  0.21746300  1
  B  B17  1  0.50000000  0.01352500  0.78253700  1
  B  B18  1  0.50000000  0.48647500  0.28253700  1
  B  B19  1  0.50000000  0.51352500  0.71746300  1
  B  B20  1  0.50000000  0.63750700  0.03783600  1
  B  B21  1  0.50000000  0.36249300  0.96216400  1
  B  B22  1  0.50000000  0.13750700  0.46216400  1
  B  B23  1  0.50000000  0.86249300  0.53783600  1
loop_
_geom_bond_atom_site_label_1
_geom_bond_atom_site_label_2
_geom_bond_distance
_geom_bond_site_symmetry_2
Pu0 Re0 3.058041 1_555
Pu0 Re1 3.108312 1_555
Pu0 Re2 3.153365 1_555
Pu1 Re1 3.058041 1_555
Pu1 Re0 3.108312 1_555
Pu1 Re3 3.153365 1_555
Pu2 Re2 3.058041 1_565
Pu2 Re3 3.108312 1_554
Pu2 Re0 3.153365 1_555
Pu3 Re3 3.058041 1_545
Pu3 Re2 3.108312 1_556
Pu3 Re1 3.153365 1_555
Pu4 Pu5 2.669616 1_565
Pu4 Re2 2.975238 1_565
Pu4 Re0 2.988539 1_555
Pu5 Re3 2.975238 1_545
Pu5 Re1 2.988539 1_555
Pu6 Pu7 2.669616 1_554
Pu6 Re0 2.975238 1_555
Pu6 Re2 2.988539 1_555
Pu7 Re1 2.975238 1_555
Pu7 Re3 2.988539 1_555
B0 B4 1.786858 1_555
B0 B18 1.813625 1_555
B0 B1 1.834373 1_555
B0 Re0 2.387241 1_555
B0 Re0 2.387241 1_655
B0 Pu0 2.748587 1_655
B0 Pu0 2.748587 1_555
B0 Pu1 2.788854 1_555
B0 Pu1 2.788854 1_655
B1 B5 1.786858 1_555
B1 B19 1.813625 1_555
B1 Re1 2.387241 1_655
B1 Re1 2.387241 1_555
B1 Pu1 2.748587 1_555
B1 Pu1 2.748587 1_655
B1 Pu0 2.788854 1_555
B1 Pu0 2.788854 1_655
B2 B6 1.786858 1_555
B2 B3 1.834373 1_544
B2 Re2 2.387241 1_555
B2 Re2 2.387241 1_655
B2 Pu2 2.748587 1_545
B2 Pu2 2.748587 1_645
B2 Pu3 2.788854 1_554
B2 Pu3 2.788854 1_654
B3 B7 1.786858 1_555
B3 Re3 2.387241 1_555
B3 Re3 2.387241 1_655
B3 Pu3 2.748587 1_565
B3 Pu3 2.748587 1_665
B3 Pu2 2.788854 1_556
B3 Pu2 2.788854 1_656
B4 B8 1.797800 1_555
B4 Re0 2.362683 1_555
B4 Re0 2.362683 1_655
B4 Pu4 2.693272 1_655
B4 Pu4 2.693272 1_555
B4 Pu1 2.754240 1_555
B4 Pu1 2.754240 1_655
B5 B9 1.797800 1_555
B5 Re1 2.362683 1_555
B5 Re1 2.362683 1_655
B5 Pu5 2.693272 1_655
B5 Pu5 2.693272 1_555
B5 Pu0 2.754240 1_555
B5 Pu0 2.754240 1_655
B6 Re2 2.362683 1_555
B6 Re2 2.362683 1_655
B6 Pu6 2.693272 1_555
B6 Pu6 2.693272 1_655
B6 Pu3 2.754240 1_554
B6 Pu3 2.754240 1_654
B7 Re3 2.362683 1_555
B7 Re3 2.362683 1_655
B7 Pu7 2.693272 1_555
B7 Pu7 2.693272 1_655
B7 Pu2 2.754240 1_556
B7 Pu2 2.754240 1_656
B8 Re0 2.401194 1_555
B8 Re0 2.401194 1_655
B8 Pu4 2.680113 1_555
B8 Pu4 2.680113 1_655
B8 Pu2 2.771674 1_555
B8 Pu2 2.771674 1_655
B9 Re1 2.401194 1_555
B9 Re1 2.401194 1_655
B9 Pu5 2.680113 1_555
B9 Pu5 2.680113 1_655
B9 Pu3 2.771674 1_555
B9 Pu3 2.771674 1_655
B10 B14 1.760820 1_555
B10 B6 1.797800 1_555
B10 B18 1.839643 1_555
B10 Re2 2.401194 1_555
B10 Re2 2.401194 1_655
B10 Pu6 2.680113 1_555
B10 Pu6 2.680113 1_655
B10 Pu0 2.771674 1_655
B10 Pu0 2.771674 1_555
B11 B15 1.760820 1_555
B11 B7 1.797800 1_555
B11 B19 1.839643 1_555
B11 Re3 2.401194 1_555
B11 Re3 2.401194 1_655
B11 Pu7 2.680113 1_655
B11 Pu7 2.680113 1_555
B11 Pu1 2.771674 1_555
B11 Pu1 2.771674 1_655
B12 B20 1.714346 1_555
B12 B8 1.760820 1_555
B12 B18 1.799331 1_555
B12 Re0 2.368658 1_655
B12 Re0 2.368658 1_555
B12 Pu6 2.678736 1_655
B12 Pu6 2.678736 1_555
B12 Pu2 2.784565 1_555
B12 Pu2 2.784565 1_655
B13 B21 1.714346 1_555
B13 B9 1.760820 1_555
B13 B19 1.799331 1_555
B13 Re1 2.368658 1_555
B13 Re1 2.368658 1_655
B13 Pu7 2.678736 1_655
B13 Pu7 2.678736 1_555
B13 Pu3 2.784565 1_655
B13 Pu3 2.784565 1_555
B14 B22 1.714346 1_555
B14 B16 1.799331 1_545
B14 Re2 2.368658 1_555
B14 Re2 2.368658 1_655
B14 Pu4 2.678736 1_545
B14 Pu4 2.678736 1_645
B14 Pu0 2.784565 1_655
B14 Pu0 2.784565 1_555
B15 B23 1.714346 1_555
B15 B17 1.799331 1_565
B15 Re3 2.368658 1_555
B15 Re3 2.368658 1_655
B15 Pu5 2.678736 1_565
B15 Pu5 2.678736 1_665
B15 Pu1 2.784565 1_555
B15 Pu1 2.784565 1_655
B16 B2 1.813625 1_565
B16 B8 1.839643 1_555
B16 Re2 2.376460 1_565
B16 Re2 2.376460 1_665
B16 Pu4 2.702371 1_655
B16 Pu4 2.702371 1_555
B16 Pu2 2.729769 1_655
B16 Pu2 2.729769 1_555
B17 B3 1.813625 1_545
B17 B9 1.839643 1_555
B17 Re3 2.376460 1_545
B17 Re3 2.376460 1_645
B17 Pu5 2.702371 1_555
B17 Pu5 2.702371 1_655
B17 Pu3 2.729769 1_555
B17 Pu3 2.729769 1_655
B18 Re0 2.376460 1_555
B18 Re0 2.376460 1_655
B18 Pu6 2.702371 1_655
B18 Pu6 2.702371 1_555
B18 Pu0 2.729769 1_655
B18 Pu0 2.729769 1_555
B19 Re1 2.376460 1_655
B19 Re1 2.376460 1_555
B19 Pu7 2.702371 1_555
B19 Pu7 2.702371 1_655
B19 Pu1 2.729769 1_555
B19 Pu1 2.729769 1_655
B20 B7 1.720925 1_554
B20 Pu7 2.630130 1_554
B20 Pu7 2.630130 1_654
B20 Pu6 2.639215 1_555
B20 Pu6 2.639215 1_655
B20 Pu2 2.650016 1_655
B20 Pu2 2.650016 1_555
B21 B6 1.720925 1_556
B21 Pu6 2.630130 1_556
B21 Pu6 2.630130 1_656
B21 Pu7 2.639215 1_555
B21 Pu7 2.639215 1_655
B21 Pu3 2.650016 1_655
B21 Pu3 2.650016 1_555
B22 B5 1.720925 1_555
B22 Pu5 2.630130 1_555
B22 Pu5 2.630130 1_655
B22 Pu4 2.639215 1_545
B22 Pu4 2.639215 1_645
B22 Pu0 2.650016 1_555
B22 Pu0 2.650016 1_655
B23 B4 1.720925 1_555
B23 Pu4 2.630130 1_555
B23 Pu4 2.630130 1_655
B23 Pu5 2.639215 1_565
B23 Pu5 2.639215 1_665
B23 Pu1 2.650016 1_555
B23 Pu1 2.650016 1_655
