# generated using pymatgen
data_NdNb4O12
_symmetry_space_group_name_H-M   'P 1'
_cell_length_a   5.58338355
_cell_length_b   5.58338355
_cell_length_c   7.95707200
_cell_angle_alpha   90.00000000
_cell_angle_beta   90.00000000
_cell_angle_gamma   90.57306926
_symmetry_Int_Tables_number   1
_chemical_formula_structural   NdNb4O12
_chemical_formula_sum   'Nd1 Nb4 O12'
_cell_volume   248.04272254
_cell_formula_units_Z   1
loop_
 _symmetry_equiv_pos_site_id
 _symmetry_equiv_pos_as_xyz
  1  'x, y, z'
loop_
 _atom_site_type_symbol
 _atom_site_label
 _atom_site_symmetry_multiplicity
 _atom_site_fract_x
 _atom_site_fract_y
 _atom_site_fract_z
 _atom_site_occupancy
  Nd  Nd0  1  0.25814800  0.74185200  0.00000000  1
  Nb  Nb0  1  0.24951600  0.24703000  0.74093600  1
  Nb  Nb1  1  0.75297000  0.75048400  0.74093600  1
  Nb  Nb2  1  0.75297000  0.75048400  0.25906400  1
  Nb  Nb3  1  0.24951600  0.24703000  0.25906400  1
  O  O0  1  0.21021900  0.21285900  0.50000000  1
  O  O1  1  0.78714100  0.78978100  0.50000000  1
  O  O2  1  0.01269500  0.98730500  0.80287400  1
  O  O3  1  0.01269500  0.98730500  0.19712600  1
  O  O4  1  0.28244600  0.29734700  0.00000000  1
  O  O5  1  0.70265300  0.71755400  0.00000000  1
  O  O6  1  0.48928800  0.99036900  0.77208000  1
  O  O7  1  0.00963100  0.51071200  0.22792000  1
  O  O8  1  0.48928800  0.99036900  0.22792000  1
  O  O9  1  0.00963100  0.51071200  0.77208000  1
  O  O10  1  0.49344600  0.50655400  0.72841700  1
  O  O11  1  0.49344600  0.50655400  0.27158300  1
loop_
_geom_bond_atom_site_label_1
_geom_bond_atom_site_label_2
_geom_bond_distance
_geom_bond_site_symmetry_2
Nd0 O4 2.486902 1_555
Nd0 O5 2.486902 1_555
Nd0 O2 2.500843 1_554
Nd0 O3 2.500843 1_555
Nd0 O9 2.616119 1_554
Nd0 O7 2.616119 1_555
Nd0 O8 2.616119 1_555
Nd0 O6 2.616119 1_554
Nd0 O10 2.855940 1_554
Nd0 O11 2.855940 1_555
Nd0 O5 3.103151 1_455
Nd0 O4 3.103151 1_565
Nb0 O0 1.938853 1_555
Nb0 O10 1.981169 1_555
Nb0 O6 1.986355 1_545
Nb0 O2 2.013911 1_545
Nb0 O9 2.015503 1_555
Nb0 O4 2.088308 1_556
Nb1 O1 1.938853 1_555
Nb1 O10 1.981169 1_555
Nb1 O9 1.986355 1_655
Nb1 O2 2.013911 1_655
Nb1 O6 2.015503 1_555
Nb1 O5 2.088308 1_556
Nb2 O1 1.938853 1_555
Nb2 O11 1.981169 1_555
Nb2 O7 1.986355 1_655
Nb2 O3 2.013911 1_655
Nb2 O8 2.015503 1_555
Nb2 O5 2.088308 1_555
Nb3 O0 1.938853 1_555
Nb3 O11 1.981169 1_555
Nb3 O8 1.986355 1_545
Nb3 O3 2.013911 1_545
Nb3 O7 2.015503 1_555
Nb3 O4 2.088308 1_555
