# generated using pymatgen
data_Dy4Fe29Si5
_symmetry_space_group_name_H-M   'P 1'
_cell_length_a   6.37100996
_cell_length_b   6.36457656
_cell_length_c   12.74142145
_cell_angle_alpha   81.35046835
_cell_angle_beta   82.43453367
_cell_angle_gamma   82.41012849
_symmetry_Int_Tables_number   1
_chemical_formula_structural   Dy4Fe29Si5
_chemical_formula_sum   'Dy4 Fe29 Si5'
_cell_volume   502.99280561
_cell_formula_units_Z   1
loop_
 _symmetry_equiv_pos_site_id
 _symmetry_equiv_pos_as_xyz
  1  'x, y, z'
loop_
 _atom_site_type_symbol
 _atom_site_label
 _atom_site_symmetry_multiplicity
 _atom_site_fract_x
 _atom_site_fract_y
 _atom_site_fract_z
 _atom_site_occupancy
  Dy  Dy0  1  0.66182300  0.65064700  0.32671200  1
  Dy  Dy1  1  0.65403600  0.65566700  0.82616300  1
  Dy  Dy2  1  0.34596400  0.34433300  0.17383700  1
  Dy  Dy3  1  0.33817700  0.34935300  0.67328800  1
  Fe  Fe0  1  0.33683600  0.33349700  0.42550700  1
  Fe  Fe1  1  0.33830800  0.33870900  0.92204600  1
  Fe  Fe2  1  0.34145000  0.84499500  0.16912600  1
  Fe  Fe3  1  0.33466200  0.85039200  0.66720400  1
  Fe  Fe4  1  0.84502900  0.33902000  0.17046300  1
  Fe  Fe5  1  0.83433900  0.34634100  0.67163700  1
  Fe  Fe6  1  0.66169200  0.66129100  0.07795400  1
  Fe  Fe7  1  0.66316400  0.66650300  0.57449300  1
  Fe  Fe8  1  0.66533800  0.14960800  0.33279600  1
  Fe  Fe9  1  0.65855000  0.15500500  0.83087400  1
  Fe  Fe10  1  0.16566100  0.65365900  0.32836300  1
  Fe  Fe11  1  0.15497100  0.66098000  0.82953700  1
  Fe  Fe12  1  0.31496600  0.68843100  0.49856800  1
  Fe  Fe13  1  0.30489600  0.69576600  0.99947600  1
  Fe  Fe14  1  0.69656200  0.00014800  0.15301100  1
  Fe  Fe15  1  0.68492000  0.00461800  0.65415700  1
  Fe  Fe16  1  0.00057100  0.29283800  0.35363600  1
  Fe  Fe17  1  0.99851800  0.30090100  0.84969700  1
  Fe  Fe18  1  0.31508000  0.99538200  0.34584300  1
  Fe  Fe19  1  0.30343800  0.99985200  0.84698900  1
  Fe  Fe20  1  0.00148200  0.69909900  0.15030300  1
  Fe  Fe21  1  0.99942900  0.70716200  0.64636400  1
  Fe  Fe22  1  0.68503400  0.31156900  0.50143200  1
  Fe  Fe23  1  0.69510400  0.30423400  0.00052400  1
  Fe  Fe24  1  0.00347600  0.99807500  0.24999800  1
  Fe  Fe25  1  0.99652400  0.00192500  0.75000200  1
  Fe  Fe26  1  0.00000000  0.50000000  0.00000000  1
  Fe  Fe27  1  0.00000000  0.50000000  0.50000000  1
  Fe  Fe28  1  0.50000000  0.00000000  0.00000000  1
  Si  Si0  1  0.50000000  0.00000000  0.50000000  1
  Si  Si1  1  0.92831200  0.88837900  0.44423300  1
  Si  Si2  1  0.89967100  0.89849800  0.94979500  1
  Si  Si3  1  0.10032900  0.10150200  0.05020500  1
  Si  Si4  1  0.07168800  0.11162100  0.55576700  1
loop_
_geom_bond_atom_site_label_1
_geom_bond_atom_site_label_2
_geom_bond_distance
_geom_bond_site_symmetry_2
Dy0 Fe22 2.862244 1_555
Dy0 Fe14 2.900965 1_565
Dy0 Fe12 2.912004 1_555
Dy0 Fe18 2.914151 1_555
Dy0 Fe20 2.918400 1_655
Dy0 Fe16 2.936519 1_655
Dy0 Fe4 3.037071 1_555
Dy0 Fe2 3.064774 1_555
Dy0 Si1 3.073035 1_555
Dy0 Fe0 3.098295 1_555
Dy0 Fe10 3.155895 1_555
Dy0 Fe6 3.160160 1_555
Dy0 Fe7 3.174994 1_555
Dy0 Fe8 3.175349 1_555
Dy0 Fe8 3.191350 1_565
Dy0 Fe10 3.215399 1_655
Dy0 Fe27 3.241366 1_655
Dy0 Fe24 3.262512 1_655
Dy0 Si0 3.339677 1_565
Dy1 Fe15 2.883091 1_565
Dy1 Fe23 2.917323 1_556
Dy1 Fe19 2.929943 1_555
Dy1 Fe13 2.935217 1_555
Dy1 Fe17 2.943718 1_555
Dy1 Fe21 2.972388 1_555
Dy1 Fe5 3.007468 1_555
Dy1 Fe1 3.048237 1_555
Dy1 Si2 3.056040 1_555
Dy1 Fe3 3.072821 1_555
Dy1 Fe11 3.169947 1_555
Dy1 Fe9 3.174420 1_555
Dy1 Fe7 3.189996 1_555
Dy1 Fe9 3.191640 1_565
Dy1 Fe11 3.202108 1_655
Dy1 Fe6 3.220599 1_556
Dy1 Fe25 3.260203 1_565
Dy1 Fe26 3.285476 1_656
Dy1 Fe28 3.315318 1_566
Dy2 Fe18 2.883091 1_545
Dy2 Fe13 2.917323 1_554
Dy2 Fe14 2.929943 1_555
Dy2 Fe23 2.935217 1_555
Dy2 Fe20 2.943718 1_555
Dy2 Fe16 2.972388 1_555
Dy2 Fe10 3.007468 1_555
Dy2 Fe6 3.048237 1_555
Dy2 Si3 3.056040 1_555
Dy2 Fe8 3.072821 1_555
Dy2 Fe4 3.169947 1_555
Dy2 Fe2 3.174420 1_555
Dy2 Fe0 3.189996 1_555
Dy2 Fe2 3.191640 1_545
Dy2 Fe4 3.202108 1_455
Dy2 Fe1 3.220599 1_554
Dy2 Fe24 3.260203 1_545
Dy2 Fe26 3.285476 1_555
Dy2 Fe28 3.315318 1_555
Dy3 Fe12 2.862244 1_555
Dy3 Fe19 2.900965 1_545
Dy3 Fe22 2.912004 1_555
Dy3 Fe15 2.914151 1_555
Dy3 Fe17 2.918400 1_455
Dy3 Fe21 2.936519 1_455
Dy3 Fe11 3.037071 1_555
Dy3 Fe9 3.064774 1_555
Dy3 Si4 3.073035 1_555
Dy3 Fe7 3.098295 1_555
Dy3 Fe5 3.155895 1_555
Dy3 Fe1 3.160160 1_555
Dy3 Fe0 3.174994 1_555
Dy3 Fe3 3.175349 1_555
Dy3 Fe3 3.191350 1_545
Dy3 Fe5 3.215399 1_455
Dy3 Fe27 3.241366 1_555
Dy3 Fe25 3.262512 1_455
Dy3 Si0 3.339677 1_555
Fe0 Si0 2.357489 1_555
Fe0 Fe27 2.407196 1_555
Fe0 Fe10 2.425560 1_555
Fe0 Fe16 2.495898 1_555
Fe0 Fe8 2.502629 1_555
Fe0 Fe22 2.513802 1_555
Fe0 Fe18 2.540328 1_545
Fe0 Fe12 2.550354 1_555
Fe0 Si4 2.605630 1_555
Fe1 Fe28 2.394516 1_556
Fe1 Fe26 2.417523 1_556
Fe1 Fe11 2.441967 1_555
Fe1 Fe9 2.456307 1_555
Fe1 Fe17 2.514728 1_455
Fe1 Fe19 2.533391 1_545
Fe1 Si3 2.540810 1_556
Fe1 Fe23 2.572152 1_556
Fe1 Fe13 2.583452 1_555
Fe2 Fe28 2.384927 1_565
Fe2 Fe24 2.410599 1_555
Fe2 Fe6 2.456307 1_555
Fe2 Fe20 2.519147 1_555
Fe2 Si3 2.554876 1_565
Fe3 Si0 2.370405 1_565
Fe3 Fe7 2.502629 1_555
Fe3 Si4 2.601501 1_565
Fe4 Fe6 2.441967 1_555
Fe4 Fe8 2.456229 1_555
Fe4 Si3 2.582546 1_655
Fe5 Fe9 2.423328 1_555
Fe5 Fe7 2.425560 1_555
Fe5 Si4 2.485299 1_655
Fe6 Si2 2.540810 1_554
Fe7 Si0 2.357489 1_565
Fe7 Si1 2.605630 1_555
Fe8 Si0 2.370405 1_555
Fe8 Si1 2.601501 1_545
Fe9 Si2 2.554876 1_545
Fe10 Fe2 2.423328 1_555
Fe10 Fe27 2.423736 1_555
Fe10 Fe24 2.425857 1_555
Fe10 Si1 2.485299 1_455
Fe10 Fe12 2.529826 1_555
Fe10 Fe18 2.536642 1_555
Fe10 Fe20 2.583119 1_555
Fe10 Fe16 2.609635 1_555
Fe11 Fe26 2.403146 1_556
Fe11 Fe25 2.405005 1_465
Fe11 Fe3 2.456229 1_555
Fe11 Fe19 2.516818 1_555
Fe11 Fe13 2.528713 1_555
Fe11 Si2 2.582546 1_455
Fe11 Fe17 2.582749 1_455
Fe11 Fe21 2.615556 1_455
Fe12 Si0 2.440575 1_565
Fe12 Fe27 2.466731 1_555
Fe12 Fe7 2.513802 1_555
Fe12 Fe18 2.541617 1_555
Fe12 Fe3 2.542917 1_555
Fe12 Fe21 2.570807 1_455
Fe12 Si1 2.742798 1_455
Fe12 Si4 3.062378 1_565
Fe13 Fe28 2.436459 1_566
Fe13 Fe26 2.441147 1_556
Fe13 Fe19 2.527773 1_555
Fe13 Fe2 2.537173 1_556
Fe13 Fe20 2.540377 1_556
Fe13 Fe6 2.572152 1_556
Fe13 Si2 2.834678 1_455
Fe13 Si3 2.859371 1_566
Fe14 Fe24 2.444423 1_645
Fe14 Fe28 2.452111 1_555
Fe14 Fe4 2.516818 1_555
Fe14 Fe23 2.527773 1_555
Fe14 Fe6 2.533391 1_545
Fe14 Fe20 2.542693 1_645
Fe14 Fe2 2.557869 1_545
Fe14 Fe8 2.584040 1_555
Fe14 Si3 2.836570 1_655
Fe14 Si2 2.863169 1_544
Fe15 Si0 2.425426 1_555
Fe15 Fe25 2.460868 1_555
Fe15 Fe3 2.530332 1_545
Fe15 Fe5 2.536642 1_555
Fe15 Fe7 2.540328 1_545
Fe15 Fe22 2.541617 1_555
Fe15 Fe9 2.553491 1_555
Fe15 Fe21 2.571193 1_545
Fe15 Si4 2.735011 1_655
Fe15 Si1 3.050579 1_545
Fe16 Fe27 2.439830 1_555
Fe16 Fe24 2.448081 1_545
Fe16 Fe8 2.489879 1_455
Fe16 Fe22 2.570807 1_455
Fe16 Fe18 2.571193 1_545
Fe16 Fe4 2.615556 1_455
Fe16 Si4 2.728405 1_555
Fe16 Si1 2.729530 1_445
Fe17 Fe25 2.443814 1_555
Fe17 Fe26 2.451771 1_656
Fe17 Fe9 2.519147 1_555
Fe17 Fe23 2.540377 1_556
Fe17 Fe19 2.542693 1_645
Fe17 Fe5 2.583119 1_555
Fe17 Si3 2.793171 1_656
Fe17 Si2 2.795472 1_545
Fe18 Si0 2.425426 1_565
Fe18 Fe24 2.460868 1_555
Fe18 Fe8 2.530332 1_565
Fe18 Fe2 2.553491 1_555
Fe18 Si1 2.735011 1_455
Fe18 Si4 3.050579 1_565
Fe19 Fe25 2.444423 1_465
Fe19 Fe28 2.452111 1_566
Fe19 Fe9 2.557869 1_565
Fe19 Fe3 2.584040 1_555
Fe19 Si2 2.836570 1_455
Fe19 Si3 2.863169 1_566
Fe20 Fe24 2.443814 1_555
Fe20 Fe26 2.451771 1_555
Fe20 Fe6 2.514728 1_455
Fe20 Fe4 2.582749 1_455
Fe20 Si2 2.793171 1_454
Fe20 Si3 2.795472 1_565
Fe21 Fe27 2.439830 1_655
Fe21 Fe25 2.448081 1_565
Fe21 Fe3 2.489879 1_655
Fe21 Fe7 2.495898 1_555
Fe21 Fe5 2.609635 1_555
Fe21 Si1 2.728405 1_555
Fe21 Si4 2.729530 1_665
Fe22 Si0 2.440575 1_555
Fe22 Fe27 2.466731 1_655
Fe22 Fe5 2.529826 1_555
Fe22 Fe8 2.542917 1_555
Fe22 Fe7 2.550354 1_555
Fe22 Si4 2.742798 1_655
Fe22 Si1 3.062378 1_545
Fe23 Fe28 2.436459 1_555
Fe23 Fe26 2.441147 1_655
Fe23 Fe4 2.528713 1_555
Fe23 Fe9 2.537173 1_554
Fe23 Fe6 2.583452 1_555
Fe23 Si3 2.834678 1_655
Fe23 Si2 2.859371 1_544
Fe24 Fe4 2.405005 1_465
Fe24 Fe8 2.417182 1_465
Fe24 Si1 2.469431 1_455
Fe24 Si3 2.546379 1_565
Fe25 Fe9 2.410599 1_555
Fe25 Fe3 2.417182 1_645
Fe25 Fe5 2.425857 1_555
Fe25 Si4 2.469431 1_655
Fe25 Si2 2.546379 1_545
Fe26 Fe4 2.403146 1_455
Fe26 Fe6 2.417523 1_455
Fe26 Si3 2.538082 1_555
Fe26 Si2 2.538082 1_454
Fe27 Fe7 2.407196 1_455
Fe27 Fe5 2.423736 1_455
Fe27 Si4 2.466282 1_555
Fe27 Si1 2.466282 1_455
Fe28 Fe9 2.384927 1_554
Fe28 Fe6 2.394516 1_545
Fe28 Si3 2.563411 1_555
Fe28 Si2 2.563411 1_544
Si0 Si1 2.754087 1_545
Si0 Si4 2.754087 1_555
Si1 Si4 2.482880 1_665
Si2 Si3 2.510896 1_666
