# generated using pymatgen
data_Ho2FeMoO7
_symmetry_space_group_name_H-M   'P 1'
_cell_length_a   7.18911000
_cell_length_b   7.19777876
_cell_length_c   7.22020085
_cell_angle_alpha   61.00038997
_cell_angle_beta   61.36793045
_cell_angle_gamma   60.47222775
_symmetry_Int_Tables_number   1
_chemical_formula_structural   Ho2FeMoO7
_chemical_formula_sum   'Ho4 Fe2 Mo2 O14'
_cell_volume   269.78897279
_cell_formula_units_Z   2
loop_
 _symmetry_equiv_pos_site_id
 _symmetry_equiv_pos_as_xyz
  1  'x, y, z'
loop_
 _atom_site_type_symbol
 _atom_site_label
 _atom_site_symmetry_multiplicity
 _atom_site_fract_x
 _atom_site_fract_y
 _atom_site_fract_z
 _atom_site_occupancy
  Ho  Ho0  1  0.50000000  0.00000000  0.00000000  1
  Ho  Ho1  1  0.00000000  0.00000000  0.50000000  1
  Ho  Ho2  1  0.00000000  0.50000000  0.00000000  1
  Ho  Ho3  1  0.50000000  0.50000000  0.50000000  1
  Fe  Fe0  1  0.50000000  0.00000000  0.50000000  1
  Fe  Fe1  1  0.00000000  0.50000000  0.50000000  1
  Mo  Mo0  1  0.50000000  0.50000000  0.00000000  1
  Mo  Mo1  1  0.00000000  0.00000000  0.00000000  1
  O  O0  1  0.12039800  0.11598700  0.10711000  1
  O  O1  1  0.87960200  0.88401300  0.89289000  1
  O  O2  1  0.39132700  0.87577200  0.39277400  1
  O  O3  1  0.87936500  0.39574900  0.39098000  1
  O  O4  1  0.39925000  0.39710100  0.86702900  1
  O  O5  1  0.60867300  0.12422800  0.60722600  1
  O  O6  1  0.12063500  0.60425100  0.60902000  1
  O  O7  1  0.60075000  0.60289900  0.13297100  1
  O  O8  1  0.83118200  0.38078100  0.85437700  1
  O  O9  1  0.40145000  0.83084100  0.83060100  1
  O  O10  1  0.85109600  0.84659100  0.35614500  1
  O  O11  1  0.16881800  0.61921900  0.14562300  1
  O  O12  1  0.59855000  0.16915900  0.16939900  1
  O  O13  1  0.14890400  0.15340900  0.64385500  1
loop_
_geom_bond_atom_site_label_1
_geom_bond_atom_site_label_2
_geom_bond_distance
_geom_bond_site_symmetry_2
Ho0 O0 2.258359 1_555
Ho0 O1 2.258359 1_544
Ho0 O2 2.357712 1_545
Ho0 O5 2.357712 1_554
Ho0 O4 2.362418 1_554
Ho0 O7 2.362418 1_545
Ho0 O9 2.570036 1_544
Ho0 O12 2.570036 1_555
Ho1 O2 2.327624 1_545
Ho1 O5 2.327624 1_455
Ho1 O6 2.351788 1_545
Ho1 O3 2.351788 1_455
Ho1 O1 2.357146 1_445
Ho1 O0 2.357146 1_555
Ho1 O13 2.605143 1_555
Ho1 O10 2.605143 1_445
Ho2 O1 2.279887 1_454
Ho2 O0 2.279887 1_555
Ho2 O3 2.350645 1_455
Ho2 O6 2.350645 1_554
Ho2 O7 2.379446 1_455
Ho2 O4 2.379446 1_554
Ho2 O11 2.537540 1_555
Ho2 O8 2.537540 1_454
Ho3 O7 2.209522 1_555
Ho3 O4 2.209522 1_555
Ho3 O2 2.234221 1_555
Ho3 O5 2.234221 1_555
Ho3 O3 2.262498 1_555
Ho3 O6 2.262498 1_555
Fe0 O2 1.987144 1_545
Fe0 O5 1.987144 1_555
Fe0 O12 2.023301 1_555
Fe0 O9 2.023301 1_545
Fe0 O13 2.126342 1_555
Fe0 O10 2.126342 1_545
Fe1 O6 1.950179 1_555
Fe1 O3 1.950179 1_455
Fe1 O13 2.090239 1_555
Fe1 O10 2.090239 1_455
Fe1 O11 2.162802 1_555
Fe1 O8 2.162802 1_455
Mo0 O7 1.969668 1_555
Mo0 O4 1.969668 1_554
Mo0 O11 1.993090 1_555
Mo0 O8 1.993090 1_554
Mo0 O12 2.003002 1_555
Mo0 O9 2.003002 1_554
Mo1 O1 2.005998 1_444
Mo1 O0 2.005998 1_555
Mo1 O10 2.179781 1_445
Mo1 O13 2.179781 1_554
Mo1 O8 2.289182 1_454
Mo1 O11 2.289182 1_545
Mo1 O9 2.430039 1_544
Mo1 O12 2.430039 1_455
