# generated using pymatgen
data_Zr6Fe(SnH5)2
_symmetry_space_group_name_H-M   'P 1'
_cell_length_a   8.19053579
_cell_length_b   8.19053579
_cell_length_c   7.33985000
_cell_angle_alpha   90.00000000
_cell_angle_beta   90.00000000
_cell_angle_gamma   119.99999827
_symmetry_Int_Tables_number   1
_chemical_formula_structural   Zr6Fe(SnH5)2
_chemical_formula_sum   'Zr12 Fe2 Sn4 H20'
_cell_volume   426.42479391
_cell_formula_units_Z   2
loop_
 _symmetry_equiv_pos_site_id
 _symmetry_equiv_pos_as_xyz
  1  'x, y, z'
loop_
 _atom_site_type_symbol
 _atom_site_label
 _atom_site_symmetry_multiplicity
 _atom_site_fract_x
 _atom_site_fract_y
 _atom_site_fract_z
 _atom_site_occupancy
  Zr  Zr0  1  0.74576400  0.00000000  0.00000000  1
  Zr  Zr1  1  0.00000000  0.74576400  0.00000000  1
  Zr  Zr2  1  0.74576400  0.00000000  0.50000000  1
  Zr  Zr3  1  0.25423600  0.25423600  0.00000000  1
  Zr  Zr4  1  0.00000000  0.74576400  0.50000000  1
  Zr  Zr5  1  0.25423600  0.25423600  0.50000000  1
  Zr  Zr6  1  0.42101300  0.04663600  0.25000000  1
  Zr  Zr7  1  0.95336400  0.37437800  0.25000000  1
  Zr  Zr8  1  0.04663600  0.42101300  0.75000000  1
  Zr  Zr9  1  0.62562200  0.57898700  0.25000000  1
  Zr  Zr10  1  0.37437800  0.95336400  0.75000000  1
  Zr  Zr11  1  0.57898700  0.62562200  0.75000000  1
  Fe  Fe0  1  0.00000000  0.00000000  0.25000000  1
  Fe  Fe1  1  0.00000000  0.00000000  0.75000000  1
  Sn  Sn0  1  0.33333300  0.66666700  0.04292800  1
  Sn  Sn1  1  0.33333300  0.66666700  0.45707200  1
  Sn  Sn2  1  0.66666700  0.33333300  0.95707200  1
  Sn  Sn3  1  0.66666700  0.33333300  0.54292800  1
  H  H0  1  0.27915300  0.00000000  0.00000000  1
  H  H1  1  0.00000000  0.27915300  0.00000000  1
  H  H2  1  0.27915300  0.00000000  0.50000000  1
  H  H3  1  0.72084700  0.72084700  0.00000000  1
  H  H4  1  0.00000000  0.27915300  0.50000000  1
  H  H5  1  0.72084700  0.72084700  0.50000000  1
  H  H6  1  0.40347700  0.29158400  0.25000000  1
  H  H7  1  0.70841600  0.11189300  0.25000000  1
  H  H8  1  0.29158400  0.40347700  0.75000000  1
  H  H9  1  0.88810700  0.59652300  0.25000000  1
  H  H10  1  0.11189300  0.70841600  0.75000000  1
  H  H11  1  0.59652300  0.88810700  0.75000000  1
  H  H12  1  0.11837200  0.23703100  0.25000000  1
  H  H13  1  0.76296900  0.88134100  0.25000000  1
  H  H14  1  0.23703100  0.11837200  0.75000000  1
  H  H15  1  0.11865900  0.88162800  0.25000000  1
  H  H16  1  0.88134100  0.76296900  0.75000000  1
  H  H17  1  0.88162800  0.11865900  0.75000000  1
  H  H18  1  0.00000000  0.00000000  0.00000000  1
  H  H19  1  0.00000000  0.00000000  0.50000000  1
loop_
_geom_bond_atom_site_label_1
_geom_bond_atom_site_label_2
_geom_bond_distance
_geom_bond_site_symmetry_2
Fe0 H15 1.681312 1_545
Fe0 H12 1.681312 1_555
Fe0 H13 1.681312 1_445
Fe0 H18 1.834963 1_555
Fe0 H19 1.834963 1_555
Fe1 H17 1.681312 1_455
Fe1 H14 1.681312 1_555
Fe1 H16 1.681312 1_445
Fe1 H18 1.834963 1_556
Fe1 H19 1.834963 1_555
Sn0 Sn1 3.039755 1_555
Sn0 Zr10 3.075769 1_554
Sn0 Zr8 3.075774 1_554
Sn0 Zr11 3.075781 1_554
Sn0 Zr1 3.121150 1_555
Sn0 Zr0 3.121156 1_565
Sn0 Zr3 3.121158 1_555
Sn0 Zr9 3.205660 1_555
Sn0 Zr6 3.205660 1_565
Sn0 Zr7 3.205660 1_455
Sn1 Zr10 3.075769 1_555
Sn1 Zr8 3.075774 1_555
Sn1 Zr11 3.075781 1_555
Sn1 Zr4 3.121150 1_555
Sn1 Zr2 3.121156 1_565
Sn1 Zr5 3.121158 1_555
Sn1 Zr9 3.205660 1_555
Sn1 Zr6 3.205660 1_565
Sn1 Zr7 3.205660 1_455
Sn2 Sn3 3.039755 1_555
Sn2 Zr7 3.075769 1_556
Sn2 Zr6 3.075774 1_556
Sn2 Zr9 3.075781 1_556
Sn2 Zr0 3.121150 1_556
Sn2 Zr1 3.121156 1_656
Sn2 Zr3 3.121158 1_556
Sn2 Zr11 3.205660 1_555
Sn2 Zr8 3.205660 1_655
Sn2 Zr10 3.205660 1_545
Sn3 Zr7 3.075769 1_555
Sn3 Zr6 3.075774 1_555
Sn3 Zr9 3.075781 1_555
Sn3 Zr2 3.121150 1_555
Sn3 Zr4 3.121156 1_655
Sn3 Zr5 3.121158 1_555
Sn3 Zr11 3.205660 1_555
Sn3 Zr8 3.205660 1_655
Sn3 Zr10 3.205660 1_545
H0 Zr6 2.102191 1_555
H0 Zr10 2.102195 1_544
H0 Zr3 2.191509 1_555
H0 Zr1 2.191509 1_545
H1 Zr8 2.102191 1_554
H1 Zr7 2.102195 1_455
H1 Zr3 2.191509 1_555
H1 Zr0 2.191509 1_455
H2 Zr6 2.102191 1_555
H2 Zr10 2.102195 1_545
H2 Zr5 2.191509 1_555
H2 Zr4 2.191509 1_545
H3 Zr9 2.102192 1_555
H3 Zr11 2.102192 1_554
H3 Zr0 2.191509 1_565
H3 Zr1 2.191509 1_655
H4 Zr8 2.102191 1_555
H4 Zr7 2.102195 1_455
H4 Zr5 2.191509 1_555
H4 Zr2 2.191509 1_455
H5 Zr9 2.102192 1_555
H5 Zr11 2.102192 1_555
H5 Zr2 2.191509 1_565
H5 Zr4 2.191509 1_655
H6 Zr6 2.081789 1_555
H6 Zr9 2.137459 1_555
H6 Zr3 2.140307 1_555
H6 Zr5 2.140307 1_555
H7 Zr7 2.081794 1_555
H7 Zr6 2.137462 1_555
H7 Zr0 2.140307 1_555
H7 Zr2 2.140307 1_555
H8 Zr8 2.081789 1_555
H8 Zr11 2.137459 1_555
H8 Zr5 2.140307 1_555
H8 Zr3 2.140307 1_556
H9 Zr9 2.081798 1_555
H9 Zr7 2.137454 1_555
H9 Zr1 2.140307 1_655
H9 Zr4 2.140307 1_655
H10 Zr10 2.081794 1_555
H10 Zr8 2.137462 1_555
H10 Zr4 2.140307 1_555
H10 Zr1 2.140307 1_556
H11 Zr11 2.081798 1_555
H11 Zr10 2.137454 1_555
H11 Zr0 2.140307 1_566
H11 Zr2 2.140307 1_565
H12 Zr5 2.113872 1_555
H12 Zr3 2.113872 1_555
H12 Zr7 2.147658 1_455
H13 Zr2 2.113872 1_565
H13 Zr0 2.113872 1_565
H13 Zr9 2.147650 1_555
H14 Zr3 2.113872 1_556
H14 Zr5 2.113872 1_555
H14 Zr10 2.147658 1_545
H15 Zr1 2.113872 1_555
H15 Zr4 2.113872 1_555
H15 Zr6 2.147651 1_565
H16 Zr4 2.113872 1_655
H16 Zr1 2.113872 1_656
H16 Zr11 2.147650 1_555
H17 Zr0 2.113872 1_556
H17 Zr2 2.113872 1_555
H17 Zr8 2.147651 1_655
H18 Zr0 2.082329 1_455
H18 Zr1 2.082329 1_545
H18 Zr3 2.082329 1_555
H19 Zr2 2.082329 1_455
H19 Zr4 2.082329 1_545
H19 Zr5 2.082329 1_555
