# generated using pymatgen
data_V12Cu10O33
_symmetry_space_group_name_H-M   'P 1'
_cell_length_a   5.63317786
_cell_length_b   18.90455974
_cell_length_c   13.51170666
_cell_angle_alpha   33.92184036
_cell_angle_beta   103.40332977
_cell_angle_gamma   92.27279032
_symmetry_Int_Tables_number   1
_chemical_formula_structural   V12Cu10O33
_chemical_formula_sum   'V12 Cu10 O33'
_cell_volume   749.58594593
_cell_formula_units_Z   1
loop_
 _symmetry_equiv_pos_site_id
 _symmetry_equiv_pos_as_xyz
  1  'x, y, z'
loop_
 _atom_site_type_symbol
 _atom_site_label
 _atom_site_symmetry_multiplicity
 _atom_site_fract_x
 _atom_site_fract_y
 _atom_site_fract_z
 _atom_site_occupancy
  V  V0  1  0.03517300  0.24092200  0.23113800  1
  V  V1  1  0.16950500  0.57246600  0.22904200  1
  V  V2  1  0.16968800  0.89507600  0.23795700  1
  V  V3  1  0.23024100  0.27464200  0.66141200  1
  V  V4  1  0.24186100  0.59275400  0.68291300  1
  V  V5  1  0.25406000  0.93938700  0.64812900  1
  V  V6  1  0.76062100  0.05888900  0.34946000  1
  V  V7  1  0.72787000  0.40244000  0.34439200  1
  V  V8  1  0.69657000  0.75237900  0.31246400  1
  V  V9  1  0.99234300  0.09797400  0.76317000  1
  V  V10  1  0.95211000  0.43272200  0.77108900  1
  V  V11  1  0.99746900  0.75921700  0.77320800  1
  Cu  Cu0  1  0.20180400  0.56846100  0.46487500  1
  Cu  Cu1  1  0.25194600  0.15095500  0.03010800  1
  Cu  Cu2  1  0.27270900  0.46145100  0.05668500  1
  Cu  Cu3  1  0.24852000  0.81160100  0.01353300  1
  Cu  Cu4  1  0.61615900  0.17548400  0.43874200  1
  Cu  Cu5  1  0.64492200  0.52306000  0.42496100  1
  Cu  Cu6  1  0.62701100  0.80882200  0.49379300  1
  Cu  Cu7  1  0.74006800  0.17394900  0.98122900  1
  Cu  Cu8  1  0.72912400  0.53300400  0.96834600  1
  Cu  Cu9  1  0.73312700  0.87410200  0.94943600  1
  O  O0  1  0.05565100  0.01964000  0.16738500  1
  O  O1  1  0.03819100  0.35946100  0.18061500  1
  O  O2  1  0.09046800  0.68327000  0.20083800  1
  O  O3  1  0.06630600  0.05186400  0.35741300  1
  O  O4  1  0.04114500  0.42133900  0.34782600  1
  O  O5  1  0.01145600  0.76378500  0.32720900  1
  O  O6  1  0.32613900  0.10706900  0.45592100  1
  O  O7  1  0.26797700  0.43269400  0.51448900  1
  O  O8  1  0.31650700  0.74653900  0.52143900  1
  O  O9  1  0.27387200  0.14557000  0.71152800  1
  O  O10  1  0.25818900  0.48729800  0.69482900  1
  O  O11  1  0.31069400  0.79589200  0.74169300  1
  O  O12  1  0.41522400  0.18110300  0.87934000  1
  O  O13  1  0.43158000  0.50013100  0.89850700  1
  O  O14  1  0.41423400  0.87774500  0.84286700  1
  O  O15  1  0.57263800  0.14189700  0.14006400  1
  O  O16  1  0.57646500  0.48082400  0.13467400  1
  O  O17  1  0.55859800  0.83087000  0.10368900  1
  O  O18  1  0.73919100  0.19845200  0.28247700  1
  O  O19  1  0.53448600  0.50117900  0.31007500  1
  O  O20  1  0.53066500  0.84344000  0.29391000  1
  O  O21  1  0.72113300  0.23343000  0.50765100  1
  O  O22  1  0.69943400  0.57883900  0.49427800  1
  O  O23  1  0.72844200  0.88959800  0.52354500  1
  O  O24  1  0.91249200  0.26912800  0.64947700  1
  O  O25  1  0.92256700  0.59388900  0.67055000  1
  O  O26  1  0.93515800  0.94487100  0.63306500  1
  O  O27  1  0.93254400  0.30585300  0.83623000  1
  O  O28  1  0.96287000  0.63056100  0.84137300  1
  O  O29  1  0.95226000  0.98039300  0.81019600  1
  O  O30  1  0.03803500  0.00259500  0.98472800  1
  O  O31  1  0.03430000  0.32122400  0.02483500  1
  O  O32  1  0.01559100  0.67523500  0.99400300  1
loop_
_geom_bond_atom_site_label_1
_geom_bond_atom_site_label_2
_geom_bond_distance
_geom_bond_site_symmetry_2
Cu0 O10 1.943776 1_555
Cu0 O2 2.012924 1_555
Cu0 O7 2.068918 1_555
Cu0 O5 2.496971 1_555
Cu1 O15 1.964213 1_555
Cu1 O0 1.979181 1_555
Cu1 O27 2.043650 1_454
Cu1 O12 2.054497 1_554
Cu2 O1 1.931868 1_555
Cu2 O16 1.981741 1_555
Cu2 O13 2.035850 1_554
Cu2 O28 2.093699 1_454
Cu3 O2 1.940876 1_555
Cu3 O14 1.967884 1_554
Cu3 O29 2.064653 1_454
Cu3 O17 2.089776 1_555
Cu4 O21 1.950038 1_555
Cu4 O6 1.976290 1_555
Cu4 O18 2.063970 1_555
Cu5 O22 1.887709 1_555
Cu5 O19 1.888202 1_555
Cu5 O7 2.522707 1_555
Cu6 O23 1.913896 1_555
Cu6 O8 1.998738 1_555
Cu6 O20 2.105294 1_555
Cu7 O12 1.950596 1_555
Cu7 O27 1.973464 1_555
Cu7 O0 2.039066 1_656
Cu7 O15 2.144185 1_556
Cu8 O28 1.918875 1_555
Cu8 O16 1.978086 1_556
Cu8 O13 2.059947 1_555
Cu8 O1 2.131314 1_656
Cu9 O29 1.925348 1_555
Cu9 O14 1.987752 1_555
Cu9 O17 2.009432 1_556
Cu9 O2 2.381976 1_656
O0 V2 1.725282 1_545
O1 V0 1.718024 1_555
O2 V1 1.844383 1_555
O3 V6 1.703837 1_455
O3 V5 2.336738 1_545
O3 V0 2.346582 1_555
O4 V7 1.784272 1_455
O4 V1 2.006347 1_555
O4 V3 2.327922 1_555
O5 V8 1.763436 1_455
O5 V2 1.940247 1_555
O6 V0 1.892223 1_555
O6 V5 1.918913 1_545
O7 V3 1.793043 1_555
O7 V1 2.091957 1_555
O8 V4 1.786229 1_555
O8 V2 2.026299 1_555
O9 V9 1.780299 1_455
O9 V3 1.923814 1_555
O10 V4 1.866494 1_555
O10 V10 2.004321 1_455
O11 V5 1.802491 1_555
O11 V11 1.880597 1_455
O12 V3 1.722069 1_555
O13 V4 1.712866 1_555
O14 V5 1.729028 1_555
O15 V6 1.721407 1_555
O16 V7 1.721625 1_555
O17 V8 1.700496 1_555
O18 V0 1.847021 1_655
O18 V6 1.951006 1_555
O19 V7 1.837573 1_555
O19 V1 1.992344 1_555
O20 V8 1.789549 1_555
O20 V2 1.969594 1_555
O21 V7 1.846132 1_555
O21 V9 2.000930 1_555
O22 V8 1.846246 1_555
O22 V10 2.083954 1_555
O23 V6 1.861836 1_565
O23 V11 1.969436 1_555
O24 V3 1.766359 1_655
O24 V9 2.139473 1_555
O24 V7 2.324815 1_555
O25 V4 1.766717 1_655
O25 V10 2.054867 1_555
O26 V5 1.757720 1_655
O26 V11 2.187906 1_555
O26 V6 2.238397 1_565
O27 V10 1.749223 1_555
O28 V11 1.769109 1_555
O29 V9 1.754524 1_565
O30 V9 1.732227 1_455
O30 V2 1.946722 1_546
O31 V0 1.745328 1_555
O31 V10 1.939106 1_454
O32 V1 1.797016 1_556
O32 V11 1.855338 1_455
