# generated using pymatgen
data_Mg6MnC
_symmetry_space_group_name_H-M   'P 1'
_cell_length_a   6.00442114
_cell_length_b   6.00442114
_cell_length_c   4.65945200
_cell_angle_alpha   90.00000000
_cell_angle_beta   90.00000000
_cell_angle_gamma   118.43974426
_symmetry_Int_Tables_number   1
_chemical_formula_structural   Mg6MnC
_chemical_formula_sum   'Mg6 Mn1 C1'
_cell_volume   147.71456205
_cell_formula_units_Z   1
loop_
 _symmetry_equiv_pos_site_id
 _symmetry_equiv_pos_as_xyz
  1  'x, y, z'
loop_
 _atom_site_type_symbol
 _atom_site_label
 _atom_site_symmetry_multiplicity
 _atom_site_fract_x
 _atom_site_fract_y
 _atom_site_fract_z
 _atom_site_occupancy
  Mg  Mg0  1  0.66363400  0.83623900  0.00000000  1
  Mg  Mg1  1  0.16376100  0.33636600  0.00000000  1
  Mg  Mg2  1  0.84708800  0.66758200  0.50000000  1
  Mg  Mg3  1  0.33241800  0.15291200  0.50000000  1
  Mg  Mg4  1  0.82841800  0.17158200  0.50000000  1
  Mg  Mg5  1  0.32383200  0.67616800  0.50000000  1
  Mn  Mn0  1  0.66672800  0.33327200  0.00000000  1
  C  C0  1  0.17412500  0.82587500  0.00000000  1
loop_
_geom_bond_atom_site_label_1
_geom_bond_atom_site_label_2
_geom_bond_distance
_geom_bond_site_symmetry_2
Mg0 Mg4 2.926325 1_564
Mg0 Mg4 2.926325 1_565
Mg0 Mg5 2.940490 1_555
Mg0 Mg5 2.940490 1_554
Mg0 Mg2 2.954493 1_554
Mg0 Mg2 2.954493 1_555
Mg0 Mn0 2.975593 1_565
Mg0 Mn0 3.028917 1_555
Mg0 Mg1 3.071952 1_555
Mg0 Mg1 3.073512 1_665
Mg1 Mg4 2.926325 1_455
Mg1 Mg4 2.926325 1_454
Mg1 Mg5 2.940490 1_555
Mg1 Mg5 2.940490 1_554
Mg1 Mg3 2.954493 1_554
Mg1 Mg3 2.954493 1_555
Mg1 Mn0 2.975593 1_455
Mg1 Mn0 3.028917 1_555
Mg2 Mg5 2.838382 1_655
Mg2 Mn0 2.925627 1_555
Mg2 Mn0 2.925627 1_556
Mg2 Mg4 2.926466 1_555
Mg2 Mg3 2.982578 1_665
Mg2 Mg4 3.081193 1_565
Mg2 Mg3 3.162886 1_555
Mg2 Mg5 3.166726 1_555
Mg3 Mg5 2.838382 1_545
Mg3 Mn0 2.925627 1_555
Mg3 Mn0 2.925627 1_556
Mg3 Mg4 2.926466 1_555
Mg3 Mg4 3.081193 1_455
Mg3 Mg5 3.166726 1_555
Mg4 Mn0 2.865397 1_556
Mg4 Mn0 2.865397 1_555
Mg4 Mg5 3.073096 1_655
Mg4 Mg5 3.073096 1_545
C0 Mg5 2.795228 1_555
C0 Mg5 2.795228 1_554
C0 Mg3 2.899882 1_565
C0 Mg3 2.899882 1_564
C0 Mg2 2.899882 1_455
C0 Mg2 2.899882 1_454
C0 Mg0 2.910097 1_555
C0 Mg1 2.910097 1_555
