# generated using pymatgen
data_Sc4Co3Sb4
_symmetry_space_group_name_H-M   'P 1'
_cell_length_a   4.30186516
_cell_length_b   6.90762336
_cell_length_c   7.28087439
_cell_angle_alpha   89.63482541
_cell_angle_beta   90.00000000
_cell_angle_gamma   90.00000000
_symmetry_Int_Tables_number   1
_chemical_formula_structural   Sc4Co3Sb4
_chemical_formula_sum   'Sc4 Co3 Sb4'
_cell_volume   216.35162482
_cell_formula_units_Z   1
loop_
 _symmetry_equiv_pos_site_id
 _symmetry_equiv_pos_as_xyz
  1  'x, y, z'
loop_
 _atom_site_type_symbol
 _atom_site_label
 _atom_site_symmetry_multiplicity
 _atom_site_fract_x
 _atom_site_fract_y
 _atom_site_fract_z
 _atom_site_occupancy
  Sc  Sc0  1  0.50000000  0.49703790  0.72908938  1
  Sc  Sc1  1  0.50000000  0.99472984  0.77639936  1
  Sc  Sc2  1  0.00000000  0.50280427  0.27484826  1
  Sc  Sc3  1  0.00000000  0.00970145  0.21888653  1
  Co  Co0  1  0.50000000  0.14117890  0.42984043  1
  Co  Co1  1  -0.00000000  0.35252856  0.93243847  1
  Co  Co2  1  -0.00000000  0.86023654  0.56795708  1
  Sb  Sb0  1  0.50000000  0.76189465  0.40077162  1
  Sb  Sb1  1  0.50000000  0.26614130  0.09259903  1
  Sb  Sb2  1  -0.00000000  0.23449089  0.59786912  1
  Sb  Sb3  1  -0.00000000  0.72655569  0.90960173  1
loop_
_geom_bond_atom_site_label_1
_geom_bond_atom_site_label_2
_geom_bond_distance
_geom_bond_site_symmetry_2
Co0 Sb2 2.559047 1_555
Co0 Sb2 2.559047 1_655
Co0 Sb1 2.597525 1_555
Co0 Sb0 2.629832 1_545
Co0 Sc1 2.712495 1_545
Co0 Sc3 2.797890 1_555
Co0 Sc3 2.797890 1_655
Co1 Sb1 2.516652 1_556
Co1 Sb1 2.516652 1_456
Co1 Sb2 2.573717 1_555
Co1 Sb3 2.587926 1_555
Co1 Sc2 2.706620 1_556
Co1 Sc0 2.792161 1_455
Co1 Sc0 2.792161 1_555
Co1 Sc3 3.145590 1_556
Co2 Sb0 2.565195 1_555
Co2 Sb0 2.565195 1_455
Co2 Sb2 2.595748 1_565
Co2 Sb3 2.647817 1_555
Co2 Sc3 2.737137 1_565
Co2 Sc1 2.794784 1_555
Co2 Sc1 2.794784 1_455
Sb0 Sc2 2.948055 1_555
Sb0 Sc2 2.948055 1_655
Sb0 Sc0 3.000940 1_555
Sb0 Sc3 3.046547 1_565
Sb0 Sc3 3.046547 1_665
Sb0 Sc1 3.181586 1_555
Sb1 Sc3 2.930703 1_555
Sb1 Sc3 2.930703 1_655
Sb1 Sc1 2.978270 1_544
Sb1 Sc2 3.014534 1_655
Sb1 Sc2 3.014534 1_555
Sb1 Sc0 3.081379 1_554
Sb2 Sc0 2.974969 1_455
Sb2 Sc0 2.974969 1_555
Sb2 Sc2 2.985108 1_555
Sb2 Sc1 3.005266 1_445
Sb2 Sc1 3.005266 1_545
Sb2 Sc3 3.174831 1_555
Sb3 Sc0 2.982279 1_455
Sb3 Sc0 2.982279 1_555
Sb3 Sc3 2.992062 1_566
Sb3 Sc1 2.995953 1_555
Sb3 Sc1 2.995953 1_455
Sb3 Sc2 3.067313 1_556
