# generated using pymatgen
data_Li3V5O12
_symmetry_space_group_name_H-M   'P 1'
_cell_length_a   5.03859500
_cell_length_b   5.36099755
_cell_length_c   7.40446827
_cell_angle_alpha   95.53835669
_cell_angle_beta   90.46963225
_cell_angle_gamma   90.56920541
_symmetry_Int_Tables_number   1
_chemical_formula_structural   Li3V5O12
_chemical_formula_sum   'Li3 V5 O12'
_cell_volume   199.05679823
_cell_formula_units_Z   1
loop_
 _symmetry_equiv_pos_site_id
 _symmetry_equiv_pos_as_xyz
  1  'x, y, z'
loop_
 _atom_site_type_symbol
 _atom_site_label
 _atom_site_symmetry_multiplicity
 _atom_site_fract_x
 _atom_site_fract_y
 _atom_site_fract_z
 _atom_site_occupancy
  Li  Li0  1  0.50369900  0.07068700  0.21198800  1
  Li  Li1  1  0.00406700  0.57214900  0.21497400  1
  Li  Li2  1  0.49713100  0.07049500  0.71201300  1
  V  V0  1  0.00496000  0.01076400  0.99639800  1
  V  V1  1  0.49038100  0.48836400  0.49901800  1
  V  V2  1  0.99600700  0.99810900  0.48201900  1
  V  V3  1  0.51000500  0.50436700  0.01055000  1
  V  V4  1  0.00032100  0.59259500  0.71300500  1
  O  O0  1  0.28858500  0.77851900  0.59024500  1
  O  O1  1  0.12474500  0.96407800  0.26383400  1
  O  O2  1  0.30906800  0.15412400  0.95912700  1
  O  O3  1  0.18065400  0.27733900  0.58756900  1
  O  O4  1  0.81158300  0.26805600  0.07737700  1
  O  O5  1  0.38499900  0.46155200  0.26839300  1
  O  O6  1  0.63565400  0.46016000  0.75634700  1
  O  O7  1  0.17267200  0.64827400  0.95207900  1
  O  O8  1  0.82883500  0.66211300  0.46787400  1
  O  O9  1  0.69213700  0.77350900  0.08092800  1
  O  O10  1  0.87044500  0.95733500  0.77375200  1
  O  O11  1  0.69405400  0.14661200  0.45291100  1
loop_
_geom_bond_atom_site_label_1
_geom_bond_atom_site_label_2
_geom_bond_distance
_geom_bond_site_symmetry_2
Li0 O11 2.022857 1_555
Li0 O9 2.031782 1_545
Li0 O1 2.037768 1_545
Li0 O4 2.171604 1_555
Li0 O5 2.187010 1_555
Li0 O2 2.192618 1_554
Li1 O5 2.060917 1_555
Li1 O4 2.065938 1_455
Li1 O8 2.092843 1_455
Li1 O1 2.177071 1_555
Li1 O9 2.198998 1_455
Li1 O7 2.202512 1_554
Li2 O0 2.011604 1_545
Li2 O10 2.043818 1_545
Li2 O2 2.079758 1_555
Li2 O6 2.189454 1_555
Li2 O3 2.197661 1_555
Li2 O11 2.237403 1_555
O0 V1 1.936391 1_555
O0 V4 2.024124 1_555
O0 V2 2.097247 1_455
O1 V2 1.739731 1_455
O1 V0 2.104106 1_564
O2 V0 1.743325 1_555
O2 V3 2.124500 1_556
O3 V2 1.857909 1_445
O3 V1 2.066415 1_555
O3 V4 2.070263 1_555
O4 V0 1.757300 1_654
O4 V3 2.075013 1_555
O5 V1 1.776211 1_555
O5 V3 2.048374 1_555
O6 V3 1.983987 1_556
O6 V4 2.002716 1_655
O6 V1 2.055257 1_555
O7 V3 1.936497 1_556
O7 V4 1.960752 1_555
O7 V0 2.124216 1_565
O8 V1 1.960948 1_555
O8 V2 1.974092 1_555
O8 V4 2.071520 1_655
O9 V3 1.736750 1_555
O9 V0 2.150329 1_664
O10 V0 1.773666 1_665
O10 V4 2.077138 1_655
O10 V2 2.285823 1_555
O11 V2 1.745507 1_545
O11 V1 2.109209 1_555
