# generated using pymatgen
data_EuAsAu
_symmetry_space_group_name_H-M   'P 1'
_cell_length_a   4.46194836
_cell_length_b   4.46194939
_cell_length_c   8.27323417
_cell_angle_alpha   90.00000000
_cell_angle_beta   90.00000000
_cell_angle_gamma   120.00000002
_symmetry_Int_Tables_number   1
_chemical_formula_structural   EuAsAu
_chemical_formula_sum   'Eu2 As2 Au2'
_cell_volume   142.64453207
_cell_formula_units_Z   2
loop_
 _symmetry_equiv_pos_site_id
 _symmetry_equiv_pos_as_xyz
  1  'x, y, z'
loop_
 _atom_site_type_symbol
 _atom_site_label
 _atom_site_symmetry_multiplicity
 _atom_site_fract_x
 _atom_site_fract_y
 _atom_site_fract_z
 _atom_site_occupancy
  Eu  Eu0  1  0.00000000  0.00000000  0.50000000  1
  Eu  Eu1  1  0.00000000  0.00000000  0.00000000  1
  As  As0  1  0.66666700  0.33333300  0.74994490  1
  As  As1  1  0.33333300  0.66666700  0.25005510  1
  Au  Au0  1  0.33333300  0.66666700  0.74991782  1
  Au  Au1  1  0.66666700  0.33333300  0.25008218  1
loop_
_geom_bond_atom_site_label_1
_geom_bond_atom_site_label_2
_geom_bond_distance
_geom_bond_site_symmetry_2
As0 Au0 2.576105 1_655
As0 Au0 2.576105 1_545
As0 Au0 2.576113 1_555
As0 Eu0 3.303382 1_655
As0 Eu0 3.303384 1_555
As0 Eu0 3.303385 1_665
As0 Eu1 3.303953 1_656
As0 Eu1 3.303955 1_556
As0 Eu1 3.303956 1_666
As1 Au1 2.576105 1_455
As1 Au1 2.576105 1_565
As1 Au1 2.576113 1_555
As1 Eu0 3.303382 1_565
As1 Eu0 3.303384 1_665
As1 Eu0 3.303385 1_555
As1 Eu1 3.303953 1_565
As1 Eu1 3.303955 1_665
As1 Eu1 3.303956 1_555
Au0 Eu0 3.303241 1_565
Au0 Eu0 3.303244 1_665
Au0 Eu0 3.303245 1_555
Au0 Eu1 3.304093 1_566
Au0 Eu1 3.304096 1_666
Au0 Eu1 3.304096 1_556
Au1 Eu0 3.303241 1_655
Au1 Eu0 3.303244 1_555
Au1 Eu0 3.303245 1_665
Au1 Eu1 3.304093 1_655
Au1 Eu1 3.304096 1_555
Au1 Eu1 3.304096 1_665
