# generated using pymatgen
data_Na4Al3Si3H3O14
_symmetry_space_group_name_H-M   'P 1'
_cell_length_a   9.14826600
_cell_length_b   9.16207600
_cell_length_c   9.35515368
_cell_angle_alpha   89.20053498
_cell_angle_beta   90.00000000
_cell_angle_gamma   90.00000000
_symmetry_Int_Tables_number   1
_chemical_formula_structural   Na4Al3Si3H3O14
_chemical_formula_sum   'Na8 Al6 Si6 H6 O28'
_cell_volume   784.04559916
_cell_formula_units_Z   2
loop_
 _symmetry_equiv_pos_site_id
 _symmetry_equiv_pos_as_xyz
  1  'x, y, z'
loop_
 _atom_site_type_symbol
 _atom_site_label
 _atom_site_symmetry_multiplicity
 _atom_site_fract_x
 _atom_site_fract_y
 _atom_site_fract_z
 _atom_site_occupancy
  Na  Na0  1  0.81439200  0.80627200  0.78376000  1
  Na  Na1  1  0.81439200  0.19372800  0.21624000  1
  Na  Na2  1  0.72936200  0.73488300  0.26854200  1
  Na  Na3  1  0.72936200  0.26511700  0.73145800  1
  Na  Na4  1  0.22585300  0.77116000  0.75379600  1
  Na  Na5  1  0.22585300  0.22884000  0.24620400  1
  Na  Na6  1  0.19418100  0.80993200  0.22369700  1
  Na  Na7  1  0.19418100  0.19006800  0.77630300  1
  Al  Al0  1  0.00371500  0.49419200  0.75200100  1
  Al  Al1  1  0.00371500  0.50580800  0.24799900  1
  Al  Al2  1  0.75666500  0.00000000  0.50000000  1
  Al  Al3  1  0.50276000  0.24962900  0.99811000  1
  Al  Al4  1  0.50276000  0.75037100  0.00189000  1
  Al  Al5  1  0.25682400  0.00000000  0.50000000  1
  Si  Si0  1  0.00351500  0.74678800  0.49655400  1
  Si  Si1  1  0.00351500  0.25321200  0.50344600  1
  Si  Si2  1  0.75527900  0.50000000  0.00000000  1
  Si  Si3  1  0.50742700  0.99585700  0.24930300  1
  Si  Si4  1  0.50742700  0.00414300  0.75069700  1
  Si  Si5  1  0.25413900  0.50000000  0.00000000  1
  H  H0  1  0.89162600  0.90283300  0.12004000  1
  H  H1  1  0.84880600  0.85366700  0.06997900  1
  H  H2  1  0.84880600  0.14633300  0.93002100  1
  H  H3  1  0.04393400  0.94802900  0.90058700  1
  H  H4  1  0.04393400  0.05197100  0.09941300  1
  H  H5  1  0.89162600  0.09716700  0.87996000  1
  O  O0  1  0.96673200  0.66526400  0.34446200  1
  O  O1  1  0.96673200  0.33473600  0.65553800  1
  O  O2  1  0.85586200  0.83966800  0.53285500  1
  O  O3  1  0.85586200  0.16033200  0.46714500  1
  O  O4  1  0.85219800  0.54355300  0.85757300  1
  O  O5  1  0.85219800  0.45644700  0.14242700  1
  O  O6  1  0.65780600  0.64282700  0.04200300  1
  O  O7  1  0.65780600  0.35717300  0.95799700  1
  O  O8  1  0.65320600  0.96452800  0.34644400  1
  O  O9  1  0.65320600  0.03547200  0.65355600  1
  O  O10  1  0.54745700  0.86628200  0.85669100  1
  O  O11  1  0.54745700  0.13371800  0.14330900  1
  O  O12  1  0.47305700  0.84356600  0.16428400  1
  O  O13  1  0.47305700  0.15643400  0.83571600  1
  O  O14  1  0.36397600  0.96587000  0.65381700  1
  O  O15  1  0.36397600  0.03413000  0.34618300  1
  O  O16  1  0.35150400  0.64322700  0.95325900  1
  O  O17  1  0.35150400  0.35677300  0.04674100  1
  O  O18  1  0.15568400  0.45452400  0.86056600  1
  O  O19  1  0.15568400  0.54547600  0.13943400  1
  O  O20  1  0.15238700  0.84254600  0.47076200  1
  O  O21  1  0.15238700  0.15745400  0.52923800  1
  O  O22  1  0.24175400  0.06869300  0.01018300  1
  O  O23  1  0.24175400  0.93130700  0.98981700  1
  O  O24  1  0.03804500  0.63739900  0.63163000  1
  O  O25  1  0.03804500  0.36260100  0.36837000  1
  O  O26  1  0.03331000  0.05884900  0.20221800  1
  O  O27  1  0.03331000  0.94115100  0.79778200  1
loop_
_geom_bond_atom_site_label_1
_geom_bond_atom_site_label_2
_geom_bond_distance
_geom_bond_site_symmetry_2
Na0 O27 2.357912 1_655
Na0 O2 2.393139 1_555
Na0 O4 2.518723 1_555
Na0 O10 2.596459 1_555
Na0 O9 2.827805 1_565
Na1 O26 2.357912 1_655
Na1 O3 2.393139 1_555
Na1 O5 2.518723 1_555
Na1 O11 2.596459 1_555
Na1 O8 2.827805 1_545
Na2 O8 2.342269 1_555
Na2 O0 2.369426 1_555
Na2 O6 2.383532 1_555
Na2 O12 2.722789 1_555
Na2 O2 2.905403 1_555
Na2 O5 3.040827 1_555
Na3 O9 2.342269 1_555
Na3 O1 2.369426 1_555
Na3 O7 2.383532 1_555
Na3 O13 2.722789 1_555
Na3 O3 2.905403 1_555
Na3 O4 3.040827 1_555
Na4 O14 2.367990 1_555
Na4 O27 2.390728 1_555
Na4 O24 2.408135 1_555
Na4 O16 2.473088 1_555
Na4 O23 2.672040 1_555
Na4 O20 2.800381 1_555
Na5 O15 2.367990 1_555
Na5 O26 2.390728 1_555
Na5 O25 2.408135 1_555
Na5 O17 2.473088 1_555
Na5 O22 2.672040 1_555
Na5 O21 2.800381 1_555
Na6 O20 2.365798 1_555
Na6 O23 2.478998 1_554
Na6 O19 2.582538 1_555
Na6 O12 2.628288 1_555
Na6 O0 2.705739 1_455
Na6 O26 2.719298 1_565
Na6 O15 2.830363 1_565
Na7 O21 2.365798 1_555
Na7 O22 2.478998 1_556
Na7 O18 2.582538 1_555
Na7 O13 2.628288 1_555
Na7 O1 2.705739 1_455
Na7 O27 2.719298 1_545
Na7 O14 2.830363 1_545
Al0 O24 1.745570 1_555
Al0 O18 1.756736 1_555
Al0 O1 1.760682 1_455
Al0 O4 1.764583 1_455
Al1 O25 1.745570 1_555
Al1 O19 1.756736 1_555
Al1 O0 1.760682 1_455
Al1 O5 1.764583 1_455
Al2 O3 1.750222 1_555
Al2 O2 1.750222 1_545
Al2 O9 1.754453 1_555
Al2 O8 1.754453 1_545
Al3 O17 1.760060 1_556
Al3 O11 1.760652 1_556
Al3 O7 1.764437 1_555
Al3 O13 1.774020 1_555
Al4 O16 1.760060 1_554
Al4 O10 1.760652 1_554
Al4 O6 1.764437 1_555
Al4 O12 1.774020 1_555
Al5 O21 1.754925 1_555
Al5 O20 1.754925 1_545
Al5 O14 1.765444 1_545
Al5 O15 1.765444 1_555
H0 H1 0.762618 1_555
H0 Na2 2.538059 1_555
H1 Na2 2.402631 1_555
H2 H5 0.762618 1_555
H2 Na3 2.402631 1_555
H3 O27 0.969579 1_555
H4 O26 0.969579 1_555
H5 Na3 2.538059 1_555
O0 Si0 1.650842 1_655
O1 Si1 1.650842 1_655
O2 Si0 1.634664 1_655
O3 Si1 1.634664 1_655
O4 Si2 1.644957 1_556
O5 Si2 1.644957 1_555
O6 Si2 1.635944 1_555
O7 Si2 1.635944 1_556
O8 Si3 1.636927 1_555
O9 Si4 1.636927 1_555
O10 Si4 1.636402 1_565
O11 Si3 1.636402 1_545
O12 Si3 1.645997 1_555
O13 Si4 1.645997 1_555
O14 Si4 1.635685 1_565
O15 Si3 1.635685 1_545
O16 Si5 1.640303 1_556
O17 Si5 1.640303 1_555
O18 Si5 1.643637 1_556
O19 Si5 1.643637 1_555
O20 Si0 1.636114 1_555
O21 Si1 1.636114 1_555
O22 O23 1.275704 1_544
O24 Si0 1.632709 1_555
O25 Si1 1.632709 1_555
