# generated using pymatgen
data_YGePd
_symmetry_space_group_name_H-M   'P 1'
_cell_length_a   11.47045345
_cell_length_b   11.47045345
_cell_length_c   11.47045345
_cell_angle_alpha   157.80611094
_cell_angle_beta   141.00403827
_cell_angle_gamma   45.32365425
_symmetry_Int_Tables_number   1
_chemical_formula_structural   YGePd
_chemical_formula_sum   'Y6 Ge6 Pd6'
_cell_volume   357.86666037
_cell_formula_units_Z   6
loop_
 _symmetry_equiv_pos_site_id
 _symmetry_equiv_pos_as_xyz
  1  'x, y, z'
loop_
 _atom_site_type_symbol
 _atom_site_label
 _atom_site_symmetry_multiplicity
 _atom_site_fract_x
 _atom_site_fract_y
 _atom_site_fract_z
 _atom_site_occupancy
  Y  Y0  1  0.53393800  0.00000000  0.53393800  1
  Y  Y1  1  0.20204200  0.66648300  0.53555900  1
  Y  Y2  1  0.86907700  0.33351700  0.53555900  1
  Y  Y3  1  0.95165300  0.50000000  0.45165300  1
  Y  Y4  1  0.28980300  0.83265400  0.45714800  1
  Y  Y5  1  0.62449400  0.16734600  0.45714800  1
  Ge  Ge0  1  0.08890400  0.93496900  0.15393500  1
  Ge  Ge1  1  0.21896600  0.06503100  0.15393500  1
  Ge  Ge2  1  0.60322200  0.76525200  0.83797100  1
  Ge  Ge3  1  0.07271900  0.23474800  0.83797100  1
  Ge  Ge4  1  0.74946900  0.59387900  0.15559000  1
  Ge  Ge5  1  0.56171100  0.40612100  0.15559000  1
  Pd  Pd0  1  0.72196400  0.89583500  0.82612800  1
  Pd  Pd1  1  0.93029300  0.10416500  0.82612800  1
  Pd  Pd2  1  0.89992900  0.73291400  0.16701400  1
  Pd  Pd3  1  0.43410000  0.26708600  0.16701400  1
  Pd  Pd4  1  0.39513400  0.57192500  0.82320900  1
  Pd  Pd5  1  0.25128400  0.42807500  0.82320900  1
loop_
_geom_bond_atom_site_label_1
_geom_bond_atom_site_label_2
_geom_bond_distance
_geom_bond_site_symmetry_2
Ge0 Pd5 2.564232 1_565
Ge0 Pd5 2.564232 1_554
Ge0 Pd0 2.643220 1_454
Ge0 Ge1 2.753381 1_565
Ge0 Y3 3.027925 1_454
Ge0 Y3 3.027925 1_465
Ge0 Y4 3.175194 1_555
Ge0 Y2 3.210638 1_465
Ge0 Y2 3.210641 1_454
Ge0 Y0 3.218957 1_565
Ge1 Pd4 2.564232 1_555
Ge1 Pd4 2.564232 1_544
Ge1 Pd1 2.643227 1_454
Ge1 Y3 3.027925 1_455
Ge1 Y3 3.027925 1_444
Ge1 Y5 3.175198 1_555
Ge1 Y1 3.210648 1_544
Ge1 Y1 3.210648 1_555
Ge1 Y0 3.218957 1_555
Ge2 Pd3 2.566914 1_566
Ge2 Pd3 2.566918 1_555
Ge2 Pd2 2.610857 1_556
Ge2 Pd0 2.765918 1_555
Ge2 Y2 3.041634 1_566
Ge2 Y2 3.041640 1_555
Ge2 Y1 3.119907 1_555
Ge2 Y5 3.162682 1_566
Ge2 Y5 3.162685 1_555
Ge2 Y4 3.246383 1_555
Ge3 Pd2 2.566914 1_456
Ge3 Pd2 2.566918 1_445
Ge3 Pd3 2.610856 1_556
Ge3 Pd1 2.765897 1_455
Ge3 Y1 3.041623 1_545
Ge3 Y1 3.041623 1_556
Ge3 Y2 3.119922 1_455
Ge3 Y4 3.162696 1_556
Ge3 Y4 3.162699 1_545
Ge3 Y5 3.246380 1_455
Ge4 Pd1 2.574216 1_565
Ge4 Pd1 2.574216 1_554
Ge4 Pd4 2.587152 1_554
Ge4 Pd2 2.944647 1_555
Ge4 Y3 3.014783 1_555
Ge4 Y5 3.098665 1_565
Ge4 Y5 3.098665 1_554
Ge4 Y0 3.113106 1_554
Ge4 Y0 3.113106 1_565
Ge4 Y1 3.290485 1_655
Ge5 Pd0 2.574215 1_555
Ge5 Pd0 2.574219 1_544
Ge5 Pd5 2.587152 1_554
Ge5 Pd3 2.944636 1_555
Ge5 Y3 3.014783 1_555
Ge5 Y4 3.098656 1_555
Ge5 Y4 3.098659 1_544
Ge5 Y0 3.113106 1_554
Ge5 Y0 3.113106 1_565
Ge5 Y2 3.290483 1_555
Pd0 Y2 3.030852 1_555
Pd0 Y2 3.030852 1_566
Pd0 Y4 3.125912 1_555
Pd0 Y0 3.141376 1_565
Pd0 Y3 3.265031 1_555
Pd0 Y3 3.265034 1_566
Pd1 Y1 3.030852 1_645
Pd1 Y1 3.030852 1_656
Pd1 Y5 3.125912 1_555
Pd1 Y0 3.141381 1_555
Pd1 Y3 3.265041 1_545
Pd1 Y3 3.265041 1_556
Pd2 Y5 3.063177 1_554
Pd2 Y5 3.063181 1_565
Pd2 Y4 3.064916 1_655
Pd2 Y1 3.152984 1_655
Pd2 Y2 3.228461 1_554
Pd2 Y2 3.228461 1_565
Pd3 Y4 3.063173 1_555
Pd3 Y4 3.063176 1_544
Pd3 Y5 3.064916 1_555
Pd3 Y2 3.152991 1_555
Pd3 Y1 3.228461 1_544
Pd3 Y1 3.228461 1_555
Pd4 Y1 2.976296 1_555
Pd4 Pd5 3.045269 1_555
Pd4 Y0 3.129859 1_555
Pd4 Y0 3.129859 1_566
Pd4 Y5 3.163285 1_566
Pd4 Y5 3.163285 1_555
Pd4 Y3 3.226858 1_455
Pd5 Y2 2.976286 1_455
Pd5 Y0 3.129859 1_555
Pd5 Y0 3.129859 1_566
Pd5 Y4 3.163278 1_556
Pd5 Y4 3.163281 1_545
Pd5 Y3 3.226858 1_455
