# generated using pymatgen
data_Ce4Al2O9
_symmetry_space_group_name_H-M   'P 1'
_cell_length_a   7.82373981
_cell_length_b   10.97989544
_cell_length_c   11.47154106
_cell_angle_alpha   90.00000000
_cell_angle_beta   109.45314254
_cell_angle_gamma   90.00000000
_symmetry_Int_Tables_number   1
_chemical_formula_structural   Ce4Al2O9
_chemical_formula_sum   'Ce16 Al8 O36'
_cell_volume   929.19428250
_cell_formula_units_Z   4
loop_
 _symmetry_equiv_pos_site_id
 _symmetry_equiv_pos_as_xyz
  1  'x, y, z'
loop_
 _atom_site_type_symbol
 _atom_site_label
 _atom_site_symmetry_multiplicity
 _atom_site_fract_x
 _atom_site_fract_y
 _atom_site_fract_z
 _atom_site_occupancy
  Ce  Ce0  1  0.52509188  0.40171772  0.29006966  1
  Ce  Ce1  1  0.47490812  0.90171772  0.20993034  1
  Ce  Ce2  1  0.47490812  0.59828228  0.70993034  1
  Ce  Ce3  1  0.52509188  0.09828228  0.79006966  1
  Ce  Ce4  1  0.02605298  0.41359685  0.30832509  1
  Ce  Ce5  1  0.97394702  0.91359685  0.19167491  1
  Ce  Ce6  1  0.97394702  0.58640315  0.69167491  1
  Ce  Ce7  1  0.02605298  0.08640315  0.80832509  1
  Ce  Ce8  1  0.33400421  0.37403655  0.92857906  1
  Ce  Ce9  1  0.66599579  0.87403655  0.57142094  1
  Ce  Ce10  1  0.66599579  0.62596345  0.07142094  1
  Ce  Ce11  1  0.33400421  0.12596345  0.42857906  1
  Ce  Ce12  1  0.83687799  0.37544563  0.91640645  1
  Ce  Ce13  1  0.16312201  0.87544563  0.58359355  1
  Ce  Ce14  1  0.16312201  0.62455437  0.08359355  1
  Ce  Ce15  1  0.83687799  0.12455437  0.41640645  1
  Al  Al0  1  0.22356481  0.30880962  0.62882857  1
  Al  Al1  1  0.77643519  0.80880962  0.87117143  1
  Al  Al2  1  0.77643519  0.69119038  0.37117143  1
  Al  Al3  1  0.22356481  0.19119038  0.12882857  1
  Al  Al4  1  0.65144792  0.31139815  0.61949140  1
  Al  Al5  1  0.34855208  0.81139815  0.88050860  1
  Al  Al6  1  0.34855208  0.68860185  0.38050860  1
  Al  Al7  1  0.65144792  0.18860185  0.11949140  1
  O  O0  1  0.78291633  0.27874100  0.24699707  1
  O  O1  1  0.21708367  0.77874100  0.25300293  1
  O  O2  1  0.21708367  0.72125900  0.75300293  1
  O  O3  1  0.78291633  0.22125900  0.74699707  1
  O  O4  1  0.23073572  0.27673850  0.26241946  1
  O  O5  1  0.76926428  0.77673850  0.23758054  1
  O  O6  1  0.76926428  0.72326150  0.73758054  1
  O  O7  1  0.23073572  0.22326150  0.76241946  1
  O  O8  1  0.21563975  0.46384638  0.66701069  1
  O  O9  1  0.78436025  0.96384638  0.83298931  1
  O  O10  1  0.78436025  0.53615362  0.33298931  1
  O  O11  1  0.21563975  0.03615362  0.16701069  1
  O  O12  1  0.07994628  0.26473913  0.48090878  1
  O  O13  1  0.92005372  0.76473913  0.01909122  1
  O  O14  1  0.92005372  0.73526087  0.51909122  1
  O  O15  1  0.07994628  0.23526087  0.98090878  1
  O  O16  1  0.43414913  0.26170539  0.61692180  1
  O  O17  1  0.56585087  0.76170539  0.88307820  1
  O  O18  1  0.56585087  0.73829461  0.38307820  1
  O  O19  1  0.43414913  0.23829461  0.11692180  1
  O  O20  1  0.64044908  0.27120731  0.46814560  1
  O  O21  1  0.35955092  0.77120731  0.03185440  1
  O  O22  1  0.35955092  0.72879269  0.53185440  1
  O  O23  1  0.64044908  0.22879269  0.96814560  1
  O  O24  1  0.70249395  0.46336278  0.67148630  1
  O  O25  1  0.29750605  0.96336278  0.82851370  1
  O  O26  1  0.29750605  0.53663722  0.32851370  1
  O  O27  1  0.70249395  0.03663722  0.17148630  1
  O  O28  1  0.07547804  0.50337511  0.89405774  1
  O  O29  1  0.92452196  0.00337511  0.60594226  1
  O  O30  1  0.92452196  0.49662489  0.10594226  1
  O  O31  1  0.07547804  0.99662489  0.39405774  1
  O  O32  1  0.56766250  0.49425585  0.89648905  1
  O  O33  1  0.43233750  0.99425585  0.60351095  1
  O  O34  1  0.43233750  0.50574415  0.10351095  1
  O  O35  1  0.56766250  0.00574415  0.39648905  1
loop_
_geom_bond_atom_site_label_1
_geom_bond_atom_site_label_2
_geom_bond_distance
_geom_bond_site_symmetry_2
Ce0 O34 2.318813 1_555
Ce0 O20 2.411025 1_555
Ce0 O10 2.422942 1_555
Ce0 O26 2.466276 1_555
Ce0 O19 2.594216 1_555
Ce0 O0 2.607709 1_555
Ce0 O4 2.607835 1_555
Ce1 O35 2.318813 1_565
Ce1 O21 2.411025 1_555
Ce1 O11 2.422942 1_565
Ce1 O27 2.466276 1_565
Ce1 O18 2.594216 1_555
Ce1 O1 2.607709 1_555
Ce1 O5 2.607835 1_555
Ce2 O32 2.318813 1_555
Ce2 O22 2.411025 1_555
Ce2 O8 2.422942 1_555
Ce2 O24 2.466276 1_555
Ce2 O17 2.594216 1_555
Ce2 O2 2.607709 1_555
Ce2 O6 2.607835 1_555
Ce3 O33 2.318813 1_545
Ce3 O23 2.411025 1_555
Ce3 O9 2.422942 1_545
Ce3 O25 2.466276 1_545
Ce3 O16 2.594216 1_555
Ce3 O3 2.607709 1_555
Ce3 O7 2.607835 1_555
Ce4 O0 2.326919 1_455
Ce4 O30 2.371442 1_455
Ce4 O4 2.379396 1_555
Ce4 O10 2.413063 1_455
Ce4 O26 2.462028 1_555
Ce4 O12 2.492544 1_555
Ce5 O1 2.326919 1_655
Ce5 O31 2.371442 1_655
Ce5 O5 2.379396 1_555
Ce5 O11 2.413063 1_665
Ce5 O27 2.462028 1_565
Ce5 O13 2.492544 1_555
Ce6 O2 2.326919 1_655
Ce6 O28 2.371442 1_655
Ce6 O6 2.379396 1_555
Ce6 O8 2.413063 1_655
Ce6 O24 2.462028 1_555
Ce6 O14 2.492544 1_555
Ce7 O3 2.326919 1_455
Ce7 O29 2.371442 1_455
Ce7 O7 2.379396 1_555
Ce7 O9 2.413063 1_445
Ce7 O25 2.462028 1_545
Ce7 O15 2.492544 1_555
Ce8 O32 2.380761 1_555
Ce8 O34 2.383666 1_556
Ce8 O28 2.393980 1_555
Ce8 O7 2.449675 1_555
Ce8 O19 2.525042 1_556
Ce8 O15 2.725400 1_555
Ce8 O23 2.787951 1_555
Ce8 O8 2.997117 1_555
Ce9 O33 2.380761 1_555
Ce9 O35 2.383666 1_565
Ce9 O29 2.393980 1_565
Ce9 O6 2.449675 1_555
Ce9 O18 2.525042 1_555
Ce9 O14 2.725400 1_555
Ce9 O22 2.787951 1_555
Ce9 O9 2.997117 1_555
Ce10 O34 2.380761 1_555
Ce10 O32 2.383666 1_554
Ce10 O30 2.393980 1_555
Ce10 O5 2.449675 1_555
Ce10 O17 2.525042 1_554
Ce10 O13 2.725400 1_555
Ce10 O21 2.787951 1_555
Ce10 O10 2.997117 1_555
Ce11 O35 2.380761 1_555
Ce11 O33 2.383666 1_545
Ce11 O31 2.393980 1_545
Ce11 O4 2.449675 1_555
Ce11 O16 2.525042 1_555
Ce11 O12 2.725400 1_555
Ce11 O20 2.787951 1_555
Ce11 O11 2.997117 1_555
Ce12 O15 2.365567 1_655
Ce12 O28 2.417082 1_655
Ce12 O32 2.422772 1_555
Ce12 O23 2.431966 1_555
Ce12 O30 2.444362 1_556
Ce12 O3 2.504914 1_555
Ce12 O24 2.821987 1_555
Ce13 O14 2.365567 1_455
Ce13 O29 2.417082 1_465
Ce13 O33 2.422772 1_555
Ce13 O22 2.431966 1_555
Ce13 O31 2.444362 1_555
Ce13 O2 2.504914 1_555
Ce13 O25 2.821987 1_555
Ce14 O13 2.365567 1_455
Ce14 O30 2.417082 1_455
Ce14 O34 2.422772 1_555
Ce14 O21 2.431966 1_555
Ce14 O28 2.444362 1_554
Ce14 O1 2.504914 1_555
Ce14 O26 2.821987 1_555
Ce15 O12 2.365567 1_655
Ce15 O31 2.417082 1_645
Ce15 O35 2.422772 1_555
Ce15 O20 2.431966 1_555
Ce15 O29 2.444362 1_555
Ce15 O0 2.504914 1_555
Ce15 O27 2.821987 1_555
Al0 O12 1.762411 1_555
Al0 O8 1.763963 1_555
Al0 O16 1.774961 1_555
Al0 O7 1.782335 1_555
Al1 O13 1.762411 1_556
Al1 O9 1.763963 1_555
Al1 O17 1.774961 1_555
Al1 O6 1.782335 1_555
Al2 O14 1.762411 1_555
Al2 O10 1.763963 1_555
Al2 O18 1.774961 1_555
Al2 O5 1.782335 1_555
Al3 O15 1.762411 1_554
Al3 O11 1.763963 1_555
Al3 O19 1.774961 1_555
Al3 O4 1.782335 1_555
Al4 O20 1.765479 1_555
Al4 O24 1.772196 1_555
Al4 O16 1.776371 1_555
Al4 O3 1.781816 1_555
Al5 O21 1.765479 1_556
Al5 O25 1.772196 1_555
Al5 O17 1.776371 1_555
Al5 O2 1.781816 1_555
Al6 O22 1.765479 1_555
Al6 O26 1.772196 1_555
Al6 O18 1.776371 1_555
Al6 O1 1.781816 1_555
Al7 O23 1.765479 1_554
Al7 O27 1.772196 1_555
Al7 O19 1.776371 1_555
Al7 O0 1.781816 1_555
