# generated using pymatgen
data_Ho2MgCu(SiO3)4
_symmetry_space_group_name_H-M   'P 1'
_cell_length_a   5.25412635
_cell_length_b   7.29764334
_cell_length_c   7.91309628
_cell_angle_alpha   62.63958921
_cell_angle_beta   84.76251502
_cell_angle_gamma   78.49859234
_symmetry_Int_Tables_number   1
_chemical_formula_structural   Ho2MgCu(SiO3)4
_chemical_formula_sum   'Ho2 Mg1 Cu1 Si4 O12'
_cell_volume   264.05730038
_cell_formula_units_Z   1
loop_
 _symmetry_equiv_pos_site_id
 _symmetry_equiv_pos_as_xyz
  1  'x, y, z'
loop_
 _atom_site_type_symbol
 _atom_site_label
 _atom_site_symmetry_multiplicity
 _atom_site_fract_x
 _atom_site_fract_y
 _atom_site_fract_z
 _atom_site_occupancy
  Ho  Ho0  1  0.00281700  0.79226400  0.41438000  1
  Ho  Ho1  1  0.99718300  0.20773600  0.58562000  1
  Mg  Mg0  1  0.50000000  0.00000000  0.00000000  1
  Cu  Cu0  1  0.00000000  0.00000000  0.00000000  1
  Si  Si0  1  0.59277400  0.57842900  0.22714100  1
  Si  Si1  1  0.40722600  0.42157100  0.77285900  1
  Si  Si2  1  0.41316700  0.19255900  0.22935100  1
  Si  Si3  1  0.58683300  0.80744100  0.77064900  1
  O  O0  1  0.34622700  0.75409200  0.22861900  1
  O  O1  1  0.65377300  0.24590800  0.77138100  1
  O  O2  1  0.31418100  0.31774400  0.00166700  1
  O  O3  1  0.68581900  0.68225600  0.99833300  1
  O  O4  1  0.16700900  0.45871100  0.63850500  1
  O  O5  1  0.83299100  0.54128900  0.36149500  1
  O  O6  1  0.34114000  0.98401400  0.77212700  1
  O  O7  1  0.65886000  0.01598600  0.22787300  1
  O  O8  1  0.50591700  0.35158000  0.29487000  1
  O  O9  1  0.49408300  0.64842000  0.70513000  1
  O  O10  1  0.17463000  0.09518600  0.36532000  1
  O  O11  1  0.82537000  0.90481400  0.63468000  1
loop_
_geom_bond_atom_site_label_1
_geom_bond_atom_site_label_2
_geom_bond_distance
_geom_bond_site_symmetry_2
Ho0 O0 2.277198 1_555
Ho0 O7 2.281479 1_465
Ho0 O4 2.299681 1_555
Ho0 O11 2.301474 1_455
Ho0 O5 2.397955 1_455
Ho0 O10 2.407374 1_565
Ho1 O1 2.277198 1_555
Ho1 O6 2.281479 1_645
Ho1 O5 2.299681 1_555
Ho1 O10 2.301474 1_655
Ho1 O4 2.397955 1_655
Ho1 O11 2.407374 1_545
Mg0 O7 2.113932 1_555
Mg0 O6 2.113932 1_544
Mg0 O1 2.115000 1_554
Mg0 O0 2.115000 1_545
Mg0 O2 2.335185 1_555
Mg0 O3 2.335185 1_544
Cu0 O7 2.449010 1_455
Cu0 O6 2.449010 1_544
Cu0 O0 2.473317 1_545
Cu0 O1 2.473317 1_454
O0 Si0 1.634106 1_555
O1 Si1 1.634106 1_555
O2 Si1 1.678222 1_554
O2 Si2 1.679238 1_555
O3 Si0 1.678222 1_556
O3 Si3 1.679238 1_555
O4 Si1 1.624941 1_555
O5 Si0 1.624941 1_555
O6 Si3 1.635458 1_555
O7 Si2 1.635458 1_555
O8 Si0 1.636201 1_555
O8 Si2 1.636358 1_555
O9 Si1 1.636201 1_555
O9 Si3 1.636358 1_555
O10 Si2 1.624672 1_555
O11 Si3 1.624672 1_555
