# generated using pymatgen
data_Ba2LuReO6
_symmetry_space_group_name_H-M   'P 1'
_cell_length_a   5.92323551
_cell_length_b   5.92323551
_cell_length_c   5.92515694
_cell_angle_alpha   60.01223716
_cell_angle_beta   60.01223716
_cell_angle_gamma   60.00427230
_symmetry_Int_Tables_number   1
_chemical_formula_structural   Ba2LuReO6
_chemical_formula_sum   'Ba2 Lu1 Re1 O6'
_cell_volume   147.02703223
_cell_formula_units_Z   1
loop_
 _symmetry_equiv_pos_site_id
 _symmetry_equiv_pos_as_xyz
  1  'x, y, z'
loop_
 _atom_site_type_symbol
 _atom_site_label
 _atom_site_symmetry_multiplicity
 _atom_site_fract_x
 _atom_site_fract_y
 _atom_site_fract_z
 _atom_site_occupancy
  Ba  Ba0  1  0.74978700  0.74978700  0.74972200  1
  Ba  Ba1  1  0.25021300  0.25021300  0.25027800  1
  Lu  Lu0  1  0.00000000  0.00000000  0.00000000  1
  Re  Re0  1  0.50000000  0.50000000  0.50000000  1
  O  O0  1  0.26200900  0.26200900  0.74966700  1
  O  O1  1  0.73799100  0.73799100  0.25033300  1
  O  O2  1  0.74405200  0.26762100  0.73183100  1
  O  O3  1  0.25594800  0.73237900  0.26816900  1
  O  O4  1  0.73237900  0.25594800  0.26816900  1
  O  O5  1  0.26762100  0.74405200  0.73183100  1
loop_
_geom_bond_atom_site_label_1
_geom_bond_atom_site_label_2
_geom_bond_distance
_geom_bond_site_symmetry_2
Ba0 O1 2.898040 1_556
Ba0 O5 2.927845 1_555
Ba0 O2 2.927845 1_555
Ba0 O3 2.928175 1_655
Ba0 O4 2.928175 1_565
Ba0 O0 2.964454 1_565
Ba0 O0 2.964454 1_655
Ba0 O5 2.999137 1_655
Ba0 O2 2.999137 1_565
Ba0 O3 3.001012 1_556
Ba0 O4 3.001012 1_556
Ba0 O1 3.030415 1_555
Ba1 O0 2.898040 1_554
Ba1 O3 2.927845 1_555
Ba1 O4 2.927845 1_555
Ba1 O5 2.928175 1_545
Ba1 O2 2.928175 1_455
Ba1 O1 2.964454 1_455
Ba1 O1 2.964454 1_545
Ba1 O3 2.999137 1_545
Ba1 O4 2.999137 1_455
Ba1 O2 3.001012 1_554
Ba1 O5 3.001012 1_554
Ba1 O0 3.030415 1_555
Lu0 O0 2.196167 1_554
Lu0 O1 2.196167 1_445
Lu0 O4 2.196181 1_455
Lu0 O3 2.196181 1_545
Lu0 O2 2.196181 1_454
Lu0 O5 2.196181 1_544
O0 Re0 1.995122 1_555
O1 Re0 1.995122 1_555
O2 Re0 1.994140 1_555
O3 Re0 1.994140 1_555
O4 Re0 1.994140 1_555
O5 Re0 1.994140 1_555
