# generated using pymatgen
data_TbPrO4
_symmetry_space_group_name_H-M   'P 1'
_cell_length_a   5.55674400
_cell_length_b   3.98596400
_cell_length_c   7.98695928
_cell_angle_alpha   85.12970997
_cell_angle_beta   90.00000000
_cell_angle_gamma   90.00000000
_symmetry_Int_Tables_number   1
_chemical_formula_structural   TbPrO4
_chemical_formula_sum   'Tb2 Pr2 O8'
_cell_volume   176.26429728
_cell_formula_units_Z   2
loop_
 _symmetry_equiv_pos_site_id
 _symmetry_equiv_pos_as_xyz
  1  'x, y, z'
loop_
 _atom_site_type_symbol
 _atom_site_label
 _atom_site_symmetry_multiplicity
 _atom_site_fract_x
 _atom_site_fract_y
 _atom_site_fract_z
 _atom_site_occupancy
  Tb  Tb0  1  0.25000000  0.77456600  0.62827800  1
  Tb  Tb1  1  0.75000000  0.22543400  0.37172200  1
  Pr  Pr0  1  0.75000000  0.26800100  0.87684000  1
  Pr  Pr1  1  0.25000000  0.73199900  0.12316000  1
  O  O0  1  0.00875400  0.77001100  0.86301400  1
  O  O1  1  0.49124600  0.77001100  0.86301400  1
  O  O2  1  0.49369500  0.28044500  0.60777400  1
  O  O3  1  0.00630500  0.28044500  0.60777400  1
  O  O4  1  0.50630500  0.71955500  0.39222600  1
  O  O5  1  0.99369500  0.71955500  0.39222600  1
  O  O6  1  0.99124600  0.22998900  0.13698600  1
  O  O7  1  0.50875400  0.22998900  0.13698600  1
loop_
_geom_bond_atom_site_label_1
_geom_bond_atom_site_label_2
_geom_bond_distance
_geom_bond_site_symmetry_2
O0 Tb0 2.303601 1_555
O0 Pr0 2.458862 1_455
O0 Pr0 2.461072 1_465
O0 Pr1 2.466517 1_556
O1 Tb0 2.303601 1_555
O1 Pr0 2.458862 1_555
O1 Pr0 2.461072 1_565
O1 Pr1 2.466517 1_556
O2 Tb1 2.387714 1_555
O2 Tb0 2.407163 1_555
O2 Tb0 2.422892 1_545
O2 Pr0 2.575083 1_555
O3 Tb1 2.387714 1_455
O3 Tb0 2.407163 1_555
O3 Tb0 2.422892 1_545
O3 Pr0 2.575083 1_455
O4 Tb0 2.387714 1_555
O4 Tb1 2.407163 1_555
O4 Tb1 2.422892 1_565
O4 Pr1 2.575083 1_555
O5 Tb0 2.387714 1_655
O5 Tb1 2.407163 1_555
O5 Tb1 2.422892 1_565
O5 Pr1 2.575083 1_655
O6 Tb1 2.303601 1_555
O6 Pr1 2.458862 1_655
O6 Pr1 2.461072 1_645
O6 Pr0 2.466517 1_554
O7 Tb1 2.303601 1_555
O7 Pr1 2.458862 1_555
O7 Pr1 2.461072 1_545
O7 Pr0 2.466517 1_554
