# generated using pymatgen
data_LuSeF
_symmetry_space_group_name_H-M   'P 1'
_cell_length_a   4.02308045
_cell_length_b   4.02308045
_cell_length_c   17.54495700
_cell_angle_alpha   90.00000000
_cell_angle_beta   90.00000000
_cell_angle_gamma   120.00000738
_symmetry_Int_Tables_number   1
_chemical_formula_structural   LuSeF
_chemical_formula_sum   'Lu4 Se4 F4'
_cell_volume   245.92367601
_cell_formula_units_Z   4
loop_
 _symmetry_equiv_pos_site_id
 _symmetry_equiv_pos_as_xyz
  1  'x, y, z'
loop_
 _atom_site_type_symbol
 _atom_site_label
 _atom_site_symmetry_multiplicity
 _atom_site_fract_x
 _atom_site_fract_y
 _atom_site_fract_z
 _atom_site_occupancy
  Lu  Lu0  1  0.33333300  0.66666700  0.25000000  1
  Lu  Lu1  1  0.66666700  0.33333300  0.75000000  1
  Lu  Lu2  1  0.00000000  0.00000000  0.00000000  1
  Lu  Lu3  1  0.00000000  0.00000000  0.50000000  1
  Se  Se0  1  0.33333300  0.66666700  0.08884700  1
  Se  Se1  1  0.66666700  0.33333300  0.91115300  1
  Se  Se2  1  0.66666700  0.33333300  0.58884700  1
  Se  Se3  1  0.33333300  0.66666700  0.41115300  1
  F  F0  1  0.33333300  0.66666700  0.75000000  1
  F  F1  1  0.66666700  0.33333300  0.25000000  1
  F  F2  1  0.00000000  0.00000000  0.25000000  1
  F  F3  1  0.00000000  0.00000000  0.75000000  1
loop_
_geom_bond_atom_site_label_1
_geom_bond_atom_site_label_2
_geom_bond_distance
_geom_bond_site_symmetry_2
Lu0 Se3 2.827422 1_555
Lu0 Se0 2.827422 1_555
Lu1 Se2 2.827422 1_555
Lu1 Se1 2.827422 1_555
Lu2 Se1 2.797313 1_454
Lu2 Se0 2.797313 1_545
Lu2 Se0 2.797315 1_555
Lu2 Se0 2.797315 1_445
Lu2 Se1 2.797315 1_554
Lu2 Se1 2.797315 1_444
Lu3 Se2 2.797313 1_455
Lu3 Se3 2.797313 1_545
Lu3 Se2 2.797315 1_445
Lu3 Se2 2.797315 1_555
Lu3 Se3 2.797315 1_445
Lu3 Se3 2.797315 1_555
F0 Lu1 2.322724 1_455
F0 Lu1 2.322724 1_565
F0 Lu1 2.322731 1_555
F1 Lu0 2.322724 1_545
F1 Lu0 2.322724 1_655
F1 Lu0 2.322731 1_555
F2 Lu0 2.322724 1_545
F2 Lu0 2.322728 1_445
F2 Lu0 2.322728 1_555
F3 Lu1 2.322724 1_455
F3 Lu1 2.322728 1_555
F3 Lu1 2.322728 1_445
