# generated using pymatgen
data_Ti3TlSi2P6O25
_symmetry_space_group_name_H-M   'P 1'
_cell_length_a   8.35114413
_cell_length_b   8.35114413
_cell_length_c   17.39038100
_cell_angle_alpha   90.00000000
_cell_angle_beta   90.00000000
_cell_angle_gamma   120.00000100
_symmetry_Int_Tables_number   1
_chemical_formula_structural   Ti3TlSi2P6O25
_chemical_formula_sum   'Ti6 Tl2 Si4 P12 O50'
_cell_volume   1050.34429780
_cell_formula_units_Z   2
loop_
 _symmetry_equiv_pos_site_id
 _symmetry_equiv_pos_as_xyz
  1  'x, y, z'
loop_
 _atom_site_type_symbol
 _atom_site_label
 _atom_site_symmetry_multiplicity
 _atom_site_fract_x
 _atom_site_fract_y
 _atom_site_fract_z
 _atom_site_occupancy
  Ti  Ti0  1  0.33333300  0.66666700  0.75000000  1
  Ti  Ti1  1  0.66666700  0.33333300  0.25000000  1
  Ti  Ti2  1  0.66666700  0.33333300  0.52350100  1
  Ti  Ti3  1  0.33333300  0.66666700  0.47649900  1
  Ti  Ti4  1  0.66666700  0.33333300  0.97649900  1
  Ti  Ti5  1  0.33333300  0.66666700  0.02350100  1
  Tl  Tl0  1  0.66666700  0.33333300  0.75000000  1
  Tl  Tl1  1  0.33333300  0.66666700  0.25000000  1
  Si  Si0  1  0.00000000  0.00000000  0.59192500  1
  Si  Si1  1  0.00000000  0.00000000  0.40807500  1
  Si  Si2  1  0.00000000  0.00000000  0.90807500  1
  Si  Si3  1  0.00000000  0.00000000  0.09192500  1
  P  P0  1  0.33218900  0.38252500  0.60959600  1
  P  P1  1  0.66781100  0.61747500  0.39040400  1
  P  P2  1  0.61747500  0.94966500  0.60959600  1
  P  P3  1  0.33218900  0.94966500  0.89040400  1
  P  P4  1  0.38252500  0.05033500  0.39040400  1
  P  P5  1  0.66781100  0.05033500  0.10959600  1
  P  P6  1  0.05033500  0.66781100  0.60959600  1
  P  P7  1  0.61747500  0.66781100  0.89040400  1
  P  P8  1  0.94966500  0.33218900  0.39040400  1
  P  P9  1  0.38252500  0.33218900  0.10959600  1
  P  P10  1  0.05033500  0.38252500  0.89040400  1
  P  P11  1  0.94966500  0.61747500  0.10959600  1
  O  O0  1  0.83326400  0.02906300  0.62495400  1
  O  O1  1  0.16673600  0.97093700  0.37504600  1
  O  O2  1  0.97093700  0.80420100  0.62495400  1
  O  O3  1  0.83326400  0.80420100  0.87504600  1
  O  O4  1  0.02906300  0.19579900  0.37504600  1
  O  O5  1  0.16673600  0.19579900  0.12495400  1
  O  O6  1  0.19579900  0.16673600  0.62495400  1
  O  O7  1  0.97093700  0.16673600  0.87504600  1
  O  O8  1  0.80420100  0.83326400  0.37504600  1
  O  O9  1  0.02906300  0.83326400  0.12495400  1
  O  O10  1  0.19579900  0.02906300  0.87504600  1
  O  O11  1  0.80420100  0.97093700  0.12495400  1
  O  O12  1  0.33928100  0.47536400  0.68595500  1
  O  O13  1  0.66071900  0.52463600  0.31404500  1
  O  O14  1  0.52463600  0.86391700  0.68595500  1
  O  O15  1  0.33928100  0.86391700  0.81404500  1
  O  O16  1  0.47536400  0.13608300  0.31404500  1
  O  O17  1  0.66071900  0.13608300  0.18595500  1
  O  O18  1  0.13608300  0.66071900  0.68595500  1
  O  O19  1  0.52463600  0.66071900  0.81404500  1
  O  O20  1  0.86391700  0.33928100  0.31404500  1
  O  O21  1  0.47536400  0.33928100  0.18595500  1
  O  O22  1  0.13608300  0.47536400  0.81404500  1
  O  O23  1  0.86391700  0.52463600  0.18595500  1
  O  O24  1  0.59594800  0.11795800  0.59195300  1
  O  O25  1  0.40405200  0.88204200  0.40804700  1
  O  O26  1  0.88204200  0.47799000  0.59195300  1
  O  O27  1  0.59594800  0.47799000  0.90804700  1
  O  O28  1  0.11795800  0.52201000  0.40804700  1
  O  O29  1  0.40405200  0.52201000  0.09195300  1
  O  O30  1  0.52201000  0.40405200  0.59195300  1
  O  O31  1  0.88204200  0.40405200  0.90804700  1
  O  O32  1  0.47799000  0.59594800  0.40804700  1
  O  O33  1  0.11795800  0.59594800  0.09195300  1
  O  O34  1  0.52201000  0.11795800  0.90804700  1
  O  O35  1  0.47799000  0.88204200  0.09195300  1
  O  O36  1  0.25549400  0.44446600  0.54322900  1
  O  O37  1  0.74450600  0.55553400  0.45677100  1
  O  O38  1  0.55553400  0.81102800  0.54322900  1
  O  O39  1  0.25549400  0.81102800  0.95677100  1
  O  O40  1  0.44446600  0.18897200  0.45677100  1
  O  O41  1  0.74450600  0.18897200  0.04322900  1
  O  O42  1  0.18897200  0.74450600  0.54322900  1
  O  O43  1  0.55553400  0.74450600  0.95677100  1
  O  O44  1  0.81102800  0.25549400  0.45677100  1
  O  O45  1  0.44446600  0.25549400  0.04322900  1
  O  O46  1  0.18897200  0.44446600  0.95677100  1
  O  O47  1  0.81102800  0.55553400  0.04322900  1
  O  O48  1  0.00000000  0.00000000  0.50000000  1
  O  O49  1  0.00000000  0.00000000  0.00000000  1
loop_
_geom_bond_atom_site_label_1
_geom_bond_atom_site_label_2
_geom_bond_distance
_geom_bond_site_symmetry_2
O0 P2 1.601124 1_545
O0 Si0 1.632686 1_655
O1 P4 1.601124 1_565
O1 Si1 1.632686 1_565
O2 P6 1.601117 1_655
O2 Si0 1.632686 1_665
O3 P7 1.601123 1_555
O3 Si2 1.632686 1_665
O4 P8 1.601117 1_455
O4 Si1 1.632686 1_555
O5 P9 1.601123 1_555
O5 Si3 1.632686 1_555
O6 P0 1.601123 1_555
O6 Si0 1.632686 1_555
O7 P10 1.601124 1_655
O7 Si2 1.632686 1_655
O8 P1 1.601123 1_555
O8 Si1 1.632686 1_665
O9 P11 1.601124 1_455
O9 Si3 1.632686 1_565
O10 P3 1.601117 1_545
O10 Si2 1.632686 1_555
O11 P5 1.601117 1_565
O11 Si3 1.632686 1_665
O12 P0 1.523827 1_555
O12 Ti0 1.968406 1_555
O13 P1 1.523827 1_555
O13 Ti1 1.968406 1_555
O14 P2 1.523829 1_555
O14 Ti0 1.968403 1_555
O15 P3 1.523831 1_555
O15 Ti0 1.968399 1_555
O16 P4 1.523829 1_555
O16 Ti1 1.968403 1_555
O17 P5 1.523831 1_555
O17 Ti1 1.968399 1_555
O18 P6 1.523831 1_555
O18 Ti0 1.968399 1_555
O19 P7 1.523827 1_555
O19 Ti0 1.968406 1_555
O20 P8 1.523831 1_555
O20 Ti1 1.968399 1_555
O21 P9 1.523827 1_555
O21 Ti1 1.968406 1_555
O22 P10 1.523829 1_555
O22 Ti0 1.968403 1_555
O23 P11 1.523829 1_555
O23 Ti1 1.968403 1_555
O24 P2 1.534398 1_545
O24 Ti2 1.984610 1_555
O25 P4 1.534398 1_565
O25 Ti3 1.984610 1_555
O26 P6 1.534403 1_655
O26 Ti2 1.984611 1_555
O27 P7 1.534407 1_555
O27 Ti4 1.984616 1_555
O28 P8 1.534403 1_455
O28 Ti3 1.984611 1_555
O29 P9 1.534407 1_555
O29 Ti5 1.984616 1_555
O30 P0 1.534407 1_555
O30 Ti2 1.984616 1_555
O31 P10 1.534398 1_655
O31 Ti4 1.984610 1_555
O32 P1 1.534407 1_555
O32 Ti3 1.984616 1_555
O33 P11 1.534398 1_455
O33 Ti5 1.984610 1_555
O34 P3 1.534403 1_545
O34 Ti4 1.984611 1_555
O35 P5 1.534403 1_565
O35 Ti5 1.984611 1_555
O36 P0 1.530089 1_555
O36 Ti3 2.001588 1_555
O37 P1 1.530089 1_555
O37 Ti2 2.001588 1_555
O38 P2 1.530094 1_555
O38 Ti3 2.001587 1_555
O39 P3 1.530094 1_555
O39 Ti5 2.001581 1_556
O40 P4 1.530094 1_555
O40 Ti2 2.001587 1_555
O41 P5 1.530094 1_555
O41 Ti4 2.001581 1_554
O42 P6 1.530094 1_555
O42 Ti3 2.001581 1_555
O43 P7 1.530089 1_555
O43 Ti5 2.001588 1_556
O44 P8 1.530094 1_555
O44 Ti2 2.001581 1_555
O45 P9 1.530089 1_555
O45 Ti4 2.001588 1_554
O46 P10 1.530094 1_555
O46 Ti5 2.001587 1_556
O47 P11 1.530094 1_555
O47 Ti4 2.001587 1_554
O48 Si1 1.598611 1_555
O48 Si0 1.598611 1_555
O49 Si3 1.598611 1_555
O49 Si2 1.598611 1_554
