# generated using pymatgen
data_BaNb2Fe2(PO4)6
_symmetry_space_group_name_H-M   'P 1'
_cell_length_a   9.30070404
_cell_length_b   9.30070404
_cell_length_c   9.30070414
_cell_angle_alpha   55.32775658
_cell_angle_beta   55.32775658
_cell_angle_gamma   55.32775833
_symmetry_Int_Tables_number   1
_chemical_formula_structural   BaNb2Fe2(PO4)6
_chemical_formula_sum   'Ba1 Nb2 Fe2 P6 O24'
_cell_volume   507.13570180
_cell_formula_units_Z   1
loop_
 _symmetry_equiv_pos_site_id
 _symmetry_equiv_pos_as_xyz
  1  'x, y, z'
loop_
 _atom_site_type_symbol
 _atom_site_label
 _atom_site_symmetry_multiplicity
 _atom_site_fract_x
 _atom_site_fract_y
 _atom_site_fract_z
 _atom_site_occupancy
  Ba  Ba0  1  0.49628100  0.49628100  0.49628100  1
  Nb  Nb0  1  0.64948700  0.64948700  0.64948700  1
  Nb  Nb1  1  0.14597500  0.14597500  0.14597500  1
  Fe  Fe0  1  0.34666600  0.34666600  0.34666600  1
  Fe  Fe1  1  0.85310400  0.85310400  0.85310400  1
  P  P0  1  0.97061200  0.53783100  0.24319900  1
  P  P1  1  0.24319900  0.97061200  0.53783100  1
  P  P2  1  0.53783100  0.24319900  0.97061200  1
  P  P3  1  0.74512100  0.03816300  0.47062500  1
  P  P4  1  0.47062500  0.74512100  0.03816300  1
  P  P5  1  0.03816300  0.47062500  0.74512100  1
  O  O0  1  0.13978900  0.51162400  0.25554300  1
  O  O1  1  0.25554300  0.13978900  0.51162400  1
  O  O2  1  0.51162400  0.25554300  0.13978900  1
  O  O3  1  0.74858300  0.01692600  0.64325300  1
  O  O4  1  0.64325300  0.74858300  0.01692600  1
  O  O5  1  0.01692600  0.64325300  0.74858300  1
  O  O6  1  0.86027300  0.49395100  0.74000500  1
  O  O7  1  0.74000500  0.86027300  0.49395100  1
  O  O8  1  0.49395100  0.74000500  0.86027300  1
  O  O9  1  0.24749300  0.98826200  0.35634700  1
  O  O10  1  0.35634700  0.24749300  0.98826200  1
  O  O11  1  0.98826200  0.35634700  0.24749300  1
  O  O12  1  0.21043800  0.42542900  0.57608200  1
  O  O13  1  0.57608200  0.21043800  0.42542900  1
  O  O14  1  0.42542900  0.57608200  0.21043800  1
  O  O15  1  0.07479500  0.92657000  0.70409000  1
  O  O16  1  0.70409000  0.07479500  0.92657000  1
  O  O17  1  0.92657000  0.70409000  0.07479500  1
  O  O18  1  0.79481600  0.56513700  0.42943600  1
  O  O19  1  0.42943600  0.79481600  0.56513700  1
  O  O20  1  0.56513700  0.42943600  0.79481600  1
  O  O21  1  0.93007900  0.06351300  0.30050200  1
  O  O22  1  0.30050200  0.93007900  0.06351300  1
  O  O23  1  0.06351300  0.30050200  0.93007900  1
loop_
_geom_bond_atom_site_label_1
_geom_bond_atom_site_label_2
_geom_bond_distance
_geom_bond_site_symmetry_2
Ba0 O12 2.691603 1_555
Ba0 O13 2.691603 1_555
Ba0 O14 2.691603 1_555
Ba0 O18 2.848186 1_555
Ba0 O19 2.848186 1_555
Ba0 O20 2.848186 1_555
Nb0 O7 1.977454 1_555
Nb0 O8 1.977454 1_555
Nb0 O6 1.977454 1_555
Nb0 O20 2.025837 1_555
Nb0 O18 2.025837 1_555
Nb0 O19 2.025837 1_555
Nb1 O21 1.974942 1_455
Nb1 O23 1.974942 1_554
Nb1 O22 1.974942 1_545
Nb1 O10 2.032769 1_554
Nb1 O9 2.032770 1_545
Nb1 O11 2.032770 1_455
Fe0 O1 1.947190 1_555
Fe0 O2 1.947190 1_555
Fe0 O0 1.947190 1_555
Fe0 O14 2.083564 1_555
Fe0 O12 2.083564 1_555
Fe0 O13 2.083564 1_555
Fe1 O15 1.978190 1_655
Fe1 O17 1.978190 1_556
Fe1 O16 1.978190 1_565
Fe1 O4 2.041060 1_556
Fe1 O3 2.041060 1_565
Fe1 O5 2.041060 1_655
O0 P0 1.511860 1_455
O1 P1 1.511860 1_545
O2 P2 1.511860 1_554
O3 P3 1.519423 1_555
O4 P4 1.519423 1_555
O5 P5 1.519423 1_555
O6 P5 1.567209 1_655
O7 P3 1.567209 1_565
O8 P4 1.567209 1_556
O9 P1 1.578971 1_555
O10 P2 1.578971 1_555
O11 P0 1.578971 1_555
O12 P5 1.528152 1_555
O13 P3 1.528152 1_555
O14 P4 1.528152 1_555
O15 P1 1.505258 1_555
O16 P2 1.505258 1_555
O17 P0 1.505258 1_555
O18 P0 1.594967 1_555
O19 P1 1.594967 1_555
O20 P2 1.594967 1_555
O21 P3 1.567973 1_555
O22 P4 1.567973 1_555
O23 P5 1.567973 1_555
