# generated using pymatgen
data_LiCu2PO4
_symmetry_space_group_name_H-M   'P 1'
_cell_length_a   5.58182200
_cell_length_b   6.25956001
_cell_length_c   10.20990802
_cell_angle_alpha   90.51582414
_cell_angle_beta   90.00151518
_cell_angle_gamma   92.98746977
_symmetry_Int_Tables_number   1
_chemical_formula_structural   LiCu2PO4
_chemical_formula_sum   'Li4 Cu8 P4 O16'
_cell_volume   356.23233689
_cell_formula_units_Z   4
loop_
 _symmetry_equiv_pos_site_id
 _symmetry_equiv_pos_as_xyz
  1  'x, y, z'
loop_
 _atom_site_type_symbol
 _atom_site_label
 _atom_site_symmetry_multiplicity
 _atom_site_fract_x
 _atom_site_fract_y
 _atom_site_fract_z
 _atom_site_occupancy
  Li  Li0  1  0.85814500  0.00622400  0.74807300  1
  Li  Li1  1  0.66959200  0.24585600  0.50060100  1
  Li  Li2  1  0.68031100  0.24704800  0.99961900  1
  Li  Li3  1  0.31435900  0.24543400  0.24794400  1
  Cu  Cu0  1  0.74957900  0.98669800  0.23811700  1
  Cu  Cu1  1  0.33844600  0.29631100  0.74726000  1
  Cu  Cu2  1  0.25489800  0.51570700  0.97737900  1
  Cu  Cu3  1  0.25004400  0.50520600  0.48679400  1
  Cu  Cu4  1  0.36061800  0.69638300  0.72693600  1
  Cu  Cu5  1  0.35789100  0.75509200  0.23504000  1
  Cu  Cu6  1  0.63262700  0.72931600  0.48683100  1
  Cu  Cu7  1  0.64405100  0.74468600  0.00032100  1
  P  P0  1  0.16139800  0.01135300  0.00335000  1
  P  P1  1  0.15283900  0.01186700  0.50492100  1
  P  P2  1  0.83552800  0.48039600  0.25534900  1
  P  P3  1  0.81810900  0.50037800  0.75360200  1
  O  O0  1  0.17189200  0.01078200  0.65648800  1
  O  O1  1  0.88696100  0.01287400  0.46064300  1
  O  O2  1  0.15589000  0.99540000  0.15504400  1
  O  O3  1  0.90523100  0.01794100  0.94493000  1
  O  O4  1  0.30651500  0.20667300  0.44648500  1
  O  O5  1  0.32076500  0.21503700  0.96308200  1
  O  O6  1  0.67917100  0.28258500  0.20057700  1
  O  O7  1  0.68961500  0.29023000  0.69777900  1
  O  O8  1  0.82152800  0.49703400  0.90515800  1
  O  O9  1  0.07572300  0.50319000  0.69579300  1
  O  O10  1  0.82183700  0.48835800  0.40686800  1
  O  O11  1  0.09681800  0.47739000  0.20643300  1
  O  O12  1  0.70888700  0.71321500  0.70472000  1
  O  O13  1  0.71260600  0.68069800  0.19871500  1
  O  O14  1  0.27374700  0.81095000  0.44596900  1
  O  O15  1  0.29438200  0.81969100  0.94177300  1
loop_
_geom_bond_atom_site_label_1
_geom_bond_atom_site_label_2
_geom_bond_distance
_geom_bond_site_symmetry_2
Li0 O0 1.984318 1_655
Li0 O12 2.019917 1_545
Li0 O3 2.027173 1_555
Li0 O7 2.121258 1_555
Li1 O10 1.958049 1_555
Li1 O1 1.984730 1_555
Li1 O7 2.032038 1_555
Li1 O4 2.101989 1_555
Li2 O8 1.974519 1_555
Li2 O3 2.029267 1_555
Li2 O5 2.040525 1_555
Li2 O6 2.061840 1_556
Li3 O11 1.989234 1_555
Li3 O2 1.990112 1_545
Li3 O4 2.043921 1_555
Li3 O6 2.094578 1_555
Cu0 O13 1.954022 1_555
Cu0 O6 1.954574 1_565
Cu0 O1 2.399344 1_565
Cu0 O2 2.419511 1_655
Cu1 O7 2.026424 1_555
Cu1 O9 2.076963 1_555
Cu1 O0 2.171297 1_555
Cu1 O5 2.266943 1_555
Cu2 O5 1.940572 1_555
Cu2 O15 1.941687 1_555
Cu2 O11 2.508666 1_556
Cu2 O8 2.525429 1_455
Cu3 O4 1.951480 1_555
Cu3 O14 1.960085 1_555
Cu3 O9 2.345127 1_555
Cu3 O10 2.522310 1_455
Cu4 O12 1.954660 1_555
Cu4 O9 1.971029 1_555
Cu4 O15 2.354368 1_555
Cu4 O0 2.396171 1_565
Cu5 O13 2.089895 1_555
Cu5 O2 2.097609 1_555
Cu5 O11 2.226517 1_555
Cu5 O14 2.232556 1_555
Cu6 O10 2.049589 1_555
Cu6 O14 2.135061 1_555
Cu6 O1 2.232318 1_565
Cu6 O12 2.269091 1_555
Cu7 O13 2.107225 1_555
Cu7 O8 2.112225 1_554
Cu7 O15 2.118431 1_554
Cu7 O3 2.264594 1_564
O0 P1 1.551233 1_555
O1 P1 1.551743 1_655
O2 P0 1.553097 1_565
O3 P0 1.551955 1_656
O4 P1 1.575691 1_555
O5 P0 1.573892 1_556
O6 P2 1.575581 1_555
O7 P3 1.567726 1_555
O8 P3 1.547833 1_555
O9 P3 1.553700 1_455
O10 P2 1.549365 1_555
O11 P2 1.542614 1_455
O12 P3 1.578707 1_555
O13 P2 1.574752 1_555
O14 P1 1.572991 1_565
O15 P0 1.569985 1_566
