# generated using pymatgen
data_BaCu(SiO3)2
_symmetry_space_group_name_H-M   'P 1'
_cell_length_a   13.26125091
_cell_length_b   13.26125091
_cell_length_c   13.26125091
_cell_angle_alpha   134.98207915
_cell_angle_beta   134.98207915
_cell_angle_gamma   65.55804570
_symmetry_Int_Tables_number   1
_chemical_formula_structural   BaCu(SiO3)2
_chemical_formula_sum   'Ba8 Cu8 Si16 O48'
_cell_volume   1149.46358953
_cell_formula_units_Z   8
loop_
 _symmetry_equiv_pos_site_id
 _symmetry_equiv_pos_as_xyz
  1  'x, y, z'
loop_
 _atom_site_type_symbol
 _atom_site_label
 _atom_site_symmetry_multiplicity
 _atom_site_fract_x
 _atom_site_fract_y
 _atom_site_fract_z
 _atom_site_occupancy
  Ba  Ba0  1  0.24715100  0.99715300  0.74991600  1
  Ba  Ba1  1  0.74723600  0.49723400  0.75008400  1
  Ba  Ba2  1  0.99723400  0.74715100  0.74999800  1
  Ba  Ba3  1  0.49715300  0.24723600  0.75000200  1
  Ba  Ba4  1  0.75284900  0.00284700  0.25008400  1
  Ba  Ba5  1  0.25276400  0.50276600  0.24991600  1
  Ba  Ba6  1  0.00276600  0.25284900  0.25000200  1
  Ba  Ba7  1  0.50284700  0.75276400  0.24999800  1
  Cu  Cu0  1  0.43603900  0.18603900  0.25000000  1
  Cu  Cu1  1  0.68603900  0.93603900  0.75000000  1
  Cu  Cu2  1  0.56396100  0.81396100  0.75000000  1
  Cu  Cu3  1  0.31396100  0.06396100  0.25000000  1
  Cu  Cu4  1  0.93599200  0.68599200  0.25000000  1
  Cu  Cu5  1  0.18599200  0.43599200  0.75000000  1
  Cu  Cu6  1  0.06400800  0.31400800  0.75000000  1
  Cu  Cu7  1  0.81400800  0.56400800  0.25000000  1
  Si  Si0  1  0.87455300  0.89844700  0.52364000  1
  Si  Si1  1  0.87480700  0.35091300  0.97636000  1
  Si  Si2  1  0.85091300  0.37455300  0.47610600  1
  Si  Si3  1  0.39844700  0.37480700  0.02389400  1
  Si  Si4  1  0.12544700  0.10155300  0.47636000  1
  Si  Si5  1  0.12519300  0.64908700  0.02364000  1
  Si  Si6  1  0.14908700  0.62544700  0.52389400  1
  Si  Si7  1  0.60155300  0.62519300  0.97610600  1
  Si  Si8  1  0.10070200  0.12455500  0.97608000  1
  Si  Si9  1  0.64847500  0.12462200  0.52392000  1
  Si  Si10  1  0.62462200  0.60070200  0.47614700  1
  Si  Si11  1  0.62455500  0.14847500  0.02385300  1
  Si  Si12  1  0.89929800  0.87544500  0.02392000  1
  Si  Si13  1  0.35152500  0.87537800  0.47608000  1
  Si  Si14  1  0.37537800  0.39929800  0.52385300  1
  Si  Si15  1  0.37544500  0.85152500  0.97614700  1
  O  O0  1  0.00842800  0.99352300  0.74990100  1
  O  O1  1  0.74362200  0.25852700  0.75009900  1
  O  O2  1  0.75852700  0.50842800  0.51490500  1
  O  O3  1  0.49352300  0.24362200  0.98509500  1
  O  O4  1  0.99157200  0.00647700  0.25009900  1
  O  O5  1  0.25637800  0.74147300  0.24990100  1
  O  O6  1  0.24147300  0.49157200  0.48509500  1
  O  O7  1  0.50647700  0.75637800  0.01490500  1
  O  O8  1  0.11946400  0.06116500  0.05650100  1
  O  O9  1  0.50466300  0.06296200  0.44349900  1
  O  O10  1  0.56296200  0.61946400  0.55829900  1
  O  O11  1  0.56116500  0.00466300  0.94170100  1
  O  O12  1  0.88053600  0.93883500  0.94349900  1
  O  O13  1  0.49533700  0.93703800  0.55650100  1
  O  O14  1  0.43703800  0.38053600  0.44170100  1
  O  O15  1  0.43883500  0.99533700  0.05829900  1
  O  O16  1  0.74101200  0.99102200  0.48542200  1
  O  O17  1  0.00560000  0.25559000  0.01457800  1
  O  O18  1  0.75559000  0.24101200  0.24999000  1
  O  O19  1  0.49102200  0.50560000  0.25001000  1
  O  O20  1  0.25898800  0.00897800  0.51457800  1
  O  O21  1  0.99440000  0.74441000  0.98542200  1
  O  O22  1  0.24441000  0.75898800  0.75001000  1
  O  O23  1  0.50897800  0.49440000  0.74999000  1
  O  O24  1  0.18732800  0.24557600  0.55709600  1
  O  O25  1  0.18847900  0.63023200  0.94290400  1
  O  O26  1  0.13023200  0.68732800  0.44175300  1
  O  O27  1  0.74557600  0.68847900  0.05824700  1
  O  O28  1  0.81267200  0.75442400  0.44290400  1
  O  O29  1  0.81152100  0.36976800  0.05709600  1
  O  O30  1  0.86976800  0.31267200  0.55824700  1
  O  O31  1  0.25442400  0.31152100  0.94175300  1
  O  O32  1  0.93621200  0.87995100  0.44120600  1
  O  O33  1  0.93874500  0.49500500  0.05879400  1
  O  O34  1  0.99500500  0.43621200  0.55626000  1
  O  O35  1  0.37995100  0.43874500  0.94374000  1
  O  O36  1  0.06378800  0.12004900  0.55879400  1
  O  O37  1  0.06125500  0.50499500  0.94120600  1
  O  O38  1  0.00499500  0.56378800  0.44374000  1
  O  O39  1  0.62004900  0.56125500  0.05626000  1
  O  O40  1  0.68617300  0.74479300  0.55622200  1
  O  O41  1  0.68857100  0.12995100  0.94377800  1
  O  O42  1  0.62995100  0.18617300  0.44138000  1
  O  O43  1  0.24479300  0.18857100  0.05862000  1
  O  O44  1  0.31382700  0.25520700  0.44377800  1
  O  O45  1  0.31142900  0.87004900  0.05622200  1
  O  O46  1  0.37004900  0.81382700  0.55862000  1
  O  O47  1  0.75520700  0.81142900  0.94138000  1
loop_
_geom_bond_atom_site_label_1
_geom_bond_atom_site_label_2
_geom_bond_distance
_geom_bond_site_symmetry_2
Ba0 O26 2.925988 1_555
Ba0 O15 2.928871 1_556
Ba0 O32 2.936071 1_455
Ba0 O43 2.937249 1_566
Ba0 O11 2.971709 1_565
Ba0 O36 2.973194 1_565
Ba0 O46 2.974749 1_555
Ba0 O31 2.975378 1_565
Ba0 O22 3.174466 1_555
Ba0 O0 3.185843 1_555
Ba0 O3 3.332292 1_565
Ba0 O20 3.345739 1_565
Ba1 O27 2.925970 1_556
Ba1 O14 2.928861 1_555
Ba1 O33 2.936069 1_556
Ba1 O42 2.937239 1_555
Ba1 O10 2.971720 1_555
Ba1 O37 2.973205 1_655
Ba1 O47 2.974760 1_555
Ba1 O30 2.975389 1_555
Ba1 O23 3.174447 1_555
Ba1 O1 3.185825 1_555
Ba1 O2 3.332312 1_555
Ba1 O21 3.345758 1_555
Ba2 O25 2.925989 1_655
Ba2 O12 2.928869 1_555
Ba2 O34 2.936069 1_555
Ba2 O40 2.937238 1_555
Ba2 O8 2.971711 1_666
Ba2 O38 2.973201 1_655
Ba2 O45 2.974758 1_656
Ba2 O28 2.975371 1_555
Ba2 O21 3.174456 1_555
Ba2 O2 3.185834 1_555
Ba2 O0 3.332298 1_655
Ba2 O22 3.345752 1_655
Ba3 O24 2.925989 1_555
Ba3 O13 2.928859 1_545
Ba3 O35 2.936080 1_555
Ba3 O41 2.937238 1_555
Ba3 O9 2.971701 1_555
Ba3 O39 2.973203 1_556
Ba3 O44 2.974758 1_555
Ba3 O29 2.975380 1_556
Ba3 O20 3.174456 1_555
Ba3 O3 3.185834 1_555
Ba3 O1 3.332298 1_555
Ba3 O23 3.345752 1_555
Ba4 O30 2.925988 1_555
Ba4 O11 2.928871 1_554
Ba4 O36 2.936071 1_655
Ba4 O47 2.937249 1_544
Ba4 O15 2.971709 1_545
Ba4 O32 2.973194 1_545
Ba4 O42 2.974749 1_555
Ba4 O27 2.975378 1_545
Ba4 O18 3.174466 1_555
Ba4 O4 3.185843 1_555
Ba4 O7 3.332292 1_545
Ba4 O16 3.345739 1_545
Ba5 O31 2.925970 1_554
Ba5 O10 2.928861 1_555
Ba5 O37 2.936069 1_554
Ba5 O46 2.937239 1_555
Ba5 O14 2.971720 1_555
Ba5 O33 2.973205 1_455
Ba5 O43 2.974760 1_555
Ba5 O26 2.975389 1_555
Ba5 O19 3.174447 1_555
Ba5 O5 3.185825 1_555
Ba5 O6 3.332312 1_555
Ba5 O17 3.345758 1_555
Ba6 O29 2.925989 1_455
Ba6 O8 2.928869 1_555
Ba6 O38 2.936069 1_555
Ba6 O44 2.937238 1_555
Ba6 O12 2.971711 1_444
Ba6 O34 2.973201 1_455
Ba6 O41 2.974758 1_454
Ba6 O24 2.975371 1_555
Ba6 O17 3.174456 1_555
Ba6 O6 3.185834 1_555
Ba6 O4 3.332298 1_455
Ba6 O18 3.345752 1_455
Ba7 O28 2.925989 1_555
Ba7 O9 2.928859 1_565
Ba7 O39 2.936080 1_555
Ba7 O45 2.937238 1_555
Ba7 O13 2.971701 1_555
Ba7 O35 2.973203 1_554
Ba7 O40 2.974758 1_555
Ba7 O25 2.975380 1_554
Ba7 O16 3.174456 1_555
Ba7 O7 3.185834 1_555
Ba7 O5 3.332298 1_555
Ba7 O19 3.345752 1_555
Cu0 O43 1.955625 1_555
Cu0 O42 1.955625 1_555
Cu0 O15 1.956048 1_545
Cu0 O14 1.956048 1_555
Cu1 O41 1.955625 1_565
Cu1 O40 1.955625 1_555
Cu1 O12 1.956053 1_555
Cu1 O13 1.956054 1_555
Cu2 O46 1.955625 1_555
Cu2 O47 1.955625 1_555
Cu2 O10 1.956048 1_555
Cu2 O11 1.956048 1_565
Cu3 O44 1.955625 1_555
Cu3 O45 1.955625 1_545
Cu3 O8 1.956053 1_555
Cu3 O9 1.956054 1_555
Cu4 O27 1.953287 1_555
Cu4 O26 1.953292 1_655
Cu4 O32 1.954603 1_555
Cu4 O33 1.954608 1_555
Cu5 O24 1.953287 1_555
Cu5 O25 1.953292 1_555
Cu5 O35 1.954608 1_555
Cu5 O34 1.954613 1_455
Cu6 O31 1.953287 1_555
Cu6 O30 1.953292 1_455
Cu6 O36 1.954603 1_555
Cu6 O37 1.954608 1_555
Cu7 O28 1.953287 1_555
Cu7 O29 1.953292 1_555
Cu7 O39 1.954608 1_555
Cu7 O38 1.954613 1_655
O0 Si8 1.647866 1_565
O0 Si0 1.648458 1_455
O1 Si9 1.647866 1_555
O1 Si1 1.648458 1_555
O2 Si10 1.647866 1_555
O2 Si2 1.648458 1_555
O3 Si11 1.647866 1_556
O3 Si3 1.648458 1_556
O4 Si12 1.647866 1_545
O4 Si4 1.648458 1_655
O5 Si13 1.647866 1_555
O5 Si5 1.648458 1_555
O6 Si14 1.647866 1_555
O6 Si6 1.648458 1_555
O7 Si15 1.647866 1_554
O7 Si7 1.648458 1_554
O8 Si8 1.620245 1_554
O9 Si9 1.620265 1_555
O10 Si10 1.620258 1_555
O11 Si11 1.620258 1_556
O12 Si12 1.620245 1_556
O13 Si13 1.620265 1_555
O14 Si14 1.620258 1_555
O15 Si15 1.620258 1_554
O16 Si0 1.646744 1_555
O16 Si9 1.647192 1_565
O17 Si1 1.646744 1_454
O17 Si8 1.647192 1_554
O18 Si2 1.646744 1_555
O18 Si11 1.647192 1_555
O19 Si3 1.646744 1_555
O19 Si10 1.647192 1_555
O20 Si4 1.646744 1_555
O20 Si13 1.647192 1_545
O21 Si5 1.646744 1_656
O21 Si12 1.647192 1_556
O22 Si6 1.646744 1_555
O22 Si15 1.647192 1_555
O23 Si7 1.646744 1_555
O23 Si14 1.647192 1_555
O24 Si4 1.622168 1_555
O25 Si5 1.622156 1_556
O26 Si6 1.622156 1_555
O27 Si7 1.622168 1_554
O28 Si0 1.622168 1_555
O29 Si1 1.622156 1_554
O30 Si2 1.622156 1_555
O31 Si3 1.622168 1_556
O32 Si0 1.625565 1_555
O33 Si1 1.625553 1_554
O34 Si2 1.625560 1_555
O35 Si3 1.625553 1_556
O36 Si4 1.625565 1_555
O37 Si5 1.625553 1_556
O38 Si6 1.625560 1_555
O39 Si7 1.625553 1_554
O40 Si10 1.625351 1_555
O41 Si11 1.625351 1_556
O42 Si9 1.625351 1_555
O43 Si8 1.625351 1_554
O44 Si14 1.625351 1_555
O45 Si15 1.625351 1_554
O46 Si13 1.625351 1_555
O47 Si12 1.625351 1_556
