# generated using pymatgen
data_LiY5(MoO6)2
_symmetry_space_group_name_H-M   'P 1'
_cell_length_a   5.92667803
_cell_length_b   7.06401019
_cell_length_c   7.38453816
_cell_angle_alpha   105.77370228
_cell_angle_beta   89.68855095
_cell_angle_gamma   114.84924237
_symmetry_Int_Tables_number   1
_chemical_formula_structural   LiY5(MoO6)2
_chemical_formula_sum   'Li1 Y5 Mo2 O12'
_cell_volume   267.87076082
_cell_formula_units_Z   1
loop_
 _symmetry_equiv_pos_site_id
 _symmetry_equiv_pos_as_xyz
  1  'x, y, z'
loop_
 _atom_site_type_symbol
 _atom_site_label
 _atom_site_symmetry_multiplicity
 _atom_site_fract_x
 _atom_site_fract_y
 _atom_site_fract_z
 _atom_site_occupancy
  Li  Li0  1  0.63866200  0.28443100  0.30237400  1
  Y  Y0  1  0.48565000  0.98237200  0.50419200  1
  Y  Y1  1  0.19003800  0.38865700  0.82564400  1
  Y  Y2  1  0.81411100  0.63192000  0.16503300  1
  Y  Y3  1  0.80174300  0.61313600  0.64916500  1
  Y  Y4  1  0.20200100  0.40983500  0.36030000  1
  Mo  Mo0  1  0.74636500  0.00022000  0.00010200  1
  Mo  Mo1  1  0.25978900  0.00037000  0.99816400  1
  O  O0  1  0.00560000  0.01517300  0.80951000  1
  O  O1  1  0.00315700  0.00203300  0.18844100  1
  O  O2  1  0.50252300  0.98690700  0.19733500  1
  O  O3  1  0.50655700  0.00853900  0.81027000  1
  O  O4  1  0.59927300  0.69941700  0.43022600  1
  O  O5  1  0.90186400  0.31712600  0.56402500  1
  O  O6  1  0.41443900  0.30937500  0.55529700  1
  O  O7  1  0.42271000  0.33100100  0.10904400  1
  O  O8  1  0.07353900  0.67006400  0.91325100  1
  O  O9  1  0.58875500  0.65449900  0.91136000  1
  O  O10  1  0.92302400  0.34433000  0.10442600  1
  O  O11  1  0.09728400  0.70244800  0.43219900  1
loop_
_geom_bond_atom_site_label_1
_geom_bond_atom_site_label_2
_geom_bond_distance
_geom_bond_site_symmetry_2
Li0 O2 1.834425 1_545
Li0 O7 2.100852 1_555
Li0 O10 2.205951 1_555
Li0 O6 2.297017 1_555
Li0 O5 2.388998 1_555
Mo0 O3 2.031058 1_554
Mo0 O2 2.038638 1_545
Mo0 O1 2.060989 1_655
Mo0 O0 2.067240 1_654
Mo0 O10 2.109528 1_555
Mo0 O9 2.117892 1_544
Mo1 O3 2.004495 1_555
Mo1 O8 2.025654 1_545
Mo1 O7 2.032533 1_556
Mo1 O1 2.066553 1_556
Mo1 O0 2.110847 1_555
Mo1 O2 2.110896 1_546
O0 Y1 2.361430 1_555
O0 Y3 2.496151 1_445
O1 Y2 2.327047 1_445
O1 Y4 2.544271 1_555
O2 Y0 2.275979 1_555
O3 Y0 2.216952 1_545
O4 Y0 2.297981 1_555
O4 Y4 2.320727 1_555
O4 Y3 2.365769 1_555
O4 Y2 2.378887 1_555
O5 Y4 2.320303 1_655
O5 Y3 2.333189 1_555
O5 Y1 2.384215 1_655
O5 Y0 2.532434 1_545
O6 Y3 2.328684 1_555
O6 Y4 2.342761 1_555
O6 Y0 2.449513 1_545
O6 Y1 2.461151 1_555
O7 Y2 2.336418 1_555
O7 Y4 2.342607 1_555
O7 Y1 2.722861 1_554
O8 Y1 2.301384 1_555
O8 Y3 2.371283 1_455
O8 Y2 2.405561 1_456
O9 Y1 2.269721 1_555
O9 Y3 2.324538 1_555
O9 Y2 2.384760 1_556
O10 Y2 2.312744 1_555
O10 Y4 2.331033 1_655
O10 Y1 2.595978 1_654
O11 Y0 2.259887 1_555
O11 Y4 2.327570 1_555
O11 Y3 2.371363 1_455
O11 Y2 2.399169 1_455
