# generated using pymatgen
data_Sr2(FeO2)3
_symmetry_space_group_name_H-M   'P 1'
_cell_length_a   5.64193800
_cell_length_b   5.64193800
_cell_length_c   19.43262600
_cell_angle_alpha   90.00000000
_cell_angle_beta   90.00000000
_cell_angle_gamma   90.00000000
_symmetry_Int_Tables_number   1
_chemical_formula_structural   Sr2(FeO2)3
_chemical_formula_sum   'Sr8 Fe12 O24'
_cell_volume   618.56894264
_cell_formula_units_Z   4
loop_
 _symmetry_equiv_pos_site_id
 _symmetry_equiv_pos_as_xyz
  1  'x, y, z'
loop_
 _atom_site_type_symbol
 _atom_site_label
 _atom_site_symmetry_multiplicity
 _atom_site_fract_x
 _atom_site_fract_y
 _atom_site_fract_z
 _atom_site_occupancy
  Sr  Sr0  1  0.73803400  0.73803400  0.41157700  1
  Sr  Sr1  1  0.26196600  0.26196600  0.41157700  1
  Sr  Sr2  1  0.76196600  0.23803400  0.91157700  1
  Sr  Sr3  1  0.23803400  0.76196600  0.91157700  1
  Sr  Sr4  1  0.26196600  0.26196600  0.58842300  1
  Sr  Sr5  1  0.73803400  0.73803400  0.58842300  1
  Sr  Sr6  1  0.23803400  0.76196600  0.08842300  1
  Sr  Sr7  1  0.76196600  0.23803400  0.08842300  1
  Fe  Fe0  1  0.24634400  0.75365600  0.50000000  1
  Fe  Fe1  1  0.75365600  0.24634400  0.50000000  1
  Fe  Fe2  1  0.25365600  0.25365600  0.00000000  1
  Fe  Fe3  1  0.74634400  0.74634400  0.00000000  1
  Fe  Fe4  1  0.17611900  0.82388100  0.29514100  1
  Fe  Fe5  1  0.82388100  0.17611900  0.29514100  1
  Fe  Fe6  1  0.32388100  0.32388100  0.79514100  1
  Fe  Fe7  1  0.67611900  0.67611900  0.79514100  1
  Fe  Fe8  1  0.82388100  0.17611900  0.70485900  1
  Fe  Fe9  1  0.17611900  0.82388100  0.70485900  1
  Fe  Fe10  1  0.67611900  0.67611900  0.20485900  1
  Fe  Fe11  1  0.32388100  0.32388100  0.20485900  1
  O  O0  1  0.00000000  0.00000000  0.50000000  1
  O  O1  1  0.50000000  0.50000000  0.00000000  1
  O  O2  1  0.00000000  0.50000000  0.50000000  1
  O  O3  1  0.50000000  0.00000000  0.00000000  1
  O  O4  1  0.50000000  0.00000000  0.50000000  1
  O  O5  1  0.00000000  0.50000000  0.00000000  1
  O  O6  1  0.50000000  0.50000000  0.50000000  1
  O  O7  1  0.00000000  0.00000000  0.00000000  1
  O  O8  1  0.25645200  0.74354800  0.38709400  1
  O  O9  1  0.74354800  0.25645200  0.38709400  1
  O  O10  1  0.24354800  0.24354800  0.88709400  1
  O  O11  1  0.75645200  0.75645200  0.88709400  1
  O  O12  1  0.74354800  0.25645200  0.61290600  1
  O  O13  1  0.25645200  0.74354800  0.61290600  1
  O  O14  1  0.75645200  0.75645200  0.11290600  1
  O  O15  1  0.24354800  0.24354800  0.11290600  1
  O  O16  1  0.81893700  0.81893700  0.28600600  1
  O  O17  1  0.18106300  0.18106300  0.28600600  1
  O  O18  1  0.68106300  0.31893700  0.78600600  1
  O  O19  1  0.31893700  0.68106300  0.78600600  1
  O  O20  1  0.18106300  0.18106300  0.71399400  1
  O  O21  1  0.81893700  0.81893700  0.71399400  1
  O  O22  1  0.31893700  0.68106300  0.21399400  1
  O  O23  1  0.68106300  0.31893700  0.21399400  1
loop_
_geom_bond_atom_site_label_1
_geom_bond_atom_site_label_2
_geom_bond_distance
_geom_bond_site_symmetry_2
Fe0 O0 1.965555 1_565
Fe0 O4 1.994940 1_565
Fe0 O2 1.994940 1_555
Fe0 O6 2.023897 1_555
Fe0 O13 2.195542 1_555
Fe0 O8 2.195542 1_555
Fe1 O0 1.965555 1_655
Fe1 O4 1.994940 1_555
Fe1 O2 1.994940 1_655
Fe1 O6 2.023897 1_555
Fe1 O12 2.195542 1_555
Fe1 O9 2.195542 1_555
Fe2 O1 1.965555 1_555
Fe2 O5 1.994940 1_555
Fe2 O3 1.994940 1_555
Fe2 O7 2.023897 1_555
Fe2 O10 2.195542 1_554
Fe2 O15 2.195542 1_555
Fe3 O1 1.965555 1_555
Fe3 O5 1.994940 1_655
Fe3 O3 1.994940 1_565
Fe3 O7 2.023897 1_665
Fe3 O11 2.195542 1_554
Fe3 O14 2.195542 1_555
Fe4 O8 1.898371 1_555
Fe4 O22 1.945544 1_555
Fe4 O16 2.023195 1_455
Fe4 O17 2.023195 1_565
Fe5 O9 1.898371 1_555
Fe5 O23 1.945544 1_555
Fe5 O17 2.023195 1_655
Fe5 O16 2.023195 1_545
Fe6 O10 1.898371 1_555
Fe6 O20 1.945544 1_555
Fe6 O18 2.023195 1_555
Fe6 O19 2.023195 1_555
Fe7 O11 1.898371 1_555
Fe7 O21 1.945544 1_555
Fe7 O18 2.023195 1_555
Fe7 O19 2.023195 1_555
Fe8 O12 1.898371 1_555
Fe8 O18 1.945544 1_555
Fe8 O20 2.023195 1_655
Fe8 O21 2.023195 1_545
Fe9 O13 1.898371 1_555
Fe9 O19 1.945544 1_555
Fe9 O20 2.023195 1_565
Fe9 O21 2.023195 1_455
Fe10 O14 1.898371 1_555
Fe10 O16 1.945544 1_555
Fe10 O22 2.023195 1_555
Fe10 O23 2.023195 1_555
Fe11 O15 1.898371 1_555
Fe11 O17 1.945544 1_555
Fe11 O22 2.023195 1_555
Fe11 O23 2.023195 1_555
O0 Sr1 2.705821 1_555
O0 Sr0 2.705821 1_445
O0 Sr4 2.705821 1_555
O0 Sr5 2.705821 1_445
O1 Sr6 2.705821 1_555
O1 Sr7 2.705821 1_555
O1 Sr3 2.705821 1_554
O1 Sr2 2.705821 1_554
O2 Sr1 2.634497 1_555
O2 Sr0 2.634497 1_455
O2 Sr4 2.634497 1_555
O2 Sr5 2.634497 1_455
O3 Sr6 2.634497 1_545
O3 Sr7 2.634497 1_555
O3 Sr3 2.634497 1_544
O3 Sr2 2.634497 1_554
O4 Sr1 2.634497 1_555
O4 Sr0 2.634497 1_545
O4 Sr5 2.634497 1_545
O4 Sr4 2.634497 1_555
O5 Sr7 2.634497 1_455
O5 Sr6 2.634497 1_555
O5 Sr2 2.634497 1_454
O5 Sr3 2.634497 1_554
O6 Sr0 2.561187 1_555
O6 Sr1 2.561187 1_555
O6 Sr5 2.561187 1_555
O6 Sr4 2.561187 1_555
O7 Sr6 2.561187 1_545
O7 Sr7 2.561187 1_455
O7 Sr3 2.561187 1_544
O7 Sr2 2.561187 1_454
O8 Sr0 2.758571 1_555
O8 Sr1 2.758571 1_555
O8 Sr1 2.963488 1_565
O8 Sr0 2.963488 1_455
O9 Sr0 2.758571 1_555
O9 Sr1 2.758571 1_555
O9 Sr1 2.963488 1_655
O9 Sr0 2.963488 1_545
O10 Sr3 2.758571 1_545
O10 Sr2 2.758571 1_455
O10 Sr3 2.963488 1_555
O10 Sr2 2.963488 1_555
O11 Sr2 2.758571 1_565
O11 Sr3 2.758571 1_655
O11 Sr2 2.963488 1_555
O11 Sr3 2.963488 1_555
O12 Sr5 2.758571 1_555
O12 Sr4 2.758571 1_555
O12 Sr4 2.963488 1_655
O12 Sr5 2.963488 1_545
O13 Sr5 2.758571 1_555
O13 Sr4 2.758571 1_555
O13 Sr4 2.963488 1_565
O13 Sr5 2.963488 1_455
O14 Sr7 2.758571 1_565
O14 Sr6 2.758571 1_655
O14 Sr7 2.963488 1_555
O14 Sr6 2.963488 1_555
O15 Sr7 2.758571 1_455
O15 Sr6 2.758571 1_545
O15 Sr6 2.963488 1_555
O15 Sr7 2.963488 1_555
O16 Sr0 2.524112 1_555
O17 Sr1 2.524112 1_555
O18 Sr2 2.524112 1_555
O19 Sr3 2.524112 1_555
O20 Sr4 2.524112 1_555
O21 Sr5 2.524112 1_555
O22 Sr6 2.524112 1_555
O23 Sr7 2.524112 1_555
