# generated using pymatgen
data_DyCoSi2Rh
_symmetry_space_group_name_H-M   'P 1'
_cell_length_a   5.69331632
_cell_length_b   5.69331632
_cell_length_c   5.69331632
_cell_angle_alpha   139.07232924
_cell_angle_beta   139.07232924
_cell_angle_gamma   59.26458159
_symmetry_Int_Tables_number   1
_chemical_formula_structural   DyCoSi2Rh
_chemical_formula_sum   'Dy1 Co1 Si2 Rh1'
_cell_volume   78.42719437
_cell_formula_units_Z   1
loop_
 _symmetry_equiv_pos_site_id
 _symmetry_equiv_pos_as_xyz
  1  'x, y, z'
loop_
 _atom_site_type_symbol
 _atom_site_label
 _atom_site_symmetry_multiplicity
 _atom_site_fract_x
 _atom_site_fract_y
 _atom_site_fract_z
 _atom_site_occupancy
  Dy  Dy0  1  0.00000000  0.00000000  0.00000000  1
  Co  Co0  1  0.25000000  0.75000000  0.50000000  1
  Si  Si0  1  0.62380000  0.62380000  0.00000000  1
  Si  Si1  1  0.37620000  0.37620000  0.00000000  1
  Rh  Rh0  1  0.75000000  0.25000000  0.50000000  1
loop_
_geom_bond_atom_site_label_1
_geom_bond_atom_site_label_2
_geom_bond_distance
_geom_bond_site_symmetry_2
Dy0 Si1 3.070074 1_545
Dy0 Si1 3.070074 1_444
Dy0 Si1 3.070074 1_455
Dy0 Si0 3.070074 1_545
Dy0 Si0 3.070074 1_556
Dy0 Si1 3.070074 1_556
Dy0 Si0 3.070074 1_455
Dy0 Si0 3.070074 1_444
Dy0 Rh0 3.175604 1_455
Dy0 Rh0 3.175604 1_444
Dy0 Rh0 3.175604 1_555
Dy0 Rh0 3.175604 1_454
Co0 Si0 2.349923 1_556
Co0 Si1 2.349923 1_555
Co0 Si0 2.349923 1_455
Co0 Si1 2.349923 1_566
Co0 Rh0 2.814957 1_465
Co0 Rh0 2.814957 1_454
Co0 Rh0 2.814957 1_566
Co0 Rh0 2.814957 1_555
Co0 Dy0 3.175604 1_566
Co0 Dy0 3.175604 1_565
Co0 Dy0 3.175604 1_666
Co0 Dy0 3.175604 1_555
Si0 Si1 2.450608 1_555
Rh0 Si0 2.349923 1_545
Rh0 Si0 2.349923 1_556
Rh0 Si1 2.349923 1_555
Rh0 Si1 2.349923 1_656
