# generated using pymatgen
data_Na2BeB2O5
_symmetry_space_group_name_H-M   'P 1'
_cell_length_a   5.04032083
_cell_length_b   5.04032083
_cell_length_c   9.12378215
_cell_angle_alpha   85.23343795
_cell_angle_beta   85.23343795
_cell_angle_gamma   108.21509345
_symmetry_Int_Tables_number   1
_chemical_formula_structural   Na2BeB2O5
_chemical_formula_sum   'Na4 Be2 B4 O10'
_cell_volume   217.95037458
_cell_formula_units_Z   2
loop_
 _symmetry_equiv_pos_site_id
 _symmetry_equiv_pos_as_xyz
  1  'x, y, z'
loop_
 _atom_site_type_symbol
 _atom_site_label
 _atom_site_symmetry_multiplicity
 _atom_site_fract_x
 _atom_site_fract_y
 _atom_site_fract_z
 _atom_site_occupancy
  Na  Na0  1  0.29457700  0.68448500  0.57154300  1
  Na  Na1  1  0.31551500  0.70542300  0.92845700  1
  Na  Na2  1  0.70542300  0.31551500  0.42845700  1
  Na  Na3  1  0.68448500  0.29457700  0.07154300  1
  Be  Be0  1  0.71074200  0.28925800  0.75000000  1
  Be  Be1  1  0.28925800  0.71074200  0.25000000  1
  B  B0  1  0.82784500  0.83960300  0.67826200  1
  B  B1  1  0.16039700  0.17215500  0.82173800  1
  B  B2  1  0.83960300  0.82784500  0.17826200  1
  B  B3  1  0.17215500  0.16039700  0.32173800  1
  O  O0  1  0.01863700  0.67693000  0.15617300  1
  O  O1  1  0.67693000  0.01863700  0.65617300  1
  O  O2  1  0.57560900  0.75495900  0.13301800  1
  O  O3  1  0.24504100  0.42439100  0.36698200  1
  O  O4  1  0.42439100  0.24504100  0.86698200  1
  O  O5  1  0.75495900  0.57560900  0.63301800  1
  O  O6  1  0.92433800  0.07566200  0.25000000  1
  O  O7  1  0.07566200  0.92433800  0.75000000  1
  O  O8  1  0.98136300  0.32307000  0.84382700  1
  O  O9  1  0.32307000  0.98136300  0.34382700  1
loop_
_geom_bond_atom_site_label_1
_geom_bond_atom_site_label_2
_geom_bond_distance
_geom_bond_site_symmetry_2
Na0 O3 2.354512 1_555
Na0 O1 2.362440 1_565
Na0 O9 2.423976 1_555
Na0 O7 2.488486 1_555
Na0 O5 2.602982 1_455
Na0 O5 2.638480 1_555
Na1 O2 2.354512 1_556
Na1 O8 2.362440 1_455
Na1 O0 2.423976 1_556
Na1 O7 2.488486 1_555
Na1 O4 2.602982 1_565
Na1 O4 2.638480 1_555
Na2 O5 2.354512 1_555
Na2 O9 2.362440 1_545
Na2 O1 2.423976 1_555
Na2 O6 2.488486 1_555
Na2 O3 2.602982 1_655
Na2 O3 2.638480 1_555
Na3 O4 2.354512 1_554
Na3 O0 2.362440 1_655
Na3 O8 2.423976 1_554
Na3 O6 2.488486 1_555
Na3 O2 2.602982 1_545
Na3 O2 2.638480 1_555
Be0 O1 1.641767 1_555
Be0 O8 1.641767 1_555
Be0 O4 1.665928 1_555
Be0 O5 1.665928 1_555
Be1 O9 1.641767 1_555
Be1 O0 1.641767 1_555
Be1 O3 1.665928 1_555
Be1 O2 1.665928 1_555
B0 O1 1.363049 1_565
B0 O5 1.373602 1_555
B0 O7 1.421203 1_655
B1 O8 1.363049 1_455
B1 O4 1.373602 1_555
B1 O7 1.421203 1_545
B2 O0 1.363049 1_655
B2 O2 1.373602 1_555
B2 O6 1.421203 1_565
B3 O9 1.363049 1_545
B3 O3 1.373602 1_555
B3 O6 1.421203 1_455
