# generated using pymatgen
data_Sm3CrS6
_symmetry_space_group_name_H-M   'P 1'
_cell_length_a   3.84504527
_cell_length_b   13.53277870
_cell_length_c   16.13331053
_cell_angle_alpha   90.00000000
_cell_angle_beta   90.00000000
_cell_angle_gamma   90.00000000
_symmetry_Int_Tables_number   1
_chemical_formula_structural   Sm3CrS6
_chemical_formula_sum   'Sm12 Cr4 S24'
_cell_volume   839.48304736
_cell_formula_units_Z   4
loop_
 _symmetry_equiv_pos_site_id
 _symmetry_equiv_pos_as_xyz
  1  'x, y, z'
loop_
 _atom_site_type_symbol
 _atom_site_label
 _atom_site_symmetry_multiplicity
 _atom_site_fract_x
 _atom_site_fract_y
 _atom_site_fract_z
 _atom_site_occupancy
  Sm  Sm0  1  0.00000000  0.55152824  0.28077627  1
  Sm  Sm1  1  -0.00000000  0.44847176  0.71922373  1
  Sm  Sm2  1  0.50000000  0.94847176  0.78077627  1
  Sm  Sm3  1  0.50000000  0.05152824  0.21922373  1
  Sm  Sm4  1  -0.00000000  0.75820593  0.09698530  1
  Sm  Sm5  1  0.00000000  0.24179407  0.90301470  1
  Sm  Sm6  1  0.50000000  0.74179407  0.59698530  1
  Sm  Sm7  1  0.50000000  0.25820593  0.40301470  1
  Sm  Sm8  1  0.00000000  0.31982174  0.14796619  1
  Sm  Sm9  1  0.00000000  0.68017826  0.85203381  1
  Sm  Sm10  1  0.50000000  0.18017826  0.64796619  1
  Sm  Sm11  1  0.50000000  0.81982174  0.35203381  1
  Cr  Cr0  1  0.00000000  0.00000000  0.50000000  1
  Cr  Cr1  1  0.50000000  0.50000000  0.00000000  1
  Cr  Cr2  1  0.00000000  0.00000000  0.00000000  1
  Cr  Cr3  1  0.50000000  0.50000000  0.50000000  1
  S  S0  1  0.00000000  0.12158268  0.10452494  1
  S  S1  1  -0.00000000  0.87841732  0.89547506  1
  S  S2  1  0.50000000  0.37841732  0.60452494  1
  S  S3  1  0.50000000  0.62158268  0.39547506  1
  S  S4  1  0.00000000  0.18894100  0.28960005  1
  S  S5  1  -0.00000000  0.81105900  0.71039995  1
  S  S6  1  0.50000000  0.31105900  0.78960005  1
  S  S7  1  0.50000000  0.68894100  0.21039995  1
  S  S8  1  -0.00000000  0.17751706  0.51988065  1
  S  S9  1  0.00000000  0.82248294  0.48011935  1
  S  S10  1  0.50000000  0.32248294  0.01988065  1
  S  S11  1  0.50000000  0.67751706  0.98011935  1
  S  S12  1  -0.00000000  0.52303130  0.09622134  1
  S  S13  1  0.00000000  0.47696870  0.90377866  1
  S  S14  1  0.50000000  0.97696870  0.59622134  1
  S  S15  1  0.50000000  0.02303130  0.40377866  1
  S  S16  1  -0.00000000  0.10165090  0.75409065  1
  S  S17  1  0.00000000  0.89834910  0.24590935  1
  S  S18  1  0.50000000  0.39834910  0.25409065  1
  S  S19  1  0.50000000  0.60165090  0.74590935  1
  S  S20  1  0.00000000  0.41941794  0.42677752  1
  S  S21  1  -0.00000000  0.58058206  0.57322248  1
  S  S22  1  0.50000000  0.08058206  0.92677752  1
  S  S23  1  0.50000000  0.91941794  0.07322248  1
loop_
_geom_bond_atom_site_label_1
_geom_bond_atom_site_label_2
_geom_bond_distance
_geom_bond_site_symmetry_2
Cr0 S9 2.423616 1_545
Cr0 S8 2.423616 1_555
Cr0 S15 2.490599 1_455
Cr0 S15 2.490599 1_555
Cr0 S14 2.490599 1_445
Cr0 S14 2.490599 1_545
Cr1 S10 2.423616 1_555
Cr1 S11 2.423616 1_554
Cr1 S12 2.490599 1_555
Cr1 S12 2.490599 1_655
Cr1 S13 2.490599 1_554
Cr1 S13 2.490599 1_654
Cr2 S1 2.356035 1_544
Cr2 S0 2.356035 1_555
Cr2 S22 2.506153 1_554
Cr2 S22 2.506153 1_454
Cr2 S23 2.506153 1_445
Cr2 S23 2.506153 1_545
Cr3 S2 2.356035 1_555
Cr3 S3 2.356035 1_555
Cr3 S21 2.506153 1_655
Cr3 S20 2.506153 1_555
Cr3 S20 2.506153 1_655
Cr3 S21 2.506153 1_555
S0 Sm8 2.772762 1_555
S0 Sm3 2.831802 1_455
S0 Sm3 2.831802 1_555
S1 Sm9 2.772762 1_555
S1 Sm2 2.831802 1_555
S1 Sm2 2.831802 1_455
S2 Sm10 2.772762 1_555
S2 Sm1 2.831802 1_655
S2 Sm1 2.831802 1_555
S3 Sm11 2.772762 1_555
S3 Sm0 2.831802 1_555
S3 Sm0 2.831802 1_655
S4 Sm7 2.814731 1_555
S4 Sm7 2.814731 1_455
S4 Sm8 2.891091 1_555
S4 Sm3 2.905728 1_555
S4 Sm3 2.905728 1_455
S5 Sm6 2.814731 1_455
S5 Sm6 2.814731 1_555
S5 Sm9 2.891091 1_555
S5 Sm2 2.905728 1_455
S5 Sm2 2.905728 1_555
S6 Sm5 2.814731 1_655
S6 Sm5 2.814731 1_555
S6 Sm10 2.891091 1_555
S6 Sm1 2.905728 1_555
S6 Sm1 2.905728 1_655
S7 Sm4 2.814731 1_555
S7 Sm4 2.814731 1_655
S7 Sm11 2.891091 1_555
S7 Sm0 2.905728 1_555
S7 Sm0 2.905728 1_655
S8 Sm10 2.822690 1_455
S8 Sm10 2.822690 1_555
S8 Sm7 2.905736 1_455
S8 Sm7 2.905736 1_555
S9 Sm11 2.822690 1_455
S9 Sm11 2.822690 1_555
S9 Sm6 2.905736 1_555
S9 Sm6 2.905736 1_455
S10 Sm8 2.822690 1_655
S10 Sm8 2.822690 1_555
S10 Sm5 2.905736 1_554
S10 Sm5 2.905736 1_654
S11 Sm9 2.822690 1_655
S11 Sm9 2.822690 1_555
S11 Sm4 2.905736 1_556
S11 Sm4 2.905736 1_656
S12 Sm8 2.873911 1_555
S12 Sm0 3.002352 1_555
S12 Sm4 3.182590 1_555
S13 Sm9 2.873911 1_555
S13 Sm1 3.002352 1_555
S13 Sm5 3.182590 1_555
S14 Sm10 2.873911 1_565
S14 Sm2 3.002352 1_555
S14 Sm6 3.182590 1_555
S15 Sm11 2.873911 1_545
S15 Sm3 3.002352 1_555
S15 Sm7 3.182590 1_555
S16 Sm10 2.785109 1_555
S16 Sm10 2.785109 1_455
S16 Sm2 2.859812 1_445
S16 Sm2 2.859812 1_545
S16 Sm5 3.060961 1_555
S17 Sm11 2.785109 1_455
S17 Sm11 2.785109 1_555
S17 Sm3 2.859812 1_465
S17 Sm3 2.859812 1_565
S17 Sm4 3.060961 1_555
S18 Sm8 2.785109 1_655
S18 Sm8 2.785109 1_555
S18 Sm0 2.859812 1_655
S18 Sm0 2.859812 1_555
S18 Sm7 3.060961 1_555
S19 Sm9 2.785109 1_655
S19 Sm9 2.785109 1_555
S19 Sm1 2.859812 1_655
S19 Sm1 2.859812 1_555
S19 Sm6 3.060961 1_555
S20 Sm7 2.933027 1_555
S20 Sm7 2.933027 1_455
S20 Sm0 2.957127 1_555
S21 Sm6 2.933027 1_455
S21 Sm6 2.933027 1_555
S21 Sm1 2.957127 1_555
S22 Sm5 2.933027 1_655
S22 Sm5 2.933027 1_555
S22 Sm2 2.957127 1_545
S23 Sm4 2.933027 1_555
S23 Sm4 2.933027 1_655
S23 Sm3 2.957127 1_565
