# generated using pymatgen
data_Ni
_symmetry_space_group_name_H-M   'P 1'
_cell_length_a   4.89604596
_cell_length_b   4.89604563
_cell_length_c   8.14561514
_cell_angle_alpha   90.00000000
_cell_angle_beta   90.00000000
_cell_angle_gamma   120.00000222
_symmetry_Int_Tables_number   1
_chemical_formula_structural   Ni
_chemical_formula_sum   Ni16
_cell_volume   169.10071801
_cell_formula_units_Z   16
loop_
 _symmetry_equiv_pos_site_id
 _symmetry_equiv_pos_as_xyz
  1  'x, y, z'
loop_
 _atom_site_type_symbol
 _atom_site_label
 _atom_site_symmetry_multiplicity
 _atom_site_fract_x
 _atom_site_fract_y
 _atom_site_fract_z
 _atom_site_occupancy
  Ni  Ni0_0  1  0.16666650  0.33333350  0.12500000  1
  Ni  Ni0_1  1  0.16666650  0.33333350  0.62500000  1
  Ni  Ni0_2  1  0.16666650  0.83333350  0.12500000  1
  Ni  Ni0_3  1  0.16666650  0.83333350  0.62500000  1
  Ni  Ni0_4  1  0.66666650  0.33333350  0.12500000  1
  Ni  Ni0_5  1  0.66666650  0.33333350  0.62500000  1
  Ni  Ni0_6  1  0.66666650  0.83333350  0.12500000  1
  Ni  Ni0_7  1  0.66666650  0.83333350  0.62500000  1
  Ni  Ni1_0  1  0.33333350  0.16666650  0.37500000  1
  Ni  Ni1_1  1  0.33333350  0.16666650  0.87500000  1
  Ni  Ni1_2  1  0.33333350  0.66666650  0.37500000  1
  Ni  Ni1_3  1  0.33333350  0.66666650  0.87500000  1
  Ni  Ni1_4  1  0.83333350  0.16666650  0.37500000  1
  Ni  Ni1_5  1  0.83333350  0.16666650  0.87500000  1
  Ni  Ni1_6  1  0.83333350  0.66666650  0.37500000  1
  Ni  Ni1_7  1  0.83333350  0.66666650  0.87500000  1
loop_
_geom_bond_atom_site_label_1
_geom_bond_atom_site_label_2
_geom_bond_distance
_geom_bond_site_symmetry_2
Ni0_0 Ni0_2 2.448023 1_555
Ni0_0 Ni0_6 2.448023 1_445
Ni0_0 Ni0_2 2.448023 1_545
Ni0_0 Ni0_6 2.448023 1_555
Ni0_0 Ni0_4 2.448023 1_455
Ni0_0 Ni0_4 2.448023 1_555
Ni0_0 Ni1_3 2.478819 1_554
Ni0_0 Ni1_2 2.478819 1_555
Ni0_0 Ni1_4 2.478819 1_455
Ni0_0 Ni1_5 2.478819 1_454
Ni0_0 Ni1_0 2.478821 1_555
Ni0_0 Ni1_1 2.478821 1_554
Ni0_1 Ni0_3 2.448023 1_555
Ni0_1 Ni0_7 2.448023 1_555
Ni0_1 Ni0_7 2.448023 1_445
Ni0_1 Ni0_3 2.448023 1_545
Ni0_1 Ni0_5 2.448023 1_455
Ni0_1 Ni0_5 2.448023 1_555
Ni0_1 Ni1_3 2.478819 1_555
Ni0_1 Ni1_2 2.478819 1_555
Ni0_1 Ni1_5 2.478819 1_455
Ni0_1 Ni1_4 2.478819 1_455
Ni0_1 Ni1_1 2.478821 1_555
Ni0_1 Ni1_0 2.478821 1_555
Ni0_2 Ni0_4 2.448023 1_455
Ni0_2 Ni0_4 2.448023 1_565
Ni0_2 Ni0_6 2.448023 1_455
Ni0_2 Ni0_6 2.448023 1_555
Ni0_2 Ni1_0 2.478819 1_565
Ni0_2 Ni1_1 2.478819 1_564
Ni0_2 Ni1_6 2.478819 1_455
Ni0_2 Ni1_7 2.478819 1_454
Ni0_2 Ni1_3 2.478821 1_554
Ni0_2 Ni1_2 2.478821 1_555
Ni0_3 Ni0_5 2.448023 1_565
Ni0_3 Ni0_5 2.448023 1_455
Ni0_3 Ni0_7 2.448023 1_555
Ni0_3 Ni0_7 2.448023 1_455
Ni0_3 Ni1_1 2.478819 1_565
Ni0_3 Ni1_0 2.478819 1_565
Ni0_3 Ni1_7 2.478819 1_455
Ni0_3 Ni1_6 2.478819 1_455
Ni0_3 Ni1_3 2.478821 1_555
Ni0_3 Ni1_2 2.478821 1_555
Ni0_4 Ni0_6 2.448023 1_555
Ni0_4 Ni0_6 2.448023 1_545
Ni0_4 Ni1_6 2.478819 1_555
Ni0_4 Ni1_7 2.478819 1_554
Ni0_4 Ni1_1 2.478819 1_554
Ni0_4 Ni1_0 2.478819 1_555
Ni0_4 Ni1_4 2.478821 1_555
Ni0_4 Ni1_5 2.478821 1_554
Ni0_5 Ni0_7 2.448023 1_555
Ni0_5 Ni0_7 2.448023 1_545
Ni0_5 Ni1_7 2.478819 1_555
Ni0_5 Ni1_6 2.478819 1_555
Ni0_5 Ni1_1 2.478819 1_555
Ni0_5 Ni1_0 2.478819 1_555
Ni0_5 Ni1_5 2.478821 1_555
Ni0_5 Ni1_4 2.478821 1_555
Ni0_6 Ni1_4 2.478819 1_565
Ni0_6 Ni1_5 2.478819 1_564
Ni0_6 Ni1_3 2.478819 1_554
Ni0_6 Ni1_2 2.478819 1_555
Ni0_6 Ni1_7 2.478821 1_554
Ni0_6 Ni1_6 2.478821 1_555
Ni0_7 Ni1_5 2.478819 1_565
Ni0_7 Ni1_4 2.478819 1_565
Ni0_7 Ni1_3 2.478819 1_555
Ni0_7 Ni1_2 2.478819 1_555
Ni0_7 Ni1_7 2.478821 1_555
Ni0_7 Ni1_6 2.478821 1_555
Ni1_0 Ni1_2 2.448023 1_555
Ni1_0 Ni1_2 2.448023 1_545
Ni1_0 Ni1_6 2.448023 1_445
Ni1_0 Ni1_6 2.448023 1_555
Ni1_0 Ni1_4 2.448023 1_455
Ni1_0 Ni1_4 2.448023 1_555
Ni1_1 Ni1_3 2.448023 1_555
Ni1_1 Ni1_7 2.448023 1_555
Ni1_1 Ni1_7 2.448023 1_445
Ni1_1 Ni1_3 2.448023 1_545
Ni1_1 Ni1_5 2.448023 1_455
Ni1_1 Ni1_5 2.448023 1_555
Ni1_2 Ni1_4 2.448023 1_455
Ni1_2 Ni1_4 2.448023 1_565
Ni1_2 Ni1_6 2.448023 1_455
Ni1_2 Ni1_6 2.448023 1_555
Ni1_3 Ni1_5 2.448023 1_455
Ni1_3 Ni1_5 2.448023 1_565
Ni1_3 Ni1_7 2.448023 1_455
Ni1_3 Ni1_7 2.448023 1_555
Ni1_4 Ni1_6 2.448023 1_555
Ni1_4 Ni1_6 2.448023 1_545
Ni1_5 Ni1_7 2.448023 1_555
Ni1_5 Ni1_7 2.448023 1_545
