# generated using pymatgen
data_Zn(NiO2)2
_symmetry_space_group_name_H-M   'P 1'
_cell_length_a   5.90552904
_cell_length_b   5.90552904
_cell_length_c   5.90552971
_cell_angle_alpha   59.72493662
_cell_angle_beta   59.72493662
_cell_angle_gamma   59.72494408
_symmetry_Int_Tables_number   1
_chemical_formula_structural   Zn(NiO2)2
_chemical_formula_sum   'Zn2 Ni4 O8'
_cell_volume   144.72378900
_cell_formula_units_Z   2
loop_
 _symmetry_equiv_pos_site_id
 _symmetry_equiv_pos_as_xyz
  1  'x, y, z'
loop_
 _atom_site_type_symbol
 _atom_site_label
 _atom_site_symmetry_multiplicity
 _atom_site_fract_x
 _atom_site_fract_y
 _atom_site_fract_z
 _atom_site_occupancy
  Zn  Zn0  1  0.00400300  0.00400300  0.00400300  1
  Zn  Zn1  1  0.62438900  0.62438900  0.62438900  1
  Ni  Ni0  1  0.24691000  0.24691000  0.24691000  1
  Ni  Ni1  1  0.62747400  0.12053000  0.62747400  1
  Ni  Ni2  1  0.62747400  0.62747400  0.12053000  1
  Ni  Ni3  1  0.12053000  0.62747400  0.62747400  1
  O  O0  1  0.84998700  0.37462700  0.37462700  1
  O  O1  1  0.37462700  0.37462700  0.84998700  1
  O  O2  1  0.37462700  0.84998700  0.37462700  1
  O  O3  1  0.37519200  0.37519200  0.37519200  1
  O  O4  1  0.87033500  0.87033500  0.87033500  1
  O  O5  1  0.87082800  0.41279800  0.87082800  1
  O  O6  1  0.87082800  0.87082800  0.41279800  1
  O  O7  1  0.41279800  0.87082800  0.87082800  1
loop_
_geom_bond_atom_site_label_1
_geom_bond_atom_site_label_2
_geom_bond_distance
_geom_bond_site_symmetry_2
Ni0 O3 1.859516 1_555
Ni0 O2 1.908032 1_545
Ni0 O0 1.908032 1_455
Ni0 O1 1.908032 1_554
Ni1 O7 1.938611 1_545
Ni1 O6 1.938612 1_545
Ni1 O0 1.989631 1_555
Ni1 O1 1.989631 1_555
Ni1 O4 2.024291 1_545
Ni1 O3 2.102564 1_555
Ni2 O5 1.938612 1_554
Ni2 O7 1.938612 1_554
Ni2 O2 1.989631 1_555
Ni2 O0 1.989631 1_555
Ni2 O4 2.024291 1_554
Ni2 O3 2.102564 1_555
Ni3 O5 1.938611 1_455
Ni3 O6 1.938612 1_455
Ni3 O2 1.989631 1_555
Ni3 O1 1.989631 1_555
Ni3 O4 2.024291 1_455
Ni3 O3 2.102564 1_555
O0 Zn1 2.087321 1_555
O1 Zn1 2.087320 1_555
O2 Zn1 2.087321 1_555
O4 Zn0 1.937589 1_666
O5 Zn0 1.964693 1_656
O5 Zn1 2.065392 1_555
O6 Zn0 1.964693 1_665
O6 Zn1 2.065391 1_555
O7 Zn0 1.964693 1_566
O7 Zn1 2.065392 1_555
