# generated using pymatgen
data_Sr16Fe16O43
_symmetry_space_group_name_H-M   'P 1'
_cell_length_a   5.58942327
_cell_length_b   5.58820145
_cell_length_c   44.32113948
_cell_angle_alpha   60.21790681
_cell_angle_beta   59.82584309
_cell_angle_gamma   59.77712557
_symmetry_Int_Tables_number   1
_chemical_formula_structural   Sr16Fe16O43
_chemical_formula_sum   'Sr16 Fe16 O43'
_cell_volume   977.53184270
_cell_formula_units_Z   1
loop_
 _symmetry_equiv_pos_site_id
 _symmetry_equiv_pos_as_xyz
  1  'x, y, z'
loop_
 _atom_site_type_symbol
 _atom_site_label
 _atom_site_symmetry_multiplicity
 _atom_site_fract_x
 _atom_site_fract_y
 _atom_site_fract_z
 _atom_site_occupancy
  Sr  Sr0  1  0.25011600  0.25053200  0.03123700  1
  Sr  Sr1  1  0.24925100  0.25132600  0.15422500  1
  Sr  Sr2  1  0.73482200  0.74862900  0.09569400  1
  Sr  Sr3  1  0.25074900  0.24867400  0.28327500  1
  Sr  Sr4  1  0.75000000  0.75000000  0.21875000  1
  Sr  Sr5  1  0.24988400  0.24946800  0.40626300  1
  Sr  Sr6  1  0.76517800  0.75137100  0.34180600  1
  Sr  Sr7  1  0.24893300  0.24944000  0.52951300  1
  Sr  Sr8  1  0.73459300  0.74786900  0.47077300  1
  Sr  Sr9  1  0.24168000  0.24035600  0.66030600  1
  Sr  Sr10  1  0.74983100  0.74654900  0.59431600  1
  Sr  Sr11  1  0.25832000  0.25964400  0.77719400  1
  Sr  Sr12  1  0.75000000  0.75000000  0.71875000  1
  Sr  Sr13  1  0.25106700  0.25056000  0.90798700  1
  Sr  Sr14  1  0.75016900  0.75345100  0.84318400  1
  Sr  Sr15  1  0.76540700  0.75213100  0.96672700  1
  Fe  Fe0  1  0.97802000  0.01907500  0.99752200  1
  Fe  Fe1  1  0.99964300  0.00082500  0.12489600  1
  Fe  Fe2  1  0.52207500  0.48191300  0.06492700  1
  Fe  Fe3  1  0.97540700  0.98090200  0.25256100  1
  Fe  Fe4  1  0.52459300  0.51909800  0.18493900  1
  Fe  Fe5  1  0.97792500  0.01808700  0.37257300  1
  Fe  Fe6  1  0.50035700  0.49917500  0.31260400  1
  Fe  Fe7  1  0.00055400  0.00010700  0.49996200  1
  Fe  Fe8  1  0.52198000  0.48092500  0.43997800  1
  Fe  Fe9  1  0.98001600  0.98014100  0.62745400  1
  Fe  Fe10  1  0.52427300  0.51830000  0.56024400  1
  Fe  Fe11  1  0.99756500  0.99976600  0.75030100  1
  Fe  Fe12  1  0.50243500  0.50023400  0.68719900  1
  Fe  Fe13  1  0.97572700  0.98170000  0.87725600  1
  Fe  Fe14  1  0.51998400  0.51985900  0.81004600  1
  Fe  Fe15  1  0.49944600  0.49989300  0.93753800  1
  O  O0  1  0.23630100  0.26876700  0.09300900  1
  O  O1  1  0.22882000  0.78112100  0.08697900  1
  O  O2  1  0.74963000  0.25181100  0.03104800  1
  O  O3  1  0.75086100  0.75006300  0.03144000  1
  O  O4  1  0.24977900  0.73202600  0.15688500  1
  O  O5  1  0.73577400  0.26224400  0.09690800  1
  O  O6  1  0.25000000  0.75000000  0.21875000  1
  O  O7  1  0.70545300  0.21908400  0.16298900  1
  O  O8  1  0.77495100  0.73585300  0.15319400  1
  O  O9  1  0.25022100  0.76797400  0.28061500  1
  O  O10  1  0.75000000  0.25000000  0.21875000  1
  O  O11  1  0.26369900  0.23123300  0.34449100  1
  O  O12  1  0.27118000  0.71887900  0.35052100  1
  O  O13  1  0.79454700  0.28091600  0.27451100  1
  O  O14  1  0.72504900  0.76414700  0.28430600  1
  O  O15  1  0.76422600  0.23775600  0.34059200  1
  O  O16  1  0.23627300  0.26746200  0.46817300  1
  O  O17  1  0.75037000  0.24818900  0.40645200  1
  O  O18  1  0.22863900  0.78140300  0.46183100  1
  O  O19  1  0.25287600  0.72920800  0.53134100  1
  O  O20  1  0.74913900  0.74993700  0.40606000  1
  O  O21  1  0.73655400  0.26385100  0.47196800  1
  O  O22  1  0.70727100  0.21661600  0.53862100  1
  O  O23  1  0.24669200  0.75423500  0.59240200  1
  O  O24  1  0.75359000  0.25626500  0.59401700  1
  O  O25  1  0.77463000  0.73674100  0.52796100  1
  O  O26  1  0.26989300  0.78006600  0.65139700  1
  O  O27  1  0.25000000  0.25000000  0.71875000  1
  O  O28  1  0.78457800  0.26756000  0.65219400  1
  O  O29  1  0.25000000  0.75000000  0.71875000  1
  O  O30  1  0.75000000  0.25000000  0.71875000  1
  O  O31  1  0.74566000  0.74778400  0.65872800  1
  O  O32  1  0.23010700  0.71993400  0.78610300  1
  O  O33  1  0.71542200  0.23244000  0.78530600  1
  O  O34  1  0.25330800  0.74576500  0.84509800  1
  O  O35  1  0.75434000  0.75221600  0.77877200  1
  O  O36  1  0.26372700  0.23253800  0.96932700  1
  O  O37  1  0.74641000  0.24373500  0.84348300  1
  O  O38  1  0.24712400  0.77079200  0.90615900  1
  O  O39  1  0.27136100  0.71859700  0.97566900  1
  O  O40  1  0.79272900  0.28338400  0.89887900  1
  O  O41  1  0.76344600  0.23614900  0.96553200  1
  O  O42  1  0.72537000  0.76325900  0.90953900  1
loop_
_geom_bond_atom_site_label_1
_geom_bond_atom_site_label_2
_geom_bond_distance
_geom_bond_site_symmetry_2
Fe0 O41 1.859131 1_555
Fe0 O39 1.921833 1_645
Fe0 O2 1.967373 1_556
Fe0 O3 1.972233 1_546
Fe0 O36 1.991381 1_655
Fe1 O5 1.928207 1_555
Fe1 O8 1.945936 1_545
Fe1 O4 1.995986 1_645
Fe1 O0 2.000386 1_655
Fe1 O1 2.067548 1_645
Fe1 O7 2.068259 1_555
Fe2 O5 1.854742 1_555
Fe2 O1 1.921334 1_555
Fe2 O2 1.969141 1_555
Fe2 O3 1.973666 1_555
Fe2 O0 1.990823 1_555
Fe3 O14 1.854496 1_555
Fe3 O13 1.924721 1_565
Fe3 O10 1.961194 1_565
Fe3 O6 1.970092 1_655
Fe3 O9 1.982797 1_655
Fe4 O8 1.854496 1_555
Fe4 O7 1.924721 1_555
Fe4 O10 1.961194 1_555
Fe4 O6 1.970092 1_555
Fe4 O4 1.982797 1_555
Fe5 O15 1.854742 1_555
Fe5 O12 1.921334 1_645
Fe5 O17 1.969141 1_555
Fe5 O20 1.973666 1_545
Fe5 O11 1.990823 1_655
Fe6 O15 1.928207 1_555
Fe6 O14 1.945936 1_555
Fe6 O9 1.995986 1_555
Fe6 O11 2.000386 1_555
Fe6 O12 2.067548 1_555
Fe6 O13 2.068259 1_555
Fe7 O21 1.929628 1_455
Fe7 O25 1.944736 1_445
Fe7 O19 1.986406 1_545
Fe7 O16 1.994396 1_555
Fe7 O18 2.071833 1_545
Fe7 O22 2.079904 1_455
Fe8 O21 1.859131 1_555
Fe8 O18 1.921833 1_555
Fe8 O17 1.967373 1_555
Fe8 O20 1.972233 1_555
Fe8 O16 1.991381 1_555
Fe9 O31 1.849949 1_555
Fe9 O26 1.930651 1_655
Fe9 O28 1.937641 1_565
Fe9 O24 1.956193 1_565
Fe9 O23 1.988725 1_655
Fe10 O25 1.862087 1_555
Fe10 O22 1.921049 1_555
Fe10 O23 1.939425 1_555
Fe10 O24 1.972166 1_555
Fe10 O19 1.996232 1_555
Fe11 O35 1.946508 1_555
Fe11 O29 1.966531 1_655
Fe11 O30 1.969837 1_565
Fe11 O27 1.990484 1_665
Fe11 O33 2.016117 1_565
Fe11 O32 2.052988 1_655
Fe12 O31 1.946508 1_555
Fe12 O29 1.966531 1_555
Fe12 O30 1.969837 1_555
Fe12 O27 1.990484 1_555
Fe12 O28 2.016117 1_555
Fe12 O26 2.052988 1_555
Fe13 O42 1.862087 1_555
Fe13 O40 1.921049 1_565
Fe13 O34 1.939425 1_655
Fe13 O37 1.972166 1_565
Fe13 O38 1.996232 1_655
Fe14 O35 1.849949 1_555
Fe14 O32 1.930651 1_555
Fe14 O33 1.937641 1_555
Fe14 O37 1.956193 1_555
Fe14 O34 1.988725 1_555
Fe15 O41 1.929628 1_555
Fe15 O42 1.944736 1_555
Fe15 O38 1.986406 1_555
Fe15 O36 1.994396 1_555
Fe15 O39 2.071833 1_555
Fe15 O40 2.079904 1_555
O0 Sr1 2.702521 1_555
O0 Sr2 2.734297 1_455
O0 Sr0 2.751114 1_555
O0 Sr2 2.839543 1_545
O1 Sr0 2.565067 1_565
O1 Sr2 2.677519 1_455
O1 Sr2 2.948346 1_555
O1 Sr1 2.982823 1_555
O2 Sr0 2.791394 1_555
O2 Sr0 2.798052 1_655
O2 Sr15 2.833604 1_554
O2 Sr2 2.848735 1_545
O3 Sr0 2.781569 1_655
O3 Sr0 2.788440 1_565
O3 Sr2 2.799917 1_555
O3 Sr15 2.822526 1_554
O4 Sr2 2.706636 1_555
O4 Sr1 2.748231 1_555
O4 Sr4 2.760993 1_455
O4 Sr1 2.843783 1_565
O5 Sr1 2.630721 1_555
O5 Sr2 2.689050 1_555
O5 Sr0 2.886003 1_655
O5 Sr2 2.899993 1_545
O6 Sr4 2.794712 1_555
O6 Sr4 2.794712 1_455
O6 Sr1 2.840475 1_565
O6 Sr3 2.840475 1_555
O7 Sr4 2.562627 1_545
O7 Sr1 2.673759 1_555
O7 Sr1 2.952450 1_655
O7 Sr2 2.984736 1_555
O8 Sr2 2.632078 1_555
O8 Sr1 2.670947 1_655
O8 Sr4 2.877060 1_555
O8 Sr1 2.899723 1_565
O9 Sr6 2.706636 1_455
O9 Sr3 2.748231 1_565
O9 Sr4 2.760993 1_555
O9 Sr3 2.843783 1_555
O10 Sr4 2.794101 1_545
O10 Sr4 2.794101 1_555
O10 Sr1 2.818341 1_655
O10 Sr3 2.818341 1_555
O11 Sr3 2.702521 1_555
O11 Sr6 2.734297 1_545
O11 Sr5 2.751114 1_555
O11 Sr6 2.839543 1_455
O12 Sr5 2.565067 1_555
O12 Sr6 2.677519 1_555
O12 Sr6 2.948346 1_455
O12 Sr3 2.982823 1_565
O13 Sr4 2.562627 1_555
O13 Sr3 2.673759 1_655
O13 Sr3 2.952450 1_555
O13 Sr6 2.984736 1_545
O14 Sr6 2.632078 1_555
O14 Sr3 2.670947 1_565
O14 Sr4 2.877060 1_555
O14 Sr3 2.899723 1_655
O15 Sr3 2.630721 1_655
O15 Sr6 2.689050 1_545
O15 Sr5 2.886003 1_555
O15 Sr6 2.899993 1_555
O16 Sr7 2.705638 1_555
O16 Sr8 2.736295 1_455
O16 Sr5 2.757090 1_555
O16 Sr8 2.837347 1_545
O17 Sr5 2.791394 1_655
O17 Sr5 2.798052 1_555
O17 Sr8 2.833604 1_545
O17 Sr6 2.848735 1_555
O18 Sr5 2.557445 1_565
O18 Sr8 2.676697 1_455
O18 Sr8 2.951120 1_555
O18 Sr7 2.998729 1_555
O19 Sr8 2.684290 1_555
O19 Sr7 2.733512 1_555
O19 Sr10 2.794783 1_455
O19 Sr7 2.856912 1_565
O20 Sr5 2.781569 1_565
O20 Sr5 2.788440 1_655
O20 Sr6 2.799917 1_555
O20 Sr8 2.822526 1_555
O21 Sr7 2.639853 1_555
O21 Sr8 2.673432 1_555
O21 Sr5 2.884478 1_655
O21 Sr8 2.915664 1_545
O22 Sr10 2.563177 1_545
O22 Sr7 2.693068 1_555
O22 Sr7 2.935943 1_655
O22 Sr8 3.000961 1_555
O23 Sr10 2.757051 1_455
O23 Sr7 2.786497 1_565
O23 Sr10 2.834154 1_555
O23 Sr9 2.952208 1_555
O24 Sr10 2.735871 1_555
O24 Sr7 2.808082 1_655
O24 Sr10 2.852446 1_545
O24 Sr9 2.893552 1_555
O25 Sr8 2.622582 1_555
O25 Sr7 2.679147 1_655
O25 Sr7 2.892159 1_565
O25 Sr10 2.900684 1_555
O26 Sr10 2.602735 1_555
O26 Sr9 2.708314 1_565
O26 Sr9 2.917235 1_555
O26 Sr12 2.942235 1_455
O27 Sr11 2.641409 1_555
O27 Sr9 2.641409 1_555
O27 Sr12 2.784987 1_545
O27 Sr12 2.784987 1_455
O28 Sr10 2.634234 1_555
O28 Sr9 2.675477 1_655
O28 Sr12 2.935672 1_545
O28 Sr9 2.945142 1_555
O29 Sr9 2.676232 1_565
O29 Sr11 2.676232 1_555
O29 Sr12 2.794712 1_455
O29 Sr12 2.794712 1_555
O30 Sr11 2.664331 1_555
O30 Sr9 2.664331 1_655
O30 Sr12 2.794101 1_545
O30 Sr12 2.794101 1_555
O31 Sr12 2.678719 1_555
O31 Sr9 2.775604 1_565
O31 Sr9 2.795624 1_655
O31 Sr10 2.846586 1_555
O32 Sr14 2.602735 1_455
O32 Sr11 2.708314 1_555
O32 Sr11 2.917235 1_565
O32 Sr12 2.942235 1_555
O33 Sr14 2.634234 1_545
O33 Sr11 2.675477 1_555
O33 Sr12 2.935672 1_555
O33 Sr11 2.945142 1_655
O34 Sr14 2.757051 1_555
O34 Sr13 2.786497 1_555
O34 Sr14 2.834154 1_455
O34 Sr11 2.952208 1_565
O35 Sr12 2.678719 1_555
O35 Sr11 2.775604 1_655
O35 Sr11 2.795624 1_565
O35 Sr14 2.846586 1_555
O36 Sr13 2.705638 1_555
O36 Sr15 2.736295 1_545
O36 Sr0 2.757090 1_556
O36 Sr15 2.837347 1_455
O37 Sr14 2.735871 1_545
O37 Sr13 2.808082 1_555
O37 Sr14 2.852446 1_555
O37 Sr11 2.893552 1_655
O38 Sr15 2.684290 1_455
O38 Sr13 2.733512 1_565
O38 Sr14 2.794783 1_555
O38 Sr13 2.856912 1_555
O39 Sr0 2.557445 1_556
O39 Sr15 2.676697 1_555
O39 Sr15 2.951120 1_455
O39 Sr13 2.998729 1_565
O40 Sr14 2.563177 1_555
O40 Sr13 2.693068 1_655
O40 Sr13 2.935943 1_555
O40 Sr15 3.000961 1_545
O41 Sr13 2.639853 1_655
O41 Sr15 2.673432 1_545
O41 Sr0 2.884478 1_556
O41 Sr15 2.915664 1_555
O42 Sr15 2.622582 1_555
O42 Sr13 2.679147 1_565
O42 Sr13 2.892159 1_655
O42 Sr14 2.900684 1_555
